# Generated by pormake.
# Topology yfk, (5)-cn, num edge types: 1
# Building blocks:
#     Node 0, Type 0, BuildingBlock: XOMCOT_clean_sbu_1, # of connection points: 5
#     Node 1, Type 0, BuildingBlock: XOMCOT_clean_sbu_1, # of connection points: 5
#     Node 2, Type 0, BuildingBlock: XOMCOT_clean_sbu_1, # of connection points: 5
#     Node 3, Type 0, BuildingBlock: XOMCOT_clean_sbu_1, # of connection points: 5
#     Node 4, Type 0, BuildingBlock: XOMCOT_clean_sbu_1, # of connection points: 5
#     Node 5, Type 0, BuildingBlock: XOMCOT_clean_sbu_1, # of connection points: 5
#     Node 6, Type 0, BuildingBlock: XOMCOT_clean_sbu_1, # of connection points: 5
#     Node 7, Type 0, BuildingBlock: XOMCOT_clean_sbu_1, # of connection points: 5
#     Node 8, Type 0, BuildingBlock: XOMCOT_clean_sbu_1, # of connection points: 5
#     Node 9, Type 0, BuildingBlock: XOMCOT_clean_sbu_1, # of connection points: 5
#     Node 10, Type 0, BuildingBlock: XOMCOT_clean_sbu_1, # of connection points: 5
#     Node 11, Type 0, BuildingBlock: XOMCOT_clean_sbu_1, # of connection points: 5
#     Node 12, Type 0, BuildingBlock: XOMCOT_clean_sbu_1, # of connection points: 5
#     Node 13, Type 0, BuildingBlock: XOMCOT_clean_sbu_1, # of connection points: 5
#     Node 14, Type 0, BuildingBlock: XOMCOT_clean_sbu_1, # of connection points: 5
#     Node 15, Type 0, BuildingBlock: XOMCOT_clean_sbu_1, # of connection points: 5
#     Edge 16, Type (0, 0), BuildingBlock: TEMPAE_clean_linker_10, # of connection points: 2
#     Edge 17, Type (0, 0), BuildingBlock: TEMPAE_clean_linker_10, # of connection points: 2
#     Edge 18, Type (0, 0), BuildingBlock: TEMPAE_clean_linker_10, # of connection points: 2
#     Edge 19, Type (0, 0), BuildingBlock: TEMPAE_clean_linker_10, # of connection points: 2
#     Edge 20, Type (0, 0), BuildingBlock: TEMPAE_clean_linker_10, # of connection points: 2
#     Edge 21, Type (0, 0), BuildingBlock: TEMPAE_clean_linker_10, # of connection points: 2
#     Edge 22, Type (0, 0), BuildingBlock: TEMPAE_clean_linker_10, # of connection points: 2
#     Edge 23, Type (0, 0), BuildingBlock: TEMPAE_clean_linker_10, # of connection points: 2
#     Edge 24, Type (0, 0), BuildingBlock: TEMPAE_clean_linker_10, # of connection points: 2
#     Edge 25, Type (0, 0), BuildingBlock: TEMPAE_clean_linker_10, # of connection points: 2
#     Edge 26, Type (0, 0), BuildingBlock: TEMPAE_clean_linker_10, # of connection points: 2
#     Edge 27, Type (0, 0), BuildingBlock: TEMPAE_clean_linker_10, # of connection points: 2
#     Edge 28, Type (0, 0), BuildingBlock: TEMPAE_clean_linker_10, # of connection points: 2
#     Edge 29, Type (0, 0), BuildingBlock: TEMPAE_clean_linker_10, # of connection points: 2
#     Edge 30, Type (0, 0), BuildingBlock: TEMPAE_clean_linker_10, # of connection points: 2
#     Edge 31, Type (0, 0), BuildingBlock: TEMPAE_clean_linker_10, # of connection points: 2
#     Edge 32, Type (0, 0), BuildingBlock: TEMPAE_clean_linker_10, # of connection points: 2
#     Edge 33, Type (0, 0), BuildingBlock: TEMPAE_clean_linker_10, # of connection points: 2
#     Edge 34, Type (0, 0), BuildingBlock: TEMPAE_clean_linker_10, # of connection points: 2
#     Edge 35, Type (0, 0), BuildingBlock: TEMPAE_clean_linker_10, # of connection points: 2
#     Edge 36, Type (0, 0), BuildingBlock: TEMPAE_clean_linker_10, # of connection points: 2
#     Edge 37, Type (0, 0), BuildingBlock: TEMPAE_clean_linker_10, # of connection points: 2
#     Edge 38, Type (0, 0), BuildingBlock: TEMPAE_clean_linker_10, # of connection points: 2
#     Edge 39, Type (0, 0), BuildingBlock: TEMPAE_clean_linker_10, # of connection points: 2
#     Edge 40, Type (0, 0), BuildingBlock: TEMPAE_clean_linker_10, # of connection points: 2
#     Edge 41, Type (0, 0), BuildingBlock: TEMPAE_clean_linker_10, # of connection points: 2
#     Edge 42, Type (0, 0), BuildingBlock: TEMPAE_clean_linker_10, # of connection points: 2
#     Edge 43, Type (0, 0), BuildingBlock: TEMPAE_clean_linker_10, # of connection points: 2
#     Edge 44, Type (0, 0), BuildingBlock: TEMPAE_clean_linker_10, # of connection points: 2
#     Edge 45, Type (0, 0), BuildingBlock: TEMPAE_clean_linker_10, # of connection points: 2
#     Edge 46, Type (0, 0), BuildingBlock: TEMPAE_clean_linker_10, # of connection points: 2
#     Edge 47, Type (0, 0), BuildingBlock: TEMPAE_clean_linker_10, # of connection points: 2
#     Edge 48, Type (0, 0), BuildingBlock: TEMPAE_clean_linker_10, # of connection points: 2
#     Edge 49, Type (0, 0), BuildingBlock: TEMPAE_clean_linker_10, # of connection points: 2
#     Edge 50, Type (0, 0), BuildingBlock: TEMPAE_clean_linker_10, # of connection points: 2
#     Edge 51, Type (0, 0), BuildingBlock: TEMPAE_clean_linker_10, # of connection points: 2
#     Edge 52, Type (0, 0), BuildingBlock: TEMPAE_clean_linker_10, # of connection points: 2
#     Edge 53, Type (0, 0), BuildingBlock: TEMPAE_clean_linker_10, # of connection points: 2
#     Edge 54, Type (0, 0), BuildingBlock: TEMPAE_clean_linker_10, # of connection points: 2
#     Edge 55, Type (0, 0), BuildingBlock: TEMPAE_clean_linker_10, # of connection points: 2
# Relax obj value: 0.583
# Max RMSD: 0.279
# Mean RMSD: 0.279
data_MOF--net-yfk--node1-XOMCOT_clean_sbu_1--edge1-TEMPAE_clean_linker_10
_symmetry_space_group_name_H-M    P1
_symmetry_Int_Tables_number       1
_symmetry_cell_setting            triclinic
loop_
_symmetry_equiv_pos_as_xyz
'x, y, z'
_cell_length_a     50.120095
_cell_length_b     50.188276
_cell_length_c     27.611931
_cell_angle_alpha  89.921566
_cell_angle_beta   89.918428
_cell_angle_gamma 89.893422
loop_
_atom_site_label
_atom_site_type_symbol
_atom_site_fract_x
_atom_site_fract_y
_atom_site_fract_z
_atom_type_partial_charge
C0 C 0.07701 0.12695 0.37755 0.0
C1 C 0.08262 0.11221 0.41832 0.0
N2 N 0.09713 0.09093 0.40471 0.0
N3 N 0.0876 0.11463 0.33853 0.0
C4 C 0.09951 0.09263 0.35625 0.0
H5 H 0.06769 0.1464 0.37688 0.0
Co6 Co 0.09283 0.12918 0.27759 0.0
C7 C 0.0616 0.09093 0.21628 0.0
O8 O 0.0532 0.11151 0.19102 0.0
N9 N 0.09995 0.14551 0.21766 0.0
C10 C 0.10943 0.15871 0.14243 0.0
C11 C 0.10232 0.1373 0.17125 0.0
C12 C 0.10778 0.17127 0.21636 0.0
N13 N 0.11287 0.18007 0.17119 0.0
O14 O 0.12998 0.11718 0.27992 0.0
H15 H 0.09982 0.11704 0.15894 0.0
H16 H 0.10968 0.18351 0.24838 0.0
O17 O 0.08008 0.0946 0.24801 0.0
C18 C 0.14448 0.13254 0.30578 0.0
O19 O 0.13329 0.15409 0.32373 0.0
N20 N 0.05685 0.14223 0.27827 0.0
C21 C 1.00479 0.16071 0.29406 0.0
C22 C 1.01082 0.13351 0.29635 0.0
C23 C 0.03688 0.12495 0.29058 0.0
C24 C 0.0512 0.16884 0.27442 0.0
C25 C 0.02529 0.17851 0.28217 0.0
H26 H 0.04115 0.10441 0.29924 0.0
H27 H 0.06682 0.18315 0.2691 0.0
H28 H 0.11172 0.07936 0.33464 0.0
H29 H 0.07863 0.118 0.4554 0.0
H30 H 0.11242 0.15846 0.1036 0.0
H31 H 0.99609 0.11902 0.30762 0.0
H32 H 0.0217 0.1998 0.28205 0.0
C33 C 0.13908 0.90246 0.60195 0.0
C34 C 0.12019 0.90099 0.5662 0.0
N35 N 0.09641 0.89716 0.58751 0.0
N36 N 0.12709 0.90031 0.6457 0.0
C37 C 0.10106 0.89665 0.63543 0.0
H38 H 0.16028 0.90323 0.59555 0.0
Co39 Co 0.14216 0.8977 0.70688 0.0
C40 C 0.10175 0.92915 0.77094 0.0
O41 O 0.11557 0.92688 0.81106 0.0
N42 N 0.15834 0.89387 0.76761 0.0
C43 C 0.17125 0.87783 0.83928 0.0
C44 C 0.14973 0.88216 0.80887 0.0
C45 C 0.18501 0.89565 0.77333 0.0
N46 N 0.1934 0.88609 0.81621 0.0
O47 O 0.12495 0.86313 0.71359 0.0
H48 H 0.12951 0.87543 0.81504 0.0
H49 H 0.19853 0.90206 0.74527 0.0
O50 O 0.1103 0.91768 0.73234 0.0
C51 C 0.14085 0.8436 0.70596 0.0
O52 O 0.16649 0.84858 0.70203 0.0
N53 N 0.16064 0.93011 0.69638 0.0
C54 C 0.17984 0.97338 0.64495 0.0
C55 C 0.16124 0.97715 0.68218 0.0
C56 C 0.15186 0.95513 0.70772 0.0
C57 C 0.18252 0.92711 0.66746 0.0
C58 C 0.19229 0.94852 0.6406 0.0
H59 H 0.13614 0.95851 0.7332 0.0
H60 H 0.19019 0.90733 0.6603 0.0
H61 H 0.08595 0.89246 0.66242 0.0
H62 H 0.12382 0.90078 0.52753 0.0
H63 H 0.1709 0.86759 0.87381 0.0
H64 H 0.15148 0.99622 0.68737 0.0
H65 H 0.20711 0.94497 0.61274 0.0
C66 C 0.86048 0.90842 0.37839 0.0
C67 C 0.86656 0.91377 0.42555 0.0
N68 N 0.89019 0.92629 0.42644 0.0
N69 N 0.88007 0.91772 0.34939 0.0
C70 C 0.89797 0.92885 0.37985 0.0
H71 H 0.84396 0.8963 0.36671 0.0
Co72 Co 0.88305 0.90606 0.28604 0.0
C73 C 0.92051 0.94439 0.23284 0.0
O74 O 0.92068 0.9285 0.19518 0.0
N75 N 0.88475 0.89204 0.22294 0.0
C76 C 0.87382 0.87989 0.14791 0.0
C77 C 0.873 0.90029 0.18149 0.0
C78 C 0.89207 0.86662 0.2137 0.0
N79 N 0.88585 0.85871 0.16858 0.0
O80 O 0.84969 0.92427 0.27187 0.0
H81 H 0.86314 0.91931 0.17687 0.0
H82 H 0.89957 0.85313 0.24095 0.0
O83 O 0.90581 0.93842 0.26961 0.0
C84 C 0.83089 0.90709 0.27485 0.0
O85 O 0.83763 0.88177 0.27335 0.0
N86 N 0.91304 0.88631 0.30447 0.0
C87 C 0.95098 0.86205 0.36207 0.0
C88 C 0.9588 0.87963 0.32526 0.0
C89 C 0.93936 0.8917 0.2966 0.0
C90 C 0.90568 0.86628 0.33514 0.0
C91 C 0.92435 0.85412 0.36507 0.0
H92 H 0.94566 0.90643 0.27091 0.0
H93 H 0.88478 0.86158 0.33963 0.0
H94 H 0.91715 0.9366 0.3686 0.0
H95 H 0.85498 0.90808 0.45704 0.0
H96 H 0.8652 0.88026 0.112 0.0
H97 H 0.97936 0.88606 0.32198 0.0
H98 H 0.91775 0.84045 0.39299 0.0
C99 C 0.95026 0.08153 0.64344 0.0
C100 C 0.95151 0.08218 0.59362 0.0
N101 N 0.94066 0.10532 0.57852 0.0
N102 N 0.93923 0.10448 0.6595 0.0
C103 C 0.93326 0.11818 0.61904 0.0
H104 H 0.95611 0.06499 0.66624 0.0
Co105 Co 0.92837 0.11447 0.72145 0.0
C106 C 0.98497 0.09544 0.73495 0.0
O107 O 0.99358 0.1131 0.70345 0.0
N108 N 0.91566 0.12445 0.78178 0.0
C109 C 0.90361 0.12799 0.859 0.0
C110 C 0.92456 0.12246 0.8277 0.0
C111 C 0.88977 0.13144 0.78595 0.0
N112 N 0.8818 0.13373 0.83231 0.0
O113 O 0.94629 0.14897 0.7132 0.0
H114 H 0.94431 0.11577 0.83782 0.0
H115 H 0.87638 0.13266 0.75529 0.0
O116 O 0.96053 0.09636 0.74861 0.0
C117 C 0.93017 0.1668 0.69733 0.0
O118 O 0.9048 0.16058 0.69369 0.0
N119 N 0.90969 0.08259 0.72727 0.0
C120 C 0.89568 0.03076 0.70762 0.0
C121 C 0.90991 0.03668 0.74986 0.0
C122 C 0.91627 0.06315 0.75973 0.0
C123 C 0.89145 0.07783 0.69194 0.0
C124 C 0.88426 0.05178 0.68108 0.0
H125 H 0.92873 0.0676 0.79053 0.0
H126 H 0.88531 0.09383 0.66812 0.0
H127 H 0.92328 0.13714 0.61904 0.0
H128 H 0.95931 0.06664 0.5704 0.0
H129 H 0.90411 0.1269 0.89814 0.0
H130 H 0.91824 0.02096 0.77215 0.0
H131 H 0.87282 0.04815 0.64851 0.0
C132 C 0.09814 0.3903 0.85387 0.0
C133 C 0.10584 0.39662 0.80757 0.0
N134 N 0.11619 0.42129 0.80826 0.0
N135 N 0.10378 0.41091 0.88355 0.0
C136 C 0.11437 0.42972 0.85443 0.0
H137 H 0.09193 0.37077 0.86595 0.0
Co138 Co 0.10898 0.40661 0.94966 0.0
C139 C 0.07253 0.4494 -0.0091 0.0
O140 O 0.064 0.43189 0.02273 0.0
N141 N 0.11616 0.39998 0.01543 0.0
C142 C 0.11936 0.39414 0.09527 0.0
C143 C 0.11332 0.41212 0.05881 0.0
C144 C 0.12654 0.37591 0.02665 0.0
N145 N 0.12757 0.37127 0.07458 0.0
O146 O 0.14476 0.42192 0.94242 0.0
H147 H 0.10683 0.43242 0.06423 0.0
H148 H 0.13175 0.36117 -0.00031 0.0
O149 O 0.09161 0.44277 0.96175 0.0
C150 C 0.16038 0.40479 0.9228 0.0
O151 O 0.15099 0.3807 0.91549 0.0
N152 N 0.07503 0.38951 0.95401 0.0
C153 C 0.02782 0.36107 0.93894 0.0
C154 C 0.02926 0.38839 0.92882 0.0
C155 C 0.05315 0.40183 0.93466 0.0
C156 C 0.07355 0.36308 0.96614 0.0
C157 C 0.05012 0.34852 0.95907 0.0
H158 H 0.05452 0.42153 0.91931 0.0
H159 H 0.09099 0.35215 0.97671 0.0
H160 H 0.12401 0.44755 0.86777 0.0
H161 H 0.10631 0.38325 0.77684 0.0
H162 H 0.11718 0.39736 0.13383 0.0
H163 H 1.013 0.39877 0.91116 0.0
H164 H 0.05014 0.32723 0.96561 0.0
C165 C 0.39043 0.92535 0.12323 0.0
C166 C 0.39359 0.92188 0.17203 0.0
N167 N 0.41778 0.91122 0.17932 0.0
N168 N 0.41259 0.91687 0.09963 0.0
C169 C 0.42911 0.90873 0.13531 0.0
H170 H 0.37187 0.93094 0.10645 0.0
Co171 Co 0.41328 0.90758 0.03389 0.0
C172 C 0.47129 0.92724 0.03392 0.0
O173 O 0.48078 0.90668 0.05785 0.0
N174 N 0.41217 0.89791 0.96951 0.0
C175 C 0.40464 0.90489 0.8915 0.0
C176 C 0.42086 0.91122 0.93013 0.0
C177 C 0.39171 0.88292 0.95374 0.0
N178 N 0.38588 0.88753 0.90684 0.0
O179 O 0.43224 0.87456 0.04994 0.0
H180 H 0.43514 0.92734 0.93087 0.0
H181 H 0.37835 0.87269 0.97833 0.0
O182 O 0.44649 0.92804 0.02327 0.0
C183 C 0.41656 0.85803 0.07093 0.0
O184 O 0.39131 0.86474 0.07548 0.0
N185 N 0.39278 0.93814 0.01938 0.0
C186 C 0.35639 0.97902 0.03475 0.0
C187 C 0.38386 0.9843 0.0337 0.0
C188 C 0.4018 0.96345 0.02685 0.0
C189 C 0.3662 0.93361 0.0122 0.0
C190 C 0.34753 0.95387 0.01998 0.0
H191 H 0.42251 0.96743 0.03402 0.0
H192 H 0.35901 0.91352 0.00765 0.0
H193 H 0.44755 0.89803 0.12908 0.0
H194 H 0.37847 0.92469 0.19962 0.0
H195 H 0.4046 0.91485 0.85669 0.0
H196 H 0.39163 1.00337 0.04537 0.0
H197 H 0.32648 0.949 0.02064 0.0
C198 C 0.88365 0.64729 0.83138 0.0
C199 C 0.8768 0.63705 0.78745 0.0
N200 N 0.88216 0.61085 0.78818 0.0
N201 N 0.89419 0.62796 0.85962 0.0
C202 C 0.89284 0.60573 0.83217 0.0
H203 H 0.87804 0.66692 0.84378 0.0
Co204 Co 0.8947 0.63277 0.92612 0.0
C205 C 0.91383 0.57372 0.94024 0.0
O206 O 0.89032 0.56221 0.93946 0.0
N207 N 0.89333 0.63989 -0.00853 0.0
C208 C 0.89384 0.64604 0.07119 0.0
C209 C 0.89414 0.62711 0.03445 0.0
C210 C 0.89209 0.66589 0.00266 0.0
N211 N 0.89292 0.6704 0.0505 0.0
O212 O 0.8599 0.61563 0.92811 0.0
H213 H 0.89562 0.60574 0.03878 0.0
H214 H 0.89121 0.68144 0.97548 0.0
O215 O 0.91526 0.59907 0.93571 0.0
C216 C 0.84172 0.6331 0.92092 0.0
O217 O 0.84865 0.65831 0.92318 0.0
N218 N 0.92807 0.65067 0.92305 0.0
C219 C 0.97965 0.66879 0.90615 0.0
C220 C 0.97428 0.65182 0.94537 0.0
C221 C 0.94833 0.64285 0.95296 0.0
C222 C 0.93216 0.67132 0.89177 0.0
C223 C 0.95791 0.68015 0.88163 0.0
H224 H 0.94485 0.62856 0.98155 0.0
H225 H 0.91587 0.68036 0.87267 0.0
H226 H 0.89657 0.58587 0.84578 0.0
H227 H 0.86669 0.64763 0.7586 0.0
H228 H 0.89518 0.64225 0.10971 0.0
H229 H 0.99017 0.64384 0.96763 0.0
H230 H 0.96063 0.69412 0.85216 0.0
C231 C 0.64099 0.09844 0.1255 0.0
C232 C 0.62608 0.10124 0.16695 0.0
N233 N 0.60231 0.11149 0.1544 0.0
N234 N 0.62647 0.1067 0.08714 0.0
C235 C 0.60298 0.11462 0.10604 0.0
H236 H 0.66182 0.09304 0.12402 0.0
Co237 Co 0.63925 0.11354 0.02529 0.0
C238 C 0.60164 0.07844 0.96752 0.0
O239 O 0.62172 0.07006 0.9409 0.0
N240 N 0.65358 0.12186 0.96397 0.0
C241 C 0.66606 0.12699 0.88698 0.0
C242 C 0.64517 0.12051 0.91756 0.0
C243 C 0.67864 0.13159 0.96039 0.0
N244 N 0.68718 0.13383 0.91431 0.0
O245 O 0.62298 0.14879 0.02838 0.0
H246 H 0.62532 0.1151 0.90614 0.0
H247 H 0.69087 0.13638 -0.00865 0.0
O248 O 0.60577 0.09702 -0.00132 0.0
C249 C 0.63724 0.16346 0.05594 0.0
O250 O 0.66007 0.15363 0.07123 0.0
N251 N 0.6571 0.07994 0.02642 0.0
C252 C 0.68369 0.03722 0.06912 0.0
C253 C 0.65687 0.03491 0.05586 0.0
C254 C 0.64367 0.05696 0.03718 0.0
C255 C 0.68419 0.08075 0.03233 0.0
C256 C 0.69794 0.05952 0.05352 0.0
H257 H 0.62227 0.05652 0.0395 0.0
H258 H 0.69485 0.09912 0.02859 0.0
H259 H 0.58762 0.12476 0.08548 0.0
H260 H 0.63303 0.09858 0.20374 0.0
H261 H 0.66583 0.12642 0.84779 0.0
H262 H 0.64491 0.0184 0.06887 0.0
H263 H 0.71849 0.06231 0.06452 0.0
C264 C 0.58842 0.63741 0.861 0.0
C265 C 0.59235 0.6249 0.9047 0.0
N266 N 0.60397 0.60123 0.89592 0.0
N267 N 0.59715 0.62139 0.82499 0.0
C268 C 0.60607 0.59932 0.84744 0.0
H269 H 0.58202 0.65783 0.85628 0.0
Co270 Co 0.60501 0.63157 0.76196 0.0
C271 C 0.56979 0.59436 0.70605 0.0
O272 O 0.56287 0.61473 0.67881 0.0
N273 N 0.61465 0.64317 0.69993 0.0
C274 C 0.624 0.65295 0.62292 0.0
C275 C 0.61518 0.63331 0.65436 0.0
C276 C 0.62546 0.66759 0.6955 0.0
N277 N 0.63009 0.6746 0.64932 0.0
O278 O 0.64023 0.61509 0.76809 0.0
H279 H 0.60931 0.6134 0.64414 0.0
H280 H 0.62956 0.68049 0.7259 0.0
O281 O 0.5882 0.59765 0.73796 0.0
C282 C 0.65529 0.6293 0.79508 0.0
O283 O 0.64583 0.65202 0.81143 0.0
N284 N 0.57144 0.64981 0.75937 0.0
C285 C 0.52785 0.67896 0.79357 0.0
C286 C 0.52634 0.65123 0.78894 0.0
C287 C 0.54857 0.63703 0.77338 0.0
C288 C 0.57181 0.67707 0.75821 0.0
C289 C 0.55013 0.69203 0.77463 0.0
H290 H 0.54838 0.61586 0.77988 0.0
H291 H 0.5899 0.68772 0.75152 0.0
H292 H 0.61651 0.58338 0.82898 0.0
H293 H 0.58964 0.63369 0.94017 0.0
H294 H 0.62461 0.65187 0.58378 0.0
H295 H 0.5099 0.64018 0.80465 0.0
H296 H 0.55226 0.7134 0.77861 0.0
C297 C 0.6051 0.4309 0.11702 0.0
C298 C 0.59374 0.42817 0.07213 0.0
N299 N 0.59741 0.40285 0.05723 0.0
N300 N 0.61604 0.40745 0.13057 0.0
C301 C 0.61127 0.39089 0.09306 0.0
H302 H 0.60513 0.44887 0.13857 0.0
Co303 Co 0.63357 0.40047 0.18907 0.0
C304 C 0.60005 0.43338 0.2614 0.0
O305 O 0.61735 0.43105 0.29684 0.0
N306 N 0.65186 0.39319 0.2469 0.0
C307 C 0.66569 0.37421 0.31537 0.0
C308 C 0.64382 0.3796 0.28653 0.0
C309 C 0.67857 0.3955 0.25228 0.0
N310 N 0.68755 0.38428 0.29355 0.0
O311 O 0.61464 0.36674 0.19394 0.0
H312 H 0.62359 0.37297 0.29293 0.0
H313 H 0.69159 0.40363 0.22481 0.0
O314 O 0.60445 0.42122 0.22137 0.0
C315 C 0.6308 0.34957 0.17598 0.0
O316 O 0.65518 0.35752 0.16602 0.0
N317 N 0.6541 0.43102 0.1794 0.0
C318 C 0.67616 0.47357 0.13054 0.0
C319 C 0.66188 0.47784 0.17355 0.0
C320 C 0.65107 0.45603 0.19797 0.0
C321 C 0.67175 0.42642 0.14281 0.0
C322 C 0.68337 0.44752 0.11806 0.0
H323 H 0.63848 0.45988 0.22855 0.0
H324 H 0.67455 0.40634 0.12952 0.0
H325 H 0.61717 0.37025 0.09236 0.0
H326 H 0.58341 0.44367 0.05232 0.0
H327 H 0.66559 0.36318 0.34909 0.0
H328 H 0.65624 0.49774 0.18477 0.0
H329 H 0.69482 0.44351 0.08556 0.0
C330 C 0.41257 0.39427 0.87698 0.0
C331 C 0.40718 0.40444 0.92192 0.0
N332 N 0.3979 0.42933 0.91599 0.0
N333 N 0.40674 0.41276 0.843 0.0
C334 C 0.39793 0.43412 0.86798 0.0
H335 H 0.41803 0.37385 0.86931 0.0
Co336 Co 0.40145 0.40349 0.77898 0.0
C337 C 0.43596 0.44133 0.72375 0.0
O338 O 0.44329 0.4204 0.69841 0.0
N339 N 0.39405 0.39208 0.71568 0.0
C340 C 0.38535 0.38543 0.63741 0.0
C341 C 0.39226 0.40409 0.67189 0.0
C342 C 0.38568 0.36694 0.70735 0.0
N343 N 0.38114 0.36212 0.66018 0.0
O344 O 0.36543 0.41843 0.78303 0.0
H345 H 0.39549 0.42505 0.66511 0.0
H346 H 0.38286 0.35225 0.73557 0.0
O347 O 0.4175 0.43851 0.75605 0.0
C348 C 0.35012 0.40325 0.8079 0.0
O349 O 0.35958 0.38005 0.8219 0.0
N350 N 0.43632 0.38745 0.77871 0.0
C351 C 0.4858 0.36382 0.79839 0.0
C352 C 0.48212 0.39126 0.80352 0.0
C353 C 0.45723 0.40242 0.79526 0.0
C354 C 0.43971 0.36056 0.77288 0.0
C355 C 0.46432 0.34832 0.78267 0.0
H356 H 0.45447 0.42296 0.80567 0.0
H357 H 0.42308 0.34793 0.76467 0.0
H358 H 0.38909 0.45155 0.85132 0.0
H359 H 0.40821 0.39386 0.95607 0.0
H360 H 0.38327 0.38874 0.59885 0.0
H361 H 0.49773 0.40376 0.81829 0.0
H362 H 0.46611 0.32684 0.78056 0.0
C363 C 0.42259 0.6023 0.11815 0.0
C364 C 0.43493 0.60713 0.07471 0.0
N365 N 0.45707 0.62136 0.08339 0.0
N366 N 0.43723 0.61299 0.15429 0.0
C367 C 0.45816 0.6245 0.13177 0.0
H368 H 0.40292 0.59382 0.12244 0.0
Co369 Co 0.42539 0.6191 0.2174 0.0
C370 C 0.46169 0.58336 0.27449 0.0
O371 O 0.44039 0.57648 0.2993 0.0
N372 N 0.41205 0.62709 0.27951 0.0
C373 C 0.40183 0.63399 0.35712 0.0
C374 C 0.4219 0.62711 0.32509 0.0
C375 C 0.38702 0.63669 0.28472 0.0
N376 N 0.37986 0.63995 0.3313 0.0
O377 O 0.44027 0.65521 0.21419 0.0
H378 H 0.44221 0.62235 0.3349 0.0
H379 H 0.37383 0.64066 0.2546 0.0
O380 O 0.45958 0.60239 0.24317 0.0
C381 C 0.42433 0.66972 0.1892 0.0
O382 O 0.40198 0.65877 0.17436 0.0
N383 N 0.40857 0.58476 0.2171 0.0
C384 C 0.38197 0.5379 0.19126 0.0
C385 C 0.40988 0.53921 0.19033 0.0
C386 C 0.42266 0.56282 0.20227 0.0
C387 C 0.38137 0.58327 0.22036 0.0
C388 C 0.36773 0.55997 0.20828 0.0
H389 H 0.4437 0.56412 0.19428 0.0
H390 H 0.36955 0.60062 0.2274 0.0
H391 H 0.47228 0.63744 0.14972 0.0
H392 H 0.4266 0.60339 0.03919 0.0
H393 H 0.40319 0.63435 0.39624 0.0
H394 H 0.42174 0.52315 0.17529 0.0
H395 H 0.34612 0.56 0.20845 0.0
C396 C 0.5776 0.92021 0.35609 0.0
C397 C 0.58192 0.93635 0.31652 0.0
N398 N 0.59459 0.95851 0.33158 0.0
N399 N 0.58731 0.93239 0.39577 0.0
C400 C 0.59661 0.95597 0.37998 0.0
H401 H 0.57091 0.89974 0.35508 0.0
Co402 Co 0.59757 0.91654 0.45343 0.0
C403 C 0.56709 0.95092 0.52221 0.0
O404 O 0.56138 0.92938 0.54728 0.0
N405 N 0.60972 0.89984 0.50983 0.0
C406 C 0.62417 0.88512 0.58132 0.0
C407 C 0.61378 0.90675 0.55652 0.0
C408 C 0.61989 0.87503 0.50658 0.0
N409 N 0.62757 0.86504 0.54958 0.0
O410 O 0.63364 0.93051 0.44393 0.0
H411 H 0.60969 0.92613 0.57184 0.0
H412 H 0.62122 0.86418 0.47282 0.0
O413 O 0.58452 0.94924 0.48806 0.0
C414 C 0.6457 0.91677 0.41149 0.0
O415 O 0.63305 0.89633 0.39271 0.0
N416 N 0.56287 0.9008 0.45918 0.0
C417 C 0.51265 0.87688 0.45052 0.0
C418 C 0.51561 0.90457 0.44642 0.0
C419 C 0.54075 0.91596 0.44982 0.0
C420 C 0.56012 0.87383 0.46456 0.0
C421 C 0.53522 0.86157 0.46128 0.0
H422 H 0.54253 0.93691 0.44156 0.0
H423 H 0.57712 0.86103 0.46771 0.0
H424 H 0.60823 0.96925 0.40247 0.0
H425 H 0.5795 0.93051 0.27905 0.0
H426 H 0.62803 0.884 0.61983 0.0
H427 H 0.4991 0.91728 0.43598 0.0
H428 H 0.53399 0.84005 0.46353 0.0
C429 C 0.90987 0.41384 0.61959 0.0
C430 C 0.91801 0.40754 0.66547 0.0
N431 N 0.94182 0.39543 0.66216 0.0
N432 N 0.9286 0.40583 0.58744 0.0
C433 C 0.94807 0.39486 0.61474 0.0
H434 H 0.89015 0.42084 0.61017 0.0
Co435 Co 0.92052 0.39924 0.52292 0.0
C436 C 0.95905 0.43463 0.47001 0.0
O437 O 0.93895 0.44112 0.44181 0.0
N438 N 0.91002 0.39063 0.45933 0.0
C439 C 0.90016 0.38438 0.38138 0.0
C440 C 0.92018 0.39076 0.41394 0.0
C441 C 0.88496 0.38147 0.45338 0.0
N442 N 0.87776 0.37911 0.40665 0.0
O443 O 0.93637 0.36376 0.52956 0.0
H444 H 0.94049 0.39582 0.40457 0.0
H445 H 0.8718 0.3771 0.48337 0.0
O446 O 0.95554 0.41613 0.50192 0.0
C447 C 0.92052 0.34855 0.55322 0.0
O448 O 0.89668 0.35791 0.56361 0.0
N449 N 0.90323 0.43333 0.51981 0.0
C450 C 0.87602 0.48096 0.53759 0.0
C451 C 0.9037 0.47948 0.54293 0.0
C452 C 0.91671 0.45542 0.53547 0.0
C453 C 0.8762 0.43482 0.51339 0.0
C454 C 0.86224 0.45848 0.52164 0.0
H455 H 0.93724 0.45413 0.54689 0.0
H456 H 0.86457 0.41733 0.50711 0.0
H457 H 0.96458 0.38353 0.59999 0.0
H458 H 0.90616 0.40911 0.69818 0.0
H459 H 0.90166 0.38492 0.34229 0.0
H460 H 0.91489 0.49597 0.55795 0.0
H461 H 0.84066 0.45859 0.51938 0.0
C462 C 0.40889 0.11515 0.33117 0.0
C463 C 0.40474 0.09876 0.29227 0.0
N464 N 0.38726 0.07992 0.30568 0.0
N465 N 0.39442 0.10642 0.36945 0.0
C466 C 0.38144 0.08476 0.35244 0.0
H467 H 0.42041 0.13327 0.32992 0.0
Co468 Co 0.38826 0.12388 0.4287 0.0
C469 C 0.4199 0.09141 0.50001 0.0
O470 O 0.42501 0.11378 0.52285 0.0
N471 N 0.38078 0.14197 0.48715 0.0
C472 C 0.36766 0.15196 0.56235 0.0
C473 C 0.37241 0.13162 0.52984 0.0
C474 C 0.37906 0.16863 0.49384 0.0
N475 N 0.37172 0.17515 0.53919 0.0
O476 O 0.35196 0.10993 0.42962 0.0
H477 H 0.3698 0.11058 0.5369 0.0
H478 H 0.38243 0.18334 0.46614 0.0
O479 O 0.40369 0.09199 0.46378 0.0
C480 C 0.33805 0.12363 0.39969 0.0
O481 O 0.34966 0.14382 0.37782 0.0
N482 N 0.4226 0.13978 0.42377 0.0
C483 C 0.46937 0.16298 0.38848 0.0
C484 C 0.46959 0.13709 0.40714 0.0
C485 C 0.44591 0.12553 0.42263 0.0
C486 C 0.42236 0.16544 0.40716 0.0
C487 C 0.44557 0.17754 0.38974 0.0
H488 H 0.44616 0.10427 0.42709 0.0
H489 H 0.40362 0.1754 0.40083 0.0
H490 H 0.36675 0.07365 0.37286 0.0
H491 H 0.41219 0.10173 0.25583 0.0
H492 H 0.36112 0.14994 0.59955 0.0
H493 H 0.48717 0.12459 0.40374 0.0
H494 H 0.44435 0.19706 0.37307 0.0
C495 C 0.14957 0.60183 0.63741 0.0
C496 C 0.13867 0.60937 0.68078 0.0
N497 N 0.11455 0.62012 0.67192 0.0
N498 N 0.13222 0.6074 0.60146 0.0
C499 C 0.11085 0.61819 0.62368 0.0
H500 H 0.16984 0.59502 0.63203 0.0
Co501 Co 0.14296 0.61117 0.53796 0.0
C502 C 0.10669 0.57519 0.48221 0.0
O503 O 0.12822 0.56826 0.45804 0.0
N504 N 0.15608 0.6173 0.47522 0.0
C505 C 0.1656 0.62585 0.39776 0.0
C506 C 0.14572 0.61872 0.43007 0.0
C507 C 0.18145 0.62577 0.46967 0.0
N508 N 0.188 0.63041 0.42321 0.0
O509 O 0.12748 0.64687 0.5383 0.0
H510 H 0.12503 0.61533 0.421 0.0
H511 H 0.19501 0.6288 0.49954 0.0
O512 O 0.10851 0.59423 0.51352 0.0
C513 C 0.14311 0.66496 0.5542 0.0
O514 O 0.16806 0.65865 0.56311 0.0
N515 N 0.15909 0.57649 0.54137 0.0
C516 C 0.18103 0.52662 0.56313 0.0
C517 C 0.15364 0.53114 0.56713 0.0
C518 C 0.14337 0.55621 0.55818 0.0
C519 C 0.18602 0.57238 0.53687 0.0
C520 C 0.19746 0.54755 0.54792 0.0
H521 H 0.12275 0.55955 0.56779 0.0
H522 H 0.19922 0.58855 0.52842 0.0
H523 H 0.09434 0.62722 0.60443 0.0
H524 H 0.14843 0.60859 0.7157 0.0
H525 H 0.16364 0.62809 0.35893 0.0
H526 H 0.14038 0.51601 0.58135 0.0
H527 H 0.21893 0.54511 0.54683 0.0
C528 C 0.11148 0.33633 0.13029 0.0
C529 C 0.13024 0.34522 0.09624 0.0
C530 C 0.11045 0.30938 0.14432 0.0
C531 C 0.12894 0.29094 0.12448 0.0
C532 C 0.14893 0.30019 0.09229 0.0
C533 C 0.14913 0.32713 0.07818 0.0
C534 C 0.0886 0.30037 0.17824 0.0
C535 C 0.16942 0.28144 0.07114 0.0
C536 C 0.13459 0.22336 0.1871 0.0
C537 C 0.11879 0.20718 0.15729 0.0
C538 C 0.13872 0.25044 0.1762 0.0
C539 C 0.12629 0.26181 0.13501 0.0
C540 C 0.11065 0.24543 0.10436 0.0
C541 C 0.10733 0.21828 0.11561 0.0
C542 C 0.15607 0.26696 0.20915 0.0
C543 C 0.09673 0.25677 0.06045 0.0
H544 H 0.09656 0.35014 0.14364 0.0
H545 H 0.16363 0.334 0.05184 0.0
H546 H 0.07494 0.28668 0.15883 0.0
H547 H 0.09718 0.28913 0.20915 0.0
H548 H 0.07675 0.31734 0.19263 0.0
H549 H 0.18528 0.2922 0.05094 0.0
H550 H 0.17886 0.26942 0.10023 0.0
H551 H 0.15954 0.26736 0.04599 0.0
H552 H 0.1437 0.21477 0.21909 0.0
H553 H 0.09486 0.20592 0.09285 0.0
H554 H 0.14391 0.28275 0.22659 0.0
H555 H 0.17189 0.27703 0.18781 0.0
H556 H 0.16564 0.25478 0.23794 0.0
H557 H 0.08261 0.27265 0.07178 0.0
H558 H 0.08549 0.24137 0.04009 0.0
H559 H 0.11149 0.26604 0.03569 0.0
C560 C 0.22953 0.88823 0.87675 0.0
C561 C 0.22082 0.88208 0.82996 0.0
C562 C 0.25682 0.88711 0.8886 0.0
C563 C 0.27565 0.87918 0.85296 0.0
C564 C 0.26669 0.8717 0.80637 0.0
C565 C 0.23943 0.87341 0.79539 0.0
C566 C 0.26561 0.89546 0.93857 0.0
C567 C 0.28597 0.86271 0.76761 0.0
C568 C 0.34639 0.90549 0.86472 0.0
C569 C 0.3596 0.88398 0.88669 0.0
C570 C 0.31918 0.90403 0.85311 0.0
C571 C 0.30481 0.88039 0.86327 0.0
C572 C 0.31827 0.85823 0.88364 0.0
C573 C 0.34546 0.86037 0.89543 0.0
C574 C 0.30557 0.9282 0.83172 0.0
C575 C 0.30378 0.83254 0.89427 0.0
H576 H 0.2151 0.89499 0.90332 0.0
H577 H 0.23262 0.86818 0.75942 0.0
H578 H 0.27802 0.87962 0.95532 0.0
H579 H 0.27817 0.9136 0.93593 0.0
H580 H 0.24844 0.89977 0.96284 0.0
H581 H 0.27558 0.8555 0.73462 0.0
H582 H 0.29916 0.8795 0.75722 0.0
H583 H 0.29893 0.84649 0.78159 0.0
H584 H 0.35698 0.92401 0.85898 0.0
H585 H 0.35562 0.84383 0.91273 0.0
H586 H 0.2897 0.93528 0.85667 0.0
H587 H 0.29582 0.92292 0.797 0.0
H588 H 0.31969 0.94484 0.82503 0.0
H589 H 0.28832 0.83602 0.92236 0.0
H590 H 0.31747 0.81663 0.90725 0.0
H591 H 0.2934 0.82538 0.86131 0.0
C592 C 0.86917 0.82128 0.1188 0.0
C593 C 0.88817 0.83179 0.15069 0.0
C594 C 0.87012 0.79438 0.10474 0.0
C595 C 0.89056 0.77759 0.12297 0.0
C596 C 0.90998 0.78818 0.15466 0.0
C597 C 0.9086 0.81511 0.16791 0.0
C598 C 0.84919 0.78386 0.07049 0.0
C599 C 0.93224 0.77106 0.17454 0.0
C600 C 0.8805 0.70236 0.11496 0.0
C601 C 0.89443 0.69641 0.07233 0.0
C602 C 0.87934 0.7287 0.13248 0.0
C603 C 0.89253 0.74936 0.10675 0.0
C604 C 0.90748 0.74314 0.06481 0.0
C605 C 0.90832 0.7168 0.04832 0.0
C606 C 0.86342 0.73458 0.17763 0.0
C607 C 0.92204 0.76442 0.03649 0.0
H608 H 0.85315 0.83391 0.10582 0.0
H609 H 0.92359 0.82318 0.19198 0.0
H610 H 0.85884 0.77624 0.03707 0.0
H611 H 0.83849 0.76691 0.08748 0.0
H612 H 0.83437 0.79934 0.06021 0.0
H613 H 0.94524 0.78214 0.20007 0.0
H614 H 0.92383 0.75352 0.19364 0.0
H615 H 0.94474 0.76342 0.1444 0.0
H616 H 0.86971 0.68665 0.13341 0.0
H617 H 0.91959 0.71214 0.0159 0.0
H618 H 0.8465 0.74797 0.16861 0.0
H619 H 0.87603 0.74513 0.20444 0.0
H620 H 0.85539 0.7162 0.19467 0.0
H621 H 0.90756 0.77931 0.02258 0.0
H622 H 0.93335 0.75611 0.00533 0.0
H623 H 0.93616 0.77515 0.0604 0.0
C624 C 0.83774 0.15496 0.82265 0.0
C625 C 0.85457 0.13749 0.84804 0.0
C626 C 0.81038 0.15674 0.83348 0.0
C627 C 0.79938 0.14026 0.87005 0.0
C628 C 0.81643 0.12306 0.8967 0.0
C629 C 0.84387 0.12206 0.88565 0.0
C630 C 0.79313 0.17576 0.8049 0.0
C631 C 0.80551 0.10491 0.93556 0.0
C632 C 0.73111 0.15526 0.92499 0.0
C633 C 0.71451 0.13778 0.89935 0.0
C634 C 0.7586 0.15685 0.91498 0.0
C635 C 0.76993 0.14017 0.87904 0.0
C636 C 0.75313 0.12291 0.85226 0.0
C637 C 0.72562 0.12211 0.86245 0.0
C638 C 0.7756 0.17597 0.94358 0.0
C639 C 0.76437 0.10456 0.81402 0.0
H640 H 0.84602 0.16702 0.79376 0.0
H641 H 0.85674 0.1083 0.90489 0.0
H642 H 0.77861 0.16438 0.78284 0.0
H643 H 0.78149 0.18867 0.8298 0.0
H644 H 0.80505 0.18863 0.78031 0.0
H645 H 0.82147 0.09337 0.95406 0.0
H646 H 0.79448 0.11668 0.96306 0.0
H647 H 0.79115 0.0907 0.91931 0.0
H648 H 0.72256 0.1675 0.95336 0.0
H649 H 0.71298 0.10827 0.8431 0.0
H650 H 0.78717 0.18893 0.91866 0.0
H651 H 0.79019 0.16468 0.96578 0.0
H652 H 0.76351 0.18878 0.96801 0.0
H653 H 0.77523 0.11624 0.78617 0.0
H654 H 0.74861 0.09269 0.79583 0.0
H655 H 0.77894 0.09066 0.83074 0.0
C656 C 0.65225 0.70842 0.59794 0.0
C657 C 0.63313 0.70159 0.63276 0.0
C658 C 0.65529 0.73512 0.58299 0.0
C659 C 0.63828 0.75505 0.60249 0.0
C660 C 0.61885 0.74801 0.63743 0.0
C661 C 0.61671 0.72147 0.65233 0.0
C662 C 0.67652 0.742 0.5463 0.0
C663 C 0.59979 0.76837 0.65828 0.0
C664 C 0.6499 0.82987 0.59789 0.0
C665 C 0.63298 0.83736 0.55986 0.0
C666 C 0.65339 0.80285 0.61014 0.0
C667 C 0.63915 0.78301 0.58441 0.0
C668 C 0.62276 0.79047 0.54499 0.0
C669 C 0.62001 0.81747 0.5331 0.0
C670 C 0.67142 0.79561 0.65187 0.0
C671 C 0.60669 0.77013 0.51729 0.0
H672 H 0.66499 0.69298 0.58311 0.0
H673 H 0.60166 0.71603 0.67873 0.0
H674 H 0.66709 0.74949 0.51261 0.0
H675 H 0.68938 0.75819 0.56043 0.0
H676 H 0.68926 0.72458 0.53713 0.0
H677 H 0.58606 0.7596 0.68557 0.0
H678 H 0.61107 0.78476 0.67565 0.0
H679 H 0.58766 0.7773 0.62882 0.0
H680 H 0.66013 0.84516 0.61833 0.0
H681 H 0.60655 0.82306 0.50419 0.0
H682 H 0.6847 0.7788 0.64174 0.0
H683 H 0.65918 0.78897 0.68313 0.0
H684 H 0.68388 0.8127 0.66359 0.0
H685 H 0.6196 0.75344 0.50528 0.0
H686 H 0.59676 0.77889 0.48501 0.0
H687 H 0.5911 0.76162 0.54133 0.0
C688 C 0.82953 0.38746 0.41702 0.0
C689 C 0.85063 0.37724 0.38901 0.0
C690 C 0.80315 0.38724 0.40031 0.0
C691 C 0.79739 0.37636 0.3543 0.0
C692 C 0.81843 0.36563 0.32589 0.0
C693 C 0.84486 0.36638 0.34343 0.0
C694 C 0.78151 0.39929 0.43159 0.0
C695 C 0.81304 0.35363 0.27682 0.0
C696 C 0.72411 0.35947 0.33389 0.0
C697 C 0.71511 0.38191 0.3083 0.0
C698 C 0.75106 0.35687 0.34745 0.0
C699 C 0.76941 0.37735 0.33569 0.0
C700 C 0.76044 0.39995 0.30956 0.0
C701 C 0.73349 0.40188 0.29606 0.0
C702 C 0.75984 0.33237 0.37496 0.0
C703 C 0.77915 0.42248 0.297 0.0
H704 H 0.83366 0.39648 0.45173 0.0
H705 H 0.86099 0.3584 0.32164 0.0
H706 H 0.77209 0.4163 0.41236 0.0
H707 H 0.76566 0.38439 0.43867 0.0
H708 H 0.78924 0.40652 0.46689 0.0
H709 H 0.8313 0.34498 0.26021 0.0
H710 H 0.79771 0.3378 0.27997 0.0
H711 H 0.80496 0.36911 0.25212 0.0
H712 H 0.71014 0.34377 0.3428 0.0
H713 H 0.72663 0.41939 0.27671 0.0
H714 H 0.76637 0.33808 0.41188 0.0
H715 H 0.77718 0.32298 0.35665 0.0
H716 H 0.74364 0.3174 0.37824 0.0
H717 H 0.78653 0.43193 0.33071 0.0
H718 H 0.76938 0.43802 0.27442 0.0
H719 H 0.7968 0.41474 0.27719 0.0
C720 C 0.38353 0.20878 0.60012 0.0
C721 C 0.3695 0.20167 0.55835 0.0
C722 C 0.38399 0.23534 0.61617 0.0
C723 C 0.36934 0.25505 0.59061 0.0
C724 C 0.3542 0.24763 0.54951 0.0
C725 C 0.35487 0.2211 0.53337 0.0
C726 C 0.40098 0.24249 0.65935 0.0
C727 C 0.33761 0.26778 0.52221 0.0
C728 C 0.35677 0.3196 0.65923 0.0
C729 C 0.37609 0.33645 0.6391 0.0
C730 C 0.35356 0.29338 0.64241 0.0
C731 C 0.37077 0.28353 0.60581 0.0
C732 C 0.39011 0.30067 0.58496 0.0
C733 C 0.39224 0.32707 0.6014 0.0
C734 C 0.33212 0.27609 0.66447 0.0
C735 C 0.40932 0.29081 0.54678 0.0
H736 H 0.39507 0.19369 0.61889 0.0
H737 H 0.34398 0.21542 0.50112 0.0
H738 H 0.41641 0.25715 0.64837 0.0
H739 H 0.38856 0.25203 0.68773 0.0
H740 H 0.41107 0.22482 0.6753 0.0
H741 H 0.32523 0.25836 0.49364 0.0
H742 H 0.32429 0.27863 0.54758 0.0
H743 H 0.35081 0.28274 0.50492 0.0
H744 H 0.34432 0.32699 0.68841 0.0
H745 H 0.40745 0.34005 0.58652 0.0
H746 H 0.34141 0.25958 0.68522 0.0
H747 H 0.3198 0.26699 0.63555 0.0
H748 H 0.31885 0.28748 0.68922 0.0
H749 H 0.42148 0.27422 0.5617 0.0
H750 H 0.42297 0.30673 0.53389 0.0
H751 H 0.39821 0.28285 0.51528 0.0
C752 C 0.33556 0.66099 0.32403 0.0
C753 C 0.35294 0.64366 0.34842 0.0
C754 C 0.30824 0.66192 0.33553 0.0
C755 C 0.29795 0.64461 0.37152 0.0
C756 C 0.3156 0.62761 0.39722 0.0
C757 C 0.34292 0.62756 0.38569 0.0
C758 C 0.29028 0.68083 0.30819 0.0
C759 C 0.30543 0.60857 0.43538 0.0
C760 C 0.23026 0.65491 0.43108 0.0
C761 C 0.2143 0.63677 0.40571 0.0
C762 C 0.25721 0.65864 0.41885 0.0
C763 C 0.26865 0.64336 0.38107 0.0
C764 C 0.25235 0.62564 0.35426 0.0
C765 C 0.22526 0.62279 0.3666 0.0
C766 C 0.27365 0.67826 0.44747 0.0
C767 C 0.26381 0.60868 0.31418 0.0
H768 H 0.34334 0.67349 0.29529 0.0
H769 H 0.35624 0.61383 0.40399 0.0
H770 H 0.27627 0.66935 0.28525 0.0
H771 H 0.2781 0.69274 0.33387 0.0
H772 H 0.30172 0.69465 0.28458 0.0
H773 H 0.32181 0.59717 0.45291 0.0
H774 H 0.29431 0.6196 0.46375 0.0
H775 H 0.29133 0.59425 0.41873 0.0
H776 H 0.22168 0.66584 0.46115 0.0
H777 H 0.21297 0.60854 0.34743 0.0
H778 H 0.2847 0.69171 0.42266 0.0
H779 H 0.28864 0.66737 0.46945 0.0
H780 H 0.26118 0.69053 0.47219 0.0
H781 H 0.27405 0.62137 0.28703 0.0
H782 H 0.24828 0.59676 0.29548 0.0
H783 H 0.27896 0.59485 0.32935 0.0
C784 C 0.1846 0.10142 0.31022 0.0
C785 C 0.17282 0.12641 0.31879 0.0
C786 C 0.21122 0.09607 0.32457 0.0
C787 C 0.22649 0.11621 0.3476 0.0
C788 C 0.21445 0.14123 0.35687 0.0
C789 C 0.188 0.14596 0.34247 0.0
C790 C 0.22306 0.06894 0.31505 0.0
C791 C 0.22966 0.16327 0.38174 0.0
C792 C 0.29164 0.10649 0.41834 0.0
C793 C 0.31027 0.11674 0.38538 0.0
C794 C 0.26433 0.1046 0.40589 0.0
C795 C 0.25562 0.11246 0.35894 0.0
C796 C 0.27489 0.1207 0.32453 0.0
C797 C 0.30176 0.12298 0.33828 0.0
C798 C 0.2449 0.09463 0.44345 0.0
C799 C 0.26696 0.12887 0.27388 0.0
H800 H 0.17299 0.08599 0.29274 0.0
H801 H 0.17924 0.16531 0.34969 0.0
H802 H 0.20825 0.05491 0.29955 0.0
H803 H 0.24009 0.07074 0.28953 0.0
H804 H 0.23097 0.0604 0.34924 0.0
H805 H 0.21719 0.18127 0.38793 0.0
H806 H 0.23727 0.15615 0.41721 0.0
H807 H 0.24717 0.16904 0.35945 0.0
H808 H 0.29813 0.10131 0.45459 0.0
H809 H 0.31613 0.13041 0.31219 0.0
H810 H 0.2407 0.07334 0.43606 0.0
H811 H 0.22572 0.10569 0.44216 0.0
H812 H 0.25319 0.09611 0.48064 0.0
H813 H 0.25362 0.11374 0.25756 0.0
H814 H 0.28454 0.13156 0.24981 0.0
H815 H 0.25576 0.14795 0.27535 0.0
C816 C 0.14618 0.79425 0.70785 0.0
C817 C 0.13144 0.8165 0.69263 0.0
C818 C 0.14251 0.76905 0.68661 0.0
C819 C 0.12417 0.76601 0.64794 0.0
C820 C 0.10805 0.78809 0.63439 0.0
C821 C 0.11171 0.81302 0.65723 0.0
C822 C 0.15978 0.74612 0.70322 0.0
C823 C 0.08833 0.78587 0.5934 0.0
C824 C 0.14849 0.71417 0.55736 0.0
C825 C 0.13355 0.69164 0.56989 0.0
C826 C 0.14419 0.73888 0.58012 0.0
C827 C 0.12498 0.74108 0.61774 0.0
C828 C 0.109 0.71857 0.62921 0.0
C829 C 0.11331 0.69419 0.60478 0.0
C830 C 0.16149 0.76223 0.56591 0.0
C831 C 0.08877 0.71955 0.66969 0.0
H832 H 0.16157 0.79686 0.73499 0.0
H833 H 0.10063 0.83024 0.64471 0.0
H834 H 0.14755 0.72795 0.70866 0.0
H835 H 0.17486 0.74155 0.67496 0.0
H836 H 0.17039 0.75068 0.73751 0.0
H837 H 0.07636 0.80433 0.5888 0.0
H838 H 0.09912 0.78184 0.55905 0.0
H839 H 0.07463 0.7689 0.59987 0.0
H840 H 0.16438 0.71219 0.53089 0.0
H841 H 0.10212 0.6767 0.61551 0.0
H842 H 0.17553 0.76682 0.59578 0.0
H843 H 0.14906 0.78022 0.5597 0.0
H844 H 0.1733 0.75817 0.53263 0.0
H845 H 0.0993 0.71885 0.70499 0.0
H846 H 0.07474 0.70245 0.66826 0.0
H847 H 0.07716 0.73838 0.6685 0.0
C848 C 0.79311 0.93967 0.29233 0.0
C849 C 0.80396 0.91392 0.29453 0.0
C850 C 0.76776 0.9453 0.31262 0.0
C851 C 0.75314 0.92478 0.33637 0.0
C852 C 0.76469 0.89912 0.34031 0.0
C853 C 0.7895 0.89397 0.31885 0.0
C854 C 0.75663 0.97301 0.30689 0.0
C855 C 0.75064 0.87677 0.36676 0.0
C856 C 0.69292 0.93417 0.42019 0.0
C857 C 0.67242 0.9237 0.39148 0.0
C858 C 0.71921 0.93644 0.40184 0.0
C859 C 0.72492 0.92859 0.35347 0.0
C860 C 0.70374 0.91995 0.32354 0.0
C861 C 0.67797 0.91738 0.34296 0.0
C862 C 0.74119 0.94555 0.4351 0.0
C863 C 0.70852 0.91208 0.27146 0.0
H864 H 0.80418 0.95529 0.27414 0.0
H865 H 0.7978 0.87409 0.32201 0.0
H866 H 0.74642 0.97442 0.27134 0.0
H867 H 0.74213 0.97809 0.33579 0.0
H868 H 0.77286 0.98805 0.30704 0.0
H869 H 0.76359 0.85896 0.37141 0.0
H870 H 0.74399 0.88355 0.40307 0.0
H871 H 0.73262 0.87071 0.34631 0.0
H872 H 0.68878 0.93912 0.45766 0.0
H873 H 0.66212 0.90983 0.32012 0.0
H874 H 0.75341 0.96113 0.41718 0.0
H875 H 0.7546 0.9285 0.44323 0.0
H876 H 0.7333 0.95356 0.46978 0.0
H877 H 0.72095 0.92726 0.25284 0.0
H878 H 0.68958 0.90962 0.25116 0.0
H879 H 0.71956 0.89292 0.2702 0.0
C880 C 0.91215 0.31042 0.60936 0.0
C881 C 0.92871 0.32232 0.57438 0.0
C882 C 0.91807 0.28545 0.62961 0.0
C883 C 0.94122 0.27149 0.61465 0.0
C884 C 0.95866 0.28369 0.58059 0.0
C885 C 0.95226 0.30901 0.56095 0.0
C886 C 0.89864 0.27345 0.6654 0.0
C887 C 0.98355 0.26958 0.56364 0.0
C888 C 0.95448 0.21104 0.69602 0.0
C889 C 0.93916 0.19161 0.67261 0.0
C890 C 0.95738 0.23682 0.6757 0.0
C891 C 0.94489 0.2431 0.63086 0.0
C892 C 0.93148 0.22267 0.60542 0.0
C893 C 0.9285 0.19747 0.6268 0.0
C894 C 0.97193 0.25787 0.70414 0.0
C895 C 0.91821 0.22796 0.55727 0.0
H896 H 0.8941 0.32052 0.62085 0.0
H897 H 0.96534 0.31806 0.53435 0.0
H898 H 0.88799 0.25662 0.64807 0.0
H899 H 0.90933 0.26541 0.69739 0.0
H900 H 0.88358 0.28815 0.67809 0.0
H901 H 0.99693 0.28302 0.54285 0.0
H902 H 0.99469 0.26129 0.59493 0.0
H903 H 0.97797 0.25261 0.54004 0.0
H904 H 0.96259 0.20675 0.73156 0.0
H905 H 0.91658 0.18264 0.60838 0.0
H906 H 0.98516 0.24898 0.73209 0.0
H907 H 0.95713 0.27079 0.72264 0.0
H908 H 0.984 0.27074 0.67989 0.0
H909 H 0.90038 0.24075 0.56285 0.0
H910 H 0.91175 0.20928 0.53932 0.0
H911 H 0.93194 0.23873 0.53257 0.0
C912 C 0.30606 0.42792 0.79946 0.0
C913 C 0.32342 0.41168 0.8263 0.0
C914 C 0.27946 0.43223 0.81503 0.0
C915 C 0.27016 0.42032 0.85865 0.0
C916 C 0.28839 0.40567 0.88747 0.0
C917 C 0.31455 0.40144 0.87086 0.0
C918 C 0.26086 0.44819 0.78342 0.0
C919 C 0.27983 0.39289 0.93452 0.0
C920 C 0.20217 0.43365 0.91888 0.0
C921 C 0.18759 0.41129 0.9038 0.0
C922 C 0.22872 0.43778 0.90274 0.0
C923 C 0.24088 0.41922 0.87065 0.0
C924 C 0.22564 0.39745 0.85362 0.0
C925 C 0.19944 0.3938 0.87031 0.0
C926 C 0.2441 0.46137 0.92159 0.0
C927 C 0.23746 0.37704 0.81955 0.0
H928 H 0.31279 0.43606 0.76518 0.0
H929 H 0.32799 0.38936 0.89245 0.0
H930 H 0.2461 0.43465 0.76659 0.0
H931 H 0.24958 0.46286 0.80547 0.0
H932 H 0.27165 0.45892 0.75415 0.0
H933 H 0.29704 0.385 0.95544 0.0
H934 H 0.26892 0.40741 0.95743 0.0
H935 H 0.26603 0.37616 0.9268 0.0
H936 H 0.1932 0.4474 0.94439 0.0
H937 H 0.18832 0.37672 0.85746 0.0
H938 H 0.25483 0.47152 0.89164 0.0
H939 H 0.25932 0.45444 0.9479 0.0
H940 H 0.2309 0.47603 0.93997 0.0
H941 H 0.24721 0.38697 0.7883 0.0
H942 H 0.22222 0.36298 0.80555 0.0
H943 H 0.25301 0.36537 0.83881 0.0
C944 C 0.41113 0.82238 0.13309 0.0
C945 C 0.42574 0.83269 0.09388 0.0
C946 C 0.41619 0.79683 0.1518 0.0
C947 C 0.43636 0.78074 0.13079 0.0
C948 C 0.4526 0.79182 0.09356 0.0
C949 C 0.44713 0.8177 0.07561 0.0
C950 C 0.39866 0.78641 0.19211 0.0
C951 C 0.47468 0.77606 0.07 0.0
C952 C 0.44876 0.71414 0.19639 0.0
C953 C 0.43052 0.69745 0.17264 0.0
C954 C 0.452 0.74108 0.18194 0.0
C955 C 0.43694 0.75143 0.14254 0.0
C956 C 0.41975 0.73412 0.11697 0.0
C957 C 0.41662 0.70767 0.13249 0.0
C958 C 0.47092 0.75872 0.20955 0.0
C959 C 0.40381 0.74378 0.07397 0.0
H960 H 0.39498 0.83407 0.1484 0.0
H961 H 0.4587 0.82554 0.04563 0.0
H962 H 0.3861 0.7699 0.1783 0.0
H963 H 0.41108 0.7783 0.22191 0.0
H964 H 0.38531 0.80206 0.20709 0.0
H965 H 0.48148 0.75907 0.09258 0.0
H966 H 0.46743 0.76829 0.03481 0.0
H967 H 0.49202 0.78914 0.0622 0.0
H968 H 0.45974 0.70647 0.22719 0.0
H969 H 0.4029 0.69493 0.11299 0.0
H970 H 0.4595 0.77437 0.22899 0.0
H971 H 0.48464 0.76897 0.18405 0.0
H972 H 0.48292 0.74734 0.23636 0.0
H973 H 0.38874 0.75856 0.08613 0.0
H974 H 0.39331 0.72729 0.05519 0.0
H975 H 0.4171 0.75386 0.04752 0.0
C976 C 0.80349 0.60086 0.90502 0.0
C977 C 0.81472 0.62641 0.9016 0.0
C978 C 0.77763 0.59564 0.88665 0.0
C979 C 0.76288 0.61634 0.86378 0.0
C980 C 0.77466 0.64181 0.85888 0.0
C981 C 0.80011 0.64651 0.87798 0.0
C982 C 0.76577 0.56829 0.89332 0.0
C983 C 0.76007 0.66453 0.83442 0.0
C984 C 0.70135 0.60966 0.78302 0.0
C985 C 0.68158 0.62008 0.81358 0.0
C986 C 0.72782 0.60624 0.79978 0.0
C987 C 0.73437 0.6128 0.84842 0.0
C988 C 0.71374 0.6209 0.88025 0.0
C989 C 0.68789 0.625 0.86222 0.0
C990 C 0.74914 0.59759 0.76451 0.0
C991 C 0.71929 0.62718 0.93273 0.0
H992 H 0.81462 0.58514 0.92286 0.0
H993 H 0.80863 0.66624 0.87414 0.0
H994 H 0.75099 0.56889 0.92325 0.0
H995 H 0.7551 0.56182 0.86019 0.0
H996 H 0.78123 0.55322 0.90249 0.0
H997 H 0.77276 0.68251 0.83023 0.0
H998 H 0.75306 0.65834 0.79805 0.0
H999 H 0.74223 0.67004 0.85604 0.0
H1000 H 0.69662 0.60595 0.74533 0.0
H1001 H 0.67259 0.63278 0.88619 0.0
H1002 H 0.76242 0.58245 0.78122 0.0
H1003 H 0.76169 0.61499 0.75476 0.0
H1004 H 0.7405 0.58925 0.73076 0.0
H1005 H 0.73228 0.61169 0.94908 0.0
H1006 H 0.70063 0.62859 0.95437 0.0
H1007 H 0.72993 0.6465 0.93519 0.0
C1008 C 0.60673 0.2041 0.0555 0.0
C1009 C 0.62826 0.1898 0.07517 0.0
C1010 C 0.60026 0.22992 0.07262 0.0
C1011 C 0.61565 0.24162 0.11014 0.0
C1012 C 0.63614 0.22641 0.13209 0.0
C1013 C 0.64215 0.20093 0.11441 0.0
C1014 C 0.57768 0.24509 0.04929 0.0
C1015 C 0.65288 0.23765 0.17266 0.0
C1016 C 0.63474 0.31438 0.11345 0.0
C1017 C 0.62219 0.32346 0.15586 0.0
C1018 C 0.63076 0.28853 0.09589 0.0
C1019 C 0.61389 0.27083 0.12146 0.0
C1020 C 0.59938 0.28053 0.16216 0.0
C1021 C 0.60369 0.30683 0.17894 0.0
C1022 C 0.64641 0.27959 0.05197 0.0
C1023 C 0.58062 0.26283 0.19007 0.0
H1024 H 0.59552 0.19554 0.02584 0.0
H1025 H 0.65835 0.18989 0.13099 0.0
H1026 H 0.5652 0.25494 0.0773 0.0
H1027 H 0.5859 0.26096 0.02559 0.0
H1028 H 0.56484 0.23193 0.02698 0.0
H1029 H 0.66667 0.2226 0.18835 0.0
H1030 H 0.66492 0.2546 0.15887 0.0
H1031 H 0.63986 0.24536 0.202 0.0
H1032 H 0.64855 0.32735 0.09451 0.0
H1033 H 0.5937 0.31377 0.21141 0.0
H1034 H 0.6332 0.26935 0.02579 0.0
H1035 H 0.66202 0.26516 0.06328 0.0
H1036 H 0.65628 0.2965 0.03314 0.0
H1037 H 0.59187 0.25276 0.21945 0.0
H1038 H 0.57161 0.24736 0.16657 0.0
H1039 H 0.56441 0.27465 0.20717 0.0
C1040 C 0.02052 0.06622 0.18964 0.0
C1041 C 0.04346 0.06706 0.219 0.0
C1042 C 1.00074 0.04659 0.19567 0.0
C1043 C 1.00382 0.02655 0.23143 0.0
C1044 C 0.02721 0.02676 0.26053 0.0
C1045 C 0.04659 0.04705 0.25428 0.0
C1046 C 0.97626 0.0475 0.16383 0.0
C1047 C 0.0317 1.0056 0.29848 0.0
C1048 C 0.94055 0.98727 0.26696 0.0
C1049 C 0.94188 0.96537 0.2354 0.0
C1050 C 0.96077 1.00706 0.26705 0.0
C1051 C 0.98324 1.00466 0.23575 0.0
C1052 C 0.98506 0.98203 0.20534 0.0
C1053 C 0.96444 0.96303 0.2052 0.0
C1054 C 0.9577 0.03098 0.29962 0.0
C1055 C 1.00865 0.97809 0.17198 0.0
H1056 H 0.01754 0.08148 0.16238 0.0
H1057 H 0.06392 0.04751 0.27769 0.0
H1058 H 0.97522 0.02921 0.14143 0.0
H1059 H 0.958 0.04811 0.18656 0.0
H1060 H 0.97616 0.06507 0.13931 0.0
H1061 H 0.05091 1.00827 0.31789 0.0
H1062 H 0.01522 1.006 0.32532 0.0
H1063 H 0.03158 0.9856 0.2814 0.0
H1064 H 0.92341 0.9893 0.29065 0.0
H1065 H 0.96618 0.94604 0.1812 0.0
H1066 H 0.95564 0.04925 0.27725 0.0
H1067 H 0.97577 0.03347 0.32229 0.0
H1068 H 0.94001 0.02934 0.32371 0.0
H1069 H 1.00878 0.99389 0.14384 0.0
H1070 H 1.00828 0.95841 0.15365 0.0
H1071 H 0.02757 0.9798 0.19257 0.0
C1072 C 0.06864 0.95725 0.72317 0.0
C1073 C 0.08133 0.95114 0.76725 0.0
C1074 C 0.05207 0.97998 0.71827 0.0
C1075 C 0.04825 0.99748 0.75813 0.0
C1076 C 0.06047 0.99104 0.80293 0.0
C1077 C 0.07658 0.96804 0.807 0.0
C1078 C 0.03919 0.98563 0.66996 0.0
C1079 C 0.05722 1.00895 0.84643 0.0
C1080 C 0.029 0.07052 0.73369 0.0
C1081 C 1.00161 0.07099 0.74486 0.0
C1082 C 0.04432 0.04693 0.73796 0.0
C1083 C 0.03206 0.0228 0.75301 0.0
C1084 C 1.00444 0.02313 0.76426 0.0
C1085 C 0.98975 0.04709 0.76054 0.0
C1086 C 0.07369 0.04779 0.72591 0.0
C1087 C 0.99019 0.99796 0.77928 0.0
H1088 H 0.07211 0.94459 0.69202 0.0
H1089 H 0.0862 0.96382 0.84128 0.0
H1090 H 0.01759 0.98976 0.67469 0.0
H1091 H 0.04831 1.00366 0.65363 0.0
H1092 H 0.04161 0.96879 0.64424 0.0
H1093 H 0.06751 1.00099 0.879 0.0
H1094 H 0.0654 0.02898 0.83814 0.0
H1095 H 0.03575 1.01156 0.85506 0.0
H1096 H 0.03851 0.08864 0.72116 0.0
H1097 H 0.96869 0.04678 0.76852 0.0
H1098 H 0.07802 0.03422 0.6952 0.0
H1099 H 0.08555 0.0407 0.75731 0.0
H1100 H 0.08048 0.06815 0.71604 0.0
H1101 H 0.99202 0.9828 0.75025 0.0
H1102 H 0.96867 1.00141 0.78672 0.0
H1103 H 0.99959 0.98951 0.81226 0.0
C1104 C 0.03982 0.48377 0.02004 0.0
C1105 C 0.05468 0.47293 0.98155 0.0
C1106 C 0.01858 0.50176 0.01209 0.0
C1107 C 1.01127 0.50894 0.96421 0.0
C1108 C 0.0269 0.49896 0.92516 0.0
C1109 C 0.04849 0.48132 0.93427 0.0
C1110 C 1.00326 0.51228 0.05512 0.0
C1111 C 0.01994 0.50579 0.8735 0.0
C1112 C 0.93772 0.52917 0.94715 0.0
C1113 C 0.93892 0.55716 0.94496 0.0
C1114 C 0.96102 0.51339 0.95191 0.0
C1115 C 0.98648 0.52564 0.95541 0.0
C1116 C 0.98786 0.55386 0.95292 0.0
C1117 C 0.96429 0.56911 0.9471 0.0
C1118 C 0.95832 0.48346 0.95369 0.0
C1119 C 0.01428 0.56808 0.95669 0.0
H1120 H 0.04428 0.47741 0.0567 0.0
H1121 H 0.05942 0.47281 0.90411 0.0
H1122 H 1.00178 0.53433 0.05319 0.0
H1123 H 0.98263 0.5043 0.05465 0.0
H1124 H 1.01271 0.50668 0.09007 0.0
H1125 H 0.03488 0.49794 0.84737 0.0
H1126 H 1.00014 0.49729 0.86448 0.0
H1127 H 0.01846 0.5277 0.86894 0.0
H1128 H 0.91847 0.51946 0.94512 0.0
H1129 H 0.96587 0.59051 0.94455 0.0
H1130 H 0.965 0.47596 0.9895 0.0
H1131 H 0.97134 0.47417 0.92587 0.0
H1132 H 0.93747 0.47682 0.9476 0.0
H1133 H 0.02579 0.56058 0.9882 0.0
H1134 H 1.01177 0.58997 0.96048 0.0
H1135 H 0.02632 0.5641 0.92374 0.0
C1136 C 0.51534 0.95163 0.0397 0.0
C1137 C 0.48902 0.95053 0.02224 0.0
C1138 C 0.53197 0.97376 0.03036 0.0
C1139 C 0.52221 0.99565 0.00298 0.0
C1140 C 0.49566 0.99471 0.98534 0.0
C1141 C 0.47955 0.97222 -0.0052 0.0
C1142 C 0.56015 0.97362 0.04967 0.0
C1143 C 0.48423 0.01752 0.95629 0.0
C1144 C 0.5613 0.06127 0.0136 0.0
C1145 C 0.57801 0.06025 0.97269 0.0
C1146 C 0.54246 0.04094 0.02314 0.0
C1147 C 0.54019 0.01889 -0.00881 0.0
C1148 C 0.55616 0.01844 0.94878 0.0
C1149 C 0.57466 0.03902 0.94005 0.0
C1150 C 0.52577 0.04252 0.06855 0.0
C1151 C 0.55463 0.99549 0.91359 0.0
H1152 H 0.52302 0.93517 0.06098 0.0
H1153 H 0.45947 0.97165 0.98045 0.0
H1154 H 0.57454 0.97526 0.01923 0.0
H1155 H 0.56332 0.99111 0.07349 0.0
H1156 H 0.56476 0.95525 0.07055 0.0
H1157 H 0.46289 0.0144 0.9471 0.0
H1158 H 0.48608 0.03639 0.9769 0.0
H1159 H 0.49569 0.01999 0.92219 0.0
H1160 H 0.56372 0.07731 0.03944 0.0
H1161 H 0.58736 0.03786 0.9083 0.0
H1162 H 0.53182 0.02646 0.09391 0.0
H1163 H 0.50439 0.03941 0.05984 0.0
H1164 H 0.52797 0.06198 0.08725 0.0
H1165 H 0.56131 0.9769 0.93172 0.0
H1166 H 0.56722 0.99875 0.88098 0.0
H1167 H 0.53372 0.99236 0.90182 0.0
C1168 C 0.45142 0.4868 0.75399 0.0
C1169 C 0.45367 0.46542 0.72142 0.0
C1170 C 0.47018 0.50793 0.75373 0.0
C1171 C 0.49199 0.50756 0.72069 0.0
C1172 C 0.4942 0.48608 0.68778 0.0
C1173 C 0.47506 0.46563 0.68825 0.0
C1174 C 0.46674 0.53063 0.78892 0.0
C1175 C 0.51702 0.48451 0.65208 0.0
C1176 C 0.52757 0.57126 0.68079 0.0
C1177 C 0.5511 0.57102 0.7086 0.0
C1178 C 0.508 0.55133 0.68561 0.0
C1179 C 0.51194 0.53 0.71847 0.0
C1180 C 0.53577 0.52935 0.74632 0.0
C1181 C 0.55491 0.54991 0.74139 0.0
C1182 C 0.48298 0.55316 0.65534 0.0
C1183 C 0.54112 0.50679 0.78116 0.0
H1184 H 0.43524 0.48687 0.78006 0.0
H1185 H 0.47729 0.44936 0.6628 0.0
H1186 H 0.48451 0.53206 0.81266 0.0
H1187 H 0.46514 0.54974 0.76886 0.0
H1188 H 0.44873 0.52822 0.81199 0.0
H1189 H 0.51655 0.46597 0.63017 0.0
H1190 H 0.51633 0.50182 0.62709 0.0
H1191 H 0.53635 0.48537 0.67157 0.0
H1192 H 0.52404 0.58744 0.65558 0.0
H1193 H 0.57277 0.54953 0.76346 0.0
H1194 H 0.46508 0.55231 0.679 0.0
H1195 H 0.48192 0.53594 0.63029 0.0
H1196 H 0.48213 0.57178 0.63359 0.0
H1197 H 0.52469 0.50538 0.80799 0.0
H1198 H 0.56026 0.50932 0.80085 0.0
H1199 H 0.54174 0.48763 0.76119 0.0
C1200 C 0.50652 0.56644 0.24233 0.0
C1201 C 0.48465 0.56393 0.27394 0.0
C1202 C 0.52621 0.54613 0.23888 0.0
C1203 C 0.52377 0.5224 0.26681 0.0
C1204 C 0.50187 0.51997 0.29892 0.0
C1205 C 0.483 0.54069 0.30252 0.0
C1206 C 0.54951 0.54996 0.20497 0.0
C1207 C 0.49793 0.49509 0.32894 0.0
C1208 C 0.55904 0.45739 0.22923 0.0
C1209 C 0.5799 0.45562 0.26307 0.0
C1210 C 0.54094 0.47909 0.22944 0.0
C1211 C 0.54402 0.50009 0.26346 0.0
C1212 C 0.5654 0.49865 0.29695 0.0
C1213 C 0.58274 0.47645 0.29674 0.0
C1214 C 0.51818 0.47929 0.19376 0.0
C1215 C 0.56998 0.52063 0.33327 0.0
H1216 H 0.50807 0.58405 0.21976 0.0
H1217 H 0.46632 0.53816 0.32709 0.0
H1218 H 0.56854 0.54728 0.22492 0.0
H1219 H 0.54898 0.53465 0.17606 0.0
H1220 H 0.54944 0.56998 0.18777 0.0
H1221 H 0.47947 0.4959 0.35122 0.0
H1222 H 0.49684 0.47741 0.30493 0.0
H1223 H 0.51519 0.49211 0.35345 0.0
H1224 H 0.5567 0.44164 0.20276 0.0
H1225 H 0.59898 0.47575 0.32257 0.0
H1226 H 0.51868 0.49781 0.17181 0.0
H1227 H 0.4989 0.47911 0.21357 0.0
H1228 H 0.51878 0.4619 0.16893 0.0
H1229 H 0.57104 0.54016 0.3145 0.0
H1230 H 0.58863 0.51766 0.3543 0.0
H1231 H 0.55299 0.52159 0.35899 0.0
C1232 C 0.54858 0.99473 0.49001 0.0
C1233 C 0.54704 0.97324 0.52261 0.0
C1234 C 0.52763 0.01357 0.48609 0.0
C1235 C 0.50423 1.01075 0.5148 0.0
C1236 C 0.50273 0.98929 0.54803 0.0
C1237 C 0.52409 0.97113 0.55186 0.0
C1238 C 0.53041 0.03639 0.45084 0.0
C1239 C 0.47823 0.98514 0.57904 0.0
C1240 C 0.46001 0.07131 0.54077 0.0
C1241 C 0.43932 0.06881 0.50662 0.0
C1242 C 0.48116 0.05286 0.54331 0.0
C1243 C 0.48171 0.03069 0.51167 0.0
C1244 C 0.46044 0.02741 0.47818 0.0
C1245 C 0.43968 0.04656 0.47576 0.0
C1246 C 0.50333 0.05748 0.57933 0.0
C1247 C 0.45983 1.00381 0.44443 0.0
H1248 H 0.56595 0.99655 0.46681 0.0
H1249 H 0.52231 0.95463 0.57699 0.0
H1250 H 0.51432 0.03542 0.42337 0.0
H1251 H 0.52817 0.05563 0.4702 0.0
H1252 H 0.54998 0.03622 0.4319 0.0
H1253 H 0.47982 0.96712 0.60227 0.0
H1254 H 0.47496 1.0027 0.60267 0.0
H1255 H 0.46035 0.98315 0.55568 0.0
H1256 H 0.46025 0.08833 0.56487 0.0
H1257 H 0.42406 0.04439 0.44895 0.0
H1258 H 0.52271 0.059 0.56005 0.0
H1259 H 0.50481 0.04035 0.6046 0.0
H1260 H 0.50027 0.07591 0.60088 0.0
H1261 H 0.47749 1.00427 0.42019 0.0
H1262 H 0.44153 1.00347 0.42179 0.0
H1263 H 0.4609 0.98501 0.46554 0.0
C1264 C 0.98189 0.47657 0.44243 0.0
C1265 C 0.98197 0.45395 0.47275 0.0
C1266 C 1.00106 0.4969 0.44673 0.0
C1267 C 0.0216 0.49473 0.48165 0.0
C1268 C 0.0222 0.47181 0.51205 0.0
C1269 C 1.00231 0.45186 0.50757 0.0
C1270 C 0.99926 0.52083 0.41362 0.0
C1271 C 0.04396 0.46832 0.54919 0.0
C1272 C 0.08508 0.53347 0.4511 0.0
C1273 C 0.08355 0.55608 0.48122 0.0
C1274 C 0.06565 0.51328 0.45214 0.0
C1275 C 0.04335 0.51556 0.48337 0.0
C1276 C 0.04128 0.53849 0.51346 0.0
C1277 C 0.06145 0.55832 0.51237 0.0
C1278 C 0.06908 0.48933 0.41959 0.0
C1279 C 0.01766 0.5421 0.54671 0.0
H1280 H 0.96637 0.4788 0.41545 0.0
H1281 H 1.00259 0.43477 0.5316 0.0
H1282 H 0.99895 0.53943 0.43528 0.0
H1283 H 0.01709 0.52166 0.38984 0.0
H1284 H 0.98118 0.52039 0.3904 0.0
H1285 H 0.04157 0.4497 0.57054 0.0
H1286 H 0.0637 0.46789 0.53094 0.0
H1287 H 0.04404 0.48551 0.57441 0.0
H1288 H 0.10195 0.53113 0.42687 0.0
H1289 H 0.06002 0.5754 0.53619 0.0
H1290 H 0.05253 0.48851 0.39302 0.0
H1291 H 0.06826 0.47074 0.44133 0.0
H1292 H 0.08826 0.48972 0.3994 0.0
H1293 H 0.99897 0.54245 0.52522 0.0
H1294 H 0.01893 0.56079 0.56807 0.0
H1295 H 0.01627 0.525 0.57208 0.0
C1296 C 0.17164 0.98212 0.55833 0.0
C1297 C 0.17945 0.99203 0.6036 0.0
C1298 C 0.16188 0.99918 0.52242 0.0
C1299 C 0.1605 0.02683 0.53177 0.0
C1300 C 0.17119 0.03724 0.57524 0.0
C1301 C 0.18026 0.0196 0.61112 0.0
C1302 C 0.1503 0.98722 0.47688 0.0
C1303 C 0.17091 0.06674 0.58562 0.0
C1304 C 0.14013 0.07089 0.42664 0.0
C1305 C 0.11289 0.07454 0.43609 0.0
C1306 C 0.15615 0.05597 0.45816 0.0
C1307 C 0.14444 0.04408 0.49943 0.0
C1308 C 0.11686 0.04769 0.50902 0.0
C1309 C 0.10147 0.06322 0.47741 0.0
C1310 C 0.18552 0.05301 0.44737 0.0
C1311 C 0.10352 0.03486 0.55226 0.0
H1312 H 0.17055 0.96077 0.55266 0.0
H1313 H 0.18629 0.02723 0.64615 0.0
H1314 H 0.1282 0.98839 0.47854 0.0
H1315 H 0.15681 0.99847 0.4444 0.0
H1316 H 0.1561 0.96599 0.47234 0.0
H1317 H 0.18419 0.07192 0.61636 0.0
H1318 H 0.1772 0.07823 0.5532 0.0
H1319 H 0.15031 0.07307 0.59492 0.0
H1320 H 0.14899 0.08024 0.39512 0.0
H1321 H 0.0804 0.06629 0.48444 0.0
H1322 H 0.19034 0.03183 0.43999 0.0
H1323 H 0.19742 0.05913 0.47932 0.0
H1324 H 0.19174 0.0651 0.41562 0.0
H1325 H 0.10617 0.01292 0.55076 0.0
H1326 H 0.08183 0.03936 0.55403 0.0
H1327 H 0.11298 0.04189 0.58621 0.0
C1328 C 0.06372 0.90547 0.52392 0.0
C1329 C 0.07227 0.89025 0.56329 0.0
C1330 C 0.04167 0.89756 0.4966 0.0
C1331 C 0.02861 0.87337 0.5082 0.0
C1332 C 0.03674 0.85829 0.54888 0.0
C1333 C 0.05841 0.86716 0.57645 0.0
C1334 C 0.03275 0.9148 0.45472 0.0
C1335 C 0.02331 0.83239 0.56208 0.0
C1336 C 0.96157 0.86836 0.44831 0.0
C1337 C 0.9689 0.85774 0.40332 0.0
C1338 C 0.98047 0.87168 0.48492 0.0
C1339 C 1.00712 0.86373 0.47623 0.0
C1340 C 0.0139 0.85035 0.43275 0.0
C1341 C 0.99471 0.84793 0.39621 0.0
C1342 C 0.97224 0.88628 0.53035 0.0
C1343 C 0.04195 0.84069 0.42316 0.0
H1344 H 0.07452 0.92342 0.51443 0.0
H1345 H 0.06528 0.85547 0.60696 0.0
H1346 H 0.0359 0.90403 0.42011 0.0
H1347 H 1.0111 0.91919 0.45783 0.0
H1348 H 0.04378 0.93396 0.45302 0.0
H1349 H 0.02962 0.825 0.59825 0.0
H1350 H 1.00129 0.83471 0.56199 0.0
H1351 H 0.02843 0.81708 0.53462 0.0
H1352 H 0.9416 0.87627 0.45342 0.0
H1353 H 1.00021 0.83973 0.36127 0.0
H1354 H 0.97402 0.90806 0.52401 0.0
H1355 H 0.98482 0.88098 0.56191 0.0
H1356 H 0.95111 0.88198 0.53949 0.0
H1357 H 0.05499 0.85799 0.41516 0.0
H1358 H 0.04282 0.82681 0.39188 0.0
H1359 H 0.05014 0.83047 0.45558 0.0
C1360 C 0.92411 0.99393 0.67691 0.0
C1361 C 0.89843 1.00452 0.68402 0.0
C1362 C 0.92901 0.97542 0.63999 0.0
C1363 C 0.90773 0.9677 0.6096 0.0
C1364 C 0.88128 0.97576 0.62073 0.0
C1365 C 0.87695 0.99397 0.6582 0.0
C1366 C 0.95735 0.96656 0.63073 0.0
C1367 C 0.85787 0.96759 0.5897 0.0
C1368 C 0.91149 0.96103 0.47459 0.0
C1369 C 0.90362 0.93453 0.46953 0.0
C1370 C 0.91609 0.97167 0.52072 0.0
C1371 C 0.91294 0.95513 0.56204 0.0
C1372 C 0.9089 0.92749 0.55623 0.0
C1373 C 0.90401 0.91751 0.5098 0.0
C1374 C 0.92109 1.00121 0.52548 0.0
C1375 C 0.90697 0.90907 0.59931 0.0
H1376 H 0.94089 1.00203 0.69678 0.0
H1377 H 0.85708 1.00191 0.66427 0.0
H1378 H 0.95824 0.9469 0.61247 0.0
H1379 H 0.96739 0.9814 0.60716 0.0
H1380 H 0.96875 0.96542 0.66516 0.0
H1381 H 0.8597 0.97692 0.55337 0.0
H1382 H 0.85766 0.94569 0.58456 0.0
H1383 H 0.83847 0.97374 0.60573 0.0
H1384 H 0.91132 0.97398 0.44314 0.0
H1385 H 0.89853 0.89679 0.50526 0.0
H1386 H 0.93761 1.005 0.55123 0.0
H1387 H 0.90294 1.01108 0.54006 0.0
H1388 H 0.92613 1.01057 0.49014 0.0
H1389 H 0.92347 0.91303 0.62506 0.0
H1390 H 0.90763 0.88778 0.58842 0.0
H1391 H 0.88794 0.91272 0.6188 0.0
C1392 C 0.92002 0.13486 0.5174 0.0
C1393 C 0.93943 0.11584 0.5301 0.0
C1394 C 0.92116 0.1483 0.47282 0.0
C1395 C 0.9422 0.14248 0.44041 0.0
C1396 C 0.96082 0.12204 0.45187 0.0
C1397 C 0.95911 0.10897 0.49649 0.0
C1398 C 0.90023 0.16894 0.46085 0.0
C1399 C 0.98331 0.11457 0.41793 0.0
C1400 C 0.9566 0.15452 0.31104 0.0
C1401 C 0.97981 0.16968 0.31764 0.0
C1402 C 0.94013 0.14866 0.35071 0.0
C1403 C 0.94696 0.15899 0.39666 0.0
C1404 C 0.96594 0.17979 0.39984 0.0
C1405 C 0.98225 0.18506 0.35972 0.0
C1406 C 0.91896 0.12762 0.34502 0.0
C1407 C 0.97289 0.19249 0.4477 0.0
H1408 H 0.90422 0.13963 0.54274 0.0
H1409 H 0.9741 0.09433 0.50609 0.0
H1410 H 0.8884 0.16219 0.42928 0.0
H1411 H 0.88636 0.17252 0.4916 0.0
H1412 H 0.90968 0.18809 0.45056 0.0
H1413 H 0.99636 0.09869 0.43303 0.0
H1414 H 0.97492 0.10727 0.38329 0.0
H1415 H 0.99587 0.13221 0.40993 0.0
H1416 H 0.95404 0.14348 0.27763 0.0
H1417 H 0.99962 0.19763 0.36453 0.0
H1418 H 0.90279 0.13004 0.37211 0.0
H1419 H 0.92809 0.10766 0.35029 0.0
H1420 H 0.91022 0.12823 0.30808 0.0
H1421 H 0.95491 0.19538 0.47055 0.0
H1422 H 0.98282 0.21205 0.44242 0.0
H1423 H 0.98684 0.17923 0.46763 0.0
C1424 C 0.20443 0.5047 0.63051 0.0
C1425 C 0.19149 0.50214 0.58583 0.0
C1426 C 0.19991 0.48596 0.66733 0.0
C1427 C 0.18207 0.4647 0.6586 0.0
C1428 C 0.17388 0.45918 0.61066 0.0
C1429 C 0.17912 0.47795 0.57431 0.0
C1430 C 0.21049 0.49155 0.71737 0.0
C1431 C 0.15573 0.43609 0.59934 0.0
C1432 C 0.15632 0.41873 0.75755 0.0
C1433 C 0.13324 0.43237 0.77203 0.0
C1434 C 0.1732 0.42935 0.72187 0.0
C1435 C 0.16623 0.45374 0.69946 0.0
C1436 C 0.14299 0.46769 0.71481 0.0
C1437 C 0.12698 0.45692 0.75145 0.0
C1438 C 0.19795 0.41405 0.70774 0.0
C1439 C 0.13443 0.49356 0.69143 0.0
H1440 H 0.21451 0.52318 0.63925 0.0
H1441 H 0.16963 0.47579 0.53924 0.0
H1442 H 0.19619 0.50464 0.73685 0.0
H1443 H 0.21287 0.47293 0.73859 0.0
H1444 H 0.22998 0.50201 0.71551 0.0
H1445 H 0.16216 0.41791 0.61899 0.0
H1446 H 0.13514 0.441 0.61134 0.0
H1447 H 0.15524 0.43174 0.55991 0.0
H1448 H 0.16117 0.39983 0.77448 0.0
H1449 H 0.10911 0.46724 0.7633 0.0
H1450 H 0.21419 0.42746 0.69548 0.0
H1451 H 0.19307 0.40033 0.67759 0.0
H1452 H 0.20534 0.40179 0.73843 0.0
H1453 H 0.1508 0.50837 0.69285 0.0
H1454 H 0.11655 0.50234 0.70915 0.0
H1455 H 0.12965 0.48994 0.6528 0.0
C1456 C 0.4105 0.8785 0.24393 0.0
C1457 C 0.42636 0.89825 0.22257 0.0
C1458 C 0.41856 0.86582 0.28674 0.0
C1459 C 0.44256 0.8739 0.30911 0.0
C1460 C 0.4588 0.89368 0.28687 0.0
C1461 C 0.45059 0.90531 0.24335 0.0
C1462 C 0.40103 0.84436 0.308 0.0
C1463 C 0.48463 0.90307 0.30935 0.0
C1464 C 0.46366 0.87781 0.43647 0.0
C1465 C 0.48809 0.86447 0.43111 0.0
C1466 C 0.44503 0.87754 0.39877 0.0
C1467 C 0.45098 0.86287 0.35642 0.0
C1468 C 0.47186 0.84395 0.35716 0.0
C1469 C 0.4906 0.84512 0.39466 0.0
C1470 C 0.42189 0.89674 0.40056 0.0
C1471 C 0.47729 0.82617 0.31427 0.0
H1472 H 0.3919 0.87287 0.22679 0.0
H1473 H 0.46265 0.9205 0.22605 0.0
H1474 H 0.38599 0.85369 0.33216 0.0
H1475 H 0.39004 0.83363 0.27909 0.0
H1476 H 0.4126 0.82965 0.32948 0.0
H1477 H 0.49435 0.91905 0.2878 0.0
H1478 H 0.48084 0.91083 0.34632 0.0
H1479 H 0.49884 0.88619 0.3125 0.0
H1480 H 0.46104 0.89171 0.46615 0.0
H1481 H 0.50892 0.8338 0.39103 0.0
H1482 H 0.404 0.888 0.38325 0.0
H1483 H 0.42722 0.91512 0.38034 0.0
H1484 H 0.41687 0.9024 0.43839 0.0
H1485 H 0.45842 0.81989 0.29669 0.0
H1486 H 0.48875 0.80817 0.32519 0.0
H1487 H 0.4893 0.83726 0.28714 0.0
C1488 C 0.88971 0.57004 0.74147 0.0
C1489 C 0.8737 0.59199 0.75247 0.0
C1490 C 0.88299 0.55302 0.70328 0.0
C1491 C 0.85956 0.55812 0.67594 0.0
C1492 C 0.84249 0.57936 0.68879 0.0
C1493 C 0.84985 0.59615 0.72689 0.0
C1494 C 0.90156 0.53025 0.69099 0.0
C1495 C 0.81714 0.58517 0.66122 0.0
C1496 C 0.87102 0.52934 0.55298 0.0
C1497 C 0.86198 0.50333 0.56086 0.0
C1498 C 0.86731 0.54893 0.58835 0.0
C1499 C 0.85435 0.54203 0.63217 0.0
C1500 C 0.84155 0.51708 0.63673 0.0
C1501 C 0.84548 0.49789 0.60068 0.0
C1502 C 0.88046 0.5757 0.58158 0.0
C1503 C 0.82691 0.50931 0.68238 0.0
H1504 H 0.90803 0.56688 0.7615 0.0
H1505 H 0.83705 0.61277 0.73636 0.0
H1506 H 0.89039 0.51119 0.69036 0.0
H1507 H 0.91015 0.53333 0.65433 0.0
H1508 H 0.91823 0.52834 0.71726 0.0
H1509 H 0.80322 0.59781 0.68258 0.0
H1510 H 0.82216 0.59594 0.62732 0.0
H1511 H 0.80672 0.56653 0.651 0.0
H1512 H 0.88351 0.53352 0.52178 0.0
H1513 H 0.8384 0.47776 0.60674 0.0
H1514 H 0.89922 0.57628 0.60285 0.0
H1515 H 0.86736 0.59194 0.59497 0.0
H1516 H 0.88541 0.57958 0.54298 0.0
H1517 H 0.84161 0.50324 0.71033 0.0
H1518 H 0.8132 0.4923 0.67601 0.0
H1519 H 0.81527 0.52631 0.69704 0.0
C1520 C 0.58474 0.15225 0.1907 0.0
C1521 C 0.58435 0.12448 0.18673 0.0
C1522 C 0.56824 0.16532 0.2241 0.0
C1523 C 0.55051 0.15013 0.25287 0.0
C1524 C 0.55004 0.12194 0.24846 0.0
C1525 C 0.56733 0.10943 0.21574 0.0
C1526 C 0.56982 0.19523 0.22841 0.0
C1527 C 0.5312 0.105 0.27812 0.0
C1528 C 0.51784 0.16771 0.37095 0.0
C1529 C 0.49134 0.17064 0.3558 0.0
C1530 C 0.53835 0.1643 0.33695 0.0
C1531 C 0.53188 0.16322 0.28711 0.0
C1532 C 0.50573 0.16953 0.27163 0.0
C1533 C 0.48573 0.17343 0.30635 0.0
C1534 C 0.56627 0.15873 0.35467 0.0
C1535 C 0.498 0.16859 0.21884 0.0
H1536 H 0.59837 0.16358 0.16818 0.0
H1537 H 0.56749 0.08791 0.2123 0.0
H1538 H 0.55191 0.20437 0.21167 0.0
H1539 H 0.57023 0.20139 0.26698 0.0
H1540 H 0.5878 0.20326 0.20993 0.0
H1541 H 0.53291 0.08348 0.26923 0.0
H1542 H 0.53542 0.1076 0.31726 0.0
H1543 H 0.51029 0.11142 0.27181 0.0
H1544 H 0.52212 0.16567 0.40927 0.0
H1545 H 0.46519 0.17548 0.29459 0.0
H1546 H 0.58128 0.1683 0.33078 0.0
H1547 H 0.56998 0.13692 0.35403 0.0
H1548 H 0.56921 0.16589 0.39234 0.0
H1549 H 0.51329 0.17838 0.19592 0.0
H1550 H 0.47841 0.17833 0.21223 0.0
H1551 H 0.49659 0.14748 0.20718 0.0
C1552 C 0.60695 0.57903 0.9748 0.0
C1553 C 0.61854 0.58573 0.93045 0.0
C1554 C 0.62088 0.56332 0.00827 0.0
C1555 C 0.64729 0.55503 -0.00263 0.0
C1556 C 0.65964 0.56326 0.95388 0.0
C1557 C 0.64486 0.57805 0.92042 0.0
C1558 C 0.60682 0.55433 0.05385 0.0
C1559 C 0.68809 0.55567 0.942 0.0
C1560 C 0.68142 0.52085 0.10265 0.0
C1561 C 0.67539 0.49419 0.09253 0.0
C1562 C 0.67424 0.54108 0.06998 0.0
C1563 C 0.66002 0.5343 0.02749 0.0
C1564 C 0.65538 0.5073 0.01589 0.0
C1565 C 0.66337 0.48759 0.04834 0.0
C1566 C 0.68032 0.56969 0.08244 0.0
C1567 C 0.63991 0.49923 0.97125 0.0
H1568 H 0.58664 0.58526 0.98231 0.0
H1569 H 0.65386 0.58362 0.88628 0.0
H1570 H 0.60403 0.5324 0.05287 0.0
H1571 H 0.6191 0.55894 0.08612 0.0
H1572 H 0.58696 0.5639 0.05823 0.0
H1573 H 0.69521 0.56508 0.90792 0.0
H1574 H 0.70148 0.56172 0.97199 0.0
H1575 H 0.68982 0.53374 0.93822 0.0
H1576 H 0.69064 0.52592 0.13691 0.0
H1577 H 0.6581 0.46706 0.04081 0.0
H1578 H 0.66203 0.57945 0.09654 0.0
H1579 H 0.6868 0.58089 0.04981 0.0
H1580 H 0.69609 0.57117 0.11054 0.0
H1581 H 0.61916 0.50688 0.97387 0.0
H1582 H 0.63909 0.47726 0.96658 0.0
H1583 H 0.649 0.50805 0.93833 0.0
C1584 C 0.53489 0.36311 0.8094 0.0
C1585 C 0.50995 0.35201 0.82032 0.0
C1586 C 0.55513 0.36363 0.84436 0.0
C1587 C 0.54993 0.353 0.89089 0.0
C1588 C 0.52693 0.33717 0.89828 0.0
C1589 C 0.50702 0.33686 0.86262 0.0
C1590 C 0.58006 0.37944 0.83419 0.0
C1591 C 0.52124 0.3244 0.94667 0.0
C1592 C 0.59744 0.36692 -0.00445 0.0
C1593 C 0.58635 0.39044 0.01465 0.0
C1594 C 0.58588 0.35413 0.95545 0.0
C1595 C 0.56298 0.36541 0.93355 0.0
C1596 C 0.55186 0.38923 0.95252 0.0
C1597 C 0.56361 0.40129 -0.00724 0.0
C1598 C 0.59855 0.32893 0.9364 0.0
C1599 C 0.52734 0.40206 0.93056 0.0
H1600 H 0.53731 0.37441 0.77617 0.0
H1601 H 0.48785 0.32795 0.87091 0.0
H1602 H 0.57763 0.39989 0.84886 0.0
H1603 H 0.59761 0.37023 0.85208 0.0
H1604 H 0.584 0.38101 0.79468 0.0
H1605 H 0.50645 0.30805 0.94332 0.0
H1606 H 0.53978 0.31638 0.96314 0.0
H1607 H 0.51295 0.33965 0.97163 0.0
H1608 H 0.61523 0.35851 0.01172 0.0
H1609 H 0.55451 0.41905 0.00765 0.0
H1610 H 0.61223 0.33409 0.90621 0.0
H1611 H 0.58342 0.31485 0.92222 0.0
H1612 H 0.61041 0.31867 0.96486 0.0
H1613 H 0.53133 0.40752 0.89229 0.0
H1614 H 0.52109 0.42034 0.9502 0.0
H1615 H 0.51042 0.38783 0.93092 0.0
C1616 C 0.36333 0.43544 0.97757 0.0
C1617 C 0.38576 0.44505 0.95292 0.0
C1618 C 0.35358 0.44858 0.01872 0.0
C1619 C 0.36734 0.4712 0.03612 0.0
C1620 C 0.38924 0.48168 0.00951 0.0
C1621 C 0.39799 0.46853 0.96775 0.0
C1622 C 0.32958 0.43728 0.04454 0.0
C1623 C 0.40451 0.50582 0.02671 0.0
C1624 C 0.35043 0.52341 0.12703 0.0
C1625 C 0.36866 0.51648 0.16355 0.0
C1626 C 0.34636 0.5065 0.0874 0.0
C1627 C 0.36124 0.48263 0.0843 0.0
C1628 C 0.37591 0.47359 0.1249 0.0
C1629 C 0.37922 0.49062 0.16451 0.0
C1630 C 0.3291 0.51589 0.04605 0.0
C1631 C 0.39132 0.44774 0.12367 0.0
H1632 H 0.35392 0.41723 0.96528 0.0
H1633 H 0.41536 0.4756 0.9482 0.0
H1634 H 0.31599 0.4272 0.01862 0.0
H1635 H 0.33629 0.42217 0.07126 0.0
H1636 H 0.31821 0.4529 0.06417 0.0
H1637 H 0.42067 0.51162 0.00121 0.0
H1638 H 0.39081 0.52303 0.03109 0.0
H1639 H 0.41357 0.50167 0.0626 0.0
H1640 H 0.34176 0.5432 0.12626 0.0
H1641 H 0.39262 0.48492 0.19356 0.0
H1642 H 0.31873 0.49889 0.02865 0.0
H1643 H 0.34181 0.52559 0.01823 0.0
H1644 H 0.31401 0.53063 0.05844 0.0
H1645 H 0.37887 0.4315 0.10868 0.0
H1646 H 0.39838 0.44177 0.16025 0.0
H1647 H 0.40899 0.45006 0.09973 0.0
C1648 C 0.48405 0.6274 0.01071 0.0
C1649 C 0.46914 0.6384 0.0483 0.0
C1650 C 0.49218 0.64317 0.97157 0.0
C1651 C 0.4843 0.67038 0.96959 0.0
C1652 C 0.46999 0.68175 0.00858 0.0
C1653 C 0.46269 0.66554 0.04774 0.0
C1654 C 0.50822 0.63036 0.9314 0.0
C1655 C 0.46083 0.71037 0.0082 0.0
C1656 C 0.52606 0.70074 0.87324 0.0
C1657 C 0.51203 0.69133 0.83274 0.0
C1658 C 0.5154 0.69782 0.91979 0.0
C1659 C 0.49011 0.68583 0.9251 0.0
C1660 C 0.47374 0.68208 0.88396 0.0
C1661 C 0.48502 0.68478 0.83776 0.0
C1662 C 0.53298 0.70325 0.96295 0.0
C1663 C 0.44587 0.67111 0.88862 0.0
H1664 H 0.48864 0.60629 0.0115 0.0
H1665 H 0.45065 0.67367 0.07677 0.0
H1666 H 0.49607 0.62955 0.89789 0.0
H1667 H 0.52629 0.64234 0.92337 0.0
H1668 H 0.51459 0.60977 0.94068 0.0
H1669 H 0.46035 0.71845 0.04559 0.0
H1670 H 0.47371 0.72328 0.98551 0.0
H1671 H 0.44022 0.71132 -0.00637 0.0
H1672 H 0.54685 0.70635 0.8696 0.0
H1673 H 0.47393 0.67817 0.8063 0.0
H1674 H 0.54258 0.68435 0.97461 0.0
H1675 H 0.52113 0.71099 -0.00614 0.0
H1676 H 0.54895 0.71777 0.95401 0.0
H1677 H 0.44694 0.64926 0.89461 0.0
H1678 H 0.43398 0.67484 0.85535 0.0
H1679 H 0.43543 0.68011 0.92009 0.0
C1680 C 0.68967 0.04009 0.1563 0.0
C1681 C 0.69105 0.02401 0.11484 0.0
C1682 C 0.67787 0.03043 0.19869 0.0
C1683 C 0.67007 1.00342 0.20067 0.0
C1684 C 0.67733 0.98585 0.16274 0.0
C1685 C 0.68731 0.99651 0.11943 0.0
C1686 C 0.66977 0.05008 0.23746 0.0
C1687 C 0.67112 0.95649 0.16515 0.0
C1688 C 0.63949 0.9757 0.3152 0.0
C1689 C 0.61255 0.97366 0.30195 0.0
C1690 C 0.6585 0.98576 0.28298 0.0
C1691 C 0.65019 0.99478 0.23704 0.0
C1692 C 0.6227 0.99459 0.2247 0.0
C1693 C 0.60424 0.98346 0.25707 0.0
C1694 C 0.68758 0.98495 0.29677 0.0
C1695 C 0.6129 1.00532 0.17675 0.0
H1696 H 0.69323 0.06131 0.15303 0.0
H1697 H 0.68877 0.98398 0.08756 0.0
H1698 H 0.64791 0.05345 0.23536 0.0
H1699 H 0.67406 0.04225 0.27413 0.0
H1700 H 0.67996 0.06958 0.23308 0.0
H1701 H 0.68419 0.94491 0.14036 0.0
H1702 H 0.67354 0.94875 0.20254 0.0
H1703 H 0.65011 0.95321 0.15408 0.0
H1704 H 0.64601 0.96796 0.34977 0.0
H1705 H 0.58339 0.98189 0.2471 0.0
H1706 H 0.69724 1.0045 0.29074 0.0
H1707 H 0.69797 0.97046 0.27312 0.0
H1708 H 0.69055 0.97909 0.33519 0.0
H1709 H 0.62156 0.02529 0.16956 0.0
H1710 H 0.59079 1.00694 0.17556 0.0
H1711 H 0.61941 0.99192 0.14707 0.0
C1712 C 0.93927 0.35632 0.71483 0.0
C1713 C 0.95301 0.37902 0.69907 0.0
C1714 C 0.94761 0.34239 0.75616 0.0
C1715 C 0.96974 0.35199 0.78254 0.0
C1716 C 0.98461 0.37403 0.76457 0.0
C1717 C 0.97603 0.38719 0.72271 0.0
C1718 C 0.93172 0.31855 0.77264 0.0
C1719 C 1.00843 0.38508 0.79132 0.0
C1720 C 0.98059 0.35658 0.91444 0.0
C1721 C 1.00633 0.34567 0.91544 0.0
C1722 C 0.96537 0.35515 0.87208 0.0
C1723 C 0.97603 0.34159 0.83147 0.0
C1724 C 0.99842 0.32479 0.83745 0.0
C1725 C 0.01364 0.32713 0.87976 0.0
C1726 C 0.94071 0.37227 0.86805 0.0
C1727 C 1.00902 0.30823 0.79616 0.0
H1728 H 0.92147 0.35012 0.69569 0.0
H1729 H 0.98634 0.40481 0.70988 0.0
H1730 H 0.94406 0.30426 0.79363 0.0
H1731 H 0.91501 0.32532 0.79598 0.0
H1732 H 0.92289 0.30805 0.74119 0.0
H1733 H 0.01855 0.40123 0.77081 0.0
H1734 H 1.00181 0.39328 0.82661 0.0
H1735 H 0.02323 0.36914 0.79862 0.0
H1736 H 0.97449 0.37005 0.9431 0.0
H1737 H 0.03315 0.31778 0.88102 0.0
H1738 H 0.925 0.36197 0.84705 0.0
H1739 H 0.94578 0.391 0.84868 0.0
H1740 H 0.93257 0.37756 0.90424 0.0
H1741 H 0.99258 0.30102 0.77276 0.0
H1742 H 0.02058 0.29088 0.80983 0.0
H1743 H 0.02255 0.3206 0.77362 0.0
C1744 C 0.38755 0.04625 0.24232 0.0
C1745 C 0.37317 0.06304 0.2729 0.0
C1746 C 0.37494 0.03292 0.20433 0.0
C1747 C 0.34729 0.03719 0.196 0.0
C1748 C 0.33238 0.05335 0.22825 0.0
C1749 C 0.34558 0.06601 0.2667 0.0
C1750 C 0.39162 0.01528 0.17176 0.0
C1751 C 0.30305 0.05875 0.22082 0.0
C1752 C 0.34222 0.02366 0.0645 0.0
C1753 C 0.33963 0.99589 0.06655 0.0
C1754 C 0.3399 0.03893 0.1068 0.0
C1755 C 0.33526 0.02586 0.15149 0.0
C1756 C 0.32716 0.99891 0.15163 0.0
C1757 C 0.32924 0.98416 0.10874 0.0
C1758 C 0.34701 0.06809 0.10483 0.0
C1759 C 0.32102 0.98444 0.19822 0.0
H1760 H 0.4089 0.04426 0.2475 0.0
H1761 H 0.33469 0.07945 0.29023 0.0
H1762 H 0.38231 0.99534 0.16814 0.0
H1763 H 0.39285 0.02422 0.13506 0.0
H1764 H 0.41225 1.01256 0.18562 0.0
H1765 H 0.29304 0.06375 0.25559 0.0
H1766 H 0.30074 0.07611 0.19623 0.0
H1767 H 0.29273 0.04154 0.20412 0.0
H1768 H 0.34959 0.03288 0.03157 0.0
H1769 H 0.32671 0.96273 0.11048 0.0
H1770 H 0.36833 0.07056 0.11465 0.0
H1771 H 0.33486 0.07966 0.13106 0.0
H1772 H 0.344 0.07644 0.06795 0.0
H1773 H 0.34001 0.97785 0.21513 0.0
H1774 H 0.3086 0.9665 0.19157 0.0
H1775 H 0.31054 0.99763 0.22428 0.0
C1776 C 0.11017 0.64872 0.74386 0.0
C1777 C 0.09834 0.63467 0.70562 0.0
C1778 C 0.09451 0.66091 0.77955 0.0
C1779 C 0.06647 0.6587 0.77694 0.0
C1780 C 0.05443 0.64636 0.73634 0.0
C1781 C 0.07058 0.63451 0.70104 0.0
C1782 C 0.10808 0.67442 0.82162 0.0
C1783 C 0.0245 0.64389 0.73196 0.0
C1784 C 0.02258 0.64679 0.88446 0.0
C1785 C 1.00683 0.66997 0.88458 0.0
C1786 C 0.04406 0.64403 0.85268 0.0
C1787 C 0.04977 0.66481 0.8197 0.0
C1788 C 0.03615 0.68942 0.82336 0.0
C1789 C 0.01488 0.69181 0.85621 0.0
C1790 C 0.05857 0.61761 0.85072 0.0
C1791 C 0.04228 0.71226 0.78955 0.0
H1792 H 0.1317 0.64973 0.74644 0.0
H1793 H 0.06151 0.62391 0.67115 0.0
H1794 H 0.0968 0.69229 0.83355 0.0
H1795 H 0.10901 0.6604 0.85268 0.0
H1796 H 0.12879 0.68044 0.81233 0.0
H1797 H 0.01834 0.63642 0.69581 0.0
H1798 H 0.01699 0.62986 0.75992 0.0
H1799 H 0.01477 0.66344 0.73834 0.0
H1800 H 0.01676 0.62964 0.90573 0.0
H1801 H 1.00348 0.71016 0.85718 0.0
H1802 H 0.08043 0.62067 0.84812 0.0
H1803 H 0.05219 0.60649 0.81801 0.0
H1804 H 0.05436 0.60507 0.88303 0.0
H1805 H 0.06409 0.71424 0.78365 0.0
H1806 H 0.03434 0.73144 0.80358 0.0
H1807 H 0.03298 0.70838 0.75381 0.0
loop_
_geom_bond_atom_site_label_1
_geom_bond_atom_site_label_2
_geom_bond_distance
_geom_bond_site_symmetry_2
_ccdc_geom_bond_type
C0 C1 1.351 . S
C0 N3 1.368 . S
C0 H5 0.931 . S
C1 C0 1.351 . S
C1 N2 1.373 . S
C1 H29 0.930 . S
N2 C1 1.373 . S
N2 C4 1.340 . S
N3 C0 1.368 . S
N3 C4 1.321 . S
N3 Co6 2.135 . S
C4 N2 1.340 . S
C4 N3 1.321 . S
C4 H28 0.930 . S
H5 C0 0.931 . S
Co6 N3 2.135 . S
Co6 N9 2.121 . S
Co6 O14 2.055 . S
Co6 O17 2.039 . S
Co6 N20 2.140 . S
C7 O8 1.227 . S
C7 O17 1.265 . S
O8 C7 1.227 . S
N9 Co6 2.121 . S
N9 C11 1.375 . S
N9 C12 1.313 . S
C10 C11 1.338 . S
C10 N13 1.377 . S
C10 H30 0.930 . S
C11 N9 1.375 . S
C11 C10 1.338 . S
C11 H15 0.931 . S
C12 N9 1.313 . S
C12 N13 1.344 . S
C12 H16 0.930 . S
N13 C10 1.377 . S
N13 C12 1.344 . S
O14 Co6 2.055 . S
O14 C18 1.253 . S
H15 C11 0.931 . S
H16 C12 0.930 . S
O17 Co6 2.039 . S
O17 C7 1.265 . S
C18 O14 1.253 . S
C18 O19 1.227 . S
O19 C18 1.227 . S
N20 Co6 2.140 . S
N20 C23 1.346 . S
N20 C24 1.345 . S
C21 C22 1.387 . S
C21 C25 1.391 . S
C22 C21 1.387 . S
C22 C23 1.369 . S
C22 H31 0.929 . S
C23 N20 1.346 . S
C23 C22 1.369 . S
C23 H26 0.928 . S
C24 N20 1.345 . S
C24 C25 1.371 . S
C24 H27 0.931 . S
C25 C21 1.391 . S
C25 C24 1.371 . S
C25 H32 0.930 . S
H26 C23 0.928 . S
H27 C24 0.931 . S
H28 C4 0.930 . S
H29 C1 0.930 . S
H30 C10 0.930 . S
H31 C22 0.929 . S
H32 C25 0.930 . S
C33 C34 1.351 . S
C33 N36 1.368 . S
C33 H38 0.931 . S
C34 C33 1.351 . S
C34 N35 1.373 . S
C34 H62 0.930 . S
N35 C34 1.373 . S
N35 C37 1.340 . S
N36 C33 1.368 . S
N36 C37 1.321 . S
N36 Co39 2.135 . S
C37 N35 1.340 . S
C37 N36 1.321 . S
C37 H61 0.930 . S
H38 C33 0.931 . S
Co39 N36 2.135 . S
Co39 N42 2.121 . S
Co39 O47 2.055 . S
Co39 O50 2.039 . S
Co39 N53 2.140 . S
C40 O41 1.227 . S
C40 O50 1.265 . S
O41 C40 1.227 . S
N42 Co39 2.121 . S
N42 C44 1.375 . S
N42 C45 1.313 . S
C43 C44 1.338 . S
C43 N46 1.377 . S
C43 H63 0.930 . S
C44 N42 1.375 . S
C44 C43 1.338 . S
C44 H48 0.931 . S
C45 N42 1.313 . S
C45 N46 1.344 . S
C45 H49 0.930 . S
N46 C43 1.377 . S
N46 C45 1.344 . S
O47 Co39 2.055 . S
O47 C51 1.253 . S
H48 C44 0.931 . S
H49 C45 0.930 . S
O50 Co39 2.039 . S
O50 C40 1.265 . S
C51 O47 1.253 . S
C51 O52 1.227 . S
O52 C51 1.227 . S
N53 Co39 2.140 . S
N53 C56 1.346 . S
N53 C57 1.345 . S
C54 C55 1.387 . S
C54 C58 1.391 . S
C55 C54 1.387 . S
C55 C56 1.369 . S
C55 H64 0.929 . S
C56 N53 1.346 . S
C56 C55 1.369 . S
C56 H59 0.928 . S
C57 N53 1.345 . S
C57 C58 1.371 . S
C57 H60 0.931 . S
C58 C54 1.391 . S
C58 C57 1.371 . S
C58 H65 0.930 . S
H59 C56 0.928 . S
H60 C57 0.931 . S
H61 C37 0.930 . S
H62 C34 0.930 . S
H63 C43 0.930 . S
H64 C55 0.929 . S
H65 C58 0.930 . S
C66 C67 1.351 . S
C66 N69 1.368 . S
C66 H71 0.931 . S
C67 C66 1.351 . S
C67 N68 1.373 . S
C67 H95 0.930 . S
N68 C67 1.373 . S
N68 C70 1.340 . S
N69 C66 1.368 . S
N69 C70 1.321 . S
N69 Co72 2.135 . S
C70 N68 1.340 . S
C70 N69 1.321 . S
C70 H94 0.930 . S
H71 C66 0.931 . S
Co72 N69 2.135 . S
Co72 N75 2.121 . S
Co72 O80 2.055 . S
Co72 O83 2.039 . S
Co72 N86 2.140 . S
C73 O74 1.227 . S
C73 O83 1.265 . S
O74 C73 1.227 . S
N75 Co72 2.121 . S
N75 C77 1.375 . S
N75 C78 1.313 . S
C76 C77 1.338 . S
C76 N79 1.377 . S
C76 H96 0.930 . S
C77 N75 1.375 . S
C77 C76 1.338 . S
C77 H81 0.931 . S
C78 N75 1.313 . S
C78 N79 1.344 . S
C78 H82 0.930 . S
N79 C76 1.377 . S
N79 C78 1.344 . S
O80 Co72 2.055 . S
O80 C84 1.253 . S
H81 C77 0.931 . S
H82 C78 0.930 . S
O83 Co72 2.039 . S
O83 C73 1.265 . S
C84 O80 1.253 . S
C84 O85 1.227 . S
O85 C84 1.227 . S
N86 Co72 2.140 . S
N86 C89 1.346 . S
N86 C90 1.345 . S
C87 C88 1.387 . S
C87 C91 1.391 . S
C88 C87 1.387 . S
C88 C89 1.369 . S
C88 H97 0.929 . S
C89 N86 1.346 . S
C89 C88 1.369 . S
C89 H92 0.928 . S
C90 N86 1.345 . S
C90 C91 1.371 . S
C90 H93 0.931 . S
C91 C87 1.391 . S
C91 C90 1.371 . S
C91 H98 0.930 . S
H92 C89 0.928 . S
H93 C90 0.931 . S
H94 C70 0.930 . S
H95 C67 0.930 . S
H96 C76 0.930 . S
H97 C88 0.929 . S
H98 C91 0.930 . S
C99 C100 1.351 . S
C99 N102 1.368 . S
C99 H104 0.931 . S
C100 C99 1.351 . S
C100 N101 1.373 . S
C100 H128 0.930 . S
N101 C100 1.373 . S
N101 C103 1.340 . S
N102 C99 1.368 . S
N102 C103 1.321 . S
N102 Co105 2.135 . S
C103 N101 1.340 . S
C103 N102 1.321 . S
C103 H127 0.930 . S
H104 C99 0.931 . S
Co105 N102 2.135 . S
Co105 N108 2.121 . S
Co105 O113 2.055 . S
Co105 O116 2.039 . S
Co105 N119 2.140 . S
C106 O107 1.227 . S
C106 O116 1.265 . S
O107 C106 1.227 . S
N108 Co105 2.121 . S
N108 C110 1.375 . S
N108 C111 1.313 . S
C109 C110 1.338 . S
C109 N112 1.377 . S
C109 H129 0.930 . S
C110 N108 1.375 . S
C110 C109 1.338 . S
C110 H114 0.931 . S
C111 N108 1.313 . S
C111 N112 1.344 . S
C111 H115 0.930 . S
N112 C109 1.377 . S
N112 C111 1.344 . S
O113 Co105 2.055 . S
O113 C117 1.253 . S
H114 C110 0.931 . S
H115 C111 0.930 . S
O116 Co105 2.039 . S
O116 C106 1.265 . S
C117 O113 1.253 . S
C117 O118 1.227 . S
O118 C117 1.227 . S
N119 Co105 2.140 . S
N119 C122 1.346 . S
N119 C123 1.345 . S
C120 C121 1.387 . S
C120 C124 1.391 . S
C121 C120 1.387 . S
C121 C122 1.369 . S
C121 H130 0.929 . S
C122 N119 1.346 . S
C122 C121 1.369 . S
C122 H125 0.928 . S
C123 N119 1.345 . S
C123 C124 1.371 . S
C123 H126 0.931 . S
C124 C120 1.391 . S
C124 C123 1.371 . S
C124 H131 0.930 . S
H125 C122 0.928 . S
H126 C123 0.931 . S
H127 C103 0.930 . S
H128 C100 0.930 . S
H129 C109 0.930 . S
H130 C121 0.929 . S
H131 C124 0.930 . S
C132 C133 1.351 . S
C132 N135 1.368 . S
C132 H137 0.931 . S
C133 C132 1.351 . S
C133 N134 1.373 . S
C133 H161 0.930 . S
N134 C133 1.373 . S
N134 C136 1.340 . S
N135 C132 1.368 . S
N135 C136 1.321 . S
N135 Co138 2.135 . S
C136 N134 1.340 . S
C136 N135 1.321 . S
C136 H160 0.930 . S
H137 C132 0.931 . S
Co138 N135 2.135 . S
Co138 N141 2.121 1_556 S
Co138 O146 2.055 . S
Co138 O149 2.039 1_556 S
Co138 N152 2.140 . S
C139 O140 1.227 1_554 S
C139 O149 1.265 . S
O140 C139 1.227 1_556 S
N141 Co138 2.121 1_554 S
N141 C143 1.375 . S
N141 C144 1.313 . S
C142 C143 1.338 . S
C142 N145 1.377 . S
C142 H162 0.930 . S
C143 N141 1.375 . S
C143 C142 1.338 . S
C143 H147 0.931 . S
C144 N141 1.313 . S
C144 N145 1.344 . S
C144 H148 0.930 . S
N145 C142 1.377 . S
N145 C144 1.344 . S
O146 Co138 2.055 . S
O146 C150 1.253 . S
H147 C143 0.931 . S
H148 C144 0.930 . S
O149 Co138 2.039 1_554 S
O149 C139 1.265 . S
C150 O146 1.253 . S
C150 O151 1.227 . S
O151 C150 1.227 . S
N152 Co138 2.140 . S
N152 C155 1.346 . S
N152 C156 1.345 . S
C153 C154 1.387 . S
C153 C157 1.391 . S
C154 C153 1.387 . S
C154 C155 1.369 . S
C154 H163 0.929 . S
C155 N152 1.346 . S
C155 C154 1.369 . S
C155 H158 0.928 . S
C156 N152 1.345 . S
C156 C157 1.371 . S
C156 H159 0.931 . S
C157 C153 1.391 . S
C157 C156 1.371 . S
C157 H164 0.930 . S
H158 C155 0.928 . S
H159 C156 0.931 . S
H160 C136 0.930 . S
H161 C133 0.930 . S
H162 C142 0.930 . S
H163 C154 0.929 . S
H164 C157 0.930 . S
C165 C166 1.351 . S
C165 N168 1.368 . S
C165 H170 0.931 . S
C166 C165 1.351 . S
C166 N167 1.373 . S
C166 H194 0.930 . S
N167 C166 1.373 . S
N167 C169 1.340 . S
N168 C165 1.368 . S
N168 C169 1.321 . S
N168 Co171 2.135 . S
C169 N167 1.340 . S
C169 N168 1.321 . S
C169 H193 0.930 . S
H170 C165 0.931 . S
Co171 N168 2.135 . S
Co171 N174 2.121 1_554 S
Co171 O179 2.055 . S
Co171 O182 2.039 1_554 S
Co171 N185 2.140 . S
C172 O173 1.227 1_556 S
C172 O182 1.265 . S
O173 C172 1.227 1_554 S
N174 Co171 2.121 1_556 S
N174 C176 1.375 . S
N174 C177 1.313 . S
C175 C176 1.338 . S
C175 N178 1.377 . S
C175 H195 0.930 . S
C176 N174 1.375 . S
C176 C175 1.338 . S
C176 H180 0.931 . S
C177 N174 1.313 . S
C177 N178 1.344 . S
C177 H181 0.930 . S
N178 C175 1.377 . S
N178 C177 1.344 . S
O179 Co171 2.055 . S
O179 C183 1.253 . S
H180 C176 0.931 . S
H181 C177 0.930 . S
O182 Co171 2.039 1_556 S
O182 C172 1.265 . S
C183 O179 1.253 . S
C183 O184 1.227 . S
O184 C183 1.227 . S
N185 Co171 2.140 . S
N185 C188 1.346 . S
N185 C189 1.345 . S
C186 C187 1.387 . S
C186 C190 1.391 . S
C187 C186 1.387 . S
C187 C188 1.369 . S
C187 H196 0.929 . S
C188 N185 1.346 . S
C188 C187 1.369 . S
C188 H191 0.928 . S
C189 N185 1.345 . S
C189 C190 1.371 . S
C189 H192 0.931 . S
C190 C186 1.391 . S
C190 C189 1.371 . S
C190 H197 0.930 . S
H191 C188 0.928 . S
H192 C189 0.931 . S
H193 C169 0.930 . S
H194 C166 0.930 . S
H195 C175 0.930 . S
H196 C187 0.929 . S
H197 C190 0.930 . S
C198 C199 1.351 . S
C198 N201 1.368 . S
C198 H203 0.931 . S
C199 C198 1.351 . S
C199 N200 1.373 . S
C199 H227 0.930 . S
N200 C199 1.373 . S
N200 C202 1.340 . S
N201 C198 1.368 . S
N201 C202 1.321 . S
N201 Co204 2.135 . S
C202 N200 1.340 . S
C202 N201 1.321 . S
C202 H226 0.930 . S
H203 C198 0.931 . S
Co204 N201 2.135 . S
Co204 N207 2.121 1_556 S
Co204 O212 2.055 . S
Co204 O215 2.039 1_556 S
Co204 N218 2.140 . S
C205 O206 1.227 1_554 S
C205 O215 1.265 . S
O206 C205 1.227 1_556 S
N207 Co204 2.121 1_554 S
N207 C209 1.375 . S
N207 C210 1.313 . S
C208 C209 1.338 . S
C208 N211 1.377 . S
C208 H228 0.930 . S
C209 N207 1.375 . S
C209 C208 1.338 . S
C209 H213 0.931 . S
C210 N207 1.313 . S
C210 N211 1.344 . S
C210 H214 0.930 . S
N211 C208 1.377 . S
N211 C210 1.344 . S
O212 Co204 2.055 . S
O212 C216 1.253 . S
H213 C209 0.931 . S
H214 C210 0.930 . S
O215 Co204 2.039 1_554 S
O215 C205 1.265 . S
C216 O212 1.253 . S
C216 O217 1.227 . S
O217 C216 1.227 . S
N218 Co204 2.140 . S
N218 C221 1.346 . S
N218 C222 1.345 . S
C219 C220 1.387 . S
C219 C223 1.391 . S
C220 C219 1.387 . S
C220 C221 1.369 . S
C220 H229 0.929 . S
C221 N218 1.346 . S
C221 C220 1.369 . S
C221 H224 0.928 . S
C222 N218 1.345 . S
C222 C223 1.371 . S
C222 H225 0.931 . S
C223 C219 1.391 . S
C223 C222 1.371 . S
C223 H230 0.930 . S
H224 C221 0.928 . S
H225 C222 0.931 . S
H226 C202 0.930 . S
H227 C199 0.930 . S
H228 C208 0.930 . S
H229 C220 0.929 . S
H230 C223 0.930 . S
C231 C232 1.351 . S
C231 N234 1.368 . S
C231 H236 0.931 . S
C232 C231 1.351 . S
C232 N233 1.373 . S
C232 H260 0.930 . S
N233 C232 1.373 . S
N233 C235 1.340 . S
N234 C231 1.368 . S
N234 C235 1.321 . S
N234 Co237 2.135 . S
C235 N233 1.340 . S
C235 N234 1.321 . S
C235 H259 0.930 . S
H236 C231 0.931 . S
Co237 N234 2.135 . S
Co237 N240 2.121 1_554 S
Co237 O245 2.055 . S
Co237 O248 2.039 1_554 S
Co237 N251 2.140 . S
C238 O239 1.227 1_556 S
C238 O248 1.265 . S
O239 C238 1.227 1_554 S
N240 Co237 2.121 1_556 S
N240 C242 1.375 . S
N240 C243 1.313 . S
C241 C242 1.338 . S
C241 N244 1.377 . S
C241 H261 0.930 . S
C242 N240 1.375 . S
C242 C241 1.338 . S
C242 H246 0.931 . S
C243 N240 1.313 . S
C243 N244 1.344 . S
C243 H247 0.930 . S
N244 C241 1.377 . S
N244 C243 1.344 . S
O245 Co237 2.055 . S
O245 C249 1.253 . S
H246 C242 0.931 . S
H247 C243 0.930 . S
O248 Co237 2.039 1_556 S
O248 C238 1.265 . S
C249 O245 1.253 . S
C249 O250 1.227 . S
O250 C249 1.227 . S
N251 Co237 2.140 . S
N251 C254 1.346 . S
N251 C255 1.345 . S
C252 C253 1.387 . S
C252 C256 1.391 . S
C253 C252 1.387 . S
C253 C254 1.369 . S
C253 H262 0.929 . S
C254 N251 1.346 . S
C254 C253 1.369 . S
C254 H257 0.928 . S
C255 N251 1.345 . S
C255 C256 1.371 . S
C255 H258 0.931 . S
C256 C252 1.391 . S
C256 C255 1.371 . S
C256 H263 0.930 . S
H257 C254 0.928 . S
H258 C255 0.931 . S
H259 C235 0.930 . S
H260 C232 0.930 . S
H261 C241 0.930 . S
H262 C253 0.929 . S
H263 C256 0.930 . S
C264 C265 1.351 . S
C264 N267 1.368 . S
C264 H269 0.931 . S
C265 C264 1.351 . S
C265 N266 1.373 . S
C265 H293 0.930 . S
N266 C265 1.373 . S
N266 C268 1.340 . S
N267 C264 1.368 . S
N267 C268 1.321 . S
N267 Co270 2.135 . S
C268 N266 1.340 . S
C268 N267 1.321 . S
C268 H292 0.930 . S
H269 C264 0.931 . S
Co270 N267 2.135 . S
Co270 N273 2.121 . S
Co270 O278 2.055 . S
Co270 O281 2.039 . S
Co270 N284 2.140 . S
C271 O272 1.227 . S
C271 O281 1.265 . S
O272 C271 1.227 . S
N273 Co270 2.121 . S
N273 C275 1.375 . S
N273 C276 1.313 . S
C274 C275 1.338 . S
C274 N277 1.377 . S
C274 H294 0.930 . S
C275 N273 1.375 . S
C275 C274 1.338 . S
C275 H279 0.931 . S
C276 N273 1.313 . S
C276 N277 1.344 . S
C276 H280 0.930 . S
N277 C274 1.377 . S
N277 C276 1.344 . S
O278 Co270 2.055 . S
O278 C282 1.253 . S
H279 C275 0.931 . S
H280 C276 0.930 . S
O281 Co270 2.039 . S
O281 C271 1.265 . S
C282 O278 1.253 . S
C282 O283 1.227 . S
O283 C282 1.227 . S
N284 Co270 2.140 . S
N284 C287 1.346 . S
N284 C288 1.345 . S
C285 C286 1.387 . S
C285 C289 1.391 . S
C286 C285 1.387 . S
C286 C287 1.369 . S
C286 H295 0.929 . S
C287 N284 1.346 . S
C287 C286 1.369 . S
C287 H290 0.928 . S
C288 N284 1.345 . S
C288 C289 1.371 . S
C288 H291 0.931 . S
C289 C285 1.391 . S
C289 C288 1.371 . S
C289 H296 0.930 . S
H290 C287 0.928 . S
H291 C288 0.931 . S
H292 C268 0.930 . S
H293 C265 0.930 . S
H294 C274 0.930 . S
H295 C286 0.929 . S
H296 C289 0.930 . S
C297 C298 1.351 . S
C297 N300 1.368 . S
C297 H302 0.931 . S
C298 C297 1.351 . S
C298 N299 1.373 . S
C298 H326 0.930 . S
N299 C298 1.373 . S
N299 C301 1.340 . S
N300 C297 1.368 . S
N300 C301 1.321 . S
N300 Co303 2.135 . S
C301 N299 1.340 . S
C301 N300 1.321 . S
C301 H325 0.930 . S
H302 C297 0.931 . S
Co303 N300 2.135 . S
Co303 N306 2.121 . S
Co303 O311 2.055 . S
Co303 O314 2.039 . S
Co303 N317 2.140 . S
C304 O305 1.227 . S
C304 O314 1.265 . S
O305 C304 1.227 . S
N306 Co303 2.121 . S
N306 C308 1.375 . S
N306 C309 1.313 . S
C307 C308 1.338 . S
C307 N310 1.377 . S
C307 H327 0.930 . S
C308 N306 1.375 . S
C308 C307 1.338 . S
C308 H312 0.931 . S
C309 N306 1.313 . S
C309 N310 1.344 . S
C309 H313 0.930 . S
N310 C307 1.377 . S
N310 C309 1.344 . S
O311 Co303 2.055 . S
O311 C315 1.253 . S
H312 C308 0.931 . S
H313 C309 0.930 . S
O314 Co303 2.039 . S
O314 C304 1.265 . S
C315 O311 1.253 . S
C315 O316 1.227 . S
O316 C315 1.227 . S
N317 Co303 2.140 . S
N317 C320 1.346 . S
N317 C321 1.345 . S
C318 C319 1.387 . S
C318 C322 1.391 . S
C319 C318 1.387 . S
C319 C320 1.369 . S
C319 H328 0.929 . S
C320 N317 1.346 . S
C320 C319 1.369 . S
C320 H323 0.928 . S
C321 N317 1.345 . S
C321 C322 1.371 . S
C321 H324 0.931 . S
C322 C318 1.391 . S
C322 C321 1.371 . S
C322 H329 0.930 . S
H323 C320 0.928 . S
H324 C321 0.931 . S
H325 C301 0.930 . S
H326 C298 0.930 . S
H327 C307 0.930 . S
H328 C319 0.929 . S
H329 C322 0.930 . S
C330 C331 1.351 . S
C330 N333 1.368 . S
C330 H335 0.931 . S
C331 C330 1.351 . S
C331 N332 1.373 . S
C331 H359 0.930 . S
N332 C331 1.373 . S
N332 C334 1.340 . S
N333 C330 1.368 . S
N333 C334 1.321 . S
N333 Co336 2.135 . S
C334 N332 1.340 . S
C334 N333 1.321 . S
C334 H358 0.930 . S
H335 C330 0.931 . S
Co336 N333 2.135 . S
Co336 N339 2.121 . S
Co336 O344 2.055 . S
Co336 O347 2.039 . S
Co336 N350 2.140 . S
C337 O338 1.227 . S
C337 O347 1.265 . S
O338 C337 1.227 . S
N339 Co336 2.121 . S
N339 C341 1.375 . S
N339 C342 1.313 . S
C340 C341 1.338 . S
C340 N343 1.377 . S
C340 H360 0.930 . S
C341 N339 1.375 . S
C341 C340 1.338 . S
C341 H345 0.931 . S
C342 N339 1.313 . S
C342 N343 1.344 . S
C342 H346 0.930 . S
N343 C340 1.377 . S
N343 C342 1.344 . S
O344 Co336 2.055 . S
O344 C348 1.253 . S
H345 C341 0.931 . S
H346 C342 0.930 . S
O347 Co336 2.039 . S
O347 C337 1.265 . S
C348 O344 1.253 . S
C348 O349 1.227 . S
O349 C348 1.227 . S
N350 Co336 2.140 . S
N350 C353 1.346 . S
N350 C354 1.345 . S
C351 C352 1.387 . S
C351 C355 1.391 . S
C352 C351 1.387 . S
C352 C353 1.369 . S
C352 H361 0.929 . S
C353 N350 1.346 . S
C353 C352 1.369 . S
C353 H356 0.928 . S
C354 N350 1.345 . S
C354 C355 1.371 . S
C354 H357 0.931 . S
C355 C351 1.391 . S
C355 C354 1.371 . S
C355 H362 0.930 . S
H356 C353 0.928 . S
H357 C354 0.931 . S
H358 C334 0.930 . S
H359 C331 0.930 . S
H360 C340 0.930 . S
H361 C352 0.929 . S
H362 C355 0.930 . S
C363 C364 1.351 . S
C363 N366 1.368 . S
C363 H368 0.931 . S
C364 C363 1.351 . S
C364 N365 1.373 . S
C364 H392 0.930 . S
N365 C364 1.373 . S
N365 C367 1.340 . S
N366 C363 1.368 . S
N366 C367 1.321 . S
N366 Co369 2.135 . S
C367 N365 1.340 . S
C367 N366 1.321 . S
C367 H391 0.930 . S
H368 C363 0.931 . S
Co369 N366 2.135 . S
Co369 N372 2.121 . S
Co369 O377 2.055 . S
Co369 O380 2.039 . S
Co369 N383 2.140 . S
C370 O371 1.227 . S
C370 O380 1.265 . S
O371 C370 1.227 . S
N372 Co369 2.121 . S
N372 C374 1.375 . S
N372 C375 1.313 . S
C373 C374 1.338 . S
C373 N376 1.377 . S
C373 H393 0.930 . S
C374 N372 1.375 . S
C374 C373 1.338 . S
C374 H378 0.931 . S
C375 N372 1.313 . S
C375 N376 1.344 . S
C375 H379 0.930 . S
N376 C373 1.377 . S
N376 C375 1.344 . S
O377 Co369 2.055 . S
O377 C381 1.253 . S
H378 C374 0.931 . S
H379 C375 0.930 . S
O380 Co369 2.039 . S
O380 C370 1.265 . S
C381 O377 1.253 . S
C381 O382 1.227 . S
O382 C381 1.227 . S
N383 Co369 2.140 . S
N383 C386 1.346 . S
N383 C387 1.345 . S
C384 C385 1.387 . S
C384 C388 1.391 . S
C385 C384 1.387 . S
C385 C386 1.369 . S
C385 H394 0.929 . S
C386 N383 1.346 . S
C386 C385 1.369 . S
C386 H389 0.928 . S
C387 N383 1.345 . S
C387 C388 1.371 . S
C387 H390 0.931 . S
C388 C384 1.391 . S
C388 C387 1.371 . S
C388 H395 0.930 . S
H389 C386 0.928 . S
H390 C387 0.931 . S
H391 C367 0.930 . S
H392 C364 0.930 . S
H393 C373 0.930 . S
H394 C385 0.929 . S
H395 C388 0.930 . S
C396 C397 1.351 . S
C396 N399 1.368 . S
C396 H401 0.931 . S
C397 C396 1.351 . S
C397 N398 1.373 . S
C397 H425 0.930 . S
N398 C397 1.373 . S
N398 C400 1.340 . S
N399 C396 1.368 . S
N399 C400 1.321 . S
N399 Co402 2.135 . S
C400 N398 1.340 . S
C400 N399 1.321 . S
C400 H424 0.930 . S
H401 C396 0.931 . S
Co402 N399 2.135 . S
Co402 N405 2.121 . S
Co402 O410 2.055 . S
Co402 O413 2.039 . S
Co402 N416 2.140 . S
C403 O404 1.227 . S
C403 O413 1.265 . S
O404 C403 1.227 . S
N405 Co402 2.121 . S
N405 C407 1.375 . S
N405 C408 1.313 . S
C406 C407 1.338 . S
C406 N409 1.377 . S
C406 H426 0.930 . S
C407 N405 1.375 . S
C407 C406 1.338 . S
C407 H411 0.931 . S
C408 N405 1.313 . S
C408 N409 1.344 . S
C408 H412 0.930 . S
N409 C406 1.377 . S
N409 C408 1.344 . S
O410 Co402 2.055 . S
O410 C414 1.253 . S
H411 C407 0.931 . S
H412 C408 0.930 . S
O413 Co402 2.039 . S
O413 C403 1.265 . S
C414 O410 1.253 . S
C414 O415 1.227 . S
O415 C414 1.227 . S
N416 Co402 2.140 . S
N416 C419 1.346 . S
N416 C420 1.345 . S
C417 C418 1.387 . S
C417 C421 1.391 . S
C418 C417 1.387 . S
C418 C419 1.369 . S
C418 H427 0.929 . S
C419 N416 1.346 . S
C419 C418 1.369 . S
C419 H422 0.928 . S
C420 N416 1.345 . S
C420 C421 1.371 . S
C420 H423 0.931 . S
C421 C417 1.391 . S
C421 C420 1.371 . S
C421 H428 0.930 . S
H422 C419 0.928 . S
H423 C420 0.931 . S
H424 C400 0.930 . S
H425 C397 0.930 . S
H426 C406 0.930 . S
H427 C418 0.929 . S
H428 C421 0.930 . S
C429 C430 1.351 . S
C429 N432 1.368 . S
C429 H434 0.931 . S
C430 C429 1.351 . S
C430 N431 1.373 . S
C430 H458 0.930 . S
N431 C430 1.373 . S
N431 C433 1.340 . S
N432 C429 1.368 . S
N432 C433 1.321 . S
N432 Co435 2.135 . S
C433 N431 1.340 . S
C433 N432 1.321 . S
C433 H457 0.930 . S
H434 C429 0.931 . S
Co435 N432 2.135 . S
Co435 N438 2.121 . S
Co435 O443 2.055 . S
Co435 O446 2.039 . S
Co435 N449 2.140 . S
C436 O437 1.227 . S
C436 O446 1.265 . S
O437 C436 1.227 . S
N438 Co435 2.121 . S
N438 C440 1.375 . S
N438 C441 1.313 . S
C439 C440 1.338 . S
C439 N442 1.377 . S
C439 H459 0.930 . S
C440 N438 1.375 . S
C440 C439 1.338 . S
C440 H444 0.931 . S
C441 N438 1.313 . S
C441 N442 1.344 . S
C441 H445 0.930 . S
N442 C439 1.377 . S
N442 C441 1.344 . S
O443 Co435 2.055 . S
O443 C447 1.253 . S
H444 C440 0.931 . S
H445 C441 0.930 . S
O446 Co435 2.039 . S
O446 C436 1.265 . S
C447 O443 1.253 . S
C447 O448 1.227 . S
O448 C447 1.227 . S
N449 Co435 2.140 . S
N449 C452 1.346 . S
N449 C453 1.345 . S
C450 C451 1.387 . S
C450 C454 1.391 . S
C451 C450 1.387 . S
C451 C452 1.369 . S
C451 H460 0.929 . S
C452 N449 1.346 . S
C452 C451 1.369 . S
C452 H455 0.928 . S
C453 N449 1.345 . S
C453 C454 1.371 . S
C453 H456 0.931 . S
C454 C450 1.391 . S
C454 C453 1.371 . S
C454 H461 0.930 . S
H455 C452 0.928 . S
H456 C453 0.931 . S
H457 C433 0.930 . S
H458 C430 0.930 . S
H459 C439 0.930 . S
H460 C451 0.929 . S
H461 C454 0.930 . S
C462 C463 1.351 . S
C462 N465 1.368 . S
C462 H467 0.931 . S
C463 C462 1.351 . S
C463 N464 1.373 . S
C463 H491 0.930 . S
N464 C463 1.373 . S
N464 C466 1.340 . S
N465 C462 1.368 . S
N465 C466 1.321 . S
N465 Co468 2.135 . S
C466 N464 1.340 . S
C466 N465 1.321 . S
C466 H490 0.930 . S
H467 C462 0.931 . S
Co468 N465 2.135 . S
Co468 N471 2.121 . S
Co468 O476 2.055 . S
Co468 O479 2.039 . S
Co468 N482 2.140 . S
C469 O470 1.227 . S
C469 O479 1.265 . S
O470 C469 1.227 . S
N471 Co468 2.121 . S
N471 C473 1.375 . S
N471 C474 1.313 . S
C472 C473 1.338 . S
C472 N475 1.377 . S
C472 H492 0.930 . S
C473 N471 1.375 . S
C473 C472 1.338 . S
C473 H477 0.931 . S
C474 N471 1.313 . S
C474 N475 1.344 . S
C474 H478 0.930 . S
N475 C472 1.377 . S
N475 C474 1.344 . S
O476 Co468 2.055 . S
O476 C480 1.253 . S
H477 C473 0.931 . S
H478 C474 0.930 . S
O479 Co468 2.039 . S
O479 C469 1.265 . S
C480 O476 1.253 . S
C480 O481 1.227 . S
O481 C480 1.227 . S
N482 Co468 2.140 . S
N482 C485 1.346 . S
N482 C486 1.345 . S
C483 C484 1.387 . S
C483 C487 1.391 . S
C484 C483 1.387 . S
C484 C485 1.369 . S
C484 H493 0.929 . S
C485 N482 1.346 . S
C485 C484 1.369 . S
C485 H488 0.928 . S
C486 N482 1.345 . S
C486 C487 1.371 . S
C486 H489 0.931 . S
C487 C483 1.391 . S
C487 C486 1.371 . S
C487 H494 0.930 . S
H488 C485 0.928 . S
H489 C486 0.931 . S
H490 C466 0.930 . S
H491 C463 0.930 . S
H492 C472 0.930 . S
H493 C484 0.929 . S
H494 C487 0.930 . S
C495 C496 1.351 . S
C495 N498 1.368 . S
C495 H500 0.931 . S
C496 C495 1.351 . S
C496 N497 1.373 . S
C496 H524 0.930 . S
N497 C496 1.373 . S
N497 C499 1.340 . S
N498 C495 1.368 . S
N498 C499 1.321 . S
N498 Co501 2.135 . S
C499 N497 1.340 . S
C499 N498 1.321 . S
C499 H523 0.930 . S
H500 C495 0.931 . S
Co501 N498 2.135 . S
Co501 N504 2.121 . S
Co501 O509 2.055 . S
Co501 O512 2.039 . S
Co501 N515 2.140 . S
C502 O503 1.227 . S
C502 O512 1.265 . S
O503 C502 1.227 . S
N504 Co501 2.121 . S
N504 C506 1.375 . S
N504 C507 1.313 . S
C505 C506 1.338 . S
C505 N508 1.377 . S
C505 H525 0.930 . S
C506 N504 1.375 . S
C506 C505 1.338 . S
C506 H510 0.931 . S
C507 N504 1.313 . S
C507 N508 1.344 . S
C507 H511 0.930 . S
N508 C505 1.377 . S
N508 C507 1.344 . S
O509 Co501 2.055 . S
O509 C513 1.253 . S
H510 C506 0.931 . S
H511 C507 0.930 . S
O512 Co501 2.039 . S
O512 C502 1.265 . S
C513 O509 1.253 . S
C513 O514 1.227 . S
O514 C513 1.227 . S
N515 Co501 2.140 . S
N515 C518 1.346 . S
N515 C519 1.345 . S
C516 C517 1.387 . S
C516 C520 1.391 . S
C517 C516 1.387 . S
C517 C518 1.369 . S
C517 H526 0.929 . S
C518 N515 1.346 . S
C518 C517 1.369 . S
C518 H521 0.928 . S
C519 N515 1.345 . S
C519 C520 1.371 . S
C519 H522 0.931 . S
C520 C516 1.391 . S
C520 C519 1.371 . S
C520 H527 0.930 . S
H521 C518 0.928 . S
H522 C519 0.931 . S
H523 C499 0.930 . S
H524 C496 0.930 . S
H525 C505 0.930 . S
H526 C517 0.929 . S
H527 C520 0.930 . S
C528 C529 1.391 . S
C528 C530 1.394 . S
C528 H544 0.931 . S
C529 C528 1.391 . S
C529 C533 1.376 . S
C530 C528 1.394 . S
C530 C531 1.369 . S
C530 C534 1.531 . S
C531 C530 1.369 . S
C531 C532 1.410 . S
C531 C539 1.503 . S
C532 C531 1.410 . S
C532 C533 1.392 . S
C532 C535 1.511 . S
C533 C529 1.376 . S
C533 C532 1.392 . S
C533 H545 0.929 . S
C534 C530 1.531 . S
C534 H546 0.960 . S
C534 H547 0.962 . S
C534 H548 0.960 . S
C535 C532 1.511 . S
C535 H549 0.961 . S
C535 H550 0.961 . S
C535 H551 0.961 . S
C536 C537 1.370 . S
C536 C538 1.363 . S
C536 H552 0.931 . S
C537 C536 1.370 . S
C537 C541 1.408 . S
C538 C536 1.363 . S
C538 C539 1.370 . S
C538 C542 1.524 . S
C539 C531 1.503 . S
C539 C538 1.370 . S
C539 C540 1.403 . S
C540 C539 1.403 . S
C540 C541 1.404 . S
C540 C543 1.539 . S
C541 C537 1.408 . S
C541 C540 1.404 . S
C541 H553 0.930 . S
C542 C538 1.524 . S
C542 H554 0.956 . S
C542 H555 0.961 . S
C542 H556 0.961 . S
C543 C540 1.539 . S
C543 H557 0.958 . S
C543 H558 0.961 . S
C543 H559 0.960 . S
H544 C528 0.931 . S
H545 C533 0.929 . S
H546 C534 0.960 . S
H547 C534 0.962 . S
H548 C534 0.960 . S
H549 C535 0.961 . S
H550 C535 0.961 . S
H551 C535 0.961 . S
H552 C536 0.931 . S
H553 C541 0.930 . S
H554 C542 0.956 . S
H555 C542 0.961 . S
H556 C542 0.961 . S
H557 C543 0.958 . S
H558 C543 0.961 . S
H559 C543 0.960 . S
C560 C561 1.391 . S
C560 C562 1.394 . S
C560 H576 0.931 . S
C561 C560 1.391 . S
C561 C565 1.376 . S
C562 C560 1.394 . S
C562 C563 1.369 . S
C562 C566 1.531 . S
C563 C562 1.369 . S
C563 C564 1.410 . S
C563 C571 1.503 . S
C564 C563 1.410 . S
C564 C565 1.392 . S
C564 C567 1.511 . S
C565 C561 1.376 . S
C565 C564 1.392 . S
C565 H577 0.929 . S
C566 C562 1.531 . S
C566 H578 0.960 . S
C566 H579 0.962 . S
C566 H580 0.960 . S
C567 C564 1.511 . S
C567 H581 0.961 . S
C567 H582 0.961 . S
C567 H583 0.961 . S
C568 C569 1.370 . S
C568 C570 1.363 . S
C568 H584 0.931 . S
C569 C568 1.370 . S
C569 C573 1.408 . S
C570 C568 1.363 . S
C570 C571 1.370 . S
C570 C574 1.524 . S
C571 C563 1.503 . S
C571 C570 1.370 . S
C571 C572 1.403 . S
C572 C571 1.403 . S
C572 C573 1.404 . S
C572 C575 1.539 . S
C573 C569 1.408 . S
C573 C572 1.404 . S
C573 H585 0.930 . S
C574 C570 1.524 . S
C574 H586 0.956 . S
C574 H587 0.961 . S
C574 H588 0.961 . S
C575 C572 1.539 . S
C575 H589 0.958 . S
C575 H590 0.961 . S
C575 H591 0.960 . S
H576 C560 0.931 . S
H577 C565 0.929 . S
H578 C566 0.960 . S
H579 C566 0.962 . S
H580 C566 0.960 . S
H581 C567 0.961 . S
H582 C567 0.961 . S
H583 C567 0.961 . S
H584 C568 0.931 . S
H585 C573 0.930 . S
H586 C574 0.956 . S
H587 C574 0.961 . S
H588 C574 0.961 . S
H589 C575 0.958 . S
H590 C575 0.961 . S
H591 C575 0.960 . S
C592 C593 1.391 . S
C592 C594 1.394 . S
C592 H608 0.931 . S
C593 C592 1.391 . S
C593 C597 1.376 . S
C594 C592 1.394 . S
C594 C595 1.369 . S
C594 C598 1.531 . S
C595 C594 1.369 . S
C595 C596 1.410 . S
C595 C603 1.503 . S
C596 C595 1.410 . S
C596 C597 1.392 . S
C596 C599 1.511 . S
C597 C593 1.376 . S
C597 C596 1.392 . S
C597 H609 0.929 . S
C598 C594 1.531 . S
C598 H610 0.960 . S
C598 H611 0.962 . S
C598 H612 0.960 . S
C599 C596 1.511 . S
C599 H613 0.961 . S
C599 H614 0.961 . S
C599 H615 0.961 . S
C600 C601 1.370 . S
C600 C602 1.363 . S
C600 H616 0.931 . S
C601 C600 1.370 . S
C601 C605 1.408 . S
C602 C600 1.363 . S
C602 C603 1.370 . S
C602 C606 1.524 . S
C603 C595 1.503 . S
C603 C602 1.370 . S
C603 C604 1.403 . S
C604 C603 1.403 . S
C604 C605 1.404 . S
C604 C607 1.539 . S
C605 C601 1.408 . S
C605 C604 1.404 . S
C605 H617 0.930 . S
C606 C602 1.524 . S
C606 H618 0.956 . S
C606 H619 0.961 . S
C606 H620 0.961 . S
C607 C604 1.539 . S
C607 H621 0.958 . S
C607 H622 0.961 . S
C607 H623 0.960 . S
H608 C592 0.931 . S
H609 C597 0.929 . S
H610 C598 0.960 . S
H611 C598 0.962 . S
H612 C598 0.960 . S
H613 C599 0.961 . S
H614 C599 0.961 . S
H615 C599 0.961 . S
H616 C600 0.931 . S
H617 C605 0.930 . S
H618 C606 0.956 . S
H619 C606 0.961 . S
H620 C606 0.961 . S
H621 C607 0.958 . S
H622 C607 0.961 . S
H623 C607 0.960 . S
C624 C625 1.391 . S
C624 C626 1.394 . S
C624 H640 0.931 . S
C625 C624 1.391 . S
C625 C629 1.376 . S
C626 C624 1.394 . S
C626 C627 1.369 . S
C626 C630 1.531 . S
C627 C626 1.369 . S
C627 C628 1.410 . S
C627 C635 1.503 . S
C628 C627 1.410 . S
C628 C629 1.392 . S
C628 C631 1.511 . S
C629 C625 1.376 . S
C629 C628 1.392 . S
C629 H641 0.929 . S
C630 C626 1.531 . S
C630 H642 0.960 . S
C630 H643 0.962 . S
C630 H644 0.960 . S
C631 C628 1.511 . S
C631 H645 0.961 . S
C631 H646 0.961 . S
C631 H647 0.961 . S
C632 C633 1.370 . S
C632 C634 1.363 . S
C632 H648 0.931 . S
C633 C632 1.370 . S
C633 C637 1.408 . S
C634 C632 1.363 . S
C634 C635 1.370 . S
C634 C638 1.524 . S
C635 C627 1.503 . S
C635 C634 1.370 . S
C635 C636 1.403 . S
C636 C635 1.403 . S
C636 C637 1.404 . S
C636 C639 1.539 . S
C637 C633 1.408 . S
C637 C636 1.404 . S
C637 H649 0.930 . S
C638 C634 1.524 . S
C638 H650 0.956 . S
C638 H651 0.961 . S
C638 H652 0.961 . S
C639 C636 1.539 . S
C639 H653 0.958 . S
C639 H654 0.961 . S
C639 H655 0.960 . S
H640 C624 0.931 . S
H641 C629 0.929 . S
H642 C630 0.960 . S
H643 C630 0.962 . S
H644 C630 0.960 . S
H645 C631 0.961 . S
H646 C631 0.961 . S
H647 C631 0.961 . S
H648 C632 0.931 . S
H649 C637 0.930 . S
H650 C638 0.956 . S
H651 C638 0.961 . S
H652 C638 0.961 . S
H653 C639 0.958 . S
H654 C639 0.961 . S
H655 C639 0.960 . S
C656 C657 1.391 . S
C656 C658 1.394 . S
C656 H672 0.931 . S
C657 C656 1.391 . S
C657 C661 1.376 . S
C658 C656 1.394 . S
C658 C659 1.369 . S
C658 C662 1.531 . S
C659 C658 1.369 . S
C659 C660 1.410 . S
C659 C667 1.503 . S
C660 C659 1.410 . S
C660 C661 1.392 . S
C660 C663 1.511 . S
C661 C657 1.376 . S
C661 C660 1.392 . S
C661 H673 0.929 . S
C662 C658 1.531 . S
C662 H674 0.960 . S
C662 H675 0.962 . S
C662 H676 0.960 . S
C663 C660 1.511 . S
C663 H677 0.961 . S
C663 H678 0.961 . S
C663 H679 0.961 . S
C664 C665 1.370 . S
C664 C666 1.363 . S
C664 H680 0.931 . S
C665 C664 1.370 . S
C665 C669 1.408 . S
C666 C664 1.363 . S
C666 C667 1.370 . S
C666 C670 1.524 . S
C667 C659 1.503 . S
C667 C666 1.370 . S
C667 C668 1.403 . S
C668 C667 1.403 . S
C668 C669 1.404 . S
C668 C671 1.539 . S
C669 C665 1.408 . S
C669 C668 1.404 . S
C669 H681 0.930 . S
C670 C666 1.524 . S
C670 H682 0.956 . S
C670 H683 0.961 . S
C670 H684 0.961 . S
C671 C668 1.539 . S
C671 H685 0.958 . S
C671 H686 0.961 . S
C671 H687 0.960 . S
H672 C656 0.931 . S
H673 C661 0.929 . S
H674 C662 0.960 . S
H675 C662 0.962 . S
H676 C662 0.960 . S
H677 C663 0.961 . S
H678 C663 0.961 . S
H679 C663 0.961 . S
H680 C664 0.931 . S
H681 C669 0.930 . S
H682 C670 0.956 . S
H683 C670 0.961 . S
H684 C670 0.961 . S
H685 C671 0.958 . S
H686 C671 0.961 . S
H687 C671 0.960 . S
C688 C689 1.391 . S
C688 C690 1.394 . S
C688 H704 0.931 . S
C689 C688 1.391 . S
C689 C693 1.376 . S
C690 C688 1.394 . S
C690 C691 1.369 . S
C690 C694 1.531 . S
C691 C690 1.369 . S
C691 C692 1.410 . S
C691 C699 1.503 . S
C692 C691 1.410 . S
C692 C693 1.392 . S
C692 C695 1.511 . S
C693 C689 1.376 . S
C693 C692 1.392 . S
C693 H705 0.929 . S
C694 C690 1.531 . S
C694 H706 0.960 . S
C694 H707 0.962 . S
C694 H708 0.960 . S
C695 C692 1.511 . S
C695 H709 0.961 . S
C695 H710 0.961 . S
C695 H711 0.961 . S
C696 C697 1.370 . S
C696 C698 1.363 . S
C696 H712 0.931 . S
C697 C696 1.370 . S
C697 C701 1.408 . S
C698 C696 1.363 . S
C698 C699 1.370 . S
C698 C702 1.524 . S
C699 C691 1.503 . S
C699 C698 1.370 . S
C699 C700 1.403 . S
C700 C699 1.403 . S
C700 C701 1.404 . S
C700 C703 1.539 . S
C701 C697 1.408 . S
C701 C700 1.404 . S
C701 H713 0.930 . S
C702 C698 1.524 . S
C702 H714 0.956 . S
C702 H715 0.961 . S
C702 H716 0.961 . S
C703 C700 1.539 . S
C703 H717 0.958 . S
C703 H718 0.961 . S
C703 H719 0.960 . S
H704 C688 0.931 . S
H705 C693 0.929 . S
H706 C694 0.960 . S
H707 C694 0.962 . S
H708 C694 0.960 . S
H709 C695 0.961 . S
H710 C695 0.961 . S
H711 C695 0.961 . S
H712 C696 0.931 . S
H713 C701 0.930 . S
H714 C702 0.956 . S
H715 C702 0.961 . S
H716 C702 0.961 . S
H717 C703 0.958 . S
H718 C703 0.961 . S
H719 C703 0.960 . S
C720 C721 1.391 . S
C720 C722 1.394 . S
C720 H736 0.931 . S
C721 C720 1.391 . S
C721 C725 1.376 . S
C722 C720 1.394 . S
C722 C723 1.369 . S
C722 C726 1.531 . S
C723 C722 1.369 . S
C723 C724 1.410 . S
C723 C731 1.503 . S
C724 C723 1.410 . S
C724 C725 1.392 . S
C724 C727 1.511 . S
C725 C721 1.376 . S
C725 C724 1.392 . S
C725 H737 0.929 . S
C726 C722 1.531 . S
C726 H738 0.960 . S
C726 H739 0.962 . S
C726 H740 0.960 . S
C727 C724 1.511 . S
C727 H741 0.961 . S
C727 H742 0.961 . S
C727 H743 0.961 . S
C728 C729 1.370 . S
C728 C730 1.363 . S
C728 H744 0.931 . S
C729 C728 1.370 . S
C729 C733 1.408 . S
C730 C728 1.363 . S
C730 C731 1.370 . S
C730 C734 1.524 . S
C731 C723 1.503 . S
C731 C730 1.370 . S
C731 C732 1.403 . S
C732 C731 1.403 . S
C732 C733 1.404 . S
C732 C735 1.539 . S
C733 C729 1.408 . S
C733 C732 1.404 . S
C733 H745 0.930 . S
C734 C730 1.524 . S
C734 H746 0.956 . S
C734 H747 0.961 . S
C734 H748 0.961 . S
C735 C732 1.539 . S
C735 H749 0.958 . S
C735 H750 0.961 . S
C735 H751 0.960 . S
H736 C720 0.931 . S
H737 C725 0.929 . S
H738 C726 0.960 . S
H739 C726 0.962 . S
H740 C726 0.960 . S
H741 C727 0.961 . S
H742 C727 0.961 . S
H743 C727 0.961 . S
H744 C728 0.931 . S
H745 C733 0.930 . S
H746 C734 0.956 . S
H747 C734 0.961 . S
H748 C734 0.961 . S
H749 C735 0.958 . S
H750 C735 0.961 . S
H751 C735 0.960 . S
C752 C753 1.391 . S
C752 C754 1.394 . S
C752 H768 0.931 . S
C753 C752 1.391 . S
C753 C757 1.376 . S
C754 C752 1.394 . S
C754 C755 1.369 . S
C754 C758 1.531 . S
C755 C754 1.369 . S
C755 C756 1.410 . S
C755 C763 1.503 . S
C756 C755 1.410 . S
C756 C757 1.392 . S
C756 C759 1.511 . S
C757 C753 1.376 . S
C757 C756 1.392 . S
C757 H769 0.929 . S
C758 C754 1.531 . S
C758 H770 0.960 . S
C758 H771 0.962 . S
C758 H772 0.960 . S
C759 C756 1.511 . S
C759 H773 0.961 . S
C759 H774 0.961 . S
C759 H775 0.961 . S
C760 C761 1.370 . S
C760 C762 1.363 . S
C760 H776 0.931 . S
C761 C760 1.370 . S
C761 C765 1.408 . S
C762 C760 1.363 . S
C762 C763 1.370 . S
C762 C766 1.524 . S
C763 C755 1.503 . S
C763 C762 1.370 . S
C763 C764 1.403 . S
C764 C763 1.403 . S
C764 C765 1.404 . S
C764 C767 1.539 . S
C765 C761 1.408 . S
C765 C764 1.404 . S
C765 H777 0.930 . S
C766 C762 1.524 . S
C766 H778 0.956 . S
C766 H779 0.961 . S
C766 H780 0.961 . S
C767 C764 1.539 . S
C767 H781 0.958 . S
C767 H782 0.961 . S
C767 H783 0.960 . S
H768 C752 0.931 . S
H769 C757 0.929 . S
H770 C758 0.960 . S
H771 C758 0.962 . S
H772 C758 0.960 . S
H773 C759 0.961 . S
H774 C759 0.961 . S
H775 C759 0.961 . S
H776 C760 0.931 . S
H777 C765 0.930 . S
H778 C766 0.956 . S
H779 C766 0.961 . S
H780 C766 0.961 . S
H781 C767 0.958 . S
H782 C767 0.961 . S
H783 C767 0.960 . S
C784 C785 1.391 . S
C784 C786 1.394 . S
C784 H800 0.931 . S
C785 C784 1.391 . S
C785 C789 1.376 . S
C786 C784 1.394 . S
C786 C787 1.369 . S
C786 C790 1.531 . S
C787 C786 1.369 . S
C787 C788 1.410 . S
C787 C795 1.503 . S
C788 C787 1.410 . S
C788 C789 1.392 . S
C788 C791 1.511 . S
C789 C785 1.376 . S
C789 C788 1.392 . S
C789 H801 0.929 . S
C790 C786 1.531 . S
C790 H802 0.960 . S
C790 H803 0.962 . S
C790 H804 0.960 . S
C791 C788 1.511 . S
C791 H805 0.961 . S
C791 H806 0.961 . S
C791 H807 0.961 . S
C792 C793 1.370 . S
C792 C794 1.363 . S
C792 H808 0.931 . S
C793 C792 1.370 . S
C793 C797 1.408 . S
C794 C792 1.363 . S
C794 C795 1.370 . S
C794 C798 1.524 . S
C795 C787 1.503 . S
C795 C794 1.370 . S
C795 C796 1.403 . S
C796 C795 1.403 . S
C796 C797 1.404 . S
C796 C799 1.539 . S
C797 C793 1.408 . S
C797 C796 1.404 . S
C797 H809 0.930 . S
C798 C794 1.524 . S
C798 H810 0.956 . S
C798 H811 0.961 . S
C798 H812 0.961 . S
C799 C796 1.539 . S
C799 H813 0.958 . S
C799 H814 0.961 . S
C799 H815 0.960 . S
H800 C784 0.931 . S
H801 C789 0.929 . S
H802 C790 0.960 . S
H803 C790 0.962 . S
H804 C790 0.960 . S
H805 C791 0.961 . S
H806 C791 0.961 . S
H807 C791 0.961 . S
H808 C792 0.931 . S
H809 C797 0.930 . S
H810 C798 0.956 . S
H811 C798 0.961 . S
H812 C798 0.961 . S
H813 C799 0.958 . S
H814 C799 0.961 . S
H815 C799 0.960 . S
C816 C817 1.391 . S
C816 C818 1.394 . S
C816 H832 0.931 . S
C817 C816 1.391 . S
C817 C821 1.376 . S
C818 C816 1.394 . S
C818 C819 1.369 . S
C818 C822 1.531 . S
C819 C818 1.369 . S
C819 C820 1.410 . S
C819 C827 1.503 . S
C820 C819 1.410 . S
C820 C821 1.392 . S
C820 C823 1.511 . S
C821 C817 1.376 . S
C821 C820 1.392 . S
C821 H833 0.929 . S
C822 C818 1.531 . S
C822 H834 0.960 . S
C822 H835 0.962 . S
C822 H836 0.960 . S
C823 C820 1.511 . S
C823 H837 0.961 . S
C823 H838 0.961 . S
C823 H839 0.961 . S
C824 C825 1.370 . S
C824 C826 1.363 . S
C824 H840 0.931 . S
C825 C824 1.370 . S
C825 C829 1.408 . S
C826 C824 1.363 . S
C826 C827 1.370 . S
C826 C830 1.524 . S
C827 C819 1.503 . S
C827 C826 1.370 . S
C827 C828 1.403 . S
C828 C827 1.403 . S
C828 C829 1.404 . S
C828 C831 1.539 . S
C829 C825 1.408 . S
C829 C828 1.404 . S
C829 H841 0.930 . S
C830 C826 1.524 . S
C830 H842 0.956 . S
C830 H843 0.961 . S
C830 H844 0.961 . S
C831 C828 1.539 . S
C831 H845 0.958 . S
C831 H846 0.961 . S
C831 H847 0.960 . S
H832 C816 0.931 . S
H833 C821 0.929 . S
H834 C822 0.960 . S
H835 C822 0.962 . S
H836 C822 0.960 . S
H837 C823 0.961 . S
H838 C823 0.961 . S
H839 C823 0.961 . S
H840 C824 0.931 . S
H841 C829 0.930 . S
H842 C830 0.956 . S
H843 C830 0.961 . S
H844 C830 0.961 . S
H845 C831 0.958 . S
H846 C831 0.961 . S
H847 C831 0.960 . S
C848 C849 1.391 . S
C848 C850 1.394 . S
C848 H864 0.931 . S
C849 C848 1.391 . S
C849 C853 1.376 . S
C850 C848 1.394 . S
C850 C851 1.369 . S
C850 C854 1.531 . S
C851 C850 1.369 . S
C851 C852 1.410 . S
C851 C859 1.503 . S
C852 C851 1.410 . S
C852 C853 1.392 . S
C852 C855 1.511 . S
C853 C849 1.376 . S
C853 C852 1.392 . S
C853 H865 0.929 . S
C854 C850 1.531 . S
C854 H866 0.960 . S
C854 H867 0.962 . S
C854 H868 0.960 . S
C855 C852 1.511 . S
C855 H869 0.961 . S
C855 H870 0.961 . S
C855 H871 0.961 . S
C856 C857 1.370 . S
C856 C858 1.363 . S
C856 H872 0.931 . S
C857 C856 1.370 . S
C857 C861 1.408 . S
C858 C856 1.363 . S
C858 C859 1.370 . S
C858 C862 1.524 . S
C859 C851 1.503 . S
C859 C858 1.370 . S
C859 C860 1.403 . S
C860 C859 1.403 . S
C860 C861 1.404 . S
C860 C863 1.539 . S
C861 C857 1.408 . S
C861 C860 1.404 . S
C861 H873 0.930 . S
C862 C858 1.524 . S
C862 H874 0.956 . S
C862 H875 0.961 . S
C862 H876 0.961 . S
C863 C860 1.539 . S
C863 H877 0.958 . S
C863 H878 0.961 . S
C863 H879 0.960 . S
H864 C848 0.931 . S
H865 C853 0.929 . S
H866 C854 0.960 . S
H867 C854 0.962 . S
H868 C854 0.960 . S
H869 C855 0.961 . S
H870 C855 0.961 . S
H871 C855 0.961 . S
H872 C856 0.931 . S
H873 C861 0.930 . S
H874 C862 0.956 . S
H875 C862 0.961 . S
H876 C862 0.961 . S
H877 C863 0.958 . S
H878 C863 0.961 . S
H879 C863 0.960 . S
C880 C881 1.391 . S
C880 C882 1.394 . S
C880 H896 0.931 . S
C881 C880 1.391 . S
C881 C885 1.376 . S
C882 C880 1.394 . S
C882 C883 1.369 . S
C882 C886 1.531 . S
C883 C882 1.369 . S
C883 C884 1.410 . S
C883 C891 1.503 . S
C884 C883 1.410 . S
C884 C885 1.392 . S
C884 C887 1.511 . S
C885 C881 1.376 . S
C885 C884 1.392 . S
C885 H897 0.929 . S
C886 C882 1.531 . S
C886 H898 0.960 . S
C886 H899 0.962 . S
C886 H900 0.960 . S
C887 C884 1.511 . S
C887 H901 0.961 . S
C887 H902 0.961 . S
C887 H903 0.961 . S
C888 C889 1.370 . S
C888 C890 1.363 . S
C888 H904 0.931 . S
C889 C888 1.370 . S
C889 C893 1.408 . S
C890 C888 1.363 . S
C890 C891 1.370 . S
C890 C894 1.524 . S
C891 C883 1.503 . S
C891 C890 1.370 . S
C891 C892 1.403 . S
C892 C891 1.403 . S
C892 C893 1.404 . S
C892 C895 1.539 . S
C893 C889 1.408 . S
C893 C892 1.404 . S
C893 H905 0.930 . S
C894 C890 1.524 . S
C894 H906 0.956 . S
C894 H907 0.961 . S
C894 H908 0.961 . S
C895 C892 1.539 . S
C895 H909 0.958 . S
C895 H910 0.961 . S
C895 H911 0.960 . S
H896 C880 0.931 . S
H897 C885 0.929 . S
H898 C886 0.960 . S
H899 C886 0.962 . S
H900 C886 0.960 . S
H901 C887 0.961 . S
H902 C887 0.961 . S
H903 C887 0.961 . S
H904 C888 0.931 . S
H905 C893 0.930 . S
H906 C894 0.956 . S
H907 C894 0.961 . S
H908 C894 0.961 . S
H909 C895 0.958 . S
H910 C895 0.961 . S
H911 C895 0.960 . S
C912 C913 1.391 . S
C912 C914 1.394 . S
C912 H928 0.931 . S
C913 C912 1.391 . S
C913 C917 1.376 . S
C914 C912 1.394 . S
C914 C915 1.369 . S
C914 C918 1.531 . S
C915 C914 1.369 . S
C915 C916 1.410 . S
C915 C923 1.503 . S
C916 C915 1.410 . S
C916 C917 1.392 . S
C916 C919 1.511 . S
C917 C913 1.376 . S
C917 C916 1.392 . S
C917 H929 0.929 . S
C918 C914 1.531 . S
C918 H930 0.960 . S
C918 H931 0.962 . S
C918 H932 0.960 . S
C919 C916 1.511 . S
C919 H933 0.961 . S
C919 H934 0.961 . S
C919 H935 0.961 . S
C920 C921 1.370 . S
C920 C922 1.363 . S
C920 H936 0.931 . S
C921 C920 1.370 . S
C921 C925 1.408 . S
C922 C920 1.363 . S
C922 C923 1.370 . S
C922 C926 1.524 . S
C923 C915 1.503 . S
C923 C922 1.370 . S
C923 C924 1.403 . S
C924 C923 1.403 . S
C924 C925 1.404 . S
C924 C927 1.539 . S
C925 C921 1.408 . S
C925 C924 1.404 . S
C925 H937 0.930 . S
C926 C922 1.524 . S
C926 H938 0.956 . S
C926 H939 0.961 . S
C926 H940 0.961 . S
C927 C924 1.539 . S
C927 H941 0.958 . S
C927 H942 0.961 . S
C927 H943 0.960 . S
H928 C912 0.931 . S
H929 C917 0.929 . S
H930 C918 0.960 . S
H931 C918 0.962 . S
H932 C918 0.960 . S
H933 C919 0.961 . S
H934 C919 0.961 . S
H935 C919 0.961 . S
H936 C920 0.931 . S
H937 C925 0.930 . S
H938 C926 0.956 . S
H939 C926 0.961 . S
H940 C926 0.961 . S
H941 C927 0.958 . S
H942 C927 0.961 . S
H943 C927 0.960 . S
C944 C945 1.391 . S
C944 C946 1.394 . S
C944 H960 0.931 . S
C945 C944 1.391 . S
C945 C949 1.376 . S
C946 C944 1.394 . S
C946 C947 1.369 . S
C946 C950 1.531 . S
C947 C946 1.369 . S
C947 C948 1.410 . S
C947 C955 1.503 . S
C948 C947 1.410 . S
C948 C949 1.392 . S
C948 C951 1.511 . S
C949 C945 1.376 . S
C949 C948 1.392 . S
C949 H961 0.929 . S
C950 C946 1.531 . S
C950 H962 0.960 . S
C950 H963 0.962 . S
C950 H964 0.960 . S
C951 C948 1.511 . S
C951 H965 0.961 . S
C951 H966 0.961 . S
C951 H967 0.961 . S
C952 C953 1.370 . S
C952 C954 1.363 . S
C952 H968 0.931 . S
C953 C952 1.370 . S
C953 C957 1.408 . S
C954 C952 1.363 . S
C954 C955 1.370 . S
C954 C958 1.524 . S
C955 C947 1.503 . S
C955 C954 1.370 . S
C955 C956 1.403 . S
C956 C955 1.403 . S
C956 C957 1.404 . S
C956 C959 1.539 . S
C957 C953 1.408 . S
C957 C956 1.404 . S
C957 H969 0.930 . S
C958 C954 1.524 . S
C958 H970 0.956 . S
C958 H971 0.961 . S
C958 H972 0.961 . S
C959 C956 1.539 . S
C959 H973 0.958 . S
C959 H974 0.961 . S
C959 H975 0.960 . S
H960 C944 0.931 . S
H961 C949 0.929 . S
H962 C950 0.960 . S
H963 C950 0.962 . S
H964 C950 0.960 . S
H965 C951 0.961 . S
H966 C951 0.961 . S
H967 C951 0.961 . S
H968 C952 0.931 . S
H969 C957 0.930 . S
H970 C958 0.956 . S
H971 C958 0.961 . S
H972 C958 0.961 . S
H973 C959 0.958 . S
H974 C959 0.961 . S
H975 C959 0.960 . S
C976 C977 1.391 . S
C976 C978 1.394 . S
C976 H992 0.931 . S
C977 C976 1.391 . S
C977 C981 1.376 . S
C978 C976 1.394 . S
C978 C979 1.369 . S
C978 C982 1.531 . S
C979 C978 1.369 . S
C979 C980 1.410 . S
C979 C987 1.503 . S
C980 C979 1.410 . S
C980 C981 1.392 . S
C980 C983 1.511 . S
C981 C977 1.376 . S
C981 C980 1.392 . S
C981 H993 0.929 . S
C982 C978 1.531 . S
C982 H994 0.960 . S
C982 H995 0.962 . S
C982 H996 0.960 . S
C983 C980 1.511 . S
C983 H997 0.961 . S
C983 H998 0.961 . S
C983 H999 0.961 . S
C984 C985 1.370 . S
C984 C986 1.363 . S
C984 H1000 0.931 . S
C985 C984 1.370 . S
C985 C989 1.408 . S
C986 C984 1.363 . S
C986 C987 1.370 . S
C986 C990 1.524 . S
C987 C979 1.503 . S
C987 C986 1.370 . S
C987 C988 1.403 . S
C988 C987 1.403 . S
C988 C989 1.404 . S
C988 C991 1.539 . S
C989 C985 1.408 . S
C989 C988 1.404 . S
C989 H1001 0.930 . S
C990 C986 1.524 . S
C990 H1002 0.956 . S
C990 H1003 0.961 . S
C990 H1004 0.961 . S
C991 C988 1.539 . S
C991 H1005 0.958 . S
C991 H1006 0.961 . S
C991 H1007 0.960 . S
H992 C976 0.931 . S
H993 C981 0.929 . S
H994 C982 0.960 . S
H995 C982 0.962 . S
H996 C982 0.960 . S
H997 C983 0.961 . S
H998 C983 0.961 . S
H999 C983 0.961 . S
H1000 C984 0.931 . S
H1001 C989 0.930 . S
H1002 C990 0.956 . S
H1003 C990 0.961 . S
H1004 C990 0.961 . S
H1005 C991 0.958 . S
H1006 C991 0.961 . S
H1007 C991 0.960 . S
C1008 C1009 1.391 . S
C1008 C1010 1.394 . S
C1008 H1024 0.931 . S
C1009 C1008 1.391 . S
C1009 C1013 1.376 . S
C1010 C1008 1.394 . S
C1010 C1011 1.369 . S
C1010 C1014 1.531 . S
C1011 C1010 1.369 . S
C1011 C1012 1.410 . S
C1011 C1019 1.503 . S
C1012 C1011 1.410 . S
C1012 C1013 1.392 . S
C1012 C1015 1.511 . S
C1013 C1009 1.376 . S
C1013 C1012 1.392 . S
C1013 H1025 0.929 . S
C1014 C1010 1.531 . S
C1014 H1026 0.960 . S
C1014 H1027 0.962 . S
C1014 H1028 0.960 . S
C1015 C1012 1.511 . S
C1015 H1029 0.961 . S
C1015 H1030 0.961 . S
C1015 H1031 0.961 . S
C1016 C1017 1.370 . S
C1016 C1018 1.363 . S
C1016 H1032 0.931 . S
C1017 C1016 1.370 . S
C1017 C1021 1.408 . S
C1018 C1016 1.363 . S
C1018 C1019 1.370 . S
C1018 C1022 1.524 . S
C1019 C1011 1.503 . S
C1019 C1018 1.370 . S
C1019 C1020 1.403 . S
C1020 C1019 1.403 . S
C1020 C1021 1.404 . S
C1020 C1023 1.539 . S
C1021 C1017 1.408 . S
C1021 C1020 1.404 . S
C1021 H1033 0.930 . S
C1022 C1018 1.524 . S
C1022 H1034 0.956 . S
C1022 H1035 0.961 . S
C1022 H1036 0.961 . S
C1023 C1020 1.539 . S
C1023 H1037 0.958 . S
C1023 H1038 0.961 . S
C1023 H1039 0.960 . S
H1024 C1008 0.931 . S
H1025 C1013 0.929 . S
H1026 C1014 0.960 . S
H1027 C1014 0.962 . S
H1028 C1014 0.960 . S
H1029 C1015 0.961 . S
H1030 C1015 0.961 . S
H1031 C1015 0.961 . S
H1032 C1016 0.931 . S
H1033 C1021 0.930 . S
H1034 C1022 0.956 . S
H1035 C1022 0.961 . S
H1036 C1022 0.961 . S
H1037 C1023 0.958 . S
H1038 C1023 0.961 . S
H1039 C1023 0.960 . S
C1040 C1041 1.391 . S
C1040 C1042 1.394 . S
C1040 H1056 0.931 . S
C1041 C1040 1.391 . S
C1041 C1045 1.376 . S
C1042 C1040 1.394 . S
C1042 C1043 1.369 . S
C1042 C1046 1.532 1_455 S
C1043 C1042 1.369 . S
C1043 C1044 1.410 1_545 S
C1043 C1051 1.503 1_445 S
C1044 C1043 1.410 1_565 S
C1044 C1045 1.392 1_565 S
C1044 C1047 1.511 . S
C1045 C1041 1.376 . S
C1045 C1044 1.392 1_545 S
C1045 H1057 0.929 . S
C1046 C1042 1.532 1_655 S
C1046 H1058 0.959 . S
C1046 H1059 0.960 . S
C1046 H1060 0.961 1_655 S
C1047 C1044 1.511 . S
C1047 H1061 0.961 . S
C1047 H1062 0.961 . S
C1047 H1063 0.961 . S
C1048 C1049 1.370 . S
C1048 C1050 1.347 1_565 S
C1048 H1064 0.931 . S
C1049 C1048 1.370 . S
C1049 C1053 1.408 . S
C1050 C1048 1.347 1_545 S
C1050 C1051 1.355 1_545 S
C1050 C1054 1.557 . S
C1051 C1043 1.503 1_665 S
C1051 C1050 1.355 1_565 S
C1051 C1052 1.403 . S
C1052 C1051 1.403 . S
C1052 C1053 1.404 . S
C1052 C1055 1.539 1_655 S
C1053 C1049 1.408 . S
C1053 C1052 1.404 . S
C1053 H1065 0.930 . S
C1054 C1050 1.557 . S
C1054 H1066 0.956 . S
C1054 H1067 0.961 . S
C1054 H1068 0.961 . S
C1055 C1052 1.539 1_455 S
C1055 H1069 0.958 . S
C1055 H1070 0.961 . S
C1055 H1071 0.960 . S
H1056 C1040 0.931 . S
H1057 C1045 0.929 . S
H1058 C1046 0.959 . S
H1059 C1046 0.960 . S
H1060 C1046 0.961 1_455 S
H1061 C1047 0.961 . S
H1062 C1047 0.961 . S
H1063 C1047 0.961 . S
H1064 C1048 0.931 . S
H1065 C1053 0.930 . S
H1066 C1054 0.956 . S
H1067 C1054 0.961 . S
H1068 C1054 0.961 . S
H1069 C1055 0.958 . S
H1070 C1055 0.961 . S
H1071 C1055 0.960 . S
C1072 C1073 1.391 . S
C1072 C1074 1.394 . S
C1072 H1088 0.931 . S
C1073 C1072 1.391 . S
C1073 C1077 1.376 . S
C1074 C1072 1.394 . S
C1074 C1075 1.369 . S
C1074 C1078 1.531 . S
C1075 C1074 1.369 . S
C1075 C1076 1.410 . S
C1075 C1083 1.503 1_465 S
C1076 C1075 1.410 . S
C1076 C1077 1.392 . S
C1076 C1079 1.511 1_455 S
C1077 C1073 1.376 . S
C1077 C1076 1.392 . S
C1077 H1089 0.929 . S
C1078 C1074 1.531 . S
C1078 H1090 0.981 1_455 S
C1078 H1091 0.962 1_565 S
C1078 H1092 0.960 . S
C1079 C1076 1.511 1_655 S
C1079 H1093 0.961 1_655 S
C1079 H1094 0.961 . S
C1079 H1095 0.961 . S
C1080 C1081 1.370 . S
C1080 C1082 1.363 1_655 S
C1080 H1096 0.931 1_655 S
C1081 C1080 1.370 . S
C1081 C1085 1.408 . S
C1082 C1080 1.363 1_455 S
C1082 C1083 1.370 1_455 S
C1082 C1086 1.524 . S
C1083 C1075 1.503 1_645 S
C1083 C1082 1.370 1_655 S
C1083 C1084 1.403 . S
C1084 C1083 1.403 . S
C1084 C1085 1.404 . S
C1084 C1087 1.539 1_545 S
C1085 C1081 1.408 . S
C1085 C1084 1.404 . S
C1085 H1097 0.930 . S
C1086 C1082 1.524 . S
C1086 H1098 0.956 . S
C1086 H1099 0.961 . S
C1086 H1100 0.961 . S
C1087 C1084 1.539 1_565 S
C1087 H1101 0.958 . S
C1087 H1102 0.961 . S
C1087 H1103 0.960 . S
H1088 C1072 0.931 . S
H1089 C1077 0.929 . S
H1090 C1078 0.981 1_655 S
H1091 C1078 0.962 1_545 S
H1092 C1078 0.960 . S
H1093 C1079 0.961 1_455 S
H1094 C1079 0.961 . S
H1095 C1079 0.961 . S
H1096 C1080 0.931 1_455 S
H1097 C1085 0.930 . S
H1098 C1086 0.956 . S
H1099 C1086 0.961 . S
H1100 C1086 0.961 . S
H1101 C1087 0.958 . S
H1102 C1087 0.961 . S
H1103 C1087 0.960 . S
C1104 C1105 1.391 . S
C1104 C1106 1.394 . S
C1104 H1120 0.931 . S
C1105 C1104 1.391 . S
C1105 C1109 1.376 1_554 S
C1106 C1104 1.394 . S
C1106 C1107 1.369 . S
C1106 C1110 1.531 . S
C1107 C1106 1.369 . S
C1107 C1108 1.410 1_554 S
C1107 C1115 1.503 1_455 S
C1108 C1107 1.410 1_556 S
C1108 C1109 1.392 . S
C1108 C1111 1.511 . S
C1109 C1105 1.376 1_556 S
C1109 C1108 1.392 . S
C1109 H1121 0.929 . S
C1110 C1106 1.531 . S
C1110 H1122 0.960 . S
C1110 H1123 0.962 . S
C1110 H1124 0.960 . S
C1111 C1108 1.511 . S
C1111 H1125 0.961 . S
C1111 H1126 0.961 1_455 S
C1111 H1127 0.961 . S
C1112 C1113 1.370 . S
C1112 C1114 1.363 . S
C1112 H1128 0.931 . S
C1113 C1112 1.370 . S
C1113 C1117 1.408 . S
C1114 C1112 1.363 . S
C1114 C1115 1.370 . S
C1114 C1118 1.524 . S
C1115 C1107 1.503 1_655 S
C1115 C1114 1.370 . S
C1115 C1116 1.403 . S
C1116 C1115 1.403 . S
C1116 C1117 1.404 . S
C1116 C1119 1.539 1_655 S
C1117 C1113 1.408 . S
C1117 C1116 1.404 . S
C1117 H1129 0.930 . S
C1118 C1114 1.524 . S
C1118 H1130 0.956 . S
C1118 H1131 0.961 . S
C1118 H1132 0.961 . S
C1119 C1116 1.539 1_455 S
C1119 H1133 0.958 . S
C1119 H1134 0.961 1_554 S
C1119 H1135 0.960 1_554 S
H1120 C1104 0.931 . S
H1121 C1109 0.929 . S
H1122 C1110 0.960 . S
H1123 C1110 0.962 . S
H1124 C1110 0.960 . S
H1125 C1111 0.961 . S
H1126 C1111 0.961 1_655 S
H1127 C1111 0.961 . S
H1128 C1112 0.931 . S
H1129 C1117 0.930 . S
H1130 C1118 0.956 . S
H1131 C1118 0.961 . S
H1132 C1118 0.961 . S
H1133 C1119 0.958 . S
H1134 C1119 0.961 1_556 S
H1135 C1119 0.960 1_556 S
C1136 C1137 1.391 . S
C1136 C1138 1.394 . S
C1136 H1152 0.931 . S
C1137 C1136 1.391 . S
C1137 C1141 1.376 . S
C1138 C1136 1.394 . S
C1138 C1139 1.369 . S
C1138 C1142 1.531 . S
C1139 C1138 1.369 . S
C1139 C1140 1.410 . S
C1139 C1147 1.503 1_565 S
C1140 C1139 1.410 . S
C1140 C1141 1.392 . S
C1140 C1143 1.511 1_566 S
C1141 C1137 1.376 . S
C1141 C1140 1.392 . S
C1141 H1153 0.929 1_556 S
C1142 C1138 1.531 . S
C1142 H1154 0.960 . S
C1142 H1155 0.962 . S
C1142 H1156 0.960 . S
C1143 C1140 1.511 1_544 S
C1143 H1157 0.961 . S
C1143 H1158 0.961 . S
C1143 H1159 0.961 1_554 S
C1144 C1145 1.370 . S
C1144 C1146 1.363 . S
C1144 H1160 0.931 1_556 S
C1145 C1144 1.370 . S
C1145 C1149 1.408 . S
C1146 C1144 1.363 . S
C1146 C1147 1.370 . S
C1146 C1150 1.524 1_546 S
C1147 C1139 1.503 1_545 S
C1147 C1146 1.370 . S
C1147 C1148 1.403 . S
C1148 C1147 1.403 . S
C1148 C1149 1.404 . S
C1148 C1151 1.539 . S
C1149 C1145 1.408 . S
C1149 C1148 1.404 . S
C1149 H1161 0.930 . S
C1150 C1146 1.524 1_564 S
C1150 H1162 0.956 . S
C1150 H1163 0.961 . S
C1150 H1164 0.961 1_565 S
C1151 C1148 1.539 . S
C1151 H1165 0.958 . S
C1151 H1166 0.961 . S
C1151 H1167 0.960 . S
H1152 C1136 0.931 . S
H1153 C1141 0.929 1_554 S
H1154 C1142 0.960 . S
H1155 C1142 0.962 . S
H1156 C1142 0.960 . S
H1157 C1143 0.961 . S
H1158 C1143 0.961 . S
H1159 C1143 0.961 1_556 S
H1160 C1144 0.931 1_554 S
H1161 C1149 0.930 . S
H1162 C1150 0.956 . S
H1163 C1150 0.961 . S
H1164 C1150 0.961 1_545 S
H1165 C1151 0.958 . S
H1166 C1151 0.961 . S
H1167 C1151 0.960 . S
C1168 C1169 1.391 . S
C1168 C1170 1.394 . S
C1168 H1184 0.931 . S
C1169 C1168 1.391 . S
C1169 C1173 1.376 . S
C1170 C1168 1.394 . S
C1170 C1171 1.369 . S
C1170 C1174 1.531 . S
C1171 C1170 1.369 . S
C1171 C1172 1.410 . S
C1171 C1179 1.503 . S
C1172 C1171 1.410 . S
C1172 C1173 1.392 . S
C1172 C1175 1.511 . S
C1173 C1169 1.376 . S
C1173 C1172 1.392 . S
C1173 H1185 0.929 . S
C1174 C1170 1.531 . S
C1174 H1186 0.960 . S
C1174 H1187 0.962 . S
C1174 H1188 0.960 . S
C1175 C1172 1.511 . S
C1175 H1189 0.961 . S
C1175 H1190 0.961 . S
C1175 H1191 0.961 . S
C1176 C1177 1.370 . S
C1176 C1178 1.363 . S
C1176 H1192 0.931 . S
C1177 C1176 1.370 . S
C1177 C1181 1.408 . S
C1178 C1176 1.363 . S
C1178 C1179 1.370 . S
C1178 C1182 1.524 . S
C1179 C1171 1.503 . S
C1179 C1178 1.370 . S
C1179 C1180 1.403 . S
C1180 C1179 1.403 . S
C1180 C1181 1.404 . S
C1180 C1183 1.539 . S
C1181 C1177 1.408 . S
C1181 C1180 1.404 . S
C1181 H1193 0.930 . S
C1182 C1178 1.524 . S
C1182 H1194 0.956 . S
C1182 H1195 0.961 . S
C1182 H1196 0.961 . S
C1183 C1180 1.539 . S
C1183 H1197 0.958 . S
C1183 H1198 0.961 . S
C1183 H1199 0.960 . S
H1184 C1168 0.931 . S
H1185 C1173 0.929 . S
H1186 C1174 0.960 . S
H1187 C1174 0.962 . S
H1188 C1174 0.960 . S
H1189 C1175 0.961 . S
H1190 C1175 0.961 . S
H1191 C1175 0.961 . S
H1192 C1176 0.931 . S
H1193 C1181 0.930 . S
H1194 C1182 0.956 . S
H1195 C1182 0.961 . S
H1196 C1182 0.961 . S
H1197 C1183 0.958 . S
H1198 C1183 0.961 . S
H1199 C1183 0.960 . S
C1200 C1201 1.391 . S
C1200 C1202 1.394 . S
C1200 H1216 0.931 . S
C1201 C1200 1.391 . S
C1201 C1205 1.376 . S
C1202 C1200 1.394 . S
C1202 C1203 1.369 . S
C1202 C1206 1.531 . S
C1203 C1202 1.369 . S
C1203 C1204 1.410 . S
C1203 C1211 1.503 . S
C1204 C1203 1.410 . S
C1204 C1205 1.392 . S
C1204 C1207 1.511 . S
C1205 C1201 1.376 . S
C1205 C1204 1.392 . S
C1205 H1217 0.929 . S
C1206 C1202 1.531 . S
C1206 H1218 0.960 . S
C1206 H1219 0.962 . S
C1206 H1220 0.960 . S
C1207 C1204 1.511 . S
C1207 H1221 0.961 . S
C1207 H1222 0.961 . S
C1207 H1223 0.961 . S
C1208 C1209 1.370 . S
C1208 C1210 1.363 . S
C1208 H1224 0.931 . S
C1209 C1208 1.370 . S
C1209 C1213 1.408 . S
C1210 C1208 1.363 . S
C1210 C1211 1.370 . S
C1210 C1214 1.524 . S
C1211 C1203 1.503 . S
C1211 C1210 1.370 . S
C1211 C1212 1.403 . S
C1212 C1211 1.403 . S
C1212 C1213 1.404 . S
C1212 C1215 1.539 . S
C1213 C1209 1.408 . S
C1213 C1212 1.404 . S
C1213 H1225 0.930 . S
C1214 C1210 1.524 . S
C1214 H1226 0.956 . S
C1214 H1227 0.961 . S
C1214 H1228 0.961 . S
C1215 C1212 1.539 . S
C1215 H1229 0.958 . S
C1215 H1230 0.961 . S
C1215 H1231 0.960 . S
H1216 C1200 0.931 . S
H1217 C1205 0.929 . S
H1218 C1206 0.960 . S
H1219 C1206 0.962 . S
H1220 C1206 0.960 . S
H1221 C1207 0.961 . S
H1222 C1207 0.961 . S
H1223 C1207 0.961 . S
H1224 C1208 0.931 . S
H1225 C1213 0.930 . S
H1226 C1214 0.956 . S
H1227 C1214 0.961 . S
H1228 C1214 0.961 . S
H1229 C1215 0.958 . S
H1230 C1215 0.961 . S
H1231 C1215 0.960 . S
C1232 C1233 1.391 . S
C1232 C1234 1.380 1_565 S
C1232 H1248 0.931 . S
C1233 C1232 1.391 . S
C1233 C1237 1.376 . S
C1234 C1232 1.380 1_545 S
C1234 C1235 1.357 1_545 S
C1234 C1238 1.557 . S
C1235 C1234 1.357 1_565 S
C1235 C1236 1.410 . S
C1235 C1243 1.503 1_565 S
C1236 C1235 1.410 . S
C1236 C1237 1.392 . S
C1236 C1239 1.511 . S
C1237 C1233 1.376 . S
C1237 C1236 1.392 . S
C1237 H1249 0.929 . S
C1238 C1234 1.557 . S
C1238 H1250 0.960 . S
C1238 H1251 0.962 . S
C1238 H1252 0.960 . S
C1239 C1236 1.511 . S
C1239 H1253 0.961 . S
C1239 H1254 0.961 . S
C1239 H1255 0.961 . S
C1240 C1241 1.370 . S
C1240 C1242 1.363 . S
C1240 H1256 0.931 . S
C1241 C1240 1.370 . S
C1241 C1245 1.408 . S
C1242 C1240 1.363 . S
C1242 C1243 1.370 . S
C1242 C1246 1.524 . S
C1243 C1235 1.503 1_545 S
C1243 C1242 1.370 . S
C1243 C1244 1.407 . S
C1244 C1243 1.407 . S
C1244 C1245 1.418 . S
C1244 C1247 1.519 1_545 S
C1245 C1241 1.408 . S
C1245 C1244 1.418 . S
C1245 H1257 0.930 . S
C1246 C1242 1.524 . S
C1246 H1258 0.956 . S
C1246 H1259 0.961 . S
C1246 H1260 0.961 . S
C1247 C1244 1.519 1_565 S
C1247 H1261 0.958 . S
C1247 H1262 0.961 . S
C1247 H1263 0.960 . S
H1248 C1232 0.931 . S
H1249 C1237 0.929 . S
H1250 C1238 0.960 . S
H1251 C1238 0.962 . S
H1252 C1238 0.960 . S
H1253 C1239 0.961 . S
H1254 C1239 0.961 . S
H1255 C1239 0.961 . S
H1256 C1240 0.931 . S
H1257 C1245 0.930 . S
H1258 C1246 0.956 . S
H1259 C1246 0.961 . S
H1260 C1246 0.961 . S
H1261 C1247 0.958 . S
H1262 C1247 0.961 . S
H1263 C1247 0.960 . S
C1264 C1265 1.391 . S
C1264 C1266 1.394 . S
C1264 H1280 0.931 . S
C1265 C1264 1.391 . S
C1265 C1269 1.376 . S
C1266 C1264 1.394 . S
C1266 C1267 1.369 . S
C1266 C1270 1.531 . S
C1267 C1266 1.369 . S
C1267 C1268 1.410 . S
C1267 C1275 1.503 1_655 S
C1268 C1267 1.410 . S
C1268 C1269 1.392 . S
C1268 C1271 1.511 . S
C1269 C1265 1.376 . S
C1269 C1268 1.392 . S
C1269 H1281 0.929 . S
C1270 C1266 1.531 . S
C1270 H1282 0.960 . S
C1270 H1283 0.962 1_655 S
C1270 H1284 0.960 . S
C1271 C1268 1.511 . S
C1271 H1285 0.961 . S
C1271 H1286 0.961 . S
C1271 H1287 0.961 . S
C1272 C1273 1.370 . S
C1272 C1274 1.363 . S
C1272 H1288 0.931 . S
C1273 C1272 1.370 . S
C1273 C1277 1.408 . S
C1274 C1272 1.363 . S
C1274 C1275 1.370 . S
C1274 C1278 1.524 . S
C1275 C1267 1.503 1_455 S
C1275 C1274 1.370 . S
C1275 C1276 1.403 1_455 S
C1276 C1275 1.403 1_655 S
C1276 C1277 1.404 1_655 S
C1276 C1279 1.539 . S
C1277 C1273 1.408 . S
C1277 C1276 1.404 1_455 S
C1277 H1289 0.930 1_455 S
C1278 C1274 1.524 . S
C1278 H1290 0.956 . S
C1278 H1291 0.961 . S
C1278 H1292 0.961 . S
C1279 C1276 1.539 . S
C1279 H1293 0.958 . S
C1279 H1294 0.961 . S
C1279 H1295 0.960 . S
H1280 C1264 0.931 . S
H1281 C1269 0.929 . S
H1282 C1270 0.960 . S
H1283 C1270 0.962 1_455 S
H1284 C1270 0.960 . S
H1285 C1271 0.961 . S
H1286 C1271 0.961 . S
H1287 C1271 0.961 . S
H1288 C1272 0.931 . S
H1289 C1277 0.930 1_655 S
H1290 C1278 0.956 . S
H1291 C1278 0.961 . S
H1292 C1278 0.961 . S
H1293 C1279 0.958 . S
H1294 C1279 0.961 . S
H1295 C1279 0.960 . S
C1296 C1297 1.391 . S
C1296 C1298 1.394 . S
C1296 H1312 0.931 . S
C1297 C1296 1.391 . S
C1297 C1301 1.376 . S
C1298 C1296 1.394 . S
C1298 C1299 1.369 . S
C1298 C1302 1.531 . S
C1299 C1298 1.369 . S
C1299 C1300 1.410 . S
C1299 C1307 1.503 . S
C1300 C1299 1.410 . S
C1300 C1301 1.392 . S
C1300 C1303 1.511 . S
C1301 C1297 1.376 . S
C1301 C1300 1.392 . S
C1301 H1313 0.929 . S
C1302 C1298 1.531 . S
C1302 H1314 0.960 . S
C1302 H1315 0.962 . S
C1302 H1316 0.960 . S
C1303 C1300 1.511 . S
C1303 H1317 0.961 . S
C1303 H1318 0.961 . S
C1303 H1319 0.961 1_565 S
C1304 C1305 1.370 1_565 S
C1304 C1306 1.363 . S
C1304 H1320 0.931 . S
C1305 C1304 1.370 1_545 S
C1305 C1309 1.408 . S
C1306 C1304 1.363 . S
C1306 C1307 1.370 . S
C1306 C1310 1.524 . S
C1307 C1299 1.503 . S
C1307 C1306 1.370 . S
C1307 C1308 1.403 1_565 S
C1308 C1307 1.403 1_545 S
C1308 C1309 1.404 . S
C1308 C1311 1.539 . S
C1309 C1305 1.408 . S
C1309 C1308 1.404 . S
C1309 H1321 0.930 . S
C1310 C1306 1.524 . S
C1310 H1322 0.956 . S
C1310 H1323 0.961 . S
C1310 H1324 0.961 . S
C1311 C1308 1.539 . S
C1311 H1325 0.958 . S
C1311 H1326 0.961 . S
C1311 H1327 0.960 . S
H1312 C1296 0.931 . S
H1313 C1301 0.929 . S
H1314 C1302 0.960 . S
H1315 C1302 0.962 . S
H1316 C1302 0.960 . S
H1317 C1303 0.961 . S
H1318 C1303 0.961 . S
H1319 C1303 0.961 1_545 S
H1320 C1304 0.931 . S
H1321 C1309 0.930 . S
H1322 C1310 0.956 . S
H1323 C1310 0.961 . S
H1324 C1310 0.961 . S
H1325 C1311 0.958 . S
H1326 C1311 0.961 . S
H1327 C1311 0.960 . S
C1328 C1329 1.391 1_655 S
C1328 C1330 1.394 . S
C1328 H1344 0.931 . S
C1329 C1328 1.391 1_455 S
C1329 C1333 1.376 . S
C1330 C1328 1.394 . S
C1330 C1331 1.369 . S
C1330 C1334 1.531 . S
C1331 C1330 1.369 . S
C1331 C1332 1.419 . S
C1331 C1339 1.503 . S
C1332 C1331 1.419 . S
C1332 C1333 1.385 1_655 S
C1332 C1335 1.509 1_655 S
C1333 C1329 1.376 . S
C1333 C1332 1.385 1_455 S
C1333 H1345 0.929 . S
C1334 C1330 1.531 . S
C1334 H1346 0.960 . S
C1334 H1347 0.962 . S
C1334 H1348 0.960 . S
C1335 C1332 1.509 1_455 S
C1335 H1349 0.961 . S
C1335 H1350 0.961 1_455 S
C1335 H1351 0.961 . S
C1336 C1337 1.370 . S
C1336 C1338 1.363 . S
C1336 H1352 0.931 . S
C1337 C1336 1.370 . S
C1337 C1341 1.408 . S
C1338 C1336 1.363 . S
C1338 C1339 1.370 . S
C1338 C1342 1.524 . S
C1339 C1331 1.503 . S
C1339 C1338 1.370 . S
C1339 C1340 1.403 . S
C1340 C1339 1.403 . S
C1340 C1341 1.404 . S
C1340 C1343 1.539 1_655 S
C1341 C1337 1.408 . S
C1341 C1340 1.404 . S
C1341 H1353 0.930 . S
C1342 C1338 1.524 . S
C1342 H1354 0.956 . S
C1342 H1355 0.961 . S
C1342 H1356 0.961 . S
C1343 C1340 1.539 1_455 S
C1343 H1357 0.958 . S
C1343 H1358 0.961 . S
C1343 H1359 0.960 . S
H1344 C1328 0.931 . S
H1345 C1333 0.929 . S
H1346 C1334 0.960 . S
H1347 C1334 0.962 . S
H1348 C1334 0.960 . S
H1349 C1335 0.961 . S
H1350 C1335 0.961 1_655 S
H1351 C1335 0.961 . S
H1352 C1336 0.931 . S
H1353 C1341 0.930 . S
H1354 C1342 0.956 . S
H1355 C1342 0.961 . S
H1356 C1342 0.961 . S
H1357 C1343 0.958 . S
H1358 C1343 0.961 . S
H1359 C1343 0.960 . S
C1360 C1361 1.391 . S
C1360 C1362 1.394 . S
C1360 H1376 0.931 . S
C1361 C1360 1.391 . S
C1361 C1365 1.376 . S
C1362 C1360 1.394 . S
C1362 C1363 1.369 . S
C1362 C1366 1.531 . S
C1363 C1362 1.369 . S
C1363 C1364 1.410 . S
C1363 C1371 1.503 . S
C1364 C1363 1.410 . S
C1364 C1365 1.392 . S
C1364 C1367 1.511 . S
C1365 C1361 1.376 . S
C1365 C1364 1.392 . S
C1365 H1377 0.929 . S
C1366 C1362 1.531 . S
C1366 H1378 0.960 . S
C1366 H1379 0.962 . S
C1366 H1380 0.960 . S
C1367 C1364 1.511 . S
C1367 H1381 0.961 . S
C1367 H1382 0.961 . S
C1367 H1383 0.961 . S
C1368 C1369 1.370 1_545 S
C1368 C1370 1.363 . S
C1368 H1384 0.931 . S
C1369 C1368 1.370 1_565 S
C1369 C1373 1.408 . S
C1370 C1368 1.363 . S
C1370 C1371 1.370 . S
C1370 C1374 1.524 . S
C1371 C1363 1.503 . S
C1371 C1370 1.370 . S
C1371 C1372 1.403 1_545 S
C1372 C1371 1.403 1_565 S
C1372 C1373 1.404 . S
C1372 C1375 1.539 . S
C1373 C1369 1.408 . S
C1373 C1372 1.404 . S
C1373 H1385 0.930 . S
C1374 C1370 1.524 . S
C1374 H1386 0.956 . S
C1374 H1387 0.961 . S
C1374 H1388 0.961 . S
C1375 C1372 1.539 . S
C1375 H1389 0.958 . S
C1375 H1390 0.961 . S
C1375 H1391 0.960 . S
H1376 C1360 0.931 . S
H1377 C1365 0.929 . S
H1378 C1366 0.960 . S
H1379 C1366 0.962 . S
H1380 C1366 0.960 . S
H1381 C1367 0.961 . S
H1382 C1367 0.961 . S
H1383 C1367 0.961 . S
H1384 C1368 0.931 . S
H1385 C1373 0.930 . S
H1386 C1374 0.956 . S
H1387 C1374 0.961 . S
H1388 C1374 0.961 . S
H1389 C1375 0.958 . S
H1390 C1375 0.961 . S
H1391 C1375 0.960 . S
C1392 C1393 1.391 . S
C1392 C1394 1.394 1_655 S
C1392 H1408 0.931 . S
C1393 C1392 1.391 . S
C1393 C1397 1.376 1_655 S
C1394 C1392 1.394 1_455 S
C1394 C1395 1.369 . S
C1394 C1398 1.531 1_455 S
C1395 C1394 1.369 . S
C1395 C1396 1.410 . S
C1395 C1403 1.503 . S
C1396 C1395 1.410 . S
C1396 C1397 1.392 . S
C1396 C1399 1.511 . S
C1397 C1393 1.376 1_455 S
C1397 C1396 1.392 . S
C1397 H1409 0.929 . S
C1398 C1394 1.531 1_655 S
C1398 H1410 0.960 1_655 S
C1398 H1411 0.962 . S
C1398 H1412 0.960 . S
C1399 C1396 1.511 . S
C1399 H1413 0.961 . S
C1399 H1414 0.961 . S
C1399 H1415 0.961 . S
C1400 C1401 1.370 . S
C1400 C1402 1.363 . S
C1400 H1416 0.931 . S
C1401 C1400 1.370 . S
C1401 C1405 1.408 . S
C1402 C1400 1.363 . S
C1402 C1403 1.370 . S
C1402 C1406 1.524 . S
C1403 C1395 1.503 . S
C1403 C1402 1.370 . S
C1403 C1404 1.403 . S
C1404 C1403 1.403 . S
C1404 C1405 1.404 . S
C1404 C1407 1.539 . S
C1405 C1401 1.408 . S
C1405 C1404 1.404 . S
C1405 H1417 0.930 . S
C1406 C1402 1.524 . S
C1406 H1418 0.956 1_455 S
C1406 H1419 0.961 . S
C1406 H1420 0.961 . S
C1407 C1404 1.539 . S
C1407 H1421 0.958 . S
C1407 H1422 0.961 . S
C1407 H1423 0.960 . S
H1408 C1392 0.931 . S
H1409 C1397 0.929 . S
H1410 C1398 0.960 1_455 S
H1411 C1398 0.962 . S
H1412 C1398 0.960 . S
H1413 C1399 0.961 . S
H1414 C1399 0.961 . S
H1415 C1399 0.961 . S
H1416 C1400 0.931 . S
H1417 C1405 0.930 . S
H1418 C1406 0.956 1_655 S
H1419 C1406 0.961 . S
H1420 C1406 0.961 . S
H1421 C1407 0.958 . S
H1422 C1407 0.961 . S
H1423 C1407 0.960 . S
C1424 C1425 1.391 . S
C1424 C1426 1.394 . S
C1424 H1440 0.931 . S
C1425 C1424 1.391 . S
C1425 C1429 1.376 . S
C1426 C1424 1.394 . S
C1426 C1427 1.369 . S
C1426 C1430 1.531 . S
C1427 C1426 1.369 . S
C1427 C1428 1.410 . S
C1427 C1435 1.503 . S
C1428 C1427 1.410 . S
C1428 C1429 1.392 . S
C1428 C1431 1.511 . S
C1429 C1425 1.376 . S
C1429 C1428 1.392 . S
C1429 H1441 0.929 . S
C1430 C1426 1.531 . S
C1430 H1442 0.960 . S
C1430 H1443 0.962 . S
C1430 H1444 0.960 . S
C1431 C1428 1.511 . S
C1431 H1445 0.961 . S
C1431 H1446 0.961 . S
C1431 H1447 0.961 . S
C1432 C1433 1.370 . S
C1432 C1434 1.363 . S
C1432 H1448 0.931 . S
C1433 C1432 1.370 . S
C1433 C1437 1.408 . S
C1434 C1432 1.363 . S
C1434 C1435 1.370 . S
C1434 C1438 1.524 . S
C1435 C1427 1.503 . S
C1435 C1434 1.370 . S
C1435 C1436 1.403 . S
C1436 C1435 1.403 . S
C1436 C1437 1.404 . S
C1436 C1439 1.539 . S
C1437 C1433 1.408 . S
C1437 C1436 1.404 . S
C1437 H1449 0.930 . S
C1438 C1434 1.524 . S
C1438 H1450 0.956 . S
C1438 H1451 0.961 . S
C1438 H1452 0.961 . S
C1439 C1436 1.539 . S
C1439 H1453 0.958 . S
C1439 H1454 0.961 . S
C1439 H1455 0.960 . S
H1440 C1424 0.931 . S
H1441 C1429 0.929 . S
H1442 C1430 0.960 . S
H1443 C1430 0.962 . S
H1444 C1430 0.960 . S
H1445 C1431 0.961 . S
H1446 C1431 0.961 . S
H1447 C1431 0.961 . S
H1448 C1432 0.931 . S
H1449 C1437 0.930 . S
H1450 C1438 0.956 . S
H1451 C1438 0.961 . S
H1452 C1438 0.961 . S
H1453 C1439 0.958 . S
H1454 C1439 0.961 . S
H1455 C1439 0.960 . S
C1456 C1457 1.391 . S
C1456 C1458 1.394 . S
C1456 H1472 0.931 . S
C1457 C1456 1.391 . S
C1457 C1461 1.376 . S
C1458 C1456 1.394 . S
C1458 C1459 1.369 . S
C1458 C1462 1.531 . S
C1459 C1458 1.369 . S
C1459 C1460 1.410 . S
C1459 C1467 1.503 . S
C1460 C1459 1.410 . S
C1460 C1461 1.392 . S
C1460 C1463 1.511 . S
C1461 C1457 1.376 . S
C1461 C1460 1.392 . S
C1461 H1473 0.929 . S
C1462 C1458 1.531 . S
C1462 H1474 0.960 . S
C1462 H1475 0.962 . S
C1462 H1476 0.960 . S
C1463 C1460 1.511 . S
C1463 H1477 0.961 . S
C1463 H1478 0.961 . S
C1463 H1479 0.961 . S
C1464 C1465 1.370 . S
C1464 C1466 1.363 . S
C1464 H1480 0.931 . S
C1465 C1464 1.370 . S
C1465 C1469 1.408 . S
C1466 C1464 1.363 . S
C1466 C1467 1.370 . S
C1466 C1470 1.524 . S
C1467 C1459 1.503 . S
C1467 C1466 1.370 . S
C1467 C1468 1.403 . S
C1468 C1467 1.403 . S
C1468 C1469 1.404 . S
C1468 C1471 1.539 . S
C1469 C1465 1.408 . S
C1469 C1468 1.404 . S
C1469 H1481 0.930 . S
C1470 C1466 1.524 . S
C1470 H1482 0.956 . S
C1470 H1483 0.961 . S
C1470 H1484 0.961 . S
C1471 C1468 1.539 . S
C1471 H1485 0.958 . S
C1471 H1486 0.961 . S
C1471 H1487 0.960 . S
H1472 C1456 0.931 . S
H1473 C1461 0.929 . S
H1474 C1462 0.960 . S
H1475 C1462 0.962 . S
H1476 C1462 0.960 . S
H1477 C1463 0.961 . S
H1478 C1463 0.961 . S
H1479 C1463 0.961 . S
H1480 C1464 0.931 . S
H1481 C1469 0.930 . S
H1482 C1470 0.956 . S
H1483 C1470 0.961 . S
H1484 C1470 0.961 . S
H1485 C1471 0.958 . S
H1486 C1471 0.961 . S
H1487 C1471 0.960 . S
C1488 C1489 1.391 . S
C1488 C1490 1.394 . S
C1488 H1504 0.931 . S
C1489 C1488 1.391 . S
C1489 C1493 1.376 . S
C1490 C1488 1.394 . S
C1490 C1491 1.369 . S
C1490 C1494 1.531 . S
C1491 C1490 1.369 . S
C1491 C1492 1.410 . S
C1491 C1499 1.503 . S
C1492 C1491 1.410 . S
C1492 C1493 1.392 . S
C1492 C1495 1.511 . S
C1493 C1489 1.376 . S
C1493 C1492 1.392 . S
C1493 H1505 0.929 . S
C1494 C1490 1.531 . S
C1494 H1506 0.960 . S
C1494 H1507 0.962 . S
C1494 H1508 0.960 . S
C1495 C1492 1.511 . S
C1495 H1509 0.961 . S
C1495 H1510 0.961 . S
C1495 H1511 0.961 . S
C1496 C1497 1.370 . S
C1496 C1498 1.363 . S
C1496 H1512 0.931 . S
C1497 C1496 1.370 . S
C1497 C1501 1.408 . S
C1498 C1496 1.363 . S
C1498 C1499 1.370 . S
C1498 C1502 1.524 . S
C1499 C1491 1.503 . S
C1499 C1498 1.370 . S
C1499 C1500 1.403 . S
C1500 C1499 1.403 . S
C1500 C1501 1.404 . S
C1500 C1503 1.539 . S
C1501 C1497 1.408 . S
C1501 C1500 1.404 . S
C1501 H1513 0.930 . S
C1502 C1498 1.524 . S
C1502 H1514 0.956 . S
C1502 H1515 0.961 . S
C1502 H1516 0.961 . S
C1503 C1500 1.539 . S
C1503 H1517 0.958 . S
C1503 H1518 0.961 . S
C1503 H1519 0.960 . S
H1504 C1488 0.931 . S
H1505 C1493 0.929 . S
H1506 C1494 0.960 . S
H1507 C1494 0.962 . S
H1508 C1494 0.960 . S
H1509 C1495 0.961 . S
H1510 C1495 0.961 . S
H1511 C1495 0.961 . S
H1512 C1496 0.931 . S
H1513 C1501 0.930 . S
H1514 C1502 0.956 . S
H1515 C1502 0.961 . S
H1516 C1502 0.961 . S
H1517 C1503 0.958 . S
H1518 C1503 0.961 . S
H1519 C1503 0.960 . S
C1520 C1521 1.391 . S
C1520 C1522 1.394 . S
C1520 H1536 0.931 . S
C1521 C1520 1.391 . S
C1521 C1525 1.376 . S
C1522 C1520 1.394 . S
C1522 C1523 1.369 . S
C1522 C1526 1.531 . S
C1523 C1522 1.369 . S
C1523 C1524 1.410 . S
C1523 C1531 1.503 . S
C1524 C1523 1.410 . S
C1524 C1525 1.392 . S
C1524 C1527 1.511 . S
C1525 C1521 1.376 . S
C1525 C1524 1.392 . S
C1525 H1537 0.929 . S
C1526 C1522 1.531 . S
C1526 H1538 0.960 . S
C1526 H1539 0.962 . S
C1526 H1540 0.960 . S
C1527 C1524 1.511 . S
C1527 H1541 0.961 . S
C1527 H1542 0.961 . S
C1527 H1543 0.961 . S
C1528 C1529 1.370 . S
C1528 C1530 1.363 . S
C1528 H1544 0.931 . S
C1529 C1528 1.370 . S
C1529 C1533 1.408 . S
C1530 C1528 1.363 . S
C1530 C1531 1.370 . S
C1530 C1534 1.524 . S
C1531 C1523 1.503 . S
C1531 C1530 1.370 . S
C1531 C1532 1.403 . S
C1532 C1531 1.403 . S
C1532 C1533 1.404 . S
C1532 C1535 1.539 . S
C1533 C1529 1.408 . S
C1533 C1532 1.404 . S
C1533 H1545 0.930 . S
C1534 C1530 1.524 . S
C1534 H1546 0.956 . S
C1534 H1547 0.961 . S
C1534 H1548 0.961 . S
C1535 C1532 1.539 . S
C1535 H1549 0.958 . S
C1535 H1550 0.961 . S
C1535 H1551 0.960 . S
H1536 C1520 0.931 . S
H1537 C1525 0.929 . S
H1538 C1526 0.960 . S
H1539 C1526 0.962 . S
H1540 C1526 0.960 . S
H1541 C1527 0.961 . S
H1542 C1527 0.961 . S
H1543 C1527 0.961 . S
H1544 C1528 0.931 . S
H1545 C1533 0.930 . S
H1546 C1534 0.956 . S
H1547 C1534 0.961 . S
H1548 C1534 0.961 . S
H1549 C1535 0.958 . S
H1550 C1535 0.961 . S
H1551 C1535 0.960 . S
C1552 C1553 1.391 . S
C1552 C1554 1.394 . S
C1552 H1568 0.931 . S
C1553 C1552 1.391 . S
C1553 C1557 1.376 . S
C1554 C1552 1.394 . S
C1554 C1555 1.369 . S
C1554 C1558 1.531 1_556 S
C1555 C1554 1.369 . S
C1555 C1556 1.410 . S
C1555 C1563 1.503 1_556 S
C1556 C1555 1.410 . S
C1556 C1557 1.392 . S
C1556 C1559 1.511 . S
C1557 C1553 1.376 . S
C1557 C1556 1.392 . S
C1557 H1569 0.929 . S
C1558 C1554 1.531 1_554 S
C1558 H1570 0.960 . S
C1558 H1571 0.962 . S
C1558 H1572 0.960 . S
C1559 C1556 1.511 . S
C1559 H1573 0.961 . S
C1559 H1574 0.961 . S
C1559 H1575 0.961 . S
C1560 C1561 1.370 . S
C1560 C1562 1.363 . S
C1560 H1576 0.931 . S
C1561 C1560 1.370 . S
C1561 C1565 1.408 . S
C1562 C1560 1.363 . S
C1562 C1563 1.370 . S
C1562 C1566 1.524 1_554 S
C1563 C1555 1.503 1_554 S
C1563 C1562 1.370 . S
C1563 C1564 1.403 . S
C1564 C1563 1.403 . S
C1564 C1565 1.404 . S
C1564 C1567 1.539 . S
C1565 C1561 1.408 . S
C1565 C1564 1.404 . S
C1565 H1577 0.930 . S
C1566 C1562 1.524 1_556 S
C1566 H1578 0.956 . S
C1566 H1579 0.961 . S
C1566 H1580 0.961 1_556 S
C1567 C1564 1.539 . S
C1567 H1581 0.958 . S
C1567 H1582 0.961 . S
C1567 H1583 0.960 1_554 S
H1568 C1552 0.931 . S
H1569 C1557 0.929 . S
H1570 C1558 0.960 . S
H1571 C1558 0.962 . S
H1572 C1558 0.960 . S
H1573 C1559 0.961 . S
H1574 C1559 0.961 . S
H1575 C1559 0.961 . S
H1576 C1560 0.931 . S
H1577 C1565 0.930 . S
H1578 C1566 0.956 . S
H1579 C1566 0.961 . S
H1580 C1566 0.961 1_554 S
H1581 C1567 0.958 . S
H1582 C1567 0.961 . S
H1583 C1567 0.960 1_556 S
C1584 C1585 1.391 . S
C1584 C1586 1.394 . S
C1584 H1600 0.931 . S
C1585 C1584 1.391 . S
C1585 C1589 1.376 . S
C1586 C1584 1.394 . S
C1586 C1587 1.369 . S
C1586 C1590 1.531 . S
C1587 C1586 1.369 . S
C1587 C1588 1.410 . S
C1587 C1595 1.503 1_556 S
C1588 C1587 1.410 . S
C1588 C1589 1.392 . S
C1588 C1591 1.511 1_556 S
C1589 C1585 1.376 . S
C1589 C1588 1.392 . S
C1589 H1601 0.929 . S
C1590 C1586 1.531 . S
C1590 H1602 0.960 . S
C1590 H1603 0.962 . S
C1590 H1604 0.960 . S
C1591 C1588 1.511 1_554 S
C1591 H1605 0.961 . S
C1591 H1606 0.961 . S
C1591 H1607 0.961 . S
C1592 C1593 1.370 . S
C1592 C1594 1.363 . S
C1592 H1608 0.931 . S
C1593 C1592 1.370 . S
C1593 C1597 1.408 . S
C1594 C1592 1.363 . S
C1594 C1595 1.370 . S
C1594 C1598 1.524 . S
C1595 C1587 1.503 1_554 S
C1595 C1594 1.370 . S
C1595 C1596 1.403 . S
C1596 C1595 1.403 . S
C1596 C1597 1.404 . S
C1596 C1599 1.539 . S
C1597 C1593 1.408 . S
C1597 C1596 1.404 . S
C1597 H1609 0.930 . S
C1598 C1594 1.524 . S
C1598 H1610 0.956 1_554 S
C1598 H1611 0.961 . S
C1598 H1612 0.961 . S
C1599 C1596 1.539 . S
C1599 H1613 0.958 . S
C1599 H1614 0.961 . S
C1599 H1615 0.960 . S
H1600 C1584 0.931 . S
H1601 C1589 0.929 . S
H1602 C1590 0.960 . S
H1603 C1590 0.962 . S
H1604 C1590 0.960 . S
H1605 C1591 0.961 . S
H1606 C1591 0.961 . S
H1607 C1591 0.961 . S
H1608 C1592 0.931 . S
H1609 C1597 0.930 . S
H1610 C1598 0.956 1_556 S
H1611 C1598 0.961 . S
H1612 C1598 0.961 . S
H1613 C1599 0.958 . S
H1614 C1599 0.961 . S
H1615 C1599 0.960 . S
C1616 C1617 1.391 . S
C1616 C1618 1.394 . S
C1616 H1632 0.931 . S
C1617 C1616 1.391 . S
C1617 C1621 1.376 . S
C1618 C1616 1.394 . S
C1618 C1619 1.369 . S
C1618 C1622 1.531 . S
C1619 C1618 1.369 . S
C1619 C1620 1.410 . S
C1619 C1627 1.503 1_556 S
C1620 C1619 1.410 . S
C1620 C1621 1.392 . S
C1620 C1623 1.511 . S
C1621 C1617 1.376 . S
C1621 C1620 1.392 . S
C1621 H1633 0.929 . S
C1622 C1618 1.531 . S
C1622 H1634 0.960 1_556 S
C1622 H1635 0.962 . S
C1622 H1636 0.960 . S
C1623 C1620 1.511 . S
C1623 H1637 0.961 . S
C1623 H1638 0.961 . S
C1623 H1639 0.961 . S
C1624 C1625 1.370 . S
C1624 C1626 1.363 . S
C1624 H1640 0.931 . S
C1625 C1624 1.370 . S
C1625 C1629 1.408 . S
C1626 C1624 1.363 . S
C1626 C1627 1.370 . S
C1626 C1630 1.524 1_554 S
C1627 C1619 1.503 1_554 S
C1627 C1626 1.370 . S
C1627 C1628 1.403 . S
C1628 C1627 1.403 . S
C1628 C1629 1.404 . S
C1628 C1631 1.539 . S
C1629 C1625 1.408 . S
C1629 C1628 1.404 . S
C1629 H1641 0.930 . S
C1630 C1626 1.524 1_556 S
C1630 H1642 0.956 . S
C1630 H1643 0.961 . S
C1630 H1644 0.961 . S
C1631 C1628 1.539 . S
C1631 H1645 0.958 . S
C1631 H1646 0.961 . S
C1631 H1647 0.960 . S
H1632 C1616 0.931 . S
H1633 C1621 0.929 . S
H1634 C1622 0.960 1_554 S
H1635 C1622 0.962 . S
H1636 C1622 0.960 . S
H1637 C1623 0.961 . S
H1638 C1623 0.961 . S
H1639 C1623 0.961 . S
H1640 C1624 0.931 . S
H1641 C1629 0.930 . S
H1642 C1630 0.956 . S
H1643 C1630 0.961 . S
H1644 C1630 0.961 . S
H1645 C1631 0.958 . S
H1646 C1631 0.961 . S
H1647 C1631 0.960 . S
C1648 C1649 1.391 . S
C1648 C1650 1.394 . S
C1648 H1664 0.931 . S
C1649 C1648 1.391 . S
C1649 C1653 1.376 . S
C1650 C1648 1.394 . S
C1650 C1651 1.369 . S
C1650 C1654 1.531 . S
C1651 C1650 1.369 . S
C1651 C1652 1.410 . S
C1651 C1659 1.503 1_554 S
C1652 C1651 1.410 . S
C1652 C1653 1.392 . S
C1652 C1655 1.511 . S
C1653 C1649 1.376 . S
C1653 C1652 1.392 . S
C1653 H1665 0.929 . S
C1654 C1650 1.531 . S
C1654 H1666 0.960 1_554 S
C1654 H1667 0.962 . S
C1654 H1668 0.960 . S
C1655 C1652 1.511 . S
C1655 H1669 0.961 . S
C1655 H1670 0.961 . S
C1655 H1671 0.961 . S
C1656 C1657 1.370 . S
C1656 C1658 1.363 . S
C1656 H1672 0.931 . S
C1657 C1656 1.370 . S
C1657 C1661 1.408 . S
C1658 C1656 1.363 . S
C1658 C1659 1.370 . S
C1658 C1662 1.524 1_556 S
C1659 C1651 1.503 1_556 S
C1659 C1658 1.370 . S
C1659 C1660 1.403 . S
C1660 C1659 1.403 . S
C1660 C1661 1.404 . S
C1660 C1663 1.539 . S
C1661 C1657 1.408 . S
C1661 C1660 1.404 . S
C1661 H1673 0.930 . S
C1662 C1658 1.524 1_554 S
C1662 H1674 0.956 . S
C1662 H1675 0.961 . S
C1662 H1676 0.961 . S
C1663 C1660 1.539 . S
C1663 H1677 0.958 . S
C1663 H1678 0.961 . S
C1663 H1679 0.960 . S
H1664 C1648 0.931 . S
H1665 C1653 0.929 . S
H1666 C1654 0.960 1_556 S
H1667 C1654 0.962 . S
H1668 C1654 0.960 . S
H1669 C1655 0.961 . S
H1670 C1655 0.961 . S
H1671 C1655 0.961 . S
H1672 C1656 0.931 . S
H1673 C1661 0.930 . S
H1674 C1662 0.956 . S
H1675 C1662 0.961 . S
H1676 C1662 0.961 . S
H1677 C1663 0.958 . S
H1678 C1663 0.961 . S
H1679 C1663 0.960 . S
C1680 C1681 1.391 . S
C1680 C1682 1.394 . S
C1680 H1696 0.931 . S
C1681 C1680 1.391 . S
C1681 C1685 1.376 . S
C1682 C1680 1.394 . S
C1682 C1683 1.369 . S
C1682 C1686 1.531 . S
C1683 C1682 1.369 . S
C1683 C1684 1.410 . S
C1683 C1691 1.503 . S
C1684 C1683 1.410 . S
C1684 C1685 1.392 . S
C1684 C1687 1.511 . S
C1685 C1681 1.376 . S
C1685 C1684 1.392 . S
C1685 H1697 0.929 . S
C1686 C1682 1.531 . S
C1686 H1698 0.960 . S
C1686 H1699 0.962 . S
C1686 H1700 0.960 . S
C1687 C1684 1.511 . S
C1687 H1701 0.961 . S
C1687 H1702 0.961 . S
C1687 H1703 0.961 . S
C1688 C1689 1.370 1_545 S
C1688 C1690 1.363 . S
C1688 H1704 0.931 . S
C1689 C1688 1.370 1_565 S
C1689 C1693 1.408 . S
C1690 C1688 1.363 . S
C1690 C1691 1.370 . S
C1690 C1694 1.524 . S
C1691 C1683 1.503 . S
C1691 C1690 1.370 . S
C1691 C1692 1.403 1_545 S
C1692 C1691 1.403 1_565 S
C1692 C1693 1.404 . S
C1692 C1695 1.539 . S
C1693 C1689 1.408 . S
C1693 C1692 1.404 . S
C1693 H1705 0.930 . S
C1694 C1690 1.524 . S
C1694 H1706 0.956 . S
C1694 H1707 0.961 . S
C1694 H1708 0.961 . S
C1695 C1692 1.539 . S
C1695 H1709 0.958 . S
C1695 H1710 0.961 . S
C1695 H1711 0.960 . S
H1696 C1680 0.931 . S
H1697 C1685 0.929 . S
H1698 C1686 0.960 . S
H1699 C1686 0.962 . S
H1700 C1686 0.960 . S
H1701 C1687 0.961 . S
H1702 C1687 0.961 . S
H1703 C1687 0.961 . S
H1704 C1688 0.931 . S
H1705 C1693 0.930 . S
H1706 C1694 0.956 . S
H1707 C1694 0.961 . S
H1708 C1694 0.961 . S
H1709 C1695 0.958 . S
H1710 C1695 0.961 . S
H1711 C1695 0.960 . S
C1712 C1713 1.391 . S
C1712 C1714 1.377 1_655 S
C1712 H1728 0.931 . S
C1713 C1712 1.391 . S
C1713 C1717 1.376 1_655 S
C1714 C1712 1.377 1_455 S
C1714 C1715 1.395 . S
C1714 C1718 1.521 1_455 S
C1715 C1714 1.395 . S
C1715 C1716 1.410 . S
C1715 C1723 1.503 . S
C1716 C1715 1.410 . S
C1716 C1717 1.392 . S
C1716 C1719 1.511 . S
C1717 C1713 1.376 1_455 S
C1717 C1716 1.392 . S
C1717 H1729 0.929 . S
C1718 C1714 1.521 1_655 S
C1718 H1730 0.960 1_655 S
C1718 H1731 0.962 . S
C1718 H1732 0.960 . S
C1719 C1716 1.511 . S
C1719 H1733 0.961 . S
C1719 H1734 0.961 . S
C1719 H1735 0.961 . S
C1720 C1721 1.370 . S
C1720 C1722 1.363 . S
C1720 H1736 0.931 . S
C1721 C1720 1.370 . S
C1721 C1725 1.408 . S
C1722 C1720 1.363 . S
C1722 C1723 1.370 . S
C1722 C1726 1.524 . S
C1723 C1715 1.503 . S
C1723 C1722 1.370 . S
C1723 C1724 1.403 . S
C1724 C1723 1.403 . S
C1724 C1725 1.404 . S
C1724 C1727 1.539 . S
C1725 C1721 1.408 . S
C1725 C1724 1.404 . S
C1725 H1737 0.930 . S
C1726 C1722 1.524 . S
C1726 H1738 0.956 1_455 S
C1726 H1739 0.961 . S
C1726 H1740 0.961 . S
C1727 C1724 1.539 . S
C1727 H1741 0.958 . S
C1727 H1742 0.961 . S
C1727 H1743 0.960 . S
H1728 C1712 0.931 . S
H1729 C1717 0.929 . S
H1730 C1718 0.960 1_455 S
H1731 C1718 0.962 . S
H1732 C1718 0.960 . S
H1733 C1719 0.961 . S
H1734 C1719 0.961 . S
H1735 C1719 0.961 . S
H1736 C1720 0.931 . S
H1737 C1725 0.930 . S
H1738 C1726 0.956 1_655 S
H1739 C1726 0.961 . S
H1740 C1726 0.961 . S
H1741 C1727 0.958 . S
H1742 C1727 0.961 . S
H1743 C1727 0.960 . S
C1744 C1745 1.391 . S
C1744 C1746 1.394 1_545 S
C1744 H1760 0.931 . S
C1745 C1744 1.391 . S
C1745 C1749 1.376 1_545 S
C1746 C1744 1.394 1_565 S
C1746 C1747 1.369 . S
C1746 C1750 1.531 . S
C1747 C1746 1.369 . S
C1747 C1748 1.410 . S
C1747 C1755 1.503 . S
C1748 C1747 1.410 . S
C1748 C1749 1.392 . S
C1748 C1751 1.511 . S
C1749 C1745 1.376 1_565 S
C1749 C1748 1.392 . S
C1749 H1761 0.929 . S
C1750 C1746 1.531 . S
C1750 H1762 0.960 . S
C1750 H1763 0.962 . S
C1750 H1764 0.960 . S
C1751 C1748 1.511 . S
C1751 H1765 0.961 . S
C1751 H1766 0.961 . S
C1751 H1767 0.961 . S
C1752 C1753 1.370 . S
C1752 C1754 1.363 . S
C1752 H1768 0.931 . S
C1753 C1752 1.370 . S
C1753 C1757 1.408 . S
C1754 C1752 1.363 . S
C1754 C1755 1.370 . S
C1754 C1758 1.524 1_565 S
C1755 C1747 1.503 . S
C1755 C1754 1.370 . S
C1755 C1756 1.403 . S
C1756 C1755 1.403 . S
C1756 C1757 1.404 . S
C1756 C1759 1.539 . S
C1757 C1753 1.408 . S
C1757 C1756 1.404 . S
C1757 H1769 0.930 . S
C1758 C1754 1.524 1_545 S
C1758 H1770 0.956 . S
C1758 H1771 0.961 . S
C1758 H1772 0.961 . S
C1759 C1756 1.539 . S
C1759 H1773 0.958 . S
C1759 H1774 0.961 . S
C1759 H1775 0.960 . S
H1760 C1744 0.931 . S
H1761 C1749 0.929 . S
H1762 C1750 0.960 . S
H1763 C1750 0.962 . S
H1764 C1750 0.960 . S
H1765 C1751 0.961 . S
H1766 C1751 0.961 . S
H1767 C1751 0.961 . S
H1768 C1752 0.931 . S
H1769 C1757 0.930 . S
H1770 C1758 0.956 . S
H1771 C1758 0.961 . S
H1772 C1758 0.961 . S
H1773 C1759 0.958 . S
H1774 C1759 0.961 . S
H1775 C1759 0.960 . S
C1776 C1777 1.391 . S
C1776 C1778 1.394 . S
C1776 H1792 0.931 . S
C1777 C1776 1.391 . S
C1777 C1781 1.376 1_455 S
C1778 C1776 1.394 . S
C1778 C1779 1.369 1_455 S
C1778 C1782 1.531 . S
C1779 C1778 1.369 1_655 S
C1779 C1780 1.410 . S
C1779 C1787 1.503 . S
C1780 C1779 1.410 . S
C1780 C1781 1.392 . S
C1780 C1783 1.511 . S
C1781 C1777 1.376 1_655 S
C1781 C1780 1.392 . S
C1781 H1793 0.929 . S
C1782 C1778 1.531 . S
C1782 H1794 0.960 . S
C1782 H1795 0.962 . S
C1782 H1796 0.960 . S
C1783 C1780 1.511 . S
C1783 H1797 0.961 . S
C1783 H1798 0.961 . S
C1783 H1799 0.961 . S
C1784 C1785 1.370 . S
C1784 C1786 1.363 . S
C1784 H1800 0.931 . S
C1785 C1784 1.370 . S
C1785 C1789 1.408 . S
C1786 C1784 1.363 . S
C1786 C1787 1.370 . S
C1786 C1790 1.524 . S
C1787 C1779 1.503 . S
C1787 C1786 1.370 . S
C1787 C1788 1.403 . S
C1788 C1787 1.403 . S
C1788 C1789 1.404 . S
C1788 C1791 1.539 . S
C1789 C1785 1.408 . S
C1789 C1788 1.404 . S
C1789 H1801 0.930 . S
C1790 C1786 1.524 . S
C1790 H1802 0.956 . S
C1790 H1803 0.961 . S
C1790 H1804 0.961 . S
C1791 C1788 1.539 . S
C1791 H1805 0.958 . S
C1791 H1806 0.961 . S
C1791 H1807 0.960 . S
H1792 C1776 0.931 . S
H1793 C1781 0.929 . S
H1794 C1782 0.960 . S
H1795 C1782 0.962 . S
H1796 C1782 0.960 . S
H1797 C1783 0.961 . S
H1798 C1783 0.961 . S
H1799 C1783 0.961 . S
H1800 C1784 0.931 . S
H1801 C1789 0.930 . S
H1802 C1790 0.956 . S
H1803 C1790 0.961 . S
H1804 C1790 0.961 . S
H1805 C1791 0.958 . S
H1806 C1791 0.961 . S
H1807 C1791 0.960 . S
C529 N145 2.162 . S
C537 N13 2.174 . S
C561 N46 2.179 . S
C569 N178 2.173 . S
C593 N79 2.160 . S
C601 N211 2.160 . S
C625 N112 2.149 . S
C633 N244 2.160 . S
C657 N277 2.160 . S
C665 N409 2.160 . S
C689 N442 2.155 . S
C697 N310 2.160 . S
C721 N475 2.158 . S
C729 N343 2.173 . S
C753 N376 2.146 . S
C761 N508 2.160 . S
C785 C18 1.346 . S
C793 C480 1.322 . S
C817 C51 1.361 . S
C825 C513 1.321 . S
C849 C84 1.371 . S
C857 C414 1.317 . S
C881 C447 1.374 . S
C889 C117 1.318 . S
C913 C348 1.367 . S
C921 C150 1.317 . S
C945 C183 1.365 . S
C953 C381 1.320 . S
C977 C216 1.365 . S
C985 C282 1.318 . S
C1009 C249 1.299 . S
C1017 C315 1.351 . S
C1041 C7 1.526 . S
C1049 C73 1.495 . S
C1073 C40 1.494 . S
C1081 C106 1.485 . S
C1105 C139 1.493 . S
C1113 C205 1.479 . S
C1137 C172 1.514 . S
C1145 C238 1.508 . S
C1169 C337 1.459 . S
C1177 C271 1.473 . S
C1201 C370 1.534 . S
C1209 C304 1.509 . S
C1233 C403 1.444 . S
C1241 C469 1.483 . S
C1265 C436 1.483 . S
C1273 C502 1.498 . S
C1297 C54 0.443 . S
C1305 N2 0.487 . S
C1329 N35 0.480 . S
C1337 C87 0.452 . S
C1361 C120 0.506 . S
C1369 N68 0.468 . S
C1393 N101 0.539 . S
C1401 C21 0.471 . S
C1425 C516 0.503 . S
C1433 N134 0.468 . S
C1457 N167 0.521 . S
C1465 C417 0.477 . S
C1489 N200 0.551 . S
C1497 C450 0.479 . S
C1521 N233 0.607 . S
C1529 C483 0.408 . S
C1553 N266 0.604 . S
C1561 C318 0.406 . S
C1585 C351 0.346 . S
C1593 N299 0.561 . S
C1617 N332 0.524 . S
C1625 C384 0.422 . S
C1649 N365 0.427 . S
C1657 C285 0.475 . S
C1681 C252 0.465 . S
C1689 N398 0.479 . S
C1713 N431 0.516 . S
C1721 C153 0.479 . S
C1745 N464 0.619 . S
C1753 C186 0.440 . S
C1777 N497 0.486 . S
C1785 C219 0.488 . S
