# Generated by pormake.
# Topology wkj, (6)-cn, num edge types: 1
# Building blocks:
#     Node 0, Type 0, BuildingBlock: CUKXOW_clean_sbu_0, # of connection points: 6
#     Node 1, Type 0, BuildingBlock: CUKXOW_clean_sbu_0, # of connection points: 6
#     Node 2, Type 0, BuildingBlock: CUKXOW_clean_sbu_0, # of connection points: 6
#     Node 3, Type 0, BuildingBlock: CUKXOW_clean_sbu_0, # of connection points: 6
#     Node 4, Type 0, BuildingBlock: CUKXOW_clean_sbu_0, # of connection points: 6
#     Node 5, Type 0, BuildingBlock: CUKXOW_clean_sbu_0, # of connection points: 6
#     Node 6, Type 0, BuildingBlock: CUKXOW_clean_sbu_0, # of connection points: 6
#     Node 7, Type 0, BuildingBlock: CUKXOW_clean_sbu_0, # of connection points: 6
#     Node 8, Type 0, BuildingBlock: CUKXOW_clean_sbu_0, # of connection points: 6
#     Node 9, Type 0, BuildingBlock: CUKXOW_clean_sbu_0, # of connection points: 6
#     Node 10, Type 0, BuildingBlock: CUKXOW_clean_sbu_0, # of connection points: 6
#     Node 11, Type 0, BuildingBlock: CUKXOW_clean_sbu_0, # of connection points: 6
#     Edge 12, Type (0, 0), BuildingBlock: OJICUG_clean_linker_0, # of connection points: 2
#     Edge 13, Type (0, 0), BuildingBlock: OJICUG_clean_linker_0, # of connection points: 2
#     Edge 14, Type (0, 0), BuildingBlock: OJICUG_clean_linker_0, # of connection points: 2
#     Edge 15, Type (0, 0), BuildingBlock: OJICUG_clean_linker_0, # of connection points: 2
#     Edge 16, Type (0, 0), BuildingBlock: OJICUG_clean_linker_0, # of connection points: 2
#     Edge 17, Type (0, 0), BuildingBlock: OJICUG_clean_linker_0, # of connection points: 2
#     Edge 18, Type (0, 0), BuildingBlock: OJICUG_clean_linker_0, # of connection points: 2
#     Edge 19, Type (0, 0), BuildingBlock: OJICUG_clean_linker_0, # of connection points: 2
#     Edge 20, Type (0, 0), BuildingBlock: OJICUG_clean_linker_0, # of connection points: 2
#     Edge 21, Type (0, 0), BuildingBlock: OJICUG_clean_linker_0, # of connection points: 2
#     Edge 22, Type (0, 0), BuildingBlock: OJICUG_clean_linker_0, # of connection points: 2
#     Edge 23, Type (0, 0), BuildingBlock: OJICUG_clean_linker_0, # of connection points: 2
#     Edge 24, Type (0, 0), BuildingBlock: OJICUG_clean_linker_0, # of connection points: 2
#     Edge 25, Type (0, 0), BuildingBlock: OJICUG_clean_linker_0, # of connection points: 2
#     Edge 26, Type (0, 0), BuildingBlock: OJICUG_clean_linker_0, # of connection points: 2
#     Edge 27, Type (0, 0), BuildingBlock: OJICUG_clean_linker_0, # of connection points: 2
#     Edge 28, Type (0, 0), BuildingBlock: OJICUG_clean_linker_0, # of connection points: 2
#     Edge 29, Type (0, 0), BuildingBlock: OJICUG_clean_linker_0, # of connection points: 2
#     Edge 30, Type (0, 0), BuildingBlock: OJICUG_clean_linker_0, # of connection points: 2
#     Edge 31, Type (0, 0), BuildingBlock: OJICUG_clean_linker_0, # of connection points: 2
#     Edge 32, Type (0, 0), BuildingBlock: OJICUG_clean_linker_0, # of connection points: 2
#     Edge 33, Type (0, 0), BuildingBlock: OJICUG_clean_linker_0, # of connection points: 2
#     Edge 34, Type (0, 0), BuildingBlock: OJICUG_clean_linker_0, # of connection points: 2
#     Edge 35, Type (0, 0), BuildingBlock: OJICUG_clean_linker_0, # of connection points: 2
#     Edge 36, Type (0, 0), BuildingBlock: OJICUG_clean_linker_0, # of connection points: 2
#     Edge 37, Type (0, 0), BuildingBlock: OJICUG_clean_linker_0, # of connection points: 2
#     Edge 38, Type (0, 0), BuildingBlock: OJICUG_clean_linker_0, # of connection points: 2
#     Edge 39, Type (0, 0), BuildingBlock: OJICUG_clean_linker_0, # of connection points: 2
#     Edge 40, Type (0, 0), BuildingBlock: OJICUG_clean_linker_0, # of connection points: 2
#     Edge 41, Type (0, 0), BuildingBlock: OJICUG_clean_linker_0, # of connection points: 2
#     Edge 42, Type (0, 0), BuildingBlock: OJICUG_clean_linker_0, # of connection points: 2
#     Edge 43, Type (0, 0), BuildingBlock: OJICUG_clean_linker_0, # of connection points: 2
#     Edge 44, Type (0, 0), BuildingBlock: OJICUG_clean_linker_0, # of connection points: 2
#     Edge 45, Type (0, 0), BuildingBlock: OJICUG_clean_linker_0, # of connection points: 2
#     Edge 46, Type (0, 0), BuildingBlock: OJICUG_clean_linker_0, # of connection points: 2
#     Edge 47, Type (0, 0), BuildingBlock: OJICUG_clean_linker_0, # of connection points: 2
# Relax obj value: 0.320
# Max RMSD: 0.170
# Mean RMSD: 0.170
data_MOF--net-wkj--node1-CUKXOW_clean_sbu_0--edge1-OJICUG_clean_linker_0
_symmetry_space_group_name_H-M    P1
_symmetry_Int_Tables_number       1
_symmetry_cell_setting            triclinic
loop_
_symmetry_equiv_pos_as_xyz
'x, y, z'
_cell_length_a     37.965653
_cell_length_b     37.609184
_cell_length_c     18.664935
_cell_angle_alpha  89.63988
_cell_angle_beta   89.881145
_cell_angle_gamma 120.66942
loop_
_atom_site_label
_atom_site_type_symbol
_atom_site_fract_x
_atom_site_fract_y
_atom_site_fract_z
_atom_type_partial_charge
Tb0 Tb 0.43697 0.07712 0.36247 0.0
C1 C 0.3983 0.1225 0.29566 0.0
Tb2 Tb 0.36286 0.02628 0.30488 0.0
O3 O 0.47672 0.07073 0.28814 0.0
O4 O 0.42227 0.06405 0.24752 0.0
O5 O 0.42838 0.12748 0.3362 0.0
C6 C 0.29834 -0.00659 0.21944 0.0
O7 O 0.3697 0.08555 0.27529 0.0
C8 C 0.344 0.01581 0.44589 0.0
C9 C 0.40401 -0.01358 0.365 0.0
O10 O 0.31008 0.02529 0.2594 0.0
O11 O 0.32305 -0.02062 0.22926 0.0
O12 O 0.31863 -0.00098 0.39395 0.0
O13 O 0.37952 0.03889 0.41754 0.0
O14 O 0.38513 -0.0161 0.30509 0.0
O15 O 0.4091 0.01595 0.40728 0.0
C16 C 0.49594 0.11912 0.45816 0.0
O17 O 0.49272 0.09009 0.41686 0.0
O18 O 0.46646 0.12555 0.44209 0.0
C19 C 0.45411 0.06111 0.23173 0.0
Tb20 Tb 0.33129 0.45884 0.68818 0.0
C21 C 0.24516 0.41493 0.62262 0.0
Tb22 Tb 0.3079 0.3845 0.62895 0.0
O23 O 0.37804 0.4997 0.61313 0.0
O24 O 0.32851 0.44475 0.57309 0.0
O25 O 0.27199 0.44721 0.6583 0.0
C26 C 0.29104 0.32226 0.54239 0.0
O27 O 0.25219 0.38529 0.60499 0.0
C28 C 0.30016 0.36543 0.76979 0.0
C29 C 0.39205 0.43316 0.68366 0.0
O30 O 0.26507 0.33267 0.56313 0.0
O31 O 0.32678 0.3477 0.56842 0.0
O32 O 0.28909 0.33952 0.71793 0.0
O33 O 0.31246 0.40113 0.74207 0.0
O34 O 0.37308 0.4111 0.62759 0.0
O35 O 0.36859 0.43612 0.73113 0.0
C36 C 0.34007 0.51619 0.7803 0.0
O37 O 0.36863 0.51857 0.73894 0.0
O38 O 0.30652 0.48161 0.7691 0.0
C39 C 0.36346 0.47752 0.55625 0.0
Tb40 Tb 0.84479 0.3516 1.02732 0.0
C41 C 0.79724 0.26583 0.95992 0.0
Tb42 Tb 0.89193 0.32547 0.97341 0.0
O43 O 0.85348 0.39968 0.95354 0.0
O44 O 0.85758 0.34983 0.91205 0.0
O45 O 0.79359 0.29336 0.996 0.0
C46 C 0.93159 0.30003 0.89125 0.0
O47 O 0.83356 0.2714 0.94523 0.0
C48 C 0.90206 0.318 0.11545 0.0
C49 C 0.9339 0.40952 1.02525 0.0
O50 O 0.89466 0.27704 0.91502 0.0
O51 O 0.9458 0.33779 0.91174 0.0
O52 O 0.91604 0.30616 1.06371 0.0
O53 O 0.88056 0.33178 0.08685 0.0
O54 O 0.93617 0.39006 0.96947 0.0
O55 O 0.90551 0.3861 1.07121 0.0
C56 C 0.79748 0.36125 0.12141 0.0
O57 O 0.82661 0.39045 1.08343 0.0
O58 O 0.79476 0.32666 0.10442 0.0
C59 C 0.86102 0.38546 0.89621 0.0
Tb60 Tb 0.46471 0.87501 0.34652 0.0
C61 C 0.49788 0.81725 0.30103 0.0
Tb62 Tb 0.53569 0.90901 0.3002 0.0
O63 O 0.43697 0.89803 0.27361 0.0
O64 O 0.47844 0.88156 0.23268 0.0
O65 O 0.4651 0.81826 0.32065 0.0
C66 C 0.59814 0.95021 0.21015 0.0
O67 O 0.53237 0.85141 0.29049 0.0
C68 C 0.5518 0.92037 0.44276 0.0
C69 C 0.52242 0.97085 0.35584 0.0
O70 O 0.58581 0.91325 0.23431 0.0
O71 O 0.57478 0.96287 0.23504 0.0
O72 O 0.57815 0.92823 0.39212 0.0
O73 O 0.5164 0.9035 0.41459 0.0
O74 O 0.5392 0.96598 0.29971 0.0
O75 O 0.49447 0.93742 0.39061 0.0
C76 C 0.39804 0.83299 0.42888 0.0
O77 O 0.407 0.86498 0.3897 0.0
O78 O 0.42623 0.8239 0.41964 0.0
C79 C 0.45333 0.89436 0.21566 0.0
Tb80 Tb 0.56293 0.49296 0.67986 0.0
C81 C 0.65179 0.51776 0.65002 0.0
Tb82 Tb 0.60074 0.55458 0.6445 0.0
O83 O 0.51172 0.45228 0.61573 0.0
O84 O 0.56669 0.50116 0.56548 0.0
O85 O 0.61467 0.487 0.64166 0.0
C86 C 0.64882 0.61618 0.55433 0.0
O87 O 0.65466 0.55221 0.66701 0.0
C88 C 0.59415 0.56884 0.7858 0.0
C89 C 0.52786 0.5517 0.64763 0.0
O90 O 0.65077 0.5834 0.56733 0.0
O91 O 0.62074 0.61501 0.59586 0.0
O92 O 0.62586 0.58995 0.74505 0.0
O93 O 0.56694 0.54001 0.74849 0.0
O94 O 0.55885 0.57048 0.60565 0.0
O95 O 0.52592 0.52251 0.6908 0.0
C96 C 0.5524 0.44088 0.78514 0.0
O97 O 0.52516 0.43448 0.73678 0.0
O98 O 0.58542 0.47614 0.77314 0.0
C99 C 0.52934 0.4699 0.55526 0.0
Tb100 Tb 0.04031 0.58738 1.02344 0.0
C101 C 0.10348 0.67709 0.98814 0.0
Tb102 Tb 0.01478 0.6263 0.97551 0.0
O103 O 0.02822 0.53655 0.95484 0.0
O104 O 0.03783 0.59237 0.90641 0.0
O105 O 0.09748 0.63974 0.98222 0.0
C106 C 0.00434 0.67711 0.88791 0.0
O107 O 0.07167 0.68018 1.00142 0.0
C108 C -0.0143 0.61402 0.11152 0.0
C109 C -0.05006 0.54535 0.98548 0.0
O110 O 0.03778 0.6766 0.89701 0.0
O111 O -0.02259 0.65007 0.93157 0.0
O112 O -0.03283 0.61589 1.055 0.0
O113 O 0.0212 0.62106 0.09216 0.0
O114 O -0.03524 0.57262 0.93487 0.0
O115 O -0.02532 0.54871 1.03787 0.0
C116 C 0.08124 0.57029 0.1213 0.0
O117 O 0.05125 0.54329 1.08283 0.0
O118 O 0.08795 0.6065 0.10449 0.0
C119 C 0.03019 0.5546 0.89428 0.0
Tb120 Tb 0.84886 0.48719 0.48417 0.0
C121 C 0.79738 0.5216 0.54905 0.0
Tb122 Tb 0.89228 0.56254 0.54078 0.0
O123 O 0.86699 0.454 0.55575 0.0
O124 O 0.85991 0.50129 0.59901 0.0
O125 O 0.79551 0.49002 0.51604 0.0
C126 C 0.93496 0.62525 0.62839 0.0
O127 O 0.8328 0.55453 0.56382 0.0
C128 C 0.90166 0.58083 0.39792 0.0
C129 C 0.94104 0.53233 0.47305 0.0
O130 O 0.89873 0.614 0.60493 0.0
O131 O 0.94636 0.60045 0.60462 0.0
O132 O 0.91477 0.60712 0.44969 0.0
O133 O 0.88188 0.54518 0.42808 0.0
O134 O 0.94019 0.54957 0.53288 0.0
O135 O 0.90824 0.51739 0.43298 0.0
C136 C 0.80648 0.42416 0.39637 0.0
O137 O 0.83644 0.42936 0.43651 0.0
O138 O 0.7997 0.45412 0.40707 0.0
C139 C 0.86902 0.47295 0.61445 0.0
Tb140 Tb 0.33077 0.86419 0.80872 0.0
C141 C 0.24574 0.82158 0.87619 0.0
Tb142 Tb 0.31064 0.91622 0.86506 0.0
O143 O 0.37537 0.86745 0.88375 0.0
O144 O 0.32895 0.87678 0.92393 0.0
O145 O 0.26986 0.81618 0.83364 0.0
C146 C 0.29044 0.96107 0.94427 0.0
O147 O 0.25606 0.85875 0.89844 0.0
C148 C 0.30295 0.92772 0.72574 0.0
C149 C 0.39426 0.95173 0.81106 0.0
O150 O 0.26502 0.92537 0.91779 0.0
O151 O 0.32767 0.9708 0.92861 0.0
O152 O 0.29252 0.9425 0.77794 0.0
O153 O 0.31478 0.90386 0.75139 0.0
O154 O 0.37606 0.95583 0.86713 0.0
O155 O 0.36962 0.92504 0.76474 0.0
C156 C 0.34095 0.81716 0.71341 0.0
O157 O 0.36882 0.84482 0.75434 0.0
O158 O 0.30673 0.81474 0.73033 0.0
C159 C 0.36274 0.8777 0.93996 0.0
Tb160 Tb 0.42603 0.3548 0.15098 0.0
C161 C 0.39937 0.26468 0.18039 0.0
Tb162 Tb 0.36133 0.31521 0.18764 0.0
O163 O 0.46214 0.406 0.21883 0.0
O164 O 0.41463 0.3491 0.26542 0.0
O165 O 0.43052 0.30196 0.18758 0.0
C166 C 0.30107 0.26718 0.27938 0.0
O167 O 0.36478 0.26151 0.16493 0.0
C168 C 0.34214 0.32131 1.05124 0.0
C169 C 0.37034 0.39165 0.17336 0.0
O170 O 0.33158 0.26278 0.26137 0.0
O171 O 0.30374 0.29758 0.24188 0.0
O172 O 0.31656 0.30003 0.10174 0.0
O173 O 0.37867 0.33871 1.07475 0.0
O174 O 0.35512 0.36413 0.22313 0.0
O175 O 0.39601 0.38983 0.12788 0.0
C176 C 0.48573 0.37408 1.05603 0.0
O177 O 0.48458 0.39944 0.10146 0.0
O178 O 0.45383 0.33779 1.06567 0.0
C179 C 0.44438 0.38707 0.2781 0.0
Tb180 Tb 0.04556 0.44722 0.48622 0.0
C181 C 0.10114 0.4146 0.52862 0.0
Tb182 Tb 0.01033 0.38015 0.53585 0.0
O183 O 0.03474 0.48666 0.55559 0.0
O184 O 0.03742 0.43729 0.60402 0.0
O185 O 0.10074 0.44897 0.52174 0.0
C186 C -0.0117 0.31607 0.62453 0.0
O187 O 0.06654 0.3798 0.52519 0.0
C188 C -0.01289 0.36119 0.39923 0.0
C189 C -0.04486 0.40659 0.49692 0.0
O190 O 0.02524 0.34358 0.60684 0.0
O191 O -0.03625 0.32495 0.59193 0.0
O192 O -0.03282 0.33989 0.45492 0.0
O193 O 0.02204 0.39183 0.4195 0.0
O194 O -0.03731 0.39265 0.55507 0.0
O195 O -0.01545 0.42308 0.44949 0.0
C196 C 0.08841 0.50852 0.39188 0.0
O197 O 0.05922 0.50486 0.43276 0.0
O198 O 0.09401 0.47805 0.40545 0.0
C199 C 0.03222 0.46861 0.61613 0.0
Tb200 Tb 0.56169 0.05973 0.82682 0.0
C201 C 0.65232 0.12462 0.84937 0.0
Tb202 Tb 0.59913 0.0358 0.85909 0.0
O203 O 0.51032 0.04319 0.89554 0.0
O204 O 0.56712 0.05545 0.94087 0.0
O205 O 0.61565 0.11877 0.85836 0.0
C206 C 0.64539 0.02083 0.94767 0.0
O207 O 0.65412 0.09223 0.83454 0.0
C208 C 0.59409 0.01125 0.72143 0.0
C209 C 0.52596 0.96534 0.84644 0.0
O210 O 0.64885 0.05654 0.93625 0.0
O211 O 0.61667 -0.00587 0.90674 0.0
O212 O 0.61581 0.0082 0.7715 0.0
O213 O 0.57558 0.02906 0.74569 0.0
O214 O 0.5526 -0.02168 0.89635 0.0
O215 O 0.52716 -0.00639 0.80265 0.0
C216 C 0.53892 0.10057 0.7395 0.0
O217 O 0.51487 0.07 0.78116 0.0
O218 O 0.57605 0.10871 0.74839 0.0
C219 C 0.52956 0.04665 0.95457 0.0
Tb220 Tb 0.46171 0.58825 0.13928 0.0
C221 C 0.50086 0.67355 0.21051 0.0
Tb222 Tb 0.53662 0.61453 0.20237 0.0
O223 O 0.42251 0.53984 0.21381 0.0
O224 O 0.47544 0.59126 0.25449 0.0
O225 O 0.47046 0.64677 0.17129 0.0
C226 C 0.59782 0.63198 0.29082 0.0
O227 O 0.53098 0.6677 0.22945 0.0
C228 C 0.55546 0.62349 1.06036 0.0
C229 C 0.49221 0.5306 0.1426 0.0
O230 O 0.58816 0.65835 0.26758 0.0
O231 O 0.57228 0.59565 0.26618 0.0
O232 O 0.58127 0.63522 0.11238 0.0
O233 O 0.5204 0.6103 0.08977 0.0
O234 O 0.51275 0.54913 0.20023 0.0
O235 O 0.48832 0.55434 0.09637 0.0
C236 C 0.40489 0.57822 1.04613 0.0
O237 O 0.40343 0.54929 0.08636 0.0
O238 O 0.43836 0.61268 1.0585 0.0
C239 C 0.44384 0.55532 0.27123 0.0
C240 C 0.36344 0.15485 0.23442 0.0
C241 C 0.39863 0.15898 0.26662 0.0
H242 H 0.33634 0.18517 0.18089 0.0
C243 C 0.43483 0.19782 0.26716 0.0
H244 H 0.33516 0.12524 0.23324 0.0
C245 C 0.43573 0.2321 0.2362 0.0
C246 C 0.40037 0.22804 0.20474 0.0
H247 H 0.46259 0.20171 0.29091 0.0
H248 H 0.46381 0.26184 0.23821 0.0
C249 C 0.36427 0.18911 0.20392 0.0
C250 C 0.17322 0.37714 0.57794 0.0
C251 C 0.20828 0.41426 0.5972 0.0
H252 H 0.11145 0.34815 0.54099 0.0
C253 C 0.20849 0.45162 0.5906 0.0
H254 H 0.17238 0.34798 0.58256 0.0
C255 C 0.1741 0.45189 0.56578 0.0
C256 C 0.13869 0.41473 0.54796 0.0
H257 H 0.23537 0.48084 0.60423 0.0
H258 H 0.17504 0.48112 0.56201 0.0
C259 C 0.13852 0.37733 0.55397 0.0
C260 C 0.76211 0.19687 0.90134 0.0
C261 C 0.76017 0.23001 0.93071 0.0
H262 H 0.7296 0.13792 0.85158 0.0
C263 C 0.72284 0.22952 0.9291 0.0
H264 H 0.79042 0.19643 0.90164 0.0
C265 C 0.68789 0.19609 0.89967 0.0
C266 C 0.68973 0.1626 0.87154 0.0
H267 H 0.72056 0.255 0.95046 0.0
H268 H 0.65935 0.19607 0.90035 0.0
C269 C 0.72726 0.16351 0.87213 0.0
C270 C 0.46248 0.70981 0.23558 0.0
C271 C 0.4994 0.70943 0.23733 0.0
H272 H 0.43269 0.74424 0.25637 0.0
C273 C 0.53449 0.74323 0.26584 0.0
H274 H 0.43472 0.68381 0.21476 0.0
C275 C 0.53319 0.77755 0.28941 0.0
C276 C 0.49668 0.77848 0.28577 0.0
H277 H 0.56319 0.74362 0.26838 0.0
H278 H 0.56111 0.80381 0.30926 0.0
C279 C 0.46106 0.74404 0.26016 0.0
C280 C 0.72656 0.55426 0.62614 0.0
C281 C 0.68864 0.51706 0.62709 0.0
H282 H 0.79006 0.58492 0.5996 0.0
C283 C 0.68634 0.48106 0.60068 0.0
H284 H 0.72934 0.58276 0.64499 0.0
C285 C 0.72156 0.48237 0.57407 0.0
C286 C 0.75947 0.51974 0.57351 0.0
H287 H 0.6574 0.45209 0.60004 0.0
H288 H 0.71915 0.45416 0.55456 0.0
C289 C 0.76146 0.55559 0.59965 0.0
C290 C 0.18144 0.78868 0.94939 0.0
C291 C 0.2091 0.78479 0.90501 0.0
H292 H 0.12641 0.75725 1.01173 0.0
C293 C 0.20288 0.74521 0.89146 0.0
H294 H 0.18559 0.81876 0.96108 0.0
C295 C 0.16958 0.71017 0.92155 0.0
C296 C 0.14163 0.71402 0.96498 0.0
H297 H 0.22382 0.74117 0.85776 0.0
H298 H 0.16508 0.68005 0.90898 0.0
C299 C 0.14784 0.75353 0.97885 0.0
C300 C 0.53311 0.06643 0.08977 0.0
C301 C 0.51063 0.05025 1.0263 0.0
H302 H 0.53409 0.084 0.19964 0.0
C303 C 0.46862 0.03927 1.03044 0.0
H304 H 0.56529 0.07607 0.09045 0.0
C305 C 0.44998 0.04326 0.09449 0.0
C306 C 0.47254 0.05923 0.15813 0.0
H307 H 0.44962 0.02738 0.98338 0.0
H308 H 0.41772 0.03331 0.09411 0.0
C309 C 0.51471 0.07108 0.15322 0.0
C310 C 0.43914 0.55597 0.41175 0.0
C311 C 0.42313 0.53723 0.34527 0.0
H312 H 0.43115 0.55472 0.52613 0.0
C313 C 0.3845 0.49948 0.34936 0.0
H314 H 0.46749 0.58547 0.41314 0.0
C315 C 0.36528 0.47935 0.41544 0.0
C316 C 0.38192 0.49752 0.48197 0.0
H317 H 0.36845 0.48503 0.3006 0.0
H318 H 0.33691 0.44988 0.41408 0.0
C319 C 0.41824 0.53739 0.47761 0.0
C320 C 0.86964 0.39403 0.75519 0.0
C321 C 0.86098 0.40533 0.82207 0.0
H322 H 0.87638 0.40375 0.64083 0.0
C323 C 0.85348 0.43896 0.81867 0.0
H324 H 0.87518 0.36854 0.75279 0.0
C325 C 0.85672 0.46137 0.75408 0.0
C326 C 0.86605 0.45059 0.68739 0.0
H327 H 0.84563 0.44891 0.86734 0.0
H328 H 0.85144 0.48704 0.75662 0.0
C329 C 0.87124 0.41543 0.69006 0.0
C330 C 0.37993 0.90036 1.07416 0.0
C331 C 0.38243 0.87938 1.01372 0.0
H332 H 0.39963 0.92151 0.182 0.0
C333 C 0.40923 0.8634 1.02099 0.0
H334 H 0.36068 0.91388 1.07219 0.0
C335 C 0.43282 0.86872 1.08386 0.0
C336 C 0.43073 0.89004 0.14402 0.0
H337 H 0.41285 0.84715 0.97653 0.0
H338 H 0.45253 0.85573 0.08532 0.0
C339 C 0.40322 0.90529 0.13749 0.0
C340 C 0.50369 0.44524 0.35071 0.0
C341 C 0.46545 0.40706 0.35038 0.0
H342 H 0.55343 0.49443 0.41088 0.0
C343 C 0.44917 0.39055 0.41882 0.0
H344 H 0.51799 0.45993 0.30026 0.0
C345 C 0.46994 0.41101 0.48324 0.0
C346 C 0.50838 0.44899 0.48345 0.0
H347 H 0.42008 0.36187 0.4229 0.0
H348 H 0.45545 0.39669 0.53379 0.0
C349 C 0.52456 0.46551 0.41503 0.0
C350 C 0.02877 0.49425 0.82206 0.0
C351 C 0.03206 0.53396 0.82202 0.0
H352 H 0.02585 0.44298 0.76307 0.0
C353 C 0.03653 0.55146 0.7528 0.0
H354 H 0.02565 0.47877 0.87278 0.0
C355 C 0.03728 0.5306 0.68875 0.0
C356 C 0.03327 0.49057 0.68869 0.0
H357 H 0.0394 0.58152 0.74769 0.0
H358 H 0.0411 0.54638 0.63812 0.0
C359 C 0.02914 0.47323 0.75798 0.0
C360 C 0.24729 0.95178 1.04813 0.0
C361 C 0.28037 -0.02127 1.00387 0.0
H362 H 0.22784 0.93477 0.15718 0.0
C363 C 0.31079 0.01702 1.02948 0.0
H364 H 0.22317 0.92228 1.02846 0.0
C365 C 0.31231 0.02476 0.10212 0.0
C366 C 0.28397 -0.00622 0.14842 0.0
H367 H 0.33637 0.03816 0.99574 0.0
H368 H 0.33908 0.05199 0.12295 0.0
C369 C 0.24979 0.95871 0.12148 0.0
C370 C 0.25353 0.2665 0.37032 0.0
C371 C 0.28645 0.26107 0.35324 0.0
H372 H 0.22852 0.28962 0.44739 0.0
C373 C 0.31427 0.26539 0.40682 0.0
H374 H 0.23197 0.26356 0.32949 0.0
C375 C 0.31347 0.28206 0.47252 0.0
C376 C 0.28385 0.29279 0.486 0.0
H377 H 0.34022 0.2618 0.3948 0.0
H378 H 0.33823 0.29013 0.50983 0.0
C379 C 0.25189 0.28183 0.4373 0.0
C380 C 0.93687 0.26664 0.70917 0.0
C381 C -0.02202 0.29537 0.69379 0.0
H382 H 0.88965 0.24434 0.78856 0.0
C383 C 0.00572 0.31506 0.74981 0.0
H384 H 0.91514 0.25134 0.66635 0.0
C385 C -0.00906 0.31261 0.81886 0.0
C386 C 0.94882 0.28895 0.83206 0.0
H387 H 0.03764 0.33743 0.73892 0.0
H388 H 0.01168 0.33272 0.85969 0.0
C389 C 0.92235 0.26291 0.77891 0.0
C390 C 0.64279 0.01411 0.14338 0.0
C391 C 0.62696 -0.02847 0.1517 0.0
H392 H 0.66415 0.06453 1.06987 0.0
C393 C 0.63024 0.94887 0.09556 0.0
H394 H 0.64038 0.03202 0.18638 0.0
C395 C 0.64325 0.96737 1.0281 0.0
C396 C 0.65333 0.00854 1.01741 0.0
H397 H 0.61795 0.9159 0.1012 0.0
H398 H 0.64047 0.94818 0.9829 0.0
C399 C 0.65665 0.03277 1.07666 0.0
C400 C 0.65514 0.60895 0.42546 0.0
C401 C 0.6556 0.63367 0.48204 0.0
H402 H 0.63442 0.5882 0.31919 0.0
C403 C 0.64801 0.66582 0.46788 0.0
H404 H 0.66093 0.58392 0.43485 0.0
C405 C 0.63395 0.669 0.4005 0.0
C406 C 0.62653 0.63933 0.34834 0.0
H407 H 0.64824 0.68518 0.51081 0.0
H408 H 0.62422 0.69125 0.39243 0.0
C409 C 0.63967 0.61111 0.35928 0.0
C410 C -0.04823 0.67401 0.80656 0.0
C411 C -0.00744 0.68458 0.81745 0.0
H412 H 0.90095 0.64673 0.7347 0.0
C413 C 0.01677 0.68708 0.75848 0.0
H414 H 0.9326 0.67192 0.85139 0.0
C415 C -0.00163 0.67126 0.69288 0.0
C416 C -0.04379 0.6548 0.68519 0.0
H417 H 0.04838 0.69531 0.76535 0.0
H418 H 0.01624 0.66818 0.65059 0.0
C419 C 0.93361 0.65931 0.74008 0.0
C420 C 0.46185 -0.00807 0.42939 0.0
C421 C 0.43977 -0.01745 0.36438 0.0
H422 H 0.52045 0.01411 0.47724 0.0
C423 C 0.46071 -0.00972 0.29899 0.0
H424 H 0.44698 -0.01133 0.48064 0.0
C425 C 0.50317 0.0108 0.29945 0.0
C426 C 0.52141 0.00829 0.36246 0.0
H427 H 0.44518 -0.01489 0.24823 0.0
H428 H 0.519 0.01619 0.24859 0.0
C429 C 0.50408 0.00958 0.4275 0.0
C430 C 0.44473 0.48105 0.59839 0.0
C431 C 0.42947 0.47196 0.66902 0.0
H432 H 0.48607 0.52774 0.52592 0.0
C433 C 0.44146 0.50458 0.71819 0.0
H434 H 0.43418 0.45748 0.55762 0.0
C435 C 0.46885 0.54497 0.69677 0.0
C436 C 0.49055 0.55068 0.63316 0.0
H437 H 0.42885 0.49916 0.77201 0.0
H438 H 0.48035 0.56911 0.73667 0.0
C439 C 0.47226 0.52167 0.57889 0.0
C440 C 0.91449 0.45964 1.05989 0.0
C441 C 0.93493 0.44777 1.01068 0.0
H442 H 0.88497 0.4943 1.07529 0.0
C443 C 0.94073 0.46222 0.93953 0.0
H444 H 0.90782 0.44775 0.11438 0.0
C445 C 0.92651 0.48804 0.91893 0.0
C446 C 0.91493 0.50571 0.97254 0.0
H447 H -0.04683 0.4513 0.89881 0.0
H448 H 0.93369 0.50122 0.86531 0.0
C449 C 0.89917 0.48413 1.03661 0.0
C450 C 0.9436 0.45292 0.55628 0.0
C451 C 0.9308 0.42537 0.49909 0.0
H452 H -0.02665 0.51559 0.58707 0.0
C453 C 0.92652 0.43846 0.43082 0.0
H454 H 0.94608 0.44331 0.60997 0.0
C455 C 0.94854 0.48047 0.41571 0.0
C456 C -0.03961 0.50808 0.47321 0.0
H457 H 0.91589 0.41711 0.38631 0.0
H458 H 0.94782 0.49071 0.36153 0.0
C459 C -0.03709 0.4947 0.54203 0.0
C460 C 0.44342 0.95034 0.89539 0.0
C461 C 0.43013 0.94844 0.82445 0.0
H462 H 0.4798 0.93778 0.96586 0.0
C463 C 0.44182 0.92958 0.77159 0.0
H464 H 0.43271 0.96149 0.93865 0.0
C465 C 0.46747 0.9147 0.78976 0.0
C466 C 0.48777 0.92733 0.8551 0.0
H467 H 0.43039 0.92537 0.71725 0.0
H468 H 0.47926 0.90392 0.7475 0.0
C469 C 0.46795 0.93393 0.91186 0.0
C470 C 0.42355 0.47973 0.10193 0.0
C471 C 0.45459 0.49172 0.15386 0.0
H472 H 0.36004 0.44192 1.07927 0.0
C473 C 0.44411 0.47591 0.22394 0.0
H474 H 0.43027 0.49252 1.04804 0.0
C475 C 0.4035 0.44869 0.24101 0.0
C476 C 0.37545 0.43134 0.18521 0.0
H477 H 0.46654 0.48624 0.2664 0.0
H478 H 0.39634 0.43454 0.29394 0.0
C479 C 0.38302 0.45311 0.12093 0.0
C480 C 0.35012 0.96036 0.61697 0.0
C481 C 0.31253 0.94776 0.65188 0.0
H482 H 0.39061 -0.00696 0.52967 0.0
C483 C 0.28653 0.95985 0.61981 0.0
H484 H 0.37165 0.95279 0.63977 0.0
C485 C 0.29709 -0.01762 0.5543 0.0
C486 C 0.33505 -0.0043 0.52 0.0
H487 H 0.25766 0.95158 0.6453 0.0
H488 H 0.27549 -0.01034 0.53058 0.0
C489 C 0.3614 -0.01562 0.55324 0.0
C490 C 0.29491 0.30469 0.94227 0.0
C491 C 0.3306 0.33261 0.97984 0.0
H492 H 0.25793 0.29261 0.84759 0.0
C493 C 0.35483 0.37251 0.94925 0.0
H494 H 0.27519 0.27381 0.96355 0.0
C495 C 0.34385 0.38403 0.88413 0.0
C496 C 0.30891 0.35566 0.84512 0.0
H497 H 0.38233 0.39528 0.97627 0.0
H498 H 0.36368 0.41495 0.86341 0.0
C499 C 0.28481 0.31568 0.87561 0.0
C500 C 0.91808 0.29905 0.23909 0.0
C501 C 0.92275 0.32958 0.18927 0.0
H502 H 0.93369 0.28473 0.34223 0.0
C503 C -0.04869 0.37111 0.20791 0.0
H504 H 0.89735 0.26675 0.22719 0.0
C505 C -0.02626 0.38152 0.27335 0.0
C506 C -0.0317 0.35091 0.32386 0.0
H507 H -0.04293 0.39589 0.17124 0.0
H508 H -0.00539 0.41379 0.28521 0.0
C509 C 0.93959 0.30949 0.30523 0.0
C510 C 0.545 -0.02733 0.61765 0.0
C511 C 0.58378 -0.01189 0.64989 0.0
H512 H 0.50398 0.9383 0.53174 0.0
C513 C 0.61141 -0.02057 0.61407 0.0
H514 H 0.52237 -0.02208 0.64299 0.0
C515 C 0.60118 0.95745 0.54812 0.0
C516 C 0.56225 0.94167 0.51622 0.0
H517 H 0.64146 -0.00969 0.63649 0.0
H518 H 0.62393 0.9527 0.52205 0.0
C519 C 0.53427 0.94945 0.55327 0.0
C520 C 0.60487 0.63165 0.95832 0.0
C521 C 0.56437 0.61241 0.98595 0.0
H522 H 0.64606 0.63433 0.87519 0.0
C523 C 0.53396 0.57962 0.94501 0.0
H524 H 0.62945 0.65694 0.98736 0.0
C525 C 0.54382 0.56571 0.88152 0.0
C526 C 0.58439 0.58453 0.85449 0.0
H527 H 0.50239 0.56364 0.96281 0.0
H528 H 0.51929 0.53983 0.85344 0.0
C529 C 0.61458 0.6184 0.89371 0.0
C530 C 0.92648 0.57055 0.19863 0.0
C531 C -0.03369 0.60498 0.18689 0.0
H532 H 0.87582 0.53511 0.27177 0.0
C533 C -0.01562 0.63151 0.2459 0.0
H534 H 0.91103 0.54945 0.15517 0.0
C535 C -0.03689 0.62427 0.31262 0.0
C536 C 0.92324 0.58958 0.32431 0.0
H537 H 0.01457 0.65865 0.23998 0.0
H538 H -0.02167 0.64585 0.35575 0.0
C539 C 0.90587 0.56247 0.26591 0.0
C540 C 0.47963 0.08354 0.57298 0.0
C541 C 0.50628 0.1187 0.53265 0.0
H542 H 0.46859 0.0511 0.67189 0.0
C543 C 0.54171 0.15079 0.56349 0.0
H544 H 0.45226 0.05847 0.54919 0.0
C545 C 0.55142 0.14649 0.63408 0.0
C546 C 0.52522 0.11049 0.67359 0.0
H547 H 0.56234 0.17812 0.53252 0.0
H548 H 0.57996 0.17033 0.65679 0.0
C549 C 0.48874 0.07961 0.64322 0.0
C550 C 0.32652 0.51867 0.90843 0.0
C551 C 0.34878 0.53931 0.84649 0.0
H552 H 0.32786 0.51512 1.02278 0.0
C553 C 0.385 0.57762 0.85197 0.0
H554 H 0.2987 0.48874 0.90517 0.0
C555 C 0.40091 0.59326 0.91915 0.0
C556 C 0.38128 0.56993 0.98082 0.0
H557 H 0.40273 0.59364 0.8046 0.0
H558 H 0.4307 0.62116 0.92227 0.0
C559 C 0.34313 0.5336 0.97557 0.0
C560 C 0.81055 0.36058 0.2488 0.0
C561 C 0.79026 0.36885 0.19447 0.0
H562 H 0.831 0.37138 0.35694 0.0
C563 C 0.76973 0.38996 0.20982 0.0
H564 H 0.8276 0.34532 0.23696 0.0
C565 C 0.77112 0.40441 0.27911 0.0
C566 C 0.79407 0.39875 0.33219 0.0
H567 H 0.75446 0.39694 0.16783 0.0
H568 H 0.757 0.42265 0.2896 0.0
C569 C 0.81247 0.37544 0.31732 0.0
C570 C 0.37324 0.8565 0.52816 0.0
C571 C 0.37503 0.824 0.49565 0.0
H572 H 0.36225 0.87948 0.62441 0.0
C573 C 0.36279 0.78718 0.53405 0.0
H574 H 0.38363 0.88565 0.50044 0.0
C575 C 0.3501 0.78357 0.60554 0.0
C576 C 0.35064 0.81716 0.63836 0.0
H577 H 0.36462 0.7621 0.50972 0.0
H578 H 0.3414 0.75551 0.63557 0.0
C579 C 0.36159 0.85324 0.59921 0.0
C580 C 0.55974 0.44385 0.91631 0.0
C581 C 0.54256 0.41999 0.85474 0.0
H582 H 0.55456 0.44771 1.02975 0.0
C583 C 0.5114 0.37858 0.86149 0.0
H584 H 0.58348 0.47613 0.91206 0.0
C585 C 0.4957 0.36198 0.92915 0.0
C586 C 0.51016 0.38716 0.99006 0.0
H587 H 0.49775 0.35984 0.81441 0.0
H588 H 0.46997 0.33061 0.93296 0.0
C589 C 0.54325 0.42769 0.98358 0.0
C590 C 0.09735 0.56738 0.31785 0.0
C591 C 0.09922 0.53125 0.32391 0.0
H592 H 0.0917 0.60902 0.24689 0.0
C593 C 0.10218 0.51197 0.26185 0.0
H594 H 0.09446 0.5823 0.36515 0.0
C595 C 0.09884 0.52615 0.19439 0.0
C596 C 0.09426 0.5607 0.18863 0.0
H597 H 0.10309 0.48368 0.26548 0.0
H598 H 0.09766 0.50896 0.14719 0.0
C599 C 0.09567 0.5825 0.25037 0.0
loop_
_geom_bond_atom_site_label_1
_geom_bond_atom_site_label_2
_geom_bond_distance
_geom_bond_site_symmetry_2
_ccdc_geom_bond_type
Tb0 O3 2.453 . S
Tb0 O4 2.596 . S
Tb0 O5 2.374 . S
Tb0 O13 2.343 . S
Tb0 O15 2.353 . S
Tb0 O17 2.427 . S
Tb0 O18 2.513 . S
C1 O5 1.251 . S
C1 O7 1.263 . S
Tb2 O4 2.343 . S
Tb2 O7 2.353 . S
Tb2 O10 2.427 . S
Tb2 O11 2.513 . S
Tb2 O12 2.453 . S
Tb2 O13 2.596 . S
Tb2 O14 2.374 . S
O3 Tb0 2.453 . S
O3 C19 1.245 . S
O4 Tb0 2.596 . S
O4 Tb2 2.343 . S
O4 C19 1.259 . S
O5 Tb0 2.374 . S
O5 C1 1.251 . S
C6 O10 1.275 . S
C6 O11 1.246 . S
O7 C1 1.263 . S
O7 Tb2 2.353 . S
C8 O12 1.245 . S
C8 O13 1.259 . S
C9 O14 1.250 . S
C9 O15 1.263 . S
O10 Tb2 2.427 . S
O10 C6 1.275 . S
O11 Tb2 2.513 . S
O11 C6 1.246 . S
O12 Tb2 2.453 . S
O12 C8 1.245 . S
O13 Tb0 2.343 . S
O13 Tb2 2.596 . S
O13 C8 1.259 . S
O14 Tb2 2.374 . S
O14 C9 1.250 . S
O15 Tb0 2.353 . S
O15 C9 1.263 . S
C16 O17 1.275 . S
C16 O18 1.246 . S
O17 Tb0 2.427 . S
O17 C16 1.275 . S
O18 Tb0 2.513 . S
O18 C16 1.246 . S
C19 O3 1.245 . S
C19 O4 1.259 . S
Tb20 O23 2.453 . S
Tb20 O24 2.596 . S
Tb20 O25 2.374 . S
Tb20 O33 2.343 . S
Tb20 O35 2.353 . S
Tb20 O37 2.427 . S
Tb20 O38 2.513 . S
C21 O25 1.251 . S
C21 O27 1.263 . S
Tb22 O24 2.343 . S
Tb22 O27 2.353 . S
Tb22 O30 2.427 . S
Tb22 O31 2.513 . S
Tb22 O32 2.453 . S
Tb22 O33 2.596 . S
Tb22 O34 2.374 . S
O23 Tb20 2.453 . S
O23 C39 1.245 . S
O24 Tb20 2.596 . S
O24 Tb22 2.343 . S
O24 C39 1.259 . S
O25 Tb20 2.374 . S
O25 C21 1.251 . S
C26 O30 1.275 . S
C26 O31 1.246 . S
O27 C21 1.263 . S
O27 Tb22 2.353 . S
C28 O32 1.245 . S
C28 O33 1.259 . S
C29 O34 1.250 . S
C29 O35 1.263 . S
O30 Tb22 2.427 . S
O30 C26 1.275 . S
O31 Tb22 2.513 . S
O31 C26 1.246 . S
O32 Tb22 2.453 . S
O32 C28 1.245 . S
O33 Tb20 2.343 . S
O33 Tb22 2.596 . S
O33 C28 1.259 . S
O34 Tb22 2.374 . S
O34 C29 1.250 . S
O35 Tb20 2.353 . S
O35 C29 1.263 . S
C36 O37 1.275 . S
C36 O38 1.246 . S
O37 Tb20 2.427 . S
O37 C36 1.275 . S
O38 Tb20 2.513 . S
O38 C36 1.246 . S
C39 O23 1.245 . S
C39 O24 1.259 . S
Tb40 O43 2.453 . S
Tb40 O44 2.596 . S
Tb40 O45 2.374 . S
Tb40 O53 2.343 . S
Tb40 O55 2.353 . S
Tb40 O57 2.427 1_556 S
Tb40 O58 2.513 1_556 S
C41 O45 1.251 . S
C41 O47 1.263 . S
Tb42 O44 2.343 . S
Tb42 O47 2.353 . S
Tb42 O50 2.427 . S
Tb42 O51 2.513 . S
Tb42 O52 2.453 . S
Tb42 O53 2.596 . S
Tb42 O54 2.374 . S
O43 Tb40 2.453 . S
O43 C59 1.245 . S
O44 Tb40 2.596 . S
O44 Tb42 2.343 . S
O44 C59 1.259 . S
O45 Tb40 2.374 . S
O45 C41 1.251 . S
C46 O50 1.275 . S
C46 O51 1.246 . S
O47 C41 1.263 . S
O47 Tb42 2.353 . S
C48 O52 1.245 1_554 S
C48 O53 1.259 1_554 S
C49 O54 1.250 . S
C49 O55 1.263 . S
O50 Tb42 2.427 . S
O50 C46 1.275 . S
O51 Tb42 2.513 . S
O51 C46 1.246 . S
O52 Tb42 2.453 . S
O52 C48 1.245 1_556 S
O53 Tb40 2.343 . S
O53 Tb42 2.596 . S
O53 C48 1.259 1_556 S
O54 Tb42 2.374 . S
O54 C49 1.250 . S
O55 Tb40 2.353 . S
O55 C49 1.263 . S
C56 O57 1.275 . S
C56 O58 1.246 . S
O57 Tb40 2.427 1_554 S
O57 C56 1.275 . S
O58 Tb40 2.513 1_554 S
O58 C56 1.246 . S
C59 O43 1.245 . S
C59 O44 1.259 . S
Tb60 O63 2.453 . S
Tb60 O64 2.596 . S
Tb60 O65 2.374 . S
Tb60 O73 2.343 . S
Tb60 O75 2.353 . S
Tb60 O77 2.427 . S
Tb60 O78 2.513 . S
C61 O65 1.251 . S
C61 O67 1.263 . S
Tb62 O64 2.343 . S
Tb62 O67 2.353 . S
Tb62 O70 2.427 . S
Tb62 O71 2.513 . S
Tb62 O72 2.453 . S
Tb62 O73 2.596 . S
Tb62 O74 2.374 . S
O63 Tb60 2.453 . S
O63 C79 1.245 . S
O64 Tb60 2.596 . S
O64 Tb62 2.343 . S
O64 C79 1.259 . S
O65 Tb60 2.374 . S
O65 C61 1.251 . S
C66 O70 1.275 . S
C66 O71 1.246 . S
O67 C61 1.263 . S
O67 Tb62 2.353 . S
C68 O72 1.245 . S
C68 O73 1.259 . S
C69 O74 1.250 . S
C69 O75 1.263 . S
O70 Tb62 2.427 . S
O70 C66 1.275 . S
O71 Tb62 2.513 . S
O71 C66 1.246 . S
O72 Tb62 2.453 . S
O72 C68 1.245 . S
O73 Tb60 2.343 . S
O73 Tb62 2.596 . S
O73 C68 1.259 . S
O74 Tb62 2.374 . S
O74 C69 1.250 . S
O75 Tb60 2.353 . S
O75 C69 1.263 . S
C76 O77 1.275 . S
C76 O78 1.246 . S
O77 Tb60 2.427 . S
O77 C76 1.275 . S
O78 Tb60 2.513 . S
O78 C76 1.246 . S
C79 O63 1.245 . S
C79 O64 1.259 . S
Tb80 O83 2.453 . S
Tb80 O84 2.596 . S
Tb80 O85 2.374 . S
Tb80 O93 2.343 . S
Tb80 O95 2.353 . S
Tb80 O97 2.427 . S
Tb80 O98 2.513 . S
C81 O85 1.251 . S
C81 O87 1.263 . S
Tb82 O84 2.343 . S
Tb82 O87 2.353 . S
Tb82 O90 2.427 . S
Tb82 O91 2.513 . S
Tb82 O92 2.453 . S
Tb82 O93 2.596 . S
Tb82 O94 2.374 . S
O83 Tb80 2.453 . S
O83 C99 1.245 . S
O84 Tb80 2.596 . S
O84 Tb82 2.343 . S
O84 C99 1.259 . S
O85 Tb80 2.374 . S
O85 C81 1.251 . S
C86 O90 1.275 . S
C86 O91 1.246 . S
O87 C81 1.263 . S
O87 Tb82 2.353 . S
C88 O92 1.245 . S
C88 O93 1.259 . S
C89 O94 1.250 . S
C89 O95 1.263 . S
O90 Tb82 2.427 . S
O90 C86 1.275 . S
O91 Tb82 2.513 . S
O91 C86 1.246 . S
O92 Tb82 2.453 . S
O92 C88 1.245 . S
O93 Tb80 2.343 . S
O93 Tb82 2.596 . S
O93 C88 1.259 . S
O94 Tb82 2.374 . S
O94 C89 1.250 . S
O95 Tb80 2.353 . S
O95 C89 1.263 . S
C96 O97 1.275 . S
C96 O98 1.246 . S
O97 Tb80 2.427 . S
O97 C96 1.275 . S
O98 Tb80 2.513 . S
O98 C96 1.246 . S
C99 O83 1.245 . S
C99 O84 1.259 . S
Tb100 O103 2.453 . S
Tb100 O104 2.596 . S
Tb100 O105 2.374 . S
Tb100 O113 2.343 . S
Tb100 O115 2.353 . S
Tb100 O117 2.427 1_556 S
Tb100 O118 2.513 1_556 S
C101 O105 1.251 . S
C101 O107 1.263 . S
Tb102 O104 2.343 . S
Tb102 O107 2.353 . S
Tb102 O110 2.427 . S
Tb102 O111 2.513 . S
Tb102 O112 2.453 . S
Tb102 O113 2.596 . S
Tb102 O114 2.374 . S
O103 Tb100 2.453 . S
O103 C119 1.245 . S
O104 Tb100 2.596 . S
O104 Tb102 2.343 . S
O104 C119 1.259 . S
O105 Tb100 2.374 . S
O105 C101 1.251 . S
C106 O110 1.275 . S
C106 O111 1.246 . S
O107 C101 1.263 . S
O107 Tb102 2.353 . S
C108 O112 1.245 1_554 S
C108 O113 1.259 1_554 S
C109 O114 1.250 . S
C109 O115 1.263 . S
O110 Tb102 2.427 . S
O110 C106 1.275 . S
O111 Tb102 2.513 . S
O111 C106 1.246 . S
O112 Tb102 2.453 . S
O112 C108 1.245 1_556 S
O113 Tb100 2.343 . S
O113 Tb102 2.596 . S
O113 C108 1.259 1_556 S
O114 Tb102 2.374 . S
O114 C109 1.250 . S
O115 Tb100 2.353 . S
O115 C109 1.263 . S
C116 O117 1.275 . S
C116 O118 1.246 . S
O117 Tb100 2.427 1_554 S
O117 C116 1.275 . S
O118 Tb100 2.513 1_554 S
O118 C116 1.246 . S
C119 O103 1.245 . S
C119 O104 1.259 . S
Tb120 O123 2.453 . S
Tb120 O124 2.596 . S
Tb120 O125 2.374 . S
Tb120 O133 2.343 . S
Tb120 O135 2.353 . S
Tb120 O137 2.427 . S
Tb120 O138 2.513 . S
C121 O125 1.251 . S
C121 O127 1.263 . S
Tb122 O124 2.343 . S
Tb122 O127 2.353 . S
Tb122 O130 2.427 . S
Tb122 O131 2.513 . S
Tb122 O132 2.453 . S
Tb122 O133 2.596 . S
Tb122 O134 2.374 . S
O123 Tb120 2.453 . S
O123 C139 1.245 . S
O124 Tb120 2.596 . S
O124 Tb122 2.343 . S
O124 C139 1.259 . S
O125 Tb120 2.374 . S
O125 C121 1.251 . S
C126 O130 1.275 . S
C126 O131 1.246 . S
O127 C121 1.263 . S
O127 Tb122 2.353 . S
C128 O132 1.245 . S
C128 O133 1.259 . S
C129 O134 1.250 . S
C129 O135 1.263 . S
O130 Tb122 2.427 . S
O130 C126 1.275 . S
O131 Tb122 2.513 . S
O131 C126 1.246 . S
O132 Tb122 2.453 . S
O132 C128 1.245 . S
O133 Tb120 2.343 . S
O133 Tb122 2.596 . S
O133 C128 1.259 . S
O134 Tb122 2.374 . S
O134 C129 1.250 . S
O135 Tb120 2.353 . S
O135 C129 1.263 . S
C136 O137 1.275 . S
C136 O138 1.246 . S
O137 Tb120 2.427 . S
O137 C136 1.275 . S
O138 Tb120 2.513 . S
O138 C136 1.246 . S
C139 O123 1.245 . S
C139 O124 1.259 . S
Tb140 O143 2.453 . S
Tb140 O144 2.596 . S
Tb140 O145 2.374 . S
Tb140 O153 2.343 . S
Tb140 O155 2.353 . S
Tb140 O157 2.427 . S
Tb140 O158 2.513 . S
C141 O145 1.251 . S
C141 O147 1.263 . S
Tb142 O144 2.343 . S
Tb142 O147 2.353 . S
Tb142 O150 2.427 . S
Tb142 O151 2.513 . S
Tb142 O152 2.453 . S
Tb142 O153 2.596 . S
Tb142 O154 2.374 . S
O143 Tb140 2.453 . S
O143 C159 1.245 . S
O144 Tb140 2.596 . S
O144 Tb142 2.343 . S
O144 C159 1.259 . S
O145 Tb140 2.374 . S
O145 C141 1.251 . S
C146 O150 1.275 . S
C146 O151 1.246 . S
O147 C141 1.263 . S
O147 Tb142 2.353 . S
C148 O152 1.245 . S
C148 O153 1.259 . S
C149 O154 1.250 . S
C149 O155 1.263 . S
O150 Tb142 2.427 . S
O150 C146 1.275 . S
O151 Tb142 2.513 . S
O151 C146 1.246 . S
O152 Tb142 2.453 . S
O152 C148 1.245 . S
O153 Tb140 2.343 . S
O153 Tb142 2.596 . S
O153 C148 1.259 . S
O154 Tb142 2.374 . S
O154 C149 1.250 . S
O155 Tb140 2.353 . S
O155 C149 1.263 . S
C156 O157 1.275 . S
C156 O158 1.246 . S
O157 Tb140 2.427 . S
O157 C156 1.275 . S
O158 Tb140 2.513 . S
O158 C156 1.246 . S
C159 O143 1.245 . S
C159 O144 1.259 . S
Tb160 O163 2.453 . S
Tb160 O164 2.596 . S
Tb160 O165 2.374 . S
Tb160 O173 2.343 . S
Tb160 O175 2.353 . S
Tb160 O177 2.427 1_554 S
Tb160 O178 2.513 1_554 S
C161 O165 1.251 . S
C161 O167 1.263 . S
Tb162 O164 2.343 . S
Tb162 O167 2.353 . S
Tb162 O170 2.427 . S
Tb162 O171 2.513 . S
Tb162 O172 2.453 . S
Tb162 O173 2.596 . S
Tb162 O174 2.374 . S
O163 Tb160 2.453 . S
O163 C179 1.245 . S
O164 Tb160 2.596 . S
O164 Tb162 2.343 . S
O164 C179 1.259 . S
O165 Tb160 2.374 . S
O165 C161 1.251 . S
C166 O170 1.275 . S
C166 O171 1.246 . S
O167 C161 1.263 . S
O167 Tb162 2.353 . S
C168 O172 1.245 1_556 S
C168 O173 1.259 1_556 S
C169 O174 1.250 . S
C169 O175 1.263 . S
O170 Tb162 2.427 . S
O170 C166 1.275 . S
O171 Tb162 2.513 . S
O171 C166 1.246 . S
O172 Tb162 2.453 . S
O172 C168 1.245 1_554 S
O173 Tb160 2.343 . S
O173 Tb162 2.596 . S
O173 C168 1.259 1_554 S
O174 Tb162 2.374 . S
O174 C169 1.250 . S
O175 Tb160 2.353 . S
O175 C169 1.263 . S
C176 O177 1.275 . S
C176 O178 1.246 . S
O177 Tb160 2.427 1_556 S
O177 C176 1.275 . S
O178 Tb160 2.513 1_556 S
O178 C176 1.246 . S
C179 O163 1.245 . S
C179 O164 1.259 . S
Tb180 O183 2.453 . S
Tb180 O184 2.596 . S
Tb180 O185 2.374 . S
Tb180 O193 2.343 . S
Tb180 O195 2.353 . S
Tb180 O197 2.427 . S
Tb180 O198 2.513 . S
C181 O185 1.251 . S
C181 O187 1.263 . S
Tb182 O184 2.343 . S
Tb182 O187 2.353 . S
Tb182 O190 2.427 . S
Tb182 O191 2.513 . S
Tb182 O192 2.453 . S
Tb182 O193 2.596 . S
Tb182 O194 2.374 . S
O183 Tb180 2.453 . S
O183 C199 1.245 . S
O184 Tb180 2.596 . S
O184 Tb182 2.343 . S
O184 C199 1.259 . S
O185 Tb180 2.374 . S
O185 C181 1.251 . S
C186 O190 1.275 . S
C186 O191 1.246 . S
O187 C181 1.263 . S
O187 Tb182 2.353 . S
C188 O192 1.245 . S
C188 O193 1.259 . S
C189 O194 1.250 . S
C189 O195 1.263 . S
O190 Tb182 2.427 . S
O190 C186 1.275 . S
O191 Tb182 2.513 . S
O191 C186 1.246 . S
O192 Tb182 2.453 . S
O192 C188 1.245 . S
O193 Tb180 2.343 . S
O193 Tb182 2.596 . S
O193 C188 1.259 . S
O194 Tb182 2.374 . S
O194 C189 1.250 . S
O195 Tb180 2.353 . S
O195 C189 1.263 . S
C196 O197 1.275 . S
C196 O198 1.246 . S
O197 Tb180 2.427 . S
O197 C196 1.275 . S
O198 Tb180 2.513 . S
O198 C196 1.246 . S
C199 O183 1.245 . S
C199 O184 1.259 . S
Tb200 O203 2.453 . S
Tb200 O204 2.596 . S
Tb200 O205 2.374 . S
Tb200 O213 2.343 . S
Tb200 O215 2.353 . S
Tb200 O217 2.427 . S
Tb200 O218 2.513 . S
C201 O205 1.251 . S
C201 O207 1.263 . S
Tb202 O204 2.343 . S
Tb202 O207 2.353 . S
Tb202 O210 2.427 . S
Tb202 O211 2.513 . S
Tb202 O212 2.453 . S
Tb202 O213 2.596 . S
Tb202 O214 2.374 . S
O203 Tb200 2.453 . S
O203 C219 1.245 . S
O204 Tb200 2.596 . S
O204 Tb202 2.343 . S
O204 C219 1.259 . S
O205 Tb200 2.374 . S
O205 C201 1.251 . S
C206 O210 1.275 . S
C206 O211 1.246 . S
O207 C201 1.263 . S
O207 Tb202 2.353 . S
C208 O212 1.245 . S
C208 O213 1.259 . S
C209 O214 1.250 . S
C209 O215 1.263 . S
O210 Tb202 2.427 . S
O210 C206 1.275 . S
O211 Tb202 2.513 . S
O211 C206 1.246 . S
O212 Tb202 2.453 . S
O212 C208 1.245 . S
O213 Tb200 2.343 . S
O213 Tb202 2.596 . S
O213 C208 1.259 . S
O214 Tb202 2.374 . S
O214 C209 1.250 . S
O215 Tb200 2.353 . S
O215 C209 1.263 . S
C216 O217 1.275 . S
C216 O218 1.246 . S
O217 Tb200 2.427 . S
O217 C216 1.275 . S
O218 Tb200 2.513 . S
O218 C216 1.246 . S
C219 O203 1.245 . S
C219 O204 1.259 . S
Tb220 O223 2.453 . S
Tb220 O224 2.596 . S
Tb220 O225 2.374 . S
Tb220 O233 2.343 . S
Tb220 O235 2.353 . S
Tb220 O237 2.427 1_554 S
Tb220 O238 2.513 1_554 S
C221 O225 1.251 . S
C221 O227 1.263 . S
Tb222 O224 2.343 . S
Tb222 O227 2.353 . S
Tb222 O230 2.427 . S
Tb222 O231 2.513 . S
Tb222 O232 2.453 . S
Tb222 O233 2.596 . S
Tb222 O234 2.374 . S
O223 Tb220 2.453 . S
O223 C239 1.245 . S
O224 Tb220 2.596 . S
O224 Tb222 2.343 . S
O224 C239 1.259 . S
O225 Tb220 2.374 . S
O225 C221 1.251 . S
C226 O230 1.275 . S
C226 O231 1.246 . S
O227 C221 1.263 . S
O227 Tb222 2.353 . S
C228 O232 1.245 1_556 S
C228 O233 1.259 1_556 S
C229 O234 1.250 . S
C229 O235 1.263 . S
O230 Tb222 2.427 . S
O230 C226 1.275 . S
O231 Tb222 2.513 . S
O231 C226 1.246 . S
O232 Tb222 2.453 . S
O232 C228 1.245 1_554 S
O233 Tb220 2.343 . S
O233 Tb222 2.596 . S
O233 C228 1.259 1_554 S
O234 Tb222 2.374 . S
O234 C229 1.250 . S
O235 Tb220 2.353 . S
O235 C229 1.263 . S
C236 O237 1.275 . S
C236 O238 1.246 . S
O237 Tb220 2.427 1_556 S
O237 C236 1.275 . S
O238 Tb220 2.513 1_556 S
O238 C236 1.246 . S
C239 O223 1.245 . S
C239 O224 1.259 . S
C240 C241 1.387 . S
C240 H244 0.950 . S
C240 C249 1.390 . S
C241 C240 1.387 . S
C241 C243 1.387 . S
H242 C249 0.950 . S
C243 C241 1.387 . S
C243 C245 1.390 . S
C243 H247 0.950 . S
H244 C240 0.950 . S
C245 C243 1.390 . S
C245 C246 1.387 . S
C245 H248 0.950 . S
C246 C245 1.387 . S
C246 C249 1.387 . S
H247 C243 0.950 . S
H248 C245 0.950 . S
C249 C240 1.390 . S
C249 H242 0.950 . S
C249 C246 1.387 . S
C250 C251 1.387 . S
C250 H254 0.950 . S
C250 C259 1.390 . S
C251 C250 1.387 . S
C251 C253 1.387 . S
H252 C259 0.950 . S
C253 C251 1.387 . S
C253 C255 1.390 . S
C253 H257 0.950 . S
H254 C250 0.950 . S
C255 C253 1.390 . S
C255 C256 1.387 . S
C255 H258 0.950 . S
C256 C255 1.387 . S
C256 C259 1.387 . S
H257 C253 0.950 . S
H258 C255 0.950 . S
C259 C250 1.390 . S
C259 H252 0.950 . S
C259 C256 1.387 . S
C260 C261 1.387 . S
C260 H264 0.950 . S
C260 C269 1.390 . S
C261 C260 1.387 . S
C261 C263 1.387 . S
H262 C269 0.950 . S
C263 C261 1.387 . S
C263 C265 1.390 . S
C263 H267 0.950 . S
H264 C260 0.950 . S
C265 C263 1.390 . S
C265 C266 1.387 . S
C265 H268 0.950 . S
C266 C265 1.387 . S
C266 C269 1.387 . S
H267 C263 0.950 . S
H268 C265 0.950 . S
C269 C260 1.390 . S
C269 H262 0.950 . S
C269 C266 1.387 . S
C270 C271 1.387 . S
C270 H274 0.950 . S
C270 C279 1.390 . S
C271 C270 1.387 . S
C271 C273 1.387 . S
H272 C279 0.950 . S
C273 C271 1.387 . S
C273 C275 1.390 . S
C273 H277 0.950 . S
H274 C270 0.950 . S
C275 C273 1.390 . S
C275 C276 1.387 . S
C275 H278 0.950 . S
C276 C275 1.387 . S
C276 C279 1.387 . S
H277 C273 0.950 . S
H278 C275 0.950 . S
C279 C270 1.390 . S
C279 H272 0.950 . S
C279 C276 1.387 . S
C280 C281 1.387 . S
C280 H284 0.950 . S
C280 C289 1.390 . S
C281 C280 1.387 . S
C281 C283 1.387 . S
H282 C289 0.950 . S
C283 C281 1.387 . S
C283 C285 1.390 . S
C283 H287 0.950 . S
H284 C280 0.950 . S
C285 C283 1.390 . S
C285 C286 1.387 . S
C285 H288 0.950 . S
C286 C285 1.387 . S
C286 C289 1.387 . S
H287 C283 0.950 . S
H288 C285 0.950 . S
C289 C280 1.390 . S
C289 H282 0.950 . S
C289 C286 1.387 . S
C290 C291 1.387 . S
C290 H294 0.950 . S
C290 C299 1.390 . S
C291 C290 1.387 . S
C291 C293 1.387 . S
H292 C299 0.950 . S
C293 C291 1.387 . S
C293 C295 1.390 . S
C293 H297 0.950 . S
H294 C290 0.950 . S
C295 C293 1.390 . S
C295 C296 1.387 . S
C295 H298 0.950 . S
C296 C295 1.387 . S
C296 C299 1.387 . S
H297 C293 0.950 . S
H298 C295 0.950 . S
C299 C290 1.390 . S
C299 H292 0.950 . S
C299 C296 1.387 . S
C300 C301 1.387 . S
C300 H304 0.950 . S
C300 C309 1.390 1_556 S
C301 C300 1.387 . S
C301 C303 1.387 . S
H302 C309 0.950 . S
C303 C301 1.387 . S
C303 C305 1.390 1_556 S
C303 H307 0.950 . S
H304 C300 0.950 . S
C305 C303 1.390 1_554 S
C305 C306 1.387 . S
C305 H308 0.950 . S
C306 C305 1.387 . S
C306 C309 1.387 . S
H307 C303 0.950 . S
H308 C305 0.950 . S
C309 C300 1.390 1_554 S
C309 H302 0.950 . S
C309 C306 1.387 . S
C310 C311 1.387 . S
C310 H314 0.950 . S
C310 C319 1.390 . S
C311 C310 1.387 . S
C311 C313 1.387 . S
H312 C319 0.950 . S
C313 C311 1.387 . S
C313 C315 1.390 . S
C313 H317 0.950 . S
H314 C310 0.950 . S
C315 C313 1.390 . S
C315 C316 1.387 . S
C315 H318 0.950 . S
C316 C315 1.387 . S
C316 C319 1.387 . S
H317 C313 0.950 . S
H318 C315 0.950 . S
C319 C310 1.390 . S
C319 H312 0.950 . S
C319 C316 1.387 . S
C320 C321 1.387 . S
C320 H324 0.950 . S
C320 C329 1.390 . S
C321 C320 1.387 . S
C321 C323 1.387 . S
H322 C329 0.950 . S
C323 C321 1.387 . S
C323 C325 1.390 . S
C323 H327 0.950 . S
H324 C320 0.950 . S
C325 C323 1.390 . S
C325 C326 1.387 . S
C325 H328 0.950 . S
C326 C325 1.387 . S
C326 C329 1.387 . S
H327 C323 0.950 . S
H328 C325 0.950 . S
C329 C320 1.390 . S
C329 H322 0.950 . S
C329 C326 1.387 . S
C330 C331 1.387 . S
C330 H334 0.950 . S
C330 C339 1.390 1_556 S
C331 C330 1.387 . S
C331 C333 1.387 . S
H332 C339 0.950 . S
C333 C331 1.387 . S
C333 C335 1.390 1_556 S
C333 H337 0.950 . S
H334 C330 0.950 . S
C335 C333 1.390 1_554 S
C335 C336 1.387 . S
C335 H338 0.950 . S
C336 C335 1.387 . S
C336 C339 1.387 . S
H337 C333 0.950 . S
H338 C335 0.950 . S
C339 C330 1.390 1_554 S
C339 H332 0.950 . S
C339 C336 1.387 . S
C340 C341 1.387 . S
C340 H344 0.950 . S
C340 C349 1.390 . S
C341 C340 1.387 . S
C341 C343 1.387 . S
H342 C349 0.950 . S
C343 C341 1.387 . S
C343 C345 1.390 . S
C343 H347 0.950 . S
H344 C340 0.950 . S
C345 C343 1.390 . S
C345 C346 1.387 . S
C345 H348 0.950 . S
C346 C345 1.387 . S
C346 C349 1.387 . S
H347 C343 0.950 . S
H348 C345 0.950 . S
C349 C340 1.390 . S
C349 H342 0.950 . S
C349 C346 1.387 . S
C350 C351 1.387 . S
C350 H354 0.950 . S
C350 C359 1.390 . S
C351 C350 1.387 . S
C351 C353 1.387 . S
H352 C359 0.950 . S
C353 C351 1.387 . S
C353 C355 1.390 . S
C353 H357 0.950 . S
H354 C350 0.950 . S
C355 C353 1.390 . S
C355 C356 1.387 . S
C355 H358 0.950 . S
C356 C355 1.387 . S
C356 C359 1.387 . S
H357 C353 0.950 . S
H358 C355 0.950 . S
C359 C350 1.390 . S
C359 H352 0.950 . S
C359 C356 1.387 . S
C360 C361 1.387 . S
C360 H364 0.950 . S
C360 C369 1.390 1_566 S
C361 C360 1.387 . S
C361 C363 1.387 . S
H362 C369 0.950 . S
C363 C361 1.387 . S
C363 C365 1.390 1_566 S
C363 H367 0.950 . S
H364 C360 0.950 . S
C365 C363 1.390 1_544 S
C365 C366 1.387 . S
C365 H368 0.950 . S
C366 C365 1.387 . S
C366 C369 1.387 . S
H367 C363 0.950 . S
H368 C365 0.950 . S
C369 C360 1.390 1_544 S
C369 H362 0.950 . S
C369 C366 1.387 . S
C370 C371 1.387 . S
C370 H374 0.950 . S
C370 C379 1.390 . S
C371 C370 1.387 . S
C371 C373 1.387 . S
H372 C379 0.950 . S
C373 C371 1.387 . S
C373 C375 1.390 . S
C373 H377 0.950 . S
H374 C370 0.950 . S
C375 C373 1.390 . S
C375 C376 1.387 . S
C375 H378 0.950 . S
C376 C375 1.387 . S
C376 C379 1.387 . S
H377 C373 0.950 . S
H378 C375 0.950 . S
C379 C370 1.390 . S
C379 H372 0.950 . S
C379 C376 1.387 . S
C380 C381 1.387 . S
C380 H384 0.950 . S
C380 C389 1.390 1_455 S
C381 C380 1.387 . S
C381 C383 1.387 . S
H382 C389 0.950 . S
C383 C381 1.387 . S
C383 C385 1.390 1_455 S
C383 H387 0.950 . S
H384 C380 0.950 . S
C385 C383 1.390 1_655 S
C385 C386 1.387 . S
C385 H388 0.950 . S
C386 C385 1.387 . S
C386 C389 1.387 . S
H387 C383 0.950 . S
H388 C385 0.950 . S
C389 C380 1.390 1_655 S
C389 H382 0.950 . S
C389 C386 1.387 . S
C390 C391 1.387 . S
C390 H394 0.950 . S
C390 C399 1.390 1_564 S
C391 C390 1.387 . S
C391 C393 1.387 . S
H392 C399 0.950 . S
C393 C391 1.387 . S
C393 C395 1.390 1_564 S
C393 H397 0.950 . S
H394 C390 0.950 . S
C395 C393 1.390 1_546 S
C395 C396 1.387 . S
C395 H398 0.950 . S
C396 C395 1.387 . S
C396 C399 1.387 . S
H397 C393 0.950 . S
H398 C395 0.950 . S
C399 C390 1.390 1_546 S
C399 H392 0.950 . S
C399 C396 1.387 . S
C400 C401 1.387 . S
C400 H404 0.950 . S
C400 C409 1.390 . S
C401 C400 1.387 . S
C401 C403 1.387 . S
H402 C409 0.950 . S
C403 C401 1.387 . S
C403 C405 1.390 . S
C403 H407 0.950 . S
H404 C400 0.950 . S
C405 C403 1.390 . S
C405 C406 1.387 . S
C405 H408 0.950 . S
C406 C405 1.387 . S
C406 C409 1.387 . S
H407 C403 0.950 . S
H408 C405 0.950 . S
C409 C400 1.390 . S
C409 H402 0.950 . S
C409 C406 1.387 . S
C410 C411 1.387 . S
C410 H414 0.950 . S
C410 C419 1.390 1_455 S
C411 C410 1.387 . S
C411 C413 1.387 . S
H412 C419 0.950 . S
C413 C411 1.387 . S
C413 C415 1.390 1_455 S
C413 H417 0.950 . S
H414 C410 0.950 . S
C415 C413 1.390 1_655 S
C415 C416 1.387 . S
C415 H418 0.950 . S
C416 C415 1.387 . S
C416 C419 1.387 . S
H417 C413 0.950 . S
H418 C415 0.950 . S
C419 C410 1.390 1_655 S
C419 H412 0.950 . S
C419 C416 1.387 . S
C420 C421 1.387 . S
C420 H424 0.950 . S
C420 C429 1.390 1_545 S
C421 C420 1.387 . S
C421 C423 1.387 . S
H422 C429 0.950 . S
C423 C421 1.387 . S
C423 C425 1.390 1_545 S
C423 H427 0.950 . S
H424 C420 0.950 . S
C425 C423 1.390 1_565 S
C425 C426 1.387 . S
C425 H428 0.950 . S
C426 C425 1.387 . S
C426 C429 1.387 . S
H427 C423 0.950 . S
H428 C425 0.950 . S
C429 C420 1.390 1_565 S
C429 H422 0.950 . S
C429 C426 1.387 . S
C430 C431 1.387 . S
C430 H434 0.950 . S
C430 C439 1.390 . S
C431 C430 1.387 . S
C431 C433 1.387 . S
H432 C439 0.950 . S
C433 C431 1.387 . S
C433 C435 1.390 . S
C433 H437 0.950 . S
H434 C430 0.950 . S
C435 C433 1.390 . S
C435 C436 1.387 . S
C435 H438 0.950 . S
C436 C435 1.387 . S
C436 C439 1.387 . S
H437 C433 0.950 . S
H438 C435 0.950 . S
C439 C430 1.390 . S
C439 H432 0.950 . S
C439 C436 1.387 . S
C440 C441 1.387 1_554 S
C440 H444 0.950 . S
C440 C449 1.390 1_655 S
C441 C440 1.387 1_556 S
C441 C443 1.387 . S
H442 C449 0.950 . S
C443 C441 1.387 . S
C443 C445 1.390 1_655 S
C443 H447 0.950 . S
H444 C440 0.950 . S
C445 C443 1.390 1_455 S
C445 C446 1.387 . S
C445 H448 0.950 . S
C446 C445 1.387 . S
C446 C449 1.387 1_556 S
H447 C443 0.950 . S
H448 C445 0.950 . S
C449 C440 1.390 1_455 S
C449 H442 0.950 . S
C449 C446 1.387 1_554 S
C450 C451 1.387 . S
C450 H454 0.950 . S
C450 C459 1.390 1_455 S
C451 C450 1.387 . S
C451 C453 1.387 . S
H452 C459 0.950 . S
C453 C451 1.387 . S
C453 C455 1.390 1_455 S
C453 H457 0.950 . S
H454 C450 0.950 . S
C455 C453 1.390 1_655 S
C455 C456 1.387 . S
C455 H458 0.950 . S
C456 C455 1.387 . S
C456 C459 1.387 . S
H457 C453 0.950 . S
H458 C455 0.950 . S
C459 C450 1.390 1_655 S
C459 H452 0.950 . S
C459 C456 1.387 . S
C460 C461 1.387 . S
C460 H464 0.950 . S
C460 C469 1.390 1_565 S
C461 C460 1.387 . S
C461 C463 1.387 . S
H462 C469 0.950 . S
C463 C461 1.387 . S
C463 C465 1.390 1_565 S
C463 H467 0.950 . S
H464 C460 0.950 . S
C465 C463 1.390 1_545 S
C465 C466 1.387 . S
C465 H468 0.950 . S
C466 C465 1.387 . S
C466 C469 1.387 . S
H467 C463 0.950 . S
H468 C465 0.950 . S
C469 C460 1.390 1_545 S
C469 H462 0.950 . S
C469 C466 1.387 . S
C470 C471 1.387 1_556 S
C470 H474 0.950 . S
C470 C479 1.390 . S
C471 C470 1.387 1_554 S
C471 C473 1.387 . S
H472 C479 0.950 . S
C473 C471 1.387 . S
C473 C475 1.390 . S
C473 H477 0.950 . S
H474 C470 0.950 . S
C475 C473 1.390 . S
C475 C476 1.387 . S
C475 H478 0.950 . S
C476 C475 1.387 . S
C476 C479 1.387 1_554 S
H477 C473 0.950 . S
H478 C475 0.950 . S
C479 C470 1.390 . S
C479 H472 0.950 . S
C479 C476 1.387 1_556 S
C480 C481 1.387 . S
C480 H484 0.950 . S
C480 C489 1.390 1_565 S
C481 C480 1.387 . S
C481 C483 1.387 . S
H482 C489 0.950 . S
C483 C481 1.387 . S
C483 C485 1.390 1_565 S
C483 H487 0.950 . S
H484 C480 0.950 . S
C485 C483 1.390 1_545 S
C485 C486 1.387 . S
C485 H488 0.950 . S
C486 C485 1.387 . S
C486 C489 1.387 . S
H487 C483 0.950 . S
H488 C485 0.950 . S
C489 C480 1.390 1_545 S
C489 H482 0.950 . S
C489 C486 1.387 . S
C490 C491 1.387 . S
C490 H494 0.950 . S
C490 C499 1.390 . S
C491 C490 1.387 . S
C491 C493 1.387 . S
H492 C499 0.950 . S
C493 C491 1.387 . S
C493 C495 1.390 . S
C493 H497 0.950 . S
H494 C490 0.950 . S
C495 C493 1.390 . S
C495 C496 1.387 . S
C495 H498 0.950 . S
C496 C495 1.387 . S
C496 C499 1.387 . S
H497 C493 0.950 . S
H498 C495 0.950 . S
C499 C490 1.390 . S
C499 H492 0.950 . S
C499 C496 1.387 . S
C500 C501 1.387 . S
C500 H504 0.950 . S
C500 C509 1.390 . S
C501 C500 1.387 . S
C501 C503 1.387 1_655 S
H502 C509 0.950 . S
C503 C501 1.387 1_455 S
C503 C505 1.390 . S
C503 H507 0.950 . S
H504 C500 0.950 . S
C505 C503 1.390 . S
C505 C506 1.387 . S
C505 H508 0.950 . S
C506 C505 1.387 . S
C506 C509 1.387 1_455 S
H507 C503 0.950 . S
H508 C505 0.950 . S
C509 C500 1.390 . S
C509 H502 0.950 . S
C509 C506 1.387 1_655 S
C510 C511 1.387 . S
C510 H514 0.950 . S
C510 C519 1.390 1_545 S
C511 C510 1.387 . S
C511 C513 1.387 . S
H512 C519 0.950 . S
C513 C511 1.387 . S
C513 C515 1.390 1_545 S
C513 H517 0.950 . S
H514 C510 0.950 . S
C515 C513 1.390 1_565 S
C515 C516 1.387 . S
C515 H518 0.950 . S
C516 C515 1.387 . S
C516 C519 1.387 . S
H517 C513 0.950 . S
H518 C515 0.950 . S
C519 C510 1.390 1_565 S
C519 H512 0.950 . S
C519 C516 1.387 . S
C520 C521 1.387 . S
C520 H524 0.950 . S
C520 C529 1.390 . S
C521 C520 1.387 . S
C521 C523 1.387 . S
H522 C529 0.950 . S
C523 C521 1.387 . S
C523 C525 1.390 . S
C523 H527 0.950 . S
H524 C520 0.950 . S
C525 C523 1.390 . S
C525 C526 1.387 . S
C525 H528 0.950 . S
C526 C525 1.387 . S
C526 C529 1.387 . S
H527 C523 0.950 . S
H528 C525 0.950 . S
C529 C520 1.390 . S
C529 H522 0.950 . S
C529 C526 1.387 . S
C530 C531 1.387 1_655 S
C530 H534 0.950 . S
C530 C539 1.390 . S
C531 C530 1.387 1_455 S
C531 C533 1.387 . S
H532 C539 0.950 . S
C533 C531 1.387 . S
C533 C535 1.390 . S
C533 H537 0.950 . S
H534 C530 0.950 . S
C535 C533 1.390 . S
C535 C536 1.387 1_455 S
C535 H538 0.950 . S
C536 C535 1.387 1_655 S
C536 C539 1.387 . S
H537 C533 0.950 . S
H538 C535 0.950 . S
C539 C530 1.390 . S
C539 H532 0.950 . S
C539 C536 1.387 . S
C540 C541 1.387 . S
C540 H544 0.950 . S
C540 C549 1.390 . S
C541 C540 1.387 . S
C541 C543 1.387 . S
H542 C549 0.950 . S
C543 C541 1.387 . S
C543 C545 1.390 . S
C543 H547 0.950 . S
H544 C540 0.950 . S
C545 C543 1.390 . S
C545 C546 1.387 . S
C545 H548 0.950 . S
C546 C545 1.387 . S
C546 C549 1.387 . S
H547 C543 0.950 . S
H548 C545 0.950 . S
C549 C540 1.390 . S
C549 H542 0.950 . S
C549 C546 1.387 . S
C550 C551 1.387 . S
C550 H554 0.950 . S
C550 C559 1.390 . S
C551 C550 1.387 . S
C551 C553 1.387 . S
H552 C559 0.950 . S
C553 C551 1.387 . S
C553 C555 1.390 . S
C553 H557 0.950 . S
H554 C550 0.950 . S
C555 C553 1.390 . S
C555 C556 1.387 . S
C555 H558 0.950 . S
C556 C555 1.387 . S
C556 C559 1.387 . S
H557 C553 0.950 . S
H558 C555 0.950 . S
C559 C550 1.390 . S
C559 H552 0.950 . S
C559 C556 1.387 . S
C560 C561 1.387 . S
C560 H564 0.950 . S
C560 C569 1.390 . S
C561 C560 1.387 . S
C561 C563 1.387 . S
H562 C569 0.950 . S
C563 C561 1.387 . S
C563 C565 1.390 . S
C563 H567 0.950 . S
H564 C560 0.950 . S
C565 C563 1.390 . S
C565 C566 1.387 . S
C565 H568 0.950 . S
C566 C565 1.387 . S
C566 C569 1.387 . S
H567 C563 0.950 . S
H568 C565 0.950 . S
C569 C560 1.390 . S
C569 H562 0.950 . S
C569 C566 1.387 . S
C570 C571 1.387 . S
C570 H574 0.950 . S
C570 C579 1.390 . S
C571 C570 1.387 . S
C571 C573 1.387 . S
H572 C579 0.950 . S
C573 C571 1.387 . S
C573 C575 1.390 . S
C573 H577 0.950 . S
H574 C570 0.950 . S
C575 C573 1.390 . S
C575 C576 1.387 . S
C575 H578 0.950 . S
C576 C575 1.387 . S
C576 C579 1.387 . S
H577 C573 0.950 . S
H578 C575 0.950 . S
C579 C570 1.390 . S
C579 H572 0.950 . S
C579 C576 1.387 . S
C580 C581 1.387 . S
C580 H584 0.950 . S
C580 C589 1.390 . S
C581 C580 1.387 . S
C581 C583 1.387 . S
H582 C589 0.950 . S
C583 C581 1.387 . S
C583 C585 1.390 . S
C583 H587 0.950 . S
H584 C580 0.950 . S
C585 C583 1.390 . S
C585 C586 1.387 . S
C585 H588 0.950 . S
C586 C585 1.387 . S
C586 C589 1.387 . S
H587 C583 0.950 . S
H588 C585 0.950 . S
C589 C580 1.390 . S
C589 H582 0.950 . S
C589 C586 1.387 . S
C590 C591 1.387 . S
C590 H594 0.950 . S
C590 C599 1.390 . S
C591 C590 1.387 . S
C591 C593 1.387 . S
H592 C599 0.950 . S
C593 C591 1.387 . S
C593 C595 1.390 . S
C593 H597 0.950 . S
H594 C590 0.950 . S
C595 C593 1.390 . S
C595 C596 1.387 . S
C595 H598 0.950 . S
C596 C595 1.387 . S
C596 C599 1.387 . S
H597 C593 0.950 . S
H598 C595 0.950 . S
C599 C590 1.390 . S
C599 H592 0.950 . S
C599 C596 1.387 . S
C241 C1 1.362 . S
C246 C161 1.362 . S
C251 C21 1.362 . S
C256 C181 1.362 . S
C261 C41 1.362 . S
C266 C201 1.362 . S
C271 C221 1.363 . S
C276 C61 1.363 . S
C281 C81 1.362 . S
C286 C121 1.362 . S
C291 C141 1.362 . S
C296 C101 1.363 . S
C301 C219 2.334 . S
C306 C19 2.334 . S
C311 C239 2.334 . S
C316 C39 2.334 . S
C321 C59 2.334 . S
C326 C139 2.334 . S
C331 C159 2.332 . S
C336 C79 2.332 . S
C341 C179 2.333 . S
C346 C99 2.332 . S
C351 C119 2.333 . S
C356 C199 2.332 . S
C361 C146 0.955 . S
C366 C6 0.955 . S
C371 C166 0.955 . S
C376 C26 0.955 . S
C381 C186 0.955 . S
C386 C46 0.955 . S
C391 C66 0.961 . S
C396 C206 0.961 . S
C401 C86 0.961 . S
C406 C226 0.961 . S
C411 C106 0.955 . S
C416 C126 0.955 . S
C421 C9 0.656 . S
C426 C69 0.656 . S
C431 C29 0.665 . S
C436 C89 0.665 . S
C441 C49 0.656 . S
C446 C109 0.656 . S
C451 C189 0.665 . S
C456 C129 0.665 . S
C461 C149 0.665 . S
C466 C209 0.665 . S
C471 C229 0.656 . S
C476 C169 0.656 . S
C481 C148 2.467 . S
C486 C8 2.467 . S
C491 C168 2.468 . S
C496 C28 2.468 . S
C501 C48 2.468 . S
C506 C188 2.468 . S
C511 C208 2.467 . S
C516 C68 2.467 . S
C521 C228 2.468 . S
C526 C88 2.468 . S
C531 C108 2.467 . S
C536 C128 2.467 . S
C541 C16 0.929 . S
C546 C216 0.929 . S
C551 C36 0.926 . S
C556 C236 0.925 . S
C561 C56 0.929 . S
C566 C136 0.929 . S
C571 C76 0.929 . S
C576 C156 0.929 . S
C581 C96 0.929 . S
C586 C176 0.929 . S
C591 C196 0.928 . S
C596 C116 0.929 . S
