# Generated by pormake.
# Topology lcy-a, (4)-cn, num edge types: 1
# Building blocks:
#     Node 0, Type 0, BuildingBlock: ICAMEG_clean_sbu_1, # of connection points: 4
#     Node 1, Type 0, BuildingBlock: ICAMEG_clean_sbu_1, # of connection points: 4
#     Node 2, Type 0, BuildingBlock: ICAMEG_clean_sbu_1, # of connection points: 4
#     Node 3, Type 0, BuildingBlock: ICAMEG_clean_sbu_1, # of connection points: 4
#     Node 4, Type 0, BuildingBlock: ICAMEG_clean_sbu_1, # of connection points: 4
#     Node 5, Type 0, BuildingBlock: ICAMEG_clean_sbu_1, # of connection points: 4
#     Node 6, Type 0, BuildingBlock: ICAMEG_clean_sbu_1, # of connection points: 4
#     Node 7, Type 0, BuildingBlock: ICAMEG_clean_sbu_1, # of connection points: 4
#     Node 8, Type 0, BuildingBlock: ICAMEG_clean_sbu_1, # of connection points: 4
#     Node 9, Type 0, BuildingBlock: ICAMEG_clean_sbu_1, # of connection points: 4
#     Node 10, Type 0, BuildingBlock: ICAMEG_clean_sbu_1, # of connection points: 4
#     Node 11, Type 0, BuildingBlock: ICAMEG_clean_sbu_1, # of connection points: 4
#     Node 12, Type 0, BuildingBlock: ICAMEG_clean_sbu_1, # of connection points: 4
#     Node 13, Type 0, BuildingBlock: ICAMEG_clean_sbu_1, # of connection points: 4
#     Node 14, Type 0, BuildingBlock: ICAMEG_clean_sbu_1, # of connection points: 4
#     Node 15, Type 0, BuildingBlock: ICAMEG_clean_sbu_1, # of connection points: 4
#     Node 16, Type 0, BuildingBlock: ICAMEG_clean_sbu_1, # of connection points: 4
#     Node 17, Type 0, BuildingBlock: ICAMEG_clean_sbu_1, # of connection points: 4
#     Node 18, Type 0, BuildingBlock: ICAMEG_clean_sbu_1, # of connection points: 4
#     Node 19, Type 0, BuildingBlock: ICAMEG_clean_sbu_1, # of connection points: 4
#     Node 20, Type 0, BuildingBlock: ICAMEG_clean_sbu_1, # of connection points: 4
#     Node 21, Type 0, BuildingBlock: ICAMEG_clean_sbu_1, # of connection points: 4
#     Node 22, Type 0, BuildingBlock: ICAMEG_clean_sbu_1, # of connection points: 4
#     Node 23, Type 0, BuildingBlock: ICAMEG_clean_sbu_1, # of connection points: 4
#     Edge 24, Type (0, 0), BuildingBlock: OJICUG_clean_linker_0, # of connection points: 2
#     Edge 25, Type (0, 0), BuildingBlock: OJICUG_clean_linker_0, # of connection points: 2
#     Edge 26, Type (0, 0), BuildingBlock: OJICUG_clean_linker_0, # of connection points: 2
#     Edge 27, Type (0, 0), BuildingBlock: OJICUG_clean_linker_0, # of connection points: 2
#     Edge 28, Type (0, 0), BuildingBlock: OJICUG_clean_linker_0, # of connection points: 2
#     Edge 29, Type (0, 0), BuildingBlock: OJICUG_clean_linker_0, # of connection points: 2
#     Edge 30, Type (0, 0), BuildingBlock: OJICUG_clean_linker_0, # of connection points: 2
#     Edge 31, Type (0, 0), BuildingBlock: OJICUG_clean_linker_0, # of connection points: 2
#     Edge 32, Type (0, 0), BuildingBlock: OJICUG_clean_linker_0, # of connection points: 2
#     Edge 33, Type (0, 0), BuildingBlock: OJICUG_clean_linker_0, # of connection points: 2
#     Edge 34, Type (0, 0), BuildingBlock: OJICUG_clean_linker_0, # of connection points: 2
#     Edge 35, Type (0, 0), BuildingBlock: OJICUG_clean_linker_0, # of connection points: 2
#     Edge 36, Type (0, 0), BuildingBlock: OJICUG_clean_linker_0, # of connection points: 2
#     Edge 37, Type (0, 0), BuildingBlock: OJICUG_clean_linker_0, # of connection points: 2
#     Edge 38, Type (0, 0), BuildingBlock: OJICUG_clean_linker_0, # of connection points: 2
#     Edge 39, Type (0, 0), BuildingBlock: OJICUG_clean_linker_0, # of connection points: 2
#     Edge 40, Type (0, 0), BuildingBlock: OJICUG_clean_linker_0, # of connection points: 2
#     Edge 41, Type (0, 0), BuildingBlock: OJICUG_clean_linker_0, # of connection points: 2
#     Edge 42, Type (0, 0), BuildingBlock: OJICUG_clean_linker_0, # of connection points: 2
#     Edge 43, Type (0, 0), BuildingBlock: OJICUG_clean_linker_0, # of connection points: 2
#     Edge 44, Type (0, 0), BuildingBlock: OJICUG_clean_linker_0, # of connection points: 2
#     Edge 45, Type (0, 0), BuildingBlock: OJICUG_clean_linker_0, # of connection points: 2
#     Edge 46, Type (0, 0), BuildingBlock: OJICUG_clean_linker_0, # of connection points: 2
#     Edge 47, Type (0, 0), BuildingBlock: OJICUG_clean_linker_0, # of connection points: 2
#     Edge 48, Type (0, 0), BuildingBlock: OJICUG_clean_linker_0, # of connection points: 2
#     Edge 49, Type (0, 0), BuildingBlock: OJICUG_clean_linker_0, # of connection points: 2
#     Edge 50, Type (0, 0), BuildingBlock: OJICUG_clean_linker_0, # of connection points: 2
#     Edge 51, Type (0, 0), BuildingBlock: OJICUG_clean_linker_0, # of connection points: 2
#     Edge 52, Type (0, 0), BuildingBlock: OJICUG_clean_linker_0, # of connection points: 2
#     Edge 53, Type (0, 0), BuildingBlock: OJICUG_clean_linker_0, # of connection points: 2
#     Edge 54, Type (0, 0), BuildingBlock: OJICUG_clean_linker_0, # of connection points: 2
#     Edge 55, Type (0, 0), BuildingBlock: OJICUG_clean_linker_0, # of connection points: 2
#     Edge 56, Type (0, 0), BuildingBlock: OJICUG_clean_linker_0, # of connection points: 2
#     Edge 57, Type (0, 0), BuildingBlock: OJICUG_clean_linker_0, # of connection points: 2
#     Edge 58, Type (0, 0), BuildingBlock: OJICUG_clean_linker_0, # of connection points: 2
#     Edge 59, Type (0, 0), BuildingBlock: OJICUG_clean_linker_0, # of connection points: 2
#     Edge 60, Type (0, 0), BuildingBlock: OJICUG_clean_linker_0, # of connection points: 2
#     Edge 61, Type (0, 0), BuildingBlock: OJICUG_clean_linker_0, # of connection points: 2
#     Edge 62, Type (0, 0), BuildingBlock: OJICUG_clean_linker_0, # of connection points: 2
#     Edge 63, Type (0, 0), BuildingBlock: OJICUG_clean_linker_0, # of connection points: 2
#     Edge 64, Type (0, 0), BuildingBlock: OJICUG_clean_linker_0, # of connection points: 2
#     Edge 65, Type (0, 0), BuildingBlock: OJICUG_clean_linker_0, # of connection points: 2
#     Edge 66, Type (0, 0), BuildingBlock: OJICUG_clean_linker_0, # of connection points: 2
#     Edge 67, Type (0, 0), BuildingBlock: OJICUG_clean_linker_0, # of connection points: 2
#     Edge 68, Type (0, 0), BuildingBlock: OJICUG_clean_linker_0, # of connection points: 2
#     Edge 69, Type (0, 0), BuildingBlock: OJICUG_clean_linker_0, # of connection points: 2
#     Edge 70, Type (0, 0), BuildingBlock: OJICUG_clean_linker_0, # of connection points: 2
#     Edge 71, Type (0, 0), BuildingBlock: OJICUG_clean_linker_0, # of connection points: 2
# Relax obj value: 0.375
# Max RMSD: 0.170
# Mean RMSD: 0.170
data_MOF--net-lcy-a--node1-ICAMEG_clean_sbu_1--edge1-OJICUG_clean_linker_0
_symmetry_space_group_name_H-M    P1
_symmetry_Int_Tables_number       1
_symmetry_cell_setting            triclinic
loop_
_symmetry_equiv_pos_as_xyz
'x, y, z'
_cell_length_a     45.062115
_cell_length_b     45.100172
_cell_length_c     45.062017
_cell_angle_alpha  90.059108
_cell_angle_beta   90.065484
_cell_angle_gamma 89.957013
loop_
_atom_site_label
_atom_site_type_symbol
_atom_site_fract_x
_atom_site_fract_y
_atom_site_fract_z
_atom_type_partial_charge
Co0 Co 0.23519 0.32503 0.40205 0.0
Co1 Co 0.17689 0.28502 0.37752 0.0
O2 O 0.19778 0.30482 0.41027 0.0
C3 C 0.21653 0.3498 0.46066 0.0
O4 O 0.19848 0.32744 0.46495 0.0
C5 C 0.16804 0.23884 0.42363 0.0
O6 O 0.19637 0.23208 0.42333 0.0
O7 O 0.21174 0.25803 0.37363 0.0
O8 O 0.24586 0.29416 0.37162 0.0
H9 H 0.16971 0.23641 0.27739 0.0
H10 H 0.21899 0.27967 0.44947 0.0
O11 O 0.22665 0.355 0.43463 0.0
H12 H 0.32802 0.28099 0.44835 0.0
H13 H 0.30986 0.40654 0.41568 0.0
H14 H 0.26742 0.33455 0.34576 0.0
H15 H 0.3004 0.31101 0.41321 0.0
H16 H 0.27832 0.36609 0.43414 0.0
O17 O 0.15769 0.25886 0.40688 0.0
H18 H 0.19459 0.2635 0.31793 0.0
H19 H 0.11587 0.26031 0.3696 0.0
H20 H 0.29968 0.37389 0.32718 0.0
H21 H 0.2462 0.24793 0.4834 0.0
H22 H 0.31756 0.41249 0.36175 0.0
H23 H 0.30123 0.24884 0.48399 0.0
O24 O 0.21324 0.34936 0.37206 0.0
H25 H 0.10187 0.34423 0.43495 0.0
H26 H 0.13948 0.31986 0.33513 0.0
H27 H 0.09795 0.35509 0.34039 0.0
H28 H 0.07881 0.36742 0.39058 0.0
H29 H 0.14349 0.30924 0.42871 0.0
H30 H 0.09023 0.23293 0.32973 0.0
H31 H 0.11714 0.22095 0.28315 0.0
O32 O 0.19435 0.31149 0.34697 0.0
C33 C 0.23842 0.26685 0.37007 0.0
C34 C 0.15771 0.2416 0.29754 0.0
C35 C 0.11312 0.23962 0.32692 0.0
N36 N 0.15663 0.26377 0.34598 0.0
C37 C 0.17166 0.25701 0.32054 0.0
C38 C 0.12778 0.25507 0.34946 0.0
C39 C 0.12823 0.2329 0.30079 0.0
C40 C 0.24275 0.28106 0.44909 0.0
N41 N 0.25742 0.30015 0.43046 0.0
C42 C 0.25818 0.26254 0.46861 0.0
C43 C 0.28901 0.26303 0.46895 0.0
C44 C 0.30401 0.28125 0.44916 0.0
C45 C 0.28787 0.29912 0.42961 0.0
C46 C 0.30073 0.39055 0.40045 0.0
C47 C 0.2772 0.34957 0.36161 0.0
C48 C 0.28276 0.36754 0.41066 0.0
N49 N 0.27008 0.34808 0.39109 0.0
C50 C 0.29523 0.37216 0.35072 0.0
C51 C 0.30581 0.39351 0.37018 0.0
C52 C 0.2032 0.3382 0.34802 0.0
C53 C 0.10997 0.33898 0.41296 0.0
C54 C 0.13134 0.32516 0.35706 0.0
C55 C 0.10778 0.34509 0.35989 0.0
C56 C 0.09705 0.352 0.38806 0.0
N57 N 0.14381 0.31236 0.38159 0.0
C58 C 0.1335 0.31915 0.40928 0.0
Co59 Co 0.93736 0.98392 0.65339 0.0
Co60 Co 0.96505 0.92101 0.62111 0.0
O61 O 0.9482 0.94213 0.65553 0.0
C62 C 0.89625 0.96044 0.70159 0.0
O63 O 0.90763 0.93367 0.70213 0.0
C64 C 0.00575 0.90775 0.66926 0.0
O65 O 0.00802 0.93655 0.67262 0.0
O66 O 0.99755 0.95085 0.61743 0.0
O67 O 0.97143 0.99228 0.62662 0.0
H68 H 0.00892 0.91114 0.51899 0.0
H69 H 0.95724 0.95149 0.70875 0.0
O70 O 0.90305 0.97888 0.68132 0.0
H71 H 0.01114 0.04622 0.71008 0.0
H72 H 0.89876 0.0824 0.69032 0.0
H73 H 0.93163 0.02517 0.6031 0.0
H74 H 0.97778 0.034 0.66879 0.0
H75 H 0.91708 0.03125 0.69598 0.0
O76 O 0.98942 0.89708 0.64893 0.0
H77 H 0.98677 0.93794 0.56121 0.0
H78 H 0.98042 0.85771 0.61002 0.0
H79 H 0.91265 0.07541 0.59632 0.0
H80 H 0.99035 0.96264 0.75027 0.0
H81 H 0.89547 0.10448 0.64013 0.0
H82 H 0.01758 0.01046 0.75147 0.0
O83 O 0.91127 0.9747 0.61862 0.0
H84 H 0.89768 0.85073 0.67525 0.0
H85 H 0.92269 0.89403 0.578 0.0
H86 H 0.88151 0.85823 0.58163 0.0
H87 H 0.86883 0.83626 0.63052 0.0
H88 H 0.93855 0.88677 0.67063 0.0
H89 H 0.00268 0.83003 0.56838 0.0
H90 H 0.01701 0.85676 0.52241 0.0
O91 O 0.94138 0.9449 0.59252 0.0
C92 C 0.99485 0.97898 0.61814 0.0
C93 C 0.00272 0.89923 0.53888 0.0
C94 C -0.00075 0.85371 0.56661 0.0
N95 N 0.98219 0.89942 0.58802 0.0
C96 C 0.99012 0.91429 0.56285 0.0
C97 C 0.98672 0.86952 0.59014 0.0
C98 C 0.00727 0.86872 0.54082 0.0
C99 C 0.968 0.97271 0.70916 0.0
N100 N 0.9637 0.99284 0.68687 0.0
C101 C 0.98722 0.97875 0.73275 0.0
C102 C 0.00256 0.0055 0.73337 0.0
C103 C -0.00111 0.02558 0.71024 0.0
C104 C 0.97959 0.01867 0.68698 0.0
C105 C 0.90596 0.06994 0.67108 0.0
C106 C 0.92431 0.03749 0.6223 0.0
C107 C 0.91628 0.04094 0.67414 0.0
N108 N 0.92546 0.02513 0.64991 0.0
C109 C 0.91349 0.06611 0.61831 0.0
C110 C 0.9043 0.08243 0.64289 0.0
C111 C 0.91959 0.96272 0.5943 0.0
C112 C 0.90303 0.86011 0.65381 0.0
C113 C 0.91721 0.88467 0.59937 0.0
C114 C 0.89392 0.86435 0.60128 0.0
C115 C 0.88683 0.85202 0.62871 0.0
N116 N 0.93306 0.89242 0.62408 0.0
C117 C 0.92619 0.88048 0.65105 0.0
Co118 Co 0.2751 0.67673 0.89174 0.0
Co119 Co 0.32449 0.72661 0.86503 0.0
O120 O 0.31144 0.69952 0.89661 0.0
C121 C 0.30341 0.64393 0.94083 0.0
O122 O 0.31979 0.66656 0.94896 0.0
C123 C 0.33648 0.7646 0.91754 0.0
O124 O 0.30785 0.76775 0.92187 0.0
O125 O 0.28753 0.74994 0.87092 0.0
O126 O 0.25552 0.71161 0.8718 0.0
H127 H 0.31158 0.7914 0.77517 0.0
H128 H 0.29672 0.71594 0.94253 0.0
O129 O 0.29381 0.64254 0.91411 0.0
H130 H 0.1917 0.69727 0.96479 0.0
H131 H 0.21353 0.58413 0.89953 0.0
H132 H 0.22962 0.67637 0.84398 0.0
H133 H 0.21356 0.67686 0.92027 0.0
H134 H 0.24605 0.62244 0.91946 0.0
O135 O 0.3462 0.74958 0.8958 0.0
H136 H 0.29584 0.75532 0.81305 0.0
H137 H 0.3811 0.75872 0.85317 0.0
H138 H 0.19316 0.64119 0.8266 0.0
H139 H 0.27464 0.73839 0.98615 0.0
H140 H 0.1856 0.59343 0.85309 0.0
H141 H 0.22188 0.72873 -0.00162 0.0
O142 O 0.29159 0.66114 0.85365 0.0
H143 H 0.41297 0.66752 0.89855 0.0
H144 H 0.35615 0.70279 0.81189 0.0
H145 H 0.40051 0.67169 0.80417 0.0
H146 H 0.42931 0.65391 0.8477 0.0
H147 H 0.36834 0.69849 0.90527 0.0
H148 H 0.39772 0.79499 0.81582 0.0
H149 H 0.36288 0.81149 0.77639 0.0
O150 O 0.30367 0.70409 0.833 0.0
C151 C 0.26119 0.73945 0.87108 0.0
C152 C 0.327 0.78433 0.7922 0.0
C153 C 0.37533 0.78637 0.81503 0.0
N154 N 0.33755 0.75476 0.83522 0.0
C155 C 0.31822 0.76385 0.81369 0.0
C156 C 0.36576 0.76588 0.83617 0.0
C157 C 0.35577 0.79561 0.79291 0.0
C158 C 0.27384 0.71106 0.94687 0.0
N159 N 0.25763 0.69266 0.92878 0.0
C160 C 0.26135 0.72419 0.97204 0.0
C161 C 0.23181 0.71878 0.97891 0.0
C162 C 0.21499 0.70097 0.96022 0.0
C163 C 0.22809 0.68857 0.93502 0.0
C164 C 0.2165 0.60463 0.8876 0.0
C165 C 0.22524 0.65715 0.85747 0.0
C166 C 0.23556 0.62639 0.89858 0.0
N167 N 0.24065 0.65197 0.88309 0.0
C168 C 0.20475 0.63668 0.84687 0.0
C169 C 0.20078 0.60994 0.86163 0.0
C170 C 0.29587 0.67713 0.83081 0.0
C171 C 0.40065 0.67519 0.8794 0.0
C172 C 0.36851 0.69508 0.83095 0.0
C173 C 0.39364 0.67751 0.82644 0.0
C174 C 0.40979 0.66755 0.85087 0.0
N175 N 0.35976 0.70261 0.85901 0.0
C176 C 0.3754 0.69279 0.88307 0.0
Co177 Co 0.57688 0.00778 0.15945 0.0
Co178 Co 0.54276 0.07014 0.13483 0.0
O179 O 0.56071 0.04722 0.16765 0.0
C180 C 0.60768 0.02524 0.21612 0.0
O181 O 0.59013 0.04805 0.22034 0.0
C182 C 0.49978 0.08175 0.18305 0.0
O183 O 0.49461 0.05318 0.18498 0.0
O184 O 0.51225 0.0384 0.13043 0.0
O185 O 0.54426 0.00023 0.12997 0.0
H186 H 0.49492 0.08298 0.03483 0.0
H187 H 0.54043 0.02932 0.21196 0.0
O188 O 0.60887 0.0126 0.19073 0.0
H189 H 0.5211 0.92221 0.20608 0.0
H190 H 0.64141 0.91633 0.17282 0.0
H191 H 0.58244 0.97572 0.10295 0.0
H192 H 0.5527 0.94602 0.16944 0.0
H193 H 0.61278 0.95937 0.19087 0.0
O194 O 0.51814 0.09169 0.16425 0.0
H195 H 0.51951 0.0552 0.07503 0.0
H196 H 0.52461 0.1334 0.12736 0.0
H197 H 0.60911 0.93252 0.085 0.0
H198 H 0.50734 0.00649 0.24788 0.0
H199 H 0.63798 0.90141 0.11994 0.0
H200 H 0.49775 0.95236 0.24582 0.0
O201 O 0.60262 0.02657 0.12885 0.0
H202 H 0.60858 0.13894 0.19284 0.0
H203 H 0.58174 0.10345 0.09281 0.0
H204 H 0.62098 0.14112 0.09842 0.0
H205 H 0.63458 0.15917 0.14871 0.0
H206 H 0.56957 0.10115 0.18624 0.0
H207 H 0.49984 0.162 0.08783 0.0
H208 H 0.48493 0.1368 0.0411 0.0
O209 O 0.56728 0.05005 0.10386 0.0
C210 C 0.51819 0.01093 0.12692 0.0
C211 C 0.50138 0.09424 0.05506 0.0
C212 C 0.50411 0.13857 0.08482 0.0
N213 N 0.5237 0.09267 0.10344 0.0
C214 C 0.51538 0.07862 0.07788 0.0
C215 C 0.51807 0.12224 0.10716 0.0
C216 C 0.49576 0.12442 0.0586 0.0
C217 C 0.53695 0.00584 0.21033 0.0
N218 N 0.55078 0.98908 0.18903 0.0
C219 C 0.51785 0.99296 0.23104 0.0
C220 C 0.51246 0.96263 0.22989 0.0
C221 C 0.5257 0.94571 0.20776 0.0
C222 C 0.54436 0.95943 0.18722 0.0
C223 C 0.62772 0.92892 0.15769 0.0
C224 C 0.59457 0.96257 0.11881 0.0
C225 C 0.61179 0.95367 0.16763 0.0
N226 N 0.59521 0.97016 0.14821 0.0
C227 C 0.60993 0.93795 0.10829 0.0
C228 C 0.62627 0.92077 0.12792 0.0
C229 C 0.59251 0.03752 0.10479 0.0
C230 C 0.60281 0.13129 0.1708 0.0
C231 C 0.58759 0.11111 0.11479 0.0
C232 C 0.60979 0.13249 0.11781 0.0
C233 C 0.61741 0.14262 0.14604 0.0
N234 N 0.57328 0.10019 0.13918 0.0
C235 C 0.58071 0.10993 0.16693 0.0
Co236 Co 0.71541 0.17058 0.58999 0.0
Co237 Co 0.6778 0.2267 0.62101 0.0
O238 O 0.68517 0.20146 0.58636 0.0
C239 C 0.68675 0.15311 0.53318 0.0
O240 O 0.67255 0.1781 0.52863 0.0
C241 C 0.6738 0.27284 0.57319 0.0
O242 O 0.70212 0.27111 0.56663 0.0
O243 O 0.71961 0.24063 0.6172 0.0
O244 O 0.73938 0.19527 0.61836 0.0
H245 H 0.70567 0.27424 0.71794 0.0
H246 H 0.70629 0.21743 0.54199 0.0
O247 O 0.6932 0.14544 0.5598 0.0
H248 H 0.81229 0.19226 0.53788 0.0
H249 H 0.76294 0.0745 0.56133 0.0
H250 H 0.74647 0.14565 0.64248 0.0
H251 H 0.78015 0.16917 0.57458 0.0
H252 H 0.74456 0.12481 0.55115 0.0
O253 O 0.66283 0.25778 0.59415 0.0
H254 H 0.71211 0.24048 0.67535 0.0
H255 H 0.63075 0.27033 0.63815 0.0
H256 H 0.76548 0.09593 0.65397 0.0
H257 H 0.73804 0.24262 0.50648 0.0
H258 H 0.7742 0.05979 0.61332 0.0
H259 H 0.79145 0.22965 0.50327 0.0
O260 O 0.69105 0.1538 0.62304 0.0
H261 H 0.57908 0.19483 0.58006 0.0
H262 H 0.63878 0.20696 0.67103 0.0
H263 H 0.58781 0.18752 0.67465 0.0
H264 H 0.55754 0.18142 0.62895 0.0
H265 H 0.63023 0.21404 0.57742 0.0
H266 H 0.62353 0.30455 0.68025 0.0
H267 H 0.6611 0.30657 0.72059 0.0
O268 O 0.69046 0.19541 0.64938 0.0
C269 C 0.74222 0.22346 0.61833 0.0
C270 C 0.68909 0.27348 0.70056 0.0
C271 C 0.64301 0.29052 0.67938 0.0
N272 N 0.6717 0.2532 0.65443 0.0
C273 C 0.69257 0.25435 0.67642 0.0
C274 C 0.64725 0.27113 0.65556 0.0
C275 C 0.66409 0.29164 0.70201 0.0
C276 C 0.72911 0.21068 0.54091 0.0
N277 N 0.74014 0.18865 0.55875 0.0
C278 C 0.74724 0.22557 0.52066 0.0
C279 C 0.77717 0.21836 0.51889 0.0
C280 C 0.78878 0.19721 0.53806 0.0
C281 C 0.77005 0.18321 0.55832 0.0
C282 C 0.75952 0.08992 0.57936 0.0
C283 C 0.7505 0.13036 0.6245 0.0
C284 C 0.7485 0.11827 0.57359 0.0
N285 N 0.74272 0.13761 0.59611 0.0
C286 C 0.76141 0.10216 0.63119 0.0
C287 C 0.76585 0.08176 0.60844 0.0
C288 C 0.68812 0.16735 0.64778 0.0
C289 C 0.59202 0.19746 0.60015 0.0
C290 C 0.62579 0.20435 0.65103 0.0
C291 C 0.59692 0.19335 0.65323 0.0
C292 C 0.57995 0.18993 0.62758 0.0
N293 N 0.63744 0.21185 0.62404 0.0
C294 C 0.62098 0.20837 0.59879 0.0
Co295 Co 0.04431 0.46609 0.8212 0.0
Co296 Co 0.00888 0.42131 0.87213 0.0
O297 O 0.027 0.42851 0.83342 0.0
C298 C 0.09572 0.44516 0.77932 0.0
O299 O 0.10992 0.42128 0.77057 0.0
C300 C 0.96167 0.40913 0.82954 0.0
O301 O 0.96533 0.43639 0.82012 0.0
O302 O 0.98603 0.45953 0.87093 0.0
O303 O 0.0146 0.48931 0.84341 0.0
H304 H 0.97791 0.44742 0.976 0.0
H305 H 0.03326 0.42188 0.77364 0.0
O306 O 0.07572 0.44222 0.79935 0.0
H307 H 0.95976 0.50069 0.75543 0.0
H308 H 0.06047 0.55341 0.75179 0.0
H309 H 0.07222 0.51636 0.85359 0.0
H310 H 0.99572 0.5055 0.79603 0.0
H311 H 0.04845 0.502 0.7632 0.0
O312 O 0.97593 0.39992 0.85203 0.0
H313 H 0.00092 0.45643 0.92721 0.0
H314 H 0.97773 0.36956 0.89905 0.0
H315 H 0.08796 0.56624 0.84188 0.0
H316 H 0.9982 0.41679 0.73224 0.0
H317 H 0.08116 0.58613 0.79089 0.0
H318 H 0.96093 0.45624 0.72291 0.0
O319 O 0.07033 0.46533 0.85783 0.0
H320 H 0.0477 0.32469 0.83201 0.0
H321 H 0.0461 0.39194 0.91832 0.0
H322 H 0.07473 0.34542 0.92104 0.0
H323 H 0.07555 0.31135 0.8777 0.0
H324 H 0.01964 0.3716 0.83014 0.0
H325 H 0.95426 0.35969 0.94748 0.0
H326 H 0.95435 0.39875 0.98638 0.0
O327 O 0.04208 0.44198 0.892 0.0
C328 C 0.99261 0.48497 0.86039 0.0
C329 C 0.97779 0.4302 0.95926 0.0
C330 C 0.96447 0.38097 0.94323 0.0
N331 N 0.99079 0.4135 0.91036 0.0
C332 C 0.99084 0.43514 0.93161 0.0
C333 C 0.97771 0.38672 0.91582 0.0
C334 C 0.96454 0.4029 0.96506 0.0
C335 C 0.01794 0.43976 0.7693 0.0
N336 N 0.01758 0.46448 0.78695 0.0
C337 C 0.99776 0.43649 0.74597 0.0
C338 C 0.97676 0.45855 0.74084 0.0
C339 C 0.97607 0.48344 0.75911 0.0
C340 C 0.9965 0.48593 0.78231 0.0
C341 C 0.06364 0.54512 0.7741 0.0
C342 C 0.07112 0.52321 0.83077 0.0
C343 C 0.05654 0.51576 0.78098 0.0
N344 N 0.06046 0.50473 0.8091 0.0
C345 C 0.07933 0.55231 0.82444 0.0
C346 C 0.07536 0.56342 0.79596 0.0
C347 C 0.06518 0.45642 0.8845 0.0
C348 C 0.04748 0.33933 0.85106 0.0
C349 C 0.04652 0.37736 0.8993 0.0
C350 C 0.06269 0.35098 0.901 0.0
C351 C 0.06312 0.33187 0.87669 0.0
N352 N 0.03112 0.38447 0.87415 0.0
C353 C 0.03156 0.3659 0.85017 0.0
Co354 Co 0.77549 0.81832 0.10624 0.0
Co355 Co 0.82672 0.77266 0.13702 0.0
O356 O 0.81246 0.79583 0.1027 0.0
C357 C 0.79945 0.84451 0.05128 0.0
O358 O 0.81523 0.82077 0.04549 0.0
C359 C 0.83705 0.72629 0.09111 0.0
O360 O 0.80837 0.72192 0.08853 0.0
O361 O 0.78952 0.74872 0.13548 0.0
O362 O 0.75822 0.78711 0.13247 0.0
H363 H 0.81618 0.72034 0.23485 0.0
H364 H 0.79586 0.7715 0.06151 0.0
O365 O 0.79099 0.84951 0.07791 0.0
H366 H 0.69014 0.78627 0.03961 0.0
H367 H 0.70679 0.90462 0.08814 0.0
H368 H 0.73516 0.82613 0.15768 0.0
H369 H 0.71312 0.81231 0.08082 0.0
H370 H 0.74065 0.86542 0.07202 0.0
O371 O 0.84722 0.74546 0.10904 0.0
H372 H 0.79946 0.75116 0.19288 0.0
H373 H 0.88367 0.74197 0.15157 0.0
H374 H 0.6997 0.86385 0.17329 0.0
H375 H 0.77295 0.74329 0.02193 0.0
H376 H 0.68671 0.90472 0.13908 0.0
H377 H 0.71981 0.7509 0.00975 0.0
O378 O 0.79379 0.83944 0.1405 0.0
H379 H 0.91417 0.8256 0.09278 0.0
H380 H 0.86071 0.80281 0.18541 0.0
H381 H 0.90561 0.83396 0.1873 0.0
H382 H 0.93273 0.84546 0.14076 0.0
H383 H 0.86904 0.7947 0.09186 0.0
H384 H 0.90121 0.71084 0.19299 0.0
H385 H 0.8674 0.69995 0.23509 0.0
O386 O 0.80756 0.79978 0.16631 0.0
C387 C 0.76331 0.75944 0.13515 0.0
C388 C 0.83116 0.72501 0.21668 0.0
C389 C 0.87886 0.71965 0.19317 0.0
N390 N 0.84064 0.74859 0.16991 0.0
C391 C 0.82184 0.74252 0.19288 0.0
C392 C 0.86878 0.73724 0.16974 0.0
C393 C 0.85989 0.71355 0.21679 0.0
C394 C 0.77285 0.77575 0.05709 0.0
N395 N 0.75695 0.79649 0.0728 0.0
C396 C 0.75989 0.75926 0.03424 0.0
C397 C 0.73015 0.76353 0.02738 0.0
C398 C 0.71363 0.78361 0.04389 0.0
C399 C 0.72729 0.79948 0.06679 0.0
C400 C 0.71241 0.887 0.10308 0.0
C401 C 0.72826 0.84232 0.14151 0.0
C402 C 0.73208 0.86478 0.09428 0.0
N403 N 0.74049 0.84299 0.11365 0.0
C404 C 0.70839 0.86412 0.15089 0.0
C405 C 0.70091 0.88692 0.13167 0.0
C406 C 0.8 0.82692 0.16507 0.0
C407 C 0.90259 0.82069 0.11322 0.0
C408 C 0.87231 0.8078 0.16504 0.0
C409 C 0.89776 0.82541 0.16626 0.0
C410 C 0.91297 0.83185 0.14014 0.0
N411 N 0.86233 0.79682 0.13855 0.0
C412 C 0.87705 0.80316 0.11284 0.0
Co413 Co 0.41715 0.51142 0.34062 0.0
Co414 Co 0.44737 0.57662 0.36364 0.0
O415 O 0.43155 0.55135 0.33141 0.0
C416 C 0.38622 0.52645 0.28329 0.0
O417 O 0.40282 0.54994 0.2792 0.0
C418 C 0.49262 0.5861 0.31778 0.0
O419 O 0.49714 0.55736 0.31721 0.0
O420 O 0.47891 0.54657 0.37101 0.0
O421 O 0.44949 0.50645 0.37091 0.0
H422 H 0.49047 0.59649 0.46465 0.0
H423 H 0.45308 0.53308 0.28784 0.0
O424 O 0.38563 0.51354 0.30855 0.0
H425 H 0.47795 0.42736 0.29709 0.0
H426 H 0.36092 0.41445 0.32919 0.0
H427 H 0.4121 0.48139 0.39819 0.0
H428 H 0.44476 0.45063 0.33267 0.0
H429 H 0.38458 0.46005 0.31038 0.0
O430 O 0.47281 0.59719 0.33439 0.0
H431 H 0.46879 0.56568 0.42497 0.0
H432 H 0.46265 0.64085 0.36858 0.0
H433 H 0.39067 0.43551 0.4168 0.0
H434 H 0.48783 0.51092 0.25305 0.0
H435 H 0.36669 0.40043 0.38202 0.0
H436 H 0.50023 0.45744 0.25678 0.0
O437 O 0.3897 0.52974 0.37009 0.0
H438 H 0.38223 0.64017 0.29928 0.0
H439 H 0.40506 0.61031 0.40206 0.0
H440 H 0.36477 0.64616 0.39274 0.0
H441 H 0.35318 0.66137 0.34105 0.0
H442 H 0.42224 0.60423 0.3096 0.0
H443 H 0.48453 0.67243 0.40758 0.0
H444 H 0.49848 0.65029 0.45608 0.0
O445 O 0.42242 0.55733 0.39448 0.0
C446 C 0.47461 0.51891 0.37484 0.0
C447 C 0.48439 0.60642 0.44365 0.0
C448 C 0.48109 0.64903 0.4116 0.0
N449 N 0.46418 0.60148 0.39457 0.0
C450 C 0.47203 0.5891 0.42111 0.0
C451 C 0.46876 0.63102 0.38958 0.0
C452 C 0.4889 0.6366 0.43882 0.0
C453 C 0.45779 0.50989 0.29025 0.0
N454 N 0.44467 0.49314 0.31195 0.0
C455 C 0.47785 0.49739 0.27016 0.0
C456 C 0.4848 0.46743 0.27224 0.0
C457 C 0.47216 0.45054 0.29468 0.0
C458 C 0.45257 0.46391 0.31463 0.0
C459 C 0.37315 0.42869 0.34405 0.0
C460 C 0.40169 0.46663 0.38251 0.0
C461 C 0.38605 0.45492 0.33373 0.0
N462 N 0.4008 0.4733 0.35288 0.0
C463 C 0.38936 0.44055 0.39341 0.0
C464 C 0.37568 0.4211 0.37389 0.0
C465 C 0.39827 0.54291 0.39362 0.0
C466 C 0.3871 0.63375 0.32191 0.0
C467 C 0.40007 0.61671 0.37948 0.0
C468 C 0.37727 0.63708 0.37436 0.0
C469 C 0.37079 0.64562 0.34535 0.0
N470 N 0.41603 0.60525 0.35637 0.0
C471 C 0.40975 0.61345 0.32788 0.0
Co472 Co 0.39965 0.2409 0.32418 0.0
Co473 Co 0.38099 0.17596 0.29142 0.0
O474 O 0.4112 0.20145 0.31018 0.0
C475 C 0.45582 0.22782 0.35823 0.0
O476 O 0.4608 0.20276 0.3443 0.0
C477 C 0.4318 0.16558 0.25118 0.0
O478 O 0.43292 0.19411 0.24553 0.0
O479 O 0.37642 0.20633 0.25953 0.0
O480 O 0.37097 0.24501 0.29041 0.0
H481 H 0.28495 0.15536 0.23842 0.0
H482 H 0.4566 0.22182 0.29365 0.0
O483 O 0.43008 0.23982 0.35738 0.0
H484 H 0.44084 0.32533 0.26316 0.0
H485 H 0.40652 0.33632 0.38323 0.0
H486 H 0.34098 0.26921 0.32776 0.0
H487 H 0.40452 0.30035 0.29455 0.0
H488 H 0.4275 0.2937 0.3561 0.0
O489 O 0.41278 0.15532 0.26914 0.0
H490 H 0.322 0.18642 0.264 0.0
H491 H 0.37808 0.11165 0.27581 0.0
H492 H 0.31958 0.3102 0.35524 0.0
H493 H 0.49248 0.2455 0.26091 0.0
H494 H 0.35227 0.3452 0.38259 0.0
H495 H 0.48538 0.29793 0.24582 0.0
O496 O 0.36878 0.22134 0.34943 0.0
H497 H 0.43923 0.11304 0.36266 0.0
H498 H 0.33891 0.14189 0.32967 0.0
H499 H 0.34456 0.10616 0.37068 0.0
H500 H 0.39501 0.09145 0.38737 0.0
H501 H 0.43257 0.14885 0.32184 0.0
H502 H 0.34176 0.07979 0.25012 0.0
H503 H 0.29473 0.1016 0.23133 0.0
O504 O 0.34772 0.19511 0.31337 0.0
C505 C 0.37046 0.23358 0.2645 0.0
C506 C 0.30531 0.14557 0.2466 0.0
C507 C 0.33721 0.10317 0.25313 0.0
N508 N 0.35206 0.15086 0.27165 0.0
C509 C 0.32634 0.16305 0.26118 0.0
C510 C 0.35772 0.12134 0.26761 0.0
C511 C 0.31082 0.11542 0.2426 0.0
C512 C 0.45284 0.24456 0.28765 0.0
N513 N 0.42892 0.26006 0.29827 0.0
C514 C 0.47351 0.25791 0.26882 0.0
C515 C 0.46953 0.2873 0.26036 0.0
C516 C 0.4447 0.30272 0.27024 0.0
C517 C 0.42434 0.28852 0.28873 0.0
C518 C 0.39218 0.32176 0.37074 0.0
C519 C 0.3557 0.28366 0.33976 0.0
C520 C 0.40388 0.29742 0.35543 0.0
N521 N 0.38561 0.27857 0.34018 0.0
C522 C 0.34329 0.30728 0.35525 0.0
C523 C 0.36167 0.32665 0.37063 0.0
C524 C 0.34604 0.20898 0.33785 0.0
C525 C 0.41713 0.11923 0.35555 0.0
C526 C 0.36095 0.13569 0.33688 0.0
C527 C 0.364 0.1154 0.36007 0.0
C528 C 0.39231 0.10714 0.36942 0.0
N529 N 0.38541 0.14737 0.3233 0.0
C530 C 0.41323 0.13946 0.33242 0.0
Co531 Co 0.03096 0.14219 0.5765 0.0
Co532 Co 0.06987 0.11376 0.51893 0.0
O533 O 0.06409 0.14519 0.54878 0.0
C534 C 0.05954 0.18564 0.62471 0.0
O535 O 0.08221 0.18693 0.64298 0.0
C536 C 0.08209 0.1685 0.48546 0.0
O537 O 0.05521 0.17812 0.49118 0.0
O538 O 0.03046 0.12414 0.50205 0.0
O539 O 0.00479 0.12412 0.54482 0.0
H540 H 0.03756 0.0288 0.45427 0.0
H541 H 0.05798 0.19686 0.55083 0.0
O542 O 0.05697 0.16203 0.60842 0.0
H543 H 0.95035 0.21526 0.54923 0.0
H544 H 0.97568 0.16208 0.67035 0.0
H545 H 0.99359 0.09003 0.59055 0.0
H546 H 0.97033 0.16974 0.57181 0.0
H547 H 0.99246 0.17758 0.62016 0.0
O548 O 0.09026 0.14295 0.49365 0.0
H549 H 0.03186 0.0663 0.49367 0.0
H550 H 0.11917 0.09784 0.47756 0.0
H551 H 0.97261 0.073 0.63754 0.0
H552 H 0.03876 0.24143 0.5264 0.0
H553 H 0.96477 0.10875 0.67883 0.0
H554 H 0.98458 0.25135 0.52603 0.0
O555 O 0.04774 0.10286 0.58856 0.0
H556 H 0.16927 0.13706 0.56389 0.0
H557 H 0.10051 0.05708 0.53491 0.0
H558 H 0.14859 0.04436 0.55776 0.0
H559 H 0.1834 0.0845 0.57234 0.0
H560 H 0.12088 0.14884 0.54116 0.0
H561 H 0.12575 0.06076 0.43786 0.0
H562 H 0.0848 0.02583 0.42606 0.0
O563 O 0.05064 0.08284 0.54373 0.0
C564 C 0.00598 0.12482 0.51637 0.0
C565 C 0.05561 0.04382 0.45928 0.0
C566 C 0.10509 0.06179 0.45005 0.0
N567 N 0.07523 0.0841 0.48813 0.0
C568 C 0.05254 0.06507 0.48163 0.0
C569 C 0.10121 0.08278 0.47252 0.0
C570 C 0.08211 0.04219 0.44344 0.0
C571 C 0.03428 0.20027 0.5503 0.0
N572 N 0.01543 0.18051 0.56348 0.0
C573 C 0.02355 0.22591 0.53656 0.0
C574 C 0.99321 0.23151 0.53642 0.0
C575 C 0.97403 0.21135 0.54967 0.0
C576 C 0.98556 0.18573 0.5628 0.0
C577 C 0.9801 0.14592 0.65316 0.0
C578 C 0.98987 0.10598 0.608 0.0
C579 C 0.99127 0.15483 0.62568 0.0
N580 N -0.00079 0.13465 0.60493 0.0
C581 C 0.97782 0.09611 0.63468 0.0
C582 C 0.97373 0.11611 0.65782 0.0
C583 C 0.04942 0.08023 0.5717 0.0
C584 C 0.15432 0.11937 0.55758 0.0
C585 C 0.11548 0.0747 0.54127 0.0
C586 C 0.1427 0.06734 0.55416 0.0
C587 C 0.16222 0.08988 0.56233 0.0
N588 N 0.10793 0.10369 0.53656 0.0
C589 C 0.1269 0.1259 0.54466 0.0
Co590 Co 0.0977 0.76658 0.82869 0.0
Co591 Co 0.12257 0.82439 0.78772 0.0
O592 O 0.09003 0.80395 0.80826 0.0
C593 C 0.04129 0.78803 0.85645 0.0
O594 O 0.03659 0.80716 0.83508 0.0
C595 C 0.07455 0.83045 0.74339 0.0
O596 O 0.07358 0.80151 0.74051 0.0
O597 O 0.12632 0.78951 0.7612 0.0
O598 O 0.1264 0.75435 0.79661 0.0
H599 H 0.22195 0.83114 0.73768 0.0
H600 H 0.04585 0.78443 0.78874 0.0
O601 O 0.06711 0.77681 0.86017 0.0
H602 H 0.05012 0.6758 0.78283 0.0
H603 H 0.08176 0.6922 0.90968 0.0
H604 H 0.15302 0.73239 0.83789 0.0
H605 H 0.08688 0.70277 0.81185 0.0
H606 H 0.06448 0.72465 0.86938 0.0
O607 O 0.09277 0.84265 0.76108 0.0
H608 H 0.18195 0.80652 0.76563 0.0
H609 H 0.12986 0.88498 0.76218 0.0
H610 H 0.17059 0.69917 0.87727 0.0
H611 H 0.00944 0.75821 0.75889 0.0
H612 H 0.13515 0.68187 0.91559 0.0
H613 H 0.01065 0.70329 0.75606 0.0
O614 O 0.12942 0.78722 0.85187 0.0
H615 H 0.06561 0.90088 0.84544 0.0
H616 H 0.16514 0.8617 0.82231 0.0
H617 H 0.16016 0.90378 0.85694 0.0
H618 H 0.11011 0.92371 0.86864 0.0
H619 H 0.07159 0.85869 0.81107 0.0
H620 H 0.1692 0.91038 0.73395 0.0
H621 H 0.21571 0.88347 0.72165 0.0
O622 O 0.15367 0.80712 0.81402 0.0
C623 C 0.12901 0.76265 0.76954 0.0
C624 C 0.20184 0.84315 0.74301 0.0
C625 C 0.17222 0.88761 0.74089 0.0
N626 N 0.15375 0.84439 0.76586 0.0
C627 C 0.17915 0.82935 0.75892 0.0
C628 C 0.15 0.87309 0.75684 0.0
C629 C 0.19831 0.8725 0.734 0.0
C630 C 0.04662 0.76067 0.78895 0.0
N631 N 0.06738 0.74549 0.80521 0.0
C632 C 0.02585 0.74583 0.77132 0.0
C633 C 0.02657 0.71507 0.76966 0.0
C634 C 0.04853 0.69967 0.78483 0.0
C635 C 0.0691 0.7153 0.80204 0.0
C636 C 0.09732 0.70078 0.89379 0.0
C637 C 0.13698 0.72314 0.85302 0.0
C638 C 0.08778 0.71924 0.87085 0.0
N639 N 0.10779 0.73135 0.85157 0.0
C640 C 0.14724 0.70459 0.87558 0.0
C641 C 0.12736 0.69449 0.89681 0.0
C642 C 0.15332 0.79685 0.84025 0.0
C643 C 0.08754 0.89244 0.84047 0.0
C644 C 0.14328 0.87017 0.82737 0.0
C645 C 0.1406 0.89404 0.84695 0.0
C646 C 0.11251 0.90522 0.8535 0.0
N647 N 0.11868 0.85783 0.81458 0.0
C648 C 0.09107 0.86859 0.82099 0.0
Co649 Co 0.48142 0.85009 0.08097 0.0
Co650 Co 0.43135 0.87665 0.03173 0.0
O651 O 0.44558 0.84428 0.05743 0.0
C652 C 0.45414 0.79865 0.11066 0.0
O653 O 0.43624 0.79271 0.08846 0.0
C654 C 0.42104 0.82574 0.99097 0.0
O655 O 0.44974 0.82132 0.98856 0.0
O656 O 0.46861 0.87296 0.00855 0.0
O657 O 0.50002 0.87277 0.04744 0.0
H658 H 0.44167 0.96935 0.97073 0.0
H659 H 0.46255 0.7987 0.04125 0.0
O660 O 0.46412 0.82505 0.11392 0.0
H661 H 0.56903 0.78265 0.05854 0.0
H662 H 0.54628 0.83882 0.17132 0.0
H663 H 0.52056 0.90217 0.08626 0.0
H664 H 0.54505 0.82646 0.07829 0.0
H665 H 0.51507 0.81971 0.13089 0.0
O666 O 0.41092 0.84649 0.00706 0.0
H667 H 0.45846 0.93049 0.00531 0.0
H668 H 0.37442 0.88824 -0.00018 0.0
H669 H 0.55324 0.92117 0.12445 0.0
H670 H 0.4866 0.75561 0.01971 0.0
H671 H 0.56626 0.89017 0.16793 0.0
H672 H 0.54013 0.7465 0.02875 0.0
O673 O 0.46235 0.88624 0.09807 0.0
H674 H 0.34387 0.8373 0.08836 0.0
H675 H 0.3974 0.92745 0.05751 0.0
H676 H 0.35249 0.93209 0.0884 0.0
H677 H 0.32535 0.8868 0.10396 0.0
H678 H 0.38898 0.83365 0.05763 0.0
H679 H 0.35678 0.92655 0.96501 0.0
H680 H 0.39047 0.96755 0.95032 0.0
O681 O 0.45069 0.90842 0.05587 0.0
C682 C 0.49477 0.87368 0.01951 0.0
C683 C 0.42674 0.95166 0.97703 0.0
C684 C 0.37912 0.92762 0.9738 0.0
N685 N 0.4174 0.90723 0.0048 0.0
C686 C 0.43611 0.92961 0.99667 0.0
C687 C 0.38927 0.90595 0.99348 0.0
C688 C 0.39803 0.95062 0.96557 0.0
C689 C 0.48567 0.79553 0.04605 0.0
N690 N 0.50115 0.8148 0.06384 0.0
C691 C 0.49932 0.77076 0.03336 0.0
C692 C 0.5293 0.76565 0.03839 0.0
C693 C 0.54543 0.78577 0.05528 0.0
C694 C 0.53114 0.81048 0.06733 0.0
C695 C 0.54095 0.85275 0.15251 0.0
C696 C 0.52688 0.88753 0.10408 0.0
C697 C 0.5228 0.84208 0.12976 0.0
N698 N 0.51513 0.8597 0.10633 0.0
C699 C 0.54544 0.89872 0.12604 0.0
C700 C 0.55233 0.88136 0.15055 0.0
C701 C 0.45765 0.90969 0.08313 0.0
C702 C 0.35546 0.8572 0.08167 0.0
C703 C 0.38577 0.90762 0.06427 0.0
C704 C 0.36032 0.9104 0.08172 0.0
C705 C 0.3451 0.88498 0.09043 0.0
N706 N 0.39572 0.8803 0.05564 0.0
C707 C 0.38099 0.85528 0.06422 0.0
Co708 Co 0.91734 0.25988 0.67009 0.0
Co709 Co 0.86936 0.31274 0.69884 0.0
O710 O 0.90852 0.29966 0.685 0.0
C711 C 0.9675 0.27716 0.62307 0.0
O712 O 0.97101 0.29756 0.60256 0.0
C713 C 0.90722 0.32507 0.75065 0.0
O714 O 0.91617 0.29736 0.74994 0.0
O715 O 0.86445 0.27652 0.72424 0.0
O716 O 0.89271 0.24208 0.70183 0.0
H717 H 0.76067 0.30127 0.72122 0.0
H718 H 0.96617 0.30224 0.67997 0.0
O719 O 0.94263 0.27834 0.6374 0.0
H720 H 0.98346 0.2251 0.75511 0.0
H721 H 0.91207 0.1479 0.67031 0.0
H722 H 0.92517 0.23705 0.60947 0.0
H723 H 0.94062 0.22232 0.72242 0.0
H724 H 0.91633 0.19576 0.69361 0.0
O725 O 0.8884 0.33452 0.73197 0.0
H726 H 0.80987 0.28486 0.70394 0.0
H727 H 0.84602 0.36965 0.7235 0.0
H728 H 0.92189 0.18877 0.58539 0.0
H729 H 0.00949 0.30595 0.71266 0.0
H730 H 0.91664 0.14362 0.61572 0.0
H731 H 0.01874 0.26702 0.75044 0.0
O732 O 0.88112 0.2601 0.64389 0.0
H733 H 0.92334 0.40088 0.65729 0.0
H734 H 0.83019 0.34363 0.65531 0.0
H735 H 0.83533 0.38758 0.62322 0.0
H736 H 0.88214 0.41662 0.62418 0.0
H737 H 0.91737 0.35657 0.68876 0.0
H738 H 0.79722 0.38688 0.74128 0.0
H739 H 0.75409 0.35262 0.7401 0.0
O740 O 0.84957 0.29166 0.66615 0.0
C741 C 0.87406 0.24996 0.72147 0.0
C742 C 0.77929 0.31641 0.72186 0.0
C743 C 0.79982 0.36444 0.73314 0.0
N744 N 0.83085 0.32625 0.7127 0.0
C745 C 0.80723 0.30725 0.71207 0.0
C746 C 0.82743 0.35451 0.72315 0.0
C747 C 0.77562 0.34522 0.73245 0.0
C748 C 0.9703 0.28453 0.69552 0.0
N749 N 0.95165 0.26057 0.697 0.0
C750 C 0.9948 0.28706 0.71436 0.0
C751 C -9e-05 0.26531 0.7356 0.0
C752 C 0.9802 0.24174 0.73813 0.0
C753 C 0.95591 0.23998 0.71892 0.0
C754 C 0.916 0.16738 0.65687 0.0
C755 C 0.92483 0.21767 0.6234 0.0
C756 C 0.91941 0.19503 0.67023 0.0
N757 N 0.92414 0.22011 0.65375 0.0
C758 C 0.92206 0.19027 0.60932 0.0
C759 C 0.91807 0.16498 0.62626 0.0
C760 C 0.85564 0.27238 0.64656 0.0
C761 C 0.90283 0.38842 0.65669 0.0
C762 C 0.8507 0.35599 0.65566 0.0
C763 C 0.85345 0.38094 0.63754 0.0
C764 C 0.87971 0.39723 0.6381 0.0
N765 N 0.87343 0.34755 0.6739 0.0
C766 C 0.89929 0.36335 0.6745 0.0
Co767 Co 0.9771 0.65069 0.9239 0.0
Co768 Co 0.92808 0.61754 0.96996 0.0
O769 O 0.94112 0.6529 0.94798 0.0
C770 C 0.95351 0.70803 0.90301 0.0
O771 O 0.93886 0.71248 0.92775 0.0
C772 C 0.92006 0.65982 0.02047 0.0
O773 O 0.94878 0.66114 0.02519 0.0
O774 O 0.96673 0.61733 0.9919 0.0
O775 O 0.99533 0.62174 0.95179 0.0
H776 H 0.94076 0.51643 0.01497 0.0
H777 H 0.95894 0.69124 0.9753 0.0
O778 O 0.96073 0.68158 0.89565 0.0
H779 H 0.0643 0.71345 0.95919 0.0
H780 H 0.04796 0.67786 0.84157 0.0
H781 H 0.01495 0.59932 0.90894 0.0
H782 H 0.04011 0.67541 0.92991 0.0
H783 H 0.01165 0.689 0.88004 0.0
O784 O 0.90943 0.64393 -0.0002 0.0
H785 H 0.956 0.56021 0.98604 0.0
H786 H 0.87305 0.60159 0.00324 0.0
H787 H 0.05158 0.58788 0.8712 0.0
H788 H 0.98322 0.72751 0.00644 0.0
H789 H 0.06817 0.62704 0.83621 0.0
H790 H 0.0362 0.73985 -0.00164 0.0
O791 O 0.9576 0.61803 0.90105 0.0
H792 H 0.83812 0.66564 0.9248 0.0
H793 H 0.89161 0.57134 0.93927 0.0
H794 H 0.84491 0.57172 0.91073 0.0
H795 H 0.81777 0.61911 0.90342 0.0
H796 H 0.88504 0.6643 0.95299 0.0
H797 H 0.85703 0.55836 0.03259 0.0
H798 H 0.89094 0.51531 0.03848 0.0
O799 O 0.94516 0.59004 0.93984 0.0
C800 C 0.99217 0.61763 0.97951 0.0
C801 C 0.92575 0.53501 0.01249 0.0
C802 C 0.87878 0.55857 0.02241 0.0
N803 N 0.91537 0.58335 0.99276 0.0
C804 C 0.93423 0.55984 0.99608 0.0
C805 C 0.88801 0.58302 0.00584 0.0
C806 C 0.89781 0.53441 0.0257 0.0
C807 C 0.98183 0.69578 0.97065 0.0
N808 N 0.99681 0.68202 0.9479 0.0
C809 C 0.99559 0.71674 0.98889 0.0
C810 C 0.02525 0.72368 0.98438 0.0
C811 C 0.04088 0.7091 0.96221 0.0
C812 C 0.02645 0.68806 0.94459 0.0
C813 C 0.041 0.66065 0.85639 0.0
C814 C 0.02265 0.61717 0.89505 0.0
C815 C 0.02004 0.66676 0.87828 0.0
N816 N 0.01104 0.64515 0.89753 0.0
C817 C 0.04332 0.61027 0.87316 0.0
C818 C 0.05251 0.63218 0.85362 0.0
C819 C 0.95088 0.59293 0.91235 0.0
C820 C 0.84972 0.64484 0.92787 0.0
C821 C 0.88003 0.59208 0.93608 0.0
C822 C 0.85355 0.59214 0.91995 0.0
C823 C 0.83832 0.61873 0.91587 0.0
N824 N 0.89103 0.61776 0.94789 0.0
C825 C 0.87628 0.64393 0.94386 0.0
Co826 Co 0.59994 0.73679 0.1848 0.0
Co827 Co 0.62376 0.67419 0.21922 0.0
O828 O 0.59148 0.69751 0.20095 0.0
C829 C 0.54369 0.71893 0.15356 0.0
O830 O 0.53961 0.69627 0.17128 0.0
C831 C 0.57496 0.66502 0.26161 0.0
O832 O 0.57444 0.69365 0.26682 0.0
O833 O 0.62888 0.70607 0.24943 0.0
O834 O 0.62922 0.74432 0.21757 0.0
H835 H 0.72351 0.6594 0.26702 0.0
H836 H 0.54712 0.71548 0.22089 0.0
O837 O 0.56885 0.73199 0.15262 0.0
H838 H 0.55283 0.82259 0.24025 0.0
H839 H 0.58686 0.82973 0.12238 0.0
H840 H 0.65665 0.76816 0.17914 0.0
H841 H 0.58957 0.79874 0.20878 0.0
H842 H 0.56881 0.78546 0.14904 0.0
O843 O 0.59376 0.65394 0.24389 0.0
H844 H 0.68395 0.68792 0.2422 0.0
H845 H 0.62963 0.61108 0.23827 0.0
H846 H 0.67457 0.81257 0.15443 0.0
H847 H 0.51126 0.73832 0.25407 0.0
H848 H 0.63947 0.84501 0.12735 0.0
H849 H 0.51319 0.79247 0.26364 0.0
O850 O 0.6307 0.71775 0.15933 0.0
H851 H 0.56435 0.60579 0.15418 0.0
H852 H 0.66506 0.63954 0.18056 0.0
H853 H 0.6587 0.60154 0.1417 0.0
H854 H 0.60806 0.58436 0.12833 0.0
H855 H 0.57171 0.64388 0.1928 0.0
H856 H 0.66851 0.58178 0.26327 0.0
H857 H 0.71592 0.60591 0.2777 0.0
O858 O 0.65501 0.69325 0.19456 0.0
C859 C 0.63256 0.73349 0.24353 0.0
C860 C 0.70299 0.64861 0.26076 0.0
C861 C 0.67211 0.60506 0.25868 0.0
N862 N 0.6546 0.65115 0.23856 0.0
C863 C 0.68052 0.66463 0.24664 0.0
C864 C 0.65014 0.62179 0.24459 0.0
C865 C 0.69871 0.61861 0.26677 0.0
C866 C 0.54881 0.73894 0.22445 0.0
N867 N 0.57014 0.75565 0.21067 0.0
C868 C 0.52808 0.75184 0.24358 0.0
C869 C 0.52915 0.78218 0.24895 0.0
C870 C 0.55122 0.79908 0.23568 0.0
C871 C 0.57183 0.78533 0.21706 0.0
C872 C 0.60193 0.81664 0.13563 0.0
C873 C 0.64083 0.78175 0.16743 0.0
C874 C 0.59203 0.7912 0.15037 0.0
N875 N 0.61141 0.77431 0.16658 0.0
C876 C 0.65132 0.80703 0.15323 0.0
C877 C 0.63161 0.82495 0.13782 0.0
C878 C 0.65438 0.70592 0.16942 0.0
C879 C 0.58654 0.61306 0.15984 0.0
C880 C 0.64294 0.63227 0.1748 0.0
C881 C 0.63949 0.61069 0.15282 0.0
C882 C 0.61107 0.60106 0.14534 0.0
N883 N 0.61877 0.64386 0.18902 0.0
C884 C 0.59084 0.63459 0.18172 0.0
Co885 Co 0.52198 0.36402 0.42489 0.0
Co886 Co 0.57671 0.39326 0.46749 0.0
O887 O 0.55999 0.35939 0.44511 0.0
C888 C 0.54612 0.31134 0.39328 0.0
O889 O 0.56715 0.30565 0.4126 0.0
C890 C 0.58994 0.3434 0.50759 0.0
O891 O 0.56133 0.33853 0.51001 0.0
O892 O 0.54176 0.39143 0.49448 0.0
O893 O 0.5067 0.3885 0.45883 0.0
H894 H 0.57284 0.48956 0.52374 0.0
H895 H 0.54566 0.3117 0.46056 0.0
O896 O 0.53569 0.33768 0.3911 0.0
H897 H 0.43723 0.30057 0.46267 0.0
H898 H 0.44801 0.34516 0.34393 0.0
H899 H 0.48335 0.4164 0.41876 0.0
H900 H 0.45942 0.34397 0.43968 0.0
H901 H 0.48124 0.3292 0.38438 0.0
O902 O 0.5995 0.36452 0.49178 0.0
H903 H 0.55255 0.44887 0.49336 0.0
H904 H 0.6366 0.40623 0.49271 0.0
H905 H 0.4494 0.43302 0.38051 0.0
H906 H 0.52403 0.26861 0.48466 0.0
H907 H 0.43124 0.3976 0.34204 0.0
H908 H 0.46938 0.26211 0.48543 0.0
O909 O 0.53904 0.39927 0.40425 0.0
H910 H 0.65809 0.34986 0.40485 0.0
H911 H 0.60782 0.44212 0.43539 0.0
H912 H 0.64937 0.44453 0.3999 0.0
H913 H 0.67487 0.39818 0.38448 0.0
H914 H 0.61632 0.34844 0.44014 0.0
H915 H 0.65778 0.44639 0.52324 0.0
H916 H 0.62586 0.4885 0.53888 0.0
O917 O 0.555 0.42369 0.44375 0.0
C918 C 0.51467 0.39162 0.48594 0.0
C919 C 0.58701 0.47138 0.517 0.0
C920 C 0.63466 0.44713 0.51675 0.0
N921 N 0.59336 0.42528 0.49106 0.0
C922 C 0.57564 0.44829 0.49974 0.0
C923 C 0.62251 0.42442 0.4995 0.0
C924 C 0.61674 0.47076 0.52551 0.0
C925 C 0.52198 0.3093 0.45968 0.0
N926 N 0.5044 0.32963 0.44545 0.0
C927 C 0.50976 0.28468 0.47394 0.0
C928 C 0.47914 0.28106 0.47443 0.0
C929 C 0.46114 0.30249 0.46149 0.0
C930 C 0.47414 0.32691 0.4476 0.0
C931 C 0.45542 0.36088 0.36049 0.0
C932 C 0.47519 0.40039 0.40297 0.0
C933 C 0.4748 0.35199 0.38296 0.0
N934 N 0.48573 0.37201 0.40286 0.0
C935 C 0.45567 0.41002 0.38113 0.0
C936 C 0.44594 0.39023 0.3595 0.0
C937 C 0.54494 0.42349 0.41747 0.0
C938 C 0.6472 0.37022 0.41146 0.0
C939 C 0.61874 0.42184 0.42872 0.0
C940 C 0.64229 0.42335 0.40865 0.0
C941 C 0.65659 0.39733 0.40002 0.0
N942 N 0.60976 0.39517 0.43996 0.0
C943 C 0.62358 0.36956 0.43148 0.0
Co944 Co 0.31796 0.39319 0.22435 0.0
Co945 Co 0.26942 0.36136 0.17669 0.0
O946 O 0.29416 0.39586 0.18801 0.0
C947 C 0.34646 0.444 0.19476 0.0
O948 O 0.32405 0.44885 0.17678 0.0
C949 C 0.22749 0.40963 0.15997 0.0
O950 O 0.22639 0.41911 0.18749 0.0
O951 O 0.24578 0.36844 0.21318 0.0
O952 O 0.2847 0.37112 0.24444 0.0
H953 H 0.21058 0.26889 0.19682 0.0
H954 H 0.27622 0.44154 0.20255 0.0
O955 O 0.35032 0.41794 0.20542 0.0
H956 H 0.29461 0.46624 0.30717 0.0
H957 H 0.40955 0.40897 0.28652 0.0
H958 H 0.32364 0.34431 0.26767 0.0
H959 H 0.31627 0.42195 0.28601 0.0
H960 H 0.36824 0.42596 0.25527 0.0
O961 O 0.24378 0.3879 0.15275 0.0
H962 H 0.24377 0.31044 0.20947 0.0
H963 H 0.23958 0.34177 0.12073 0.0
H964 H 0.36223 0.32805 0.30141 0.0
H965 H 0.25254 0.48488 0.22401 0.0
H966 H 0.40648 0.35941 0.31047 0.0
H967 H 0.26208 0.49834 0.27653 0.0
O968 O 0.33611 0.35629 0.20772 0.0
H969 H 0.32642 0.39357 0.08662 0.0
H970 H 0.297 0.30809 0.14804 0.0
H971 H 0.32882 0.30008 0.10429 0.0
H972 H 0.34368 0.343 0.07319 0.0
H973 H 0.29475 0.40063 0.13069 0.0
H974 H 0.20615 0.3007 0.10715 0.0
H975 H 0.19151 0.26381 0.14532 0.0
O976 O 0.29414 0.33252 0.19923 0.0
C977 C 0.2567 0.37015 0.23934 0.0
C978 C 0.21682 0.2848 0.17997 0.0
C979 C 0.21429 0.30267 0.12967 0.0
N980 N 0.24366 0.32854 0.16589 0.0
C981 C 0.23563 0.30838 0.18701 0.0
C982 C 0.23314 0.32597 0.13753 0.0
C983 C 0.20611 0.28197 0.15109 0.0
C984 C 0.28098 0.44645 0.22536 0.0
N985 N 0.29997 0.42924 0.2418 0.0
C986 C 0.26718 0.47142 0.23749 0.0
C987 C 0.27253 0.47899 0.2669 0.0
C988 C 0.29094 0.46113 0.28398 0.0
C989 C 0.30403 0.43609 0.27125 0.0
C990 C 0.39057 0.39476 0.28264 0.0
C991 C 0.34156 0.35938 0.27253 0.0
C992 C 0.36729 0.40423 0.26448 0.0
N993 N 0.3436 0.38623 0.25862 0.0
C994 C 0.36386 0.34963 0.29154 0.0
C995 C 0.38876 0.36717 0.29627 0.0
C996 C 0.32169 0.33226 0.2048 0.0
C997 C 0.32004 0.37469 0.09996 0.0
C998 C 0.30342 0.32691 0.13467 0.0
C999 C 0.32141 0.32222 0.10989 0.0
C1000 C 0.32973 0.34631 0.09245 0.0
N1001 N 0.29389 0.35481 0.14184 0.0
C1002 C 0.30207 0.37854 0.1249 0.0
Co1003 Co 0.79965 0.08474 0.74852 0.0
Co1004 Co 0.76836 0.12278 0.80615 0.0
O1005 O 0.78678 0.08665 0.78984 0.0
C1006 C 0.83919 0.03929 0.77845 0.0
O1007 O 0.82349 0.03826 0.80288 0.0
C1008 C 0.72897 0.07563 0.82721 0.0
O1009 O 0.72535 0.06748 0.79948 0.0
O1010 O 0.7366 0.12065 0.77537 0.0
O1011 O 0.76485 0.10917 0.73582 0.0
H1012 H 0.72065 0.22353 0.80153 0.0
H1013 H 0.77486 0.03444 0.78624 0.0
O1014 O 0.83461 0.05905 0.75878 0.0
H1015 H 0.73434 0.01793 0.68641 0.0
H1016 H 0.84182 0.03764 0.65597 0.0
H1017 H 0.8062 0.13041 0.70176 0.0
H1018 H 0.76525 0.06133 0.69653 0.0
H1019 H 0.82525 0.03833 0.70803 0.0
O1020 O 0.74507 0.09773 0.83361 0.0
H1021 H 0.74512 0.17911 0.78109 0.0
H1022 H 0.75101 0.14157 0.86726 0.0
H1023 H 0.82443 0.13104 0.65016 0.0
H1024 H 0.74452 0.99077 0.77695 0.0
H1025 H 0.84075 0.08398 0.62648 0.0
H1026 H 0.72397 0.98184 0.72662 0.0
O1027 O 0.82439 0.12097 0.75554 0.0
H1028 H 0.8374 0.08105 0.88321 0.0
H1029 H 0.80767 0.17111 0.82876 0.0
H1030 H 0.8483 0.17389 0.86533 0.0
H1031 H 0.86337 0.12864 0.89292 0.0
H1032 H 0.79699 0.07921 0.84629 0.0
H1033 H 0.72645 0.1855 0.88865 0.0
H1034 H 0.71114 0.22693 0.85572 0.0
O1035 O 0.7914 0.14915 0.77955 0.0
C1036 C 0.7402 0.11693 0.74749 0.0
C1037 C 0.72718 0.20561 0.81612 0.0
C1038 C 0.73041 0.18426 0.86499 0.0
N1039 N 0.74939 0.15768 0.82287 0.0
C1040 C 0.74103 0.18038 0.80464 0.0
C1041 C 0.7442 0.15937 0.85272 0.0
C1042 C 0.72184 0.2075 0.84651 0.0
C1043 C 0.76769 0.03048 0.76392 0.0
N1044 N 0.77467 0.04963 0.74144 0.0
C1045 C 0.74969 0.00575 0.75893 0.0
C1046 C 0.73802 0.00084 0.73079 0.0
C1047 C 0.74392 0.021 0.70824 0.0
C1048 C 0.76193 0.0455 0.71411 0.0
C1049 C 0.83414 0.05812 0.6659 0.0
C1050 C 0.81422 0.11007 0.69191 0.0
C1051 C 0.82484 0.0587 0.69542 0.0
N1052 N 0.81397 0.08425 0.70776 0.0
C1053 C 0.8245 0.11057 0.66268 0.0
C1054 C 0.83369 0.08421 0.6494 0.0
C1055 C 0.81517 0.14611 0.76481 0.0
C1056 C 0.831 0.10092 0.87138 0.0
C1057 C 0.81415 0.15129 0.84059 0.0
C1058 C 0.83714 0.15302 0.86132 0.0
C1059 C 0.84558 0.12763 0.87679 0.0
N1060 N 0.79989 0.12503 0.83546 0.0
C1061 C 0.8081 0.10003 0.85048 0.0
Co1062 Co 0.15901 0.56373 0.99214 0.0
Co1063 Co 0.13218 0.52032 0.04677 0.0
O1064 O 0.16524 0.54239 0.02916 0.0
C1065 C 0.21605 0.58793 0.01425 0.0
O1066 O 0.22046 0.56353 0.02939 0.0
C1067 C 0.16243 0.46559 0.06561 0.0
O1068 O 0.14386 0.45021 0.04921 0.0
O1069 O 0.13021 0.49526 0.00989 0.0
O1070 O 0.12996 0.53356 0.97875 0.0
H1071 H 0.03314 0.46921 0.04557 0.0
H1072 H 0.20295 0.51504 0.00959 0.0
O1073 O 0.19025 0.59378 0.0039 0.0
H1074 H 0.21505 0.52531 0.90183 0.0
H1075 H 0.17501 0.64245 0.91316 0.0
H1076 H 0.10498 0.57042 0.95448 0.0
H1077 H 0.17806 0.55457 0.92731 0.0
H1078 H 0.19039 0.61117 0.95491 0.0
O1079 O 0.16202 0.4937 0.06506 0.0
H1080 H 0.07439 0.49827 0.02457 0.0
H1081 H 0.1209 0.49326 0.10645 0.0
H1082 H 0.09143 0.59792 0.91036 0.0
H1083 H 0.23944 0.485 0.98423 0.0
H1084 H 0.12658 0.63382 0.88879 0.0
H1085 H 0.24651 0.49004 0.92993 0.0
O1086 O 0.12725 0.58647 0.0129 0.0
H1087 H 0.18514 0.5752 0.12827 0.0
H1088 H 0.08759 0.55234 0.08423 0.0
H1089 H 0.09037 0.58493 0.12806 0.0
H1090 H 0.1394 0.59646 0.15048 0.0
H1091 H 0.18141 0.54294 0.08424 0.0
H1092 H 0.08018 0.46408 0.12832 0.0
H1093 H 0.03588 0.4519 0.09782 0.0
O1094 O 0.10181 0.5476 0.02976 0.0
C1095 C 0.12732 0.50603 0.98379 0.0
C1096 C 0.05234 0.47436 0.05909 0.0
C1097 C 0.07874 0.47148 0.10552 0.0
N1098 N 0.10008 0.49742 0.06421 0.0
C1099 C 0.07578 0.49079 0.04731 0.0
C1100 C 0.10175 0.48797 0.093 0.0
C1101 C 0.05389 0.46466 0.0884 0.0
C1102 C 0.20567 0.51883 0.98622 0.0
N1103 N 0.1894 0.53977 0.97113 0.0
C1104 C 0.22656 0.50103 0.97181 0.0
C1105 C 0.23048 0.50378 0.94139 0.0
C1106 C 0.21302 0.5237 0.92571 0.0
C1107 C 0.19231 0.54114 0.94083 0.0
C1108 C 0.1602 0.6257 0.92164 0.0
C1109 C 0.12157 0.58458 0.94481 0.0
C1110 C 0.16844 0.60822 0.94586 0.0
N1111 N 0.14942 0.58728 0.9569 0.0
C1112 C 0.11322 0.6008 0.91993 0.0
C1113 C 0.13286 0.62115 0.90805 0.0
C1114 C 0.10313 0.57469 0.02202 0.0
C1115 C 0.16363 0.57027 0.11876 0.0
C1116 C 0.10904 0.55733 0.09374 0.0
C1117 C 0.11046 0.57576 0.11862 0.0
C1118 C 0.13797 0.58221 0.13119 0.0
N1119 N 0.1343 0.54553 0.08175 0.0
C1120 C 0.16136 0.55194 0.09386 0.0
Co1121 Co 0.68046 0.89276 0.28018 0.0
Co1122 Co 0.72746 0.86653 0.33269 0.0
O1123 O 0.70301 0.89912 0.31651 0.0
C1124 C 0.64931 0.94477 0.30583 0.0
O1125 O 0.67008 0.95098 0.32528 0.0
C1126 C 0.76607 0.91859 0.34186 0.0
O1127 O 0.76709 0.92259 0.31303 0.0
O1128 O 0.75202 0.8682 0.29616 0.0
O1129 O 0.71434 0.8691 0.26317 0.0
H1130 H 0.78635 0.77188 0.32806 0.0
H1131 H 0.71639 0.94655 0.29979 0.0
O1132 O 0.64693 0.91835 0.29568 0.0
H1133 H 0.70944 0.95531 0.19133 0.0
H1134 H 0.59369 0.90583 0.21137 0.0
H1135 H 0.67434 0.83941 0.24314 0.0
H1136 H 0.68909 0.91209 0.21615 0.0
H1137 H 0.63432 0.92439 0.24281 0.0
O1138 O 0.75205 0.89686 0.35281 0.0
H1139 H 0.75343 0.81095 0.30857 0.0
H1140 H 0.75707 0.85641 0.39108 0.0
H1141 H 0.63569 0.82045 0.21096 0.0
H1142 H 0.73811 0.98937 0.27535 0.0
H1143 H 0.59452 0.8532 0.19453 0.0
H1144 H 0.73428 0.99469 0.2207 0.0
O1145 O 0.66221 0.85742 0.29952 0.0
H1146 H 0.66872 0.91049 0.41665 0.0
H1147 H 0.69918 0.81769 0.36734 0.0
H1148 H 0.66653 0.81548 0.41116 0.0
H1149 H 0.65116 0.86211 0.43618 0.0
H1150 H 0.70119 0.91171 0.37265 0.0
H1151 H 0.79019 0.81791 0.41142 0.0
H1152 H 0.80496 0.7752 0.37987 0.0
O1153 O 0.70337 0.83465 0.31355 0.0
C1154 C 0.74198 0.86696 0.26963 0.0
C1155 C 0.78001 0.79034 0.34206 0.0
C1156 C 0.78219 0.81619 0.38883 0.0
N1157 N 0.75314 0.83585 0.34869 0.0
C1158 C 0.76132 0.81251 0.33115 0.0
C1159 C 0.76348 0.83796 0.37715 0.0
C1160 C 0.79046 0.79222 0.37112 0.0
C1161 C 0.7137 0.94829 0.2762 0.0
N1162 N 0.69849 0.92731 0.26027 0.0
C1163 C 0.72654 0.97282 0.26234 0.0
C1164 C 0.72445 0.97579 0.23172 0.0
C1165 C 0.71034 0.95384 0.2153 0.0
C1166 C 0.69797 0.92951 0.22988 0.0
C1167 C 0.61152 0.89117 0.21799 0.0
C1168 C 0.65737 0.85449 0.23559 0.0
C1169 C 0.63428 0.90155 0.23627 0.0
N1170 N 0.6562 0.88295 0.24586 0.0
C1171 C 0.63525 0.84346 0.21717 0.0
C1172 C 0.61204 0.86181 0.20844 0.0
C1173 C 0.67644 0.8338 0.30542 0.0
C1174 C 0.67532 0.89001 0.40598 0.0
C1175 C 0.69252 0.83809 0.37804 0.0
C1176 C 0.67407 0.83669 0.40288 0.0
C1177 C 0.66546 0.86286 0.41692 0.0
N1178 N 0.70222 0.8648 0.36753 0.0
C1179 C 0.69375 0.89056 0.38109 0.0
Co1180 Co 0.34665 0.42717 0.51856 0.0
Co1181 Co 0.37344 0.47809 0.56681 0.0
O1182 O 0.34181 0.45051 0.55468 0.0
C1183 C 0.29773 0.3949 0.54795 0.0
O1184 O 0.29164 0.41588 0.56719 0.0
C1185 C 0.31964 0.51395 0.57888 0.0
O1186 O 0.31357 0.51479 0.5504 0.0
O1187 O 0.36698 0.50045 0.52918 0.0
O1188 O 0.36759 0.46097 0.4987 0.0
H1189 H 0.46295 0.54252 0.55078 0.0
H1190 H 0.29348 0.46247 0.54135 0.0
O1191 O 0.32382 0.39316 0.53687 0.0
H1192 H 0.27596 0.45162 0.43432 0.0
H1193 H 0.33023 0.34061 0.4497 0.0
H1194 H 0.39815 0.42096 0.47839 0.0
H1195 H 0.32148 0.43276 0.45644 0.0
H1196 H 0.31393 0.37959 0.48416 0.0
O1197 O 0.34308 0.50156 0.58823 0.0
H1198 H 0.42476 0.50603 0.5366 0.0
H1199 H 0.38619 0.51192 0.62238 0.0
H1200 H 0.41482 0.38332 0.44275 0.0
H1201 H 0.24901 0.4837 0.51958 0.0
H1202 H 0.38138 0.34164 0.42973 0.0
H1203 H 0.2391 0.47772 0.46575 0.0
O1204 O 0.38429 0.41151 0.53583 0.0
H1205 H 0.34077 0.42143 0.65701 0.0
H1206 H 0.42695 0.45574 0.59914 0.0
H1207 H 0.43506 0.42613 0.64439 0.0
H1208 H 0.39178 0.40884 0.67372 0.0
H1209 H 0.33363 0.45093 0.61152 0.0
H1210 H 0.42385 0.54864 0.63741 0.0
H1211 H 0.46267 0.56408 0.60153 0.0
O1212 O 0.40521 0.45471 0.54679 0.0
C1213 C 0.36741 0.48899 0.5032 0.0
C1214 C 0.44621 0.5359 0.56665 0.0
C1215 C 0.42424 0.53937 0.61525 0.0
N1216 N 0.40339 0.50666 0.5787 0.0
C1217 C 0.42455 0.5152 0.55877 0.0
C1218 C 0.40293 0.51861 0.60659 0.0
C1219 C 0.44602 0.54801 0.59511 0.0
C1220 C 0.29004 0.45913 0.51803 0.0
N1221 N 0.30978 0.44336 0.50105 0.0
C1222 C 0.26445 0.47161 0.50571 0.0
C1223 C 0.25888 0.46826 0.47557 0.0
C1224 C 0.27938 0.45339 0.45803 0.0
C1225 C 0.30494 0.44165 0.47108 0.0
C1226 C 0.34516 0.35829 0.45575 0.0
C1227 C 0.38279 0.40383 0.47178 0.0
C1228 C 0.33614 0.38019 0.47568 0.0
N1229 N 0.3551 0.40224 0.48415 0.0
C1230 C 0.39257 0.38232 0.45175 0.0
C1231 C 0.37375 0.3591 0.44421 0.0
C1232 C 0.40723 0.42727 0.54073 0.0
C1233 C 0.3598 0.4289 0.64446 0.0
C1234 C 0.40798 0.44824 0.61172 0.0
C1235 C 0.41272 0.43151 0.63736 0.0
C1236 C 0.38843 0.42182 0.65381 0.0
N1237 N 0.37983 0.45522 0.60276 0.0
C1238 C 0.35591 0.44566 0.6187 0.0
Co1239 Co 0.17352 0.60624 0.73995 0.0
Co1240 Co 0.20529 0.62237 0.67412 0.0
O1241 O 0.18711 0.59286 0.70088 0.0
C1242 C 0.13463 0.55396 0.72401 0.0
O1243 O 0.14396 0.55345 0.69646 0.0
C1244 C 0.2444 0.57058 0.66464 0.0
O1245 O 0.24896 0.56872 0.69337 0.0
O1246 O 0.23775 0.62753 0.7039 0.0
O1247 O 0.20718 0.63534 0.74229 0.0
H1248 H 0.25813 0.71753 0.65034 0.0
H1249 H 0.19281 0.54378 0.72724 0.0
O1250 O 0.1406 0.57592 0.7409 0.0
H1251 H 0.24282 0.57139 0.82046 0.0
H1252 H 0.12299 0.60178 0.84021 0.0
H1253 H 0.16832 0.6661 0.7653 0.0
H1254 H 0.21198 0.60758 0.79353 0.0
H1255 H 0.14845 0.58 0.79687 0.0
O1256 O 0.22732 0.59022 0.65408 0.0
H1257 H 0.23309 0.68137 0.68275 0.0
H1258 H 0.21978 0.62359 0.60945 0.0
H1259 H 0.13962 0.68842 0.80506 0.0
H1260 H 0.22364 0.50697 0.75298 0.0
H1261 H 0.11617 0.65629 0.84317 0.0
H1262 H 0.24873 0.52048 0.80019 0.0
O1263 O 0.14778 0.63586 0.71936 0.0
H1264 H 0.13406 0.5625 0.61265 0.0
H1265 H 0.16608 0.6635 0.63973 0.0
H1266 H 0.12465 0.65688 0.60459 0.0
H1267 H 0.1084 0.60608 0.59079 0.0
H1268 H 0.17531 0.57014 0.64786 0.0
H1269 H 0.24491 0.65901 0.5763 0.0
H1270 H 0.26418 0.70644 0.59668 0.0
O1271 O 0.18352 0.65628 0.69251 0.0
C1272 C 0.23304 0.63501 0.73082 0.0
C1273 C 0.24971 0.697 0.64116 0.0
C1274 C 0.24232 0.66415 0.59962 0.0
N1275 N 0.22462 0.65056 0.64798 0.0
C1276 C 0.2354 0.67648 0.6594 0.0
C1277 C 0.22813 0.64416 0.61852 0.0
C1278 C 0.25312 0.69075 0.61107 0.0
C1279 C 0.20307 0.54985 0.74797 0.0
N1280 N 0.19908 0.57751 0.75975 0.0
C1281 C 0.2208 0.52889 0.76236 0.0
C1282 C 0.2349 0.53648 0.78882 0.0
C1283 C 0.23148 0.56496 0.80026 0.0
C1284 C 0.21366 0.58532 0.78516 0.0
C1285 C 0.13191 0.6159 0.8231 0.0
C1286 C 0.15736 0.65173 0.78074 0.0
C1287 C 0.1467 0.6037 0.7987 0.0
N1288 N 0.15873 0.62165 0.7775 0.0
C1289 C 0.14153 0.66461 0.80385 0.0
C1290 C 0.12853 0.64654 0.82511 0.0
C1291 C 0.15894 0.65822 0.70615 0.0
C1292 C 0.14091 0.58474 0.61851 0.0
C1293 C 0.15902 0.64131 0.63403 0.0
C1294 C 0.1356 0.63771 0.61402 0.0
C1295 C 0.12651 0.60921 0.60627 0.0
N1296 N 0.17301 0.6172 0.64599 0.0
C1297 C 0.16425 0.5892 0.63844 0.0
Co1298 Co 0.65942 0.92085 0.99022 0.0
Co1299 Co 0.62975 0.96312 0.936 0.0
O1300 O 0.66387 0.94128 0.95234 0.0
C1301 C 0.7157 0.89526 0.96889 0.0
O1302 O 0.72114 0.91939 0.95364 0.0
C1303 C 0.67284 0.01153 0.9219 0.0
O1304 O 0.67236 0.02164 0.94922 0.0
O1305 O 0.63032 0.98923 0.97184 0.0
O1306 O 0.63192 0.95242 0.00501 0.0
H1307 H 0.53117 0.01503 0.94113 0.0
H1308 H 0.7012 0.97026 0.97001 0.0
O1309 O 0.68913 0.88974 0.97723 0.0
H1310 H 0.72417 0.95662 0.07564 0.0
H1311 H 0.67578 0.83644 0.0613 0.0
H1312 H 0.60697 0.91428 0.02931 0.0
H1313 H 0.68419 0.92871 0.05279 0.0
H1314 H 0.69315 0.87545 0.02784 0.0
O1315 O 0.65797 0.98887 0.91447 0.0
H1316 H 0.57303 0.98566 0.96061 0.0
H1317 H 0.61634 0.99032 0.87706 0.0
H1318 H 0.59009 0.87672 0.06418 0.0
H1319 H 0.73972 -1e-05 0.99272 0.0
H1320 H 0.62377 0.83573 0.07817 0.0
H1321 H 0.7524 0.99306 0.04582 0.0
O1322 O 0.62619 0.89814 0.97178 0.0
H1323 H 0.67639 0.90479 0.85316 0.0
H1324 H 0.58231 0.93097 0.90247 0.0
H1325 H 0.58166 0.89711 0.85951 0.0
H1326 H 0.62894 0.88387 0.83448 0.0
H1327 H 0.67608 0.93842 0.89635 0.0
H1328 H 0.57507 0.01996 0.85676 0.0
H1329 H 0.53201 0.03239 0.88883 0.0
O1330 O 0.60033 0.93699 0.95595 0.0
C1331 C 0.62948 0.97983 -0.00146 0.0
C1332 C 0.54976 0.00969 0.9269 0.0
C1333 C 0.57442 0.01248 0.87956 0.0
N1334 N 0.59701 0.98607 0.91994 0.0
C1335 C 0.57351 0.993 0.93779 0.0
C1336 C 0.59777 0.99575 0.89121 0.0
C1337 C 0.55026 0.01944 0.89757 0.0
C1338 C 0.70613 0.96596 0.99293 0.0
N1339 N 0.6916 0.94442 0.00884 0.0
C1340 C 0.72827 0.98344 0.0058 0.0
C1341 C 0.73539 0.97959 0.03553 0.0
C1342 C 0.7198 0.9589 0.05213 0.0
C1343 C 0.69769 0.94192 0.03853 0.0
C1344 C 0.66099 0.85393 0.05482 0.0
C1345 C 0.62299 0.89832 0.03707 0.0
C1346 C 0.67051 0.8761 0.03548 0.0
N1347 N 0.65131 0.89765 0.02599 0.0
C1348 C 0.61287 0.87656 0.05656 0.0
C1349 C 0.63182 0.85377 0.06472 0.0
C1350 C 0.60167 0.91008 0.96422 0.0
C1351 C 0.65564 0.91044 0.86384 0.0
C1352 C 0.603 0.92526 0.89178 0.0
C1353 C 0.60248 0.9061 0.86742 0.0
C1354 C 0.62901 0.89869 0.85338 0.0
N1355 N 0.6292 0.9368 0.90185 0.0
C1356 C 0.65531 0.92951 0.88828 0.0
Co1357 Co 0.83906 0.07943 0.49317 0.0
Co1358 Co 0.8682 0.04568 0.43223 0.0
O1359 O 0.83387 0.06186 0.4537 0.0
C1360 C 0.78415 0.10857 0.46693 0.0
O1361 O 0.78522 0.09177 0.44321 0.0
C1362 C 0.82356 -0.00101 0.42253 0.0
O1363 O 0.8202 0.99683 0.45138 0.0
O1364 O 0.87451 0.01711 0.46537 0.0
O1365 O 0.87075 0.04974 0.50288 0.0
H1366 H 0.97254 0.00725 0.42355 0.0
H1367 H 0.78522 0.04584 0.4711 0.0
O1368 O 0.80554 0.10871 0.48567 0.0
H1369 H 0.79882 0.01423 0.57467 0.0
H1370 H 0.81038 0.13298 0.58766 0.0
H1371 H 0.8924 0.09137 0.52926 0.0
H1372 H 0.83371 0.04903 0.55197 0.0
H1373 H 0.80048 0.10825 0.5394 0.0
O1374 O 0.84169 0.01743 0.4116 0.0
H1375 H 0.92951 0.02892 0.44943 0.0
H1376 H 0.87867 0.02511 0.37007 0.0
H1377 H 0.90342 0.12056 0.5735 0.0
H1378 H 0.7504 0.01048 0.4928 0.0
H1379 H 0.86192 0.14087 0.60403 0.0
H1380 H 0.75665 0.99457 0.54514 0.0
O1381 O 0.86933 0.10724 0.47622 0.0
H1382 H 0.80639 0.10154 0.35812 0.0
H1383 H 0.9072 0.08715 0.39829 0.0
H1384 H 0.89901 0.12377 0.35854 0.0
H1385 H 0.84831 0.13112 0.33813 0.0
H1386 H 0.81556 0.06526 0.39801 0.0
H1387 H 0.92108 0.0031 0.34341 0.0
H1388 H 0.96849 0.99417 0.37013 0.0
O1389 O 0.89603 0.07371 0.45161 0.0
C1390 C 0.87674 0.02401 0.49275 0.0
C1391 C 0.95203 0.0111 0.41163 0.0
C1392 C 0.92314 0.00875 0.36667 0.0
N1393 N 0.90167 0.02852 0.41124 0.0
C1394 C 0.92759 0.02343 0.42616 0.0
C1395 C 0.89917 0.02115 0.38191 0.0
C1396 C 0.94973 0.00375 0.38167 0.0
C1397 C 0.78812 0.03984 0.49398 0.0
N1398 N 0.8107 0.05152 0.51056 0.0
C1399 C 0.7683 0.01938 0.50614 0.0
C1400 C 0.77183 0.01041 0.53546 0.0
C1401 C 0.79537 0.02153 0.55205 0.0
C1402 C 0.81484 0.04182 0.53909 0.0
C1403 C 0.82838 0.12487 0.57419 0.0
C1404 C 0.87423 0.10103 0.54145 0.0
C1405 C 0.82294 0.11032 0.54731 0.0
N1406 N 0.84577 0.09832 0.53141 0.0
C1407 C 0.88061 0.11729 0.56694 0.0
C1408 C 0.85746 0.12894 0.58367 0.0
C1409 C 0.89373 0.09863 0.46455 0.0
C1410 C 0.82858 0.09856 0.36684 0.0
C1411 C 0.88503 0.09036 0.3897 0.0
C1412 C 0.88055 0.11106 0.3671 0.0
C1413 C 0.8521 0.11516 0.35564 0.0
N1414 N 0.86184 0.07414 0.40056 0.0
C1415 C 0.8339 0.07804 0.38943 0.0
C1416 C 0.13389 0.17781 0.46891 0.0
C1417 C 0.10415 0.18735 0.47075 0.0
H1418 H 0.1776 0.18683 0.45288 0.0
C1419 C 0.09612 0.21477 0.45868 0.0
H1420 H 0.14089 0.15687 0.47838 0.0
C1421 C 0.11726 0.23191 0.44413 0.0
C1422 C 0.1468 0.22193 0.44155 0.0
H1423 H 0.07349 0.22278 0.46005 0.0
H1424 H 0.1103 0.25279 0.4345 0.0
C1425 C 0.15505 0.19501 0.45452 0.0
C1426 C 0.02118 0.85683 0.6845 0.0
C1427 C 0.02225 0.88769 0.68887 0.0
H1428 H 0.03692 0.81428 0.69851 0.0
C1429 C 0.03947 0.89932 0.71201 0.0
H1430 H 0.0079 0.84726 0.66687 0.0
C1431 C 0.05594 0.88052 0.73003 0.0
C1432 C 0.05552 0.8497 0.72526 0.0
H1433 H 0.0405 0.92298 0.71608 0.0
H1434 H 0.06928 0.89028 0.74751 0.0
C1435 C 0.03771 0.83794 0.7026 0.0
C1436 C 0.38871 0.77439 0.93326 0.0
C1437 C 0.35806 0.77881 0.93753 0.0
H1438 H 0.43279 0.78559 0.947 0.0
C1439 C 0.34843 0.79726 0.96061 0.0
H1440 H 0.39685 0.76004 0.91577 0.0
C1441 C 0.36904 0.8118 0.97846 0.0
C1442 C 0.3997 0.80814 0.97361 0.0
H1443 H 0.32501 0.8009 0.96459 0.0
H1444 H 0.36086 0.82633 0.99579 0.0
C1445 C 0.40936 0.78889 0.95119 0.0
C1446 C 0.46384 0.09329 0.22356 0.0
C1447 C 0.48364 0.10311 0.20176 0.0
H1448 H 0.43223 0.10538 0.25656 0.0
C1449 C 0.48755 0.13379 0.19742 0.0
H1450 H 0.46055 0.06984 0.22757 0.0
C1451 C 0.47124 0.15425 0.21393 0.0
C1452 C 0.45084 0.1444 0.23516 0.0
H1453 H 0.50284 0.14211 0.18089 0.0
H1454 H 0.47427 0.17769 0.20969 0.0
C1455 C 0.44766 0.11373 0.24016 0.0
C1456 C 0.66278 0.31094 0.5341 0.0
C1457 C 0.65294 0.29097 0.55572 0.0
H1458 H 0.65039 0.3434 0.5018 0.0
C1459 C 0.62221 0.28798 0.56085 0.0
H1460 H 0.68624 0.31362 0.52962 0.0
C1461 C 0.60178 0.30468 0.54492 0.0
C1462 C 0.61155 0.32497 0.52366 0.0
H1463 H 0.61371 0.27266 0.57725 0.0
H1464 H 0.57837 0.3019 0.54957 0.0
C1465 C 0.64223 0.32793 0.51825 0.0
C1466 C 0.91558 0.37689 0.76775 0.0
C1467 C 0.91976 0.34627 0.77208 0.0
H1468 H 0.92549 0.42079 0.78261 0.0
C1469 C 0.93623 0.33646 0.79658 0.0
H1470 H 0.903 0.38516 0.74899 0.0
C1471 C 0.94873 0.35697 0.81614 0.0
C1472 C 0.94533 0.38761 0.81122 0.0
H1473 H 0.93966 0.31302 0.80051 0.0
H1474 H 0.96186 0.34878 0.83455 0.0
C1475 C 0.92838 0.39735 0.78703 0.0
C1476 C 0.889 0.71258 0.07763 0.0
C1477 C 0.85824 0.7091 0.0732 0.0
H1478 H 0.93277 0.69966 0.06448 0.0
C1479 C 0.84811 0.68928 0.05152 0.0
H1480 H 0.89752 0.72774 0.09424 0.0
C1481 C 0.86833 0.6733 0.0345 0.0
C1482 C 0.8991 0.67676 0.03889 0.0
H1483 H 0.8246 0.68619 0.04756 0.0
H1484 H 0.85972 0.65823 0.01786 0.0
C1485 C 0.90925 0.6965 0.06065 0.0
C1486 C 0.55584 0.61424 0.27129 0.0
C1487 C 0.55335 0.64508 0.27548 0.0
H1488 H 0.53838 0.57137 0.2812 0.0
C1489 C 0.52993 0.6564 0.29245 0.0
H1490 H 0.57359 0.60483 0.25811 0.0
C1491 C 0.50962 0.63716 0.30548 0.0
C1492 C 0.51253 0.60629 0.30186 0.0
H1493 H 0.52731 0.68006 0.29576 0.0
H1494 H 0.49194 0.64654 0.31879 0.0
C1495 C 0.53562 0.59502 0.2844 0.0
C1496 C 0.20259 0.45394 0.13823 0.0
C1497 C 0.21008 0.4239 0.13641 0.0
H1498 H 0.18216 0.49084 0.11682 0.0
C1499 C 0.20196 0.40755 0.11103 0.0
H1500 H 0.20873 0.46702 0.15746 0.0
C1501 C 0.18655 0.42101 0.08782 0.0
C1502 C 0.17954 0.45119 0.08937 0.0
H1503 H 0.20735 0.38423 0.10916 0.0
H1504 H 0.18033 0.4079 0.06864 0.0
C1505 C 0.18769 0.46756 0.11478 0.0
C1506 C 0.68729 0.01666 0.86887 0.0
C1507 C 0.68862 0.02744 0.89821 0.0
H1508 H 0.69881 0.02353 0.82343 0.0
C1509 C 0.7038 0.05389 0.90407 0.0
H1510 H 0.67582 0.99623 0.86356 0.0
C1511 C 0.71701 0.06952 0.8809 0.0
C1512 C 0.71513 0.05898 0.85152 0.0
H1513 H 0.70519 0.0627 0.92639 0.0
H1514 H 0.72844 0.09001 0.88604 0.0
C1515 C 0.70035 0.03232 0.84576 0.0
C1516 C 0.79679 0.96357 0.35152 0.0
C1517 C 0.78032 0.93961 0.36235 0.0
H1518 H 0.8232 0.00131 0.36215 0.0
C1519 C 0.77721 0.93588 0.39323 0.0
H1520 H 0.79938 0.96711 0.32789 0.0
C1521 C 0.79074 0.95551 0.41292 0.0
C1522 C 0.80769 0.97913 0.40209 0.0
H1523 H 0.76441 0.9177 0.4023 0.0
H1524 H 0.78826 0.9519 0.43655 0.0
C1525 C 0.81038 0.98314 0.37121 0.0
C1526 C 0.25445 0.55376 0.613 0.0
C1527 C 0.26179 0.55292 0.6434 0.0
H1528 H 0.26705 0.54229 0.5687 0.0
C1529 C 0.28727 0.53767 0.65249 0.0
H1530 H 0.23471 0.56516 0.60531 0.0
C1531 C 0.30584 0.52469 0.63143 0.0
C1532 C 0.29918 0.52669 0.60092 0.0
H1533 H 0.29346 0.53667 0.6757 0.0
H1534 H 0.32573 0.51357 0.63911 0.0
C1535 C 0.27299 0.54078 0.59196 0.0
C1536 C 0.248 0.39776 0.52258 0.0
C1537 C 0.27309 0.38105 0.53103 0.0
H1538 H 0.21088 0.40161 0.49256 0.0
C1539 C 0.27679 0.35268 0.51896 0.0
H1540 H 0.24397 0.41935 0.53222 0.0
C1541 C 0.25756 0.34243 0.49695 0.0
C1542 C 0.23423 0.3602 0.48634 0.0
H1543 H 0.29572 0.3392 0.52517 0.0
H1544 H 0.26192 0.32106 0.4874 0.0
C1545 C 0.22904 0.38769 0.49991 0.0
C1546 C 0.89983 0.99527 0.74385 0.0
C1547 C 0.88336 0.97351 0.72867 0.0
H1548 H 0.89851 0.03351 0.7721 0.0
C1549 C 0.85331 0.96976 0.73562 0.0
H1550 H 0.92298 -0.00122 0.73883 0.0
C1551 C 0.83946 0.98928 0.75554 0.0
C1552 C 0.85544 0.01295 0.76825 0.0
H1553 H 0.84008 0.95349 0.72388 0.0
H1554 H 0.81571 0.98765 0.75867 0.0
C1555 C 0.88592 0.01509 0.76313 0.0
C1556 C 0.27221 0.64403 0.98683 0.0
C1557 C 0.2862 0.62801 0.96391 0.0
H1558 H 0.2379 0.64435 0.02005 0.0
C1559 C 0.27946 0.59784 0.96048 0.0
H1560 H 0.2774 0.66712 0.99047 0.0
C1561 C 0.25772 0.58458 0.97822 0.0
C1562 C 0.24187 0.60135 -0.00075 0.0
H1563 H 0.28981 0.58498 0.94301 0.0
H1564 H 0.2522 0.56158 0.97434 0.0
C1565 C 0.24965 0.63105 0.00383 0.0
C1566 C 0.5996 0.98322 0.25098 0.0
C1567 C 0.61692 0.00759 0.24228 0.0
H1568 H 0.59539 0.94521 0.27902 0.0
C1569 C 0.64298 0.01384 0.25815 0.0
H1570 H 0.57957 0.97762 0.2393 0.0
C1571 C 0.65243 0.99474 0.28097 0.0
C1572 C 0.63595 0.96913 0.28811 0.0
H1573 H 0.65662 0.03265 0.2521 0.0
H1574 H 0.67348 -0.00094 0.29172 0.0
C1575 C 0.60866 0.96458 0.27395 0.0
C1576 C 0.7216 0.15962 0.49024 0.0
C1577 C 0.70519 0.14064 0.50883 0.0
H1578 H 0.76088 0.16473 0.46352 0.0
C1579 C 0.71123 0.11014 0.50787 0.0
H1580 H 0.71633 0.18295 0.48902 0.0
C1581 C 0.73581 0.09956 0.4921 0.0
C1582 C 0.7549 0.11925 0.47729 0.0
H1583 H 0.69863 0.09488 0.52147 0.0
H1584 H 0.74093 0.07623 0.4933 0.0
C1585 C 0.74693 0.14921 0.47539 0.0
C1586 C 0.1317 0.51956 0.7675 0.0
C1587 C 0.12377 0.5262 0.73797 0.0
H1588 H 0.12859 0.48894 0.80384 0.0
C1589 C 0.10725 0.50524 0.72185 0.0
H1590 H 0.1459 0.53418 0.78003 0.0
C1591 C 0.09775 0.47892 0.73548 0.0
C1592 C 0.10418 0.47345 0.76556 0.0
H1593 H 0.10157 0.50927 0.69884 0.0
H1594 H 0.085 0.46303 0.72272 0.0
C1595 C 0.12207 0.49348 0.78113 0.0
C1596 C 0.75792 0.90072 0.00448 0.0
C1597 C 0.7403 0.88224 0.98644 0.0
H1598 H 0.78984 0.90331 0.03991 0.0
C1599 C 0.74455 0.85151 0.9879 0.0
H1600 H 0.75516 0.92451 0.00378 0.0
C1601 C 0.76574 0.83952 0.00731 0.0
C1602 C 0.78185 0.85788 0.02685 0.0
H1603 H 0.73121 0.83677 0.97438 0.0
H1604 H 0.76838 0.81574 0.00809 0.0
C1605 C 0.77792 0.88866 0.02503 0.0
C1606 C 0.38767 0.46754 0.22354 0.0
C1607 C 0.359 0.46943 0.21166 0.0
H1608 H 0.41782 0.48301 0.25644 0.0
C1609 C 0.34077 0.49335 0.22037 0.0
H1610 H 0.40235 0.44963 0.21705 0.0
C1611 C 0.34976 0.51276 0.2431 0.0
C1612 C 0.37733 0.50883 0.257 0.0
H1613 H 0.31883 0.49599 0.21099 0.0
H1614 H 0.33474 0.52996 0.25061 0.0
C1615 C 0.39648 0.48665 0.24633 0.0
C1616 C 0.51085 0.29121 0.35569 0.0
C1617 C 0.52791 0.28658 0.38124 0.0
H1618 H 0.47329 0.27831 0.33057 0.0
C1619 C 0.52336 0.26033 0.39765 0.0
H1620 H 0.51393 0.31101 0.34243 0.0
C1621 C 0.50052 0.24046 0.38985 0.0
C1622 C 0.48154 0.24694 0.36598 0.0
H1623 H 0.5363 0.25595 0.41743 0.0
H1624 H 0.49683 0.22089 0.40324 0.0
C1625 C 0.48737 0.27228 0.34884 0.0
C1626 C 0.01807 0.21298 0.65005 0.0
C1627 C 0.03795 0.21069 0.62621 0.0
H1628 H 0.97704 0.22984 0.66434 0.0
C1629 C 0.03917 0.23457 0.6065 0.0
H1630 H 0.01861 0.19667 0.66767 0.0
C1631 C 0.01665 0.25614 0.6064 0.0
C1632 C 0.99252 0.25486 0.62652 0.0
H1633 H 0.05724 0.23633 0.59082 0.0
H1634 H 0.01791 0.27337 0.58975 0.0
C1635 C 0.99422 0.233 0.6487 0.0
C1636 C 0.97475 0.73703 0.86054 0.0
C1637 C 0.97184 0.73265 0.89118 0.0
H1638 H 0.99773 0.7597 0.82579 0.0
C1639 C 0.98991 0.74931 0.91053 0.0
H1640 H 0.96124 0.72446 0.84512 0.0
C1641 C 0.01221 0.76793 0.89946 0.0
C1642 C 0.01558 0.77173 0.8688 0.0
H1643 H 0.98798 0.74667 0.93426 0.0
H1644 H 0.02709 0.77895 0.9148 0.0
C1645 C 0.99586 0.757 0.84952 0.0
C1646 C 0.50319 0.73058 0.11669 0.0
C1647 C 0.51737 0.73605 0.14386 0.0
H1648 H 0.47076 0.74566 0.08519 0.0
C1649 C 0.5069 0.75928 0.16183 0.0
H1650 H 0.51061 0.71262 0.10254 0.0
C1651 C 0.48392 0.77772 0.15234 0.0
C1652 C 0.47155 0.77411 0.12407 0.0
H1653 H 0.51726 0.76426 0.18273 0.0
H1654 H 0.47752 0.79636 0.16614 0.0
C1655 C 0.48028 0.7494 0.10692 0.0
C1656 C 0.22823 0.37733 0.31752 0.0
C1657 C 0.20937 0.35268 0.31916 0.0
H1658 H 0.25896 0.40142 0.29077 0.0
C1659 C 0.2011 0.33829 0.29258 0.0
H1660 H 0.23412 0.38968 0.33728 0.0
C1661 C 0.21469 0.34565 0.26574 0.0
C1662 C 0.23698 0.36723 0.26519 0.0
H1663 H 0.18582 0.31976 0.29282 0.0
H1664 H 0.20949 0.33284 0.24609 0.0
C1665 C 0.24251 0.38404 0.29087 0.0
C1666 C 0.9183 0.00035 0.51984 0.0
C1667 C 0.88782 0.00238 0.51429 0.0
H1668 H 0.9521 0.98557 0.54981 0.0
C1669 C 0.86773 0.98892 0.53389 0.0
H1670 H 0.93409 0.01113 0.5053 0.0
C1671 C 0.87779 0.9756 0.56005 0.0
C1672 C 0.90822 0.97455 0.56615 0.0
H1673 H 0.84416 0.98982 0.52955 0.0
H1674 H 0.8619 0.9665 0.57559 0.0
C1675 C 0.92846 0.98608 0.54539 0.0
C1676 C 0.25873 0.6764 0.75575 0.0
C1677 C 0.25715 0.646 0.74972 0.0
H1678 H 0.27289 0.71008 0.78593 0.0
C1679 C 0.27206 0.626 0.76839 0.0
H1680 H 0.24672 0.69212 0.74206 0.0
C1681 C 0.28588 0.63603 0.79439 0.0
C1682 C 0.28589 0.66636 0.80142 0.0
H1683 H 0.27089 0.60239 0.76415 0.0
H1684 H 0.29544 0.62001 0.80955 0.0
C1685 C 0.27342 0.68656 0.78109 0.0
C1686 C 0.63119 0.0103 0.0761 0.0
C1687 C 0.60648 0.02913 0.07621 0.0
H1688 H 0.65696 0.97966 0.05151 0.0
C1689 C 0.5925 0.03581 0.04892 0.0
H1690 H 0.64278 0.00491 0.09647 0.0
C1691 C 0.60131 0.02156 0.02266 0.0
C1692 C 0.62394 0.00026 0.02351 0.0
H1693 H 0.57355 0.05057 0.04811 0.0
H1694 H 0.58908 0.02557 0.00235 0.0
C1695 C 0.63939 0.99571 0.05019 0.0
C1696 C 0.69125 0.16655 0.70309 0.0
C1697 C 0.69071 0.15081 0.67601 0.0
H1698 H 0.70696 0.16756 0.74788 0.0
C1699 C 0.6984 0.1207 0.67607 0.0
H1700 H 0.68442 0.18956 0.70414 0.0
C1701 C 0.71157 0.10831 0.7012 0.0
C1702 C 0.7166 0.12562 0.72666 0.0
H1703 H 0.69718 0.10759 0.65596 0.0
H1704 H 0.71985 0.08593 0.69985 0.0
C1705 C 0.7041 0.15397 0.72831 0.0
C1706 C 0.12282 0.49756 0.92946 0.0
C1707 C 0.11621 0.48821 0.95858 0.0
H1708 H 0.1126 0.49459 0.88319 0.0
C1709 C 0.09579 0.46525 0.96262 0.0
H1710 H 0.13859 0.51518 0.92559 0.0
C1711 C 0.08042 0.45376 0.93817 0.0
C1712 C 0.08541 0.46479 0.90919 0.0
H1713 H 0.0902 0.45764 0.98471 0.0
H1714 H 0.06352 0.43724 0.94233 0.0
C1715 C 0.10779 0.48587 0.90504 0.0
C1716 C 0.78216 0.83671 0.24631 0.0
C1717 C 0.7624 0.86065 0.24499 0.0
H1718 H 0.81001 0.80722 0.22172 0.0
C1719 C 0.75978 0.87677 0.2185 0.0
H1720 H 0.78486 0.82416 0.2666 0.0
C1721 C 0.77471 0.86769 0.19298 0.0
C1722 C 0.79168 0.8416 0.19326 0.0
H1723 H 0.74528 0.89576 0.21716 0.0
H1724 H 0.77108 0.87986 0.17259 0.0
C1725 C 0.79655 0.8271 0.22056 0.0
C1726 C 0.35597 0.49952 0.45035 0.0
C1727 C 0.37021 0.50804 0.47675 0.0
H1728 H 0.35217 0.50494 0.4035 0.0
C1729 C 0.38932 0.53251 0.47633 0.0
H1730 H 0.34087 0.4811 0.44998 0.0
C1731 C 0.3965 0.54597 0.44926 0.0
C1732 C 0.38433 0.53532 0.42238 0.0
H1733 H 0.4004 0.53976 0.4964 0.0
H1734 H 0.41309 0.56333 0.44924 0.0
C1735 C 0.36245 0.51334 0.42357 0.0
C1736 C 0.26739 0.2376 0.33341 0.0
C1737 C 0.262 0.24556 0.36288 0.0
H1738 H 0.29816 0.21903 0.30259 0.0
C1739 C 0.28272 0.2378 0.38484 0.0
H1740 H 0.25188 0.24374 0.31608 0.0
C1741 C 0.30984 0.22476 0.3772 0.0
C1742 C 0.31601 0.21814 0.34747 0.0
H1743 H 0.27841 0.24297 0.40778 0.0
H1744 H 0.32623 0.22066 0.39431 0.0
C1745 C 0.29398 0.22356 0.32582 0.0
C1746 C 0.02251 0.00118 0.57641 0.0
C1747 C 0.0185 -0.00177 0.60704 0.0
H1748 H 0.03607 0.02955 0.54108 0.0
C1749 C 0.03015 0.01988 0.62617 0.0
H1750 H 0.01333 0.98498 0.56124 0.0
C1751 C 0.04238 0.04591 0.61479 0.0
C1752 C 0.04345 0.05042 0.58402 0.0
H1753 H 0.02768 0.01773 0.64992 0.0
H1754 H 0.0491 0.06322 0.63006 0.0
C1755 C 0.03517 0.02701 0.56496 0.0
C1756 C 0.23542 0.78142 0.84567 0.0
C1757 C 0.23576 0.75973 0.86788 0.0
H1758 H 0.2088 0.81075 0.81966 0.0
C1759 C 0.21024 0.75541 0.88521 0.0
H1760 H 0.25495 0.78557 0.83236 0.0
C1761 C 0.18397 0.77058 0.87871 0.0
C1762 C 0.18241 0.78916 0.85377 0.0
H1763 H 0.21023 0.73934 0.90301 0.0
H1764 H 0.16433 0.76576 0.89164 0.0
C1765 C 0.2089 0.79589 0.83852 0.0
C1766 C 0.48593 0.96777 0.13671 0.0
C1767 C 0.49516 0.99009 0.11713 0.0
H1768 H 0.46683 0.92453 0.14145 0.0
C1769 C 0.48782 0.98788 0.08703 0.0
H1770 H 0.49098 0.96937 0.16009 0.0
C1771 C 0.47332 0.96259 0.07636 0.0
C1772 C 0.46658 0.93882 0.09555 0.0
H1773 H 0.49515 0.00462 0.07147 0.0
H1774 H 0.46945 0.96081 0.05271 0.0
C1775 C 0.47199 0.9422 0.12605 0.0
C1776 C 0.77674 0.26697 0.62102 0.0
C1777 C 0.77246 0.23616 0.62118 0.0
H1778 H 0.80716 0.30272 0.62752 0.0
C1779 C 0.79749 0.21753 0.6239 0.0
H1780 H 0.75815 0.28198 0.61836 0.0
C1781 C 0.82579 0.22948 0.62855 0.0
C1782 C 0.82956 0.26029 0.63081 0.0
H1783 H 0.79512 0.19363 0.62369 0.0
H1784 H 0.84418 0.21459 0.63285 0.0
C1785 C 0.80495 0.27887 0.62579 0.0
C1786 C 0.95797 0.51117 0.89523 0.0
C1787 C 0.97607 0.51173 0.86996 0.0
H1788 H 0.93544 0.53653 0.92829 0.0
C1789 C 0.98144 0.53918 0.85594 0.0
H1790 H 0.95324 0.49049 0.90648 0.0
C1791 C 0.97106 0.56563 0.86827 0.0
C1792 C 0.95546 0.56528 0.89515 0.0
H1793 H 0.99514 0.54055 0.83627 0.0
H1794 H 0.97702 0.58638 0.85778 0.0
C1795 C 0.94783 0.53768 0.90774 0.0
C1796 C 0.71015 0.70423 0.16891 0.0
C1797 C 0.68322 0.71325 0.15556 0.0
H1798 H 0.75718 0.71167 0.17268 0.0
C1799 C 0.68422 0.73346 0.13205 0.0
H1800 H 0.71024 0.68829 0.18687 0.0
C1801 C 0.71079 0.74721 0.12474 0.0
C1802 C 0.73723 0.7403 0.13975 0.0
H1803 H 0.66413 0.74061 0.12093 0.0
H1804 H 0.71019 0.76445 0.10833 0.0
C1805 C 0.73707 0.71756 0.16089 0.0
C1806 C 0.50995 0.47825 0.36464 0.0
C1807 C 0.49905 0.49965 0.38446 0.0
H1808 H 0.53307 0.43701 0.35945 0.0
C1809 C 0.50734 0.49837 0.41434 0.0
H1810 H 0.50435 0.47936 0.34136 0.0
C1811 C 0.52459 0.47468 0.42463 0.0
C1812 C 0.53318 0.45162 0.40525 0.0
H1813 H 0.49887 0.5145 0.43004 0.0
H1814 H 0.52917 0.47333 0.44818 0.0
C1815 C 0.52659 0.45422 0.37494 0.0
C1816 C 0.32887 0.25478 0.23582 0.0
C1817 C 0.35944 0.25286 0.24079 0.0
H1818 H 0.29301 0.28125 0.21992 0.0
C1819 C 0.3781 0.27526 0.22992 0.0
H1820 H 0.31402 0.23811 0.24467 0.0
C1821 C 0.36612 0.30071 0.21681 0.0
C1822 C 0.33527 0.30371 0.21376 0.0
H1823 H 0.4018 0.27397 0.23339 0.0
H1824 H 0.38087 0.31853 0.21036 0.0
C1825 C 0.31691 0.27979 0.22202 0.0
C1826 C 0.81565 0.20058 0.75473 0.0
C1827 C 0.83119 0.17353 0.75701 0.0
H1828 H 0.81718 0.24632 0.74212 0.0
C1829 C 0.86183 0.17327 0.75216 0.0
H1830 H 0.79197 0.20156 0.7587 0.0
C1831 C 0.87637 0.19923 0.74371 0.0
C1832 C 0.86045 0.22569 0.7388 0.0
H1833 H 0.87451 0.15301 0.7547 0.0
H1834 H 0.89999 0.19827 0.74019 0.0
C1835 C 0.83012 0.22639 0.74557 0.0
C1836 C 0.02037 0.58852 0.0179 0.0
C1837 C 0.01948 0.61068 0.99617 0.0
H1838 H 0.04809 0.55952 0.04339 0.0
C1839 C 0.04616 0.62406 0.98719 0.0
H1840 H 0.00016 0.57778 0.02518 0.0
C1841 C 0.07336 0.61441 0.99802 0.0
C1842 C 0.07463 0.59023 0.01735 0.0
H1843 H 0.04631 0.64093 0.97036 0.0
H1844 H 0.09339 0.62439 0.9893 0.0
C1845 C 0.04784 0.57814 0.02823 0.0
C1846 C 0.68284 0.78079 0.2899 0.0
C1847 C 0.66384 0.80483 0.29633 0.0
H1848 H 0.68761 0.73879 0.26785 0.0
C1849 C 0.63344 0.80202 0.29013 0.0
H1850 H 0.70641 0.78217 0.29436 0.0
C1851 C 0.62276 0.7768 0.27565 0.0
C1852 C 0.64223 0.75422 0.26671 0.0
H1853 H 0.61819 0.81994 0.29504 0.0
H1854 H 0.59949 0.77564 0.27 0.0
C1855 C 0.67215 0.75579 0.2749 0.0
C1856 C 0.44011 0.38664 0.52189 0.0
C1857 C 0.43699 0.41534 0.53349 0.0
H1858 H 0.46813 0.35636 0.49865 0.0
C1859 C 0.46212 0.43398 0.53457 0.0
H1860 H 0.42145 0.37152 0.52113 0.0
C1861 C 0.48885 0.42521 0.52146 0.0
C1862 C 0.4908 0.39769 0.50724 0.0
H1863 H 0.46067 0.45612 0.54378 0.0
H1864 H 0.50707 0.44079 0.52048 0.0
C1865 C 0.46678 0.37798 0.50884 0.0
C1866 C 0.1707 0.71056 0.71962 0.0
C1867 C 0.14921 0.6882 0.71516 0.0
H1868 H 0.18121 0.75173 0.74127 0.0
C1869 C 0.12003 0.69326 0.72455 0.0
H1870 H 0.1935 0.70728 0.71282 0.0
C1871 C 0.11305 0.71918 0.74002 0.0
C1872 C 0.13523 0.73972 0.74734 0.0
H1873 H 0.10301 0.67664 0.72118 0.0
H1874 H 0.09052 0.7227 0.7472 0.0
C1875 C 0.16383 0.73598 0.736 0.0
C1876 C 0.54677 0.86275 0.00507 0.0
C1877 C 0.52033 0.87841 -0.00013 0.0
H1878 H 0.59319 0.85906 0.99616 0.0
C1879 C 0.51981 0.90057 0.97815 0.0
H1880 H 0.54754 0.8451 0.02121 0.0
C1881 C 0.54618 0.90923 0.96439 0.0
C1882 C 0.57331 0.89547 0.97183 0.0
H1883 H 0.49959 0.91267 0.97344 0.0
H1884 H 0.54556 0.92797 0.94939 0.0
C1885 C 0.57293 0.87075 0.99067 0.0
C1886 C 0.92424 0.13171 0.49725 0.0
C1887 C 0.92219 0.11324 0.47234 0.0
H1888 H 0.95176 0.14758 0.53206 0.0
C1889 C 0.9487 0.10334 0.4589 0.0
H1890 H 0.90451 0.14083 0.50744 0.0
C1891 C 0.97621 0.10871 0.4722 0.0
C1892 C 0.97772 0.12346 0.49957 0.0
H1893 H 0.94809 0.08963 0.43916 0.0
H1894 H 0.99597 0.09947 0.46213 0.0
C1895 C 0.95156 0.13577 0.51135 0.0
loop_
_geom_bond_atom_site_label_1
_geom_bond_atom_site_label_2
_geom_bond_distance
_geom_bond_site_symmetry_2
_ccdc_geom_bond_type
Co0 O2 2.143 . S
Co0 O8 2.074 . S
Co0 O11 2.093 . S
Co0 O24 2.097 . S
Co0 N41 2.151 . S
Co0 N49 2.214 . S
Co1 O2 2.160 . S
Co1 O7 2.058 . S
Co1 O17 2.057 . S
Co1 O32 2.037 . S
Co1 N36 2.145 . S
Co1 N57 2.257 . S
O2 Co0 2.143 . S
O2 Co1 2.160 . S
C3 O4 1.278 . S
C3 O11 1.224 . S
O4 C3 1.278 . S
C5 O6 1.245 . S
C5 O17 1.232 . S
O6 C5 1.245 . S
O7 Co1 2.058 . S
O7 C33 1.269 . S
O8 Co0 2.074 . S
O8 C33 1.257 . S
H9 C34 0.930 . S
H10 C40 0.930 . S
O11 Co0 2.093 . S
O11 C3 1.224 . S
H12 C44 0.929 . S
H13 C46 0.930 . S
H14 C47 0.930 . S
H15 C45 0.929 . S
H16 C48 0.928 . S
O17 Co1 2.057 . S
O17 C5 1.232 . S
H18 C37 0.929 . S
H19 C38 0.929 . S
H20 C50 0.931 . S
H21 C42 0.929 . S
H22 C51 0.930 . S
H23 C43 0.931 . S
O24 Co0 2.097 . S
O24 C52 1.214 . S
H25 C53 0.929 . S
H26 C54 0.929 . S
H27 C55 0.930 . S
H28 C56 0.929 . S
H29 C58 0.930 . S
H30 C35 0.930 . S
H31 C39 0.930 . S
O32 Co1 2.037 . S
O32 C52 1.234 . S
C33 O7 1.269 . S
C33 O8 1.257 . S
C34 H9 0.930 . S
C34 C37 1.388 . S
C34 C39 1.418 . S
C35 H30 0.930 . S
C35 C38 1.404 . S
C35 C39 1.353 . S
N36 Co1 2.145 . S
N36 C37 1.397 . S
N36 C38 1.334 . S
C37 H18 0.929 . S
C37 C34 1.388 . S
C37 N36 1.397 . S
C38 H19 0.929 . S
C38 C35 1.404 . S
C38 N36 1.334 . S
C39 H31 0.930 . S
C39 C34 1.418 . S
C39 C35 1.353 . S
C40 H10 0.930 . S
C40 N41 1.330 . S
C40 C42 1.446 . S
N41 Co0 2.151 . S
N41 C40 1.330 . S
N41 C45 1.418 . S
C42 H21 0.929 . S
C42 C40 1.446 . S
C42 C43 1.332 . S
C43 H23 0.931 . S
C43 C42 1.332 . S
C43 C44 1.267 . S
C44 H12 0.929 . S
C44 C43 1.267 . S
C44 C45 1.251 . S
C45 H15 0.929 . S
C45 N41 1.418 . S
C45 C44 1.251 . S
C46 H13 0.930 . S
C46 C48 1.406 . S
C46 C51 1.261 . S
C47 H14 0.930 . S
C47 N49 1.325 . S
C47 C50 1.357 . S
C48 H16 0.928 . S
C48 C46 1.406 . S
C48 N49 1.261 . S
N49 Co0 2.214 . S
N49 C47 1.325 . S
N49 C48 1.261 . S
C50 H20 0.931 . S
C50 C47 1.357 . S
C50 C51 1.312 . S
C51 H22 0.930 . S
C51 C46 1.261 . S
C51 C50 1.312 . S
C52 O24 1.214 . S
C52 O32 1.234 . S
C53 H25 0.929 . S
C53 C56 1.391 . S
C53 C58 1.391 . S
C54 H26 0.929 . S
C54 C55 1.390 . S
C54 N57 1.391 . S
C55 H27 0.930 . S
C55 C54 1.390 . S
C55 C56 1.392 . S
C56 H28 0.929 . S
C56 C53 1.391 . S
C56 C55 1.392 . S
N57 Co1 2.257 . S
N57 C54 1.391 . S
N57 C58 1.388 . S
C58 H29 0.930 . S
C58 C53 1.391 . S
C58 N57 1.388 . S
Co59 O61 2.143 . S
Co59 O67 2.074 . S
Co59 O70 2.093 . S
Co59 O83 2.097 . S
Co59 N100 2.151 1_565 S
Co59 N108 2.214 1_565 S
Co60 O61 2.160 . S
Co60 O66 2.056 . S
Co60 O76 2.057 . S
Co60 O91 2.037 . S
Co60 N95 2.145 . S
Co60 N116 2.257 . S
O61 Co59 2.143 . S
O61 Co60 2.160 . S
C62 O63 1.278 . S
C62 O70 1.224 . S
O63 C62 1.278 . S
C64 O65 1.245 . S
C64 O76 1.232 . S
O65 C64 1.245 . S
O66 Co60 2.056 . S
O66 C92 1.269 . S
O67 Co59 2.074 . S
O67 C92 1.257 . S
H68 C93 0.930 . S
H69 C99 0.930 1_565 S
O70 Co59 2.093 . S
O70 C62 1.224 . S
H71 C103 0.929 1_455 S
H72 C105 0.930 . S
H73 C106 0.930 . S
H74 C104 0.929 . S
H75 C107 0.928 . S
O76 Co60 2.057 . S
O76 C64 1.232 . S
H77 C96 0.929 . S
H78 C97 0.929 . S
H79 C109 0.931 . S
H80 C101 0.929 . S
H81 C110 0.930 . S
H82 C102 0.932 1_455 S
O83 Co59 2.097 . S
O83 C111 1.214 . S
H84 C112 0.929 . S
H85 C113 0.929 . S
H86 C114 0.930 . S
H87 C115 0.929 . S
H88 C117 0.930 . S
H89 C94 0.930 . S
H90 C98 0.930 . S
O91 Co60 2.037 . S
O91 C111 1.234 . S
C92 O66 1.269 . S
C92 O67 1.257 . S
C93 H68 0.930 . S
C93 C96 1.388 . S
C93 C98 1.418 1_655 S
C94 H89 0.930 . S
C94 C97 1.404 1_455 S
C94 C98 1.353 . S
N95 Co60 2.145 . S
N95 C96 1.397 . S
N95 C97 1.334 . S
C96 H77 0.929 . S
C96 C93 1.388 . S
C96 N95 1.397 . S
C97 H78 0.929 . S
C97 C94 1.404 1_655 S
C97 N95 1.334 . S
C98 H90 0.930 . S
C98 C93 1.418 1_455 S
C98 C94 1.353 . S
C99 H69 0.930 1_545 S
C99 N100 1.330 . S
C99 C101 1.446 . S
N100 Co59 2.151 1_545 S
N100 C99 1.330 . S
N100 C104 1.418 . S
C101 H80 0.929 . S
C101 C99 1.446 . S
C101 C102 1.332 . S
C102 H82 0.932 1_655 S
C102 C101 1.332 . S
C102 C103 1.267 . S
C103 H71 0.929 1_655 S
C103 C102 1.267 . S
C103 C104 1.251 . S
C104 H74 0.929 . S
C104 N100 1.418 . S
C104 C103 1.251 . S
C105 H72 0.930 . S
C105 C107 1.406 . S
C105 C110 1.261 . S
C106 H73 0.930 . S
C106 N108 1.325 . S
C106 C109 1.357 . S
C107 H75 0.928 . S
C107 C105 1.406 . S
C107 N108 1.261 . S
N108 Co59 2.214 1_545 S
N108 C106 1.325 . S
N108 C107 1.261 . S
C109 H79 0.931 . S
C109 C106 1.357 . S
C109 C110 1.312 . S
C110 H81 0.930 . S
C110 C105 1.261 . S
C110 C109 1.312 . S
C111 O83 1.214 . S
C111 O91 1.234 . S
C112 H84 0.929 . S
C112 C115 1.391 . S
C112 C117 1.391 . S
C113 H85 0.929 . S
C113 C114 1.390 . S
C113 N116 1.391 . S
C114 H86 0.930 . S
C114 C113 1.390 . S
C114 C115 1.392 . S
C115 H87 0.929 . S
C115 C112 1.391 . S
C115 C114 1.392 . S
N116 Co60 2.257 . S
N116 C113 1.391 . S
N116 C117 1.388 . S
C117 H88 0.930 . S
C117 C112 1.391 . S
C117 N116 1.388 . S
Co118 O120 2.143 . S
Co118 O126 2.074 . S
Co118 O129 2.093 . S
Co118 O142 2.097 . S
Co118 N159 2.151 . S
Co118 N167 2.214 . S
Co119 O120 2.160 . S
Co119 O125 2.058 . S
Co119 O135 2.057 . S
Co119 O150 2.037 . S
Co119 N154 2.145 . S
Co119 N175 2.257 . S
O120 Co118 2.143 . S
O120 Co119 2.160 . S
C121 O122 1.278 . S
C121 O129 1.224 . S
O122 C121 1.278 . S
C123 O124 1.245 . S
C123 O135 1.232 . S
O124 C123 1.245 . S
O125 Co119 2.058 . S
O125 C151 1.269 . S
O126 Co118 2.074 . S
O126 C151 1.257 . S
H127 C152 0.930 . S
H128 C158 0.930 . S
O129 Co118 2.093 . S
O129 C121 1.224 . S
H130 C162 0.929 . S
H131 C164 0.930 . S
H132 C165 0.930 . S
H133 C163 0.929 . S
H134 C166 0.928 . S
O135 Co119 2.057 . S
O135 C123 1.232 . S
H136 C155 0.929 . S
H137 C156 0.929 . S
H138 C168 0.931 . S
H139 C160 0.929 . S
H140 C169 0.930 . S
H141 C161 0.931 . S
O142 Co118 2.097 . S
O142 C170 1.214 . S
H143 C171 0.929 . S
H144 C172 0.929 . S
H145 C173 0.930 . S
H146 C174 0.929 . S
H147 C176 0.930 . S
H148 C153 0.930 . S
H149 C157 0.930 . S
O150 Co119 2.037 . S
O150 C170 1.234 . S
C151 O125 1.269 . S
C151 O126 1.257 . S
C152 H127 0.930 . S
C152 C155 1.388 . S
C152 C157 1.418 . S
C153 H148 0.930 . S
C153 C156 1.404 . S
C153 C157 1.353 . S
N154 Co119 2.145 . S
N154 C155 1.397 . S
N154 C156 1.334 . S
C155 H136 0.929 . S
C155 C152 1.388 . S
C155 N154 1.397 . S
C156 H137 0.929 . S
C156 C153 1.404 . S
C156 N154 1.334 . S
C157 H149 0.930 . S
C157 C152 1.418 . S
C157 C153 1.353 . S
C158 H128 0.930 . S
C158 N159 1.330 . S
C158 C160 1.446 . S
N159 Co118 2.151 . S
N159 C158 1.330 . S
N159 C163 1.418 . S
C160 H139 0.929 . S
C160 C158 1.446 . S
C160 C161 1.332 . S
C161 H141 0.931 . S
C161 C160 1.332 . S
C161 C162 1.267 . S
C162 H130 0.929 . S
C162 C161 1.267 . S
C162 C163 1.251 . S
C163 H133 0.929 . S
C163 N159 1.418 . S
C163 C162 1.251 . S
C164 H131 0.930 . S
C164 C166 1.406 . S
C164 C169 1.261 . S
C165 H132 0.930 . S
C165 N167 1.325 . S
C165 C168 1.357 . S
C166 H134 0.928 . S
C166 C164 1.406 . S
C166 N167 1.261 . S
N167 Co118 2.214 . S
N167 C165 1.325 . S
N167 C166 1.261 . S
C168 H138 0.931 . S
C168 C165 1.357 . S
C168 C169 1.312 . S
C169 H140 0.930 . S
C169 C164 1.261 . S
C169 C168 1.312 . S
C170 O142 1.214 . S
C170 O150 1.234 . S
C171 H143 0.929 . S
C171 C174 1.391 . S
C171 C176 1.391 . S
C172 H144 0.929 . S
C172 C173 1.390 . S
C172 N175 1.391 . S
C173 H145 0.930 . S
C173 C172 1.390 . S
C173 C174 1.392 . S
C174 H146 0.929 . S
C174 C171 1.391 . S
C174 C173 1.392 . S
N175 Co119 2.257 . S
N175 C172 1.391 . S
N175 C176 1.388 . S
C176 H147 0.930 . S
C176 C171 1.391 . S
C176 N175 1.388 . S
Co177 O179 2.143 . S
Co177 O185 2.074 . S
Co177 O188 2.093 . S
Co177 O201 2.097 . S
Co177 N218 2.151 1_545 S
Co177 N226 2.214 1_545 S
Co178 O179 2.160 . S
Co178 O184 2.058 . S
Co178 O194 2.057 . S
Co178 O209 2.037 . S
Co178 N213 2.145 . S
Co178 N234 2.257 . S
O179 Co177 2.143 . S
O179 Co178 2.160 . S
C180 O181 1.278 . S
C180 O188 1.224 . S
O181 C180 1.278 . S
C182 O183 1.245 . S
C182 O194 1.232 . S
O183 C182 1.245 . S
O184 Co178 2.058 . S
O184 C210 1.269 . S
O185 Co177 2.074 . S
O185 C210 1.257 . S
H186 C211 0.930 . S
H187 C217 0.930 1_545 S
O188 Co177 2.093 . S
O188 C180 1.224 . S
H189 C221 0.929 . S
H190 C223 0.930 . S
H191 C224 0.930 . S
H192 C222 0.929 . S
H193 C225 0.928 . S
O194 Co178 2.057 . S
O194 C182 1.232 . S
H195 C214 0.929 . S
H196 C215 0.929 . S
H197 C227 0.931 . S
H198 C219 0.929 . S
H199 C228 0.930 . S
H200 C220 0.931 . S
O201 Co177 2.097 . S
O201 C229 1.214 . S
H202 C230 0.929 . S
H203 C231 0.929 . S
H204 C232 0.930 . S
H205 C233 0.929 . S
H206 C235 0.930 . S
H207 C212 0.930 . S
H208 C216 0.930 . S
O209 Co178 2.037 . S
O209 C229 1.234 . S
C210 O184 1.269 . S
C210 O185 1.257 . S
C211 H186 0.930 . S
C211 C214 1.388 . S
C211 C216 1.418 . S
C212 H207 0.930 . S
C212 C215 1.404 . S
C212 C216 1.353 . S
N213 Co178 2.145 . S
N213 C214 1.397 . S
N213 C215 1.334 . S
C214 H195 0.929 . S
C214 C211 1.388 . S
C214 N213 1.397 . S
C215 H196 0.929 . S
C215 C212 1.404 . S
C215 N213 1.334 . S
C216 H208 0.930 . S
C216 C211 1.418 . S
C216 C212 1.353 . S
C217 H187 0.930 1_565 S
C217 N218 1.330 . S
C217 C219 1.446 . S
N218 Co177 2.151 1_565 S
N218 C217 1.330 . S
N218 C222 1.418 . S
C219 H198 0.929 . S
C219 C217 1.446 . S
C219 C220 1.332 . S
C220 H200 0.931 . S
C220 C219 1.332 . S
C220 C221 1.267 . S
C221 H189 0.929 . S
C221 C220 1.267 . S
C221 C222 1.251 . S
C222 H192 0.929 . S
C222 N218 1.418 . S
C222 C221 1.251 . S
C223 H190 0.930 . S
C223 C225 1.406 . S
C223 C228 1.261 . S
C224 H191 0.930 . S
C224 N226 1.325 . S
C224 C227 1.357 . S
C225 H193 0.928 . S
C225 C223 1.406 . S
C225 N226 1.261 . S
N226 Co177 2.214 1_565 S
N226 C224 1.325 . S
N226 C225 1.261 . S
C227 H197 0.931 . S
C227 C224 1.357 . S
C227 C228 1.312 . S
C228 H199 0.930 . S
C228 C223 1.261 . S
C228 C227 1.312 . S
C229 O201 1.214 . S
C229 O209 1.234 . S
C230 H202 0.929 . S
C230 C233 1.391 . S
C230 C235 1.391 . S
C231 H203 0.929 . S
C231 C232 1.390 . S
C231 N234 1.391 . S
C232 H204 0.930 . S
C232 C231 1.390 . S
C232 C233 1.392 . S
C233 H205 0.929 . S
C233 C230 1.391 . S
C233 C232 1.392 . S
N234 Co178 2.257 . S
N234 C231 1.391 . S
N234 C235 1.388 . S
C235 H206 0.930 . S
C235 C230 1.391 . S
C235 N234 1.388 . S
Co236 O238 2.143 . S
Co236 O244 2.074 . S
Co236 O247 2.093 . S
Co236 O260 2.097 . S
Co236 N277 2.151 . S
Co236 N285 2.214 . S
Co237 O238 2.160 . S
Co237 O243 2.058 . S
Co237 O253 2.057 . S
Co237 O268 2.037 . S
Co237 N272 2.145 . S
Co237 N293 2.257 . S
O238 Co236 2.143 . S
O238 Co237 2.160 . S
C239 O240 1.278 . S
C239 O247 1.224 . S
O240 C239 1.278 . S
C241 O242 1.245 . S
C241 O253 1.232 . S
O242 C241 1.245 . S
O243 Co237 2.058 . S
O243 C269 1.269 . S
O244 Co236 2.074 . S
O244 C269 1.257 . S
H245 C270 0.930 . S
H246 C276 0.930 . S
O247 Co236 2.093 . S
O247 C239 1.224 . S
H248 C280 0.929 . S
H249 C282 0.930 . S
H250 C283 0.930 . S
H251 C281 0.929 . S
H252 C284 0.928 . S
O253 Co237 2.057 . S
O253 C241 1.232 . S
H254 C273 0.929 . S
H255 C274 0.929 . S
H256 C286 0.931 . S
H257 C278 0.929 . S
H258 C287 0.930 . S
H259 C279 0.931 . S
O260 Co236 2.097 . S
O260 C288 1.214 . S
H261 C289 0.929 . S
H262 C290 0.929 . S
H263 C291 0.930 . S
H264 C292 0.929 . S
H265 C294 0.930 . S
H266 C271 0.930 . S
H267 C275 0.930 . S
O268 Co237 2.037 . S
O268 C288 1.234 . S
C269 O243 1.269 . S
C269 O244 1.257 . S
C270 H245 0.930 . S
C270 C273 1.388 . S
C270 C275 1.418 . S
C271 H266 0.930 . S
C271 C274 1.404 . S
C271 C275 1.353 . S
N272 Co237 2.145 . S
N272 C273 1.397 . S
N272 C274 1.334 . S
C273 H254 0.929 . S
C273 C270 1.388 . S
C273 N272 1.397 . S
C274 H255 0.929 . S
C274 C271 1.404 . S
C274 N272 1.334 . S
C275 H267 0.930 . S
C275 C270 1.418 . S
C275 C271 1.353 . S
C276 H246 0.930 . S
C276 N277 1.330 . S
C276 C278 1.446 . S
N277 Co236 2.151 . S
N277 C276 1.330 . S
N277 C281 1.418 . S
C278 H257 0.929 . S
C278 C276 1.446 . S
C278 C279 1.332 . S
C279 H259 0.931 . S
C279 C278 1.332 . S
C279 C280 1.267 . S
C280 H248 0.929 . S
C280 C279 1.267 . S
C280 C281 1.251 . S
C281 H251 0.929 . S
C281 N277 1.418 . S
C281 C280 1.251 . S
C282 H249 0.930 . S
C282 C284 1.406 . S
C282 C287 1.261 . S
C283 H250 0.930 . S
C283 N285 1.325 . S
C283 C286 1.357 . S
C284 H252 0.928 . S
C284 C282 1.406 . S
C284 N285 1.261 . S
N285 Co236 2.214 . S
N285 C283 1.325 . S
N285 C284 1.261 . S
C286 H256 0.931 . S
C286 C283 1.357 . S
C286 C287 1.312 . S
C287 H258 0.930 . S
C287 C282 1.261 . S
C287 C286 1.312 . S
C288 O260 1.214 . S
C288 O268 1.234 . S
C289 H261 0.929 . S
C289 C292 1.391 . S
C289 C294 1.391 . S
C290 H262 0.929 . S
C290 C291 1.390 . S
C290 N293 1.391 . S
C291 H263 0.930 . S
C291 C290 1.390 . S
C291 C292 1.392 . S
C292 H264 0.929 . S
C292 C289 1.391 . S
C292 C291 1.392 . S
N293 Co237 2.257 . S
N293 C290 1.391 . S
N293 C294 1.388 . S
C294 H265 0.930 . S
C294 C289 1.391 . S
C294 N293 1.388 . S
Co295 O297 2.143 . S
Co295 O303 2.074 . S
Co295 O306 2.093 . S
Co295 O319 2.097 . S
Co295 N336 2.151 . S
Co295 N344 2.214 . S
Co296 O297 2.160 . S
Co296 O302 2.056 . S
Co296 O312 2.057 . S
Co296 O327 2.037 . S
Co296 N331 2.145 . S
Co296 N352 2.257 . S
O297 Co295 2.143 . S
O297 Co296 2.160 . S
C298 O299 1.278 . S
C298 O306 1.224 . S
O299 C298 1.278 . S
C300 O301 1.245 . S
C300 O312 1.232 . S
O301 C300 1.245 . S
O302 Co296 2.056 . S
O302 C328 1.269 . S
O303 Co295 2.074 . S
O303 C328 1.257 . S
H304 C329 0.930 . S
H305 C335 0.930 . S
O306 Co295 2.093 . S
O306 C298 1.224 . S
H307 C339 0.929 1_655 S
H308 C341 0.930 . S
H309 C342 0.930 . S
H310 C340 0.929 . S
H311 C343 0.928 . S
O312 Co296 2.057 . S
O312 C300 1.232 . S
H313 C332 0.929 . S
H314 C333 0.929 . S
H315 C345 0.931 . S
H316 C337 0.929 . S
H317 C346 0.930 . S
H318 C338 0.932 1_655 S
O319 Co295 2.097 . S
O319 C347 1.214 . S
H320 C348 0.929 . S
H321 C349 0.929 . S
H322 C350 0.930 . S
H323 C351 0.929 . S
H324 C353 0.930 . S
H325 C330 0.930 . S
H326 C334 0.930 . S
O327 Co296 2.037 . S
O327 C347 1.234 . S
C328 O302 1.269 . S
C328 O303 1.257 . S
C329 H304 0.930 . S
C329 C332 1.388 . S
C329 C334 1.418 1_455 S
C330 H325 0.930 . S
C330 C333 1.404 1_655 S
C330 C334 1.353 . S
N331 Co296 2.145 . S
N331 C332 1.397 . S
N331 C333 1.334 . S
C332 H313 0.929 . S
C332 C329 1.388 . S
C332 N331 1.397 . S
C333 H314 0.929 . S
C333 C330 1.404 1_455 S
C333 N331 1.334 . S
C334 H326 0.930 . S
C334 C329 1.418 1_655 S
C334 C330 1.353 . S
C335 H305 0.930 . S
C335 N336 1.330 . S
C335 C337 1.446 . S
N336 Co295 2.151 . S
N336 C335 1.330 . S
N336 C340 1.418 . S
C337 H316 0.929 . S
C337 C335 1.446 . S
C337 C338 1.332 . S
C338 H318 0.932 1_455 S
C338 C337 1.332 . S
C338 C339 1.267 . S
C339 H307 0.929 1_455 S
C339 C338 1.267 . S
C339 C340 1.251 . S
C340 H310 0.929 . S
C340 N336 1.418 . S
C340 C339 1.251 . S
C341 H308 0.930 . S
C341 C343 1.406 . S
C341 C346 1.261 . S
C342 H309 0.930 . S
C342 N344 1.325 . S
C342 C345 1.357 . S
C343 H311 0.928 . S
C343 C341 1.406 . S
C343 N344 1.261 . S
N344 Co295 2.214 . S
N344 C342 1.325 . S
N344 C343 1.261 . S
C345 H315 0.931 . S
C345 C342 1.357 . S
C345 C346 1.312 . S
C346 H317 0.930 . S
C346 C341 1.261 . S
C346 C345 1.312 . S
C347 O319 1.214 . S
C347 O327 1.234 . S
C348 H320 0.929 . S
C348 C351 1.391 . S
C348 C353 1.391 . S
C349 H321 0.929 . S
C349 C350 1.390 . S
C349 N352 1.391 . S
C350 H322 0.930 . S
C350 C349 1.390 . S
C350 C351 1.392 . S
C351 H323 0.929 . S
C351 C348 1.391 . S
C351 C350 1.392 . S
N352 Co296 2.257 . S
N352 C349 1.391 . S
N352 C353 1.388 . S
C353 H324 0.930 . S
C353 C348 1.391 . S
C353 N352 1.388 . S
Co354 O356 2.143 . S
Co354 O362 2.074 . S
Co354 O365 2.093 . S
Co354 O378 2.097 . S
Co354 N395 2.151 . S
Co354 N403 2.214 . S
Co355 O356 2.160 . S
Co355 O361 2.058 . S
Co355 O371 2.057 . S
Co355 O386 2.037 . S
Co355 N390 2.145 . S
Co355 N411 2.257 . S
O356 Co354 2.143 . S
O356 Co355 2.160 . S
C357 O358 1.278 . S
C357 O365 1.224 . S
O358 C357 1.278 . S
C359 O360 1.245 . S
C359 O371 1.232 . S
O360 C359 1.245 . S
O361 Co355 2.058 . S
O361 C387 1.269 . S
O362 Co354 2.074 . S
O362 C387 1.257 . S
H363 C388 0.930 . S
H364 C394 0.930 . S
O365 Co354 2.093 . S
O365 C357 1.224 . S
H366 C398 0.929 . S
H367 C400 0.930 . S
H368 C401 0.930 . S
H369 C399 0.929 . S
H370 C402 0.928 . S
O371 Co355 2.057 . S
O371 C359 1.232 . S
H372 C391 0.929 . S
H373 C392 0.929 . S
H374 C404 0.931 . S
H375 C396 0.929 . S
H376 C405 0.930 . S
H377 C397 0.931 . S
O378 Co354 2.097 . S
O378 C406 1.214 . S
H379 C407 0.929 . S
H380 C408 0.929 . S
H381 C409 0.930 . S
H382 C410 0.929 . S
H383 C412 0.930 . S
H384 C389 0.930 . S
H385 C393 0.930 . S
O386 Co355 2.037 . S
O386 C406 1.234 . S
C387 O361 1.269 . S
C387 O362 1.257 . S
C388 H363 0.930 . S
C388 C391 1.388 . S
C388 C393 1.418 . S
C389 H384 0.930 . S
C389 C392 1.404 . S
C389 C393 1.353 . S
N390 Co355 2.145 . S
N390 C391 1.397 . S
N390 C392 1.334 . S
C391 H372 0.929 . S
C391 C388 1.388 . S
C391 N390 1.397 . S
C392 H373 0.929 . S
C392 C389 1.404 . S
C392 N390 1.334 . S
C393 H385 0.930 . S
C393 C388 1.418 . S
C393 C389 1.353 . S
C394 H364 0.930 . S
C394 N395 1.330 . S
C394 C396 1.446 . S
N395 Co354 2.151 . S
N395 C394 1.330 . S
N395 C399 1.418 . S
C396 H375 0.929 . S
C396 C394 1.446 . S
C396 C397 1.332 . S
C397 H377 0.931 . S
C397 C396 1.332 . S
C397 C398 1.267 . S
C398 H366 0.929 . S
C398 C397 1.267 . S
C398 C399 1.251 . S
C399 H369 0.929 . S
C399 N395 1.418 . S
C399 C398 1.251 . S
C400 H367 0.930 . S
C400 C402 1.406 . S
C400 C405 1.261 . S
C401 H368 0.930 . S
C401 N403 1.325 . S
C401 C404 1.357 . S
C402 H370 0.928 . S
C402 C400 1.406 . S
C402 N403 1.261 . S
N403 Co354 2.214 . S
N403 C401 1.325 . S
N403 C402 1.261 . S
C404 H374 0.931 . S
C404 C401 1.357 . S
C404 C405 1.312 . S
C405 H376 0.930 . S
C405 C400 1.261 . S
C405 C404 1.312 . S
C406 O378 1.214 . S
C406 O386 1.234 . S
C407 H379 0.929 . S
C407 C410 1.391 . S
C407 C412 1.391 . S
C408 H380 0.929 . S
C408 C409 1.390 . S
C408 N411 1.391 . S
C409 H381 0.930 . S
C409 C408 1.390 . S
C409 C410 1.392 . S
C410 H382 0.929 . S
C410 C407 1.391 . S
C410 C409 1.392 . S
N411 Co355 2.257 . S
N411 C408 1.391 . S
N411 C412 1.388 . S
C412 H383 0.930 . S
C412 C407 1.391 . S
C412 N411 1.388 . S
Co413 O415 2.143 . S
Co413 O421 2.074 . S
Co413 O424 2.093 . S
Co413 O437 2.097 . S
Co413 N454 2.151 . S
Co413 N462 2.214 . S
Co414 O415 2.160 . S
Co414 O420 2.058 . S
Co414 O430 2.057 . S
Co414 O445 2.037 . S
Co414 N449 2.145 . S
Co414 N470 2.257 . S
O415 Co413 2.143 . S
O415 Co414 2.160 . S
C416 O417 1.278 . S
C416 O424 1.224 . S
O417 C416 1.278 . S
C418 O419 1.245 . S
C418 O430 1.232 . S
O419 C418 1.245 . S
O420 Co414 2.058 . S
O420 C446 1.269 . S
O421 Co413 2.074 . S
O421 C446 1.257 . S
H422 C447 0.930 . S
H423 C453 0.930 . S
O424 Co413 2.093 . S
O424 C416 1.224 . S
H425 C457 0.929 . S
H426 C459 0.930 . S
H427 C460 0.930 . S
H428 C458 0.929 . S
H429 C461 0.928 . S
O430 Co414 2.057 . S
O430 C418 1.232 . S
H431 C450 0.929 . S
H432 C451 0.929 . S
H433 C463 0.931 . S
H434 C455 0.929 . S
H435 C464 0.930 . S
H436 C456 0.931 . S
O437 Co413 2.097 . S
O437 C465 1.214 . S
H438 C466 0.929 . S
H439 C467 0.929 . S
H440 C468 0.930 . S
H441 C469 0.929 . S
H442 C471 0.930 . S
H443 C448 0.930 . S
H444 C452 0.930 . S
O445 Co414 2.037 . S
O445 C465 1.234 . S
C446 O420 1.269 . S
C446 O421 1.257 . S
C447 H422 0.930 . S
C447 C450 1.388 . S
C447 C452 1.418 . S
C448 H443 0.930 . S
C448 C451 1.404 . S
C448 C452 1.353 . S
N449 Co414 2.145 . S
N449 C450 1.397 . S
N449 C451 1.334 . S
C450 H431 0.929 . S
C450 C447 1.388 . S
C450 N449 1.397 . S
C451 H432 0.929 . S
C451 C448 1.404 . S
C451 N449 1.334 . S
C452 H444 0.930 . S
C452 C447 1.418 . S
C452 C448 1.353 . S
C453 H423 0.930 . S
C453 N454 1.330 . S
C453 C455 1.446 . S
N454 Co413 2.151 . S
N454 C453 1.330 . S
N454 C458 1.418 . S
C455 H434 0.929 . S
C455 C453 1.446 . S
C455 C456 1.332 . S
C456 H436 0.931 . S
C456 C455 1.332 . S
C456 C457 1.267 . S
C457 H425 0.929 . S
C457 C456 1.267 . S
C457 C458 1.251 . S
C458 H428 0.929 . S
C458 N454 1.418 . S
C458 C457 1.251 . S
C459 H426 0.930 . S
C459 C461 1.406 . S
C459 C464 1.261 . S
C460 H427 0.930 . S
C460 N462 1.325 . S
C460 C463 1.357 . S
C461 H429 0.928 . S
C461 C459 1.406 . S
C461 N462 1.261 . S
N462 Co413 2.214 . S
N462 C460 1.325 . S
N462 C461 1.261 . S
C463 H433 0.931 . S
C463 C460 1.357 . S
C463 C464 1.312 . S
C464 H435 0.930 . S
C464 C459 1.261 . S
C464 C463 1.312 . S
C465 O437 1.214 . S
C465 O445 1.234 . S
C466 H438 0.929 . S
C466 C469 1.391 . S
C466 C471 1.391 . S
C467 H439 0.929 . S
C467 C468 1.390 . S
C467 N470 1.391 . S
C468 H440 0.930 . S
C468 C467 1.390 . S
C468 C469 1.392 . S
C469 H441 0.929 . S
C469 C466 1.391 . S
C469 C468 1.392 . S
N470 Co414 2.257 . S
N470 C467 1.391 . S
N470 C471 1.388 . S
C471 H442 0.930 . S
C471 C466 1.391 . S
C471 N470 1.388 . S
Co472 O474 2.143 . S
Co472 O480 2.074 . S
Co472 O483 2.093 . S
Co472 O496 2.097 . S
Co472 N513 2.151 . S
Co472 N521 2.214 . S
Co473 O474 2.160 . S
Co473 O479 2.058 . S
Co473 O489 2.057 . S
Co473 O504 2.037 . S
Co473 N508 2.145 . S
Co473 N529 2.257 . S
O474 Co472 2.143 . S
O474 Co473 2.160 . S
C475 O476 1.278 . S
C475 O483 1.224 . S
O476 C475 1.278 . S
C477 O478 1.245 . S
C477 O489 1.232 . S
O478 C477 1.245 . S
O479 Co473 2.058 . S
O479 C505 1.269 . S
O480 Co472 2.074 . S
O480 C505 1.257 . S
H481 C506 0.930 . S
H482 C512 0.930 . S
O483 Co472 2.093 . S
O483 C475 1.224 . S
H484 C516 0.929 . S
H485 C518 0.930 . S
H486 C519 0.930 . S
H487 C517 0.929 . S
H488 C520 0.928 . S
O489 Co473 2.057 . S
O489 C477 1.232 . S
H490 C509 0.929 . S
H491 C510 0.929 . S
H492 C522 0.931 . S
H493 C514 0.929 . S
H494 C523 0.930 . S
H495 C515 0.931 . S
O496 Co472 2.097 . S
O496 C524 1.214 . S
H497 C525 0.929 . S
H498 C526 0.929 . S
H499 C527 0.930 . S
H500 C528 0.929 . S
H501 C530 0.930 . S
H502 C507 0.930 . S
H503 C511 0.930 . S
O504 Co473 2.037 . S
O504 C524 1.234 . S
C505 O479 1.269 . S
C505 O480 1.257 . S
C506 H481 0.930 . S
C506 C509 1.388 . S
C506 C511 1.418 . S
C507 H502 0.930 . S
C507 C510 1.404 . S
C507 C511 1.353 . S
N508 Co473 2.145 . S
N508 C509 1.397 . S
N508 C510 1.334 . S
C509 H490 0.929 . S
C509 C506 1.388 . S
C509 N508 1.397 . S
C510 H491 0.929 . S
C510 C507 1.404 . S
C510 N508 1.334 . S
C511 H503 0.930 . S
C511 C506 1.418 . S
C511 C507 1.353 . S
C512 H482 0.930 . S
C512 N513 1.330 . S
C512 C514 1.446 . S
N513 Co472 2.151 . S
N513 C512 1.330 . S
N513 C517 1.418 . S
C514 H493 0.929 . S
C514 C512 1.446 . S
C514 C515 1.332 . S
C515 H495 0.931 . S
C515 C514 1.332 . S
C515 C516 1.267 . S
C516 H484 0.929 . S
C516 C515 1.267 . S
C516 C517 1.251 . S
C517 H487 0.929 . S
C517 N513 1.418 . S
C517 C516 1.251 . S
C518 H485 0.930 . S
C518 C520 1.406 . S
C518 C523 1.261 . S
C519 H486 0.930 . S
C519 N521 1.325 . S
C519 C522 1.357 . S
C520 H488 0.928 . S
C520 C518 1.406 . S
C520 N521 1.261 . S
N521 Co472 2.214 . S
N521 C519 1.325 . S
N521 C520 1.261 . S
C522 H492 0.931 . S
C522 C519 1.357 . S
C522 C523 1.312 . S
C523 H494 0.930 . S
C523 C518 1.261 . S
C523 C522 1.312 . S
C524 O496 1.214 . S
C524 O504 1.234 . S
C525 H497 0.929 . S
C525 C528 1.391 . S
C525 C530 1.391 . S
C526 H498 0.929 . S
C526 C527 1.390 . S
C526 N529 1.391 . S
C527 H499 0.930 . S
C527 C526 1.390 . S
C527 C528 1.392 . S
C528 H500 0.929 . S
C528 C525 1.391 . S
C528 C527 1.392 . S
N529 Co473 2.257 . S
N529 C526 1.391 . S
N529 C530 1.388 . S
C530 H501 0.930 . S
C530 C525 1.391 . S
C530 N529 1.388 . S
Co531 O533 2.143 . S
Co531 O539 2.074 . S
Co531 O542 2.093 . S
Co531 O555 2.097 . S
Co531 N572 2.151 1_455 S
Co531 N580 2.214 1_455 S
Co532 O533 2.160 . S
Co532 O538 2.058 . S
Co532 O548 2.057 . S
Co532 O563 2.037 . S
Co532 N567 2.145 . S
Co532 N588 2.257 . S
O533 Co531 2.143 . S
O533 Co532 2.160 . S
C534 O535 1.278 . S
C534 O542 1.224 . S
O535 C534 1.278 . S
C536 O537 1.245 . S
C536 O548 1.232 . S
O537 C536 1.245 . S
O538 Co532 2.058 . S
O538 C564 1.269 . S
O539 Co531 2.074 . S
O539 C564 1.257 . S
H540 C565 0.930 . S
H541 C571 0.930 1_455 S
O542 Co531 2.093 . S
O542 C534 1.224 . S
H543 C575 0.929 . S
H544 C577 0.930 . S
H545 C578 0.930 . S
H546 C576 0.929 . S
H547 C579 0.928 . S
O548 Co532 2.057 . S
O548 C536 1.232 . S
H549 C568 0.929 . S
H550 C569 0.929 . S
H551 C581 0.931 . S
H552 C573 0.929 . S
H553 C582 0.930 . S
H554 C574 0.931 . S
O555 Co531 2.097 . S
O555 C583 1.214 . S
H556 C584 0.929 . S
H557 C585 0.929 . S
H558 C586 0.930 . S
H559 C587 0.929 . S
H560 C589 0.930 . S
H561 C566 0.930 . S
H562 C570 0.930 . S
O563 Co532 2.037 . S
O563 C583 1.234 . S
C564 O538 1.269 . S
C564 O539 1.257 . S
C565 H540 0.930 . S
C565 C568 1.388 . S
C565 C570 1.418 . S
C566 H561 0.930 . S
C566 C569 1.404 . S
C566 C570 1.353 . S
N567 Co532 2.145 . S
N567 C568 1.397 . S
N567 C569 1.334 . S
C568 H549 0.929 . S
C568 C565 1.388 . S
C568 N567 1.397 . S
C569 H550 0.929 . S
C569 C566 1.404 . S
C569 N567 1.334 . S
C570 H562 0.930 . S
C570 C565 1.418 . S
C570 C566 1.353 . S
C571 H541 0.930 1_655 S
C571 N572 1.330 . S
C571 C573 1.446 . S
N572 Co531 2.151 1_655 S
N572 C571 1.330 . S
N572 C576 1.418 . S
C573 H552 0.929 . S
C573 C571 1.446 . S
C573 C574 1.332 . S
C574 H554 0.931 . S
C574 C573 1.332 . S
C574 C575 1.267 . S
C575 H543 0.929 . S
C575 C574 1.267 . S
C575 C576 1.251 . S
C576 H546 0.929 . S
C576 N572 1.418 . S
C576 C575 1.251 . S
C577 H544 0.930 . S
C577 C579 1.406 . S
C577 C582 1.261 . S
C578 H545 0.930 . S
C578 N580 1.325 . S
C578 C581 1.357 . S
C579 H547 0.928 . S
C579 C577 1.406 . S
C579 N580 1.261 . S
N580 Co531 2.214 1_655 S
N580 C578 1.325 . S
N580 C579 1.261 . S
C581 H551 0.931 . S
C581 C578 1.357 . S
C581 C582 1.312 . S
C582 H553 0.930 . S
C582 C577 1.261 . S
C582 C581 1.312 . S
C583 O555 1.214 . S
C583 O563 1.234 . S
C584 H556 0.929 . S
C584 C587 1.391 . S
C584 C589 1.391 . S
C585 H557 0.929 . S
C585 C586 1.390 . S
C585 N588 1.391 . S
C586 H558 0.930 . S
C586 C585 1.390 . S
C586 C587 1.392 . S
C587 H559 0.929 . S
C587 C584 1.391 . S
C587 C586 1.392 . S
N588 Co532 2.257 . S
N588 C585 1.391 . S
N588 C589 1.388 . S
C589 H560 0.930 . S
C589 C584 1.391 . S
C589 N588 1.388 . S
Co590 O592 2.143 . S
Co590 O598 2.074 . S
Co590 O601 2.093 . S
Co590 O614 2.097 . S
Co590 N631 2.151 . S
Co590 N639 2.214 . S
Co591 O592 2.160 . S
Co591 O597 2.058 . S
Co591 O607 2.057 . S
Co591 O622 2.037 . S
Co591 N626 2.145 . S
Co591 N647 2.257 . S
O592 Co590 2.143 . S
O592 Co591 2.160 . S
C593 O594 1.278 . S
C593 O601 1.224 . S
O594 C593 1.278 . S
C595 O596 1.245 . S
C595 O607 1.232 . S
O596 C595 1.245 . S
O597 Co591 2.058 . S
O597 C623 1.269 . S
O598 Co590 2.074 . S
O598 C623 1.257 . S
H599 C624 0.930 . S
H600 C630 0.930 . S
O601 Co590 2.093 . S
O601 C593 1.224 . S
H602 C634 0.929 . S
H603 C636 0.930 . S
H604 C637 0.930 . S
H605 C635 0.929 . S
H606 C638 0.928 . S
O607 Co591 2.057 . S
O607 C595 1.232 . S
H608 C627 0.929 . S
H609 C628 0.929 . S
H610 C640 0.931 . S
H611 C632 0.929 . S
H612 C641 0.930 . S
H613 C633 0.931 . S
O614 Co590 2.097 . S
O614 C642 1.214 . S
H615 C643 0.929 . S
H616 C644 0.929 . S
H617 C645 0.930 . S
H618 C646 0.929 . S
H619 C648 0.930 . S
H620 C625 0.930 . S
H621 C629 0.930 . S
O622 Co591 2.037 . S
O622 C642 1.234 . S
C623 O597 1.269 . S
C623 O598 1.257 . S
C624 H599 0.930 . S
C624 C627 1.388 . S
C624 C629 1.418 . S
C625 H620 0.930 . S
C625 C628 1.404 . S
C625 C629 1.353 . S
N626 Co591 2.145 . S
N626 C627 1.397 . S
N626 C628 1.334 . S
C627 H608 0.929 . S
C627 C624 1.388 . S
C627 N626 1.397 . S
C628 H609 0.929 . S
C628 C625 1.404 . S
C628 N626 1.334 . S
C629 H621 0.930 . S
C629 C624 1.418 . S
C629 C625 1.353 . S
C630 H600 0.930 . S
C630 N631 1.330 . S
C630 C632 1.446 . S
N631 Co590 2.151 . S
N631 C630 1.330 . S
N631 C635 1.418 . S
C632 H611 0.929 . S
C632 C630 1.446 . S
C632 C633 1.332 . S
C633 H613 0.931 . S
C633 C632 1.332 . S
C633 C634 1.267 . S
C634 H602 0.929 . S
C634 C633 1.267 . S
C634 C635 1.251 . S
C635 H605 0.929 . S
C635 N631 1.418 . S
C635 C634 1.251 . S
C636 H603 0.930 . S
C636 C638 1.406 . S
C636 C641 1.261 . S
C637 H604 0.930 . S
C637 N639 1.325 . S
C637 C640 1.357 . S
C638 H606 0.928 . S
C638 C636 1.406 . S
C638 N639 1.261 . S
N639 Co590 2.214 . S
N639 C637 1.325 . S
N639 C638 1.261 . S
C640 H610 0.931 . S
C640 C637 1.357 . S
C640 C641 1.312 . S
C641 H612 0.930 . S
C641 C636 1.261 . S
C641 C640 1.312 . S
C642 O614 1.214 . S
C642 O622 1.234 . S
C643 H615 0.929 . S
C643 C646 1.391 . S
C643 C648 1.391 . S
C644 H616 0.929 . S
C644 C645 1.390 . S
C644 N647 1.391 . S
C645 H617 0.930 . S
C645 C644 1.390 . S
C645 C646 1.392 . S
C646 H618 0.929 . S
C646 C643 1.391 . S
C646 C645 1.392 . S
N647 Co591 2.257 . S
N647 C644 1.391 . S
N647 C648 1.388 . S
C648 H619 0.930 . S
C648 C643 1.391 . S
C648 N647 1.388 . S
Co649 O651 2.143 . S
Co649 O657 2.074 . S
Co649 O660 2.093 . S
Co649 O673 2.097 . S
Co649 N690 2.151 . S
Co649 N698 2.214 . S
Co650 O651 2.160 . S
Co650 O656 2.056 . S
Co650 O666 2.057 . S
Co650 O681 2.037 . S
Co650 N685 2.145 . S
Co650 N706 2.257 . S
O651 Co649 2.143 . S
O651 Co650 2.160 . S
C652 O653 1.278 . S
C652 O660 1.224 . S
O653 C652 1.278 . S
C654 O655 1.245 . S
C654 O666 1.232 . S
O655 C654 1.245 . S
O656 Co650 2.056 . S
O656 C682 1.269 . S
O657 Co649 2.074 . S
O657 C682 1.257 . S
H658 C683 0.930 . S
H659 C689 0.930 . S
O660 Co649 2.093 . S
O660 C652 1.224 . S
H661 C693 0.929 1_556 S
H662 C695 0.930 . S
H663 C696 0.930 . S
H664 C694 0.929 . S
H665 C697 0.928 . S
O666 Co650 2.057 . S
O666 C654 1.232 . S
H667 C686 0.929 . S
H668 C687 0.929 . S
H669 C699 0.931 . S
H670 C691 0.929 . S
H671 C700 0.930 . S
H672 C692 0.932 1_556 S
O673 Co649 2.097 . S
O673 C701 1.214 . S
H674 C702 0.929 . S
H675 C703 0.929 . S
H676 C704 0.930 . S
H677 C705 0.929 . S
H678 C707 0.930 . S
H679 C684 0.930 . S
H680 C688 0.930 . S
O681 Co650 2.037 . S
O681 C701 1.234 . S
C682 O656 1.269 . S
C682 O657 1.257 . S
C683 H658 0.930 . S
C683 C686 1.388 . S
C683 C688 1.418 1_554 S
C684 H679 0.930 . S
C684 C687 1.404 1_556 S
C684 C688 1.353 . S
N685 Co650 2.145 . S
N685 C686 1.397 . S
N685 C687 1.334 . S
C686 H667 0.929 . S
C686 C683 1.388 . S
C686 N685 1.397 . S
C687 H668 0.929 . S
C687 C684 1.404 1_554 S
C687 N685 1.334 . S
C688 H680 0.930 . S
C688 C683 1.418 1_556 S
C688 C684 1.353 . S
C689 H659 0.930 . S
C689 N690 1.330 . S
C689 C691 1.446 . S
N690 Co649 2.151 . S
N690 C689 1.330 . S
N690 C694 1.418 . S
C691 H670 0.929 . S
C691 C689 1.446 . S
C691 C692 1.332 . S
C692 H672 0.932 1_554 S
C692 C691 1.332 . S
C692 C693 1.267 . S
C693 H661 0.929 1_554 S
C693 C692 1.267 . S
C693 C694 1.251 . S
C694 H664 0.929 . S
C694 N690 1.418 . S
C694 C693 1.251 . S
C695 H662 0.930 . S
C695 C697 1.406 . S
C695 C700 1.261 . S
C696 H663 0.930 . S
C696 N698 1.325 . S
C696 C699 1.357 . S
C697 H665 0.928 . S
C697 C695 1.406 . S
C697 N698 1.261 . S
N698 Co649 2.214 . S
N698 C696 1.325 . S
N698 C697 1.261 . S
C699 H669 0.931 . S
C699 C696 1.357 . S
C699 C700 1.312 . S
C700 H671 0.930 . S
C700 C695 1.261 . S
C700 C699 1.312 . S
C701 O673 1.214 . S
C701 O681 1.234 . S
C702 H674 0.929 . S
C702 C705 1.391 . S
C702 C707 1.391 . S
C703 H675 0.929 . S
C703 C704 1.390 . S
C703 N706 1.391 . S
C704 H676 0.930 . S
C704 C703 1.390 . S
C704 C705 1.392 . S
C705 H677 0.929 . S
C705 C702 1.391 . S
C705 C704 1.392 . S
N706 Co650 2.257 . S
N706 C703 1.391 . S
N706 C707 1.388 . S
C707 H678 0.930 . S
C707 C702 1.391 . S
C707 N706 1.388 . S
Co708 O710 2.143 . S
Co708 O716 2.074 . S
Co708 O719 2.093 . S
Co708 O732 2.097 . S
Co708 N749 2.151 . S
Co708 N757 2.214 . S
Co709 O710 2.160 . S
Co709 O715 2.058 . S
Co709 O725 2.057 . S
Co709 O740 2.037 . S
Co709 N744 2.145 . S
Co709 N765 2.257 . S
O710 Co708 2.143 . S
O710 Co709 2.160 . S
C711 O712 1.278 . S
C711 O719 1.224 . S
O712 C711 1.278 . S
C713 O714 1.245 . S
C713 O725 1.232 . S
O714 C713 1.245 . S
O715 Co709 2.058 . S
O715 C741 1.269 . S
O716 Co708 2.074 . S
O716 C741 1.257 . S
H717 C742 0.930 . S
H718 C748 0.930 . S
O719 Co708 2.093 . S
O719 C711 1.224 . S
H720 C752 0.929 . S
H721 C754 0.930 . S
H722 C755 0.930 . S
H723 C753 0.929 . S
H724 C756 0.928 . S
O725 Co709 2.057 . S
O725 C713 1.232 . S
H726 C745 0.929 . S
H727 C746 0.929 . S
H728 C758 0.931 . S
H729 C750 0.929 . S
H730 C759 0.930 . S
H731 C751 0.931 . S
O732 Co708 2.097 . S
O732 C760 1.214 . S
H733 C761 0.929 . S
H734 C762 0.929 . S
H735 C763 0.930 . S
H736 C764 0.929 . S
H737 C766 0.930 . S
H738 C743 0.930 . S
H739 C747 0.930 . S
O740 Co709 2.037 . S
O740 C760 1.234 . S
C741 O715 1.269 . S
C741 O716 1.257 . S
C742 H717 0.930 . S
C742 C745 1.388 . S
C742 C747 1.418 . S
C743 H738 0.930 . S
C743 C746 1.404 . S
C743 C747 1.353 . S
N744 Co709 2.145 . S
N744 C745 1.397 . S
N744 C746 1.334 . S
C745 H726 0.929 . S
C745 C742 1.388 . S
C745 N744 1.397 . S
C746 H727 0.929 . S
C746 C743 1.404 . S
C746 N744 1.334 . S
C747 H739 0.930 . S
C747 C742 1.418 . S
C747 C743 1.353 . S
C748 H718 0.930 . S
C748 N749 1.330 . S
C748 C750 1.446 . S
N749 Co708 2.151 . S
N749 C748 1.330 . S
N749 C753 1.418 . S
C750 H729 0.929 . S
C750 C748 1.446 . S
C750 C751 1.332 . S
C751 H731 0.931 . S
C751 C750 1.332 . S
C751 C752 1.267 . S
C752 H720 0.929 . S
C752 C751 1.267 . S
C752 C753 1.251 . S
C753 H723 0.929 . S
C753 N749 1.418 . S
C753 C752 1.251 . S
C754 H721 0.930 . S
C754 C756 1.406 . S
C754 C759 1.261 . S
C755 H722 0.930 . S
C755 N757 1.325 . S
C755 C758 1.357 . S
C756 H724 0.928 . S
C756 C754 1.406 . S
C756 N757 1.261 . S
N757 Co708 2.214 . S
N757 C755 1.325 . S
N757 C756 1.261 . S
C758 H728 0.931 . S
C758 C755 1.357 . S
C758 C759 1.312 . S
C759 H730 0.930 . S
C759 C754 1.261 . S
C759 C758 1.312 . S
C760 O732 1.214 . S
C760 O740 1.234 . S
C761 H733 0.929 . S
C761 C764 1.391 . S
C761 C766 1.391 . S
C762 H734 0.929 . S
C762 C763 1.390 . S
C762 N765 1.391 . S
C763 H735 0.930 . S
C763 C762 1.390 . S
C763 C764 1.392 . S
C764 H736 0.929 . S
C764 C761 1.391 . S
C764 C763 1.392 . S
N765 Co709 2.257 . S
N765 C762 1.391 . S
N765 C766 1.388 . S
C766 H737 0.930 . S
C766 C761 1.391 . S
C766 N765 1.388 . S
Co767 O769 2.143 . S
Co767 O775 2.074 . S
Co767 O778 2.093 . S
Co767 O791 2.097 . S
Co767 N808 2.151 1_655 S
Co767 N816 2.214 1_655 S
Co768 O769 2.160 . S
Co768 O774 2.056 . S
Co768 O784 2.057 . S
Co768 O799 2.037 . S
Co768 N803 2.145 . S
Co768 N824 2.257 . S
O769 Co767 2.143 . S
O769 Co768 2.160 . S
C770 O771 1.278 . S
C770 O778 1.224 . S
O771 C770 1.278 . S
C772 O773 1.245 . S
C772 O784 1.232 . S
O773 C772 1.245 . S
O774 Co768 2.056 . S
O774 C800 1.269 . S
O775 Co767 2.074 . S
O775 C800 1.257 . S
H776 C801 0.930 . S
H777 C807 0.930 1_655 S
O778 Co767 2.093 . S
O778 C770 1.224 . S
H779 C811 0.929 1_554 S
H780 C813 0.930 . S
H781 C814 0.930 . S
H782 C812 0.929 . S
H783 C815 0.928 . S
O784 Co768 2.057 . S
O784 C772 1.232 . S
H785 C804 0.929 . S
H786 C805 0.929 . S
H787 C817 0.931 . S
H788 C809 0.929 . S
H789 C818 0.930 . S
H790 C810 0.932 1_554 S
O791 Co767 2.097 . S
O791 C819 1.214 . S
H792 C820 0.929 . S
H793 C821 0.929 . S
H794 C822 0.930 . S
H795 C823 0.929 . S
H796 C825 0.930 . S
H797 C802 0.930 . S
H798 C806 0.930 . S
O799 Co768 2.037 . S
O799 C819 1.234 . S
C800 O774 1.269 . S
C800 O775 1.257 . S
C801 H776 0.930 . S
C801 C804 1.388 . S
C801 C806 1.418 1_556 S
C802 H797 0.930 . S
C802 C805 1.404 1_554 S
C802 C806 1.353 . S
N803 Co768 2.145 . S
N803 C804 1.397 . S
N803 C805 1.334 . S
C804 H785 0.929 . S
C804 C801 1.388 . S
C804 N803 1.397 . S
C805 H786 0.929 . S
C805 C802 1.404 1_556 S
C805 N803 1.334 . S
C806 H798 0.930 . S
C806 C801 1.418 1_554 S
C806 C802 1.353 . S
C807 H777 0.930 1_455 S
C807 N808 1.330 . S
C807 C809 1.446 . S
N808 Co767 2.151 1_455 S
N808 C807 1.330 . S
N808 C812 1.418 . S
C809 H788 0.929 . S
C809 C807 1.446 . S
C809 C810 1.332 . S
C810 H790 0.932 1_556 S
C810 C809 1.332 . S
C810 C811 1.267 . S
C811 H779 0.929 1_556 S
C811 C810 1.267 . S
C811 C812 1.251 . S
C812 H782 0.929 . S
C812 N808 1.418 . S
C812 C811 1.251 . S
C813 H780 0.930 . S
C813 C815 1.406 . S
C813 C818 1.261 . S
C814 H781 0.930 . S
C814 N816 1.325 . S
C814 C817 1.357 . S
C815 H783 0.928 . S
C815 C813 1.406 . S
C815 N816 1.261 . S
N816 Co767 2.214 1_455 S
N816 C814 1.325 . S
N816 C815 1.261 . S
C817 H787 0.931 . S
C817 C814 1.357 . S
C817 C818 1.312 . S
C818 H789 0.930 . S
C818 C813 1.261 . S
C818 C817 1.312 . S
C819 O791 1.214 . S
C819 O799 1.234 . S
C820 H792 0.929 . S
C820 C823 1.391 . S
C820 C825 1.391 . S
C821 H793 0.929 . S
C821 C822 1.390 . S
C821 N824 1.391 . S
C822 H794 0.930 . S
C822 C821 1.390 . S
C822 C823 1.392 . S
C823 H795 0.929 . S
C823 C820 1.391 . S
C823 C822 1.392 . S
N824 Co768 2.257 . S
N824 C821 1.391 . S
N824 C825 1.388 . S
C825 H796 0.930 . S
C825 C820 1.391 . S
C825 N824 1.388 . S
Co826 O828 2.143 . S
Co826 O834 2.074 . S
Co826 O837 2.093 . S
Co826 O850 2.097 . S
Co826 N867 2.151 . S
Co826 N875 2.214 . S
Co827 O828 2.160 . S
Co827 O833 2.058 . S
Co827 O843 2.057 . S
Co827 O858 2.037 . S
Co827 N862 2.145 . S
Co827 N883 2.257 . S
O828 Co826 2.143 . S
O828 Co827 2.160 . S
C829 O830 1.278 . S
C829 O837 1.224 . S
O830 C829 1.278 . S
C831 O832 1.245 . S
C831 O843 1.232 . S
O832 C831 1.245 . S
O833 Co827 2.058 . S
O833 C859 1.269 . S
O834 Co826 2.074 . S
O834 C859 1.257 . S
H835 C860 0.930 . S
H836 C866 0.930 . S
O837 Co826 2.093 . S
O837 C829 1.224 . S
H838 C870 0.929 . S
H839 C872 0.930 . S
H840 C873 0.930 . S
H841 C871 0.929 . S
H842 C874 0.928 . S
O843 Co827 2.057 . S
O843 C831 1.232 . S
H844 C863 0.929 . S
H845 C864 0.929 . S
H846 C876 0.931 . S
H847 C868 0.929 . S
H848 C877 0.930 . S
H849 C869 0.931 . S
O850 Co826 2.097 . S
O850 C878 1.214 . S
H851 C879 0.929 . S
H852 C880 0.929 . S
H853 C881 0.930 . S
H854 C882 0.929 . S
H855 C884 0.930 . S
H856 C861 0.930 . S
H857 C865 0.930 . S
O858 Co827 2.037 . S
O858 C878 1.234 . S
C859 O833 1.269 . S
C859 O834 1.257 . S
C860 H835 0.930 . S
C860 C863 1.388 . S
C860 C865 1.418 . S
C861 H856 0.930 . S
C861 C864 1.404 . S
C861 C865 1.353 . S
N862 Co827 2.145 . S
N862 C863 1.397 . S
N862 C864 1.334 . S
C863 H844 0.929 . S
C863 C860 1.388 . S
C863 N862 1.397 . S
C864 H845 0.929 . S
C864 C861 1.404 . S
C864 N862 1.334 . S
C865 H857 0.930 . S
C865 C860 1.418 . S
C865 C861 1.353 . S
C866 H836 0.930 . S
C866 N867 1.330 . S
C866 C868 1.446 . S
N867 Co826 2.151 . S
N867 C866 1.330 . S
N867 C871 1.418 . S
C868 H847 0.929 . S
C868 C866 1.446 . S
C868 C869 1.332 . S
C869 H849 0.931 . S
C869 C868 1.332 . S
C869 C870 1.267 . S
C870 H838 0.929 . S
C870 C869 1.267 . S
C870 C871 1.251 . S
C871 H841 0.929 . S
C871 N867 1.418 . S
C871 C870 1.251 . S
C872 H839 0.930 . S
C872 C874 1.406 . S
C872 C877 1.261 . S
C873 H840 0.930 . S
C873 N875 1.325 . S
C873 C876 1.357 . S
C874 H842 0.928 . S
C874 C872 1.406 . S
C874 N875 1.261 . S
N875 Co826 2.214 . S
N875 C873 1.325 . S
N875 C874 1.261 . S
C876 H846 0.931 . S
C876 C873 1.357 . S
C876 C877 1.312 . S
C877 H848 0.930 . S
C877 C872 1.261 . S
C877 C876 1.312 . S
C878 O850 1.214 . S
C878 O858 1.234 . S
C879 H851 0.929 . S
C879 C882 1.391 . S
C879 C884 1.391 . S
C880 H852 0.929 . S
C880 C881 1.390 . S
C880 N883 1.391 . S
C881 H853 0.930 . S
C881 C880 1.390 . S
C881 C882 1.392 . S
C882 H854 0.929 . S
C882 C879 1.391 . S
C882 C881 1.392 . S
N883 Co827 2.257 . S
N883 C880 1.391 . S
N883 C884 1.388 . S
C884 H855 0.930 . S
C884 C879 1.391 . S
C884 N883 1.388 . S
Co885 O887 2.143 . S
Co885 O893 2.074 . S
Co885 O896 2.093 . S
Co885 O909 2.097 . S
Co885 N926 2.151 . S
Co885 N934 2.214 . S
Co886 O887 2.160 . S
Co886 O892 2.058 . S
Co886 O902 2.057 . S
Co886 O917 2.037 . S
Co886 N921 2.145 . S
Co886 N942 2.257 . S
O887 Co885 2.143 . S
O887 Co886 2.160 . S
C888 O889 1.278 . S
C888 O896 1.224 . S
O889 C888 1.278 . S
C890 O891 1.245 . S
C890 O902 1.232 . S
O891 C890 1.245 . S
O892 Co886 2.058 . S
O892 C918 1.269 . S
O893 Co885 2.074 . S
O893 C918 1.257 . S
H894 C919 0.930 . S
H895 C925 0.930 . S
O896 Co885 2.093 . S
O896 C888 1.224 . S
H897 C929 0.929 . S
H898 C931 0.930 . S
H899 C932 0.930 . S
H900 C930 0.929 . S
H901 C933 0.928 . S
O902 Co886 2.057 . S
O902 C890 1.232 . S
H903 C922 0.929 . S
H904 C923 0.929 . S
H905 C935 0.931 . S
H906 C927 0.929 . S
H907 C936 0.930 . S
H908 C928 0.931 . S
O909 Co885 2.097 . S
O909 C937 1.214 . S
H910 C938 0.929 . S
H911 C939 0.929 . S
H912 C940 0.930 . S
H913 C941 0.929 . S
H914 C943 0.930 . S
H915 C920 0.930 . S
H916 C924 0.930 . S
O917 Co886 2.037 . S
O917 C937 1.234 . S
C918 O892 1.269 . S
C918 O893 1.257 . S
C919 H894 0.930 . S
C919 C922 1.388 . S
C919 C924 1.418 . S
C920 H915 0.930 . S
C920 C923 1.404 . S
C920 C924 1.353 . S
N921 Co886 2.145 . S
N921 C922 1.397 . S
N921 C923 1.334 . S
C922 H903 0.929 . S
C922 C919 1.388 . S
C922 N921 1.397 . S
C923 H904 0.929 . S
C923 C920 1.404 . S
C923 N921 1.334 . S
C924 H916 0.930 . S
C924 C919 1.418 . S
C924 C920 1.353 . S
C925 H895 0.930 . S
C925 N926 1.330 . S
C925 C927 1.446 . S
N926 Co885 2.151 . S
N926 C925 1.330 . S
N926 C930 1.418 . S
C927 H906 0.929 . S
C927 C925 1.446 . S
C927 C928 1.332 . S
C928 H908 0.931 . S
C928 C927 1.332 . S
C928 C929 1.267 . S
C929 H897 0.929 . S
C929 C928 1.267 . S
C929 C930 1.251 . S
C930 H900 0.929 . S
C930 N926 1.418 . S
C930 C929 1.251 . S
C931 H898 0.930 . S
C931 C933 1.406 . S
C931 C936 1.261 . S
C932 H899 0.930 . S
C932 N934 1.325 . S
C932 C935 1.357 . S
C933 H901 0.928 . S
C933 C931 1.406 . S
C933 N934 1.261 . S
N934 Co885 2.214 . S
N934 C932 1.325 . S
N934 C933 1.261 . S
C935 H905 0.931 . S
C935 C932 1.357 . S
C935 C936 1.312 . S
C936 H907 0.930 . S
C936 C931 1.261 . S
C936 C935 1.312 . S
C937 O909 1.214 . S
C937 O917 1.234 . S
C938 H910 0.929 . S
C938 C941 1.391 . S
C938 C943 1.391 . S
C939 H911 0.929 . S
C939 C940 1.390 . S
C939 N942 1.391 . S
C940 H912 0.930 . S
C940 C939 1.390 . S
C940 C941 1.392 . S
C941 H913 0.929 . S
C941 C938 1.391 . S
C941 C940 1.392 . S
N942 Co886 2.257 . S
N942 C939 1.391 . S
N942 C943 1.388 . S
C943 H914 0.930 . S
C943 C938 1.391 . S
C943 N942 1.388 . S
Co944 O946 2.143 . S
Co944 O952 2.074 . S
Co944 O955 2.093 . S
Co944 O968 2.097 . S
Co944 N985 2.151 . S
Co944 N993 2.214 . S
Co945 O946 2.160 . S
Co945 O951 2.058 . S
Co945 O961 2.057 . S
Co945 O976 2.037 . S
Co945 N980 2.145 . S
Co945 N1001 2.257 . S
O946 Co944 2.143 . S
O946 Co945 2.160 . S
C947 O948 1.278 . S
C947 O955 1.224 . S
O948 C947 1.278 . S
C949 O950 1.245 . S
C949 O961 1.232 . S
O950 C949 1.245 . S
O951 Co945 2.058 . S
O951 C977 1.269 . S
O952 Co944 2.074 . S
O952 C977 1.257 . S
H953 C978 0.930 . S
H954 C984 0.930 . S
O955 Co944 2.093 . S
O955 C947 1.224 . S
H956 C988 0.929 . S
H957 C990 0.930 . S
H958 C991 0.930 . S
H959 C989 0.929 . S
H960 C992 0.928 . S
O961 Co945 2.057 . S
O961 C949 1.232 . S
H962 C981 0.929 . S
H963 C982 0.929 . S
H964 C994 0.931 . S
H965 C986 0.929 . S
H966 C995 0.930 . S
H967 C987 0.931 . S
O968 Co944 2.097 . S
O968 C996 1.214 . S
H969 C997 0.929 . S
H970 C998 0.929 . S
H971 C999 0.930 . S
H972 C1000 0.929 . S
H973 C1002 0.930 . S
H974 C979 0.930 . S
H975 C983 0.930 . S
O976 Co945 2.037 . S
O976 C996 1.234 . S
C977 O951 1.269 . S
C977 O952 1.257 . S
C978 H953 0.930 . S
C978 C981 1.388 . S
C978 C983 1.418 . S
C979 H974 0.930 . S
C979 C982 1.404 . S
C979 C983 1.353 . S
N980 Co945 2.145 . S
N980 C981 1.397 . S
N980 C982 1.334 . S
C981 H962 0.929 . S
C981 C978 1.388 . S
C981 N980 1.397 . S
C982 H963 0.929 . S
C982 C979 1.404 . S
C982 N980 1.334 . S
C983 H975 0.930 . S
C983 C978 1.418 . S
C983 C979 1.353 . S
C984 H954 0.930 . S
C984 N985 1.330 . S
C984 C986 1.446 . S
N985 Co944 2.151 . S
N985 C984 1.330 . S
N985 C989 1.418 . S
C986 H965 0.929 . S
C986 C984 1.446 . S
C986 C987 1.332 . S
C987 H967 0.931 . S
C987 C986 1.332 . S
C987 C988 1.267 . S
C988 H956 0.929 . S
C988 C987 1.267 . S
C988 C989 1.251 . S
C989 H959 0.929 . S
C989 N985 1.418 . S
C989 C988 1.251 . S
C990 H957 0.930 . S
C990 C992 1.406 . S
C990 C995 1.261 . S
C991 H958 0.930 . S
C991 N993 1.325 . S
C991 C994 1.357 . S
C992 H960 0.928 . S
C992 C990 1.406 . S
C992 N993 1.261 . S
N993 Co944 2.214 . S
N993 C991 1.325 . S
N993 C992 1.261 . S
C994 H964 0.931 . S
C994 C991 1.357 . S
C994 C995 1.312 . S
C995 H966 0.930 . S
C995 C990 1.261 . S
C995 C994 1.312 . S
C996 O968 1.214 . S
C996 O976 1.234 . S
C997 H969 0.929 . S
C997 C1000 1.391 . S
C997 C1002 1.391 . S
C998 H970 0.929 . S
C998 C999 1.390 . S
C998 N1001 1.391 . S
C999 H971 0.930 . S
C999 C998 1.390 . S
C999 C1000 1.392 . S
C1000 H972 0.929 . S
C1000 C997 1.391 . S
C1000 C999 1.392 . S
N1001 Co945 2.257 . S
N1001 C998 1.391 . S
N1001 C1002 1.388 . S
C1002 H973 0.930 . S
C1002 C997 1.391 . S
C1002 N1001 1.388 . S
Co1003 O1005 2.143 . S
Co1003 O1011 2.074 . S
Co1003 O1014 2.093 . S
Co1003 O1027 2.097 . S
Co1003 N1044 2.151 . S
Co1003 N1052 2.214 . S
Co1004 O1005 2.160 . S
Co1004 O1010 2.058 . S
Co1004 O1020 2.057 . S
Co1004 O1035 2.037 . S
Co1004 N1039 2.145 . S
Co1004 N1060 2.257 . S
O1005 Co1003 2.143 . S
O1005 Co1004 2.160 . S
C1006 O1007 1.278 . S
C1006 O1014 1.224 . S
O1007 C1006 1.278 . S
C1008 O1009 1.245 . S
C1008 O1020 1.232 . S
O1009 C1008 1.245 . S
O1010 Co1004 2.058 . S
O1010 C1036 1.269 . S
O1011 Co1003 2.074 . S
O1011 C1036 1.257 . S
H1012 C1037 0.930 . S
H1013 C1043 0.930 . S
O1014 Co1003 2.093 . S
O1014 C1006 1.224 . S
H1015 C1047 0.929 . S
H1016 C1049 0.930 . S
H1017 C1050 0.930 . S
H1018 C1048 0.929 . S
H1019 C1051 0.928 . S
O1020 Co1004 2.057 . S
O1020 C1008 1.232 . S
H1021 C1040 0.929 . S
H1022 C1041 0.929 . S
H1023 C1053 0.931 . S
H1024 C1045 0.929 . S
H1025 C1054 0.930 . S
H1026 C1046 0.931 . S
O1027 Co1003 2.097 . S
O1027 C1055 1.214 . S
H1028 C1056 0.929 . S
H1029 C1057 0.929 . S
H1030 C1058 0.930 . S
H1031 C1059 0.929 . S
H1032 C1061 0.930 . S
H1033 C1038 0.930 . S
H1034 C1042 0.930 . S
O1035 Co1004 2.037 . S
O1035 C1055 1.234 . S
C1036 O1010 1.269 . S
C1036 O1011 1.257 . S
C1037 H1012 0.930 . S
C1037 C1040 1.388 . S
C1037 C1042 1.418 . S
C1038 H1033 0.930 . S
C1038 C1041 1.404 . S
C1038 C1042 1.353 . S
N1039 Co1004 2.145 . S
N1039 C1040 1.397 . S
N1039 C1041 1.334 . S
C1040 H1021 0.929 . S
C1040 C1037 1.388 . S
C1040 N1039 1.397 . S
C1041 H1022 0.929 . S
C1041 C1038 1.404 . S
C1041 N1039 1.334 . S
C1042 H1034 0.930 . S
C1042 C1037 1.418 . S
C1042 C1038 1.353 . S
C1043 H1013 0.930 . S
C1043 N1044 1.330 . S
C1043 C1045 1.446 . S
N1044 Co1003 2.151 . S
N1044 C1043 1.330 . S
N1044 C1048 1.418 . S
C1045 H1024 0.929 . S
C1045 C1043 1.446 . S
C1045 C1046 1.332 . S
C1046 H1026 0.931 . S
C1046 C1045 1.332 . S
C1046 C1047 1.267 . S
C1047 H1015 0.929 . S
C1047 C1046 1.267 . S
C1047 C1048 1.251 . S
C1048 H1018 0.929 . S
C1048 N1044 1.418 . S
C1048 C1047 1.251 . S
C1049 H1016 0.930 . S
C1049 C1051 1.406 . S
C1049 C1054 1.261 . S
C1050 H1017 0.930 . S
C1050 N1052 1.325 . S
C1050 C1053 1.357 . S
C1051 H1019 0.928 . S
C1051 C1049 1.406 . S
C1051 N1052 1.261 . S
N1052 Co1003 2.214 . S
N1052 C1050 1.325 . S
N1052 C1051 1.261 . S
C1053 H1023 0.931 . S
C1053 C1050 1.357 . S
C1053 C1054 1.312 . S
C1054 H1025 0.930 . S
C1054 C1049 1.261 . S
C1054 C1053 1.312 . S
C1055 O1027 1.214 . S
C1055 O1035 1.234 . S
C1056 H1028 0.929 . S
C1056 C1059 1.391 . S
C1056 C1061 1.391 . S
C1057 H1029 0.929 . S
C1057 C1058 1.390 . S
C1057 N1060 1.391 . S
C1058 H1030 0.930 . S
C1058 C1057 1.390 . S
C1058 C1059 1.392 . S
C1059 H1031 0.929 . S
C1059 C1056 1.391 . S
C1059 C1058 1.392 . S
N1060 Co1004 2.257 . S
N1060 C1057 1.391 . S
N1060 C1061 1.388 . S
C1061 H1032 0.930 . S
C1061 C1056 1.391 . S
C1061 N1060 1.388 . S
Co1062 O1064 2.143 . S
Co1062 O1070 2.074 . S
Co1062 O1073 2.093 . S
Co1062 O1086 2.097 . S
Co1062 N1103 2.151 1_554 S
Co1062 N1111 2.214 1_554 S
Co1063 O1064 2.160 . S
Co1063 O1069 2.058 . S
Co1063 O1079 2.057 . S
Co1063 O1094 2.037 . S
Co1063 N1098 2.145 . S
Co1063 N1119 2.257 . S
O1064 Co1062 2.143 . S
O1064 Co1063 2.160 . S
C1065 O1066 1.278 . S
C1065 O1073 1.224 . S
O1066 C1065 1.278 . S
C1067 O1068 1.245 . S
C1067 O1079 1.232 . S
O1068 C1067 1.245 . S
O1069 Co1063 2.058 . S
O1069 C1095 1.269 . S
O1070 Co1062 2.074 . S
O1070 C1095 1.257 . S
H1071 C1096 0.930 . S
H1072 C1102 0.930 1_554 S
O1073 Co1062 2.093 . S
O1073 C1065 1.224 . S
H1074 C1106 0.929 . S
H1075 C1108 0.930 . S
H1076 C1109 0.930 . S
H1077 C1107 0.929 . S
H1078 C1110 0.928 . S
O1079 Co1063 2.057 . S
O1079 C1067 1.232 . S
H1080 C1099 0.929 . S
H1081 C1100 0.929 . S
H1082 C1112 0.931 . S
H1083 C1104 0.929 . S
H1084 C1113 0.930 . S
H1085 C1105 0.931 . S
O1086 Co1062 2.097 . S
O1086 C1114 1.214 . S
H1087 C1115 0.929 . S
H1088 C1116 0.929 . S
H1089 C1117 0.930 . S
H1090 C1118 0.929 . S
H1091 C1120 0.930 . S
H1092 C1097 0.930 . S
H1093 C1101 0.930 . S
O1094 Co1063 2.037 . S
O1094 C1114 1.234 . S
C1095 O1069 1.269 . S
C1095 O1070 1.257 . S
C1096 H1071 0.930 . S
C1096 C1099 1.388 . S
C1096 C1101 1.418 . S
C1097 H1092 0.930 . S
C1097 C1100 1.404 . S
C1097 C1101 1.353 . S
N1098 Co1063 2.145 . S
N1098 C1099 1.397 . S
N1098 C1100 1.334 . S
C1099 H1080 0.929 . S
C1099 C1096 1.388 . S
C1099 N1098 1.397 . S
C1100 H1081 0.929 . S
C1100 C1097 1.404 . S
C1100 N1098 1.334 . S
C1101 H1093 0.930 . S
C1101 C1096 1.418 . S
C1101 C1097 1.353 . S
C1102 H1072 0.930 1_556 S
C1102 N1103 1.330 . S
C1102 C1104 1.446 . S
N1103 Co1062 2.151 1_556 S
N1103 C1102 1.330 . S
N1103 C1107 1.418 . S
C1104 H1083 0.929 . S
C1104 C1102 1.446 . S
C1104 C1105 1.332 . S
C1105 H1085 0.931 . S
C1105 C1104 1.332 . S
C1105 C1106 1.267 . S
C1106 H1074 0.929 . S
C1106 C1105 1.267 . S
C1106 C1107 1.251 . S
C1107 H1077 0.929 . S
C1107 N1103 1.418 . S
C1107 C1106 1.251 . S
C1108 H1075 0.930 . S
C1108 C1110 1.406 . S
C1108 C1113 1.261 . S
C1109 H1076 0.930 . S
C1109 N1111 1.325 . S
C1109 C1112 1.357 . S
C1110 H1078 0.928 . S
C1110 C1108 1.406 . S
C1110 N1111 1.261 . S
N1111 Co1062 2.214 1_556 S
N1111 C1109 1.325 . S
N1111 C1110 1.261 . S
C1112 H1082 0.931 . S
C1112 C1109 1.357 . S
C1112 C1113 1.312 . S
C1113 H1084 0.930 . S
C1113 C1108 1.261 . S
C1113 C1112 1.312 . S
C1114 O1086 1.214 . S
C1114 O1094 1.234 . S
C1115 H1087 0.929 . S
C1115 C1118 1.391 . S
C1115 C1120 1.391 . S
C1116 H1088 0.929 . S
C1116 C1117 1.390 . S
C1116 N1119 1.391 . S
C1117 H1089 0.930 . S
C1117 C1116 1.390 . S
C1117 C1118 1.392 . S
C1118 H1090 0.929 . S
C1118 C1115 1.391 . S
C1118 C1117 1.392 . S
N1119 Co1063 2.257 . S
N1119 C1116 1.391 . S
N1119 C1120 1.388 . S
C1120 H1091 0.930 . S
C1120 C1115 1.391 . S
C1120 N1119 1.388 . S
Co1121 O1123 2.143 . S
Co1121 O1129 2.074 . S
Co1121 O1132 2.093 . S
Co1121 O1145 2.097 . S
Co1121 N1162 2.151 . S
Co1121 N1170 2.214 . S
Co1122 O1123 2.160 . S
Co1122 O1128 2.058 . S
Co1122 O1138 2.057 . S
Co1122 O1153 2.037 . S
Co1122 N1157 2.145 . S
Co1122 N1178 2.257 . S
O1123 Co1121 2.143 . S
O1123 Co1122 2.160 . S
C1124 O1125 1.278 . S
C1124 O1132 1.224 . S
O1125 C1124 1.278 . S
C1126 O1127 1.245 . S
C1126 O1138 1.232 . S
O1127 C1126 1.245 . S
O1128 Co1122 2.058 . S
O1128 C1154 1.269 . S
O1129 Co1121 2.074 . S
O1129 C1154 1.257 . S
H1130 C1155 0.930 . S
H1131 C1161 0.930 . S
O1132 Co1121 2.093 . S
O1132 C1124 1.224 . S
H1133 C1165 0.929 . S
H1134 C1167 0.930 . S
H1135 C1168 0.930 . S
H1136 C1166 0.929 . S
H1137 C1169 0.928 . S
O1138 Co1122 2.057 . S
O1138 C1126 1.232 . S
H1139 C1158 0.929 . S
H1140 C1159 0.929 . S
H1141 C1171 0.931 . S
H1142 C1163 0.929 . S
H1143 C1172 0.930 . S
H1144 C1164 0.931 . S
O1145 Co1121 2.097 . S
O1145 C1173 1.214 . S
H1146 C1174 0.929 . S
H1147 C1175 0.929 . S
H1148 C1176 0.930 . S
H1149 C1177 0.929 . S
H1150 C1179 0.930 . S
H1151 C1156 0.930 . S
H1152 C1160 0.930 . S
O1153 Co1122 2.037 . S
O1153 C1173 1.234 . S
C1154 O1128 1.269 . S
C1154 O1129 1.257 . S
C1155 H1130 0.930 . S
C1155 C1158 1.388 . S
C1155 C1160 1.418 . S
C1156 H1151 0.930 . S
C1156 C1159 1.404 . S
C1156 C1160 1.353 . S
N1157 Co1122 2.145 . S
N1157 C1158 1.397 . S
N1157 C1159 1.334 . S
C1158 H1139 0.929 . S
C1158 C1155 1.388 . S
C1158 N1157 1.397 . S
C1159 H1140 0.929 . S
C1159 C1156 1.404 . S
C1159 N1157 1.334 . S
C1160 H1152 0.930 . S
C1160 C1155 1.418 . S
C1160 C1156 1.353 . S
C1161 H1131 0.930 . S
C1161 N1162 1.330 . S
C1161 C1163 1.446 . S
N1162 Co1121 2.151 . S
N1162 C1161 1.330 . S
N1162 C1166 1.418 . S
C1163 H1142 0.929 . S
C1163 C1161 1.446 . S
C1163 C1164 1.332 . S
C1164 H1144 0.931 . S
C1164 C1163 1.332 . S
C1164 C1165 1.267 . S
C1165 H1133 0.929 . S
C1165 C1164 1.267 . S
C1165 C1166 1.251 . S
C1166 H1136 0.929 . S
C1166 N1162 1.418 . S
C1166 C1165 1.251 . S
C1167 H1134 0.930 . S
C1167 C1169 1.406 . S
C1167 C1172 1.261 . S
C1168 H1135 0.930 . S
C1168 N1170 1.325 . S
C1168 C1171 1.357 . S
C1169 H1137 0.928 . S
C1169 C1167 1.406 . S
C1169 N1170 1.261 . S
N1170 Co1121 2.214 . S
N1170 C1168 1.325 . S
N1170 C1169 1.261 . S
C1171 H1141 0.931 . S
C1171 C1168 1.357 . S
C1171 C1172 1.312 . S
C1172 H1143 0.930 . S
C1172 C1167 1.261 . S
C1172 C1171 1.312 . S
C1173 O1145 1.214 . S
C1173 O1153 1.234 . S
C1174 H1146 0.929 . S
C1174 C1177 1.391 . S
C1174 C1179 1.391 . S
C1175 H1147 0.929 . S
C1175 C1176 1.390 . S
C1175 N1178 1.391 . S
C1176 H1148 0.930 . S
C1176 C1175 1.390 . S
C1176 C1177 1.392 . S
C1177 H1149 0.929 . S
C1177 C1174 1.391 . S
C1177 C1176 1.392 . S
N1178 Co1122 2.257 . S
N1178 C1175 1.391 . S
N1178 C1179 1.388 . S
C1179 H1150 0.930 . S
C1179 C1174 1.391 . S
C1179 N1178 1.388 . S
Co1180 O1182 2.143 . S
Co1180 O1188 2.074 . S
Co1180 O1191 2.093 . S
Co1180 O1204 2.097 . S
Co1180 N1221 2.151 . S
Co1180 N1229 2.214 . S
Co1181 O1182 2.160 . S
Co1181 O1187 2.058 . S
Co1181 O1197 2.057 . S
Co1181 O1212 2.037 . S
Co1181 N1216 2.145 . S
Co1181 N1237 2.257 . S
O1182 Co1180 2.143 . S
O1182 Co1181 2.160 . S
C1183 O1184 1.278 . S
C1183 O1191 1.224 . S
O1184 C1183 1.278 . S
C1185 O1186 1.245 . S
C1185 O1197 1.232 . S
O1186 C1185 1.245 . S
O1187 Co1181 2.058 . S
O1187 C1213 1.269 . S
O1188 Co1180 2.074 . S
O1188 C1213 1.257 . S
H1189 C1214 0.930 . S
H1190 C1220 0.930 . S
O1191 Co1180 2.093 . S
O1191 C1183 1.224 . S
H1192 C1224 0.929 . S
H1193 C1226 0.930 . S
H1194 C1227 0.930 . S
H1195 C1225 0.929 . S
H1196 C1228 0.928 . S
O1197 Co1181 2.057 . S
O1197 C1185 1.232 . S
H1198 C1217 0.929 . S
H1199 C1218 0.929 . S
H1200 C1230 0.931 . S
H1201 C1222 0.929 . S
H1202 C1231 0.930 . S
H1203 C1223 0.931 . S
O1204 Co1180 2.097 . S
O1204 C1232 1.214 . S
H1205 C1233 0.929 . S
H1206 C1234 0.929 . S
H1207 C1235 0.930 . S
H1208 C1236 0.929 . S
H1209 C1238 0.930 . S
H1210 C1215 0.930 . S
H1211 C1219 0.930 . S
O1212 Co1181 2.037 . S
O1212 C1232 1.234 . S
C1213 O1187 1.269 . S
C1213 O1188 1.257 . S
C1214 H1189 0.930 . S
C1214 C1217 1.388 . S
C1214 C1219 1.418 . S
C1215 H1210 0.930 . S
C1215 C1218 1.404 . S
C1215 C1219 1.353 . S
N1216 Co1181 2.145 . S
N1216 C1217 1.397 . S
N1216 C1218 1.334 . S
C1217 H1198 0.929 . S
C1217 C1214 1.388 . S
C1217 N1216 1.397 . S
C1218 H1199 0.929 . S
C1218 C1215 1.404 . S
C1218 N1216 1.334 . S
C1219 H1211 0.930 . S
C1219 C1214 1.418 . S
C1219 C1215 1.353 . S
C1220 H1190 0.930 . S
C1220 N1221 1.330 . S
C1220 C1222 1.446 . S
N1221 Co1180 2.151 . S
N1221 C1220 1.330 . S
N1221 C1225 1.418 . S
C1222 H1201 0.929 . S
C1222 C1220 1.446 . S
C1222 C1223 1.332 . S
C1223 H1203 0.931 . S
C1223 C1222 1.332 . S
C1223 C1224 1.267 . S
C1224 H1192 0.929 . S
C1224 C1223 1.267 . S
C1224 C1225 1.251 . S
C1225 H1195 0.929 . S
C1225 N1221 1.418 . S
C1225 C1224 1.251 . S
C1226 H1193 0.930 . S
C1226 C1228 1.406 . S
C1226 C1231 1.261 . S
C1227 H1194 0.930 . S
C1227 N1229 1.325 . S
C1227 C1230 1.357 . S
C1228 H1196 0.928 . S
C1228 C1226 1.406 . S
C1228 N1229 1.261 . S
N1229 Co1180 2.214 . S
N1229 C1227 1.325 . S
N1229 C1228 1.261 . S
C1230 H1200 0.931 . S
C1230 C1227 1.357 . S
C1230 C1231 1.312 . S
C1231 H1202 0.930 . S
C1231 C1226 1.261 . S
C1231 C1230 1.312 . S
C1232 O1204 1.214 . S
C1232 O1212 1.234 . S
C1233 H1205 0.929 . S
C1233 C1236 1.391 . S
C1233 C1238 1.391 . S
C1234 H1206 0.929 . S
C1234 C1235 1.390 . S
C1234 N1237 1.391 . S
C1235 H1207 0.930 . S
C1235 C1234 1.390 . S
C1235 C1236 1.392 . S
C1236 H1208 0.929 . S
C1236 C1233 1.391 . S
C1236 C1235 1.392 . S
N1237 Co1181 2.257 . S
N1237 C1234 1.391 . S
N1237 C1238 1.388 . S
C1238 H1209 0.930 . S
C1238 C1233 1.391 . S
C1238 N1237 1.388 . S
Co1239 O1241 2.143 . S
Co1239 O1247 2.074 . S
Co1239 O1250 2.093 . S
Co1239 O1263 2.097 . S
Co1239 N1280 2.151 . S
Co1239 N1288 2.214 . S
Co1240 O1241 2.160 . S
Co1240 O1246 2.058 . S
Co1240 O1256 2.057 . S
Co1240 O1271 2.037 . S
Co1240 N1275 2.145 . S
Co1240 N1296 2.257 . S
O1241 Co1239 2.143 . S
O1241 Co1240 2.160 . S
C1242 O1243 1.278 . S
C1242 O1250 1.224 . S
O1243 C1242 1.278 . S
C1244 O1245 1.245 . S
C1244 O1256 1.232 . S
O1245 C1244 1.245 . S
O1246 Co1240 2.058 . S
O1246 C1272 1.269 . S
O1247 Co1239 2.074 . S
O1247 C1272 1.257 . S
H1248 C1273 0.930 . S
H1249 C1279 0.930 . S
O1250 Co1239 2.093 . S
O1250 C1242 1.224 . S
H1251 C1283 0.929 . S
H1252 C1285 0.930 . S
H1253 C1286 0.930 . S
H1254 C1284 0.929 . S
H1255 C1287 0.928 . S
O1256 Co1240 2.057 . S
O1256 C1244 1.232 . S
H1257 C1276 0.929 . S
H1258 C1277 0.929 . S
H1259 C1289 0.931 . S
H1260 C1281 0.929 . S
H1261 C1290 0.930 . S
H1262 C1282 0.931 . S
O1263 Co1239 2.097 . S
O1263 C1291 1.214 . S
H1264 C1292 0.929 . S
H1265 C1293 0.929 . S
H1266 C1294 0.930 . S
H1267 C1295 0.929 . S
H1268 C1297 0.930 . S
H1269 C1274 0.930 . S
H1270 C1278 0.930 . S
O1271 Co1240 2.037 . S
O1271 C1291 1.234 . S
C1272 O1246 1.269 . S
C1272 O1247 1.257 . S
C1273 H1248 0.930 . S
C1273 C1276 1.388 . S
C1273 C1278 1.418 . S
C1274 H1269 0.930 . S
C1274 C1277 1.404 . S
C1274 C1278 1.353 . S
N1275 Co1240 2.145 . S
N1275 C1276 1.397 . S
N1275 C1277 1.334 . S
C1276 H1257 0.929 . S
C1276 C1273 1.388 . S
C1276 N1275 1.397 . S
C1277 H1258 0.929 . S
C1277 C1274 1.404 . S
C1277 N1275 1.334 . S
C1278 H1270 0.930 . S
C1278 C1273 1.418 . S
C1278 C1274 1.353 . S
C1279 H1249 0.930 . S
C1279 N1280 1.330 . S
C1279 C1281 1.446 . S
N1280 Co1239 2.151 . S
N1280 C1279 1.330 . S
N1280 C1284 1.418 . S
C1281 H1260 0.929 . S
C1281 C1279 1.446 . S
C1281 C1282 1.332 . S
C1282 H1262 0.931 . S
C1282 C1281 1.332 . S
C1282 C1283 1.267 . S
C1283 H1251 0.929 . S
C1283 C1282 1.267 . S
C1283 C1284 1.251 . S
C1284 H1254 0.929 . S
C1284 N1280 1.418 . S
C1284 C1283 1.251 . S
C1285 H1252 0.930 . S
C1285 C1287 1.406 . S
C1285 C1290 1.261 . S
C1286 H1253 0.930 . S
C1286 N1288 1.325 . S
C1286 C1289 1.357 . S
C1287 H1255 0.928 . S
C1287 C1285 1.406 . S
C1287 N1288 1.261 . S
N1288 Co1239 2.214 . S
N1288 C1286 1.325 . S
N1288 C1287 1.261 . S
C1289 H1259 0.931 . S
C1289 C1286 1.357 . S
C1289 C1290 1.312 . S
C1290 H1261 0.930 . S
C1290 C1285 1.261 . S
C1290 C1289 1.312 . S
C1291 O1263 1.214 . S
C1291 O1271 1.234 . S
C1292 H1264 0.929 . S
C1292 C1295 1.391 . S
C1292 C1297 1.391 . S
C1293 H1265 0.929 . S
C1293 C1294 1.390 . S
C1293 N1296 1.391 . S
C1294 H1266 0.930 . S
C1294 C1293 1.390 . S
C1294 C1295 1.392 . S
C1295 H1267 0.929 . S
C1295 C1292 1.391 . S
C1295 C1294 1.392 . S
N1296 Co1240 2.257 . S
N1296 C1293 1.391 . S
N1296 C1297 1.388 . S
C1297 H1268 0.930 . S
C1297 C1292 1.391 . S
C1297 N1296 1.388 . S
Co1298 O1300 2.143 . S
Co1298 O1306 2.074 . S
Co1298 O1309 2.093 . S
Co1298 O1322 2.097 . S
Co1298 N1339 2.151 1_556 S
Co1298 N1347 2.214 1_556 S
Co1299 O1300 2.160 . S
Co1299 O1305 2.056 . S
Co1299 O1315 2.057 . S
Co1299 O1330 2.037 . S
Co1299 N1334 2.145 . S
Co1299 N1355 2.257 . S
O1300 Co1298 2.143 . S
O1300 Co1299 2.160 . S
C1301 O1302 1.278 . S
C1301 O1309 1.224 . S
O1302 C1301 1.278 . S
C1303 O1304 1.245 . S
C1303 O1315 1.232 . S
O1304 C1303 1.245 . S
O1305 Co1299 2.056 . S
O1305 C1331 1.269 . S
O1306 Co1298 2.074 . S
O1306 C1331 1.257 . S
H1307 C1332 0.930 . S
H1308 C1338 0.930 1_556 S
O1309 Co1298 2.093 . S
O1309 C1301 1.224 . S
H1310 C1342 0.929 1_545 S
H1311 C1344 0.930 . S
H1312 C1345 0.930 . S
H1313 C1343 0.929 . S
H1314 C1346 0.928 . S
O1315 Co1299 2.057 . S
O1315 C1303 1.232 . S
H1316 C1335 0.929 . S
H1317 C1336 0.929 . S
H1318 C1348 0.931 . S
H1319 C1340 0.929 . S
H1320 C1349 0.930 . S
H1321 C1341 0.932 1_545 S
O1322 Co1298 2.097 . S
O1322 C1350 1.214 . S
H1323 C1351 0.929 . S
H1324 C1352 0.929 . S
H1325 C1353 0.930 . S
H1326 C1354 0.929 . S
H1327 C1356 0.930 . S
H1328 C1333 0.930 . S
H1329 C1337 0.930 . S
O1330 Co1299 2.037 . S
O1330 C1350 1.234 . S
C1331 O1305 1.269 . S
C1331 O1306 1.257 . S
C1332 H1307 0.930 . S
C1332 C1335 1.388 . S
C1332 C1337 1.418 1_565 S
C1333 H1328 0.930 . S
C1333 C1336 1.404 1_545 S
C1333 C1337 1.353 . S
N1334 Co1299 2.145 . S
N1334 C1335 1.397 . S
N1334 C1336 1.334 . S
C1335 H1316 0.929 . S
C1335 C1332 1.388 . S
C1335 N1334 1.397 . S
C1336 H1317 0.929 . S
C1336 C1333 1.404 1_565 S
C1336 N1334 1.334 . S
C1337 H1329 0.930 . S
C1337 C1332 1.418 1_545 S
C1337 C1333 1.353 . S
C1338 H1308 0.930 1_554 S
C1338 N1339 1.330 . S
C1338 C1340 1.446 . S
N1339 Co1298 2.151 1_554 S
N1339 C1338 1.330 . S
N1339 C1343 1.418 . S
C1340 H1319 0.929 . S
C1340 C1338 1.446 . S
C1340 C1341 1.332 . S
C1341 H1321 0.932 1_565 S
C1341 C1340 1.332 . S
C1341 C1342 1.267 . S
C1342 H1310 0.929 1_565 S
C1342 C1341 1.267 . S
C1342 C1343 1.251 . S
C1343 H1313 0.929 . S
C1343 N1339 1.418 . S
C1343 C1342 1.251 . S
C1344 H1311 0.930 . S
C1344 C1346 1.406 . S
C1344 C1349 1.261 . S
C1345 H1312 0.930 . S
C1345 N1347 1.325 . S
C1345 C1348 1.357 . S
C1346 H1314 0.928 . S
C1346 C1344 1.406 . S
C1346 N1347 1.261 . S
N1347 Co1298 2.214 1_554 S
N1347 C1345 1.325 . S
N1347 C1346 1.261 . S
C1348 H1318 0.931 . S
C1348 C1345 1.357 . S
C1348 C1349 1.312 . S
C1349 H1320 0.930 . S
C1349 C1344 1.261 . S
C1349 C1348 1.312 . S
C1350 O1322 1.214 . S
C1350 O1330 1.234 . S
C1351 H1323 0.929 . S
C1351 C1354 1.391 . S
C1351 C1356 1.391 . S
C1352 H1324 0.929 . S
C1352 C1353 1.390 . S
C1352 N1355 1.391 . S
C1353 H1325 0.930 . S
C1353 C1352 1.390 . S
C1353 C1354 1.392 . S
C1354 H1326 0.929 . S
C1354 C1351 1.391 . S
C1354 C1353 1.392 . S
N1355 Co1299 2.257 . S
N1355 C1352 1.391 . S
N1355 C1356 1.388 . S
C1356 H1327 0.930 . S
C1356 C1351 1.391 . S
C1356 N1355 1.388 . S
Co1357 O1359 2.143 . S
Co1357 O1365 2.074 . S
Co1357 O1368 2.093 . S
Co1357 O1381 2.097 . S
Co1357 N1398 2.151 . S
Co1357 N1406 2.214 . S
Co1358 O1359 2.160 . S
Co1358 O1364 2.056 . S
Co1358 O1374 2.057 . S
Co1358 O1389 2.037 . S
Co1358 N1393 2.145 . S
Co1358 N1414 2.257 . S
O1359 Co1357 2.143 . S
O1359 Co1358 2.160 . S
C1360 O1361 1.278 . S
C1360 O1368 1.224 . S
O1361 C1360 1.278 . S
C1362 O1363 1.245 . S
C1362 O1374 1.232 . S
O1363 C1362 1.245 . S
O1364 Co1358 2.056 . S
O1364 C1390 1.269 . S
O1365 Co1357 2.074 . S
O1365 C1390 1.257 . S
H1366 C1391 0.930 . S
H1367 C1397 0.930 . S
O1368 Co1357 2.093 . S
O1368 C1360 1.224 . S
H1369 C1401 0.929 1_565 S
H1370 C1403 0.930 . S
H1371 C1404 0.930 . S
H1372 C1402 0.929 . S
H1373 C1405 0.928 . S
O1374 Co1358 2.057 . S
O1374 C1362 1.232 . S
H1375 C1394 0.929 . S
H1376 C1395 0.929 . S
H1377 C1407 0.931 . S
H1378 C1399 0.929 . S
H1379 C1408 0.930 . S
H1380 C1400 0.932 1_565 S
O1381 Co1357 2.097 . S
O1381 C1409 1.214 . S
H1382 C1410 0.929 . S
H1383 C1411 0.929 . S
H1384 C1412 0.930 . S
H1385 C1413 0.929 . S
H1386 C1415 0.930 . S
H1387 C1392 0.930 . S
H1388 C1396 0.930 . S
O1389 Co1358 2.037 . S
O1389 C1409 1.234 . S
C1390 O1364 1.269 . S
C1390 O1365 1.257 . S
C1391 H1366 0.930 . S
C1391 C1394 1.388 . S
C1391 C1396 1.418 1_545 S
C1392 H1387 0.930 . S
C1392 C1395 1.404 1_565 S
C1392 C1396 1.353 . S
N1393 Co1358 2.145 . S
N1393 C1394 1.397 . S
N1393 C1395 1.334 . S
C1394 H1375 0.929 . S
C1394 C1391 1.388 . S
C1394 N1393 1.397 . S
C1395 H1376 0.929 . S
C1395 C1392 1.404 1_545 S
C1395 N1393 1.334 . S
C1396 H1388 0.930 . S
C1396 C1391 1.418 1_565 S
C1396 C1392 1.353 . S
C1397 H1367 0.930 . S
C1397 N1398 1.330 . S
C1397 C1399 1.446 . S
N1398 Co1357 2.151 . S
N1398 C1397 1.330 . S
N1398 C1402 1.418 . S
C1399 H1378 0.929 . S
C1399 C1397 1.446 . S
C1399 C1400 1.332 . S
C1400 H1380 0.932 1_545 S
C1400 C1399 1.332 . S
C1400 C1401 1.267 . S
C1401 H1369 0.929 1_545 S
C1401 C1400 1.267 . S
C1401 C1402 1.251 . S
C1402 H1372 0.929 . S
C1402 N1398 1.418 . S
C1402 C1401 1.251 . S
C1403 H1370 0.930 . S
C1403 C1405 1.406 . S
C1403 C1408 1.261 . S
C1404 H1371 0.930 . S
C1404 N1406 1.325 . S
C1404 C1407 1.357 . S
C1405 H1373 0.928 . S
C1405 C1403 1.406 . S
C1405 N1406 1.261 . S
N1406 Co1357 2.214 . S
N1406 C1404 1.325 . S
N1406 C1405 1.261 . S
C1407 H1377 0.931 . S
C1407 C1404 1.357 . S
C1407 C1408 1.312 . S
C1408 H1379 0.930 . S
C1408 C1403 1.261 . S
C1408 C1407 1.312 . S
C1409 O1381 1.214 . S
C1409 O1389 1.234 . S
C1410 H1382 0.929 . S
C1410 C1413 1.391 . S
C1410 C1415 1.391 . S
C1411 H1383 0.929 . S
C1411 C1412 1.390 . S
C1411 N1414 1.391 . S
C1412 H1384 0.930 . S
C1412 C1411 1.390 . S
C1412 C1413 1.392 . S
C1413 H1385 0.929 . S
C1413 C1410 1.391 . S
C1413 C1412 1.392 . S
N1414 Co1358 2.257 . S
N1414 C1411 1.391 . S
N1414 C1415 1.388 . S
C1415 H1386 0.930 . S
C1415 C1410 1.391 . S
C1415 N1414 1.388 . S
C1416 C1417 1.387 . S
C1416 H1420 0.950 . S
C1416 C1425 1.390 . S
C1417 C1416 1.387 . S
C1417 C1419 1.387 . S
H1418 C1425 0.950 . S
C1419 C1417 1.387 . S
C1419 C1421 1.390 . S
C1419 H1423 0.950 . S
H1420 C1416 0.950 . S
C1421 C1419 1.390 . S
C1421 C1422 1.387 . S
C1421 H1424 0.950 . S
C1422 C1421 1.387 . S
C1422 C1425 1.387 . S
H1423 C1419 0.950 . S
H1424 C1421 0.950 . S
C1425 C1416 1.390 . S
C1425 H1418 0.950 . S
C1425 C1422 1.387 . S
C1426 C1427 1.387 . S
C1426 H1430 0.950 . S
C1426 C1435 1.390 . S
C1427 C1426 1.387 . S
C1427 C1429 1.387 . S
H1428 C1435 0.950 . S
C1429 C1427 1.387 . S
C1429 C1431 1.390 . S
C1429 H1433 0.950 . S
H1430 C1426 0.950 . S
C1431 C1429 1.390 . S
C1431 C1432 1.387 . S
C1431 H1434 0.950 . S
C1432 C1431 1.387 . S
C1432 C1435 1.387 . S
H1433 C1429 0.950 . S
H1434 C1431 0.950 . S
C1435 C1426 1.390 . S
C1435 H1428 0.950 . S
C1435 C1432 1.387 . S
C1436 C1437 1.387 . S
C1436 H1440 0.950 . S
C1436 C1445 1.390 . S
C1437 C1436 1.387 . S
C1437 C1439 1.387 . S
H1438 C1445 0.950 . S
C1439 C1437 1.387 . S
C1439 C1441 1.390 . S
C1439 H1443 0.950 . S
H1440 C1436 0.950 . S
C1441 C1439 1.390 . S
C1441 C1442 1.387 . S
C1441 H1444 0.950 1_556 S
C1442 C1441 1.387 . S
C1442 C1445 1.387 . S
H1443 C1439 0.950 . S
H1444 C1441 0.950 1_554 S
C1445 C1436 1.390 . S
C1445 H1438 0.950 . S
C1445 C1442 1.387 . S
C1446 C1447 1.387 . S
C1446 H1450 0.950 . S
C1446 C1455 1.390 . S
C1447 C1446 1.387 . S
C1447 C1449 1.387 . S
H1448 C1455 0.950 . S
C1449 C1447 1.387 . S
C1449 C1451 1.390 . S
C1449 H1453 0.950 . S
H1450 C1446 0.950 . S
C1451 C1449 1.390 . S
C1451 C1452 1.387 . S
C1451 H1454 0.950 . S
C1452 C1451 1.387 . S
C1452 C1455 1.387 . S
H1453 C1449 0.950 . S
H1454 C1451 0.950 . S
C1455 C1446 1.390 . S
C1455 H1448 0.950 . S
C1455 C1452 1.387 . S
C1456 C1457 1.387 . S
C1456 H1460 0.950 . S
C1456 C1465 1.390 . S
C1457 C1456 1.387 . S
C1457 C1459 1.387 . S
H1458 C1465 0.950 . S
C1459 C1457 1.387 . S
C1459 C1461 1.390 . S
C1459 H1463 0.950 . S
H1460 C1456 0.950 . S
C1461 C1459 1.390 . S
C1461 C1462 1.387 . S
C1461 H1464 0.950 . S
C1462 C1461 1.387 . S
C1462 C1465 1.387 . S
H1463 C1459 0.950 . S
H1464 C1461 0.950 . S
C1465 C1456 1.390 . S
C1465 H1458 0.950 . S
C1465 C1462 1.387 . S
C1466 C1467 1.387 . S
C1466 H1470 0.950 . S
C1466 C1475 1.390 . S
C1467 C1466 1.387 . S
C1467 C1469 1.387 . S
H1468 C1475 0.950 . S
C1469 C1467 1.387 . S
C1469 C1471 1.390 . S
C1469 H1473 0.950 . S
H1470 C1466 0.950 . S
C1471 C1469 1.390 . S
C1471 C1472 1.387 . S
C1471 H1474 0.950 . S
C1472 C1471 1.387 . S
C1472 C1475 1.387 . S
H1473 C1469 0.950 . S
H1474 C1471 0.950 . S
C1475 C1466 1.390 . S
C1475 H1468 0.950 . S
C1475 C1472 1.387 . S
C1476 C1477 1.387 . S
C1476 H1480 0.950 . S
C1476 C1485 1.390 . S
C1477 C1476 1.387 . S
C1477 C1479 1.387 . S
H1478 C1485 0.950 . S
C1479 C1477 1.387 . S
C1479 C1481 1.390 . S
C1479 H1483 0.950 . S
H1480 C1476 0.950 . S
C1481 C1479 1.390 . S
C1481 C1482 1.387 . S
C1481 H1484 0.950 . S
C1482 C1481 1.387 . S
C1482 C1485 1.387 . S
H1483 C1479 0.950 . S
H1484 C1481 0.950 . S
C1485 C1476 1.390 . S
C1485 H1478 0.950 . S
C1485 C1482 1.387 . S
C1486 C1487 1.387 . S
C1486 H1490 0.950 . S
C1486 C1495 1.390 . S
C1487 C1486 1.387 . S
C1487 C1489 1.387 . S
H1488 C1495 0.950 . S
C1489 C1487 1.387 . S
C1489 C1491 1.390 . S
C1489 H1493 0.950 . S
H1490 C1486 0.950 . S
C1491 C1489 1.390 . S
C1491 C1492 1.387 . S
C1491 H1494 0.950 . S
C1492 C1491 1.387 . S
C1492 C1495 1.387 . S
H1493 C1489 0.950 . S
H1494 C1491 0.950 . S
C1495 C1486 1.390 . S
C1495 H1488 0.950 . S
C1495 C1492 1.387 . S
C1496 C1497 1.387 . S
C1496 H1500 0.950 . S
C1496 C1505 1.390 . S
C1497 C1496 1.387 . S
C1497 C1499 1.387 . S
H1498 C1505 0.950 . S
C1499 C1497 1.387 . S
C1499 C1501 1.390 . S
C1499 H1503 0.950 . S
H1500 C1496 0.950 . S
C1501 C1499 1.390 . S
C1501 C1502 1.387 . S
C1501 H1504 0.950 . S
C1502 C1501 1.387 . S
C1502 C1505 1.387 . S
H1503 C1499 0.950 . S
H1504 C1501 0.950 . S
C1505 C1496 1.390 . S
C1505 H1498 0.950 . S
C1505 C1502 1.387 . S
C1506 C1507 1.387 . S
C1506 H1510 0.950 . S
C1506 C1515 1.390 . S
C1507 C1506 1.387 . S
C1507 C1509 1.387 . S
H1508 C1515 0.950 . S
C1509 C1507 1.387 . S
C1509 C1511 1.390 . S
C1509 H1513 0.950 . S
H1510 C1506 0.950 . S
C1511 C1509 1.390 . S
C1511 C1512 1.387 . S
C1511 H1514 0.950 . S
C1512 C1511 1.387 . S
C1512 C1515 1.387 . S
H1513 C1509 0.950 . S
H1514 C1511 0.950 . S
C1515 C1506 1.390 . S
C1515 H1508 0.950 . S
C1515 C1512 1.387 . S
C1516 C1517 1.387 . S
C1516 H1520 0.950 . S
C1516 C1525 1.390 . S
C1517 C1516 1.387 . S
C1517 C1519 1.387 . S
H1518 C1525 0.950 . S
C1519 C1517 1.387 . S
C1519 C1521 1.390 . S
C1519 H1523 0.950 . S
H1520 C1516 0.950 . S
C1521 C1519 1.390 . S
C1521 C1522 1.387 . S
C1521 H1524 0.950 . S
C1522 C1521 1.387 . S
C1522 C1525 1.387 . S
H1523 C1519 0.950 . S
H1524 C1521 0.950 . S
C1525 C1516 1.390 . S
C1525 H1518 0.950 . S
C1525 C1522 1.387 . S
C1526 C1527 1.387 . S
C1526 H1530 0.950 . S
C1526 C1535 1.390 . S
C1527 C1526 1.387 . S
C1527 C1529 1.387 . S
H1528 C1535 0.950 . S
C1529 C1527 1.387 . S
C1529 C1531 1.390 . S
C1529 H1533 0.950 . S
H1530 C1526 0.950 . S
C1531 C1529 1.390 . S
C1531 C1532 1.387 . S
C1531 H1534 0.950 . S
C1532 C1531 1.387 . S
C1532 C1535 1.387 . S
H1533 C1529 0.950 . S
H1534 C1531 0.950 . S
C1535 C1526 1.390 . S
C1535 H1528 0.950 . S
C1535 C1532 1.387 . S
C1536 C1537 1.387 . S
C1536 H1540 0.950 . S
C1536 C1545 1.390 . S
C1537 C1536 1.387 . S
C1537 C1539 1.387 . S
H1538 C1545 0.950 . S
C1539 C1537 1.387 . S
C1539 C1541 1.390 . S
C1539 H1543 0.950 . S
H1540 C1536 0.950 . S
C1541 C1539 1.390 . S
C1541 C1542 1.387 . S
C1541 H1544 0.950 . S
C1542 C1541 1.387 . S
C1542 C1545 1.387 . S
H1543 C1539 0.950 . S
H1544 C1541 0.950 . S
C1545 C1536 1.390 . S
C1545 H1538 0.950 . S
C1545 C1542 1.387 . S
C1546 C1547 1.387 1_545 S
C1546 H1550 0.950 . S
C1546 C1555 1.390 . S
C1547 C1546 1.387 1_565 S
C1547 C1549 1.387 . S
H1548 C1555 0.950 . S
C1549 C1547 1.387 . S
C1549 C1551 1.390 1_565 S
C1549 H1553 0.950 . S
H1550 C1546 0.950 . S
C1551 C1549 1.390 1_545 S
C1551 C1552 1.387 . S
C1551 H1554 0.950 . S
C1552 C1551 1.387 . S
C1552 C1555 1.387 . S
H1553 C1549 0.950 . S
H1554 C1551 0.950 . S
C1555 C1546 1.390 . S
C1555 H1548 0.950 . S
C1555 C1552 1.387 . S
C1556 C1557 1.387 . S
C1556 H1560 0.950 . S
C1556 C1565 1.390 1_556 S
C1557 C1556 1.387 . S
C1557 C1559 1.387 . S
H1558 C1565 0.950 . S
C1559 C1557 1.387 . S
C1559 C1561 1.390 . S
C1559 H1563 0.950 . S
H1560 C1556 0.950 . S
C1561 C1559 1.390 . S
C1561 C1562 1.387 1_556 S
C1561 H1564 0.952 . S
C1562 C1561 1.387 1_554 S
C1562 C1565 1.387 . S
H1563 C1559 0.950 . S
H1564 C1561 0.952 . S
C1565 C1556 1.390 1_554 S
C1565 H1558 0.950 . S
C1565 C1562 1.387 . S
C1566 C1567 1.387 1_565 S
C1566 H1570 0.950 . S
C1566 C1575 1.390 . S
C1567 C1566 1.387 1_545 S
C1567 C1569 1.387 . S
H1568 C1575 0.950 . S
C1569 C1567 1.387 . S
C1569 C1571 1.390 1_545 S
C1569 H1573 0.950 . S
H1570 C1566 0.950 . S
C1571 C1569 1.390 1_565 S
C1571 C1572 1.387 . S
C1571 H1574 0.950 1_565 S
C1572 C1571 1.387 . S
C1572 C1575 1.387 . S
H1573 C1569 0.950 . S
H1574 C1571 0.950 1_545 S
C1575 C1566 1.390 . S
C1575 H1568 0.950 . S
C1575 C1572 1.387 . S
C1576 C1577 1.387 . S
C1576 H1580 0.950 . S
C1576 C1585 1.390 . S
C1577 C1576 1.387 . S
C1577 C1579 1.387 . S
H1578 C1585 0.950 . S
C1579 C1577 1.387 . S
C1579 C1581 1.390 . S
C1579 H1583 0.950 . S
H1580 C1576 0.950 . S
C1581 C1579 1.390 . S
C1581 C1582 1.387 . S
C1581 H1584 0.950 . S
C1582 C1581 1.387 . S
C1582 C1585 1.387 . S
H1583 C1579 0.950 . S
H1584 C1581 0.950 . S
C1585 C1576 1.390 . S
C1585 H1578 0.950 . S
C1585 C1582 1.387 . S
C1586 C1587 1.387 . S
C1586 H1590 0.950 . S
C1586 C1595 1.390 . S
C1587 C1586 1.387 . S
C1587 C1589 1.387 . S
H1588 C1595 0.950 . S
C1589 C1587 1.387 . S
C1589 C1591 1.390 . S
C1589 H1593 0.950 . S
H1590 C1586 0.950 . S
C1591 C1589 1.390 . S
C1591 C1592 1.387 . S
C1591 H1594 0.950 . S
C1592 C1591 1.387 . S
C1592 C1595 1.387 . S
H1593 C1589 0.950 . S
H1594 C1591 0.950 . S
C1595 C1586 1.390 . S
C1595 H1588 0.950 . S
C1595 C1592 1.387 . S
C1596 C1597 1.387 1_554 S
C1596 H1600 0.953 . S
C1596 C1605 1.390 . S
C1597 C1596 1.387 1_556 S
C1597 C1599 1.387 . S
H1598 C1605 0.950 . S
C1599 C1597 1.387 . S
C1599 C1601 1.390 1_556 S
C1599 H1603 0.950 . S
H1600 C1596 0.953 . S
C1601 C1599 1.390 1_554 S
C1601 C1602 1.387 . S
C1601 H1604 0.950 . S
C1602 C1601 1.387 . S
C1602 C1605 1.387 . S
H1603 C1599 0.950 . S
H1604 C1601 0.950 . S
C1605 C1596 1.390 . S
C1605 H1598 0.950 . S
C1605 C1602 1.387 . S
C1606 C1607 1.387 . S
C1606 H1610 0.950 . S
C1606 C1615 1.390 . S
C1607 C1606 1.387 . S
C1607 C1609 1.387 . S
H1608 C1615 0.950 . S
C1609 C1607 1.387 . S
C1609 C1611 1.390 . S
C1609 H1613 0.950 . S
H1610 C1606 0.950 . S
C1611 C1609 1.390 . S
C1611 C1612 1.387 . S
C1611 H1614 0.950 . S
C1612 C1611 1.387 . S
C1612 C1615 1.387 . S
H1613 C1609 0.950 . S
H1614 C1611 0.950 . S
C1615 C1606 1.390 . S
C1615 H1608 0.950 . S
C1615 C1612 1.387 . S
C1616 C1617 1.387 . S
C1616 H1620 0.950 . S
C1616 C1625 1.390 . S
C1617 C1616 1.387 . S
C1617 C1619 1.387 . S
H1618 C1625 0.950 . S
C1619 C1617 1.387 . S
C1619 C1621 1.390 . S
C1619 H1623 0.950 . S
H1620 C1616 0.950 . S
C1621 C1619 1.390 . S
C1621 C1622 1.387 . S
C1621 H1624 0.950 . S
C1622 C1621 1.387 . S
C1622 C1625 1.387 . S
H1623 C1619 0.950 . S
H1624 C1621 0.950 . S
C1625 C1616 1.390 . S
C1625 H1618 0.950 . S
C1625 C1622 1.387 . S
C1626 C1627 1.394 . S
C1626 H1630 0.956 . S
C1626 C1635 1.377 1_455 S
C1627 C1626 1.394 . S
C1627 C1629 1.387 . S
H1628 C1635 0.950 . S
C1629 C1627 1.387 . S
C1629 C1631 1.390 1_455 S
C1629 H1633 0.950 . S
H1630 C1626 0.956 . S
C1631 C1629 1.390 1_655 S
C1631 C1632 1.387 . S
C1631 H1634 0.950 . S
C1632 C1631 1.387 . S
C1632 C1635 1.387 . S
H1633 C1629 0.950 . S
H1634 C1631 0.950 . S
C1635 C1626 1.377 1_655 S
C1635 H1628 0.950 . S
C1635 C1632 1.387 . S
C1636 C1637 1.387 1_455 S
C1636 H1640 0.950 . S
C1636 C1645 1.390 . S
C1637 C1636 1.387 1_655 S
C1637 C1639 1.387 . S
H1638 C1645 0.950 . S
C1639 C1637 1.387 . S
C1639 C1641 1.390 1_655 S
C1639 H1643 0.950 . S
H1640 C1636 0.950 . S
C1641 C1639 1.390 1_455 S
C1641 C1642 1.387 . S
C1641 H1644 0.950 1_455 S
C1642 C1641 1.387 . S
C1642 C1645 1.387 . S
H1643 C1639 0.950 . S
H1644 C1641 0.950 1_655 S
C1645 C1636 1.390 . S
C1645 H1638 0.950 . S
C1645 C1642 1.387 . S
C1646 C1647 1.387 . S
C1646 H1650 0.950 . S
C1646 C1655 1.390 . S
C1647 C1646 1.387 . S
C1647 C1649 1.387 . S
H1648 C1655 0.950 . S
C1649 C1647 1.387 . S
C1649 C1651 1.390 . S
C1649 H1653 0.950 . S
H1650 C1646 0.950 . S
C1651 C1649 1.390 . S
C1651 C1652 1.387 . S
C1651 H1654 0.950 . S
C1652 C1651 1.387 . S
C1652 C1655 1.387 . S
H1653 C1649 0.950 . S
H1654 C1651 0.950 . S
C1655 C1646 1.390 . S
C1655 H1648 0.950 . S
C1655 C1652 1.387 . S
C1656 C1657 1.387 . S
C1656 H1660 0.950 . S
C1656 C1665 1.390 . S
C1657 C1656 1.387 . S
C1657 C1659 1.387 . S
H1658 C1665 0.950 . S
C1659 C1657 1.387 . S
C1659 C1661 1.390 . S
C1659 H1663 0.950 . S
H1660 C1656 0.950 . S
C1661 C1659 1.390 . S
C1661 C1662 1.387 . S
C1661 H1664 0.950 . S
C1662 C1661 1.387 . S
C1662 C1665 1.387 . S
H1663 C1659 0.950 . S
H1664 C1661 0.950 . S
C1665 C1656 1.390 . S
C1665 H1658 0.950 . S
C1665 C1662 1.387 . S
C1666 C1667 1.387 . S
C1666 H1670 0.950 . S
C1666 C1675 1.390 . S
C1667 C1666 1.387 . S
C1667 C1669 1.387 . S
H1668 C1675 0.950 . S
C1669 C1667 1.387 . S
C1669 C1671 1.390 . S
C1669 H1673 0.950 . S
H1670 C1666 0.950 . S
C1671 C1669 1.390 . S
C1671 C1672 1.387 . S
C1671 H1674 0.950 . S
C1672 C1671 1.387 . S
C1672 C1675 1.387 . S
H1673 C1669 0.950 . S
H1674 C1671 0.950 . S
C1675 C1666 1.390 . S
C1675 H1668 0.950 . S
C1675 C1672 1.387 . S
C1676 C1677 1.387 . S
C1676 H1680 0.950 . S
C1676 C1685 1.390 . S
C1677 C1676 1.387 . S
C1677 C1679 1.387 . S
H1678 C1685 0.950 . S
C1679 C1677 1.387 . S
C1679 C1681 1.390 . S
C1679 H1683 0.950 . S
H1680 C1676 0.950 . S
C1681 C1679 1.390 . S
C1681 C1682 1.387 . S
C1681 H1684 0.950 . S
C1682 C1681 1.387 . S
C1682 C1685 1.387 . S
H1683 C1679 0.950 . S
H1684 C1681 0.950 . S
C1685 C1676 1.390 . S
C1685 H1678 0.950 . S
C1685 C1682 1.387 . S
C1686 C1687 1.387 . S
C1686 H1690 0.950 . S
C1686 C1695 1.390 . S
C1687 C1686 1.387 . S
C1687 C1689 1.387 . S
H1688 C1695 0.950 1_565 S
C1689 C1687 1.387 . S
C1689 C1691 1.390 . S
C1689 H1693 0.950 . S
H1690 C1686 0.950 . S
C1691 C1689 1.390 . S
C1691 C1692 1.387 1_554 S
C1691 H1694 0.950 1_554 S
C1692 C1691 1.387 1_556 S
C1692 C1695 1.387 1_556 S
H1693 C1689 0.950 . S
H1694 C1691 0.950 1_556 S
C1695 C1686 1.390 . S
C1695 H1688 0.950 1_545 S
C1695 C1692 1.387 1_554 S
C1696 C1697 1.387 . S
C1696 H1700 0.950 . S
C1696 C1705 1.390 . S
C1697 C1696 1.387 . S
C1697 C1699 1.387 . S
H1698 C1705 0.950 . S
C1699 C1697 1.387 . S
C1699 C1701 1.390 . S
C1699 H1703 0.950 . S
H1700 C1696 0.950 . S
C1701 C1699 1.390 . S
C1701 C1702 1.387 . S
C1701 H1704 0.950 . S
C1702 C1701 1.387 . S
C1702 C1705 1.387 . S
H1703 C1699 0.950 . S
H1704 C1701 0.950 . S
C1705 C1696 1.390 . S
C1705 H1698 0.950 . S
C1705 C1702 1.387 . S
C1706 C1707 1.387 1_556 S
C1706 H1710 0.950 1_556 S
C1706 C1715 1.390 . S
C1707 C1706 1.387 1_554 S
C1707 C1709 1.387 1_554 S
H1708 C1715 0.950 . S
C1709 C1707 1.387 1_556 S
C1709 C1711 1.390 . S
C1709 H1713 0.950 . S
H1710 C1706 0.950 1_554 S
C1711 C1709 1.390 . S
C1711 C1712 1.387 . S
C1711 H1714 0.950 . S
C1712 C1711 1.387 . S
C1712 C1715 1.387 . S
H1713 C1709 0.950 . S
H1714 C1711 0.950 . S
C1715 C1706 1.390 . S
C1715 H1708 0.950 . S
C1715 C1712 1.387 . S
C1716 C1717 1.387 . S
C1716 H1720 0.950 . S
C1716 C1725 1.390 . S
C1717 C1716 1.387 . S
C1717 C1719 1.387 . S
H1718 C1725 0.950 . S
C1719 C1717 1.387 . S
C1719 C1721 1.390 . S
C1719 H1723 0.950 . S
H1720 C1716 0.950 . S
C1721 C1719 1.390 . S
C1721 C1722 1.387 . S
C1721 H1724 0.950 . S
C1722 C1721 1.387 . S
C1722 C1725 1.387 . S
H1723 C1719 0.950 . S
H1724 C1721 0.950 . S
C1725 C1716 1.390 . S
C1725 H1718 0.950 . S
C1725 C1722 1.387 . S
C1726 C1727 1.387 . S
C1726 H1730 0.950 . S
C1726 C1735 1.390 . S
C1727 C1726 1.387 . S
C1727 C1729 1.387 . S
H1728 C1735 0.950 . S
C1729 C1727 1.387 . S
C1729 C1731 1.390 . S
C1729 H1733 0.950 . S
H1730 C1726 0.950 . S
C1731 C1729 1.390 . S
C1731 C1732 1.387 . S
C1731 H1734 0.950 . S
C1732 C1731 1.387 . S
C1732 C1735 1.387 . S
H1733 C1729 0.950 . S
H1734 C1731 0.950 . S
C1735 C1726 1.390 . S
C1735 H1728 0.950 . S
C1735 C1732 1.387 . S
C1736 C1737 1.387 . S
C1736 H1740 0.950 . S
C1736 C1745 1.390 . S
C1737 C1736 1.387 . S
C1737 C1739 1.387 . S
H1738 C1745 0.950 . S
C1739 C1737 1.387 . S
C1739 C1741 1.390 . S
C1739 H1743 0.950 . S
H1740 C1736 0.950 . S
C1741 C1739 1.390 . S
C1741 C1742 1.387 . S
C1741 H1744 0.950 . S
C1742 C1741 1.387 . S
C1742 C1745 1.387 . S
H1743 C1739 0.950 . S
H1744 C1741 0.950 . S
C1745 C1736 1.390 . S
C1745 H1738 0.950 . S
C1745 C1742 1.387 . S
C1746 C1747 1.387 1_545 S
C1746 H1750 0.933 1_545 S
C1746 C1755 1.390 . S
C1747 C1746 1.387 1_565 S
C1747 C1749 1.387 1_565 S
H1748 C1755 0.950 . S
C1749 C1747 1.387 1_545 S
C1749 C1751 1.390 . S
C1749 H1753 0.950 . S
H1750 C1746 0.933 1_565 S
C1751 C1749 1.390 . S
C1751 C1752 1.387 . S
C1751 H1754 0.950 . S
C1752 C1751 1.387 . S
C1752 C1755 1.387 . S
H1753 C1749 0.950 . S
H1754 C1751 0.950 . S
C1755 C1746 1.390 . S
C1755 H1748 0.950 . S
C1755 C1752 1.387 . S
C1756 C1757 1.387 . S
C1756 H1760 0.950 . S
C1756 C1765 1.390 . S
C1757 C1756 1.387 . S
C1757 C1759 1.387 . S
H1758 C1765 0.950 . S
C1759 C1757 1.387 . S
C1759 C1761 1.390 . S
C1759 H1763 0.950 . S
H1760 C1756 0.950 . S
C1761 C1759 1.390 . S
C1761 C1762 1.387 . S
C1761 H1764 0.950 . S
C1762 C1761 1.387 . S
C1762 C1765 1.387 . S
H1763 C1759 0.950 . S
H1764 C1761 0.950 . S
C1765 C1756 1.390 . S
C1765 H1758 0.950 . S
C1765 C1762 1.387 . S
C1766 C1767 1.387 1_565 S
C1766 H1770 0.950 . S
C1766 C1775 1.390 . S
C1767 C1766 1.387 1_545 S
C1767 C1769 1.387 1_545 S
H1768 C1775 0.950 . S
C1769 C1767 1.387 1_565 S
C1769 C1771 1.390 . S
C1769 H1773 0.950 1_565 S
H1770 C1766 0.950 . S
C1771 C1769 1.390 . S
C1771 C1772 1.387 . S
C1771 H1774 0.950 . S
C1772 C1771 1.387 . S
C1772 C1775 1.387 . S
H1773 C1769 0.950 1_545 S
H1774 C1771 0.950 . S
C1775 C1766 1.390 . S
C1775 H1768 0.950 . S
C1775 C1772 1.387 . S
C1776 C1777 1.387 . S
C1776 H1780 0.950 . S
C1776 C1785 1.390 . S
C1777 C1776 1.387 . S
C1777 C1779 1.387 . S
H1778 C1785 0.950 . S
C1779 C1777 1.387 . S
C1779 C1781 1.390 . S
C1779 H1783 0.950 . S
H1780 C1776 0.950 . S
C1781 C1779 1.390 . S
C1781 C1782 1.387 . S
C1781 H1784 0.950 . S
C1782 C1781 1.387 . S
C1782 C1785 1.387 . S
H1783 C1779 0.950 . S
H1784 C1781 0.950 . S
C1785 C1776 1.390 . S
C1785 H1778 0.950 . S
C1785 C1782 1.387 . S
C1786 C1787 1.387 . S
C1786 H1790 0.950 . S
C1786 C1795 1.390 . S
C1787 C1786 1.387 . S
C1787 C1789 1.387 1_655 S
H1788 C1795 0.950 . S
C1789 C1787 1.387 1_455 S
C1789 C1791 1.390 1_455 S
C1789 H1793 0.950 . S
H1790 C1786 0.950 . S
C1791 C1789 1.390 1_655 S
C1791 C1792 1.387 . S
C1791 H1794 0.950 1_655 S
C1792 C1791 1.387 . S
C1792 C1795 1.387 . S
H1793 C1789 0.950 . S
H1794 C1791 0.950 1_455 S
C1795 C1786 1.390 . S
C1795 H1788 0.950 . S
C1795 C1792 1.387 . S
C1796 C1797 1.387 . S
C1796 H1800 0.950 . S
C1796 C1805 1.390 . S
C1797 C1796 1.387 . S
C1797 C1799 1.387 . S
H1798 C1805 0.950 . S
C1799 C1797 1.387 . S
C1799 C1801 1.390 . S
C1799 H1803 0.950 . S
H1800 C1796 0.950 . S
C1801 C1799 1.390 . S
C1801 C1802 1.387 . S
C1801 H1804 0.950 . S
C1802 C1801 1.387 . S
C1802 C1805 1.387 . S
H1803 C1799 0.950 . S
H1804 C1801 0.950 . S
C1805 C1796 1.390 . S
C1805 H1798 0.950 . S
C1805 C1802 1.387 . S
C1806 C1807 1.387 . S
C1806 H1810 0.950 . S
C1806 C1815 1.390 . S
C1807 C1806 1.387 . S
C1807 C1809 1.387 . S
H1808 C1815 0.950 . S
C1809 C1807 1.387 . S
C1809 C1811 1.390 . S
C1809 H1813 0.950 . S
H1810 C1806 0.950 . S
C1811 C1809 1.390 . S
C1811 C1812 1.387 . S
C1811 H1814 0.950 . S
C1812 C1811 1.387 . S
C1812 C1815 1.387 . S
H1813 C1809 0.950 . S
H1814 C1811 0.950 . S
C1815 C1806 1.390 . S
C1815 H1808 0.950 . S
C1815 C1812 1.387 . S
C1816 C1817 1.387 . S
C1816 H1820 0.950 . S
C1816 C1825 1.390 . S
C1817 C1816 1.387 . S
C1817 C1819 1.387 . S
H1818 C1825 0.950 . S
C1819 C1817 1.387 . S
C1819 C1821 1.390 . S
C1819 H1823 0.950 . S
H1820 C1816 0.950 . S
C1821 C1819 1.390 . S
C1821 C1822 1.387 . S
C1821 H1824 0.950 . S
C1822 C1821 1.387 . S
C1822 C1825 1.387 . S
H1823 C1819 0.950 . S
H1824 C1821 0.950 . S
C1825 C1816 1.390 . S
C1825 H1818 0.950 . S
C1825 C1822 1.387 . S
C1826 C1827 1.387 . S
C1826 H1830 0.950 . S
C1826 C1835 1.390 . S
C1827 C1826 1.387 . S
C1827 C1829 1.387 . S
H1828 C1835 0.950 . S
C1829 C1827 1.387 . S
C1829 C1831 1.390 . S
C1829 H1833 0.950 . S
H1830 C1826 0.950 . S
C1831 C1829 1.390 . S
C1831 C1832 1.387 . S
C1831 H1834 0.950 . S
C1832 C1831 1.387 . S
C1832 C1835 1.387 . S
H1833 C1829 0.950 . S
H1834 C1831 0.950 . S
C1835 C1826 1.390 . S
C1835 H1828 0.950 . S
C1835 C1832 1.387 . S
C1836 C1837 1.387 1_455 S
C1836 H1840 0.950 . S
C1836 C1845 1.390 . S
C1837 C1836 1.387 1_655 S
C1837 C1839 1.387 1_655 S
H1838 C1845 0.950 . S
C1839 C1837 1.387 1_455 S
C1839 C1841 1.390 . S
C1839 H1843 0.950 1_455 S
H1840 C1836 0.950 . S
C1841 C1839 1.390 . S
C1841 C1842 1.387 . S
C1841 H1844 0.950 . S
C1842 C1841 1.387 . S
C1842 C1845 1.387 . S
H1843 C1839 0.950 1_655 S
H1844 C1841 0.950 . S
C1845 C1836 1.390 . S
C1845 H1838 0.950 . S
C1845 C1842 1.387 . S
C1846 C1847 1.387 . S
C1846 H1850 0.950 . S
C1846 C1855 1.390 . S
C1847 C1846 1.387 . S
C1847 C1849 1.387 . S
H1848 C1855 0.950 . S
C1849 C1847 1.387 . S
C1849 C1851 1.390 . S
C1849 H1853 0.950 . S
H1850 C1846 0.950 . S
C1851 C1849 1.390 . S
C1851 C1852 1.387 . S
C1851 H1854 0.950 . S
C1852 C1851 1.387 . S
C1852 C1855 1.387 . S
H1853 C1849 0.950 . S
H1854 C1851 0.950 . S
C1855 C1846 1.390 . S
C1855 H1848 0.950 . S
C1855 C1852 1.387 . S
C1856 C1857 1.387 . S
C1856 H1860 0.950 . S
C1856 C1865 1.390 . S
C1857 C1856 1.387 . S
C1857 C1859 1.387 . S
H1858 C1865 0.950 . S
C1859 C1857 1.387 . S
C1859 C1861 1.390 . S
C1859 H1863 0.950 . S
H1860 C1856 0.950 . S
C1861 C1859 1.390 . S
C1861 C1862 1.387 . S
C1861 H1864 0.950 . S
C1862 C1861 1.387 . S
C1862 C1865 1.387 . S
H1863 C1859 0.950 . S
H1864 C1861 0.950 . S
C1865 C1856 1.390 . S
C1865 H1858 0.950 . S
C1865 C1862 1.387 . S
C1866 C1867 1.387 . S
C1866 H1870 0.950 . S
C1866 C1875 1.390 . S
C1867 C1866 1.387 . S
C1867 C1869 1.387 . S
H1868 C1875 0.950 . S
C1869 C1867 1.387 . S
C1869 C1871 1.390 . S
C1869 H1873 0.950 . S
H1870 C1866 0.950 . S
C1871 C1869 1.390 . S
C1871 C1872 1.387 . S
C1871 H1874 0.950 . S
C1872 C1871 1.387 . S
C1872 C1875 1.387 . S
H1873 C1869 0.950 . S
H1874 C1871 0.950 . S
C1875 C1866 1.390 . S
C1875 H1868 0.950 . S
C1875 C1872 1.387 . S
C1876 C1877 1.387 . S
C1876 H1880 0.950 . S
C1876 C1885 1.390 . S
C1877 C1876 1.387 . S
C1877 C1879 1.387 . S
H1878 C1885 0.950 . S
C1879 C1877 1.387 . S
C1879 C1881 1.390 . S
C1879 H1883 0.950 . S
H1880 C1876 0.950 . S
C1881 C1879 1.390 . S
C1881 C1882 1.387 . S
C1881 H1884 0.950 . S
C1882 C1881 1.387 . S
C1882 C1885 1.387 . S
H1883 C1879 0.950 . S
H1884 C1881 0.950 . S
C1885 C1876 1.390 . S
C1885 H1878 0.950 . S
C1885 C1882 1.387 . S
C1886 C1887 1.387 . S
C1886 H1890 0.950 . S
C1886 C1895 1.390 . S
C1887 C1886 1.387 . S
C1887 C1889 1.387 . S
H1888 C1895 0.950 . S
C1889 C1887 1.387 . S
C1889 C1891 1.390 . S
C1889 H1893 0.950 . S
H1890 C1886 0.950 . S
C1891 C1889 1.390 . S
C1891 C1892 1.387 1_655 S
C1891 H1894 0.950 1_655 S
C1892 C1891 1.387 1_455 S
C1892 C1895 1.387 1_455 S
H1893 C1889 0.950 . S
H1894 C1891 0.950 1_455 S
C1895 C1886 1.390 . S
C1895 H1888 0.950 . S
C1895 C1892 1.387 1_655 S
C1417 C536 1.342 . S
C1422 C5 1.342 . S
C1427 C64 1.343 1_455 S
C1432 C595 1.343 . S
C1437 C123 1.344 . S
C1442 C654 1.344 1_556 S
C1447 C182 1.342 . S
C1452 C477 1.342 . S
C1457 C241 1.343 . S
C1462 C890 1.344 . S
C1467 C713 1.343 . S
C1472 C300 1.342 1_655 S
C1477 C359 1.342 . S
C1482 C772 1.342 1_554 S
C1487 C831 1.343 . S
C1492 C418 1.343 . S
C1497 C949 1.342 . S
C1502 C1067 1.342 . S
C1507 C1303 1.342 1_545 S
C1512 C1008 1.342 . S
C1517 C1126 1.342 . S
C1522 C1362 1.343 1_565 S
C1527 C1244 1.342 . S
C1532 C1185 1.342 . S
C1537 C1183 2.034 . S
C1542 C3 2.032 . S
C1547 C62 2.033 . S
C1552 C1006 2.031 . S
C1557 C121 2.034 . S
C1562 C1065 2.032 . S
C1567 C180 2.032 . S
C1572 C1124 2.031 . S
C1577 C239 2.034 . S
C1582 C1360 2.032 . S
C1587 C1242 2.033 . S
C1592 C298 2.031 . S
C1597 C1301 2.034 . S
C1602 C357 2.032 . S
C1607 C947 2.031 . S
C1612 C416 2.032 . S
C1617 C888 2.031 . S
C1622 C475 2.033 . S
C1627 C534 2.032 . S
C1632 C711 2.034 . S
C1637 C770 2.032 . S
C1642 C593 2.032 . S
C1647 C829 2.032 . S
C1652 C652 2.034 . S
C1657 C52 1.495 . S
C1662 C977 1.455 . S
C1667 C1390 1.457 1_565 S
C1672 C111 1.493 . S
C1677 C1272 1.458 . S
C1682 C170 1.493 . S
C1687 C229 1.495 . S
C1692 C1331 1.456 1_545 S
C1697 C288 1.493 . S
C1702 C1036 1.458 . S
C1707 C1095 1.454 . S
C1712 C347 1.494 . S
C1717 C1154 1.457 . S
C1722 C406 1.493 . S
C1727 C1213 1.454 . S
C1732 C465 1.494 . S
C1737 C33 1.458 . S
C1742 C524 1.494 . S
C1747 C92 1.458 1_455 S
C1752 C583 1.493 . S
C1757 C151 1.458 . S
C1762 C642 1.493 . S
C1767 C210 1.455 . S
C1772 C701 1.495 . S
C1777 C269 1.455 . S
C1782 C760 1.495 . S
C1787 C328 1.455 1_655 S
C1792 C819 1.493 . S
C1797 C878 1.494 . S
C1802 C387 1.458 . S
C1807 C446 1.455 . S
C1812 C937 1.495 . S
C1817 C505 1.456 . S
C1822 C996 1.492 . S
C1827 C1055 1.492 . S
C1832 C741 1.456 . S
C1837 C800 1.458 1_554 S
C1842 C1114 1.494 . S
C1847 C1173 1.493 . S
C1852 C859 1.458 . S
C1857 C1232 1.494 . S
C1862 C918 1.454 . S
C1867 C1291 1.493 . S
C1872 C623 1.457 . S
C1877 C682 1.454 1_556 S
C1882 C1350 1.495 . S
C1887 C1409 1.495 . S
C1892 C564 1.455 . S
