# Generated by pormake.
# Topology uon, (4)-cn, num edge types: 1
# Building blocks:
#     Node 0, Type 0, BuildingBlock: KOZSID_clean_sbu_0, # of connection points: 4
#     Node 1, Type 0, BuildingBlock: KOZSID_clean_sbu_0, # of connection points: 4
#     Node 2, Type 0, BuildingBlock: KOZSID_clean_sbu_0, # of connection points: 4
#     Node 3, Type 0, BuildingBlock: KOZSID_clean_sbu_0, # of connection points: 4
#     Node 4, Type 0, BuildingBlock: KOZSID_clean_sbu_0, # of connection points: 4
#     Node 5, Type 0, BuildingBlock: KOZSID_clean_sbu_0, # of connection points: 4
#     Edge 6, Type (0, 0), BuildingBlock: AJUNOK_clean_linker_0, # of connection points: 2
#     Edge 7, Type (0, 0), BuildingBlock: AJUNOK_clean_linker_0, # of connection points: 2
#     Edge 8, Type (0, 0), BuildingBlock: AJUNOK_clean_linker_0, # of connection points: 2
#     Edge 9, Type (0, 0), BuildingBlock: AJUNOK_clean_linker_0, # of connection points: 2
#     Edge 10, Type (0, 0), BuildingBlock: AJUNOK_clean_linker_0, # of connection points: 2
#     Edge 11, Type (0, 0), BuildingBlock: AJUNOK_clean_linker_0, # of connection points: 2
#     Edge 12, Type (0, 0), BuildingBlock: AJUNOK_clean_linker_0, # of connection points: 2
#     Edge 13, Type (0, 0), BuildingBlock: AJUNOK_clean_linker_0, # of connection points: 2
#     Edge 14, Type (0, 0), BuildingBlock: AJUNOK_clean_linker_0, # of connection points: 2
#     Edge 15, Type (0, 0), BuildingBlock: AJUNOK_clean_linker_0, # of connection points: 2
#     Edge 16, Type (0, 0), BuildingBlock: AJUNOK_clean_linker_0, # of connection points: 2
#     Edge 17, Type (0, 0), BuildingBlock: AJUNOK_clean_linker_0, # of connection points: 2
# Relax obj value: 0.068
# Max RMSD: 0.128
# Mean RMSD: 0.128
data_MOF--net-uon--node1-KOZSID_clean_sbu_0--edge1-AJUNOK_clean_linker_0
_symmetry_space_group_name_H-M    P1
_symmetry_Int_Tables_number       1
_symmetry_cell_setting            triclinic
loop_
_symmetry_equiv_pos_as_xyz
'x, y, z'
_cell_length_a     29.793637
_cell_length_b     29.794459
_cell_length_c     26.272534
_cell_angle_alpha  89.915429
_cell_angle_beta   90.241862
_cell_angle_gamma 119.97276
loop_
_atom_site_label
_atom_site_type_symbol
_atom_site_fract_x
_atom_site_fract_y
_atom_site_fract_z
_atom_type_partial_charge
C0 C 0.10408 0.34443 0.03556 0.0
C1 C 0.05446 0.32779 0.01707 0.0
C2 C 0.06004 0.35181 0.9715 0.0
C3 C 0.11244 0.38184 0.96486 0.0
N4 N 0.1409 0.37791 1.00293 0.0
Co5 Co 0.21839 0.41782 0.00979 0.0
N6 N 0.22572 0.46011 0.94743 0.0
C7 C 0.18684 0.45592 0.91734 0.0
C8 C 0.20317 0.48735 0.87548 0.0
C9 C 0.25577 0.51321 0.87868 0.0
C10 C 0.26864 0.49642 0.92296 0.0
N11 N 0.29593 0.45726 0.01614 0.0
C12 C 0.33249 0.49446 0.98565 0.0
C13 C 0.38213 0.51067 1.00366 0.0
C14 C 0.37687 0.48193 0.04611 0.0
C15 C 0.32451 0.4501 0.05197 0.0
N16 N 0.21042 0.37608 0.07289 0.0
C17 C 0.24901 0.37872 0.10243 0.0
C18 C 0.23172 0.34825 0.1451 0.0
C19 C 0.17896 0.32564 0.14335 0.0
C20 C 0.16709 0.34371 0.09957 0.0
N21 N 0.22466 0.36579 0.96651 0.0
C22 C 0.25437 0.31045 0.89999 0.0
C23 C 0.26787 0.31633 0.95136 0.0
C24 C 0.25253 0.34341 0.98355 0.0
C25 C 0.22159 0.32863 0.88336 0.0
C26 C 0.20697 0.35568 0.91713 0.0
N27 N 0.21359 0.47015 0.0532 0.0
C28 C 0.23654 0.51945 0.13156 0.0
C29 C 0.20695 0.54232 0.11879 0.0
C30 C 0.18045 0.52806 0.0719 0.0
C31 C 0.18368 0.49157 0.04024 0.0
C32 C 0.24019 0.48507 0.09835 0.0
H33 H 0.16204 0.48135 1.00537 0.0
H34 H 0.26493 0.47101 0.11037 0.0
H35 H 0.26524 0.34672 0.02175 0.0
H36 H 0.18254 0.36921 0.90208 0.0
C37 C 0.13559 0.41879 0.92686 0.0
C38 C 0.11421 0.33024 0.08578 0.0
C39 C 0.32216 0.51498 0.939 0.0
C40 C 0.30106 0.41335 0.0908 0.0
H41 H 0.01786 0.30253 0.03534 0.0
H42 H 0.02952 0.34979 0.9474 0.0
H43 H 0.17967 0.48973 0.84522 0.0
H44 H 0.28153 0.54031 0.8506 0.0
H45 H 0.41845 0.53989 0.98748 0.0
H46 H 0.40762 0.48383 0.06975 0.0
H47 H 0.25478 0.34441 0.17488 0.0
H48 H 0.15222 0.29973 0.17164 0.0
H49 H 0.29119 0.30085 0.96667 0.0
H50 H 0.20885 0.32374 0.84406 0.0
H51 H 0.25729 0.52795 0.16741 0.0
H52 H 0.158 0.54538 0.05902 0.0
C53 C 0.75722 0.10065 0.36679 0.0
C54 C 0.72393 0.05139 0.34803 0.0
C55 C 0.7053 0.05786 0.30273 0.0
C56 C 0.7282 0.11047 0.29646 0.0
N57 N 0.76097 0.13796 0.33455 0.0
Co58 Co 0.80138 0.21524 0.34105 0.0
N59 N 0.7637 0.2243 0.28197 0.0
C60 C 0.72542 0.18606 0.25418 0.0
C61 C 0.70502 0.20345 0.21752 0.0
C62 C 0.73229 0.25608 0.22167 0.0
C63 C 0.76852 0.26783 0.26032 0.0
N64 N 0.84326 0.29267 0.34612 0.0
C65 C 0.84369 0.32999 0.31576 0.0
C66 C 0.88318 0.37893 0.32952 0.0
C67 C 0.90859 0.37236 0.36972 0.0
C68 C 0.88363 0.31994 0.37808 0.0
N69 N 0.83636 0.20548 0.40224 0.0
C70 C 0.87496 0.24321 0.43016 0.0
C71 C 0.88761 0.22512 0.47276 0.0
C72 C 0.85417 0.17278 0.47267 0.0
C73 C 0.82319 0.16202 0.42977 0.0
N74 N 0.85601 0.21817 0.29424 0.0
C75 C 0.93913 0.24358 0.22636 0.0
C76 C 0.94708 0.24855 0.2788 0.0
C77 C 0.90549 0.23504 0.31165 0.0
C78 C 0.88818 0.22191 0.20848 0.0
C79 C 0.84744 0.20918 0.24282 0.0
N80 N 0.74828 0.21354 0.38785 0.0
C81 C 0.72818 0.23967 0.46772 0.0
C82 C 0.67487 0.20981 0.4586 0.0
C83 C 0.65913 0.18072 0.41336 0.0
C84 C 0.69619 0.18257 0.37909 0.0
C85 C 0.76359 0.24235 0.43161 0.0
H86 H 0.68216 0.15873 0.34576 0.0
H87 H 0.80344 0.26769 0.44025 0.0
H88 H 0.91527 0.23991 0.35089 0.0
H89 H 0.80965 0.19336 0.22652 0.0
C90 C 0.71234 0.13456 0.26104 0.0
C91 C 0.78108 0.11015 0.4171 0.0
C92 C 0.80896 0.32073 0.27234 0.0
C93 C 0.89645 0.2953 0.41618 0.0
H94 H 0.71254 0.01464 0.36621 0.0
H95 H 0.67589 0.02782 0.27896 0.0
H96 H 0.67484 0.18066 0.19017 0.0
H97 H 0.72705 0.28279 0.19786 0.0
H98 H 0.89317 0.41555 0.31181 0.0
H99 H 0.9417 0.40224 0.39009 0.0
H100 H 0.91658 0.24747 0.50127 0.0
H101 H 0.85211 0.14564 0.50128 0.0
H102 H 0.98566 0.26366 0.29456 0.0
H103 H 0.87993 0.21665 0.16805 0.0
H104 H 0.74319 0.26089 0.5029 0.0
H105 H 0.61843 0.15678 0.40413 0.0
C106 C 0.66001 0.75945 0.7036 0.0
C107 C 0.67586 0.72612 0.68478 0.0
C108 C 0.64975 0.70665 0.64015 0.0
C109 C 0.61949 0.729 0.63427 0.0
N110 N 0.62547 0.76245 0.67189 0.0
Co111 Co 0.58671 0.80102 0.6796 0.0
N112 N 0.54071 0.76405 0.61988 0.0
C113 C 0.54106 0.72626 0.59174 0.0
C114 C 0.50493 0.70777 0.55343 0.0
C115 C 0.48061 0.73612 0.55659 0.0
C116 C 0.50391 0.77089 0.59647 0.0
N117 N 0.54875 0.84059 0.6863 0.0
C118 C 0.51324 0.8424 0.65479 0.0
C119 C 0.50084 0.87922 0.67075 0.0
C120 C 0.52988 0.9019 0.71334 0.0
C121 C 0.55851 0.87799 0.72092 0.0
N122 N 0.63169 0.83638 0.74057 0.0
C123 C 0.6308 0.87332 0.76972 0.0
C124 C 0.66254 0.88674 0.81164 0.0
C125 C 0.68397 0.85552 0.80993 0.0
C126 C 0.66401 0.82482 0.7669 0.0
N127 N 0.63667 0.85707 0.63317 0.0
C128 C 0.68994 0.93944 0.56332 0.0
C129 C 0.68831 0.94896 0.61502 0.0
C130 C 0.66214 0.9078 0.64888 0.0
C131 C 0.66823 0.88777 0.54777 0.0
C132 C 0.64225 0.84743 0.58315 0.0
N133 N 0.53667 0.74589 0.72618 0.0
C134 C 0.49302 0.7223 0.80758 0.0
C135 C 0.47214 0.66938 0.79786 0.0
C136 C 0.48369 0.65565 0.75056 0.0
C137 C 0.51648 0.69418 0.71601 0.0
C138 C 0.52352 0.75916 0.7713 0.0
H139 H 0.52508 0.68136 0.68132 0.0
H140 H 0.5365 0.79839 0.78102 0.0
H141 H 0.66205 0.9185 0.68733 0.0
H142 H 0.62575 0.80881 0.56887 0.0
C143 C 0.57927 0.71288 0.59902 0.0
C144 C 0.6753 0.78385 0.75366 0.0
C145 C 0.49251 0.81213 0.60794 0.0
C146 C 0.59666 0.89154 0.75852 0.0
H147 H 0.70175 0.71509 0.70255 0.0
H148 H 0.65022 0.67713 0.61656 0.0
H149 H 0.49847 0.67863 0.52527 0.0
H150 H 0.45047 0.73289 0.53113 0.0
H151 H 0.47465 0.88967 0.65266 0.0
H152 H 0.53121 0.93332 0.7352 0.0
H153 H 0.66787 0.91443 0.84102 0.0
H154 H 0.71021 0.85438 0.83784 0.0
H155 H 0.70652 0.9883 0.62936 0.0
H156 H 0.6696 0.87841 0.50819 0.0
H157 H 0.48612 0.73581 0.84333 0.0
H158 H 0.46715 0.61548 0.73956 0.0
C159 C 0.90539 0.65972 0.03645 0.0
C160 C 0.95507 0.67818 0.01778 0.0
C161 C 0.94983 0.65392 0.97231 0.0
C162 C 0.89749 0.62223 0.96575 0.0
N163 N 0.86893 0.62548 1.00383 0.0
Co164 Co 0.79149 0.58501 0.00977 0.0
N165 N 0.78468 0.54133 0.94906 0.0
C166 C 0.82402 0.54248 0.92258 0.0
C167 C 0.80803 0.50683 0.88399 0.0
C168 C 0.75523 0.48175 0.8855 0.0
C169 C 0.74197 0.50417 0.92466 0.0
N170 N 0.71376 0.54686 0.01354 0.0
C171 C 0.67762 0.51269 0.98038 0.0
C172 C 0.62804 0.50137 0.99385 0.0
C173 C 0.63292 0.52904 0.03695 0.0
C174 C 0.68504 0.55617 0.04704 0.0
N175 N 0.7989 0.62629 0.07276 0.0
C176 C 0.75999 0.62221 0.10224 0.0
C177 C 0.77668 0.65092 0.14614 0.0
C178 C 0.82946 0.67357 0.14538 0.0
C179 C 0.84188 0.65744 0.10082 0.0
N180 N 0.78633 0.6368 0.96512 0.0
C181 C 0.76017 0.69475 0.89769 0.0
C182 C 0.74952 0.69217 0.94968 0.0
C183 C 0.76323 0.6638 0.98241 0.0
C184 C 0.78727 0.67049 0.88062 0.0
C185 C 0.80034 0.64243 0.91476 0.0
N186 N 0.7958 0.53322 0.05473 0.0
C187 C 0.76486 0.47671 0.1283 0.0
C188 C 0.80758 0.46919 0.12727 0.0
C189 C 0.843 0.49237 0.08743 0.0
C190 C 0.83622 0.52361 0.05162 0.0
C191 C 0.75995 0.50873 0.09241 0.0
H192 H 0.86458 0.54024 0.02215 0.0
H193 H 0.72701 0.51355 0.09642 0.0
H194 H 0.7533 0.66327 0.02136 0.0
H195 H 0.82041 0.6243 0.89917 0.0
C196 C 0.87496 0.58193 0.93051 0.0
C197 C 0.89493 0.67166 0.08737 0.0
C198 C 0.68857 0.49108 0.93509 0.0
C199 C 0.70828 0.59027 0.08785 0.0
H200 H 0.99142 0.70437 0.0363 0.0
H201 H 0.98064 0.65626 0.94874 0.0
H202 H 0.83188 0.50122 0.85667 0.0
H203 H 0.72948 0.4515 0.85958 0.0
H204 H 0.59205 0.47634 0.97417 0.0
H205 H 0.60219 0.52992 0.05795 0.0
H206 H 0.75322 0.65397 0.17578 0.0
H207 H 0.85585 0.69839 0.17464 0.0
H208 H 0.72978 0.71134 0.96507 0.0
H209 H 0.7966 0.67131 0.84072 0.0
H210 H 0.73487 0.45779 0.15666 0.0
H211 H 0.87634 0.48716 0.08425 0.0
C212 C 0.24477 0.90396 0.37203 0.0
C213 C 0.27306 0.95476 0.35503 0.0
C214 C 0.29311 0.95311 0.30897 0.0
C215 C 0.27597 0.90167 0.30049 0.0
N216 N 0.24537 0.87021 0.33781 0.0
Co217 Co 0.21352 0.79293 0.34108 0.0
N218 N 0.25164 0.79178 0.27872 0.0
C219 C 0.28693 0.83352 0.25237 0.0
C220 C 0.30518 0.82129 0.20999 0.0
C221 C 0.2798 0.76855 0.20883 0.0
C222 C 0.24756 0.75138 0.25109 0.0
N223 N 0.1792 0.71529 0.34243 0.0
C224 C 0.18086 0.6818 0.30835 0.0
C225 C 0.14865 0.63066 0.32286 0.0
C226 C 0.1246 0.63181 0.36656 0.0
C227 C 0.14353 0.68334 0.37648 0.0
N228 N 0.17811 0.79477 0.40525 0.0
C229 C 0.14555 0.75365 0.43395 0.0
C230 C 0.13205 0.76706 0.47891 0.0
C231 C 0.15878 0.82001 0.47966 0.0
C232 C 0.18695 0.8358 0.4349 0.0
N233 N 0.15425 0.78468 0.29796 0.0
C234 C 0.06876 0.75646 0.23164 0.0
C235 C 0.06149 0.74108 0.2826 0.0
C236 C 0.10418 0.75581 0.31482 0.0
C237 C 0.11973 0.78884 0.21525 0.0
C238 C 0.16149 0.80279 0.24886 0.0
N239 N 0.27204 0.80029 0.3847 0.0
C240 C 0.30122 0.77068 0.45689 0.0
C241 C 0.35011 0.81522 0.45623 0.0
C242 C 0.35978 0.85156 0.41767 0.0
C243 C 0.32071 0.84312 0.38221 0.0
C244 C 0.26334 0.76408 0.4214 0.0
H245 H 0.33037 0.87219 0.35366 0.0
H246 H 0.22694 0.72952 0.4252 0.0
H247 H 0.09547 0.74206 0.35292 0.0
H248 H 0.19936 0.82706 0.23379 0.0
C249 C 0.29534 0.88287 0.26322 0.0
C250 C 0.22296 0.89015 0.42303 0.0
C251 C 0.21156 0.6965 0.2615 0.0
C252 C 0.1302 0.70312 0.4184 0.0
H253 H 0.28074 0.98966 0.37492 0.0
H254 H 0.31991 0.9858 0.28611 0.0
H255 H 0.33138 0.84753 0.18156 0.0
H256 H 0.2832 0.74564 0.17883 0.0
H257 H 0.14273 0.59603 0.3036 0.0
H258 H 0.09654 0.59896 0.38842 0.0
H259 H 0.10707 0.74142 0.50836 0.0
H260 H 0.15861 0.84435 0.51012 0.0
H261 H 0.02282 0.71699 0.29756 0.0
H262 H 0.12767 0.80186 0.17612 0.0
H263 H 0.29188 0.74064 0.48496 0.0
H264 H 0.3968 0.88699 0.41542 0.0
C265 C 0.34556 0.24173 0.70499 0.0
C266 C 0.32377 0.27045 0.68704 0.0
C267 C 0.34526 0.28919 0.64059 0.0
C268 C 0.37871 0.27089 0.63287 0.0
N269 N 0.37936 0.2409 0.6711 0.0
Co270 Co 0.42327 0.20736 0.67536 0.0
N271 N 0.46242 0.24369 0.61227 0.0
C272 C 0.45582 0.27808 0.58423 0.0
C273 C 0.48592 0.29481 0.54152 0.0
C274 C 0.51359 0.26975 0.54221 0.0
C275 C 0.49926 0.23942 0.58595 0.0
N276 N 0.46503 0.17134 0.67774 0.0
C277 C 0.50142 0.17336 0.6452 0.0
C278 C 0.51893 0.14009 0.66039 0.0
C279 C 0.49197 0.11545 0.7032 0.0
C280 C 0.45972 0.13502 0.71194 0.0
N281 N 0.38625 0.17393 0.74028 0.0
C282 C 0.39394 0.14112 0.76971 0.0
C283 C 0.36741 0.12904 0.81485 0.0
C284 C 0.3423 0.15689 0.81485 0.0
C285 C 0.35487 0.18425 0.76948 0.0
N286 N 0.37087 0.14777 0.63361 0.0
C287 C 0.31347 0.06103 0.56927 0.0
C288 C 0.32009 0.05474 0.62089 0.0
C289 C 0.34816 0.09808 0.65211 0.0
C290 C 0.33236 0.11156 0.55135 0.0
C291 C 0.36046 0.15403 0.58395 0.0
N292 N 0.47573 0.26587 0.71765 0.0
C293 C 0.53526 0.29443 0.78911 0.0
C294 C 0.54016 0.34353 0.78835 0.0
C295 C 0.51457 0.35414 0.74928 0.0
C296 C 0.48296 0.31507 0.7143 0.0
C297 C 0.50311 0.25666 0.7542 0.0
H298 H 0.464 0.32507 0.68537 0.0
H299 H 0.50047 0.2199 0.75837 0.0
H300 H 0.35194 0.09006 0.69084 0.0
H301 H 0.37452 0.19153 0.56769 0.0
C302 C 0.4159 0.28805 0.5948 0.0
C303 C 0.33703 0.22046 0.7563 0.0
C304 C 0.52065 0.20616 0.59979 0.0
C305 C 0.42732 0.12352 0.75418 0.0
H306 H 0.29701 0.27907 0.70644 0.0
H307 H 0.3396 0.31566 0.61678 0.0
H308 H 0.48589 0.32024 0.51207 0.0
H309 H 0.54022 0.27255 0.51287 0.0
H310 H 0.54832 0.13431 0.64256 0.0
H311 H 0.49602 0.08723 0.72575 0.0
H312 H 0.36738 0.10399 0.84475 0.0
H313 H 0.31818 0.15778 0.84508 0.0
H314 H 0.30429 0.01636 0.63714 0.0
H315 H 0.3272 0.11846 0.51184 0.0
H316 H 0.55615 0.28482 0.81683 0.0
H317 H 0.518 0.39199 0.74632 0.0
C318 C 0.24268 0.24647 0.831 0.0
C319 C 0.27561 0.28665 0.86435 0.0
C320 C 0.26237 0.22369 0.79748 0.0
C321 C 0.31569 0.24057 0.79584 0.0
H322 H 0.20141 0.23243 0.83095 0.0
H323 H 0.23594 0.19341 0.7719 0.0
S324 S 0.41871 0.34577 0.87296 0.0
N325 N 0.36468 0.3431 0.89217 0.0
N326 N 0.4011 0.30021 0.8292 0.0
C327 C 0.34895 0.28047 0.82881 0.0
C328 C 0.32908 0.30356 0.86299 0.0
C329 C 0.0261 0.31451 0.19711 0.0
C330 C 0.98431 0.26355 0.19115 0.0
C331 C 0.06861 0.33519 0.16383 0.0
C332 C 0.07121 0.30557 0.12362 0.0
H333 H 0.02533 0.33907 0.22705 0.0
H334 H 0.09913 0.37503 0.16884 0.0
S335 S 0.97465 0.16905 0.09383 0.0
N336 N 0.94991 0.18325 0.14328 0.0
N337 N 0.03027 0.22195 0.08137 0.0
C338 C 0.03077 0.25412 0.11822 0.0
C339 C 0.98714 0.23322 0.15168 0.0
C340 C 0.77326 0.0292 0.45621 0.0
C341 C 0.7596 0.06808 0.45603 0.0
C342 C 0.75038 0.98744 0.49063 0.0
C343 C 0.71331 0.98337 0.52629 0.0
H344 H 0.80137 0.03084 0.42915 0.0
H345 H 0.7621 0.9584 0.48964 0.0
S346 S 0.66262 0.07426 0.53881 0.0
N347 N 0.70585 0.09931 0.4928 0.0
N348 N 0.66273 0.0213 0.55741 0.0
C349 C 0.69931 0.02215 0.52605 0.0
C350 C 0.7225 0.06438 0.49097 0.0
C351 C 0.68872 0.70918 0.86503 0.0
C352 C 0.74052 0.72016 0.86167 0.0
C353 C 0.66837 0.73082 0.83074 0.0
C354 C 0.69901 0.76446 0.79184 0.0
H355 H 0.66324 0.68261 0.89371 0.0
H356 H 0.62806 0.7204 0.83403 0.0
S357 S 0.83751 0.809 0.76822 0.0
N358 N 0.82254 0.76941 0.81734 0.0
N359 N 0.78404 0.80983 0.7531 0.0
C360 C 0.75101 0.77688 0.78866 0.0
C361 C 0.77177 0.75471 0.82339 0.0
C362 C 0.9437 0.66301 0.1614 0.0
C363 C 0.93765 0.69495 0.12595 0.0
C364 C 0.98572 0.68338 0.19568 0.0
C365 C 0.02353 0.73653 0.19574 0.0
H366 H 0.91623 0.62178 0.16194 0.0
H367 H 0.98928 0.65699 0.22157 0.0
S368 S 0.02304 0.83671 0.11187 0.0
N369 N 0.9713 0.78224 0.09389 0.0
N370 N 0.0501 0.82086 0.15829 0.0
C371 C 0.01714 0.76893 0.16088 0.0
C372 C 0.97422 0.7481 0.12612 0.0
C373 C 0.24909 0.00939 0.50013 0.0
C374 C 0.28835 0.01535 0.53426 0.0
C375 C 0.22645 0.96763 0.46565 0.0
C376 C 0.24259 0.93063 0.46371 0.0
H377 H 0.23593 0.03733 0.49994 0.0
H378 H 0.19705 0.96493 0.43943 0.0
S379 S 0.34451 0.92879 0.54327 0.0
N380 N 0.34254 0.9804 0.56305 0.0
N381 N 0.29999 0.90245 0.49819 0.0
C382 C 0.28119 0.93567 0.49777 0.0
C383 C 0.3041 0.97789 0.53301 0.0
C384 C 0.25227 0.6511 0.21718 0.0
C385 C 0.2084 0.65597 0.22549 0.0
C386 C 0.25153 0.61561 0.18173 0.0
C387 C 0.20624 0.58171 0.15412 0.0
H388 H 0.28792 0.67575 0.23766 0.0
H389 H 0.28725 0.61518 0.17585 0.0
S390 S 0.07972 0.57748 0.16446 0.0
N391 N 0.11834 0.6245 0.20362 0.0
N392 N 0.1153 0.55466 0.13987 0.0
C393 C 0.16159 0.58565 0.16295 0.0
C394 C 0.16296 0.62313 0.19813 0.0
C395 C 0.55242 0.16198 0.53964 0.0
C396 C 0.562 0.20634 0.56726 0.0
C397 C 0.58912 0.1632 0.50522 0.0
C398 C 0.63645 0.20919 0.49603 0.0
H399 H 0.51596 0.12624 0.54422 0.0
H400 H 0.58017 0.1277 0.48567 0.0
S401 S 0.67854 0.33658 0.55804 0.0
N402 N 0.62229 0.2969 0.58461 0.0
N403 N 0.68888 0.30114 0.51666 0.0
C404 C 0.64599 0.25395 0.52348 0.0
C405 C 0.60947 0.25201 0.55982 0.0
C406 C 0.40346 0.64003 0.8658 0.0
C407 C 0.43686 0.62985 0.83613 0.0
C408 C 0.36923 0.60413 0.90121 0.0
C409 C 0.36526 0.55548 0.90754 0.0
H410 H 0.40237 0.67553 0.86079 0.0
H411 H 0.34376 0.61352 0.9222 0.0
S412 S 0.44524 0.50946 0.84312 0.0
N413 N 0.46634 0.56816 0.81981 0.0
N414 N 0.3985 0.49912 0.88323 0.0
C415 C 0.39871 0.5447 0.87932 0.0
C416 C 0.43498 0.582 0.84421 0.0
C417 C 0.82818 0.39934 0.15148 0.0
C418 C 0.81375 0.43582 0.16633 0.0
C419 C 0.8293 0.36421 0.18659 0.0
C420 C 0.81578 0.36388 0.23793 0.0
H421 H 0.83669 0.39642 0.11199 0.0
H422 H 0.83879 0.33562 0.17308 0.0
S423 S 0.78096 0.45462 0.29806 0.0
N424 N 0.79102 0.47259 0.23775 0.0
N425 N 0.7908 0.40491 0.30272 0.0
C426 C 0.80351 0.40136 0.25388 0.0
C427 C 0.80296 0.4376 0.21837 0.0
C428 C 0.37437 0.80834 0.54693 0.0
C429 C 0.38972 0.82237 0.49583 0.0
C430 C 0.40856 0.80794 0.58379 0.0
C431 C 0.45977 0.8222 0.57134 0.0
H432 H 0.33502 0.79612 0.55832 0.0
H433 H 0.39422 0.79439 0.62182 0.0
S434 S 0.52129 0.86566 0.44493 0.0
N435 N 0.46117 0.85307 0.4359 0.0
N436 N 0.52549 0.85384 0.50567 0.0
C437 C 0.47663 0.83898 0.52138 0.0
C438 C 0.44172 0.83886 0.4836 0.0
C439 C 0.60995 0.43387 0.8131 0.0
C440 C 0.57306 0.38301 0.82754 0.0
C441 C 0.6457 0.46927 0.84853 0.0
C442 C 0.64605 0.45519 0.89969 0.0
H443 H 0.61271 0.44576 0.77373 0.0
H444 H 0.67451 0.50744 0.83546 0.0
S445 S 0.55419 0.32915 0.95843 0.0
N446 N 0.53588 0.32259 0.8982 0.0
N447 N 0.6046 0.38816 0.96364 0.0
C448 C 0.60812 0.40539 0.9151 0.0
C449 C 0.57131 0.36962 0.87936 0.0
loop_
_geom_bond_atom_site_label_1
_geom_bond_atom_site_label_2
_geom_bond_distance
_geom_bond_site_symmetry_2
_ccdc_geom_bond_type
C0 C1 1.443 . S
C0 N4 1.376 . S
C0 C38 1.389 . S
C1 C0 1.443 . S
C1 C2 1.340 1_554 S
C1 H41 0.951 . S
C2 C1 1.340 1_556 S
C2 C3 1.439 . S
C2 H42 0.950 . S
C3 C2 1.439 . S
C3 N4 1.374 1_556 S
C3 C37 1.395 . S
N4 C0 1.376 . S
N4 C3 1.374 1_554 S
N4 Co5 2.008 . S
Co5 N4 2.008 . S
Co5 N6 1.995 1_554 S
Co5 N11 2.008 . S
Co5 N16 1.995 . S
Co5 N21 2.282 1_554 S
Co5 N27 2.282 . S
N6 Co5 1.995 1_556 S
N6 C7 1.376 . S
N6 C10 1.383 . S
C7 N6 1.376 . S
C7 C8 1.446 . S
C7 C37 1.391 . S
C8 C7 1.446 . S
C8 C9 1.339 . S
C8 H43 0.949 . S
C9 C8 1.339 . S
C9 C10 1.439 . S
C9 H44 0.950 . S
C10 N6 1.383 . S
C10 C9 1.439 . S
C10 C39 1.392 . S
N11 Co5 2.008 . S
N11 C12 1.376 1_554 S
N11 C15 1.374 . S
C12 N11 1.376 1_556 S
C12 C13 1.443 . S
C12 C39 1.389 . S
C13 C12 1.443 . S
C13 C14 1.340 1_556 S
C13 H45 0.951 . S
C14 C13 1.340 1_554 S
C14 C15 1.439 . S
C14 H46 0.950 . S
C15 N11 1.374 . S
C15 C14 1.439 . S
C15 C40 1.395 . S
N16 Co5 1.995 . S
N16 C17 1.376 . S
N16 C20 1.383 . S
C17 N16 1.376 . S
C17 C18 1.446 . S
C17 C40 1.391 . S
C18 C17 1.446 . S
C18 C19 1.339 . S
C18 H47 0.949 . S
C19 C18 1.339 . S
C19 C20 1.439 . S
C19 H48 0.950 . S
C20 N16 1.383 . S
C20 C19 1.439 . S
C20 C38 1.392 . S
N21 Co5 2.282 1_556 S
N21 C24 1.332 . S
N21 C26 1.332 . S
C22 C23 1.386 . S
C22 C25 1.388 . S
C23 C22 1.386 . S
C23 C24 1.382 . S
C23 H49 0.950 . S
C24 N21 1.332 . S
C24 C23 1.382 . S
C24 H35 0.952 1_556 S
C25 C22 1.388 . S
C25 C26 1.382 . S
C25 H50 0.950 . S
C26 N21 1.332 . S
C26 C25 1.382 . S
C26 H36 0.948 . S
N27 Co5 2.282 . S
N27 C31 1.332 . S
N27 C32 1.332 . S
C28 C29 1.388 . S
C28 C32 1.382 . S
C28 H51 0.950 . S
C29 C28 1.388 . S
C29 C30 1.386 . S
C30 C29 1.386 . S
C30 C31 1.382 . S
C30 H52 0.950 . S
C31 N27 1.332 . S
C31 C30 1.382 . S
C31 H33 0.952 . S
C32 N27 1.332 . S
C32 C28 1.382 . S
C32 H34 0.948 . S
H33 C31 0.952 . S
H34 C32 0.948 . S
H35 C24 0.952 1_554 S
H36 C26 0.948 . S
C37 C3 1.395 . S
C37 C7 1.391 . S
C38 C0 1.389 . S
C38 C20 1.392 . S
C39 C10 1.392 . S
C39 C12 1.389 . S
C40 C15 1.395 . S
C40 C17 1.391 . S
H41 C1 0.951 . S
H42 C2 0.950 . S
H43 C8 0.949 . S
H44 C9 0.950 . S
H45 C13 0.951 . S
H46 C14 0.950 . S
H47 C18 0.949 . S
H48 C19 0.950 . S
H49 C23 0.950 . S
H50 C25 0.950 . S
H51 C28 0.950 . S
H52 C30 0.950 . S
C53 C54 1.443 . S
C53 N57 1.376 . S
C53 C91 1.389 . S
C54 C53 1.443 . S
C54 C55 1.340 . S
C54 H94 0.951 . S
C55 C54 1.340 . S
C55 C56 1.439 . S
C55 H95 0.950 . S
C56 C55 1.439 . S
C56 N57 1.374 . S
C56 C90 1.395 . S
N57 C53 1.376 . S
N57 C56 1.374 . S
N57 Co58 2.008 . S
Co58 N57 2.008 . S
Co58 N59 1.995 . S
Co58 N64 2.008 . S
Co58 N69 1.995 . S
Co58 N74 2.282 . S
Co58 N80 2.282 . S
N59 Co58 1.995 . S
N59 C60 1.376 . S
N59 C63 1.383 . S
C60 N59 1.376 . S
C60 C61 1.446 . S
C60 C90 1.391 . S
C61 C60 1.446 . S
C61 C62 1.339 . S
C61 H96 0.949 . S
C62 C61 1.339 . S
C62 C63 1.439 . S
C62 H97 0.950 . S
C63 N59 1.383 . S
C63 C62 1.439 . S
C63 C92 1.392 . S
N64 Co58 2.008 . S
N64 C65 1.376 . S
N64 C68 1.374 . S
C65 N64 1.376 . S
C65 C66 1.443 . S
C65 C92 1.389 . S
C66 C65 1.443 . S
C66 C67 1.340 . S
C66 H98 0.951 . S
C67 C66 1.340 . S
C67 C68 1.439 . S
C67 H99 0.950 . S
C68 N64 1.374 . S
C68 C67 1.439 . S
C68 C93 1.395 . S
N69 Co58 1.995 . S
N69 C70 1.376 . S
N69 C73 1.383 . S
C70 N69 1.376 . S
C70 C71 1.446 . S
C70 C93 1.391 . S
C71 C70 1.446 . S
C71 C72 1.339 . S
C71 H100 0.949 . S
C72 C71 1.339 . S
C72 C73 1.439 . S
C72 H101 0.950 . S
C73 N69 1.383 . S
C73 C72 1.439 . S
C73 C91 1.392 . S
N74 Co58 2.282 . S
N74 C77 1.332 . S
N74 C79 1.332 . S
C75 C76 1.386 . S
C75 C78 1.388 . S
C76 C75 1.386 . S
C76 C77 1.382 . S
C76 H102 0.950 . S
C77 N74 1.332 . S
C77 C76 1.382 . S
C77 H88 0.952 . S
C78 C75 1.388 . S
C78 C79 1.382 . S
C78 H103 0.950 . S
C79 N74 1.332 . S
C79 C78 1.382 . S
C79 H89 0.948 . S
N80 Co58 2.282 . S
N80 C84 1.332 . S
N80 C85 1.332 . S
C81 C82 1.388 . S
C81 C85 1.382 . S
C81 H104 0.950 . S
C82 C81 1.388 . S
C82 C83 1.386 . S
C83 C82 1.386 . S
C83 C84 1.382 . S
C83 H105 0.950 . S
C84 N80 1.332 . S
C84 C83 1.382 . S
C84 H86 0.952 . S
C85 N80 1.332 . S
C85 C81 1.382 . S
C85 H87 0.948 . S
H86 C84 0.952 . S
H87 C85 0.948 . S
H88 C77 0.952 . S
H89 C79 0.948 . S
C90 C56 1.395 . S
C90 C60 1.391 . S
C91 C53 1.389 . S
C91 C73 1.392 . S
C92 C63 1.392 . S
C92 C65 1.389 . S
C93 C68 1.395 . S
C93 C70 1.391 . S
H94 C54 0.951 . S
H95 C55 0.950 . S
H96 C61 0.949 . S
H97 C62 0.950 . S
H98 C66 0.951 . S
H99 C67 0.950 . S
H100 C71 0.949 . S
H101 C72 0.950 . S
H102 C76 0.950 . S
H103 C78 0.950 . S
H104 C81 0.950 . S
H105 C83 0.950 . S
C106 C107 1.443 . S
C106 N110 1.376 . S
C106 C144 1.389 . S
C107 C106 1.443 . S
C107 C108 1.340 . S
C107 H147 0.951 . S
C108 C107 1.340 . S
C108 C109 1.439 . S
C108 H148 0.950 . S
C109 C108 1.439 . S
C109 N110 1.374 . S
C109 C143 1.395 . S
N110 C106 1.376 . S
N110 C109 1.374 . S
N110 Co111 2.008 . S
Co111 N110 2.008 . S
Co111 N112 1.995 . S
Co111 N117 2.008 . S
Co111 N122 1.995 . S
Co111 N127 2.282 . S
Co111 N133 2.282 . S
N112 Co111 1.995 . S
N112 C113 1.376 . S
N112 C116 1.383 . S
C113 N112 1.376 . S
C113 C114 1.446 . S
C113 C143 1.391 . S
C114 C113 1.446 . S
C114 C115 1.339 . S
C114 H149 0.949 . S
C115 C114 1.339 . S
C115 C116 1.439 . S
C115 H150 0.950 . S
C116 N112 1.383 . S
C116 C115 1.439 . S
C116 C145 1.392 . S
N117 Co111 2.008 . S
N117 C118 1.376 . S
N117 C121 1.374 . S
C118 N117 1.376 . S
C118 C119 1.443 . S
C118 C145 1.389 . S
C119 C118 1.443 . S
C119 C120 1.340 . S
C119 H151 0.951 . S
C120 C119 1.340 . S
C120 C121 1.439 . S
C120 H152 0.950 . S
C121 N117 1.374 . S
C121 C120 1.439 . S
C121 C146 1.395 . S
N122 Co111 1.995 . S
N122 C123 1.376 . S
N122 C126 1.383 . S
C123 N122 1.376 . S
C123 C124 1.446 . S
C123 C146 1.391 . S
C124 C123 1.446 . S
C124 C125 1.339 . S
C124 H153 0.949 . S
C125 C124 1.339 . S
C125 C126 1.439 . S
C125 H154 0.950 . S
C126 N122 1.383 . S
C126 C125 1.439 . S
C126 C144 1.392 . S
N127 Co111 2.282 . S
N127 C130 1.332 . S
N127 C132 1.332 . S
C128 C129 1.386 . S
C128 C131 1.388 . S
C129 C128 1.386 . S
C129 C130 1.382 . S
C129 H155 0.950 . S
C130 N127 1.332 . S
C130 C129 1.382 . S
C130 H141 0.952 . S
C131 C128 1.388 . S
C131 C132 1.382 . S
C131 H156 0.950 . S
C132 N127 1.332 . S
C132 C131 1.382 . S
C132 H142 0.948 . S
N133 Co111 2.282 . S
N133 C137 1.332 . S
N133 C138 1.332 . S
C134 C135 1.388 . S
C134 C138 1.382 . S
C134 H157 0.950 . S
C135 C134 1.388 . S
C135 C136 1.386 . S
C136 C135 1.386 . S
C136 C137 1.382 . S
C136 H158 0.950 . S
C137 N133 1.332 . S
C137 C136 1.382 . S
C137 H139 0.952 . S
C138 N133 1.332 . S
C138 C134 1.382 . S
C138 H140 0.948 . S
H139 C137 0.952 . S
H140 C138 0.948 . S
H141 C130 0.952 . S
H142 C132 0.948 . S
C143 C109 1.395 . S
C143 C113 1.391 . S
C144 C106 1.389 . S
C144 C126 1.392 . S
C145 C116 1.392 . S
C145 C118 1.389 . S
C146 C121 1.395 . S
C146 C123 1.391 . S
H147 C107 0.951 . S
H148 C108 0.950 . S
H149 C114 0.949 . S
H150 C115 0.950 . S
H151 C119 0.951 . S
H152 C120 0.950 . S
H153 C124 0.949 . S
H154 C125 0.950 . S
H155 C129 0.950 . S
H156 C131 0.950 . S
H157 C134 0.950 . S
H158 C136 0.950 . S
C159 C160 1.443 . S
C159 N163 1.376 . S
C159 C197 1.389 . S
C160 C159 1.443 . S
C160 C161 1.340 1_554 S
C160 H200 0.951 . S
C161 C160 1.340 1_556 S
C161 C162 1.439 . S
C161 H201 0.950 . S
C162 C161 1.439 . S
C162 N163 1.374 1_556 S
C162 C196 1.395 . S
N163 C159 1.376 . S
N163 C162 1.374 1_554 S
N163 Co164 2.008 . S
Co164 N163 2.008 . S
Co164 N165 1.995 1_554 S
Co164 N170 2.008 . S
Co164 N175 1.995 . S
Co164 N180 2.282 1_554 S
Co164 N186 2.282 . S
N165 Co164 1.995 1_556 S
N165 C166 1.376 . S
N165 C169 1.383 . S
C166 N165 1.376 . S
C166 C167 1.446 . S
C166 C196 1.391 . S
C167 C166 1.446 . S
C167 C168 1.339 . S
C167 H202 0.949 . S
C168 C167 1.339 . S
C168 C169 1.439 . S
C168 H203 0.950 . S
C169 N165 1.383 . S
C169 C168 1.439 . S
C169 C198 1.392 . S
N170 Co164 2.008 . S
N170 C171 1.376 1_554 S
N170 C174 1.374 . S
C171 N170 1.376 1_556 S
C171 C172 1.443 . S
C171 C198 1.389 . S
C172 C171 1.443 . S
C172 C173 1.340 1_556 S
C172 H204 0.951 . S
C173 C172 1.340 1_554 S
C173 C174 1.439 . S
C173 H205 0.950 . S
C174 N170 1.374 . S
C174 C173 1.439 . S
C174 C199 1.395 . S
N175 Co164 1.995 . S
N175 C176 1.376 . S
N175 C179 1.383 . S
C176 N175 1.376 . S
C176 C177 1.446 . S
C176 C199 1.391 . S
C177 C176 1.446 . S
C177 C178 1.339 . S
C177 H206 0.949 . S
C178 C177 1.339 . S
C178 C179 1.439 . S
C178 H207 0.950 . S
C179 N175 1.383 . S
C179 C178 1.439 . S
C179 C197 1.392 . S
N180 Co164 2.282 1_556 S
N180 C183 1.332 . S
N180 C185 1.332 . S
C181 C182 1.386 . S
C181 C184 1.388 . S
C182 C181 1.386 . S
C182 C183 1.382 . S
C182 H208 0.950 . S
C183 N180 1.332 . S
C183 C182 1.382 . S
C183 H194 0.952 1_556 S
C184 C181 1.388 . S
C184 C185 1.382 . S
C184 H209 0.950 . S
C185 N180 1.332 . S
C185 C184 1.382 . S
C185 H195 0.948 . S
N186 Co164 2.282 . S
N186 C190 1.332 . S
N186 C191 1.332 . S
C187 C188 1.388 . S
C187 C191 1.382 . S
C187 H210 0.950 . S
C188 C187 1.388 . S
C188 C189 1.386 . S
C189 C188 1.386 . S
C189 C190 1.382 . S
C189 H211 0.950 . S
C190 N186 1.332 . S
C190 C189 1.382 . S
C190 H192 0.952 . S
C191 N186 1.332 . S
C191 C187 1.382 . S
C191 H193 0.948 . S
H192 C190 0.952 . S
H193 C191 0.948 . S
H194 C183 0.952 1_554 S
H195 C185 0.948 . S
C196 C162 1.395 . S
C196 C166 1.391 . S
C197 C159 1.389 . S
C197 C179 1.392 . S
C198 C169 1.392 . S
C198 C171 1.389 . S
C199 C174 1.395 . S
C199 C176 1.391 . S
H200 C160 0.951 . S
H201 C161 0.950 . S
H202 C167 0.949 . S
H203 C168 0.950 . S
H204 C172 0.951 . S
H205 C173 0.950 . S
H206 C177 0.949 . S
H207 C178 0.950 . S
H208 C182 0.950 . S
H209 C184 0.950 . S
H210 C187 0.950 . S
H211 C189 0.950 . S
C212 C213 1.443 . S
C212 N216 1.376 . S
C212 C250 1.389 . S
C213 C212 1.443 . S
C213 C214 1.340 . S
C213 H253 0.951 . S
C214 C213 1.340 . S
C214 C215 1.439 . S
C214 H254 0.950 . S
C215 C214 1.439 . S
C215 N216 1.374 . S
C215 C249 1.395 . S
N216 C212 1.376 . S
N216 C215 1.374 . S
N216 Co217 2.008 . S
Co217 N216 2.008 . S
Co217 N218 1.995 . S
Co217 N223 2.008 . S
Co217 N228 1.995 . S
Co217 N233 2.282 . S
Co217 N239 2.282 . S
N218 Co217 1.995 . S
N218 C219 1.376 . S
N218 C222 1.383 . S
C219 N218 1.376 . S
C219 C220 1.446 . S
C219 C249 1.391 . S
C220 C219 1.446 . S
C220 C221 1.339 . S
C220 H255 0.949 . S
C221 C220 1.339 . S
C221 C222 1.439 . S
C221 H256 0.950 . S
C222 N218 1.383 . S
C222 C221 1.439 . S
C222 C251 1.392 . S
N223 Co217 2.008 . S
N223 C224 1.376 . S
N223 C227 1.374 . S
C224 N223 1.376 . S
C224 C225 1.443 . S
C224 C251 1.389 . S
C225 C224 1.443 . S
C225 C226 1.340 . S
C225 H257 0.951 . S
C226 C225 1.340 . S
C226 C227 1.439 . S
C226 H258 0.950 . S
C227 N223 1.374 . S
C227 C226 1.439 . S
C227 C252 1.395 . S
N228 Co217 1.995 . S
N228 C229 1.376 . S
N228 C232 1.383 . S
C229 N228 1.376 . S
C229 C230 1.446 . S
C229 C252 1.391 . S
C230 C229 1.446 . S
C230 C231 1.339 . S
C230 H259 0.949 . S
C231 C230 1.339 . S
C231 C232 1.439 . S
C231 H260 0.950 . S
C232 N228 1.383 . S
C232 C231 1.439 . S
C232 C250 1.392 . S
N233 Co217 2.282 . S
N233 C236 1.332 . S
N233 C238 1.332 . S
C234 C235 1.386 . S
C234 C237 1.388 . S
C235 C234 1.386 . S
C235 C236 1.382 . S
C235 H261 0.950 . S
C236 N233 1.332 . S
C236 C235 1.382 . S
C236 H247 0.952 . S
C237 C234 1.388 . S
C237 C238 1.382 . S
C237 H262 0.950 . S
C238 N233 1.332 . S
C238 C237 1.382 . S
C238 H248 0.948 . S
N239 Co217 2.282 . S
N239 C243 1.332 . S
N239 C244 1.332 . S
C240 C241 1.388 . S
C240 C244 1.382 . S
C240 H263 0.950 . S
C241 C240 1.388 . S
C241 C242 1.386 . S
C242 C241 1.386 . S
C242 C243 1.382 . S
C242 H264 0.950 . S
C243 N239 1.332 . S
C243 C242 1.382 . S
C243 H245 0.952 . S
C244 N239 1.332 . S
C244 C240 1.382 . S
C244 H246 0.948 . S
H245 C243 0.952 . S
H246 C244 0.948 . S
H247 C236 0.952 . S
H248 C238 0.948 . S
C249 C215 1.395 . S
C249 C219 1.391 . S
C250 C212 1.389 . S
C250 C232 1.392 . S
C251 C222 1.392 . S
C251 C224 1.389 . S
C252 C227 1.395 . S
C252 C229 1.391 . S
H253 C213 0.951 . S
H254 C214 0.950 . S
H255 C220 0.949 . S
H256 C221 0.950 . S
H257 C225 0.951 . S
H258 C226 0.950 . S
H259 C230 0.949 . S
H260 C231 0.950 . S
H261 C235 0.950 . S
H262 C237 0.950 . S
H263 C240 0.950 . S
H264 C242 0.950 . S
C265 C266 1.443 . S
C265 N269 1.376 . S
C265 C303 1.389 . S
C266 C265 1.443 . S
C266 C267 1.340 . S
C266 H306 0.951 . S
C267 C266 1.340 . S
C267 C268 1.439 . S
C267 H307 0.950 . S
C268 C267 1.439 . S
C268 N269 1.374 . S
C268 C302 1.395 . S
N269 C265 1.376 . S
N269 C268 1.374 . S
N269 Co270 2.008 . S
Co270 N269 2.008 . S
Co270 N271 1.995 . S
Co270 N276 2.008 . S
Co270 N281 1.995 . S
Co270 N286 2.282 . S
Co270 N292 2.282 . S
N271 Co270 1.995 . S
N271 C272 1.376 . S
N271 C275 1.383 . S
C272 N271 1.376 . S
C272 C273 1.446 . S
C272 C302 1.391 . S
C273 C272 1.446 . S
C273 C274 1.339 . S
C273 H308 0.949 . S
C274 C273 1.339 . S
C274 C275 1.439 . S
C274 H309 0.950 . S
C275 N271 1.383 . S
C275 C274 1.439 . S
C275 C304 1.392 . S
N276 Co270 2.008 . S
N276 C277 1.376 . S
N276 C280 1.374 . S
C277 N276 1.376 . S
C277 C278 1.443 . S
C277 C304 1.389 . S
C278 C277 1.443 . S
C278 C279 1.340 . S
C278 H310 0.951 . S
C279 C278 1.340 . S
C279 C280 1.439 . S
C279 H311 0.950 . S
C280 N276 1.374 . S
C280 C279 1.439 . S
C280 C305 1.395 . S
N281 Co270 1.995 . S
N281 C282 1.376 . S
N281 C285 1.383 . S
C282 N281 1.376 . S
C282 C283 1.446 . S
C282 C305 1.391 . S
C283 C282 1.446 . S
C283 C284 1.339 . S
C283 H312 0.949 . S
C284 C283 1.339 . S
C284 C285 1.439 . S
C284 H313 0.950 . S
C285 N281 1.383 . S
C285 C284 1.439 . S
C285 C303 1.392 . S
N286 Co270 2.282 . S
N286 C289 1.332 . S
N286 C291 1.332 . S
C287 C288 1.386 . S
C287 C290 1.388 . S
C288 C287 1.386 . S
C288 C289 1.382 . S
C288 H314 0.950 . S
C289 N286 1.332 . S
C289 C288 1.382 . S
C289 H300 0.952 . S
C290 C287 1.388 . S
C290 C291 1.382 . S
C290 H315 0.950 . S
C291 N286 1.332 . S
C291 C290 1.382 . S
C291 H301 0.948 . S
N292 Co270 2.282 . S
N292 C296 1.332 . S
N292 C297 1.332 . S
C293 C294 1.388 . S
C293 C297 1.382 . S
C293 H316 0.950 . S
C294 C293 1.388 . S
C294 C295 1.386 . S
C295 C294 1.386 . S
C295 C296 1.382 . S
C295 H317 0.950 . S
C296 N292 1.332 . S
C296 C295 1.382 . S
C296 H298 0.952 . S
C297 N292 1.332 . S
C297 C293 1.382 . S
C297 H299 0.948 . S
H298 C296 0.952 . S
H299 C297 0.948 . S
H300 C289 0.952 . S
H301 C291 0.948 . S
C302 C268 1.395 . S
C302 C272 1.391 . S
C303 C265 1.389 . S
C303 C285 1.392 . S
C304 C275 1.392 . S
C304 C277 1.389 . S
C305 C280 1.395 . S
C305 C282 1.391 . S
H306 C266 0.951 . S
H307 C267 0.950 . S
H308 C273 0.949 . S
H309 C274 0.950 . S
H310 C278 0.951 . S
H311 C279 0.950 . S
H312 C283 0.949 . S
H313 C284 0.950 . S
H314 C288 0.950 . S
H315 C290 0.950 . S
H316 C293 0.950 . S
H317 C295 0.950 . S
C318 C319 1.369 . S
C318 C320 1.419 . S
C318 H322 0.930 . S
C319 C318 1.369 . S
C319 C328 1.429 . S
C320 C318 1.419 . S
C320 C321 1.363 . S
C320 H323 0.929 . S
C321 C320 1.363 . S
C321 C327 1.428 . S
H322 C318 0.930 . S
H323 C320 0.929 . S
S324 N325 1.613 . S
S324 N326 1.610 . S
N325 S324 1.613 . S
N325 C328 1.350 . S
N326 S324 1.610 . S
N326 C327 1.351 . S
C327 C321 1.428 . S
C327 N326 1.351 . S
C327 C328 1.434 . S
C328 C319 1.429 . S
C328 N325 1.350 . S
C328 C327 1.434 . S
C329 C330 1.369 1_455 S
C329 C331 1.419 . S
C329 H333 0.916 1_455 S
C330 C329 1.369 1_655 S
C330 C339 1.429 . S
C331 C329 1.419 . S
C331 C332 1.363 . S
C331 H334 0.929 . S
C332 C331 1.363 . S
C332 C338 1.428 . S
H333 C329 0.916 1_655 S
H334 C331 0.929 . S
S335 N336 1.613 1_455 S
S335 N337 1.610 . S
N336 S335 1.613 1_655 S
N336 C339 1.350 . S
N337 S335 1.610 . S
N337 C338 1.351 . S
C338 C332 1.428 . S
C338 N337 1.351 . S
C338 C339 1.434 1_455 S
C339 C330 1.429 . S
C339 N336 1.350 . S
C339 C338 1.434 1_655 S
C340 C341 1.369 . S
C340 C342 1.419 . S
C340 H344 0.930 . S
C341 C340 1.369 . S
C341 C350 1.429 . S
C342 C340 1.419 . S
C342 C343 1.363 1_545 S
C342 H345 0.929 1_545 S
C343 C342 1.363 1_565 S
C343 C349 1.428 1_565 S
H344 C340 0.930 . S
H345 C342 0.929 1_565 S
S346 N347 1.613 . S
S346 N348 1.610 1_545 S
N347 S346 1.613 . S
N347 C350 1.350 . S
N348 S346 1.610 1_565 S
N348 C349 1.351 1_565 S
C349 C343 1.428 1_545 S
C349 N348 1.351 1_545 S
C349 C350 1.434 . S
C350 C341 1.429 . S
C350 N347 1.350 . S
C350 C349 1.434 . S
C351 C352 1.369 . S
C351 C353 1.419 . S
C351 H355 0.930 . S
C352 C351 1.369 . S
C352 C361 1.429 . S
C353 C351 1.419 . S
C353 C354 1.363 . S
C353 H356 0.929 . S
C354 C353 1.363 . S
C354 C360 1.428 . S
H355 C351 0.930 . S
H356 C353 0.929 . S
S357 N358 1.613 . S
S357 N359 1.610 . S
N358 S357 1.613 . S
N358 C361 1.350 . S
N359 S357 1.610 . S
N359 C360 1.351 . S
C360 C354 1.428 . S
C360 N359 1.351 . S
C360 C361 1.434 . S
C361 C352 1.429 . S
C361 N358 1.350 . S
C361 C360 1.434 . S
C362 C363 1.369 . S
C362 C364 1.419 1_655 S
C362 H366 0.930 . S
C363 C362 1.369 . S
C363 C372 1.429 . S
C364 C362 1.419 1_455 S
C364 C365 1.363 . S
C364 H367 0.929 . S
C365 C364 1.363 . S
C365 C371 1.428 1_455 S
H366 C362 0.930 . S
H367 C364 0.929 . S
S368 N369 1.613 . S
S368 N370 1.610 1_655 S
N369 S368 1.613 . S
N369 C372 1.350 . S
N370 S368 1.610 1_455 S
N370 C371 1.351 1_455 S
C371 C365 1.428 1_655 S
C371 N370 1.351 1_655 S
C371 C372 1.434 . S
C372 C363 1.429 . S
C372 N369 1.350 . S
C372 C371 1.434 . S
C373 C374 1.369 1_565 S
C373 C375 1.419 . S
C373 H377 0.928 1_565 S
C374 C373 1.369 1_545 S
C374 C383 1.429 . S
C375 C373 1.419 . S
C375 C376 1.363 . S
C375 H378 0.929 . S
C376 C375 1.363 . S
C376 C382 1.428 . S
H377 C373 0.928 1_545 S
H378 C375 0.929 . S
S379 N380 1.613 1_565 S
S379 N381 1.610 . S
N380 S379 1.613 1_545 S
N380 C383 1.350 . S
N381 S379 1.610 . S
N381 C382 1.351 . S
C382 C376 1.428 . S
C382 N381 1.351 . S
C382 C383 1.434 1_565 S
C383 C374 1.429 . S
C383 N380 1.350 . S
C383 C382 1.434 1_545 S
C384 C385 1.369 . S
C384 C386 1.419 . S
C384 H388 0.930 . S
C385 C384 1.369 . S
C385 C394 1.429 . S
C386 C384 1.419 . S
C386 C387 1.363 . S
C386 H389 0.929 . S
C387 C386 1.363 . S
C387 C393 1.428 . S
H388 C384 0.930 . S
H389 C386 0.929 . S
S390 N391 1.613 . S
S390 N392 1.610 . S
N391 S390 1.613 . S
N391 C394 1.350 . S
N392 S390 1.610 . S
N392 C393 1.351 . S
C393 C387 1.428 . S
C393 N392 1.351 . S
C393 C394 1.434 . S
C394 C385 1.429 . S
C394 N391 1.350 . S
C394 C393 1.434 . S
C395 C396 1.369 . S
C395 C397 1.419 . S
C395 H399 0.930 . S
C396 C395 1.369 . S
C396 C405 1.429 . S
C397 C395 1.419 . S
C397 C398 1.363 . S
C397 H400 0.929 . S
C398 C397 1.363 . S
C398 C404 1.428 . S
H399 C395 0.930 . S
H400 C397 0.929 . S
S401 N402 1.613 . S
S401 N403 1.610 . S
N402 S401 1.613 . S
N402 C405 1.350 . S
N403 S401 1.610 . S
N403 C404 1.351 . S
C404 C398 1.428 . S
C404 N403 1.351 . S
C404 C405 1.434 . S
C405 C396 1.429 . S
C405 N402 1.350 . S
C405 C404 1.434 . S
C406 C407 1.369 . S
C406 C408 1.419 . S
C406 H410 0.930 . S
C407 C406 1.369 . S
C407 C416 1.429 . S
C408 C406 1.419 . S
C408 C409 1.363 . S
C408 H411 0.929 . S
C409 C408 1.363 . S
C409 C415 1.428 . S
H410 C406 0.930 . S
H411 C408 0.929 . S
S412 N413 1.613 . S
S412 N414 1.610 . S
N413 S412 1.613 . S
N413 C416 1.350 . S
N414 S412 1.610 . S
N414 C415 1.351 . S
C415 C409 1.428 . S
C415 N414 1.351 . S
C415 C416 1.434 . S
C416 C407 1.429 . S
C416 N413 1.350 . S
C416 C415 1.434 . S
C417 C418 1.369 . S
C417 C419 1.419 . S
C417 H421 0.930 . S
C418 C417 1.369 . S
C418 C427 1.429 . S
C419 C417 1.419 . S
C419 C420 1.363 . S
C419 H422 0.929 . S
C420 C419 1.363 . S
C420 C426 1.428 . S
H421 C417 0.930 . S
H422 C419 0.929 . S
S423 N424 1.613 . S
S423 N425 1.610 . S
N424 S423 1.613 . S
N424 C427 1.350 . S
N425 S423 1.610 . S
N425 C426 1.351 . S
C426 C420 1.428 . S
C426 N425 1.351 . S
C426 C427 1.434 . S
C427 C418 1.429 . S
C427 N424 1.350 . S
C427 C426 1.434 . S
C428 C429 1.369 . S
C428 C430 1.419 . S
C428 H432 0.930 . S
C429 C428 1.369 . S
C429 C438 1.429 . S
C430 C428 1.419 . S
C430 C431 1.363 . S
C430 H433 0.929 . S
C431 C430 1.363 . S
C431 C437 1.428 . S
H432 C428 0.930 . S
H433 C430 0.929 . S
S434 N435 1.613 . S
S434 N436 1.610 . S
N435 S434 1.613 . S
N435 C438 1.350 . S
N436 S434 1.610 . S
N436 C437 1.351 . S
C437 C431 1.428 . S
C437 N436 1.351 . S
C437 C438 1.434 . S
C438 C429 1.429 . S
C438 N435 1.350 . S
C438 C437 1.434 . S
C439 C440 1.369 . S
C439 C441 1.419 . S
C439 H443 0.930 . S
C440 C439 1.369 . S
C440 C449 1.429 . S
C441 C439 1.419 . S
C441 C442 1.363 . S
C441 H444 0.929 . S
C442 C441 1.363 . S
C442 C448 1.428 . S
H443 C439 0.930 . S
H444 C441 0.929 . S
S445 N446 1.613 . S
S445 N447 1.610 . S
N446 S445 1.613 . S
N446 C449 1.350 . S
N447 S445 1.610 . S
N447 C448 1.351 . S
C448 C442 1.428 . S
C448 N447 1.351 . S
C448 C449 1.434 . S
C449 C440 1.429 . S
C449 N446 1.350 . S
C449 C448 1.434 . S
C319 C22 1.493 . S
C321 C303 1.509 . S
C330 C75 1.497 . S
C332 C38 1.510 . S
C341 C91 1.509 . S
C343 C128 1.493 . S
C352 C181 1.497 . S
C354 C144 1.510 . S
C363 C197 1.510 . S
C365 C234 1.497 . S
C374 C287 1.493 . S
C376 C250 1.509 . S
C385 C251 1.521 . S
C387 C29 1.514 . S
C396 C304 1.519 . S
C398 C82 1.510 . S
C407 C135 1.513 . S
C409 C39 1.521 . S
C418 C188 1.513 . S
C420 C92 1.520 . S
C429 C241 1.512 . S
C431 C145 1.521 . S
C440 C294 1.514 . S
C442 C198 1.520 . S
