# Generated by pormake.
# Topology zfy, (5)-cn, num edge types: 1
# Building blocks:
#     Node 0, Type 0, BuildingBlock: XOMCOT_clean_sbu_0, # of connection points: 5
#     Node 1, Type 0, BuildingBlock: XOMCOT_clean_sbu_0, # of connection points: 5
#     Node 2, Type 0, BuildingBlock: XOMCOT_clean_sbu_0, # of connection points: 5
#     Node 3, Type 0, BuildingBlock: XOMCOT_clean_sbu_0, # of connection points: 5
#     Node 4, Type 0, BuildingBlock: XOMCOT_clean_sbu_0, # of connection points: 5
#     Node 5, Type 0, BuildingBlock: XOMCOT_clean_sbu_0, # of connection points: 5
#     Node 6, Type 0, BuildingBlock: XOMCOT_clean_sbu_0, # of connection points: 5
#     Node 7, Type 0, BuildingBlock: XOMCOT_clean_sbu_0, # of connection points: 5
#     Node 8, Type 0, BuildingBlock: XOMCOT_clean_sbu_0, # of connection points: 5
#     Node 9, Type 0, BuildingBlock: XOMCOT_clean_sbu_0, # of connection points: 5
#     Node 10, Type 0, BuildingBlock: XOMCOT_clean_sbu_0, # of connection points: 5
#     Node 11, Type 0, BuildingBlock: XOMCOT_clean_sbu_0, # of connection points: 5
#     Node 12, Type 0, BuildingBlock: XOMCOT_clean_sbu_0, # of connection points: 5
#     Node 13, Type 0, BuildingBlock: XOMCOT_clean_sbu_0, # of connection points: 5
#     Node 14, Type 0, BuildingBlock: XOMCOT_clean_sbu_0, # of connection points: 5
#     Node 15, Type 0, BuildingBlock: XOMCOT_clean_sbu_0, # of connection points: 5
#     Edge 16, Type (0, 0), BuildingBlock: XIVTED_clean_linker_0, # of connection points: 2
#     Edge 17, Type (0, 0), BuildingBlock: XIVTED_clean_linker_0, # of connection points: 2
#     Edge 18, Type (0, 0), BuildingBlock: XIVTED_clean_linker_0, # of connection points: 2
#     Edge 19, Type (0, 0), BuildingBlock: XIVTED_clean_linker_0, # of connection points: 2
#     Edge 20, Type (0, 0), BuildingBlock: XIVTED_clean_linker_0, # of connection points: 2
#     Edge 21, Type (0, 0), BuildingBlock: XIVTED_clean_linker_0, # of connection points: 2
#     Edge 22, Type (0, 0), BuildingBlock: XIVTED_clean_linker_0, # of connection points: 2
#     Edge 23, Type (0, 0), BuildingBlock: XIVTED_clean_linker_0, # of connection points: 2
#     Edge 24, Type (0, 0), BuildingBlock: XIVTED_clean_linker_0, # of connection points: 2
#     Edge 25, Type (0, 0), BuildingBlock: XIVTED_clean_linker_0, # of connection points: 2
#     Edge 26, Type (0, 0), BuildingBlock: XIVTED_clean_linker_0, # of connection points: 2
#     Edge 27, Type (0, 0), BuildingBlock: XIVTED_clean_linker_0, # of connection points: 2
#     Edge 28, Type (0, 0), BuildingBlock: XIVTED_clean_linker_0, # of connection points: 2
#     Edge 29, Type (0, 0), BuildingBlock: XIVTED_clean_linker_0, # of connection points: 2
#     Edge 30, Type (0, 0), BuildingBlock: XIVTED_clean_linker_0, # of connection points: 2
#     Edge 31, Type (0, 0), BuildingBlock: XIVTED_clean_linker_0, # of connection points: 2
#     Edge 32, Type (0, 0), BuildingBlock: XIVTED_clean_linker_0, # of connection points: 2
#     Edge 33, Type (0, 0), BuildingBlock: XIVTED_clean_linker_0, # of connection points: 2
#     Edge 34, Type (0, 0), BuildingBlock: XIVTED_clean_linker_0, # of connection points: 2
#     Edge 35, Type (0, 0), BuildingBlock: XIVTED_clean_linker_0, # of connection points: 2
#     Edge 36, Type (0, 0), BuildingBlock: XIVTED_clean_linker_0, # of connection points: 2
#     Edge 37, Type (0, 0), BuildingBlock: XIVTED_clean_linker_0, # of connection points: 2
#     Edge 38, Type (0, 0), BuildingBlock: XIVTED_clean_linker_0, # of connection points: 2
#     Edge 39, Type (0, 0), BuildingBlock: XIVTED_clean_linker_0, # of connection points: 2
#     Edge 40, Type (0, 0), BuildingBlock: XIVTED_clean_linker_0, # of connection points: 2
#     Edge 41, Type (0, 0), BuildingBlock: XIVTED_clean_linker_0, # of connection points: 2
#     Edge 42, Type (0, 0), BuildingBlock: XIVTED_clean_linker_0, # of connection points: 2
#     Edge 43, Type (0, 0), BuildingBlock: XIVTED_clean_linker_0, # of connection points: 2
#     Edge 44, Type (0, 0), BuildingBlock: XIVTED_clean_linker_0, # of connection points: 2
#     Edge 45, Type (0, 0), BuildingBlock: XIVTED_clean_linker_0, # of connection points: 2
#     Edge 46, Type (0, 0), BuildingBlock: XIVTED_clean_linker_0, # of connection points: 2
#     Edge 47, Type (0, 0), BuildingBlock: XIVTED_clean_linker_0, # of connection points: 2
#     Edge 48, Type (0, 0), BuildingBlock: XIVTED_clean_linker_0, # of connection points: 2
#     Edge 49, Type (0, 0), BuildingBlock: XIVTED_clean_linker_0, # of connection points: 2
#     Edge 50, Type (0, 0), BuildingBlock: XIVTED_clean_linker_0, # of connection points: 2
#     Edge 51, Type (0, 0), BuildingBlock: XIVTED_clean_linker_0, # of connection points: 2
#     Edge 52, Type (0, 0), BuildingBlock: XIVTED_clean_linker_0, # of connection points: 2
#     Edge 53, Type (0, 0), BuildingBlock: XIVTED_clean_linker_0, # of connection points: 2
#     Edge 54, Type (0, 0), BuildingBlock: XIVTED_clean_linker_0, # of connection points: 2
#     Edge 55, Type (0, 0), BuildingBlock: XIVTED_clean_linker_0, # of connection points: 2
# Relax obj value: 0.184
# Max RMSD: 0.234
# Mean RMSD: 0.230
data_MOF--net-zfy--node1-XOMCOT_clean_sbu_0--edge1-XIVTED_clean_linker_0
_symmetry_space_group_name_H-M    P1
_symmetry_Int_Tables_number       1
_symmetry_cell_setting            triclinic
loop_
_symmetry_equiv_pos_as_xyz
'x, y, z'
_cell_length_a     52.980736
_cell_length_b     52.975955
_cell_length_c     30.434256
_cell_angle_alpha  89.891629
_cell_angle_beta   90.068004
_cell_angle_gamma 90.101524
loop_
_atom_site_label
_atom_site_type_symbol
_atom_site_fract_x
_atom_site_fract_y
_atom_site_fract_z
_atom_type_partial_charge
Co0 Co 0.32864 0.19354 0.02241 0.0
C1 C 0.29684 0.21973 0.09194 0.0
C2 C 0.33678 0.22101 0.10316 0.0
C3 C 0.32513 0.23361 0.13668 0.0
N4 N 0.31923 0.21244 0.07466 0.0
N5 N 0.30007 0.23282 0.12969 0.0
H6 H 0.27858 0.21552 0.07814 0.0
H7 H 0.35686 0.21787 0.10025 0.0
C8 C 0.33274 0.15651 0.09609 0.0
O9 O 0.3111 0.16505 0.11085 0.0
N10 N 0.33988 0.17505 0.97168 0.0
C11 C 0.32978 0.17404 0.93111 0.0
C12 C 0.34734 0.16338 0.90314 0.0
C13 C 0.36311 0.16512 0.96802 0.0
N14 N 0.36842 0.15806 0.92645 0.0
C15 C 0.27605 0.19231 1.00343 0.0
C16 C 0.27001 0.14057 1.00495 0.0
C17 C 0.24976 0.15558 0.99036 0.0
C18 C 0.25313 0.18186 0.99019 0.0
C19 C 0.29291 0.15185 0.0171 0.0
N20 N 0.29562 0.17751 0.01704 0.0
H21 H 0.2783 0.21252 1.00111 0.0
H22 H 0.30876 0.13976 0.02428 0.0
H23 H 0.3117 0.18192 0.92198 0.0
H24 H 0.37629 0.16445 0.99514 0.0
O25 O 0.32197 0.22235 0.98578 0.0
O26 O 0.35878 0.21463 0.01758 0.0
O27 O 0.34232 0.16574 0.06103 0.0
C28 C 0.3452 0.22907 0.99219 0.0
H29 H 0.33436 0.24204 0.16483 0.0
H30 H 0.34529 0.16131 0.86796 0.0
H31 H 0.26858 0.1202 1.00584 0.0
H32 H 0.23869 0.19444 0.9779 0.0
Co33 Co 0.56453 0.58787 0.27603 0.0
C34 C 0.53971 0.55703 0.34633 0.0
C35 C 0.56031 0.58905 0.37078 0.0
C36 C 0.5481 0.57784 0.40533 0.0
N37 N 0.55517 0.57607 0.33382 0.0
N38 N 0.53501 0.55785 0.39007 0.0
H39 H 0.53122 0.54369 0.3238 0.0
H40 H 0.57135 0.6062 0.3723 0.0
C41 C 0.62015 0.59722 0.29168 0.0
O42 O 0.62586 0.58508 0.25541 0.0
N43 N 0.5739 0.60161 0.2186 0.0
C44 C 0.56181 0.59849 0.1798 0.0
C45 C 0.57106 0.61557 0.14969 0.0
C46 C 0.58966 0.62136 0.21151 0.0
N47 N 0.58862 0.62985 0.16974 0.0
C48 C 0.5695 0.54334 0.22517 0.0
C49 C 0.60884 0.52115 0.27045 0.0
C50 C 0.60135 0.51112 0.2298 0.0
C51 C 0.58073 0.52182 0.20825 0.0
C52 C 0.59693 0.54306 0.28632 0.0
N53 N 0.57888 0.55497 0.26165 0.0
H54 H 0.55342 0.55083 0.20818 0.0
H55 H 0.60295 0.55099 0.31731 0.0
H56 H 0.54589 0.58618 0.17409 0.0
H57 H 0.60021 0.63081 0.23705 0.0
O58 O 0.53099 0.58122 0.25557 0.0
O59 O 0.54346 0.61759 0.28444 0.0
O60 O 0.59712 0.60055 0.30258 0.0
C61 C 0.52546 0.60415 0.26674 0.0
H62 H 0.54855 0.58415 0.43914 0.0
H63 H 0.56465 0.61794 0.11615 0.0
H64 H 0.62429 0.51282 0.28871 0.0
H65 H 0.57366 0.51391 0.17779 0.0
Co66 Co 0.18273 0.81515 0.52664 0.0
C67 C 0.21287 0.78791 0.59776 0.0
C68 C 0.17361 0.79332 0.61181 0.0
C69 C 0.18421 0.78049 0.64621 0.0
N70 N 0.19139 0.79807 0.58124 0.0
N71 N 0.20886 0.777 0.63748 0.0
H72 H 0.23095 0.78818 0.58162 0.0
H73 H 0.15408 0.79906 0.60928 0.0
C74 C 0.17883 0.85428 0.59567 0.0
O75 O 0.20119 0.84674 0.60895 0.0
N76 N 0.17209 0.83193 0.47355 0.0
C77 C 0.1834 0.83297 0.43398 0.0
C78 C 0.16718 0.84476 0.40482 0.0
C79 C 0.1494 0.84282 0.46807 0.0
N80 N 0.1458 0.85093 0.42646 0.0
C81 C 0.23577 0.81661 0.51003 0.0
C82 C 0.24052 0.8684 0.5046 0.0
C83 C 0.26124 0.85338 0.4925 0.0
C84 C 0.25855 0.82709 0.49596 0.0
C85 C 0.21781 0.85708 0.5175 0.0
N86 N 0.2157 0.83143 0.52103 0.0
H87 H 0.23391 0.79633 0.5094 0.0
H88 H 0.20157 0.86904 0.52221 0.0
H89 H 0.20175 0.82516 0.4266 0.0
H90 H 0.13534 0.84362 0.49378 0.0
O91 O 0.19036 0.78526 0.49391 0.0
O92 O 0.15289 0.79361 0.52252 0.0
O93 O 0.16841 0.84393 0.5623 0.0
C94 C 0.16719 0.77828 0.50018 0.0
H95 H 0.17456 0.77469 0.6759 0.0
H96 H 0.17076 0.84819 0.37033 0.0
H97 H 0.24137 0.88878 0.50277 0.0
H98 H 0.27336 0.81441 0.48557 0.0
Co99 Co 0.94722 0.42697 0.77588 0.0
C100 C 0.97424 0.45779 0.84645 0.0
C101 C 0.96734 0.41899 0.86263 0.0
C102 C 0.9801 0.42982 0.89685 0.0
N103 N 0.96357 0.43633 0.83081 0.0
N104 N 0.98454 0.45418 0.88676 0.0
H105 H 0.97482 0.47557 0.8293 0.0
H106 H 0.96105 0.39958 0.86101 0.0
C107 C 0.90716 0.42569 0.84329 0.0
O108 O 0.91522 0.44825 0.85452 0.0
N109 N 0.93119 0.41564 0.72245 0.0
C110 C 0.93102 0.42664 0.68254 0.0
C111 C 0.91927 0.41049 0.65333 0.0
C112 C 0.91985 0.39309 0.71708 0.0
N113 N 0.91229 0.38935 0.67515 0.0
C114 C 0.94761 0.47951 0.75575 0.0
C115 C 0.8963 0.48451 0.74199 0.0
C116 C 0.91249 0.50396 0.72857 0.0
C117 C 0.93832 0.50156 0.73675 0.0
C118 C 0.90643 0.46249 0.76049 0.0
N119 N 0.93189 0.46011 0.76716 0.0
H120 H 0.96781 0.47737 0.75779 0.0
H121 H 0.89396 0.44666 0.7659 0.0
H122 H 0.93927 0.44483 0.67503 0.0
H123 H 0.91818 0.3793 0.74319 0.0
O124 O 0.97782 0.4335 0.74444 0.0
O125 O 0.9683 0.39669 0.77479 0.0
O126 O 0.91747 0.4141 0.81108 0.0
C127 C 0.98436 0.41045 0.75276 0.0
H128 H 0.98529 0.42055 0.92726 0.0
H129 H 0.91635 0.41402 0.61867 0.0
H130 H 0.87626 0.48546 0.73508 0.0
H131 H 0.95144 0.51607 0.72624 0.0
Co132 Co 0.68217 0.82545 0.98838 0.0
C133 C 0.70497 0.80707 0.90344 0.0
C134 C 0.67617 0.78275 0.92876 0.0
C135 C 0.6837 0.77354 0.88882 0.0
N136 N 0.68997 0.80338 0.93896 0.0
N137 N 0.70181 0.78882 0.87279 0.0
H138 H 0.71662 0.82351 0.89823 0.0
H139 H 0.66066 0.77541 0.94796 0.0
C140 C 0.68017 0.77444 0.03062 0.0
O141 O 0.7031 0.77036 0.01586 0.0
N142 N 0.67268 0.84696 0.03661 0.0
C143 C 0.68452 0.86778 0.05142 0.0
C144 C 0.66974 0.8786 0.08354 0.0
C145 C 0.65097 0.84541 0.05944 0.0
N146 N 0.64863 0.86451 0.08844 0.0
C147 C 0.73626 0.83124 0.9903 0.0
C148 C 0.74197 0.82206 0.07911 0.0
C149 C 0.76267 0.83128 0.05529 0.0
C150 C 0.75979 0.83513 0.01007 0.0
C151 C 0.71889 0.81784 0.05784 0.0
N152 N 0.71606 0.82264 0.01387 0.0
H153 H 0.73396 0.83731 0.95691 0.0
H154 H 0.70279 0.81249 0.07754 0.0
H155 H 0.70229 0.87488 0.03901 0.0
H156 H 0.63664 0.83127 0.05328 0.0
O157 O 0.68784 0.85494 0.95267 0.0
O158 O 0.65119 0.83496 0.95851 0.0
O159 O 0.66918 0.79545 0.02279 0.0
C160 C 0.66402 0.85387 0.94248 0.0
H161 H 0.67613 0.757 0.87264 0.0
H162 H 0.67405 0.89575 0.1013 0.0
H163 H 0.7433 0.81919 0.11429 0.0
H164 H 0.77503 0.84304 0.99072 0.0
Co165 Co 0.42939 0.42245 0.73176 0.0
C166 C 0.44742 0.44943 0.65136 0.0
C167 C 0.4685 0.4159 0.66649 0.0
C168 C 0.47759 0.42582 0.62798 0.0
N169 N 0.44967 0.43065 0.68119 0.0
N170 N 0.46432 0.44682 0.61829 0.0
H171 H 0.43338 0.46421 0.65322 0.0
H172 H 0.47485 0.39876 0.68234 0.0
C173 C 0.4671 0.41366 0.80401 0.0
O174 O 0.45181 0.4252 0.83128 0.0
N175 N 0.40952 0.41247 0.78277 0.0
C176 C 0.39721 0.42603 0.8137 0.0
C177 C 0.38816 0.40978 0.84552 0.0
C178 C 0.40757 0.38829 0.79639 0.0
N179 N 0.39467 0.38612 0.83428 0.0
C180 C 0.4103 0.47162 0.74877 0.0
C181 C 0.45355 0.49357 0.78212 0.0
C182 C 0.43107 0.50763 0.78159 0.0
C183 C 0.40947 0.49636 0.76377 0.0
C184 C 0.45364 0.46866 0.76601 0.0
N185 N 0.43176 0.45749 0.75195 0.0
H186 H 0.39298 0.46341 0.73683 0.0
H187 H 0.47127 0.45853 0.76503 0.0
H188 H 0.3955 0.44626 0.81483 0.0
H189 H 0.4163 0.37253 0.77976 0.0
O190 O 0.39914 0.42584 0.69707 0.0
O191 O 0.42047 0.3903 0.70394 0.0
O192 O 0.46125 0.41166 0.76339 0.0
C193 C 0.40111 0.40213 0.68742 0.0
H194 H 0.49295 0.41821 0.60874 0.0
H195 H 0.37766 0.41493 0.87464 0.0
H196 H 0.47088 0.50178 0.79449 0.0
H197 H 0.3916 0.50625 0.76283 0.0
Co198 Co 0.83224 0.18946 0.48357 0.0
C199 C 0.80864 0.20689 0.39939 0.0
C200 C 0.83846 0.23102 0.42209 0.0
C201 C 0.82992 0.24015 0.38257 0.0
N202 N 0.82502 0.21033 0.43294 0.0
N203 N 0.81121 0.22497 0.36819 0.0
H204 H 0.79573 0.19117 0.39698 0.0
H205 H 0.8539 0.23867 0.44113 0.0
C206 C 0.84517 0.22574 0.55797 0.0
O207 O 0.84037 0.20815 0.58723 0.0
N208 N 0.84079 0.1686 0.5338 0.0
C209 C 0.82599 0.15458 0.56053 0.0
C210 C 0.84108 0.14326 0.59203 0.0
C211 C 0.86451 0.16509 0.54864 0.0
N212 N 0.86521 0.14991 0.58406 0.0
C213 C 0.78096 0.17333 0.48053 0.0
C214 C 0.76316 0.19835 0.55355 0.0
C215 C 0.74829 0.17918 0.53492 0.0
C216 C 0.757 0.16774 0.49647 0.0
C217 C 0.78713 0.20377 0.53591 0.0
N218 N 0.79649 0.19015 0.50135 0.0
H219 H 0.78726 0.16287 0.45237 0.0
H220 H 0.79808 0.21822 0.5515 0.0
H221 H 0.80575 0.15263 0.55769 0.0
H222 H 0.88098 0.17409 0.5346 0.0
O223 O 0.83087 0.15931 0.44852 0.0
O224 O 0.86541 0.18191 0.4581 0.0
O225 O 0.84142 0.22155 0.51699 0.0
C226 C 0.85479 0.1619 0.44138 0.0
H227 H 0.8369 0.25681 0.3659 0.0
H228 H 0.83492 0.13082 0.61816 0.0
H229 H 0.75699 0.20816 0.5828 0.0
H230 H 0.74582 0.15358 0.47968 0.0
Co231 Co 0.08133 0.59288 0.23067 0.0
C232 C 0.06124 0.56846 0.14989 0.0
C233 C 0.04072 0.60172 0.16832 0.0
C234 C 0.0304 0.59237 0.13029 0.0
N235 N 0.05992 0.58671 0.18066 0.0
N236 N 0.04331 0.5715 0.11854 0.0
H237 H 0.07528 0.55365 0.15005 0.0
H238 H 0.03479 0.6185 0.18562 0.0
C239 C 0.04481 0.60146 0.3056 0.0
O240 O 0.06027 0.59017 0.33309 0.0
N241 N 0.10254 0.60035 0.28098 0.0
C242 C 0.12127 0.5868 0.29959 0.0
C243 C 0.13182 0.60075 0.33303 0.0
C244 C 0.10234 0.62247 0.30292 0.0
N245 N 0.11987 0.62317 0.3351 0.0
C246 C 0.09922 0.54221 0.23868 0.0
C247 C 0.05873 0.52153 0.28293 0.0
C248 C 0.0806 0.50686 0.27759 0.0
C249 C 0.10068 0.51745 0.25392 0.0
C250 C 0.05803 0.54645 0.26677 0.0
N251 N 0.07886 0.5571 0.2476 0.0
H252 H 0.1154 0.54972 0.22166 0.0
H253 H 0.04073 0.55692 0.27001 0.0
H254 H 0.12757 0.5684 0.28953 0.0
H255 H 0.08991 0.63796 0.29466 0.0
O256 O 0.11078 0.59087 0.19344 0.0
O257 O 0.08979 0.62605 0.2068 0.0
O258 O 0.05025 0.60296 0.26479 0.0
C259 C 0.10855 0.61498 0.18714 0.0
H260 H 0.01439 0.60025 0.11297 0.0
H261 H 0.14727 0.59485 0.35393 0.0
H262 H 0.04231 0.51388 0.29943 0.0
H263 H 0.11804 0.50715 0.24865 0.0
Co264 Co 0.83892 0.69877 0.51878 0.0
C265 C 0.80716 0.72303 0.58841 0.0
C266 C 0.84187 0.70702 0.61217 0.0
C267 C 0.83036 0.71922 0.64629 0.0
N268 N 0.82746 0.70936 0.57593 0.0
N269 N 0.80866 0.72935 0.63145 0.0
H270 H 0.79232 0.72908 0.56632 0.0
H271 H 0.86008 0.69786 0.61328 0.0
C272 C 0.85471 0.64476 0.53229 0.0
O273 O 0.84665 0.63939 0.49254 0.0
N274 N 0.8525 0.68811 0.4625 0.0
C275 C 0.84231 0.68673 0.42191 0.0
C276 C 0.86037 0.67764 0.39328 0.0
C277 C 0.87664 0.68055 0.45755 0.0
N278 N 0.88189 0.67356 0.41598 0.0
C279 C 0.79081 0.69494 0.47726 0.0
C280 C 0.77534 0.64975 0.51367 0.0
C281 C 0.76066 0.66089 0.48058 0.0
C282 C 0.7682 0.68418 0.46355 0.0
C283 C 0.79768 0.66166 0.52751 0.0
N284 N 0.80613 0.68305 0.50689 0.0
H285 H 0.79635 0.71251 0.46222 0.0
H286 H 0.80806 0.65346 0.55443 0.0
H287 H 0.82329 0.69179 0.41303 0.0
H288 H 0.89002 0.67994 0.48441 0.0
O289 O 0.83147 0.73152 0.49525 0.0
O290 O 0.8682 0.72108 0.52467 0.0
O291 O 0.85282 0.66718 0.54739 0.0
C292 C 0.85424 0.73811 0.50548 0.0
H293 H 0.83753 0.72081 0.67951 0.0
H294 H 0.85764 0.67384 0.35868 0.0
H295 H 0.76959 0.63209 0.52866 0.0
H296 H 0.75722 0.69356 0.43829 0.0
Co297 Co 0.05962 0.08396 0.76684 0.0
C298 C 0.03333 0.05077 0.83481 0.0
C299 C 0.02811 0.0905 0.84412 0.0
C300 C 0.01527 0.078 0.87661 0.0
N301 N 0.03931 0.07361 0.81735 0.0
N302 N 0.01855 0.05305 0.87086 0.0
H303 H 0.03996 0.03288 0.82271 0.0
H304 H 0.02965 0.11077 0.84098 0.0
C305 C 0.09456 0.08698 0.84273 0.0
O306 O 0.08614 0.06453 0.85383 0.0
N307 N 0.07923 0.09565 0.71724 0.0
C308 C 0.08389 0.08308 0.6797 0.0
C309 C 0.09623 0.09905 0.65113 0.0
C310 C 0.08838 0.11917 0.71082 0.0
N311 N 0.09894 0.12178 0.67061 0.0
C312 C 0.06261 0.03129 0.74801 0.0
C313 C 0.11449 0.02712 0.75209 0.0
C314 C 0.10043 0.00645 0.73648 0.0
C315 C 0.07406 0.00882 0.73508 0.0
C316 C 0.10228 0.04952 0.76376 0.0
N317 N 0.07654 0.05132 0.76251 0.0
H318 H 0.04238 0.03288 0.74468 0.0
H319 H 0.11375 0.06579 0.77135 0.0
H320 H 0.07803 0.06391 0.67299 0.0
H321 H 0.08684 0.13415 0.73479 0.0
O322 O 0.03204 0.07669 0.72785 0.0
O323 O 0.03805 0.11355 0.76056 0.0
O324 O 0.08602 0.09795 0.8083 0.0
C325 C 0.0245 0.09965 0.73423 0.0
H326 H 1.00516 0.08665 0.90353 0.0
H327 H 0.1018 0.09456 0.61785 0.0
H328 H 0.13487 0.02646 0.75401 0.0
H329 H 0.0622 0.99397 0.72204 0.0
Co330 Co 0.67339 0.31789 0.0166 0.0
C331 C 0.7038 0.29193 0.0863 0.0
C332 C 0.66779 0.30558 0.10833 0.0
C333 C 0.67904 0.29296 0.14241 0.0
N334 N 0.68319 0.30495 0.07324 0.0
N335 N 0.70159 0.2843 0.12863 0.0
H336 H 0.71962 0.28757 0.06516 0.0
H337 H 0.64931 0.31422 0.10874 0.0
C338 C 0.66202 0.37209 0.03504 0.0
O339 O 0.67273 0.3777 0.99733 0.0
N340 N 0.66132 0.33101 0.96057 0.0
C341 C 0.67112 0.33042 0.91964 0.0
C342 C 0.65358 0.34007 0.89054 0.0
C343 C 0.63783 0.34043 0.95532 0.0
N344 N 0.63265 0.3464 0.91313 0.0
C345 C 0.7218 0.32183 0.9767 0.0
C346 C 0.74108 0.36084 0.02641 0.0
C347 C 0.75543 0.35147 0.99121 0.0
C348 C 0.74558 0.33133 0.96698 0.0
C349 C 0.71713 0.35056 0.0352 0.0
N350 N 0.70707 0.33238 1.00848 0.0
H351 H 0.71527 0.30591 0.95793 0.0
H352 H 0.70686 0.35723 0.06348 0.0
H353 H 0.68921 0.32294 0.91043 0.0
H354 H 0.62451 0.34211 0.98206 0.0
O355 O 0.68019 0.28576 0.99065 0.0
O356 O 0.64318 0.29656 0.0185 0.0
O357 O 0.66037 0.34907 0.04734 0.0
C358 C 0.65708 0.27961 0.99907 0.0
H359 H 0.67126 0.29044 0.17501 0.0
H360 H 0.65607 0.34203 0.85542 0.0
H361 H 0.74834 0.37579 0.04711 0.0
H362 H 0.75586 0.32319 0.93974 0.0
Co363 Co 0.4523 0.9263 0.27053 0.0
C364 C 0.47695 0.9603 0.33939 0.0
C365 C 0.48171 0.92063 0.35035 0.0
C366 C 0.49427 0.93333 0.38289 0.0
N367 N 0.47107 0.93735 0.32241 0.0
N368 N 0.4913 0.95822 0.37601 0.0
H369 H 0.47077 0.97817 0.32642 0.0
H370 H 0.48018 0.90034 0.34767 0.0
C371 C 0.41536 0.92346 0.3431 0.0
O372 O 0.42281 0.94637 0.35327 0.0
N373 N 0.43417 0.91357 0.22021 0.0
C374 C 0.43148 0.9242 0.18029 0.0
C375 C 0.41955 0.90709 0.15307 0.0
C376 C 0.42408 0.89028 0.21684 0.0
N377 N 0.41498 0.88573 0.17613 0.0
C378 C 0.44874 0.97891 0.25154 0.0
C379 C 0.39673 0.98163 0.24727 0.0
C380 C 0.41104 1.00279 0.23483 0.0
C381 C 0.43737 1.00129 0.23796 0.0
C382 C 0.40894 0.95951 0.26096 0.0
N383 N 0.4347 0.95844 0.26374 0.0
H384 H 0.46909 0.97786 0.25096 0.0
H385 H 0.39766 0.94284 0.26676 0.0
H386 H 0.43827 0.94277 0.17131 0.0
H387 H 0.42455 0.87656 0.24322 0.0
O388 O 0.48068 0.93427 0.23396 0.0
O389 O 0.47494 0.89726 0.2662 0.0
O390 O 0.42524 0.91203 0.31036 0.0
C391 C 0.48895 0.91167 0.24138 0.0
H392 H 0.50419 0.9249 0.41035 0.0
H393 H 0.41495 0.91008 0.1188 0.0
H394 H 0.37637 0.98166 0.24416 0.0
H395 H 0.44925 0.0171 0.22881 0.0
Co396 Co 0.16485 0.32652 0.4798 0.0
C397 C 0.18863 0.30341 0.39873 0.0
C398 C 0.15059 0.29158 0.41078 0.0
C399 C 0.15879 0.28018 0.37294 0.0
N400 N 0.16923 0.30613 0.42721 0.0
N401 N 0.18272 0.28762 0.36532 0.0
H402 H 0.2068 0.31223 0.40218 0.0
H403 H 0.1321 0.28948 0.42539 0.0
C404 C 0.16592 0.27342 0.51094 0.0
O405 O 0.18587 0.27076 0.48577 0.0
N406 N 0.15887 0.3463 0.53164 0.0
C407 C 0.17233 0.36587 0.54734 0.0
C408 C 0.15994 0.37539 0.58349 0.0
C409 C 0.13858 0.3442 0.55794 0.0
N410 N 0.13866 0.36176 0.59001 0.0
C411 C 0.21765 0.3372 0.4731 0.0
C412 C 0.23142 0.31892 0.55473 0.0
C413 C 0.24909 0.333 0.53056 0.0
C414 C 0.24208 0.34139 0.48858 0.0
C415 C 0.20712 0.31485 0.53769 0.0
N416 N 0.2004 0.3239 0.49714 0.0
H417 H 0.21223 0.34621 0.44272 0.0
H418 H 0.19321 0.30625 0.55886 0.0
H419 H 0.1896 0.37303 0.53301 0.0
H420 H 0.12351 0.33079 0.55227 0.0
O421 O 0.16742 0.35687 0.44497 0.0
O422 O 0.13164 0.33662 0.45781 0.0
O423 O 0.15511 0.29496 0.5136 0.0
C424 C 0.14322 0.3555 0.43905 0.0
H425 H 0.14775 0.26775 0.35229 0.0
H426 H 0.16597 0.39139 0.60291 0.0
H427 H 0.23567 0.31266 0.5878 0.0
H428 H 0.25499 0.35232 0.46854 0.0
Co429 Co 0.94189 0.92948 0.24576 0.0
C430 C 0.9587 0.94538 0.15562 0.0
C431 C 0.98899 0.94461 0.20246 0.0
C432 C 0.99854 0.95215 0.16269 0.0
N433 N 0.96404 0.94002 0.19817 0.0
N434 N 0.97956 0.95266 0.13325 0.0
H435 H 0.94002 0.94432 0.14135 0.0
H436 H 0.99962 0.94342 0.23269 0.0
C437 C 0.97751 0.90899 0.31741 0.0
O438 O 0.95968 0.9092 0.34726 0.0
N439 N 0.91973 0.91868 0.29286 0.0
C440 C 0.90341 0.93267 0.31643 0.0
C441 C 0.89158 0.91719 0.34653 0.0
C442 C 0.91661 0.89477 0.3073 0.0
N443 N 0.9002 0.89343 0.34112 0.0
C444 C 0.93593 0.98285 0.24543 0.0
C445 C 0.94916 0.99188 0.33175 0.0
C446 C 0.93856 0.01155 0.30707 0.0
C447 C 0.93284 0.00707 0.26284 0.0
C448 C 0.95227 0.96803 0.31289 0.0
N449 N 0.94466 0.96339 0.27076 0.0
H450 H 0.9301 0.97943 0.21195 0.0
H451 H 0.95932 0.9533 0.33345 0.0
H452 H 0.90046 0.95273 0.31247 0.0
H453 H 0.92703 0.87887 0.29442 0.0
O454 O 0.91211 0.93501 0.21056 0.0
O455 O 0.93297 0.89889 0.21375 0.0
O456 O 0.97316 0.91661 0.2781 0.0
C457 C 0.91355 0.91144 0.19905 0.0
H458 H 0.01782 0.95789 0.15637 0.0
H459 H 0.87829 0.92316 0.37141 0.0
H460 H 0.95407 0.99462 0.36598 0.0
H461 H 0.92449 0.02169 0.2426 0.0
Co462 Co 0.34472 0.68294 0.98763 0.0
C463 C 0.32116 0.70255 0.90562 0.0
C464 C 0.35394 0.72359 0.92537 0.0
C465 C 0.34492 0.73375 0.88693 0.0
N466 N 0.33903 0.70415 0.93713 0.0
N467 N 0.32435 0.72052 0.87436 0.0
H468 H 0.3065 0.6883 0.90525 0.0
H469 H 0.37041 0.72981 0.9434 0.0
C470 C 0.35101 0.71981 0.06271 0.0
O471 O 0.33919 0.70418 0.08923 0.0
N472 N 0.35171 0.662 0.0386 0.0
C473 C 0.3378 0.64368 0.05774 0.0
C474 C 0.3509 0.63433 0.09328 0.0
C475 C 0.37325 0.66306 0.06228 0.0
N476 N 0.37318 0.64659 0.09623 0.0
C477 C 0.29427 0.66423 0.99345 0.0
C478 C 0.27218 0.70497 0.03448 0.0
C479 C 0.25794 0.68276 0.02904 0.0
C480 C 0.26925 0.66257 1.00696 0.0
C481 C 0.29738 0.70588 0.01998 0.0
N482 N 0.30871 0.68495 1.00258 0.0
H483 H 0.30231 0.64794 0.97769 0.0
H484 H 0.30756 0.72342 0.02306 0.0
H485 H 0.31958 0.63709 0.04714 0.0
H486 H 0.38868 0.67568 0.05448 0.0
O487 O 0.34339 0.65346 0.9506 0.0
O488 O 0.37831 0.67475 0.9652 0.0
O489 O 0.35385 0.71427 0.02214 0.0
C490 C 0.36751 0.65595 0.94502 0.0
H491 H 0.35279 0.74989 0.86993 0.0
H492 H 0.34432 0.6197 0.11532 0.0
H493 H 0.26396 0.72144 0.04981 0.0
H494 H 0.25928 0.64497 1.00173 0.0
Co495 Co 0.57267 0.08589 0.74125 0.0
C496 C 0.55309 0.06994 0.65292 0.0
C497 C 0.52529 0.06709 0.70391 0.0
C498 C 0.5145 0.05939 0.66521 0.0
N499 N 0.54939 0.07408 0.69634 0.0
N500 N 0.53194 0.06114 0.63321 0.0
H501 H 0.57083 0.07288 0.63611 0.0
H502 H 0.51625 0.06669 0.7357 0.0
C503 C 0.53833 0.10562 0.81525 0.0
O504 O 0.55689 0.10661 0.84374 0.0
N505 N 0.59589 0.09801 0.78573 0.0
C506 C 0.61372 0.08504 0.80782 0.0
C507 C 0.62548 0.10121 0.83683 0.0
C508 C 0.59808 0.12208 0.79964 0.0
N509 N 0.61531 0.12442 0.83207 0.0
C510 C 0.58007 0.03275 0.74125 0.0
C511 C 0.57236 0.02425 0.82977 0.0
C512 C 0.58196 1.00466 0.80388 0.0
C513 C 0.58489 0.00881 0.75875 0.0
C514 C 0.56731 0.04776 0.81077 0.0
N515 N 0.57222 0.05216 0.76736 0.0
H516 H 0.58389 0.03604 0.70685 0.0
H517 H 0.56117 0.0626 0.83195 0.0
H518 H 0.61768 0.06517 0.80376 0.0
H519 H 0.58634 0.1373 0.78761 0.0
O520 O 0.60125 0.08124 0.70307 0.0
O521 O 0.57921 0.11663 0.70788 0.0
O522 O 0.54197 0.0976 0.77606 0.0
C523 C 0.59843 0.10465 0.69119 0.0
H524 H 0.49559 0.05192 0.66126 0.0
H525 H 0.63973 0.09601 0.86066 0.0
H526 H 0.56972 0.02171 0.86479 0.0
H527 H 0.59238 0.9942 0.73765 0.0
H528 H 0.4935 0.10345 0.76896 0.0
H529 H 0.41443 0.16523 0.9645 0.0
H530 H 0.52462 0.12494 0.89469 0.0
H531 H 0.37853 0.13309 0.84996 0.0
H532 H 0.455 0.15203 0.93671 0.0
H533 H 0.4515 0.11574 0.79516 0.0
C534 C 0.49155 0.11068 0.80202 0.0
C535 C 0.51269 0.11304 0.8297 0.0
C536 C 0.43829 0.14772 0.91761 0.0
C537 C 0.46476 0.12726 0.85965 0.0
C538 C 0.41489 0.15512 0.93371 0.0
C539 C 0.3927 0.15006 0.90992 0.0
C540 C 0.43985 0.13523 0.87712 0.0
C541 C 0.39504 0.13752 0.86941 0.0
C542 C 0.46757 0.11767 0.81693 0.0
C543 C 0.50898 0.12267 0.87213 0.0
N544 N 0.41819 0.13053 0.85426 0.0
N545 N 0.48557 0.12943 0.88568 0.0
H546 H 0.63651 0.64437 0.18769 0.0
H547 H 0.62919 0.76995 0.0431 0.0
H548 H 0.57108 0.66397 0.11066 0.0
H549 H 0.69973 0.73249 0.07082 0.0
H550 H 0.60665 0.73504 0.07859 0.0
H551 H 0.65915 0.6805 0.15565 0.0
C552 C 0.62692 0.65638 0.16419 0.0
C553 C 0.60198 0.65115 0.15158 0.0
C554 C 0.62707 0.73453 0.07694 0.0
C555 C 0.62754 0.69248 0.11525 0.0
C556 C 0.63996 0.75448 0.05691 0.0
C557 C 0.66639 0.75407 0.05382 0.0
C558 C 0.6407 0.71423 0.09474 0.0
C559 C 0.67934 0.73348 0.07222 0.0
C560 C 0.63984 0.67685 0.1458 0.0
C561 C 0.59039 0.66717 0.12082 0.0
N562 N 0.66638 0.71442 0.09206 0.0
N563 N 0.60321 0.6872 0.10389 0.0
H564 H 0.10992 0.87651 0.47158 0.0
H565 H 0.01889 0.89896 0.26522 0.0
H566 H 0.12931 0.85103 0.34129 0.0
H567 H 0.99515 0.90242 0.40075 0.0
H568 H 0.0613 0.88654 0.29005 0.0
H569 H 0.06978 0.8918 0.44352 0.0
C570 C 0.10576 0.87403 0.43705 0.0
C571 C 0.12298 0.86202 0.409 0.0
C572 C 0.04674 0.89006 0.3142 0.0
C573 C 0.07686 0.87993 0.37633 0.0
C574 C 0.02257 0.89718 0.3001 0.0
C575 C 1.00337 0.90166 0.33093 0.0
C576 C 0.05174 0.88775 0.3594 0.0
C577 C 0.00923 0.89905 0.3757 0.0
C578 C 0.0828 0.88288 0.42097 0.0
C579 C 0.1167 0.86015 0.36418 0.0
N580 N 0.03283 0.89235 0.3885 0.0
N581 N 0.09407 0.86889 0.34924 0.0
H582 H 0.88587 0.35346 0.71973 0.0
H583 H 0.86141 0.2664 0.5087 0.0
H584 H 0.91179 0.37344 0.58977 0.0
H585 H 0.84815 0.24274 0.64253 0.0
H586 H 0.87643 0.30729 0.53611 0.0
H587 H 0.86846 0.31445 0.69032 0.0
C588 C 0.88803 0.34968 0.68502 0.0
C589 C 0.90065 0.36682 0.65741 0.0
C590 C 0.87016 0.29313 0.55939 0.0
C591 C 0.88029 0.32198 0.62319 0.0
C592 C 0.86153 0.2698 0.54377 0.0
C593 C 0.85354 0.251 0.57331 0.0
C594 C 0.87065 0.29778 0.60485 0.0
C595 C 0.85418 0.25653 0.61843 0.0
C596 C 0.87794 0.32736 0.66816 0.0
C597 C 0.90217 0.36097 0.6124 0.0
N598 N 0.86256 0.27933 0.63273 0.0
N599 N 0.89221 0.33903 0.59674 0.0
H600 H 0.61392 0.83135 0.12076 0.0
H601 H 0.52484 0.94198 0.20642 0.0
H602 H 0.63336 0.91046 0.11723 0.0
H603 H 0.50897 0.86362 0.23412 0.0
H604 H 0.56458 0.92991 0.17316 0.0
H605 H 0.57552 0.84183 0.16173 0.0
C606 C 0.61018 0.85089 0.12865 0.0
C607 C 0.62689 0.87007 0.11525 0.0
C608 C 0.55257 0.91526 0.1866 0.0
C609 C 0.58306 0.88213 0.16221 0.0
C610 C 0.52974 0.92214 0.20553 0.0
C611 C 0.51347 0.90374 0.22287 0.0
C612 C 0.55929 0.8897 0.18442 0.0
C613 C 0.52099 0.87838 0.22108 0.0
C614 C 0.58833 0.85682 0.15225 0.0
C615 C 0.62124 0.89501 0.12705 0.0
N616 N 0.54334 0.87204 0.20181 0.0
N617 N 0.59977 0.90029 0.1495 0.0
H618 H 0.38186 0.26221 0.02047 0.0
H619 H 0.38196 0.34151 0.7982 0.0
H620 H 0.3313 0.24673 0.91264 0.0
H621 H 0.39498 0.37823 0.92244 0.0
H622 H 0.37227 0.30223 0.83727 0.0
H623 H 0.39572 0.30104 0.98228 0.0
C624 C 0.37393 0.26688 0.98866 0.0
C625 C 0.35537 0.25147 0.96963 0.0
C626 C 0.37732 0.31888 0.85596 0.0
C627 C 0.37122 0.29509 0.92602 0.0
C628 C 0.38291 0.34119 0.83374 0.0
C629 C 0.38909 0.36306 0.85725 0.0
C630 C 0.37838 0.31828 0.90202 0.0
C631 C 0.38996 0.36176 0.90331 0.0
C632 C 0.38167 0.28898 0.96715 0.0
C633 C 0.3455 0.25827 0.92854 0.0
N634 N 0.38477 0.33964 0.92434 0.0
N635 N 0.35365 0.27948 0.90798 0.0
H636 H 0.00742 0.08545 0.65446 0.0
H637 H 0.872 0.14731 0.6723 0.0
H638 H 0.98963 0.13417 0.76344 0.0
H639 H 0.90932 0.13586 0.54828 0.0
H640 H 0.91173 0.13662 0.71053 0.0
H641 H 0.96819 0.09806 0.61853 0.0
C642 C 0.99523 0.09892 0.67072 0.0
C643 C 1.00171 0.10891 0.7118 0.0
C644 C 0.91111 0.13651 0.67496 0.0
C645 C 0.95659 0.12297 0.67134 0.0
C646 C 0.88852 0.14232 0.6533 0.0
C647 C 0.88758 0.14237 0.60725 0.0
C648 C 0.93253 0.13017 0.65019 0.0
C649 C 0.90943 0.1361 0.58384 0.0
C650 C 0.9729 0.10611 0.65019 0.0
C651 C 0.9853 0.12627 0.73152 0.0
N652 N 0.93096 0.13005 0.60554 0.0
N653 N 0.96323 0.13259 0.71127 0.0
H654 H 0.16476 0.63357 0.37397 0.0
H655 H 0.11827 0.76246 0.48496 0.0
H656 H 0.08829 0.66067 0.36171 0.0
H657 H 0.19597 0.73911 0.47363 0.0
H658 H 0.10529 0.72303 0.44842 0.0
H659 H 0.17484 0.66979 0.41968 0.0
C660 C 0.14998 0.647 0.38121 0.0
C661 C 0.12566 0.64408 0.36368 0.0
C662 C 0.12515 0.72657 0.45426 0.0
C663 C 0.13721 0.68603 0.41581 0.0
C664 C 0.13252 0.74895 0.47523 0.0
C665 C 0.15821 0.75409 0.48196 0.0
C666 C 0.14365 0.70927 0.44055 0.0
C667 C 0.17596 0.73605 0.46868 0.0
C668 C 0.1558 0.66784 0.40714 0.0
C669 C 0.1074 0.66238 0.37389 0.0
N670 N 0.16836 0.71454 0.4486 0.0
N671 N 0.11355 0.68265 0.3992 0.0
H672 H 0.91707 0.64798 0.46351 0.0
H673 H 0.00788 0.62486 0.25736 0.0
H674 H 0.90011 0.67399 0.3323 0.0
H675 H 0.02598 0.60165 0.38973 0.0
H676 H 0.96802 0.64213 0.2838 0.0
H677 H 0.9566 0.63036 0.43679 0.0
C678 C 0.92171 0.65022 0.42911 0.0
C679 C 0.90522 0.66278 0.40022 0.0
C680 C 0.98069 0.63325 0.30708 0.0
C681 C 0.95056 0.64214 0.36915 0.0
C682 C 1.0035 0.62335 0.29202 0.0
C683 C 0.0204 0.61174 0.32136 0.0
C684 C 0.97461 0.63159 0.35189 0.0
C685 C 0.01359 0.61039 0.36588 0.0
C686 C 0.94428 0.63995 0.4138 0.0
C687 C 0.9121 0.66439 0.35574 0.0
N688 N 0.99125 0.62019 0.37975 0.0
N689 N 0.93425 0.65426 0.34162 0.0
H690 H 0.08652 0.17072 0.68776 0.0
H691 H 0.18296 0.22488 0.50788 0.0
H692 H 0.13522 0.12447 0.60808 0.0
H693 H 0.12761 0.27161 0.57234 0.0
H694 H 0.16748 0.18854 0.54884 0.0
H695 H 0.10324 0.20839 0.65081 0.0
C696 C 0.10087 0.16847 0.66282 0.0
C697 C 0.10939 0.14433 0.6509 0.0
C698 C 0.15867 0.20671 0.55414 0.0
C699 C 0.12849 0.18736 0.60829 0.0
C700 C 0.16754 0.22756 0.53074 0.0
C701 C 0.15655 0.25141 0.5365 0.0
C702 C 0.13863 0.20956 0.58385 0.0
C703 C 0.13661 0.25358 0.5667 0.0
C704 C 0.11028 0.18999 0.64151 0.0
C705 C 0.12782 0.14261 0.61794 0.0
N706 N 0.12828 0.23292 0.58925 0.0
N707 N 0.13671 0.16376 0.59788 0.0
H708 H 0.48637 0.41618 0.88745 0.0
H709 H 0.61426 0.34279 0.82961 0.0
H710 H 0.50413 0.38923 0.75734 0.0
H711 H 0.59739 0.3735 0.95749 0.0
H712 H 0.57425 0.35958 0.80225 0.0
H713 H 0.52692 0.4003 0.9135 0.0
C714 C 0.49878 0.40693 0.86429 0.0
C715 C 0.49175 0.40406 0.82008 0.0
C716 C 0.57932 0.36265 0.8363 0.0
C717 C 0.53841 0.38574 0.84986 0.0
C718 C 0.60228 0.35316 0.85193 0.0
C719 C 0.60928 0.35658 0.89608 0.0
C720 C 0.56319 0.37569 0.86495 0.0
C721 C 0.5927 0.36997 0.92347 0.0
C722 C 0.52199 0.39786 0.87923 0.0
C723 C 0.50871 0.39188 0.7917 0.0
N724 N 0.57049 0.37897 0.9075 0.0
N725 N 0.53122 0.38315 0.80707 0.0
H726 H 0.39165 0.84892 0.22367 0.0
H727 H 0.37324 0.75804 0.01578 0.0
H728 H 0.41424 0.86862 0.09178 0.0
H729 H 0.3492 0.73837 0.14696 0.0
H730 H 0.38795 0.79876 0.04312 0.0
H731 H 0.37564 0.80861 0.19635 0.0
C732 C 0.39332 0.8448 0.18899 0.0
C733 C 0.40445 0.86228 0.16008 0.0
C734 C 0.37944 0.78557 0.06597 0.0
C735 C 0.38592 0.81605 0.12844 0.0
C736 C 0.37103 0.76224 0.05037 0.0
C737 C 0.35995 0.74465 0.07909 0.0
C738 C 0.37683 0.79148 0.11071 0.0
C739 C 0.35761 0.7513 0.12357 0.0
C740 C 0.38404 0.82178 0.17336 0.0
C741 C 0.40564 0.85596 0.11531 0.0
N742 N 0.366 0.77414 0.138 0.0
N743 N 0.3966 0.83337 0.10095 0.0
H744 H 0.10305 0.32877 0.62008 0.0
H745 H 0.0255 0.43884 0.73599 0.0
H746 H 0.12827 0.40604 0.63107 0.0
H747 H 0.99953 0.36163 0.73486 0.0
H748 H 0.06503 0.4256 0.70325 0.0
H749 H 0.06685 0.33885 0.66671 0.0
C750 C 0.10108 0.34782 0.63235 0.0
C751 C 0.11868 0.36666 0.62104 0.0
C752 C 0.05088 0.4114 0.71035 0.0
C753 C 0.07738 0.37821 0.67482 0.0
C754 C 0.02823 0.41897 0.72903 0.0
C755 C 0.00914 0.40131 0.73768 0.0
C756 C 0.05451 0.38594 0.69951 0.0
C757 C 0.01382 0.37581 0.72857 0.0
C758 C 0.08047 0.3535 0.65922 0.0
C759 C 0.11539 0.39084 0.63884 0.0
N760 N 0.03599 0.36888 0.70935 0.0
N761 N 0.09508 0.39592 0.66443 0.0
H762 H 0.93104 0.85347 0.3575 0.0
H763 H 0.82674 0.78075 0.49804 0.0
H764 H 0.85776 0.88407 0.3883 0.0
H765 H 0.90219 0.75217 0.48062 0.0
H766 H 0.83914 0.81999 0.46226 0.0
H767 H 0.92188 0.81711 0.40448 0.0
C768 C 0.91294 0.85249 0.37386 0.0
C769 C 0.89501 0.87179 0.36852 0.0
C770 C 0.85316 0.80536 0.46667 0.0
C771 C 0.88461 0.83036 0.42304 0.0
C772 C 0.84611 0.78297 0.48728 0.0
C773 C 0.86348 0.76323 0.49215 0.0
C774 C 0.87772 0.80797 0.45004 0.0
C775 C 0.88831 0.76706 0.47771 0.0
C776 C 0.90785 0.83183 0.4011 0.0
C777 C 0.87216 0.86974 0.39151 0.0
N778 N 0.89463 0.7889 0.45665 0.0
N779 N 0.86758 0.84936 0.4175 0.0
H780 H 0.51292 0.65255 0.24244 0.0
H781 H 0.38069 0.60487 0.14668 0.0
H782 H 0.48163 0.57826 0.26264 0.0
H783 H 0.41106 0.67897 0.11953 0.0
H784 H 0.41495 0.59751 0.19807 0.0
H785 H 0.47318 0.66543 0.20697 0.0
C786 C 0.49743 0.63923 0.24053 0.0
C787 C 0.50048 0.61431 0.25515 0.0
C788 C 0.4141 0.61547 0.18109 0.0
C789 C 0.45545 0.6286 0.21426 0.0
C790 C 0.39437 0.61974 0.15171 0.0
C791 C 0.39296 0.64251 0.12817 0.0
C792 C 0.4328 0.63399 0.18701 0.0
C793 C 0.4116 0.66091 0.1361 0.0
C794 C 0.47488 0.64646 0.21993 0.0
C795 C 0.48006 0.59761 0.25142 0.0
N796 N 0.43085 0.65618 0.16459 0.0
N797 N 0.45854 0.60498 0.23103 0.0
H798 H 0.58283 0.16299 0.84917 0.0
H799 H 0.68394 0.2366 0.99577 0.0
H800 H 0.65771 0.13564 0.87824 0.0
H801 H 0.60987 0.26636 0.96852 0.0
H802 H 0.67242 0.19751 0.95905 0.0
H803 H 0.59066 0.19945 0.89636 0.0
C804 C 0.601 0.1647 0.86513 0.0
C805 C 0.61976 0.14625 0.85928 0.0
C806 C 0.65849 0.21238 0.96139 0.0
C807 C 0.6286 0.18777 0.91419 0.0
C808 C 0.66503 0.23467 0.98257 0.0
C809 C 0.64783 0.25469 0.98495 0.0
C810 C 0.63463 0.21011 0.94174 0.0
C811 C 0.62358 0.25124 0.96752 0.0
C812 C 0.60533 0.18543 0.89248 0.0
C813 C 0.64266 0.14924 0.88184 0.0
N814 N 0.61777 0.22943 0.946 0.0
N815 N 0.64644 0.16961 0.90809 0.0
H816 H 0.30349 0.27525 0.17819 0.0
H817 H 0.17844 0.24545 0.3148 0.0
H818 H 0.25386 0.21309 0.14797 0.0
H819 H 0.22316 0.31296 0.33187 0.0
H820 H 0.20524 0.23348 0.2532 0.0
H821 H 0.2737 0.28967 0.23375 0.0
C822 C 0.28619 0.26471 0.18318 0.0
C823 C 0.28119 0.24284 0.15875 0.0
C824 C 0.20911 0.25096 0.27033 0.0
C825 C 0.24697 0.25915 0.22249 0.0
C826 C 0.19375 0.25789 0.30552 0.0
C827 C 0.19849 0.28029 0.32885 0.0
C828 C 0.2295 0.26644 0.25837 0.0
C829 C 0.21894 0.29535 0.31551 0.0
C830 C 0.26915 0.27298 0.21482 0.0
C831 C 0.25834 0.2301 0.16599 0.0
N832 N 0.23369 0.28812 0.28129 0.0
N833 N 0.24216 0.2383 0.19758 0.0
H834 H 0.45641 0.4974 0.61246 0.0
H835 H 0.52694 0.50752 0.38015 0.0
H836 H 0.48152 0.43298 0.53804 0.0
H837 H 0.50661 0.57152 0.45974 0.0
H838 H 0.5043 0.47985 0.43172 0.0
H839 H 0.46852 0.52485 0.55109 0.0
C840 C 0.46412 0.48901 0.583 0.0
C841 C 0.46836 0.46293 0.58069 0.0
C842 C 0.50459 0.5 0.43763 0.0
C843 C 0.48251 0.49414 0.51048 0.0
C844 C 0.51738 0.51574 0.40807 0.0
C845 C 0.51901 0.54173 0.41616 0.0
C846 C 0.49329 0.51041 0.47534 0.0
C847 C 0.50632 0.5515 0.45288 0.0
C848 C 0.47118 0.50467 0.54804 0.0
C849 C 0.47851 0.45306 0.54168 0.0
N850 N 0.49421 0.53584 0.48125 0.0
N851 N 0.48543 0.46866 0.50833 0.0
H852 H 0.19946 0.73994 0.69667 0.0
H853 H 0.33837 0.74442 0.79902 0.0
H854 H 0.25924 0.78653 0.64458 0.0
H855 H 0.27509 0.70763 0.86154 0.0
H856 H 0.31127 0.75553 0.73721 0.0
H857 H 0.22857 0.72332 0.75155 0.0
C858 C 0.21876 0.74666 0.69671 0.0
C859 C 0.2268 0.76499 0.66637 0.0
C860 C 0.30334 0.74493 0.76435 0.0
C861 C 0.26039 0.74581 0.72914 0.0
C862 C 0.31878 0.73867 0.79989 0.0
C863 C 0.30897 0.72534 0.83606 0.0
C864 C 0.27785 0.73776 0.76471 0.0
C865 C 0.28355 0.71784 0.8345 0.0
C866 C 0.2354 0.73707 0.72801 0.0
C867 C 0.25223 0.77244 0.66728 0.0
N868 N 0.26885 0.7243 0.79958 0.0
N869 N 0.26808 0.76298 0.69845 0.0
H870 H 0.02105 0.4447 0.94681 0.0
H871 H 0.0198 0.58503 0.04258 0.0
H872 H 0.97651 0.50486 0.89107 0.0
H873 H 0.05531 0.52194 0.10776 0.0
H874 H 0.00823 0.55739 0.98186 0.0
H875 H 0.03837 0.47421 1.00031 0.0
C876 C 0.01494 0.46417 0.94577 0.0
C877 C 0.99697 0.47223 0.91483 0.0
C878 C 0.01866 0.54962 0.00934 0.0
C879 C 0.01692 0.50626 0.976 0.0
C880 C 0.02517 0.56537 0.04426 0.0
C881 C 0.03827 0.55577 0.08085 0.0
C882 C 0.02532 0.52402 0.01079 0.0
C883 C 0.04529 0.53024 0.08035 0.0
C884 C 0.02492 0.48104 0.97627 0.0
C885 C 0.99029 0.49785 0.9143 0.0
N886 N 0.03857 0.51523 0.04605 0.0
N887 N 1.0001 0.51392 0.94474 0.0
H888 H 0.82144 0.76504 0.69019 0.0
H889 H 0.68472 0.76567 0.79874 0.0
H890 H 0.75744 0.72716 0.6329 0.0
H891 H 0.74915 0.80478 0.85261 0.0
H892 H 0.70926 0.7559 0.7331 0.0
H893 H 0.79365 0.78463 0.74411 0.0
C894 C 0.80138 0.76115 0.68873 0.0
C895 C 0.79169 0.74427 0.65751 0.0
C896 C 0.71796 0.76685 0.75905 0.0
C897 C 0.7597 0.76633 0.71955 0.0
C898 C 0.704 0.77232 0.79673 0.0
C899 C 0.71502 0.78573 0.83169 0.0
C900 C 0.74321 0.77472 0.75624 0.0
C901 C 0.73988 0.7944 0.8266 0.0
C902 C 0.78551 0.77232 0.7195 0.0
C903 C 0.76557 0.74009 0.65651 0.0
N904 N 0.75321 0.78849 0.78988 0.0
N905 N 0.75048 0.75073 0.68761 0.0
H906 H 0.75279 0.28706 0.12746 0.0
H907 H 0.76336 0.20886 0.35204 0.0
H908 H 0.69028 0.24973 0.19077 0.0
H909 H 0.82597 0.24852 0.29301 0.0
H910 H 0.73788 0.21839 0.2872 0.0
H911 H 0.7815 0.26786 0.18146 0.0
C912 C 0.74522 0.27446 0.15222 0.0
C913 C 0.71915 0.27027 0.1552 0.0
C914 C 0.75727 0.22485 0.28827 0.0
C915 C 0.7516 0.24849 0.21711 0.0
C916 C 0.77187 0.21928 0.32525 0.0
C917 C 0.79674 0.22822 0.32838 0.0
C918 C 0.76757 0.23951 0.2541 0.0
C919 C 0.8067 0.24178 0.29258 0.0
C920 C 0.76153 0.26364 0.18319 0.0
C921 C 0.71022 0.25387 0.18798 0.0
N922 N 0.79203 0.2472 0.25715 0.0
N923 N 0.72635 0.24378 0.21784 0.0
H924 H 0.94476 0.97942 0.08704 0.0
H925 H 0.04265 0.00961 0.89308 0.0
H926 H 0.01908 0.94689 0.07812 0.0
H927 H 0.97491 0.05239 0.91675 0.0
H928 H 0.03023 0.98022 0.95161 0.0
H929 H 0.95145 0.99995 0.01563 0.0
C930 C 0.96226 0.97621 0.06964 0.0
C931 C 0.98152 0.96172 0.0887 0.0
C932 C 0.01793 0.99587 0.94362 0.0
C933 C 0.98944 0.98523 1.00738 0.0
C934 C 0.02494 0.01252 0.91002 0.0
C935 C 0.00993 0.03361 0.90047 0.0
C936 C 0.99568 1.00029 0.96759 0.0
C937 C 0.98723 0.03661 0.92368 0.0
C938 C 0.96618 0.98806 0.02907 0.0
C939 C 1.00394 0.95831 0.06489 0.0
N940 N 0.98089 0.02029 0.95635 0.0
N941 N 0.00737 0.97012 0.02569 0.0
H942 H 0.53597 0.95962 0.41847 0.0
H943 H 0.49013 0.06534 0.58301 0.0
H944 H 0.46711 1.00132 0.39908 0.0
H945 H 0.56617 0.03665 0.58265 0.0
H946 H 0.4824 0.04457 0.51256 0.0
H947 H 0.54869 0.98971 0.47517 0.0
C948 C 0.52368 0.97535 0.42592 0.0
C949 C 0.50036 0.9779 0.4045 0.0
C950 C 0.50092 0.04312 0.52744 0.0
C951 C 0.51461 0.0123 0.46961 0.0
C952 C 0.50529 0.0549 0.56768 0.0
C953 C 0.52873 0.05246 0.58878 0.0
C954 C 0.52 0.0284 0.50844 0.0
C955 C 0.54786 0.03901 0.56739 0.0
C956 C 0.53097 0.99257 0.45813 0.0
C957 C 0.48524 0.99874 0.41485 0.0
N958 N 0.54295 0.02711 0.52871 0.0
N959 N 0.49243 0.01493 0.44723 0.0
H960 H 0.10808 0.13673 0.85225 0.0
H961 H 0.2436 0.10999 0.94748 0.0
H962 H 0.13108 0.06114 0.88665 0.0
H963 H 0.2013 0.17505 0.99108 0.0
H964 H 0.20521 0.09321 0.91426 0.0
H965 H 0.14533 0.15324 0.89137 0.0
C966 C 0.12094 0.12366 0.86803 0.0
C967 C 0.11647 0.09758 0.8665 0.0
C968 C 0.20446 0.11113 0.9313 0.0
C969 C 0.15906 0.11617 0.91014 0.0
C970 C 0.22635 0.1207 0.95075 0.0
C971 C 0.22603 0.14417 0.97234 0.0
C972 C 0.18216 0.12531 0.93238 0.0
C973 C 0.20289 0.15725 0.97401 0.0
C974 C 0.14204 0.13306 0.89041 0.0
C975 C 0.13371 0.08141 0.88742 0.0
N976 N 0.182 0.1478 0.95384 0.0
N977 N 0.1544 0.09094 0.90795 0.0
H978 H 0.60832 0.4618 0.25601 0.0
H979 H 0.6636 0.42296 0.02018 0.0
H980 H 0.62481 0.51416 0.1514 0.0
H981 H 0.64352 0.36809 0.11928 0.0
H982 H 0.65239 0.45663 0.07082 0.0
H983 H 0.62492 0.42724 0.21023 0.0
C984 C 0.61596 0.46602 0.22383 0.0
C985 C 0.61527 0.49072 0.20729 0.0
C986 C 0.65042 0.43724 0.08163 0.0
C987 C 0.63375 0.45161 0.15471 0.0
C988 C 0.65676 0.41795 0.05258 0.0
C989 C 0.65439 0.39261 0.06531 0.0
C990 C 0.64158 0.43128 0.12394 0.0
C991 C 0.64551 0.38737 0.10792 0.0
C992 C 0.62519 0.44636 0.19757 0.0
C993 C 0.62503 0.4953 0.16522 0.0
N994 N 0.63939 0.40654 0.13569 0.0
N995 N 0.6337 0.47596 0.14035 0.0
H996 H 0.26609 0.89735 0.44406 0.0
H997 H 0.40359 0.87342 0.35561 0.0
H998 H 0.3103 0.83533 0.49537 0.0
H999 H 0.37709 0.94874 0.38286 0.0
H1000 H 0.3665 0.85633 0.3945 0.0
H1001 H 0.30403 0.91432 0.40989 0.0
C1002 C 0.28366 0.88735 0.44884 0.0
C1003 C 0.28466 0.86473 0.47311 0.0
C1004 C 0.36898 0.87658 0.39198 0.0
C1005 C 0.32809 0.88375 0.4319 0.0
C1006 C 0.38998 0.8863 0.36972 0.0
C1007 C 0.39344 0.9125 0.36631 0.0
C1008 C 0.35106 0.89321 0.40966 0.0
C1009 C 0.37527 0.92842 0.38512 0.0
C1010 C 0.30531 0.89702 0.42879 0.0
C1011 C 0.3082 0.85247 0.4764 0.0
N1012 N 0.35472 0.91854 0.40557 0.0
N1013 N 0.32889 0.86198 0.45566 0.0
H1014 H 0.87588 0.59997 0.50816 0.0
H1015 H 0.87511 0.5383 0.74682 0.0
H1016 H 0.85346 0.64268 0.62217 0.0
H1017 H 0.92877 0.51704 0.64724 0.0
H1018 H 0.86087 0.57326 0.69927 0.0
H1019 H 0.88956 0.56559 0.55659 0.0
C1020 C 0.87383 0.60208 0.54338 0.0
C1021 C 0.86365 0.6242 0.56123 0.0
C1022 C 0.8758 0.56092 0.68803 0.0
C1023 C 0.87882 0.58488 0.61663 0.0
C1024 C 0.8838 0.54102 0.71497 0.0
C1025 C 0.90323 0.52502 0.70093 0.0
C1026 C 0.88691 0.56432 0.6465 0.0
C1027 C 0.91392 0.52919 0.65937 0.0
C1028 C 0.88168 0.58252 0.57095 0.0
C1029 C 0.86144 0.626 0.60712 0.0
N1030 N 0.90551 0.54831 0.6335 0.0
N1031 N 0.86878 0.60648 0.63329 0.0
H1032 H 0.81227 0.82106 0.03502 0.0
H1033 H 0.86621 0.92982 0.18698 0.0
H1034 H 0.76593 0.86247 0.12612 0.0
H1035 H 0.91246 0.8651 0.15733 0.0
H1036 H 0.83017 0.90875 0.15312 0.0
H1037 H 0.85016 0.8396 0.0694 0.0
C1038 C 0.81011 0.83385 0.06248 0.0
C1039 C 0.78595 0.84011 0.078 0.0
C1040 C 0.84821 0.89917 0.15388 0.0
C1041 C 0.82896 0.86179 0.11641 0.0
C1042 C 0.8689 0.91126 0.17289 0.0
C1043 C 0.89245 0.89922 0.17499 0.0
C1044 C 0.85105 0.87497 0.13598 0.0
C1045 C 0.89463 0.87505 0.15642 0.0
C1046 C 0.83168 0.84436 0.08202 0.0
C1047 C 0.78417 0.85687 0.1135 0.0
N1048 N 0.8742 0.86372 0.1374 0.0
N1049 N 0.80533 0.86735 0.1311 0.0
H1050 H 0.45076 0.52552 0.85962 0.0
H1051 H 0.35026 0.63414 0.87073 0.0
H1052 H 0.40639 0.54858 0.74764 0.0
H1053 H 0.41557 0.63676 0.95516 0.0
H1054 H 0.37057 0.60147 0.82696 0.0
H1055 H 0.43944 0.56521 0.89657 0.0
C1056 C 0.43915 0.53913 0.84239 0.0
C1057 C 0.42912 0.53345 0.80077 0.0
C1058 C 0.38069 0.60934 0.8547 0.0
C1059 C 0.41573 0.57849 0.84313 0.0
C1060 C 0.36904 0.62793 0.87978 0.0
C1061 C 0.38128 0.63812 0.91652 0.0
C1062 C 0.40456 0.60025 0.867 0.0
C1063 C 0.40562 0.62943 0.92682 0.0
C1064 C 0.43261 0.5617 0.86359 0.0
C1065 C 0.41405 0.5518 0.78015 0.0
N1066 N 0.41636 0.61062 0.90259 0.0
N1067 N 0.40749 0.57319 0.80178 0.0
H1068 H 0.73391 0.13005 0.54328 0.0
H1069 H 0.60638 0.15558 0.67742 0.0
H1070 H 0.70989 0.20533 0.57726 0.0
H1071 H 0.63487 0.08209 0.64249 0.0
H1072 H 0.64206 0.17503 0.63797 0.0
H1073 H 0.69613 0.11311 0.57702 0.0
C1074 C 0.72052 0.14313 0.55744 0.0
C1075 C 0.72503 0.16927 0.55668 0.0
C1076 C 0.64032 0.15467 0.63871 0.0
C1077 C 0.68141 0.14969 0.5967 0.0
C1078 C 0.6199 0.14357 0.66093 0.0
C1079 C 0.61767 0.11716 0.6633 0.0
C1080 C 0.65853 0.1392 0.6187 0.0
C1081 C 0.63584 0.1025 0.64174 0.0
C1082 C 0.6989 0.13337 0.57708 0.0
C1083 C 0.70723 0.18507 0.57703 0.0
N1084 N 0.65544 0.11369 0.62059 0.0
N1085 N 0.68614 0.17504 0.59616 0.0
H1086 H 0.06342 0.4897 0.35811 0.0
H1087 H 0.16167 0.37904 0.36704 0.0
H1088 H 0.10469 0.4653 0.24361 0.0
H1089 H 0.09561 0.37573 0.44936 0.0
H1090 H 0.14227 0.41308 0.32471 0.0
H1091 H 0.0749 0.45004 0.39501 0.0
C1092 C 0.07446 0.47591 0.34035 0.0
C1093 C 0.0835 0.48124 0.29785 0.0
C1094 C 0.13184 0.40478 0.35172 0.0
C1095 C 0.09715 0.43613 0.34041 0.0
C1096 C 0.14295 0.38542 0.37598 0.0
C1097 C 0.13019 0.37456 0.41164 0.0
C1098 C 0.108 0.41396 0.3638 0.0
C1099 C 0.10596 0.38352 0.42183 0.0
C1100 C 0.0811 0.45332 0.36159 0.0
C1101 C 0.09791 0.46255 0.27681 0.0
N1102 N 0.09575 0.40305 0.39844 0.0
N1103 N 0.10461 0.44115 0.2985 0.0
H1104 H 0.61616 0.63133 0.35852 0.0
H1105 H 0.75815 0.61412 0.4433 0.0
H1106 H 0.66987 0.58273 0.29409 0.0
H1107 H 0.71295 0.67956 0.47226 0.0
H1108 H 0.7232 0.5971 0.39906 0.0
H1109 H 0.64913 0.64454 0.40981 0.0
C1110 C 0.6349 0.62344 0.35511 0.0
C1111 C 0.64031 0.60602 0.32173 0.0
C1112 C 0.72086 0.61503 0.41558 0.0
C1113 C 0.67805 0.62081 0.38086 0.0
C1114 C 0.74062 0.62457 0.44119 0.0
C1115 C 0.73831 0.64821 0.4614 0.0
C1116 C 0.69859 0.62915 0.41069 0.0
C1117 C 0.71542 0.66125 0.45711 0.0
C1118 C 0.6537 0.63099 0.38444 0.0
C1119 C 0.66494 0.5964 0.31902 0.0
N1120 N 0.69646 0.65158 0.43215 0.0
N1121 N 0.6829 0.60386 0.34831 0.0
H1122 H 0.14688 1.00265 0.69573 0.0
H1123 H 0.12845 0.86548 0.60143 0.0
H1124 H 0.0829 0.95718 0.7354 0.0
H1125 H 0.20216 0.89281 0.6388 0.0
H1126 H 0.10942 0.9021 0.63831 0.0
H1127 H 0.16602 0.96522 0.66363 0.0
C1128 C 0.13688 0.98489 0.69838 0.0
C1129 C 0.11306 0.98338 0.71867 0.0
C1130 C 0.12975 0.89994 0.63844 0.0
C1131 C 0.13468 0.94058 0.67991 0.0
C1132 C 0.14059 0.87921 0.61729 0.0
C1133 C 0.16688 0.87612 0.6173 0.0
C1134 C 0.14539 0.91797 0.65855 0.0
C1135 C 0.18179 0.89439 0.63836 0.0
C1136 C 0.14782 0.96355 0.67956 0.0
C1137 C 0.10096 0.95966 0.71944 0.0
N1138 N 0.17086 0.91469 0.65776 0.0
N1139 N 0.11177 0.93929 0.69993 0.0
H1140 H 0.76891 0.40162 0.98872 0.0
H1141 H 0.89019 0.37671 0.84058 0.0
H1142 H 0.7981 0.32708 0.96293 0.0
H1143 H 0.87551 0.4487 0.90157 0.0
H1144 H 0.85493 0.35852 0.88197 0.0
H1145 H 0.80705 0.41973 0.9558 0.0
C1146 C 0.78348 0.38905 0.97686 0.0
C1147 C 0.78005 0.36277 0.97805 0.0
C1148 C 0.85952 0.37828 0.88642 0.0
C1149 C 0.82342 0.38338 0.93934 0.0
C1150 C 0.87955 0.38869 0.86261 0.0
C1151 C 0.88581 0.41426 0.86759 0.0
C1152 C 0.84544 0.39362 0.91496 0.0
C1153 C 0.87141 0.42888 0.89675 0.0
C1154 C 0.80516 0.39941 0.95774 0.0
C1155 C 0.79956 0.34745 0.96173 0.0
N1156 N 0.85181 0.4184 0.91911 0.0
N1157 N 0.8202 0.35796 0.9426 0.0
H1158 H 0.36725 0.02658 0.26058 0.0
H1159 H 0.37664 0.13277 0.07294 0.0
H1160 H 0.42709 0.03096 0.16473 0.0
H1161 H 0.31646 0.13001 0.16838 0.0
H1162 H 0.39552 0.09568 0.10724 0.0
H1163 H 0.34815 0.06435 0.22783 0.0
C1164 C 0.37635 0.03543 0.23265 0.0
C1165 C 0.39895 0.02566 0.21568 0.0
C1166 C 0.37821 0.10319 0.1208 0.0
C1167 C 0.37727 0.06892 0.17817 0.0
C1168 C 0.36742 0.12444 0.10122 0.0
C1169 C 0.34489 0.13457 0.11774 0.0
C1170 C 0.36642 0.09186 0.15721 0.0
C1171 C 0.33383 0.12287 0.15449 0.0
C1172 C 0.3655 0.05705 0.21411 0.0
C1173 C 0.40996 0.03804 0.17957 0.0
N1174 N 0.34467 0.10212 0.17293 0.0
N1175 N 0.39904 0.05895 0.16211 0.0
H1176 H 0.27119 0.37943 0.52326 0.0
H1177 H 0.38935 0.35136 0.68089 0.0
H1178 H 0.28213 0.30673 0.58464 0.0
H1179 H 0.36768 0.42489 0.63302 0.0
H1180 H 0.35348 0.33282 0.64035 0.0
H1181 H 0.30979 0.39439 0.55725 0.0
C1182 C 0.28189 0.36641 0.5434 0.0
C1183 C 0.27337 0.34162 0.5506 0.0
C1184 C 0.35676 0.35297 0.6386 0.0
C1185 C 0.3178 0.35906 0.59097 0.0
C1186 C 0.37728 0.36352 0.66145 0.0
C1187 C 0.38144 0.3897 0.66039 0.0
C1188 C 0.34057 0.36877 0.61429 0.0
C1189 C 0.36512 0.40463 0.63504 0.0
C1190 C 0.30393 0.3751 0.56326 0.0
C1191 C 0.28788 0.32601 0.57827 0.0
N1192 N 0.34551 0.39399 0.61317 0.0
N1193 N 0.30939 0.33498 0.59748 0.0
H1194 H 0.84008 0.11329 0.43489 0.0
H1195 H 0.94542 0.06077 0.27926 0.0
H1196 H 0.90188 0.16285 0.40128 0.0
H1197 H 0.91245 0.0163 0.38334 0.0
H1198 H 0.92733 0.09908 0.31282 0.0
H1199 H 0.86316 0.07795 0.40394 0.0
C1200 C 0.85848 0.11682 0.42062 0.0
C1201 C 0.86905 0.14112 0.42057 0.0
C1202 C 0.92447 0.08092 0.32847 0.0
C1203 C 0.89558 0.10047 0.38475 0.0
C1204 C 0.93465 0.05912 0.30936 0.0
C1205 C 0.93048 0.03534 0.32867 0.0
C1206 C 0.90949 0.07869 0.36629 0.0
C1207 C 0.91638 0.03422 0.3676 0.0
C1208 C 0.87172 0.09654 0.40327 0.0
C1209 C 0.8931 0.14439 0.40196 0.0
N1210 N 0.90611 0.05549 0.38471 0.0
N1211 N 0.90556 0.12425 0.38429 0.0
H1212 H 0.1327 0.59741 0.11508 0.0
H1213 H 0.23948 0.69983 0.10842 0.0
H1214 H 0.12657 0.66339 0.19702 0.0
H1215 H 0.21729 0.65798 0.99305 0.0
H1216 H 0.19982 0.68711 0.14395 0.0
H1217 H 0.16586 0.61839 0.07275 0.0
C1218 C 0.13825 0.61644 0.1239 0.0
C1219 C 0.12691 0.62873 0.15946 0.0
C1220 C 0.20355 0.68109 0.1106 0.0
C1221 C 0.16524 0.6527 0.11174 0.0
C1222 C 0.22612 0.68844 0.09016 0.0
C1223 C 0.2321 0.67955 0.04791 0.0
C1224 C 0.18706 0.66447 0.08886 0.0
C1225 C 0.21399 0.66468 0.02612 0.0
C1226 C 0.15709 0.62844 0.09965 0.0
C1227 C 0.13478 0.65338 0.16955 0.0
N1228 N 0.19261 0.65725 0.04709 0.0
N1229 N 0.15382 0.66446 0.14624 0.0
H1230 H 0.57217 0.95526 0.78141 0.0
H1231 H 0.68305 0.90078 0.9282 0.0
H1232 H 0.61468 1.00101 0.87231 0.0
H1233 H 0.61724 0.85497 0.90257 0.0
H1234 H 0.66191 0.93676 0.89431 0.0
H1235 H 0.59154 0.91717 0.81375 0.0
C1236 C 0.58543 0.95723 0.80831 0.0
C1237 C 0.59172 0.98124 0.82452 0.0
C1238 C 0.65213 0.91881 0.89592 0.0
C1239 C 0.61426 0.93815 0.86051 0.0
C1240 C 0.66424 0.89818 0.91495 0.0
C1241 C 0.65187 0.87483 0.91826 0.0
C1242 C 0.62759 0.91605 0.87928 0.0
C1243 C 0.62741 0.87269 0.90074 0.0
C1244 C 0.59639 0.93558 0.82669 0.0
C1245 C 0.60907 0.98284 0.85925 0.0
N1246 N 0.61604 0.89306 0.88175 0.0
N1247 N 0.61993 0.96164 0.87573 0.0
loop_
_geom_bond_atom_site_label_1
_geom_bond_atom_site_label_2
_geom_bond_distance
_geom_bond_site_symmetry_2
_ccdc_geom_bond_type
Co0 N4 2.148 . S
Co0 N10 2.128 1_554 S
Co0 N20 2.194 1_554 S
Co0 O25 2.351 1_554 S
Co0 O26 2.155 . S
Co0 O27 2.096 . S
C1 N4 1.301 . S
C1 N5 1.328 . S
C1 H6 0.930 . S
C2 C3 1.333 . S
C2 N4 1.317 . S
C2 H7 0.930 . S
C3 C2 1.333 . S
C3 N5 1.350 . S
C3 H29 0.931 . S
N4 Co0 2.148 . S
N4 C1 1.301 . S
N4 C2 1.317 . S
N5 C1 1.328 . S
N5 C3 1.350 . S
H6 C1 0.930 . S
H7 C2 0.930 . S
C8 O9 1.224 . S
C8 O27 1.247 . S
O9 C8 1.224 . S
N10 Co0 2.128 1_556 S
N10 C11 1.355 . S
N10 C13 1.311 . S
C11 N10 1.355 . S
C11 C12 1.363 . S
C11 H23 0.929 . S
C12 C11 1.363 . S
C12 N14 1.375 . S
C12 H30 0.931 . S
C13 N10 1.311 . S
C13 N14 1.347 . S
C13 H24 0.929 . S
N14 C12 1.375 . S
N14 C13 1.347 . S
C15 C18 1.365 . S
C15 N20 1.328 . S
C15 H21 0.929 . S
C16 C17 1.362 . S
C16 C19 1.378 . S
C16 H31 0.929 . S
C17 C16 1.362 . S
C17 C18 1.366 . S
C18 C15 1.365 . S
C18 C17 1.366 . S
C18 H32 0.930 . S
C19 C16 1.378 . S
C19 N20 1.315 . S
C19 H22 0.930 1_556 S
N20 Co0 2.194 1_556 S
N20 C15 1.328 . S
N20 C19 1.315 . S
H21 C15 0.929 . S
H22 C19 0.930 1_554 S
H23 C11 0.929 . S
H24 C13 0.929 . S
O25 Co0 2.351 1_556 S
O25 C28 1.244 . S
O26 Co0 2.155 . S
O26 C28 1.240 1_554 S
O27 Co0 2.096 . S
O27 C8 1.247 . S
C28 O25 1.244 . S
C28 O26 1.240 1_556 S
H29 C3 0.931 . S
H30 C12 0.931 . S
H31 C16 0.929 . S
H32 C18 0.930 . S
Co33 N37 2.148 . S
Co33 N43 2.128 . S
Co33 N53 2.194 . S
Co33 O58 2.351 . S
Co33 O59 2.155 . S
Co33 O60 2.096 . S
C34 N37 1.301 . S
C34 N38 1.328 . S
C34 H39 0.930 . S
C35 C36 1.333 . S
C35 N37 1.317 . S
C35 H40 0.930 . S
C36 C35 1.333 . S
C36 N38 1.350 . S
C36 H62 0.931 . S
N37 Co33 2.148 . S
N37 C34 1.301 . S
N37 C35 1.317 . S
N38 C34 1.328 . S
N38 C36 1.350 . S
H39 C34 0.930 . S
H40 C35 0.930 . S
C41 O42 1.224 . S
C41 O60 1.247 . S
O42 C41 1.224 . S
N43 Co33 2.128 . S
N43 C44 1.355 . S
N43 C46 1.311 . S
C44 N43 1.355 . S
C44 C45 1.363 . S
C44 H56 0.929 . S
C45 C44 1.363 . S
C45 N47 1.375 . S
C45 H63 0.931 . S
C46 N43 1.311 . S
C46 N47 1.347 . S
C46 H57 0.929 . S
N47 C45 1.375 . S
N47 C46 1.347 . S
C48 C51 1.365 . S
C48 N53 1.328 . S
C48 H54 0.929 . S
C49 C50 1.362 . S
C49 C52 1.378 . S
C49 H64 0.929 . S
C50 C49 1.362 . S
C50 C51 1.366 . S
C51 C48 1.365 . S
C51 C50 1.366 . S
C51 H65 0.930 . S
C52 C49 1.378 . S
C52 N53 1.315 . S
C52 H55 0.930 . S
N53 Co33 2.194 . S
N53 C48 1.328 . S
N53 C52 1.315 . S
H54 C48 0.929 . S
H55 C52 0.930 . S
H56 C44 0.929 . S
H57 C46 0.929 . S
O58 Co33 2.351 . S
O58 C61 1.244 . S
O59 Co33 2.155 . S
O59 C61 1.240 . S
O60 Co33 2.096 . S
O60 C41 1.247 . S
C61 O58 1.244 . S
C61 O59 1.240 . S
H62 C36 0.931 . S
H63 C45 0.931 . S
H64 C49 0.929 . S
H65 C51 0.930 . S
Co66 N70 2.148 . S
Co66 N76 2.128 . S
Co66 N86 2.194 . S
Co66 O91 2.351 . S
Co66 O92 2.155 . S
Co66 O93 2.096 . S
C67 N70 1.301 . S
C67 N71 1.328 . S
C67 H72 0.930 . S
C68 C69 1.333 . S
C68 N70 1.317 . S
C68 H73 0.930 . S
C69 C68 1.333 . S
C69 N71 1.350 . S
C69 H95 0.931 . S
N70 Co66 2.148 . S
N70 C67 1.301 . S
N70 C68 1.317 . S
N71 C67 1.328 . S
N71 C69 1.350 . S
H72 C67 0.930 . S
H73 C68 0.930 . S
C74 O75 1.224 . S
C74 O93 1.247 . S
O75 C74 1.224 . S
N76 Co66 2.128 . S
N76 C77 1.355 . S
N76 C79 1.311 . S
C77 N76 1.355 . S
C77 C78 1.363 . S
C77 H89 0.929 . S
C78 C77 1.363 . S
C78 N80 1.375 . S
C78 H96 0.931 . S
C79 N76 1.311 . S
C79 N80 1.347 . S
C79 H90 0.929 . S
N80 C78 1.375 . S
N80 C79 1.347 . S
C81 C84 1.365 . S
C81 N86 1.328 . S
C81 H87 0.929 . S
C82 C83 1.362 . S
C82 C85 1.378 . S
C82 H97 0.929 . S
C83 C82 1.362 . S
C83 C84 1.366 . S
C84 C81 1.365 . S
C84 C83 1.366 . S
C84 H98 0.930 . S
C85 C82 1.378 . S
C85 N86 1.315 . S
C85 H88 0.930 . S
N86 Co66 2.194 . S
N86 C81 1.328 . S
N86 C85 1.315 . S
H87 C81 0.929 . S
H88 C85 0.930 . S
H89 C77 0.929 . S
H90 C79 0.929 . S
O91 Co66 2.351 . S
O91 C94 1.244 . S
O92 Co66 2.155 . S
O92 C94 1.240 . S
O93 Co66 2.096 . S
O93 C74 1.247 . S
C94 O91 1.244 . S
C94 O92 1.240 . S
H95 C69 0.931 . S
H96 C78 0.931 . S
H97 C82 0.929 . S
H98 C84 0.930 . S
Co99 N103 2.148 . S
Co99 N109 2.128 . S
Co99 N119 2.194 . S
Co99 O124 2.351 . S
Co99 O125 2.155 . S
Co99 O126 2.096 . S
C100 N103 1.301 . S
C100 N104 1.328 . S
C100 H105 0.930 . S
C101 C102 1.333 . S
C101 N103 1.317 . S
C101 H106 0.930 . S
C102 C101 1.333 . S
C102 N104 1.350 . S
C102 H128 0.931 . S
N103 Co99 2.148 . S
N103 C100 1.301 . S
N103 C101 1.317 . S
N104 C100 1.328 . S
N104 C102 1.350 . S
H105 C100 0.930 . S
H106 C101 0.930 . S
C107 O108 1.224 . S
C107 O126 1.247 . S
O108 C107 1.224 . S
N109 Co99 2.128 . S
N109 C110 1.355 . S
N109 C112 1.311 . S
C110 N109 1.355 . S
C110 C111 1.363 . S
C110 H122 0.929 . S
C111 C110 1.363 . S
C111 N113 1.375 . S
C111 H129 0.931 . S
C112 N109 1.311 . S
C112 N113 1.347 . S
C112 H123 0.929 . S
N113 C111 1.375 . S
N113 C112 1.347 . S
C114 C117 1.365 . S
C114 N119 1.328 . S
C114 H120 0.929 . S
C115 C116 1.362 . S
C115 C118 1.378 . S
C115 H130 0.929 . S
C116 C115 1.362 . S
C116 C117 1.366 . S
C117 C114 1.365 . S
C117 C116 1.366 . S
C117 H131 0.930 . S
C118 C115 1.378 . S
C118 N119 1.315 . S
C118 H121 0.930 . S
N119 Co99 2.194 . S
N119 C114 1.328 . S
N119 C118 1.315 . S
H120 C114 0.929 . S
H121 C118 0.930 . S
H122 C110 0.929 . S
H123 C112 0.929 . S
O124 Co99 2.351 . S
O124 C127 1.244 . S
O125 Co99 2.155 . S
O125 C127 1.240 . S
O126 Co99 2.096 . S
O126 C107 1.247 . S
C127 O124 1.244 . S
C127 O125 1.240 . S
H128 C102 0.931 . S
H129 C111 0.931 . S
H130 C115 0.929 . S
H131 C117 0.930 . S
Co132 N136 2.148 . S
Co132 N142 2.128 1_556 S
Co132 N152 2.194 1_556 S
Co132 O157 2.351 . S
Co132 O158 2.155 . S
Co132 O159 2.096 . S
C133 N136 1.301 . S
C133 N137 1.328 . S
C133 H138 0.930 . S
C134 C135 1.333 . S
C134 N136 1.317 . S
C134 H139 0.930 . S
C135 C134 1.333 . S
C135 N137 1.350 . S
C135 H161 0.931 . S
N136 Co132 2.148 . S
N136 C133 1.301 . S
N136 C134 1.317 . S
N137 C133 1.328 . S
N137 C135 1.350 . S
H138 C133 0.930 . S
H139 C134 0.930 . S
C140 O141 1.224 . S
C140 O159 1.247 1_554 S
O141 C140 1.224 . S
N142 Co132 2.128 1_554 S
N142 C143 1.355 . S
N142 C145 1.311 . S
C143 N142 1.355 . S
C143 C144 1.363 . S
C143 H155 0.929 . S
C144 C143 1.363 . S
C144 N146 1.375 . S
C144 H162 0.931 . S
C145 N142 1.311 . S
C145 N146 1.347 . S
C145 H156 0.929 . S
N146 C144 1.375 . S
N146 C145 1.347 . S
C147 C150 1.365 . S
C147 N152 1.328 . S
C147 H153 0.929 1_554 S
C148 C149 1.362 . S
C148 C151 1.378 . S
C148 H163 0.929 . S
C149 C148 1.362 . S
C149 C150 1.366 . S
C150 C147 1.365 . S
C150 C149 1.366 . S
C150 H164 0.930 . S
C151 C148 1.378 . S
C151 N152 1.315 . S
C151 H154 0.930 . S
N152 Co132 2.194 1_554 S
N152 C147 1.328 . S
N152 C151 1.315 . S
H153 C147 0.929 1_556 S
H154 C151 0.930 . S
H155 C143 0.929 . S
H156 C145 0.929 . S
O157 Co132 2.351 . S
O157 C160 1.244 . S
O158 Co132 2.155 . S
O158 C160 1.240 . S
O159 Co132 2.096 . S
O159 C140 1.247 1_556 S
C160 O157 1.244 . S
C160 O158 1.240 . S
H161 C135 0.931 . S
H162 C144 0.931 . S
H163 C148 0.929 . S
H164 C150 0.930 . S
Co165 N169 2.148 . S
Co165 N175 2.128 . S
Co165 N185 2.194 . S
Co165 O190 2.351 . S
Co165 O191 2.155 . S
Co165 O192 2.096 . S
C166 N169 1.301 . S
C166 N170 1.328 . S
C166 H171 0.930 . S
C167 C168 1.333 . S
C167 N169 1.317 . S
C167 H172 0.930 . S
C168 C167 1.333 . S
C168 N170 1.350 . S
C168 H194 0.931 . S
N169 Co165 2.148 . S
N169 C166 1.301 . S
N169 C167 1.317 . S
N170 C166 1.328 . S
N170 C168 1.350 . S
H171 C166 0.930 . S
H172 C167 0.930 . S
C173 O174 1.224 . S
C173 O192 1.247 . S
O174 C173 1.224 . S
N175 Co165 2.128 . S
N175 C176 1.355 . S
N175 C178 1.311 . S
C176 N175 1.355 . S
C176 C177 1.363 . S
C176 H188 0.929 . S
C177 C176 1.363 . S
C177 N179 1.375 . S
C177 H195 0.931 . S
C178 N175 1.311 . S
C178 N179 1.347 . S
C178 H189 0.929 . S
N179 C177 1.375 . S
N179 C178 1.347 . S
C180 C183 1.365 . S
C180 N185 1.328 . S
C180 H186 0.929 . S
C181 C182 1.362 . S
C181 C184 1.378 . S
C181 H196 0.929 . S
C182 C181 1.362 . S
C182 C183 1.366 . S
C183 C180 1.365 . S
C183 C182 1.366 . S
C183 H197 0.930 . S
C184 C181 1.378 . S
C184 N185 1.315 . S
C184 H187 0.930 . S
N185 Co165 2.194 . S
N185 C180 1.328 . S
N185 C184 1.315 . S
H186 C180 0.929 . S
H187 C184 0.930 . S
H188 C176 0.929 . S
H189 C178 0.929 . S
O190 Co165 2.351 . S
O190 C193 1.244 . S
O191 Co165 2.155 . S
O191 C193 1.240 . S
O192 Co165 2.096 . S
O192 C173 1.247 . S
C193 O190 1.244 . S
C193 O191 1.240 . S
H194 C168 0.931 . S
H195 C177 0.931 . S
H196 C181 0.929 . S
H197 C183 0.930 . S
Co198 N202 2.148 . S
Co198 N208 2.128 . S
Co198 N218 2.194 . S
Co198 O223 2.351 . S
Co198 O224 2.155 . S
Co198 O225 2.096 . S
C199 N202 1.301 . S
C199 N203 1.328 . S
C199 H204 0.930 . S
C200 C201 1.333 . S
C200 N202 1.317 . S
C200 H205 0.930 . S
C201 C200 1.333 . S
C201 N203 1.350 . S
C201 H227 0.931 . S
N202 Co198 2.148 . S
N202 C199 1.301 . S
N202 C200 1.317 . S
N203 C199 1.328 . S
N203 C201 1.350 . S
H204 C199 0.930 . S
H205 C200 0.930 . S
C206 O207 1.224 . S
C206 O225 1.247 . S
O207 C206 1.224 . S
N208 Co198 2.128 . S
N208 C209 1.355 . S
N208 C211 1.311 . S
C209 N208 1.355 . S
C209 C210 1.363 . S
C209 H221 0.929 . S
C210 C209 1.363 . S
C210 N212 1.375 . S
C210 H228 0.931 . S
C211 N208 1.311 . S
C211 N212 1.347 . S
C211 H222 0.929 . S
N212 C210 1.375 . S
N212 C211 1.347 . S
C213 C216 1.365 . S
C213 N218 1.328 . S
C213 H219 0.929 . S
C214 C215 1.362 . S
C214 C217 1.378 . S
C214 H229 0.929 . S
C215 C214 1.362 . S
C215 C216 1.366 . S
C216 C213 1.365 . S
C216 C215 1.366 . S
C216 H230 0.930 . S
C217 C214 1.378 . S
C217 N218 1.315 . S
C217 H220 0.930 . S
N218 Co198 2.194 . S
N218 C213 1.328 . S
N218 C217 1.315 . S
H219 C213 0.929 . S
H220 C217 0.930 . S
H221 C209 0.929 . S
H222 C211 0.929 . S
O223 Co198 2.351 . S
O223 C226 1.244 . S
O224 Co198 2.155 . S
O224 C226 1.240 . S
O225 Co198 2.096 . S
O225 C206 1.247 . S
C226 O223 1.244 . S
C226 O224 1.240 . S
H227 C201 0.931 . S
H228 C210 0.931 . S
H229 C214 0.929 . S
H230 C216 0.930 . S
Co231 N235 2.148 . S
Co231 N241 2.128 . S
Co231 N251 2.194 . S
Co231 O256 2.351 . S
Co231 O257 2.155 . S
Co231 O258 2.096 . S
C232 N235 1.301 . S
C232 N236 1.328 . S
C232 H237 0.930 . S
C233 C234 1.333 . S
C233 N235 1.317 . S
C233 H238 0.930 . S
C234 C233 1.333 . S
C234 N236 1.350 . S
C234 H260 0.931 . S
N235 Co231 2.148 . S
N235 C232 1.301 . S
N235 C233 1.317 . S
N236 C232 1.328 . S
N236 C234 1.350 . S
H237 C232 0.930 . S
H238 C233 0.930 . S
C239 O240 1.224 . S
C239 O258 1.247 . S
O240 C239 1.224 . S
N241 Co231 2.128 . S
N241 C242 1.355 . S
N241 C244 1.311 . S
C242 N241 1.355 . S
C242 C243 1.363 . S
C242 H254 0.929 . S
C243 C242 1.363 . S
C243 N245 1.375 . S
C243 H261 0.931 . S
C244 N241 1.311 . S
C244 N245 1.347 . S
C244 H255 0.929 . S
N245 C243 1.375 . S
N245 C244 1.347 . S
C246 C249 1.365 . S
C246 N251 1.328 . S
C246 H252 0.929 . S
C247 C248 1.362 . S
C247 C250 1.378 . S
C247 H262 0.929 . S
C248 C247 1.362 . S
C248 C249 1.366 . S
C249 C246 1.365 . S
C249 C248 1.366 . S
C249 H263 0.930 . S
C250 C247 1.378 . S
C250 N251 1.315 . S
C250 H253 0.930 . S
N251 Co231 2.194 . S
N251 C246 1.328 . S
N251 C250 1.315 . S
H252 C246 0.929 . S
H253 C250 0.930 . S
H254 C242 0.929 . S
H255 C244 0.929 . S
O256 Co231 2.351 . S
O256 C259 1.244 . S
O257 Co231 2.155 . S
O257 C259 1.240 . S
O258 Co231 2.096 . S
O258 C239 1.247 . S
C259 O256 1.244 . S
C259 O257 1.240 . S
H260 C234 0.931 . S
H261 C243 0.931 . S
H262 C247 0.929 . S
H263 C249 0.930 . S
Co264 N268 2.148 . S
Co264 N274 2.128 . S
Co264 N284 2.194 . S
Co264 O289 2.351 . S
Co264 O290 2.155 . S
Co264 O291 2.096 . S
C265 N268 1.301 . S
C265 N269 1.328 . S
C265 H270 0.930 . S
C266 C267 1.333 . S
C266 N268 1.317 . S
C266 H271 0.930 . S
C267 C266 1.333 . S
C267 N269 1.350 . S
C267 H293 0.931 . S
N268 Co264 2.148 . S
N268 C265 1.301 . S
N268 C266 1.317 . S
N269 C265 1.328 . S
N269 C267 1.350 . S
H270 C265 0.930 . S
H271 C266 0.930 . S
C272 O273 1.224 . S
C272 O291 1.247 . S
O273 C272 1.224 . S
N274 Co264 2.128 . S
N274 C275 1.355 . S
N274 C277 1.311 . S
C275 N274 1.355 . S
C275 C276 1.363 . S
C275 H287 0.929 . S
C276 C275 1.363 . S
C276 N278 1.375 . S
C276 H294 0.931 . S
C277 N274 1.311 . S
C277 N278 1.347 . S
C277 H288 0.929 . S
N278 C276 1.375 . S
N278 C277 1.347 . S
C279 C282 1.365 . S
C279 N284 1.328 . S
C279 H285 0.929 . S
C280 C281 1.362 . S
C280 C283 1.378 . S
C280 H295 0.929 . S
C281 C280 1.362 . S
C281 C282 1.366 . S
C282 C279 1.365 . S
C282 C281 1.366 . S
C282 H296 0.930 . S
C283 C280 1.378 . S
C283 N284 1.315 . S
C283 H286 0.930 . S
N284 Co264 2.194 . S
N284 C279 1.328 . S
N284 C283 1.315 . S
H285 C279 0.929 . S
H286 C283 0.930 . S
H287 C275 0.929 . S
H288 C277 0.929 . S
O289 Co264 2.351 . S
O289 C292 1.244 . S
O290 Co264 2.155 . S
O290 C292 1.240 . S
O291 Co264 2.096 . S
O291 C272 1.247 . S
C292 O289 1.244 . S
C292 O290 1.240 . S
H293 C267 0.931 . S
H294 C276 0.931 . S
H295 C280 0.929 . S
H296 C282 0.930 . S
Co297 N301 2.148 . S
Co297 N307 2.128 . S
Co297 N317 2.194 . S
Co297 O322 2.351 . S
Co297 O323 2.155 . S
Co297 O324 2.096 . S
C298 N301 1.301 . S
C298 N302 1.328 . S
C298 H303 0.930 . S
C299 C300 1.333 . S
C299 N301 1.317 . S
C299 H304 0.930 . S
C300 C299 1.333 . S
C300 N302 1.350 . S
C300 H326 0.931 . S
N301 Co297 2.148 . S
N301 C298 1.301 . S
N301 C299 1.317 . S
N302 C298 1.328 . S
N302 C300 1.350 . S
H303 C298 0.930 . S
H304 C299 0.930 . S
C305 O306 1.224 . S
C305 O324 1.247 . S
O306 C305 1.224 . S
N307 Co297 2.128 . S
N307 C308 1.355 . S
N307 C310 1.311 . S
C308 N307 1.355 . S
C308 C309 1.363 . S
C308 H320 0.929 . S
C309 C308 1.363 . S
C309 N311 1.375 . S
C309 H327 0.931 . S
C310 N307 1.311 . S
C310 N311 1.347 . S
C310 H321 0.929 . S
N311 C309 1.375 . S
N311 C310 1.347 . S
C312 C315 1.365 . S
C312 N317 1.328 . S
C312 H318 0.929 . S
C313 C314 1.362 . S
C313 C316 1.378 . S
C313 H328 0.929 . S
C314 C313 1.362 . S
C314 C315 1.366 . S
C315 C312 1.365 . S
C315 C314 1.366 . S
C315 H329 0.930 . S
C316 C313 1.378 . S
C316 N317 1.315 . S
C316 H319 0.930 . S
N317 Co297 2.194 . S
N317 C312 1.328 . S
N317 C316 1.315 . S
H318 C312 0.929 . S
H319 C316 0.930 . S
H320 C308 0.929 . S
H321 C310 0.929 . S
O322 Co297 2.351 . S
O322 C325 1.244 . S
O323 Co297 2.155 . S
O323 C325 1.240 . S
O324 Co297 2.096 . S
O324 C305 1.247 . S
C325 O322 1.244 . S
C325 O323 1.240 . S
H326 C300 0.931 . S
H327 C309 0.931 . S
H328 C313 0.929 . S
H329 C315 0.930 . S
Co330 N334 2.148 . S
Co330 N340 2.128 1_554 S
Co330 N350 2.194 1_554 S
Co330 O355 2.351 1_554 S
Co330 O356 2.155 . S
Co330 O357 2.096 . S
C331 N334 1.301 . S
C331 N335 1.328 . S
C331 H336 0.930 . S
C332 C333 1.333 . S
C332 N334 1.317 . S
C332 H337 0.930 . S
C333 C332 1.333 . S
C333 N335 1.350 . S
C333 H359 0.931 . S
N334 Co330 2.148 . S
N334 C331 1.301 . S
N334 C332 1.317 . S
N335 C331 1.328 . S
N335 C333 1.350 . S
H336 C331 0.930 . S
H337 C332 0.930 . S
C338 O339 1.224 . S
C338 O357 1.247 . S
O339 C338 1.224 . S
N340 Co330 2.128 1_556 S
N340 C341 1.355 . S
N340 C343 1.311 . S
C341 N340 1.355 . S
C341 C342 1.363 . S
C341 H353 0.929 . S
C342 C341 1.363 . S
C342 N344 1.375 . S
C342 H360 0.931 . S
C343 N340 1.311 . S
C343 N344 1.347 . S
C343 H354 0.929 . S
N344 C342 1.375 . S
N344 C343 1.347 . S
C345 C348 1.365 . S
C345 N350 1.328 . S
C345 H351 0.929 . S
C346 C347 1.362 . S
C346 C349 1.378 . S
C346 H361 0.929 . S
C347 C346 1.362 . S
C347 C348 1.366 . S
C348 C345 1.365 . S
C348 C347 1.366 . S
C348 H362 0.930 . S
C349 C346 1.378 . S
C349 N350 1.315 . S
C349 H352 0.930 1_556 S
N350 Co330 2.194 1_556 S
N350 C345 1.328 . S
N350 C349 1.315 . S
H351 C345 0.929 . S
H352 C349 0.930 1_554 S
H353 C341 0.929 . S
H354 C343 0.929 . S
O355 Co330 2.351 1_556 S
O355 C358 1.244 . S
O356 Co330 2.155 . S
O356 C358 1.240 1_554 S
O357 Co330 2.096 . S
O357 C338 1.247 . S
C358 O355 1.244 . S
C358 O356 1.240 1_556 S
H359 C333 0.931 . S
H360 C342 0.931 . S
H361 C346 0.929 . S
H362 C348 0.930 . S
Co363 N367 2.148 . S
Co363 N373 2.128 . S
Co363 N383 2.194 . S
Co363 O388 2.351 . S
Co363 O389 2.155 . S
Co363 O390 2.096 . S
C364 N367 1.301 . S
C364 N368 1.328 . S
C364 H369 0.930 . S
C365 C366 1.333 . S
C365 N367 1.317 . S
C365 H370 0.930 . S
C366 C365 1.333 . S
C366 N368 1.350 . S
C366 H392 0.931 . S
N367 Co363 2.148 . S
N367 C364 1.301 . S
N367 C365 1.317 . S
N368 C364 1.328 . S
N368 C366 1.350 . S
H369 C364 0.930 . S
H370 C365 0.930 . S
C371 O372 1.224 . S
C371 O390 1.247 . S
O372 C371 1.224 . S
N373 Co363 2.128 . S
N373 C374 1.355 . S
N373 C376 1.311 . S
C374 N373 1.355 . S
C374 C375 1.363 . S
C374 H386 0.929 . S
C375 C374 1.363 . S
C375 N377 1.375 . S
C375 H393 0.931 . S
C376 N373 1.311 . S
C376 N377 1.347 . S
C376 H387 0.929 . S
N377 C375 1.375 . S
N377 C376 1.347 . S
C378 C381 1.365 . S
C378 N383 1.328 . S
C378 H384 0.929 . S
C379 C380 1.362 . S
C379 C382 1.378 . S
C379 H394 0.929 . S
C380 C379 1.362 . S
C380 C381 1.366 . S
C381 C378 1.365 . S
C381 C380 1.366 . S
C381 H395 0.930 . S
C382 C379 1.378 . S
C382 N383 1.315 . S
C382 H385 0.930 . S
N383 Co363 2.194 . S
N383 C378 1.328 . S
N383 C382 1.315 . S
H384 C378 0.929 . S
H385 C382 0.930 . S
H386 C374 0.929 . S
H387 C376 0.929 . S
O388 Co363 2.351 . S
O388 C391 1.244 . S
O389 Co363 2.155 . S
O389 C391 1.240 . S
O390 Co363 2.096 . S
O390 C371 1.247 . S
C391 O388 1.244 . S
C391 O389 1.240 . S
H392 C366 0.931 . S
H393 C375 0.931 . S
H394 C379 0.929 . S
H395 C381 0.930 . S
Co396 N400 2.148 . S
Co396 N406 2.128 . S
Co396 N416 2.194 . S
Co396 O421 2.351 . S
Co396 O422 2.155 . S
Co396 O423 2.096 . S
C397 N400 1.301 . S
C397 N401 1.328 . S
C397 H402 0.930 . S
C398 C399 1.333 . S
C398 N400 1.317 . S
C398 H403 0.930 . S
C399 C398 1.333 . S
C399 N401 1.350 . S
C399 H425 0.931 . S
N400 Co396 2.148 . S
N400 C397 1.301 . S
N400 C398 1.317 . S
N401 C397 1.328 . S
N401 C399 1.350 . S
H402 C397 0.930 . S
H403 C398 0.930 . S
C404 O405 1.224 . S
C404 O423 1.247 . S
O405 C404 1.224 . S
N406 Co396 2.128 . S
N406 C407 1.355 . S
N406 C409 1.311 . S
C407 N406 1.355 . S
C407 C408 1.363 . S
C407 H419 0.929 . S
C408 C407 1.363 . S
C408 N410 1.375 . S
C408 H426 0.931 . S
C409 N406 1.311 . S
C409 N410 1.347 . S
C409 H420 0.929 . S
N410 C408 1.375 . S
N410 C409 1.347 . S
C411 C414 1.365 . S
C411 N416 1.328 . S
C411 H417 0.929 . S
C412 C413 1.362 . S
C412 C415 1.378 . S
C412 H427 0.929 . S
C413 C412 1.362 . S
C413 C414 1.366 . S
C414 C411 1.365 . S
C414 C413 1.366 . S
C414 H428 0.930 . S
C415 C412 1.378 . S
C415 N416 1.315 . S
C415 H418 0.930 . S
N416 Co396 2.194 . S
N416 C411 1.328 . S
N416 C415 1.315 . S
H417 C411 0.929 . S
H418 C415 0.930 . S
H419 C407 0.929 . S
H420 C409 0.929 . S
O421 Co396 2.351 . S
O421 C424 1.244 . S
O422 Co396 2.155 . S
O422 C424 1.240 . S
O423 Co396 2.096 . S
O423 C404 1.247 . S
C424 O421 1.244 . S
C424 O422 1.240 . S
H425 C399 0.931 . S
H426 C408 0.931 . S
H427 C412 0.929 . S
H428 C414 0.930 . S
Co429 N433 2.148 . S
Co429 N439 2.128 . S
Co429 N449 2.194 . S
Co429 O454 2.351 . S
Co429 O455 2.155 . S
Co429 O456 2.096 . S
C430 N433 1.301 . S
C430 N434 1.328 . S
C430 H435 0.930 . S
C431 C432 1.333 . S
C431 N433 1.317 . S
C431 H436 0.930 . S
C432 C431 1.333 . S
C432 N434 1.350 . S
C432 H458 0.931 . S
N433 Co429 2.148 . S
N433 C430 1.301 . S
N433 C431 1.317 . S
N434 C430 1.328 . S
N434 C432 1.350 . S
H435 C430 0.930 . S
H436 C431 0.930 . S
C437 O438 1.224 . S
C437 O456 1.247 . S
O438 C437 1.224 . S
N439 Co429 2.128 . S
N439 C440 1.355 . S
N439 C442 1.311 . S
C440 N439 1.355 . S
C440 C441 1.363 . S
C440 H452 0.929 . S
C441 C440 1.363 . S
C441 N443 1.375 . S
C441 H459 0.931 . S
C442 N439 1.311 . S
C442 N443 1.347 . S
C442 H453 0.929 . S
N443 C441 1.375 . S
N443 C442 1.347 . S
C444 C447 1.365 1_565 S
C444 N449 1.328 . S
C444 H450 0.929 . S
C445 C446 1.362 1_565 S
C445 C448 1.378 . S
C445 H460 0.929 1_565 S
C446 C445 1.362 1_545 S
C446 C447 1.366 . S
C447 C444 1.365 1_545 S
C447 C446 1.366 . S
C447 H461 0.930 . S
C448 C445 1.378 . S
C448 N449 1.315 . S
C448 H451 0.930 . S
N449 Co429 2.194 . S
N449 C444 1.328 . S
N449 C448 1.315 . S
H450 C444 0.929 . S
H451 C448 0.930 . S
H452 C440 0.929 . S
H453 C442 0.929 . S
O454 Co429 2.351 . S
O454 C457 1.244 . S
O455 Co429 2.155 . S
O455 C457 1.240 . S
O456 Co429 2.096 . S
O456 C437 1.247 . S
C457 O454 1.244 . S
C457 O455 1.240 . S
H458 C432 0.931 . S
H459 C441 0.931 . S
H460 C445 0.929 1_545 S
H461 C447 0.930 . S
Co462 N466 2.148 . S
Co462 N472 2.128 1_556 S
Co462 N482 2.194 1_556 S
Co462 O487 2.351 . S
Co462 O488 2.155 . S
Co462 O489 2.096 . S
C463 N466 1.301 . S
C463 N467 1.328 . S
C463 H468 0.930 . S
C464 C465 1.333 . S
C464 N466 1.317 . S
C464 H469 0.930 . S
C465 C464 1.333 . S
C465 N467 1.350 . S
C465 H491 0.931 . S
N466 Co462 2.148 . S
N466 C463 1.301 . S
N466 C464 1.317 . S
N467 C463 1.328 . S
N467 C465 1.350 . S
H468 C463 0.930 . S
H469 C464 0.930 . S
C470 O471 1.224 . S
C470 O489 1.247 1_554 S
O471 C470 1.224 . S
N472 Co462 2.128 1_554 S
N472 C473 1.355 . S
N472 C475 1.311 . S
C473 N472 1.355 . S
C473 C474 1.363 . S
C473 H485 0.929 . S
C474 C473 1.363 . S
C474 N476 1.375 . S
C474 H492 0.931 . S
C475 N472 1.311 . S
C475 N476 1.347 . S
C475 H486 0.929 . S
N476 C474 1.375 . S
N476 C475 1.347 . S
C477 C480 1.365 . S
C477 N482 1.328 . S
C477 H483 0.929 1_554 S
C478 C479 1.362 . S
C478 C481 1.378 . S
C478 H493 0.929 . S
C479 C478 1.362 . S
C479 C480 1.366 . S
C480 C477 1.365 . S
C480 C479 1.366 . S
C480 H494 0.930 . S
C481 C478 1.378 . S
C481 N482 1.315 . S
C481 H484 0.930 . S
N482 Co462 2.194 1_554 S
N482 C477 1.328 . S
N482 C481 1.315 . S
H483 C477 0.929 1_556 S
H484 C481 0.930 . S
H485 C473 0.929 . S
H486 C475 0.929 . S
O487 Co462 2.351 . S
O487 C490 1.244 . S
O488 Co462 2.155 . S
O488 C490 1.240 . S
O489 Co462 2.096 . S
O489 C470 1.247 1_556 S
C490 O487 1.244 . S
C490 O488 1.240 . S
H491 C465 0.931 . S
H492 C474 0.931 . S
H493 C478 0.929 . S
H494 C480 0.930 . S
Co495 N499 2.148 . S
Co495 N505 2.128 . S
Co495 N515 2.194 . S
Co495 O520 2.351 . S
Co495 O521 2.155 . S
Co495 O522 2.096 . S
C496 N499 1.301 . S
C496 N500 1.328 . S
C496 H501 0.930 . S
C497 C498 1.333 . S
C497 N499 1.317 . S
C497 H502 0.930 . S
C498 C497 1.333 . S
C498 N500 1.350 . S
C498 H524 0.931 . S
N499 Co495 2.148 . S
N499 C496 1.301 . S
N499 C497 1.317 . S
N500 C496 1.328 . S
N500 C498 1.350 . S
H501 C496 0.930 . S
H502 C497 0.930 . S
C503 O504 1.224 . S
C503 O522 1.247 . S
O504 C503 1.224 . S
N505 Co495 2.128 . S
N505 C506 1.355 . S
N505 C508 1.311 . S
C506 N505 1.355 . S
C506 C507 1.363 . S
C506 H518 0.929 . S
C507 C506 1.363 . S
C507 N509 1.375 . S
C507 H525 0.931 . S
C508 N505 1.311 . S
C508 N509 1.347 . S
C508 H519 0.929 . S
N509 C507 1.375 . S
N509 C508 1.347 . S
C510 C513 1.365 1_545 S
C510 N515 1.328 . S
C510 H516 0.929 . S
C511 C512 1.362 1_545 S
C511 C514 1.378 . S
C511 H526 0.929 1_545 S
C512 C511 1.362 1_565 S
C512 C513 1.366 . S
C513 C510 1.365 1_565 S
C513 C512 1.366 . S
C513 H527 0.930 . S
C514 C511 1.378 . S
C514 N515 1.315 . S
C514 H517 0.930 . S
N515 Co495 2.194 . S
N515 C510 1.328 . S
N515 C514 1.315 . S
H516 C510 0.929 . S
H517 C514 0.930 . S
H518 C506 0.929 . S
H519 C508 0.929 . S
O520 Co495 2.351 . S
O520 C523 1.244 . S
O521 Co495 2.155 . S
O521 C523 1.240 . S
O522 Co495 2.096 . S
O522 C503 1.247 . S
C523 O520 1.244 . S
C523 O521 1.240 . S
H524 C498 0.931 . S
H525 C507 0.931 . S
H526 C511 0.929 1_565 S
H527 C513 0.930 . S
H528 C534 0.930 . S
H529 C538 0.930 . S
H530 C543 0.929 . S
H531 C541 0.929 . S
H532 C536 0.929 . S
H533 C542 0.929 . S
C534 H528 0.930 . S
C534 C535 1.367 . S
C534 C542 1.378 . S
C535 C534 1.367 . S
C535 C543 1.433 . S
C536 H532 0.929 . S
C536 C538 1.378 . S
C536 C540 1.350 . S
C537 C540 1.463 . S
C537 C542 1.350 . S
C537 N545 1.427 . S
C538 H529 0.930 . S
C538 C536 1.378 . S
C538 C539 1.367 . S
C539 C538 1.367 . S
C539 C541 1.433 . S
C540 C536 1.350 . S
C540 C537 1.463 . S
C540 N544 1.427 . S
C541 H531 0.929 . S
C541 C539 1.433 . S
C541 N544 1.384 . S
C542 H533 0.929 . S
C542 C534 1.378 . S
C542 C537 1.350 . S
C543 H530 0.929 . S
C543 C535 1.433 . S
C543 N545 1.384 . S
N544 C540 1.427 . S
N544 C541 1.384 . S
N545 C537 1.427 . S
N545 C543 1.384 . S
H546 C552 0.930 . S
H547 C556 0.930 1_556 S
H548 C561 0.929 . S
H549 C559 0.929 . S
H550 C554 0.929 . S
H551 C560 0.929 . S
C552 H546 0.930 . S
C552 C553 1.367 . S
C552 C560 1.378 . S
C553 C552 1.367 . S
C553 C561 1.433 . S
C554 H550 0.929 . S
C554 C556 1.378 . S
C554 C558 1.350 . S
C555 C558 1.463 . S
C555 C560 1.350 . S
C555 N563 1.427 . S
C556 H547 0.930 1_554 S
C556 C554 1.378 . S
C556 C557 1.367 . S
C557 C556 1.367 . S
C557 C559 1.433 . S
C558 C554 1.350 . S
C558 C555 1.463 . S
C558 N562 1.427 . S
C559 H549 0.929 . S
C559 C557 1.433 . S
C559 N562 1.384 . S
C560 H551 0.929 . S
C560 C552 1.378 . S
C560 C555 1.350 . S
C561 H548 0.929 . S
C561 C553 1.433 . S
C561 N563 1.384 . S
N562 C558 1.427 . S
N562 C559 1.384 . S
N563 C555 1.427 . S
N563 C561 1.384 . S
H564 C570 0.930 . S
H565 C574 0.930 . S
H566 C579 0.929 . S
H567 C577 0.929 . S
H568 C572 0.929 . S
H569 C578 0.929 . S
C570 H564 0.930 . S
C570 C571 1.367 . S
C570 C578 1.378 . S
C571 C570 1.367 . S
C571 C579 1.433 . S
C572 H568 0.929 . S
C572 C574 1.378 1_455 S
C572 C576 1.350 . S
C573 C576 1.463 . S
C573 C578 1.350 . S
C573 N581 1.427 . S
C574 H565 0.930 . S
C574 C572 1.378 1_655 S
C574 C575 1.367 . S
C575 C574 1.367 . S
C575 C577 1.433 1_655 S
C576 C572 1.350 . S
C576 C573 1.463 . S
C576 N580 1.427 . S
C577 H567 0.929 . S
C577 C575 1.433 1_455 S
C577 N580 1.384 . S
C578 H569 0.929 . S
C578 C570 1.378 . S
C578 C573 1.350 . S
C579 H566 0.929 . S
C579 C571 1.433 . S
C579 N581 1.384 . S
N580 C576 1.427 . S
N580 C577 1.384 . S
N581 C573 1.427 . S
N581 C579 1.384 . S
H582 C588 0.930 . S
H583 C592 0.930 . S
H584 C597 0.929 . S
H585 C595 0.929 . S
H586 C590 0.929 . S
H587 C596 0.929 . S
C588 H582 0.930 . S
C588 C589 1.367 . S
C588 C596 1.378 . S
C589 C588 1.367 . S
C589 C597 1.433 . S
C590 H586 0.929 . S
C590 C592 1.378 . S
C590 C594 1.350 . S
C591 C594 1.463 . S
C591 C596 1.350 . S
C591 N599 1.427 . S
C592 H583 0.930 . S
C592 C590 1.378 . S
C592 C593 1.367 . S
C593 C592 1.367 . S
C593 C595 1.433 . S
C594 C590 1.350 . S
C594 C591 1.463 . S
C594 N598 1.427 . S
C595 H585 0.929 . S
C595 C593 1.433 . S
C595 N598 1.384 . S
C596 H587 0.929 . S
C596 C588 1.378 . S
C596 C591 1.350 . S
C597 H584 0.929 . S
C597 C589 1.433 . S
C597 N599 1.384 . S
N598 C594 1.427 . S
N598 C595 1.384 . S
N599 C591 1.427 . S
N599 C597 1.384 . S
H600 C606 0.930 . S
H601 C610 0.930 . S
H602 C615 0.929 . S
H603 C613 0.929 . S
H604 C608 0.929 . S
H605 C614 0.929 . S
C606 H600 0.930 . S
C606 C607 1.367 . S
C606 C614 1.378 . S
C607 C606 1.367 . S
C607 C615 1.433 . S
C608 H604 0.929 . S
C608 C610 1.378 . S
C608 C612 1.350 . S
C609 C612 1.463 . S
C609 C614 1.350 . S
C609 N617 1.427 . S
C610 H601 0.930 . S
C610 C608 1.378 . S
C610 C611 1.367 . S
C611 C610 1.367 . S
C611 C613 1.433 . S
C612 C608 1.350 . S
C612 C609 1.463 . S
C612 N616 1.427 . S
C613 H603 0.929 . S
C613 C611 1.433 . S
C613 N616 1.384 . S
C614 H605 0.929 . S
C614 C606 1.378 . S
C614 C609 1.350 . S
C615 H602 0.929 . S
C615 C607 1.433 . S
C615 N617 1.384 . S
N616 C612 1.427 . S
N616 C613 1.384 . S
N617 C609 1.427 . S
N617 C615 1.384 . S
H618 C624 0.910 1_554 S
H619 C628 0.930 . S
H620 C633 0.929 . S
H621 C631 0.929 . S
H622 C626 0.929 . S
H623 C632 0.929 . S
C624 H618 0.910 1_556 S
C624 C625 1.378 . S
C624 C632 1.387 . S
C625 C624 1.378 . S
C625 C633 1.433 . S
C626 H622 0.929 . S
C626 C628 1.378 . S
C626 C630 1.350 . S
C627 C630 1.463 . S
C627 C632 1.350 . S
C627 N635 1.427 . S
C628 H619 0.930 . S
C628 C626 1.378 . S
C628 C629 1.367 . S
C629 C628 1.367 . S
C629 C631 1.433 . S
C630 C626 1.350 . S
C630 C627 1.463 . S
C630 N634 1.427 . S
C631 H621 0.929 . S
C631 C629 1.433 . S
C631 N634 1.384 . S
C632 H623 0.929 . S
C632 C624 1.387 . S
C632 C627 1.350 . S
C633 H620 0.929 . S
C633 C625 1.433 . S
C633 N635 1.384 . S
N634 C630 1.427 . S
N634 C631 1.384 . S
N635 C627 1.427 . S
N635 C633 1.384 . S
H636 C642 0.961 . S
H637 C646 0.930 . S
H638 C651 0.929 . S
H639 C649 0.929 . S
H640 C644 0.929 . S
H641 C650 0.929 . S
C642 H636 0.961 . S
C642 C643 1.367 . S
C642 C650 1.378 . S
C643 C642 1.367 . S
C643 C651 1.433 . S
C644 H640 0.929 . S
C644 C646 1.378 . S
C644 C648 1.350 . S
C645 C648 1.463 . S
C645 C650 1.350 . S
C645 N653 1.427 . S
C646 H637 0.930 . S
C646 C644 1.378 . S
C646 C647 1.367 . S
C647 C646 1.367 . S
C647 C649 1.433 . S
C648 C644 1.350 . S
C648 C645 1.463 . S
C648 N652 1.427 . S
C649 H639 0.929 . S
C649 C647 1.433 . S
C649 N652 1.384 . S
C650 H641 0.929 . S
C650 C642 1.378 . S
C650 C645 1.350 . S
C651 H638 0.929 . S
C651 C643 1.433 . S
C651 N653 1.384 . S
N652 C648 1.427 . S
N652 C649 1.384 . S
N653 C645 1.427 . S
N653 C651 1.384 . S
H654 C660 0.930 . S
H655 C664 0.930 . S
H656 C669 0.929 . S
H657 C667 0.929 . S
H658 C662 0.929 . S
H659 C668 0.929 . S
C660 H654 0.930 . S
C660 C661 1.367 . S
C660 C668 1.378 . S
C661 C660 1.367 . S
C661 C669 1.433 . S
C662 H658 0.929 . S
C662 C664 1.378 . S
C662 C666 1.350 . S
C663 C666 1.463 . S
C663 C668 1.350 . S
C663 N671 1.427 . S
C664 H655 0.930 . S
C664 C662 1.378 . S
C664 C665 1.367 . S
C665 C664 1.367 . S
C665 C667 1.433 . S
C666 C662 1.350 . S
C666 C663 1.463 . S
C666 N670 1.427 . S
C667 H657 0.929 . S
C667 C665 1.433 . S
C667 N670 1.384 . S
C668 H659 0.929 . S
C668 C660 1.378 . S
C668 C663 1.350 . S
C669 H656 0.929 . S
C669 C661 1.433 . S
C669 N671 1.384 . S
N670 C666 1.427 . S
N670 C667 1.384 . S
N671 C663 1.427 . S
N671 C669 1.384 . S
H672 C678 0.930 . S
H673 C682 0.930 . S
H674 C687 0.929 . S
H675 C685 0.929 . S
H676 C680 0.929 . S
H677 C686 0.929 . S
C678 H672 0.930 . S
C678 C679 1.367 . S
C678 C686 1.378 . S
C679 C678 1.367 . S
C679 C687 1.433 . S
C680 H676 0.929 . S
C680 C682 1.378 . S
C680 C684 1.350 . S
C681 C684 1.463 . S
C681 C686 1.350 . S
C681 N689 1.427 . S
C682 H673 0.930 . S
C682 C680 1.378 . S
C682 C683 1.367 1_655 S
C683 C682 1.367 1_455 S
C683 C685 1.433 . S
C684 C680 1.350 . S
C684 C681 1.463 . S
C684 N688 1.427 . S
C685 H675 0.929 . S
C685 C683 1.433 . S
C685 N688 1.384 1_455 S
C686 H677 0.929 . S
C686 C678 1.378 . S
C686 C681 1.350 . S
C687 H674 0.929 . S
C687 C679 1.433 . S
C687 N689 1.384 . S
N688 C684 1.427 . S
N688 C685 1.384 1_655 S
N689 C681 1.427 . S
N689 C687 1.384 . S
H690 C696 0.930 . S
H691 C700 0.930 . S
H692 C705 0.929 . S
H693 C703 0.929 . S
H694 C698 0.929 . S
H695 C704 0.929 . S
C696 H690 0.930 . S
C696 C697 1.367 . S
C696 C704 1.378 . S
C697 C696 1.367 . S
C697 C705 1.433 . S
C698 H694 0.929 . S
C698 C700 1.378 . S
C698 C702 1.350 . S
C699 C702 1.463 . S
C699 C704 1.350 . S
C699 N707 1.427 . S
C700 H691 0.930 . S
C700 C698 1.378 . S
C700 C701 1.367 . S
C701 C700 1.367 . S
C701 C703 1.433 . S
C702 C698 1.350 . S
C702 C699 1.463 . S
C702 N706 1.427 . S
C703 H693 0.929 . S
C703 C701 1.433 . S
C703 N706 1.384 . S
C704 H695 0.929 . S
C704 C696 1.378 . S
C704 C699 1.350 . S
C705 H692 0.929 . S
C705 C697 1.433 . S
C705 N707 1.384 . S
N706 C702 1.427 . S
N706 C703 1.384 . S
N707 C699 1.427 . S
N707 C705 1.384 . S
H708 C714 0.930 . S
H709 C718 0.930 . S
H710 C723 0.929 . S
H711 C721 0.929 . S
H712 C716 0.929 . S
H713 C722 0.929 . S
C714 H708 0.930 . S
C714 C715 1.367 . S
C714 C722 1.378 . S
C715 C714 1.367 . S
C715 C723 1.433 . S
C716 H712 0.929 . S
C716 C718 1.378 . S
C716 C720 1.350 . S
C717 C720 1.463 . S
C717 C722 1.350 . S
C717 N725 1.427 . S
C718 H709 0.930 . S
C718 C716 1.378 . S
C718 C719 1.367 . S
C719 C718 1.367 . S
C719 C721 1.433 . S
C720 C716 1.350 . S
C720 C717 1.463 . S
C720 N724 1.427 . S
C721 H711 0.929 . S
C721 C719 1.433 . S
C721 N724 1.384 . S
C722 H713 0.929 . S
C722 C714 1.378 . S
C722 C717 1.350 . S
C723 H710 0.929 . S
C723 C715 1.433 . S
C723 N725 1.384 . S
N724 C720 1.427 . S
N724 C721 1.384 . S
N725 C717 1.427 . S
N725 C723 1.384 . S
H726 C732 0.930 . S
H727 C736 0.930 . S
H728 C741 0.929 . S
H729 C739 0.929 . S
H730 C734 0.929 . S
H731 C740 0.929 . S
C732 H726 0.930 . S
C732 C733 1.367 . S
C732 C740 1.378 . S
C733 C732 1.367 . S
C733 C741 1.433 . S
C734 H730 0.929 . S
C734 C736 1.378 . S
C734 C738 1.350 . S
C735 C738 1.463 . S
C735 C740 1.350 . S
C735 N743 1.427 . S
C736 H727 0.930 . S
C736 C734 1.378 . S
C736 C737 1.367 . S
C737 C736 1.367 . S
C737 C739 1.433 . S
C738 C734 1.350 . S
C738 C735 1.463 . S
C738 N742 1.427 . S
C739 H729 0.929 . S
C739 C737 1.433 . S
C739 N742 1.384 . S
C740 H731 0.929 . S
C740 C732 1.378 . S
C740 C735 1.350 . S
C741 H728 0.929 . S
C741 C733 1.433 . S
C741 N743 1.384 . S
N742 C738 1.427 . S
N742 C739 1.384 . S
N743 C735 1.427 . S
N743 C741 1.384 . S
H744 C750 0.930 . S
H745 C754 0.930 . S
H746 C759 0.929 . S
H747 C757 0.929 . S
H748 C752 0.929 . S
H749 C758 0.929 . S
C750 H744 0.930 . S
C750 C751 1.367 . S
C750 C758 1.378 . S
C751 C750 1.367 . S
C751 C759 1.433 . S
C752 H748 0.929 . S
C752 C754 1.378 . S
C752 C756 1.350 . S
C753 C756 1.463 . S
C753 C758 1.350 . S
C753 N761 1.427 . S
C754 H745 0.930 . S
C754 C752 1.378 . S
C754 C755 1.367 . S
C755 C754 1.367 . S
C755 C757 1.433 . S
C756 C752 1.350 . S
C756 C753 1.463 . S
C756 N760 1.427 . S
C757 H747 0.929 . S
C757 C755 1.433 . S
C757 N760 1.384 . S
C758 H749 0.929 . S
C758 C750 1.378 . S
C758 C753 1.350 . S
C759 H746 0.929 . S
C759 C751 1.433 . S
C759 N761 1.384 . S
N760 C756 1.427 . S
N760 C757 1.384 . S
N761 C753 1.427 . S
N761 C759 1.384 . S
H762 C768 0.930 . S
H763 C772 0.930 . S
H764 C777 0.929 . S
H765 C775 0.929 . S
H766 C770 0.929 . S
H767 C776 0.929 . S
C768 H762 0.930 . S
C768 C769 1.367 . S
C768 C776 1.378 . S
C769 C768 1.367 . S
C769 C777 1.433 . S
C770 H766 0.929 . S
C770 C772 1.378 . S
C770 C774 1.350 . S
C771 C774 1.463 . S
C771 C776 1.350 . S
C771 N779 1.427 . S
C772 H763 0.930 . S
C772 C770 1.378 . S
C772 C773 1.367 . S
C773 C772 1.367 . S
C773 C775 1.433 . S
C774 C770 1.350 . S
C774 C771 1.463 . S
C774 N778 1.427 . S
C775 H765 0.929 . S
C775 C773 1.433 . S
C775 N778 1.384 . S
C776 H767 0.929 . S
C776 C768 1.378 . S
C776 C771 1.350 . S
C777 H764 0.929 . S
C777 C769 1.433 . S
C777 N779 1.384 . S
N778 C774 1.427 . S
N778 C775 1.384 . S
N779 C771 1.427 . S
N779 C777 1.384 . S
H780 C786 0.930 . S
H781 C790 0.930 . S
H782 C795 0.929 . S
H783 C793 0.929 . S
H784 C788 0.929 . S
H785 C794 0.929 . S
C786 H780 0.930 . S
C786 C787 1.367 . S
C786 C794 1.378 . S
C787 C786 1.367 . S
C787 C795 1.433 . S
C788 H784 0.929 . S
C788 C790 1.378 . S
C788 C792 1.350 . S
C789 C792 1.463 . S
C789 C794 1.350 . S
C789 N797 1.427 . S
C790 H781 0.930 . S
C790 C788 1.378 . S
C790 C791 1.367 . S
C791 C790 1.367 . S
C791 C793 1.433 . S
C792 C788 1.350 . S
C792 C789 1.463 . S
C792 N796 1.427 . S
C793 H783 0.929 . S
C793 C791 1.433 . S
C793 N796 1.384 . S
C794 H785 0.929 . S
C794 C786 1.378 . S
C794 C789 1.350 . S
C795 H782 0.929 . S
C795 C787 1.433 . S
C795 N797 1.384 . S
N796 C792 1.427 . S
N796 C793 1.384 . S
N797 C789 1.427 . S
N797 C795 1.384 . S
H798 C804 0.930 . S
H799 C808 0.930 1_554 S
H800 C813 0.929 . S
H801 C811 0.929 . S
H802 C806 0.929 . S
H803 C812 0.929 . S
C804 H798 0.930 . S
C804 C805 1.367 . S
C804 C812 1.378 . S
C805 C804 1.367 . S
C805 C813 1.433 . S
C806 H802 0.929 . S
C806 C808 1.378 . S
C806 C810 1.350 . S
C807 C810 1.463 . S
C807 C812 1.350 . S
C807 N815 1.427 . S
C808 H799 0.930 1_556 S
C808 C806 1.378 . S
C808 C809 1.367 . S
C809 C808 1.367 . S
C809 C811 1.433 . S
C810 C806 1.350 . S
C810 C807 1.463 . S
C810 N814 1.427 . S
C811 H801 0.929 . S
C811 C809 1.433 . S
C811 N814 1.384 . S
C812 H803 0.929 . S
C812 C804 1.378 . S
C812 C807 1.350 . S
C813 H800 0.929 . S
C813 C805 1.433 . S
C813 N815 1.384 . S
N814 C810 1.427 . S
N814 C811 1.384 . S
N815 C807 1.427 . S
N815 C813 1.384 . S
H816 C822 0.930 . S
H817 C826 0.930 . S
H818 C831 0.929 . S
H819 C829 0.929 . S
H820 C824 0.929 . S
H821 C830 0.929 . S
C822 H816 0.930 . S
C822 C823 1.367 . S
C822 C830 1.378 . S
C823 C822 1.367 . S
C823 C831 1.433 . S
C824 H820 0.929 . S
C824 C826 1.378 . S
C824 C828 1.350 . S
C825 C828 1.463 . S
C825 C830 1.350 . S
C825 N833 1.427 . S
C826 H817 0.930 . S
C826 C824 1.378 . S
C826 C827 1.367 . S
C827 C826 1.367 . S
C827 C829 1.433 . S
C828 C824 1.350 . S
C828 C825 1.463 . S
C828 N832 1.427 . S
C829 H819 0.929 . S
C829 C827 1.433 . S
C829 N832 1.384 . S
C830 H821 0.929 . S
C830 C822 1.378 . S
C830 C825 1.350 . S
C831 H818 0.929 . S
C831 C823 1.433 . S
C831 N833 1.384 . S
N832 C828 1.427 . S
N832 C829 1.384 . S
N833 C825 1.427 . S
N833 C831 1.384 . S
H834 C840 0.930 . S
H835 C844 0.930 . S
H836 C849 0.929 . S
H837 C847 0.929 . S
H838 C842 0.929 . S
H839 C848 0.929 . S
C840 H834 0.930 . S
C840 C841 1.367 . S
C840 C848 1.378 . S
C841 C840 1.367 . S
C841 C849 1.433 . S
C842 H838 0.929 . S
C842 C844 1.378 . S
C842 C846 1.350 . S
C843 C846 1.463 . S
C843 C848 1.350 . S
C843 N851 1.427 . S
C844 H835 0.930 . S
C844 C842 1.378 . S
C844 C845 1.367 . S
C845 C844 1.367 . S
C845 C847 1.433 . S
C846 C842 1.350 . S
C846 C843 1.463 . S
C846 N850 1.427 . S
C847 H837 0.929 . S
C847 C845 1.433 . S
C847 N850 1.384 . S
C848 H839 0.929 . S
C848 C840 1.378 . S
C848 C843 1.350 . S
C849 H836 0.929 . S
C849 C841 1.433 . S
C849 N851 1.384 . S
N850 C846 1.427 . S
N850 C847 1.384 . S
N851 C843 1.427 . S
N851 C849 1.384 . S
H852 C858 0.930 . S
H853 C862 0.930 . S
H854 C867 0.929 . S
H855 C865 0.929 . S
H856 C860 0.929 . S
H857 C866 0.929 . S
C858 H852 0.930 . S
C858 C859 1.367 . S
C858 C866 1.378 . S
C859 C858 1.367 . S
C859 C867 1.433 . S
C860 H856 0.929 . S
C860 C862 1.378 . S
C860 C864 1.350 . S
C861 C864 1.463 . S
C861 C866 1.350 . S
C861 N869 1.427 . S
C862 H853 0.930 . S
C862 C860 1.378 . S
C862 C863 1.367 . S
C863 C862 1.367 . S
C863 C865 1.433 . S
C864 C860 1.350 . S
C864 C861 1.463 . S
C864 N868 1.427 . S
C865 H855 0.929 . S
C865 C863 1.433 . S
C865 N868 1.384 . S
C866 H857 0.929 . S
C866 C858 1.378 . S
C866 C861 1.350 . S
C867 H854 0.929 . S
C867 C859 1.433 . S
C867 N869 1.384 . S
N868 C864 1.427 . S
N868 C865 1.384 . S
N869 C861 1.427 . S
N869 C867 1.384 . S
H870 C876 0.930 . S
H871 C880 0.930 . S
H872 C885 0.929 . S
H873 C883 0.929 . S
H874 C878 0.929 1_655 S
H875 C884 0.929 . S
C876 H870 0.930 . S
C876 C877 1.367 1_455 S
C876 C884 1.378 . S
C877 C876 1.367 1_655 S
C877 C885 1.433 . S
C878 H874 0.929 1_455 S
C878 C880 1.378 . S
C878 C882 1.350 . S
C879 C882 1.463 1_556 S
C879 C884 1.350 . S
C879 N887 1.427 1_455 S
C880 H871 0.930 . S
C880 C878 1.378 . S
C880 C881 1.367 . S
C881 C880 1.367 . S
C881 C883 1.433 . S
C882 C878 1.350 . S
C882 C879 1.463 1_554 S
C882 N886 1.427 . S
C883 H873 0.929 . S
C883 C881 1.433 . S
C883 N886 1.384 . S
C884 H875 0.929 . S
C884 C876 1.378 . S
C884 C879 1.350 . S
C885 H872 0.929 . S
C885 C877 1.433 . S
C885 N887 1.384 . S
N886 C882 1.427 . S
N886 C883 1.384 . S
N887 C879 1.427 1_655 S
N887 C885 1.384 . S
H888 C894 0.930 . S
H889 C898 0.930 . S
H890 C903 0.929 . S
H891 C901 0.929 . S
H892 C896 0.929 . S
H893 C902 0.929 . S
C894 H888 0.930 . S
C894 C895 1.367 . S
C894 C902 1.378 . S
C895 C894 1.367 . S
C895 C903 1.433 . S
C896 H892 0.929 . S
C896 C898 1.378 . S
C896 C900 1.350 . S
C897 C900 1.463 . S
C897 C902 1.350 . S
C897 N905 1.427 . S
C898 H889 0.930 . S
C898 C896 1.378 . S
C898 C899 1.367 . S
C899 C898 1.367 . S
C899 C901 1.433 . S
C900 C896 1.350 . S
C900 C897 1.463 . S
C900 N904 1.427 . S
C901 H891 0.929 . S
C901 C899 1.433 . S
C901 N904 1.384 . S
C902 H893 0.929 . S
C902 C894 1.378 . S
C902 C897 1.350 . S
C903 H890 0.929 . S
C903 C895 1.433 . S
C903 N905 1.384 . S
N904 C900 1.427 . S
N904 C901 1.384 . S
N905 C897 1.427 . S
N905 C903 1.384 . S
H906 C912 0.930 . S
H907 C916 0.930 . S
H908 C921 0.929 . S
H909 C919 0.929 . S
H910 C914 0.929 . S
H911 C920 0.929 . S
C912 H906 0.930 . S
C912 C913 1.367 . S
C912 C920 1.378 . S
C913 C912 1.367 . S
C913 C921 1.433 . S
C914 H910 0.929 . S
C914 C916 1.378 . S
C914 C918 1.350 . S
C915 C918 1.463 . S
C915 C920 1.350 . S
C915 N923 1.427 . S
C916 H907 0.930 . S
C916 C914 1.378 . S
C916 C917 1.367 . S
C917 C916 1.367 . S
C917 C919 1.433 . S
C918 C914 1.350 . S
C918 C915 1.463 . S
C918 N922 1.427 . S
C919 H909 0.929 . S
C919 C917 1.433 . S
C919 N922 1.384 . S
C920 H911 0.929 . S
C920 C912 1.378 . S
C920 C915 1.350 . S
C921 H908 0.929 . S
C921 C913 1.433 . S
C921 N923 1.384 . S
N922 C918 1.427 . S
N922 C919 1.384 . S
N923 C915 1.427 . S
N923 C921 1.384 . S
H924 C930 0.930 . S
H925 C934 0.930 . S
H926 C939 0.929 . S
H927 C937 0.929 . S
H928 C932 0.929 1_565 S
H929 C938 0.936 . S
C930 H924 0.930 . S
C930 C931 1.367 1_545 S
C930 C938 1.378 . S
C931 C930 1.367 1_565 S
C931 C939 1.433 . S
C932 H928 0.929 1_545 S
C932 C934 1.378 . S
C932 C936 1.350 . S
C933 C936 1.463 1_554 S
C933 C938 1.350 . S
C933 N941 1.427 1_545 S
C934 H925 0.930 . S
C934 C932 1.378 . S
C934 C935 1.367 1_655 S
C935 C934 1.367 1_455 S
C935 C937 1.433 . S
C936 C932 1.350 . S
C936 C933 1.463 1_556 S
C936 N940 1.427 1_655 S
C937 H927 0.929 . S
C937 C935 1.433 . S
C937 N940 1.384 . S
C938 H929 0.936 . S
C938 C930 1.378 . S
C938 C933 1.350 . S
C939 H926 0.929 . S
C939 C931 1.433 . S
C939 N941 1.384 . S
N940 C936 1.427 1_455 S
N940 C937 1.384 . S
N941 C933 1.427 1_565 S
N941 C939 1.384 . S
H942 C948 0.930 . S
H943 C952 0.930 . S
H944 C957 0.929 1_545 S
H945 C955 0.929 . S
H946 C950 0.929 . S
H947 C956 0.929 . S
C948 H942 0.930 . S
C948 C949 1.367 . S
C948 C956 1.378 . S
C949 C948 1.367 . S
C949 C957 1.433 . S
C950 H946 0.929 . S
C950 C952 1.378 . S
C950 C954 1.350 1_545 S
C951 C954 1.463 . S
C951 C956 1.350 . S
C951 N959 1.429 . S
C952 H943 0.930 . S
C952 C950 1.378 . S
C952 C953 1.367 . S
C953 C952 1.367 . S
C953 C955 1.433 1_545 S
C954 C950 1.350 1_565 S
C954 C951 1.463 . S
C954 N958 1.427 . S
C955 H945 0.929 . S
C955 C953 1.433 1_565 S
C955 N958 1.384 . S
C956 H947 0.929 . S
C956 C948 1.378 . S
C956 C951 1.350 . S
C957 H944 0.929 1_565 S
C957 C949 1.433 . S
C957 N959 1.384 . S
N958 C954 1.427 . S
N958 C955 1.384 . S
N959 C951 1.429 . S
N959 C957 1.384 . S
H960 C966 0.930 . S
H961 C970 0.930 . S
H962 C975 0.929 . S
H963 C973 0.929 . S
H964 C968 0.929 . S
H965 C974 0.929 . S
C966 H960 0.930 . S
C966 C967 1.367 . S
C966 C974 1.378 . S
C967 C966 1.367 . S
C967 C975 1.433 . S
C968 H964 0.929 . S
C968 C970 1.378 . S
C968 C972 1.350 . S
C969 C972 1.463 . S
C969 C974 1.350 . S
C969 N977 1.427 . S
C970 H961 0.930 . S
C970 C968 1.378 . S
C970 C971 1.367 . S
C971 C970 1.367 . S
C971 C973 1.433 . S
C972 C968 1.350 . S
C972 C969 1.463 . S
C972 N976 1.427 . S
C973 H963 0.929 . S
C973 C971 1.433 . S
C973 N976 1.384 . S
C974 H965 0.929 . S
C974 C966 1.378 . S
C974 C969 1.350 . S
C975 H962 0.929 . S
C975 C967 1.433 . S
C975 N977 1.384 . S
N976 C972 1.427 . S
N976 C973 1.384 . S
N977 C969 1.427 . S
N977 C975 1.384 . S
H978 C984 0.930 . S
H979 C988 0.930 . S
H980 C993 0.929 . S
H981 C991 0.929 . S
H982 C986 0.929 . S
H983 C992 0.929 . S
C984 H978 0.930 . S
C984 C985 1.367 . S
C984 C992 1.378 . S
C985 C984 1.367 . S
C985 C993 1.433 . S
C986 H982 0.929 . S
C986 C988 1.378 . S
C986 C990 1.350 . S
C987 C990 1.463 . S
C987 C992 1.350 . S
C987 N995 1.427 . S
C988 H979 0.930 . S
C988 C986 1.378 . S
C988 C989 1.367 . S
C989 C988 1.367 . S
C989 C991 1.433 . S
C990 C986 1.350 . S
C990 C987 1.463 . S
C990 N994 1.427 . S
C991 H981 0.929 . S
C991 C989 1.433 . S
C991 N994 1.384 . S
C992 H983 0.929 . S
C992 C984 1.378 . S
C992 C987 1.350 . S
C993 H980 0.929 . S
C993 C985 1.433 . S
C993 N995 1.384 . S
N994 C990 1.427 . S
N994 C991 1.384 . S
N995 C987 1.427 . S
N995 C993 1.384 . S
H996 C1002 0.930 . S
H997 C1006 0.930 . S
H998 C1011 0.929 . S
H999 C1009 0.929 . S
H1000 C1004 0.929 . S
H1001 C1010 0.929 . S
C1002 H996 0.930 . S
C1002 C1003 1.367 . S
C1002 C1010 1.378 . S
C1003 C1002 1.367 . S
C1003 C1011 1.433 . S
C1004 H1000 0.929 . S
C1004 C1006 1.378 . S
C1004 C1008 1.350 . S
C1005 C1008 1.463 . S
C1005 C1010 1.350 . S
C1005 N1013 1.427 . S
C1006 H997 0.930 . S
C1006 C1004 1.378 . S
C1006 C1007 1.367 . S
C1007 C1006 1.367 . S
C1007 C1009 1.433 . S
C1008 C1004 1.350 . S
C1008 C1005 1.463 . S
C1008 N1012 1.427 . S
C1009 H999 0.929 . S
C1009 C1007 1.433 . S
C1009 N1012 1.384 . S
C1010 H1001 0.929 . S
C1010 C1002 1.378 . S
C1010 C1005 1.350 . S
C1011 H998 0.929 . S
C1011 C1003 1.433 . S
C1011 N1013 1.384 . S
N1012 C1008 1.427 . S
N1012 C1009 1.384 . S
N1013 C1005 1.427 . S
N1013 C1011 1.384 . S
H1014 C1020 0.930 . S
H1015 C1024 0.930 . S
H1016 C1029 0.929 . S
H1017 C1027 0.929 . S
H1018 C1022 0.929 . S
H1019 C1028 0.929 . S
C1020 H1014 0.930 . S
C1020 C1021 1.367 . S
C1020 C1028 1.378 . S
C1021 C1020 1.367 . S
C1021 C1029 1.433 . S
C1022 H1018 0.929 . S
C1022 C1024 1.378 . S
C1022 C1026 1.350 . S
C1023 C1026 1.463 . S
C1023 C1028 1.350 . S
C1023 N1031 1.427 . S
C1024 H1015 0.930 . S
C1024 C1022 1.378 . S
C1024 C1025 1.367 . S
C1025 C1024 1.367 . S
C1025 C1027 1.433 . S
C1026 C1022 1.350 . S
C1026 C1023 1.463 . S
C1026 N1030 1.427 . S
C1027 H1017 0.929 . S
C1027 C1025 1.433 . S
C1027 N1030 1.384 . S
C1028 H1019 0.929 . S
C1028 C1020 1.378 . S
C1028 C1023 1.350 . S
C1029 H1016 0.929 . S
C1029 C1021 1.433 . S
C1029 N1031 1.384 . S
N1030 C1026 1.427 . S
N1030 C1027 1.384 . S
N1031 C1023 1.427 . S
N1031 C1029 1.384 . S
H1032 C1038 0.930 . S
H1033 C1042 0.930 . S
H1034 C1047 0.929 . S
H1035 C1045 0.929 . S
H1036 C1040 0.929 . S
H1037 C1046 0.929 . S
C1038 H1032 0.930 . S
C1038 C1039 1.367 . S
C1038 C1046 1.378 . S
C1039 C1038 1.367 . S
C1039 C1047 1.433 . S
C1040 H1036 0.929 . S
C1040 C1042 1.378 . S
C1040 C1044 1.350 . S
C1041 C1044 1.463 . S
C1041 C1046 1.350 . S
C1041 N1049 1.427 . S
C1042 H1033 0.930 . S
C1042 C1040 1.378 . S
C1042 C1043 1.367 . S
C1043 C1042 1.367 . S
C1043 C1045 1.433 . S
C1044 C1040 1.350 . S
C1044 C1041 1.463 . S
C1044 N1048 1.427 . S
C1045 H1035 0.929 . S
C1045 C1043 1.433 . S
C1045 N1048 1.384 . S
C1046 H1037 0.929 . S
C1046 C1038 1.378 . S
C1046 C1041 1.350 . S
C1047 H1034 0.929 . S
C1047 C1039 1.433 . S
C1047 N1049 1.384 . S
N1048 C1044 1.427 . S
N1048 C1045 1.384 . S
N1049 C1041 1.427 . S
N1049 C1047 1.384 . S
H1050 C1056 0.930 . S
H1051 C1060 0.930 . S
H1052 C1065 0.929 . S
H1053 C1063 0.929 . S
H1054 C1058 0.929 . S
H1055 C1064 0.929 . S
C1056 H1050 0.930 . S
C1056 C1057 1.367 . S
C1056 C1064 1.378 . S
C1057 C1056 1.367 . S
C1057 C1065 1.433 . S
C1058 H1054 0.929 . S
C1058 C1060 1.378 . S
C1058 C1062 1.350 . S
C1059 C1062 1.463 . S
C1059 C1064 1.350 . S
C1059 N1067 1.427 . S
C1060 H1051 0.930 . S
C1060 C1058 1.378 . S
C1060 C1061 1.367 . S
C1061 C1060 1.367 . S
C1061 C1063 1.433 . S
C1062 C1058 1.350 . S
C1062 C1059 1.463 . S
C1062 N1066 1.427 . S
C1063 H1053 0.929 . S
C1063 C1061 1.433 . S
C1063 N1066 1.384 . S
C1064 H1055 0.929 . S
C1064 C1056 1.378 . S
C1064 C1059 1.350 . S
C1065 H1052 0.929 . S
C1065 C1057 1.433 . S
C1065 N1067 1.384 . S
N1066 C1062 1.427 . S
N1066 C1063 1.384 . S
N1067 C1059 1.427 . S
N1067 C1065 1.384 . S
H1068 C1074 0.930 . S
H1069 C1078 0.930 . S
H1070 C1083 0.929 . S
H1071 C1081 0.929 . S
H1072 C1076 0.929 . S
H1073 C1082 0.929 . S
C1074 H1068 0.930 . S
C1074 C1075 1.367 . S
C1074 C1082 1.378 . S
C1075 C1074 1.367 . S
C1075 C1083 1.433 . S
C1076 H1072 0.929 . S
C1076 C1078 1.378 . S
C1076 C1080 1.350 . S
C1077 C1080 1.463 . S
C1077 C1082 1.350 . S
C1077 N1085 1.427 . S
C1078 H1069 0.930 . S
C1078 C1076 1.378 . S
C1078 C1079 1.367 . S
C1079 C1078 1.367 . S
C1079 C1081 1.433 . S
C1080 C1076 1.350 . S
C1080 C1077 1.463 . S
C1080 N1084 1.427 . S
C1081 H1071 0.929 . S
C1081 C1079 1.433 . S
C1081 N1084 1.384 . S
C1082 H1073 0.929 . S
C1082 C1074 1.378 . S
C1082 C1077 1.350 . S
C1083 H1070 0.929 . S
C1083 C1075 1.433 . S
C1083 N1085 1.384 . S
N1084 C1080 1.427 . S
N1084 C1081 1.384 . S
N1085 C1077 1.427 . S
N1085 C1083 1.384 . S
H1086 C1092 0.930 . S
H1087 C1096 0.930 . S
H1088 C1101 0.929 . S
H1089 C1099 0.929 . S
H1090 C1094 0.929 . S
H1091 C1100 0.929 . S
C1092 H1086 0.930 . S
C1092 C1093 1.367 . S
C1092 C1100 1.378 . S
C1093 C1092 1.367 . S
C1093 C1101 1.433 . S
C1094 H1090 0.929 . S
C1094 C1096 1.378 . S
C1094 C1098 1.350 . S
C1095 C1098 1.463 . S
C1095 C1100 1.350 . S
C1095 N1103 1.427 . S
C1096 H1087 0.930 . S
C1096 C1094 1.378 . S
C1096 C1097 1.367 . S
C1097 C1096 1.367 . S
C1097 C1099 1.433 . S
C1098 C1094 1.350 . S
C1098 C1095 1.463 . S
C1098 N1102 1.427 . S
C1099 H1089 0.929 . S
C1099 C1097 1.433 . S
C1099 N1102 1.384 . S
C1100 H1091 0.929 . S
C1100 C1092 1.378 . S
C1100 C1095 1.350 . S
C1101 H1088 0.929 . S
C1101 C1093 1.433 . S
C1101 N1103 1.384 . S
N1102 C1098 1.427 . S
N1102 C1099 1.384 . S
N1103 C1095 1.427 . S
N1103 C1101 1.384 . S
H1104 C1110 0.930 . S
H1105 C1114 0.930 . S
H1106 C1119 0.929 . S
H1107 C1117 0.929 . S
H1108 C1112 0.929 . S
H1109 C1118 0.929 . S
C1110 H1104 0.930 . S
C1110 C1111 1.367 . S
C1110 C1118 1.378 . S
C1111 C1110 1.367 . S
C1111 C1119 1.433 . S
C1112 H1108 0.929 . S
C1112 C1114 1.378 . S
C1112 C1116 1.350 . S
C1113 C1116 1.463 . S
C1113 C1118 1.350 . S
C1113 N1121 1.427 . S
C1114 H1105 0.930 . S
C1114 C1112 1.378 . S
C1114 C1115 1.367 . S
C1115 C1114 1.367 . S
C1115 C1117 1.433 . S
C1116 C1112 1.350 . S
C1116 C1113 1.463 . S
C1116 N1120 1.427 . S
C1117 H1107 0.929 . S
C1117 C1115 1.433 . S
C1117 N1120 1.384 . S
C1118 H1109 0.929 . S
C1118 C1110 1.378 . S
C1118 C1113 1.350 . S
C1119 H1106 0.929 . S
C1119 C1111 1.433 . S
C1119 N1121 1.384 . S
N1120 C1116 1.427 . S
N1120 C1117 1.384 . S
N1121 C1113 1.427 . S
N1121 C1119 1.384 . S
H1122 C1128 0.930 . S
H1123 C1132 0.930 . S
H1124 C1137 0.929 . S
H1125 C1135 0.929 . S
H1126 C1130 0.929 . S
H1127 C1136 0.929 . S
C1128 H1122 0.930 . S
C1128 C1129 1.367 . S
C1128 C1136 1.378 . S
C1129 C1128 1.367 . S
C1129 C1137 1.433 . S
C1130 H1126 0.929 . S
C1130 C1132 1.378 . S
C1130 C1134 1.350 . S
C1131 C1134 1.463 . S
C1131 C1136 1.350 . S
C1131 N1139 1.427 . S
C1132 H1123 0.930 . S
C1132 C1130 1.378 . S
C1132 C1133 1.367 . S
C1133 C1132 1.367 . S
C1133 C1135 1.433 . S
C1134 C1130 1.350 . S
C1134 C1131 1.463 . S
C1134 N1138 1.427 . S
C1135 H1125 0.929 . S
C1135 C1133 1.433 . S
C1135 N1138 1.384 . S
C1136 H1127 0.929 . S
C1136 C1128 1.378 . S
C1136 C1131 1.350 . S
C1137 H1124 0.929 . S
C1137 C1129 1.433 . S
C1137 N1139 1.384 . S
N1138 C1134 1.427 . S
N1138 C1135 1.384 . S
N1139 C1131 1.427 . S
N1139 C1137 1.384 . S
H1140 C1146 0.930 . S
H1141 C1150 0.930 . S
H1142 C1155 0.929 . S
H1143 C1153 0.929 . S
H1144 C1148 0.929 . S
H1145 C1154 0.929 . S
C1146 H1140 0.930 . S
C1146 C1147 1.367 . S
C1146 C1154 1.378 . S
C1147 C1146 1.367 . S
C1147 C1155 1.433 . S
C1148 H1144 0.929 . S
C1148 C1150 1.378 . S
C1148 C1152 1.350 . S
C1149 C1152 1.463 . S
C1149 C1154 1.350 . S
C1149 N1157 1.427 . S
C1150 H1141 0.930 . S
C1150 C1148 1.378 . S
C1150 C1151 1.367 . S
C1151 C1150 1.367 . S
C1151 C1153 1.433 . S
C1152 C1148 1.350 . S
C1152 C1149 1.463 . S
C1152 N1156 1.427 . S
C1153 H1143 0.929 . S
C1153 C1151 1.433 . S
C1153 N1156 1.384 . S
C1154 H1145 0.929 . S
C1154 C1146 1.378 . S
C1154 C1149 1.350 . S
C1155 H1142 0.929 . S
C1155 C1147 1.433 . S
C1155 N1157 1.384 . S
N1156 C1152 1.427 . S
N1156 C1153 1.384 . S
N1157 C1149 1.427 . S
N1157 C1155 1.384 . S
H1158 C1164 0.930 . S
H1159 C1168 0.930 . S
H1160 C1173 0.929 . S
H1161 C1171 0.929 . S
H1162 C1166 0.929 . S
H1163 C1172 0.929 . S
C1164 H1158 0.930 . S
C1164 C1165 1.367 . S
C1164 C1172 1.378 . S
C1165 C1164 1.367 . S
C1165 C1173 1.433 . S
C1166 H1162 0.929 . S
C1166 C1168 1.378 . S
C1166 C1170 1.350 . S
C1167 C1170 1.463 . S
C1167 C1172 1.350 . S
C1167 N1175 1.427 . S
C1168 H1159 0.930 . S
C1168 C1166 1.378 . S
C1168 C1169 1.367 . S
C1169 C1168 1.367 . S
C1169 C1171 1.433 . S
C1170 C1166 1.350 . S
C1170 C1167 1.463 . S
C1170 N1174 1.427 . S
C1171 H1161 0.929 . S
C1171 C1169 1.433 . S
C1171 N1174 1.384 . S
C1172 H1163 0.929 . S
C1172 C1164 1.378 . S
C1172 C1167 1.350 . S
C1173 H1160 0.929 . S
C1173 C1165 1.433 . S
C1173 N1175 1.384 . S
N1174 C1170 1.427 . S
N1174 C1171 1.384 . S
N1175 C1167 1.427 . S
N1175 C1173 1.384 . S
H1176 C1182 0.930 . S
H1177 C1186 0.930 . S
H1178 C1191 0.929 . S
H1179 C1189 0.929 . S
H1180 C1184 0.929 . S
H1181 C1190 0.929 . S
C1182 H1176 0.930 . S
C1182 C1183 1.367 . S
C1182 C1190 1.378 . S
C1183 C1182 1.367 . S
C1183 C1191 1.433 . S
C1184 H1180 0.929 . S
C1184 C1186 1.378 . S
C1184 C1188 1.350 . S
C1185 C1188 1.463 . S
C1185 C1190 1.350 . S
C1185 N1193 1.427 . S
C1186 H1177 0.930 . S
C1186 C1184 1.378 . S
C1186 C1187 1.367 . S
C1187 C1186 1.367 . S
C1187 C1189 1.433 . S
C1188 C1184 1.350 . S
C1188 C1185 1.463 . S
C1188 N1192 1.427 . S
C1189 H1179 0.929 . S
C1189 C1187 1.433 . S
C1189 N1192 1.384 . S
C1190 H1181 0.929 . S
C1190 C1182 1.378 . S
C1190 C1185 1.350 . S
C1191 H1178 0.929 . S
C1191 C1183 1.433 . S
C1191 N1193 1.384 . S
N1192 C1188 1.427 . S
N1192 C1189 1.384 . S
N1193 C1185 1.427 . S
N1193 C1191 1.384 . S
H1194 C1200 0.930 . S
H1195 C1204 0.930 . S
H1196 C1209 0.929 . S
H1197 C1207 0.929 . S
H1198 C1202 0.929 . S
H1199 C1208 0.929 . S
C1200 H1194 0.930 . S
C1200 C1201 1.367 . S
C1200 C1208 1.378 . S
C1201 C1200 1.367 . S
C1201 C1209 1.433 . S
C1202 H1198 0.929 . S
C1202 C1204 1.378 . S
C1202 C1206 1.350 . S
C1203 C1206 1.463 . S
C1203 C1208 1.350 . S
C1203 N1211 1.427 . S
C1204 H1195 0.930 . S
C1204 C1202 1.378 . S
C1204 C1205 1.367 . S
C1205 C1204 1.367 . S
C1205 C1207 1.433 . S
C1206 C1202 1.350 . S
C1206 C1203 1.463 . S
C1206 N1210 1.427 . S
C1207 H1197 0.929 . S
C1207 C1205 1.433 . S
C1207 N1210 1.384 . S
C1208 H1199 0.929 . S
C1208 C1200 1.378 . S
C1208 C1203 1.350 . S
C1209 H1196 0.929 . S
C1209 C1201 1.433 . S
C1209 N1211 1.384 . S
N1210 C1206 1.427 . S
N1210 C1207 1.384 . S
N1211 C1203 1.427 . S
N1211 C1209 1.384 . S
H1212 C1218 0.930 . S
H1213 C1222 0.930 . S
H1214 C1227 0.929 . S
H1215 C1225 0.929 . S
H1216 C1220 0.929 . S
H1217 C1226 0.929 . S
C1218 H1212 0.930 . S
C1218 C1219 1.367 . S
C1218 C1226 1.378 . S
C1219 C1218 1.367 . S
C1219 C1227 1.433 . S
C1220 H1216 0.929 . S
C1220 C1222 1.378 . S
C1220 C1224 1.350 . S
C1221 C1224 1.463 . S
C1221 C1226 1.350 . S
C1221 N1229 1.427 . S
C1222 H1213 0.930 . S
C1222 C1220 1.378 . S
C1222 C1223 1.367 . S
C1223 C1222 1.367 . S
C1223 C1225 1.433 . S
C1224 C1220 1.350 . S
C1224 C1221 1.463 . S
C1224 N1228 1.427 . S
C1225 H1215 0.929 . S
C1225 C1223 1.433 . S
C1225 N1228 1.384 . S
C1226 H1217 0.929 . S
C1226 C1218 1.378 . S
C1226 C1221 1.350 . S
C1227 H1214 0.929 . S
C1227 C1219 1.433 . S
C1227 N1229 1.384 . S
N1228 C1224 1.427 . S
N1228 C1225 1.384 . S
N1229 C1221 1.427 . S
N1229 C1227 1.384 . S
H1230 C1236 0.930 . S
H1231 C1240 0.930 . S
H1232 C1245 0.929 . S
H1233 C1243 0.929 . S
H1234 C1238 0.929 . S
H1235 C1244 0.929 . S
C1236 H1230 0.930 . S
C1236 C1237 1.367 . S
C1236 C1244 1.378 . S
C1237 C1236 1.367 . S
C1237 C1245 1.433 . S
C1238 H1234 0.929 . S
C1238 C1240 1.378 . S
C1238 C1242 1.350 . S
C1239 C1242 1.463 . S
C1239 C1244 1.350 . S
C1239 N1247 1.427 . S
C1240 H1231 0.930 . S
C1240 C1238 1.378 . S
C1240 C1241 1.367 . S
C1241 C1240 1.367 . S
C1241 C1243 1.433 . S
C1242 C1238 1.350 . S
C1242 C1239 1.463 . S
C1242 N1246 1.427 . S
C1243 H1233 0.929 . S
C1243 C1241 1.433 . S
C1243 N1246 1.384 . S
C1244 H1235 0.929 . S
C1244 C1236 1.378 . S
C1244 C1239 1.350 . S
C1245 H1232 0.929 . S
C1245 C1237 1.433 . S
C1245 N1247 1.384 . S
N1246 C1242 1.427 . S
N1246 C1243 1.384 . S
N1247 C1239 1.427 . S
N1247 C1245 1.384 . S
C535 C503 1.590 . S
C539 N14 1.567 . S
C553 N47 1.571 . S
C557 C140 1.595 . S
C571 N80 1.571 . S
C575 C437 1.589 . S
C589 N113 1.569 . S
C593 C206 1.587 . S
C607 N146 1.438 . S
C611 C391 1.467 . S
C625 C28 1.469 . S
C629 N179 1.438 . S
C643 C325 1.454 1_655 S
C647 N212 1.441 . S
C661 N245 1.437 . S
C665 C94 1.452 . S
C679 N278 1.561 . S
C683 C239 1.584 . S
C697 N311 1.564 . S
C701 C404 1.586 . S
C715 C173 1.589 . S
C719 N344 1.574 . S
C733 N377 1.566 . S
C737 C470 1.591 . S
C751 N410 1.442 . S
C755 C127 1.457 1_455 S
C769 N443 1.432 . S
C773 C292 1.460 . S
C787 C61 1.461 . S
C791 N476 1.438 . S
C805 N509 1.441 . S
C809 C358 1.469 . S
C823 N5 1.654 . S
C827 N401 1.690 . S
C841 N170 1.711 . S
C845 N38 1.664 . S
C859 N71 1.639 . S
C863 N467 1.687 . S
C877 N104 1.651 . S
C881 N236 1.691 . S
C895 N269 1.648 . S
C899 N137 1.685 . S
C913 N335 1.652 . S
C917 N203 1.696 . S
C931 N434 1.699 . S
C935 N302 1.657 . S
C949 N368 1.655 . S
C953 N500 1.700 . S
C967 C305 1.584 . S
C971 C17 1.612 . S
C985 C50 1.596 . S
C989 C338 1.565 . S
C1003 C83 1.604 . S
C1007 C371 1.577 . S
C1021 C272 1.577 . S
C1025 C116 1.607 . S
C1039 C149 0.949 . S
C1043 C457 0.933 . S
C1057 C182 0.939 . S
C1061 C490 0.927 . S
C1075 C215 0.936 . S
C1079 C523 0.919 . S
C1093 C248 0.951 . S
C1097 C424 0.940 . S
C1111 C41 1.576 . S
C1115 C281 1.604 . S
C1129 C314 1.609 1_565 S
C1133 C74 1.582 . S
C1147 C347 1.610 . S
C1151 C107 1.585 . S
C1165 C380 1.593 1_545 S
C1169 C8 1.558 . S
C1183 C413 0.936 . S
C1187 C193 0.919 . S
C1201 C226 0.918 . S
C1205 C446 0.941 . S
C1219 C259 0.941 . S
C1223 C479 0.954 . S
C1237 C512 0.930 . S
C1241 C160 0.905 . S
