# Generated by pormake.
# Topology umy, (4)-cn, num edge types: 1
# Building blocks:
#     Node 0, Type 0, BuildingBlock: QUQFOY_clean_sbu_3, # of connection points: 4
#     Node 1, Type 0, BuildingBlock: QUQFOY_clean_sbu_3, # of connection points: 4
#     Node 2, Type 0, BuildingBlock: QUQFOY_clean_sbu_3, # of connection points: 4
#     Node 3, Type 0, BuildingBlock: QUQFOY_clean_sbu_3, # of connection points: 4
#     Node 4, Type 0, BuildingBlock: QUQFOY_clean_sbu_3, # of connection points: 4
#     Node 5, Type 0, BuildingBlock: QUQFOY_clean_sbu_3, # of connection points: 4
#     Node 6, Type 0, BuildingBlock: QUQFOY_clean_sbu_3, # of connection points: 4
#     Node 7, Type 0, BuildingBlock: QUQFOY_clean_sbu_3, # of connection points: 4
#     Node 8, Type 0, BuildingBlock: QUQFOY_clean_sbu_3, # of connection points: 4
#     Node 9, Type 0, BuildingBlock: QUQFOY_clean_sbu_3, # of connection points: 4
#     Node 10, Type 0, BuildingBlock: QUQFOY_clean_sbu_3, # of connection points: 4
#     Node 11, Type 0, BuildingBlock: QUQFOY_clean_sbu_3, # of connection points: 4
#     Edge 12, Type (0, 0), BuildingBlock: XIVTED_clean_linker_0, # of connection points: 2
#     Edge 13, Type (0, 0), BuildingBlock: XIVTED_clean_linker_0, # of connection points: 2
#     Edge 14, Type (0, 0), BuildingBlock: XIVTED_clean_linker_0, # of connection points: 2
#     Edge 15, Type (0, 0), BuildingBlock: XIVTED_clean_linker_0, # of connection points: 2
#     Edge 16, Type (0, 0), BuildingBlock: XIVTED_clean_linker_0, # of connection points: 2
#     Edge 17, Type (0, 0), BuildingBlock: XIVTED_clean_linker_0, # of connection points: 2
#     Edge 18, Type (0, 0), BuildingBlock: XIVTED_clean_linker_0, # of connection points: 2
#     Edge 19, Type (0, 0), BuildingBlock: XIVTED_clean_linker_0, # of connection points: 2
#     Edge 20, Type (0, 0), BuildingBlock: XIVTED_clean_linker_0, # of connection points: 2
#     Edge 21, Type (0, 0), BuildingBlock: XIVTED_clean_linker_0, # of connection points: 2
#     Edge 22, Type (0, 0), BuildingBlock: XIVTED_clean_linker_0, # of connection points: 2
#     Edge 23, Type (0, 0), BuildingBlock: XIVTED_clean_linker_0, # of connection points: 2
#     Edge 24, Type (0, 0), BuildingBlock: XIVTED_clean_linker_0, # of connection points: 2
#     Edge 25, Type (0, 0), BuildingBlock: XIVTED_clean_linker_0, # of connection points: 2
#     Edge 26, Type (0, 0), BuildingBlock: XIVTED_clean_linker_0, # of connection points: 2
#     Edge 27, Type (0, 0), BuildingBlock: XIVTED_clean_linker_0, # of connection points: 2
#     Edge 28, Type (0, 0), BuildingBlock: XIVTED_clean_linker_0, # of connection points: 2
#     Edge 29, Type (0, 0), BuildingBlock: XIVTED_clean_linker_0, # of connection points: 2
#     Edge 30, Type (0, 0), BuildingBlock: XIVTED_clean_linker_0, # of connection points: 2
#     Edge 31, Type (0, 0), BuildingBlock: XIVTED_clean_linker_0, # of connection points: 2
#     Edge 32, Type (0, 0), BuildingBlock: XIVTED_clean_linker_0, # of connection points: 2
#     Edge 33, Type (0, 0), BuildingBlock: XIVTED_clean_linker_0, # of connection points: 2
#     Edge 34, Type (0, 0), BuildingBlock: XIVTED_clean_linker_0, # of connection points: 2
#     Edge 35, Type (0, 0), BuildingBlock: XIVTED_clean_linker_0, # of connection points: 2
# Relax obj value: 0.100
# Max RMSD: 0.073
# Mean RMSD: 0.073
data_MOF--net-umy--node1-QUQFOY_clean_sbu_3--edge1-XIVTED_clean_linker_0
_symmetry_space_group_name_H-M    P1
_symmetry_Int_Tables_number       1
_symmetry_cell_setting            triclinic
loop_
_symmetry_equiv_pos_as_xyz
'x, y, z'
_cell_length_a     39.433947
_cell_length_b     39.304703
_cell_length_c     52.361808
_cell_angle_alpha  90.086224
_cell_angle_beta   89.989162
_cell_angle_gamma 119.92259
loop_
_atom_site_label
_atom_site_type_symbol
_atom_site_fract_x
_atom_site_fract_y
_atom_site_fract_z
_atom_type_partial_charge
C0 C 0.95439 0.22444 0.11501 0.0
O1 O 0.97165 0.2062 0.10762 0.0
Cd2 Cd 0.04029 0.24088 0.09921 0.0
O3 O 0.97302 0.26164 0.11716 0.0
Cd4 Cd 0.03726 0.31916 0.10961 0.0
C5 C 0.07634 0.29008 0.1563 0.0
O6 O 0.04857 0.29298 0.0715 0.0
O7 O 0.09798 0.34715 0.08467 0.0
O8 O 0.003 0.34835 0.08969 0.0
C9 C 0.08289 0.3209 0.06752 0.0
O10 O 0.07087 0.26215 0.1414 0.0
C11 C 0.01804 0.37898 0.10345 0.0
O12 O 0.06629 0.31495 0.14971 0.0
O13 O 0.04178 0.38161 0.12079 0.0
C14 C 0.72741 0.98087 0.29654 0.0
O15 O 0.76114 -0.00401 0.28646 0.0
Cd16 Cd 0.79474 0.06201 0.27179 0.0
O17 O 0.70972 0.00041 0.29859 0.0
Cd18 Cd 0.71755 0.06452 0.28705 0.0
C19 C 0.79413 0.10926 0.32741 0.0
O20 O 0.74518 0.06381 0.24641 0.0
O21 O 0.74574 0.11759 0.25554 0.0
O22 O 0.64825 0.02522 0.27846 0.0
C23 C 0.7513 0.09707 0.23919 0.0
O24 O 0.81294 0.10049 0.31144 0.0
C25 C 0.64027 0.05123 0.28571 0.0
O26 O 0.75847 0.09912 0.32352 0.0
O27 O 0.66801 0.08254 0.29519 0.0
C28 C 0.73206 0.70673 0.45774 0.0
O29 O 0.75288 0.74165 0.44972 0.0
Cd30 Cd 0.72641 0.78298 0.44067 0.0
O31 O 0.69516 0.69143 0.46007 0.0
Cd32 Cd 0.64315 0.70695 0.45083 0.0
C33 C 0.67804 0.77484 0.4976 0.0
O34 O 0.67364 0.74301 0.41259 0.0
O35 O 0.6235 0.74641 0.42555 0.0
O36 O 0.61034 0.64054 0.43488 0.0
C37 C 0.64908 0.75415 0.40847 0.0
O38 O 0.70659 0.79515 0.48263 0.0
C39 C 0.57669 0.63235 0.44271 0.0
O40 O 0.65085 0.74083 0.49114 0.0
O41 O 0.57422 0.65844 0.45561 0.0
C42 C 0.0061 0.74777 0.6184 0.0
O43 O 0.98809 0.76375 0.60854 0.0
Cd44 Cd 0.91996 0.72413 0.59894 0.0
O45 O 0.98883 0.71082 0.62178 0.0
Cd46 Cd 0.92766 0.64971 0.61405 0.0
C47 C 0.88563 0.67949 0.65785 0.0
O48 O 0.91487 0.67037 0.5742 0.0
O49 O 0.86674 0.61694 0.58949 0.0
O50 O 0.96893 0.6275 0.59594 0.0
C51 C 0.88114 0.64084 0.57103 0.0
O52 O 0.88975 0.70505 0.64132 0.0
C53 C 0.95513 0.59607 0.60874 0.0
O54 O 0.89739 0.65523 0.6533 0.0
O55 O 0.92879 0.58976 0.6251 0.0
C56 C 0.25492 0.00896 0.79717 0.0
O57 O 0.21882 0.99195 0.79144 0.0
Cd58 Cd 0.18223 0.92471 0.77859 0.0
O59 O 0.2738 0.99054 0.79633 0.0
Cd60 Cd 0.26178 0.92511 0.78468 0.0
C61 C 0.19518 0.88151 0.83161 0.0
O62 O 0.22468 0.92162 0.74728 0.0
O63 O 0.22588 0.8687 0.75613 0.0
O64 O 0.32835 0.96182 0.76921 0.0
C65 C 0.217 0.88763 0.74053 0.0
O66 O 0.17114 0.88512 0.81721 0.0
C67 C 0.33731 0.93628 0.77584 0.0
O68 O 0.23081 0.89582 0.82516 0.0
O69 O 0.31162 0.90644 0.78784 0.0
C70 C 0.24256 0.26692 0.95007 0.0
O71 O 0.22785 0.23165 0.94248 0.0
Cd72 Cd 0.26736 0.20391 0.9302 0.0
O73 O 0.27946 0.28943 0.9509 0.0
Cd74 Cd 0.33953 0.2888 0.94061 0.0
C75 C 0.31969 0.22016 0.98575 0.0
O76 O 0.31522 0.25175 0.90235 0.0
O77 O 0.3697 0.25764 0.91541 0.0
O78 O 0.36375 0.35181 0.92067 0.0
C79 C 0.34382 0.24651 0.89807 0.0
O80 O 0.29508 0.19536 0.97003 0.0
C81 C 0.39507 0.36886 0.93361 0.0
O82 O 0.33826 0.25665 0.98059 0.0
O83 O 0.40012 0.34884 0.95067 0.0
C84 C 0.73391 0.01845 0.70121 0.0
O85 O 0.75288 0.00382 0.71152 0.0
Cd86 Cd 0.72282 0.9371 0.72429 0.0
O87 O 0.69701 -0.00197 0.69814 0.0
Cd88 Cd 0.64247 0.93242 0.7088 0.0
C89 C 0.67776 0.89143 0.66776 0.0
O90 O 0.66966 0.93133 0.74948 0.0
O91 O 0.61893 0.87692 0.73867 0.0
O92 O 0.60952 0.96881 0.7183 0.0
C93 C 0.64409 0.89685 0.75558 0.0
O94 O 0.70507 0.90022 0.68392 0.0
C95 C 0.57653 0.94271 0.70985 0.0
O96 O 0.65144 0.90051 0.67178 0.0
O97 O 0.57477 0.91254 0.69962 0.0
C98 C 0.72997 0.76003 0.86871 0.0
O99 O 0.76534 0.77874 0.8761 0.0
Cd100 Cd 0.79919 0.74461 0.88702 0.0
O101 O 0.71148 0.72271 0.86782 0.0
Cd102 Cd 0.71803 0.66558 0.87811 0.0
C103 C 0.78614 0.69078 0.83187 0.0
O104 O 0.75498 0.69512 0.91591 0.0
O105 O 0.75018 0.63961 0.90551 0.0
O106 O 0.65523 0.6401 0.89806 0.0
C107 C 0.76087 0.66723 0.92165 0.0
O108 O 0.80825 0.71979 0.84611 0.0
C109 C 0.63886 0.60805 0.88577 0.0
O110 O 0.75131 0.66631 0.83862 0.0
O111 O 0.65927 0.60274 0.86914 0.0
C112 C 0.9693 0.72455 0.04245 0.0
O113 O 0.98947 0.76022 0.0493 0.0
Cd114 Cd 0.0572 0.78925 0.06053 0.0
O115 O 0.98447 0.70262 0.04165 0.0
Cd116 Cd 0.0462 0.7049 0.05061 0.0
C117 C 0.09174 0.77276 0.00445 0.0
O118 O 0.05978 0.74281 0.08871 0.0
O119 O 0.10803 0.73682 0.07485 0.0
O120 O 0.00923 0.64184 0.0708 0.0
C121 C 0.09379 0.74825 0.0924 0.0
O122 O 0.09214 0.79777 0.02013 0.0
C123 C 0.02329 0.62503 0.05731 0.0
O124 O 0.07469 0.73643 0.01 0.0
O125 O 0.04763 0.64529 0.04001 0.0
C126 C 0.25453 0.98361 0.19279 0.0
O127 O 0.2367 0.00159 0.19953 0.0
Cd128 Cd 0.26983 0.06925 0.21159 0.0
O129 O 0.29173 0.00119 0.1923 0.0
Cd130 Cd 0.34707 0.06614 0.20251 0.0
C131 C 0.32207 0.10941 0.15664 0.0
O132 O 0.31802 0.07332 0.24095 0.0
O133 O 0.37045 0.1254 0.22891 0.0
O134 O 0.37584 0.02853 0.21835 0.0
C135 C 0.34473 0.10792 0.24597 0.0
O136 O 0.29609 0.10711 0.17212 0.0
C137 C 0.4101 0.05258 0.21065 0.0
O138 O 0.34311 0.09424 0.16207 0.0
O139 O 0.41449 0.08183 0.19773 0.0
C140 C 0.25967 0.24317 0.36283 0.0
O141 O 0.22586 0.22256 0.37247 0.0
Cd142 Cd 0.18752 0.2508 0.38554 0.0
O143 O 0.27497 0.28024 0.36072 0.0
Cd144 Cd 0.26186 0.33339 0.372 0.0
C145 C 0.18778 0.2976 0.32951 0.0
O146 O 0.23283 0.30349 0.41218 0.0
O147 O 0.2289 0.35465 0.40229 0.0
O148 O 0.33071 0.36637 0.38214 0.0
C149 C 0.22403 0.32907 0.41879 0.0
O150 O 0.16958 0.26937 0.34512 0.0
C151 C 0.33752 0.40004 0.37508 0.0
O152 O 0.22241 0.32496 0.33429 0.0
O153 O 0.30934 0.40237 0.3652 0.0
C154 C 0.02168 0.26384 0.54352 0.0
O155 O 0.00289 0.22847 0.55107 0.0
Cd156 Cd 0.93406 0.19739 0.5585 0.0
O157 O 0.00463 0.2839 0.54111 0.0
Cd158 Cd 0.94191 0.28092 0.54827 0.0
C159 C 0.90329 0.21499 0.50053 0.0
O160 O 0.92585 0.24167 0.58583 0.0
O161 O 0.87875 0.2484 0.57018 0.0
O162 O 0.97745 0.34199 0.57085 0.0
C163 C 0.89163 0.23646 0.58822 0.0
O164 O 0.90658 0.1914 0.51562 0.0
C165 C 0.96495 0.36034 0.55756 0.0
O166 O 0.91442 0.25016 0.50726 0.0
O167 O 0.94228 0.34199 0.53902 0.0
H168 H 0.03026 0.57357 0.02566 0.0
H169 H 0.02909 0.43906 0.1351 0.0
H170 H -0.00383 0.58557 0.10201 0.0
H171 H 0.99057 0.39241 0.05926 0.0
H172 H 0.02254 0.49601 0.12366 0.0
H173 H 0.02118 0.50916 0.03735 0.0
C174 C 0.02051 0.56243 0.04477 0.0
C175 C 0.0141 0.58477 0.06296 0.0
C176 C 0.01503 0.47294 0.10971 0.0
C177 C 0.00447 0.5121 0.07646 0.0
C178 C 0.01892 0.44067 0.11617 0.0
C179 C 0.01055 0.41128 0.09803 0.0
C180 C 0.00372 0.47608 0.08482 0.0
C181 C -0.00268 0.41453 0.07378 0.0
C182 C 0.0152 0.52577 0.05137 0.0
C183 C 0.00137 0.56912 0.08745 0.0
N184 N -0.00505 0.44679 0.06769 0.0
N185 N -0.00239 0.53392 0.09367 0.0
H186 H 0.57249 0.98532 0.27166 0.0
H187 H 0.48668 0.10966 0.21005 0.0
H188 H 0.62271 0.10987 0.28432 0.0
H189 H 0.41 0.98902 0.23192 0.0
H190 H 0.54096 0.1076 0.23095 0.0
H191 H 0.51468 0.98351 0.25279 0.0
C192 C 0.57102 0.01209 0.27089 0.0
C193 C 0.60241 0.04785 0.27941 0.0
C194 C 0.51225 0.08156 0.23105 0.0
C195 C 0.53743 0.04611 0.2573 0.0
C196 C 0.48142 0.08254 0.21887 0.0
C197 C 0.44386 0.04949 0.21938 0.0
C198 C 0.50553 0.04715 0.24345 0.0
C199 C 0.43858 0.01516 0.23123 0.0
C200 C 0.5382 0.01104 0.26006 0.0
C201 C 0.59914 0.0817 0.27798 0.0
N202 N 0.4692 0.01482 0.24284 0.0
N203 N 0.56747 0.08013 0.2667 0.0
H204 H 0.57305 0.56578 0.42401 0.0
H205 H 0.35357 0.47599 0.37613 0.0
H206 H 0.50127 0.61701 0.44209 0.0
H207 H 0.40614 0.40383 0.38864 0.0
H208 H 0.41263 0.53246 0.39312 0.0
H209 H 0.51574 0.50909 0.40534 0.0
C210 C 0.54513 0.56486 0.42429 0.0
C211 C 0.54173 0.59597 0.43462 0.0
C212 C 0.41124 0.50428 0.39197 0.0
C213 C 0.47676 0.53209 0.41281 0.0
C214 C 0.37781 0.47221 0.38203 0.0
C215 C 0.37501 0.43525 0.38114 0.0
C216 C 0.44214 0.49935 0.40071 0.0
C217 C 0.40714 0.43186 0.38916 0.0
C218 C 0.51259 0.53266 0.41358 0.0
C219 C 0.50502 0.59348 0.43446 0.0
N220 N 0.43947 0.46357 0.39869 0.0
N221 N 0.47396 0.56221 0.42344 0.0
H222 H 0.99101 0.59131 0.56571 0.0
H223 H 0.988 0.39464 0.60421 0.0
H224 H 0.94487 0.53389 0.63798 0.0
H225 H 0.96079 0.41539 0.52796 0.0
H226 H -0.006 0.45699 0.61795 0.0
H227 H 0.00194 0.53757 0.55327 0.0
C228 C 0.98385 0.56775 0.57915 0.0
C229 C 0.96662 0.56668 0.60281 0.0
C230 C 0.98727 0.448 0.59816 0.0
C231 C 0.9795 0.50584 0.58878 0.0
C232 C 0.98401 0.41268 0.59026 0.0
C233 C 0.97354 0.39987 0.56497 0.0
C234 C 0.98086 0.47088 0.58049 0.0
C235 C 0.96855 0.42418 0.54768 0.0
C236 C 0.98997 0.53716 0.57197 0.0
C237 C 0.95785 0.53551 0.61948 0.0
N238 N 0.97223 0.45868 0.55579 0.0
N239 N 0.96433 0.5061 0.6121 0.0
H240 H 0.57165 0.00701 0.72415 0.0
H241 H 0.35535 0.87791 0.77481 0.0
H242 H 0.50105 0.88303 0.70825 0.0
H243 H 0.40245 0.00066 0.75721 0.0
H244 H 0.41339 0.88085 0.75597 0.0
H245 H 0.51324 0.00702 0.74014 0.0
C246 C 0.54375 0.97998 0.72365 0.0
C247 C 0.54107 0.94491 0.71501 0.0
C248 C 0.41099 0.90713 0.75629 0.0
C249 C 0.47492 0.94459 0.73378 0.0
C250 C 0.37816 0.9056 0.76728 0.0
C251 C 0.37419 0.93909 0.7675 0.0
C252 C 0.44024 0.94251 0.74582 0.0
C253 C 0.40446 0.97417 0.75733 0.0
C254 C 0.51059 0.98001 0.73281 0.0
C255 C 0.50434 0.91069 0.71473 0.0
N256 N 0.43641 0.97504 0.74691 0.0
N257 N 0.47273 0.91125 0.72439 0.0
H258 H 0.40565 0.4068 0.88844 0.0
H259 H 0.59967 0.59996 0.93003 0.0
H260 H 0.45453 0.42124 0.96411 0.0
H261 H 0.58756 0.54655 0.85599 0.0
H262 H 0.5356 0.54522 0.94212 0.0
H263 H 0.4621 0.46969 0.87607 0.0
C264 C 0.42788 0.42359 0.90258 0.0
C265 C 0.42581 0.40885 0.92726 0.0
C266 C 0.5469 0.54589 0.92316 0.0
C267 C 0.4896 0.48041 0.91332 0.0
C268 C 0.58323 0.57701 0.91619 0.0
C269 C 0.59887 0.5774 0.89206 0.0
C270 C 0.52589 0.51559 0.90565 0.0
C271 C 0.57655 0.547 0.87486 0.0
C272 C 0.46001 0.45921 0.89545 0.0
C273 C 0.45537 0.43156 0.94483 0.0
N274 N 0.54098 0.51715 0.882 0.0
N275 N 0.48624 0.46638 0.9375 0.0
H276 H 0.15936 0.37254 0.05546 0.0
H277 H 0.16248 0.2287 0.95054 0.0
H278 H 0.05648 0.26828 0.02845 0.0
H279 H 0.26454 0.33755 0.9728 0.0
H280 H 0.12153 0.24854 0.97368 0.0
H281 H 0.19685 0.36607 0.02048 0.0
C282 C 0.14461 0.34856 0.04201 0.0
C283 C 0.10505 0.32041 0.04512 0.0
C284 C 0.15284 0.26835 0.97322 0.0
C285 C 0.14752 0.31277 0.00526 0.0
C286 C 0.17624 0.25699 0.96002 0.0
C287 C 0.21702 0.28109 0.96026 0.0
C288 C 0.17046 0.3038 0.98697 0.0
C289 C 0.23323 0.31772 0.97249 0.0
C290 C 0.16595 0.34491 0.02203 0.0
C291 C 0.08715 0.29022 0.02702 0.0
N292 N 0.20992 0.32767 0.98575 0.0
N293 N 0.10866 0.2869 0.00804 0.0
H294 H 0.77385 0.16977 0.21949 0.0
H295 H 0.90607 0.14466 0.11705 0.0
H296 H 0.76801 0.05966 0.2017 0.0
H297 H 0.90936 0.25419 0.1328 0.0
H298 H 0.84418 0.10995 0.13998 0.0
H299 H 0.8119 0.19788 0.18063 0.0
C300 C 0.78016 0.15139 0.20722 0.0
C301 C 0.76888 0.11276 0.21414 0.0
C302 C 0.85809 0.14153 0.13803 0.0
C303 C 0.81235 0.14458 0.16987 0.0
C304 C 0.89346 0.16135 0.12494 0.0
C305 C 0.91351 0.20246 0.12377 0.0
C306 C 0.84309 0.16308 0.15024 0.0
C307 C 0.89542 0.22253 0.13386 0.0
C308 C 0.80175 0.16737 0.18501 0.0
C309 C 0.77705 0.08993 0.19737 0.0
N310 N 0.8616 0.20269 0.14716 0.0
N311 N 0.79892 0.10641 0.17622 0.0
H312 H 0.70184 0.77562 0.36968 0.0
H313 H 0.65613 0.93956 0.31984 0.0
H314 H 0.6068 0.79022 0.39758 0.0
H315 H 0.75707 0.93107 0.29729 0.0
H316 H 0.63017 0.87687 0.34184 0.0
H317 H 0.71463 0.82414 0.33662 0.0
C318 C 0.68342 0.7888 0.36868 0.0
C319 C 0.65375 0.77959 0.38667 0.0
C320 C 0.65779 0.88853 0.33184 0.0
C321 C 0.6683 0.83513 0.34903 0.0
C322 C 0.67268 0.92435 0.3193 0.0
C323 C 0.70924 0.94095 0.30718 0.0
C324 C 0.6797 0.86932 0.33233 0.0
C325 C 0.72907 0.91966 0.30675 0.0
C326 C 0.6907 0.81645 0.3498 0.0
C327 C 0.63036 0.79699 0.38429 0.0
N328 N 0.71425 0.88512 0.31946 0.0
N329 N 0.63849 0.82439 0.36599 0.0
H330 H 0.69932 0.63719 0.4839 0.0
H331 H 0.90891 0.67803 0.52581 0.0
H332 H 0.80846 0.72641 0.4515 0.0
H333 H 0.80187 0.59637 0.56404 0.0
H334 H 0.87071 0.68199 0.49062 0.0
H335 H 0.73439 0.60863 0.50512 0.0
C336 C 0.73054 0.65037 0.48087 0.0
C337 C 0.75125 0.68493 0.46655 0.0
C338 C 0.85549 0.66274 0.5065 0.0
C339 C 0.79136 0.65249 0.49075 0.0
C340 C 0.87728 0.66056 0.52662 0.0
C341 C 0.85836 0.63772 0.5481 0.0
C342 C 0.81451 0.64247 0.50813 0.0
C343 C 0.81747 0.61489 0.54796 0.0
C344 C 0.75051 0.63403 0.49299 0.0
C345 C 0.7915 0.70036 0.46292 0.0
N346 N 0.79677 0.61849 0.52847 0.0
N347 N 0.81036 0.68438 0.47531 0.0
H348 H 0.04905 0.828 0.62244 0.0
H349 H 0.19397 0.81447 0.72141 0.0
H350 H 0.05445 0.72262 0.63688 0.0
H351 H 0.19076 0.92066 0.70576 0.0
H352 H 0.1516 0.78348 0.68456 0.0
H353 H 0.10987 0.86565 0.64633 0.0
C354 C 0.06336 0.81289 0.63025 0.0
C355 C 0.04616 0.772 0.62828 0.0
C356 C 0.16055 0.81372 0.689 0.0
C357 C 0.11533 0.81469 0.65577 0.0
C358 C 0.18461 0.83134 0.71008 0.0
C359 C 0.19507 0.86981 0.71693 0.0
C360 C 0.14669 0.8347 0.67489 0.0
C361 C 0.18274 0.89063 0.70139 0.0
C362 C 0.09805 0.83437 0.64392 0.0
C363 C 0.06621 0.754 0.63846 0.0
N364 N 0.15871 0.87261 0.68128 0.0
N365 N 0.09941 0.77538 0.65214 0.0
H366 H 0.22926 0.06167 0.79322 0.0
H367 H 0.38639 0.20928 0.89126 0.0
H368 H 0.32649 0.05007 0.82023 0.0
H369 H 0.29662 0.22622 0.85657 0.0
H370 H 0.37231 0.15725 0.8602 0.0
H371 H 0.25991 0.12754 0.81123 0.0
C372 C 0.2572 0.0731 0.80281 0.0
C373 C 0.27497 0.05013 0.8057 0.0
C374 C 0.35621 0.17288 0.85911 0.0
C375 C 0.31017 0.1254 0.8265 0.0
C376 C 0.3643 0.20258 0.87679 0.0
C377 C 0.3419 0.22122 0.87681 0.0
C378 C 0.32545 0.1619 0.84157 0.0
C379 C 0.31391 0.21183 0.85755 0.0
C380 C 0.27483 0.11082 0.81298 0.0
C381 C 0.31153 0.06666 0.81787 0.0
N382 N 0.30604 0.18237 0.84096 0.0
N383 N 0.32766 0.10313 0.82822 0.0
H384 H 0.65464 0.72909 0.85201 0.0
H385 H 0.69681 0.93289 0.79392 0.0
H386 H 0.76059 0.83958 0.865 0.0
H387 H 0.6009 0.82027 0.77081 0.0
H388 H 0.71091 0.90107 0.82894 0.0
H389 H 0.62584 0.76419 0.83133 0.0
C390 C 0.67172 0.76079 0.85078 0.0
C391 C 0.71048 0.7814 0.85964 0.0
C392 C 0.68643 0.88339 0.81644 0.0
C393 C 0.67762 0.82159 0.83601 0.0
C394 C 0.67836 0.9015 0.79644 0.0
C395 C 0.64829 0.87894 0.77909 0.0
C396 C 0.66439 0.84246 0.81896 0.0
C397 C 0.62484 0.83859 0.7835 0.0
C398 C 0.65519 0.78078 0.83901 0.0
C399 C 0.7309 0.82247 0.85799 0.0
N400 N 0.6338 0.82147 0.80282 0.0
N401 N 0.71439 0.84121 0.84601 0.0
H402 H 0.78224 0.72061 0.96008 0.0
H403 H 0.91925 0.65071 0.02459 0.0
H404 H 0.78672 0.6174 0.93697 0.0
H405 H 0.92803 0.76333 0.038 0.0
H406 H 0.85874 0.62986 0.00102 0.0
H407 H 0.82351 0.728 -0.00336 0.0
C408 C 0.79167 0.6993 0.96283 0.0
C409 C 0.7819 0.6689 0.94519 0.0
C410 C 0.8736 0.65891 0.00946 0.0
C411 C 0.8291 0.6772 0.98694 0.0
C412 C 0.90815 0.67087 0.02295 0.0
C413 C 0.92926 0.70923 0.03269 0.0
C414 C 0.8602 0.68552 0.00568 0.0
C415 C 0.91311 0.73378 0.03037 0.0
C416 C 0.81512 0.70346 0.98375 0.0
C417 C 0.79421 0.64167 0.94995 0.0
N418 N 0.87979 0.72169 0.01673 0.0
N419 N 0.81772 0.64679 0.97023 0.0
H420 H 0.28236 0.93906 0.17091 0.0
H421 H 0.06827 0.76957 0.13428 0.0
H422 H 0.17548 0.93425 0.19553 0.0
H423 H 0.17334 0.78388 0.09865 0.0
H424 H 0.10821 0.82014 0.16523 0.0
H425 H 0.24373 0.8735 0.15253 0.0
C426 C 0.2508 0.92406 0.17272 0.0
C427 C 0.23201 0.94245 0.18429 0.0
C428 C 0.12258 0.8119 0.15086 0.0
C429 C 0.18786 0.86758 0.16343 0.0
C430 C 0.0998 0.78305 0.1332 0.0
C431 C 0.11764 0.77332 0.11356 0.0
C432 C 0.16346 0.8314 0.14871 0.0
C433 C 0.15851 0.79104 0.11332 0.0
C434 C 0.22882 0.88665 0.16225 0.0
C435 C 0.19114 0.92148 0.18636 0.0
N436 N 0.18018 0.81984 0.1304 0.0
N437 N 0.1704 0.8853 0.17577 0.0
H438 H 0.38835 0.18616 0.2577 0.0
H439 H 0.23847 0.16561 0.36605 0.0
H440 H 0.29509 0.07587 0.28611 0.0
H441 H 0.32843 0.27667 0.33612 0.0
H442 H 0.2682 0.13281 0.34351 0.0
H443 H 0.37617 0.22006 0.29264 0.0
C444 C 0.3657 0.16907 0.27149 0.0
C445 C 0.34202 0.12834 0.26872 0.0
C446 C 0.28174 0.16443 0.34212 0.0
C447 C 0.32791 0.16669 0.30851 0.0
C448 C 0.26472 0.18316 0.35495 0.0
C449 C 0.28044 0.22379 0.35243 0.0
C450 C 0.31444 0.18644 0.32645 0.0
C451 C 0.31491 0.24516 0.33821 0.0
C452 C 0.35876 0.18838 0.29142 0.0
C453 C 0.31344 0.10746 0.28726 0.0
N454 N 0.33042 0.22612 0.32539 0.0
N455 N 0.30683 0.12695 0.30618 0.0
H456 H 0.20712 0.2749 0.45631 0.0
H457 H 0.07128 0.33924 0.5284 0.0
H458 H 0.19891 0.37755 0.43773 0.0
H459 H 0.06466 0.22693 0.53802 0.0
H460 H 0.13193 0.36243 0.5046 0.0
H461 H 0.16876 0.26602 0.49482 0.0
C462 C 0.19759 0.29583 0.46049 0.0
C463 C 0.20526 0.32643 0.44352 0.0
C464 C 0.11756 0.33294 0.5123 0.0
C465 C 0.16155 0.31646 0.48746 0.0
C466 C 0.08293 0.31964 0.52591 0.0
C467 C 0.06228 0.28067 0.53451 0.0
C468 C 0.13141 0.30699 0.50716 0.0
C469 C 0.0792 0.25693 0.53125 0.0
C470 C 0.17582 0.2908 0.4825 0.0
C471 C 0.1929 0.3531 0.45006 0.0
N472 N 0.11247 0.27024 0.51735 0.0
N473 N 0.17111 0.34716 0.47139 0.0
H474 H 0.81238 0.2047 0.59385 0.0
H475 H 0.81013 0.07392 0.70983 0.0
H476 H 0.91524 0.21747 0.63189 0.0
H477 H 0.70618 0.0548 0.66991 0.0
H478 H 0.84744 0.13643 0.6879 0.0
H479 H 0.77182 0.15965 0.62759 0.0
C480 C 0.82641 0.19845 0.60949 0.0
C481 C 0.86703 0.21391 0.60983 0.0
C482 C 0.81636 0.11882 0.68415 0.0
C483 C 0.82116 0.1628 0.64826 0.0
C484 C 0.79507 0.08307 0.69663 0.0
C485 C 0.75525 0.05872 0.69116 0.0
C486 C 0.7978 0.12999 0.66581 0.0
C487 C 0.73703 0.07241 0.67434 0.0
C488 C 0.80331 0.17281 0.62872 0.0
C489 C 0.88389 0.20538 0.63062 0.0
N490 N 0.75864 0.1069 0.66187 0.0
N491 N 0.86082 0.17999 0.64884 0.0
H492 H 0.12664 0.23506 0.30593 0.0
H493 H 0.11246 0.35435 0.18777 0.0
H494 H 0.20718 0.35909 0.29678 0.0
H495 H 0.07824 0.23166 0.18326 0.0
H496 H 0.13894 0.35715 0.23065 0.0
H497 H 0.09921 0.23388 0.26385 0.0
C498 C 0.13832 0.26213 0.29519 0.0
C499 C 0.16933 0.29723 0.30485 0.0
C500 C 0.12568 0.32971 0.22017 0.0
C501 C 0.13794 0.296 0.25678 0.0
C502 C 0.1105 0.32804 0.19579 0.0
C503 C 0.09324 0.29273 0.18192 0.0
C504 C 0.12277 0.29566 0.2309 0.0
C505 C 0.09153 0.25954 0.1932 0.0
C506 C 0.12282 0.26135 0.27112 0.0
C507 C 0.18343 0.33137 0.28999 0.0
N508 N 0.10584 0.26174 0.21711 0.0
N509 N 0.16752 0.32996 0.26669 0.0
H510 H 0.86822 0.24375 0.46873 0.0
H511 H 0.85815 0.11266 0.34997 0.0
H512 H 0.90324 0.15594 0.47317 0.0
H513 H 0.77302 0.15011 0.36011 0.0
H514 H 0.88589 0.14044 0.39176 0.0
H515 H 0.84298 0.22063 0.42545 0.0
C516 C 0.87067 0.21972 0.46058 0.0
C517 C 0.88764 0.20157 0.47456 0.0
C518 C 0.86127 0.14271 0.38473 0.0
C519 C 0.85968 0.17572 0.42521 0.0
C520 C 0.84557 0.12713 0.36084 0.0
C521 C 0.8131 0.12893 0.35161 0.0
C522 C 0.84485 0.16084 0.3993 0.0
C523 C 0.7979 0.14787 0.36661 0.0
C524 C 0.85621 0.20654 0.436 0.0
C525 C 0.89007 0.17053 0.46315 0.0
N526 N 0.81398 0.16323 0.38974 0.0
N527 N 0.8765 0.15877 0.43906 0.0
H528 H 0.73872 0.88819 0.64533 0.0
H529 H 0.61473 0.75252 0.52889 0.0
H530 H 0.61637 0.85058 0.63499 0.0
H531 H 0.73906 0.83311 0.5242 0.0
H532 H 0.61409 0.77937 0.57107 0.0
H533 H 0.73854 0.85869 0.60409 0.0
C534 C 0.71175 0.87346 0.63449 0.0
C535 C 0.67752 0.87193 0.64356 0.0
C536 C 0.64144 0.79112 0.56074 0.0
C537 C 0.67714 0.83804 0.59653 0.0
C538 C 0.64188 0.77578 0.53675 0.0
C539 C 0.67698 0.79073 0.52299 0.0
C540 C 0.67647 0.82104 0.57121 0.0
C541 C 0.71129 0.82093 0.53406 0.0
C542 C 0.71175 0.85687 0.61092 0.0
C543 C 0.64345 0.85263 0.62864 0.0
N544 N 0.71023 0.83493 0.5576 0.0
N545 N 0.64407 0.83628 0.60588 0.0
H546 H 0.88227 0.74023 0.68041 0.0
H547 H 0.75998 0.62461 0.80222 0.0
H548 H 0.85173 0.61969 0.69291 0.0
H549 H 0.84492 0.74838 0.80384 0.0
H550 H 0.7835 0.62031 0.75948 0.0
H551 H 0.85782 0.74179 0.723 0.0
C552 C 0.87012 0.71397 0.69204 0.0
C553 C 0.86909 0.67978 0.68313 0.0
C554 C 0.79697 0.64827 0.76935 0.0
C555 C 0.84088 0.6814 0.73179 0.0
C556 C 0.78356 0.6508 0.79362 0.0
C557 C 0.8006 0.68691 0.80659 0.0
C558 C 0.82688 0.68226 0.75783 0.0
C559 C 0.8311 0.71993 0.79461 0.0
C560 C 0.85643 0.715 0.71638 0.0
C561 C 0.85323 0.6467 0.69912 0.0
N562 N 0.84299 0.71689 0.77081 0.0
N563 N 0.83947 0.64823 0.72269 0.0
H564 H 0.23871 0.896 0.87495 0.0
H565 H 0.06979 0.73145 0.95974 0.0
H566 H 0.12178 0.82409 0.84545 0.0
H567 H 0.15347 0.84412 0.99122 0.0
H568 H 0.09644 0.7557 0.91699 0.0
H569 H 0.21531 0.86744 0.91738 0.0
C570 C 0.20824 0.87385 0.87735 0.0
C571 C 0.18204 0.86245 0.85674 0.0
C572 C 0.10904 0.77489 0.93334 0.0
C573 C 0.15548 0.8295 0.9049 0.0
C574 C 0.09408 0.76109 0.95768 0.0
C575 C 0.10942 0.78594 0.97896 0.0
C576 C 0.14013 0.81339 0.93044 0.0
C577 C 0.14069 0.82417 0.97525 0.0
C578 C 0.19496 0.85781 0.90152 0.0
C579 C 0.14282 0.83384 0.8609 0.0
N580 N 0.15521 0.83671 0.95143 0.0
N581 N 0.13071 0.81814 0.88453 0.0
H582 H 0.34732 0.09363 0.11199 0.0
H583 H 0.34082 0.26076 0.03075 0.0
H584 H 0.30663 0.16789 0.14436 0.0
H585 H 0.31045 0.14838 -0.00221 0.0
H586 H 0.34496 0.23577 0.07288 0.0
H587 H 0.35045 0.12251 0.06993 0.0
C588 C 0.33948 0.11631 0.11029 0.0
C589 C 0.32653 0.12833 0.1316 0.0
C590 C 0.33766 0.21679 0.05633 0.0
C591 C 0.33059 0.16163 0.08387 0.0
C592 C 0.33551 0.23102 0.03234 0.0
C593 C 0.32513 0.20649 0.01083 0.0
C594 C 0.33032 0.17816 0.05865 0.0
C595 C 0.31828 0.16811 0.01395 0.0
C596 C 0.34109 0.13255 0.08633 0.0
C597 C 0.31649 0.15765 0.12835 0.0
N598 N 0.32118 0.15513 0.03744 0.0
N599 N 0.31892 0.17349 0.1049 0.0
loop_
_geom_bond_atom_site_label_1
_geom_bond_atom_site_label_2
_geom_bond_distance
_geom_bond_site_symmetry_2
_ccdc_geom_bond_type
C0 O1 1.306 . S
C0 O3 1.160 1_655 S
O1 C0 1.306 . S
O1 Cd2 2.228 1_655 S
Cd2 O1 2.228 1_455 S
Cd2 O6 2.273 . S
Cd2 O10 2.277 . S
O3 C0 1.160 1_455 S
O3 Cd4 2.203 . S
Cd4 O3 2.203 . S
Cd4 O6 2.411 . S
Cd4 O7 2.333 . S
Cd4 O8 2.352 . S
Cd4 O12 2.277 . S
Cd4 O13 2.356 . S
C5 O10 1.209 . S
C5 O12 1.226 . S
O6 Cd2 2.273 . S
O6 Cd4 2.411 . S
O6 C9 1.320 . S
O7 Cd4 2.333 . S
O7 C9 1.214 . S
O8 Cd4 2.352 . S
O8 C11 1.258 . S
C9 O6 1.320 . S
C9 O7 1.214 . S
O10 Cd2 2.277 . S
O10 C5 1.209 . S
C11 O8 1.258 . S
C11 O13 1.282 . S
O12 Cd4 2.277 . S
O12 C5 1.226 . S
O13 Cd4 2.356 . S
O13 C11 1.282 . S
C14 O15 1.306 . S
C14 O17 1.160 1_565 S
O15 C14 1.306 . S
O15 Cd16 2.228 1_565 S
Cd16 O15 2.228 1_545 S
Cd16 O20 2.273 . S
Cd16 O24 2.277 . S
O17 C14 1.160 1_545 S
O17 Cd18 2.203 . S
Cd18 O17 2.203 . S
Cd18 O20 2.411 . S
Cd18 O21 2.333 . S
Cd18 O22 2.352 . S
Cd18 O26 2.277 . S
Cd18 O27 2.356 . S
C19 O24 1.209 . S
C19 O26 1.226 . S
O20 Cd16 2.273 . S
O20 Cd18 2.411 . S
O20 C23 1.320 . S
O21 Cd18 2.333 . S
O21 C23 1.214 . S
O22 Cd18 2.352 . S
O22 C25 1.258 . S
C23 O20 1.320 . S
C23 O21 1.214 . S
O24 Cd16 2.277 . S
O24 C19 1.209 . S
C25 O22 1.258 . S
C25 O27 1.282 . S
O26 Cd18 2.277 . S
O26 C19 1.226 . S
O27 Cd18 2.356 . S
O27 C25 1.282 . S
C28 O29 1.306 . S
C28 O31 1.160 . S
O29 C28 1.306 . S
O29 Cd30 2.228 . S
Cd30 O29 2.228 . S
Cd30 O34 2.273 . S
Cd30 O38 2.277 . S
O31 C28 1.160 . S
O31 Cd32 2.203 . S
Cd32 O31 2.203 . S
Cd32 O34 2.411 . S
Cd32 O35 2.333 . S
Cd32 O36 2.352 . S
Cd32 O40 2.277 . S
Cd32 O41 2.356 . S
C33 O38 1.209 . S
C33 O40 1.226 . S
O34 Cd30 2.273 . S
O34 Cd32 2.411 . S
O34 C37 1.320 . S
O35 Cd32 2.333 . S
O35 C37 1.214 . S
O36 Cd32 2.352 . S
O36 C39 1.258 . S
C37 O34 1.320 . S
C37 O35 1.214 . S
O38 Cd30 2.277 . S
O38 C33 1.209 . S
C39 O36 1.258 . S
C39 O41 1.282 . S
O40 Cd32 2.277 . S
O40 C33 1.226 . S
O41 Cd32 2.356 . S
O41 C39 1.282 . S
C42 O43 1.306 . S
C42 O45 1.160 1_455 S
O43 C42 1.306 . S
O43 Cd44 2.228 1_455 S
Cd44 O43 2.228 1_655 S
Cd44 O48 2.273 . S
Cd44 O52 2.277 . S
O45 C42 1.160 1_655 S
O45 Cd46 2.203 . S
Cd46 O45 2.203 . S
Cd46 O48 2.411 . S
Cd46 O49 2.333 . S
Cd46 O50 2.352 . S
Cd46 O54 2.277 . S
Cd46 O55 2.356 . S
C47 O52 1.209 . S
C47 O54 1.226 . S
O48 Cd44 2.273 . S
O48 Cd46 2.411 . S
O48 C51 1.320 . S
O49 Cd46 2.333 . S
O49 C51 1.214 . S
O50 Cd46 2.352 . S
O50 C53 1.258 . S
C51 O48 1.320 . S
C51 O49 1.214 . S
O52 Cd44 2.277 . S
O52 C47 1.209 . S
C53 O50 1.258 . S
C53 O55 1.282 . S
O54 Cd46 2.277 . S
O54 C47 1.226 . S
O55 Cd46 2.356 . S
O55 C53 1.282 . S
C56 O57 1.306 . S
C56 O59 1.160 1_545 S
O57 C56 1.306 . S
O57 Cd58 2.228 1_545 S
Cd58 O57 2.228 1_565 S
Cd58 O62 2.273 . S
Cd58 O66 2.277 . S
O59 C56 1.160 1_565 S
O59 Cd60 2.203 . S
Cd60 O59 2.203 . S
Cd60 O62 2.411 . S
Cd60 O63 2.333 . S
Cd60 O64 2.352 . S
Cd60 O68 2.277 . S
Cd60 O69 2.356 . S
C61 O66 1.209 . S
C61 O68 1.226 . S
O62 Cd58 2.273 . S
O62 Cd60 2.411 . S
O62 C65 1.320 . S
O63 Cd60 2.333 . S
O63 C65 1.214 . S
O64 Cd60 2.352 . S
O64 C67 1.258 . S
C65 O62 1.320 . S
C65 O63 1.214 . S
O66 Cd58 2.277 . S
O66 C61 1.209 . S
C67 O64 1.258 . S
C67 O69 1.282 . S
O68 Cd60 2.277 . S
O68 C61 1.226 . S
O69 Cd60 2.356 . S
O69 C67 1.282 . S
C70 O71 1.306 . S
C70 O73 1.160 . S
O71 C70 1.306 . S
O71 Cd72 2.228 . S
Cd72 O71 2.228 . S
Cd72 O76 2.273 . S
Cd72 O80 2.277 . S
O73 C70 1.160 . S
O73 Cd74 2.203 . S
Cd74 O73 2.203 . S
Cd74 O76 2.411 . S
Cd74 O77 2.333 . S
Cd74 O78 2.352 . S
Cd74 O82 2.277 1_556 S
Cd74 O83 2.356 . S
C75 O80 1.209 1_554 S
C75 O82 1.226 . S
O76 Cd72 2.273 . S
O76 Cd74 2.411 . S
O76 C79 1.320 . S
O77 Cd74 2.333 . S
O77 C79 1.214 . S
O78 Cd74 2.352 . S
O78 C81 1.258 . S
C79 O76 1.320 . S
C79 O77 1.214 . S
O80 Cd72 2.277 . S
O80 C75 1.209 1_556 S
C81 O78 1.258 . S
C81 O83 1.282 . S
O82 Cd74 2.277 1_554 S
O82 C75 1.226 . S
O83 Cd74 2.356 . S
O83 C81 1.282 . S
C84 O85 1.306 . S
C84 O87 1.160 1_545 S
O85 C84 1.306 . S
O85 Cd86 2.228 1_545 S
Cd86 O85 2.228 1_565 S
Cd86 O90 2.273 . S
Cd86 O94 2.277 . S
O87 C84 1.160 1_565 S
O87 Cd88 2.203 . S
Cd88 O87 2.203 . S
Cd88 O90 2.411 . S
Cd88 O91 2.333 . S
Cd88 O92 2.352 . S
Cd88 O96 2.277 . S
Cd88 O97 2.356 . S
C89 O94 1.209 . S
C89 O96 1.226 . S
O90 Cd86 2.273 . S
O90 Cd88 2.411 . S
O90 C93 1.320 . S
O91 Cd88 2.333 . S
O91 C93 1.214 . S
O92 Cd88 2.352 . S
O92 C95 1.258 . S
C93 O90 1.320 . S
C93 O91 1.214 . S
O94 Cd86 2.277 . S
O94 C89 1.209 . S
C95 O92 1.258 . S
C95 O97 1.282 . S
O96 Cd88 2.277 . S
O96 C89 1.226 . S
O97 Cd88 2.356 . S
O97 C95 1.282 . S
C98 O99 1.306 . S
C98 O101 1.160 . S
O99 C98 1.306 . S
O99 Cd100 2.228 . S
Cd100 O99 2.228 . S
Cd100 O104 2.273 . S
Cd100 O108 2.277 . S
O101 C98 1.160 . S
O101 Cd102 2.203 . S
Cd102 O101 2.203 . S
Cd102 O104 2.411 . S
Cd102 O105 2.333 . S
Cd102 O106 2.352 . S
Cd102 O110 2.277 . S
Cd102 O111 2.356 . S
C103 O108 1.209 . S
C103 O110 1.226 . S
O104 Cd100 2.273 . S
O104 Cd102 2.411 . S
O104 C107 1.320 . S
O105 Cd102 2.333 . S
O105 C107 1.214 . S
O106 Cd102 2.352 . S
O106 C109 1.258 . S
C107 O104 1.320 . S
C107 O105 1.214 . S
O108 Cd100 2.277 . S
O108 C103 1.209 . S
C109 O106 1.258 . S
C109 O111 1.282 . S
O110 Cd102 2.277 . S
O110 C103 1.226 . S
O111 Cd102 2.356 . S
O111 C109 1.282 . S
C112 O113 1.306 . S
C112 O115 1.160 1_655 S
O113 C112 1.306 . S
O113 Cd114 2.228 1_655 S
Cd114 O113 2.228 1_455 S
Cd114 O118 2.273 . S
Cd114 O122 2.277 . S
O115 C112 1.160 1_455 S
O115 Cd116 2.203 . S
Cd116 O115 2.203 . S
Cd116 O118 2.411 . S
Cd116 O119 2.333 . S
Cd116 O120 2.352 . S
Cd116 O124 2.277 1_554 S
Cd116 O125 2.356 . S
C117 O122 1.209 1_556 S
C117 O124 1.226 . S
O118 Cd114 2.273 . S
O118 Cd116 2.411 . S
O118 C121 1.320 . S
O119 Cd116 2.333 . S
O119 C121 1.214 . S
O120 Cd116 2.352 . S
O120 C123 1.258 . S
C121 O118 1.320 . S
C121 O119 1.214 . S
O122 Cd114 2.277 . S
O122 C117 1.209 1_554 S
C123 O120 1.258 . S
C123 O125 1.282 . S
O124 Cd116 2.277 1_556 S
O124 C117 1.226 . S
O125 Cd116 2.356 . S
O125 C123 1.282 . S
C126 O127 1.306 . S
C126 O129 1.160 1_565 S
O127 C126 1.306 . S
O127 Cd128 2.228 1_565 S
Cd128 O127 2.228 1_545 S
Cd128 O132 2.273 . S
Cd128 O136 2.277 . S
O129 C126 1.160 1_545 S
O129 Cd130 2.203 . S
Cd130 O129 2.203 . S
Cd130 O132 2.411 . S
Cd130 O133 2.333 . S
Cd130 O134 2.352 . S
Cd130 O138 2.277 . S
Cd130 O139 2.356 . S
C131 O136 1.209 . S
C131 O138 1.226 . S
O132 Cd128 2.273 . S
O132 Cd130 2.411 . S
O132 C135 1.320 . S
O133 Cd130 2.333 . S
O133 C135 1.214 . S
O134 Cd130 2.352 . S
O134 C137 1.258 . S
C135 O132 1.320 . S
C135 O133 1.214 . S
O136 Cd128 2.277 . S
O136 C131 1.209 . S
C137 O134 1.258 . S
C137 O139 1.282 . S
O138 Cd130 2.277 . S
O138 C131 1.226 . S
O139 Cd130 2.356 . S
O139 C137 1.282 . S
C140 O141 1.306 . S
C140 O143 1.160 . S
O141 C140 1.306 . S
O141 Cd142 2.228 . S
Cd142 O141 2.228 . S
Cd142 O146 2.273 . S
Cd142 O150 2.277 . S
O143 C140 1.160 . S
O143 Cd144 2.203 . S
Cd144 O143 2.203 . S
Cd144 O146 2.411 . S
Cd144 O147 2.333 . S
Cd144 O148 2.352 . S
Cd144 O152 2.277 . S
Cd144 O153 2.356 . S
C145 O150 1.209 . S
C145 O152 1.226 . S
O146 Cd142 2.273 . S
O146 Cd144 2.411 . S
O146 C149 1.320 . S
O147 Cd144 2.333 . S
O147 C149 1.214 . S
O148 Cd144 2.352 . S
O148 C151 1.258 . S
C149 O146 1.320 . S
C149 O147 1.214 . S
O150 Cd142 2.277 . S
O150 C145 1.209 . S
C151 O148 1.258 . S
C151 O153 1.282 . S
O152 Cd144 2.277 . S
O152 C145 1.226 . S
O153 Cd144 2.356 . S
O153 C151 1.282 . S
C154 O155 1.306 . S
C154 O157 1.160 1_455 S
O155 C154 1.306 . S
O155 Cd156 2.228 1_455 S
Cd156 O155 2.228 1_655 S
Cd156 O160 2.273 . S
Cd156 O164 2.277 . S
O157 C154 1.160 1_655 S
O157 Cd158 2.203 . S
Cd158 O157 2.203 . S
Cd158 O160 2.411 . S
Cd158 O161 2.333 . S
Cd158 O162 2.352 . S
Cd158 O166 2.277 . S
Cd158 O167 2.356 . S
C159 O164 1.209 . S
C159 O166 1.226 . S
O160 Cd156 2.273 . S
O160 Cd158 2.411 . S
O160 C163 1.320 . S
O161 Cd158 2.333 . S
O161 C163 1.214 . S
O162 Cd158 2.352 . S
O162 C165 1.258 . S
C163 O160 1.320 . S
C163 O161 1.214 . S
O164 Cd156 2.277 . S
O164 C159 1.209 . S
C165 O162 1.258 . S
C165 O167 1.282 . S
O166 Cd158 2.277 . S
O166 C159 1.226 . S
O167 Cd158 2.356 . S
O167 C165 1.282 . S
H168 C174 0.930 . S
H169 C178 0.930 . S
H170 C183 0.929 . S
H171 C181 0.929 . S
H172 C176 0.929 . S
H173 C182 0.929 . S
C174 H168 0.930 . S
C174 C175 1.367 . S
C174 C182 1.378 . S
C175 C174 1.367 . S
C175 C183 1.433 . S
C176 H172 0.929 . S
C176 C178 1.378 . S
C176 C180 1.350 . S
C177 C180 1.463 . S
C177 C182 1.350 . S
C177 N185 1.427 . S
C178 H169 0.930 . S
C178 C176 1.378 . S
C178 C179 1.367 . S
C179 C178 1.367 . S
C179 C181 1.433 . S
C180 C176 1.350 . S
C180 C177 1.463 . S
C180 N184 1.427 . S
C181 H171 0.929 . S
C181 C179 1.433 . S
C181 N184 1.384 . S
C182 H173 0.929 . S
C182 C174 1.378 . S
C182 C177 1.350 . S
C183 H170 0.929 . S
C183 C175 1.433 . S
C183 N185 1.384 . S
N184 C180 1.427 . S
N184 C181 1.384 . S
N185 C177 1.427 . S
N185 C183 1.384 . S
H186 C192 0.930 1_565 S
H187 C196 0.930 . S
H188 C201 0.929 . S
H189 C199 0.929 1_565 S
H190 C194 0.929 . S
H191 C200 0.929 1_565 S
C192 H186 0.930 1_545 S
C192 C193 1.367 . S
C192 C200 1.378 . S
C193 C192 1.367 . S
C193 C201 1.433 . S
C194 H190 0.929 . S
C194 C196 1.378 . S
C194 C198 1.350 . S
C195 C198 1.463 . S
C195 C200 1.350 . S
C195 N203 1.427 . S
C196 H187 0.930 . S
C196 C194 1.378 . S
C196 C197 1.367 . S
C197 C196 1.367 . S
C197 C199 1.433 . S
C198 C194 1.350 . S
C198 C195 1.463 . S
C198 N202 1.427 . S
C199 H189 0.929 1_545 S
C199 C197 1.433 . S
C199 N202 1.384 . S
C200 H191 0.929 1_545 S
C200 C192 1.378 . S
C200 C195 1.350 . S
C201 H188 0.929 . S
C201 C193 1.433 . S
C201 N203 1.384 . S
N202 C198 1.427 . S
N202 C199 1.384 . S
N203 C195 1.427 . S
N203 C201 1.384 . S
H204 C210 0.930 . S
H205 C214 0.930 . S
H206 C219 0.929 . S
H207 C217 0.929 . S
H208 C212 0.929 . S
H209 C218 0.929 . S
C210 H204 0.930 . S
C210 C211 1.367 . S
C210 C218 1.378 . S
C211 C210 1.367 . S
C211 C219 1.433 . S
C212 H208 0.929 . S
C212 C214 1.378 . S
C212 C216 1.350 . S
C213 C216 1.463 . S
C213 C218 1.350 . S
C213 N221 1.427 . S
C214 H205 0.930 . S
C214 C212 1.378 . S
C214 C215 1.367 . S
C215 C214 1.367 . S
C215 C217 1.433 . S
C216 C212 1.350 . S
C216 C213 1.463 . S
C216 N220 1.427 . S
C217 H207 0.929 . S
C217 C215 1.433 . S
C217 N220 1.384 . S
C218 H209 0.929 . S
C218 C210 1.378 . S
C218 C213 1.350 . S
C219 H206 0.929 . S
C219 C211 1.433 . S
C219 N221 1.384 . S
N220 C216 1.427 . S
N220 C217 1.384 . S
N221 C213 1.427 . S
N221 C219 1.384 . S
H222 C228 0.930 . S
H223 C232 0.930 . S
H224 C237 0.929 . S
H225 C235 0.929 . S
H226 C230 0.929 . S
H227 C236 0.929 . S
C228 H222 0.930 . S
C228 C229 1.367 . S
C228 C236 1.378 . S
C229 C228 1.367 . S
C229 C237 1.433 . S
C230 H226 0.929 . S
C230 C232 1.378 . S
C230 C234 1.350 . S
C231 C234 1.463 . S
C231 C236 1.350 . S
C231 N239 1.427 . S
C232 H223 0.930 . S
C232 C230 1.378 . S
C232 C233 1.367 . S
C233 C232 1.367 . S
C233 C235 1.433 . S
C234 C230 1.350 . S
C234 C231 1.463 . S
C234 N238 1.427 . S
C235 H225 0.929 . S
C235 C233 1.433 . S
C235 N238 1.384 . S
C236 H227 0.929 . S
C236 C228 1.378 . S
C236 C231 1.350 . S
C237 H224 0.929 . S
C237 C229 1.433 . S
C237 N239 1.384 . S
N238 C234 1.427 . S
N238 C235 1.384 . S
N239 C231 1.427 . S
N239 C237 1.384 . S
H240 C246 0.930 1_545 S
H241 C250 0.930 . S
H242 C255 0.929 . S
H243 C253 0.929 1_545 S
H244 C248 0.929 . S
H245 C254 0.929 1_545 S
C246 H240 0.930 1_565 S
C246 C247 1.367 . S
C246 C254 1.378 . S
C247 C246 1.367 . S
C247 C255 1.433 . S
C248 H244 0.929 . S
C248 C250 1.378 . S
C248 C252 1.350 . S
C249 C252 1.463 . S
C249 C254 1.350 . S
C249 N257 1.427 . S
C250 H241 0.930 . S
C250 C248 1.378 . S
C250 C251 1.367 . S
C251 C250 1.367 . S
C251 C253 1.433 . S
C252 C248 1.350 . S
C252 C249 1.463 . S
C252 N256 1.427 . S
C253 H243 0.929 1_565 S
C253 C251 1.433 . S
C253 N256 1.384 . S
C254 H245 0.929 1_565 S
C254 C246 1.378 . S
C254 C249 1.350 . S
C255 H242 0.929 . S
C255 C247 1.433 . S
C255 N257 1.384 . S
N256 C252 1.427 . S
N256 C253 1.384 . S
N257 C249 1.427 . S
N257 C255 1.384 . S
H258 C264 0.930 . S
H259 C268 0.930 . S
H260 C273 0.929 . S
H261 C271 0.929 . S
H262 C266 0.929 . S
H263 C272 0.929 . S
C264 H258 0.930 . S
C264 C265 1.367 . S
C264 C272 1.378 . S
C265 C264 1.367 . S
C265 C273 1.433 . S
C266 H262 0.929 . S
C266 C268 1.378 . S
C266 C270 1.350 . S
C267 C270 1.463 . S
C267 C272 1.350 . S
C267 N275 1.427 . S
C268 H259 0.930 . S
C268 C266 1.378 . S
C268 C269 1.367 . S
C269 C268 1.367 . S
C269 C271 1.433 . S
C270 C266 1.350 . S
C270 C267 1.463 . S
C270 N274 1.427 . S
C271 H261 0.929 . S
C271 C269 1.433 . S
C271 N274 1.384 . S
C272 H263 0.929 . S
C272 C264 1.378 . S
C272 C267 1.350 . S
C273 H260 0.929 . S
C273 C265 1.433 . S
C273 N275 1.384 . S
N274 C270 1.427 . S
N274 C271 1.384 . S
N275 C267 1.427 . S
N275 C273 1.384 . S
H276 C282 0.930 . S
H277 C286 0.939 . S
H278 C291 0.929 . S
H279 C289 0.929 . S
H280 C284 0.929 . S
H281 C290 0.929 . S
C282 H276 0.930 . S
C282 C283 1.367 . S
C282 C290 1.378 . S
C283 C282 1.367 . S
C283 C291 1.433 . S
C284 H280 0.929 . S
C284 C286 1.370 1_554 S
C284 C288 1.350 . S
C285 C288 1.463 . S
C285 C290 1.350 . S
C285 N293 1.427 . S
C286 H277 0.939 . S
C286 C284 1.370 1_556 S
C286 C287 1.366 1_556 S
C287 C286 1.366 1_554 S
C287 C289 1.438 . S
C288 C284 1.350 . S
C288 C285 1.463 . S
C288 N292 1.427 . S
C289 H279 0.929 . S
C289 C287 1.438 . S
C289 N292 1.384 . S
C290 H281 0.929 . S
C290 C282 1.378 . S
C290 C285 1.350 . S
C291 H278 0.929 . S
C291 C283 1.433 . S
C291 N293 1.384 . S
N292 C288 1.427 . S
N292 C289 1.384 . S
N293 C285 1.427 . S
N293 C291 1.384 . S
H294 C300 0.930 . S
H295 C304 0.930 . S
H296 C309 0.929 . S
H297 C307 0.929 . S
H298 C302 0.929 . S
H299 C308 0.929 . S
C300 H294 0.930 . S
C300 C301 1.367 . S
C300 C308 1.378 . S
C301 C300 1.367 . S
C301 C309 1.433 . S
C302 H298 0.929 . S
C302 C304 1.378 . S
C302 C306 1.350 . S
C303 C306 1.463 . S
C303 C308 1.350 . S
C303 N311 1.427 . S
C304 H295 0.930 . S
C304 C302 1.378 . S
C304 C305 1.367 . S
C305 C304 1.367 . S
C305 C307 1.433 . S
C306 C302 1.350 . S
C306 C303 1.463 . S
C306 N310 1.427 . S
C307 H297 0.929 . S
C307 C305 1.433 . S
C307 N310 1.384 . S
C308 H299 0.929 . S
C308 C300 1.378 . S
C308 C303 1.350 . S
C309 H296 0.929 . S
C309 C301 1.433 . S
C309 N311 1.384 . S
N310 C306 1.427 . S
N310 C307 1.384 . S
N311 C303 1.427 . S
N311 C309 1.384 . S
H312 C318 0.930 . S
H313 C322 0.930 . S
H314 C327 0.929 . S
H315 C325 0.929 . S
H316 C320 0.929 . S
H317 C326 0.929 . S
C318 H312 0.930 . S
C318 C319 1.367 . S
C318 C326 1.378 . S
C319 C318 1.367 . S
C319 C327 1.433 . S
C320 H316 0.929 . S
C320 C322 1.378 . S
C320 C324 1.350 . S
C321 C324 1.463 . S
C321 C326 1.350 . S
C321 N329 1.427 . S
C322 H313 0.930 . S
C322 C320 1.378 . S
C322 C323 1.367 . S
C323 C322 1.367 . S
C323 C325 1.433 . S
C324 C320 1.350 . S
C324 C321 1.463 . S
C324 N328 1.427 . S
C325 H315 0.929 . S
C325 C323 1.433 . S
C325 N328 1.384 . S
C326 H317 0.929 . S
C326 C318 1.378 . S
C326 C321 1.350 . S
C327 H314 0.929 . S
C327 C319 1.433 . S
C327 N329 1.384 . S
N328 C324 1.427 . S
N328 C325 1.384 . S
N329 C321 1.427 . S
N329 C327 1.384 . S
H330 C336 0.930 . S
H331 C340 0.930 . S
H332 C345 0.929 . S
H333 C343 0.929 . S
H334 C338 0.929 . S
H335 C344 0.929 . S
C336 H330 0.930 . S
C336 C337 1.367 . S
C336 C344 1.378 . S
C337 C336 1.367 . S
C337 C345 1.433 . S
C338 H334 0.929 . S
C338 C340 1.378 . S
C338 C342 1.350 . S
C339 C342 1.463 . S
C339 C344 1.350 . S
C339 N347 1.427 . S
C340 H331 0.930 . S
C340 C338 1.378 . S
C340 C341 1.367 . S
C341 C340 1.367 . S
C341 C343 1.433 . S
C342 C338 1.350 . S
C342 C339 1.463 . S
C342 N346 1.427 . S
C343 H333 0.929 . S
C343 C341 1.433 . S
C343 N346 1.384 . S
C344 H335 0.929 . S
C344 C336 1.378 . S
C344 C339 1.350 . S
C345 H332 0.929 . S
C345 C337 1.433 . S
C345 N347 1.384 . S
N346 C342 1.427 . S
N346 C343 1.384 . S
N347 C339 1.427 . S
N347 C345 1.384 . S
H348 C354 0.930 . S
H349 C358 0.930 . S
H350 C363 0.929 . S
H351 C361 0.929 . S
H352 C356 0.929 . S
H353 C362 0.929 . S
C354 H348 0.930 . S
C354 C355 1.367 . S
C354 C362 1.378 . S
C355 C354 1.367 . S
C355 C363 1.433 . S
C356 H352 0.929 . S
C356 C358 1.378 . S
C356 C360 1.350 . S
C357 C360 1.463 . S
C357 C362 1.350 . S
C357 N365 1.427 . S
C358 H349 0.930 . S
C358 C356 1.378 . S
C358 C359 1.367 . S
C359 C358 1.367 . S
C359 C361 1.433 . S
C360 C356 1.350 . S
C360 C357 1.463 . S
C360 N364 1.427 . S
C361 H351 0.929 . S
C361 C359 1.433 . S
C361 N364 1.384 . S
C362 H353 0.929 . S
C362 C354 1.378 . S
C362 C357 1.350 . S
C363 H350 0.929 . S
C363 C355 1.433 . S
C363 N365 1.384 . S
N364 C360 1.427 . S
N364 C361 1.384 . S
N365 C357 1.427 . S
N365 C363 1.384 . S
H366 C372 0.930 . S
H367 C376 0.930 . S
H368 C381 0.929 . S
H369 C379 0.929 . S
H370 C374 0.929 . S
H371 C380 0.929 . S
C372 H366 0.930 . S
C372 C373 1.367 . S
C372 C380 1.378 . S
C373 C372 1.367 . S
C373 C381 1.433 . S
C374 H370 0.929 . S
C374 C376 1.378 . S
C374 C378 1.350 . S
C375 C378 1.463 . S
C375 C380 1.350 . S
C375 N383 1.427 . S
C376 H367 0.930 . S
C376 C374 1.378 . S
C376 C377 1.367 . S
C377 C376 1.367 . S
C377 C379 1.433 . S
C378 C374 1.350 . S
C378 C375 1.463 . S
C378 N382 1.427 . S
C379 H369 0.929 . S
C379 C377 1.433 . S
C379 N382 1.384 . S
C380 H371 0.929 . S
C380 C372 1.378 . S
C380 C375 1.350 . S
C381 H368 0.929 . S
C381 C373 1.433 . S
C381 N383 1.384 . S
N382 C378 1.427 . S
N382 C379 1.384 . S
N383 C375 1.427 . S
N383 C381 1.384 . S
H384 C390 0.930 . S
H385 C394 0.930 . S
H386 C399 0.929 . S
H387 C397 0.929 . S
H388 C392 0.929 . S
H389 C398 0.929 . S
C390 H384 0.930 . S
C390 C391 1.367 . S
C390 C398 1.378 . S
C391 C390 1.367 . S
C391 C399 1.433 . S
C392 H388 0.929 . S
C392 C394 1.378 . S
C392 C396 1.350 . S
C393 C396 1.463 . S
C393 C398 1.350 . S
C393 N401 1.427 . S
C394 H385 0.930 . S
C394 C392 1.378 . S
C394 C395 1.367 . S
C395 C394 1.367 . S
C395 C397 1.433 . S
C396 C392 1.350 . S
C396 C393 1.463 . S
C396 N400 1.427 . S
C397 H387 0.929 . S
C397 C395 1.433 . S
C397 N400 1.384 . S
C398 H389 0.929 . S
C398 C390 1.378 . S
C398 C393 1.350 . S
C399 H386 0.929 . S
C399 C391 1.433 . S
C399 N401 1.384 . S
N400 C396 1.427 . S
N400 C397 1.384 . S
N401 C393 1.427 . S
N401 C399 1.384 . S
H402 C408 0.930 . S
H403 C412 0.930 . S
H404 C417 0.929 . S
H405 C415 0.929 . S
H406 C410 0.929 . S
H407 C416 0.929 . S
C408 H402 0.930 . S
C408 C409 1.367 . S
C408 C416 1.378 . S
C409 C408 1.367 . S
C409 C417 1.433 . S
C410 H406 0.929 . S
C410 C412 1.378 . S
C410 C414 1.350 . S
C411 C414 1.463 . S
C411 C416 1.350 . S
C411 N419 1.427 . S
C412 H403 0.930 . S
C412 C410 1.378 . S
C412 C413 1.396 . S
C413 C412 1.396 . S
C413 C415 1.424 1_556 S
C414 C410 1.350 . S
C414 C411 1.463 . S
C414 N418 1.427 . S
C415 H405 0.929 . S
C415 C413 1.424 1_554 S
C415 N418 1.384 1_554 S
C416 H407 0.929 . S
C416 C408 1.378 . S
C416 C411 1.350 . S
C417 H404 0.929 . S
C417 C409 1.433 . S
C417 N419 1.384 . S
N418 C414 1.427 . S
N418 C415 1.384 1_556 S
N419 C411 1.427 . S
N419 C417 1.384 . S
H420 C426 0.930 . S
H421 C430 0.930 . S
H422 C435 0.929 . S
H423 C433 0.929 . S
H424 C428 0.929 . S
H425 C434 0.929 . S
C426 H420 0.930 . S
C426 C427 1.367 . S
C426 C434 1.378 . S
C427 C426 1.367 . S
C427 C435 1.433 . S
C428 H424 0.929 . S
C428 C430 1.378 . S
C428 C432 1.350 . S
C429 C432 1.463 . S
C429 C434 1.350 . S
C429 N437 1.427 . S
C430 H421 0.930 . S
C430 C428 1.378 . S
C430 C431 1.367 . S
C431 C430 1.367 . S
C431 C433 1.433 . S
C432 C428 1.350 . S
C432 C429 1.463 . S
C432 N436 1.427 . S
C433 H423 0.929 . S
C433 C431 1.433 . S
C433 N436 1.384 . S
C434 H425 0.929 . S
C434 C426 1.378 . S
C434 C429 1.350 . S
C435 H422 0.929 . S
C435 C427 1.433 . S
C435 N437 1.384 . S
N436 C432 1.427 . S
N436 C433 1.384 . S
N437 C429 1.427 . S
N437 C435 1.384 . S
H438 C444 0.930 . S
H439 C448 0.930 . S
H440 C453 0.929 . S
H441 C451 0.929 . S
H442 C446 0.929 . S
H443 C452 0.929 . S
C444 H438 0.930 . S
C444 C445 1.367 . S
C444 C452 1.378 . S
C445 C444 1.367 . S
C445 C453 1.433 . S
C446 H442 0.929 . S
C446 C448 1.378 . S
C446 C450 1.350 . S
C447 C450 1.463 . S
C447 C452 1.350 . S
C447 N455 1.427 . S
C448 H439 0.930 . S
C448 C446 1.378 . S
C448 C449 1.367 . S
C449 C448 1.367 . S
C449 C451 1.433 . S
C450 C446 1.350 . S
C450 C447 1.463 . S
C450 N454 1.427 . S
C451 H441 0.929 . S
C451 C449 1.433 . S
C451 N454 1.384 . S
C452 H443 0.929 . S
C452 C444 1.378 . S
C452 C447 1.350 . S
C453 H440 0.929 . S
C453 C445 1.433 . S
C453 N455 1.384 . S
N454 C450 1.427 . S
N454 C451 1.384 . S
N455 C447 1.427 . S
N455 C453 1.384 . S
H456 C462 0.930 . S
H457 C466 0.930 . S
H458 C471 0.929 . S
H459 C469 0.929 . S
H460 C464 0.929 . S
H461 C470 0.929 . S
C462 H456 0.930 . S
C462 C463 1.367 . S
C462 C470 1.378 . S
C463 C462 1.367 . S
C463 C471 1.433 . S
C464 H460 0.929 . S
C464 C466 1.378 . S
C464 C468 1.350 . S
C465 C468 1.463 . S
C465 C470 1.350 . S
C465 N473 1.427 . S
C466 H457 0.930 . S
C466 C464 1.378 . S
C466 C467 1.367 . S
C467 C466 1.367 . S
C467 C469 1.433 . S
C468 C464 1.350 . S
C468 C465 1.463 . S
C468 N472 1.427 . S
C469 H459 0.929 . S
C469 C467 1.433 . S
C469 N472 1.384 . S
C470 H461 0.929 . S
C470 C462 1.378 . S
C470 C465 1.350 . S
C471 H458 0.929 . S
C471 C463 1.433 . S
C471 N473 1.384 . S
N472 C468 1.427 . S
N472 C469 1.384 . S
N473 C465 1.427 . S
N473 C471 1.384 . S
H474 C480 0.930 . S
H475 C484 0.930 . S
H476 C489 0.929 . S
H477 C487 0.929 . S
H478 C482 0.929 . S
H479 C488 0.929 . S
C480 H474 0.930 . S
C480 C481 1.367 . S
C480 C488 1.378 . S
C481 C480 1.367 . S
C481 C489 1.433 . S
C482 H478 0.929 . S
C482 C484 1.378 . S
C482 C486 1.350 . S
C483 C486 1.463 . S
C483 C488 1.350 . S
C483 N491 1.427 . S
C484 H475 0.930 . S
C484 C482 1.378 . S
C484 C485 1.367 . S
C485 C484 1.367 . S
C485 C487 1.433 . S
C486 C482 1.350 . S
C486 C483 1.463 . S
C486 N490 1.427 . S
C487 H477 0.929 . S
C487 C485 1.433 . S
C487 N490 1.384 . S
C488 H479 0.929 . S
C488 C480 1.378 . S
C488 C483 1.350 . S
C489 H476 0.929 . S
C489 C481 1.433 . S
C489 N491 1.384 . S
N490 C486 1.427 . S
N490 C487 1.384 . S
N491 C483 1.427 . S
N491 C489 1.384 . S
H492 C498 0.930 . S
H493 C502 0.930 . S
H494 C507 0.929 . S
H495 C505 0.929 . S
H496 C500 0.929 . S
H497 C506 0.929 . S
C498 H492 0.930 . S
C498 C499 1.367 . S
C498 C506 1.378 . S
C499 C498 1.367 . S
C499 C507 1.433 . S
C500 H496 0.929 . S
C500 C502 1.378 . S
C500 C504 1.350 . S
C501 C504 1.463 . S
C501 C506 1.350 . S
C501 N509 1.427 . S
C502 H493 0.930 . S
C502 C500 1.378 . S
C502 C503 1.367 . S
C503 C502 1.367 . S
C503 C505 1.433 . S
C504 C500 1.350 . S
C504 C501 1.463 . S
C504 N508 1.427 . S
C505 H495 0.929 . S
C505 C503 1.433 . S
C505 N508 1.384 . S
C506 H497 0.929 . S
C506 C498 1.378 . S
C506 C501 1.350 . S
C507 H494 0.929 . S
C507 C499 1.433 . S
C507 N509 1.384 . S
N508 C504 1.427 . S
N508 C505 1.384 . S
N509 C501 1.427 . S
N509 C507 1.384 . S
H510 C516 0.930 . S
H511 C520 0.930 . S
H512 C525 0.929 . S
H513 C523 0.929 . S
H514 C518 0.929 . S
H515 C524 0.929 . S
C516 H510 0.930 . S
C516 C517 1.367 . S
C516 C524 1.378 . S
C517 C516 1.367 . S
C517 C525 1.433 . S
C518 H514 0.929 . S
C518 C520 1.378 . S
C518 C522 1.350 . S
C519 C522 1.463 . S
C519 C524 1.350 . S
C519 N527 1.427 . S
C520 H511 0.930 . S
C520 C518 1.378 . S
C520 C521 1.367 . S
C521 C520 1.367 . S
C521 C523 1.433 . S
C522 C518 1.350 . S
C522 C519 1.463 . S
C522 N526 1.427 . S
C523 H513 0.929 . S
C523 C521 1.433 . S
C523 N526 1.384 . S
C524 H515 0.929 . S
C524 C516 1.378 . S
C524 C519 1.350 . S
C525 H512 0.929 . S
C525 C517 1.433 . S
C525 N527 1.384 . S
N526 C522 1.427 . S
N526 C523 1.384 . S
N527 C519 1.427 . S
N527 C525 1.384 . S
H528 C534 0.930 . S
H529 C538 0.930 . S
H530 C543 0.929 . S
H531 C541 0.929 . S
H532 C536 0.929 . S
H533 C542 0.929 . S
C534 H528 0.930 . S
C534 C535 1.367 . S
C534 C542 1.378 . S
C535 C534 1.367 . S
C535 C543 1.433 . S
C536 H532 0.929 . S
C536 C538 1.378 . S
C536 C540 1.350 . S
C537 C540 1.463 . S
C537 C542 1.350 . S
C537 N545 1.427 . S
C538 H529 0.930 . S
C538 C536 1.378 . S
C538 C539 1.367 . S
C539 C538 1.367 . S
C539 C541 1.433 . S
C540 C536 1.350 . S
C540 C537 1.463 . S
C540 N544 1.427 . S
C541 H531 0.929 . S
C541 C539 1.433 . S
C541 N544 1.384 . S
C542 H533 0.929 . S
C542 C534 1.378 . S
C542 C537 1.350 . S
C543 H530 0.929 . S
C543 C535 1.433 . S
C543 N545 1.384 . S
N544 C540 1.427 . S
N544 C541 1.384 . S
N545 C537 1.427 . S
N545 C543 1.384 . S
H546 C552 0.930 . S
H547 C556 0.930 . S
H548 C561 0.929 . S
H549 C559 0.929 . S
H550 C554 0.929 . S
H551 C560 0.929 . S
C552 H546 0.930 . S
C552 C553 1.367 . S
C552 C560 1.378 . S
C553 C552 1.367 . S
C553 C561 1.433 . S
C554 H550 0.929 . S
C554 C556 1.378 . S
C554 C558 1.350 . S
C555 C558 1.463 . S
C555 C560 1.350 . S
C555 N563 1.427 . S
C556 H547 0.930 . S
C556 C554 1.378 . S
C556 C557 1.367 . S
C557 C556 1.367 . S
C557 C559 1.433 . S
C558 C554 1.350 . S
C558 C555 1.463 . S
C558 N562 1.427 . S
C559 H549 0.929 . S
C559 C557 1.433 . S
C559 N562 1.384 . S
C560 H551 0.929 . S
C560 C552 1.378 . S
C560 C555 1.350 . S
C561 H548 0.929 . S
C561 C553 1.433 . S
C561 N563 1.384 . S
N562 C558 1.427 . S
N562 C559 1.384 . S
N563 C555 1.427 . S
N563 C561 1.384 . S
H564 C570 0.930 . S
H565 C574 0.930 . S
H566 C579 0.929 . S
H567 C577 0.929 . S
H568 C572 0.929 . S
H569 C578 0.929 . S
C570 H564 0.930 . S
C570 C571 1.367 . S
C570 C578 1.378 . S
C571 C570 1.367 . S
C571 C579 1.433 . S
C572 H568 0.929 . S
C572 C574 1.378 . S
C572 C576 1.350 . S
C573 C576 1.463 . S
C573 C578 1.350 . S
C573 N581 1.427 . S
C574 H565 0.930 . S
C574 C572 1.378 . S
C574 C575 1.367 . S
C575 C574 1.367 . S
C575 C577 1.433 . S
C576 C572 1.350 . S
C576 C573 1.463 . S
C576 N580 1.427 . S
C577 H567 0.929 . S
C577 C575 1.433 . S
C577 N580 1.384 . S
C578 H569 0.929 . S
C578 C570 1.378 . S
C578 C573 1.350 . S
C579 H566 0.929 . S
C579 C571 1.433 . S
C579 N581 1.384 . S
N580 C576 1.427 . S
N580 C577 1.384 . S
N581 C573 1.427 . S
N581 C579 1.384 . S
H582 C588 0.930 . S
H583 C592 0.930 . S
H584 C597 0.929 . S
H585 C595 0.929 . S
H586 C590 0.929 . S
H587 C596 0.929 . S
C588 H582 0.930 . S
C588 C589 1.367 . S
C588 C596 1.378 . S
C589 C588 1.367 . S
C589 C597 1.433 . S
C590 H586 0.929 . S
C590 C592 1.378 . S
C590 C594 1.350 . S
C591 C594 1.463 . S
C591 C596 1.350 . S
C591 N599 1.427 . S
C592 H583 0.930 . S
C592 C590 1.378 . S
C592 C593 1.367 . S
C593 C592 1.367 . S
C593 C595 1.433 . S
C594 C590 1.350 . S
C594 C591 1.463 . S
C594 N598 1.427 . S
C595 H585 0.929 . S
C595 C593 1.433 . S
C595 N598 1.384 . S
C596 H587 0.929 . S
C596 C588 1.378 . S
C596 C591 1.350 . S
C597 H584 0.929 . S
C597 C589 1.433 . S
C597 N599 1.384 . S
N598 C594 1.427 . S
N598 C595 1.384 . S
N599 C591 1.427 . S
N599 C597 1.384 . S
C175 C123 1.400 . S
C179 C11 1.400 . S
C193 C25 1.408 . S
C197 C137 1.402 . S
C211 C39 1.405 . S
C215 C151 1.399 . S
C229 C53 1.407 . S
C233 C165 1.407 . S
C247 C95 1.405 . S
C251 C67 1.399 . S
C265 C81 1.404 . S
C269 C109 1.408 . S
C283 C9 1.520 . S
C287 C70 1.490 1_554 S
C301 C23 1.521 . S
C305 C0 1.497 . S
C319 C37 1.525 . S
C323 C14 1.503 . S
C337 C28 1.494 . S
C341 C51 1.526 . S
C355 C42 1.491 . S
C359 C65 1.521 . S
C373 C56 1.500 . S
C377 C79 1.522 . S
C391 C98 1.499 . S
C395 C93 1.528 . S
C409 C107 1.528 . S
C413 C112 1.481 1_556 S
C427 C126 1.495 . S
C431 C121 1.527 . S
C445 C135 1.523 . S
C449 C140 1.502 . S
C463 C149 1.528 . S
C467 C154 1.502 . S
C481 C163 1.521 . S
C485 C84 1.491 . S
C499 C145 1.286 . S
C503 C5 1.288 . S
C517 C159 1.288 . S
C521 C19 1.286 . S
C535 C89 1.286 . S
C539 C33 1.288 . S
C553 C47 1.286 . S
C557 C103 1.288 . S
C571 C61 1.286 . S
C575 C117 1.286 . S
C589 C131 1.286 . S
C593 C75 1.287 . S
