# Generated by pormake.
# Topology lcs, (4)-cn, num edge types: 1
# Building blocks:
#     Node 0, Type 0, BuildingBlock: TATPOV_clean_sbu_0, # of connection points: 4
#     Node 1, Type 0, BuildingBlock: TATPOV_clean_sbu_0, # of connection points: 4
#     Node 2, Type 0, BuildingBlock: TATPOV_clean_sbu_0, # of connection points: 4
#     Node 3, Type 0, BuildingBlock: TATPOV_clean_sbu_0, # of connection points: 4
#     Node 4, Type 0, BuildingBlock: TATPOV_clean_sbu_0, # of connection points: 4
#     Node 5, Type 0, BuildingBlock: TATPOV_clean_sbu_0, # of connection points: 4
#     Node 6, Type 0, BuildingBlock: TATPOV_clean_sbu_0, # of connection points: 4
#     Node 7, Type 0, BuildingBlock: TATPOV_clean_sbu_0, # of connection points: 4
#     Node 8, Type 0, BuildingBlock: TATPOV_clean_sbu_0, # of connection points: 4
#     Node 9, Type 0, BuildingBlock: TATPOV_clean_sbu_0, # of connection points: 4
#     Node 10, Type 0, BuildingBlock: TATPOV_clean_sbu_0, # of connection points: 4
#     Node 11, Type 0, BuildingBlock: TATPOV_clean_sbu_0, # of connection points: 4
#     Node 12, Type 0, BuildingBlock: TATPOV_clean_sbu_0, # of connection points: 4
#     Node 13, Type 0, BuildingBlock: TATPOV_clean_sbu_0, # of connection points: 4
#     Node 14, Type 0, BuildingBlock: TATPOV_clean_sbu_0, # of connection points: 4
#     Node 15, Type 0, BuildingBlock: TATPOV_clean_sbu_0, # of connection points: 4
#     Node 16, Type 0, BuildingBlock: TATPOV_clean_sbu_0, # of connection points: 4
#     Node 17, Type 0, BuildingBlock: TATPOV_clean_sbu_0, # of connection points: 4
#     Node 18, Type 0, BuildingBlock: TATPOV_clean_sbu_0, # of connection points: 4
#     Node 19, Type 0, BuildingBlock: TATPOV_clean_sbu_0, # of connection points: 4
#     Node 20, Type 0, BuildingBlock: TATPOV_clean_sbu_0, # of connection points: 4
#     Node 21, Type 0, BuildingBlock: TATPOV_clean_sbu_0, # of connection points: 4
#     Node 22, Type 0, BuildingBlock: TATPOV_clean_sbu_0, # of connection points: 4
#     Node 23, Type 0, BuildingBlock: TATPOV_clean_sbu_0, # of connection points: 4
#     Edge 24, Type (0, 0), BuildingBlock: TEMPAE_clean_linker_10, # of connection points: 2
#     Edge 25, Type (0, 0), BuildingBlock: TEMPAE_clean_linker_10, # of connection points: 2
#     Edge 26, Type (0, 0), BuildingBlock: TEMPAE_clean_linker_10, # of connection points: 2
#     Edge 27, Type (0, 0), BuildingBlock: TEMPAE_clean_linker_10, # of connection points: 2
#     Edge 28, Type (0, 0), BuildingBlock: TEMPAE_clean_linker_10, # of connection points: 2
#     Edge 29, Type (0, 0), BuildingBlock: TEMPAE_clean_linker_10, # of connection points: 2
#     Edge 30, Type (0, 0), BuildingBlock: TEMPAE_clean_linker_10, # of connection points: 2
#     Edge 31, Type (0, 0), BuildingBlock: TEMPAE_clean_linker_10, # of connection points: 2
#     Edge 32, Type (0, 0), BuildingBlock: TEMPAE_clean_linker_10, # of connection points: 2
#     Edge 33, Type (0, 0), BuildingBlock: TEMPAE_clean_linker_10, # of connection points: 2
#     Edge 34, Type (0, 0), BuildingBlock: TEMPAE_clean_linker_10, # of connection points: 2
#     Edge 35, Type (0, 0), BuildingBlock: TEMPAE_clean_linker_10, # of connection points: 2
#     Edge 36, Type (0, 0), BuildingBlock: TEMPAE_clean_linker_10, # of connection points: 2
#     Edge 37, Type (0, 0), BuildingBlock: TEMPAE_clean_linker_10, # of connection points: 2
#     Edge 38, Type (0, 0), BuildingBlock: TEMPAE_clean_linker_10, # of connection points: 2
#     Edge 39, Type (0, 0), BuildingBlock: TEMPAE_clean_linker_10, # of connection points: 2
#     Edge 40, Type (0, 0), BuildingBlock: TEMPAE_clean_linker_10, # of connection points: 2
#     Edge 41, Type (0, 0), BuildingBlock: TEMPAE_clean_linker_10, # of connection points: 2
#     Edge 42, Type (0, 0), BuildingBlock: TEMPAE_clean_linker_10, # of connection points: 2
#     Edge 43, Type (0, 0), BuildingBlock: TEMPAE_clean_linker_10, # of connection points: 2
#     Edge 44, Type (0, 0), BuildingBlock: TEMPAE_clean_linker_10, # of connection points: 2
#     Edge 45, Type (0, 0), BuildingBlock: TEMPAE_clean_linker_10, # of connection points: 2
#     Edge 46, Type (0, 0), BuildingBlock: TEMPAE_clean_linker_10, # of connection points: 2
#     Edge 47, Type (0, 0), BuildingBlock: TEMPAE_clean_linker_10, # of connection points: 2
#     Edge 48, Type (0, 0), BuildingBlock: TEMPAE_clean_linker_10, # of connection points: 2
#     Edge 49, Type (0, 0), BuildingBlock: TEMPAE_clean_linker_10, # of connection points: 2
#     Edge 50, Type (0, 0), BuildingBlock: TEMPAE_clean_linker_10, # of connection points: 2
#     Edge 51, Type (0, 0), BuildingBlock: TEMPAE_clean_linker_10, # of connection points: 2
#     Edge 52, Type (0, 0), BuildingBlock: TEMPAE_clean_linker_10, # of connection points: 2
#     Edge 53, Type (0, 0), BuildingBlock: TEMPAE_clean_linker_10, # of connection points: 2
#     Edge 54, Type (0, 0), BuildingBlock: TEMPAE_clean_linker_10, # of connection points: 2
#     Edge 55, Type (0, 0), BuildingBlock: TEMPAE_clean_linker_10, # of connection points: 2
#     Edge 56, Type (0, 0), BuildingBlock: TEMPAE_clean_linker_10, # of connection points: 2
#     Edge 57, Type (0, 0), BuildingBlock: TEMPAE_clean_linker_10, # of connection points: 2
#     Edge 58, Type (0, 0), BuildingBlock: TEMPAE_clean_linker_10, # of connection points: 2
#     Edge 59, Type (0, 0), BuildingBlock: TEMPAE_clean_linker_10, # of connection points: 2
#     Edge 60, Type (0, 0), BuildingBlock: TEMPAE_clean_linker_10, # of connection points: 2
#     Edge 61, Type (0, 0), BuildingBlock: TEMPAE_clean_linker_10, # of connection points: 2
#     Edge 62, Type (0, 0), BuildingBlock: TEMPAE_clean_linker_10, # of connection points: 2
#     Edge 63, Type (0, 0), BuildingBlock: TEMPAE_clean_linker_10, # of connection points: 2
#     Edge 64, Type (0, 0), BuildingBlock: TEMPAE_clean_linker_10, # of connection points: 2
#     Edge 65, Type (0, 0), BuildingBlock: TEMPAE_clean_linker_10, # of connection points: 2
#     Edge 66, Type (0, 0), BuildingBlock: TEMPAE_clean_linker_10, # of connection points: 2
#     Edge 67, Type (0, 0), BuildingBlock: TEMPAE_clean_linker_10, # of connection points: 2
#     Edge 68, Type (0, 0), BuildingBlock: TEMPAE_clean_linker_10, # of connection points: 2
#     Edge 69, Type (0, 0), BuildingBlock: TEMPAE_clean_linker_10, # of connection points: 2
#     Edge 70, Type (0, 0), BuildingBlock: TEMPAE_clean_linker_10, # of connection points: 2
#     Edge 71, Type (0, 0), BuildingBlock: TEMPAE_clean_linker_10, # of connection points: 2
# Relax obj value: 0.082
# Max RMSD: 0.146
# Mean RMSD: 0.143
data_MOF--net-lcs--node1-TATPOV_clean_sbu_0--edge1-TEMPAE_clean_linker_10
_symmetry_space_group_name_H-M    P1
_symmetry_Int_Tables_number       1
_symmetry_cell_setting            triclinic
loop_
_symmetry_equiv_pos_as_xyz
'x, y, z'
_cell_length_a     49.115668
_cell_length_b     49.111403
_cell_length_c     49.129398
_cell_angle_alpha  93.398792
_cell_angle_beta   93.404881
_cell_angle_gamma 93.419364
loop_
_atom_site_label
_atom_site_type_symbol
_atom_site_fract_x
_atom_site_fract_y
_atom_site_fract_z
_atom_type_partial_charge
Zn0 Zn -0.00143 0.18281 0.43706 0.0
Zn1 Zn 0.01285 0.22459 0.40721 0.0
O2 O 0.98297 0.2397 0.43065 0.0
O3 O 0.97049 0.20505 0.45454 0.0
O4 O 0.02436 0.25681 0.38604 0.0
O5 O 0.03707 0.18181 0.45286 0.0
O6 O 0.04907 0.21446 0.42637 0.0
C7 C 0.96759 0.22924 0.4478 0.0
C8 C 0.98782 0.17104 0.37925 0.0
O9 O 0.99705 0.19567 0.37792 0.0
O10 O 0.98705 0.16058 0.40216 0.0
C11 C 0.01269 0.26176 0.36321 0.0
O12 O 0.99229 0.24524 0.35259 0.0
C13 C 0.05549 0.19728 0.44375 0.0
Zn14 Zn 0.0033 0.79194 0.55301 0.0
Zn15 Zn 0.99059 0.76078 0.59424 0.0
O16 O 0.95427 0.76175 0.57109 0.0
O17 O 0.96471 0.78653 0.53688 0.0
O18 O 0.98175 0.73497 0.62323 0.0
O19 O 0.03224 0.76694 0.5417 0.0
O20 O 0.02439 0.74455 0.57825 0.0
C21 C 0.94712 0.77293 0.54923 0.0
C22 C 0.01022 0.81973 0.6074 0.0
O23 O 0.00094 0.79693 0.61512 0.0
O24 O 0.01344 0.8227 0.58229 0.0
C25 C 0.99384 0.73694 0.64697 0.0
O26 O 0.0124 0.75703 0.65337 0.0
C27 C 0.03829 0.74858 0.55761 0.0
Zn28 Zn 0.50017 0.72742 0.95694 0.0
Zn29 Zn 0.51452 0.75974 0.91722 0.0
O30 O 0.48249 0.77784 0.93501 0.0
O31 O 0.47381 0.75418 0.97053 0.0
O32 O 0.52517 0.78631 0.88926 0.0
O33 O 0.53899 0.72858 0.97219 0.0
O34 O 0.55085 0.75442 0.93923 0.0
C35 C 0.46881 0.77379 0.95581 0.0
C36 C 0.48965 0.70273 0.90168 0.0
O37 O 0.50057 0.72525 0.89491 0.0
O38 O 0.48692 0.6987 0.92666 0.0
C39 C 0.51478 0.78461 0.86481 0.0
O40 O 0.4966 0.76455 0.85697 0.0
C41 C 0.55736 0.74138 0.96011 0.0
Zn42 Zn 0.49904 0.29252 0.056 0.0
Zn43 Zn 0.48397 0.2576 0.09326 0.0
O44 O 0.44858 0.26172 0.06955 0.0
O45 O 0.46086 0.28988 0.03866 0.0
O46 O 0.47318 0.22923 0.11895 0.0
O47 O 0.52737 0.26748 0.04304 0.0
O48 O 0.5173 0.24152 0.07653 0.0
C49 C 0.44251 0.27525 0.04892 0.0
C50 C 0.50592 0.31445 0.11278 0.0
O51 O 0.49558 0.29114 0.118 0.0
O52 O 0.50946 0.31993 0.08827 0.0
C53 C 0.48757 0.22623 0.14082 0.0
O54 O 0.50941 0.24268 0.14708 0.0
C55 C 0.53204 0.24717 0.05692 0.0
Zn56 Zn 0.95548 0.74095 0.20092 0.0
Zn57 Zn 0.98962 0.7549 0.16221 0.0
O58 O 0.98436 0.79139 0.18373 0.0
O59 O 0.95671 0.78012 0.21545 0.0
O60 O 0.01683 0.76505 0.13489 0.0
O61 O 0.98224 0.71498 0.2156 0.0
O62 O 0.00754 0.72365 0.18119 0.0
C63 C 0.97059 0.7982 0.20399 0.0
C64 C 0.93296 0.72985 0.14493 0.0
O65 O 0.95582 0.74068 0.13898 0.0
O66 O 0.92788 0.72739 0.16971 0.0
C67 C 0.01718 0.75242 0.11154 0.0
O68 O -0.00113 0.73224 0.10457 0.0
C69 C 0.00272 0.71027 0.20199 0.0
Zn70 Zn 0.57165 0.76242 0.32701 0.0
Zn71 Zn 0.52954 0.75015 0.35738 0.0
O72 O 0.51454 0.77833 0.33181 0.0
O73 O 0.54935 0.78903 0.3074 0.0
O74 O 0.49762 0.74111 0.37998 0.0
O75 O 0.57229 0.72303 0.31405 0.0
O76 O 0.53899 0.71264 0.3404 0.0
C77 C 0.5251 0.7924 0.31367 0.0
C78 C 0.58334 0.77676 0.38397 0.0
O79 O 0.5588 0.76744 0.38556 0.0
O80 O 0.59398 0.77633 0.36111 0.0
C81 C 0.49319 0.75564 0.40139 0.0
O82 O 0.50979 0.77706 0.40899 0.0
C83 C 0.55647 0.70526 0.3237 0.0
Zn84 Zn 0.4649 0.26554 0.69987 0.0
Zn85 Zn 0.50012 0.28154 0.66344 0.0
O86 O 0.49855 0.31544 0.69002 0.0
O87 O 0.47029 0.30217 0.72043 0.0
O88 O 0.52902 0.2924 0.63828 0.0
O89 O 0.4875 0.23422 0.70979 0.0
O90 O 0.51348 0.2453 0.67664 0.0
C91 C 0.48572 0.32063 0.71134 0.0
C92 C 0.44194 0.26554 0.64352 0.0
O93 O 0.46576 0.27481 0.63864 0.0
O94 O 0.43666 0.25985 0.66758 0.0
C95 C 0.53089 0.27908 0.61554 0.0
O96 O 0.51302 0.25859 0.60822 0.0
C97 C 0.50703 0.22923 0.69496 0.0
Zn98 Zn 0.03797 0.25307 0.79691 0.0
Zn99 Zn 0.00503 0.23862 0.83631 0.0
O100 O 0.98689 0.27012 0.81779 0.0
O101 O 0.01108 0.2792 0.78275 0.0
O102 O 0.97741 0.22709 0.86286 0.0
O103 O 0.03769 0.21409 0.7817 0.0
O104 O 0.01231 0.20253 0.81512 0.0
C105 C 0.99112 0.28391 0.79712 0.0
C106 C 0.06097 0.26461 0.85315 0.0
O107 O 0.03837 0.2536 0.8596 0.0
O108 O 0.06562 0.26678 0.8282 0.0
C109 C 0.97815 0.23593 0.88779 0.0
O110 O -0.00179 0.25331 0.89756 0.0
C111 C 0.02545 0.19583 0.79439 0.0
Zn112 Zn 0.43317 0.98975 0.1907 0.0
Zn113 Zn 0.40601 0.00345 0.23421 0.0
O114 O 0.42663 0.97039 0.24632 0.0
O115 O 0.44635 0.95706 0.2091 0.0
O116 O 0.38646 0.01474 0.26744 0.0
O117 O 0.45448 0.02612 0.19391 0.0
O118 O 0.42878 0.03858 0.22703 0.0
C119 C 0.44083 0.95354 0.23354 0.0
C120 C 0.37502 0.98658 0.1796 0.0
O121 O 0.37504 0.99277 0.20513 0.0
O122 O 0.39742 0.98522 0.16823 0.0
C123 C 0.36422 0.00272 0.2736 0.0
O124 O 0.35331 0.98192 0.25777 0.0
C125 C 0.44737 0.04435 0.21089 0.0
Zn126 Zn 0.33044 0.07879 0.5131 0.0
Zn127 Zn 0.28633 0.10552 0.49871 0.0
O128 O 0.29267 0.08171 0.46389 0.0
O129 O 0.32647 0.05701 0.47692 0.0
O130 O 0.25331 0.12643 0.48957 0.0
O131 O 0.31207 0.06617 0.54614 0.0
O132 O 0.2748 0.08548 0.53226 0.0
C133 C 0.30902 0.06315 0.45865 0.0
C134 C 0.34113 0.13687 0.51487 0.0
O135 O 0.31561 0.13636 0.50849 0.0
O136 O 0.35279 0.1147 0.51695 0.0
C137 C 0.24249 0.1287 0.46574 0.0
O138 O 0.2528 0.1164 0.4446 0.0
C139 C 0.28758 0.07168 0.54946 0.0
Zn140 Zn 0.19483 0.94878 0.74615 0.0
Zn141 Zn 0.16359 0.99076 0.75676 0.0
O142 O 0.18145 0.98332 0.79456 0.0
O143 O 0.20976 0.95148 0.78514 0.0
O144 O 0.13984 0.02231 0.76481 0.0
O145 O 0.21238 0.9698 0.71739 0.0
O146 O 0.18866 0.00525 0.72774 0.0
C147 C 0.19963 0.96749 0.80239 0.0
C148 C 0.13825 0.93489 0.73313 0.0
O149 O 0.13648 0.96 0.74038 0.0
O150 O 0.16119 0.92444 0.73474 0.0
C151 C 0.11395 0.01949 0.76546 0.0
O152 O 0.10159 0.99502 0.76145 0.0
C153 C 0.20616 0.99395 0.71338 0.0
Zn154 Zn 0.24623 0.80472 0.04545 0.0
Zn155 Zn 0.22984 0.84277 0.01238 0.0
O156 O 0.26513 0.82914 0.9969 0.0
O157 O 0.27624 0.79475 0.02119 0.0
O158 O 0.21809 0.86891 0.98467 0.0
O159 O 0.20919 0.78494 0.04112 0.0
O160 O 0.1956 0.81673 0.01466 0.0
C161 C 0.28086 0.81011 0.00198 0.0
C162 C 0.24829 0.8604 0.0706 0.0
O163 O 0.23836 0.8664 0.04738 0.0
O164 O 0.25365 0.83595 0.07466 0.0
C165 C 0.2297 0.89268 0.98392 0.0
O166 O 0.2494 0.90085 0.00238 0.0
C167 C 0.19042 0.79502 0.02692 0.0
Zn168 Zn 0.2039 0.44391 -0.00183 0.0
Zn169 Zn 0.23659 0.40403 0.01181 0.0
O170 O 0.25622 0.42449 0.98257 0.0
O171 O 0.23217 0.45989 0.97445 0.0
O172 O 0.26359 0.3767 0.02234 0.0
O173 O 0.20261 0.45649 0.03772 0.0
O174 O 0.2288 0.42347 0.0486 0.0
C175 C 0.25256 0.44605 0.97 0.0
C176 C 0.18156 0.38821 0.98295 0.0
O177 O 0.20368 0.38136 0.99464 0.0
O178 O 0.17695 0.41326 0.98166 0.0
C179 C 0.26466 0.35346 0.0097 0.0
O180 O 0.24692 0.34622 0.9891 0.0
C181 C 0.21492 0.44353 0.05573 0.0
Zn182 Zn 0.74421 0.20075 0.96023 0.0
Zn183 Zn 0.75739 0.15784 0.98894 0.0
O184 O 0.79468 0.17801 0.98395 0.0
O185 O 0.78393 0.2133 0.96085 0.0
O186 O 0.76599 0.12654 0.01172 0.0
O187 O 0.72018 0.21383 0.98958 0.0
O188 O 0.72822 0.17639 0.0104 0.0
C189 C 0.80187 0.1995 0.97218 0.0
C190 C 0.72864 0.14749 0.93286 0.0
O191 O 0.74012 0.13873 0.9542 0.0
O192 O 0.72765 0.17298 0.93038 0.0
C193 C 0.77976 0.131 0.03439 0.0
O194 O 0.78918 0.1561 0.04189 0.0
C195 C 0.7156 0.19818 0.00857 0.0
Zn196 Zn 0.06442 0.50448 0.31173 0.0
Zn197 Zn 0.10194 0.48915 0.27707 0.0
O198 O 0.08045 0.45303 0.2841 0.0
O199 O 0.04965 0.46553 0.31229 0.0
O200 O 0.1287 0.47844 0.24964 0.0
O201 O 0.04896 0.52955 0.28444 0.0
O202 O 0.08242 0.51959 0.25838 0.0
C203 C 0.06053 0.44692 0.29859 0.0
C204 C 0.12103 0.51662 0.33216 0.0
O205 O 0.12638 0.50498 0.30946 0.0
O206 O 0.09641 0.51894 0.33794 0.0
C207 C 0.12068 0.4634 0.22844 0.0
O208 O 0.09494 0.45416 0.22537 0.0
C209 C 0.06188 0.53331 0.26331 0.0
Zn210 Zn 0.72441 0.96197 0.51226 0.0
Zn211 Zn 0.75565 0.92007 0.52354 0.0
O212 O 0.7706 0.93593 0.4891 0.0
O213 O 0.74824 0.97266 0.48202 0.0
O214 O 0.78126 0.89064 0.53143 0.0
O215 O 0.73169 0.97782 0.55094 0.0
O216 O 0.75585 0.94278 0.56002 0.0
C217 C 0.76616 0.95651 0.47524 0.0
C218 C 0.69588 0.90779 0.5069 0.0
O219 O 0.71901 0.89987 0.51488 0.0
O220 O 0.69293 0.93292 0.50365 0.0
C221 C 0.77775 0.86628 0.52092 0.0
O222 O 0.75614 0.85937 0.50435 0.0
C223 C 0.74531 0.96476 0.56791 0.0
Zn224 Zn 0.79971 0.03777 0.24907 0.0
Zn225 Zn 0.83848 0.00425 0.23526 0.0
O226 O 0.82222 0.98916 0.26954 0.0
O227 O 0.78738 0.0137 0.2784 0.0
O228 O 0.86493 0.97617 0.22518 0.0
O229 O 0.78245 0.03388 0.21084 0.0
O230 O 0.8153 0.00774 0.19947 0.0
C231 C 0.80231 0.99443 0.28406 0.0
C232 C 0.85576 0.06229 0.25449 0.0
O233 O 0.86198 0.03893 0.24517 0.0
O234 O 0.83104 0.06672 0.25835 0.0
C235 C 0.88889 0.97617 0.23654 0.0
O236 O 0.89721 0.9956 0.25524 0.0
C237 C 0.79415 0.02026 0.19277 0.0
Zn238 Zn 0.25522 0.70744 0.46412 0.0
Zn239 Zn 0.27243 0.67057 0.49873 0.0
O240 O 0.30736 0.69419 0.49216 0.0
O241 O 0.29342 0.72436 0.46392 0.0
O242 O 0.28491 0.64488 0.52675 0.0
O243 O 0.22877 0.72103 0.49093 0.0
O244 O 0.24001 0.68762 0.51652 0.0
C245 C 0.31257 0.71436 0.47768 0.0
C246 C 0.247 0.65066 0.44299 0.0
O247 O 0.25893 0.64579 0.46569 0.0
O248 O 0.24286 0.67505 0.43753 0.0
C249 C 0.27386 0.62088 0.52773 0.0
O250 O 0.25411 0.61219 0.50953 0.0
C251 C 0.22512 0.70733 0.51158 0.0
Zn252 Zn 0.31229 0.55389 0.76301 0.0
Zn253 Zn 0.35224 0.52137 0.7493 0.0
O254 O 0.33329 0.50252 0.78002 0.0
O255 O 0.29791 0.5265 0.78848 0.0
O256 O 0.3803 0.49493 0.73935 0.0
O257 O 0.29822 0.55294 0.72376 0.0
O258 O 0.33111 0.52671 0.71259 0.0
C259 C 0.31215 0.50646 0.79318 0.0
C260 C 0.36767 0.57788 0.77534 0.0
O261 O 0.37453 0.55544 0.76437 0.0
O262 O 0.34262 0.58213 0.77733 0.0
C263 C 0.40319 0.49444 0.7528 0.0
O264 O 0.40926 0.51225 0.77361 0.0
C265 C 0.31046 0.5399 0.70569 0.0
Zn266 Zn 0.5472 0.01231 0.77945 0.0
Zn267 Zn 0.58882 0.99765 0.74907 0.0
O268 O 0.56821 0.96099 0.75582 0.0
O269 O 0.53389 0.9729 0.77981 0.0
O270 O 0.61868 0.98731 0.72455 0.0
O271 O 0.53374 0.03638 0.75033 0.0
O272 O 0.57012 0.02725 0.72816 0.0
C273 C 0.54709 0.95446 0.76849 0.0
C274 C 0.6013 0.02707 0.80491 0.0
O275 O 0.60898 0.01529 0.78322 0.0
O276 O 0.57604 0.02856 0.80843 0.0
C277 C 0.64396 0.98793 0.73215 0.0
O278 O 0.65183 0.99448 0.75782 0.0
C279 C 0.5488 0.04049 0.73076 0.0
Zn280 Zn 0.7853 0.55456 0.00174 0.0
Zn281 Zn 0.75347 0.59509 0.9885 0.0
O282 O 0.75904 0.57426 0.95156 0.0
O283 O 0.78453 0.54072 0.96253 0.0
O284 O 0.72719 0.62358 0.97868 0.0
O285 O 0.75791 0.54 0.02697 0.0
O286 O 0.73458 0.576 0.01928 0.0
C287 C 0.77195 0.55344 0.94453 0.0
C288 C 0.81012 0.60947 0.01487 0.0
O289 O 0.78786 0.6168 0.00389 0.0
O290 O 0.81394 0.58429 0.01657 0.0
C291 C 0.72846 0.64746 0.99045 0.0
O292 O 0.74798 0.65441 0.00946 0.0
C293 C 0.73822 0.55456 0.0321 0.0
Zn294 Zn 0.9555 0.50938 0.71427 0.0
Zn295 Zn 0.91598 0.52303 0.74708 0.0
O296 O 0.93043 0.48753 0.76141 0.0
O297 O 0.96584 0.47877 0.7376 0.0
O298 O 0.88838 0.53283 0.77417 0.0
O299 O 0.97383 0.54702 0.72051 0.0
O300 O 0.94095 0.55829 0.74668 0.0
C301 C 0.95015 0.47273 0.75615 0.0
C302 C 0.90048 0.50654 0.68781 0.0
O303 O 0.89374 0.51528 0.71118 0.0
O304 O 0.92519 0.50201 0.68405 0.0
C305 C 0.86374 0.52296 0.77211 0.0
O306 O 0.85546 0.50594 0.75122 0.0
C307 C 0.96275 0.56482 0.73508 0.0
Zn308 Zn 0.76776 0.3245 0.56354 0.0
Zn309 Zn 0.75586 0.35262 0.52027 0.0
O310 O 0.78825 0.33068 0.50823 0.0
O311 O 0.79993 0.31001 0.54538 0.0
O312 O 0.74571 0.37327 0.48728 0.0
O313 O 0.73067 0.30472 0.56003 0.0
O314 O 0.71965 0.33135 0.5272 0.0
C315 C 0.8042 0.31563 0.52113 0.0
C316 C 0.7736 0.38237 0.57544 0.0
O317 O 0.76766 0.3828 0.5499 0.0
O318 O 0.77378 0.35979 0.5866 0.0
C319 C 0.75694 0.39649 0.48291 0.0
O320 O 0.77634 0.40766 0.50033 0.0
C321 C 0.71294 0.31287 0.54315 0.0
Zn322 Zn 0.69239 0.44965 0.24448 0.0
Zn323 Zn 0.65603 0.48459 0.26216 0.0
O324 O 0.68081 0.47861 0.29662 0.0
O325 O 0.71073 0.45036 0.28212 0.0
O326 O 0.63009 0.51257 0.27399 0.0
O327 O 0.70514 0.47584 0.21706 0.0
O328 O 0.67247 0.50199 0.22919 0.0
C329 C 0.70132 0.46445 0.30139 0.0
C330 C 0.63537 0.42864 0.23816 0.0
O331 O 0.63074 0.45167 0.24958 0.0
O332 O 0.65966 0.42297 0.23377 0.0
C333 C 0.62586 0.52003 0.2985 0.0
O334 O 0.639 0.50897 0.31869 0.0
C335 C 0.69165 0.49668 0.21375 0.0
C336 C 0.06667 0.39664 0.2917 0.0
C337 C 0.05153 0.41799 0.30169 0.0
C338 C 0.06044 0.36954 0.29812 0.0
C339 C 0.03861 0.36379 0.31491 0.0
C340 C 0.02232 0.38503 0.32369 0.0
C341 C 0.02894 0.41182 0.31694 0.0
C342 C 0.07806 0.34735 0.28813 0.0
C343 C -0.00123 0.37974 0.34152 0.0
C344 C 0.00868 0.29207 0.32406 0.0
C345 C 0.02103 0.28674 0.34954 0.0
C346 C 0.01511 0.31658 0.31183 0.0
C347 C 0.03417 0.33626 0.32552 0.0
C348 C 0.0474 0.33056 0.35075 0.0
C349 C 0.04073 0.30586 0.36241 0.0
C350 C 0.00079 0.32184 0.28477 0.0
C351 C 0.06781 0.35106 0.36603 0.0
H352 H 0.08408 0.40119 0.2798 0.0
H353 H 0.01692 0.42812 0.32452 0.0
H354 H 0.09075 0.34058 0.3056 0.0
H355 H 0.06518 0.32928 0.27929 0.0
H356 H 0.09186 0.35443 0.27251 0.0
H357 H 0.98685 0.39804 0.34484 0.0
H358 H 0.98478 0.36271 0.3322 0.0
H359 H 0.0067 0.37354 0.3617 0.0
H360 H 0.9936 0.27731 0.31385 0.0
H361 H 0.05048 0.30187 0.38202 0.0
H362 H 0.01585 0.32876 0.27028 0.0
H363 H 0.98669 0.33843 0.28776 0.0
H364 H 0.98881 0.30339 0.2754 0.0
H365 H 0.08406 0.35742 0.35255 0.0
H366 H 0.07755 0.34282 0.38454 0.0
H367 H 0.05743 0.36965 0.37239 0.0
C368 C 0.91046 0.78666 0.51656 0.0
C369 C 0.91783 0.77466 0.54091 0.0
C370 C 0.88436 0.79614 0.51195 0.0
C371 C 0.86515 0.79338 0.53212 0.0
C372 C 0.87134 0.77827 0.55512 0.0
C373 C 0.89772 0.76907 0.55929 0.0
C374 C 0.87848 0.81178 0.48693 0.0
C375 C 0.85112 0.77422 0.5767 0.0
C376 C 0.82332 0.85514 0.54087 0.0
C377 C 0.79889 0.84655 0.5258 0.0
C378 C 0.84459 0.8376 0.54384 0.0
C379 C 0.84131 0.81064 0.53164 0.0
C380 C 0.81623 0.80136 0.51748 0.0
C381 C 0.79533 0.81951 0.51457 0.0
C382 C 0.87103 0.84834 0.55915 0.0
C383 C 0.81182 0.77265 0.50457 0.0
H384 H 0.92573 0.79055 0.50197 0.0
H385 H 0.90311 0.7595 0.57802 0.0
H386 H 0.85782 0.80566 0.47743 0.0
H387 H 0.87899 0.83395 0.49299 0.0
H388 H 0.89372 0.80857 0.4714 0.0
H389 H 0.85656 0.75747 0.58986 0.0
H390 H 0.85092 0.79334 0.58988 0.0
H391 H 0.83015 0.76956 0.56727 0.0
H392 H 0.82621 0.87593 0.54975 0.0
H393 H 0.77641 0.81263 0.50307 0.0
H394 H 0.88786 0.84841 0.54504 0.0
H395 H 0.87643 0.83484 0.57569 0.0
H396 H 0.86986 0.86943 0.56833 0.0
H397 H 0.82348 0.77086 0.48596 0.0
H398 H 0.78992 0.76715 0.49864 0.0
H399 H 0.81945 0.75762 0.51872 0.0
C400 C 0.38152 0.62222 0.80129 0.0
C401 C 0.38894 0.59784 0.78829 0.0
C402 C 0.40086 0.63941 0.81713 0.0
C403 C 0.42824 0.632 0.82 0.0
C404 C 0.43625 0.60832 0.8056 0.0
C405 C 0.41647 0.59148 0.78986 0.0
C406 C 0.39162 0.6647 0.83203 0.0
C407 C 0.46533 0.59993 0.80803 0.0
C408 C 0.47795 0.68804 0.85258 0.0
C409 C 0.47766 0.68241 0.88025 0.0
C410 C 0.46308 0.67096 0.83238 0.0
C411 C 0.44765 0.64777 0.8401 0.0
C412 C 0.4487 0.64102 0.86774 0.0
C413 C 0.46372 0.65843 0.8875 0.0
C414 C 0.46262 0.67861 0.80304 0.0
C415 C 0.43266 0.61626 0.87671 0.0
H416 H 0.36036 0.62741 0.79997 0.0
H417 H 0.42243 0.57276 0.77972 0.0
H418 H 0.39317 0.66225 0.85437 0.0
H419 H 0.40506 0.68283 0.82813 0.0
H420 H 0.37018 0.66874 0.82586 0.0
H421 H 0.46897 0.58309 0.79283 0.0
H422 H 0.47989 0.61756 0.8053 0.0
H423 H 0.4699 0.59295 0.82878 0.0
H424 H 0.48889 0.70638 0.84675 0.0
H425 H 0.4636 0.65379 0.90879 0.0
H426 H 0.44229 0.68585 0.79701 0.0
H427 H 0.46586 0.66056 0.78921 0.0
H428 H 0.47844 0.69506 0.7999 0.0
H429 H 0.41046 0.61915 0.87386 0.0
H430 H 0.43755 0.61259 0.8985 0.0
H431 H 0.43685 0.59775 0.86398 0.0
C432 C 0.56677 0.22947 0.02675 0.0
C433 C 0.55715 0.23288 0.05289 0.0
C434 C 0.59292 0.22044 0.02311 0.0
C435 C 0.61017 0.21571 0.04629 0.0
C436 C 0.60009 0.21796 0.07267 0.0
C437 C 0.57347 0.22617 0.07562 0.0
C438 C 0.60256 0.21734 0.99454 0.0
C439 C 0.61801 0.2137 0.09791 0.0
C440 C 0.67413 0.18017 0.02985 0.0
C441 C 0.6918 0.20256 0.02482 0.0
C442 C 0.6478 0.18404 0.03842 0.0
C443 C 0.63939 0.21093 0.04276 0.0
C444 C 0.65819 0.23355 0.04031 0.0
C445 C 0.68404 0.2291 0.03088 0.0
C446 C 0.62827 0.1594 0.04032 0.0
C447 C 0.65034 0.26254 0.04574 0.0
H448 H 0.55408 0.2346 0.0092 0.0
H449 H 0.56614 0.22916 0.09591 0.0
H450 H 0.61845 0.23378 0.99169 0.0
H451 H 0.61195 0.1975 0.99128 0.0
H452 H 0.58565 0.21851 0.97868 0.0
H453 H 0.60609 0.21246 0.11637 0.0
H454 H 0.62909 0.1948 0.09521 0.0
H455 H 0.6336 0.23106 0.10146 0.0
H456 H 0.67999 0.15961 0.02488 0.0
H457 H 0.69775 0.2464 0.02708 0.0
H458 H 0.6133 0.15783 0.02237 0.0
H459 H 0.61656 0.16143 0.05886 0.0
H460 H 0.63903 0.14014 0.04062 0.0
H461 H 0.63584 0.26797 0.02904 0.0
H462 H 0.66838 0.27744 0.04696 0.0
H463 H 0.63991 0.26457 0.06511 0.0
C464 C 0.02852 0.56352 0.24261 0.0
C465 C 0.05558 0.55663 0.24703 0.0
C466 C 0.02252 0.58837 0.23167 0.0
C467 C 0.0442 0.60718 0.22611 0.0
C468 C 0.07156 0.59976 0.2294 0.0
C469 C 0.0769 0.57431 0.23945 0.0
C470 C 0.99302 0.59508 0.22749 0.0
C471 C 0.09524 0.61947 0.22439 0.0
C472 C 0.02439 0.668 0.18673 0.0
C473 C 0.01834 0.68645 0.20806 0.0
C474 C 0.03385 0.64233 0.1922 0.0
C475 C 0.03811 0.63547 0.21965 0.0
C476 C 0.03404 0.65498 0.24122 0.0
C477 C 0.02366 0.68005 0.23515 0.0
C478 C 0.03726 0.62189 0.16866 0.0
C479 C 0.03929 0.64885 0.27076 0.0
H480 H 0.01206 0.54978 0.24844 0.0
H481 H 0.09789 0.56912 0.24324 0.0
H482 H 0.98841 0.61114 0.24309 0.0
H483 H 0.98919 0.60323 0.20712 0.0
H484 H 0.97872 0.57696 0.22918 0.0
H485 H 0.11492 0.60942 0.2245 0.0
H486 H 0.09186 0.62883 0.20457 0.0
H487 H 0.09695 0.6363 0.24062 0.0
H488 H 0.01989 0.67284 0.16575 0.0
H489 H 0.01899 0.6944 0.25161 0.0
H490 H 0.02061 0.60552 0.16805 0.0
H491 H 0.05687 0.61201 0.17137 0.0
H492 H 0.03651 0.63145 0.14872 0.0
H493 H 0.02362 0.63331 0.27637 0.0
H494 H 0.03861 0.66734 0.28481 0.0
H495 H 0.05955 0.64026 0.27392 0.0
C496 C 0.62526 0.8019 0.40566 0.0
C497 C 0.59867 0.79072 0.40813 0.0
C498 C 0.6387 0.81894 0.42666 0.0
C499 C 0.62533 0.82472 0.45089 0.0
C500 C 0.59927 0.81202 0.45436 0.0
C501 C 0.58612 0.7952 0.43281 0.0
C502 C 0.66663 0.83197 0.42221 0.0
C503 C 0.58467 0.81726 0.48015 0.0
C504 C 0.67604 0.85969 0.50388 0.0
C505 C 0.67355 0.88713 0.49816 0.0
C506 C 0.65834 0.83896 0.49069 0.0
C507 C 0.63805 0.84592 0.47116 0.0
C508 C 0.63368 0.87374 0.46746 0.0
C509 C 0.65145 0.89408 0.48117 0.0
C510 C 0.66307 0.80955 0.49578 0.0
C511 C 0.61211 0.88198 0.44688 0.0
H512 H 0.63524 0.79829 0.3868 0.0
H513 H 0.56564 0.78644 0.43496 0.0
H514 H 0.66558 0.85447 0.42196 0.0
H515 H 0.68142 0.82789 0.43921 0.0
H516 H 0.67465 0.82435 0.4027 0.0
H517 H 0.56739 0.80193 0.48184 0.0
H518 H 0.59896 0.81702 0.49849 0.0
H519 H 0.57642 0.8378 0.48017 0.0
H520 H 0.69276 0.85422 0.51748 0.0
H521 H 0.64922 0.91527 0.47693 0.0
H522 H 0.67448 0.80057 0.47897 0.0
H523 H 0.64339 0.79729 0.49615 0.0
H524 H 0.67519 0.80775 0.51535 0.0
H525 H 0.61856 0.87728 0.42593 0.0
H526 H 0.60879 0.90415 0.44923 0.0
H527 H 0.5924 0.87025 0.44886 0.0
C528 C 0.46992 0.35442 0.74585 0.0
C529 C 0.48471 0.34912 0.72276 0.0
C530 C 0.46192 0.38073 0.75264 0.0
C531 C 0.46915 0.40231 0.73608 0.0
C532 C 0.4868 0.39776 0.71474 0.0
C533 C 0.49435 0.37112 0.70824 0.0
C534 C 0.44335 0.38473 0.77578 0.0
C535 C 0.49561 0.42043 0.69714 0.0
C536 C 0.41308 0.45114 0.72719 0.0
C537 C 0.42167 0.47249 0.74654 0.0
C538 C 0.42898 0.42873 0.72288 0.0
C539 C 0.45429 0.42775 0.73808 0.0
C540 C 0.46381 0.4499 0.7566 0.0
C541 C 0.44728 0.47198 0.76077 0.0
C542 C 0.41803 0.4055 0.70292 0.0
C543 C 0.4909 0.44982 0.7728 0.0
H544 H 0.46282 0.33764 0.75753 0.0
H545 H 0.50611 0.36731 0.69057 0.0
H546 H 0.45004 0.40347 0.78873 0.0
H547 H 0.42229 0.38731 0.76725 0.0
H548 H 0.44272 0.36706 0.78889 0.0
H549 H 0.51353 0.4152 0.68554 0.0
H550 H 0.47852 0.4241 0.68226 0.0
H551 H 0.50079 0.43977 0.7097 0.0
H552 H 0.39342 0.45142 0.71599 0.0
H553 H 0.45419 0.48854 0.7756 0.0
H554 H 0.41435 0.3867 0.71399 0.0
H555 H 0.43322 0.40108 0.68769 0.0
H556 H 0.39859 0.41 0.69184 0.0
H557 H 0.48911 0.43533 0.78918 0.0
H558 H 0.49752 0.47036 0.78245 0.0
H559 H 0.507 0.44285 0.75958 0.0
C560 C 0.93255 0.21235 0.89346 0.0
C561 C 0.95543 0.22836 0.90494 0.0
C562 C 0.90971 0.20711 0.90857 0.0
C563 C 0.90979 0.21798 0.93593 0.0
C564 C 0.93333 0.23299 0.94812 0.0
C565 C 0.95587 0.23811 0.93243 0.0
C566 C 0.88498 0.19101 0.89479 0.0
C567 C 0.93428 0.24457 0.97733 0.0
C568 C 0.8385 0.23089 0.95615 0.0
C569 C 0.83107 0.20667 0.96839 0.0
C570 C 0.86476 0.23564 0.94711 0.0
C571 C 0.88417 0.21576 0.95053 0.0
C572 C 0.87758 0.19236 0.96493 0.0
C573 C 0.85103 0.18805 0.97369 0.0
C574 C 0.871 0.26098 0.93202 0.0
C575 C 0.89791 0.17095 0.9694 0.0
H576 H 0.93208 0.20457 0.87232 0.0
H577 H 0.97357 0.2503 0.94155 0.0
H578 H 0.87864 0.17388 0.90723 0.0
H579 H 0.86762 0.2044 0.89307 0.0
H580 H 0.88884 0.18254 0.874 0.0
H581 H 0.95521 0.25247 0.98487 0.0
H582 H 0.92048 0.26159 0.97891 0.0
H583 H 0.92697 0.2288 0.99092 0.0
H584 H 0.82334 0.24559 0.95231 0.0
H585 H 0.84554 0.16936 0.98331 0.0
H586 H 0.87299 0.2551 0.9101 0.0
H587 H 0.89071 0.27144 0.94011 0.0
H588 H 0.85475 0.27569 0.93354 0.0
H589 H 0.89998 0.15896 0.94985 0.0
H590 H 0.89143 0.15663 0.9848 0.0
H591 H 0.91838 0.18063 0.97614 0.0
C592 C 0.32626 0.02861 0.42573 0.0
C593 C 0.30988 0.05063 0.43057 0.0
C594 C 0.3313 0.01938 0.39909 0.0
C595 C 0.3197 0.03248 0.37671 0.0
C596 C 0.30158 0.05341 0.38134 0.0
C597 C 0.29685 0.06224 0.40828 0.0
C598 C 0.35055 0.99682 0.39503 0.0
C599 C 0.28862 0.06768 0.35796 0.0
C600 C 0.36371 0.03326 0.31603 0.0
C601 C 0.35144 0.01149 0.29896 0.0
C602 C 0.35292 0.04087 0.34092 0.0
C603 C 0.32923 0.02641 0.34898 0.0
C604 C 0.31615 0.00505 0.33144 0.0
C605 C 0.32745 0.99779 0.30662 0.0
C606 C 0.36748 0.06382 0.35904 0.0
C607 C 0.29076 0.98931 0.33929 0.0
H608 H 0.33613 0.01926 0.44283 0.0
H609 H 0.28407 0.07919 0.41182 0.0
H610 H 0.34154 0.981 0.3795 0.0
H611 H 0.36987 0.00537 0.38736 0.0
H612 H 0.35555 0.98686 0.41427 0.0
H613 H 0.27202 0.08048 0.36461 0.0
H614 H 0.30439 0.08106 0.34917 0.0
H615 H 0.28015 0.05261 0.34145 0.0
H616 H 0.38214 0.04409 0.31022 0.0
H617 H 0.31773 0.98105 0.29347 0.0
H618 H 0.37556 0.05571 0.37831 0.0
H619 H 0.35298 0.07941 0.36459 0.0
H620 H 0.38476 0.07398 0.34912 0.0
H621 H 0.2959 0.97715 0.357 0.0
H622 H 0.28152 0.97519 0.32228 0.0
H623 H 0.27529 0.00356 0.34567 0.0
C624 C 0.21821 0.03618 0.68901 0.0
C625 C 0.21758 0.0077 0.69022 0.0
C626 C 0.22875 0.04888 0.66659 0.0
C627 C 0.23818 0.0326 0.64473 0.0
C628 C 0.23704 0.00384 0.64569 0.0
C629 C 0.22707 0.9918 0.66852 0.0
C630 C 0.23021 0.07965 0.66648 0.0
C631 C 0.24643 0.9857 0.62259 0.0
C632 C 0.246 0.05933 0.57442 0.0
C633 C 0.27449 0.06308 0.57414 0.0
C634 C 0.23371 0.05019 0.59762 0.0
C635 C 0.25033 0.04536 0.6212 0.0
C636 C 0.27901 0.05029 0.62137 0.0
C637 C 0.29076 0.05876 0.59773 0.0
C638 C 0.20309 0.04461 0.5965 0.0
C639 C 0.2974 0.04589 0.64627 0.0
H640 H 0.21085 0.04852 0.70572 0.0
H641 H 0.22626 0.96974 0.66912 0.0
H642 H 0.25179 0.08749 0.66568 0.0
H643 H 0.21886 0.08608 0.64799 0.0
H644 H 0.22167 0.08935 0.68484 0.0
H645 H 0.24276 0.96363 0.62586 0.0
H646 H 0.23561 0.99007 0.60301 0.0
H647 H 0.2686 0.99 0.62046 0.0
H648 H 0.23338 0.06272 0.55622 0.0
H649 H 0.31278 0.0621 0.59777 0.0
H650 H 0.1944 0.05525 0.61421 0.0
H651 H 0.19817 0.02239 0.59777 0.0
H652 H 0.19293 0.0512 0.5774 0.0
H653 H 0.28994 0.05654 0.66468 0.0
H654 H 0.3189 0.05335 0.64404 0.0
H655 H 0.29703 0.02379 0.64985 0.0
C656 C 0.22839 0.94916 0.83968 0.0
C657 C 0.20684 0.96509 0.83181 0.0
C658 C 0.23241 0.9419 0.86668 0.0
C659 C 0.21453 0.95092 0.88639 0.0
C660 C 0.19415 0.96886 0.87914 0.0
C661 C 0.19049 0.97573 0.85184 0.0
C662 C 0.25454 0.92288 0.87357 0.0
C663 C 0.17502 0.97929 0.89974 0.0
C664 C 0.20407 0.89945 0.93966 0.0
C665 C 0.22309 0.90964 0.96076 0.0
C666 C 0.2 0.91357 0.91594 0.0
C667 C 0.21518 0.9386 0.91332 0.0
C668 C 0.23312 0.94988 0.93525 0.0
C669 C 0.23696 0.93519 0.95871 0.0
C670 C 0.18062 0.90083 0.89303 0.0
C671 C 0.24933 0.97672 0.93336 0.0
H672 H 0.24139 0.94117 0.82443 0.0
H673 H 0.17389 0.98819 0.84598 0.0
H674 H 0.26704 0.93094 0.89217 0.0
H675 H 0.24505 0.90266 0.87795 0.0
H676 H 0.2683 0.91986 0.85664 0.0
H677 H 0.16375 0.99663 0.89231 0.0
H678 H 0.15989 0.96256 0.9038 0.0
H679 H 0.1864 0.98595 0.91942 0.0
H680 H 0.19306 0.87986 0.94115 0.0
H681 H 0.2515 0.94336 0.97505 0.0
H682 H 0.19237 0.89478 0.87527 0.0
H683 H 0.16606 0.91582 0.88618 0.0
H684 H 0.16878 0.88243 0.89913 0.0
H685 H 0.26582 0.97385 0.91917 0.0
H686 H 0.25883 0.9848 0.95354 0.0
H687 H 0.23613 0.99221 0.92503 0.0
C688 C 0.27458 0.87695 0.11385 0.0
C689 C 0.257 0.88245 0.09161 0.0
C690 C 0.28827 0.89823 0.13039 0.0
C691 C 0.2838 0.92564 0.12486 0.0
C692 C 0.26364 0.93125 0.10455 0.0
C693 C 0.25065 0.90953 0.08787 0.0
C694 C 0.30958 0.89132 0.15194 0.0
C695 C 0.25739 0.96016 0.0989 0.0
C696 C 0.32461 0.97415 0.17659 0.0
C697 C 0.34931 0.9772 0.16376 0.0
C698 C 0.30173 0.9596 0.1631 0.0
C699 C 0.30395 0.94753 0.13652 0.0
C700 C 0.32794 0.95288 0.1226 0.0
C701 C 0.35021 0.96789 0.13632 0.0
C702 C 0.27605 0.95541 0.17812 0.0
C703 C 0.33115 0.94052 0.09414 0.0
H704 H 0.2793 0.85607 0.11714 0.0
H705 H 0.23661 0.91392 0.07107 0.0
H706 H 0.33024 0.89738 0.14548 0.0
H707 H 0.3069 0.9028 0.17161 0.0
H708 H 0.30872 0.86914 0.15538 0.0
H709 H 0.23679 0.96093 0.08844 0.0
H710 H 0.25854 0.97344 0.11806 0.0
H711 H 0.27265 0.96867 0.0854 0.0
H712 H 0.32356 0.98174 0.19765 0.0
H713 H 0.36902 0.97064 0.12604 0.0
H714 H 0.27613 0.93553 0.18773 0.0
H715 H 0.25754 0.95495 0.16396 0.0
H716 H 0.2747 0.97174 0.19454 0.0
H717 H 0.33154 0.91798 0.09465 0.0
H718 H 0.35026 0.94839 0.08548 0.0
H719 H 0.31359 0.94488 0.08019 0.0
C720 C 0.28891 0.3103 0.00276 0.0
C721 C 0.28732 0.33599 0.01651 0.0
C722 C 0.31176 0.29486 0.00724 0.0
C723 C 0.33357 0.30557 0.02563 0.0
C724 C 0.33147 0.3309 0.04047 0.0
C725 C 0.30834 0.34571 0.03583 0.0
C726 C 0.31306 0.26772 0.99143 0.0
C727 C 0.35431 0.34307 0.06028 0.0
C728 C 0.39229 0.26736 0.05448 0.0
C729 C 0.41361 0.27723 0.03922 0.0
C730 C 0.36536 0.27454 0.04885 0.0
C731 C 0.3598 0.29204 0.02761 0.0
C732 C 0.38078 0.29996 0.01062 0.0
C733 C 0.4074 0.29236 0.01657 0.0
C734 C 0.34337 0.26516 0.06701 0.0
C735 C 0.37569 0.31848 0.98761 0.0
H736 H 0.27262 0.30251 0.98798 0.0
H737 H 0.30722 0.36543 0.04669 0.0
H738 H 0.32785 0.26982 0.97537 0.0
H739 H 0.32035 0.25207 0.00504 0.0
H740 H 0.29287 0.26028 0.98145 0.0
H741 H 0.34881 0.36217 0.07132 0.0
H742 H 0.35974 0.3282 0.07552 0.0
H743 H 0.37281 0.34777 0.04906 0.0
H744 H 0.39683 0.25541 0.07186 0.0
H745 H 0.42366 0.29971 0.00437 0.0
H746 H 0.32401 0.25906 0.0548 0.0
H747 H 0.33925 0.28227 0.08166 0.0
H748 H 0.34953 0.2477 0.07885 0.0
H749 H 0.35719 0.31093 0.9747 0.0
H750 H 0.39326 0.32014 0.97444 0.0
H751 H 0.37205 0.33924 0.99626 0.0
C752 C 0.95296 0.83435 0.2348 0.0
C753 C 0.96753 0.82737 0.21195 0.0
C754 C 0.94455 0.86087 0.23953 0.0
C755 C 0.95099 0.88098 0.22106 0.0
C756 C 0.96777 0.87475 0.19936 0.0
C757 C 0.97584 0.84794 0.19502 0.0
C758 C 0.92686 0.86671 0.26306 0.0
C759 C 0.97549 0.89579 0.17954 0.0
C760 C 0.89595 0.93108 0.21266 0.0
C761 C 0.90624 0.95323 0.23037 0.0
C762 C 0.91093 0.90795 0.20859 0.0
C763 C 0.93695 0.90697 0.2224 0.0
C764 C 0.9481 0.92979 0.23922 0.0
C765 C 0.93254 0.95265 0.24312 0.0
C766 C 0.89828 0.88402 0.19045 0.0
C767 C 0.97593 0.92964 0.25397 0.0
H768 H 0.94678 0.8187 0.24824 0.0
H769 H 0.98728 0.84279 0.17743 0.0
H770 H 0.93438 0.88593 0.27481 0.0
H771 H 0.90567 0.86944 0.25499 0.0
H772 H 0.92625 0.84989 0.27722 0.0
H773 H 0.99238 0.88937 0.16702 0.0
H774 H 0.95749 0.89884 0.16555 0.0
H775 H 0.98174 0.91579 0.19051 0.0
H776 H 0.87575 0.9314 0.20258 0.0
H777 H 0.94076 0.96978 0.25666 0.0
H778 H 0.89451 0.86619 0.20289 0.0
H779 H 0.91248 0.87794 0.17478 0.0
H780 H 0.8786 0.88867 0.17994 0.0
H781 H 0.97502 0.91533 0.27058 0.0
H782 H 0.98324 0.95021 0.26308 0.0
H783 H 0.99111 0.92231 0.23983 0.0
C784 C 0.1847 0.6886 0.53422 0.0
C785 C 0.20056 0.71137 0.52682 0.0
C786 C 0.15809 0.69131 0.54257 0.0
C787 C 0.14752 0.71751 0.54426 0.0
C788 C 0.16444 0.74081 0.53914 0.0
C789 C 0.1906 0.7374 0.53 0.0
C790 C 0.14059 0.66592 0.54732 0.0
C791 C 0.15429 0.76922 0.54164 0.0
C792 C 0.07304 0.72947 0.52831 0.0
C793 C 0.06404 0.73511 0.55442 0.0
C794 C 0.09968 0.72168 0.52488 0.0
C795 C 0.11801 0.7205 0.54811 0.0
C796 C 0.10859 0.72486 0.5746 0.0
C797 C 0.08151 0.73176 0.57744 0.0
C798 C 0.10864 0.71626 0.49629 0.0
C799 C 0.12759 0.72437 0.59984 0.0
H800 H 0.19227 0.66839 0.53146 0.0
H801 H 0.20291 0.75501 0.52436 0.0
H802 H 0.12926 0.66887 0.56602 0.0
H803 H 0.12523 0.66162 0.52987 0.0
H804 H 0.1529 0.64778 0.54921 0.0
H805 H 0.17107 0.78529 0.54074 0.0
H806 H 0.13879 0.77166 0.52474 0.0
H807 H 0.1443 0.77253 0.56113 0.0
H808 H 0.05948 0.732 0.51053 0.0
H809 H 0.07465 0.73648 0.59767 0.0
H810 H 0.11955 0.69712 0.49487 0.0
H811 H 0.12307 0.73319 0.49121 0.0
H812 H 0.09112 0.71453 0.48078 0.0
H813 H 0.13999 0.70624 0.59875 0.0
H814 H 0.11632 0.72426 0.61879 0.0
H815 H 0.14199 0.74277 0.60122 0.0
C816 C 0.97178 0.69211 0.65775 0.0
C817 C 0.98873 0.7154 0.66624 0.0
C818 C 0.96873 0.67024 0.67457 0.0
C819 C 0.98275 0.67176 0.70072 0.0
C820 C -0.00122 0.69577 0.71003 0.0
C821 C 0.00174 0.71728 0.69258 0.0
C822 C 0.9514 0.64499 0.66382 0.0
C823 C 0.01364 0.69835 0.73793 0.0
C824 C 0.95539 0.61474 0.74175 0.0
C825 C 0.97226 0.59391 0.734 0.0
C826 C 0.96017 0.64137 0.73339 0.0
C827 C 0.9822 0.6471 0.71687 0.0
C828 C 0.00105 0.62699 0.71177 0.0
C829 C 0.99591 0.60066 0.72053 0.0
C830 C 0.94011 0.66254 0.73997 0.0
C831 C 0.02501 0.63232 0.69451 0.0
H832 H 0.96152 0.69052 0.63751 0.0
H833 H 0.0147 0.73532 0.6994 0.0
H834 H 0.96441 0.62734 0.6619 0.0
H835 H 0.93567 0.63987 0.67831 0.0
H836 H 0.94095 0.64755 0.64353 0.0
H837 H 0.02091 0.71983 0.74402 0.0
H838 H 0.00028 0.69068 0.75361 0.0
H839 H 0.03164 0.68574 0.7378 0.0
H840 H 0.93725 0.60983 0.75249 0.0
H841 H 0.00937 0.58482 0.71491 0.0
H842 H 0.92577 0.66416 0.7219 0.0
H843 H 0.95079 0.68295 0.74484 0.0
H844 H 0.92797 0.65703 0.75745 0.0
H845 H 0.01745 0.63315 0.67285 0.0
H846 H 0.03977 0.61609 0.69573 0.0
H847 H 0.03593 0.65229 0.70091 0.0
C848 C 0.21029 0.16222 0.48315 0.0
C849 C 0.2175 0.1438 0.46224 0.0
C850 C 0.18556 0.17506 0.48106 0.0
C851 C 0.1674 0.16888 0.45778 0.0
C852 C 0.17505 0.1511 0.43616 0.0
C853 C 0.20015 0.13897 0.43855 0.0
C854 C 0.17839 0.19437 0.50424 0.0
C855 C 0.15609 0.14375 0.41113 0.0
C856 C 0.09122 0.16986 0.46501 0.0
C857 C 0.08456 0.19273 0.45074 0.0
C858 C 0.11825 0.16243 0.46814 0.0
C859 C 0.13928 0.17852 0.45719 0.0
C860 C 0.13301 0.20259 0.44426 0.0
C861 C 0.10563 0.20932 0.44098 0.0
C862 C 0.12405 0.13649 0.48193 0.0
C863 C 0.15503 0.22061 0.43295 0.0
H864 H 0.22383 0.16632 0.50136 0.0
H865 H 0.20564 0.12479 0.42233 0.0
H866 H 0.17092 0.21342 0.49625 0.0
H867 H 0.16165 0.18473 0.51526 0.0
H868 H 0.19611 0.1998 0.51909 0.0
H869 H 0.16579 0.13105 0.39541 0.0
H870 H 0.13746 0.13223 0.41707 0.0
H871 H 0.14946 0.16251 0.40188 0.0
H872 H 0.07513 0.15692 0.47269 0.0
H873 H 0.1007 0.22711 0.43008 0.0
H874 H 0.13999 0.14079 0.49884 0.0
H875 H 0.13201 0.12155 0.46703 0.0
H876 H 0.10555 0.12689 0.49031 0.0
H877 H 0.17245 0.22503 0.44833 0.0
H878 H 0.14735 0.24027 0.42666 0.0
H879 H 0.16298 0.20984 0.41488 0.0
C880 C 0.61731 0.38542 0.21247 0.0
C881 C 0.61225 0.40981 0.22704 0.0
C882 C 0.59615 0.36981 0.19749 0.0
C883 C 0.56926 0.37875 0.19722 0.0
C884 C 0.56361 0.40211 0.21364 0.0
C885 C 0.58524 0.41745 0.22836 0.0
C886 C 0.60295 0.34483 0.18038 0.0
C887 C 0.5351 0.41194 0.21425 0.0
C888 C 0.53081 0.35847 0.12973 0.0
C889 C 0.51714 0.33378 0.13543 0.0
C890 C 0.54638 0.37439 0.15026 0.0
C891 C 0.54816 0.36546 0.17715 0.0
C892 C 0.53248 0.34188 0.18356 0.0
C893 C 0.51715 0.32623 0.16256 0.0
C894 C 0.56265 0.39961 0.14267 0.0
C895 C 0.53346 0.33205 0.21211 0.0
H896 H 0.63806 0.37917 0.21161 0.0
H897 H 0.58109 0.43614 0.23981 0.0
H898 H 0.58891 0.32708 0.18406 0.0
H899 H 0.6002 0.34872 0.15839 0.0
H900 H 0.62431 0.3393 0.18473 0.0
H901 H 0.53323 0.42714 0.2316 0.0
H902 H 0.52991 0.42169 0.19497 0.0
H903 H 0.51986 0.39457 0.21574 0.0
H904 H 0.53062 0.36464 0.1089 0.0
H905 H 0.50639 0.30733 0.16722 0.0
H906 H 0.58475 0.39588 0.14396 0.0
H907 H 0.55968 0.4172 0.15717 0.0
H908 H 0.55687 0.40526 0.12164 0.0
H909 H 0.55303 0.32244 0.21627 0.0
H910 H 0.51642 0.31673 0.21482 0.0
H911 H 0.53259 0.34939 0.22751 0.0
C912 C 0.31759 0.78267 0.98397 0.0
C913 C 0.30664 0.80812 0.98824 0.0
C914 C 0.34418 0.78075 0.97543 0.0
C915 C 0.36052 0.80495 0.97202 0.0
C916 C 0.34911 0.83067 0.97514 0.0
C917 C 0.3221 0.83192 0.98287 0.0
C918 C 0.35525 0.75285 0.97144 0.0
C919 C 0.36598 0.85693 0.97227 0.0
C920 C 0.43515 0.79281 0.9865 0.0
C921 C 0.44386 0.78837 0.96009 0.0
C922 C 0.40863 0.80062 0.99066 0.0
C923 C 0.39013 0.80307 0.9678 0.0
C924 C 0.3994 0.8003 0.94109 0.0
C925 C 0.42635 0.79333 0.93757 0.0
C926 C 0.39986 0.80435 0.01951 0.0
C927 C 0.38026 0.80224 0.91619 0.0
H928 H 0.30559 0.76427 0.98804 0.0
H929 H 0.31374 0.85166 0.98652 0.0
H930 H 0.3652 0.75094 0.95178 0.0
H931 H 0.37099 0.75008 0.98802 0.0
H932 H 0.339 0.73614 0.97161 0.0
H933 H 0.3532 0.87483 0.97162 0.0
H934 H 0.38121 0.86042 0.98994 0.0
H935 H 0.37748 0.85565 0.95353 0.0
H936 H 0.44872 0.78904 0.00392 0.0
H937 H 0.43296 0.78956 0.91708 0.0
H938 H 0.38594 0.78672 0.02389 0.0
H939 H 0.38846 0.82308 0.02205 0.0
H940 H 0.41755 0.80578 0.03482 0.0
H941 H 0.36609 0.78367 0.91365 0.0
H942 H 0.39145 0.80384 0.89729 0.0
H943 H 0.36764 0.82011 0.91859 0.0
C944 C 0.92921 0.42957 0.77226 0.0
C945 C 0.95266 0.44638 0.76872 0.0
C946 C 0.93126 0.40226 0.77878 0.0
C947 C 0.95742 0.39189 0.7826 0.0
C948 C 0.98115 0.40947 0.78098 0.0
C949 C 0.97847 0.43636 0.77357 0.0
C950 C 0.9055 0.38406 0.7797 0.0
C951 C 0.00944 0.3995 0.78578 0.0
C952 C 0.96972 0.3253 0.81542 0.0
C953 C 0.97632 0.30875 0.7928 0.0
C954 C 0.96212 0.35213 0.81237 0.0
C955 C 0.96034 0.36226 0.78598 0.0
C956 C 0.96457 0.34471 0.76286 0.0
C957 C 0.97299 0.31831 0.7666 0.0
C958 C 0.95833 0.37028 0.83757 0.0
C959 C 0.96195 0.35439 0.73428 0.0
H960 H 0.90921 0.43721 0.76812 0.0
H961 H 0.9966 0.4494 0.77087 0.0
H962 H 0.90363 0.36932 0.76157 0.0
H963 H 0.9063 0.372 0.79807 0.0
H964 H 0.88693 0.39592 0.77967 0.0
H965 H 0.02555 0.41647 0.78691 0.0
H966 H 0.01093 0.38883 0.80505 0.0
H967 H 0.01357 0.38461 0.76889 0.0
H968 H 0.9726 0.31808 0.83577 0.0
H969 H 0.978 0.30549 0.74909 0.0
H970 H 0.9399 0.38205 0.83477 0.0
H971 H 0.97619 0.38526 0.84123 0.0
H972 H 0.95651 0.35841 0.85601 0.0
H973 H 0.94284 0.36508 0.73114 0.0
H974 H 0.96195 0.33724 0.71848 0.0
H975 H 0.97931 0.36918 0.73126 0.0
C976 C 0.38328 0.16268 0.53515 0.0
C977 C 0.35639 0.16298 0.52398 0.0
C978 C 0.39586 0.1855 0.55025 0.0
C979 C 0.38135 0.20941 0.55375 0.0
C980 C 0.35557 0.21099 0.53971 0.0
C981 C 0.3432 0.18758 0.52514 0.0
C982 C 0.42356 0.18298 0.5647 0.0
C983 C 0.34006 0.23655 0.54184 0.0
C984 C 0.39896 0.24011 0.62478 0.0
C985 C 0.42182 0.2574 0.6205 0.0
C986 C 0.38372 0.22618 0.60274 0.0
C987 C 0.39125 0.23014 0.5758 0.0
C988 C 0.412 0.25026 0.57125 0.0
C989 C 0.42733 0.2635 0.59374 0.0
C990 C 0.36154 0.20502 0.60853 0.0
C991 C 0.41968 0.25607 0.54279 0.0
H992 H 0.39386 0.14393 0.53389 0.0
H993 H 0.32259 0.18817 0.51606 0.0
H994 H 0.43772 0.20053 0.56079 0.0
H995 H 0.42146 0.18322 0.58709 0.0
H996 H 0.43292 0.16382 0.55816 0.0
H997 H 0.32514 0.23743 0.52406 0.0
H998 H 0.32853 0.23666 0.56059 0.0
H999 H 0.35411 0.2552 0.54321 0.0
H1000 H 0.39427 0.23565 0.6454 0.0
H1001 H 0.44462 0.27737 0.59026 0.0
H1002 H 0.3684 0.18427 0.60355 0.0
H1003 H 0.3427 0.20741 0.59556 0.0
H1004 H 0.35645 0.20635 0.63028 0.0
H1005 H 0.43404 0.24095 0.53572 0.0
H1006 H 0.42998 0.27679 0.54232 0.0
H1007 H 0.40145 0.25437 0.52818 0.0
C1008 C 0.58369 0.66858 0.30407 0.0
C1009 C 0.56068 0.67594 0.31773 0.0
C1010 C 0.59046 0.64134 0.30124 0.0
C1011 C 0.57352 0.62074 0.31186 0.0
C1012 C 0.54945 0.62774 0.3244 0.0
C1013 C 0.54342 0.65536 0.32744 0.0
C1014 C 0.61645 0.63481 0.28788 0.0
C1015 C 0.53057 0.6062 0.33532 0.0
C1016 C 0.58992 0.5508 0.28356 0.0
C1017 C 0.60873 0.54324 0.30392 0.0
C1018 C 0.57632 0.57498 0.28688 0.0
C1019 C 0.58219 0.59225 0.31085 0.0
C1020 C 0.59984 0.58383 0.33219 0.0
C1021 C 0.61272 0.55925 0.32856 0.0
C1022 C 0.55707 0.58288 0.26398 0.0
C1023 C 0.60686 0.6018 0.35796 0.0
H1024 H 0.59718 0.68427 0.29645 0.0
H1025 H 0.52553 0.66086 0.3379 0.0
H1026 H 0.63059 0.62566 0.30273 0.0
H1027 H 0.61184 0.61957 0.27039 0.0
H1028 H 0.62715 0.65319 0.28035 0.0
H1029 H 0.51107 0.61448 0.34131 0.0
H1030 H 0.52589 0.58893 0.31981 0.0
H1031 H 0.54073 0.59784 0.3535 0.0
H1032 H 0.58644 0.53823 0.26463 0.0
H1033 H 0.62717 0.55344 0.3444 0.0
H1034 H 0.5672 0.5993 0.2529 0.0
H1035 H 0.53839 0.59098 0.27217 0.0
H1036 H 0.551 0.56532 0.24911 0.0
H1037 H 0.61949 0.62016 0.35305 0.0
H1038 H 0.61845 0.59106 0.37374 0.0
H1039 H 0.58806 0.60899 0.36669 0.0
C1040 C 0.06098 0.77775 0.1026 0.0
C1041 C 0.03925 0.75908 0.09332 0.0
C1042 C 0.0833 0.78255 0.0867 0.0
C1043 C 0.08383 0.76853 0.06071 0.0
C1044 C 0.06137 0.75066 0.05061 0.0
C1045 C 0.03938 0.746 0.06713 0.0
C1046 C 0.10689 0.80178 0.09827 0.0
C1047 C 0.06101 0.73572 0.02283 0.0
C1048 C 0.13993 0.79953 0.02057 0.0
C1049 C 0.16184 0.78418 0.02875 0.0
C1050 C 0.11349 0.79317 0.02876 0.0
C1051 C 0.10905 0.77108 0.04555 0.0
C1052 C 0.13048 0.75388 0.05141 0.0
C1053 C 0.15659 0.76058 0.04283 0.0
C1054 C 0.09097 0.81155 0.02148 0.0
C1055 C 0.12658 0.72996 0.06906 0.0
H1056 H 0.06101 0.78806 0.12274 0.0
H1057 H 0.02253 0.73172 0.05969 0.0
H1058 H 0.12553 0.79029 0.10111 0.0
H1059 H 0.11136 0.81773 0.08382 0.0
H1060 H 0.10273 0.81199 0.11825 0.0
H1061 H 0.04049 0.72595 0.0163 0.0
H1062 H 0.0673 0.74989 0.00725 0.0
H1063 H 0.07585 0.71957 0.02338 0.0
H1064 H 0.14371 0.81764 0.00943 0.0
H1065 H 0.17329 0.7483 0.04884 0.0
H1066 H 0.08786 0.82561 0.0394 0.0
H1067 H 0.07139 0.79944 0.01611 0.0
H1068 H 0.096 0.82406 0.00413 0.0
H1069 H 0.1245 0.73768 0.09048 0.0
H1070 H 0.14406 0.71663 0.06873 0.0
H1071 H 0.1076 0.71743 0.06227 0.0
C1072 C 0.74553 0.9513 0.61608 0.0
C1073 C 0.7434 0.97174 0.59741 0.0
C1074 C 0.73468 0.95438 0.64179 0.0
C1075 C 0.72178 0.97857 0.64896 0.0
C1076 C 0.72294 0.00062 0.63168 0.0
C1077 C 0.73367 0.9969 0.60601 0.0
C1078 C 0.73424 0.93054 0.65981 0.0
C1079 C 0.7101 0.02706 0.6389 0.0
C1080 C 0.65606 0.97279 0.68529 0.0
C1081 C 0.66446 0.98342 0.71173 0.0
C1082 C 0.6748 0.9703 0.66503 0.0
C1083 C 0.70265 0.97889 0.67128 0.0
C1084 C 0.71147 0.98887 0.69815 0.0
C1085 C 0.69224 0.99096 0.71813 0.0
C1086 C 0.66458 0.95917 0.63668 0.0
C1087 C 0.74093 -0.0017 0.70555 0.0
H1088 H 0.75325 0.93186 0.6097 0.0
H1089 H 0.73242 0.01297 0.59186 0.0
H1090 H 0.73809 0.93759 0.68164 0.0
H1091 H 0.71373 0.91959 0.65744 0.0
H1092 H 0.74965 0.91584 0.65429 0.0
H1093 H 0.71694 0.04362 0.62594 0.0
H1094 H 0.68754 0.02383 0.63587 0.0
H1095 H 0.71508 0.03382 0.66065 0.0
H1096 H 0.63468 0.96671 0.68027 0.0
H1097 H 0.69888 -0.00074 0.73853 0.0
H1098 H 0.67654 0.94178 0.63004 0.0
H1099 H 0.66742 0.97523 0.62195 0.0
H1100 H 0.6426 0.95211 0.63558 0.0
H1101 H 0.75485 0.98317 0.69758 0.0
H1102 H 0.74521 0.00172 0.72799 0.0
H1103 H 0.74578 0.01776 0.69598 0.0
C1104 C 0.77337 0.9782 0.32057 0.0
C1105 C 0.79917 0.98133 0.31006 0.0
C1106 C 0.77061 0.97071 0.34743 0.0
C1107 C 0.7943 0.96722 0.36445 0.0
C1108 C 0.82033 0.96908 0.35352 0.0
C1109 C 0.82242 0.97575 0.32627 0.0
C1110 C 0.74239 0.96802 0.35801 0.0
C1111 C 0.84611 0.96608 0.3711 0.0
C1112 C 0.78304 0.9852 0.43881 0.0
C1113 C 0.77859 0.95933 0.44884 0.0
C1114 C 0.79009 0.988 0.41181 0.0
C1115 C 0.79178 0.96432 0.3942 0.0
C1116 C 0.78852 0.93813 0.4046 0.0
C1117 C 0.78233 0.93596 0.43198 0.0
C1118 C 0.79431 0.01632 0.40177 0.0
C1119 C 0.78957 0.91241 0.38639 0.0
H1120 H 0.75539 0.98244 0.30801 0.0
H1121 H 0.84244 0.9785 0.31828 0.0
H1122 H 0.73973 0.94893 0.36884 0.0
H1123 H 0.73974 0.98538 0.37292 0.0
H1124 H 0.72605 0.96789 0.34136 0.0
H1125 H 0.8643 0.96466 0.3588 0.0
H1126 H 0.84966 0.98407 0.38593 0.0
H1127 H 0.84411 0.94769 0.38305 0.0
H1128 H 0.78023 0.00327 0.45187 0.0
H1129 H 0.77856 0.9159 0.43961 0.0
H1130 H 0.77699 0.0203 0.38732 0.0
H1131 H 0.81325 0.01802 0.39059 0.0
H1132 H 0.7957 0.03241 0.41877 0.0
H1133 H 0.77125 0.91027 0.37188 0.0
H1134 H 0.79001 0.89385 0.39824 0.0
H1135 H 0.80776 0.91348 0.37408 0.0
C1136 C 0.79668 0.11427 0.07887 0.0
C1137 C 0.78277 0.10879 0.05324 0.0
C1138 C 0.79742 0.09436 0.09813 0.0
C1139 C 0.78398 0.06825 0.09158 0.0
C1140 C 0.771 0.06211 0.06528 0.0
C1141 C 0.77046 0.08251 0.04641 0.0
C1142 C 0.81169 0.10171 0.12593 0.0
C1143 C 0.75671 0.03445 0.05744 0.0
C1144 C 0.80583 0.01941 0.14392 0.0
C1145 C 0.78687 0.02424 0.16367 0.0
C1146 C 0.80366 0.03143 0.11871 0.0
C1147 C 0.78203 0.04851 0.11328 0.0
C1148 C 0.761 0.05047 0.13164 0.0
C1149 C 0.76365 0.03823 0.15663 0.0
C1150 C 0.8261 0.02822 0.0993 0.0
C1151 C 0.73727 0.06803 0.12639 0.0
H1152 H 0.80641 0.13442 0.08425 0.0
H1153 H 0.75976 0.07805 0.02657 0.0
H1154 H 0.79657 0.10099 0.14183 0.0
H1155 H 0.82698 0.08667 0.1307 0.0
H1156 H 0.82223 0.12244 0.1273 0.0
H1157 H 0.75202 0.03133 0.03503 0.0
H1158 H 0.76933 0.01784 0.06427 0.0
H1159 H 0.73721 0.03264 0.06768 0.0
H1160 H 0.82369 0.00833 0.14901 0.0
H1161 H 0.74861 0.0416 0.17156 0.0
H1162 H 0.84042 0.04668 0.10169 0.0
H1163 H 0.81766 0.02623 0.07778 0.0
H1164 H 0.83788 0.01012 0.10343 0.0
H1165 H 0.7445 0.0899 0.12956 0.0
H1166 H 0.72067 0.064 0.14031 0.0
H1167 H 0.72873 0.06454 0.10498 0.0
C1168 C 0.64962 0.04277 0.81899 0.0
C1169 C 0.62197 0.04102 0.82488 0.0
C1170 C 0.66912 0.05842 0.83617 0.0
C1171 C 0.66074 0.07257 0.85981 0.0
C1172 C 0.6331 0.07002 0.8665 0.0
C1173 C 0.61401 0.05429 0.8489 0.0
C1174 C 0.69845 0.06067 0.82846 0.0
C1175 C 0.62353 0.08469 0.89174 0.0
C1176 C 0.71204 0.09987 0.91685 0.0
C1177 C 0.71408 0.12785 0.91227 0.0
C1178 C 0.69536 0.08142 0.89943 0.0
C1179 C 0.68052 0.09119 0.87689 0.0
C1180 C 0.68349 0.11914 0.87139 0.0
C1181 C 0.70024 0.13717 0.88919 0.0
C1182 C 0.69272 0.0517 0.90581 0.0
C1183 C 0.66814 0.1302 0.8473 0.0
H1184 H 0.65599 0.03261 0.80048 0.0
H1185 H 0.59272 0.05294 0.85365 0.0
H1186 H 0.70405 0.08197 0.82359 0.0
H1187 H 0.71239 0.05582 0.84587 0.0
H1188 H 0.70198 0.04679 0.81049 0.0
H1189 H 0.60169 0.07929 0.89484 0.0
H1190 H 0.63604 0.07967 0.9101 0.0
H1191 H 0.62623 0.10711 0.89007 0.0
H1192 H 0.72272 0.09247 0.93461 0.0
H1193 H 0.70182 0.15872 0.88543 0.0
H1194 H 0.69638 0.03839 0.88752 0.0
H1195 H 0.67162 0.04638 0.91149 0.0
H1196 H 0.70723 0.04702 0.92287 0.0
H1197 H 0.67194 0.11825 0.82818 0.0
H1198 H 0.67404 0.15207 0.84491 0.0
H1199 H 0.64585 0.12808 0.84995 0.0
C1200 C 0.60685 0.74322 0.9499 0.0
C1201 C 0.58638 0.73716 0.96776 0.0
C1202 C 0.63295 0.73324 0.95376 0.0
C1203 C 0.63853 0.71679 0.9759 0.0
C1204 C 0.61875 0.71276 0.9953 0.0
C1205 C 0.59297 0.72309 0.99106 0.0
C1206 C 0.65375 0.7385 0.93297 0.0
C1207 C 0.6239 0.69551 0.01932 0.0
C1208 C 0.68362 0.65734 0.96761 0.0
C1209 C 0.70685 0.66642 0.9844 0.0
C1210 C 0.66174 0.67406 0.9638 0.0
C1211 C 0.6632 0.70064 0.97688 0.0
C1212 C 0.68715 0.71048 0.99271 0.0
C1213 C 0.70866 0.69318 0.99643 0.0
C1214 C 0.63651 0.66275 0.94677 0.0
C1215 C 0.68963 0.73885 0.00659 0.0
H1216 H 0.60203 0.75424 0.93194 0.0
H1217 H 0.57742 0.71865 0.00521 0.0
H1218 H 0.67438 0.74338 0.94313 0.0
H1219 H 0.65482 0.71981 0.91934 0.0
H1220 H 0.64835 0.75553 0.92017 0.0
H1221 H 0.60769 0.69686 0.03409 0.0
H1222 H 0.62467 0.67381 0.01186 0.0
H1223 H 0.64389 0.70186 0.03023 0.0
H1224 H 0.68208 0.63676 0.95813 0.0
H1225 H 0.72666 0.70046 0.00923 0.0
H1226 H 0.63116 0.67684 0.93074 0.0
H1227 H 0.61896 0.66097 0.95991 0.0
H1228 H 0.63924 0.64229 0.93676 0.0
H1229 H 0.68312 0.7541 0.99215 0.0
H1230 H 0.71085 0.74478 0.01484 0.0
H1231 H 0.67595 0.73975 0.02375 0.0
C1232 C 0.06944 0.04181 0.76327 0.0
C1233 C 0.09774 0.04366 0.76978 0.0
C1234 C 0.05396 0.06481 0.76633 0.0
C1235 C 0.06705 0.09012 0.77651 0.0
C1236 C 0.09552 0.09196 0.78362 0.0
C1237 C 0.11055 0.06876 0.77996 0.0
C1238 C 0.02375 0.06217 0.75818 0.0
C1239 C 0.11017 0.11852 0.79491 0.0
C1240 C 0.04032 0.15895 0.76246 0.0
C1241 C 0.03036 0.16683 0.78772 0.0
C1242 C 0.05061 0.13316 0.75786 0.0
C1243 C 0.05137 0.11502 0.7792 0.0
C1244 C 0.03965 0.12213 0.80409 0.0
C1245 C 0.02905 0.1479 0.80797 0.0
C1246 C 0.06231 0.12608 0.73079 0.0
C1247 C 0.0402 0.10342 0.82739 0.0
H1248 H 0.05943 0.02248 0.75525 0.0
H1249 H 0.13236 0.07028 0.78518 0.0
H1250 H 0.01191 0.06893 0.77561 0.0
H1251 H 0.01919 0.07568 0.74139 0.0
H1252 H 0.01653 0.04088 0.75127 0.0
H1253 H 0.13214 0.11624 0.80048 0.0
H1254 H 0.10864 0.13413 0.77956 0.0
H1255 H 0.10037 0.12638 0.81331 0.0
H1256 H 0.04116 0.17342 0.74665 0.0
H1257 H 0.02148 0.15388 0.82758 0.0
H1258 H 0.05489 0.10516 0.72288 0.0
H1259 H 0.08491 0.1264 0.73359 0.0
H1260 H 0.05689 0.14069 0.71522 0.0
H1261 H 0.03296 0.08228 0.82009 0.0
H1262 H 0.0274 0.1104 0.84403 0.0
H1263 H 0.06154 0.10271 0.83599 0.0
C1264 C 0.92195 0.22932 0.46724 0.0
C1265 C 0.94452 0.24411 0.45797 0.0
C1266 C 0.8991 0.24248 0.47569 0.0
C1267 C 0.89901 0.27126 0.47549 0.0
C1268 C 0.92176 0.28641 0.46627 0.0
C1269 C 0.94417 0.27259 0.45728 0.0
C1270 C 0.87508 0.22552 0.48495 0.0
C1271 C 0.9226 0.31719 0.46638 0.0
C1272 C 0.82959 0.30103 0.48044 0.0
C1273 C 0.82881 0.30587 0.50877 0.0
C1274 C 0.85268 0.29044 0.46909 0.0
C1275 C 0.87564 0.28532 0.48649 0.0
C1276 C 0.87535 0.29144 0.51496 0.0
C1277 C 0.85183 0.30129 0.52576 0.0
C1278 C 0.85207 0.28367 0.43869 0.0
C1279 C 0.8996 0.28683 0.53415 0.0
H1280 H 0.92187 0.20725 0.46742 0.0
H1281 H 0.96154 0.28409 0.45006 0.0
H1282 H 0.87243 0.2307 0.50688 0.0
H1283 H 0.856 0.23019 0.47337 0.0
H1284 H 0.87766 0.20323 0.48217 0.0
H1285 H 0.94147 0.32589 0.45791 0.0
H1286 H 0.90462 0.32369 0.45426 0.0
H1287 H 0.92153 0.32599 0.48759 0.0
H1288 H 0.81183 0.30462 0.46728 0.0
H1289 H 0.85149 0.30549 0.54765 0.0
H1290 H 0.85253 0.26123 0.43468 0.0
H1291 H 0.87041 0.2932 0.43004 0.0
H1292 H 0.83353 0.29063 0.42778 0.0
H1293 H 0.90235 0.26461 0.53472 0.0
H1294 H 0.89712 0.2952 0.55531 0.0
H1295 H 0.91856 0.29649 0.52678 0.0
C1296 C 0.51616 0.91882 0.7868 0.0
C1297 C 0.54006 0.92556 0.77373 0.0
C1298 C 0.5119 0.89329 0.79765 0.0
C1299 C 0.53195 0.87392 0.79522 0.0
C1300 C 0.55493 0.87963 0.77993 0.0
C1301 C 0.55876 0.90547 0.76936 0.0
C1302 C 0.48697 0.88796 0.81361 0.0
C1303 C 0.57648 0.85927 0.77644 0.0
C1304 C 0.53745 0.82977 0.85568 0.0
C1305 C 0.52153 0.80615 0.84601 0.0
C1306 C 0.54192 0.8515 0.83889 0.0
C1307 C 0.5304 0.84948 0.81167 0.0
C1308 C 0.51548 0.82516 0.80133 0.0
C1309 C 0.51108 0.80381 0.81868 0.0
C1310 C 0.55795 0.87713 0.85074 0.0
C1311 C 0.50325 0.82211 0.7723 0.0
H1312 H 0.50139 0.93408 0.78994 0.0
H1313 H 0.57721 0.91042 0.75914 0.0
H1314 H 0.47665 0.86774 0.80705 0.0
H1315 H 0.49331 0.88758 0.83564 0.0
H1316 H 0.47199 0.90386 0.81117 0.0
H1317 H 0.59031 0.8647 0.76023 0.0
H1318 H 0.58899 0.8587 0.79594 0.0
H1319 H 0.56694 0.83841 0.77132 0.0
H1320 H 0.54572 0.83171 0.8767 0.0
H1321 H 0.49898 0.78551 0.81095 0.0
H1322 H 0.54437 0.89439 0.85146 0.0
H1323 H 0.57473 0.88266 0.83756 0.0
H1324 H 0.56688 0.87481 0.87172 0.0
H1325 H 0.48602 0.83558 0.77009 0.0
H1326 H 0.49549 0.80075 0.76632 0.0
H1327 H 0.51859 0.82854 0.75788 0.0
C1328 C 0.97169 0.16772 0.32969 0.0
C1329 C 0.97509 0.15543 0.35465 0.0
C1330 C 0.95546 0.1545 0.30776 0.0
C1331 C 0.94218 0.12867 0.31115 0.0
C1332 C 0.94718 0.11539 0.33558 0.0
C1333 C 0.96373 0.12886 0.35693 0.0
C1334 C 0.95122 0.1689 0.2817 0.0
C1335 C 0.93349 0.08774 0.34 0.0
C1336 C 0.87194 0.10572 0.28082 0.0
C1337 C 0.87773 0.08318 0.26379 0.0
C1338 C 0.89305 0.12244 0.29464 0.0
C1339 C 0.92053 0.11662 0.29098 0.0
C1340 C 0.92649 0.09579 0.27152 0.0
C1341 C 0.90496 0.0791 0.25828 0.0
C1342 C 0.88584 0.14456 0.31518 0.0
C1343 C 0.95554 0.08962 0.2664 0.0
H1344 H 0.98067 0.18814 0.32765 0.0
H1345 H 0.96658 0.11903 0.37599 0.0
H1346 H 0.95087 0.1543 0.26354 0.0
H1347 H 0.93123 0.17829 0.28144 0.0
H1348 H 0.96743 0.18536 0.27992 0.0
H1349 H 0.94084 0.07957 0.35954 0.0
H1350 H 0.91106 0.08937 0.34023 0.0
H1351 H 0.93723 0.0728 0.32303 0.0
H1352 H 0.85094 0.10922 0.28491 0.0
H1353 H 0.90957 0.06202 0.24468 0.0
H1354 H 0.89809 0.16386 0.31275 0.0
H1355 H 0.89071 0.13824 0.33615 0.0
H1356 H 0.86382 0.14861 0.31322 0.0
H1357 H 0.96872 0.10874 0.26612 0.0
H1358 H 0.95677 0.07743 0.24677 0.0
H1359 H 0.96388 0.0777 0.28312 0.0
C1360 C 0.56748 0.08203 0.71008 0.0
C1361 C 0.54476 0.06479 0.71509 0.0
C1362 C 0.56428 0.10896 0.70293 0.0
C1363 C 0.53768 0.11847 0.69997 0.0
C1364 C 0.51462 0.10014 0.70213 0.0
C1365 C 0.51845 0.07363 0.71016 0.0
C1366 C 0.58941 0.1279 0.70127 0.0
C1367 C 0.48589 0.10916 0.69809 0.0
C1368 C 0.52294 0.1911 0.7217 0.0
C1369 C 0.51952 0.20277 0.69654 0.0
C1370 C 0.53057 0.16414 0.7231 0.0
C1371 C 0.53386 0.14819 0.69864 0.0
C1372 C 0.53141 0.16023 0.67321 0.0
C1373 C 0.52464 0.18759 0.6725 0.0
C1374 C 0.53389 0.15236 0.75073 0.0
C1375 C 0.5341 0.14378 0.64667 0.0
H1376 H 0.58789 0.07534 0.71418 0.0
H1377 H 0.50087 0.06027 0.71395 0.0
H1378 H 0.58722 0.14081 0.6836 0.0
H1379 H 0.59207 0.14179 0.72002 0.0
H1380 H 0.60816 0.1165 0.69954 0.0
H1381 H 0.47048 0.09154 0.69604 0.0
H1382 H 0.48128 0.12271 0.71589 0.0
H1383 H 0.48378 0.12101 0.67962 0.0
H1384 H 0.51903 0.20289 0.74027 0.0
H1385 H 0.5216 0.19653 0.65297 0.0
H1386 H 0.55337 0.14209 0.75269 0.0
H1387 H 0.51702 0.13674 0.7529 0.0
H1388 H 0.53369 0.16826 0.76777 0.0
H1389 H 0.55249 0.13176 0.64783 0.0
H1390 H 0.53528 0.15693 0.62909 0.0
H1391 H 0.51608 0.12903 0.64274 0.0
C1392 C 0.16893 0.33953 0.96715 0.0
C1393 C 0.16238 0.36699 0.96868 0.0
C1394 C 0.15276 0.31978 0.95069 0.0
C1395 C 0.12953 0.32775 0.93551 0.0
C1396 C 0.12199 0.35511 0.9381 0.0
C1397 C 0.13852 0.37442 0.95468 0.0
C1398 C 0.16127 0.29073 0.94853 0.0
C1399 C 0.09719 0.3643 0.92233 0.0
C1400 C 0.10471 0.29135 0.8679 0.0
C1401 C 0.08066 0.27728 0.87481 0.0
C1402 C 0.12157 0.30681 0.88781 0.0
C1403 C 0.11418 0.30819 0.91525 0.0
C1404 C 0.09085 0.29276 0.92265 0.0
C1405 C 0.07435 0.27743 0.90232 0.0
C1406 C 0.14648 0.32286 0.87921 0.0
C1407 C 0.08249 0.29361 0.95176 0.0
H1408 H 0.18726 0.33357 0.97804 0.0
H1409 H 0.1332 0.39554 0.95591 0.0
H1410 H 0.14364 0.27616 0.95128 0.0
H1411 H 0.16835 0.28601 0.92785 0.0
H1412 H 0.17803 0.28723 0.96387 0.0
H1413 H 0.09307 0.38581 0.92811 0.0
H1414 H 0.10028 0.36249 0.90012 0.0
H1415 H 0.07885 0.35098 0.92585 0.0
H1416 H 0.10986 0.29116 0.84674 0.0
H1417 H 0.05593 0.26643 0.90789 0.0
H1418 H 0.16475 0.3189 0.89241 0.0
H1419 H 0.14343 0.34506 0.88171 0.0
H1420 H 0.15064 0.31776 0.85758 0.0
H1421 H 0.10019 0.29032 0.96604 0.0
H1422 H 0.06578 0.27799 0.9547 0.0
H1423 H 0.07536 0.31408 0.95741 0.0
C1424 C 0.44881 0.72932 0.40638 0.0
C1425 C 0.46892 0.74925 0.4169 0.0
C1426 C 0.42486 0.72428 0.41991 0.0
C1427 C 0.42101 0.73936 0.44471 0.0
C1428 C 0.44167 0.75878 0.456 0.0
C1429 C 0.46534 0.7636 0.44187 0.0
C1430 C 0.40322 0.70348 0.40712 0.0
C1431 C 0.43842 0.77499 0.48256 0.0
C1432 C 0.34645 0.74585 0.45741 0.0
C1433 C 0.34119 0.72397 0.47387 0.0
C1434 C 0.37274 0.75205 0.44903 0.0
C1435 C 0.39441 0.73613 0.45747 0.0
C1436 C 0.38972 0.71538 0.47577 0.0
C1437 C 0.36311 0.70948 0.48374 0.0
C1438 C 0.3769 0.77445 0.42961 0.0
C1439 C 0.41244 0.69827 0.48557 0.0
H1440 H 0.45144 0.71809 0.38714 0.0
H1441 H 0.4809 0.77888 0.45028 0.0
H1442 H 0.39787 0.68817 0.42196 0.0
H1443 H 0.38436 0.7138 0.40158 0.0
H1444 H 0.40992 0.69259 0.38845 0.0
H1445 H 0.45745 0.78724 0.48997 0.0
H1446 H 0.42179 0.78909 0.47976 0.0
H1447 H 0.4325 0.76114 0.49855 0.0
H1448 H 0.32973 0.75738 0.44991 0.0
H1449 H 0.35929 0.69265 0.49659 0.0
H1450 H 0.38138 0.76531 0.40928 0.0
H1451 H 0.39465 0.78852 0.43698 0.0
H1452 H 0.35862 0.78656 0.42704 0.0
H1453 H 0.41782 0.6842 0.46849 0.0
H1454 H 0.40648 0.68588 0.50271 0.0
H1455 H 0.43106 0.71142 0.4923 0.0
C1456 C 0.81801 0.51827 0.79216 0.0
C1457 C 0.84524 0.52906 0.79411 0.0
C1458 C 0.80103 0.52217 0.81391 0.0
C1459 C 0.81164 0.53697 0.8382 0.0
C1460 C 0.83875 0.54879 0.83984 0.0
C1461 C 0.85516 0.54478 0.81776 0.0
C1462 C 0.77213 0.50957 0.81128 0.0
C1463 C 0.85087 0.56472 0.86541 0.0
C1464 C 0.77068 0.56487 0.8954 0.0
C1465 C 0.77594 0.54627 0.91538 0.0
C1466 C 0.78036 0.56105 0.86917 0.0
C1467 C 0.79563 0.53817 0.86295 0.0
C1468 C 0.79881 0.51814 0.88224 0.0
C1469 C 0.78886 0.52239 0.90817 0.0
C1470 C 0.77609 0.58259 0.84894 0.0
C1471 C 0.81477 0.49332 0.87638 0.0
H1472 H 0.8101 0.50628 0.77386 0.0
H1473 H 0.87609 0.55334 0.81941 0.0
H1474 H 0.77044 0.49214 0.82458 0.0
H1475 H 0.75763 0.52462 0.8182 0.0
H1476 H 0.76582 0.50199 0.78995 0.0
H1477 H 0.87173 0.57386 0.86283 0.0
H1478 H 0.83764 0.58134 0.8713 0.0
H1479 H 0.85201 0.55101 0.88256 0.0
H1480 H 0.76056 0.58329 0.90072 0.0
H1481 H 0.79265 0.50769 0.92335 0.0
H1482 H 0.77062 0.57304 0.82815 0.0
H1483 H 0.79539 0.59535 0.84798 0.0
H1484 H 0.75982 0.59617 0.85479 0.0
H1485 H 0.80794 0.48315 0.85617 0.0
H1486 H 0.81266 0.47819 0.89218 0.0
H1487 H 0.83676 0.49977 0.87571 0.0
C1488 C 0.67302 0.51981 0.17358 0.0
C1489 C 0.69571 0.51226 0.18942 0.0
C1490 C 0.67601 0.52939 0.14748 0.0
C1491 C 0.70241 0.53219 0.13747 0.0
C1492 C 0.72555 0.52658 0.15436 0.0
C1493 C 0.72187 0.51617 0.17994 0.0
C1494 C 0.65079 0.53452 0.12991 0.0
C1495 C 0.75415 0.53019 0.14484 0.0
C1496 C 0.71715 0.52216 0.063 0.0
C1497 C 0.72286 0.54911 0.05626 0.0
C1498 C 0.70819 0.51651 0.08877 0.0
C1499 C 0.70593 0.53833 0.10855 0.0
C1500 C 0.71018 0.56566 0.10129 0.0
C1501 C 0.71823 0.57073 0.07501 0.0
C1502 C 0.7029 0.4871 0.09537 0.0
C1503 C 0.70855 0.58945 0.12191 0.0
H1504 H 0.65272 0.51642 0.18079 0.0
H1505 H 0.7394 0.51039 0.19226 0.0
H1506 H 0.65349 0.55411 0.11997 0.0
H1507 H 0.64732 0.51802 0.11342 0.0
H1508 H 0.63229 0.53497 0.14184 0.0
H1509 H 0.76999 0.52831 0.16161 0.0
H1510 H 0.757 0.51443 0.12829 0.0
H1511 H 0.75743 0.55049 0.13635 0.0
H1512 H 0.72071 0.50546 0.04846 0.0
H1513 H 0.72301 0.59159 0.06992 0.0
H1514 H 0.68356 0.48449 0.10578 0.0
H1515 H 0.71967 0.48114 0.1095 0.0
H1516 H 0.70167 0.47295 0.07677 0.0
H1517 H 0.69002 0.58697 0.13358 0.0
H1518 H 0.70839 0.60926 0.1121 0.0
H1519 H 0.72653 0.59022 0.13679 0.0
C1520 C 0.72911 0.39766 0.43877 0.0
C1521 C 0.74862 0.41046 0.45812 0.0
C1522 C 0.72183 0.40999 0.41461 0.0
C1523 C 0.73429 0.43583 0.40966 0.0
C1524 C 0.7534 0.44927 0.42944 0.0
C1525 C 0.7604 0.43638 0.45343 0.0
C1526 C 0.70138 0.39496 0.39398 0.0
C1527 C 0.76694 0.47691 0.42495 0.0
C1528 C 0.73593 0.44734 0.33435 0.0
C1529 C 0.71242 0.46173 0.32974 0.0
C1530 C 0.74418 0.44016 0.36062 0.0
C1531 C 0.72859 0.44761 0.38288 0.0
C1532 C 0.70598 0.4638 0.37872 0.0
C1533 C 0.69813 0.47069 0.35215 0.0
C1534 C 0.76856 0.42305 0.36419 0.0
C1535 C 0.68904 0.47238 0.40202 0.0
H1536 H 0.7198 0.3777 0.44225 0.0
H1537 H 0.77536 0.44651 0.46836 0.0
H1538 H 0.68443 0.4081 0.38889 0.0
H1539 H 0.71139 0.39002 0.37479 0.0
H1540 H 0.69261 0.37563 0.4015 0.0
H1541 H 0.77953 0.48566 0.44328 0.0
H1542 H 0.78031 0.47507 0.40759 0.0
H1543 H 0.75133 0.49141 0.41948 0.0
H1544 H 0.74731 0.4406 0.31722 0.0
H1545 H 0.68002 0.48191 0.34882 0.0
H1546 H 0.76157 0.4022 0.36939 0.0
H1547 H 0.7827 0.43193 0.3813 0.0
H1548 H 0.78004 0.42129 0.34542 0.0
H1549 H 0.67696 0.45429 0.40839 0.0
H1550 H 0.67468 0.48802 0.39623 0.0
H1551 H 0.70238 0.48069 0.41998 0.0
C1552 C 0.85179 0.5046 0.66935 0.0
C1553 C 0.87895 0.4982 0.66616 0.0
C1554 C 0.8304 0.49189 0.65207 0.0
C1555 C 0.83639 0.47197 0.63169 0.0
C1556 C 0.86393 0.4675 0.62673 0.0
C1557 C 0.88491 0.48089 0.6439 0.0
C1558 C 0.80135 0.49809 0.65718 0.0
C1559 C 0.87122 0.44645 0.60512 0.0
C1560 C 0.79325 0.40613 0.6189 0.0
C1561 C 0.78394 0.40764 0.59154 0.0
C1562 C 0.80874 0.42792 0.63291 0.0
C1563 C 0.81461 0.45205 0.61938 0.0
C1564 C 0.80281 0.45484 0.5928 0.0
C1565 C 0.78774 0.43244 0.57902 0.0
C1566 C 0.82082 0.42411 0.66136 0.0
C1567 C 0.80768 0.48066 0.57815 0.0
H1568 H 0.84707 0.51845 0.68619 0.0
H1569 H 0.90587 0.47613 0.64108 0.0
H1570 H 0.78861 0.4977 0.63772 0.0
H1571 H 0.79231 0.48233 0.66982 0.0
H1572 H 0.80041 0.51835 0.66829 0.0
H1573 H 0.89347 0.44747 0.602 0.0
H1574 H 0.86515 0.42568 0.6113 0.0
H1575 H 0.85999 0.44926 0.58534 0.0
H1576 H 0.78999 0.38723 0.62891 0.0
H1577 H 0.7802 0.43395 0.55801 0.0
H1578 H 0.81652 0.44149 0.67556 0.0
H1579 H 0.84336 0.42355 0.661 0.0
H1580 H 0.81271 0.40489 0.66963 0.0
H1581 H 0.80818 0.49904 0.59249 0.0
H1582 H 0.79168 0.48243 0.5615 0.0
H1583 H 0.82774 0.4804 0.56891 0.0
C1584 C 0.47845 0.07892 0.19116 0.0
C1585 C 0.45813 0.07296 0.20919 0.0
C1586 C 0.48491 0.10583 0.18469 0.0
C1587 C 0.47083 0.12733 0.19668 0.0
C1588 C 0.45212 0.12177 0.21677 0.0
C1589 C 0.44593 0.09457 0.22278 0.0
C1590 C 0.50518 0.11091 0.16331 0.0
C1591 C 0.43712 0.14424 0.2304 0.0
C1592 C 0.49784 0.19829 0.18083 0.0
C1593 C 0.48131 0.20273 0.15741 0.0
C1594 C 0.49377 0.17446 0.19492 0.0
C1595 C 0.47287 0.1546 0.18515 0.0
C1596 C 0.45529 0.15964 0.16236 0.0
C1597 C 0.45966 0.18368 0.14884 0.0
C1598 C 0.51262 0.16998 0.21942 0.0
C1599 C 0.4327 0.13898 0.15131 0.0
H1600 H 0.4883 0.0624 0.18087 0.0
H1601 H 0.43038 0.09019 0.23696 0.0
H1602 H 0.4942 0.11677 0.14435 0.0
H1603 H 0.52013 0.12806 0.17036 0.0
H1604 H 0.51653 0.09257 0.15824 0.0
H1605 H 0.42737 0.13747 0.2489 0.0
H1606 H 0.45118 0.16244 0.23626 0.0
H1607 H 0.42092 0.15062 0.21586 0.0
H1608 H 0.51447 0.21305 0.18774 0.0
H1609 H 0.44664 0.18703 0.13091 0.0
H1610 H 0.52692 0.15422 0.21382 0.0
H1611 H 0.50083 0.16236 0.2363 0.0
H1612 H 0.52484 0.18899 0.22697 0.0
H1613 H 0.44169 0.1201 0.1434 0.0
H1614 H 0.41977 0.14678 0.13452 0.0
H1615 H 0.41944 0.13326 0.16783 0.0
C1616 C 0.03714 0.86365 0.62052 0.0
C1617 C 0.02058 0.84149 0.62811 0.0
C1618 C 0.05204 0.88113 0.64031 0.0
C1619 C 0.05002 0.87646 0.6683 0.0
C1620 C 0.03121 0.85589 0.67613 0.0
C1621 C 0.01679 0.83848 0.6559 0.0
C1622 C 0.07185 0.90294 0.63113 0.0
C1623 C 0.02795 0.85081 0.7058 0.0
C1624 C 0.11707 0.89195 0.70932 0.0
C1625 C 0.11413 0.91855 0.72027 0.0
C1626 C 0.09576 0.87756 0.69341 0.0
C1627 C 0.07076 0.88993 0.68862 0.0
C1628 C 0.06694 0.91597 0.70116 0.0
C1629 C 0.08879 0.9301 0.71674 0.0
C1630 C 0.10064 0.84974 0.68041 0.0
C1631 C 0.04034 0.92949 0.697 0.0
H1632 H 0.03994 0.8663 0.5991 0.0
H1633 H 0.00364 0.82166 0.66193 0.0
H1634 H 0.06989 0.92268 0.64279 0.0
H1635 H 0.09308 0.89694 0.63516 0.0
H1636 H 0.06863 0.90604 0.60898 0.0
H1637 H 0.00892 0.83817 0.70858 0.0
H1638 H 0.04556 0.83986 0.71376 0.0
H1639 H 0.02771 0.87038 0.71827 0.0
H1640 H 0.13648 0.88276 0.71212 0.0
H1641 H 0.08626 0.95055 0.72532 0.0
H1642 H 0.1 0.85063 0.65786 0.0
H1643 H 0.0843 0.83451 0.68518 0.0
H1644 H 0.12069 0.84242 0.68741 0.0
H1645 H 0.03864 0.93692 0.67612 0.0
H1646 H 0.03894 0.94719 0.71192 0.0
H1647 H 0.02268 0.91469 0.69885 0.0
C1648 C 0.52519 0.83628 0.29086 0.0
C1649 C 0.51032 0.81471 0.30181 0.0
C1650 C 0.51219 0.85867 0.28108 0.0
C1651 C 0.48347 0.85928 0.28166 0.0
C1652 C 0.46821 0.83744 0.29236 0.0
C1653 C 0.48188 0.8155 0.30265 0.0
C1654 C 0.52926 0.88177 0.27024 0.0
C1655 C 0.43748 0.83714 0.29269 0.0
C1656 C 0.45529 0.92912 0.27482 0.0
C1657 C 0.44997 0.92902 0.24649 0.0
C1658 C 0.46544 0.90617 0.2868 0.0
C1659 C 0.46963 0.88247 0.27005 0.0
C1660 C 0.46297 0.88188 0.24161 0.0
C1661 C 0.45357 0.90528 0.23014 0.0
C1662 C 0.47285 0.90773 0.31714 0.0
C1663 C 0.46656 0.85682 0.22314 0.0
H1664 H 0.54722 0.83602 0.29049 0.0
H1665 H 0.47032 0.79889 0.31114 0.0
H1666 H 0.52347 0.88356 0.24828 0.0
H1667 H 0.52535 0.90144 0.28117 0.0
H1668 H 0.5515 0.87876 0.27249 0.0
H1669 H 0.42863 0.81866 0.30174 0.0
H1670 H 0.43148 0.85552 0.30454 0.0
H1671 H 0.42838 0.83789 0.27155 0.0
H1672 H 0.45245 0.94745 0.28748 0.0
H1673 H 0.44901 0.90499 0.20825 0.0
H1674 H 0.4953 0.90684 0.32073 0.0
H1675 H 0.46313 0.89 0.32664 0.0
H1676 H 0.46656 0.92684 0.32756 0.0
H1677 H 0.48863 0.85354 0.22209 0.0
H1678 H 0.45766 0.85866 0.20206 0.0
H1679 H 0.45681 0.8384 0.23149 0.0
C1680 C 0.82465 0.65805 0.02953 0.0
C1681 C 0.83028 0.63033 0.02826 0.0
C1682 C 0.84147 0.67747 0.04576 0.0
C1683 C 0.8644 0.66889 0.06098 0.0
C1684 C 0.87117 0.64128 0.0584 0.0
C1685 C 0.85402 0.62232 0.04204 0.0
C1686 C 0.83381 0.70681 0.04783 0.0
C1687 C 0.89564 0.63142 0.07417 0.0
C1688 C 0.92026 0.71767 0.09548 0.0
C1689 C 0.91342 0.71774 0.12284 0.0
C1690 C 0.90374 0.70292 0.07475 0.0
C1691 C 0.8799 0.68795 0.0816 0.0
C1692 C 0.87205 0.68926 0.10889 0.0
C1693 C 0.88892 0.70417 0.12919 0.0
C1694 C 0.91259 0.70215 0.04582 0.0
C1695 C 0.8466 0.6737 0.11692 0.0
H1696 H 0.80647 0.66448 0.01876 0.0
H1697 H 0.85867 0.60099 0.04098 0.0
H1698 H 0.82624 0.71162 0.06829 0.0
H1699 H 0.85193 0.72092 0.04565 0.0
H1700 H 0.8176 0.71083 0.03209 0.0
H1701 H 0.89937 0.60987 0.06812 0.0
H1702 H 0.91427 0.64446 0.07098 0.0
H1703 H 0.89237 0.63298 0.09635 0.0
H1704 H 0.93907 0.72828 0.09034 0.0
H1705 H 0.88337 0.70431 0.15023 0.0
H1706 H 0.89521 0.70581 0.0313 0.0
H1707 H 0.9195 0.68159 0.04015 0.0
H1708 H 0.92961 0.71756 0.04328 0.0
H1709 H 0.82866 0.67834 0.10359 0.0
H1710 H 0.84224 0.67862 0.13853 0.0
H1711 H 0.84906 0.65142 0.11413 0.0
C1712 C 0.55752 0.26942 0.57445 0.0
C1713 C 0.55448 0.28488 0.59892 0.0
C1714 C 0.58125 0.2729 0.56008 0.0
C1715 C 0.60242 0.29213 0.5706 0.0
C1716 C 0.59887 0.30869 0.59456 0.0
C1717 C 0.57492 0.30492 0.60836 0.0
C1718 C 0.58415 0.25517 0.53438 0.0
C1719 C 0.62098 0.32948 0.60645 0.0
C1720 C 0.67711 0.2825 0.5619 0.0
C1721 C 0.6839 0.30354 0.54494 0.0
C1722 C 0.65014 0.27723 0.56883 0.0
C1723 C 0.62942 0.29332 0.55844 0.0
C1724 C 0.63569 0.31291 0.53937 0.0
C1725 C 0.66294 0.31784 0.53284 0.0
C1726 C 0.64429 0.25595 0.58904 0.0
C1727 C 0.61404 0.33012 0.52748 0.0
H1728 H 0.5417 0.25404 0.56687 0.0
H1729 H 0.57268 0.31711 0.62713 0.0
H1730 H 0.59196 0.26762 0.51806 0.0
H1731 H 0.59919 0.23973 0.53857 0.0
H1732 H 0.56445 0.24428 0.52672 0.0
H1733 H 0.61431 0.34191 0.62419 0.0
H1734 H 0.63928 0.31886 0.61323 0.0
H1735 H 0.62723 0.34345 0.59069 0.0
H1736 H 0.69312 0.27106 0.57102 0.0
H1737 H 0.66796 0.33401 0.51955 0.0
H1738 H 0.62619 0.24236 0.58167 0.0
H1739 H 0.63957 0.26623 0.60879 0.0
H1740 H 0.6619 0.24318 0.5928 0.0
H1741 H 0.59499 0.31741 0.52129 0.0
H1742 H 0.621 0.34067 0.50951 0.0
H1743 H 0.60898 0.34584 0.54323 0.0
C1744 C 0.21587 0.43045 0.1043 0.0
C1745 C 0.20963 0.44928 0.08482 0.0
C1746 C 0.2056 0.43266 0.13038 0.0
C1747 C 0.18876 0.4542 0.137 0.0
C1748 C 0.18435 0.47451 0.11823 0.0
C1749 C 0.19487 0.47182 0.09239 0.0
C1750 C 0.21111 0.41085 0.15001 0.0
C1751 C 0.16675 0.49798 0.12461 0.0
C1752 C 0.12997 0.44306 0.18238 0.0
C1753 C 0.13937 0.45856 0.20633 0.0
C1754 C 0.14639 0.44054 0.16011 0.0
C1755 C 0.1729 0.4538 0.16182 0.0
C1756 C 0.18304 0.46839 0.18638 0.0
C1757 C 0.16612 0.47064 0.20837 0.0
C1758 C 0.13486 0.42466 0.13429 0.0
C1759 C 0.21127 0.48259 0.18904 0.0
H1760 H 0.2274 0.41304 0.0987 0.0
H1761 H 0.19025 0.48668 0.07761 0.0
H1762 H 0.21622 0.42007 0.17099 0.0
H1763 H 0.19244 0.3971 0.15073 0.0
H1764 H 0.22807 0.39832 0.1438 0.0
H1765 H 0.1678 0.51357 0.10915 0.0
H1766 H 0.14516 0.49008 0.12517 0.0
H1767 H 0.17305 0.50804 0.145 0.0
H1768 H 0.10942 0.43349 0.18069 0.0
H1769 H 0.17362 0.48253 0.22687 0.0
H1770 H 0.14908 0.40915 0.1278 0.0
H1771 H 0.13259 0.43874 0.11755 0.0
H1772 H 0.11461 0.41414 0.13686 0.0
H1773 H 0.2266 0.46862 0.18175 0.0
H1774 H 0.21738 0.49006 0.21045 0.0
H1775 H 0.2118 0.50033 0.17607 0.0
C1776 C 0.32809 0.48426 0.83494 0.0
C1777 C 0.30648 0.49049 0.81689 0.0
C1778 C 0.32304 0.47457 0.8606 0.0
C1779 C 0.29573 0.47029 0.86789 0.0
C1780 C 0.27387 0.4745 0.84876 0.0
C1781 C 0.27952 0.48507 0.82367 0.0
C1782 C 0.34689 0.47095 0.8806 0.0
C1783 C 0.24445 0.46925 0.85536 0.0
C1784 C 0.27641 0.43117 0.92895 0.0
C1785 C 0.26906 0.45243 0.94683 0.0
C1786 C 0.28635 0.43664 0.90349 0.0
C1787 C 0.28972 0.46405 0.89624 0.0
C1788 C 0.28451 0.48565 0.91528 0.0
C1789 C 0.27374 0.47955 0.94017 0.0
C1790 C 0.29107 0.41304 0.88358 0.0
C1791 C 0.28878 0.51519 0.90873 0.0
H1792 H 0.34898 0.48883 0.82982 0.0
H1793 H 0.26284 0.48984 0.80964 0.0
H1794 H 0.34792 0.48758 0.89701 0.0
H1795 H 0.34424 0.45132 0.89048 0.0
H1796 H 0.36664 0.47156 0.87066 0.0
H1797 H 0.2301 0.47012 0.83712 0.0
H1798 H 0.2414 0.44891 0.86382 0.0
H1799 H 0.23914 0.48481 0.87114 0.0
H1800 H 0.27247 0.41015 0.93395 0.0
H1801 H 0.26811 0.49597 0.95406 0.0
H1802 H 0.31068 0.41649 0.87386 0.0
H1803 H 0.27453 0.41134 0.86705 0.0
H1804 H 0.2912 0.39333 0.89356 0.0
H1805 H 0.30904 0.51896 0.90032 0.0
H1806 H 0.28742 0.5294 0.92699 0.0
H1807 H 0.27301 0.52001 0.89293 0.0
C1808 C 0.29906 0.61499 0.57246 0.0
C1809 C 0.28142 0.60391 0.5506 0.0
C1810 C 0.30414 0.60032 0.59564 0.0
C1811 C 0.29146 0.57379 0.59691 0.0
C1812 C 0.27485 0.56187 0.57429 0.0
C1813 C 0.26989 0.57714 0.55143 0.0
C1814 C 0.32199 0.6138 0.61936 0.0
C1815 C 0.26135 0.53348 0.57472 0.0
C1816 C 0.32024 0.53587 0.6561 0.0
C1817 C 0.30277 0.54325 0.67652 0.0
C1818 C 0.31581 0.54406 0.62935 0.0
C1819 C 0.29349 0.56003 0.62303 0.0
C1820 C 0.27464 0.56566 0.643 0.0
C1821 C 0.27947 0.55713 0.66945 0.0
C1822 C 0.33605 0.53723 0.60843 0.0
C1823 C 0.25045 0.58248 0.63707 0.0
H1824 H 0.30819 0.63559 0.57194 0.0
H1825 H 0.25644 0.56831 0.53449 0.0
H1826 H 0.30949 0.61727 0.63719 0.0
H1827 H 0.33825 0.60028 0.62556 0.0
H1828 H 0.33175 0.63374 0.61444 0.0
H1829 H 0.25237 0.52571 0.55424 0.0
H1830 H 0.27626 0.51903 0.58206 0.0
H1831 H 0.24479 0.5337 0.58912 0.0
H1832 H 0.33821 0.525 0.66132 0.0
H1833 H 0.26563 0.5626 0.68498 0.0
H1834 H 0.34928 0.55576 0.60536 0.0
H1835 H 0.32534 0.5305 0.58843 0.0
H1836 H 0.34932 0.52095 0.61496 0.0
H1837 H 0.2578 0.60383 0.63402 0.0
H1838 H 0.23636 0.58281 0.65394 0.0
H1839 H 0.23881 0.57438 0.61798 0.0
C1840 C 0.17043 0.53119 0.34239 0.0
C1841 C 0.14344 0.53018 0.35042 0.0
C1842 C 0.19106 0.54777 0.35727 0.0
C1843 C 0.18445 0.56364 0.38063 0.0
C1844 C 0.15771 0.56127 0.38986 0.0
C1845 C 0.13752 0.54453 0.37466 0.0
C1846 C 0.21945 0.54955 0.34703 0.0
C1847 C 0.14994 0.57776 0.41486 0.0
C1848 C 0.23644 0.60064 0.43192 0.0
C1849 C 0.23508 0.62769 0.4244 0.0
C1850 C 0.22127 0.57913 0.41688 0.0
C1851 C 0.20442 0.58489 0.39387 0.0
C1852 C 0.20447 0.61182 0.38508 0.0
C1853 C 0.21985 0.63291 0.40044 0.0
C1854 C 0.22197 0.55058 0.42663 0.0
C1855 C 0.18688 0.61872 0.36046 0.0
H1856 H 0.17525 0.52001 0.32378 0.0
H1857 H 0.1168 0.54366 0.38116 0.0
H1858 H 0.2232 0.5695 0.33801 0.0
H1859 H 0.23508 0.54843 0.36412 0.0
H1860 H 0.22228 0.53302 0.33121 0.0
H1861 H 0.12899 0.5718 0.42063 0.0
H1862 H 0.16456 0.57519 0.43247 0.0
H1863 H 0.15094 0.59979 0.41085 0.0
H1864 H 0.24837 0.59637 0.45028 0.0
H1865 H 0.2189 0.6537 0.39432 0.0
H1866 H 0.22402 0.5355 0.40927 0.0
H1867 H 0.20247 0.54506 0.43586 0.0
H1868 H 0.23903 0.54879 0.44218 0.0
H1869 H 0.19022 0.60472 0.34258 0.0
H1870 H 0.19112 0.6401 0.35493 0.0
H1871 H 0.165 0.61596 0.36478 0.0
loop_
_geom_bond_atom_site_label_1
_geom_bond_atom_site_label_2
_geom_bond_distance
_geom_bond_site_symmetry_2
_ccdc_geom_bond_type
Zn0 O3 2.031 . S
Zn0 O5 2.049 1_655 S
Zn0 O10 2.067 . S
Zn1 O2 1.962 1_455 S
Zn1 O4 1.986 . S
Zn1 O6 1.996 . S
Zn1 O9 1.943 1_455 S
O2 Zn1 1.962 1_655 S
O2 C7 1.254 . S
O3 Zn0 2.031 . S
O3 C7 1.269 . S
O4 Zn1 1.986 . S
O4 C11 1.262 . S
O5 Zn0 2.049 1_455 S
O5 C13 1.260 . S
O6 Zn1 1.996 . S
O6 C13 1.257 . S
C7 O2 1.254 . S
C7 O3 1.269 . S
C8 O9 1.249 . S
C8 O10 1.270 . S
O9 Zn1 1.943 1_655 S
O9 C8 1.249 . S
O10 Zn0 2.067 . S
O10 C8 1.270 . S
C11 O4 1.262 . S
C11 O12 1.237 . S
O12 C11 1.237 . S
C13 O5 1.260 . S
C13 O6 1.257 . S
Zn14 O17 2.031 1_455 S
Zn14 O19 2.049 . S
Zn14 O24 2.067 . S
Zn15 O16 1.962 1_455 S
Zn15 O18 1.986 . S
Zn15 O20 1.996 . S
Zn15 O23 1.943 . S
O16 Zn15 1.962 1_655 S
O16 C21 1.254 . S
O17 Zn14 2.031 1_655 S
O17 C21 1.269 . S
O18 Zn15 1.986 . S
O18 C25 1.262 1_455 S
O19 Zn14 2.049 . S
O19 C27 1.260 . S
O20 Zn15 1.996 . S
O20 C27 1.257 . S
C21 O16 1.254 . S
C21 O17 1.269 . S
C22 O23 1.249 . S
C22 O24 1.270 . S
O23 Zn15 1.943 . S
O23 C22 1.249 . S
O24 Zn14 2.067 . S
O24 C22 1.270 . S
C25 O18 1.262 1_655 S
C25 O26 1.232 . S
O26 C25 1.232 . S
C27 O19 1.260 . S
C27 O20 1.257 . S
Zn28 O31 2.031 . S
Zn28 O33 2.049 . S
Zn28 O38 2.067 . S
Zn29 O30 1.962 . S
Zn29 O32 1.986 . S
Zn29 O34 1.996 . S
Zn29 O37 1.943 . S
O30 Zn29 1.962 . S
O30 C35 1.254 . S
O31 Zn28 2.031 . S
O31 C35 1.269 . S
O32 Zn29 1.986 . S
O32 C39 1.262 . S
O33 Zn28 2.049 . S
O33 C41 1.260 . S
O34 Zn29 1.996 . S
O34 C41 1.257 . S
C35 O30 1.254 . S
C35 O31 1.269 . S
C36 O37 1.249 . S
C36 O38 1.270 . S
O37 Zn29 1.943 . S
O37 C36 1.249 . S
O38 Zn28 2.067 . S
O38 C36 1.270 . S
C39 O32 1.262 . S
C39 O40 1.232 . S
O40 C39 1.232 . S
C41 O33 1.260 . S
C41 O34 1.257 . S
Zn42 O45 2.031 . S
Zn42 O47 2.049 . S
Zn42 O52 2.067 . S
Zn43 O44 1.962 . S
Zn43 O46 1.986 . S
Zn43 O48 1.996 . S
Zn43 O51 1.943 . S
O44 Zn43 1.962 . S
O44 C49 1.254 . S
O45 Zn42 2.031 . S
O45 C49 1.269 . S
O46 Zn43 1.986 . S
O46 C53 1.262 . S
O47 Zn42 2.049 . S
O47 C55 1.260 . S
O48 Zn43 1.996 . S
O48 C55 1.257 . S
C49 O44 1.254 . S
C49 O45 1.269 . S
C50 O51 1.249 . S
C50 O52 1.270 . S
O51 Zn43 1.943 . S
O51 C50 1.249 . S
O52 Zn42 2.067 . S
O52 C50 1.270 . S
C53 O46 1.262 . S
C53 O54 1.232 . S
O54 C53 1.232 . S
C55 O47 1.260 . S
C55 O48 1.257 . S
Zn56 O59 2.031 . S
Zn56 O61 2.049 . S
Zn56 O66 2.067 . S
Zn57 O58 1.962 . S
Zn57 O60 1.986 . S
Zn57 O62 1.996 . S
Zn57 O65 1.943 1_455 S
O58 Zn57 1.962 . S
O58 C63 1.254 1_455 S
O59 Zn56 2.031 . S
O59 C63 1.269 . S
O60 Zn57 1.986 . S
O60 C67 1.262 . S
O61 Zn56 2.049 . S
O61 C69 1.260 1_655 S
O62 Zn57 1.996 . S
O62 C69 1.257 . S
C63 O58 1.254 1_655 S
C63 O59 1.269 . S
C64 O65 1.249 . S
C64 O66 1.270 . S
O65 Zn57 1.943 1_655 S
O65 C64 1.249 . S
O66 Zn56 2.067 . S
O66 C64 1.270 . S
C67 O60 1.262 . S
C67 O68 1.232 . S
O68 C67 1.232 . S
C69 O61 1.260 1_455 S
C69 O62 1.257 . S
Zn70 O73 2.031 . S
Zn70 O75 2.049 . S
Zn70 O80 2.067 . S
Zn71 O72 1.962 . S
Zn71 O74 1.986 . S
Zn71 O76 1.996 . S
Zn71 O79 1.943 . S
O72 Zn71 1.962 . S
O72 C77 1.254 . S
O73 Zn70 2.031 . S
O73 C77 1.269 . S
O74 Zn71 1.986 . S
O74 C81 1.262 . S
O75 Zn70 2.049 . S
O75 C83 1.260 . S
O76 Zn71 1.996 . S
O76 C83 1.257 . S
C77 O72 1.254 . S
C77 O73 1.269 . S
C78 O79 1.249 . S
C78 O80 1.270 . S
O79 Zn71 1.943 . S
O79 C78 1.249 . S
O80 Zn70 2.067 . S
O80 C78 1.270 . S
C81 O74 1.262 . S
C81 O82 1.232 . S
O82 C81 1.232 . S
C83 O75 1.260 . S
C83 O76 1.257 . S
Zn84 O87 2.031 . S
Zn84 O89 2.049 . S
Zn84 O94 2.067 . S
Zn85 O86 1.962 . S
Zn85 O88 1.986 . S
Zn85 O90 1.996 . S
Zn85 O93 1.943 . S
O86 Zn85 1.962 . S
O86 C91 1.254 . S
O87 Zn84 2.031 . S
O87 C91 1.269 . S
O88 Zn85 1.986 . S
O88 C95 1.262 . S
O89 Zn84 2.049 . S
O89 C97 1.260 . S
O90 Zn85 1.996 . S
O90 C97 1.257 . S
C91 O86 1.254 . S
C91 O87 1.269 . S
C92 O93 1.249 . S
C92 O94 1.270 . S
O93 Zn85 1.943 . S
O93 C92 1.249 . S
O94 Zn84 2.067 . S
O94 C92 1.270 . S
C95 O88 1.262 . S
C95 O96 1.232 . S
O96 C95 1.232 . S
C97 O89 1.260 . S
C97 O90 1.257 . S
Zn98 O101 2.031 . S
Zn98 O103 2.049 . S
Zn98 O108 2.067 . S
Zn99 O100 1.962 . S
Zn99 O102 1.986 . S
Zn99 O104 1.996 1_655 S
Zn99 O107 1.943 1_655 S
O100 Zn99 1.962 . S
O100 C105 1.254 . S
O101 Zn98 2.031 . S
O101 C105 1.269 1_455 S
O102 Zn99 1.986 . S
O102 C109 1.262 . S
O103 Zn98 2.049 . S
O103 C111 1.260 . S
O104 Zn99 1.996 1_455 S
O104 C111 1.257 . S
C105 O100 1.254 . S
C105 O101 1.269 1_655 S
C106 O107 1.249 . S
C106 O108 1.270 . S
O107 Zn99 1.943 1_455 S
O107 C106 1.249 . S
O108 Zn98 2.067 . S
O108 C106 1.270 . S
C109 O102 1.262 . S
C109 O110 1.232 . S
O110 C109 1.232 . S
C111 O103 1.260 . S
C111 O104 1.257 . S
Zn112 O115 2.031 . S
Zn112 O117 2.049 1_565 S
Zn112 O122 2.067 . S
Zn113 O114 1.962 1_545 S
Zn113 O116 1.986 . S
Zn113 O118 1.996 . S
Zn113 O121 1.943 1_545 S
O114 Zn113 1.962 1_565 S
O114 C119 1.254 . S
O115 Zn112 2.031 . S
O115 C119 1.269 . S
O116 Zn113 1.986 . S
O116 C123 1.262 . S
O117 Zn112 2.049 1_545 S
O117 C125 1.260 . S
O118 Zn113 1.996 . S
O118 C125 1.257 . S
C119 O114 1.254 . S
C119 O115 1.269 . S
C120 O121 1.249 . S
C120 O122 1.270 . S
O121 Zn113 1.943 1_565 S
O121 C120 1.249 . S
O122 Zn112 2.067 . S
O122 C120 1.270 . S
C123 O116 1.262 . S
C123 O124 1.237 . S
O124 C123 1.237 . S
C125 O117 1.260 . S
C125 O118 1.257 . S
Zn126 O129 2.031 . S
Zn126 O131 2.049 . S
Zn126 O136 2.067 . S
Zn127 O128 1.962 . S
Zn127 O130 1.986 . S
Zn127 O132 1.996 . S
Zn127 O135 1.943 . S
O128 Zn127 1.962 . S
O128 C133 1.254 . S
O129 Zn126 2.031 . S
O129 C133 1.269 . S
O130 Zn127 1.986 . S
O130 C137 1.262 . S
O131 Zn126 2.049 . S
O131 C139 1.260 . S
O132 Zn127 1.996 . S
O132 C139 1.257 . S
C133 O128 1.254 . S
C133 O129 1.269 . S
C134 O135 1.249 . S
C134 O136 1.270 . S
O135 Zn127 1.943 . S
O135 C134 1.249 . S
O136 Zn126 2.067 . S
O136 C134 1.270 . S
C137 O130 1.262 . S
C137 O138 1.232 . S
O138 C137 1.232 . S
C139 O131 1.260 . S
C139 O132 1.257 . S
Zn140 O143 2.031 . S
Zn140 O145 2.049 . S
Zn140 O150 2.067 . S
Zn141 O142 1.962 . S
Zn141 O144 1.986 . S
Zn141 O146 1.996 . S
Zn141 O149 1.943 1_545 S
O142 Zn141 1.962 . S
O142 C147 1.254 1_545 S
O143 Zn140 2.031 . S
O143 C147 1.269 . S
O144 Zn141 1.986 . S
O144 C151 1.262 . S
O145 Zn140 2.049 . S
O145 C153 1.260 1_565 S
O146 Zn141 1.996 . S
O146 C153 1.257 . S
C147 O142 1.254 1_565 S
C147 O143 1.269 . S
C148 O149 1.249 . S
C148 O150 1.270 . S
O149 Zn141 1.943 1_565 S
O149 C148 1.249 . S
O150 Zn140 2.067 . S
O150 C148 1.270 . S
C151 O144 1.262 . S
C151 O152 1.232 . S
O152 C151 1.232 . S
C153 O145 1.260 1_545 S
C153 O146 1.257 . S
Zn154 O157 2.031 . S
Zn154 O159 2.049 . S
Zn154 O164 2.067 . S
Zn155 O156 1.962 . S
Zn155 O158 1.986 . S
Zn155 O160 1.996 1_556 S
Zn155 O163 1.943 1_556 S
O156 Zn155 1.962 . S
O156 C161 1.254 . S
O157 Zn154 2.031 . S
O157 C161 1.269 1_554 S
O158 Zn155 1.986 . S
O158 C165 1.262 . S
O159 Zn154 2.049 . S
O159 C167 1.260 . S
O160 Zn155 1.996 1_554 S
O160 C167 1.257 . S
C161 O156 1.254 . S
C161 O157 1.269 1_556 S
C162 O163 1.249 . S
C162 O164 1.270 . S
O163 Zn155 1.943 1_554 S
O163 C162 1.249 . S
O164 Zn154 2.067 . S
O164 C162 1.270 . S
C165 O158 1.262 . S
C165 O166 1.232 . S
O166 C165 1.232 . S
C167 O159 1.260 . S
C167 O160 1.257 . S
Zn168 O171 2.031 . S
Zn168 O173 2.049 1_556 S
Zn168 O178 2.067 . S
Zn169 O170 1.962 1_554 S
Zn169 O172 1.986 . S
Zn169 O174 1.996 . S
Zn169 O177 1.943 1_554 S
O170 Zn169 1.962 1_556 S
O170 C175 1.254 . S
O171 Zn168 2.031 . S
O171 C175 1.269 . S
O172 Zn169 1.986 . S
O172 C179 1.262 . S
O173 Zn168 2.049 1_554 S
O173 C181 1.260 . S
O174 Zn169 1.996 . S
O174 C181 1.257 . S
C175 O170 1.254 . S
C175 O171 1.269 . S
C176 O177 1.249 . S
C176 O178 1.270 . S
O177 Zn169 1.943 1_556 S
O177 C176 1.249 . S
O178 Zn168 2.067 . S
O178 C176 1.270 . S
C179 O172 1.262 . S
C179 O180 1.237 . S
O180 C179 1.237 . S
C181 O173 1.260 . S
C181 O174 1.257 . S
Zn182 O185 2.031 . S
Zn182 O187 2.049 . S
Zn182 O192 2.067 . S
Zn183 O184 1.962 . S
Zn183 O186 1.986 . S
Zn183 O188 1.996 . S
Zn183 O191 1.943 1_554 S
O184 Zn183 1.962 . S
O184 C189 1.254 1_554 S
O185 Zn182 2.031 . S
O185 C189 1.269 . S
O186 Zn183 1.986 . S
O186 C193 1.262 . S
O187 Zn182 2.049 . S
O187 C195 1.260 1_556 S
O188 Zn183 1.996 . S
O188 C195 1.257 . S
C189 O184 1.254 1_556 S
C189 O185 1.269 . S
C190 O191 1.249 . S
C190 O192 1.270 . S
O191 Zn183 1.943 1_556 S
O191 C190 1.249 . S
O192 Zn182 2.067 . S
O192 C190 1.270 . S
C193 O186 1.262 . S
C193 O194 1.232 . S
O194 C193 1.232 . S
C195 O187 1.260 1_554 S
C195 O188 1.257 . S
Zn196 O199 2.031 . S
Zn196 O201 2.049 . S
Zn196 O206 2.067 . S
Zn197 O198 1.962 . S
Zn197 O200 1.986 . S
Zn197 O202 1.996 . S
Zn197 O205 1.943 . S
O198 Zn197 1.962 . S
O198 C203 1.254 . S
O199 Zn196 2.031 . S
O199 C203 1.269 . S
O200 Zn197 1.986 . S
O200 C207 1.262 . S
O201 Zn196 2.049 . S
O201 C209 1.260 . S
O202 Zn197 1.996 . S
O202 C209 1.257 . S
C203 O198 1.254 . S
C203 O199 1.269 . S
C204 O205 1.249 . S
C204 O206 1.270 . S
O205 Zn197 1.943 . S
O205 C204 1.249 . S
O206 Zn196 2.067 . S
O206 C204 1.270 . S
C207 O200 1.262 . S
C207 O208 1.232 . S
O208 C207 1.232 . S
C209 O201 1.260 . S
C209 O202 1.257 . S
Zn210 O213 2.031 . S
Zn210 O215 2.049 . S
Zn210 O220 2.067 . S
Zn211 O212 1.962 . S
Zn211 O214 1.986 . S
Zn211 O216 1.996 . S
Zn211 O219 1.943 . S
O212 Zn211 1.962 . S
O212 C217 1.254 . S
O213 Zn210 2.031 . S
O213 C217 1.269 . S
O214 Zn211 1.986 . S
O214 C221 1.262 . S
O215 Zn210 2.049 . S
O215 C223 1.260 . S
O216 Zn211 1.996 . S
O216 C223 1.257 . S
C217 O212 1.254 . S
C217 O213 1.269 . S
C218 O219 1.249 . S
C218 O220 1.270 . S
O219 Zn211 1.943 . S
O219 C218 1.249 . S
O220 Zn210 2.067 . S
O220 C218 1.270 . S
C221 O214 1.262 . S
C221 O222 1.232 . S
O222 C221 1.232 . S
C223 O215 1.260 . S
C223 O216 1.257 . S
Zn224 O227 2.031 . S
Zn224 O229 2.049 . S
Zn224 O234 2.067 . S
Zn225 O226 1.962 . S
Zn225 O228 1.986 . S
Zn225 O230 1.996 1_565 S
Zn225 O233 1.943 1_565 S
O226 Zn225 1.962 . S
O226 C231 1.254 . S
O227 Zn224 2.031 . S
O227 C231 1.269 1_545 S
O228 Zn225 1.986 . S
O228 C235 1.262 . S
O229 Zn224 2.049 . S
O229 C237 1.260 . S
O230 Zn225 1.996 1_545 S
O230 C237 1.257 . S
C231 O226 1.254 . S
C231 O227 1.269 1_565 S
C232 O233 1.249 . S
C232 O234 1.270 . S
O233 Zn225 1.943 1_545 S
O233 C232 1.249 . S
O234 Zn224 2.067 . S
O234 C232 1.270 . S
C235 O228 1.262 . S
C235 O236 1.232 . S
O236 C235 1.232 . S
C237 O229 1.260 . S
C237 O230 1.257 . S
Zn238 O241 2.031 . S
Zn238 O243 2.049 . S
Zn238 O248 2.067 . S
Zn239 O240 1.962 . S
Zn239 O242 1.986 . S
Zn239 O244 1.996 . S
Zn239 O247 1.943 . S
O240 Zn239 1.962 . S
O240 C245 1.254 . S
O241 Zn238 2.031 . S
O241 C245 1.269 . S
O242 Zn239 1.986 . S
O242 C249 1.262 . S
O243 Zn238 2.049 . S
O243 C251 1.260 . S
O244 Zn239 1.996 . S
O244 C251 1.257 . S
C245 O240 1.254 . S
C245 O241 1.269 . S
C246 O247 1.249 . S
C246 O248 1.270 . S
O247 Zn239 1.943 . S
O247 C246 1.249 . S
O248 Zn238 2.067 . S
O248 C246 1.270 . S
C249 O242 1.262 . S
C249 O250 1.232 . S
O250 C249 1.232 . S
C251 O243 1.260 . S
C251 O244 1.257 . S
Zn252 O255 2.031 . S
Zn252 O257 2.049 . S
Zn252 O262 2.067 . S
Zn253 O254 1.962 . S
Zn253 O256 1.986 . S
Zn253 O258 1.996 . S
Zn253 O261 1.943 . S
O254 Zn253 1.962 . S
O254 C259 1.254 . S
O255 Zn252 2.031 . S
O255 C259 1.269 . S
O256 Zn253 1.986 . S
O256 C263 1.262 . S
O257 Zn252 2.049 . S
O257 C265 1.260 . S
O258 Zn253 1.996 . S
O258 C265 1.257 . S
C259 O254 1.254 . S
C259 O255 1.269 . S
C260 O261 1.249 . S
C260 O262 1.270 . S
O261 Zn253 1.943 . S
O261 C260 1.249 . S
O262 Zn252 2.067 . S
O262 C260 1.270 . S
C263 O256 1.262 . S
C263 O264 1.232 . S
O264 C263 1.232 . S
C265 O257 1.260 . S
C265 O258 1.257 . S
Zn266 O269 2.031 1_545 S
Zn266 O271 2.049 . S
Zn266 O276 2.067 . S
Zn267 O268 1.962 1_545 S
Zn267 O270 1.986 . S
Zn267 O272 1.996 . S
Zn267 O275 1.943 . S
O268 Zn267 1.962 1_565 S
O268 C273 1.254 . S
O269 Zn266 2.031 1_565 S
O269 C273 1.269 . S
O270 Zn267 1.986 . S
O270 C277 1.262 1_545 S
O271 Zn266 2.049 . S
O271 C279 1.260 . S
O272 Zn267 1.996 . S
O272 C279 1.257 . S
C273 O268 1.254 . S
C273 O269 1.269 . S
C274 O275 1.249 . S
C274 O276 1.270 . S
O275 Zn267 1.943 . S
O275 C274 1.249 . S
O276 Zn266 2.067 . S
O276 C274 1.270 . S
C277 O270 1.262 1_565 S
C277 O278 1.232 . S
O278 C277 1.232 . S
C279 O271 1.260 . S
C279 O272 1.257 . S
Zn280 O283 2.031 1_554 S
Zn280 O285 2.049 . S
Zn280 O290 2.067 . S
Zn281 O282 1.962 1_554 S
Zn281 O284 1.986 . S
Zn281 O286 1.996 . S
Zn281 O289 1.943 . S
O282 Zn281 1.962 1_556 S
O282 C287 1.254 . S
O283 Zn280 2.031 1_556 S
O283 C287 1.269 . S
O284 Zn281 1.986 . S
O284 C291 1.262 1_554 S
O285 Zn280 2.049 . S
O285 C293 1.260 . S
O286 Zn281 1.996 . S
O286 C293 1.257 . S
C287 O282 1.254 . S
C287 O283 1.269 . S
C288 O289 1.249 . S
C288 O290 1.270 . S
O289 Zn281 1.943 . S
O289 C288 1.249 . S
O290 Zn280 2.067 . S
O290 C288 1.270 . S
C291 O284 1.262 1_556 S
C291 O292 1.232 . S
O292 C291 1.232 . S
C293 O285 1.260 . S
C293 O286 1.257 . S
Zn294 O297 2.031 . S
Zn294 O299 2.049 . S
Zn294 O304 2.067 . S
Zn295 O296 1.962 . S
Zn295 O298 1.986 . S
Zn295 O300 1.996 . S
Zn295 O303 1.943 . S
O296 Zn295 1.962 . S
O296 C301 1.254 . S
O297 Zn294 2.031 . S
O297 C301 1.269 . S
O298 Zn295 1.986 . S
O298 C305 1.262 . S
O299 Zn294 2.049 . S
O299 C307 1.260 . S
O300 Zn295 1.996 . S
O300 C307 1.257 . S
C301 O296 1.254 . S
C301 O297 1.269 . S
C302 O303 1.249 . S
C302 O304 1.270 . S
O303 Zn295 1.943 . S
O303 C302 1.249 . S
O304 Zn294 2.067 . S
O304 C302 1.270 . S
C305 O298 1.262 . S
C305 O306 1.232 . S
O306 C305 1.232 . S
C307 O299 1.260 . S
C307 O300 1.257 . S
Zn308 O311 2.031 . S
Zn308 O313 2.049 . S
Zn308 O318 2.067 . S
Zn309 O310 1.962 . S
Zn309 O312 1.986 . S
Zn309 O314 1.996 . S
Zn309 O317 1.943 . S
O310 Zn309 1.962 . S
O310 C315 1.254 . S
O311 Zn308 2.031 . S
O311 C315 1.269 . S
O312 Zn309 1.986 . S
O312 C319 1.262 . S
O313 Zn308 2.049 . S
O313 C321 1.260 . S
O314 Zn309 1.996 . S
O314 C321 1.257 . S
C315 O310 1.254 . S
C315 O311 1.269 . S
C316 O317 1.249 . S
C316 O318 1.270 . S
O317 Zn309 1.943 . S
O317 C316 1.249 . S
O318 Zn308 2.067 . S
O318 C316 1.270 . S
C319 O312 1.262 . S
C319 O320 1.232 . S
O320 C319 1.232 . S
C321 O313 1.260 . S
C321 O314 1.257 . S
Zn322 O325 2.031 . S
Zn322 O327 2.049 . S
Zn322 O332 2.067 . S
Zn323 O324 1.962 . S
Zn323 O326 1.986 . S
Zn323 O328 1.996 . S
Zn323 O331 1.943 . S
O324 Zn323 1.962 . S
O324 C329 1.254 . S
O325 Zn322 2.031 . S
O325 C329 1.269 . S
O326 Zn323 1.986 . S
O326 C333 1.262 . S
O327 Zn322 2.049 . S
O327 C335 1.260 . S
O328 Zn323 1.996 . S
O328 C335 1.257 . S
C329 O324 1.254 . S
C329 O325 1.269 . S
C330 O331 1.249 . S
C330 O332 1.270 . S
O331 Zn323 1.943 . S
O331 C330 1.249 . S
O332 Zn322 2.067 . S
O332 C330 1.270 . S
C333 O326 1.262 . S
C333 O334 1.232 . S
O334 C333 1.232 . S
C335 O327 1.260 . S
C335 O328 1.257 . S
C336 C337 1.391 . S
C336 C338 1.394 . S
C336 H352 0.931 . S
C337 C336 1.391 . S
C337 C341 1.376 . S
C338 C336 1.394 . S
C338 C339 1.369 . S
C338 C342 1.531 . S
C339 C338 1.369 . S
C339 C340 1.410 . S
C339 C347 1.503 . S
C340 C339 1.410 . S
C340 C341 1.392 . S
C340 C343 1.511 . S
C341 C337 1.376 . S
C341 C340 1.392 . S
C341 H353 0.929 . S
C342 C338 1.531 . S
C342 H354 0.960 . S
C342 H355 0.962 . S
C342 H356 0.960 . S
C343 C340 1.511 . S
C343 H357 0.961 . S
C343 H358 0.961 . S
C343 H359 0.961 . S
C344 C345 1.370 . S
C344 C346 1.363 . S
C344 H360 0.931 . S
C345 C344 1.370 . S
C345 C349 1.408 . S
C346 C344 1.363 . S
C346 C347 1.370 . S
C346 C350 1.524 . S
C347 C339 1.503 . S
C347 C346 1.370 . S
C347 C348 1.403 . S
C348 C347 1.403 . S
C348 C349 1.404 . S
C348 C351 1.539 . S
C349 C345 1.408 . S
C349 C348 1.404 . S
C349 H361 0.930 . S
C350 C346 1.524 . S
C350 H362 0.956 . S
C350 H363 0.961 . S
C350 H364 0.961 . S
C351 C348 1.539 . S
C351 H365 0.958 . S
C351 H366 0.961 . S
C351 H367 0.960 . S
H352 C336 0.931 . S
H353 C341 0.929 . S
H354 C342 0.960 . S
H355 C342 0.962 . S
H356 C342 0.960 . S
H357 C343 0.961 . S
H358 C343 0.961 . S
H359 C343 0.961 . S
H360 C344 0.931 . S
H361 C349 0.930 . S
H362 C350 0.956 . S
H363 C350 0.961 . S
H364 C350 0.961 . S
H365 C351 0.958 . S
H366 C351 0.961 . S
H367 C351 0.960 . S
C368 C369 1.391 . S
C368 C370 1.394 . S
C368 H384 0.931 . S
C369 C368 1.391 . S
C369 C373 1.376 . S
C370 C368 1.394 . S
C370 C371 1.369 . S
C370 C374 1.531 . S
C371 C370 1.369 . S
C371 C372 1.410 . S
C371 C379 1.503 . S
C372 C371 1.410 . S
C372 C373 1.392 . S
C372 C375 1.511 . S
C373 C369 1.376 . S
C373 C372 1.392 . S
C373 H385 0.929 . S
C374 C370 1.531 . S
C374 H386 0.960 . S
C374 H387 0.962 . S
C374 H388 0.960 . S
C375 C372 1.511 . S
C375 H389 0.961 . S
C375 H390 0.961 . S
C375 H391 0.961 . S
C376 C377 1.370 . S
C376 C378 1.363 . S
C376 H392 0.931 . S
C377 C376 1.370 . S
C377 C381 1.408 . S
C378 C376 1.363 . S
C378 C379 1.370 . S
C378 C382 1.524 . S
C379 C371 1.503 . S
C379 C378 1.370 . S
C379 C380 1.403 . S
C380 C379 1.403 . S
C380 C381 1.404 . S
C380 C383 1.539 . S
C381 C377 1.408 . S
C381 C380 1.404 . S
C381 H393 0.930 . S
C382 C378 1.524 . S
C382 H394 0.956 . S
C382 H395 0.961 . S
C382 H396 0.961 . S
C383 C380 1.539 . S
C383 H397 0.958 . S
C383 H398 0.961 . S
C383 H399 0.960 . S
H384 C368 0.931 . S
H385 C373 0.929 . S
H386 C374 0.960 . S
H387 C374 0.962 . S
H388 C374 0.960 . S
H389 C375 0.961 . S
H390 C375 0.961 . S
H391 C375 0.961 . S
H392 C376 0.931 . S
H393 C381 0.930 . S
H394 C382 0.956 . S
H395 C382 0.961 . S
H396 C382 0.961 . S
H397 C383 0.958 . S
H398 C383 0.961 . S
H399 C383 0.960 . S
C400 C401 1.391 . S
C400 C402 1.394 . S
C400 H416 0.931 . S
C401 C400 1.391 . S
C401 C405 1.376 . S
C402 C400 1.394 . S
C402 C403 1.369 . S
C402 C406 1.531 . S
C403 C402 1.369 . S
C403 C404 1.410 . S
C403 C411 1.503 . S
C404 C403 1.410 . S
C404 C405 1.392 . S
C404 C407 1.511 . S
C405 C401 1.376 . S
C405 C404 1.392 . S
C405 H417 0.929 . S
C406 C402 1.531 . S
C406 H418 0.960 . S
C406 H419 0.962 . S
C406 H420 0.960 . S
C407 C404 1.511 . S
C407 H421 0.961 . S
C407 H422 0.961 . S
C407 H423 0.961 . S
C408 C409 1.370 . S
C408 C410 1.363 . S
C408 H424 0.931 . S
C409 C408 1.370 . S
C409 C413 1.408 . S
C410 C408 1.363 . S
C410 C411 1.370 . S
C410 C414 1.524 . S
C411 C403 1.503 . S
C411 C410 1.370 . S
C411 C412 1.403 . S
C412 C411 1.403 . S
C412 C413 1.404 . S
C412 C415 1.539 . S
C413 C409 1.408 . S
C413 C412 1.404 . S
C413 H425 0.930 . S
C414 C410 1.524 . S
C414 H426 0.956 . S
C414 H427 0.961 . S
C414 H428 0.961 . S
C415 C412 1.539 . S
C415 H429 0.958 . S
C415 H430 0.961 . S
C415 H431 0.960 . S
H416 C400 0.931 . S
H417 C405 0.929 . S
H418 C406 0.960 . S
H419 C406 0.962 . S
H420 C406 0.960 . S
H421 C407 0.961 . S
H422 C407 0.961 . S
H423 C407 0.961 . S
H424 C408 0.931 . S
H425 C413 0.930 . S
H426 C414 0.956 . S
H427 C414 0.961 . S
H428 C414 0.961 . S
H429 C415 0.958 . S
H430 C415 0.961 . S
H431 C415 0.960 . S
C432 C433 1.391 . S
C432 C434 1.394 . S
C432 H448 0.931 . S
C433 C432 1.391 . S
C433 C437 1.376 . S
C434 C432 1.394 . S
C434 C435 1.369 . S
C434 C438 1.531 . S
C435 C434 1.369 . S
C435 C436 1.410 . S
C435 C443 1.503 . S
C436 C435 1.410 . S
C436 C437 1.392 . S
C436 C439 1.511 . S
C437 C433 1.376 . S
C437 C436 1.392 . S
C437 H449 0.929 . S
C438 C434 1.531 . S
C438 H450 0.960 . S
C438 H451 0.962 . S
C438 H452 0.960 . S
C439 C436 1.511 . S
C439 H453 0.961 . S
C439 H454 0.961 . S
C439 H455 0.961 . S
C440 C441 1.370 . S
C440 C442 1.363 . S
C440 H456 0.931 . S
C441 C440 1.370 . S
C441 C445 1.408 . S
C442 C440 1.363 . S
C442 C443 1.370 . S
C442 C446 1.524 . S
C443 C435 1.503 . S
C443 C442 1.370 . S
C443 C444 1.403 . S
C444 C443 1.403 . S
C444 C445 1.404 . S
C444 C447 1.539 . S
C445 C441 1.408 . S
C445 C444 1.404 . S
C445 H457 0.930 . S
C446 C442 1.524 . S
C446 H458 0.956 . S
C446 H459 0.961 . S
C446 H460 0.961 . S
C447 C444 1.539 . S
C447 H461 0.958 1_554 S
C447 H462 0.962 . S
C447 H463 0.960 . S
H448 C432 0.931 . S
H449 C437 0.929 . S
H450 C438 0.960 . S
H451 C438 0.962 . S
H452 C438 0.960 . S
H453 C439 0.961 . S
H454 C439 0.961 . S
H455 C439 0.961 . S
H456 C440 0.931 . S
H457 C445 0.930 . S
H458 C446 0.956 . S
H459 C446 0.961 . S
H460 C446 0.961 . S
H461 C447 0.958 1_556 S
H462 C447 0.962 . S
H463 C447 0.960 . S
C464 C465 1.391 . S
C464 C466 1.394 . S
C464 H480 0.931 . S
C465 C464 1.391 . S
C465 C469 1.376 . S
C466 C464 1.394 . S
C466 C467 1.369 . S
C466 C470 1.531 . S
C467 C466 1.369 . S
C467 C468 1.410 . S
C467 C475 1.503 . S
C468 C467 1.410 . S
C468 C469 1.392 . S
C468 C471 1.511 . S
C469 C465 1.376 . S
C469 C468 1.392 . S
C469 H481 0.929 . S
C470 C466 1.531 . S
C470 H482 0.960 . S
C470 H483 0.962 . S
C470 H484 0.960 . S
C471 C468 1.511 . S
C471 H485 0.961 . S
C471 H486 0.961 . S
C471 H487 0.961 . S
C472 C473 1.370 . S
C472 C474 1.363 . S
C472 H488 0.931 . S
C473 C472 1.370 . S
C473 C477 1.408 . S
C474 C472 1.363 . S
C474 C475 1.370 . S
C474 C478 1.524 . S
C475 C467 1.503 . S
C475 C474 1.370 . S
C475 C476 1.403 . S
C476 C475 1.403 . S
C476 C477 1.404 . S
C476 C479 1.539 . S
C477 C473 1.408 . S
C477 C476 1.404 . S
C477 H489 0.930 . S
C478 C474 1.524 . S
C478 H490 0.956 . S
C478 H491 0.961 . S
C478 H492 0.961 . S
C479 C476 1.539 . S
C479 H493 0.958 . S
C479 H494 0.961 . S
C479 H495 0.960 . S
H480 C464 0.931 . S
H481 C469 0.929 . S
H482 C470 0.960 . S
H483 C470 0.962 . S
H484 C470 0.960 . S
H485 C471 0.961 . S
H486 C471 0.961 . S
H487 C471 0.961 . S
H488 C472 0.931 . S
H489 C477 0.930 . S
H490 C478 0.956 . S
H491 C478 0.961 . S
H492 C478 0.961 . S
H493 C479 0.958 . S
H494 C479 0.961 . S
H495 C479 0.960 . S
C496 C497 1.391 . S
C496 C498 1.394 . S
C496 H512 0.931 . S
C497 C496 1.391 . S
C497 C501 1.376 . S
C498 C496 1.394 . S
C498 C499 1.369 . S
C498 C502 1.531 . S
C499 C498 1.369 . S
C499 C500 1.410 . S
C499 C507 1.503 . S
C500 C499 1.410 . S
C500 C501 1.392 . S
C500 C503 1.511 . S
C501 C497 1.376 . S
C501 C500 1.392 . S
C501 H513 0.929 . S
C502 C498 1.531 . S
C502 H514 0.960 . S
C502 H515 0.962 . S
C502 H516 0.960 . S
C503 C500 1.511 . S
C503 H517 0.961 . S
C503 H518 0.961 . S
C503 H519 0.961 . S
C504 C505 1.370 . S
C504 C506 1.363 . S
C504 H520 0.931 . S
C505 C504 1.370 . S
C505 C509 1.408 . S
C506 C504 1.363 . S
C506 C507 1.370 . S
C506 C510 1.524 . S
C507 C499 1.503 . S
C507 C506 1.370 . S
C507 C508 1.403 . S
C508 C507 1.403 . S
C508 C509 1.404 . S
C508 C511 1.539 . S
C509 C505 1.408 . S
C509 C508 1.404 . S
C509 H521 0.930 . S
C510 C506 1.524 . S
C510 H522 0.956 . S
C510 H523 0.961 . S
C510 H524 0.961 . S
C511 C508 1.539 . S
C511 H525 0.958 . S
C511 H526 0.961 . S
C511 H527 0.960 . S
H512 C496 0.931 . S
H513 C501 0.929 . S
H514 C502 0.960 . S
H515 C502 0.962 . S
H516 C502 0.960 . S
H517 C503 0.961 . S
H518 C503 0.961 . S
H519 C503 0.961 . S
H520 C504 0.931 . S
H521 C509 0.930 . S
H522 C510 0.956 . S
H523 C510 0.961 . S
H524 C510 0.961 . S
H525 C511 0.958 . S
H526 C511 0.961 . S
H527 C511 0.960 . S
C528 C529 1.391 . S
C528 C530 1.394 . S
C528 H544 0.931 . S
C529 C528 1.391 . S
C529 C533 1.376 . S
C530 C528 1.394 . S
C530 C531 1.369 . S
C530 C534 1.531 . S
C531 C530 1.369 . S
C531 C532 1.410 . S
C531 C539 1.503 . S
C532 C531 1.410 . S
C532 C533 1.392 . S
C532 C535 1.511 . S
C533 C529 1.376 . S
C533 C532 1.392 . S
C533 H545 0.929 . S
C534 C530 1.531 . S
C534 H546 0.960 . S
C534 H547 0.962 . S
C534 H548 0.960 . S
C535 C532 1.511 . S
C535 H549 0.961 . S
C535 H550 0.961 . S
C535 H551 0.961 . S
C536 C537 1.370 . S
C536 C538 1.363 . S
C536 H552 0.931 . S
C537 C536 1.370 . S
C537 C541 1.408 . S
C538 C536 1.363 . S
C538 C539 1.370 . S
C538 C542 1.524 . S
C539 C531 1.503 . S
C539 C538 1.370 . S
C539 C540 1.403 . S
C540 C539 1.403 . S
C540 C541 1.404 . S
C540 C543 1.539 . S
C541 C537 1.408 . S
C541 C540 1.404 . S
C541 H553 0.930 . S
C542 C538 1.524 . S
C542 H554 0.956 . S
C542 H555 0.961 . S
C542 H556 0.961 . S
C543 C540 1.539 . S
C543 H557 0.958 . S
C543 H558 0.961 . S
C543 H559 0.960 . S
H544 C528 0.931 . S
H545 C533 0.929 . S
H546 C534 0.960 . S
H547 C534 0.962 . S
H548 C534 0.960 . S
H549 C535 0.961 . S
H550 C535 0.961 . S
H551 C535 0.961 . S
H552 C536 0.931 . S
H553 C541 0.930 . S
H554 C542 0.956 . S
H555 C542 0.961 . S
H556 C542 0.961 . S
H557 C543 0.958 . S
H558 C543 0.961 . S
H559 C543 0.960 . S
C560 C561 1.391 . S
C560 C562 1.394 . S
C560 H576 0.931 . S
C561 C560 1.391 . S
C561 C565 1.376 . S
C562 C560 1.394 . S
C562 C563 1.369 . S
C562 C566 1.531 . S
C563 C562 1.369 . S
C563 C564 1.410 . S
C563 C571 1.503 . S
C564 C563 1.410 . S
C564 C565 1.392 . S
C564 C567 1.511 . S
C565 C561 1.376 . S
C565 C564 1.392 . S
C565 H577 0.929 . S
C566 C562 1.531 . S
C566 H578 0.960 . S
C566 H579 0.962 . S
C566 H580 0.960 . S
C567 C564 1.511 . S
C567 H581 0.961 . S
C567 H582 0.961 . S
C567 H583 0.961 . S
C568 C569 1.370 . S
C568 C570 1.363 . S
C568 H584 0.931 . S
C569 C568 1.370 . S
C569 C573 1.408 . S
C570 C568 1.363 . S
C570 C571 1.370 . S
C570 C574 1.524 . S
C571 C563 1.503 . S
C571 C570 1.370 . S
C571 C572 1.403 . S
C572 C571 1.403 . S
C572 C573 1.404 . S
C572 C575 1.539 . S
C573 C569 1.408 . S
C573 C572 1.404 . S
C573 H585 0.930 . S
C574 C570 1.524 . S
C574 H586 0.956 . S
C574 H587 0.961 . S
C574 H588 0.961 . S
C575 C572 1.539 . S
C575 H589 0.958 . S
C575 H590 0.961 . S
C575 H591 0.960 . S
H576 C560 0.931 . S
H577 C565 0.929 . S
H578 C566 0.960 . S
H579 C566 0.962 . S
H580 C566 0.960 . S
H581 C567 0.961 . S
H582 C567 0.961 . S
H583 C567 0.961 . S
H584 C568 0.931 . S
H585 C573 0.930 . S
H586 C574 0.956 . S
H587 C574 0.961 . S
H588 C574 0.961 . S
H589 C575 0.958 . S
H590 C575 0.961 . S
H591 C575 0.960 . S
C592 C593 1.391 . S
C592 C594 1.394 . S
C592 H608 0.931 . S
C593 C592 1.391 . S
C593 C597 1.376 . S
C594 C592 1.394 . S
C594 C595 1.369 . S
C594 C598 1.531 . S
C595 C594 1.369 . S
C595 C596 1.410 . S
C595 C603 1.503 . S
C596 C595 1.410 . S
C596 C597 1.392 . S
C596 C599 1.511 . S
C597 C593 1.376 . S
C597 C596 1.392 . S
C597 H609 0.929 . S
C598 C594 1.531 . S
C598 H610 0.960 . S
C598 H611 0.962 . S
C598 H612 0.960 . S
C599 C596 1.511 . S
C599 H613 0.961 . S
C599 H614 0.961 . S
C599 H615 0.961 . S
C600 C601 1.370 . S
C600 C602 1.363 . S
C600 H616 0.931 . S
C601 C600 1.370 . S
C601 C605 1.408 . S
C602 C600 1.363 . S
C602 C603 1.370 . S
C602 C606 1.524 . S
C603 C595 1.503 . S
C603 C602 1.370 . S
C603 C604 1.403 . S
C604 C603 1.403 . S
C604 C605 1.404 . S
C604 C607 1.539 . S
C605 C601 1.408 . S
C605 C604 1.404 . S
C605 H617 0.930 . S
C606 C602 1.524 . S
C606 H618 0.956 . S
C606 H619 0.961 . S
C606 H620 0.961 . S
C607 C604 1.539 . S
C607 H621 0.958 . S
C607 H622 0.961 . S
C607 H623 0.960 . S
H608 C592 0.931 . S
H609 C597 0.929 . S
H610 C598 0.960 . S
H611 C598 0.962 . S
H612 C598 0.960 . S
H613 C599 0.961 . S
H614 C599 0.961 . S
H615 C599 0.961 . S
H616 C600 0.931 . S
H617 C605 0.930 . S
H618 C606 0.956 . S
H619 C606 0.961 . S
H620 C606 0.961 . S
H621 C607 0.958 . S
H622 C607 0.961 . S
H623 C607 0.960 . S
C624 C625 1.391 . S
C624 C626 1.394 . S
C624 H640 0.931 . S
C625 C624 1.391 . S
C625 C629 1.376 . S
C626 C624 1.394 . S
C626 C627 1.369 . S
C626 C630 1.531 . S
C627 C626 1.369 . S
C627 C628 1.410 . S
C627 C635 1.503 . S
C628 C627 1.410 . S
C628 C629 1.392 . S
C628 C631 1.511 . S
C629 C625 1.376 . S
C629 C628 1.392 . S
C629 H641 0.929 . S
C630 C626 1.531 . S
C630 H642 0.960 . S
C630 H643 0.962 . S
C630 H644 0.960 . S
C631 C628 1.511 . S
C631 H645 0.961 1_545 S
C631 H646 0.961 . S
C631 H647 0.961 . S
C632 C633 1.370 . S
C632 C634 1.363 . S
C632 H648 0.931 . S
C633 C632 1.370 . S
C633 C637 1.408 . S
C634 C632 1.363 . S
C634 C635 1.370 . S
C634 C638 1.524 . S
C635 C627 1.503 . S
C635 C634 1.370 . S
C635 C636 1.403 . S
C636 C635 1.403 . S
C636 C637 1.404 . S
C636 C639 1.539 . S
C637 C633 1.408 . S
C637 C636 1.404 . S
C637 H649 0.930 . S
C638 C634 1.524 . S
C638 H650 0.956 . S
C638 H651 0.961 . S
C638 H652 0.961 . S
C639 C636 1.539 . S
C639 H653 0.958 . S
C639 H654 0.961 . S
C639 H655 0.960 . S
H640 C624 0.931 . S
H641 C629 0.929 . S
H642 C630 0.960 . S
H643 C630 0.962 . S
H644 C630 0.960 . S
H645 C631 0.961 1_565 S
H646 C631 0.961 . S
H647 C631 0.961 . S
H648 C632 0.931 . S
H649 C637 0.930 . S
H650 C638 0.956 . S
H651 C638 0.961 . S
H652 C638 0.961 . S
H653 C639 0.958 . S
H654 C639 0.961 . S
H655 C639 0.960 . S
C656 C657 1.391 . S
C656 C658 1.394 . S
C656 H672 0.931 . S
C657 C656 1.391 . S
C657 C661 1.376 . S
C658 C656 1.394 . S
C658 C659 1.369 . S
C658 C662 1.531 . S
C659 C658 1.369 . S
C659 C660 1.410 . S
C659 C667 1.503 . S
C660 C659 1.410 . S
C660 C661 1.392 . S
C660 C663 1.511 . S
C661 C657 1.376 . S
C661 C660 1.392 . S
C661 H673 0.929 . S
C662 C658 1.531 . S
C662 H674 0.960 . S
C662 H675 0.962 . S
C662 H676 0.960 . S
C663 C660 1.511 . S
C663 H677 0.961 . S
C663 H678 0.961 . S
C663 H679 0.961 . S
C664 C665 1.370 . S
C664 C666 1.363 . S
C664 H680 0.931 . S
C665 C664 1.370 . S
C665 C669 1.408 . S
C666 C664 1.363 . S
C666 C667 1.370 . S
C666 C670 1.524 . S
C667 C659 1.503 . S
C667 C666 1.370 . S
C667 C668 1.403 . S
C668 C667 1.403 . S
C668 C669 1.404 . S
C668 C671 1.539 . S
C669 C665 1.408 . S
C669 C668 1.404 . S
C669 H681 0.930 . S
C670 C666 1.524 . S
C670 H682 0.956 . S
C670 H683 0.961 . S
C670 H684 0.961 . S
C671 C668 1.539 . S
C671 H685 0.958 . S
C671 H686 0.961 . S
C671 H687 0.960 . S
H672 C656 0.931 . S
H673 C661 0.929 . S
H674 C662 0.960 . S
H675 C662 0.962 . S
H676 C662 0.960 . S
H677 C663 0.961 . S
H678 C663 0.961 . S
H679 C663 0.961 . S
H680 C664 0.931 . S
H681 C669 0.930 . S
H682 C670 0.956 . S
H683 C670 0.961 . S
H684 C670 0.961 . S
H685 C671 0.958 . S
H686 C671 0.961 . S
H687 C671 0.960 . S
C688 C689 1.391 . S
C688 C690 1.394 . S
C688 H704 0.931 . S
C689 C688 1.391 . S
C689 C693 1.376 . S
C690 C688 1.394 . S
C690 C691 1.369 . S
C690 C694 1.531 . S
C691 C690 1.369 . S
C691 C692 1.410 . S
C691 C699 1.503 . S
C692 C691 1.410 . S
C692 C693 1.392 . S
C692 C695 1.511 . S
C693 C689 1.376 . S
C693 C692 1.392 . S
C693 H705 0.929 . S
C694 C690 1.531 . S
C694 H706 0.960 . S
C694 H707 0.962 . S
C694 H708 0.960 . S
C695 C692 1.511 . S
C695 H709 0.961 . S
C695 H710 0.961 . S
C695 H711 0.961 . S
C696 C697 1.370 . S
C696 C698 1.363 . S
C696 H712 0.931 . S
C697 C696 1.370 . S
C697 C701 1.408 . S
C698 C696 1.363 . S
C698 C699 1.370 . S
C698 C702 1.524 . S
C699 C691 1.503 . S
C699 C698 1.370 . S
C699 C700 1.403 . S
C700 C699 1.403 . S
C700 C701 1.404 . S
C700 C703 1.539 . S
C701 C697 1.408 . S
C701 C700 1.404 . S
C701 H713 0.930 . S
C702 C698 1.524 . S
C702 H714 0.956 . S
C702 H715 0.961 . S
C702 H716 0.961 1_565 S
C703 C700 1.539 . S
C703 H717 0.958 . S
C703 H718 0.961 . S
C703 H719 0.960 . S
H704 C688 0.931 . S
H705 C693 0.929 . S
H706 C694 0.960 . S
H707 C694 0.962 . S
H708 C694 0.960 . S
H709 C695 0.961 . S
H710 C695 0.961 . S
H711 C695 0.961 . S
H712 C696 0.931 . S
H713 C701 0.930 . S
H714 C702 0.956 . S
H715 C702 0.961 . S
H716 C702 0.961 1_545 S
H717 C703 0.958 . S
H718 C703 0.961 . S
H719 C703 0.960 . S
C720 C721 1.391 . S
C720 C722 1.394 . S
C720 H736 0.931 . S
C721 C720 1.391 . S
C721 C725 1.376 . S
C722 C720 1.394 . S
C722 C723 1.369 . S
C722 C726 1.531 . S
C723 C722 1.369 . S
C723 C724 1.410 . S
C723 C731 1.503 . S
C724 C723 1.410 . S
C724 C725 1.392 . S
C724 C727 1.511 . S
C725 C721 1.376 . S
C725 C724 1.392 . S
C725 H737 0.929 . S
C726 C722 1.531 . S
C726 H738 0.960 . S
C726 H739 0.962 . S
C726 H740 0.960 . S
C727 C724 1.511 . S
C727 H741 0.961 . S
C727 H742 0.961 . S
C727 H743 0.961 . S
C728 C729 1.370 . S
C728 C730 1.363 . S
C728 H744 0.931 . S
C729 C728 1.370 . S
C729 C733 1.408 . S
C730 C728 1.363 . S
C730 C731 1.370 . S
C730 C734 1.524 . S
C731 C723 1.503 . S
C731 C730 1.370 . S
C731 C732 1.403 . S
C732 C731 1.403 . S
C732 C733 1.404 . S
C732 C735 1.539 . S
C733 C729 1.408 . S
C733 C732 1.404 . S
C733 H745 0.930 . S
C734 C730 1.524 . S
C734 H746 0.956 . S
C734 H747 0.961 . S
C734 H748 0.961 . S
C735 C732 1.539 . S
C735 H749 0.958 . S
C735 H750 0.961 . S
C735 H751 0.960 . S
H736 C720 0.931 . S
H737 C725 0.929 . S
H738 C726 0.960 . S
H739 C726 0.962 . S
H740 C726 0.960 . S
H741 C727 0.961 . S
H742 C727 0.961 . S
H743 C727 0.961 . S
H744 C728 0.931 . S
H745 C733 0.930 . S
H746 C734 0.956 . S
H747 C734 0.961 . S
H748 C734 0.961 . S
H749 C735 0.958 . S
H750 C735 0.961 . S
H751 C735 0.960 . S
C752 C753 1.391 . S
C752 C754 1.394 . S
C752 H768 0.931 . S
C753 C752 1.391 . S
C753 C757 1.376 . S
C754 C752 1.394 . S
C754 C755 1.369 . S
C754 C758 1.531 . S
C755 C754 1.369 . S
C755 C756 1.410 . S
C755 C763 1.503 . S
C756 C755 1.410 . S
C756 C757 1.392 . S
C756 C759 1.511 . S
C757 C753 1.376 . S
C757 C756 1.392 . S
C757 H769 0.929 1_655 S
C758 C754 1.531 . S
C758 H770 0.960 . S
C758 H771 0.962 . S
C758 H772 0.960 . S
C759 C756 1.511 . S
C759 H773 0.961 1_655 S
C759 H774 0.961 . S
C759 H775 0.965 . S
C760 C761 1.370 . S
C760 C762 1.363 . S
C760 H776 0.931 . S
C761 C760 1.370 . S
C761 C765 1.408 . S
C762 C760 1.363 . S
C762 C763 1.370 . S
C762 C766 1.524 . S
C763 C755 1.503 . S
C763 C762 1.370 . S
C763 C764 1.403 . S
C764 C763 1.403 . S
C764 C765 1.404 . S
C764 C767 1.539 . S
C765 C761 1.408 . S
C765 C764 1.404 . S
C765 H777 0.930 . S
C766 C762 1.524 . S
C766 H778 0.956 . S
C766 H779 0.961 . S
C766 H780 0.961 . S
C767 C764 1.539 . S
C767 H781 0.958 . S
C767 H782 0.961 . S
C767 H783 0.960 . S
H768 C752 0.931 . S
H769 C757 0.929 1_455 S
H770 C758 0.960 . S
H771 C758 0.962 . S
H772 C758 0.960 . S
H773 C759 0.961 1_455 S
H774 C759 0.961 . S
H775 C759 0.965 . S
H776 C760 0.931 . S
H777 C765 0.930 . S
H778 C766 0.956 . S
H779 C766 0.961 . S
H780 C766 0.961 . S
H781 C767 0.958 . S
H782 C767 0.961 . S
H783 C767 0.960 . S
C784 C785 1.391 . S
C784 C786 1.394 . S
C784 H800 0.931 . S
C785 C784 1.391 . S
C785 C789 1.376 . S
C786 C784 1.394 . S
C786 C787 1.369 . S
C786 C790 1.531 . S
C787 C786 1.369 . S
C787 C788 1.410 . S
C787 C795 1.503 . S
C788 C787 1.410 . S
C788 C789 1.392 . S
C788 C791 1.511 . S
C789 C785 1.376 . S
C789 C788 1.392 . S
C789 H801 0.929 . S
C790 C786 1.531 . S
C790 H802 0.960 . S
C790 H803 0.962 . S
C790 H804 0.960 . S
C791 C788 1.511 . S
C791 H805 0.961 . S
C791 H806 0.961 . S
C791 H807 0.961 . S
C792 C793 1.370 . S
C792 C794 1.363 . S
C792 H808 0.931 . S
C793 C792 1.370 . S
C793 C797 1.408 . S
C794 C792 1.363 . S
C794 C795 1.370 . S
C794 C798 1.524 . S
C795 C787 1.503 . S
C795 C794 1.370 . S
C795 C796 1.403 . S
C796 C795 1.403 . S
C796 C797 1.404 . S
C796 C799 1.539 . S
C797 C793 1.408 . S
C797 C796 1.404 . S
C797 H809 0.930 . S
C798 C794 1.524 . S
C798 H810 0.956 . S
C798 H811 0.961 . S
C798 H812 0.961 . S
C799 C796 1.539 . S
C799 H813 0.958 . S
C799 H814 0.961 . S
C799 H815 0.960 . S
H800 C784 0.931 . S
H801 C789 0.929 . S
H802 C790 0.960 . S
H803 C790 0.962 . S
H804 C790 0.960 . S
H805 C791 0.961 . S
H806 C791 0.961 . S
H807 C791 0.961 . S
H808 C792 0.931 . S
H809 C797 0.930 . S
H810 C798 0.956 . S
H811 C798 0.961 . S
H812 C798 0.961 . S
H813 C799 0.958 . S
H814 C799 0.961 . S
H815 C799 0.960 . S
C816 C817 1.391 . S
C816 C818 1.394 . S
C816 H832 0.931 . S
C817 C816 1.391 . S
C817 C821 1.376 . S
C818 C816 1.394 . S
C818 C819 1.369 . S
C818 C822 1.531 . S
C819 C818 1.369 . S
C819 C820 1.410 . S
C819 C827 1.503 . S
C820 C819 1.410 . S
C820 C821 1.392 . S
C820 C823 1.511 . S
C821 C817 1.376 . S
C821 C820 1.392 . S
C821 H833 0.929 . S
C822 C818 1.531 . S
C822 H834 0.960 . S
C822 H835 0.962 . S
C822 H836 0.960 1_655 S
C823 C820 1.511 . S
C823 H837 0.961 . S
C823 H838 0.961 . S
C823 H839 0.961 . S
C824 C825 1.370 . S
C824 C826 1.363 . S
C824 H840 0.931 . S
C825 C824 1.370 . S
C825 C829 1.408 . S
C826 C824 1.363 . S
C826 C827 1.370 . S
C826 C830 1.524 . S
C827 C819 1.503 . S
C827 C826 1.370 . S
C827 C828 1.403 . S
C828 C827 1.403 . S
C828 C829 1.404 . S
C828 C831 1.542 . S
C829 C825 1.408 . S
C829 C828 1.404 . S
C829 H841 0.930 . S
C830 C826 1.524 . S
C830 H842 0.956 . S
C830 H843 0.961 . S
C830 H844 0.961 . S
C831 C828 1.542 . S
C831 H845 0.956 1_655 S
C831 H846 0.961 1_655 S
C831 H847 0.960 1_655 S
H832 C816 0.931 . S
H833 C821 0.929 . S
H834 C822 0.960 . S
H835 C822 0.962 . S
H836 C822 0.960 1_455 S
H837 C823 0.961 . S
H838 C823 0.961 . S
H839 C823 0.961 . S
H840 C824 0.931 . S
H841 C829 0.930 . S
H842 C830 0.956 . S
H843 C830 0.961 . S
H844 C830 0.961 . S
H845 C831 0.956 1_455 S
H846 C831 0.961 1_455 S
H847 C831 0.960 1_455 S
C848 C849 1.391 . S
C848 C850 1.394 . S
C848 H864 0.931 . S
C849 C848 1.391 . S
C849 C853 1.376 . S
C850 C848 1.394 . S
C850 C851 1.369 . S
C850 C854 1.531 . S
C851 C850 1.369 . S
C851 C852 1.410 . S
C851 C859 1.503 . S
C852 C851 1.410 . S
C852 C853 1.392 . S
C852 C855 1.511 . S
C853 C849 1.376 . S
C853 C852 1.392 . S
C853 H865 0.929 . S
C854 C850 1.531 . S
C854 H866 0.960 . S
C854 H867 0.962 . S
C854 H868 0.960 . S
C855 C852 1.511 . S
C855 H869 0.961 . S
C855 H870 0.961 . S
C855 H871 0.961 . S
C856 C857 1.370 . S
C856 C858 1.363 . S
C856 H872 0.931 . S
C857 C856 1.370 . S
C857 C861 1.408 . S
C858 C856 1.363 . S
C858 C859 1.370 . S
C858 C862 1.524 . S
C859 C851 1.503 . S
C859 C858 1.370 . S
C859 C860 1.403 . S
C860 C859 1.403 . S
C860 C861 1.404 . S
C860 C863 1.539 . S
C861 C857 1.408 . S
C861 C860 1.404 . S
C861 H873 0.930 . S
C862 C858 1.524 . S
C862 H874 0.956 . S
C862 H875 0.961 . S
C862 H876 0.961 . S
C863 C860 1.539 . S
C863 H877 0.958 . S
C863 H878 0.961 . S
C863 H879 0.960 . S
H864 C848 0.931 . S
H865 C853 0.929 . S
H866 C854 0.960 . S
H867 C854 0.962 . S
H868 C854 0.960 . S
H869 C855 0.961 . S
H870 C855 0.961 . S
H871 C855 0.961 . S
H872 C856 0.931 . S
H873 C861 0.930 . S
H874 C862 0.956 . S
H875 C862 0.961 . S
H876 C862 0.961 . S
H877 C863 0.958 . S
H878 C863 0.961 . S
H879 C863 0.960 . S
C880 C881 1.391 . S
C880 C882 1.394 . S
C880 H896 0.931 . S
C881 C880 1.391 . S
C881 C885 1.376 . S
C882 C880 1.394 . S
C882 C883 1.369 . S
C882 C886 1.531 . S
C883 C882 1.369 . S
C883 C884 1.410 . S
C883 C891 1.503 . S
C884 C883 1.410 . S
C884 C885 1.392 . S
C884 C887 1.511 . S
C885 C881 1.376 . S
C885 C884 1.392 . S
C885 H897 0.929 . S
C886 C882 1.531 . S
C886 H898 0.960 . S
C886 H899 0.962 . S
C886 H900 0.960 . S
C887 C884 1.511 . S
C887 H901 0.961 . S
C887 H902 0.961 . S
C887 H903 0.961 . S
C888 C889 1.370 . S
C888 C890 1.363 . S
C888 H904 0.931 . S
C889 C888 1.370 . S
C889 C893 1.408 . S
C890 C888 1.363 . S
C890 C891 1.370 . S
C890 C894 1.524 . S
C891 C883 1.503 . S
C891 C890 1.370 . S
C891 C892 1.403 . S
C892 C891 1.403 . S
C892 C893 1.404 . S
C892 C895 1.539 . S
C893 C889 1.408 . S
C893 C892 1.404 . S
C893 H905 0.930 . S
C894 C890 1.524 . S
C894 H906 0.956 . S
C894 H907 0.961 . S
C894 H908 0.961 . S
C895 C892 1.539 . S
C895 H909 0.958 . S
C895 H910 0.961 . S
C895 H911 0.960 . S
H896 C880 0.931 . S
H897 C885 0.929 . S
H898 C886 0.960 . S
H899 C886 0.962 . S
H900 C886 0.960 . S
H901 C887 0.961 . S
H902 C887 0.961 . S
H903 C887 0.961 . S
H904 C888 0.931 . S
H905 C893 0.930 . S
H906 C894 0.956 . S
H907 C894 0.961 . S
H908 C894 0.961 . S
H909 C895 0.958 . S
H910 C895 0.961 . S
H911 C895 0.960 . S
C912 C913 1.391 . S
C912 C914 1.394 . S
C912 H928 0.931 1_556 S
C913 C912 1.391 . S
C913 C917 1.376 . S
C914 C912 1.394 . S
C914 C915 1.369 . S
C914 C918 1.531 . S
C915 C914 1.369 . S
C915 C916 1.410 . S
C915 C923 1.503 . S
C916 C915 1.410 . S
C916 C917 1.392 . S
C916 C919 1.511 . S
C917 C913 1.376 . S
C917 C916 1.392 . S
C917 H929 0.929 . S
C918 C914 1.531 . S
C918 H930 0.960 . S
C918 H931 0.962 1_556 S
C918 H932 0.963 . S
C919 C916 1.511 . S
C919 H933 0.961 . S
C919 H934 0.961 . S
C919 H935 0.961 . S
C920 C921 1.370 . S
C920 C922 1.363 . S
C920 H936 0.931 . S
C921 C920 1.370 . S
C921 C925 1.408 . S
C922 C920 1.363 . S
C922 C923 1.370 . S
C922 C926 1.524 . S
C923 C915 1.503 . S
C923 C922 1.370 . S
C923 C924 1.403 . S
C924 C923 1.403 . S
C924 C925 1.404 . S
C924 C927 1.539 . S
C925 C921 1.408 . S
C925 C924 1.404 . S
C925 H937 0.930 . S
C926 C922 1.524 . S
C926 H938 0.956 . S
C926 H939 0.961 . S
C926 H940 0.961 . S
C927 C924 1.539 . S
C927 H941 0.958 . S
C927 H942 0.961 . S
C927 H943 0.960 . S
H928 C912 0.931 1_554 S
H929 C917 0.929 . S
H930 C918 0.960 . S
H931 C918 0.962 1_554 S
H932 C918 0.963 . S
H933 C919 0.961 . S
H934 C919 0.961 . S
H935 C919 0.961 . S
H936 C920 0.931 . S
H937 C925 0.930 . S
H938 C926 0.956 . S
H939 C926 0.961 . S
H940 C926 0.961 . S
H941 C927 0.958 . S
H942 C927 0.961 . S
H943 C927 0.960 . S
C944 C945 1.391 . S
C944 C946 1.394 . S
C944 H960 0.931 . S
C945 C944 1.391 . S
C945 C949 1.376 . S
C946 C944 1.394 . S
C946 C947 1.369 . S
C946 C950 1.531 . S
C947 C946 1.369 . S
C947 C948 1.410 . S
C947 C955 1.503 . S
C948 C947 1.410 . S
C948 C949 1.392 . S
C948 C951 1.503 1_655 S
C949 C945 1.376 . S
C949 C948 1.392 . S
C949 H961 0.929 . S
C950 C946 1.531 . S
C950 H962 0.960 . S
C950 H963 0.962 . S
C950 H964 0.960 . S
C951 C948 1.503 1_455 S
C951 H965 0.964 . S
C951 H966 0.963 . S
C951 H967 0.963 . S
C952 C953 1.370 . S
C952 C954 1.363 . S
C952 H968 0.931 . S
C953 C952 1.370 . S
C953 C957 1.408 . S
C954 C952 1.363 . S
C954 C955 1.370 . S
C954 C958 1.524 . S
C955 C947 1.503 . S
C955 C954 1.370 . S
C955 C956 1.403 . S
C956 C955 1.403 . S
C956 C957 1.404 . S
C956 C959 1.539 . S
C957 C953 1.408 . S
C957 C956 1.404 . S
C957 H969 0.930 . S
C958 C954 1.524 . S
C958 H970 0.956 . S
C958 H971 0.961 . S
C958 H972 0.961 . S
C959 C956 1.539 . S
C959 H973 0.958 . S
C959 H974 0.961 . S
C959 H975 0.960 . S
H960 C944 0.931 . S
H961 C949 0.929 . S
H962 C950 0.960 . S
H963 C950 0.962 . S
H964 C950 0.960 . S
H965 C951 0.964 . S
H966 C951 0.963 . S
H967 C951 0.963 . S
H968 C952 0.931 . S
H969 C957 0.930 . S
H970 C958 0.956 . S
H971 C958 0.961 . S
H972 C958 0.961 . S
H973 C959 0.958 . S
H974 C959 0.961 . S
H975 C959 0.960 . S
C976 C977 1.391 . S
C976 C978 1.394 . S
C976 H992 0.931 . S
C977 C976 1.391 . S
C977 C981 1.376 . S
C978 C976 1.394 . S
C978 C979 1.369 . S
C978 C982 1.531 . S
C979 C978 1.369 . S
C979 C980 1.410 . S
C979 C987 1.503 . S
C980 C979 1.410 . S
C980 C981 1.392 . S
C980 C983 1.511 . S
C981 C977 1.376 . S
C981 C980 1.392 . S
C981 H993 0.929 . S
C982 C978 1.531 . S
C982 H994 0.960 . S
C982 H995 0.962 . S
C982 H996 0.960 . S
C983 C980 1.511 . S
C983 H997 0.961 . S
C983 H998 0.961 . S
C983 H999 0.961 . S
C984 C985 1.370 . S
C984 C986 1.363 . S
C984 H1000 0.931 . S
C985 C984 1.370 . S
C985 C989 1.408 . S
C986 C984 1.363 . S
C986 C987 1.370 . S
C986 C990 1.524 . S
C987 C979 1.503 . S
C987 C986 1.370 . S
C987 C988 1.403 . S
C988 C987 1.403 . S
C988 C989 1.404 . S
C988 C991 1.539 . S
C989 C985 1.408 . S
C989 C988 1.404 . S
C989 H1001 0.930 . S
C990 C986 1.524 . S
C990 H1002 0.956 . S
C990 H1003 0.961 . S
C990 H1004 0.961 . S
C991 C988 1.539 . S
C991 H1005 0.958 . S
C991 H1006 0.961 . S
C991 H1007 0.960 . S
H992 C976 0.931 . S
H993 C981 0.929 . S
H994 C982 0.960 . S
H995 C982 0.962 . S
H996 C982 0.960 . S
H997 C983 0.961 . S
H998 C983 0.961 . S
H999 C983 0.961 . S
H1000 C984 0.931 . S
H1001 C989 0.930 . S
H1002 C990 0.956 . S
H1003 C990 0.961 . S
H1004 C990 0.961 . S
H1005 C991 0.958 . S
H1006 C991 0.961 . S
H1007 C991 0.960 . S
C1008 C1009 1.391 . S
C1008 C1010 1.394 . S
C1008 H1024 0.931 . S
C1009 C1008 1.391 . S
C1009 C1013 1.376 . S
C1010 C1008 1.394 . S
C1010 C1011 1.369 . S
C1010 C1014 1.531 . S
C1011 C1010 1.369 . S
C1011 C1012 1.410 . S
C1011 C1019 1.503 . S
C1012 C1011 1.410 . S
C1012 C1013 1.392 . S
C1012 C1015 1.511 . S
C1013 C1009 1.376 . S
C1013 C1012 1.392 . S
C1013 H1025 0.929 . S
C1014 C1010 1.531 . S
C1014 H1026 0.960 . S
C1014 H1027 0.962 . S
C1014 H1028 0.960 . S
C1015 C1012 1.511 . S
C1015 H1029 0.961 . S
C1015 H1030 0.961 . S
C1015 H1031 0.961 . S
C1016 C1017 1.370 . S
C1016 C1018 1.363 . S
C1016 H1032 0.931 . S
C1017 C1016 1.370 . S
C1017 C1021 1.408 . S
C1018 C1016 1.363 . S
C1018 C1019 1.370 . S
C1018 C1022 1.524 . S
C1019 C1011 1.503 . S
C1019 C1018 1.370 . S
C1019 C1020 1.403 . S
C1020 C1019 1.403 . S
C1020 C1021 1.404 . S
C1020 C1023 1.539 . S
C1021 C1017 1.408 . S
C1021 C1020 1.404 . S
C1021 H1033 0.930 . S
C1022 C1018 1.524 . S
C1022 H1034 0.956 . S
C1022 H1035 0.961 . S
C1022 H1036 0.961 . S
C1023 C1020 1.539 . S
C1023 H1037 0.958 . S
C1023 H1038 0.961 . S
C1023 H1039 0.960 . S
H1024 C1008 0.931 . S
H1025 C1013 0.929 . S
H1026 C1014 0.960 . S
H1027 C1014 0.962 . S
H1028 C1014 0.960 . S
H1029 C1015 0.961 . S
H1030 C1015 0.961 . S
H1031 C1015 0.961 . S
H1032 C1016 0.931 . S
H1033 C1021 0.930 . S
H1034 C1022 0.956 . S
H1035 C1022 0.961 . S
H1036 C1022 0.961 . S
H1037 C1023 0.958 . S
H1038 C1023 0.961 . S
H1039 C1023 0.960 . S
C1040 C1041 1.391 . S
C1040 C1042 1.394 . S
C1040 H1056 0.931 . S
C1041 C1040 1.391 . S
C1041 C1045 1.376 . S
C1042 C1040 1.394 . S
C1042 C1043 1.369 . S
C1042 C1046 1.531 . S
C1043 C1042 1.369 . S
C1043 C1044 1.410 . S
C1043 C1051 1.503 . S
C1044 C1043 1.410 . S
C1044 C1045 1.392 . S
C1044 C1047 1.511 . S
C1045 C1041 1.376 . S
C1045 C1044 1.392 . S
C1045 H1057 0.929 . S
C1046 C1042 1.531 . S
C1046 H1058 0.960 . S
C1046 H1059 0.962 . S
C1046 H1060 0.960 . S
C1047 C1044 1.511 . S
C1047 H1061 0.961 . S
C1047 H1062 0.961 . S
C1047 H1063 0.961 . S
C1048 C1049 1.370 . S
C1048 C1050 1.363 . S
C1048 H1064 0.931 . S
C1049 C1048 1.370 . S
C1049 C1053 1.408 . S
C1050 C1048 1.363 . S
C1050 C1051 1.370 . S
C1050 C1054 1.524 . S
C1051 C1043 1.503 . S
C1051 C1050 1.370 . S
C1051 C1052 1.403 . S
C1052 C1051 1.403 . S
C1052 C1053 1.404 . S
C1052 C1055 1.539 . S
C1053 C1049 1.408 . S
C1053 C1052 1.404 . S
C1053 H1065 0.930 . S
C1054 C1050 1.524 . S
C1054 H1066 0.956 . S
C1054 H1067 0.961 . S
C1054 H1068 0.961 . S
C1055 C1052 1.539 . S
C1055 H1069 0.958 . S
C1055 H1070 0.961 . S
C1055 H1071 0.960 . S
H1056 C1040 0.931 . S
H1057 C1045 0.929 . S
H1058 C1046 0.960 . S
H1059 C1046 0.962 . S
H1060 C1046 0.960 . S
H1061 C1047 0.961 . S
H1062 C1047 0.961 . S
H1063 C1047 0.961 . S
H1064 C1048 0.931 . S
H1065 C1053 0.930 . S
H1066 C1054 0.956 . S
H1067 C1054 0.961 . S
H1068 C1054 0.961 . S
H1069 C1055 0.958 . S
H1070 C1055 0.961 . S
H1071 C1055 0.960 . S
C1072 C1073 1.391 . S
C1072 C1074 1.394 . S
C1072 H1088 0.931 . S
C1073 C1072 1.391 . S
C1073 C1077 1.376 . S
C1074 C1072 1.394 . S
C1074 C1075 1.369 . S
C1074 C1078 1.531 . S
C1075 C1074 1.369 . S
C1075 C1076 1.410 . S
C1075 C1083 1.503 . S
C1076 C1075 1.410 . S
C1076 C1077 1.392 . S
C1076 C1079 1.511 . S
C1077 C1073 1.376 . S
C1077 C1076 1.392 . S
C1077 H1089 0.929 . S
C1078 C1074 1.531 . S
C1078 H1090 0.960 . S
C1078 H1091 0.962 . S
C1078 H1092 0.960 . S
C1079 C1076 1.511 . S
C1079 H1093 0.961 1_565 S
C1079 H1094 0.961 1_565 S
C1079 H1095 0.961 . S
C1080 C1081 1.370 . S
C1080 C1082 1.363 . S
C1080 H1096 0.931 . S
C1081 C1080 1.370 . S
C1081 C1085 1.408 . S
C1082 C1080 1.363 . S
C1082 C1083 1.370 . S
C1082 C1086 1.524 . S
C1083 C1075 1.503 . S
C1083 C1082 1.370 . S
C1083 C1084 1.403 . S
C1084 C1083 1.403 . S
C1084 C1085 1.404 . S
C1084 C1087 1.539 . S
C1085 C1081 1.408 . S
C1085 C1084 1.404 . S
C1085 H1097 0.930 . S
C1086 C1082 1.524 . S
C1086 H1098 0.956 . S
C1086 H1099 0.961 . S
C1086 H1100 0.961 . S
C1087 C1084 1.539 . S
C1087 H1101 0.958 . S
C1087 H1102 0.961 . S
C1087 H1103 0.960 . S
H1088 C1072 0.931 . S
H1089 C1077 0.929 . S
H1090 C1078 0.960 . S
H1091 C1078 0.962 . S
H1092 C1078 0.960 . S
H1093 C1079 0.961 1_545 S
H1094 C1079 0.961 1_545 S
H1095 C1079 0.961 . S
H1096 C1080 0.931 . S
H1097 C1085 0.930 . S
H1098 C1086 0.956 . S
H1099 C1086 0.961 . S
H1100 C1086 0.961 . S
H1101 C1087 0.958 . S
H1102 C1087 0.961 . S
H1103 C1087 0.960 . S
C1104 C1105 1.391 . S
C1104 C1106 1.394 . S
C1104 H1120 0.931 . S
C1105 C1104 1.391 . S
C1105 C1109 1.376 . S
C1106 C1104 1.394 . S
C1106 C1107 1.369 . S
C1106 C1110 1.531 . S
C1107 C1106 1.369 . S
C1107 C1108 1.410 . S
C1107 C1115 1.503 . S
C1108 C1107 1.410 . S
C1108 C1109 1.392 . S
C1108 C1111 1.511 . S
C1109 C1105 1.376 . S
C1109 C1108 1.392 . S
C1109 H1121 0.929 . S
C1110 C1106 1.531 . S
C1110 H1122 0.960 . S
C1110 H1123 0.962 . S
C1110 H1124 0.960 . S
C1111 C1108 1.511 . S
C1111 H1125 0.961 . S
C1111 H1126 0.961 . S
C1111 H1127 0.961 . S
C1112 C1113 1.370 . S
C1112 C1114 1.363 . S
C1112 H1128 0.931 . S
C1113 C1112 1.370 . S
C1113 C1117 1.408 . S
C1114 C1112 1.363 . S
C1114 C1115 1.370 . S
C1114 C1118 1.524 . S
C1115 C1107 1.503 . S
C1115 C1114 1.370 . S
C1115 C1116 1.403 . S
C1116 C1115 1.403 . S
C1116 C1117 1.404 . S
C1116 C1119 1.539 . S
C1117 C1113 1.408 . S
C1117 C1116 1.404 . S
C1117 H1129 0.930 . S
C1118 C1114 1.524 . S
C1118 H1130 0.956 . S
C1118 H1131 0.961 1_565 S
C1118 H1132 0.961 1_565 S
C1119 C1116 1.539 . S
C1119 H1133 0.958 . S
C1119 H1134 0.961 . S
C1119 H1135 0.960 . S
H1120 C1104 0.931 . S
H1121 C1109 0.929 . S
H1122 C1110 0.960 . S
H1123 C1110 0.962 . S
H1124 C1110 0.960 . S
H1125 C1111 0.961 . S
H1126 C1111 0.961 . S
H1127 C1111 0.961 . S
H1128 C1112 0.931 . S
H1129 C1117 0.930 . S
H1130 C1118 0.956 . S
H1131 C1118 0.961 1_545 S
H1132 C1118 0.961 1_545 S
H1133 C1119 0.958 . S
H1134 C1119 0.961 . S
H1135 C1119 0.960 . S
C1136 C1137 1.391 . S
C1136 C1138 1.394 . S
C1136 H1152 0.931 . S
C1137 C1136 1.391 . S
C1137 C1141 1.376 . S
C1138 C1136 1.394 . S
C1138 C1139 1.369 . S
C1138 C1142 1.531 . S
C1139 C1138 1.369 . S
C1139 C1140 1.410 . S
C1139 C1147 1.503 . S
C1140 C1139 1.410 . S
C1140 C1141 1.392 . S
C1140 C1143 1.511 . S
C1141 C1137 1.376 . S
C1141 C1140 1.392 . S
C1141 H1153 0.929 . S
C1142 C1138 1.531 . S
C1142 H1154 0.960 . S
C1142 H1155 0.962 . S
C1142 H1156 0.960 . S
C1143 C1140 1.511 . S
C1143 H1157 0.961 . S
C1143 H1158 0.961 . S
C1143 H1159 0.961 . S
C1144 C1145 1.370 . S
C1144 C1146 1.363 . S
C1144 H1160 0.931 . S
C1145 C1144 1.370 . S
C1145 C1149 1.408 . S
C1146 C1144 1.363 . S
C1146 C1147 1.370 . S
C1146 C1150 1.524 . S
C1147 C1139 1.503 . S
C1147 C1146 1.370 . S
C1147 C1148 1.403 . S
C1148 C1147 1.403 . S
C1148 C1149 1.404 . S
C1148 C1151 1.539 . S
C1149 C1145 1.408 . S
C1149 C1148 1.404 . S
C1149 H1161 0.930 . S
C1150 C1146 1.524 . S
C1150 H1162 0.956 . S
C1150 H1163 0.961 . S
C1150 H1164 0.961 1_545 S
C1151 C1148 1.539 . S
C1151 H1165 0.958 . S
C1151 H1166 0.961 . S
C1151 H1167 0.960 . S
H1152 C1136 0.931 . S
H1153 C1141 0.929 . S
H1154 C1142 0.960 . S
H1155 C1142 0.962 . S
H1156 C1142 0.960 . S
H1157 C1143 0.961 . S
H1158 C1143 0.961 . S
H1159 C1143 0.961 . S
H1160 C1144 0.931 . S
H1161 C1149 0.930 . S
H1162 C1150 0.956 . S
H1163 C1150 0.961 . S
H1164 C1150 0.961 1_565 S
H1165 C1151 0.958 . S
H1166 C1151 0.961 . S
H1167 C1151 0.960 . S
C1168 C1169 1.391 . S
C1168 C1170 1.394 . S
C1168 H1184 0.931 . S
C1169 C1168 1.391 . S
C1169 C1173 1.376 . S
C1170 C1168 1.394 . S
C1170 C1171 1.369 . S
C1170 C1174 1.531 . S
C1171 C1170 1.369 . S
C1171 C1172 1.410 . S
C1171 C1179 1.503 . S
C1172 C1171 1.410 . S
C1172 C1173 1.392 . S
C1172 C1175 1.511 . S
C1173 C1169 1.376 . S
C1173 C1172 1.392 . S
C1173 H1185 0.929 . S
C1174 C1170 1.531 . S
C1174 H1186 0.960 . S
C1174 H1187 0.962 . S
C1174 H1188 0.960 . S
C1175 C1172 1.511 . S
C1175 H1189 0.961 . S
C1175 H1190 0.961 . S
C1175 H1191 0.961 . S
C1176 C1177 1.370 . S
C1176 C1178 1.363 . S
C1176 H1192 0.931 . S
C1177 C1176 1.370 . S
C1177 C1181 1.408 . S
C1178 C1176 1.363 . S
C1178 C1179 1.370 . S
C1178 C1182 1.524 . S
C1179 C1171 1.503 . S
C1179 C1178 1.370 . S
C1179 C1180 1.403 . S
C1180 C1179 1.403 . S
C1180 C1181 1.404 . S
C1180 C1183 1.539 . S
C1181 C1177 1.408 . S
C1181 C1180 1.404 . S
C1181 H1193 0.930 . S
C1182 C1178 1.524 . S
C1182 H1194 0.956 . S
C1182 H1195 0.961 . S
C1182 H1196 0.961 . S
C1183 C1180 1.539 . S
C1183 H1197 0.958 . S
C1183 H1198 0.961 . S
C1183 H1199 0.960 . S
H1184 C1168 0.931 . S
H1185 C1173 0.929 . S
H1186 C1174 0.960 . S
H1187 C1174 0.962 . S
H1188 C1174 0.960 . S
H1189 C1175 0.961 . S
H1190 C1175 0.961 . S
H1191 C1175 0.961 . S
H1192 C1176 0.931 . S
H1193 C1181 0.930 . S
H1194 C1182 0.956 . S
H1195 C1182 0.961 . S
H1196 C1182 0.961 . S
H1197 C1183 0.958 . S
H1198 C1183 0.961 . S
H1199 C1183 0.960 . S
C1200 C1201 1.391 . S
C1200 C1202 1.394 . S
C1200 H1216 0.931 . S
C1201 C1200 1.391 . S
C1201 C1205 1.376 . S
C1202 C1200 1.394 . S
C1202 C1203 1.369 . S
C1202 C1206 1.531 . S
C1203 C1202 1.369 . S
C1203 C1204 1.410 . S
C1203 C1211 1.503 . S
C1204 C1203 1.410 . S
C1204 C1205 1.392 . S
C1204 C1207 1.511 1_556 S
C1205 C1201 1.376 . S
C1205 C1204 1.392 . S
C1205 H1217 0.929 . S
C1206 C1202 1.531 . S
C1206 H1218 0.960 . S
C1206 H1219 0.962 . S
C1206 H1220 0.960 . S
C1207 C1204 1.511 1_554 S
C1207 H1221 0.961 . S
C1207 H1222 0.961 . S
C1207 H1223 0.961 . S
C1208 C1209 1.370 . S
C1208 C1210 1.363 . S
C1208 H1224 0.931 . S
C1209 C1208 1.370 . S
C1209 C1213 1.408 . S
C1210 C1208 1.363 . S
C1210 C1211 1.370 . S
C1210 C1214 1.524 . S
C1211 C1203 1.503 . S
C1211 C1210 1.370 . S
C1211 C1212 1.403 . S
C1212 C1211 1.403 . S
C1212 C1213 1.404 . S
C1212 C1215 1.539 . S
C1213 C1209 1.408 . S
C1213 C1212 1.404 . S
C1213 H1225 0.930 . S
C1214 C1210 1.524 . S
C1214 H1226 0.956 . S
C1214 H1227 0.961 . S
C1214 H1228 0.961 . S
C1215 C1212 1.539 . S
C1215 H1229 0.958 . S
C1215 H1230 0.961 . S
C1215 H1231 0.960 . S
H1216 C1200 0.931 . S
H1217 C1205 0.929 . S
H1218 C1206 0.960 . S
H1219 C1206 0.962 . S
H1220 C1206 0.960 . S
H1221 C1207 0.961 . S
H1222 C1207 0.961 . S
H1223 C1207 0.961 . S
H1224 C1208 0.931 . S
H1225 C1213 0.930 . S
H1226 C1214 0.956 . S
H1227 C1214 0.961 . S
H1228 C1214 0.961 . S
H1229 C1215 0.958 . S
H1230 C1215 0.961 . S
H1231 C1215 0.960 . S
C1232 C1233 1.391 . S
C1232 C1234 1.394 . S
C1232 H1248 0.931 . S
C1233 C1232 1.391 . S
C1233 C1237 1.376 . S
C1234 C1232 1.394 . S
C1234 C1235 1.369 . S
C1234 C1238 1.531 . S
C1235 C1234 1.369 . S
C1235 C1236 1.410 . S
C1235 C1243 1.503 . S
C1236 C1235 1.410 . S
C1236 C1237 1.392 . S
C1236 C1239 1.511 . S
C1237 C1233 1.376 . S
C1237 C1236 1.392 . S
C1237 H1249 0.929 . S
C1238 C1234 1.531 . S
C1238 H1250 0.960 . S
C1238 H1251 0.962 . S
C1238 H1252 0.960 . S
C1239 C1236 1.511 . S
C1239 H1253 0.961 . S
C1239 H1254 0.961 . S
C1239 H1255 0.961 . S
C1240 C1241 1.370 . S
C1240 C1242 1.363 . S
C1240 H1256 0.931 . S
C1241 C1240 1.370 . S
C1241 C1245 1.408 . S
C1242 C1240 1.363 . S
C1242 C1243 1.370 . S
C1242 C1246 1.524 . S
C1243 C1235 1.503 . S
C1243 C1242 1.370 . S
C1243 C1244 1.403 . S
C1244 C1243 1.403 . S
C1244 C1245 1.404 . S
C1244 C1247 1.539 . S
C1245 C1241 1.408 . S
C1245 C1244 1.404 . S
C1245 H1257 0.930 . S
C1246 C1242 1.524 . S
C1246 H1258 0.956 . S
C1246 H1259 0.961 . S
C1246 H1260 0.961 . S
C1247 C1244 1.539 . S
C1247 H1261 0.958 . S
C1247 H1262 0.961 . S
C1247 H1263 0.960 . S
H1248 C1232 0.931 . S
H1249 C1237 0.929 . S
H1250 C1238 0.960 . S
H1251 C1238 0.962 . S
H1252 C1238 0.960 . S
H1253 C1239 0.961 . S
H1254 C1239 0.961 . S
H1255 C1239 0.961 . S
H1256 C1240 0.931 . S
H1257 C1245 0.930 . S
H1258 C1246 0.956 . S
H1259 C1246 0.961 . S
H1260 C1246 0.961 . S
H1261 C1247 0.958 . S
H1262 C1247 0.961 . S
H1263 C1247 0.960 . S
C1264 C1265 1.391 . S
C1264 C1266 1.394 . S
C1264 H1280 0.931 . S
C1265 C1264 1.391 . S
C1265 C1269 1.376 . S
C1266 C1264 1.394 . S
C1266 C1267 1.369 . S
C1266 C1270 1.531 . S
C1267 C1266 1.369 . S
C1267 C1268 1.410 . S
C1267 C1275 1.503 . S
C1268 C1267 1.410 . S
C1268 C1269 1.392 . S
C1268 C1271 1.511 . S
C1269 C1265 1.376 . S
C1269 C1268 1.392 . S
C1269 H1281 0.929 . S
C1270 C1266 1.531 . S
C1270 H1282 0.960 . S
C1270 H1283 0.962 . S
C1270 H1284 0.960 . S
C1271 C1268 1.511 . S
C1271 H1285 0.961 . S
C1271 H1286 0.961 . S
C1271 H1287 0.961 . S
C1272 C1273 1.370 . S
C1272 C1274 1.363 . S
C1272 H1288 0.931 . S
C1273 C1272 1.370 . S
C1273 C1277 1.408 . S
C1274 C1272 1.363 . S
C1274 C1275 1.370 . S
C1274 C1278 1.524 . S
C1275 C1267 1.503 . S
C1275 C1274 1.370 . S
C1275 C1276 1.403 . S
C1276 C1275 1.403 . S
C1276 C1277 1.404 . S
C1276 C1279 1.539 . S
C1277 C1273 1.408 . S
C1277 C1276 1.404 . S
C1277 H1289 0.930 . S
C1278 C1274 1.524 . S
C1278 H1290 0.956 . S
C1278 H1291 0.961 . S
C1278 H1292 0.961 . S
C1279 C1276 1.539 . S
C1279 H1293 0.958 . S
C1279 H1294 0.961 . S
C1279 H1295 0.960 . S
H1280 C1264 0.931 . S
H1281 C1269 0.929 . S
H1282 C1270 0.960 . S
H1283 C1270 0.962 . S
H1284 C1270 0.960 . S
H1285 C1271 0.961 . S
H1286 C1271 0.961 . S
H1287 C1271 0.961 . S
H1288 C1272 0.931 . S
H1289 C1277 0.930 . S
H1290 C1278 0.956 . S
H1291 C1278 0.961 . S
H1292 C1278 0.961 . S
H1293 C1279 0.958 . S
H1294 C1279 0.961 . S
H1295 C1279 0.960 . S
C1296 C1297 1.391 . S
C1296 C1298 1.394 . S
C1296 H1312 0.931 . S
C1297 C1296 1.391 . S
C1297 C1301 1.376 . S
C1298 C1296 1.394 . S
C1298 C1299 1.369 . S
C1298 C1302 1.531 . S
C1299 C1298 1.369 . S
C1299 C1300 1.410 . S
C1299 C1307 1.503 . S
C1300 C1299 1.410 . S
C1300 C1301 1.392 . S
C1300 C1303 1.511 . S
C1301 C1297 1.376 . S
C1301 C1300 1.392 . S
C1301 H1313 0.929 . S
C1302 C1298 1.531 . S
C1302 H1314 0.960 . S
C1302 H1315 0.962 . S
C1302 H1316 0.960 . S
C1303 C1300 1.511 . S
C1303 H1317 0.961 . S
C1303 H1318 0.961 . S
C1303 H1319 0.961 . S
C1304 C1305 1.370 . S
C1304 C1306 1.363 . S
C1304 H1320 0.931 . S
C1305 C1304 1.370 . S
C1305 C1309 1.408 . S
C1306 C1304 1.363 . S
C1306 C1307 1.370 . S
C1306 C1310 1.524 . S
C1307 C1299 1.503 . S
C1307 C1306 1.370 . S
C1307 C1308 1.403 . S
C1308 C1307 1.403 . S
C1308 C1309 1.404 . S
C1308 C1311 1.539 . S
C1309 C1305 1.408 . S
C1309 C1308 1.404 . S
C1309 H1321 0.930 . S
C1310 C1306 1.524 . S
C1310 H1322 0.956 . S
C1310 H1323 0.961 . S
C1310 H1324 0.961 . S
C1311 C1308 1.539 . S
C1311 H1325 0.958 . S
C1311 H1326 0.961 . S
C1311 H1327 0.960 . S
H1312 C1296 0.931 . S
H1313 C1301 0.929 . S
H1314 C1302 0.960 . S
H1315 C1302 0.962 . S
H1316 C1302 0.960 . S
H1317 C1303 0.961 . S
H1318 C1303 0.961 . S
H1319 C1303 0.961 . S
H1320 C1304 0.931 . S
H1321 C1309 0.930 . S
H1322 C1310 0.956 . S
H1323 C1310 0.961 . S
H1324 C1310 0.961 . S
H1325 C1311 0.958 . S
H1326 C1311 0.961 . S
H1327 C1311 0.960 . S
C1328 C1329 1.391 . S
C1328 C1330 1.394 . S
C1328 H1344 0.931 . S
C1329 C1328 1.391 . S
C1329 C1333 1.376 . S
C1330 C1328 1.394 . S
C1330 C1331 1.369 . S
C1330 C1334 1.531 . S
C1331 C1330 1.369 . S
C1331 C1332 1.410 . S
C1331 C1339 1.503 . S
C1332 C1331 1.410 . S
C1332 C1333 1.392 . S
C1332 C1335 1.511 . S
C1333 C1329 1.376 . S
C1333 C1332 1.392 . S
C1333 H1345 0.929 . S
C1334 C1330 1.531 . S
C1334 H1346 0.960 . S
C1334 H1347 0.962 . S
C1334 H1348 0.960 . S
C1335 C1332 1.511 . S
C1335 H1349 0.961 . S
C1335 H1350 0.961 . S
C1335 H1351 0.980 . S
C1336 C1337 1.370 . S
C1336 C1338 1.363 . S
C1336 H1352 0.931 . S
C1337 C1336 1.370 . S
C1337 C1341 1.408 . S
C1338 C1336 1.363 . S
C1338 C1339 1.370 . S
C1338 C1342 1.524 . S
C1339 C1331 1.503 . S
C1339 C1338 1.370 . S
C1339 C1340 1.403 . S
C1340 C1339 1.403 . S
C1340 C1341 1.404 . S
C1340 C1343 1.539 . S
C1341 C1337 1.408 . S
C1341 C1340 1.404 . S
C1341 H1353 0.930 . S
C1342 C1338 1.524 . S
C1342 H1354 0.956 . S
C1342 H1355 0.961 . S
C1342 H1356 0.961 . S
C1343 C1340 1.539 . S
C1343 H1357 0.958 . S
C1343 H1358 0.961 . S
C1343 H1359 0.960 . S
H1344 C1328 0.931 . S
H1345 C1333 0.929 . S
H1346 C1334 0.960 . S
H1347 C1334 0.962 . S
H1348 C1334 0.960 . S
H1349 C1335 0.961 . S
H1350 C1335 0.961 . S
H1351 C1335 0.980 . S
H1352 C1336 0.931 . S
H1353 C1341 0.930 . S
H1354 C1342 0.956 . S
H1355 C1342 0.961 . S
H1356 C1342 0.961 . S
H1357 C1343 0.958 . S
H1358 C1343 0.961 . S
H1359 C1343 0.960 . S
C1360 C1361 1.391 . S
C1360 C1362 1.394 . S
C1360 H1376 0.931 . S
C1361 C1360 1.391 . S
C1361 C1365 1.376 . S
C1362 C1360 1.394 . S
C1362 C1363 1.369 . S
C1362 C1366 1.531 . S
C1363 C1362 1.369 . S
C1363 C1364 1.410 . S
C1363 C1371 1.503 . S
C1364 C1363 1.410 . S
C1364 C1365 1.392 . S
C1364 C1367 1.511 . S
C1365 C1361 1.376 . S
C1365 C1364 1.392 . S
C1365 H1377 0.929 . S
C1366 C1362 1.531 . S
C1366 H1378 0.960 . S
C1366 H1379 0.962 . S
C1366 H1380 0.960 . S
C1367 C1364 1.511 . S
C1367 H1381 0.961 . S
C1367 H1382 0.961 . S
C1367 H1383 0.961 . S
C1368 C1369 1.370 . S
C1368 C1370 1.363 . S
C1368 H1384 0.931 . S
C1369 C1368 1.370 . S
C1369 C1373 1.408 . S
C1370 C1368 1.363 . S
C1370 C1371 1.370 . S
C1370 C1374 1.524 . S
C1371 C1363 1.503 . S
C1371 C1370 1.370 . S
C1371 C1372 1.403 . S
C1372 C1371 1.403 . S
C1372 C1373 1.404 . S
C1372 C1375 1.539 . S
C1373 C1369 1.408 . S
C1373 C1372 1.404 . S
C1373 H1385 0.930 . S
C1374 C1370 1.524 . S
C1374 H1386 0.956 . S
C1374 H1387 0.961 . S
C1374 H1388 0.961 . S
C1375 C1372 1.539 . S
C1375 H1389 0.958 . S
C1375 H1390 0.961 . S
C1375 H1391 0.960 . S
H1376 C1360 0.931 . S
H1377 C1365 0.929 . S
H1378 C1366 0.960 . S
H1379 C1366 0.962 . S
H1380 C1366 0.960 . S
H1381 C1367 0.961 . S
H1382 C1367 0.961 . S
H1383 C1367 0.961 . S
H1384 C1368 0.931 . S
H1385 C1373 0.930 . S
H1386 C1374 0.956 . S
H1387 C1374 0.961 . S
H1388 C1374 0.961 . S
H1389 C1375 0.958 . S
H1390 C1375 0.961 . S
H1391 C1375 0.960 . S
C1392 C1393 1.391 . S
C1392 C1394 1.394 . S
C1392 H1408 0.931 1_556 S
C1393 C1392 1.391 . S
C1393 C1397 1.376 . S
C1394 C1392 1.394 . S
C1394 C1395 1.369 . S
C1394 C1398 1.531 . S
C1395 C1394 1.369 . S
C1395 C1396 1.410 . S
C1395 C1403 1.503 . S
C1396 C1395 1.410 . S
C1396 C1397 1.392 . S
C1396 C1399 1.511 . S
C1397 C1393 1.376 . S
C1397 C1396 1.392 . S
C1397 H1409 0.929 . S
C1398 C1394 1.531 . S
C1398 H1410 0.960 . S
C1398 H1411 0.962 . S
C1398 H1412 0.960 1_556 S
C1399 C1396 1.511 . S
C1399 H1413 0.961 . S
C1399 H1414 0.961 . S
C1399 H1415 0.961 . S
C1400 C1401 1.370 . S
C1400 C1402 1.363 . S
C1400 H1416 0.931 . S
C1401 C1400 1.370 . S
C1401 C1405 1.408 . S
C1402 C1400 1.363 . S
C1402 C1403 1.370 . S
C1402 C1406 1.524 . S
C1403 C1395 1.503 . S
C1403 C1402 1.370 . S
C1403 C1404 1.403 . S
C1404 C1403 1.403 . S
C1404 C1405 1.404 . S
C1404 C1407 1.539 . S
C1405 C1401 1.408 . S
C1405 C1404 1.404 . S
C1405 H1417 0.930 . S
C1406 C1402 1.524 . S
C1406 H1418 0.956 . S
C1406 H1419 0.961 . S
C1406 H1420 0.961 . S
C1407 C1404 1.539 . S
C1407 H1421 0.958 . S
C1407 H1422 0.961 . S
C1407 H1423 0.960 . S
H1408 C1392 0.931 1_554 S
H1409 C1397 0.929 . S
H1410 C1398 0.960 . S
H1411 C1398 0.962 . S
H1412 C1398 0.960 1_554 S
H1413 C1399 0.961 . S
H1414 C1399 0.961 . S
H1415 C1399 0.961 . S
H1416 C1400 0.931 . S
H1417 C1405 0.930 . S
H1418 C1406 0.956 . S
H1419 C1406 0.961 . S
H1420 C1406 0.961 . S
H1421 C1407 0.958 . S
H1422 C1407 0.961 . S
H1423 C1407 0.960 . S
C1424 C1425 1.391 . S
C1424 C1426 1.394 . S
C1424 H1440 0.931 . S
C1425 C1424 1.391 . S
C1425 C1429 1.376 . S
C1426 C1424 1.394 . S
C1426 C1427 1.369 . S
C1426 C1430 1.531 . S
C1427 C1426 1.369 . S
C1427 C1428 1.410 . S
C1427 C1435 1.503 . S
C1428 C1427 1.410 . S
C1428 C1429 1.392 . S
C1428 C1431 1.511 . S
C1429 C1425 1.376 . S
C1429 C1428 1.392 . S
C1429 H1441 0.929 . S
C1430 C1426 1.531 . S
C1430 H1442 0.960 . S
C1430 H1443 0.962 . S
C1430 H1444 0.960 . S
C1431 C1428 1.511 . S
C1431 H1445 0.961 . S
C1431 H1446 0.961 . S
C1431 H1447 0.961 . S
C1432 C1433 1.370 . S
C1432 C1434 1.363 . S
C1432 H1448 0.931 . S
C1433 C1432 1.370 . S
C1433 C1437 1.408 . S
C1434 C1432 1.363 . S
C1434 C1435 1.370 . S
C1434 C1438 1.524 . S
C1435 C1427 1.503 . S
C1435 C1434 1.370 . S
C1435 C1436 1.403 . S
C1436 C1435 1.403 . S
C1436 C1437 1.404 . S
C1436 C1439 1.539 . S
C1437 C1433 1.408 . S
C1437 C1436 1.404 . S
C1437 H1449 0.930 . S
C1438 C1434 1.524 . S
C1438 H1450 0.956 . S
C1438 H1451 0.961 . S
C1438 H1452 0.961 . S
C1439 C1436 1.539 . S
C1439 H1453 0.958 . S
C1439 H1454 0.961 . S
C1439 H1455 0.960 . S
H1440 C1424 0.931 . S
H1441 C1429 0.929 . S
H1442 C1430 0.960 . S
H1443 C1430 0.962 . S
H1444 C1430 0.960 . S
H1445 C1431 0.961 . S
H1446 C1431 0.961 . S
H1447 C1431 0.961 . S
H1448 C1432 0.931 . S
H1449 C1437 0.930 . S
H1450 C1438 0.956 . S
H1451 C1438 0.961 . S
H1452 C1438 0.961 . S
H1453 C1439 0.958 . S
H1454 C1439 0.961 . S
H1455 C1439 0.960 . S
C1456 C1457 1.391 . S
C1456 C1458 1.394 . S
C1456 H1472 0.931 . S
C1457 C1456 1.391 . S
C1457 C1461 1.376 . S
C1458 C1456 1.394 . S
C1458 C1459 1.369 . S
C1458 C1462 1.531 . S
C1459 C1458 1.369 . S
C1459 C1460 1.410 . S
C1459 C1467 1.503 . S
C1460 C1459 1.410 . S
C1460 C1461 1.392 . S
C1460 C1463 1.511 . S
C1461 C1457 1.376 . S
C1461 C1460 1.392 . S
C1461 H1473 0.929 . S
C1462 C1458 1.531 . S
C1462 H1474 0.960 . S
C1462 H1475 0.962 . S
C1462 H1476 0.960 . S
C1463 C1460 1.511 . S
C1463 H1477 0.961 . S
C1463 H1478 0.961 . S
C1463 H1479 0.961 . S
C1464 C1465 1.370 . S
C1464 C1466 1.363 . S
C1464 H1480 0.931 . S
C1465 C1464 1.370 . S
C1465 C1469 1.408 . S
C1466 C1464 1.363 . S
C1466 C1467 1.370 . S
C1466 C1470 1.524 . S
C1467 C1459 1.503 . S
C1467 C1466 1.370 . S
C1467 C1468 1.403 . S
C1468 C1467 1.403 . S
C1468 C1469 1.404 . S
C1468 C1471 1.539 . S
C1469 C1465 1.408 . S
C1469 C1468 1.404 . S
C1469 H1481 0.930 . S
C1470 C1466 1.524 . S
C1470 H1482 0.956 . S
C1470 H1483 0.961 . S
C1470 H1484 0.961 . S
C1471 C1468 1.539 . S
C1471 H1485 0.958 . S
C1471 H1486 0.961 . S
C1471 H1487 0.960 . S
H1472 C1456 0.931 . S
H1473 C1461 0.929 . S
H1474 C1462 0.960 . S
H1475 C1462 0.962 . S
H1476 C1462 0.960 . S
H1477 C1463 0.961 . S
H1478 C1463 0.961 . S
H1479 C1463 0.961 . S
H1480 C1464 0.931 . S
H1481 C1469 0.930 . S
H1482 C1470 0.956 . S
H1483 C1470 0.961 . S
H1484 C1470 0.961 . S
H1485 C1471 0.958 . S
H1486 C1471 0.961 . S
H1487 C1471 0.960 . S
C1488 C1489 1.391 . S
C1488 C1490 1.394 . S
C1488 H1504 0.931 . S
C1489 C1488 1.391 . S
C1489 C1493 1.376 . S
C1490 C1488 1.394 . S
C1490 C1491 1.369 . S
C1490 C1494 1.531 . S
C1491 C1490 1.369 . S
C1491 C1492 1.410 . S
C1491 C1499 1.503 . S
C1492 C1491 1.410 . S
C1492 C1493 1.392 . S
C1492 C1495 1.511 . S
C1493 C1489 1.376 . S
C1493 C1492 1.392 . S
C1493 H1505 0.929 . S
C1494 C1490 1.531 . S
C1494 H1506 0.960 . S
C1494 H1507 0.962 . S
C1494 H1508 0.960 . S
C1495 C1492 1.511 . S
C1495 H1509 0.961 . S
C1495 H1510 0.961 . S
C1495 H1511 0.961 . S
C1496 C1497 1.370 . S
C1496 C1498 1.363 . S
C1496 H1512 0.931 . S
C1497 C1496 1.370 . S
C1497 C1501 1.408 . S
C1498 C1496 1.363 . S
C1498 C1499 1.370 . S
C1498 C1502 1.524 . S
C1499 C1491 1.503 . S
C1499 C1498 1.370 . S
C1499 C1500 1.403 . S
C1500 C1499 1.403 . S
C1500 C1501 1.404 . S
C1500 C1503 1.539 . S
C1501 C1497 1.408 . S
C1501 C1500 1.404 . S
C1501 H1513 0.930 . S
C1502 C1498 1.524 . S
C1502 H1514 0.956 . S
C1502 H1515 0.961 . S
C1502 H1516 0.961 . S
C1503 C1500 1.539 . S
C1503 H1517 0.958 . S
C1503 H1518 0.961 . S
C1503 H1519 0.960 . S
H1504 C1488 0.931 . S
H1505 C1493 0.929 . S
H1506 C1494 0.960 . S
H1507 C1494 0.962 . S
H1508 C1494 0.960 . S
H1509 C1495 0.961 . S
H1510 C1495 0.961 . S
H1511 C1495 0.961 . S
H1512 C1496 0.931 . S
H1513 C1501 0.930 . S
H1514 C1502 0.956 . S
H1515 C1502 0.961 . S
H1516 C1502 0.961 . S
H1517 C1503 0.958 . S
H1518 C1503 0.961 . S
H1519 C1503 0.960 . S
C1520 C1521 1.391 . S
C1520 C1522 1.394 . S
C1520 H1536 0.931 . S
C1521 C1520 1.391 . S
C1521 C1525 1.376 . S
C1522 C1520 1.394 . S
C1522 C1523 1.369 . S
C1522 C1526 1.531 . S
C1523 C1522 1.369 . S
C1523 C1524 1.410 . S
C1523 C1531 1.503 . S
C1524 C1523 1.410 . S
C1524 C1525 1.392 . S
C1524 C1527 1.511 . S
C1525 C1521 1.376 . S
C1525 C1524 1.392 . S
C1525 H1537 0.929 . S
C1526 C1522 1.531 . S
C1526 H1538 0.960 . S
C1526 H1539 0.962 . S
C1526 H1540 0.960 . S
C1527 C1524 1.511 . S
C1527 H1541 0.961 . S
C1527 H1542 0.961 . S
C1527 H1543 0.961 . S
C1528 C1529 1.370 . S
C1528 C1530 1.363 . S
C1528 H1544 0.931 . S
C1529 C1528 1.370 . S
C1529 C1533 1.408 . S
C1530 C1528 1.363 . S
C1530 C1531 1.370 . S
C1530 C1534 1.524 . S
C1531 C1523 1.503 . S
C1531 C1530 1.370 . S
C1531 C1532 1.403 . S
C1532 C1531 1.403 . S
C1532 C1533 1.404 . S
C1532 C1535 1.539 . S
C1533 C1529 1.408 . S
C1533 C1532 1.404 . S
C1533 H1545 0.930 . S
C1534 C1530 1.524 . S
C1534 H1546 0.956 . S
C1534 H1547 0.961 . S
C1534 H1548 0.961 . S
C1535 C1532 1.539 . S
C1535 H1549 0.958 . S
C1535 H1550 0.961 . S
C1535 H1551 0.960 . S
H1536 C1520 0.931 . S
H1537 C1525 0.929 . S
H1538 C1526 0.960 . S
H1539 C1526 0.962 . S
H1540 C1526 0.960 . S
H1541 C1527 0.961 . S
H1542 C1527 0.961 . S
H1543 C1527 0.961 . S
H1544 C1528 0.931 . S
H1545 C1533 0.930 . S
H1546 C1534 0.956 . S
H1547 C1534 0.961 . S
H1548 C1534 0.961 . S
H1549 C1535 0.958 . S
H1550 C1535 0.961 . S
H1551 C1535 0.960 . S
C1552 C1553 1.391 . S
C1552 C1554 1.394 . S
C1552 H1568 0.931 . S
C1553 C1552 1.391 . S
C1553 C1557 1.376 . S
C1554 C1552 1.394 . S
C1554 C1555 1.369 . S
C1554 C1558 1.531 . S
C1555 C1554 1.369 . S
C1555 C1556 1.410 . S
C1555 C1563 1.503 . S
C1556 C1555 1.410 . S
C1556 C1557 1.392 . S
C1556 C1559 1.511 . S
C1557 C1553 1.376 . S
C1557 C1556 1.392 . S
C1557 H1569 0.929 . S
C1558 C1554 1.531 . S
C1558 H1570 0.960 . S
C1558 H1571 0.962 . S
C1558 H1572 0.960 . S
C1559 C1556 1.511 . S
C1559 H1573 0.961 . S
C1559 H1574 0.961 . S
C1559 H1575 0.961 . S
C1560 C1561 1.370 . S
C1560 C1562 1.363 . S
C1560 H1576 0.931 . S
C1561 C1560 1.370 . S
C1561 C1565 1.408 . S
C1562 C1560 1.363 . S
C1562 C1563 1.370 . S
C1562 C1566 1.524 . S
C1563 C1555 1.503 . S
C1563 C1562 1.370 . S
C1563 C1564 1.403 . S
C1564 C1563 1.403 . S
C1564 C1565 1.404 . S
C1564 C1567 1.539 . S
C1565 C1561 1.408 . S
C1565 C1564 1.404 . S
C1565 H1577 0.930 . S
C1566 C1562 1.524 . S
C1566 H1578 0.956 . S
C1566 H1579 0.961 . S
C1566 H1580 0.961 . S
C1567 C1564 1.539 . S
C1567 H1581 0.958 . S
C1567 H1582 0.961 . S
C1567 H1583 0.960 . S
H1568 C1552 0.931 . S
H1569 C1557 0.929 . S
H1570 C1558 0.960 . S
H1571 C1558 0.962 . S
H1572 C1558 0.960 . S
H1573 C1559 0.961 . S
H1574 C1559 0.961 . S
H1575 C1559 0.961 . S
H1576 C1560 0.931 . S
H1577 C1565 0.930 . S
H1578 C1566 0.956 . S
H1579 C1566 0.961 . S
H1580 C1566 0.961 . S
H1581 C1567 0.958 . S
H1582 C1567 0.961 . S
H1583 C1567 0.960 . S
C1584 C1585 1.391 . S
C1584 C1586 1.394 . S
C1584 H1600 0.931 . S
C1585 C1584 1.391 . S
C1585 C1589 1.376 . S
C1586 C1584 1.394 . S
C1586 C1587 1.369 . S
C1586 C1590 1.531 . S
C1587 C1586 1.369 . S
C1587 C1588 1.410 . S
C1587 C1595 1.503 . S
C1588 C1587 1.410 . S
C1588 C1589 1.392 . S
C1588 C1591 1.511 . S
C1589 C1585 1.376 . S
C1589 C1588 1.392 . S
C1589 H1601 0.929 . S
C1590 C1586 1.531 . S
C1590 H1602 0.960 . S
C1590 H1603 0.962 . S
C1590 H1604 0.960 . S
C1591 C1588 1.511 . S
C1591 H1605 0.961 . S
C1591 H1606 0.961 . S
C1591 H1607 0.961 . S
C1592 C1593 1.370 . S
C1592 C1594 1.363 . S
C1592 H1608 0.931 . S
C1593 C1592 1.370 . S
C1593 C1597 1.408 . S
C1594 C1592 1.363 . S
C1594 C1595 1.370 . S
C1594 C1598 1.524 . S
C1595 C1587 1.503 . S
C1595 C1594 1.370 . S
C1595 C1596 1.403 . S
C1596 C1595 1.403 . S
C1596 C1597 1.404 . S
C1596 C1599 1.539 . S
C1597 C1593 1.408 . S
C1597 C1596 1.404 . S
C1597 H1609 0.930 . S
C1598 C1594 1.524 . S
C1598 H1610 0.956 . S
C1598 H1611 0.961 . S
C1598 H1612 0.961 . S
C1599 C1596 1.539 . S
C1599 H1613 0.958 . S
C1599 H1614 0.961 . S
C1599 H1615 0.960 . S
H1600 C1584 0.931 . S
H1601 C1589 0.929 . S
H1602 C1590 0.960 . S
H1603 C1590 0.962 . S
H1604 C1590 0.960 . S
H1605 C1591 0.961 . S
H1606 C1591 0.961 . S
H1607 C1591 0.961 . S
H1608 C1592 0.931 . S
H1609 C1597 0.930 . S
H1610 C1598 0.956 . S
H1611 C1598 0.961 . S
H1612 C1598 0.961 . S
H1613 C1599 0.958 . S
H1614 C1599 0.961 . S
H1615 C1599 0.960 . S
C1616 C1617 1.391 . S
C1616 C1618 1.394 . S
C1616 H1632 0.931 . S
C1617 C1616 1.391 . S
C1617 C1621 1.376 . S
C1618 C1616 1.394 . S
C1618 C1619 1.369 . S
C1618 C1622 1.531 . S
C1619 C1618 1.369 . S
C1619 C1620 1.410 . S
C1619 C1627 1.503 . S
C1620 C1619 1.410 . S
C1620 C1621 1.392 . S
C1620 C1623 1.511 . S
C1621 C1617 1.376 . S
C1621 C1620 1.392 . S
C1621 H1633 0.929 . S
C1622 C1618 1.531 . S
C1622 H1634 0.960 . S
C1622 H1635 0.962 . S
C1622 H1636 0.960 . S
C1623 C1620 1.511 . S
C1623 H1637 0.961 . S
C1623 H1638 0.961 . S
C1623 H1639 0.961 . S
C1624 C1625 1.370 . S
C1624 C1626 1.363 . S
C1624 H1640 0.931 . S
C1625 C1624 1.370 . S
C1625 C1629 1.408 . S
C1626 C1624 1.363 . S
C1626 C1627 1.370 . S
C1626 C1630 1.524 . S
C1627 C1619 1.503 . S
C1627 C1626 1.370 . S
C1627 C1628 1.403 . S
C1628 C1627 1.403 . S
C1628 C1629 1.404 . S
C1628 C1631 1.539 . S
C1629 C1625 1.408 . S
C1629 C1628 1.404 . S
C1629 H1641 0.930 . S
C1630 C1626 1.524 . S
C1630 H1642 0.956 . S
C1630 H1643 0.961 . S
C1630 H1644 0.961 . S
C1631 C1628 1.539 . S
C1631 H1645 0.958 . S
C1631 H1646 0.961 . S
C1631 H1647 0.960 . S
H1632 C1616 0.931 . S
H1633 C1621 0.929 . S
H1634 C1622 0.960 . S
H1635 C1622 0.962 . S
H1636 C1622 0.960 . S
H1637 C1623 0.961 . S
H1638 C1623 0.961 . S
H1639 C1623 0.961 . S
H1640 C1624 0.931 . S
H1641 C1629 0.930 . S
H1642 C1630 0.956 . S
H1643 C1630 0.961 . S
H1644 C1630 0.961 . S
H1645 C1631 0.958 . S
H1646 C1631 0.961 . S
H1647 C1631 0.960 . S
C1648 C1649 1.391 . S
C1648 C1650 1.394 . S
C1648 H1664 0.931 . S
C1649 C1648 1.391 . S
C1649 C1653 1.376 . S
C1650 C1648 1.394 . S
C1650 C1651 1.369 . S
C1650 C1654 1.531 . S
C1651 C1650 1.369 . S
C1651 C1652 1.410 . S
C1651 C1659 1.503 . S
C1652 C1651 1.410 . S
C1652 C1653 1.392 . S
C1652 C1655 1.511 . S
C1653 C1649 1.376 . S
C1653 C1652 1.392 . S
C1653 H1665 0.929 . S
C1654 C1650 1.531 . S
C1654 H1666 0.960 . S
C1654 H1667 0.962 . S
C1654 H1668 0.960 . S
C1655 C1652 1.511 . S
C1655 H1669 0.961 . S
C1655 H1670 0.961 . S
C1655 H1671 0.961 . S
C1656 C1657 1.370 . S
C1656 C1658 1.363 . S
C1656 H1672 0.931 . S
C1657 C1656 1.370 . S
C1657 C1661 1.408 . S
C1658 C1656 1.363 . S
C1658 C1659 1.370 . S
C1658 C1662 1.524 . S
C1659 C1651 1.503 . S
C1659 C1658 1.370 . S
C1659 C1660 1.403 . S
C1660 C1659 1.403 . S
C1660 C1661 1.404 . S
C1660 C1663 1.539 . S
C1661 C1657 1.408 . S
C1661 C1660 1.404 . S
C1661 H1673 0.930 . S
C1662 C1658 1.524 . S
C1662 H1674 0.956 . S
C1662 H1675 0.961 . S
C1662 H1676 0.961 . S
C1663 C1660 1.539 . S
C1663 H1677 0.958 . S
C1663 H1678 0.961 . S
C1663 H1679 0.960 . S
H1664 C1648 0.931 . S
H1665 C1653 0.929 . S
H1666 C1654 0.960 . S
H1667 C1654 0.962 . S
H1668 C1654 0.960 . S
H1669 C1655 0.961 . S
H1670 C1655 0.961 . S
H1671 C1655 0.961 . S
H1672 C1656 0.931 . S
H1673 C1661 0.930 . S
H1674 C1662 0.956 . S
H1675 C1662 0.961 . S
H1676 C1662 0.961 . S
H1677 C1663 0.958 . S
H1678 C1663 0.961 . S
H1679 C1663 0.960 . S
C1680 C1681 1.391 . S
C1680 C1682 1.394 . S
C1680 H1696 0.931 . S
C1681 C1680 1.391 . S
C1681 C1685 1.376 . S
C1682 C1680 1.394 . S
C1682 C1683 1.369 . S
C1682 C1686 1.531 . S
C1683 C1682 1.369 . S
C1683 C1684 1.410 . S
C1683 C1691 1.503 . S
C1684 C1683 1.410 . S
C1684 C1685 1.392 . S
C1684 C1687 1.511 . S
C1685 C1681 1.376 . S
C1685 C1684 1.392 . S
C1685 H1697 0.929 . S
C1686 C1682 1.531 . S
C1686 H1698 0.960 . S
C1686 H1699 0.962 . S
C1686 H1700 0.960 . S
C1687 C1684 1.511 . S
C1687 H1701 0.977 . S
C1687 H1702 0.961 . S
C1687 H1703 0.961 . S
C1688 C1689 1.370 . S
C1688 C1690 1.363 . S
C1688 H1704 0.931 . S
C1689 C1688 1.370 . S
C1689 C1693 1.408 . S
C1690 C1688 1.363 . S
C1690 C1691 1.370 . S
C1690 C1694 1.524 . S
C1691 C1683 1.503 . S
C1691 C1690 1.370 . S
C1691 C1692 1.403 . S
C1692 C1691 1.403 . S
C1692 C1693 1.404 . S
C1692 C1695 1.539 . S
C1693 C1689 1.408 . S
C1693 C1692 1.404 . S
C1693 H1705 0.930 . S
C1694 C1690 1.524 . S
C1694 H1706 0.956 . S
C1694 H1707 0.961 . S
C1694 H1708 0.961 . S
C1695 C1692 1.539 . S
C1695 H1709 0.958 . S
C1695 H1710 0.961 . S
C1695 H1711 0.960 . S
H1696 C1680 0.931 . S
H1697 C1685 0.929 . S
H1698 C1686 0.960 . S
H1699 C1686 0.962 . S
H1700 C1686 0.960 . S
H1701 C1687 0.977 . S
H1702 C1687 0.961 . S
H1703 C1687 0.961 . S
H1704 C1688 0.931 . S
H1705 C1693 0.930 . S
H1706 C1694 0.956 . S
H1707 C1694 0.961 . S
H1708 C1694 0.961 . S
H1709 C1695 0.958 . S
H1710 C1695 0.961 . S
H1711 C1695 0.960 . S
C1712 C1713 1.391 . S
C1712 C1714 1.394 . S
C1712 H1728 0.931 . S
C1713 C1712 1.391 . S
C1713 C1717 1.376 . S
C1714 C1712 1.394 . S
C1714 C1715 1.369 . S
C1714 C1718 1.531 . S
C1715 C1714 1.369 . S
C1715 C1716 1.410 . S
C1715 C1723 1.503 . S
C1716 C1715 1.410 . S
C1716 C1717 1.392 . S
C1716 C1719 1.511 . S
C1717 C1713 1.376 . S
C1717 C1716 1.392 . S
C1717 H1729 0.929 . S
C1718 C1714 1.531 . S
C1718 H1730 0.960 . S
C1718 H1731 0.962 . S
C1718 H1732 0.960 . S
C1719 C1716 1.511 . S
C1719 H1733 0.961 . S
C1719 H1734 0.961 . S
C1719 H1735 0.961 . S
C1720 C1721 1.370 . S
C1720 C1722 1.363 . S
C1720 H1736 0.931 . S
C1721 C1720 1.370 . S
C1721 C1725 1.408 . S
C1722 C1720 1.363 . S
C1722 C1723 1.370 . S
C1722 C1726 1.524 . S
C1723 C1715 1.503 . S
C1723 C1722 1.370 . S
C1723 C1724 1.403 . S
C1724 C1723 1.403 . S
C1724 C1725 1.404 . S
C1724 C1727 1.539 . S
C1725 C1721 1.408 . S
C1725 C1724 1.404 . S
C1725 H1737 0.930 . S
C1726 C1722 1.524 . S
C1726 H1738 0.956 . S
C1726 H1739 0.961 . S
C1726 H1740 0.961 . S
C1727 C1724 1.539 . S
C1727 H1741 0.958 . S
C1727 H1742 0.961 . S
C1727 H1743 0.960 . S
H1728 C1712 0.931 . S
H1729 C1717 0.929 . S
H1730 C1718 0.960 . S
H1731 C1718 0.962 . S
H1732 C1718 0.960 . S
H1733 C1719 0.961 . S
H1734 C1719 0.961 . S
H1735 C1719 0.961 . S
H1736 C1720 0.931 . S
H1737 C1725 0.930 . S
H1738 C1726 0.956 . S
H1739 C1726 0.961 . S
H1740 C1726 0.961 . S
H1741 C1727 0.958 . S
H1742 C1727 0.961 . S
H1743 C1727 0.960 . S
C1744 C1745 1.391 . S
C1744 C1746 1.394 . S
C1744 H1760 0.931 . S
C1745 C1744 1.391 . S
C1745 C1749 1.376 . S
C1746 C1744 1.394 . S
C1746 C1747 1.369 . S
C1746 C1750 1.531 . S
C1747 C1746 1.369 . S
C1747 C1748 1.410 . S
C1747 C1755 1.503 . S
C1748 C1747 1.410 . S
C1748 C1749 1.392 . S
C1748 C1751 1.511 . S
C1749 C1745 1.376 . S
C1749 C1748 1.392 . S
C1749 H1761 0.929 . S
C1750 C1746 1.531 . S
C1750 H1762 0.960 . S
C1750 H1763 0.962 . S
C1750 H1764 0.960 . S
C1751 C1748 1.511 . S
C1751 H1765 0.961 . S
C1751 H1766 0.961 . S
C1751 H1767 0.961 . S
C1752 C1753 1.370 . S
C1752 C1754 1.363 . S
C1752 H1768 0.931 . S
C1753 C1752 1.370 . S
C1753 C1757 1.408 . S
C1754 C1752 1.363 . S
C1754 C1755 1.370 . S
C1754 C1758 1.524 . S
C1755 C1747 1.503 . S
C1755 C1754 1.370 . S
C1755 C1756 1.403 . S
C1756 C1755 1.403 . S
C1756 C1757 1.404 . S
C1756 C1759 1.539 . S
C1757 C1753 1.408 . S
C1757 C1756 1.404 . S
C1757 H1769 0.930 . S
C1758 C1754 1.524 . S
C1758 H1770 0.956 . S
C1758 H1771 0.961 . S
C1758 H1772 0.961 . S
C1759 C1756 1.539 . S
C1759 H1773 0.958 . S
C1759 H1774 0.961 . S
C1759 H1775 0.960 . S
H1760 C1744 0.931 . S
H1761 C1749 0.929 . S
H1762 C1750 0.960 . S
H1763 C1750 0.962 . S
H1764 C1750 0.960 . S
H1765 C1751 0.961 . S
H1766 C1751 0.961 . S
H1767 C1751 0.961 . S
H1768 C1752 0.931 . S
H1769 C1757 0.930 . S
H1770 C1758 0.956 . S
H1771 C1758 0.961 . S
H1772 C1758 0.961 . S
H1773 C1759 0.958 . S
H1774 C1759 0.961 . S
H1775 C1759 0.960 . S
C1776 C1777 1.391 . S
C1776 C1778 1.394 . S
C1776 H1792 0.931 . S
C1777 C1776 1.391 . S
C1777 C1781 1.376 . S
C1778 C1776 1.394 . S
C1778 C1779 1.369 . S
C1778 C1782 1.531 . S
C1779 C1778 1.369 . S
C1779 C1780 1.410 . S
C1779 C1787 1.503 . S
C1780 C1779 1.410 . S
C1780 C1781 1.392 . S
C1780 C1783 1.511 . S
C1781 C1777 1.376 . S
C1781 C1780 1.392 . S
C1781 H1793 0.929 . S
C1782 C1778 1.531 . S
C1782 H1794 0.960 . S
C1782 H1795 0.962 . S
C1782 H1796 0.960 . S
C1783 C1780 1.511 . S
C1783 H1797 0.961 . S
C1783 H1798 0.961 . S
C1783 H1799 0.961 . S
C1784 C1785 1.370 . S
C1784 C1786 1.363 . S
C1784 H1800 0.931 . S
C1785 C1784 1.370 . S
C1785 C1789 1.408 . S
C1786 C1784 1.363 . S
C1786 C1787 1.370 . S
C1786 C1790 1.524 . S
C1787 C1779 1.503 . S
C1787 C1786 1.370 . S
C1787 C1788 1.403 . S
C1788 C1787 1.403 . S
C1788 C1789 1.404 . S
C1788 C1791 1.539 . S
C1789 C1785 1.408 . S
C1789 C1788 1.404 . S
C1789 H1801 0.930 . S
C1790 C1786 1.524 . S
C1790 H1802 0.956 . S
C1790 H1803 0.961 . S
C1790 H1804 0.961 . S
C1791 C1788 1.539 . S
C1791 H1805 0.958 . S
C1791 H1806 0.961 . S
C1791 H1807 0.960 . S
H1792 C1776 0.931 . S
H1793 C1781 0.929 . S
H1794 C1782 0.960 . S
H1795 C1782 0.962 . S
H1796 C1782 0.960 . S
H1797 C1783 0.961 . S
H1798 C1783 0.961 . S
H1799 C1783 0.961 . S
H1800 C1784 0.931 . S
H1801 C1789 0.930 . S
H1802 C1790 0.956 . S
H1803 C1790 0.961 . S
H1804 C1790 0.961 . S
H1805 C1791 0.958 . S
H1806 C1791 0.961 . S
H1807 C1791 0.960 . S
C1808 C1809 1.391 . S
C1808 C1810 1.394 . S
C1808 H1824 0.931 . S
C1809 C1808 1.391 . S
C1809 C1813 1.376 . S
C1810 C1808 1.394 . S
C1810 C1811 1.369 . S
C1810 C1814 1.531 . S
C1811 C1810 1.369 . S
C1811 C1812 1.410 . S
C1811 C1819 1.503 . S
C1812 C1811 1.410 . S
C1812 C1813 1.392 . S
C1812 C1815 1.511 . S
C1813 C1809 1.376 . S
C1813 C1812 1.392 . S
C1813 H1825 0.929 . S
C1814 C1810 1.531 . S
C1814 H1826 0.960 . S
C1814 H1827 0.962 . S
C1814 H1828 0.960 . S
C1815 C1812 1.511 . S
C1815 H1829 0.961 . S
C1815 H1830 0.961 . S
C1815 H1831 0.961 . S
C1816 C1817 1.370 . S
C1816 C1818 1.363 . S
C1816 H1832 0.931 . S
C1817 C1816 1.370 . S
C1817 C1821 1.408 . S
C1818 C1816 1.363 . S
C1818 C1819 1.370 . S
C1818 C1822 1.524 . S
C1819 C1811 1.503 . S
C1819 C1818 1.370 . S
C1819 C1820 1.403 . S
C1820 C1819 1.403 . S
C1820 C1821 1.404 . S
C1820 C1823 1.539 . S
C1821 C1817 1.408 . S
C1821 C1820 1.404 . S
C1821 H1833 0.930 . S
C1822 C1818 1.524 . S
C1822 H1834 0.956 . S
C1822 H1835 0.961 . S
C1822 H1836 0.961 . S
C1823 C1820 1.539 . S
C1823 H1837 0.958 . S
C1823 H1838 0.961 . S
C1823 H1839 0.960 . S
H1824 C1808 0.931 . S
H1825 C1813 0.929 . S
H1826 C1814 0.960 . S
H1827 C1814 0.962 . S
H1828 C1814 0.960 . S
H1829 C1815 0.961 . S
H1830 C1815 0.961 . S
H1831 C1815 0.961 . S
H1832 C1816 0.931 . S
H1833 C1821 0.930 . S
H1834 C1822 0.956 . S
H1835 C1822 0.961 . S
H1836 C1822 0.961 . S
H1837 C1823 0.958 . S
H1838 C1823 0.961 . S
H1839 C1823 0.960 . S
C1840 C1841 1.391 . S
C1840 C1842 1.394 . S
C1840 H1856 0.931 . S
C1841 C1840 1.391 . S
C1841 C1845 1.376 . S
C1842 C1840 1.394 . S
C1842 C1843 1.369 . S
C1842 C1846 1.531 . S
C1843 C1842 1.369 . S
C1843 C1844 1.410 . S
C1843 C1851 1.503 . S
C1844 C1843 1.410 . S
C1844 C1845 1.392 . S
C1844 C1847 1.511 . S
C1845 C1841 1.376 . S
C1845 C1844 1.392 . S
C1845 H1857 0.929 . S
C1846 C1842 1.531 . S
C1846 H1858 0.960 . S
C1846 H1859 0.962 . S
C1846 H1860 0.960 . S
C1847 C1844 1.511 . S
C1847 H1861 0.961 . S
C1847 H1862 0.961 . S
C1847 H1863 0.961 . S
C1848 C1849 1.370 . S
C1848 C1850 1.363 . S
C1848 H1864 0.931 . S
C1849 C1848 1.370 . S
C1849 C1853 1.408 . S
C1850 C1848 1.363 . S
C1850 C1851 1.370 . S
C1850 C1854 1.524 . S
C1851 C1843 1.503 . S
C1851 C1850 1.370 . S
C1851 C1852 1.403 . S
C1852 C1851 1.403 . S
C1852 C1853 1.404 . S
C1852 C1855 1.539 . S
C1853 C1849 1.408 . S
C1853 C1852 1.404 . S
C1853 H1865 0.930 . S
C1854 C1850 1.524 . S
C1854 H1866 0.956 . S
C1854 H1867 0.961 . S
C1854 H1868 0.961 . S
C1855 C1852 1.539 . S
C1855 H1869 0.958 . S
C1855 H1870 0.961 . S
C1855 H1871 0.960 . S
H1856 C1840 0.931 . S
H1857 C1845 0.929 . S
H1858 C1846 0.960 . S
H1859 C1846 0.962 . S
H1860 C1846 0.960 . S
H1861 C1847 0.961 . S
H1862 C1847 0.961 . S
H1863 C1847 0.961 . S
H1864 C1848 0.931 . S
H1865 C1853 0.930 . S
H1866 C1854 0.956 . S
H1867 C1854 0.961 . S
H1868 C1854 0.961 . S
H1869 C1855 0.958 . S
H1870 C1855 0.961 . S
H1871 C1855 0.960 . S
C337 C203 1.462 . S
C345 C11 1.442 . S
C369 C21 1.468 . S
C377 C221 1.454 . S
C401 C260 1.494 . S
C409 C36 1.484 . S
C433 C55 1.249 . S
C441 C195 1.270 . S
C465 C209 1.278 . S
C473 C69 1.298 . S
C497 C78 1.496 . S
C505 C218 1.483 . S
C529 C91 1.468 . S
C537 C263 1.454 . S
C561 C109 1.453 . S
C569 C189 1.468 . S
C593 C133 1.468 . S
C601 C123 1.452 . S
C625 C153 1.286 . S
C633 C139 1.274 . S
C657 C147 1.468 . S
C665 C165 1.455 . S
C689 C162 1.471 . S
C697 C120 1.493 . S
C721 C179 1.439 . S
C729 C49 1.469 . S
C753 C63 1.465 . S
C761 C235 1.444 . S
C785 C251 1.320 . S
C793 C27 1.302 . S
C817 C25 1.261 . S
C825 C307 1.216 . S
C849 C137 1.261 . S
C857 C13 1.228 . S
C881 C330 1.287 . S
C889 C50 1.270 . S
C913 C161 1.283 . S
C921 C35 1.276 . S
C945 C301 1.267 . S
C953 C105 1.280 . S
C977 C134 1.289 . S
C985 C92 1.267 . S
C1009 C83 1.242 . S
C1017 C333 1.251 . S
C1041 C67 1.254 . S
C1049 C167 1.207 . S
C1073 C223 1.248 . S
C1081 C277 1.255 . S
C1105 C231 1.283 . S
C1113 C217 1.279 . S
C1137 C193 1.231 . S
C1145 C237 1.202 . S
C1169 C274 1.217 . S
C1177 C190 1.240 . S
C1201 C41 1.245 . S
C1209 C291 1.257 . S
C1233 C151 1.236 . S
C1241 C111 1.214 . S
C1265 C7 1.278 . S
C1273 C315 1.275 . S
C1297 C273 1.468 . S
C1305 C39 1.457 . S
C1329 C8 1.504 . S
C1337 C232 1.495 . S
C1361 C279 1.321 . S
C1369 C97 1.301 . S
C1393 C176 1.455 . S
C1401 C106 1.504 . S
C1425 C81 1.462 . S
C1433 C245 1.470 . S
C1457 C305 1.427 . S
C1465 C287 1.468 . S
C1489 C335 1.324 . S
C1497 C293 1.298 . S
C1521 C319 1.460 . S
C1529 C329 1.470 . S
C1553 C302 1.488 . S
C1561 C316 1.501 . S
C1585 C125 1.178 . S
C1593 C53 1.244 . S
C1617 C22 1.285 . S
C1625 C148 1.270 . S
C1649 C77 1.280 . S
C1657 C119 1.275 . S
C1681 C288 1.216 . S
C1689 C64 1.244 . S
C1713 C95 1.232 . S
C1721 C321 1.206 . S
C1745 C181 1.186 . S
C1753 C207 1.251 . S
C1777 C259 1.268 . S
C1785 C175 1.282 . S
C1809 C249 1.262 . S
C1817 C265 1.218 . S
C1841 C204 1.224 . S
C1849 C246 1.240 . S
