# Generated by pormake.
# Topology snp, (6)-cn, num edge types: 1
# Building blocks:
#     Node 0, Type 0, BuildingBlock: JUFBIX_clean_sbu_0, # of connection points: 6
#     Node 1, Type 0, BuildingBlock: JUFBIX_clean_sbu_0, # of connection points: 6
#     Node 2, Type 0, BuildingBlock: JUFBIX_clean_sbu_0, # of connection points: 6
#     Node 3, Type 0, BuildingBlock: JUFBIX_clean_sbu_0, # of connection points: 6
#     Edge 4, Type (0, 0), BuildingBlock: ZUJKAS_clean_linker_0, # of connection points: 2
#     Edge 5, Type (0, 0), BuildingBlock: ZUJKAS_clean_linker_0, # of connection points: 2
#     Edge 6, Type (0, 0), BuildingBlock: ZUJKAS_clean_linker_0, # of connection points: 2
#     Edge 7, Type (0, 0), BuildingBlock: ZUJKAS_clean_linker_0, # of connection points: 2
#     Edge 8, Type (0, 0), BuildingBlock: ZUJKAS_clean_linker_0, # of connection points: 2
#     Edge 9, Type (0, 0), BuildingBlock: ZUJKAS_clean_linker_0, # of connection points: 2
#     Edge 10, Type (0, 0), BuildingBlock: ZUJKAS_clean_linker_0, # of connection points: 2
#     Edge 11, Type (0, 0), BuildingBlock: ZUJKAS_clean_linker_0, # of connection points: 2
#     Edge 12, Type (0, 0), BuildingBlock: ZUJKAS_clean_linker_0, # of connection points: 2
#     Edge 13, Type (0, 0), BuildingBlock: ZUJKAS_clean_linker_0, # of connection points: 2
#     Edge 14, Type (0, 0), BuildingBlock: ZUJKAS_clean_linker_0, # of connection points: 2
#     Edge 15, Type (0, 0), BuildingBlock: ZUJKAS_clean_linker_0, # of connection points: 2
# Relax obj value: 0.703
# Max RMSD: 0.263
# Mean RMSD: 0.261
data_MOF--net-snp--node1-JUFBIX_clean_sbu_0--edge1-ZUJKAS_clean_linker_0
_symmetry_space_group_name_H-M    P1
_symmetry_Int_Tables_number       1
_symmetry_cell_setting            triclinic
loop_
_symmetry_equiv_pos_as_xyz
'x, y, z'
_cell_length_a     33.892667
_cell_length_b     33.888523
_cell_length_c     34.743008
_cell_angle_alpha  89.530715
_cell_angle_beta   96.41414
_cell_angle_gamma 96.080013
loop_
_atom_site_label
_atom_site_type_symbol
_atom_site_fract_x
_atom_site_fract_y
_atom_site_fract_z
_atom_type_partial_charge
Co0 Co 0.25259 0.06958 0.07908 0.0
C1 C 0.30718 0.03841 0.03801 0.0
Co2 Co 0.22531 0.02405 0.03584 0.0
C3 C 0.26206 0.11197 0.15093 0.0
C4 C 0.30257 0.13838 0.11277 0.0
N5 N 0.27454 0.10754 0.11581 0.0
N6 N 0.28045 0.1447 0.16979 0.0
C7 C 0.30631 0.16127 0.14594 0.0
H8 H 0.23918 0.09178 0.16209 0.0
H9 H 0.31814 0.14465 0.08751 0.0
C10 C 0.17138 0.05343 0.07884 0.0
N11 N 0.20175 0.98564 0.99958 0.0
C12 C 0.20284 0.98385 0.96074 0.0
C13 C 0.17782 0.95302 0.00782 0.0
N14 N 0.18081 0.95118 0.94468 0.0
C15 C 0.16512 0.93184 0.9744 0.0
C16 C 0.24429 -0.00652 0.10937 0.0
O17 O 0.20174 0.07571 0.09314 0.0
O18 O 0.17471 0.03008 0.05125 0.0
O19 O 0.2311 0.98405 0.07459 0.0
O20 O 0.25726 0.0294 0.11721 0.0
O21 O 0.27645 0.01802 0.02127 0.0
H22 H 0.1694 0.94543 0.0363 0.0
H23 H 0.21941 0.00608 0.94458 0.0
O24 O 0.30339 0.06258 0.06485 0.0
O25 O 0.24724 0.10954 0.04093 0.0
O26 O 0.21937 0.06458 0.99835 0.0
C27 C 0.23162 0.1006 0.00673 0.0
H28 H 0.32527 0.18888 0.1512 0.0
H29 H 0.1448 0.90487 0.97201 0.0
Co30 Co 0.03087 0.23646 0.63635 0.0
C31 C 0.03021 0.31178 0.60476 0.0
Co32 Co 0.08288 0.25583 0.60473 0.0
C33 C 0.98831 0.20643 0.70019 0.0
C34 C 0.94928 0.22641 0.65301 0.0
N35 N 0.98792 0.22193 0.66418 0.0
N36 N 0.95145 0.20132 0.71206 0.0
C37 C 0.92684 0.21382 0.6823 0.0
H38 H 0.01531 0.19993 0.71767 0.0
H39 H 0.9382 0.23843 0.62544 0.0
C40 C 0.08455 0.18115 0.63702 0.0
N41 N 0.12653 0.26946 0.57684 0.0
C42 C 0.12712 0.26893 0.53796 0.0
C43 C 0.1654 0.27475 0.59124 0.0
N44 N 0.16461 0.27273 0.52759 0.0
C45 C 0.18875 0.27687 0.56117 0.0
C46 C 0.09575 0.27564 0.68216 0.0
O47 O 0.05121 0.1874 0.64803 0.0
O48 O 0.10292 0.20748 0.61754 0.0
O49 O 0.11177 0.27876 0.65075 0.0
O50 O 0.06044 0.25867 0.6817 0.0
O51 O 0.06261 0.30445 0.59236 0.0
H52 H 0.17635 0.27436 0.62166 0.0
H53 H 0.10055 0.26413 0.51756 0.0
O54 O 0.01147 0.28583 0.62449 0.0
O55 O 0.00128 0.21381 0.59037 0.0
O56 O 0.0529 0.23191 0.55928 0.0
C57 C 0.01758 0.21498 0.55911 0.0
H58 H 0.89482 0.21365 0.68155 0.0
H59 H 0.22101 0.27843 0.56406 0.0
Co60 Co 0.77393 0.98701 0.11168 0.0
C61 C 0.8361 0.93936 0.12437 0.0
Co62 Co 0.76988 0.93537 0.0722 0.0
C63 C 0.79891 0.02995 0.18323 0.0
C64 C 0.7714 0.06675 0.14008 0.0
N65 N 0.78044 0.02932 0.1466 0.0
N66 N 0.80224 0.06632 0.19972 0.0
C67 C 0.78465 0.08949 0.17263 0.0
H68 H 0.81031 0.00424 0.19733 0.0
H69 H 0.75736 0.07717 0.11294 0.0
C70 C 0.70624 0.98177 0.06082 0.0
N71 N 0.76395 0.89302 0.0378 0.0
C72 C 0.78705 0.88675 0.00969 0.0
C73 C 0.73314 0.86423 0.03259 0.0
N74 N 0.7716 0.85568 0.98674 0.0
C75 C 0.73781 0.84119 1.00132 0.0
C76 C 0.7373 0.91761 0.14044 0.0
O77 O 0.72496 0.00257 0.08869 0.0
O78 O 0.72071 0.95129 0.04963 0.0
O79 O 0.74355 0.90368 0.10813 0.0
O80 O 0.74691 0.95438 0.14756 0.0
O81 O 0.8191 0.91936 0.09527 0.0
H82 H 0.70787 0.86131 0.04925 0.0
H83 H 0.81411 0.90542 0.00539 0.0
O84 O 0.82205 0.9704 0.13439 0.0
O85 O 0.8017 0.01938 0.07516 0.0
O86 O 0.79669 0.96768 0.03681 0.0
C87 C 0.80828 0.00406 0.04343 0.0
H88 H 0.78296 0.12103 0.17542 0.0
H89 H 0.71671 0.81722 0.98888 0.0
Co90 Co 0.9413 0.78501 0.52617 0.0
C91 C 0.96338 0.85003 0.48293 0.0
Co92 Co 0.99357 0.77776 0.4952 0.0
C93 C 0.89656 0.78479 0.59144 0.0
C94 C 0.86287 0.80317 0.53985 0.0
N95 N 0.89824 0.79051 0.55317 0.0
N96 N 0.86175 0.79376 0.60274 0.0
C97 C 0.84039 0.8053 0.57029 0.0
H98 H 0.92115 0.7757 0.61089 0.0
H99 H 0.85436 0.81117 0.5101 0.0
C100 C 0.97161 0.71256 0.53805 0.0
N101 N 0.03704 0.77309 0.46786 0.0
C102 C 0.04367 0.78974 0.43337 0.0
C103 C 0.07019 0.75546 0.4793 0.0
N104 N 0.07984 0.78375 0.42296 0.0
C105 C 0.09651 0.76194 0.45183 0.0
C106 C 0.01381 0.81171 0.56844 0.0
O107 O 0.94529 0.73368 0.54733 0.0
O108 O -0.00395 0.72631 0.51488 0.0
O109 O 0.02908 0.79917 0.53956 0.0
O110 O 0.97613 0.80792 0.56807 0.0
O111 O 0.99048 0.82901 0.47584 0.0
H112 H 0.07537 0.73986 0.50638 0.0
H113 H 0.02295 0.80743 0.41701 0.0
O114 O 0.9376 0.83625 0.50477 0.0
O115 O 0.9069 0.7629 0.48425 0.0
O116 O 0.95777 0.75723 0.4516 0.0
C117 C 0.9202 0.75347 0.45327 0.0
H118 H 0.81084 0.81499 0.56869 0.0
H119 H 0.12586 0.75182 0.45341 0.0
H120 H 0.85352 0.94089 0.20224 0.0
H121 H 0.92063 0.94405 0.23715 0.0
H122 H 0.9675 0.9191 0.13036 0.0
H123 H 0.90036 0.91375 0.09615 0.0
H124 H 0.01768 0.89963 0.19583 0.0
H125 H 0.97211 0.05194 0.21162 0.0
H126 H 0.94908 0.01059 0.23657 0.0
H127 H 0.93749 0.01539 0.18501 0.0
C128 C 0.87814 0.9344 0.18676 0.0
C129 C 0.87251 0.92832 0.14645 0.0
C130 C 0.91633 0.93618 0.20671 0.0
C131 C 0.94913 0.93349 0.18605 0.0
C132 C 0.94258 0.92164 0.14688 0.0
H133 H 0.1042 0.00272 0.06086 0.0
H134 H 0.0595 0.97471 0.10651 0.0
C135 C 0.90428 0.91882 0.12716 0.0
C136 C 0.98906 0.95298 0.20026 0.0
H137 H 0.03406 0.04666 0.19029 0.0
C138 C 0.02187 0.93181 0.19667 0.0
C139 C -0.00502 -0.00495 0.20286 0.0
C140 C 0.96171 0.01975 0.20937 0.0
C141 C 0.05787 0.95157 0.18723 0.0
C142 C 0.06054 -0.00695 0.18164 0.0
C143 C 0.03107 0.01464 0.19342 0.0
C144 C 0.08679 0.01227 0.15447 0.0
C145 C 0.09078 0.92751 0.17851 0.0
C146 C 0.11438 0.04497 0.16554 0.0
C147 C 0.13952 0.06169 0.13917 0.0
C148 C 0.13722 0.04579 0.1015 0.0
C149 C 0.10697 0.01544 0.08967 0.0
C150 C 0.08199 -0.00115 0.11597 0.0
H151 H 0.0843 0.91588 0.14844 0.0
H152 H 0.12022 0.94568 0.18124 0.0
H153 H 0.09235 0.90162 0.19825 0.0
H154 H 0.11748 0.05648 0.19485 0.0
H155 H 0.16242 0.08524 0.14914 0.0
H156 H 0.92534 0.90869 0.51138 0.0
H157 H 0.96088 0.97329 0.52884 0.0
H158 H 0.051 0.95246 0.45536 0.0
H159 H 0.01521 0.88818 0.43686 0.0
H160 H 0.04409 0.94319 0.56093 0.0
H161 H 0.04759 0.08143 0.4724 0.0
H162 H 0.00342 0.04621 0.46981 0.0
H163 H 0.04667 0.0336 0.44949 0.0
C164 C 0.95122 0.91884 0.49687 0.0
C165 C 0.96896 0.89269 0.47469 0.0
C166 C 0.97152 0.95583 0.5069 0.0
C167 C 0.00907 0.96656 0.49433 0.0
C168 C 0.02221 0.9442 0.46559 0.0
H169 H 0.15163 0.15716 0.61176 0.0
H170 H 0.15324 0.09159 0.58441 0.0
C171 C 0.00172 0.90738 0.45523 0.0
C172 C 0.0387 0.9912 0.52009 0.0
H173 H 0.08279 0.08511 0.53485 0.0
C174 C 0.05322 0.97416 0.55515 0.0
C175 C 0.05111 0.03083 0.51162 0.0
C176 C 0.03656 0.04945 0.47384 0.0
C177 C 0.0775 -0.00303 0.58363 0.0
C178 C 0.08723 0.03762 0.57661 0.0
C179 C 0.07554 0.05371 0.54007 0.0
C180 C 0.10025 0.06597 0.60845 0.0
C181 C 0.09061 0.97796 0.62166 0.0
C182 C 0.07268 0.07161 0.63468 0.0
C183 C 0.07132 0.1092 0.64999 0.0
C184 C 0.09745 0.14106 0.63886 0.0
C185 C 0.13021 0.13326 0.61963 0.0
C186 C 0.13146 0.09568 0.60421 0.0
H187 H 0.06776 0.98022 0.64183 0.0
H188 H 0.09346 0.94595 0.61763 0.0
H189 H 0.11955 -0.00715 0.63519 0.0
H190 H 0.04837 0.04897 0.63847 0.0
H191 H 0.04644 0.11418 0.66576 0.0
H192 H 0.65886 0.9429 1.00126 0.0
H193 H 0.59094 0.95484 0.97606 0.0
H194 H 0.59715 0.05395 0.05443 0.0
H195 H 0.66515 0.04267 0.07942 0.0
H196 H 0.53125 0.94875 0.02248 0.0
H197 H 0.54208 0.09727 0.95551 0.0
H198 H 0.58448 0.069 0.96457 0.0
H199 H 0.56965 0.09795 1.00271 0.0
C200 C 0.64606 0.96774 0.0126 0.0
C201 C 0.66717 0.99166 0.04259 0.0
C202 C 0.60735 0.97458 0.99803 0.0
C203 C 0.58931 0.00557 0.01299 0.0
C204 C 0.61092 0.03048 0.0418 0.0
H205 H 0.37819 0.07652 0.06901 0.0
H206 H 0.44462 0.06719 0.05255 0.0
C207 C 0.64963 0.02371 0.05637 0.0
C208 C 0.54625 0.00843 1.00309 0.0
H209 H 0.47916 0.07548 0.9807 0.0
C210 C 0.51965 0.97605 0.01227 0.0
C211 C 0.53139 0.04404 0.98967 0.0
C212 C 0.55844 0.07887 0.97717 0.0
C213 C 0.47879 0.97947 0.01166 0.0
C214 C 0.46435 0.01608 1.00098 0.0
C215 C 0.49051 0.04754 0.98906 0.0
C216 C 0.42367 0.02393 0.0074 0.0
C217 C 0.45196 0.94496 0.02529 0.0
C218 C 0.38999 0.00305 0.98696 0.0
C219 C 0.35187 0.00803 0.99653 0.0
C220 C 0.34707 0.03412 0.02655 0.0
C221 C 0.3809 0.05598 0.04595 0.0
C222 C 0.41885 0.0509 0.03643 0.0
H223 H 0.46903 0.92068 0.03759 0.0
H224 H 0.43413 0.95488 0.04764 0.0
H225 H 0.43085 0.93273 1.00049 0.0
H226 H 0.39324 0.98243 0.96415 0.0
H227 H 0.3263 0.99109 0.98081 0.0
H228 H 0.06595 0.37533 0.56867 0.0
H229 H 0.0469 0.44282 0.56591 0.0
H230 H 0.94439 0.40554 0.62552 0.0
H231 H 0.96308 0.33761 0.62848 0.0
H232 H 0.93253 0.45826 0.55665 0.0
H233 H 0.05696 0.51319 0.66702 0.0
H234 H 0.07163 0.48424 0.62896 0.0
H235 H 0.03851 0.46128 0.66154 0.0
C236 C 0.03913 0.3813 0.58087 0.0
C237 C 0.01622 0.35128 0.59912 0.0
C238 C 0.02844 0.41986 0.57942 0.0
C239 C -0.00524 0.42896 0.59617 0.0
C240 C 0.9707 0.39887 0.6128 0.0
H241 H 0.91922 0.67056 0.58162 0.0
H242 H 0.92015 0.60126 0.60241 0.0
C243 C 0.98143 0.3602 0.61439 0.0
C244 C 0.98555 0.47032 0.59672 0.0
H245 H 0.0265 0.56233 0.62745 0.0
C246 C 0.95242 0.48108 0.57271 0.0
C247 C 0.01155 0.49959 0.61811 0.0
C248 C 0.04648 0.48905 0.64567 0.0
C249 C 0.94633 0.5211 0.56725 0.0
C250 C 0.97391 0.55052 0.5867 0.0
C251 C 0.00554 0.53951 0.6126 0.0
C252 C 0.97375 0.59266 0.5765 0.0
C253 C 0.91212 0.53185 0.53888 0.0
C254 C 0.00409 0.61055 0.55593 0.0
C255 C 0.00373 0.64981 0.5441 0.0
C256 C 0.97303 0.67187 0.5528 0.0
C257 C 0.94318 0.65418 0.57441 0.0
C258 C 0.94354 0.6147 0.58617 0.0
H259 H 0.89562 0.50543 0.5235 0.0
H260 H 0.8909 0.54659 0.55455 0.0
H261 H 0.92333 0.5531 0.51709 0.0
H262 H 0.02767 0.59382 0.54835 0.0
H263 H 0.02724 0.66265 0.52768 0.0
H264 H 0.23515 0.29935 0.50131 0.0
H265 H 0.25745 0.28371 0.43907 0.0
H266 H 0.14406 0.21584 0.40565 0.0
H267 H 0.12172 0.23087 0.4676 0.0
H268 H 0.26429 0.20816 0.41081 0.0
H269 H 0.1592 0.28573 0.31097 0.0
H270 H 0.16743 0.29589 0.36235 0.0
H271 H 0.1348 0.25322 0.3441 0.0
C272 C 0.21486 0.28128 0.48064 0.0
C273 C 0.17654 0.26655 0.48959 0.0
C274 C 0.22762 0.27248 0.44503 0.0
C275 C 0.20225 0.24905 0.41749 0.0
C276 C 0.16383 0.23476 0.42606 0.0
H277 H 0.21063 0.13156 0.2017 0.0
H278 H 0.19488 0.15846 0.26227 0.0
C279 C 0.15105 0.2435 0.46162 0.0
C280 C 0.21659 0.23745 0.38076 0.0
H281 H 0.1945 0.2382 0.28243 0.0
C282 C 0.24938 0.21514 0.3827 0.0
C283 C 0.19707 0.24656 0.34413 0.0
C284 C 0.16291 0.27199 0.34012 0.0
C285 C 0.26218 0.20032 0.34904 0.0
C286 C 0.24202 0.20862 0.31246 0.0
C287 C 0.20984 0.23175 0.3105 0.0
C288 C 0.25257 0.19208 0.27596 0.0
C289 C 0.29612 0.1746 0.353 0.0
C290 C 0.29027 0.20215 0.26335 0.0
C291 C 0.2996 0.18646 0.22869 0.0
C292 C 0.27133 0.16047 0.20593 0.0
C293 C 0.2335 0.15075 0.21868 0.0
C294 C 0.22425 0.16643 0.25322 0.0
H295 H 0.30253 0.16394 0.38315 0.0
H296 H 0.28935 0.14848 0.33336 0.0
H297 H 0.32351 0.19207 0.34488 0.0
H298 H 0.31239 0.2224 0.28013 0.0
H299 H 0.329 0.1945 0.21986 0.0
H300 H 0.88835 0.21839 0.74812 0.0
H301 H 0.8677 0.19046 0.80861 0.0
H302 H 0.96839 0.12172 0.82018 0.0
H303 H 0.98931 0.14969 0.75957 0.0
H304 H 0.8458 0.11334 0.82321 0.0
H305 H 0.97462 0.16899 0.92814 0.0
H306 H 0.96657 0.18873 0.87979 0.0
H307 H 0.98857 0.14292 0.88782 0.0
C308 C 0.90617 0.19737 0.76348 0.0
C309 C 0.94043 0.18618 0.74882 0.0
C310 C 0.89445 0.1816 0.79824 0.0
C311 C 0.91673 0.15436 0.81928 0.0
C312 C 0.95122 0.14341 0.80501 0.0
H313 H 0.83064 0.97717 0.97635 0.0
H314 H 0.85784 0.01578 0.92419 0.0
C315 C 0.96309 0.15934 0.77024 0.0
C316 C 0.90215 0.13541 0.85455 0.0
H317 H 0.92838 0.11807 0.95068 0.0
C318 C 0.8638 0.11467 0.85112 0.0
C319 C 0.92539 0.13751 0.89114 0.0
C320 C 0.96592 0.16106 0.89716 0.0
C321 C 0.84848 0.09511 0.88286 0.0
C322 C 0.87237 0.09569 0.919 0.0
C323 C 0.91027 0.11737 0.92286 0.0
C324 C 0.8588 0.07255 0.95244 0.0
C325 C 0.80674 0.07396 0.87744 0.0
C326 C 0.85165 0.09154 0.98641 0.0
C327 C 0.83611 0.06941 0.01665 0.0
C328 C 0.82766 0.02793 0.01336 0.0
C329 C 0.83636 0.00907 0.97982 0.0
C330 C 0.85184 0.0311 0.94982 0.0
H331 H 0.78876 0.08513 0.85171 0.0
H332 H 0.8084 0.04181 0.87302 0.0
H333 H 0.79099 0.0775 0.90337 0.0
H334 H 0.85705 0.12353 0.98906 0.0
H335 H 0.82986 0.08482 0.04212 0.0
H336 H 0.8392 0.75028 0.4475 0.0
H337 H 0.79508 0.75879 0.38892 0.0
H338 H 0.8916 0.74665 0.32014 0.0
H339 H 0.93682 0.7401 0.37925 0.0
H340 H 0.86563 0.81445 0.308 0.0
H341 H 0.73258 0.70512 0.29759 0.0
H342 H 0.74029 0.72695 0.34494 0.0
H343 H 0.77725 0.69794 0.32924 0.0
C344 C 0.85089 0.74809 0.41991 0.0
C345 C 0.8918 0.74548 0.41806 0.0
C346 C 0.82531 0.7525 0.38623 0.0
C347 C 0.83988 0.75339 0.34998 0.0
C348 C 0.8797 0.74618 0.34784 0.0
H349 H 0.72217 0.83689 0.13598 0.0
H350 H 0.73893 0.79181 0.18889 0.0
C351 C 0.90555 0.74238 0.38165 0.0
C352 C 0.81656 0.77037 0.31634 0.0
H353 H 0.72278 0.76991 0.26826 0.0
C354 C 0.83464 0.80407 0.29889 0.0
C355 C 0.77605 0.75704 0.30427 0.0
C356 C 0.75565 0.7195 0.31979 0.0
C357 C 0.8131 0.82568 0.271 0.0
C358 C 0.77189 0.81412 0.26113 0.0
C359 C 0.75406 0.77938 0.27696 0.0
C360 C 0.74812 0.83748 0.23299 0.0
C361 C 0.83473 0.86088 0.25242 0.0
C362 C 0.74435 0.87735 0.241 0.0
C363 C 0.7352 0.90341 0.21076 0.0
C364 C 0.72961 0.88967 0.17228 0.0
C365 C 0.72709 0.84855 0.16527 0.0
C366 C 0.73659 0.82261 0.19549 0.0
H367 H 0.86762 0.85999 0.25628 0.0
H368 H 0.82472 0.86211 0.22092 0.0
H369 H 0.82819 0.88865 0.26598 0.0
H370 H 0.75255 0.88912 0.27003 0.0
H371 H 0.73683 0.9348 0.21722 0.0
H372 H 0.99245 0.86807 0.6143 0.0
H373 H 0.02866 0.89691 0.67367 0.0
H374 H 0.12635 0.82823 0.65985 0.0
H375 H 0.09047 0.80025 0.59903 0.0
H376 H 0.04628 0.85746 0.73688 0.0
H377 H 0.18683 0.93337 0.69254 0.0
H378 H 0.14579 0.91448 0.65775 0.0
H379 H 0.17975 0.8816 0.68016 0.0
C380 C 0.02191 0.85947 0.62356 0.0
C381 C 0.03848 0.83159 0.60217 0.0
C382 C 0.04264 0.87605 0.65757 0.0
C383 C 0.08036 0.86492 0.67147 0.0
C384 C 0.09766 0.83796 0.64951 0.0
H385 H 0.16647 0.87652 0.91601 0.0
H386 H 0.14529 0.85663 0.84886 0.0
C387 C 0.07706 0.82176 0.61486 0.0
C388 C 0.09915 0.8788 0.71064 0.0
H389 H 0.18361 0.92571 0.76085 0.0
C390 C 0.07626 0.87257 0.74192 0.0
C391 C 0.13821 0.89877 0.71748 0.0
C392 C 0.16394 0.90782 0.68514 0.0
C393 C 0.09119 0.88538 0.77955 0.0
C394 C 0.13062 0.90423 0.78664 0.0
C395 C 0.1535 0.911 0.75545 0.0
C396 C 0.14826 0.91649 0.8265 0.0
C397 C 0.06425 0.8791 0.81136 0.0
C398 C 0.15879 0.95673 0.83613 0.0
C399 C 0.17112 0.96825 0.87473 0.0
C400 C 0.17302 0.93967 0.90433 0.0
C401 C 0.16446 0.89932 0.89411 0.0
C402 C 0.1524 0.88789 0.85568 0.0
H403 H 0.03227 0.87412 0.79954 0.0
H404 H 0.07172 0.8525 0.82835 0.0
H405 H 0.06834 0.90496 0.83136 0.0
H406 H 0.15598 0.97933 0.81404 0.0
H407 H 0.17741 -0.00047 0.88163 0.0
H408 H 0.81216 0.90322 0.93807 0.0
H409 H 0.82906 0.8856 0.87448 0.0
H410 H 0.77753 0.7653 0.8894 0.0
H411 H 0.76035 0.7828 0.95332 0.0
H412 H 0.87511 0.82973 0.85034 0.0
H413 H 0.71638 0.79902 0.78847 0.0
H414 H 0.73098 0.82345 0.83458 0.0
H415 H 0.73054 0.77055 0.83065 0.0
C416 C 0.80498 0.87284 0.92822 0.0
C417 C 0.7847 0.84441 0.95073 0.0
C418 C 0.8145 0.86287 0.89173 0.0
C419 C 0.80394 0.82434 0.87698 0.0
C420 C 0.78514 0.79544 0.89992 0.0
H421 H 0.88735 0.74751 0.66247 0.0
H422 H 0.87332 0.75164 0.72982 0.0
C423 C 0.7754 0.80545 0.93641 0.0
C424 C 0.8117 0.81508 0.8371 0.0
H425 H 0.76522 0.78885 0.74729 0.0
C426 C 0.85115 0.82054 0.82781 0.0
C427 C 0.78026 0.80362 0.80774 0.0
C428 C 0.7371 0.79911 0.81561 0.0
C429 C 0.86003 0.81523 0.78982 0.0
C430 C 0.82861 0.80344 0.76054 0.0
C431 C 0.78922 0.79758 0.76991 0.0
C432 C 0.83573 0.79929 0.71956 0.0
C433 C 0.90275 0.82369 0.78109 0.0
C434 C 0.81814 0.82374 0.69128 0.0
C435 C 0.82594 0.82132 0.6528 0.0
C436 C 0.85149 0.79436 0.64186 0.0
C437 C 0.86816 0.7691 0.67011 0.0
C438 C 0.86021 0.77143 0.70859 0.0
H439 H 0.9216 0.8411 0.80459 0.0
H440 H 0.91554 0.7952 0.77804 0.0
H441 H 0.9044 0.84026 0.75351 0.0
H442 H 0.79907 0.84538 0.69917 0.0
H443 H 0.81293 0.84144 0.6319 0.0
H444 H 0.26592 0.00534 0.18693 0.0
H445 H 0.2422 0.96497 0.23995 0.0
H446 H 0.1804 0.87878 0.15772 0.0
H447 H 0.20439 0.91867 0.10445 0.0
H448 H 0.16172 0.94777 0.24868 0.0
H449 H 0.23427 0.80917 0.2407 0.0
H450 H 0.25179 0.85466 0.21765 0.0
H451 H 0.20884 0.824 0.1956 0.0
C452 C 0.24824 0.97724 0.18008 0.0
C453 C 0.23725 0.96521 0.14135 0.0
C454 C 0.2345 0.95431 0.21047 0.0
C455 C 0.20972 0.91874 0.20285 0.0
C456 C 0.20011 0.90572 0.16436 0.0
H457 H 0.04218 0.8077 0.35482 0.0
H458 H 0.07321 0.83973 0.30076 0.0
C459 C 0.21388 0.92863 0.1339 0.0
C460 C 0.19114 0.89727 0.23485 0.0
H461 H 0.18266 0.80834 0.28189 0.0
C462 C 0.16637 0.91731 0.25599 0.0
C463 C 0.19737 0.85761 0.24447 0.0
C464 C 0.22478 0.83511 0.22369 0.0
C465 C 0.14713 0.8986 0.28605 0.0
C466 C 0.15283 0.8587 0.29529 0.0
C467 C 0.17807 0.83881 0.27455 0.0
C468 C 0.13382 0.8376 0.32723 0.0
C469 C 0.12128 0.92192 0.30797 0.0
C470 C 0.15755 0.82472 0.35962 0.0
C471 C 0.13992 0.80647 0.39066 0.0
C472 C 0.09808 0.80049 0.38992 0.0
C473 C 0.07441 0.81246 0.35684 0.0
C474 C 0.09211 0.83076 0.32582 0.0
H475 H 0.12753 0.95439 0.30355 0.0
H476 H 0.08943 0.91317 0.29748 0.0
H477 H 0.12578 0.91564 0.33948 0.0
H478 H 0.18981 0.82965 0.36128 0.0
H479 H 0.15919 0.79808 0.41564 0.0
H480 H 0.06995 0.27016 0.75351 0.0
H481 H 0.11104 0.26577 0.81462 0.0
H482 H 0.21702 0.29823 0.75831 0.0
H483 H 0.17571 0.30108 0.69612 0.0
H484 H 0.22272 0.23141 0.79116 0.0
H485 H 0.17509 0.32568 0.9006 0.0
H486 H 0.13073 0.29993 0.87606 0.0
H487 H 0.16233 0.3339 0.84949 0.0
C488 C 0.10189 0.2777 0.75417 0.0
C489 C 0.11962 0.28515 0.7198 0.0
C490 C 0.12549 0.27568 0.78946 0.0
C491 C 0.16728 0.28187 0.79134 0.0
C492 C 0.18484 0.29337 0.75762 0.0
H493 H 0.2599 0.1794 0.01303 0.0
H494 H 0.25517 0.23015 0.96249 0.0
C495 C 0.16117 0.29502 0.72207 0.0
C496 C 0.19161 0.26774 0.82589 0.0
H497 H 0.19015 0.25793 0.92352 0.0
C498 C 0.21665 0.2383 0.82022 0.0
C499 C 0.18482 0.27707 0.86408 0.0
C500 C 0.16211 0.31126 0.87277 0.0
C501 C 0.231 0.21492 0.851 0.0
C502 C 0.2191 0.22041 0.88813 0.0
C503 C 0.19819 0.25286 0.89475 0.0
C504 C 0.22351 0.18999 0.91868 0.0
C505 C 0.25715 0.18324 0.84299 0.0
C506 C 0.20659 0.15084 0.91098 0.0
C507 C 0.20926 0.12189 0.93958 0.0
C508 C 0.22848 0.1316 0.97672 0.0
C509 C 0.24493 0.17099 0.98465 0.0
C510 C 0.24236 0.2 0.95584 0.0
H511 H 0.27552 0.19238 0.81923 0.0
H512 H 0.27732 0.17662 0.86914 0.0
H513 H 0.23801 0.15564 0.83356 0.0
H514 H 0.19081 0.14272 0.88285 0.0
H515 H 0.19604 0.09193 0.93258 0.0
H516 H 0.78875 0.12797 0.24408 0.0
H517 H 0.8261 0.1507 0.3056 0.0
H518 H 0.90076 0.05574 0.30182 0.0
H519 H 0.86366 0.03286 0.24023 0.0
H520 H 0.87627 0.06557 0.37493 0.0
H521 H 0.93853 0.2093 0.31763 0.0
H522 H 0.88507 0.2009 0.30936 0.0
H523 H 0.91495 0.1692 0.28649 0.0
C524 C 0.81324 0.11202 0.25618 0.0
C525 C 0.82321 0.07867 0.23696 0.0
C526 C 0.83461 0.12508 0.29138 0.0
C527 C 0.86668 0.10534 0.30808 0.0
C528 C 0.87619 0.07151 0.28949 0.0
H529 H 0.04674 0.20586 0.48972 0.0
H530 H 0.01106 0.17686 0.42986 0.0
C531 C 0.85477 0.05835 0.25429 0.0
C532 C 0.89035 0.12013 0.3448 0.0
H533 H 0.9474 0.20135 0.38596 0.0
C534 C 0.89196 0.0952 0.37732 0.0
C535 C 0.91138 0.15857 0.3478 0.0
C536 C 0.91282 0.18595 0.31339 0.0
C537 C 0.91322 0.10799 0.41294 0.0
C538 C 0.9329 0.14703 0.41634 0.0
C539 C 0.93201 0.17159 0.38355 0.0
C540 C 0.95478 0.16311 0.45346 0.0
C541 C 0.91473 0.07934 0.44642 0.0
C542 C 0.93507 0.16522 0.48678 0.0
C543 C 0.95548 0.18171 0.52119 0.0
C544 C -0.00406 0.19684 0.5229 0.0
C545 C 0.01557 0.19467 0.48947 0.0
C546 C -0.00479 0.17805 0.45516 0.0
H547 H 0.90985 0.04803 0.4362 0.0
H548 H 0.94376 0.08387 0.46487 0.0
H549 H 0.8907 0.08415 0.46455 0.0
H550 H 0.9037 0.15468 0.48603 0.0
H551 H 0.93939 0.18304 0.54631 0.0
loop_
_geom_bond_atom_site_label_1
_geom_bond_atom_site_label_2
_geom_bond_distance
_geom_bond_site_symmetry_2
_ccdc_geom_bond_type
Co0 N5 2.057 . S
Co0 O17 2.021 . S
Co0 O20 2.062 . S
Co0 O24 2.117 . S
Co0 O25 2.020 . S
C1 O21 1.259 . S
C1 O24 1.258 . S
Co2 N11 2.062 1_554 S
Co2 O18 2.114 1_565 S
Co2 O19 2.024 . S
Co2 O21 2.021 1_565 S
Co2 O26 2.055 1_564 S
C3 N5 1.316 . S
C3 N6 1.347 . S
C3 H8 0.931 . S
C4 N5 1.375 . S
C4 C7 1.350 . S
C4 H9 0.930 . S
N5 Co0 2.057 . S
N5 C3 1.316 . S
N5 C4 1.375 . S
N6 C3 1.347 . S
N6 C7 1.373 . S
C7 C4 1.350 . S
C7 N6 1.373 . S
C7 H28 0.931 . S
H8 C3 0.931 . S
H9 C4 0.930 . S
C10 O17 1.259 . S
C10 O18 1.258 . S
N11 Co2 2.062 1_556 S
N11 C12 1.316 . S
N11 C13 1.375 . S
C12 N11 1.316 . S
C12 N14 1.347 . S
C12 H23 0.931 . S
C13 N11 1.375 . S
C13 C15 1.350 . S
C13 H22 0.930 . S
N14 C12 1.347 . S
N14 C15 1.373 . S
C15 C13 1.350 . S
C15 N14 1.373 . S
C15 H29 0.931 . S
C16 O19 1.256 . S
C16 O20 1.255 1_565 S
O17 Co0 2.021 . S
O17 C10 1.259 . S
O18 Co2 2.114 1_545 S
O18 C10 1.258 . S
O19 Co2 2.024 . S
O19 C16 1.256 . S
O20 Co0 2.062 . S
O20 C16 1.255 1_545 S
O21 C1 1.259 . S
O21 Co2 2.021 1_545 S
H22 C13 0.930 . S
H23 C12 0.931 . S
O24 Co0 2.117 . S
O24 C1 1.258 . S
O25 Co0 2.020 . S
O25 C27 1.256 1_554 S
O26 Co2 2.055 1_546 S
O26 C27 1.255 . S
C27 O25 1.256 1_556 S
C27 O26 1.255 . S
H28 C7 0.931 . S
H29 C15 0.931 . S
Co30 N35 2.057 1_455 S
Co30 O47 2.021 . S
Co30 O50 2.062 . S
Co30 O54 2.117 . S
Co30 O55 2.020 1_455 S
C31 O51 1.259 . S
C31 O54 1.258 . S
Co32 N41 2.057 . S
Co32 O48 2.117 . S
Co32 O49 2.020 . S
Co32 O51 2.021 . S
Co32 O56 2.062 . S
C33 N35 1.316 . S
C33 N36 1.347 . S
C33 H38 0.931 . S
C34 N35 1.375 . S
C34 C37 1.350 . S
C34 H39 0.930 . S
N35 Co30 2.057 1_655 S
N35 C33 1.316 . S
N35 C34 1.375 . S
N36 C33 1.347 . S
N36 C37 1.373 . S
C37 C34 1.350 . S
C37 N36 1.373 . S
C37 H58 0.931 . S
H38 C33 0.931 . S
H39 C34 0.930 . S
C40 O47 1.259 . S
C40 O48 1.258 . S
N41 Co32 2.057 . S
N41 C42 1.316 . S
N41 C43 1.375 . S
C42 N41 1.316 . S
C42 N44 1.347 . S
C42 H53 0.931 . S
C43 N41 1.375 . S
C43 C45 1.350 . S
C43 H52 0.930 . S
N44 C42 1.347 . S
N44 C45 1.373 . S
C45 C43 1.350 . S
C45 N44 1.373 . S
C45 H59 0.931 . S
C46 O49 1.256 . S
C46 O50 1.255 . S
O47 Co30 2.021 . S
O47 C40 1.259 . S
O48 Co32 2.117 . S
O48 C40 1.258 . S
O49 Co32 2.020 . S
O49 C46 1.256 . S
O50 Co30 2.062 . S
O50 C46 1.255 . S
O51 C31 1.259 . S
O51 Co32 2.021 . S
H52 C43 0.930 . S
H53 C42 0.931 . S
O54 Co30 2.117 . S
O54 C31 1.258 . S
O55 Co30 2.020 1_655 S
O55 C57 1.256 . S
O56 Co32 2.062 . S
O56 C57 1.255 1_455 S
C57 O55 1.256 . S
C57 O56 1.255 1_655 S
H58 C37 0.931 . S
H59 C45 0.931 . S
Co60 N65 2.057 . S
Co60 O77 2.021 . S
Co60 O80 2.062 1_545 S
Co60 O84 2.117 . S
Co60 O85 2.020 . S
C61 O81 1.259 . S
C61 O84 1.258 1_565 S
Co62 N71 2.057 . S
Co62 O78 2.117 . S
Co62 O79 2.020 . S
Co62 O81 2.021 . S
Co62 O86 2.062 1_565 S
C63 N65 1.316 . S
C63 N66 1.347 . S
C63 H68 0.931 . S
C64 N65 1.375 . S
C64 C67 1.350 . S
C64 H69 0.930 . S
N65 Co60 2.057 . S
N65 C63 1.316 . S
N65 C64 1.375 . S
N66 C63 1.347 . S
N66 C67 1.373 . S
C67 C64 1.350 . S
C67 N66 1.373 . S
C67 H88 0.931 . S
H68 C63 0.931 . S
H69 C64 0.930 . S
C70 O77 1.259 . S
C70 O78 1.258 1_545 S
N71 Co62 2.057 . S
N71 C72 1.316 1_554 S
N71 C73 1.374 1_554 S
C72 N71 1.316 1_556 S
C72 N74 1.347 . S
C72 H83 0.931 . S
C73 N71 1.374 1_556 S
C73 C75 1.354 . S
C73 H82 0.927 1_556 S
N74 C72 1.347 . S
N74 C75 1.373 . S
C75 C73 1.354 . S
C75 N74 1.373 . S
C75 H89 0.931 . S
C76 O79 1.256 . S
C76 O80 1.255 . S
O77 Co60 2.021 . S
O77 C70 1.259 . S
O78 Co62 2.117 . S
O78 C70 1.258 1_565 S
O79 Co62 2.020 . S
O79 C76 1.256 . S
O80 Co60 2.062 1_565 S
O80 C76 1.255 . S
O81 C61 1.259 . S
O81 Co62 2.021 . S
H82 C73 0.927 1_554 S
H83 C72 0.931 . S
O84 Co60 2.117 . S
O84 C61 1.258 1_545 S
O85 Co60 2.020 . S
O85 C87 1.256 . S
O86 Co62 2.062 1_545 S
O86 C87 1.255 . S
C87 O85 1.256 . S
C87 O86 1.255 . S
H88 C67 0.931 . S
H89 C75 0.931 . S
Co90 N95 2.057 . S
Co90 O107 2.021 . S
Co90 O110 2.062 1_655 S
Co90 O114 2.117 . S
Co90 O115 2.020 . S
C91 O111 1.259 . S
C91 O114 1.258 1_455 S
Co92 N101 2.057 . S
Co92 O108 2.117 . S
Co92 O109 2.020 . S
Co92 O111 2.021 . S
Co92 O116 2.062 1_455 S
C93 N95 1.316 . S
C93 N96 1.347 . S
C93 H98 0.931 . S
C94 N95 1.375 . S
C94 C97 1.350 . S
C94 H99 0.930 . S
N95 Co90 2.057 . S
N95 C93 1.316 . S
N95 C94 1.375 . S
N96 C93 1.347 . S
N96 C97 1.373 . S
C97 C94 1.350 . S
C97 N96 1.373 . S
C97 H118 0.931 . S
H98 C93 0.931 . S
H99 C94 0.930 . S
C100 O107 1.259 . S
C100 O108 1.258 1_655 S
N101 Co92 2.057 . S
N101 C102 1.316 . S
N101 C103 1.375 . S
C102 N101 1.316 . S
C102 N104 1.347 . S
C102 H113 0.931 . S
C103 N101 1.375 . S
C103 C105 1.350 . S
C103 H112 0.930 . S
N104 C102 1.347 . S
N104 C105 1.373 . S
C105 C103 1.350 . S
C105 N104 1.373 . S
C105 H119 0.931 . S
C106 O109 1.256 . S
C106 O110 1.255 . S
O107 Co90 2.021 . S
O107 C100 1.259 . S
O108 Co92 2.117 . S
O108 C100 1.258 1_455 S
O109 Co92 2.020 . S
O109 C106 1.256 . S
O110 Co90 2.062 1_455 S
O110 C106 1.255 . S
O111 C91 1.259 . S
O111 Co92 2.021 . S
H112 C103 0.930 . S
H113 C102 0.931 . S
O114 Co90 2.117 . S
O114 C91 1.258 1_655 S
O115 Co90 2.020 . S
O115 C117 1.256 . S
O116 Co92 2.062 1_655 S
O116 C117 1.255 . S
C117 O115 1.256 . S
C117 O116 1.255 . S
H118 C97 0.931 . S
H119 C105 0.931 . S
H120 C128 0.929 . S
H121 C130 0.930 . S
H122 C132 0.927 1_565 S
H123 C135 0.929 . S
H124 C138 0.930 1_655 S
H125 C140 0.960 . S
H126 C140 0.960 . S
H127 C140 0.960 . S
C128 H120 0.929 . S
C128 C129 1.374 1_545 S
C128 C130 1.384 . S
C129 C128 1.374 1_565 S
C129 C135 1.393 . S
C130 H121 0.930 . S
C130 C128 1.384 . S
C130 C131 1.372 . S
C131 C130 1.372 . S
C131 C132 1.403 . S
C131 C136 1.490 . S
C132 H122 0.927 1_545 S
C132 C131 1.403 . S
C132 C135 1.385 1_545 S
H133 C149 0.930 1_556 S
H134 C150 0.931 . S
C135 H123 0.929 . S
C135 C129 1.393 . S
C135 C132 1.385 1_565 S
C136 C131 1.490 . S
C136 C138 1.395 1_645 S
C136 C139 1.403 . S
H137 C143 0.930 . S
C138 H124 0.930 1_455 S
C138 C136 1.395 1_465 S
C138 C141 1.403 . S
C139 C136 1.403 . S
C139 C140 1.524 . S
C139 C143 1.400 1_655 S
C140 H125 0.960 . S
C140 H126 0.960 . S
C140 H127 0.960 . S
C140 C139 1.524 . S
C141 C138 1.403 . S
C141 C142 1.392 1_565 S
C141 C145 1.495 . S
C142 C141 1.392 1_545 S
C142 C143 1.385 . S
C142 C144 1.478 . S
C143 H137 0.930 . S
C143 C139 1.400 1_455 S
C143 C142 1.385 . S
C144 C142 1.478 . S
C144 C146 1.381 . S
C144 C150 1.383 . S
C145 C141 1.495 . S
C145 H151 0.959 . S
C145 H152 0.961 . S
C145 H153 0.960 . S
C146 C144 1.381 . S
C146 C147 1.394 . S
C146 H154 0.930 . S
C147 C146 1.394 . S
C147 C148 1.383 . S
C147 H155 0.929 . S
C148 C147 1.383 . S
C148 C149 1.377 . S
C149 H133 0.930 1_554 S
C149 C148 1.377 . S
C149 C150 1.379 . S
C150 H134 0.931 . S
C150 C144 1.383 . S
C150 C149 1.379 . S
H151 C145 0.959 . S
H152 C145 0.961 . S
H153 C145 0.960 . S
H154 C146 0.930 . S
H155 C147 0.929 . S
H156 C164 0.929 . S
H157 C166 0.930 . S
H158 C168 0.930 . S
H159 C171 0.929 . S
H160 C174 0.930 . S
H161 C176 0.948 1_545 S
H162 C176 0.966 . S
H163 C176 0.969 1_455 S
C164 H156 0.929 . S
C164 C165 1.377 . S
C164 C166 1.384 . S
C165 C164 1.377 . S
C165 C171 1.390 1_655 S
C166 H157 0.930 . S
C166 C164 1.384 . S
C166 C167 1.372 1_655 S
C167 C166 1.372 1_455 S
C167 C168 1.400 . S
C167 C172 1.490 . S
C168 H158 0.930 . S
C168 C167 1.400 . S
C168 C171 1.386 . S
H169 C185 0.930 . S
H170 C186 0.931 . S
C171 H159 0.929 . S
C171 C165 1.390 1_455 S
C171 C168 1.386 . S
C172 C167 1.490 . S
C172 C174 1.395 . S
C172 C175 1.403 1_565 S
H173 C179 0.930 . S
C174 H160 0.930 . S
C174 C172 1.395 . S
C174 C177 1.403 1_565 S
C175 C172 1.403 1_545 S
C175 C176 1.522 1_445 S
C175 C179 1.400 . S
C176 H161 0.948 1_565 S
C176 H162 0.966 . S
C176 H163 0.969 1_655 S
C176 C175 1.522 1_665 S
C177 C174 1.403 1_545 S
C177 C178 1.392 . S
C177 C181 1.495 . S
C178 C177 1.392 . S
C178 C179 1.385 . S
C178 C180 1.478 . S
C179 H173 0.930 . S
C179 C175 1.400 . S
C179 C178 1.385 . S
C180 C178 1.478 . S
C180 C182 1.381 . S
C180 C186 1.383 . S
C181 C177 1.495 . S
C181 H187 0.959 . S
C181 H188 0.961 . S
C181 H189 0.960 . S
C182 C180 1.381 . S
C182 C183 1.394 . S
C182 H190 0.930 1_455 S
C183 C182 1.394 . S
C183 C184 1.383 . S
C183 H191 0.929 1_455 S
C184 C183 1.383 . S
C184 C185 1.377 . S
C185 H169 0.930 . S
C185 C184 1.377 . S
C185 C186 1.379 . S
C186 H170 0.931 . S
C186 C180 1.383 . S
C186 C185 1.379 . S
H187 C181 0.959 . S
H188 C181 0.961 . S
H189 C181 0.960 . S
H190 C182 0.930 1_655 S
H191 C183 0.929 1_655 S
H192 C200 0.929 . S
H193 C202 0.930 . S
H194 C204 0.930 . S
H195 C207 0.929 . S
H196 C210 0.930 . S
H197 C212 0.960 . S
H198 C212 0.960 . S
H199 C212 0.960 . S
C200 H192 0.929 . S
C200 C201 1.377 . S
C200 C202 1.384 . S
C201 C200 1.377 . S
C201 C207 1.390 1_565 S
C202 H193 0.930 . S
C202 C200 1.384 . S
C202 C203 1.372 1_565 S
C203 C202 1.372 1_545 S
C203 C204 1.400 . S
C203 C208 1.490 . S
C204 H194 0.930 . S
C204 C203 1.400 . S
C204 C207 1.386 . S
H205 C221 0.930 . S
H206 C222 0.931 . S
C207 H195 0.929 . S
C207 C201 1.390 1_545 S
C207 C204 1.386 . S
C208 C203 1.490 . S
C208 C210 1.395 1_545 S
C208 C211 1.403 . S
H209 C215 0.930 . S
C210 H196 0.930 . S
C210 C208 1.395 1_565 S
C210 C213 1.403 . S
C211 C208 1.403 . S
C211 C212 1.524 . S
C211 C215 1.400 . S
C212 H197 0.960 . S
C212 H198 0.960 . S
C212 H199 0.960 . S
C212 C211 1.524 . S
C213 C210 1.403 . S
C213 C214 1.392 1_565 S
C213 C217 1.495 . S
C214 C213 1.392 1_545 S
C214 C215 1.385 . S
C214 C216 1.478 . S
C215 H209 0.930 . S
C215 C211 1.400 . S
C215 C214 1.385 . S
C216 C214 1.478 . S
C216 C218 1.381 . S
C216 C222 1.383 . S
C217 C213 1.495 . S
C217 H223 0.959 . S
C217 H224 0.961 . S
C217 H225 0.960 . S
C218 C216 1.381 . S
C218 C219 1.394 . S
C218 H226 0.930 1_545 S
C219 C218 1.394 . S
C219 C220 1.383 . S
C219 H227 0.929 1_545 S
C220 C219 1.383 . S
C220 C221 1.377 . S
C221 H205 0.930 . S
C221 C220 1.377 . S
C221 C222 1.379 . S
C222 H206 0.931 . S
C222 C216 1.383 . S
C222 C221 1.379 . S
H223 C217 0.959 . S
H224 C217 0.961 . S
H225 C217 0.960 . S
H226 C218 0.930 1_565 S
H227 C219 0.929 1_565 S
H228 C236 0.929 . S
H229 C238 0.930 . S
H230 C240 0.930 . S
H231 C243 0.929 . S
H232 C246 0.930 . S
H233 C248 0.960 . S
H234 C248 0.960 . S
H235 C248 0.960 . S
C236 H228 0.929 . S
C236 C237 1.377 . S
C236 C238 1.384 . S
C237 C236 1.377 . S
C237 C243 1.390 . S
C238 H229 0.930 . S
C238 C236 1.384 . S
C238 C239 1.372 . S
C239 C238 1.372 . S
C239 C240 1.400 . S
C239 C244 1.490 . S
C240 H230 0.930 . S
C240 C239 1.400 . S
C240 C243 1.386 . S
H241 C257 0.930 . S
H242 C258 0.931 . S
C243 H231 0.929 . S
C243 C237 1.390 . S
C243 C240 1.386 . S
C244 C239 1.490 . S
C244 C246 1.395 1_455 S
C244 C247 1.403 . S
H245 C251 0.930 . S
C246 H232 0.930 . S
C246 C244 1.395 1_655 S
C246 C249 1.403 . S
C247 C244 1.403 . S
C247 C248 1.524 . S
C247 C251 1.400 . S
C248 H233 0.960 . S
C248 H234 0.960 . S
C248 H235 0.960 . S
C248 C247 1.524 . S
C249 C246 1.403 . S
C249 C250 1.392 1_655 S
C249 C253 1.495 . S
C250 C249 1.392 1_455 S
C250 C251 1.385 . S
C250 C252 1.478 . S
C251 H245 0.930 . S
C251 C247 1.400 . S
C251 C250 1.385 . S
C252 C250 1.478 . S
C252 C254 1.381 . S
C252 C258 1.383 1_455 S
C253 C249 1.495 . S
C253 H259 0.959 . S
C253 H260 0.961 . S
C253 H261 0.960 . S
C254 C252 1.381 . S
C254 C255 1.394 . S
C254 H262 0.930 . S
C255 C254 1.394 . S
C255 C256 1.383 1_455 S
C255 H263 0.929 . S
C256 C255 1.383 1_655 S
C256 C257 1.377 . S
C257 H241 0.930 . S
C257 C256 1.377 . S
C257 C258 1.379 . S
C258 H242 0.931 . S
C258 C252 1.383 1_655 S
C258 C257 1.379 . S
H259 C253 0.959 . S
H260 C253 0.961 . S
H261 C253 0.960 . S
H262 C254 0.930 . S
H263 C255 0.929 . S
H264 C272 0.929 . S
H265 C274 0.930 . S
H266 C276 0.930 . S
H267 C279 0.929 . S
H268 C282 0.930 . S
H269 C284 0.960 . S
H270 C284 0.960 . S
H271 C284 0.960 . S
C272 H264 0.929 . S
C272 C273 1.377 . S
C272 C274 1.384 . S
C273 C272 1.377 . S
C273 C279 1.390 . S
C274 H265 0.930 . S
C274 C272 1.384 . S
C274 C275 1.372 . S
C275 C274 1.372 . S
C275 C276 1.400 . S
C275 C280 1.490 . S
C276 H266 0.930 . S
C276 C275 1.400 . S
C276 C279 1.386 . S
H277 C293 0.930 . S
H278 C294 0.931 . S
C279 H267 0.929 . S
C279 C273 1.390 . S
C279 C276 1.386 . S
C280 C275 1.490 . S
C280 C282 1.395 . S
C280 C283 1.403 . S
H281 C287 0.930 . S
C282 H268 0.930 . S
C282 C280 1.395 . S
C282 C285 1.403 . S
C283 C280 1.403 . S
C283 C284 1.524 . S
C283 C287 1.400 . S
C284 H269 0.960 . S
C284 H270 0.960 . S
C284 H271 0.960 . S
C284 C283 1.524 . S
C285 C282 1.403 . S
C285 C286 1.392 . S
C285 C289 1.495 . S
C286 C285 1.392 . S
C286 C287 1.385 . S
C286 C288 1.478 . S
C287 H281 0.930 . S
C287 C283 1.400 . S
C287 C286 1.385 . S
C288 C286 1.478 . S
C288 C290 1.381 . S
C288 C294 1.383 . S
C289 C285 1.495 . S
C289 H295 0.959 . S
C289 H296 0.961 . S
C289 H297 0.960 . S
C290 C288 1.381 . S
C290 C291 1.394 . S
C290 H298 0.930 . S
C291 C290 1.394 . S
C291 C292 1.383 . S
C291 H299 0.929 . S
C292 C291 1.383 . S
C292 C293 1.377 . S
C293 H277 0.930 . S
C293 C292 1.377 . S
C293 C294 1.379 . S
C294 H278 0.931 . S
C294 C288 1.383 . S
C294 C293 1.379 . S
H295 C289 0.959 . S
H296 C289 0.961 . S
H297 C289 0.960 . S
H298 C290 0.930 . S
H299 C291 0.929 . S
H300 C308 0.929 . S
H301 C310 0.930 . S
H302 C312 0.930 . S
H303 C315 0.929 . S
H304 C318 0.930 . S
H305 C320 0.960 . S
H306 C320 0.960 . S
H307 C320 0.960 . S
C308 H300 0.929 . S
C308 C309 1.377 . S
C308 C310 1.384 . S
C309 C308 1.377 . S
C309 C315 1.390 . S
C310 H301 0.930 . S
C310 C308 1.384 . S
C310 C311 1.372 . S
C311 C310 1.372 . S
C311 C312 1.400 . S
C311 C316 1.490 . S
C312 H302 0.930 . S
C312 C311 1.400 . S
C312 C315 1.386 . S
H313 C329 0.930 . S
H314 C330 0.931 . S
C315 H303 0.929 . S
C315 C309 1.390 . S
C315 C312 1.386 . S
C316 C311 1.490 . S
C316 C318 1.395 . S
C316 C319 1.403 . S
H317 C323 0.930 . S
C318 H304 0.930 . S
C318 C316 1.395 . S
C318 C321 1.403 . S
C319 C316 1.403 . S
C319 C320 1.524 . S
C319 C323 1.400 . S
C320 H305 0.960 . S
C320 H306 0.960 . S
C320 H307 0.960 . S
C320 C319 1.524 . S
C321 C318 1.403 . S
C321 C322 1.392 . S
C321 C325 1.495 . S
C322 C321 1.392 . S
C322 C323 1.385 . S
C322 C324 1.478 . S
C323 H317 0.930 . S
C323 C319 1.400 . S
C323 C322 1.385 . S
C324 C322 1.478 . S
C324 C326 1.381 . S
C324 C330 1.383 . S
C325 C321 1.495 . S
C325 H331 0.959 . S
C325 H332 0.961 . S
C325 H333 0.960 . S
C326 C324 1.381 . S
C326 C327 1.394 . S
C326 H334 0.930 . S
C327 C326 1.394 . S
C327 C328 1.383 . S
C327 H335 0.929 . S
C328 C327 1.383 . S
C328 C329 1.377 . S
C329 H313 0.930 . S
C329 C328 1.377 . S
C329 C330 1.379 . S
C330 H314 0.931 . S
C330 C324 1.383 . S
C330 C329 1.379 . S
H331 C325 0.959 . S
H332 C325 0.961 . S
H333 C325 0.960 . S
H334 C326 0.930 . S
H335 C327 0.929 . S
H336 C344 0.929 . S
H337 C346 0.930 . S
H338 C348 0.930 . S
H339 C351 0.929 . S
H340 C354 0.930 . S
H341 C356 0.960 . S
H342 C356 0.960 . S
H343 C356 0.960 . S
C344 H336 0.929 . S
C344 C345 1.377 . S
C344 C346 1.384 . S
C345 C344 1.377 . S
C345 C351 1.390 . S
C346 H337 0.930 . S
C346 C344 1.384 . S
C346 C347 1.372 . S
C347 C346 1.372 . S
C347 C348 1.400 . S
C347 C352 1.490 . S
C348 H338 0.930 . S
C348 C347 1.400 . S
C348 C351 1.386 . S
H349 C365 0.930 . S
H350 C366 0.931 . S
C351 H339 0.929 . S
C351 C345 1.390 . S
C351 C348 1.386 . S
C352 C347 1.490 . S
C352 C354 1.395 . S
C352 C355 1.403 . S
H353 C359 0.930 . S
C354 H340 0.930 . S
C354 C352 1.395 . S
C354 C357 1.403 . S
C355 C352 1.403 . S
C355 C356 1.524 . S
C355 C359 1.400 . S
C356 H341 0.960 . S
C356 H342 0.960 . S
C356 H343 0.960 . S
C356 C355 1.524 . S
C357 C354 1.403 . S
C357 C358 1.392 . S
C357 C361 1.495 . S
C358 C357 1.392 . S
C358 C359 1.385 . S
C358 C360 1.478 . S
C359 H353 0.930 . S
C359 C355 1.400 . S
C359 C358 1.385 . S
C360 C358 1.478 . S
C360 C362 1.381 . S
C360 C366 1.383 . S
C361 C357 1.495 . S
C361 H367 0.959 . S
C361 H368 0.961 . S
C361 H369 0.960 . S
C362 C360 1.381 . S
C362 C363 1.394 . S
C362 H370 0.930 . S
C363 C362 1.394 . S
C363 C364 1.383 . S
C363 H371 0.929 . S
C364 C363 1.383 . S
C364 C365 1.377 . S
C365 H349 0.930 . S
C365 C364 1.377 . S
C365 C366 1.379 . S
C366 H350 0.931 . S
C366 C360 1.383 . S
C366 C365 1.379 . S
H367 C361 0.959 . S
H368 C361 0.961 . S
H369 C361 0.960 . S
H370 C362 0.930 . S
H371 C363 0.929 . S
H372 C380 0.929 . S
H373 C382 0.930 . S
H374 C384 0.930 . S
H375 C387 0.929 . S
H376 C390 0.930 . S
H377 C392 0.960 . S
H378 C392 0.960 . S
H379 C392 0.960 . S
C380 H372 0.929 . S
C380 C381 1.377 . S
C380 C382 1.384 . S
C381 C380 1.377 . S
C381 C387 1.390 . S
C382 H373 0.930 . S
C382 C380 1.384 . S
C382 C383 1.372 . S
C383 C382 1.372 . S
C383 C384 1.400 . S
C383 C388 1.490 . S
C384 H374 0.930 . S
C384 C383 1.400 . S
C384 C387 1.386 . S
H385 C401 0.930 . S
H386 C402 0.931 . S
C387 H375 0.929 . S
C387 C381 1.390 . S
C387 C384 1.386 . S
C388 C383 1.490 . S
C388 C390 1.395 . S
C388 C391 1.403 . S
H389 C395 0.930 . S
C390 H376 0.930 . S
C390 C388 1.395 . S
C390 C393 1.403 . S
C391 C388 1.403 . S
C391 C392 1.524 . S
C391 C395 1.400 . S
C392 H377 0.960 . S
C392 H378 0.960 . S
C392 H379 0.960 . S
C392 C391 1.524 . S
C393 C390 1.403 . S
C393 C394 1.392 . S
C393 C397 1.495 . S
C394 C393 1.392 . S
C394 C395 1.385 . S
C394 C396 1.478 . S
C395 H389 0.930 . S
C395 C391 1.400 . S
C395 C394 1.385 . S
C396 C394 1.478 . S
C396 C398 1.381 . S
C396 C402 1.383 . S
C397 C393 1.495 . S
C397 H403 0.959 . S
C397 H404 0.961 . S
C397 H405 0.960 . S
C398 C396 1.381 . S
C398 C399 1.394 . S
C398 H406 0.930 . S
C399 C398 1.394 . S
C399 C400 1.383 . S
C399 H407 0.929 . S
C400 C399 1.383 . S
C400 C401 1.377 . S
C401 H385 0.930 . S
C401 C400 1.377 . S
C401 C402 1.379 . S
C402 H386 0.931 . S
C402 C396 1.383 . S
C402 C401 1.379 . S
H403 C397 0.959 . S
H404 C397 0.961 . S
H405 C397 0.960 . S
H406 C398 0.930 . S
H407 C399 0.929 . S
H408 C416 0.929 . S
H409 C418 0.930 . S
H410 C420 0.930 . S
H411 C423 0.929 . S
H412 C426 0.930 . S
H413 C428 0.960 . S
H414 C428 0.960 . S
H415 C428 0.960 . S
C416 H408 0.929 . S
C416 C417 1.377 . S
C416 C418 1.384 . S
C417 C416 1.377 . S
C417 C423 1.390 . S
C418 H409 0.930 . S
C418 C416 1.384 . S
C418 C419 1.372 . S
C419 C418 1.372 . S
C419 C420 1.400 . S
C419 C424 1.490 . S
C420 H410 0.930 . S
C420 C419 1.400 . S
C420 C423 1.386 . S
H421 C437 0.930 . S
H422 C438 0.931 . S
C423 H411 0.929 . S
C423 C417 1.390 . S
C423 C420 1.386 . S
C424 C419 1.490 . S
C424 C426 1.395 . S
C424 C427 1.403 . S
H425 C431 0.930 . S
C426 H412 0.930 . S
C426 C424 1.395 . S
C426 C429 1.403 . S
C427 C424 1.403 . S
C427 C428 1.524 . S
C427 C431 1.400 . S
C428 H413 0.960 . S
C428 H414 0.960 . S
C428 H415 0.960 . S
C428 C427 1.524 . S
C429 C426 1.403 . S
C429 C430 1.392 . S
C429 C433 1.495 . S
C430 C429 1.392 . S
C430 C431 1.385 . S
C430 C432 1.478 . S
C431 H425 0.930 . S
C431 C427 1.400 . S
C431 C430 1.385 . S
C432 C430 1.478 . S
C432 C434 1.381 . S
C432 C438 1.383 . S
C433 C429 1.495 . S
C433 H439 0.959 . S
C433 H440 0.961 . S
C433 H441 0.960 . S
C434 C432 1.381 . S
C434 C435 1.394 . S
C434 H442 0.930 . S
C435 C434 1.394 . S
C435 C436 1.383 . S
C435 H443 0.929 . S
C436 C435 1.383 . S
C436 C437 1.377 . S
C437 H421 0.930 . S
C437 C436 1.377 . S
C437 C438 1.379 . S
C438 H422 0.931 . S
C438 C432 1.383 . S
C438 C437 1.379 . S
H439 C433 0.959 . S
H440 C433 0.961 . S
H441 C433 0.960 . S
H442 C434 0.930 . S
H443 C435 0.929 . S
H444 C452 0.929 . S
H445 C454 0.930 . S
H446 C456 0.930 . S
H447 C459 0.929 . S
H448 C462 0.930 . S
H449 C464 0.960 . S
H450 C464 0.960 . S
H451 C464 0.960 . S
C452 H444 0.929 . S
C452 C453 1.377 . S
C452 C454 1.384 . S
C453 C452 1.377 . S
C453 C459 1.390 . S
C454 H445 0.930 . S
C454 C452 1.384 . S
C454 C455 1.372 . S
C455 C454 1.372 . S
C455 C456 1.400 . S
C455 C460 1.490 . S
C456 H446 0.930 . S
C456 C455 1.400 . S
C456 C459 1.386 . S
H457 C473 0.930 . S
H458 C474 0.931 . S
C459 H447 0.929 . S
C459 C453 1.390 . S
C459 C456 1.386 . S
C460 C455 1.490 . S
C460 C462 1.395 . S
C460 C463 1.403 . S
H461 C467 0.930 . S
C462 H448 0.930 . S
C462 C460 1.395 . S
C462 C465 1.403 . S
C463 C460 1.403 . S
C463 C464 1.524 . S
C463 C467 1.400 . S
C464 H449 0.960 . S
C464 H450 0.960 . S
C464 H451 0.960 . S
C464 C463 1.524 . S
C465 C462 1.403 . S
C465 C466 1.392 . S
C465 C469 1.495 . S
C466 C465 1.392 . S
C466 C467 1.385 . S
C466 C468 1.478 . S
C467 H461 0.930 . S
C467 C463 1.400 . S
C467 C466 1.385 . S
C468 C466 1.478 . S
C468 C470 1.381 . S
C468 C474 1.383 . S
C469 C465 1.495 . S
C469 H475 0.959 . S
C469 H476 0.961 . S
C469 H477 0.960 . S
C470 C468 1.381 . S
C470 C471 1.394 . S
C470 H478 0.930 . S
C471 C470 1.394 . S
C471 C472 1.383 . S
C471 H479 0.929 . S
C472 C471 1.383 . S
C472 C473 1.377 . S
C473 H457 0.930 . S
C473 C472 1.377 . S
C473 C474 1.379 . S
C474 H458 0.931 . S
C474 C468 1.383 . S
C474 C473 1.379 . S
H475 C469 0.959 . S
H476 C469 0.961 . S
H477 C469 0.960 . S
H478 C470 0.930 . S
H479 C471 0.929 . S
H480 C488 0.929 . S
H481 C490 0.930 . S
H482 C492 0.930 . S
H483 C495 0.929 . S
H484 C498 0.930 . S
H485 C500 0.960 . S
H486 C500 0.960 . S
H487 C500 0.960 . S
C488 H480 0.929 . S
C488 C489 1.377 . S
C488 C490 1.384 . S
C489 C488 1.377 . S
C489 C495 1.390 . S
C490 H481 0.930 . S
C490 C488 1.384 . S
C490 C491 1.372 . S
C491 C490 1.372 . S
C491 C492 1.400 . S
C491 C496 1.490 . S
C492 H482 0.930 . S
C492 C491 1.400 . S
C492 C495 1.386 . S
H493 C509 0.930 . S
H494 C510 0.931 . S
C495 H483 0.929 . S
C495 C489 1.390 . S
C495 C492 1.386 . S
C496 C491 1.490 . S
C496 C498 1.395 . S
C496 C499 1.403 . S
H497 C503 0.930 . S
C498 H484 0.930 . S
C498 C496 1.395 . S
C498 C501 1.403 . S
C499 C496 1.403 . S
C499 C500 1.524 . S
C499 C503 1.400 . S
C500 H485 0.960 . S
C500 H486 0.960 . S
C500 H487 0.960 . S
C500 C499 1.524 . S
C501 C498 1.403 . S
C501 C502 1.392 . S
C501 C505 1.495 . S
C502 C501 1.392 . S
C502 C503 1.385 . S
C502 C504 1.478 . S
C503 H497 0.930 . S
C503 C499 1.400 . S
C503 C502 1.385 . S
C504 C502 1.478 . S
C504 C506 1.381 . S
C504 C510 1.383 . S
C505 C501 1.495 . S
C505 H511 0.959 . S
C505 H512 0.961 . S
C505 H513 0.960 . S
C506 C504 1.381 . S
C506 C507 1.394 . S
C506 H514 0.930 . S
C507 C506 1.394 . S
C507 C508 1.383 . S
C507 H515 0.929 . S
C508 C507 1.383 . S
C508 C509 1.377 . S
C509 H493 0.930 . S
C509 C508 1.377 . S
C509 C510 1.379 . S
C510 H494 0.931 . S
C510 C504 1.383 . S
C510 C509 1.379 . S
H511 C505 0.959 . S
H512 C505 0.961 . S
H513 C505 0.960 . S
H514 C506 0.930 . S
H515 C507 0.929 . S
H516 C524 0.929 . S
H517 C526 0.930 . S
H518 C528 0.930 . S
H519 C531 0.929 . S
H520 C534 0.930 . S
H521 C536 0.960 . S
H522 C536 0.960 . S
H523 C536 0.960 . S
C524 H516 0.929 . S
C524 C525 1.377 . S
C524 C526 1.384 . S
C525 C524 1.377 . S
C525 C531 1.390 . S
C526 H517 0.930 . S
C526 C524 1.384 . S
C526 C527 1.372 . S
C527 C526 1.372 . S
C527 C528 1.400 . S
C527 C532 1.490 . S
C528 H518 0.930 . S
C528 C527 1.400 . S
C528 C531 1.386 . S
H529 C545 0.930 . S
H530 C546 0.931 . S
C531 H519 0.929 . S
C531 C525 1.390 . S
C531 C528 1.386 . S
C532 C527 1.490 . S
C532 C534 1.395 . S
C532 C535 1.403 . S
H533 C539 0.930 . S
C534 H520 0.930 . S
C534 C532 1.395 . S
C534 C537 1.403 . S
C535 C532 1.403 . S
C535 C536 1.524 . S
C535 C539 1.400 . S
C536 H521 0.960 . S
C536 H522 0.960 . S
C536 H523 0.960 . S
C536 C535 1.524 . S
C537 C534 1.403 . S
C537 C538 1.392 . S
C537 C541 1.495 . S
C538 C537 1.392 . S
C538 C539 1.385 . S
C538 C540 1.478 . S
C539 H533 0.930 . S
C539 C535 1.400 . S
C539 C538 1.385 . S
C540 C538 1.478 . S
C540 C542 1.381 . S
C540 C546 1.383 . S
C541 C537 1.495 . S
C541 H547 0.959 . S
C541 H548 0.961 . S
C541 H549 0.960 . S
C542 C540 1.381 . S
C542 C543 1.394 . S
C542 H550 0.930 . S
C543 C542 1.394 . S
C543 C544 1.383 . S
C543 H551 0.929 . S
C544 C543 1.383 . S
C544 C545 1.377 . S
C545 H529 0.930 . S
C545 C544 1.377 . S
C545 C546 1.379 . S
C546 H530 0.931 . S
C546 C540 1.383 . S
C546 C545 1.379 . S
H547 C541 0.959 . S
H548 C541 0.961 . S
H549 C541 0.960 . S
H550 C542 0.930 . S
H551 C543 0.929 . S
C129 C61 0.225 . S
C148 C10 0.208 . S
C165 C91 0.285 1_655 S
C184 C40 0.358 . S
C201 C70 0.463 1_565 S
C220 C1 0.428 . S
C237 C31 0.510 . S
C256 C100 0.529 . S
C273 N44 0.985 . S
C292 N6 1.031 . S
C309 N36 1.399 . S
C328 C87 1.370 1_556 S
C345 C117 1.417 . S
C364 C76 1.409 . S
C381 C106 1.174 . S
C400 N14 1.054 . S
C417 N74 1.036 . S
C436 N96 0.963 . S
C453 C16 1.372 . S
C472 N104 1.394 . S
C489 C46 1.409 . S
C508 C27 1.411 . S
C525 N66 1.105 . S
C544 C57 1.182 . S
