# Generated by pormake.
# Topology wlj, (5)-cn, num edge types: 1
# Building blocks:
#     Node 0, Type 0, BuildingBlock: XOMCOT_clean_sbu_1, # of connection points: 5
#     Node 1, Type 0, BuildingBlock: XOMCOT_clean_sbu_1, # of connection points: 5
#     Node 2, Type 0, BuildingBlock: XOMCOT_clean_sbu_1, # of connection points: 5
#     Node 3, Type 0, BuildingBlock: XOMCOT_clean_sbu_1, # of connection points: 5
#     Node 4, Type 0, BuildingBlock: XOMCOT_clean_sbu_1, # of connection points: 5
#     Node 5, Type 0, BuildingBlock: XOMCOT_clean_sbu_1, # of connection points: 5
#     Edge 6, Type (0, 0), BuildingBlock: TEMPAE_clean_linker_10, # of connection points: 2
#     Edge 7, Type (0, 0), BuildingBlock: TEMPAE_clean_linker_10, # of connection points: 2
#     Edge 8, Type (0, 0), BuildingBlock: TEMPAE_clean_linker_10, # of connection points: 2
#     Edge 9, Type (0, 0), BuildingBlock: TEMPAE_clean_linker_10, # of connection points: 2
#     Edge 10, Type (0, 0), BuildingBlock: TEMPAE_clean_linker_10, # of connection points: 2
#     Edge 11, Type (0, 0), BuildingBlock: TEMPAE_clean_linker_10, # of connection points: 2
#     Edge 12, Type (0, 0), BuildingBlock: TEMPAE_clean_linker_10, # of connection points: 2
#     Edge 13, Type (0, 0), BuildingBlock: TEMPAE_clean_linker_10, # of connection points: 2
#     Edge 14, Type (0, 0), BuildingBlock: TEMPAE_clean_linker_10, # of connection points: 2
#     Edge 15, Type (0, 0), BuildingBlock: TEMPAE_clean_linker_10, # of connection points: 2
#     Edge 16, Type (0, 0), BuildingBlock: TEMPAE_clean_linker_10, # of connection points: 2
#     Edge 17, Type (0, 0), BuildingBlock: TEMPAE_clean_linker_10, # of connection points: 2
#     Edge 18, Type (0, 0), BuildingBlock: TEMPAE_clean_linker_10, # of connection points: 2
#     Edge 19, Type (0, 0), BuildingBlock: TEMPAE_clean_linker_10, # of connection points: 2
#     Edge 20, Type (0, 0), BuildingBlock: TEMPAE_clean_linker_10, # of connection points: 2
# Relax obj value: 0.129
# Max RMSD: 0.180
# Mean RMSD: 0.180
data_MOF--net-wlj--node1-XOMCOT_clean_sbu_1--edge1-TEMPAE_clean_linker_10
_symmetry_space_group_name_H-M    P1
_symmetry_Int_Tables_number       1
_symmetry_cell_setting            triclinic
loop_
_symmetry_equiv_pos_as_xyz
'x, y, z'
_cell_length_a     25.484949
_cell_length_b     25.446626
_cell_length_c     55.032089
_cell_angle_alpha  89.978717
_cell_angle_beta   89.928515
_cell_angle_gamma 120.03537
loop_
_atom_site_label
_atom_site_type_symbol
_atom_site_fract_x
_atom_site_fract_y
_atom_site_fract_z
_atom_type_partial_charge
C0 C 0.6766 0.28795 0.30995 0.0
C1 C 0.67681 0.24564 0.32556 0.0
N2 N 0.62923 0.19076 0.32014 0.0
N3 N 0.62888 0.26015 0.29477 0.0
C4 C 0.60079 0.20091 0.3015 0.0
H5 H 0.70967 0.33588 0.30945 0.0
Co6 Co 0.60908 0.29792 0.26967 0.0
C7 C 0.5588 0.18619 0.23737 0.0
O8 O 0.60777 0.2095 0.22389 0.0
N9 N 0.58685 0.33494 0.24458 0.0
C10 C 0.55629 0.3546 0.20952 0.0
C11 C 0.57081 0.31626 0.22137 0.0
C12 C 0.58286 0.38608 0.24603 0.0
N13 N 0.56384 0.39849 0.22504 0.0
O14 O 0.54429 0.29441 0.28947 0.0
H15 H 0.57044 0.27809 0.21297 0.0
H16 H 0.59392 0.41408 0.26203 0.0
O17 O 0.5539 0.21672 0.25491 0.0
C18 C 0.57023 0.34328 0.30206 0.0
O19 O 0.62965 0.37616 0.30096 0.0
N20 N 0.67963 0.31207 0.25196 0.0
C21 C 0.79532 0.35607 0.23151 0.0
C22 C 0.7633 0.29714 0.24128 0.0
C23 C 0.70593 0.27642 0.2519 0.0
C24 C 0.71186 0.3701 0.24331 0.0
C25 C 0.76806 0.39198 0.23238 0.0
H26 H 0.68299 0.23197 0.26025 0.0
H27 H 0.69577 0.40164 0.24576 0.0
H28 H 0.55992 0.16571 0.29308 0.0
H29 H 0.71013 0.25443 0.33951 0.0
H30 H 0.54245 0.35123 0.19072 0.0
H31 H 0.78322 0.26825 0.24155 0.0
H32 H 0.79074 0.43783 0.22524 0.0
C33 C 0.75119 0.41763 0.9742 0.0
C34 C 0.79148 0.45558 0.99142 0.0
N35 N 0.83678 0.44319 0.9933 0.0
N36 N 0.77104 0.38153 0.96488 0.0
C37 C 0.82239 0.39706 0.97759 0.0
H38 H 0.71033 0.41733 0.96892 0.0
Co39 Co 0.73509 0.32119 0.94016 0.0
C40 C 0.86441 0.39605 0.92396 0.0
O41 O 0.86484 0.44526 0.93152 0.0
N42 N 0.69959 0.26083 0.91622 0.0
C43 C 0.68739 0.20804 0.88244 0.0
C44 C 0.7229 0.26215 0.89402 0.0
C45 C 0.64891 0.20543 0.91749 0.0
N46 N 0.64104 0.17226 0.89722 0.0
O47 O 0.73555 0.26182 0.96212 0.0
H48 H 0.76382 0.29952 0.88667 0.0
H49 H 0.61956 0.1888 0.93323 0.0
O50 O 0.81632 0.34421 0.92669 0.0
C51 C 0.6884 0.24351 0.97549 0.0
O52 O 0.65714 0.27154 0.97323 0.0
N53 N 0.72517 0.37497 0.91934 0.0
C54 C 0.68109 0.43462 0.89026 0.0
C55 C 0.73428 0.43452 0.88383 0.0
C56 C 0.75556 0.40415 0.89857 0.0
C57 C 0.67217 0.37289 0.92511 0.0
C58 C 0.65009 0.4034 0.91124 0.0
H59 H 0.7945 0.40206 0.89236 0.0
H60 H 0.64586 0.34589 0.94042 0.0
H61 H 0.84979 0.37599 0.97486 0.0
H62 H 0.78873 0.49107 1.00118 0.0
H63 H 0.69524 0.19567 0.86454 0.0
H64 H 0.75857 0.45678 0.86735 0.0
H65 H 0.60766 0.40048 0.91638 0.0
C66 C 0.61526 0.34619 0.63832 0.0
C67 C 0.57346 0.34637 0.65404 0.0
N68 N 0.58494 0.40374 0.65643 0.0
N69 N 0.65282 0.40314 0.63017 0.0
C70 C 0.63452 0.43758 0.64246 0.0
H71 H 0.61674 0.30618 0.63308 0.0
Co72 Co 0.71484 0.42735 0.60595 0.0
C73 C 0.63882 0.47895 0.58785 0.0
O74 O 0.58976 0.43059 0.5958 0.0
N75 N 0.77625 0.45151 0.58263 0.0
C76 C 0.83054 0.48993 0.54899 0.0
C77 C 0.77575 0.47158 0.55996 0.0
C78 C 0.83172 0.457 0.58484 0.0
N79 N 0.86584 0.48105 0.56465 0.0
O80 O 0.77235 0.49026 0.62712 0.0
H81 H 0.73835 0.47367 0.55184 0.0
H82 H 0.84751 0.44557 0.60116 0.0
O83 O 0.69068 0.48319 0.59092 0.0
C84 C 0.78986 0.46846 0.64417 0.0
O85 O 0.76103 0.40936 0.64735 0.0
N86 N 0.66329 0.36158 0.58557 0.0
C87 C 0.60535 0.25562 0.5577 0.0
C88 C 0.6036 0.30766 0.55067 0.0
C89 C 0.63327 0.3605 0.56478 0.0
C90 C 0.66785 0.31217 0.59177 0.0
C91 C 0.63814 0.25842 0.57852 0.0
H92 H 0.634 0.40053 0.55807 0.0
H93 H 0.69548 0.31486 0.60715 0.0
H94 H 0.65456 0.48605 0.63987 0.0
H95 H 0.53652 0.30694 0.66268 0.0
H96 H 0.84359 0.50856 0.53086 0.0
H97 H 0.58023 0.30776 0.53425 0.0
H98 H 0.64248 0.21992 0.58407 0.0
C99 C 0.28281 0.6823 0.74261 0.0
C100 C 0.24097 0.68223 0.7269 0.0
N101 N 0.19511 0.62487 0.72445 0.0
N102 N 0.26337 0.6253 0.75071 0.0
C103 C 0.21074 0.59095 0.7384 0.0
H104 H 0.32425 0.72228 0.74789 0.0
Co105 Co 0.30092 0.60081 0.77487 0.0
C106 C 0.17329 0.54943 0.79297 0.0
O107 O 0.17295 0.59805 0.78513 0.0
N108 N 0.33794 0.57638 0.7981 0.0
C109 C 0.35368 0.53742 0.83156 0.0
C110 C 0.31713 0.5557 0.82069 0.0
C111 C 0.38816 0.5713 0.79583 0.0
N112 N 0.39816 0.54694 0.81591 0.0
O113 O 0.29567 0.53806 0.75359 0.0
H114 H 0.2774 0.55316 0.82883 0.0
H115 H 0.4156 0.58327 0.77953 0.0
O116 O 0.22077 0.54492 0.78984 0.0
C117 C 0.33514 0.55994 0.73657 0.0
O118 O 0.36542 0.61906 0.73343 0.0
N119 N 0.31506 0.66641 0.79536 0.0
C120 C 0.36291 0.77206 0.82343 0.0
C121 C 0.3092 0.71988 0.83045 0.0
C122 C 0.28614 0.6672 0.81625 0.0
C123 C 0.36896 0.71593 0.78919 0.0
C124 C 0.3929 0.76953 0.80253 0.0
H125 H 0.24694 0.62703 0.82295 0.0
H126 H 0.39394 0.71343 0.77374 0.0
H127 H 0.1823 0.54246 0.74093 0.0
H128 H 0.24353 0.72171 0.71828 0.0
H129 H 0.34797 0.51842 0.84963 0.0
H130 H 0.28574 0.71956 0.84692 0.0
H131 H 0.43569 0.80813 0.79698 0.0
C132 C 0.35078 0.61395 0.40522 0.0
C133 C 0.35181 0.57409 0.38858 0.0
N134 N 0.40828 0.58264 0.38776 0.0
N135 N 0.40626 0.64743 0.41529 0.0
C136 C 0.44075 0.62862 0.40346 0.0
H137 H 0.31131 0.61721 0.40966 0.0
Co138 Co 0.43039 0.70744 0.44027 0.0
C139 C 0.48331 0.63152 0.45691 0.0
O140 O 0.43388 0.58242 0.44977 0.0
N141 N 0.45487 0.76734 0.46447 0.0
C142 C 0.49538 0.81963 0.49836 0.0
C143 C 0.47723 0.76587 0.48655 0.0
C144 C 0.45883 0.82246 0.46354 0.0
N145 N 0.48413 0.85534 0.48385 0.0
O146 O 0.49114 0.76736 0.41862 0.0
H147 H 0.48133 0.72865 0.49368 0.0
H148 H 0.44554 0.83914 0.44801 0.0
O149 O 0.48794 0.68365 0.4538 0.0
C150 C 0.46325 0.78809 0.40603 0.0
O151 O 0.40392 0.76042 0.40805 0.0
N152 N 0.36592 0.65343 0.46085 0.0
C153 C 0.2616 0.59419 0.48976 0.0
C154 C 0.31483 0.59453 0.49645 0.0
C155 C 0.36677 0.62476 0.48181 0.0
C156 C 0.31506 0.65536 0.45484 0.0
C157 C 0.2622 0.62501 0.46861 0.0
H158 H 0.40772 0.62722 0.48829 0.0
H159 H 0.31612 0.68251 0.43954 0.0
H160 H 0.48862 0.64701 0.40685 0.0
H161 H 0.31333 0.53981 0.37856 0.0
H162 H 0.51578 0.83181 0.51621 0.0
H163 H 0.31663 0.57266 0.51307 0.0
H164 H 0.22281 0.62792 0.46329 0.0
C165 C 0.38643 0.74043 0.0642 0.0
C166 C 0.42575 0.78464 0.04843 0.0
N167 N 0.44369 0.83926 0.05849 0.0
N168 N 0.37863 0.76663 0.08411 0.0
C169 C 0.41468 0.82712 0.08019 0.0
H170 H 0.36573 0.69206 0.06143 0.0
Co171 Co 0.32988 0.72253 0.1107 0.0
C172 C 0.31366 0.81407 0.13768 0.0
O173 O 0.25464 0.7776 0.13805 0.0
N174 N 0.28149 0.6773 0.13756 0.0
C175 C 0.24954 0.6467 0.17544 0.0
C176 C 0.29496 0.69043 0.16136 0.0
C177 C 0.22737 0.62496 0.13783 0.0
N178 N 0.20696 0.60564 0.16059 0.0
O179 O 0.25872 0.71492 0.09447 0.0
H180 H 0.33453 0.7302 0.16825 0.0
H181 H 0.20294 0.60088 0.12182 0.0
O182 O 0.34728 0.79776 0.12666 0.0
C183 C 0.2341 0.66631 0.08179 0.0
O184 O 0.26079 0.63356 0.08104 0.0
N185 N 0.39679 0.72394 0.12515 0.0
C186 C 0.47344 0.69461 0.15009 0.0
C187 C 0.47326 0.7484 0.15544 0.0
C188 C 0.43524 0.7631 0.1423 0.0
C189 C 0.39924 0.67355 0.11882 0.0
C190 C 0.43766 0.65825 0.13092 0.0
H191 H 0.43385 0.80345 0.14722 0.0
H192 H 0.3684 0.64315 0.10522 0.0
H193 H 0.41949 0.86174 0.09286 0.0
H194 H 0.44098 0.7771 0.03109 0.0
H195 H 0.24687 0.64643 0.19508 0.0
H196 H 0.50046 0.77745 0.17018 0.0
H197 H 0.43627 0.61611 0.12643 0.0
C198 C 0.4985 0.07354 0.23577 0.0
C199 C 0.5063 0.12973 0.22854 0.0
C200 C 0.46041 0.02041 0.22261 0.0
C201 C 0.43038 0.02402 0.20151 0.0
C202 C 0.43551 0.08035 0.19508 0.0
C203 C 0.47356 0.13253 0.20866 0.0
C204 C 0.45577 0.9613 0.2303 0.0
C205 C 0.40462 0.08654 0.17277 0.0
C206 C 0.40418 0.91201 0.15062 0.0
C207 C 0.34219 0.8697 0.153 0.0
C208 C 0.43303 0.9625 0.16612 0.0
C209 C 0.39937 0.97087 0.18472 0.0
C210 C 0.33662 0.92875 0.18707 0.0
C211 C 0.30872 0.87889 0.17112 0.0
C212 C 0.49985 1.00665 0.16269 0.0
C213 C 0.29921 0.93577 0.20672 0.0
H214 H 0.52494 0.07173 0.25085 0.0
H215 H 0.48067 0.17631 0.20279 0.0
H216 H 0.4078 0.92418 0.23023 0.0
H217 H 0.48081 0.94886 0.21716 0.0
H218 H 0.47498 0.96429 0.2487 0.0
H219 H 0.4072 0.1314 0.1719 0.0
H220 H 0.42656 0.08121 0.15626 0.0
H221 H 0.35628 0.05039 0.17236 0.0
H222 H 0.43047 0.90547 0.13669 0.0
H223 H 0.26092 0.84627 0.17327 0.0
H224 H 0.52498 1.00787 0.17932 0.0
H225 H 0.50751 0.05312 0.15976 0.0
H226 H 0.5192 0.9945 0.14701 0.0
H227 H 0.31742 0.93411 0.22483 0.0
H228 H 0.25075 0.89977 0.2059 0.0
H229 H 0.30219 0.98064 0.20512 0.0
C230 C 0.06983 0.50939 0.81049 0.0
C231 C 0.12421 0.50811 0.80986 0.0
C232 C 0.0272 0.48046 0.82913 0.0
C233 C 0.0393 0.44982 0.84786 0.0
C234 C 0.09207 0.44463 0.84642 0.0
C235 C 0.1337 0.47342 0.82729 0.0
C236 C 0.97099 0.48617 0.82957 0.0
C237 C 0.10671 0.41228 0.86591 0.0
C238 C 0.96889 0.45911 0.90725 0.0
C239 C 0.91428 0.40349 0.90765 0.0
C240 C 1.01203 0.47282 0.88884 0.0
C241 C 1.00023 0.43014 0.87011 0.0
C242 C 0.94738 0.37208 0.87144 0.0
C243 C 0.90525 0.35921 0.89034 0.0
C244 C 0.06834 0.5348 0.88854 0.0
C245 C 0.93308 0.3251 0.85197 0.0
H246 H 0.06156 0.53523 0.79689 0.0
H247 H 0.17514 0.47144 0.82682 0.0
H248 H 0.9301 0.44119 0.83268 0.0
H249 H 0.97406 0.51616 0.8448 0.0
H250 H 0.96494 0.50548 0.8124 0.0
H251 H 0.14342 0.40344 0.8602 0.0
H252 H 0.12166 0.44068 0.88255 0.0
H253 H 0.06599 0.36854 0.87077 0.0
H254 H 0.97684 0.49324 0.9208 0.0
H255 H 0.86373 0.31575 0.89068 0.0
H256 H 0.06535 0.56206 0.87342 0.0
H257 H 0.10918 0.53079 0.88536 0.0
H258 H 0.07436 0.55984 0.9058 0.0
H259 H 0.91831 0.33851 0.83527 0.0
H260 H 0.89633 0.27943 0.85763 0.0
H261 H 0.9739 0.32225 0.84722 0.0
C262 C 0.56192 0.66866 0.49009 0.0
C263 C 0.5258 0.62398 0.47308 0.0
C264 C 0.59123 0.65588 0.50896 0.0
C265 C 0.58527 0.59752 0.51052 0.0
C266 C 0.55359 0.5544 0.49203 0.0
C267 C 0.52405 0.56801 0.47368 0.0
C268 C 0.62473 0.70332 0.52817 0.0
C269 C 0.54718 0.4921 0.49255 0.0
C270 C 0.67526 0.55414 0.55326 0.0
C271 C 0.63126 0.52021 0.57089 0.0
C272 C 0.66245 0.58271 0.53407 0.0
C273 C 0.60475 0.57813 0.53278 0.0
C274 C 0.56228 0.54835 0.55171 0.0
C275 C 0.57591 0.51956 0.5704 0.0
C276 C 0.70912 0.61409 0.51435 0.0
C277 C 0.50069 0.5434 0.55145 0.0
H278 H 0.56451 0.71242 0.48957 0.0
H279 H 0.49723 0.53357 0.46034 0.0
H280 H 0.59692 0.69074 0.54498 0.0
H281 H 0.66822 0.70571 0.53281 0.0
H282 H 0.63411 0.74901 0.52232 0.0
H283 H 0.52771 0.4667 0.47541 0.0
H284 H 0.59184 0.49564 0.49565 0.0
H285 H 0.51704 0.46546 0.50781 0.0
H286 H 0.71846 0.55565 0.55362 0.0
H287 H 0.54197 0.49431 0.58415 0.0
H288 H 0.7125 0.65788 0.50929 0.0
H289 H 0.6951 0.58513 0.49786 0.0
H290 H 0.75462 0.62265 0.51993 0.0
H291 H 0.50525 0.58851 0.54814 0.0
H292 H 0.47565 0.52485 0.56876 0.0
H293 H 0.47322 0.51306 0.53641 0.0
C294 C 0.54358 0.65405 0.1559 0.0
C295 C 0.50401 0.6713 0.16597 0.0
C296 C 0.56105 0.61818 0.16913 0.0
C297 C 0.53704 0.59787 0.19272 0.0
C298 C 0.50084 0.61919 0.20365 0.0
C299 C 0.48504 0.6561 0.19015 0.0
C300 C 0.60088 0.59765 0.15699 0.0
C301 C 0.47391 0.59834 0.22865 0.0
C302 C 0.505 0.43811 0.20492 0.0
C303 C 0.5539 0.44813 0.21963 0.0
C304 C 0.49762 0.48635 0.19708 0.0
C305 C 0.54086 0.54648 0.20381 0.0
C306 C 0.58908 0.55677 0.21955 0.0
C307 C 0.59479 0.50722 0.22745 0.0
C308 C 0.44467 0.473 0.18079 0.0
C309 C 0.63622 0.62014 0.22702 0.0
H310 H 0.55819 0.66591 0.13719 0.0
H311 H 0.45386 0.66895 0.19782 0.0
H312 H 0.63606 0.60093 0.16975 0.0
H313 H 0.57289 0.54936 0.15155 0.0
H314 H 0.62351 0.62489 0.1405 0.0
H315 H 0.4565 0.62716 0.23624 0.0
H316 H 0.43564 0.55095 0.22756 0.0
H317 H 0.50778 0.59868 0.24138 0.0
H318 H 0.47288 0.39225 0.19924 0.0
H319 H 0.63275 0.5149 0.23877 0.0
H320 H 0.46148 0.49235 0.16246 0.0
H321 H 0.41948 0.49464 0.18811 0.0
H322 H 0.41265 0.42352 0.17885 0.0
H323 H 0.66518 0.64435 0.21114 0.0
H324 H 0.66569 0.61992 0.24184 0.0
H325 H 0.61446 0.64625 0.23312 0.0
C326 C 0.40993 0.88448 0.82704 0.0
C327 C 0.39024 0.82824 0.83829 0.0
C328 C 0.44381 0.93892 0.83985 0.0
C329 C 0.45924 0.93717 0.86445 0.0
C330 C 0.43652 0.8804 0.8763 0.0
C331 C 0.40194 0.82647 0.86308 0.0
C332 C 0.46628 0.99837 0.82658 0.0
C333 C 0.45218 0.87649 0.90243 0.0
C334 C 0.61179 0.07201 0.88044 0.0
C335 C 0.59544 0.11043 0.89227 0.0
C336 C 0.56787 1.01411 0.87259 0.0
C337 C 0.50572 0.99425 0.87637 0.0
C338 C 0.48895 0.03164 0.88943 0.0
C339 C 0.53422 0.08935 0.89741 0.0
C340 C 0.58802 0.97542 0.85918 0.0
C341 C 0.42325 1.01218 0.89378 0.0
H342 H 0.40032 0.88584 0.80793 0.0
H343 H 0.387 0.783 0.87178 0.0
H344 H 0.45767 0.0299 0.83752 0.0
H345 H 0.51599 0.02025 0.8238 0.0
H346 H 0.44437 0.99214 0.80855 0.0
H347 H 0.42359 0.83019 0.91005 0.0
H348 H 0.50035 0.88835 0.90358 0.0
H349 H 0.44683 0.90938 0.91388 0.0
H350 H 0.65926 0.08799 0.87687 0.0
H351 H 0.52167 0.11918 0.90653 0.0
H352 H 0.57375 0.97082 0.83989 0.0
H353 H 0.56623 0.92913 0.86711 0.0
H354 H 0.63798 0.99512 0.85972 0.0
H355 H 0.4019 1.01294 0.87632 0.0
H356 H 0.41792 0.04246 0.90684 0.0
H357 H 0.39822 0.96497 0.90078 0.0
C358 C 0.94833 0.45668 0.56622 0.0
C359 C 0.92773 0.49682 0.56026 0.0
C360 C 1.0057 0.46787 0.55836 0.0
C361 C 0.04321 0.52073 0.54454 0.0
C362 C 0.024 0.56331 0.54005 0.0
C363 C 0.96648 0.55061 0.54783 0.0
C364 C 0.0245 0.42145 0.56358 0.0
C365 C 0.0628 0.62084 0.52582 0.0
C366 C 0.20979 0.58189 0.5299 0.0
C367 C 0.20652 0.56603 0.50531 0.0
C368 C 0.15676 0.56409 0.54358 0.0
C369 C 0.09936 0.52925 0.53241 0.0
C370 C 0.0961 0.50946 0.5081 0.0
C371 C 0.14966 0.52844 0.49483 0.0
C372 C 0.16232 0.58628 0.56939 0.0
C373 C 0.03595 0.47157 0.49555 0.0
H374 H 0.91827 0.41505 0.57582 0.0
H375 H 0.95086 0.58211 0.54362 0.0
H376 H 0.02184 0.39671 0.5466 0.0
H377 H 0.07216 0.44384 0.56994 0.0
H378 H 0.99496 0.38789 0.57746 0.0
H379 H 0.04383 0.65178 0.5259 0.0
H380 H 0.10933 0.64547 0.5334 0.0
H381 H 0.06646 0.60929 0.50668 0.0
H382 H 0.25372 0.61125 0.53802 0.0
H383 H 0.1471 0.51564 0.47589 0.0
H384 H 0.1295 0.54946 0.58143 0.0
H385 H 0.1516 0.62349 0.56999 0.0
H386 H 0.20877 0.60377 0.57668 0.0
H387 H 1.00481 0.43268 0.50717 0.0
H388 H 0.04098 0.45384 0.47777 0.0
H389 H 1.0144 0.49956 0.49235 0.0
C390 C 0.64223 0.44724 0.85009 0.0
C391 C 0.65474 0.46316 0.87466 0.0
C392 C 0.60708 0.46508 0.83642 0.0
C393 C 0.58452 0.49998 0.8476 0.0
C394 C 0.60112 0.51995 0.87187 0.0
C395 C 0.63564 0.50094 0.88514 0.0
C396 C 0.59041 0.44275 0.81064 0.0
C397 C 0.57888 0.55791 0.88444 0.0
C398 C 0.50515 0.57178 0.81405 0.0
C399 C 0.44455 0.5315 0.82018 0.0
C400 C 0.55158 0.56086 0.82174 0.0
C401 C 0.53662 0.50814 0.83558 0.0
C402 C 0.47497 0.46539 0.84024 0.0
C403 C 0.42988 0.4778 0.8326 0.0
C404 C 0.61666 0.60742 0.81633 0.0
C405 C 0.45665 0.408 0.8545 0.0
H406 H 0.6567 0.41775 0.84198 0.0
H407 H 0.64582 0.51376 0.90407 0.0
H408 H 0.5426 0.40529 0.81012 0.0
H409 H 0.59404 0.4794 0.79859 0.0
H410 H 0.61959 0.42553 0.80328 0.0
H411 H 0.60182 0.57589 0.90215 0.0
H412 H 0.5864 0.59663 0.87276 0.0
H413 H 0.5294 0.52988 0.88777 0.0
H414 H 0.51643 0.61331 0.80445 0.0
H415 H 0.38286 0.44615 0.83693 0.0
H416 H 0.64206 0.58513 0.80998 0.0
H417 H 0.63881 0.6325 0.83322 0.0
H418 H 0.62032 0.64067 0.80238 0.0
H419 H 0.47861 0.38346 0.84684 0.0
H420 H 0.40679 0.37692 0.85456 0.0
H421 H 0.4721 0.41973 0.8736 0.0
C422 C 0.54005 0.14317 0.55426 0.0
C423 C 0.5765 0.19932 0.54293 0.0
C424 C 0.5195 0.08862 0.54151 0.0
C425 C 0.53661 0.09019 0.5169 0.0
C426 C 0.57058 0.14686 0.50496 0.0
C427 C 0.5899 0.20089 0.51812 0.0
C428 C 0.48262 0.02928 0.55486 0.0
C429 C 0.59011 0.15057 0.47882 0.0
C430 C 0.55465 0.95547 0.50085 0.0
C431 C 0.49997 0.917 0.48902 0.0
C432 C 0.56843 1.01329 0.50876 0.0
C433 C 0.52605 0.03303 0.50503 0.0
C434 C 0.47193 0.99556 0.49201 0.0
C435 C 0.45968 0.93794 0.48398 0.0
C436 C 0.62723 0.05206 0.52212 0.0
C437 C 0.42559 0.0149 0.48773 0.0
H438 H 0.52915 0.14196 0.57338 0.0
H439 H 0.61837 0.2443 0.50936 0.0
H440 H 0.44248 0.99763 0.54398 0.0
H441 H 0.5105 1.00747 0.55765 0.0
H442 H 0.46695 0.03564 0.5729 0.0
H443 H 0.6079 0.19684 0.47116 0.0
H444 H 0.62632 0.13857 0.47765 0.0
H445 H 0.55182 0.11768 0.46743 0.0
H446 H 0.58628 0.93963 0.50434 0.0
H447 H 0.41738 0.90808 0.47484 0.0
H448 H 0.61753 0.05679 0.54141 0.0
H449 H 0.65171 0.09831 0.51415 0.0
H450 H 0.65752 0.03239 0.5216 0.0
H451 H 0.40358 1.01426 0.50522 0.0
H452 H 0.38992 0.98448 0.47474 0.0
H453 H 0.44766 0.06205 0.48066 0.0
C454 C 0.09642 0.54319 0.15484 0.0
C455 C 0.14879 0.55598 0.16782 0.0
C456 C 0.03858 0.50184 0.16392 0.0
C457 C 0.03313 0.47183 0.1863 0.0
C458 C 0.08607 0.48086 0.19836 0.0
C459 C 0.14325 0.52339 0.18913 0.0
C460 C 0.9835 0.49422 0.15056 0.0
C461 C 0.08243 0.44858 0.22186 0.0
C462 C 0.90056 0.44361 0.22639 0.0
C463 C 0.85799 0.38261 0.22155 0.0
C464 C 0.95739 0.47266 0.21507 0.0
C465 C 0.97341 0.43958 0.19899 0.0
C466 C 0.93219 0.37706 0.195 0.0
C467 C 0.87466 0.34932 0.2062 0.0
C468 C 0.99969 0.53943 0.21988 0.0
C469 C 0.94831 0.33994 0.17848 0.0
H470 H 0.10057 0.56846 0.1384 0.0
H471 H 0.18379 0.5325 0.19893 0.0
H472 H 0.94842 0.44558 0.14925 0.0
H473 H 0.96346 0.51748 0.16082 0.0
H474 H 0.99483 0.51372 0.13194 0.0
H475 H 0.12648 0.45219 0.22661 0.0
H476 H 0.06925 0.46884 0.23683 0.0
H477 H 0.04731 0.39987 0.22069 0.0
H478 H 0.88899 0.46928 0.23882 0.0
H479 H 0.84217 0.30219 0.20238 0.0
H480 H 1.01094 0.56518 0.20255 0.0
H481 H 0.04278 0.54652 0.22777 0.0
H482 H 0.9798 0.55879 0.23254 0.0
H483 H 0.95169 0.35581 0.15946 0.0
H484 H 0.91408 0.2908 0.17923 0.0
H485 H 0.99321 0.34608 0.18347 0.0
C486 C 0.55539 0.87506 0.38546 0.0
C487 C 0.49449 0.84717 0.39273 0.0
C488 C 0.58287 0.93118 0.37287 0.0
C489 C 0.54904 0.96057 0.36796 0.0
C490 C 0.48792 0.93277 0.37561 0.0
C491 C 0.46152 0.87663 0.3876 0.0
C492 C 0.6479 0.95891 0.36471 0.0
C493 C 0.4502 0.9626 0.37135 0.0
C494 C 0.62251 0.13103 0.35676 0.0
C495 C 0.61262 0.13344 0.33179 0.0
C496 C 0.60441 0.07541 0.36858 0.0
C497 C 0.5766 0.02061 0.35509 0.0
C498 C 0.56862 0.02308 0.32968 0.0
C499 C 0.58614 0.07925 0.31842 0.0
C500 C 0.61244 0.07508 0.39576 0.0
C501 C 0.53989 0.9661 0.31447 0.0
H502 H 0.58124 0.85279 0.38933 0.0
H503 H 0.41466 0.85624 0.39337 0.0
H504 H 0.65089 0.96611 0.34475 0.0
H505 H 0.67568 1.00405 0.37328 0.0
H506 H 0.66769 0.92999 0.36938 0.0
H507 H 0.40366 0.93562 0.3789 0.0
H508 H 0.47238 1.00827 0.37983 0.0
H509 H 0.4467 0.96887 0.35159 0.0
H510 H 0.64252 0.17259 0.36725 0.0
H511 H 0.57926 0.08084 0.29907 0.0
H512 H 0.63546 0.04925 0.40047 0.0
H513 H 0.56734 0.05198 0.40472 0.0
H514 H 0.63911 0.12164 0.40333 0.0
H515 H 0.56213 0.93892 0.31808 0.0
H516 H 0.54281 0.97617 0.29471 0.0
H517 H 0.49141 0.93764 0.31948 0.0
C518 C 0.89157 0.50229 0.02968 0.0
C519 C 0.89214 0.47731 1.00701 0.0
C520 C 0.9454 0.53712 0.04291 0.0
C521 C 1.00146 0.54825 0.03306 0.0
C522 C 1.00234 0.52399 1.00996 0.0
C523 C 0.94773 0.48846 0.99734 0.0
C524 C 0.9421 0.56082 0.06767 0.0
C525 C 0.06102 0.53508 0.99863 0.0
C526 C 0.15287 0.67365 0.05833 0.0
C527 C 0.172 0.63945 0.0717 0.0
C528 C 0.09672 0.64492 0.046 0.0
C529 C 0.05857 0.58091 0.04762 0.0
C530 C 0.07658 0.54705 0.06229 0.0
C531 C 0.13318 0.57653 0.0738 0.0
C532 C 0.07943 0.68259 0.03038 0.0
C533 C 0.03698 0.47915 0.06519 0.0
H534 H 0.8487 0.49364 0.03725 0.0
H535 H 0.94861 0.47032 0.97964 0.0
H536 H 0.95743 0.5402 0.08173 0.0
H537 H 0.97293 0.61065 0.06849 0.0
H538 H 0.89547 0.55059 0.0723 0.0
H539 H 0.05459 0.51689 0.97985 0.0
H540 H 0.09424 0.58446 0.99816 0.0
H541 H 0.08099 0.51325 1.00983 0.0
H542 H 0.18295 0.72219 0.05654 0.0
H543 H 0.14756 0.54985 0.08425 0.0
H544 H 0.0333 0.6734 0.03518 0.0
H545 H 0.07834 0.66982 1.01103 0.0
H546 H 0.11175 0.732 0.0323 0.0
H547 H 0.9905 0.46746 0.07072 0.0
H548 H 0.05514 0.46038 0.07891 0.0
H549 H 0.03335 0.45652 0.04754 0.0
C550 C 0.37731 0.53757 0.69978 0.0
C551 C 0.35779 0.5237 0.72396 0.0
C552 C 0.41138 0.5145 0.68874 0.0
C553 C 0.42823 0.47813 0.70244 0.0
C554 C 0.40711 0.46249 0.72672 0.0
C555 C 0.37141 0.4848 0.73708 0.0
C556 C 0.43131 0.53107 0.66265 0.0
C557 C 0.42496 0.42497 0.74218 0.0
C558 C 0.48305 0.38455 0.66794 0.0
C559 C 0.54633 0.42243 0.6684 0.0
C560 C 0.44427 0.40177 0.67909 0.0
C561 C 0.46914 0.45799 0.69144 0.0
C562 C 0.5331 0.49615 0.69226 0.0
C563 C 0.57087 0.47825 0.68049 0.0
C564 C 0.37656 0.36032 0.67719 0.0
C565 C 0.56164 0.55601 0.70555 0.0
H566 H 0.36741 0.56818 0.68968 0.0
H567 H 0.35765 0.4751 0.75596 0.0
H568 H 0.48129 0.56055 0.66184 0.0
H569 H 0.41936 0.48963 0.65194 0.0
H570 H 0.4103 0.55542 0.65392 0.0
H571 H 0.40285 0.41461 0.76033 0.0
H572 H 0.41285 0.38166 0.73291 0.0
H573 H 0.47484 0.44986 0.74478 0.0
H574 H 0.46368 0.34181 0.65828 0.0
H575 H 0.61965 0.50745 0.68101 0.0
H576 H 0.35613 0.38398 0.66751 0.0
H577 H 0.35597 0.34861 0.69558 0.0
H578 H 0.36437 0.31761 0.66734 0.0
H579 H 0.54816 0.58677 0.69683 0.0
H580 H 0.61191 0.57883 0.7057 0.0
H581 H 0.54509 0.5489 0.7246 0.0
C582 C 0.11252 0.64411 0.7129 0.0
C583 C 0.13795 0.60624 0.71245 0.0
C584 C 0.05663 0.6269 0.70173 0.0
C585 C 0.02542 0.57071 0.68936 0.0
C586 C 0.05126 0.53257 0.68853 0.0
C587 C 0.10682 0.55045 0.70033 0.0
C588 C 0.03031 0.66833 0.70363 0.0
C589 C 1.02008 0.47273 0.67522 0.0
C590 C 0.85412 0.49096 0.68098 0.0
C591 C 0.84863 0.50479 0.65679 0.0
C592 C 0.91118 0.51412 0.69204 0.0
C593 C 0.96446 0.55055 0.67835 0.0
C594 C 0.95912 0.56618 0.65407 0.0
C595 C 0.9012 0.54377 0.64368 0.0
C596 C 0.91439 0.49756 0.71813 0.0
C597 C 1.01457 0.60379 0.63863 0.0
H598 H 0.13579 0.68683 0.72258 0.0
H599 H 0.12643 0.52127 0.69981 0.0
H600 H 0.02151 0.68003 0.68524 0.0
H601 H 0.98618 0.64465 0.71331 0.0
H602 H 0.06075 0.71105 0.71348 0.0
H603 H 0.04758 0.44995 0.67507 0.0
H604 H 0.97581 0.44193 0.68394 0.0
H605 H 1.01074 0.47986 0.65618 0.0
H606 H 0.81357 0.46029 0.69107 0.0
H607 H 0.89724 0.55345 0.6248 0.0
H608 H 0.94377 0.53899 0.72885 0.0
H609 H 0.93493 0.4681 0.71895 0.0
H610 H 0.86898 0.47318 0.72686 0.0
H611 H 0.04567 0.64708 0.64792 0.0
H612 H 1.00292 0.6142 0.62048 0.0
H613 H 0.03962 0.57895 0.63601 0.0
C614 C 0.48248 0.33875 0.32582 0.0
C615 C 0.53727 0.37181 0.31316 0.0
C616 C 0.4564 0.36898 0.33817 0.0
C617 C 0.48506 0.43339 0.33724 0.0
C618 C 0.53884 0.46628 0.32352 0.0
C619 C 0.56448 0.43533 0.31204 0.0
C620 C 0.39939 0.3323 0.35285 0.0
C621 C 0.57033 0.53463 0.32134 0.0
C622 C 0.40294 0.52024 0.35232 0.0
C623 C 0.42715 0.54494 0.37517 0.0
C624 C 0.41973 0.48224 0.34009 0.0
C625 C 0.46096 0.46751 0.35114 0.0
C626 C 0.48431 0.49113 0.37451 0.0
C627 C 0.46761 0.52992 0.3861 0.0
C628 C 0.39488 0.45954 0.315 0.0
C629 C 0.52787 0.47628 0.38712 0.0
H630 H 0.46143 0.28978 0.32687 0.0
H631 H 0.60662 0.46142 0.30214 0.0
H632 H 0.40902 0.34441 0.37234 0.0
H633 H 0.36414 0.3432 0.34722 0.0
H634 H 0.38101 0.28268 0.35086 0.0
H635 H 0.60928 0.55295 0.30852 0.0
H636 H 0.53798 0.54883 0.31499 0.0
H637 H 0.58722 0.55561 0.33941 0.0
H638 H 0.37172 0.53175 0.34379 0.0
H639 H 0.48548 0.54779 0.40396 0.0
H640 H 0.37458 0.40954 0.31408 0.0
H641 H 0.43233 0.4796 0.30152 0.0
H642 H 0.36005 0.47139 0.30965 0.0
H643 H 0.50943 0.42647 0.38728 0.0
H644 H 0.53718 0.49318 0.40613 0.0
H645 H 0.57142 0.49706 0.37702 0.0
C646 C 0.60653 0.16808 1.00243 0.0
C647 C 0.66215 0.18717 0.99057 0.0
C648 C 0.57563 0.11217 1.01453 0.0
C649 C 0.60121 0.07409 1.01544 0.0
C650 C 0.65871 0.09401 1.00452 0.0
C651 C 0.68832 0.15012 0.99199 0.0
C652 C 0.5141 0.09276 0.02545 0.0
C653 C 0.68814 0.05533 1.00552 0.0
C654 C 0.52558 0.94664 0.0623 0.0
C655 C 0.48494 0.89772 0.04783 0.0
C656 C 0.56617 1.00346 0.05188 0.0
C657 C 0.56519 1.01207 0.02644 0.0
C658 C 0.52455 0.96254 1.01177 0.0
C659 C 0.48547 0.90607 1.0226 0.0
C660 C 0.60936 0.05461 0.06815 0.0
C661 C 0.52054 0.96976 0.9847 0.0
H662 H 0.58561 0.19609 1.00163 0.0
H663 H 0.73119 0.16432 0.98296 0.0
H664 H 0.4791 0.05105 1.01626 0.0
H665 H 0.51351 0.08171 0.04498 0.0
H666 H 0.50119 0.12833 1.02374 0.0
H667 H 0.73548 0.07983 0.99862 0.0
H668 H 0.68825 0.04038 1.02446 0.0
H669 H 0.6617 1.0139 0.99441 0.0
H670 H 0.52602 0.94024 0.08174 0.0
H671 H 0.45383 0.86867 1.01134 0.0
H672 H 0.59686 0.09055 0.0686 0.0
H673 H 0.6562 0.07549 0.06087 0.0
H674 H 0.60896 0.03909 0.08706 0.0
H675 H 0.50468 1.0025 0.98118 0.0
H676 H 0.48894 0.92614 0.97566 0.0
H677 H 0.56591 0.98849 0.9762 0.0
loop_
_geom_bond_atom_site_label_1
_geom_bond_atom_site_label_2
_geom_bond_distance
_geom_bond_site_symmetry_2
_ccdc_geom_bond_type
C0 C1 1.351 . S
C0 N3 1.368 . S
C0 H5 0.931 . S
C1 C0 1.351 . S
C1 N2 1.373 . S
C1 H29 0.930 . S
N2 C1 1.373 . S
N2 C4 1.340 . S
N3 C0 1.368 . S
N3 C4 1.321 . S
N3 Co6 2.135 . S
C4 N2 1.340 . S
C4 N3 1.321 . S
C4 H28 0.930 . S
H5 C0 0.931 . S
Co6 N3 2.135 . S
Co6 N9 2.121 . S
Co6 O14 2.055 . S
Co6 O17 2.039 . S
Co6 N20 2.140 . S
C7 O8 1.227 . S
C7 O17 1.265 . S
O8 C7 1.227 . S
N9 Co6 2.121 . S
N9 C11 1.375 . S
N9 C12 1.313 . S
C10 C11 1.338 . S
C10 N13 1.377 . S
C10 H30 0.930 . S
C11 N9 1.375 . S
C11 C10 1.338 . S
C11 H15 0.931 . S
C12 N9 1.313 . S
C12 N13 1.344 . S
C12 H16 0.930 . S
N13 C10 1.377 . S
N13 C12 1.344 . S
O14 Co6 2.055 . S
O14 C18 1.253 . S
H15 C11 0.931 . S
H16 C12 0.930 . S
O17 Co6 2.039 . S
O17 C7 1.265 . S
C18 O14 1.253 . S
C18 O19 1.227 . S
O19 C18 1.227 . S
N20 Co6 2.140 . S
N20 C23 1.346 . S
N20 C24 1.345 . S
C21 C22 1.387 . S
C21 C25 1.391 . S
C22 C21 1.387 . S
C22 C23 1.369 . S
C22 H31 0.929 . S
C23 N20 1.346 . S
C23 C22 1.369 . S
C23 H26 0.928 . S
C24 N20 1.345 . S
C24 C25 1.371 . S
C24 H27 0.931 . S
C25 C21 1.391 . S
C25 C24 1.371 . S
C25 H32 0.930 . S
H26 C23 0.928 . S
H27 C24 0.931 . S
H28 C4 0.930 . S
H29 C1 0.930 . S
H30 C10 0.930 . S
H31 C22 0.929 . S
H32 C25 0.930 . S
C33 C34 1.351 . S
C33 N36 1.368 . S
C33 H38 0.931 . S
C34 C33 1.351 . S
C34 N35 1.373 . S
C34 H62 0.930 . S
N35 C34 1.373 . S
N35 C37 1.340 . S
N36 C33 1.368 . S
N36 C37 1.321 . S
N36 Co39 2.135 . S
C37 N35 1.340 . S
C37 N36 1.321 . S
C37 H61 0.930 . S
H38 C33 0.931 . S
Co39 N36 2.135 . S
Co39 N42 2.121 . S
Co39 O47 2.055 . S
Co39 O50 2.039 . S
Co39 N53 2.140 . S
C40 O41 1.227 . S
C40 O50 1.265 . S
O41 C40 1.227 . S
N42 Co39 2.121 . S
N42 C44 1.375 . S
N42 C45 1.313 . S
C43 C44 1.338 . S
C43 N46 1.377 . S
C43 H63 0.930 . S
C44 N42 1.375 . S
C44 C43 1.338 . S
C44 H48 0.931 . S
C45 N42 1.313 . S
C45 N46 1.344 . S
C45 H49 0.930 . S
N46 C43 1.377 . S
N46 C45 1.344 . S
O47 Co39 2.055 . S
O47 C51 1.253 . S
H48 C44 0.931 . S
H49 C45 0.930 . S
O50 Co39 2.039 . S
O50 C40 1.265 . S
C51 O47 1.253 . S
C51 O52 1.227 . S
O52 C51 1.227 . S
N53 Co39 2.140 . S
N53 C56 1.346 . S
N53 C57 1.345 . S
C54 C55 1.387 . S
C54 C58 1.391 . S
C55 C54 1.387 . S
C55 C56 1.369 . S
C55 H64 0.929 . S
C56 N53 1.346 . S
C56 C55 1.369 . S
C56 H59 0.928 . S
C57 N53 1.345 . S
C57 C58 1.371 . S
C57 H60 0.931 . S
C58 C54 1.391 . S
C58 C57 1.371 . S
C58 H65 0.930 . S
H59 C56 0.928 . S
H60 C57 0.931 . S
H61 C37 0.930 . S
H62 C34 0.930 . S
H63 C43 0.930 . S
H64 C55 0.929 . S
H65 C58 0.930 . S
C66 C67 1.351 . S
C66 N69 1.368 . S
C66 H71 0.931 . S
C67 C66 1.351 . S
C67 N68 1.373 . S
C67 H95 0.930 . S
N68 C67 1.373 . S
N68 C70 1.340 . S
N69 C66 1.368 . S
N69 C70 1.321 . S
N69 Co72 2.135 . S
C70 N68 1.340 . S
C70 N69 1.321 . S
C70 H94 0.930 . S
H71 C66 0.931 . S
Co72 N69 2.135 . S
Co72 N75 2.121 . S
Co72 O80 2.055 . S
Co72 O83 2.039 . S
Co72 N86 2.140 . S
C73 O74 1.227 . S
C73 O83 1.265 . S
O74 C73 1.227 . S
N75 Co72 2.121 . S
N75 C77 1.375 . S
N75 C78 1.313 . S
C76 C77 1.338 . S
C76 N79 1.377 . S
C76 H96 0.930 . S
C77 N75 1.375 . S
C77 C76 1.338 . S
C77 H81 0.931 . S
C78 N75 1.313 . S
C78 N79 1.344 . S
C78 H82 0.930 . S
N79 C76 1.377 . S
N79 C78 1.344 . S
O80 Co72 2.055 . S
O80 C84 1.253 . S
H81 C77 0.931 . S
H82 C78 0.930 . S
O83 Co72 2.039 . S
O83 C73 1.265 . S
C84 O80 1.253 . S
C84 O85 1.227 . S
O85 C84 1.227 . S
N86 Co72 2.140 . S
N86 C89 1.346 . S
N86 C90 1.345 . S
C87 C88 1.387 . S
C87 C91 1.391 . S
C88 C87 1.387 . S
C88 C89 1.369 . S
C88 H97 0.929 . S
C89 N86 1.346 . S
C89 C88 1.369 . S
C89 H92 0.928 . S
C90 N86 1.345 . S
C90 C91 1.371 . S
C90 H93 0.931 . S
C91 C87 1.391 . S
C91 C90 1.371 . S
C91 H98 0.930 . S
H92 C89 0.928 . S
H93 C90 0.931 . S
H94 C70 0.930 . S
H95 C67 0.930 . S
H96 C76 0.930 . S
H97 C88 0.929 . S
H98 C91 0.930 . S
C99 C100 1.351 . S
C99 N102 1.368 . S
C99 H104 0.931 . S
C100 C99 1.351 . S
C100 N101 1.373 . S
C100 H128 0.930 . S
N101 C100 1.373 . S
N101 C103 1.340 . S
N102 C99 1.368 . S
N102 C103 1.321 . S
N102 Co105 2.135 . S
C103 N101 1.340 . S
C103 N102 1.321 . S
C103 H127 0.930 . S
H104 C99 0.931 . S
Co105 N102 2.135 . S
Co105 N108 2.121 . S
Co105 O113 2.055 . S
Co105 O116 2.039 . S
Co105 N119 2.140 . S
C106 O107 1.227 . S
C106 O116 1.265 . S
O107 C106 1.227 . S
N108 Co105 2.121 . S
N108 C110 1.375 . S
N108 C111 1.313 . S
C109 C110 1.338 . S
C109 N112 1.377 . S
C109 H129 0.930 . S
C110 N108 1.375 . S
C110 C109 1.338 . S
C110 H114 0.931 . S
C111 N108 1.313 . S
C111 N112 1.344 . S
C111 H115 0.930 . S
N112 C109 1.377 . S
N112 C111 1.344 . S
O113 Co105 2.055 . S
O113 C117 1.253 . S
H114 C110 0.931 . S
H115 C111 0.930 . S
O116 Co105 2.039 . S
O116 C106 1.265 . S
C117 O113 1.253 . S
C117 O118 1.227 . S
O118 C117 1.227 . S
N119 Co105 2.140 . S
N119 C122 1.346 . S
N119 C123 1.345 . S
C120 C121 1.387 . S
C120 C124 1.391 . S
C121 C120 1.387 . S
C121 C122 1.369 . S
C121 H130 0.929 . S
C122 N119 1.346 . S
C122 C121 1.369 . S
C122 H125 0.928 . S
C123 N119 1.345 . S
C123 C124 1.371 . S
C123 H126 0.931 . S
C124 C120 1.391 . S
C124 C123 1.371 . S
C124 H131 0.930 . S
H125 C122 0.928 . S
H126 C123 0.931 . S
H127 C103 0.930 . S
H128 C100 0.930 . S
H129 C109 0.930 . S
H130 C121 0.929 . S
H131 C124 0.930 . S
C132 C133 1.351 . S
C132 N135 1.368 . S
C132 H137 0.931 . S
C133 C132 1.351 . S
C133 N134 1.373 . S
C133 H161 0.930 . S
N134 C133 1.373 . S
N134 C136 1.340 . S
N135 C132 1.368 . S
N135 C136 1.321 . S
N135 Co138 2.135 . S
C136 N134 1.340 . S
C136 N135 1.321 . S
C136 H160 0.930 . S
H137 C132 0.931 . S
Co138 N135 2.135 . S
Co138 N141 2.121 . S
Co138 O146 2.055 . S
Co138 O149 2.039 . S
Co138 N152 2.140 . S
C139 O140 1.227 . S
C139 O149 1.265 . S
O140 C139 1.227 . S
N141 Co138 2.121 . S
N141 C143 1.375 . S
N141 C144 1.313 . S
C142 C143 1.338 . S
C142 N145 1.377 . S
C142 H162 0.930 . S
C143 N141 1.375 . S
C143 C142 1.338 . S
C143 H147 0.931 . S
C144 N141 1.313 . S
C144 N145 1.344 . S
C144 H148 0.930 . S
N145 C142 1.377 . S
N145 C144 1.344 . S
O146 Co138 2.055 . S
O146 C150 1.253 . S
H147 C143 0.931 . S
H148 C144 0.930 . S
O149 Co138 2.039 . S
O149 C139 1.265 . S
C150 O146 1.253 . S
C150 O151 1.227 . S
O151 C150 1.227 . S
N152 Co138 2.140 . S
N152 C155 1.346 . S
N152 C156 1.345 . S
C153 C154 1.387 . S
C153 C157 1.391 . S
C154 C153 1.387 . S
C154 C155 1.369 . S
C154 H163 0.929 . S
C155 N152 1.346 . S
C155 C154 1.369 . S
C155 H158 0.928 . S
C156 N152 1.345 . S
C156 C157 1.371 . S
C156 H159 0.931 . S
C157 C153 1.391 . S
C157 C156 1.371 . S
C157 H164 0.930 . S
H158 C155 0.928 . S
H159 C156 0.931 . S
H160 C136 0.930 . S
H161 C133 0.930 . S
H162 C142 0.930 . S
H163 C154 0.929 . S
H164 C157 0.930 . S
C165 C166 1.351 . S
C165 N168 1.368 . S
C165 H170 0.931 . S
C166 C165 1.351 . S
C166 N167 1.373 . S
C166 H194 0.930 . S
N167 C166 1.373 . S
N167 C169 1.340 . S
N168 C165 1.368 . S
N168 C169 1.321 . S
N168 Co171 2.135 . S
C169 N167 1.340 . S
C169 N168 1.321 . S
C169 H193 0.930 . S
H170 C165 0.931 . S
Co171 N168 2.135 . S
Co171 N174 2.121 . S
Co171 O179 2.055 . S
Co171 O182 2.039 . S
Co171 N185 2.140 . S
C172 O173 1.227 . S
C172 O182 1.265 . S
O173 C172 1.227 . S
N174 Co171 2.121 . S
N174 C176 1.375 . S
N174 C177 1.313 . S
C175 C176 1.338 . S
C175 N178 1.377 . S
C175 H195 0.930 . S
C176 N174 1.375 . S
C176 C175 1.338 . S
C176 H180 0.931 . S
C177 N174 1.313 . S
C177 N178 1.344 . S
C177 H181 0.930 . S
N178 C175 1.377 . S
N178 C177 1.344 . S
O179 Co171 2.055 . S
O179 C183 1.253 . S
H180 C176 0.931 . S
H181 C177 0.930 . S
O182 Co171 2.039 . S
O182 C172 1.265 . S
C183 O179 1.253 . S
C183 O184 1.227 . S
O184 C183 1.227 . S
N185 Co171 2.140 . S
N185 C188 1.346 . S
N185 C189 1.345 . S
C186 C187 1.387 . S
C186 C190 1.391 . S
C187 C186 1.387 . S
C187 C188 1.369 . S
C187 H196 0.929 . S
C188 N185 1.346 . S
C188 C187 1.369 . S
C188 H191 0.928 . S
C189 N185 1.345 . S
C189 C190 1.371 . S
C189 H192 0.931 . S
C190 C186 1.391 . S
C190 C189 1.371 . S
C190 H197 0.930 . S
H191 C188 0.928 . S
H192 C189 0.931 . S
H193 C169 0.930 . S
H194 C166 0.930 . S
H195 C175 0.930 . S
H196 C187 0.929 . S
H197 C190 0.930 . S
C198 C199 1.391 . S
C198 C200 1.394 . S
C198 H214 0.931 . S
C199 C198 1.391 . S
C199 C203 1.376 . S
C200 C198 1.394 . S
C200 C201 1.369 . S
C200 C204 1.531 1_545 S
C201 C200 1.369 . S
C201 C202 1.410 . S
C201 C209 1.503 1_545 S
C202 C201 1.410 . S
C202 C203 1.392 . S
C202 C205 1.511 . S
C203 C199 1.376 . S
C203 C202 1.392 . S
C203 H215 0.929 . S
C204 C200 1.531 1_565 S
C204 H216 0.960 . S
C204 H217 0.962 . S
C204 H218 0.960 . S
C205 C202 1.511 . S
C205 H219 0.961 . S
C205 H220 0.961 . S
C205 H221 0.961 . S
C206 C207 1.370 . S
C206 C208 1.363 . S
C206 H222 0.931 . S
C207 C206 1.370 . S
C207 C211 1.408 . S
C208 C206 1.363 . S
C208 C209 1.370 . S
C208 C212 1.524 1_565 S
C209 C201 1.503 1_565 S
C209 C208 1.370 . S
C209 C210 1.403 . S
C210 C209 1.403 . S
C210 C211 1.404 . S
C210 C213 1.539 . S
C211 C207 1.408 . S
C211 C210 1.404 . S
C211 H223 0.930 . S
C212 C208 1.524 1_545 S
C212 H224 0.956 . S
C212 H225 0.961 . S
C212 H226 0.961 . S
C213 C210 1.539 . S
C213 H227 0.958 . S
C213 H228 0.961 . S
C213 H229 0.960 . S
H214 C198 0.931 . S
H215 C203 0.929 . S
H216 C204 0.960 . S
H217 C204 0.962 . S
H218 C204 0.960 . S
H219 C205 0.961 . S
H220 C205 0.961 . S
H221 C205 0.961 . S
H222 C206 0.931 . S
H223 C211 0.930 . S
H224 C212 0.956 . S
H225 C212 0.961 . S
H226 C212 0.961 . S
H227 C213 0.958 . S
H228 C213 0.961 . S
H229 C213 0.960 . S
C230 C231 1.391 . S
C230 C232 1.394 . S
C230 H246 0.931 . S
C231 C230 1.391 . S
C231 C235 1.376 . S
C232 C230 1.394 . S
C232 C233 1.369 . S
C232 C236 1.531 1_455 S
C233 C232 1.369 . S
C233 C234 1.410 . S
C233 C241 1.503 1_455 S
C234 C233 1.410 . S
C234 C235 1.392 . S
C234 C237 1.511 . S
C235 C231 1.376 . S
C235 C234 1.392 . S
C235 H247 0.929 . S
C236 C232 1.531 1_655 S
C236 H248 0.960 . S
C236 H249 0.962 . S
C236 H250 0.960 . S
C237 C234 1.511 . S
C237 H251 0.961 . S
C237 H252 0.961 . S
C237 H253 0.961 . S
C238 C239 1.370 . S
C238 C240 1.363 . S
C238 H254 0.931 . S
C239 C238 1.370 . S
C239 C243 1.408 . S
C240 C238 1.363 . S
C240 C241 1.370 . S
C240 C244 1.524 1_655 S
C241 C233 1.503 1_655 S
C241 C240 1.370 . S
C241 C242 1.403 . S
C242 C241 1.403 . S
C242 C243 1.404 . S
C242 C245 1.539 . S
C243 C239 1.408 . S
C243 C242 1.404 . S
C243 H255 0.930 . S
C244 C240 1.524 1_455 S
C244 H256 0.956 . S
C244 H257 0.961 . S
C244 H258 0.961 . S
C245 C242 1.539 . S
C245 H259 0.958 . S
C245 H260 0.961 . S
C245 H261 0.960 . S
H246 C230 0.931 . S
H247 C235 0.929 . S
H248 C236 0.960 . S
H249 C236 0.962 . S
H250 C236 0.960 . S
H251 C237 0.961 . S
H252 C237 0.961 . S
H253 C237 0.961 . S
H254 C238 0.931 . S
H255 C243 0.930 . S
H256 C244 0.956 . S
H257 C244 0.961 . S
H258 C244 0.961 . S
H259 C245 0.958 . S
H260 C245 0.961 . S
H261 C245 0.960 . S
C262 C263 1.391 . S
C262 C264 1.394 . S
C262 H278 0.931 . S
C263 C262 1.391 . S
C263 C267 1.376 . S
C264 C262 1.394 . S
C264 C265 1.369 . S
C264 C268 1.531 . S
C265 C264 1.369 . S
C265 C266 1.410 . S
C265 C273 1.503 . S
C266 C265 1.410 . S
C266 C267 1.392 . S
C266 C269 1.511 . S
C267 C263 1.376 . S
C267 C266 1.392 . S
C267 H279 0.929 . S
C268 C264 1.531 . S
C268 H280 0.960 . S
C268 H281 0.962 . S
C268 H282 0.960 . S
C269 C266 1.511 . S
C269 H283 0.961 . S
C269 H284 0.961 . S
C269 H285 0.961 . S
C270 C271 1.370 . S
C270 C272 1.363 . S
C270 H286 0.931 . S
C271 C270 1.370 . S
C271 C275 1.408 . S
C272 C270 1.363 . S
C272 C273 1.370 . S
C272 C276 1.524 . S
C273 C265 1.503 . S
C273 C272 1.370 . S
C273 C274 1.403 . S
C274 C273 1.403 . S
C274 C275 1.404 . S
C274 C277 1.539 . S
C275 C271 1.408 . S
C275 C274 1.404 . S
C275 H287 0.930 . S
C276 C272 1.524 . S
C276 H288 0.956 . S
C276 H289 0.961 . S
C276 H290 0.961 . S
C277 C274 1.539 . S
C277 H291 0.958 . S
C277 H292 0.961 . S
C277 H293 0.960 . S
H278 C262 0.931 . S
H279 C267 0.929 . S
H280 C268 0.960 . S
H281 C268 0.962 . S
H282 C268 0.960 . S
H283 C269 0.961 . S
H284 C269 0.961 . S
H285 C269 0.961 . S
H286 C270 0.931 . S
H287 C275 0.930 . S
H288 C276 0.956 . S
H289 C276 0.961 . S
H290 C276 0.961 . S
H291 C277 0.958 . S
H292 C277 0.961 . S
H293 C277 0.960 . S
C294 C295 1.391 . S
C294 C296 1.394 . S
C294 H310 0.931 . S
C295 C294 1.391 . S
C295 C299 1.376 . S
C296 C294 1.394 . S
C296 C297 1.369 . S
C296 C300 1.531 . S
C297 C296 1.369 . S
C297 C298 1.410 . S
C297 C305 1.503 . S
C298 C297 1.410 . S
C298 C299 1.392 . S
C298 C301 1.511 . S
C299 C295 1.376 . S
C299 C298 1.392 . S
C299 H311 0.929 . S
C300 C296 1.531 . S
C300 H312 0.960 . S
C300 H313 0.962 . S
C300 H314 0.960 . S
C301 C298 1.511 . S
C301 H315 0.961 . S
C301 H316 0.961 . S
C301 H317 0.961 . S
C302 C303 1.370 . S
C302 C304 1.363 . S
C302 H318 0.931 . S
C303 C302 1.370 . S
C303 C307 1.408 . S
C304 C302 1.363 . S
C304 C305 1.370 . S
C304 C308 1.524 . S
C305 C297 1.503 . S
C305 C304 1.370 . S
C305 C306 1.403 . S
C306 C305 1.403 . S
C306 C307 1.404 . S
C306 C309 1.539 . S
C307 C303 1.408 . S
C307 C306 1.404 . S
C307 H319 0.930 . S
C308 C304 1.524 . S
C308 H320 0.956 . S
C308 H321 0.961 . S
C308 H322 0.961 . S
C309 C306 1.539 . S
C309 H323 0.958 . S
C309 H324 0.961 . S
C309 H325 0.960 . S
H310 C294 0.931 . S
H311 C299 0.929 . S
H312 C300 0.960 . S
H313 C300 0.962 . S
H314 C300 0.960 . S
H315 C301 0.961 . S
H316 C301 0.961 . S
H317 C301 0.961 . S
H318 C302 0.931 . S
H319 C307 0.930 . S
H320 C308 0.956 . S
H321 C308 0.961 . S
H322 C308 0.961 . S
H323 C309 0.958 . S
H324 C309 0.961 . S
H325 C309 0.960 . S
C326 C327 1.391 . S
C326 C328 1.394 . S
C326 H342 0.931 . S
C327 C326 1.391 . S
C327 C331 1.376 . S
C328 C326 1.394 . S
C328 C329 1.369 . S
C328 C332 1.531 . S
C329 C328 1.369 . S
C329 C330 1.410 . S
C329 C337 1.503 . S
C330 C329 1.410 . S
C330 C331 1.392 . S
C330 C333 1.511 . S
C331 C327 1.376 . S
C331 C330 1.392 . S
C331 H343 0.929 . S
C332 C328 1.531 . S
C332 H344 0.960 . S
C332 H345 0.962 . S
C332 H346 0.960 . S
C333 C330 1.511 . S
C333 H347 0.961 . S
C333 H348 0.961 . S
C333 H349 0.961 . S
C334 C335 1.370 1_565 S
C334 C336 1.363 . S
C334 H350 0.931 . S
C335 C334 1.370 1_545 S
C335 C339 1.408 . S
C336 C334 1.363 . S
C336 C337 1.370 . S
C336 C340 1.524 . S
C337 C329 1.503 . S
C337 C336 1.370 . S
C337 C338 1.403 . S
C338 C337 1.403 . S
C338 C339 1.404 1_565 S
C338 C341 1.539 . S
C339 C335 1.408 . S
C339 C338 1.404 1_545 S
C339 H351 0.930 . S
C340 C336 1.524 . S
C340 H352 0.956 . S
C340 H353 0.961 . S
C340 H354 0.961 . S
C341 C338 1.539 . S
C341 H355 0.958 . S
C341 H356 0.961 . S
C341 H357 0.960 . S
H342 C326 0.931 . S
H343 C331 0.929 . S
H344 C332 0.960 . S
H345 C332 0.962 . S
H346 C332 0.960 . S
H347 C333 0.961 . S
H348 C333 0.961 . S
H349 C333 0.961 . S
H350 C334 0.931 . S
H351 C339 0.930 . S
H352 C340 0.956 . S
H353 C340 0.961 . S
H354 C340 0.961 . S
H355 C341 0.958 . S
H356 C341 0.961 . S
H357 C341 0.960 . S
C358 C359 1.391 1_455 S
C358 C360 1.394 . S
C358 H374 0.931 1_455 S
C359 C358 1.391 1_655 S
C359 C363 1.376 1_655 S
C360 C358 1.394 . S
C360 C361 1.369 . S
C360 C364 1.531 . S
C361 C360 1.369 . S
C361 C362 1.410 . S
C361 C369 1.503 . S
C362 C361 1.410 . S
C362 C363 1.392 . S
C362 C365 1.511 . S
C363 C359 1.376 1_455 S
C363 C362 1.392 . S
C363 H375 0.929 1_455 S
C364 C360 1.531 . S
C364 H376 0.960 . S
C364 H377 0.962 . S
C364 H378 0.960 . S
C365 C362 1.511 . S
C365 H379 0.961 . S
C365 H380 0.961 . S
C365 H381 0.961 . S
C366 C367 1.370 . S
C366 C368 1.363 . S
C366 H382 0.931 . S
C367 C366 1.370 . S
C367 C371 1.408 . S
C368 C366 1.363 . S
C368 C369 1.370 . S
C368 C372 1.524 . S
C369 C361 1.503 . S
C369 C368 1.370 . S
C369 C370 1.403 . S
C370 C369 1.403 . S
C370 C371 1.404 . S
C370 C373 1.539 . S
C371 C367 1.408 . S
C371 C370 1.404 . S
C371 H383 0.930 . S
C372 C368 1.524 . S
C372 H384 0.956 . S
C372 H385 0.961 . S
C372 H386 0.961 . S
C373 C370 1.539 . S
C373 H387 0.958 . S
C373 H388 0.961 . S
C373 H389 0.960 . S
H374 C358 0.931 1_655 S
H375 C363 0.929 1_655 S
H376 C364 0.960 . S
H377 C364 0.962 . S
H378 C364 0.960 . S
H379 C365 0.961 . S
H380 C365 0.961 . S
H381 C365 0.961 . S
H382 C366 0.931 . S
H383 C371 0.930 . S
H384 C372 0.956 . S
H385 C372 0.961 . S
H386 C372 0.961 . S
H387 C373 0.958 . S
H388 C373 0.961 . S
H389 C373 0.960 . S
C390 C391 1.391 . S
C390 C392 1.394 . S
C390 H406 0.931 . S
C391 C390 1.391 . S
C391 C395 1.376 . S
C392 C390 1.394 . S
C392 C393 1.369 . S
C392 C396 1.531 . S
C393 C392 1.369 . S
C393 C394 1.410 . S
C393 C401 1.503 . S
C394 C393 1.410 . S
C394 C395 1.392 . S
C394 C397 1.511 . S
C395 C391 1.376 . S
C395 C394 1.392 . S
C395 H407 0.929 . S
C396 C392 1.531 . S
C396 H408 0.960 . S
C396 H409 0.962 . S
C396 H410 0.960 . S
C397 C394 1.511 . S
C397 H411 0.961 . S
C397 H412 0.961 . S
C397 H413 0.961 . S
C398 C399 1.370 . S
C398 C400 1.363 . S
C398 H414 0.931 . S
C399 C398 1.370 . S
C399 C403 1.408 . S
C400 C398 1.363 . S
C400 C401 1.370 . S
C400 C404 1.524 . S
C401 C393 1.503 . S
C401 C400 1.370 . S
C401 C402 1.403 . S
C402 C401 1.403 . S
C402 C403 1.404 . S
C402 C405 1.539 . S
C403 C399 1.408 . S
C403 C402 1.404 . S
C403 H415 0.930 . S
C404 C400 1.524 . S
C404 H416 0.956 . S
C404 H417 0.961 . S
C404 H418 0.961 . S
C405 C402 1.539 . S
C405 H419 0.958 . S
C405 H420 0.961 . S
C405 H421 0.960 . S
H406 C390 0.931 . S
H407 C395 0.929 . S
H408 C396 0.960 . S
H409 C396 0.962 . S
H410 C396 0.960 . S
H411 C397 0.961 . S
H412 C397 0.961 . S
H413 C397 0.961 . S
H414 C398 0.931 . S
H415 C403 0.930 . S
H416 C404 0.956 . S
H417 C404 0.961 . S
H418 C404 0.961 . S
H419 C405 0.958 . S
H420 C405 0.961 . S
H421 C405 0.960 . S
C422 C423 1.391 . S
C422 C424 1.394 . S
C422 H438 0.931 . S
C423 C422 1.391 . S
C423 C427 1.376 . S
C424 C422 1.394 . S
C424 C425 1.369 . S
C424 C428 1.531 . S
C425 C424 1.369 . S
C425 C426 1.410 . S
C425 C433 1.503 . S
C426 C425 1.410 . S
C426 C427 1.392 . S
C426 C429 1.511 . S
C427 C423 1.376 . S
C427 C426 1.392 . S
C427 H439 0.929 . S
C428 C424 1.531 . S
C428 H440 0.960 . S
C428 H441 0.962 . S
C428 H442 0.960 . S
C429 C426 1.511 . S
C429 H443 0.961 . S
C429 H444 0.961 . S
C429 H445 0.961 . S
C430 C431 1.370 1_545 S
C430 C432 1.363 . S
C430 H446 0.931 . S
C431 C430 1.370 1_565 S
C431 C435 1.408 . S
C432 C430 1.363 . S
C432 C433 1.370 . S
C432 C436 1.524 . S
C433 C425 1.503 . S
C433 C432 1.370 . S
C433 C434 1.403 . S
C434 C433 1.403 . S
C434 C435 1.404 1_545 S
C434 C437 1.539 . S
C435 C431 1.408 . S
C435 C434 1.404 1_565 S
C435 H447 0.930 . S
C436 C432 1.524 . S
C436 H448 0.956 . S
C436 H449 0.961 . S
C436 H450 0.961 . S
C437 C434 1.539 . S
C437 H451 0.958 . S
C437 H452 0.961 . S
C437 H453 0.960 . S
H438 C422 0.931 . S
H439 C427 0.929 . S
H440 C428 0.960 . S
H441 C428 0.962 . S
H442 C428 0.960 . S
H443 C429 0.961 . S
H444 C429 0.961 . S
H445 C429 0.961 . S
H446 C430 0.931 . S
H447 C435 0.930 . S
H448 C436 0.956 . S
H449 C436 0.961 . S
H450 C436 0.961 . S
H451 C437 0.958 . S
H452 C437 0.961 . S
H453 C437 0.960 . S
C454 C455 1.391 1_655 S
C454 C456 1.394 . S
C454 H470 0.931 . S
C455 C454 1.391 1_455 S
C455 C459 1.376 . S
C456 C454 1.394 . S
C456 C457 1.369 . S
C456 C460 1.531 . S
C457 C456 1.369 . S
C457 C458 1.410 . S
C457 C465 1.503 . S
C458 C457 1.410 . S
C458 C459 1.392 1_655 S
C458 C461 1.511 . S
C459 C455 1.376 . S
C459 C458 1.392 1_455 S
C459 H471 0.929 . S
C460 C456 1.531 . S
C460 H472 0.960 . S
C460 H473 0.962 . S
C460 H474 0.960 . S
C461 C458 1.511 . S
C461 H475 0.961 . S
C461 H476 0.961 . S
C461 H477 0.961 . S
C462 C463 1.370 . S
C462 C464 1.363 . S
C462 H478 0.931 . S
C463 C462 1.370 . S
C463 C467 1.408 . S
C464 C462 1.363 . S
C464 C465 1.370 . S
C464 C468 1.524 . S
C465 C457 1.503 . S
C465 C464 1.370 . S
C465 C466 1.403 . S
C466 C465 1.403 . S
C466 C467 1.404 . S
C466 C469 1.539 . S
C467 C463 1.408 . S
C467 C466 1.404 . S
C467 H479 0.930 . S
C468 C464 1.524 . S
C468 H480 0.956 . S
C468 H481 0.961 . S
C468 H482 0.961 . S
C469 C466 1.539 . S
C469 H483 0.958 . S
C469 H484 0.961 . S
C469 H485 0.960 . S
H470 C454 0.931 . S
H471 C459 0.929 . S
H472 C460 0.960 . S
H473 C460 0.962 . S
H474 C460 0.960 . S
H475 C461 0.961 . S
H476 C461 0.961 . S
H477 C461 0.961 . S
H478 C462 0.931 . S
H479 C467 0.930 . S
H480 C468 0.956 . S
H481 C468 0.961 . S
H482 C468 0.961 . S
H483 C469 0.958 . S
H484 C469 0.961 . S
H485 C469 0.960 . S
C486 C487 1.391 . S
C486 C488 1.394 1_565 S
C486 H502 0.931 . S
C487 C486 1.391 . S
C487 C491 1.376 . S
C488 C486 1.394 1_545 S
C488 C489 1.369 . S
C488 C492 1.531 . S
C489 C488 1.369 . S
C489 C490 1.410 1_545 S
C489 C497 1.503 . S
C490 C489 1.410 1_565 S
C490 C491 1.392 . S
C490 C493 1.511 . S
C491 C487 1.376 . S
C491 C490 1.392 . S
C491 H503 0.929 . S
C492 C488 1.531 . S
C492 H504 0.960 . S
C492 H505 0.962 . S
C492 H506 0.960 . S
C493 C490 1.511 . S
C493 H507 0.961 . S
C493 H508 0.961 . S
C493 H509 0.961 . S
C494 C495 1.370 . S
C494 C496 1.363 . S
C494 H510 0.931 . S
C495 C494 1.370 . S
C495 C499 1.408 . S
C496 C494 1.363 . S
C496 C497 1.370 . S
C496 C500 1.524 . S
C497 C489 1.503 . S
C497 C496 1.370 . S
C497 C498 1.403 . S
C498 C497 1.403 . S
C498 C499 1.404 . S
C498 C501 1.539 . S
C499 C495 1.408 . S
C499 C498 1.404 . S
C499 H511 0.930 . S
C500 C496 1.524 . S
C500 H512 0.956 . S
C500 H513 0.961 . S
C500 H514 0.961 . S
C501 C498 1.539 . S
C501 H515 0.958 . S
C501 H516 0.961 . S
C501 H517 0.960 1_545 S
H502 C486 0.931 . S
H503 C491 0.929 . S
H504 C492 0.960 . S
H505 C492 0.962 . S
H506 C492 0.960 . S
H507 C493 0.961 . S
H508 C493 0.961 . S
H509 C493 0.961 . S
H510 C494 0.931 . S
H511 C499 0.930 . S
H512 C500 0.956 . S
H513 C500 0.961 . S
H514 C500 0.961 . S
H515 C501 0.958 . S
H516 C501 0.961 . S
H517 C501 0.960 1_565 S
C518 C519 1.391 . S
C518 C520 1.394 1_556 S
C518 H534 0.931 . S
C519 C518 1.391 . S
C519 C523 1.376 . S
C520 C518 1.394 1_554 S
C520 C521 1.369 1_554 S
C520 C524 1.531 . S
C521 C520 1.369 1_556 S
C521 C522 1.410 . S
C521 C529 1.503 1_556 S
C522 C521 1.410 . S
C522 C523 1.392 . S
C522 C525 1.511 1_655 S
C523 C519 1.376 . S
C523 C522 1.392 . S
C523 H535 0.929 . S
C524 C520 1.531 . S
C524 H536 0.960 . S
C524 H537 0.962 . S
C524 H538 0.960 . S
C525 C522 1.511 1_455 S
C525 H539 0.961 . S
C525 H540 0.961 . S
C525 H541 0.961 . S
C526 C527 1.370 . S
C526 C528 1.363 . S
C526 H542 0.931 . S
C527 C526 1.370 . S
C527 C531 1.408 . S
C528 C526 1.363 . S
C528 C529 1.370 1_455 S
C528 C532 1.524 1_454 S
C529 C521 1.503 1_554 S
C529 C528 1.370 1_655 S
C529 C530 1.403 1_655 S
C530 C529 1.403 1_455 S
C530 C531 1.404 . S
C530 C533 1.539 . S
C531 C527 1.408 . S
C531 C530 1.404 . S
C531 H543 0.930 . S
C532 C528 1.524 1_656 S
C532 H544 0.956 . S
C532 H545 0.961 . S
C532 H546 0.961 . S
C533 C530 1.539 . S
C533 H547 0.958 1_455 S
C533 H548 0.961 . S
C533 H549 0.960 1_455 S
H534 C518 0.931 . S
H535 C523 0.929 . S
H536 C524 0.960 . S
H537 C524 0.962 . S
H538 C524 0.960 . S
H539 C525 0.961 . S
H540 C525 0.961 . S
H541 C525 0.961 . S
H542 C526 0.931 . S
H543 C531 0.930 . S
H544 C532 0.956 . S
H545 C532 0.961 . S
H546 C532 0.961 . S
H547 C533 0.958 1_655 S
H548 C533 0.961 . S
H549 C533 0.960 1_655 S
C550 C551 1.391 . S
C550 C552 1.394 . S
C550 H566 0.931 . S
C551 C550 1.391 . S
C551 C555 1.376 . S
C552 C550 1.394 . S
C552 C553 1.369 . S
C552 C556 1.531 . S
C553 C552 1.369 . S
C553 C554 1.410 . S
C553 C561 1.503 . S
C554 C553 1.410 . S
C554 C555 1.392 . S
C554 C557 1.511 . S
C555 C551 1.376 . S
C555 C554 1.392 . S
C555 H567 0.929 . S
C556 C552 1.531 . S
C556 H568 0.960 . S
C556 H569 0.962 . S
C556 H570 0.960 . S
C557 C554 1.511 . S
C557 H571 0.961 . S
C557 H572 0.961 . S
C557 H573 0.961 . S
C558 C559 1.370 . S
C558 C560 1.363 . S
C558 H574 0.931 . S
C559 C558 1.370 . S
C559 C563 1.408 . S
C560 C558 1.363 . S
C560 C561 1.370 . S
C560 C564 1.524 . S
C561 C553 1.503 . S
C561 C560 1.370 . S
C561 C562 1.403 . S
C562 C561 1.403 . S
C562 C563 1.404 . S
C562 C565 1.539 . S
C563 C559 1.408 . S
C563 C562 1.404 . S
C563 H575 0.930 . S
C564 C560 1.524 . S
C564 H576 0.956 . S
C564 H577 0.961 . S
C564 H578 0.961 . S
C565 C562 1.539 . S
C565 H579 0.958 . S
C565 H580 0.961 . S
C565 H581 0.960 . S
H566 C550 0.931 . S
H567 C555 0.929 . S
H568 C556 0.960 . S
H569 C556 0.962 . S
H570 C556 0.960 . S
H571 C557 0.961 . S
H572 C557 0.961 . S
H573 C557 0.961 . S
H574 C558 0.931 . S
H575 C563 0.930 . S
H576 C564 0.956 . S
H577 C564 0.961 . S
H578 C564 0.961 . S
H579 C565 0.958 . S
H580 C565 0.961 . S
H581 C565 0.960 . S
C582 C583 1.391 . S
C582 C584 1.394 . S
C582 H598 0.931 . S
C583 C582 1.391 . S
C583 C587 1.376 . S
C584 C582 1.394 . S
C584 C585 1.369 . S
C584 C588 1.531 . S
C585 C584 1.369 . S
C585 C586 1.410 . S
C585 C593 1.503 . S
C586 C585 1.410 . S
C586 C587 1.392 . S
C586 C589 1.511 . S
C587 C583 1.376 . S
C587 C586 1.392 . S
C587 H599 0.929 . S
C588 C584 1.531 . S
C588 H600 0.960 . S
C588 H601 0.962 . S
C588 H602 0.960 . S
C589 C586 1.511 . S
C589 H603 0.961 . S
C589 H604 0.961 . S
C589 H605 0.961 . S
C590 C591 1.370 . S
C590 C592 1.363 . S
C590 H606 0.931 . S
C591 C590 1.370 . S
C591 C595 1.408 . S
C592 C590 1.363 . S
C592 C593 1.370 1_655 S
C592 C596 1.524 . S
C593 C585 1.503 . S
C593 C592 1.370 1_455 S
C593 C594 1.403 . S
C594 C593 1.403 . S
C594 C595 1.404 1_455 S
C594 C597 1.539 . S
C595 C591 1.408 . S
C595 C594 1.404 1_655 S
C595 H607 0.930 . S
C596 C592 1.524 . S
C596 H608 0.956 . S
C596 H609 0.961 . S
C596 H610 0.961 . S
C597 C594 1.539 . S
C597 H611 0.958 . S
C597 H612 0.961 . S
C597 H613 0.960 . S
H598 C582 0.931 . S
H599 C587 0.929 . S
H600 C588 0.960 . S
H601 C588 0.962 . S
H602 C588 0.960 . S
H603 C589 0.961 . S
H604 C589 0.961 . S
H605 C589 0.961 . S
H606 C590 0.931 . S
H607 C595 0.930 . S
H608 C596 0.956 . S
H609 C596 0.961 . S
H610 C596 0.961 . S
H611 C597 0.958 . S
H612 C597 0.961 . S
H613 C597 0.960 . S
C614 C615 1.391 . S
C614 C616 1.394 . S
C614 H630 0.931 . S
C615 C614 1.391 . S
C615 C619 1.376 . S
C616 C614 1.394 . S
C616 C617 1.369 . S
C616 C620 1.531 . S
C617 C616 1.369 . S
C617 C618 1.410 . S
C617 C625 1.503 . S
C618 C617 1.410 . S
C618 C619 1.392 . S
C618 C621 1.511 . S
C619 C615 1.376 . S
C619 C618 1.392 . S
C619 H631 0.929 . S
C620 C616 1.531 . S
C620 H632 0.960 . S
C620 H633 0.962 . S
C620 H634 0.960 . S
C621 C618 1.511 . S
C621 H635 0.961 . S
C621 H636 0.961 . S
C621 H637 0.961 . S
C622 C623 1.370 . S
C622 C624 1.363 . S
C622 H638 0.931 . S
C623 C622 1.370 . S
C623 C627 1.408 . S
C624 C622 1.363 . S
C624 C625 1.370 . S
C624 C628 1.524 . S
C625 C617 1.503 . S
C625 C624 1.370 . S
C625 C626 1.403 . S
C626 C625 1.403 . S
C626 C627 1.404 . S
C626 C629 1.539 . S
C627 C623 1.408 . S
C627 C626 1.404 . S
C627 H639 0.930 . S
C628 C624 1.524 . S
C628 H640 0.956 . S
C628 H641 0.961 . S
C628 H642 0.961 . S
C629 C626 1.539 . S
C629 H643 0.958 . S
C629 H644 0.961 . S
C629 H645 0.960 . S
H630 C614 0.931 . S
H631 C619 0.929 . S
H632 C620 0.960 . S
H633 C620 0.962 . S
H634 C620 0.960 . S
H635 C621 0.961 . S
H636 C621 0.961 . S
H637 C621 0.961 . S
H638 C622 0.931 . S
H639 C627 0.930 . S
H640 C628 0.956 . S
H641 C628 0.961 . S
H642 C628 0.961 . S
H643 C629 0.958 . S
H644 C629 0.961 . S
H645 C629 0.960 . S
C646 C647 1.391 . S
C646 C648 1.394 . S
C646 H662 0.931 . S
C647 C646 1.391 . S
C647 C651 1.376 . S
C648 C646 1.394 . S
C648 C649 1.369 1_545 S
C648 C652 1.531 . S
C649 C648 1.369 1_565 S
C649 C650 1.410 . S
C649 C657 1.503 1_556 S
C650 C649 1.410 . S
C650 C651 1.392 1_565 S
C650 C653 1.511 . S
C651 C647 1.376 . S
C651 C650 1.392 1_545 S
C651 H663 0.929 . S
C652 C648 1.531 . S
C652 H664 0.960 1_545 S
C652 H665 0.962 . S
C652 H666 0.960 . S
C653 C650 1.511 . S
C653 H667 0.961 . S
C653 H668 0.961 1_556 S
C653 H669 0.961 . S
C654 C655 1.370 . S
C654 C656 1.363 . S
C654 H670 0.931 . S
C655 C654 1.370 . S
C655 C659 1.408 . S
C656 C654 1.363 . S
C656 C657 1.370 . S
C656 C660 1.524 1_565 S
C657 C649 1.503 1_554 S
C657 C656 1.370 . S
C657 C658 1.403 1_554 S
C658 C657 1.403 1_556 S
C658 C659 1.404 1_556 S
C658 C661 1.539 . S
C659 C655 1.408 . S
C659 C658 1.404 1_554 S
C659 H671 0.930 . S
C660 C656 1.524 1_545 S
C660 H672 0.956 . S
C660 H673 0.961 . S
C660 H674 0.961 . S
C661 C658 1.539 . S
C661 H675 0.958 . S
C661 H676 0.961 . S
C661 H677 0.960 . S
H662 C646 0.931 . S
H663 C651 0.929 . S
H664 C652 0.960 1_565 S
H665 C652 0.962 . S
H666 C652 0.960 . S
H667 C653 0.961 . S
H668 C653 0.961 1_554 S
H669 C653 0.961 . S
H670 C654 0.931 . S
H671 C659 0.930 . S
H672 C660 0.956 . S
H673 C660 0.961 . S
H674 C660 0.961 . S
H675 C661 0.958 . S
H676 C661 0.961 . S
H677 C661 0.960 . S
C199 C7 1.525 . S
C207 C172 1.515 . S
C231 C106 1.523 . S
C239 C40 1.514 . S
C263 C139 1.492 . S
C271 C73 1.501 . S
C295 C186 1.130 . S
C303 N13 1.133 . S
C327 C120 1.136 . S
C335 N46 1.119 . S
C359 N79 1.109 . S
C367 C153 1.136 . S
C391 C54 1.125 . S
C399 N112 1.114 . S
C423 C87 1.140 . S
C431 N145 1.122 . S
C455 N178 1.146 . S
C463 C21 1.136 . S
C487 C150 1.648 . S
C495 N2 1.606 . S
C519 N35 1.567 . S
C527 C183 1.634 . S
C551 C117 1.621 . S
C559 N68 1.584 . S
C583 N101 1.584 . S
C591 C84 1.640 . S
C615 C18 1.641 . S
C623 N134 1.602 . S
C647 C51 1.629 . S
C655 N167 1.586 . S
