# Generated by pormake.
# Topology ukp, (4)-cn, num edge types: 1
# Building blocks:
#     Node 0, Type 0, BuildingBlock: NAWXER_clean_sbu_0, # of connection points: 4
#     Node 1, Type 0, BuildingBlock: NAWXER_clean_sbu_0, # of connection points: 4
#     Node 2, Type 0, BuildingBlock: NAWXER_clean_sbu_0, # of connection points: 4
#     Node 3, Type 0, BuildingBlock: NAWXER_clean_sbu_0, # of connection points: 4
#     Node 4, Type 0, BuildingBlock: NAWXER_clean_sbu_0, # of connection points: 4
#     Node 5, Type 0, BuildingBlock: NAWXER_clean_sbu_0, # of connection points: 4
#     Node 6, Type 0, BuildingBlock: NAWXER_clean_sbu_0, # of connection points: 4
#     Node 7, Type 0, BuildingBlock: NAWXER_clean_sbu_0, # of connection points: 4
#     Node 8, Type 0, BuildingBlock: NAWXER_clean_sbu_0, # of connection points: 4
#     Node 9, Type 0, BuildingBlock: NAWXER_clean_sbu_0, # of connection points: 4
#     Node 10, Type 0, BuildingBlock: NAWXER_clean_sbu_0, # of connection points: 4
#     Node 11, Type 0, BuildingBlock: NAWXER_clean_sbu_0, # of connection points: 4
#     Node 12, Type 0, BuildingBlock: NAWXER_clean_sbu_0, # of connection points: 4
#     Node 13, Type 0, BuildingBlock: NAWXER_clean_sbu_0, # of connection points: 4
#     Node 14, Type 0, BuildingBlock: NAWXER_clean_sbu_0, # of connection points: 4
#     Node 15, Type 0, BuildingBlock: NAWXER_clean_sbu_0, # of connection points: 4
#     Node 16, Type 0, BuildingBlock: NAWXER_clean_sbu_0, # of connection points: 4
#     Node 17, Type 0, BuildingBlock: NAWXER_clean_sbu_0, # of connection points: 4
#     Node 18, Type 0, BuildingBlock: NAWXER_clean_sbu_0, # of connection points: 4
#     Node 19, Type 0, BuildingBlock: NAWXER_clean_sbu_0, # of connection points: 4
#     Node 20, Type 0, BuildingBlock: NAWXER_clean_sbu_0, # of connection points: 4
#     Node 21, Type 0, BuildingBlock: NAWXER_clean_sbu_0, # of connection points: 4
#     Node 22, Type 0, BuildingBlock: NAWXER_clean_sbu_0, # of connection points: 4
#     Node 23, Type 0, BuildingBlock: NAWXER_clean_sbu_0, # of connection points: 4
#     Node 24, Type 0, BuildingBlock: NAWXER_clean_sbu_0, # of connection points: 4
#     Node 25, Type 0, BuildingBlock: NAWXER_clean_sbu_0, # of connection points: 4
#     Node 26, Type 0, BuildingBlock: NAWXER_clean_sbu_0, # of connection points: 4
#     Node 27, Type 0, BuildingBlock: NAWXER_clean_sbu_0, # of connection points: 4
#     Node 28, Type 0, BuildingBlock: NAWXER_clean_sbu_0, # of connection points: 4
#     Node 29, Type 0, BuildingBlock: NAWXER_clean_sbu_0, # of connection points: 4
#     Node 30, Type 0, BuildingBlock: NAWXER_clean_sbu_0, # of connection points: 4
#     Node 31, Type 0, BuildingBlock: NAWXER_clean_sbu_0, # of connection points: 4
#     Node 32, Type 0, BuildingBlock: NAWXER_clean_sbu_0, # of connection points: 4
#     Node 33, Type 0, BuildingBlock: NAWXER_clean_sbu_0, # of connection points: 4
#     Node 34, Type 0, BuildingBlock: NAWXER_clean_sbu_0, # of connection points: 4
#     Node 35, Type 0, BuildingBlock: NAWXER_clean_sbu_0, # of connection points: 4
#     Node 36, Type 0, BuildingBlock: NAWXER_clean_sbu_0, # of connection points: 4
#     Node 37, Type 0, BuildingBlock: NAWXER_clean_sbu_0, # of connection points: 4
#     Node 38, Type 0, BuildingBlock: NAWXER_clean_sbu_0, # of connection points: 4
#     Node 39, Type 0, BuildingBlock: NAWXER_clean_sbu_0, # of connection points: 4
#     Node 40, Type 0, BuildingBlock: NAWXER_clean_sbu_0, # of connection points: 4
#     Node 41, Type 0, BuildingBlock: NAWXER_clean_sbu_0, # of connection points: 4
#     Node 42, Type 0, BuildingBlock: NAWXER_clean_sbu_0, # of connection points: 4
#     Node 43, Type 0, BuildingBlock: NAWXER_clean_sbu_0, # of connection points: 4
#     Node 44, Type 0, BuildingBlock: NAWXER_clean_sbu_0, # of connection points: 4
#     Node 45, Type 0, BuildingBlock: NAWXER_clean_sbu_0, # of connection points: 4
#     Node 46, Type 0, BuildingBlock: NAWXER_clean_sbu_0, # of connection points: 4
#     Node 47, Type 0, BuildingBlock: NAWXER_clean_sbu_0, # of connection points: 4
#     Edge 48, Type (0, 0), BuildingBlock: ZUJKAS_clean_linker_0, # of connection points: 2
#     Edge 49, Type (0, 0), BuildingBlock: ZUJKAS_clean_linker_0, # of connection points: 2
#     Edge 50, Type (0, 0), BuildingBlock: ZUJKAS_clean_linker_0, # of connection points: 2
#     Edge 51, Type (0, 0), BuildingBlock: ZUJKAS_clean_linker_0, # of connection points: 2
#     Edge 52, Type (0, 0), BuildingBlock: ZUJKAS_clean_linker_0, # of connection points: 2
#     Edge 53, Type (0, 0), BuildingBlock: ZUJKAS_clean_linker_0, # of connection points: 2
#     Edge 54, Type (0, 0), BuildingBlock: ZUJKAS_clean_linker_0, # of connection points: 2
#     Edge 55, Type (0, 0), BuildingBlock: ZUJKAS_clean_linker_0, # of connection points: 2
#     Edge 56, Type (0, 0), BuildingBlock: ZUJKAS_clean_linker_0, # of connection points: 2
#     Edge 57, Type (0, 0), BuildingBlock: ZUJKAS_clean_linker_0, # of connection points: 2
#     Edge 58, Type (0, 0), BuildingBlock: ZUJKAS_clean_linker_0, # of connection points: 2
#     Edge 59, Type (0, 0), BuildingBlock: ZUJKAS_clean_linker_0, # of connection points: 2
#     Edge 60, Type (0, 0), BuildingBlock: ZUJKAS_clean_linker_0, # of connection points: 2
#     Edge 61, Type (0, 0), BuildingBlock: ZUJKAS_clean_linker_0, # of connection points: 2
#     Edge 62, Type (0, 0), BuildingBlock: ZUJKAS_clean_linker_0, # of connection points: 2
#     Edge 63, Type (0, 0), BuildingBlock: ZUJKAS_clean_linker_0, # of connection points: 2
#     Edge 64, Type (0, 0), BuildingBlock: ZUJKAS_clean_linker_0, # of connection points: 2
#     Edge 65, Type (0, 0), BuildingBlock: ZUJKAS_clean_linker_0, # of connection points: 2
#     Edge 66, Type (0, 0), BuildingBlock: ZUJKAS_clean_linker_0, # of connection points: 2
#     Edge 67, Type (0, 0), BuildingBlock: ZUJKAS_clean_linker_0, # of connection points: 2
#     Edge 68, Type (0, 0), BuildingBlock: ZUJKAS_clean_linker_0, # of connection points: 2
#     Edge 69, Type (0, 0), BuildingBlock: ZUJKAS_clean_linker_0, # of connection points: 2
#     Edge 70, Type (0, 0), BuildingBlock: ZUJKAS_clean_linker_0, # of connection points: 2
#     Edge 71, Type (0, 0), BuildingBlock: ZUJKAS_clean_linker_0, # of connection points: 2
#     Edge 72, Type (0, 0), BuildingBlock: ZUJKAS_clean_linker_0, # of connection points: 2
#     Edge 73, Type (0, 0), BuildingBlock: ZUJKAS_clean_linker_0, # of connection points: 2
#     Edge 74, Type (0, 0), BuildingBlock: ZUJKAS_clean_linker_0, # of connection points: 2
#     Edge 75, Type (0, 0), BuildingBlock: ZUJKAS_clean_linker_0, # of connection points: 2
#     Edge 76, Type (0, 0), BuildingBlock: ZUJKAS_clean_linker_0, # of connection points: 2
#     Edge 77, Type (0, 0), BuildingBlock: ZUJKAS_clean_linker_0, # of connection points: 2
#     Edge 78, Type (0, 0), BuildingBlock: ZUJKAS_clean_linker_0, # of connection points: 2
#     Edge 79, Type (0, 0), BuildingBlock: ZUJKAS_clean_linker_0, # of connection points: 2
#     Edge 80, Type (0, 0), BuildingBlock: ZUJKAS_clean_linker_0, # of connection points: 2
#     Edge 81, Type (0, 0), BuildingBlock: ZUJKAS_clean_linker_0, # of connection points: 2
#     Edge 82, Type (0, 0), BuildingBlock: ZUJKAS_clean_linker_0, # of connection points: 2
#     Edge 83, Type (0, 0), BuildingBlock: ZUJKAS_clean_linker_0, # of connection points: 2
#     Edge 84, Type (0, 0), BuildingBlock: ZUJKAS_clean_linker_0, # of connection points: 2
#     Edge 85, Type (0, 0), BuildingBlock: ZUJKAS_clean_linker_0, # of connection points: 2
#     Edge 86, Type (0, 0), BuildingBlock: ZUJKAS_clean_linker_0, # of connection points: 2
#     Edge 87, Type (0, 0), BuildingBlock: ZUJKAS_clean_linker_0, # of connection points: 2
#     Edge 88, Type (0, 0), BuildingBlock: ZUJKAS_clean_linker_0, # of connection points: 2
#     Edge 89, Type (0, 0), BuildingBlock: ZUJKAS_clean_linker_0, # of connection points: 2
#     Edge 90, Type (0, 0), BuildingBlock: ZUJKAS_clean_linker_0, # of connection points: 2
#     Edge 91, Type (0, 0), BuildingBlock: ZUJKAS_clean_linker_0, # of connection points: 2
#     Edge 92, Type (0, 0), BuildingBlock: ZUJKAS_clean_linker_0, # of connection points: 2
#     Edge 93, Type (0, 0), BuildingBlock: ZUJKAS_clean_linker_0, # of connection points: 2
#     Edge 94, Type (0, 0), BuildingBlock: ZUJKAS_clean_linker_0, # of connection points: 2
#     Edge 95, Type (0, 0), BuildingBlock: ZUJKAS_clean_linker_0, # of connection points: 2
#     Edge 96, Type (0, 0), BuildingBlock: ZUJKAS_clean_linker_0, # of connection points: 2
#     Edge 97, Type (0, 0), BuildingBlock: ZUJKAS_clean_linker_0, # of connection points: 2
#     Edge 98, Type (0, 0), BuildingBlock: ZUJKAS_clean_linker_0, # of connection points: 2
#     Edge 99, Type (0, 0), BuildingBlock: ZUJKAS_clean_linker_0, # of connection points: 2
#     Edge 100, Type (0, 0), BuildingBlock: ZUJKAS_clean_linker_0, # of connection points: 2
#     Edge 101, Type (0, 0), BuildingBlock: ZUJKAS_clean_linker_0, # of connection points: 2
#     Edge 102, Type (0, 0), BuildingBlock: ZUJKAS_clean_linker_0, # of connection points: 2
#     Edge 103, Type (0, 0), BuildingBlock: ZUJKAS_clean_linker_0, # of connection points: 2
#     Edge 104, Type (0, 0), BuildingBlock: ZUJKAS_clean_linker_0, # of connection points: 2
#     Edge 105, Type (0, 0), BuildingBlock: ZUJKAS_clean_linker_0, # of connection points: 2
#     Edge 106, Type (0, 0), BuildingBlock: ZUJKAS_clean_linker_0, # of connection points: 2
#     Edge 107, Type (0, 0), BuildingBlock: ZUJKAS_clean_linker_0, # of connection points: 2
#     Edge 108, Type (0, 0), BuildingBlock: ZUJKAS_clean_linker_0, # of connection points: 2
#     Edge 109, Type (0, 0), BuildingBlock: ZUJKAS_clean_linker_0, # of connection points: 2
#     Edge 110, Type (0, 0), BuildingBlock: ZUJKAS_clean_linker_0, # of connection points: 2
#     Edge 111, Type (0, 0), BuildingBlock: ZUJKAS_clean_linker_0, # of connection points: 2
#     Edge 112, Type (0, 0), BuildingBlock: ZUJKAS_clean_linker_0, # of connection points: 2
#     Edge 113, Type (0, 0), BuildingBlock: ZUJKAS_clean_linker_0, # of connection points: 2
#     Edge 114, Type (0, 0), BuildingBlock: ZUJKAS_clean_linker_0, # of connection points: 2
#     Edge 115, Type (0, 0), BuildingBlock: ZUJKAS_clean_linker_0, # of connection points: 2
#     Edge 116, Type (0, 0), BuildingBlock: ZUJKAS_clean_linker_0, # of connection points: 2
#     Edge 117, Type (0, 0), BuildingBlock: ZUJKAS_clean_linker_0, # of connection points: 2
#     Edge 118, Type (0, 0), BuildingBlock: ZUJKAS_clean_linker_0, # of connection points: 2
#     Edge 119, Type (0, 0), BuildingBlock: ZUJKAS_clean_linker_0, # of connection points: 2
#     Edge 120, Type (0, 0), BuildingBlock: ZUJKAS_clean_linker_0, # of connection points: 2
#     Edge 121, Type (0, 0), BuildingBlock: ZUJKAS_clean_linker_0, # of connection points: 2
#     Edge 122, Type (0, 0), BuildingBlock: ZUJKAS_clean_linker_0, # of connection points: 2
#     Edge 123, Type (0, 0), BuildingBlock: ZUJKAS_clean_linker_0, # of connection points: 2
#     Edge 124, Type (0, 0), BuildingBlock: ZUJKAS_clean_linker_0, # of connection points: 2
#     Edge 125, Type (0, 0), BuildingBlock: ZUJKAS_clean_linker_0, # of connection points: 2
#     Edge 126, Type (0, 0), BuildingBlock: ZUJKAS_clean_linker_0, # of connection points: 2
#     Edge 127, Type (0, 0), BuildingBlock: ZUJKAS_clean_linker_0, # of connection points: 2
#     Edge 128, Type (0, 0), BuildingBlock: ZUJKAS_clean_linker_0, # of connection points: 2
#     Edge 129, Type (0, 0), BuildingBlock: ZUJKAS_clean_linker_0, # of connection points: 2
#     Edge 130, Type (0, 0), BuildingBlock: ZUJKAS_clean_linker_0, # of connection points: 2
#     Edge 131, Type (0, 0), BuildingBlock: ZUJKAS_clean_linker_0, # of connection points: 2
#     Edge 132, Type (0, 0), BuildingBlock: ZUJKAS_clean_linker_0, # of connection points: 2
#     Edge 133, Type (0, 0), BuildingBlock: ZUJKAS_clean_linker_0, # of connection points: 2
#     Edge 134, Type (0, 0), BuildingBlock: ZUJKAS_clean_linker_0, # of connection points: 2
#     Edge 135, Type (0, 0), BuildingBlock: ZUJKAS_clean_linker_0, # of connection points: 2
#     Edge 136, Type (0, 0), BuildingBlock: ZUJKAS_clean_linker_0, # of connection points: 2
#     Edge 137, Type (0, 0), BuildingBlock: ZUJKAS_clean_linker_0, # of connection points: 2
#     Edge 138, Type (0, 0), BuildingBlock: ZUJKAS_clean_linker_0, # of connection points: 2
#     Edge 139, Type (0, 0), BuildingBlock: ZUJKAS_clean_linker_0, # of connection points: 2
#     Edge 140, Type (0, 0), BuildingBlock: ZUJKAS_clean_linker_0, # of connection points: 2
#     Edge 141, Type (0, 0), BuildingBlock: ZUJKAS_clean_linker_0, # of connection points: 2
#     Edge 142, Type (0, 0), BuildingBlock: ZUJKAS_clean_linker_0, # of connection points: 2
#     Edge 143, Type (0, 0), BuildingBlock: ZUJKAS_clean_linker_0, # of connection points: 2
# Relax obj value: 0.179
# Max RMSD: 0.216
# Mean RMSD: 0.216
data_MOF--net-ukp--node1-NAWXER_clean_sbu_0--edge1-ZUJKAS_clean_linker_0
_symmetry_space_group_name_H-M    P1
_symmetry_Int_Tables_number       1
_symmetry_cell_setting            triclinic
loop_
_symmetry_equiv_pos_as_xyz
'x, y, z'
_cell_length_a     80.508869
_cell_length_b     80.418049
_cell_length_c     80.402644
_cell_angle_alpha  90.047766
_cell_angle_beta   90.044515
_cell_angle_gamma 89.965252
loop_
_atom_site_label
_atom_site_type_symbol
_atom_site_fract_x
_atom_site_fract_y
_atom_site_fract_z
_atom_type_partial_charge
C0 C 0.22995 0.29516 0.36779 0.0
C1 C 0.19881 0.25805 0.40621 0.0
O2 O 0.23449 0.29217 0.38271 0.0
Zn3 Zn 0.21532 0.27759 0.38834 0.0
O4 O 0.21653 0.28886 0.36219 0.0
Zn5 Zn 0.19699 0.27276 0.36891 0.0
O6 O 0.1783 0.28844 0.36692 0.0
O7 O 0.19547 0.29483 0.38735 0.0
O8 O 0.19249 0.25947 0.39161 0.0
O9 O 0.2119 0.26625 0.40974 0.0
O10 O 0.22151 0.25809 0.3719 0.0
O11 O 0.20246 0.25561 0.35228 0.0
C12 C 0.18239 0.29803 0.37886 0.0
C13 C 0.2164 0.25129 0.35847 0.0
C14 C 1.00513 0.93152 0.66583 0.0
C15 C 0.96579 0.96492 0.63214 0.0
O16 O 0.99504 0.94257 0.67096 0.0
Zn17 Zn 0.98479 0.94889 0.64974 0.0
O18 O 1.00565 0.92822 0.65021 0.0
Zn19 Zn 0.99345 0.93628 0.62776 0.0
O20 O 1.01088 0.9468 0.61441 0.0
O21 O 1.00392 0.96167 0.63639 0.0
O22 O 0.97471 0.95462 0.62399 0.0
O23 O 0.96717 0.96592 0.64792 0.0
O24 O 0.97062 0.92756 0.64281 0.0
O25 O 0.98108 0.91677 0.61987 0.0
C26 C 1.01243 0.96003 0.62302 0.0
C27 C 0.97004 0.91666 0.6312 0.0
C28 C 0.32037 0.76533 0.85674 0.0
C29 C 0.36044 0.72025 0.86843 0.0
O30 O 0.33357 0.76258 0.84841 0.0
Zn31 Zn 0.34284 0.74492 0.86273 0.0
O32 O 0.31784 0.75736 0.87025 0.0
Zn33 Zn 0.32814 0.73773 0.88434 0.0
O34 O 0.33401 0.74833 0.90562 0.0
O35 O 0.35033 0.7569 0.88538 0.0
O36 O 0.34879 0.72207 0.87912 0.0
O37 O 0.36192 0.7308 0.85668 0.0
O38 O 0.32379 0.72752 0.8582 0.0
O39 O 0.30967 0.72163 0.88102 0.0
C40 C 0.34617 0.75723 0.90079 0.0
C41 C 0.31207 0.71971 0.86543 0.0
C42 C 0.51481 0.06326 0.11 0.0
C43 C 0.556 0.10748 0.12103 0.0
O44 O 0.51598 0.07687 0.10195 0.0
Zn45 Zn 0.53322 0.08744 0.11581 0.0
O46 O 0.52343 0.06123 0.12321 0.0
Zn47 Zn 0.54239 0.07339 0.13701 0.0
O48 O 0.53197 0.07799 0.15864 0.0
O49 O 0.52141 0.09377 0.13888 0.0
O50 O 0.55569 0.09568 0.13172 0.0
O51 O 0.54517 0.10781 0.10946 0.0
O52 O 0.55217 0.07006 0.11064 0.0
O53 O 0.5603 0.05679 0.1333 0.0
C54 C 0.52195 0.08944 0.15424 0.0
C55 C 0.56138 0.05922 0.11765 0.0
C56 C 0.18363 0.74348 0.18731 0.0
C57 C 0.16128 0.77206 0.13765 0.0
O58 O 0.19229 0.74087 0.17412 0.0
Zn59 Zn 0.19145 0.74791 0.1477 0.0
O60 O 0.17042 0.75214 0.18626 0.0
Zn61 Zn 0.17231 0.75697 0.16269 0.0
O62 O 0.16788 0.73223 0.15242 0.0
O63 O 0.18974 0.72657 0.137 0.0
O64 O 0.1559 0.7718 0.15248 0.0
O65 O 0.17435 0.7636 0.13418 0.0
O66 O 0.21236 0.75947 0.14546 0.0
O67 O 0.1954 0.77114 0.16358 0.0
C68 C 0.17583 0.72212 0.14292 0.0
C69 C 0.20965 0.7705 0.15644 0.0
C70 C 0.51446 0.9639 0.41877 0.0
C71 C 0.55933 0.92393 0.40592 0.0
O72 O 0.51698 0.95031 0.42655 0.0
Zn73 Zn 0.53478 0.94167 0.41203 0.0
O74 O 0.52273 0.96702 0.40557 0.0
Zn75 Zn 0.5426 0.95724 0.39133 0.0
O76 O 0.53209 0.95284 0.36968 0.0
O77 O 0.52276 0.93575 0.38894 0.0
O78 O 0.55797 0.93608 0.3957 0.0
O79 O 0.5485 0.92214 0.41733 0.0
O80 O 0.55215 0.96039 0.41787 0.0
O81 O 0.55867 0.97547 0.39585 0.0
C82 C 0.52267 0.9408 0.37379 0.0
C83 C 0.56016 0.9724 0.41136 0.0
C84 C 0.36173 0.30771 0.65319 0.0
C85 C 0.31748 0.26591 0.66269 0.0
O86 O 0.36221 0.2966 0.66452 0.0
Zn87 Zn 0.34188 0.28456 0.65785 0.0
O88 O 0.35003 0.30739 0.64239 0.0
Zn89 Zn 0.32787 0.29408 0.63656 0.0
O90 O 0.31125 0.31204 0.64073 0.0
O91 O 0.32513 0.30397 0.66303 0.0
O92 O 0.31575 0.27491 0.6497 0.0
O93 O 0.33083 0.26702 0.67118 0.0
O94 O 0.3485 0.27322 0.63465 0.0
O95 O 0.3329 0.28388 0.61481 0.0
C96 C 0.31433 0.31339 0.65626 0.0
C97 C 0.34437 0.27389 0.61924 0.0
C98 C 1.00889 0.0965 0.86978 0.0
C99 C 0.97106 0.06658 0.90846 0.0
O100 O 0.9987 0.08499 0.86596 0.0
Zn101 Zn 0.98898 0.08074 0.888 0.0
O102 O 1.00977 0.1013 0.885 0.0
Zn103 Zn 0.99825 0.0958 0.90848 0.0
O104 O 0.01584 0.08615 0.9225 0.0
O105 O 1.00864 0.06975 0.90167 0.0
O106 O 0.97996 0.07807 0.9148 0.0
O107 O 0.97194 0.06351 0.8929 0.0
O108 O 0.975 0.1026 0.89296 0.0
O109 O 0.98578 0.11606 0.91431 0.0
C110 C 0.01734 0.0724 0.91471 0.0
C111 C 0.97456 0.11481 0.90318 0.0
C112 C 0.36557 0.20004 0.26036 0.0
C113 C 0.38045 0.16178 0.30594 0.0
O114 O 0.35804 0.18651 0.26371 0.0
Zn115 Zn 0.37353 0.17843 0.28092 0.0
O116 O 0.37927 0.2034 0.26767 0.0
Zn117 Zn 0.39452 0.19419 0.28708 0.0
O118 O 0.41562 0.18917 0.27596 0.0
O119 O 0.39602 0.1717 0.26821 0.0
O120 O 0.39063 0.17381 0.30367 0.0
O121 O 0.36869 0.15951 0.29556 0.0
O122 O 0.36873 0.19784 0.29797 0.0
O123 O 0.39107 0.21319 0.30246 0.0
C124 C 0.41115 0.17665 0.26735 0.0
C125 C 0.37572 0.21019 0.30504 0.0
C126 C 0.07935 0.11068 0.55694 0.0
C127 C 0.11183 0.14755 0.51958 0.0
O128 O 0.07569 0.12584 0.55401 0.0
Zn129 Zn 0.09467 0.13013 0.53888 0.0
O130 O 0.092 0.1041 0.54997 0.0
Zn131 Zn 0.11131 0.10973 0.53298 0.0
O132 O 0.13037 0.10579 0.54783 0.0
O133 O 0.11501 0.12713 0.55567 0.0
O134 O 0.11718 0.13253 0.52038 0.0
O135 O 0.09924 0.15167 0.52825 0.0
O136 O 0.08684 0.1149 0.51877 0.0
O137 O 0.10462 0.09436 0.51504 0.0
C138 C 0.12748 0.11753 0.55811 0.0
C139 C 0.0911 0.10162 0.51109 0.0
C140 C 0.16416 0.81995 0.7653 0.0
C141 C 0.14978 0.85852 0.81118 0.0
O142 O 0.17163 0.83362 0.76827 0.0
Zn143 Zn 0.15688 0.84149 0.78627 0.0
O144 O 0.15102 0.8163 0.77342 0.0
Zn145 Zn 0.13658 0.82508 0.79361 0.0
O146 O 0.11476 0.8294 0.78338 0.0
O147 O 0.13368 0.84698 0.77431 0.0
O148 O 0.14014 0.84597 0.80941 0.0
O149 O 0.1613 0.86097 0.8006 0.0
O150 O 0.16326 0.82255 0.80316 0.0
O151 O 0.1418 0.80654 0.80917 0.0
C152 C 0.11863 0.84171 0.77419 0.0
C153 C 0.15718 0.81009 0.8108 0.0
C154 C 0.47295 0.9047 0.04605 0.0
C155 C 0.44006 0.86791 1.00867 0.0
O156 O 0.47566 0.88912 0.04454 0.0
Zn157 Zn 0.4576 0.88503 0.02804 0.0
O158 O 0.46115 0.91149 0.03795 0.0
Zn159 Zn 0.44227 0.90617 0.02061 0.0
O160 O 0.42311 0.91185 0.03463 0.0
O161 O 0.4366 0.88953 0.04329 0.0
O162 O 0.43542 0.88319 1.00892 0.0
O163 O 0.45246 0.86352 0.0175 0.0
O164 O 0.46749 0.89939 1.00838 0.0
O165 O 0.45092 0.92056 1.00285 0.0
C166 C 0.4247 0.89996 0.04497 0.0
C167 C 0.46446 0.91273 1.00028 0.0
C168 C 0.40557 0.85974 0.26234 0.0
C169 C 0.35778 0.83876 0.23039 0.0
O170 O 0.41004 0.84821 0.25224 0.0
Zn171 Zn 0.39772 0.83288 0.23382 0.0
O172 O 0.3904 0.86395 0.2627 0.0
Zn173 Zn 0.38142 0.84903 0.24584 0.0
O174 O 0.38245 0.82375 0.25603 0.0
O175 O 0.40137 0.81047 0.24132 0.0
O176 O 0.35792 0.85049 0.24102 0.0
O177 O 0.37139 0.83126 0.22665 0.0
O178 O 0.40802 0.83899 0.21303 0.0
O179 O 0.39072 0.85808 0.22223 0.0
C180 C 0.39045 0.8103 0.25271 0.0
C181 C 0.40068 0.8528 0.21094 0.0
C182 C 0.45738 0.11647 0.5181 0.0
C183 C 0.41766 0.12789 0.47264 0.0
O184 O 0.44393 0.10847 0.51558 0.0
Zn185 Zn 0.43513 0.12254 0.49751 0.0
O186 O 0.46027 0.12969 0.50977 0.0
Zn187 Zn 0.45029 0.14352 0.48971 0.0
O188 O 0.44503 0.16521 0.49979 0.0
O189 O 0.4282 0.14567 0.50894 0.0
O190 O 0.42952 0.1384 0.47412 0.0
O191 O 0.41597 0.1165 0.48353 0.0
O192 O 0.4542 0.11699 0.48038 0.0
O193 O 0.46873 0.13934 0.47377 0.0
C194 C 0.43278 0.16096 0.50887 0.0
C195 C 0.46609 0.12373 0.47241 0.0
C196 C 0.12006 0.17993 0.75445 0.0
C197 C 0.15877 0.21052 0.71704 0.0
O198 O 0.11588 0.19069 0.74359 0.0
Zn199 Zn 0.13808 0.1961 0.73471 0.0
O200 O 0.13549 0.17624 0.75613 0.0
Zn201 Zn 0.15912 0.18278 0.74569 0.0
O202 O 0.17107 0.19405 0.76404 0.0
O203 O 0.14953 0.20836 0.7549 0.0
O204 O 0.16524 0.19986 0.72683 0.0
O205 O 0.14309 0.2129 0.71717 0.0
O206 O 0.14503 0.17402 0.72204 0.0
O207 O 0.16669 0.1624 0.73423 0.0
C208 C 0.16192 0.20699 0.76475 0.0
C209 C 0.15598 0.16248 0.72253 0.0
C210 C 0.1025 0.90504 0.97307 0.0
C211 C 0.06104 0.92364 0.01438 0.0
O212 O 0.1043 0.91728 0.983 0.0
Zn213 Zn 0.08408 0.91391 0.99634 0.0
O214 O 0.09003 0.89532 0.9749 0.0
Zn215 Zn 0.06841 0.89288 0.99003 0.0
O216 O 0.05072 0.89591 0.97305 0.0
O217 O 0.06626 0.91813 0.97751 0.0
O218 O 0.05804 0.90951 1.00773 0.0
O219 O 0.07495 0.93074 1.01168 0.0
O220 O 0.08873 0.89225 1.01135 0.0
O221 O 0.07207 0.87232 1.0027 0.0
C222 C 0.05432 0.91104 0.96988 0.0
C223 C 0.08347 0.87722 1.01254 0.0
C224 C 0.26648 0.35014 0.20514 0.0
C225 C 0.3097 0.36385 0.16391 0.0
O226 O 0.26884 0.34246 0.19146 0.0
Zn227 Zn 0.28578 0.35752 0.18219 0.0
O228 O 0.27414 0.36378 0.20788 0.0
Zn229 Zn 0.29314 0.37861 0.19729 0.0
O230 O 0.28214 0.39993 0.19252 0.0
O231 O 0.27317 0.38023 0.17574 0.0
O232 O 0.30833 0.37424 0.17593 0.0
O233 O 0.29916 0.35211 0.16252 0.0
O234 O 0.30387 0.3526 0.20062 0.0
O235 O 0.30958 0.37508 0.21538 0.0
C236 C 0.27287 0.39548 0.18047 0.0
C237 C 0.31175 0.35962 0.21246 0.0
C238 C 0.82318 0.14605 0.81807 0.0
C239 C 0.78045 0.1119 0.84595 0.0
O240 O 0.8215 0.13042 0.81583 0.0
Zn241 Zn 0.80199 0.12826 0.83059 0.0
O242 O 0.81301 0.15394 0.82736 0.0
Zn243 Zn 0.79178 0.15011 0.84254 0.0
O244 O 0.80172 0.15788 0.86347 0.0
O245 O 0.81342 0.13506 0.85363 0.0
O246 O 0.77948 0.12748 0.8493 0.0
O247 O 0.79136 0.10693 0.83564 0.0
O248 O 0.78455 0.14158 0.81581 0.0
O249 O 0.77538 0.1632 0.82989 0.0
C250 C 0.81272 0.14653 0.86468 0.0
C251 C 0.77561 0.15473 0.81649 0.0
C252 C 0.11503 0.5043 0.07507 0.0
C253 C 0.13662 0.55205 0.10697 0.0
O254 O 0.109 0.50946 0.08881 0.0
Zn255 Zn 0.12632 0.52611 0.09371 0.0
O256 O 0.12878 0.51022 0.06984 0.0
Zn257 Zn 0.14596 0.52925 0.0754 0.0
O258 O 0.16674 0.51699 0.07956 0.0
O259 O 0.14842 0.51222 0.09931 0.0
O260 O 0.14524 0.54793 0.09422 0.0
O261 O 0.12459 0.54281 0.11149 0.0
O262 O 0.1204 0.54143 0.07325 0.0
O263 O 0.14106 0.54277 0.05522 0.0
C264 C 0.16291 0.50975 0.09311 0.0
C265 C 0.12628 0.54666 0.0595 0.0
C266 C 0.7699 0.85848 0.33584 0.0
C267 C 0.72441 0.87811 0.37213 0.0
O268 O 0.76571 0.85217 0.34975 0.0
Zn269 Zn 0.74864 0.8686 0.35573 0.0
O270 O 0.7627 0.87175 0.33077 0.0
Zn271 Zn 0.7432 0.88815 0.33813 0.0
O272 O 0.75464 0.90951 0.34116 0.0
O273 O 0.76213 0.89125 0.36015 0.0
O274 O 0.72685 0.88702 0.35914 0.0
O275 O 0.73433 0.86618 0.37535 0.0
O276 O 0.73066 0.86276 0.33736 0.0
O277 O 0.72709 0.88365 0.31994 0.0
C278 C 0.76336 0.90588 0.35387 0.0
C279 C 0.7234 0.86896 0.32465 0.0
C280 C 0.91144 0.02331 0.06725 0.0
C281 C 0.89167 0.97598 0.10089 0.0
O282 O 0.91796 0.01856 0.08091 0.0
Zn283 Zn 0.90112 1.0017 0.0867 0.0
O284 O 0.89762 0.01705 0.06256 0.0
Zn285 Zn 0.88094 0.99788 0.06912 0.0
O286 O 0.86008 1.00984 0.07375 0.0
O287 O 0.87895 0.01525 0.09284 0.0
O288 O 0.88257 0.97968 0.08833 0.0
O289 O 0.90374 0.98547 0.10479 0.0
O290 O 0.90655 0.98593 0.06638 0.0
O291 O 0.88526 0.98393 0.04913 0.0
C292 C 0.86421 0.01733 0.0871 0.0
C293 C 0.90022 0.98029 0.05298 0.0
C294 C 0.26491 0.66681 0.70551 0.0
C295 C 0.21975 0.65521 0.66556 0.0
O296 O 0.2626 0.67462 0.6919 0.0
Zn297 Zn 0.24438 0.66066 0.6833 0.0
O298 O 0.25631 0.65384 0.70866 0.0
Zn299 Zn 0.23607 0.64018 0.69886 0.0
O300 O 0.24588 0.61818 0.69426 0.0
O301 O 0.25557 0.63718 0.6771 0.0
O302 O 0.22088 0.64496 0.6777 0.0
O303 O 0.2308 0.66642 0.66379 0.0
O304 O 0.22718 0.66706 0.70205 0.0
O305 O 0.22004 0.6452 0.71705 0.0
C306 C 0.25522 0.62201 0.68205 0.0
C307 C 0.21898 0.66076 0.71404 0.0
C308 C 0.15597 0.51453 0.42555 0.0
C309 C 0.10738 0.48243 0.44336 0.0
O310 O 0.16005 0.50431 0.43712 0.0
Zn311 Zn 0.14688 0.48588 0.45182 0.0
O312 O 0.14095 0.51502 0.42088 0.0
Zn313 Zn 0.13154 0.49807 0.43512 0.0
O314 O 0.13112 0.50802 0.46048 0.0
O315 O 0.14927 0.49312 0.47452 0.0
O316 O 0.10823 0.49379 0.43239 0.0
O317 O 0.12057 0.47826 0.4514 0.0
O318 O 0.15761 0.46527 0.44639 0.0
O319 O 0.14148 0.47435 0.42623 0.0
C320 C 0.13841 0.50455 0.4743 0.0
C321 C 0.15115 0.46309 0.43215 0.0
C322 C 0.39444 0.51931 0.958 0.0
C323 C 0.38627 0.55643 0.90982 0.0
O324 O 0.40267 0.51891 0.94449 0.0
Zn325 Zn 0.38971 0.5355 0.93195 0.0
O326 O 0.38147 0.52851 0.95886 0.0
Zn327 Zn 0.36829 0.54612 0.94418 0.0
O328 O 0.3467 0.53588 0.93942 0.0
O329 O 0.36675 0.52364 0.92538 0.0
O330 O 0.37498 0.55737 0.92102 0.0
O331 O 0.3974 0.54518 0.91089 0.0
O332 O 0.39417 0.55685 0.94693 0.0
O333 O 0.37099 0.56574 0.95877 0.0
C334 C 0.35126 0.52491 0.92895 0.0
C335 C 0.38657 0.56723 0.95627 0.0
C336 C 0.67718 0.81116 0.88026 0.0
C337 C 0.72386 0.77356 0.87503 0.0
O338 O 0.6731 0.79886 0.87087 0.0
Zn339 Zn 0.68517 0.77524 0.86384 0.0
O340 O 0.691 0.81078 0.88779 0.0
Zn341 Zn 0.69895 0.79024 0.87912 0.0
O342 O 0.7005 0.79527 0.8519 0.0
O343 O 0.68391 0.7768 0.84019 0.0
O344 O 0.72159 0.78583 0.88465 0.0
O345 O 0.71146 0.76791 0.86664 0.0
O346 O 0.67184 0.75766 0.87337 0.0
O347 O 0.68467 0.77174 0.89284 0.0
C348 C 0.69396 0.78888 0.83872 0.0
C349 C 0.67469 0.75998 0.88867 0.0
C350 C 0.50544 0.42612 0.14796 0.0
C351 C 0.46729 0.45247 0.10686 0.0
O352 O 0.49564 0.43826 0.15076 0.0
Zn353 Zn 0.48587 0.44054 0.12837 0.0
O354 O 0.50599 0.41986 0.13328 0.0
Zn355 Zn 0.49452 0.42326 0.10943 0.0
O356 O 0.51262 0.43073 0.09475 0.0
O357 O 0.50592 0.44938 0.11372 0.0
O358 O 0.47603 0.44027 0.10167 0.0
O359 O 0.46892 0.45742 0.12187 0.0
O360 O 0.47165 0.41829 0.12602 0.0
O361 O 0.48192 0.4026 0.10595 0.0
C362 C 0.51476 0.44505 0.10122 0.0
C363 C 0.47099 0.40506 0.11716 0.0
C364 C 0.81226 0.27145 0.3518 0.0
C365 C 0.84596 0.22564 0.37498 0.0
O366 O 0.82619 0.26674 0.34587 0.0
Zn367 Zn 0.83149 0.25046 0.36352 0.0
O368 O 0.80704 0.26531 0.36546 0.0
Zn369 Zn 0.81292 0.24674 0.38291 0.0
O370 O 0.81581 0.25961 0.40353 0.0
O371 O 0.83559 0.26512 0.38543 0.0
O372 O 0.83273 0.22923 0.38309 0.0
O373 O 0.85026 0.23477 0.36277 0.0
O374 O 0.81198 0.23406 0.35737 0.0
O375 O 0.79356 0.23231 0.37765 0.0
C376 C 0.82893 0.2676 0.39973 0.0
C377 C 0.79835 0.22833 0.36303 0.0
C378 C 0.01792 0.60234 0.65493 0.0
C379 C 0.05573 0.57255 0.61618 0.0
O380 O 0.02634 0.58929 0.65803 0.0
Zn381 Zn 0.03675 0.58609 0.63611 0.0
O382 O 0.01846 0.60853 0.64023 0.0
Zn383 Zn 0.03023 0.6035 0.61678 0.0
O384 O 1.01207 0.59737 0.60157 0.0
O385 O 0.01673 0.57824 0.62059 0.0
O386 O 0.04805 0.5851 0.61016 0.0
O387 O 0.05284 0.56807 0.63113 0.0
O388 O 0.05283 0.60728 0.6339 0.0
O389 O 0.04421 0.62312 0.61319 0.0
C390 C 1.00866 0.58323 0.6078 0.0
C391 C 0.0547 0.62017 0.6247 0.0
C392 C 0.65861 0.22497 0.65748 0.0
C393 C 0.69477 0.2716 0.67455 0.0
O394 O 0.65524 0.23556 0.6688 0.0
Zn395 Zn 0.67469 0.24988 0.66552 0.0
O396 O 0.67171 0.22689 0.64862 0.0
Zn397 Zn 0.69272 0.24316 0.64664 0.0
O398 O 0.71092 0.22748 0.65286 0.0
O399 O 0.69308 0.23266 0.673 0.0
O400 O 0.69994 0.26354 0.66185 0.0
O401 O 0.68064 0.26811 0.68076 0.0
O402 O 0.67015 0.2612 0.64177 0.0
O403 O 0.68981 0.25326 0.62447 0.0
C404 C 0.706 0.22508 0.66776 0.0
C405 C 0.6766 0.26157 0.62718 0.0
C406 C 0.01378 0.45204 0.92655 0.0
C407 C 0.05711 0.41185 0.90995 0.0
O408 O 0.01661 0.43821 0.93379 0.0
Zn409 Zn 0.0332 0.42965 0.91787 0.0
O410 O 0.02108 0.45533 0.91284 0.0
Zn411 Zn 0.03979 0.44565 0.89714 0.0
O412 O 0.02804 0.44178 0.87606 0.0
O413 O 0.01982 0.42422 0.89538 0.0
O414 O 0.05531 0.42431 0.90017 0.0
O415 O 0.0469 0.40982 0.92188 0.0
O416 O 0.05121 0.44805 0.92301 0.0
O417 O 0.05602 0.46383 0.90105 0.0
C418 C 0.01891 0.4296 0.88038 0.0
C419 C 0.0587 0.46028 0.9163 0.0
C420 C 0.84247 0.78742 0.18863 0.0
C421 C 0.86481 0.75777 0.13969 0.0
O422 O 0.83384 0.78987 0.17539 0.0
Zn423 Zn 0.83494 0.78261 0.14905 0.0
O424 O 0.85569 0.77877 0.18776 0.0
Zn425 Zn 0.85375 0.77354 0.16424 0.0
O426 O 0.85871 0.79806 0.15369 0.0
O427 O 0.83706 0.80368 0.13799 0.0
O428 O 0.87026 0.7586 0.15447 0.0
O429 O 0.85171 0.76607 0.13594 0.0
O430 O 0.81381 0.77191 0.14682 0.0
O431 O 0.83031 0.75947 0.16481 0.0
C432 C 0.85098 0.80808 0.14393 0.0
C433 C 0.81606 0.76064 0.15764 0.0
C434 C 0.46894 0.55838 0.41559 0.0
C435 C 0.50669 0.59011 0.37824 0.0
O436 O 0.47005 0.55566 0.39997 0.0
Zn437 Zn 0.48672 0.57343 0.39548 0.0
O438 O 0.47743 0.56999 0.42223 0.0
Zn439 Zn 0.49514 0.58835 0.41664 0.0
O440 O 0.48187 0.60817 0.42241 0.0
O441 O 0.47224 0.59496 0.40036 0.0
O442 O 0.50683 0.59465 0.39355 0.0
O443 O 0.49713 0.57827 0.37382 0.0
O444 O 0.50653 0.56289 0.40911 0.0
O445 O 0.51302 0.57878 0.43055 0.0
C446 C 0.47116 0.60697 0.41077 0.0
C447 C 0.51513 0.56542 0.42223 0.0
C448 C 0.91299 0.68624 0.77601 0.0
C449 C 0.87969 0.71702 0.81793 0.0
O450 O 0.91788 0.69832 0.785 0.0
Zn451 Zn 0.89724 0.70283 0.79728 0.0
O452 O 0.89786 0.68136 0.77725 0.0
Zn453 Zn 0.87589 0.6876 0.79107 0.0
O454 O 0.86 0.69672 0.7747 0.0
O455 O 0.88124 0.7134 0.77916 0.0
O456 O 0.8722 0.70541 0.81012 0.0
O457 O 0.89478 0.72042 0.81446 0.0
O458 O 0.89401 0.68118 0.81245 0.0
O459 O 0.87149 0.66767 0.8045 0.0
C460 C 0.8674 0.71045 0.77191 0.0
C461 C 0.88381 0.66909 0.81438 0.0
C462 C 0.53913 0.63393 1.01127 0.0
C463 C 0.58167 0.64391 0.05228 0.0
O464 O 0.55223 0.62561 1.00733 0.0
Zn465 Zn 0.57788 0.62452 0.01715 0.0
O466 O 0.53998 0.64439 0.02301 0.0
Zn467 Zn 0.56214 0.64 0.02973 0.0
O468 O 0.57741 0.65318 1.01171 0.0
O469 O 0.59234 0.63357 1.00013 0.0
O470 O 0.56756 0.65049 0.05008 0.0
O471 O 0.58742 0.6339 0.04118 0.0
O472 O 0.58001 0.6011 0.02056 0.0
O473 O 0.56128 0.61315 0.03658 0.0
C474 C 0.58858 0.64882 1.00117 0.0
C475 C 0.56898 0.59992 0.03178 0.0
C476 C 0.6142 0.34647 0.26833 0.0
C477 C 0.65111 0.3146 0.30624 0.0
O478 O 0.60996 0.33447 0.27775 0.0
Zn479 Zn 0.63144 0.32988 0.28847 0.0
O480 O 0.62932 0.35155 0.26869 0.0
Zn481 Zn 0.65206 0.34587 0.28147 0.0
O482 O 0.66728 0.33759 0.26405 0.0
O483 O 0.64629 0.32062 0.26876 0.0
O484 O 0.65763 0.32696 0.29878 0.0
O485 O 0.63577 0.31119 0.30403 0.0
O486 O 0.6353 0.35058 0.3046 0.0
O487 O 0.65658 0.36534 0.29573 0.0
C488 C 0.65973 0.32397 0.26102 0.0
C489 C 0.64517 0.36295 0.30645 0.0
C490 C 0.93279 0.43987 0.53362 0.0
C491 C 0.9096 0.39146 0.50374 0.0
O492 O 0.94139 0.42655 0.53575 0.0
Zn493 Zn 0.94022 0.40047 0.52779 0.0
O494 O 0.91959 0.43919 0.52492 0.0
Zn495 Zn 0.92119 0.41576 0.5193 0.0
O496 O 0.91678 0.40451 0.54363 0.0
O497 O 0.93866 0.38878 0.54839 0.0
O498 O 0.90424 0.40628 0.50468 0.0
O499 O 0.92289 0.38766 0.5117 0.0
O500 O 0.96093 0.39821 0.51645 0.0
O501 O 0.94407 0.41623 0.50455 0.0
C502 C 0.92476 0.39444 0.55314 0.0
C503 C 0.95829 0.40896 0.50521 0.0
C504 C 0.89947 0.34902 0.77095 0.0
C505 C 0.85005 0.32861 0.74132 0.0
O506 O 0.90357 0.33767 0.7605 0.0
Zn507 Zn 0.89025 0.32266 0.74238 0.0
O508 O 0.88432 0.35314 0.77195 0.0
Zn509 Zn 0.87484 0.33834 0.75529 0.0
O510 O 0.87688 0.31267 0.7652 0.0
O511 O 0.89513 0.30057 0.74878 0.0
O512 O 0.85121 0.33997 0.75225 0.0
O513 O 0.86331 0.32107 0.73643 0.0
O514 O 0.90001 0.32849 0.72172 0.0
O515 O 0.8832 0.34791 0.73108 0.0
C516 C 0.88522 0.29966 0.76096 0.0
C517 C 0.89295 0.34239 0.71966 0.0
C518 C 0.92743 0.62231 0.97779 0.0
C519 C 0.96525 0.60269 0.02202 0.0
O520 O 0.92454 0.61022 0.98761 0.0
Zn521 Zn 0.94388 0.613 1.00228 0.0
O522 O 0.9401 0.63159 0.98041 0.0
Zn523 Zn 0.96077 0.63335 0.99702 0.0
O524 O 0.97955 0.62933 0.98148 0.0
O525 O 0.96281 0.60783 0.98485 0.0
O526 O 0.9692 0.6166 0.01547 0.0
O527 O 0.9513 0.59606 0.01843 0.0
O528 O 0.93888 0.63503 0.01662 0.0
O529 O 0.95715 0.6541 1.00948 0.0
C530 C 0.9756 0.61431 0.97814 0.0
C531 C 0.94471 0.64981 0.01827 0.0
C532 C 0.62126 0.67759 0.26924 0.0
C533 C 0.66811 0.69789 0.23554 0.0
O534 O 0.61659 0.68959 0.25981 0.0
Zn535 Zn 0.6287 0.70548 0.24171 0.0
O536 O 0.6364 0.67326 0.26893 0.0
Zn537 Zn 0.64493 0.68852 0.25219 0.0
O538 O 0.64575 0.7135 0.26316 0.0
O539 O 0.62634 0.7277 0.25012 0.0
O540 O 0.66808 0.68635 0.24638 0.0
O541 O 0.65457 0.70586 0.23254 0.0
O542 O 0.61684 0.70107 0.2216 0.0
O543 O 0.63377 0.68071 0.22856 0.0
C544 C 0.63801 0.72729 0.26071 0.0
C545 C 0.62332 0.68708 0.21827 0.0
C546 C 0.60856 0.40097 0.47167 0.0
C547 C 0.56407 0.40799 0.51393 0.0
O548 O 0.60861 0.41229 0.48281 0.0
Zn549 Zn 0.58876 0.40474 0.49531 0.0
O550 O 0.59734 0.38972 0.47201 0.0
Zn551 Zn 0.57576 0.38283 0.48524 0.0
O552 O 0.55868 0.3868 0.46765 0.0
O553 O 0.57108 0.40961 0.4767 0.0
O554 O 0.56323 0.39519 0.50455 0.0
O555 O 0.57703 0.41713 0.51336 0.0
O556 O 0.59613 0.38174 0.5065 0.0
O557 O 0.58167 0.36127 0.49541 0.0
C558 C 0.56048 0.40259 0.46725 0.0
C559 C 0.59269 0.36617 0.5057 0.0
C560 C 0.7997 0.86049 0.70265 0.0
C561 C 0.76569 0.90286 0.67288 0.0
O562 O 0.79702 0.87518 0.70804 0.0
Zn563 Zn 0.78334 0.88264 0.6888 0.0
O564 O 0.79339 0.85596 0.68878 0.0
Zn565 Zn 0.77786 0.86475 0.66935 0.0
O566 O 0.79346 0.86255 0.6508 0.0
O567 O 0.80114 0.88158 0.66906 0.0
O568 O 0.76656 0.88866 0.66561 0.0
O569 O 0.77341 0.90494 0.68657 0.0
O570 O 0.76236 0.86746 0.69331 0.0
O571 O 0.75906 0.84948 0.67284 0.0
C572 C 0.8039 0.87346 0.6556 0.0
C573 C 0.75451 0.85521 0.68691 0.0
C574 C 0.26393 0.67589 0.33081 0.0
C575 C 0.30984 0.65722 0.36727 0.0
O576 O 0.26772 0.68208 0.3449 0.0
Zn577 Zn 0.28568 0.66642 0.35065 0.0
O578 O 0.2718 0.66307 0.32559 0.0
Zn579 Zn 0.29169 0.6472 0.33282 0.0
O580 O 0.28071 0.62554 0.33536 0.0
O581 O 0.27319 0.64324 0.35489 0.0
O582 O 0.30774 0.64846 0.3541 0.0
O583 O 0.29971 0.66898 0.37047 0.0
O584 O 0.30354 0.67299 0.33235 0.0
O585 O 0.30769 0.65226 0.31483 0.0
C586 C 0.27223 0.62871 0.34834 0.0
C587 C 0.31096 0.66704 0.3196 0.0
C588 C 0.61073 0.01588 0.57333 0.0
C589 C 0.62287 0.06033 0.61397 0.0
O590 O 0.60283 0.01814 0.58689 0.0
Zn591 Zn 0.61707 0.03598 0.59582 0.0
O592 O 0.62385 0.02434 0.5704 0.0
Zn593 Zn 0.63778 0.04427 0.58053 0.0
O594 O 0.65951 0.03393 0.58499 0.0
O595 O 0.64021 0.02403 0.60167 0.0
O596 O 0.63314 0.05924 0.60186 0.0
O597 O 0.61153 0.04939 0.61552 0.0
O598 O 0.6111 0.05348 0.57723 0.0
O599 O 0.63313 0.0606 0.5625 0.0
C600 C 0.65539 0.0242 0.59678 0.0
C601 C 0.61757 0.06177 0.56539 0.0
C602 C 0.20463 0.36996 0.81497 0.0
C603 C 0.2426 0.41053 0.84195 0.0
O604 O 0.20352 0.38566 0.81286 0.0
Zn605 Zn 0.22275 0.39149 0.82726 0.0
O606 O 0.21604 0.36396 0.82419 0.0
Zn607 Zn 0.23638 0.37101 0.83909 0.0
O608 O 0.22767 0.36261 0.86052 0.0
O609 O 0.21336 0.38385 0.85059 0.0
O610 O 0.24557 0.39519 0.84517 0.0
O611 O 0.23077 0.41415 0.83204 0.0
O612 O 0.24172 0.38103 0.81254 0.0
O613 O 0.25431 0.36057 0.8257 0.0
C614 C 0.2157 0.37293 0.8619 0.0
C615 C 0.25255 0.36939 0.81262 0.0
C616 C 0.36772 0.50643 0.59988 0.0
C617 C 0.40685 0.46695 0.57218 0.0
O618 O 0.36398 0.49648 0.5881 0.0
Zn619 Zn 0.38599 0.48611 0.5844 0.0
O620 O 0.38281 0.50697 0.605 0.0
Zn621 Zn 0.40628 0.49555 0.60003 0.0
O622 O 0.42041 0.51298 0.58992 0.0
O623 O 0.39992 0.50536 0.57339 0.0
O624 O 0.41261 0.47635 0.58356 0.0
O625 O 0.3916 0.46823 0.5679 0.0
O626 O 0.3902 0.47268 0.60684 0.0
O627 O 0.4114 0.48329 0.62069 0.0
C628 C 0.4128 0.51424 0.57606 0.0
C629 C 0.4001 0.47224 0.61931 0.0
C630 C 0.7152 0.16508 0.20957 0.0
C631 C 0.75372 0.1291 0.17708 0.0
O632 O 0.7176 0.1497 0.21271 0.0
Zn633 Zn 0.73356 0.14584 0.19418 0.0
O634 O 0.72257 0.17188 0.19732 0.0
Zn635 Zn 0.73997 0.16681 0.17837 0.0
O636 O 0.72574 0.17128 0.15897 0.0
O637 O 0.71774 0.14924 0.1732 0.0
O638 O 0.75288 0.14424 0.17209 0.0
O639 O 0.74494 0.12466 0.18949 0.0
O640 O 0.75263 0.16122 0.20372 0.0
O641 O 0.75695 0.18238 0.18684 0.0
C642 C 0.71567 0.15922 0.16095 0.0
C643 C 0.75995 0.17494 0.20052 0.0
C644 C 0.62116 0.01585 0.95874 0.0
C645 C 0.63099 0.97276 0.9162 0.0
O646 O 0.61313 0.0145 0.94512 0.0
Zn647 Zn 0.62624 0.99624 0.93552 0.0
O648 O 0.63382 1.00659 0.96134 0.0
Zn649 Zn 0.64671 0.98638 0.95031 0.0
O650 O 0.66891 0.99543 0.94591 0.0
O651 O 0.64994 1.00687 0.92977 0.0
O652 O 0.64136 0.9729 0.92827 0.0
O653 O 0.61985 0.98399 0.91531 0.0
O654 O 0.61972 0.97819 0.9533 0.0
O655 O 0.64158 0.96918 0.9673 0.0
C656 C 0.66516 1.00562 0.93437 0.0
C657 C 0.62596 0.96894 0.96455 0.0
C658 C 0.88386 0.01545 0.43163 0.0
C659 C 0.93479 0.04354 0.45 0.0
O660 O 0.88038 0.02659 0.44256 0.0
Zn661 Zn 0.89484 0.04429 0.45718 0.0
O662 O 0.89892 1.01344 0.42753 0.0
Zn663 Zn 0.90918 0.03039 0.44128 0.0
O664 O 0.90786 0.02109 0.46708 0.0
O665 O 0.89052 0.03808 0.4797 0.0
O666 O 0.93279 0.03246 0.43892 0.0
O667 O 0.92197 0.04923 0.45773 0.0
O668 O 0.88571 0.0653 0.4512 0.0
O669 O 0.90075 0.05443 0.43112 0.0
C670 C 0.90016 0.02564 0.48036 0.0
C671 C 0.89176 0.06644 0.43671 0.0
H672 H 0.10784 0.18164 0.51801 0.0
H673 H 0.1227 0.20138 0.50017 0.0
H674 H 0.14998 0.16085 0.47806 0.0
H675 H 0.13564 0.14123 0.49616 0.0
H676 H 0.17039 0.18558 0.48416 0.0
H677 H 0.11522 0.21146 0.4521 0.0
H678 H 0.11443 0.21395 0.47425 0.0
H679 H 0.11402 0.19342 0.46533 0.0
C680 C 0.11695 0.17693 0.5093 0.0
C681 C 0.12044 0.15978 0.50855 0.0
C682 C 0.1254 0.18824 0.49899 0.0
C683 C 0.13734 0.18268 0.48745 0.0
C684 C 0.14085 0.16557 0.48677 0.0
H685 H 0.17406 0.23541 0.40081 0.0
H686 H 0.15998 0.21769 0.42097 0.0
C687 C 0.13257 0.1543 0.49716 0.0
C688 C 0.14645 0.19452 0.47625 0.0
H689 H 0.14097 0.22456 0.44658 0.0
C690 C 0.16392 0.1941 0.47596 0.0
C691 C 0.13812 0.20556 0.46531 0.0
C692 C 0.11942 0.20605 0.4641 0.0
C693 C 0.17323 0.20423 0.4651 0.0
C694 C 0.16492 0.21557 0.45444 0.0
C695 C 0.14744 0.21604 0.45479 0.0
C696 C 0.17397 0.22642 0.44224 0.0
C697 C 0.19186 0.20221 0.46476 0.0
C698 C 0.18662 0.23742 0.44731 0.0
C699 C 0.19492 0.2475 0.43568 0.0
C700 C 0.19057 0.24704 0.41871 0.0
C701 C 0.1778 0.23615 0.41373 0.0
C702 C 0.16966 0.22599 0.4253 0.0
H703 H 0.19577 0.19001 0.46995 0.0
H704 H 0.19676 0.20326 0.4519 0.0
H705 H 0.19763 0.2121 0.47246 0.0
H706 H 0.18996 0.23839 0.46032 0.0
H707 H 0.20454 0.25584 0.44002 0.0
H708 H 0.08471 0.83652 0.7724 0.0
H709 H 0.06442 0.85134 0.75506 0.0
H710 H 0.10382 0.88092 0.73411 0.0
H711 H 0.12399 0.86652 0.75157 0.0
H712 H 0.07795 0.90018 0.74194 0.0
H713 H 0.05503 0.84592 0.70609 0.0
H714 H 0.05287 0.84368 0.72819 0.0
H715 H 0.07325 0.84487 0.71912 0.0
C716 C 0.08906 0.84612 0.76404 0.0
C717 C 0.10606 0.85023 0.76341 0.0
C718 C 0.07744 0.85455 0.75403 0.0
C719 C 0.08253 0.86716 0.743 0.0
C720 C 0.09948 0.87127 0.74243 0.0
H721 H 0.02937 0.90871 0.65846 0.0
H722 H 0.04749 0.89359 0.6776 0.0
C723 C 0.11106 0.86294 0.75245 0.0
C724 C 0.07035 0.8764 0.73228 0.0
H725 H 0.04103 0.87147 0.70178 0.0
C726 C 0.06986 0.89387 0.73319 0.0
C727 C 0.05988 0.86828 0.72064 0.0
C728 C 0.06034 0.84967 0.71829 0.0
C729 C 0.05933 0.90337 0.72288 0.0
C730 C 0.0486 0.89524 0.71149 0.0
C731 C 0.04908 0.87777 0.71058 0.0
C732 C 0.03732 0.90461 0.69993 0.0
C733 C 0.06023 0.92209 0.72394 0.0
C734 C 0.02533 0.91584 0.70598 0.0
C735 C 0.01496 0.92465 0.69499 0.0
C736 C 0.01618 0.92233 0.67767 0.0
C737 C 0.02804 0.9109 0.67168 0.0
C738 C 0.03843 0.90218 0.68265 0.0
H739 H 0.07203 0.92631 0.72974 0.0
H740 H 0.05917 0.92783 0.71143 0.0
H741 H 0.04984 0.92671 0.73172 0.0
H742 H 0.02387 0.91771 0.71923 0.0
H743 H 1.00591 0.93321 0.7001 0.0
H744 H 0.41009 0.87251 0.99339 0.0
H745 H 0.39429 0.85295 0.97647 0.0
H746 H 0.43276 0.81615 0.98282 0.0
H747 H 0.44845 0.8356 1.00035 0.0
H748 H 0.40058 0.83938 0.94789 0.0
H749 H 0.39311 0.78826 0.99333 0.0
H750 H 0.40097 0.80843 0.99919 0.0
H751 H 0.41447 0.79336 0.9896 0.0
C752 C 0.41522 0.86022 0.99131 0.0
C753 C 0.43059 0.85568 0.99834 0.0
C754 C 0.40611 0.849 0.98157 0.0
C755 C 0.4121 0.83287 0.97847 0.0
C756 C 0.42755 0.82831 0.98533 0.0
H757 H 0.37562 0.77317 0.89521 0.0
H758 H 0.39141 0.79085 0.91411 0.0
C759 C 0.43662 0.83952 0.99527 0.0
C760 C 0.40236 0.82127 0.96752 0.0
H761 H 0.38509 0.78237 0.96542 0.0
C762 C 0.39718 0.82694 0.9518 0.0
C763 C 0.39757 0.80506 0.97258 0.0
C764 C 0.40166 0.79846 0.98966 0.0
C765 C 0.38761 0.81695 0.94104 0.0
C766 C 0.38343 0.8005 0.9458 0.0
C767 C 0.38839 0.79487 0.96161 0.0
C768 C 0.37399 0.789 0.93451 0.0
C769 C 0.38173 0.82438 0.92484 0.0
C770 C 0.35917 0.78133 0.93977 0.0
C771 C 0.35016 0.77089 0.92898 0.0
C772 C 0.35574 0.7679 0.91265 0.0
C773 C 0.37076 0.77533 0.90758 0.0
C774 C 0.3798 0.78558 0.91839 0.0
H775 H 0.38128 0.83818 0.92547 0.0
H776 H 0.39053 0.82093 0.9148 0.0
H777 H 0.36919 0.81975 0.92143 0.0
H778 H 0.35443 0.78361 0.95217 0.0
H779 H 0.33872 0.76536 0.93336 0.0
H780 H 0.44274 0.18609 0.25796 0.0
H781 H 0.46181 0.17141 0.2392 0.0
H782 H 0.42613 0.13183 0.23372 0.0
H783 H 0.40689 0.14661 0.25192 0.0
H784 H 0.47715 0.142 0.24034 0.0
H785 H 0.4351 0.1417 0.18593 0.0
H786 H 0.43079 0.15379 0.20432 0.0
H787 H 0.42582 0.13195 0.20368 0.0
C788 C 0.43892 0.17429 0.25271 0.0
C789 C 0.42315 0.16767 0.25635 0.0
C790 C 0.44987 0.16587 0.24198 0.0
C791 C 0.44535 0.15062 0.23465 0.0
C792 C 0.4298 0.14379 0.23871 0.0
H793 H 0.51529 0.08088 0.18684 0.0
H794 H 0.4971 0.09535 0.20659 0.0
C795 C 0.41881 0.15225 0.24926 0.0
C796 C 0.45684 0.1418 0.2229 0.0
H797 H 0.4589 0.12423 0.18417 0.0
C798 C 0.47317 0.13819 0.22802 0.0
C799 C 0.45185 0.13698 0.20667 0.0
C800 C 0.435 0.14146 0.19975 0.0
C801 C 0.48446 0.12976 0.21755 0.0
C802 C 0.47922 0.12433 0.20159 0.0
C803 C 0.46296 0.12813 0.19642 0.0
C804 C 0.49048 0.1153 0.18974 0.0
C805 C 0.50202 0.12719 0.22359 0.0
C806 C 0.49254 0.12125 0.17343 0.0
C807 C 0.50267 0.11281 0.16204 0.0
C808 C 0.51114 0.09817 0.16659 0.0
C809 C 0.50909 0.09217 0.18291 0.0
C810 C 0.49877 0.10055 0.19429 0.0
H811 H 0.50535 0.13621 0.23352 0.0
H812 H 0.5032 0.11451 0.22887 0.0
H813 H 0.51108 0.12847 0.21326 0.0
H814 H 0.48634 0.13254 0.16949 0.0
H815 H 0.50393 0.11788 0.14963 0.0
H816 H 0.16736 0.77259 0.10402 0.0
H817 H 0.15374 0.78948 0.0827 0.0
H818 H 0.12255 0.81177 0.12015 0.0
H819 H 0.13579 0.79454 0.14148 0.0
H820 H 0.10465 0.80496 0.09315 0.0
H821 H 0.16169 0.83759 0.07297 0.0
H822 H 0.16339 0.81543 0.07107 0.0
H823 H 0.16112 0.82473 0.09132 0.0
C824 C 0.15761 0.78109 0.10776 0.0
C825 C 0.15279 0.78222 0.12456 0.0
C826 C 0.14989 0.79087 0.09552 0.0
C827 C 0.1373 0.80227 0.09974 0.0
C828 C 0.13226 0.8032 0.11648 0.0
H829 H 0.10495 0.88515 0.03777 0.0
H830 H 0.11715 0.86683 0.05867 0.0
C831 C 0.13989 0.79332 0.12871 0.0
C832 C 0.12931 0.81311 0.08679 0.0
H833 H 0.13769 0.84154 0.05623 0.0
C834 C 0.1119 0.81298 0.08511 0.0
C835 C 0.13863 0.82383 0.07636 0.0
C836 C 0.15722 0.82557 0.07811 0.0
C837 C 0.10366 0.82306 0.07333 0.0
C838 C 0.11303 0.83335 0.06253 0.0
C839 C 0.13042 0.83357 0.06431 0.0
C840 C 0.10513 0.84447 0.04974 0.0
C841 C 0.08492 0.8229 0.07297 0.0
C842 C 0.09428 0.83816 0.03751 0.0
C843 C 0.0871 0.84872 0.02555 0.0
C844 C 0.09078 0.86585 0.02534 0.0
C845 C 0.10178 0.87207 0.03747 0.0
C846 C 0.10882 0.86155 0.04948 0.0
H847 H 0.07965 0.81837 0.0849 0.0
H848 H 0.07986 0.83549 0.07043 0.0
H849 H 0.08066 0.81438 0.06298 0.0
H850 H 0.09151 0.825 0.03706 0.0
H851 H 0.07883 0.84342 0.01634 0.0
H852 H 0.51381 0.95145 0.34235 0.0
H853 H 0.49409 0.93836 0.32305 0.0
H854 H 0.48683 0.89819 0.35776 0.0
H855 H 0.50596 0.91141 0.37723 0.0
H856 H 0.49319 0.90954 0.30682 0.0
H857 H 0.43963 0.91086 0.34975 0.0
H858 H 0.45869 0.92177 0.35415 0.0
H859 H 0.45689 0.89987 0.35855 0.0
C860 C 0.50798 0.93984 0.34588 0.0
C861 C 0.51138 0.93262 0.36147 0.0
C862 C 0.49669 0.93234 0.33481 0.0
C863 C 0.48856 0.91743 0.33903 0.0
C864 C 0.49242 0.90994 0.35435 0.0
H865 H 0.43794 0.85075 0.26875 0.0
H866 H 0.45803 0.8647 0.28689 0.0
C867 C 0.50352 0.9175 0.36546 0.0
C868 C 0.47617 0.9096 0.32746 0.0
H869 H 0.43674 0.89376 0.32567 0.0
C870 C 0.48081 0.90619 0.31094 0.0
C871 C 0.45984 0.90543 0.3326 0.0
C872 C 0.4534 0.90984 0.34967 0.0
C873 C 0.46982 0.89847 0.29963 0.0
C874 C 0.45378 0.89353 0.30504 0.0
C875 C 0.44904 0.89726 0.32146 0.0
C876 C 0.44157 0.88485 0.29388 0.0
C877 C 0.47542 0.89609 0.28189 0.0
C878 C 0.4253 0.89102 0.29211 0.0
C879 C 0.41367 0.88284 0.282 0.0
C880 C 0.41797 0.86826 0.27328 0.0
C881 C 0.43421 0.86202 0.27512 0.0
C882 C 0.4458 0.87011 0.28541 0.0
H883 H 0.48539 0.90502 0.27852 0.0
H884 H 0.48053 0.88335 0.28041 0.0
H885 H 0.46495 0.89766 0.27304 0.0
H886 H 0.42159 0.90228 0.2985 0.0
H887 H 0.40131 0.88805 0.28091 0.0
H888 H 0.37318 0.25657 0.62396 0.0
H889 H 0.38803 0.23883 0.60438 0.0
H890 H 0.35058 0.24827 0.56719 0.0
H891 H 0.33591 0.26665 0.58666 0.0
H892 H 0.3802 0.21099 0.59052 0.0
H893 H 0.39095 0.25605 0.53968 0.0
H894 H 0.38324 0.26231 0.55978 0.0
H895 H 0.36934 0.25365 0.5445 0.0
C896 C 0.3681 0.255 0.61158 0.0
C897 C 0.35331 0.26315 0.60693 0.0
C898 C 0.37665 0.24479 0.60034 0.0
C899 C 0.37068 0.24227 0.5841 0.0
C900 C 0.35581 0.25028 0.57943 0.0
H901 H 0.40295 0.15692 0.5246 0.0
H902 H 0.38799 0.17665 0.54211 0.0
C903 C 0.34732 0.26072 0.59065 0.0
C904 C 0.37978 0.23077 0.57249 0.0
H905 H 0.39717 0.2277 0.53369 0.0
C906 C 0.38393 0.21473 0.57812 0.0
C907 C 0.38499 0.23556 0.55633 0.0
C908 C 0.38207 0.25288 0.54976 0.0
C909 C 0.3929 0.20343 0.56816 0.0
C910 C 0.39749 0.20796 0.55175 0.0
C911 C 0.39354 0.22406 0.54615 0.0
C912 C 0.40639 0.19618 0.54029 0.0
C913 C 0.39775 0.1869 0.57561 0.0
C914 C 0.42147 0.20067 0.53264 0.0
C915 C 0.43 0.18941 0.52229 0.0
C916 C 0.42366 0.17335 0.51936 0.0
C917 C 0.40839 0.16905 0.52673 0.0
C918 C 0.39982 0.18034 0.53689 0.0
H919 H 0.39816 0.1875 0.58941 0.0
H920 H 0.38837 0.17742 0.57211 0.0
H921 H 0.41009 0.18274 0.57106 0.0
H922 H 0.42682 0.21282 0.5349 0.0
H923 H 0.44167 0.1932 0.5168 0.0
H924 H 0.08582 0.18331 0.75444 0.0
H925 H 0.06568 0.16917 0.77249 0.0
H926 H 0.1057 0.14355 0.79726 0.0
H927 H 0.12575 0.1573 0.7792 0.0
H928 H 0.08055 0.12247 0.79052 0.0
H929 H 0.05521 0.17909 0.82074 0.0
H930 H 0.05362 0.1791 0.79846 0.0
H931 H 0.07375 0.17947 0.80815 0.0
C932 C 0.09034 0.17469 0.76375 0.0
C933 C 0.10749 0.17155 0.76533 0.0
C934 C 0.07879 0.16667 0.77417 0.0
C935 C 0.0841 0.1554 0.78649 0.0
C936 C 0.10119 0.15217 0.78793 0.0
H937 H 0.03265 0.12042 0.87452 0.0
H938 H 0.05009 0.13406 0.8538 0.0
C939 C 0.11269 0.16012 0.77755 0.0
C940 C 0.07206 0.14678 0.79783 0.0
H941 H 0.04239 0.15356 0.8276 0.0
C942 C 0.07217 0.12929 0.79857 0.0
C943 C 0.0612 0.15559 0.80857 0.0
C944 C 0.06098 0.17434 0.80911 0.0
C945 C 0.06188 0.12045 0.80968 0.0
C946 C 0.05084 0.12925 0.82024 0.0
C947 C 0.05069 0.14673 0.81946 0.0
C948 C 0.03999 0.12066 0.83276 0.0
C949 C 0.0634 0.10176 0.8104 0.0
C950 C 0.02828 0.10855 0.82799 0.0
C951 C 0.01827 0.10059 0.83991 0.0
C952 C 0.0196 0.10464 0.85691 0.0
C953 C 0.03123 0.11689 0.8616 0.0
C954 C 0.04123 0.12478 0.84971 0.0
H955 H 0.07525 0.09735 0.80485 0.0
H956 H 0.0627 0.09723 0.82342 0.0
H957 H 0.05305 0.09609 0.80327 0.0
H958 H 0.02674 0.10535 0.815 0.0
H959 H 1.00939 0.09135 0.83578 0.0
H960 H 0.25447 0.39045 0.15223 0.0
H961 H 0.23695 0.41024 0.13731 0.0
H962 H 0.2484 0.44796 0.17368 0.0
H963 H 0.26639 0.42828 0.18847 0.0
H964 H 0.20957 0.42591 0.14574 0.0
H965 H 0.25716 0.47355 0.13186 0.0
H966 H 0.26245 0.45329 0.13989 0.0
H967 H 0.25526 0.4694 0.15369 0.0
C968 C 0.25336 0.40298 0.15707 0.0
C969 C 0.26198 0.40772 0.17158 0.0
C970 C 0.24328 0.41433 0.14848 0.0
C971 C 0.24146 0.43079 0.1541 0.0
C972 C 0.24987 0.43552 0.16873 0.0
H973 H 0.1594 0.49536 0.12376 0.0
H974 H 0.17845 0.47669 0.13819 0.0
C975 C 0.26008 0.42417 0.1773 0.0
C976 C 0.23037 0.44269 0.14487 0.0
H977 H 0.22907 0.48103 0.1263 0.0
C978 C 0.2139 0.43794 0.14148 0.0
C979 C 0.23595 0.45835 0.13896 0.0
C980 C 0.25371 0.46391 0.14112 0.0
C981 C 0.20289 0.44835 0.13266 0.0
C982 C 0.20826 0.46429 0.12735 0.0
C983 C 0.22481 0.46895 0.13048 0.0
C984 C 0.19687 0.47624 0.11861 0.0
C985 C 0.18571 0.44194 0.12879 0.0
C986 C 0.201 0.4829 0.10296 0.0
C987 C 0.19014 0.49385 0.09468 0.0
C988 C 0.17485 0.49845 0.10187 0.0
C989 C 0.17093 0.49201 0.11768 0.0
C990 C 0.18181 0.48118 0.12596 0.0
H991 H 0.18529 0.42812 0.12896 0.0
H992 H 0.17691 0.44652 0.13838 0.0
H993 H 0.18136 0.4463 0.11643 0.0
H994 H 0.21257 0.47944 0.09701 0.0
H995 H 0.19364 0.49857 0.08257 0.0
H996 H 0.78003 0.07764 0.84403 0.0
H997 H 0.76188 0.05835 0.85911 0.0
H998 H 0.73712 0.0998 0.88241 0.0
H999 H 0.7553 0.11907 0.86768 0.0
H1000 H 0.7445 0.07553 0.90487 0.0
H1001 H 0.71344 0.04776 0.84982 0.0
H1002 H 0.7357 0.04624 0.84957 0.0
H1003 H 0.72594 0.06633 0.84848 0.0
C1004 C 0.77066 0.08266 0.85229 0.0
C1005 C 0.76913 0.09996 0.85454 0.0
C1006 C 0.76022 0.07159 0.86087 0.0
C1007 C 0.74793 0.07757 0.87179 0.0
C1008 C 0.74645 0.09483 0.87407 0.0
H1009 H 0.66043 0.02904 0.91023 0.0
H1010 H 0.6812 0.04569 0.89579 0.0
C1011 C 0.75687 0.10586 0.86556 0.0
C1012 C 0.73673 0.06601 0.88108 0.0
H1013 H 0.70691 0.03612 0.876 0.0
C1014 C 0.73632 0.06687 0.89855 0.0
C1015 C 0.7259 0.0548 0.87288 0.0
C1016 C 0.7251 0.05377 0.85416 0.0
C1017 C 0.72539 0.05697 0.90799 0.0
C1018 C 0.7147 0.04562 0.89979 0.0
C1019 C 0.71518 0.04469 0.88233 0.0
C1020 C 0.70222 0.03533 0.90896 0.0
C1021 C 0.725 0.05919 0.92662 0.0
C1022 C 0.70702 0.02381 0.92124 0.0
C1023 C 0.69508 0.01424 0.92965 0.0
C1024 C 0.67807 0.0159 0.92589 0.0
C1025 C 0.67337 0.02739 0.91353 0.0
C1026 C 0.68527 0.03693 0.90519 0.0
H1027 H 0.73092 0.07104 0.93053 0.0
H1028 H 0.71204 0.05899 0.93133 0.0
H1029 H 0.73189 0.04882 0.93257 0.0
H1030 H 0.72003 0.02207 0.92419 0.0
H1031 H 0.69918 1.00545 0.93899 0.0
H1032 H 0.78552 0.90072 0.37918 0.0
H1033 H 0.80452 0.92057 0.39199 0.0
H1034 H 0.78661 0.95905 0.35926 0.0
H1035 H 0.76773 0.93904 0.34603 0.0
H1036 H 0.81985 0.96023 0.3617 0.0
H1037 H 0.79411 0.95629 0.42526 0.0
H1038 H 0.80016 0.93627 0.41753 0.0
H1039 H 0.78361 0.94752 0.40748 0.0
C1040 C 0.78552 0.91341 0.3747 0.0
C1041 C 0.77494 0.91824 0.36159 0.0
C1042 C 0.79635 0.92483 0.38217 0.0
C1043 C 0.79681 0.94149 0.37693 0.0
C1044 C 0.78644 0.94633 0.36368 0.0
H1045 H 0.84985 0.01812 0.43492 0.0
H1046 H 0.82837 1.00131 0.42125 0.0
C1047 C 0.77562 0.93486 0.35611 0.0
C1048 C 0.80847 0.95363 0.38499 0.0
H1049 H 0.82094 0.96891 0.42277 0.0
C1050 C 0.81997 0.96221 0.37504 0.0
C1051 C 0.80854 0.95657 0.40239 0.0
C1052 C 0.79582 0.94881 0.41376 0.0
C1053 C 0.83182 0.9731 0.38201 0.0
C1054 C 0.83253 0.97526 0.39951 0.0
C1055 C 0.82065 0.96714 0.4094 0.0
C1056 C 0.84563 0.98564 0.4078 0.0
C1057 C 0.84333 0.98233 0.37045 0.0
C1058 C 0.86257 0.98236 0.40512 0.0
C1059 C 0.87486 0.99201 0.41284 0.0
C1060 C 0.8706 1.00511 0.42368 0.0
C1061 C 0.85363 1.00819 0.42664 0.0
C1062 C 0.84131 0.99856 0.41882 0.0
H1063 H 0.83785 0.98362 0.35782 0.0
H1064 H 0.84626 0.99493 0.37528 0.0
H1065 H 0.8551 0.97527 0.36919 0.0
H1066 H 0.86634 0.9722 0.39713 0.0
H1067 H 0.88776 0.98912 0.41035 0.0
H1068 H 0.83278 0.02749 0.07759 0.0
H1069 H 0.81379 0.0461 0.09262 0.0
H1070 H 0.84932 0.05028 0.13253 0.0
H1071 H 0.86842 0.03214 0.11749 0.0
H1072 H 0.79845 0.04415 0.12251 0.0
H1073 H 0.8405 0.09852 0.12336 0.0
H1074 H 0.84457 0.0804 0.11078 0.0
H1075 H 0.84982 0.08047 0.13256 0.0
C1076 C 0.83659 0.03243 0.08953 0.0
C1077 C 0.85227 0.02839 0.09619 0.0
C1078 C 0.82567 0.04307 0.09816 0.0
C1079 C 0.83017 0.04997 0.11363 0.0
C1080 C 0.84565 0.04559 0.12044 0.0
H1081 H 0.7614 0.0966 0.18533 0.0
H1082 H 0.77952 0.07723 0.17027 0.0
C1083 C 0.85657 0.03508 0.11182 0.0
C1084 C 0.81871 0.0616 0.12272 0.0
H1085 H 0.81676 0.10008 0.14091 0.0
C1086 C 0.80245 0.05641 0.12646 0.0
C1087 C 0.82372 0.07775 0.12776 0.0
C1088 C 0.84054 0.0847 0.12327 0.0
C1089 C 0.79126 0.06672 0.13525 0.0
C1090 C 0.79651 0.08261 0.14085 0.0
C1091 C 0.81269 0.08787 0.13688 0.0
C1092 C 0.78532 0.09428 0.15026 0.0
C1093 C 0.77378 0.06059 0.13806 0.0
C1094 C 0.78281 0.11059 0.14448 0.0
C1095 C 0.77267 0.12176 0.15322 0.0
C1096 C 0.76466 0.11701 0.16805 0.0
C1097 C 0.76723 0.10071 0.17392 0.0
C1098 C 0.77752 0.08953 0.1652 0.0
H1099 H 0.77036 0.05068 0.12904 0.0
H1100 H 0.77285 0.05525 0.15074 0.0
H1101 H 0.76465 0.07088 0.13697 0.0
H1102 H 0.78866 0.11469 0.13307 0.0
H1103 H 0.77103 0.13417 0.14823 0.0
H1104 H 0.26235 0.58977 0.69171 0.0
H1105 H 0.28061 0.56965 0.67775 0.0
H1106 H 0.28958 0.60504 0.63854 0.0
H1107 H 0.27189 0.62526 0.6526 0.0
H1108 H 0.28026 0.55427 0.64808 0.0
H1109 H 0.33634 0.59385 0.65076 0.0
H1110 H 0.31763 0.59894 0.66196 0.0
H1111 H 0.31953 0.60397 0.64021 0.0
C1112 C 0.26825 0.59328 0.68013 0.0
C1113 C 0.26575 0.60928 0.67344 0.0
C1114 C 0.2787 0.58173 0.67212 0.0
C1115 C 0.28689 0.58586 0.6572 0.0
C1116 C 0.28392 0.60162 0.65025 0.0
H1117 H 0.33566 0.51381 0.58964 0.0
H1118 H 0.31566 0.53256 0.6031 0.0
C1119 C 0.27366 0.61319 0.65831 0.0
C1120 C 0.29852 0.5738 0.6489 0.0
H1121 H 0.3379 0.57003 0.63328 0.0
C1122 C 0.29289 0.55771 0.64492 0.0
C1123 C 0.31515 0.57806 0.64492 0.0
C1124 C 0.32258 0.59457 0.64984 0.0
C1125 C 0.30325 0.54597 0.63693 0.0
C1126 C 0.31967 0.55047 0.63236 0.0
C1127 C 0.32531 0.5665 0.63652 0.0
C1128 C 0.33155 0.53866 0.624 0.0
C1129 C 0.29659 0.5287 0.63391 0.0
C1130 C 0.3474 0.53603 0.63086 0.0
C1131 C 0.35893 0.52558 0.62302 0.0
C1132 C 0.35501 0.51732 0.60806 0.0
C1133 C 0.3391 0.51984 0.60119 0.0
C1134 C 0.32757 0.53049 0.60899 0.0
H1135 H 0.28602 0.52581 0.6423 0.0
H1136 H 0.29203 0.5278 0.62092 0.0
H1137 H 0.3064 0.51915 0.63576 0.0
H1138 H 0.35091 0.54208 0.64237 0.0
H1139 H 0.37099 0.52397 0.62878 0.0
H1140 H 0.26251 0.59824 0.33577 0.0
H1141 H 0.24317 0.57824 0.34832 0.0
H1142 H 0.23798 0.61014 0.39112 0.0
H1143 H 0.2568 0.63025 0.37855 0.0
H1144 H 0.2435 0.56027 0.37679 0.0
H1145 H 0.19014 0.60357 0.37883 0.0
H1146 H 0.20889 0.60822 0.3675 0.0
H1147 H 0.20788 0.61168 0.38961 0.0
C1148 C 0.25723 0.60099 0.34785 0.0
C1149 C 0.26111 0.61599 0.35603 0.0
C1150 C 0.24616 0.58953 0.35503 0.0
C1151 C 0.23874 0.59279 0.37055 0.0
C1152 C 0.24307 0.60749 0.37894 0.0
H1153 H 0.18842 0.52028 0.4349 0.0
H1154 H 0.20867 0.53872 0.42157 0.0
C1155 C 0.25397 0.61898 0.37174 0.0
C1156 C 0.22652 0.58092 0.37804 0.0
H1157 H 0.18743 0.57862 0.39454 0.0
C1158 C 0.2312 0.56426 0.38058 0.0
C1159 C 0.21033 0.58597 0.38279 0.0
C1160 C 0.20393 0.60328 0.37939 0.0
C1161 C 0.22033 0.55269 0.38801 0.0
C1162 C 0.20441 0.55795 0.39346 0.0
C1163 C 0.19966 0.57453 0.39062 0.0
C1164 C 0.19226 0.54646 0.40167 0.0
C1165 C 0.22592 0.53485 0.38958 0.0
C1166 C 0.17604 0.54495 0.39534 0.0
C1167 C 0.16436 0.53466 0.40312 0.0
C1168 C 0.16855 0.52551 0.41746 0.0
C1169 C 0.18478 0.52702 0.42383 0.0
C1170 C 0.19644 0.53748 0.4161 0.0
H1171 H 0.23591 0.53184 0.38053 0.0
H1172 H 0.23096 0.53278 0.40226 0.0
H1173 H 0.21543 0.52612 0.38757 0.0
H1174 H 0.1724 0.55173 0.38429 0.0
H1175 H 0.15203 0.53382 0.39781 0.0
H1176 H 0.31716 0.52426 0.93249 0.0
H1177 H 0.2972 0.50654 0.9177 0.0
H1178 H 0.33742 0.483 0.89128 0.0
H1179 H 0.35736 0.5007 0.90578 0.0
H1180 H 0.3114 0.49142 0.87044 0.0
H1181 H 0.28807 0.45724 0.92567 0.0
H1182 H 0.28655 0.47948 0.92706 0.0
H1183 H 0.30665 0.46977 0.92629 0.0
C1184 C 0.32178 0.51525 0.9236 0.0
C1185 C 0.33893 0.51391 0.92044 0.0
C1186 C 0.31033 0.50507 0.91518 0.0
C1187 C 0.31577 0.49325 0.90346 0.0
C1188 C 0.33287 0.49197 0.90024 0.0
H1189 H 0.26827 0.406 0.8637 0.0
H1190 H 0.2849 0.42692 0.87794 0.0
C1191 C 0.34429 0.50211 0.90863 0.0
C1192 C 0.30379 0.48226 0.8944 0.0
H1193 H 0.27516 0.45132 0.89997 0.0
C1194 C 0.30341 0.48271 0.87691 0.0
C1195 C 0.29344 0.47076 0.90278 0.0
C1196 C 0.29373 0.46911 0.92147 0.0
C1197 C 0.29312 0.47196 0.86763 0.0
C1198 C 0.28271 0.46052 0.87602 0.0
C1199 C 0.283 0.46016 0.89351 0.0
C1200 C 0.27235 0.44799 0.86695 0.0
C1201 C 0.29392 0.47254 0.84889 0.0
C1202 C 0.25959 0.45277 0.85595 0.0
C1203 C 0.24996 0.44072 0.84766 0.0
C1204 C 0.25285 0.42364 0.85025 0.0
C1205 C 0.26563 0.41899 0.8613 0.0
C1206 C 0.27518 0.43097 0.86955 0.0
H1207 H 0.30505 0.47938 0.84443 0.0
H1208 H 0.29414 0.45979 0.84358 0.0
H1209 H 0.28273 0.47899 0.84406 0.0
H1210 H 0.25694 0.46581 0.85391 0.0
H1211 H 0.24019 0.44479 0.83934 0.0
H1212 H 0.61268 0.64313 0.97782 0.0
H1213 H 0.62724 0.66332 0.96051 0.0
H1214 H 0.5991 0.70309 0.98286 0.0
H1215 H 0.58424 0.68284 1.00018 0.0
H1216 H 0.60102 0.70628 0.94888 0.0
H1217 H 0.66392 0.69506 0.97432 0.0
H1218 H 0.65413 0.67638 0.96706 0.0
H1219 H 0.64536 0.68751 0.98439 0.0
C1220 C 0.60956 0.65616 0.97914 0.0
C1221 C 0.59727 0.6613 0.99051 0.0
C1222 C 0.61803 0.66775 0.96928 0.0
C1223 C 0.61457 0.68482 0.97056 0.0
C1224 C 0.60213 0.69001 0.9817 0.0
H1225 H 0.67703 0.76149 0.92293 0.0
H1226 H 0.66228 0.74432 0.94342 0.0
C1227 C 0.59363 0.6784 0.99162 0.0
C1228 C 0.62361 0.69711 0.95989 0.0
H1229 H 0.66251 0.71029 0.94881 0.0
C1230 C 0.61445 0.70723 0.94898 0.0
C1231 C 0.64116 0.69864 0.96013 0.0
C1232 C 0.65172 0.68895 0.97222 0.0
C1233 C 0.62234 0.71831 0.93794 0.0
C1234 C 0.63993 0.71918 0.93755 0.0
C1235 C 0.64906 0.70953 0.9489 0.0
C1236 C 0.64904 0.72964 0.92515 0.0
C1237 C 0.61171 0.72907 0.92684 0.0
C1238 C 0.64682 0.72697 0.90803 0.0
C1239 C 0.65523 0.73673 0.89632 0.0
C1240 C 0.66621 0.74941 0.90138 0.0
C1241 C 0.66866 0.7519 0.91855 0.0
C1242 C 0.66022 0.74208 0.93029 0.0
H1243 H 0.59901 0.73067 0.93201 0.0
H1244 H 0.61735 0.74153 0.92507 0.0
H1245 H 0.61051 0.72304 0.91448 0.0
H1246 H 0.63861 0.71723 0.90368 0.0
H1247 H 0.65306 0.73432 0.88324 0.0
H1248 H 0.58029 0.34169 0.26608 0.0
H1249 H 0.56066 0.35551 0.24726 0.0
H1250 H 0.6009 0.3834 0.22561 0.0
H1251 H 0.62043 0.37004 0.2446 0.0
H1252 H 0.57488 0.40322 0.23058 0.0
H1253 H 0.55299 0.34607 0.19883 0.0
H1254 H 0.54988 0.34574 0.22092 0.0
H1255 H 0.57064 0.34609 0.21265 0.0
C1256 C 0.58497 0.35074 0.25729 0.0
C1257 C 0.60202 0.35464 0.25687 0.0
C1258 C 0.57372 0.35858 0.24642 0.0
C1259 C 0.57924 0.37037 0.23472 0.0
C1260 C 0.59623 0.37437 0.23444 0.0
H1261 H 0.52997 0.40283 0.14462 0.0
H1262 H 0.54711 0.39018 0.16617 0.0
C1263 C 0.60744 0.36665 0.24533 0.0
C1264 C 0.56749 0.37868 0.22282 0.0
H1265 H 0.53925 0.37112 0.19186 0.0
C1266 C 0.56707 0.39617 0.22214 0.0
C1267 C 0.55738 0.36959 0.21159 0.0
C1268 C 0.55781 0.35085 0.21087 0.0
C1269 C 0.557 0.40475 0.21061 0.0
C1270 C 0.54666 0.39566 0.19959 0.0
C1271 C 0.54701 0.37817 0.20034 0.0
C1272 C 0.53612 0.40389 0.18655 0.0
C1273 C 0.55802 0.42347 0.20997 0.0
C1274 C 0.52405 0.41592 0.19064 0.0
C1275 C 0.51423 0.42337 0.1782 0.0
C1276 C 0.51609 0.41882 0.16138 0.0
C1277 C 0.52811 0.40671 0.15739 0.0
C1278 C 0.53796 0.39939 0.16976 0.0
H1279 H 0.56958 0.42816 0.2159 0.0
H1280 H 0.55759 0.42802 0.19694 0.0
H1281 H 0.54732 0.42885 0.21679 0.0
H1282 H 0.52203 0.41939 0.20349 0.0
H1283 H 0.50502 0.43251 0.18179 0.0
H1284 H 0.91891 0.35919 0.4974 0.0
H1285 H 0.90449 0.33844 0.48042 0.0
H1286 H 0.86536 0.37367 0.4705 0.0
H1287 H 0.87988 0.39462 0.48714 0.0
H1288 H 0.87432 0.32386 0.48314 0.0
H1289 H 0.87686 0.35903 0.42397 0.0
H1290 H 0.88863 0.36511 0.44208 0.0
H1291 H 0.86693 0.37029 0.44048 0.0
C1292 C 0.90726 0.36258 0.49157 0.0
C1293 C 0.90067 0.37869 0.49358 0.0
C1294 C 0.89899 0.35065 0.48186 0.0
C1295 C 0.88392 0.35448 0.47387 0.0
C1296 C 0.87715 0.37045 0.47614 0.0
H1297 H 0.81706 0.27907 0.4299 0.0
H1298 H 0.8297 0.29992 0.44827 0.0
C1299 C 0.88545 0.38243 0.48577 0.0
C1300 C 0.87534 0.34175 0.46327 0.0
H1301 H 0.86046 0.33457 0.42402 0.0
C1302 C 0.8713 0.32622 0.47021 0.0
C1303 C 0.87153 0.34464 0.4463 0.0
C1304 C 0.87635 0.3606 0.43769 0.0
C1305 C 0.86354 0.31362 0.46075 0.0
C1306 C 0.85936 0.31668 0.4439 0.0
C1307 C 0.86346 0.3322 0.43696 0.0
C1308 C 0.85148 0.30377 0.43295 0.0
C1309 C 0.86037 0.29699 0.46881 0.0
C1310 C 0.8592 0.29915 0.41798 0.0
C1311 C 0.85191 0.28739 0.40739 0.0
C1312 C 0.83663 0.27987 0.41142 0.0
C1313 C 0.82887 0.28448 0.42643 0.0
C1314 C 0.83617 0.29636 0.43702 0.0
H1315 H 0.8682 0.29517 0.48005 0.0
H1316 H 0.84717 0.2963 0.4727 0.0
H1317 H 0.86283 0.28664 0.45999 0.0
H1318 H 0.87097 0.30464 0.41447 0.0
H1319 H 0.85831 0.28422 0.39597 0.0
H1320 H 0.90725 0.6576 0.75852 0.0
H1321 H 0.92569 0.64318 0.73925 0.0
H1322 H 0.96306 0.68082 0.74681 0.0
H1323 H 0.94477 0.69511 0.76659 0.0
H1324 H 0.93794 0.65203 0.71046 0.0
H1325 H 0.99091 0.63997 0.75269 0.0
H1326 H 0.97111 0.64737 0.76014 0.0
H1327 H 0.98584 0.66164 0.75122 0.0
C1328 C 0.91943 0.66282 0.7562 0.0
C1329 C 0.92449 0.67755 0.76423 0.0
C1330 C 0.93 0.65451 0.74511 0.0
C1331 C 0.94597 0.66066 0.74165 0.0
C1332 C 0.95103 0.67548 0.74952 0.0
H1333 H 1.00199 0.63234 0.653 0.0
H1334 H 0.98506 0.64613 0.67402 0.0
C1335 C 0.94047 0.68375 0.76077 0.0
C1336 C 0.95691 0.65182 0.72935 0.0
H1337 H 0.99547 0.63457 0.72391 0.0
C1338 C 0.9505 0.64819 0.71348 0.0
C1339 C 0.97326 0.64647 0.73322 0.0
C1340 C 0.98065 0.64889 0.75029 0.0
C1341 C 0.95992 0.63967 0.70141 0.0
C1342 C 0.97651 0.63494 0.70502 0.0
C1343 C 0.98286 0.63831 0.72098 0.0
C1344 C 0.98743 0.62661 0.69238 0.0
C1345 C 0.95179 0.63548 0.68501 0.0
C1346 C 0.99509 0.61123 0.69576 0.0
C1347 C 1.00506 0.60333 0.68374 0.0
C1348 C 1.00762 0.61063 0.66803 0.0
C1349 C 1.00018 0.62617 0.66483 0.0
C1350 C 0.99035 0.63409 0.67686 0.0
H1351 H 0.93804 0.63512 0.68613 0.0
H1352 H 0.95496 0.64519 0.67575 0.0
H1353 H 0.95611 0.62327 0.68021 0.0
H1354 H 0.99318 0.6052 0.70765 0.0
H1355 H 1.01062 0.59143 0.6867 0.0
H1356 H 0.58547 0.33321 0.51255 0.0
H1357 H 0.5996 0.31473 0.53239 0.0
H1358 H 0.63459 0.35367 0.54374 0.0
H1359 H 0.62035 0.37221 0.52446 0.0
H1360 H 0.63069 0.30221 0.53504 0.0
H1361 H 0.61902 0.3424 0.58961 0.0
H1362 H 0.60911 0.34593 0.56982 0.0
H1363 H 0.62994 0.35323 0.57351 0.0
C1364 C 0.59616 0.33783 0.51928 0.0
C1365 C 0.60159 0.35432 0.517 0.0
C1366 C 0.60427 0.32723 0.53064 0.0
C1367 C 0.61799 0.33285 0.53997 0.0
C1368 C 0.62376 0.3491 0.53718 0.0
H1369 H 0.6884 0.2698 0.59593 0.0
H1370 H 0.67452 0.28654 0.57451 0.0
C1371 C 0.61561 0.35971 0.52601 0.0
C1372 C 0.62628 0.3219 0.55264 0.0
H1373 H 0.6387 0.32062 0.59335 0.0
C1374 C 0.63236 0.30621 0.54781 0.0
C1375 C 0.62831 0.32688 0.56945 0.0
C1376 C 0.6211 0.34295 0.57596 0.0
C1377 C 0.6406 0.29561 0.55915 0.0
C1378 C 0.64326 0.30093 0.57578 0.0
C1379 C 0.63694 0.31651 0.58063 0.0
C1380 C 0.65192 0.2904 0.5886 0.0
C1381 C 0.64598 0.27863 0.55325 0.0
C1382 C 0.64421 0.28727 0.60397 0.0
C1383 C 0.65225 0.27798 0.61633 0.0
C1384 C 0.66828 0.27143 0.61374 0.0
C1385 C 0.67603 0.27451 0.59835 0.0
C1386 C 0.66801 0.284 0.586 0.0
H1387 H 0.63882 0.2746 0.54214 0.0
H1388 H 0.65929 0.27908 0.54971 0.0
H1389 H 0.64444 0.26916 0.56316 0.0
H1390 H 0.63185 0.29201 0.60643 0.0
H1391 H 0.6458 0.27587 0.62796 0.0
H1392 H 0.93218 0.34022 0.77601 0.0
H1393 H 0.95261 0.35373 0.79419 0.0
H1394 H 0.91621 0.39065 0.80779 0.0
H1395 H 0.89565 0.37693 0.79016 0.0
H1396 H 0.96664 0.38354 0.79462 0.0
H1397 H 0.931 0.37674 0.85297 0.0
H1398 H 0.92499 0.3664 0.834 0.0
H1399 H 0.91949 0.38785 0.83746 0.0
C1400 C 0.92849 0.35117 0.78294 0.0
C1401 C 0.91216 0.35734 0.78171 0.0
C1402 C 0.94022 0.35893 0.79334 0.0
C1403 C 0.93596 0.37307 0.80275 0.0
C1404 C 0.91978 0.37949 0.80115 0.0
H1405 H 1.00868 0.44064 0.84951 0.0
H1406 H 0.98893 0.4273 0.83047 0.0
C1407 C 0.90801 0.37166 0.79093 0.0
C1408 C 0.94841 0.3812 0.81405 0.0
H1409 H 0.9543 0.39492 0.85394 0.0
C1410 C 0.96395 0.38595 0.80762 0.0
C1411 C 0.94514 0.38418 0.83113 0.0
C1412 C 0.92932 0.37837 0.83935 0.0
C1413 C 0.9761 0.39373 0.81762 0.0
C1414 C 0.97254 0.39735 0.83453 0.0
C1415 C 0.95708 0.39241 0.84099 0.0
C1416 C 0.98478 0.40566 0.84595 0.0
C1417 C 0.99279 0.39753 0.81002 0.0
C1418 C 0.98879 0.39835 0.86132 0.0
C1419 C 0.99982 0.40612 0.87236 0.0
C1420 C 1.00728 0.42144 0.86836 0.0
C1421 C 1.00332 0.42879 0.85296 0.0
C1422 C 0.99209 0.42107 0.84198 0.0
H1423 H 0.99527 0.3896 0.79898 0.0
H1424 H 0.99298 0.41069 0.80587 0.0
H1425 H 1.00299 0.39568 0.81914 0.0
H1426 H 0.98339 0.38652 0.86481 0.0
H1427 H 1.00255 0.40004 0.88406 0.0
H1428 H 0.89449 0.74111 0.14265 0.0
H1429 H 0.90863 0.72398 0.12185 0.0
H1430 H 0.86872 0.7329 0.0872 0.0
H1431 H 0.85474 0.75043 0.10779 0.0
H1432 H 0.90026 0.69584 0.10722 0.0
H1433 H 0.90756 0.74326 0.05798 0.0
H1434 H 0.9011 0.74852 0.0788 0.0
H1435 H 0.8863 0.74057 0.064 0.0
C1436 C 0.88874 0.73954 0.13056 0.0
C1437 C 0.87347 0.7473 0.12693 0.0
C1438 C 0.89686 0.72969 0.11864 0.0
C1439 C 0.88998 0.72728 0.10273 0.0
C1440 C 0.87462 0.73485 0.09915 0.0
H1441 H 0.91617 0.64534 0.03625 0.0
H1442 H 0.90337 0.66412 0.05636 0.0
C1443 C 0.86653 0.74481 0.11103 0.0
C1444 C 0.89861 0.71642 0.09019 0.0
H1445 H 0.91301 0.71517 0.05009 0.0
C1446 C 0.9031 0.70014 0.09476 0.0
C1447 C 0.90265 0.72197 0.07393 0.0
C1448 C 0.89932 0.73959 0.06842 0.0
C1449 C 0.91111 0.68926 0.08357 0.0
C1450 C 0.91445 0.69455 0.06708 0.0
C1451 C 0.91031 0.71094 0.0626 0.0
C1452 C 0.92215 0.68325 0.05433 0.0
C1453 C 0.91623 0.67229 0.08973 0.0
C1454 C 0.93672 0.68786 0.04582 0.0
C1455 C 0.94402 0.67715 0.03405 0.0
C1456 C 0.93691 0.66155 0.03045 0.0
C1457 C 0.92216 0.65713 0.03877 0.0
C1458 C 0.91484 0.66786 0.05043 0.0
H1459 H 0.91764 0.67211 0.10348 0.0
H1460 H 0.90648 0.66313 0.08639 0.0
H1461 H 0.92813 0.66825 0.08404 0.0
H1462 H 0.9426 0.69969 0.04845 0.0
H1463 H 0.95532 0.68104 0.02789 0.0
H1464 H 0.51507 0.58087 0.34616 0.0
H1465 H 0.53435 0.59497 0.32714 0.0
H1466 H 0.54204 0.63354 0.3636 0.0
H1467 H 0.52337 0.61934 0.38272 0.0
H1468 H 0.53482 0.62471 0.31233 0.0
H1469 H 0.58916 0.62146 0.35421 0.0
H1470 H 0.57024 0.61021 0.35833 0.0
H1471 H 0.57202 0.63185 0.36392 0.0
C1472 C 0.52091 0.59233 0.35013 0.0
C1473 C 0.51777 0.59881 0.3661 0.0
C1474 C 0.53195 0.60042 0.33923 0.0
C1475 C 0.54008 0.61518 0.34401 0.0
C1476 C 0.53646 0.62192 0.35973 0.0
H1477 H 0.58895 0.68606 0.27673 0.0
H1478 H 0.56927 0.67098 0.29438 0.0
C1479 C 0.52562 0.61379 0.37065 0.0
C1480 C 0.55221 0.62366 0.33265 0.0
H1481 H 0.59145 0.63999 0.33115 0.0
C1482 C 0.54724 0.62794 0.31643 0.0
C1483 C 0.5686 0.6277 0.33775 0.0
C1484 C 0.57539 0.62241 0.35443 0.0
C1485 C 0.55795 0.63642 0.30542 0.0
C1486 C 0.57404 0.64122 0.31085 0.0
C1487 C 0.57911 0.6366 0.32694 0.0
C1488 C 0.58599 0.65064 0.30002 0.0
C1489 C 0.552 0.63975 0.28794 0.0
C1490 C 0.60227 0.64472 0.29768 0.0
C1491 C 0.61367 0.65353 0.28786 0.0
C1492 C 0.60913 0.66851 0.28002 0.0
C1493 C 0.59287 0.67452 0.28244 0.0
C1494 C 0.58151 0.66578 0.29244 0.0
H1495 H 0.54204 0.63095 0.28421 0.0
H1496 H 0.54678 0.65251 0.2873 0.0
H1497 H 0.56232 0.63878 0.27884 0.0
H1498 H 0.60618 0.63316 0.30337 0.0
H1499 H 0.62604 0.64847 0.2863 0.0
H1500 H 0.75125 0.90315 0.64209 0.0
H1501 H 0.73407 0.92469 0.62945 0.0
H1502 H 0.73916 0.95479 0.67356 0.0
H1503 H 0.75684 0.93334 0.68618 0.0
H1504 H 0.70486 0.93632 0.63821 0.0
H1505 H 0.74918 0.98896 0.63858 0.0
H1506 H 0.75552 0.96788 0.64295 0.0
H1507 H 0.74579 0.98028 0.65884 0.0
C1508 C 0.74887 0.91439 0.64912 0.0
C1509 C 0.75554 0.91645 0.6652 0.0
C1510 C 0.73898 0.92675 0.64183 0.0
C1511 C 0.73539 0.94159 0.65037 0.0
C1512 C 0.74201 0.94371 0.66646 0.0
H1513 H 0.65096 1.00486 0.62441 0.0
H1514 H 0.67045 0.98556 0.63732 0.0
C1515 C 0.75205 0.93135 0.67374 0.0
C1516 C 0.72416 0.95433 0.64258 0.0
H1517 H 0.72118 0.99537 0.63146 0.0
C1518 C 0.7085 0.94922 0.63673 0.0
C1519 C 0.72886 0.97118 0.64033 0.0
C1520 C 0.74581 0.9774 0.64534 0.0
C1521 C 0.69745 0.96036 0.62894 0.0
C1522 C 0.70188 0.97734 0.62725 0.0
C1523 C 0.71763 0.98244 0.63287 0.0
C1524 C 0.6903 0.98991 0.61973 0.0
C1525 C 0.68126 0.95367 0.62224 0.0
C1526 C 0.69505 0.99946 0.60586 0.0
C1527 C 0.6839 1.01077 0.59849 0.0
C1528 C 0.66772 1.01281 0.60484 0.0
C1529 C 0.6632 1.00353 0.61899 0.0
C1530 C 0.67435 0.99235 0.62638 0.0
H1531 H 0.68196 0.94006 0.6199 0.0
H1532 H 0.6713 0.95584 0.63151 0.0
H1533 H 0.67771 0.95995 0.61047 0.0
H1534 H 0.70731 0.99794 0.60052 0.0
H1535 H 0.68788 0.01771 0.58767 0.0
H1536 H 0.26934 0.31788 0.21537 0.0
H1537 H 0.26392 0.30751 0.2436 0.0
H1538 H 0.24196 0.35464 0.25667 0.0
H1539 H 0.24744 0.36501 0.22864 0.0
H1540 H 0.2778 0.32272 0.27254 0.0
H1541 H 0.2091 0.32096 0.27635 0.0
H1542 H 0.22008 0.32126 0.25678 0.0
H1543 H 0.21714 0.34017 0.26835 0.0
C1544 C 0.26264 0.32573 0.22404 0.0
C1545 C 0.25846 0.34215 0.21966 0.0
C1546 C 0.2598 0.31989 0.24025 0.0
C1547 C 0.25244 0.33025 0.25228 0.0
C1548 C 0.24739 0.3463 0.2476 0.0
H1549 H 0.2267 0.32674 0.3566 0.0
H1550 H 0.23469 0.33605 0.32873 0.0
C1551 C 0.25043 0.35219 0.23151 0.0
C1552 C 0.25127 0.32501 0.27005 0.0
H1553 H 0.2238 0.31996 0.302 0.0
C1554 C 0.26599 0.32196 0.27897 0.0
C1555 C 0.2359 0.32413 0.27848 0.0
C1556 C 0.21964 0.32665 0.26949 0.0
C1557 C 0.26576 0.31856 0.29618 0.0
C1558 C 0.25036 0.3179 0.30469 0.0
C1559 C 0.23565 0.32067 0.29563 0.0
C1560 C 0.24896 0.314 0.32284 0.0
C1561 C 0.28206 0.31625 0.30515 0.0
C1562 C 0.25503 0.2989 0.32926 0.0
C1563 C 0.25087 0.29384 0.34543 0.0
C1564 C 0.24043 0.30367 0.35544 0.0
C1565 C 0.23529 0.31923 0.34943 0.0
C1566 C 0.2396 0.32439 0.33335 0.0
H1567 H 0.29248 0.32215 0.29829 0.0
H1568 H 0.28158 0.32155 0.3179 0.0
H1569 H 0.2848 0.30276 0.30616 0.0
H1570 H 0.26187 0.29039 0.32138 0.0
H1571 H 0.25437 0.28145 0.34944 0.0
H1572 H 0.88306 0.02963 0.50944 0.0
H1573 H 0.8909 0.01995 0.53715 0.0
H1574 H 0.93345 0.99482 0.51643 0.0
H1575 H 0.9255 1.00422 0.48853 0.0
H1576 H 0.91798 0.97628 0.54071 0.0
H1577 H 0.92883 0.04057 0.56333 0.0
H1578 H 0.90827 0.0371 0.55541 0.0
H1579 H 0.9258 0.03576 0.54162 0.0
C1580 C 0.894 0.02189 0.51072 0.0
C1581 C 0.90372 0.0178 0.49673 0.0
C1582 C 0.89854 0.01647 0.52662 0.0
C1583 C 0.91301 1.00702 0.52897 0.0
C1584 C 0.9223 1.00223 0.51496 0.0
H1585 H 0.97521 0.99123 0.61388 0.0
H1586 H 0.96026 1.00251 0.58991 0.0
C1587 C 0.91771 1.00756 0.49899 0.0
C1588 C 0.91867 1.00248 0.54604 0.0
H1589 H 0.93112 0.01905 0.58324 0.0
C1590 C 0.92078 0.98562 0.55003 0.0
C1591 C 0.92252 0.01469 0.55817 0.0
C1592 C 0.92141 0.03305 0.55442 0.0
C1593 C 0.92669 0.98064 0.56574 0.0
C1594 C 0.93026 0.99284 0.57797 0.0
C1595 C 0.9281 1.00969 0.57399 0.0
C1596 C 0.93782 0.98839 0.59432 0.0
C1597 C 0.92966 0.96236 0.56884 0.0
C1598 C 0.92985 0.97745 0.60539 0.0
C1599 C 0.93838 0.9711 0.61923 0.0
C1600 C 0.95488 0.97584 0.62233 0.0
C1601 C 0.96233 0.98777 0.61202 0.0
C1602 C 0.95385 0.99407 0.59821 0.0
H1603 H 0.92982 0.95508 0.55709 0.0
H1604 H 0.94163 0.96037 0.57542 0.0
H1605 H 0.91954 0.9574 0.57678 0.0
H1606 H 0.91738 0.9731 0.60282 0.0
H1607 H 0.93256 0.96156 0.62673 0.0
H1608 H 0.28484 0.73142 0.85 0.0
H1609 H 0.27506 0.72172 0.82281 0.0
H1610 H 0.30645 0.6785 0.82695 0.0
H1611 H 0.31633 0.6883 0.85408 0.0
H1612 H 0.30009 0.71776 0.79715 0.0
H1613 H 0.26263 0.6604 0.80561 0.0
H1614 H 0.26513 0.67575 0.82186 0.0
H1615 H 0.28164 0.66144 0.81733 0.0
C1616 C 0.28881 0.71932 0.84559 0.0
C1617 C 0.30089 0.7103 0.85443 0.0
C1618 C 0.28345 0.71394 0.8299 0.0
C1619 C 0.28999 0.69937 0.82282 0.0
C1620 C 0.30101 0.68963 0.83224 0.0
H1621 H 0.28542 0.65068 0.72685 0.0
H1622 H 0.29302 0.65983 0.75486 0.0
C1623 C 0.30649 0.6951 0.84788 0.0
C1624 C 0.28721 0.69563 0.80488 0.0
H1625 H 0.27132 0.66667 0.77819 0.0
C1626 C 0.29369 0.70665 0.79297 0.0
C1627 C 0.27905 0.68107 0.79945 0.0
C1628 C 0.27158 0.669 0.81168 0.0
C1629 C 0.29258 0.7033 0.77581 0.0
C1630 C 0.28436 0.68872 0.77032 0.0
C1631 C 0.27772 0.67781 0.78229 0.0
C1632 C 0.28239 0.68443 0.75231 0.0
C1633 C 0.30075 0.71516 0.76381 0.0
C1634 C 0.27456 0.69542 0.74115 0.0
C1635 C 0.2707 0.69034 0.72489 0.0
C1636 C 0.27426 0.67407 0.7196 0.0
C1637 C 0.28285 0.66341 0.73046 0.0
C1638 C 0.28697 0.66856 0.74658 0.0
H1639 H 0.31077 0.72244 0.76993 0.0
H1640 H 0.30614 0.70846 0.753 0.0
H1641 H 0.29134 0.7241 0.75915 0.0
H1642 H 0.27049 0.70756 0.7453 0.0
H1643 H 0.26355 0.69862 0.71702 0.0
H1644 H 0.63884 0.03208 0.98244 0.0
H1645 H 0.62917 0.03947 1.01036 0.0
H1646 H 0.57918 0.02621 0.99654 0.0
H1647 H 0.58876 0.01899 0.96842 0.0
H1648 H 0.59913 0.06159 0.02228 0.0
H1649 H 0.59659 0.99384 0.03645 0.0
H1650 H 0.60933 1.00203 0.01988 0.0
H1651 H 0.58722 1.00115 0.01745 0.0
C1652 C 0.62567 0.03136 0.98515 0.0
C1653 C 0.61453 0.02512 0.97319 0.0
C1654 C 0.6202 0.03545 1.00114 0.0
C1655 C 0.60352 0.03316 1.00556 0.0
C1656 C 0.59213 0.028 0.99336 0.0
H1657 H 0.55085 0.03373 0.09888 0.0
H1658 H 0.56266 0.02611 0.07195 0.0
C1659 C 0.59757 0.0241 0.97724 0.0
C1660 C 0.59846 0.03491 0.02324 0.0
H1661 H 0.58957 1.01229 0.0581 0.0
C1662 C 0.59703 0.05085 0.03015 0.0
C1663 C 0.59574 0.02084 0.03342 0.0
C1664 C 0.59734 1.00344 0.02656 0.0
C1665 C 0.59264 0.05313 0.04693 0.0
C1666 C 0.59022 0.03904 0.05729 0.0
C1667 C 0.59165 0.02308 0.0503 0.0
C1668 C 0.58504 0.0407 0.07505 0.0
C1669 C 0.59005 0.07065 0.05319 0.0
C1670 C 0.5942 0.05043 0.08637 0.0
C1671 C 0.58744 0.05475 0.10187 0.0
C1672 C 0.57162 0.04904 0.10644 0.0
C1673 C 0.5633 0.03788 0.09587 0.0
C1674 C 0.56995 0.03372 0.08034 0.0
H1675 H 0.58801 0.07954 0.04282 0.0
H1676 H 0.57922 0.07135 0.06172 0.0
H1677 H 0.60127 0.07473 0.0601 0.0
H1678 H 0.60609 0.0556 0.08279 0.0
H1679 H 0.59388 0.06373 0.10957 0.0
H1680 H 0.16866 0.74619 0.21801 0.0
H1681 H 0.17955 0.73685 0.24496 0.0
H1682 H 0.22299 0.71714 0.22062 0.0
H1683 H 0.21233 0.72646 0.19377 0.0
H1684 H 0.18849 0.70474 0.25601 0.0
H1685 H 0.24273 0.74706 0.25699 0.0
H1686 H 0.22544 0.74992 0.24296 0.0
H1687 H 0.24137 0.73494 0.23828 0.0
C1688 C 0.18052 0.73984 0.21838 0.0
C1689 C 0.18963 0.73715 0.20367 0.0
C1690 C 0.18673 0.73452 0.23382 0.0
C1691 C 0.20225 0.72656 0.23488 0.0
C1692 C 0.21117 0.72357 0.22019 0.0
H1693 H 0.24845 0.66171 0.3043 0.0
H1694 H 0.23158 0.67519 0.28309 0.0
C1695 C 0.20497 0.72881 0.20479 0.0
C1696 C 0.20909 0.7211 0.25124 0.0
H1697 H 0.24331 0.72438 0.27626 0.0
C1698 C 0.20038 0.70919 0.26054 0.0
C1699 C 0.22447 0.72709 0.25736 0.0
C1700 C 0.23399 0.74058 0.24848 0.0
C1701 C 0.20702 0.7025 0.2753 0.0
C1702 C 0.22289 0.70772 0.28085 0.0
C1703 C 0.23121 0.72026 0.272 0.0
C1704 C 0.23172 0.69938 0.29488 0.0
C1705 C 0.19705 0.68975 0.28473 0.0
C1706 C 0.23752 0.70844 0.30869 0.0
C1707 C 0.24725 0.7007 0.32099 0.0
C1708 C 0.25158 0.6838 0.31952 0.0
C1709 C 0.24535 0.67472 0.30589 0.0
C1710 C 0.23558 0.68241 0.29375 0.0
H1711 H 0.18354 0.69108 0.28219 0.0
H1712 H 0.20087 0.67712 0.2807 0.0
H1713 H 0.19915 0.6908 0.29834 0.0
H1714 H 0.23481 0.7216 0.30978 0.0
H1715 H 0.25197 0.70808 0.33122 0.0
H1716 H 0.62717 0.99636 0.55133 0.0
H1717 H 0.61804 0.98948 0.52311 0.0
H1718 H 0.5696 1.00963 0.53383 0.0
H1719 H 0.57867 0.01642 0.56224 0.0
H1720 H 0.58925 0.97101 0.5093 0.0
H1721 H 0.58924 0.0387 0.49477 0.0
H1722 H 0.5998 0.0303 0.51272 0.0
H1723 H 0.57759 0.03204 0.51265 0.0
C1724 C 0.61436 0.99868 0.5479 0.0
C1725 C 0.60357 1.00671 0.55907 0.0
C1726 C 0.60921 0.99491 0.53171 0.0
C1727 C 0.59326 0.99933 0.52626 0.0
C1728 C 0.58203 1.00627 0.53773 0.0
H1729 H 0.54746 0.99812 0.42855 0.0
H1730 H 0.55658 1.00614 0.45645 0.0
C1731 C 0.58713 1.00986 0.55406 0.0
C1732 C 0.58895 0.99771 0.50832 0.0
H1733 H 0.58254 0.02037 0.47288 0.0
C1734 C 0.58775 0.98179 0.50132 0.0
C1735 C 0.587 1.0118 0.49795 0.0
C1736 C 0.58855 0.02922 0.50478 0.0
C1737 C 0.58445 0.97954 0.48428 0.0
C1738 C 0.5829 0.99363 0.47376 0.0
C1739 C 0.58394 1.00958 0.48083 0.0
C1740 C 0.5794 0.99193 0.45559 0.0
C1741 C 0.58219 0.96204 0.47784 0.0
C1742 C 0.58977 0.98234 0.44527 0.0
C1743 C 0.58457 0.97781 0.42924 0.0
C1744 C 0.56915 0.98317 0.4231 0.0
C1745 C 0.55968 0.99427 0.43274 0.0
C1746 C 0.56476 0.99864 0.44883 0.0
H1747 H 0.57922 0.9532 0.48802 0.0
H1748 H 0.5721 0.96146 0.46843 0.0
H1749 H 0.5939 0.95782 0.4719 0.0
H1750 H 0.60133 0.97736 0.45002 0.0
H1751 H 0.59187 0.96886 0.42229 0.0
H1752 H 0.28098 0.31689 0.6627 0.0
H1753 H 0.26926 0.32954 0.68802 0.0
H1754 H 0.31804 0.34704 0.70174 0.0
H1755 H 0.32944 0.33511 0.67643 0.0
H1756 H 0.27626 0.32016 0.71849 0.0
H1757 H 0.29219 0.38665 0.71466 0.0
H1758 H 0.29355 0.37309 0.69684 0.0
H1759 H 0.31044 0.3743 0.71156 0.0
C1760 C 0.28894 0.32427 0.67068 0.0
C1761 C 0.30603 0.32538 0.66742 0.0
C1762 C 0.28232 0.33124 0.68531 0.0
C1763 C 0.2927 0.33943 0.69684 0.0
C1764 C 0.3096 0.34128 0.69298 0.0
H1765 H 0.2738 0.34324 0.80488 0.0
H1766 H 0.28434 0.33577 0.77714 0.0
C1767 C 0.31613 0.33445 0.67843 0.0
C1768 C 0.28653 0.34441 0.71366 0.0
H1769 H 0.28791 0.37582 0.74229 0.0
C1770 C 0.2786 0.33242 0.7236 0.0
C1771 C 0.28947 0.36041 0.72044 0.0
C1772 C 0.29672 0.37437 0.71022 0.0
C1773 C 0.27381 0.33587 0.7401 0.0
C1774 C 0.27758 0.35159 0.74716 0.0
C1775 C 0.28527 0.36364 0.73711 0.0
C1776 C 0.27247 0.35637 0.76442 0.0
C1777 C 0.2644 0.32274 0.74961 0.0
C1778 C 0.26313 0.37089 0.76678 0.0
C1779 C 0.25756 0.37539 0.78257 0.0
C1780 C 0.26098 0.36543 0.79658 0.0
C1781 C 0.27089 0.35118 0.79441 0.0
C1782 C 0.2767 0.34677 0.77848 0.0
H1783 H 0.25852 0.31354 0.74113 0.0
H1784 H 0.27314 0.31591 0.7578 0.0
H1785 H 0.25455 0.32838 0.75747 0.0
H1786 H 0.25972 0.37861 0.75628 0.0
H1787 H 0.25003 0.38651 0.78363 0.0
H1788 H 0.94329 0.0177 0.05724 0.0
H1789 H 0.95464 0.02479 0.0298 0.0
H1790 H 0.91127 0.05456 0.01956 0.0
H1791 H 0.89997 0.0475 0.04684 0.0
H1792 H 0.93803 0.0158 1.00037 0.0
H1793 H 0.94862 0.08383 1.00179 0.0
H1794 H 0.94661 0.07156 0.02048 0.0
H1795 H 0.92842 0.07793 1.00914 0.0
C1796 C 0.93663 0.02648 0.0495 0.0
C1797 C 0.92091 0.03238 0.05437 0.0
C1798 C 0.94298 0.03029 0.03368 0.0
C1799 C 0.93385 0.04027 0.02259 0.0
C1800 C 0.91871 0.04709 0.02794 0.0
H1801 H 0.94011 0.0728 0.92013 0.0
H1802 H 0.92991 0.06414 0.94751 0.0
C1803 C 0.9123 0.04315 0.04362 0.0
C1804 C 0.93911 0.04218 1.00489 0.0
H1805 H 0.94732 0.07119 0.975 0.0
C1806 C 0.94023 0.0279 0.99484 0.0
C1807 C 0.94185 0.05794 0.99762 0.0
C1808 C 0.94148 0.07368 1.00784 0.0
C1809 C 0.94353 0.02901 0.97765 0.0
C1810 C 0.94606 0.04482 0.97032 0.0
C1811 C 0.94518 0.05906 0.98048 0.0
C1812 C 0.95014 0.04706 0.95232 0.0
C1813 C 0.94376 1.01326 0.96746 0.0
C1814 C 0.96447 0.03977 0.94545 0.0
C1815 C 0.97004 0.04441 0.9296 0.0
C1816 C 0.96146 0.05649 0.92032 0.0
C1817 C 0.94658 0.06297 0.92671 0.0
C1818 C 0.94093 0.05824 0.94251 0.0
H1819 H 0.93666 1.00314 0.9736 0.0
H1820 H 0.9385 0.01536 0.95486 0.0
H1821 H 0.95679 1.00897 0.96606 0.0
H1822 H 0.97209 0.03147 0.95282 0.0
H1823 H 0.98195 0.0398 0.92532 0.0
H1824 H 0.36122 0.23793 0.2931 0.0
H1825 H 0.33369 0.24772 0.30167 0.0
H1826 H 0.33567 0.21538 0.34439 0.0
H1827 H 0.36311 0.20564 0.33578 0.0
H1828 H 0.30782 0.22516 0.30272 0.0
H1829 H 0.31345 0.25657 0.36372 0.0
H1830 H 0.33095 0.25373 0.34996 0.0
H1831 H 0.3241 0.23697 0.36309 0.0
C1832 C 0.35624 0.23378 0.30491 0.0
C1833 C 0.36455 0.22145 0.3141 0.0
C1834 C 0.34035 0.23913 0.30963 0.0
C1835 C 0.33257 0.23235 0.32372 0.0
C1836 C 0.34149 0.22108 0.33368 0.0
H1837 H 0.23638 0.22639 0.3691 0.0
H1838 H 0.26426 0.22079 0.35845 0.0
C1839 C 0.3573 0.21565 0.32888 0.0
C1840 C 0.31449 0.23505 0.32672 0.0
H1841 H 0.28648 0.24628 0.35655 0.0
C1842 C 0.30313 0.22998 0.31441 0.0
C1843 C 0.30836 0.24126 0.34198 0.0
C1844 C 0.31985 0.2476 0.35539 0.0
C1845 C 0.28587 0.23032 0.31722 0.0
C1846 C 0.27975 0.2361 0.33267 0.0
C1847 C 0.29112 0.24162 0.34478 0.0
C1848 C 0.26169 0.23651 0.33678 0.0
C1849 C 0.27437 0.22392 0.30385 0.0
C1850 C 0.25055 0.24642 0.32764 0.0
C1851 C 0.23437 0.24923 0.3335 0.0
C1852 C 0.22918 0.24243 0.34874 0.0
C1853 C 0.23989 0.23147 0.35713 0.0
C1854 C 0.25594 0.2285 0.35119 0.0
H1855 H 0.28104 0.21599 0.2947 0.0
H1856 H 0.26403 0.21661 0.30931 0.0
H1857 H 0.26894 0.23462 0.29704 0.0
H1858 H 0.25472 0.25302 0.31668 0.0
H1859 H 0.22663 0.25821 0.32709 0.0
H1860 H 0.022 0.98743 0.64053 0.0
H1861 H 0.03229 1.01376 0.62958 0.0
H1862 H 0.0333 0.99296 0.58016 0.0
H1863 H 0.02316 0.96633 0.59111 0.0
H1864 H 0.06049 1.0126 0.58651 0.0
H1865 H 1.00317 0.0463 0.60413 0.0
H1866 H 1.01274 0.03598 0.62143 0.0
H1867 H 1.00461 0.02391 0.60442 0.0
C1868 C 0.02463 0.98833 0.62735 0.0
C1869 C 0.02167 0.97474 0.61669 0.0
C1870 C 0.03034 1.0035 0.62108 0.0
C1871 C 0.03308 1.00555 0.60397 0.0
C1872 C 0.03107 0.99175 0.59339 0.0
H1873 H 0.0471 0.10098 0.55244 0.0
H1874 H 0.03453 0.07569 0.56422 0.0
C1875 C 0.0254 0.97648 0.59968 0.0
C1876 C 0.03794 0.02214 0.59723 0.0
H1877 H 0.02632 0.0631 0.59608 0.0
C1878 C 0.05297 0.0236 0.58853 0.0
C1879 C 0.02797 0.03651 0.59954 0.0
C1880 C 1.01114 0.03561 0.60773 0.0
C1881 C 0.05857 0.03907 0.58262 0.0
C1882 C 0.04908 0.0536 0.58579 0.0
C1883 C 0.03375 0.05206 0.59393 0.0
C1884 C 0.05507 0.07042 0.58079 0.0
C1885 C 0.07458 0.03968 0.57289 0.0
C1886 C 0.07026 0.07641 0.58691 0.0
C1887 C 0.07736 0.0908 0.58026 0.0
C1888 C 0.06926 0.09972 0.56761 0.0
C1889 C 0.05339 0.09458 0.56248 0.0
C1890 C 0.04632 0.08001 0.56906 0.0
H1891 H 0.07777 0.02734 0.56754 0.0
H1892 H 0.07382 0.04887 0.56261 0.0
H1893 H 0.08485 0.04343 0.5813 0.0
H1894 H 0.07709 0.06945 0.5962 0.0
H1895 H 0.08973 0.09435 0.58422 0.0
H1896 H 0.16962 0.81373 0.84195 0.0
H1897 H 0.19763 0.80506 0.85026 0.0
H1898 H 0.2019 0.77605 0.80533 0.0
H1899 H 0.17371 0.78426 0.79737 0.0
H1900 H 0.21913 0.76168 0.83079 0.0
H1901 H 0.23508 0.82859 0.82662 0.0
H1902 H 0.21944 0.82432 0.84191 0.0
H1903 H 0.21515 0.82058 0.82024 0.0
C1904 C 0.17617 0.80471 0.83438 0.0
C1905 C 0.16931 0.79931 0.81925 0.0
C1906 C 0.19235 0.80008 0.8389 0.0
C1907 C 0.20213 0.79034 0.82815 0.0
C1908 C 0.1947 0.78366 0.8138 0.0
H1909 H 0.3084 0.76427 0.82494 0.0
H1910 H 0.27989 0.77124 0.81642 0.0
C1911 C 0.17845 0.78813 0.80939 0.0
C1912 C 0.22039 0.78841 0.83099 0.0
H1913 H 0.25635 0.81056 0.83629 0.0
C1914 C 0.22726 0.77237 0.83191 0.0
C1915 C 0.23113 0.80235 0.83218 0.0
C1916 C 0.22488 0.81992 0.83002 0.0
C1917 C 0.2444 0.76992 0.83455 0.0
C1918 C 0.25501 0.78387 0.83617 0.0
C1919 C 0.24821 0.79988 0.83505 0.0
C1920 C 0.27302 0.78203 0.84011 0.0
C1921 C 0.251 0.75243 0.83604 0.0
C1922 C 0.2789 0.78665 0.85587 0.0
C1923 C 0.29515 0.78277 0.86069 0.0
C1924 C 0.30597 0.77444 0.84976 0.0
C1925 C 0.30051 0.77105 0.83349 0.0
C1926 C 0.28412 0.77475 0.82873 0.0
H1927 H 0.24089 0.74309 0.83704 0.0
H1928 H 0.25853 0.74943 0.82488 0.0
H1929 H 0.2592 0.7513 0.8471 0.0
H1930 H 0.27061 0.79235 0.86482 0.0
H1931 H 0.29893 0.7853 0.87339 0.0
H1932 H 0.51216 0.054 0.07729 0.0
H1933 H 0.50559 0.02601 0.06687 0.0
H1934 H 0.49349 1.01035 0.11666 0.0
H1935 H 0.50015 0.03813 0.1271 0.0
H1936 H 0.52324 0.9964 0.07945 0.0
H1937 H 0.45488 0.99174 0.08748 0.0
H1938 H 0.46552 1.01145 0.08597 0.0
H1939 H 0.46614 0.99983 0.10502 0.0
C1940 C 0.50747 0.04478 0.08589 0.0
C1941 C 0.50646 0.04835 0.10299 0.0
C1942 C 0.50393 0.02871 0.07997 0.0
C1943 C 0.49902 0.01606 0.09098 0.0
C1944 C 0.49708 0.01991 0.10789 0.0
H1945 H 0.47196 0.91168 0.0792 0.0
H1946 H 0.4808 0.93816 0.09159 0.0
C1947 C 0.50082 0.03584 0.11383 0.0
C1948 C 0.49722 0.99853 0.08519 0.0
H1949 H 0.46923 0.96686 0.08125 0.0
C1950 C 0.51142 0.98994 0.07974 0.0
C1951 C 0.48187 0.99004 0.08582 0.0
C1952 C 0.46617 0.99872 0.09127 0.0
C1953 C 0.51072 0.97305 0.07512 0.0
C1954 C 0.4953 0.96455 0.07555 0.0
C1955 C 0.48111 0.97321 0.08103 0.0
C1956 C 0.49325 0.94707 0.06945 0.0
C1957 C 0.52663 0.96442 0.07022 0.0
C1958 C 0.49792 0.94281 0.05315 0.0
C1959 C 0.49328 0.9275 0.04629 0.0
C1960 C 0.48373 0.91613 0.05547 0.0
C1961 C 0.4799 0.91989 0.07208 0.0
C1962 C 0.48468 0.93519 0.07904 0.0
H1963 H 0.53758 0.97041 0.07614 0.0
H1964 H 0.52647 0.95108 0.07374 0.0
H1965 H 0.52826 0.96533 0.05655 0.0
H1966 H 0.50402 0.95181 0.04524 0.0
H1967 H 0.49573 0.92525 0.03322 0.0
H1968 H 0.33241 0.85808 0.21864 0.0
H1969 H 0.30698 0.84875 0.2047 0.0
H1970 H 0.32193 0.79766 0.21184 0.0
H1971 H 0.34789 0.80708 0.22447 0.0
H1972 H 0.31009 0.79955 0.18342 0.0
H1973 H 0.26524 0.83287 0.22341 0.0
H1974 H 0.27893 0.84711 0.2132 0.0
H1975 H 0.28712 0.8324 0.22804 0.0
C1976 C 0.33017 0.84488 0.21724 0.0
C1977 C 0.34204 0.83329 0.22265 0.0
C1978 C 0.31554 0.83951 0.20942 0.0
C1979 C 0.31217 0.82243 0.20751 0.0
C1980 C 0.32409 0.8109 0.21309 0.0
H1981 H 0.21519 0.77993 0.18835 0.0
H1982 H 0.24 0.79308 0.19979 0.0
C1983 C 0.33894 0.81627 0.22036 0.0
C1984 C 0.2966 0.81643 0.19926 0.0
H1985 H 0.25432 0.82056 0.19883 0.0
C1986 C 0.2979 0.80408 0.18693 0.0
C1987 C 0.28056 0.82213 0.20385 0.0
C1988 C 0.27785 0.83421 0.21797 0.0
C1989 C 0.2838 0.7971 0.17933 0.0
C1990 C 0.2678 0.80334 0.18335 0.0
C1991 C 0.26651 0.81586 0.19551 0.0
C1992 C 0.25222 0.79633 0.17599 0.0
C1993 C 0.2863 0.78258 0.16768 0.0
C1994 C 0.2504 0.7941 0.15871 0.0
C1995 C 0.23638 0.78605 0.15219 0.0
C1996 C 0.22354 0.78078 0.16275 0.0
C1997 C 0.22483 0.784 0.17988 0.0
C1998 C 0.23907 0.79151 0.18644 0.0
H1999 H 0.29825 0.7761 0.17014 0.0
H2000 H 0.27611 0.77336 0.16882 0.0
H2001 H 0.28669 0.78717 0.15467 0.0
H2002 H 0.25995 0.7983 0.15024 0.0
H2003 H 0.23563 0.78383 0.13892 0.0
H2004 H 0.51459 0.97466 0.45101 0.0
H2005 H 0.50668 1.00263 0.46053 0.0
H2006 H 0.48678 1.0135 0.41195 0.0
H2007 H 0.49473 0.98575 0.40242 0.0
H2008 H 0.51992 0.03201 0.44482 0.0
H2009 H 0.45103 0.03194 0.44376 0.0
H2010 H 0.46312 1.01304 0.44472 0.0
H2011 H 0.46054 0.02375 0.42528 0.0
C2012 C 0.50782 0.98275 0.44262 0.0
C2013 C 0.50498 0.9779 0.42606 0.0
C2014 C 0.50354 0.99883 0.44799 0.0
C2015 C 0.49608 1.01018 0.43698 0.0
C2016 C 0.49229 1.00493 0.42076 0.0
H2017 H 0.46361 0.11308 0.44045 0.0
H2018 H 0.47338 0.08593 0.43056 0.0
C2019 C 0.49675 0.98901 0.41535 0.0
C2020 C 0.49367 0.02794 0.44174 0.0
H2021 H 0.46419 0.05827 0.44547 0.0
C2022 C 0.50773 0.03775 0.44511 0.0
C2023 C 0.4778 0.03548 0.44191 0.0
C2024 C 0.46223 0.02551 0.43887 0.0
C2025 C 0.50637 0.05494 0.44827 0.0
C2026 C 0.49047 0.06252 0.44841 0.0
C2027 C 0.47642 0.05262 0.44518 0.0
C2028 C 0.48787 0.08047 0.4526 0.0
C2029 C 0.52206 0.06485 0.45094 0.0
C2030 C 0.49341 0.08691 0.46788 0.0
C2031 C 0.48822 0.10265 0.47327 0.0
C2032 C 0.47726 0.11222 0.46359 0.0
C2033 C 0.47259 0.10629 0.44785 0.0
C2034 C 0.47792 0.0906 0.44236 0.0
H2035 H 0.53292 0.05876 0.44496 0.0
H2036 H 0.52085 0.07765 0.44593 0.0
H2037 H 0.52465 0.06568 0.46447 0.0
H2038 H 0.50064 0.07928 0.47628 0.0
H2039 H 0.49137 0.10657 0.48579 0.0
H2040 H 0.17573 0.19833 0.69092 0.0
H2041 H 0.20255 0.20867 0.68099 0.0
H2042 H 0.19673 0.25269 0.71106 0.0
H2043 H 0.16975 0.24231 0.72097 0.0
H2044 H 0.21287 0.2575 0.67801 0.0
H2045 H 0.24119 0.20745 0.7162 0.0
H2046 H 0.22547 0.20061 0.70184 0.0
H2047 H 0.21991 0.2141 0.71876 0.0
C2048 C 0.17978 0.21061 0.69472 0.0
C2049 C 0.17044 0.21973 0.70634 0.0
C2050 C 0.19525 0.21638 0.68929 0.0
C2051 C 0.20181 0.23131 0.69552 0.0
C2052 C 0.19193 0.24112 0.70609 0.0
H2053 H 0.30771 0.2593 0.69487 0.0
H2054 H 0.27976 0.25068 0.7038 0.0
C2055 C 0.17638 0.23533 0.71155 0.0
C2056 C 0.21946 0.23579 0.69213 0.0
H2057 H 0.25937 0.22243 0.69845 0.0
C2058 C 0.22303 0.24988 0.68252 0.0
C2059 C 0.23278 0.22604 0.69832 0.0
C2060 C 0.22974 0.21128 0.70949 0.0
C2061 C 0.23951 0.25413 0.67843 0.0
C2062 C 0.25279 0.24388 0.68391 0.0
C2063 C 0.24924 0.23015 0.69406 0.0
C2064 C 0.27034 0.24707 0.67883 0.0
C2065 C 0.24255 0.26963 0.66833 0.0
C2066 C 0.27464 0.247 0.66192 0.0
C2067 C 0.29053 0.2518 0.65685 0.0
C2068 C 0.30263 0.25663 0.66854 0.0
C2069 C 0.29876 0.25547 0.68556 0.0
C2070 C 0.28273 0.25071 0.69066 0.0
H2071 H 0.23194 0.27843 0.66916 0.0
H2072 H 0.25399 0.27612 0.67252 0.0
H2073 H 0.24415 0.26616 0.65507 0.0
H2074 H 0.2655 0.24379 0.65257 0.0
H2075 H 0.29312 0.2525 0.64364 0.0
H2076 H 0.06123 0.92288 0.9392 0.0
H2077 H 0.05248 0.95035 0.92935 0.0
H2078 H 0.01729 0.95359 0.96958 0.0
H2079 H 0.02588 0.926 0.97929 0.0
H2080 H 0.01829 0.96792 0.92314 0.0
H2081 H 0.05562 0.99015 0.97714 0.0
H2082 H 0.05806 0.96947 0.96871 0.0
H2083 H 0.04003 0.97452 0.98077 0.0
C2084 C 0.05086 0.92897 0.94526 0.0
C2085 C 0.04388 0.92208 0.9597 0.0
C2086 C 0.04606 0.9448 0.9398 0.0
C2087 C 0.0344 0.9541 0.94886 0.0
C2088 C 0.02631 0.94663 0.96241 0.0
H2089 H 0.01493 0.06138 0.94666 0.0
H2090 H 0.01933 0.0326 0.95578 0.0
C2091 C 0.03099 0.93071 0.96776 0.0
C2092 C 0.0324 0.97217 0.94543 0.0
H2093 H 0.0444 1.01053 0.95942 0.0
C2094 C 0.02392 0.97725 0.93109 0.0
C2095 C 0.03966 0.98433 0.95591 0.0
C2096 C 0.04895 0.97946 0.97148 0.0
C2097 C 0.02252 0.99419 0.9269 0.0
C2098 C 0.03039 1.00637 0.93699 0.0
C2099 C 0.03856 1.00125 0.95156 0.0
C2100 C 0.03022 0.02441 0.93256 0.0
C2101 C 1.01227 0.99886 0.91188 0.0
C2102 C 0.03588 0.02972 0.91691 0.0
C2103 C 0.03334 0.04612 0.9117 0.0
C2104 C 0.02551 0.05771 0.92219 0.0
C2105 C 0.02135 0.05285 0.93845 0.0
C2106 C 0.02365 0.03631 0.94358 0.0
H2107 H 1.00308 0.98904 0.90877 0.0
H2108 H 1.00551 1.01073 0.91393 0.0
H2109 H 0.02059 1.00039 0.90099 0.0
H2110 H 0.04151 0.02096 0.90837 0.0
H2111 H 0.0365 0.04948 0.89904 0.0
H2112 H 0.34171 0.34569 0.20639 0.0
H2113 H 0.35059 0.3186 0.21716 0.0
H2114 H 0.31009 0.31926 0.25219 0.0
H2115 H 0.30131 0.34645 0.2415 0.0
H2116 H 0.35723 0.30401 0.25113 0.0
H2117 H 0.30097 0.27937 0.21917 0.0
H2118 H 0.30919 0.29978 0.21477 0.0
H2119 H 0.29812 0.29611 0.23376 0.0
C2120 C 0.33533 0.34051 0.21706 0.0
C2121 C 0.32115 0.34842 0.22346 0.0
C2122 C 0.34025 0.3249 0.22304 0.0
C2123 C 0.33086 0.31678 0.2353 0.0
C2124 C 0.31748 0.32525 0.24267 0.0
H2125 H 0.334 0.21154 0.26473 0.0
H2126 H 0.3245 0.2399 0.25864 0.0
C2127 C 0.31267 0.34095 0.23679 0.0
C2128 C 0.33403 0.2989 0.23893 0.0
H2129 H 0.31886 0.25981 0.23155 0.0
C2130 C 0.34882 0.29435 0.24693 0.0
C2131 C 0.32296 0.2863 0.23355 0.0
C2132 C 0.30694 0.29051 0.22474 0.0
C2133 C 0.35289 0.27754 0.24965 0.0
C2134 C 0.34219 0.26487 0.24361 0.0
C2135 C 0.32717 0.26946 0.23599 0.0
C2136 C 0.34658 0.24686 0.24497 0.0
C2137 C 0.36852 0.27356 0.25923 0.0
C2138 C 0.36164 0.24093 0.23841 0.0
C2139 C 0.36706 0.22477 0.24189 0.0
C2140 C 0.35736 0.214 0.25163 0.0
C2141 C 0.34156 0.21938 0.25683 0.0
C2142 C 0.33623 0.2357 0.25356 0.0
H2143 H 0.37238 0.28413 0.26725 0.0
H2144 H 0.36684 0.2624 0.26718 0.0
H2145 H 0.37877 0.27106 0.25034 0.0
H2146 H 0.36963 0.2491 0.23132 0.0
H2147 H 0.37937 0.22104 0.2379 0.0
H2148 H 0.84559 0.16444 0.83442 0.0
H2149 H 0.86003 0.18868 0.82339 0.0
H2150 H 0.8444 0.17542 0.77378 0.0
H2151 H 0.82951 0.15118 0.785 0.0
H2152 H 0.88346 0.19699 0.80088 0.0
H2153 H 0.82143 0.2198 0.78081 0.0
H2154 H 0.824 0.20137 0.79328 0.0
H2155 H 0.82783 0.20066 0.77126 0.0
C2156 C 0.84583 0.16632 0.82107 0.0
C2157 C 0.83657 0.15592 0.81052 0.0
C2158 C 0.85399 0.18025 0.81478 0.0
C2159 C 0.85293 0.18416 0.79782 0.0
C2160 C 0.84507 0.17285 0.78698 0.0
H2161 H 0.90125 0.27055 0.75431 0.0
H2162 H 0.89408 0.24276 0.76374 0.0
C2163 C 0.83684 0.15883 0.79332 0.0
C2164 C 0.85849 0.20086 0.79211 0.0
H2165 H 0.84418 0.23751 0.77601 0.0
C2166 C 0.87491 0.20582 0.79532 0.0
C2167 C 0.84719 0.21255 0.78531 0.0
C2168 C 0.82909 0.20845 0.78259 0.0
C2169 C 0.88035 0.22207 0.79191 0.0
C2170 C 0.86917 0.23363 0.78471 0.0
C2171 C 0.85275 0.22867 0.7815 0.0
C2172 C 0.87426 0.25079 0.78003 0.0
C2173 C 0.89788 0.22683 0.79653 0.0
C2174 C 0.86541 0.26471 0.78588 0.0
C2175 C 0.86937 0.28077 0.78033 0.0
C2176 C 0.88223 0.28318 0.76876 0.0
C2177 C 0.89133 0.26923 0.7633 0.0
C2178 C 0.88732 0.25326 0.76877 0.0
H2179 H 0.90289 0.21867 0.80649 0.0
H2180 H 0.906 0.22542 0.78548 0.0
H2181 H 0.89857 0.23994 0.80082 0.0
H2182 H 0.85522 0.26312 0.79453 0.0
H2183 H 0.86204 0.29119 0.78469 0.0
H2184 H 0.97467 0.57059 0.0162 0.0
H2185 H 1.00243 0.55901 0.02149 0.0
H2186 H 0.01539 0.60306 0.04922 0.0
H2187 H 0.98782 0.61455 0.04397 0.0
H2188 H 0.03154 0.57388 1.01028 0.0
H2189 H 0.03427 0.56674 0.07863 0.0
H2190 H 0.0149 0.56898 0.06752 0.0
H2191 H 0.02718 0.58699 0.07255 0.0
C2192 C 0.98316 0.57739 0.02416 0.0
C2193 C 0.97891 0.59332 0.03004 0.0
C2194 C 0.99914 0.57089 0.02693 0.0
C2195 C 1.01104 0.58009 0.03586 0.0
C2196 C 1.00641 0.59554 0.04258 0.0
H2197 H 0.11452 0.57803 0.06205 0.0
H2198 H 0.08657 0.58652 0.0536 0.0
C2199 C 0.99056 0.60207 0.03968 0.0
C2200 C 0.02871 0.5745 0.03691 0.0
H2201 H 0.06037 0.56794 0.06446 0.0
C2202 C 0.03781 0.57237 0.02213 0.0
C2203 C 0.03695 0.57255 0.05234 0.0
C2204 C 0.02778 0.57377 0.06865 0.0
C2205 C 0.05502 0.56903 0.02238 0.0
C2206 C 0.06335 0.56762 0.03783 0.0
C2207 C 0.05411 0.56929 0.05258 0.0
C2208 C 0.08157 0.5643 0.03926 0.0
C2209 C 0.06423 0.5676 1.00612 0.0
C2210 C 0.08852 0.54942 0.03323 0.0
C2211 C 0.10474 0.54479 0.03771 0.0
C2212 C 0.11424 0.55487 0.04839 0.0
C2213 C 0.10775 0.57032 0.05332 0.0
C2214 C 0.09162 0.57502 0.04874 0.0
H2215 H 0.05712 0.57322 0.99568 0.0
H2216 H 0.07657 0.57372 1.00689 0.0
H2217 H 0.06623 0.55426 1.00319 0.0
H2218 H 0.08099 0.54072 0.02624 0.0
H2219 H 0.10911 0.53248 0.03436 0.0
H2220 H 0.62519 0.75861 0.25685 0.0
H2221 H 0.63749 0.78494 0.26568 0.0
H2222 H 0.67693 0.75834 0.29036 0.0
H2223 H 0.66488 0.73189 0.2813 0.0
H2224 H 0.64458 0.79858 0.2957 0.0
H2225 H 0.70275 0.78944 0.26015 0.0
H2226 H 0.68473 0.77641 0.25726 0.0
H2227 H 0.69867 0.77275 0.27438 0.0
C2228 C 0.6364 0.7583 0.2643 0.0
C2229 C 0.64409 0.74306 0.26827 0.0
C2230 C 0.64345 0.77342 0.2693 0.0
C2231 C 0.65838 0.77369 0.27832 0.0
C2232 C 0.66565 0.75849 0.28301 0.0
H2233 H 0.70318 0.84672 0.33928 0.0
H2234 H 0.68583 0.82576 0.32616 0.0
C2235 C 0.65863 0.74335 0.27798 0.0
C2236 C 0.66633 0.78984 0.28278 0.0
H2237 H 0.70276 0.81152 0.28011 0.0
C2238 C 0.65725 0.80146 0.29215 0.0
C2239 C 0.68272 0.79388 0.27779 0.0
C2240 C 0.69273 0.78255 0.26669 0.0
C2241 C 0.66439 0.81655 0.29738 0.0
C2242 C 0.68115 0.82005 0.29337 0.0
C2243 C 0.68995 0.80884 0.28329 0.0
C2244 C 0.6903 0.83423 0.30103 0.0
C2245 C 0.65392 0.82854 0.3073 0.0
C2246 C 0.69871 0.84612 0.2913 0.0
C2247 C 0.70875 0.85831 0.29887 0.0
C2248 C 0.71076 0.8585 0.31624 0.0
C2249 C 0.7019 0.84691 0.32586 0.0
C2250 C 0.69185 0.83494 0.31838 0.0
H2251 H 0.64051 0.82707 0.30435 0.0
H2252 H 0.65557 0.82594 0.32076 0.0
H2253 H 0.65757 0.84163 0.30491 0.0
H2254 H 0.6978 0.84572 0.27787 0.0
H2255 H 0.71557 0.86696 0.29115 0.0
H2256 H 0.0375 0.91106 0.03488 0.0
H2257 H 1.00945 0.92204 0.03889 0.0
H2258 H 0.02285 0.96647 1.01211 0.0
H2259 H 0.05117 0.95564 1.00843 0.0
H2260 H 1.00096 0.97264 0.03879 0.0
H2261 H 0.9776 0.92127 0.99936 0.0
H2262 H 0.98934 0.914 0.01688 0.0
H2263 H 0.9994 0.92621 1.00107 0.0
C2264 C 0.03466 0.92346 0.03043 0.0
C2265 C 0.04661 0.93257 0.02154 0.0
C2266 C 0.01853 0.92961 0.03247 0.0
C2267 C 0.01385 0.94486 0.02537 0.0
C2268 C 0.0261 0.9546 0.0176 0.0
H2269 H 0.9156 0.99361 0.02622 0.0
H2270 H 0.94319 0.98518 0.01634 0.0
C2271 C 0.04237 0.94851 0.01571 0.0
C2272 C 0.99603 0.95004 0.02536 0.0
H2273 H 0.95713 0.93665 0.01448 0.0
C2274 C 0.9914 0.96489 0.03329 0.0
C2275 C 0.98351 0.94004 0.01799 0.0
C2276 C 0.9877 0.92459 1.00819 0.0
C2277 C 0.97458 0.96955 0.03482 0.0
C2278 C 0.96203 0.95915 0.02807 0.0
C2279 C 0.9667 0.94459 0.01968 0.0
C2280 C 0.94403 0.96256 0.03088 0.0
C2281 C 0.9703 0.98522 0.04423 0.0
C2282 C 0.93483 0.95208 0.04137 0.0
C2283 C 0.91898 0.95678 0.04682 0.0
C2284 C 0.9119 0.97188 0.04164 0.0
C2285 C 0.92047 0.9816 0.02992 0.0
C2286 C 0.93641 0.97697 0.02456 0.0
H2287 H 0.98115 0.9903 0.0511 0.0
H2288 H 0.96596 0.99482 0.03533 0.0
H2289 H 0.96011 0.98287 0.05322 0.0
H2290 H 0.94043 0.94091 0.0464 0.0
H2291 H 0.91293 0.94937 0.0563 0.0
H2292 H 0.23202 0.67787 0.73965 0.0
H2293 H 0.22257 0.70514 0.7491 0.0
H2294 H 0.17764 0.69944 0.7204 0.0
H2295 H 0.18747 0.6723 0.71051 0.0
H2296 H 0.19289 0.72744 0.71248 0.0
H2297 H 0.19018 0.72464 0.78119 0.0
H2298 H 0.20987 0.71792 0.77327 0.0
H2299 H 0.19144 0.70616 0.7685 0.0
C2300 C 0.21969 0.68202 0.73615 0.0
C2301 C 0.21018 0.67267 0.72485 0.0
C2302 C 0.21433 0.69774 0.74146 0.0
C2303 C 0.19926 0.70443 0.73565 0.0
C2304 C 0.18925 0.69458 0.72518 0.0
H2305 H 0.1485 0.79871 0.74434 0.0
H2306 H 0.1584 0.77129 0.73567 0.0
C2307 C 0.19471 0.67891 0.71976 0.0
C2308 C 0.19501 0.72231 0.73871 0.0
H2309 H 0.19029 0.75178 0.7691 0.0
C2310 C 0.19218 0.73268 0.7249 0.0
C2311 C 0.19429 0.72934 0.75487 0.0
C2312 C 0.19645 0.7189 0.7703 0.0
C2313 C 0.18877 0.74975 0.72677 0.0
C2314 C 0.18804 0.75675 0.74289 0.0
C2315 C 0.19101 0.74647 0.75672 0.0
C2316 C 0.18311 0.77441 0.74578 0.0
C2317 C 0.18616 0.76024 0.71144 0.0
C2318 C 0.19383 0.78557 0.75394 0.0
C2319 C 0.18826 0.80147 0.75861 0.0
C2320 C 0.17178 0.80634 0.75547 0.0
C2321 C 0.16138 0.79545 0.74658 0.0
C2322 C 0.167 0.77971 0.74172 0.0
H2323 H 0.19137 0.7542 0.70016 0.0
H2324 H 0.17264 0.76205 0.70944 0.0
H2325 H 0.19196 0.77268 0.71294 0.0
H2326 H 0.20628 0.78172 0.75731 0.0
H2327 H 0.1964 0.80935 0.7659 0.0
H2328 H 0.95827 0.43385 0.48186 0.0
H2329 H 0.98231 0.44532 0.46716 0.0
H2330 H 0.01389 0.40859 0.49014 0.0
H2331 H 0.99 0.39686 0.50451 0.0
H2332 H 1.00898 0.45929 0.48191 0.0
H2333 H 0.03037 0.40679 0.44297 0.0
H2334 H 1.0101 0.40714 0.45256 0.0
H2335 H 0.02809 0.40088 0.46434 0.0
C2336 C 0.97026 0.42796 0.48346 0.0
C2337 C 0.97217 0.41441 0.49437 0.0
C2338 C 0.98401 0.43457 0.47509 0.0
C2339 C 0.99991 0.42772 0.47737 0.0
C2340 C 1.00173 0.41387 0.48783 0.0
H2341 H 0.10178 0.45599 0.46401 0.0
H2342 H 0.07516 0.44306 0.47088 0.0
C2343 C 0.98802 0.40723 0.49615 0.0
C2344 C 0.01482 0.43592 0.47018 0.0
H2345 H 0.05037 0.42843 0.44817 0.0
C2346 C 0.01789 0.45262 0.4743 0.0
C2347 C 0.02649 0.42721 0.46029 0.0
C2348 C 0.02352 0.40957 0.45464 0.0
C2349 C 0.03259 0.46063 0.46937 0.0
C2350 C 0.04447 0.45175 0.45994 0.0
C2351 C 0.04126 0.43518 0.45548 0.0
C2352 C 0.06058 0.45929 0.45516 0.0
C2353 C 0.03561 0.47833 0.4748 0.0
C2354 C 0.06122 0.47256 0.44385 0.0
C2355 C 0.07644 0.47996 0.43985 0.0
C2356 C 0.09129 0.47425 0.44711 0.0
C2357 C 0.0906 0.46076 0.45824 0.0
C2358 C 0.0754 0.45332 0.46215 0.0
H2359 H 0.02662 0.48243 0.48446 0.0
H2360 H 0.0484 0.47976 0.47979 0.0
H2361 H 0.03435 0.48671 0.46391 0.0
H2362 H 0.04994 0.47722 0.43818 0.0
H2363 H 0.07652 0.49028 0.4312 0.0
H2364 H 0.39147 0.57503 0.98909 0.0
H2365 H 0.41513 0.59106 1.00004 0.0
H2366 H 0.42923 0.60407 0.94995 0.0
H2367 H 0.40565 0.58845 0.93918 0.0
H2368 H 0.44656 0.58218 0.99344 0.0
H2369 H 0.4384 0.6472 0.97307 0.0
H2370 H 0.42148 0.63247 0.97313 0.0
H2371 H 0.43586 0.6331 0.95598 0.0
C2372 C 0.39916 0.58205 0.98057 0.0
C2373 C 0.39664 0.58078 0.96335 0.0
C2374 C 0.41279 0.59102 0.98678 0.0
C2375 C 0.42395 0.59891 0.97584 0.0
C2376 C 0.42067 0.5985 0.9587 0.0
H2377 H 0.53073 0.60892 0.98938 0.0
H2378 H 0.50268 0.60096 0.98046 0.0
C2379 C 0.40716 0.58955 0.95254 0.0
C2380 C 0.44018 0.60547 0.98185 0.0
H2381 H 0.46662 0.63854 0.97859 0.0
C2382 C 0.45084 0.5946 0.9904 0.0
C2383 C 0.44582 0.62168 0.97795 0.0
C2384 C 0.4347 0.63432 0.96968 0.0
C2385 C 0.46711 0.59929 0.9947 0.0
C2386 C 0.47306 0.61515 0.98996 0.0
C2387 C 0.46221 0.62624 0.98191 0.0
C2388 C 0.49026 0.62073 0.9939 0.0
C2389 C 0.47768 0.58722 1.00444 0.0
C2390 C 0.49271 0.63499 1.00364 0.0
C2391 C 0.50869 0.63968 1.00853 0.0
C2392 C 0.52265 0.63024 1.00378 0.0
C2393 C 0.52027 0.61643 0.9933 0.0
C2394 C 0.50422 0.61177 0.98835 0.0
H2395 H 0.46998 0.57778 1.01093 0.0
H2396 H 0.4861 0.58056 0.99578 0.0
H2397 H 0.48539 0.5938 1.01382 0.0
H2398 H 0.48219 0.6422 1.00796 0.0
H2399 H 0.51001 0.65045 0.01652 0.0
H2400 H 0.68088 0.77913 0.80885 0.0
H2401 H 0.68868 0.78846 0.78102 0.0
H2402 H 0.72458 0.82206 0.8023 0.0
H2403 H 0.71695 0.8127 0.83028 0.0
H2404 H 0.68764 0.82018 0.7669 0.0
H2405 H 0.75199 0.79553 0.76827 0.0
H2406 H 0.73641 0.78937 0.78318 0.0
H2407 H 0.74702 0.80891 0.78546 0.0
C2408 C 0.69045 0.78851 0.80767 0.0
C2409 C 0.69834 0.7951 0.82186 0.0
C2410 C 0.69488 0.79384 0.79171 0.0
C2411 C 0.70739 0.80577 0.78953 0.0
C2412 C 0.71511 0.8126 0.80365 0.0
H2413 H 0.73367 0.86939 0.70918 0.0
H2414 H 0.71991 0.85566 0.73242 0.0
C2415 C 0.71065 0.80732 0.81966 0.0
C2416 C 0.7122 0.81115 0.77248 0.0
H2417 H 0.74516 0.81358 0.74583 0.0
C2418 C 0.70018 0.81863 0.76225 0.0
C2419 C 0.72848 0.80884 0.76626 0.0
C2420 C 0.7417 0.80008 0.77628 0.0
C2421 C 0.70418 0.82444 0.74624 0.0
C2422 C 0.72066 0.82287 0.74034 0.0
C2423 C 0.73252 0.81482 0.75033 0.0
C2424 C 0.7263 0.83072 0.72456 0.0
C2425 C 0.69071 0.83228 0.73581 0.0
C2426 C 0.73416 0.82129 0.71208 0.0
C2427 C 0.74196 0.82918 0.6986 0.0
C2428 C 0.74224 0.84662 0.69758 0.0
C2429 C 0.7335 0.85592 0.70954 0.0
C2430 C 0.72561 0.84807 0.72286 0.0
H2431 H 0.6782 0.82789 0.7396 0.0
H2432 H 0.69107 0.84597 0.73751 0.0
H2433 H 0.69252 0.82952 0.72239 0.0
H2434 H 0.73493 0.80789 0.71319 0.0
H2435 H 0.74886 0.82171 0.68977 0.0
H2436 H 0.45791 0.48554 0.10408 0.0
H2437 H 0.44311 0.49828 0.08038 0.0
H2438 H 0.43742 0.44988 0.05798 0.0
H2439 H 0.45172 0.43726 0.0814 0.0
H2440 H 0.453 0.49757 0.04728 0.0
H2441 H 0.39116 0.46843 0.05286 0.0
H2442 H 0.40601 0.46839 0.0697 0.0
H2443 H 0.40741 0.45318 0.0533 0.0
C2444 C 0.45303 0.47764 0.09432 0.0
C2445 C 0.45591 0.4604 0.09466 0.0
C2446 C 0.44473 0.48492 0.08071 0.0
C2447 C 0.43896 0.47502 0.06743 0.0
C2448 C 0.44138 0.45778 0.06815 0.0
H2449 H 0.42352 0.50168 0.96311 0.0
H2450 H 0.4343 0.49112 0.98967 0.0
C2451 C 0.44967 0.45058 0.08157 0.0
C2452 C 0.43148 0.48248 0.05216 0.0
H2453 H 0.39832 0.47892 0.02581 0.0
C2454 C 0.44094 0.49367 0.04269 0.0
C2455 C 0.4157 0.47751 0.04616 0.0
C2456 C 0.40442 0.46635 0.05613 0.0
C2457 C 0.43531 0.49959 0.02718 0.0
C2458 C 0.41993 0.49386 0.02074 0.0
C2459 C 0.41025 0.4831 0.0305 0.0
C2460 C 0.41327 0.49941 1.00429 0.0
C2461 C 0.44582 0.51207 0.01796 0.0
C2462 C 0.39752 0.50685 1.00342 0.0
C2463 C 0.39123 0.51258 0.98827 0.0
C2464 C 0.4005 0.51107 0.97348 0.0
C2465 C 0.41604 0.50308 0.97421 0.0
C2466 C 0.42232 0.49724 0.98946 0.0
H2467 H 0.45455 0.51861 0.02644 0.0
H2468 H 0.4533 0.50551 1.0084 0.0
H2469 H 0.43797 0.52149 1.01161 0.0
H2470 H 0.3902 0.50859 0.01459 0.0
H2471 H 0.37921 0.51863 0.98827 0.0
H2472 H 0.80329 0.19788 0.34966 0.0
H2473 H 0.79426 0.18956 0.32176 0.0
H2474 H 0.76262 0.23273 0.31914 0.0
H2475 H 0.77151 0.24094 0.34718 0.0
H2476 H 0.76184 0.18496 0.30446 0.0
H2477 H 0.79893 0.23881 0.28192 0.0
H2478 H 0.80071 0.23099 0.30289 0.0
H2479 H 0.78297 0.24312 0.29696 0.0
C2480 C 0.79366 0.20503 0.34352 0.0
C2481 C 0.78772 0.21976 0.35081 0.0
C2482 C 0.78871 0.20043 0.32746 0.0
C2483 C 0.77798 0.21066 0.31824 0.0
C2484 C 0.77099 0.22469 0.32598 0.0
H2485 H 0.75556 0.20689 0.21116 0.0
H2486 H 0.76007 0.21675 0.23973 0.0
C2487 C 0.7758 0.22919 0.34215 0.0
C2488 C 0.77556 0.20746 0.30012 0.0
H2489 H 0.78666 0.22169 0.26156 0.0
C2490 C 0.76718 0.19304 0.29508 0.0
C2491 C 0.7825 0.21803 0.28786 0.0
C2492 C 0.7919 0.23357 0.29258 0.0
C2493 C 0.76558 0.18886 0.27814 0.0
C2494 C 0.77306 0.19909 0.26588 0.0
C2495 C 0.78108 0.21375 0.27091 0.0
C2496 C 0.77284 0.19451 0.24786 0.0
C2497 C 0.75567 0.1736 0.27354 0.0
C2498 C 0.77947 0.17923 0.24259 0.0
C2499 C 0.77695 0.17362 0.2263 0.0
C2500 C 0.76806 0.18332 0.21479 0.0
C2501 C 0.76283 0.19932 0.2196 0.0
C2502 C 0.76519 0.20486 0.23602 0.0
H2503 H 0.74684 0.1701 0.28356 0.0
H2504 H 0.74855 0.17559 0.26187 0.0
H2505 H 0.76428 0.16299 0.27161 0.0
H2506 H 0.78582 0.1712 0.25134 0.0
H2507 H 0.78094 0.16117 0.22303 0.0
H2508 H 0.07372 0.58645 0.59158 0.0
H2509 H 0.09037 0.57268 0.57043 0.0
H2510 H 0.08184 0.52539 0.59418 0.0
H2511 H 0.06485 0.5393 0.61565 0.0
H2512 H 0.11892 0.55242 0.57176 0.0
H2513 H 0.06394 0.51914 0.54607 0.0
H2514 H 0.06194 0.53613 0.5606 0.0
H2515 H 0.0685 0.51604 0.56776 0.0
C2516 C 0.07549 0.57312 0.59247 0.0
C2517 C 0.06782 0.56393 0.60522 0.0
C2518 C 0.08509 0.56527 0.58036 0.0
C2519 C 0.08718 0.54798 0.58053 0.0
C2520 C 0.0802 0.53875 0.59368 0.0
H2521 H 0.15084 0.49954 0.50567 0.0
H2522 H 0.13936 0.50942 0.53204 0.0
C2523 C 0.07063 0.54669 0.60601 0.0
C2524 C 0.09591 0.53993 0.56631 0.0
H2525 H 0.089 0.51666 0.53137 0.0
C2526 C 0.11247 0.54439 0.56304 0.0
C2527 C 0.08739 0.52972 0.55478 0.0
C2528 C 0.06943 0.52501 0.55731 0.0
C2529 C 0.12061 0.53919 0.54844 0.0
C2530 C 0.11202 0.52912 0.53684 0.0
C2531 C 0.09558 0.52438 0.54027 0.0
C2532 C 0.11963 0.52381 0.52079 0.0
C2533 C 0.1381 0.54509 0.54524 0.0
C2534 C 0.11238 0.52858 0.50562 0.0
C2535 C 0.11892 0.52295 0.49047 0.0
C2536 C 0.1328 0.5123 0.49016 0.0
C2537 C 0.14023 0.50782 0.50539 0.0
C2538 C 0.13369 0.51348 0.52052 0.0
H2539 H 0.14155 0.5557 0.5534 0.0
H2540 H 0.14689 0.53475 0.54773 0.0
H2541 H 0.13964 0.54893 0.53207 0.0
H2542 H 0.10151 0.53652 0.5055 0.0
H2543 H 0.11279 0.52656 0.47904 0.0
H2544 H 0.73963 0.21807 0.67062 0.0
H2545 H 0.75328 0.20385 0.69417 0.0
H2546 H 0.70535 0.19437 0.7161 0.0
H2547 H 0.69187 0.208 0.69281 0.0
H2548 H 0.75207 0.21298 0.72721 0.0
H2549 H 0.72674 0.14955 0.7209 0.0
H2550 H 0.7256 0.16457 0.70428 0.0
H2551 H 0.71041 0.1647 0.72074 0.0
C2552 C 0.73207 0.21248 0.68023 0.0
C2553 C 0.71468 0.21409 0.6798 0.0
C2554 C 0.73985 0.2045 0.69376 0.0
C2555 C 0.73034 0.19784 0.70688 0.0
C2556 C 0.71299 0.19902 0.70606 0.0
H2557 H 0.75732 0.18343 0.81127 0.0
H2558 H 0.74667 0.19394 0.78464 0.0
C2559 C 0.70529 0.20694 0.69271 0.0
C2560 C 0.73821 0.19066 0.72209 0.0
H2561 H 0.73629 0.15724 0.74825 0.0
C2562 C 0.74882 0.20069 0.7317 0.0
C2563 C 0.73412 0.17458 0.72797 0.0
C2564 C 0.72373 0.16268 0.71783 0.0
C2565 C 0.75496 0.19531 0.74721 0.0
C2566 C 0.75001 0.17962 0.75355 0.0
C2567 C 0.73986 0.1694 0.74365 0.0
C2568 C 0.75575 0.17319 0.77003 0.0
C2569 C 0.76686 0.20642 0.75653 0.0
C2570 C 0.76368 0.15768 0.77092 0.0
C2571 C 0.76943 0.15151 0.78612 0.0
C2572 C 0.76747 0.1607 0.80093 0.0
C2573 C 0.75907 0.17603 0.80015 0.0
C2574 C 0.75318 0.18216 0.78487 0.0
H2575 H 0.77306 0.21541 0.74809 0.0
H2576 H 0.75988 0.21366 0.76598 0.0
H2577 H 0.77656 0.19903 0.76301 0.0
H2578 H 0.76576 0.15042 0.75976 0.0
H2579 H 0.77582 0.13966 0.78613 0.0
H2580 H 0.04829 0.48887 0.93048 0.0
H2581 H 0.05739 0.49885 0.95784 0.0
H2582 H 0.09788 0.46374 0.95703 0.0
H2583 H 0.08873 0.45378 0.92978 0.0
H2584 H 0.05736 0.47729 0.98481 0.0
H2585 H 0.11993 0.5047 0.97724 0.0
H2586 H 0.10578 0.50202 0.96001 0.0
H2587 H 0.11793 0.48476 0.96741 0.0
C2588 C 0.05975 0.48406 0.93568 0.0
C2589 C 0.06819 0.47098 0.92772 0.0
C2590 C 0.06476 0.48954 0.95148 0.0
C2591 C 0.07839 0.48213 0.95952 0.0
C2592 C 0.08756 0.46992 0.95099 0.0
H2593 H 0.12449 0.47832 0.05583 0.0
H2594 H 0.11344 0.47212 0.02818 0.0
C2595 C 0.08245 0.46435 0.93529 0.0
C2596 C 0.08176 0.48543 0.97747 0.0
H2597 H 0.11246 0.49627 1.00474 0.0
C2598 C 0.06934 0.48164 0.98918 0.0
C2599 C 0.09739 0.49103 0.98321 0.0
C2600 C 0.11098 0.49602 0.97131 0.0
C2601 C 0.07236 0.48264 1.00642 0.0
C2602 C 0.08816 0.48782 1.01215 0.0
C2603 C 0.1004 0.49207 1.00041 0.0
C2604 C 0.0925 0.48888 0.03019 0.0
C2605 C 0.05881 0.47755 0.01831 0.0
C2606 C 0.08392 0.49965 0.04099 0.0
C2607 C 0.08999 0.50282 0.05706 0.0
C2608 C 0.10492 0.49551 0.06249 0.0
C2609 C 0.11276 0.48381 0.05214 0.0
C2610 C 0.10659 0.48049 0.03621 0.0
H2611 H 0.04925 0.46975 1.01211 0.0
H2612 H 0.06397 0.47055 0.02903 0.0
H2613 H 0.05257 0.48886 0.02316 0.0
H2614 H 0.07324 0.50657 0.0366 0.0
H2615 H 0.08403 0.51237 0.06448 0.0
H2616 H 0.79275 0.8728 0.31561 0.0
H2617 H 0.80773 0.85981 0.29257 0.0
H2618 H 0.78691 0.8122 0.30577 0.0
H2619 H 0.77263 0.8251 0.32949 0.0
H2620 H 0.81723 0.80786 0.29399 0.0
H2621 H 0.78379 0.84947 0.25066 0.0
H2622 H 0.79622 0.86101 0.26509 0.0
H2623 H 0.77904 0.84873 0.27253 0.0
C2624 C 0.79171 0.85949 0.31384 0.0
C2625 C 0.7815 0.84997 0.32433 0.0
C2626 C 0.8001 0.85209 0.30051 0.0
C2627 C 0.79799 0.83511 0.29696 0.0
C2628 C 0.78864 0.82536 0.30808 0.0
H2629 H 0.81081 0.79601 0.19698 0.0
H2630 H 0.80057 0.80639 0.22358 0.0
C2631 C 0.78054 0.83271 0.32171 0.0
C2632 C 0.80474 0.8278 0.28123 0.0
H2633 H 0.80559 0.83335 0.23908 0.0
C2634 C 0.81463 0.8134 0.28197 0.0
C2635 C 0.80108 0.83473 0.26542 0.0
C2636 C 0.78931 0.84921 0.26333 0.0
C2637 C 0.8211 0.80593 0.26748 0.0
C2638 C 0.81811 0.81337 0.25175 0.0
C2639 C 0.80811 0.82768 0.25105 0.0
C2640 C 0.82458 0.80631 0.23576 0.0
C2641 C 0.8306 0.78984 0.2692 0.0
C2642 C 0.84156 0.80276 0.23351 0.0
C2643 C 0.84742 0.79647 0.2183 0.0
C2644 C 0.8365 0.79404 0.20485 0.0
C2645 C 0.81959 0.79784 0.20703 0.0
C2646 C 0.81371 0.80378 0.22229 0.0
H2647 H 0.82725 0.78321 0.28084 0.0
H2648 H 0.82822 0.78142 0.25852 0.0
H2649 H 0.84409 0.79259 0.26971 0.0
H2650 H 0.85037 0.80507 0.24342 0.0
H2651 H 0.86054 0.79379 0.21698 0.0
H2652 H 0.4452 0.51541 0.56579 0.0
H2653 H 0.45482 0.52261 0.53765 0.0
H2654 H 0.40546 0.53902 0.5249 0.0
H2655 H 0.39581 0.53168 0.55278 0.0
H2656 H 0.43905 0.50703 0.50797 0.0
H2657 H 0.43694 0.57606 0.5063 0.0
H2658 H 0.43884 0.56449 0.52547 0.0
H2659 H 0.41909 0.56601 0.5152 0.0
C2660 C 0.4366 0.52122 0.5572 0.0
C2661 C 0.4198 0.52323 0.56158 0.0
C2662 C 0.44204 0.52511 0.54105 0.0
C2663 C 0.43086 0.53137 0.52915 0.0
C2664 C 0.41436 0.53438 0.53388 0.0
H2665 H 0.43686 0.56172 0.42554 0.0
H2666 H 0.42626 0.55277 0.45269 0.0
C2667 C 0.40888 0.53027 0.54987 0.0
C2668 C 0.43587 0.53338 0.51141 0.0
H2669 H 0.44015 0.56222 0.48054 0.0
C2670 C 0.43942 0.5191 0.50197 0.0
C2671 C 0.43609 0.54908 0.50353 0.0
C2672 C 0.43266 0.56484 0.51312 0.0
C2673 C 0.44289 0.52008 0.48481 0.0
C2674 C 0.44323 0.53583 0.4769 0.0
C2675 C 0.43975 0.5501 0.48644 0.0
C2676 C 0.44789 0.53803 0.45899 0.0
C2677 C 0.44565 0.50414 0.47529 0.0
C2678 C 0.46319 0.53209 0.453 0.0
C2679 C 0.46897 0.5368 0.43726 0.0
C2680 C 0.4597 0.54769 0.42722 0.0
C2681 C 0.44395 0.55279 0.43271 0.0
C2682 C 0.43806 0.54793 0.4484 0.0
H2683 H 0.43935 0.49348 0.4814 0.0
H2684 H 0.44105 0.50512 0.46231 0.0
H2685 H 0.45914 0.50134 0.47496 0.0
H2686 H 0.4713 0.52487 0.46096 0.0
H2687 H 0.48147 0.53329 0.43367 0.0
H2688 H 0.75245 0.78426 0.88994 0.0
H2689 H 0.78097 0.77687 0.88296 0.0
H2690 H 0.76313 0.74126 0.84704 0.0
H2691 H 0.7344 0.74895 0.85362 0.0
H2692 H 0.7989 0.74908 0.8845 0.0
H2693 H 0.79391 0.76883 0.81873 0.0
H2694 H 0.77801 0.77338 0.83387 0.0
H2695 H 0.77893 0.75324 0.82411 0.0
C2696 C 0.75452 0.77476 0.88061 0.0
C2697 C 0.74105 0.7673 0.87225 0.0
C2698 C 0.7709 0.77056 0.87663 0.0
C2699 C 0.77429 0.7588 0.86418 0.0
C2700 C 0.76088 0.75072 0.85635 0.0
H2701 H 0.86219 0.70393 0.84309 0.0
H2702 H 0.83814 0.71644 0.85649 0.0
C2703 C 0.74443 0.755 0.86027 0.0
C2704 C 0.79183 0.75516 0.85938 0.0
H2705 H 0.81821 0.75357 0.82613 0.0
C2706 C 0.80313 0.75017 0.87175 0.0
C2707 C 0.79758 0.75703 0.84284 0.0
C2708 C 0.78653 0.76359 0.82916 0.0
C2709 C 0.81977 0.74637 0.86792 0.0
C2710 C 0.82522 0.74721 0.8512 0.0
C2711 C 0.81409 0.75283 0.83895 0.0
C2712 C 0.8418 0.74087 0.8458 0.0
C2713 C 0.83131 0.74153 0.88189 0.0
C2714 C 0.85227 0.75045 0.83555 0.0
C2715 C 0.86619 0.74324 0.82785 0.0
C2716 C 0.86974 0.72631 0.83023 0.0
C2717 C 0.85995 0.71711 0.84136 0.0
C2718 C 0.84614 0.72428 0.84903 0.0
H2719 H 0.82746 0.74739 0.8938 0.0
H2720 H 0.83084 0.72785 0.88363 0.0
H2721 H 0.84434 0.74516 0.87919 0.0
H2722 H 0.84913 0.76325 0.83275 0.0
H2723 H 0.87325 0.75046 0.81895 0.0
H2724 H 0.52918 0.47151 0.11643 0.0
H2725 H 0.54087 0.49619 0.10326 0.0
H2726 H 0.5355 0.47317 0.05512 0.0
H2727 H 0.52364 0.44828 0.06831 0.0
H2728 H 0.56796 0.50232 0.08149 0.0
H2729 H 0.5068 0.51607 0.0523 0.0
H2730 H 0.50921 0.50089 0.06864 0.0
H2731 H 0.51554 0.49598 0.04781 0.0
C2732 C 0.53082 0.47151 0.10306 0.0
C2733 C 0.52541 0.45794 0.09341 0.0
C2734 C 0.53749 0.48567 0.09554 0.0
C2735 C 0.53877 0.4867 0.07818 0.0
C2736 C 0.53439 0.47276 0.06853 0.0
H2737 H 0.58424 0.57019 0.02535 0.0
H2738 H 0.57731 0.54275 0.03633 0.0
C2739 C 0.5278 0.45845 0.07609 0.0
C2740 C 0.54364 0.50278 0.07038 0.0
H2741 H 0.52842 0.53517 0.04739 0.0
C2742 C 0.55938 0.50944 0.07391 0.0
C2743 C 0.5323 0.51223 0.06078 0.0
C2744 C 0.51496 0.50606 0.05722 0.0
C2745 C 0.56409 0.52525 0.06807 0.0
C2746 C 0.55281 0.53463 0.05831 0.0
C2747 C 0.53707 0.52797 0.05481 0.0
C2748 C 0.55707 0.55142 0.05174 0.0
C2749 C 0.58094 0.53199 0.07278 0.0
C2750 C 0.54783 0.56548 0.0565 0.0
C2751 C 0.55175 0.58127 0.05022 0.0
C2752 C 0.56492 0.58331 0.0389 0.0
C2753 C 0.57407 0.56915 0.0341 0.0
C2754 C 0.57018 0.55342 0.04043 0.0
H2755 H 0.5864 0.52518 0.08348 0.0
H2756 H 0.58949 0.53064 0.06205 0.0
H2757 H 0.58016 0.5454 0.07599 0.0
H2758 H 0.5376 0.56423 0.06517 0.0
H2759 H 0.54439 0.59185 0.05413 0.0
H2760 H 0.66354 0.28502 0.29612 0.0
H2761 H 0.69131 0.27482 0.30354 0.0
H2762 H 0.6944 0.31172 0.34233 0.0
H2763 H 0.66672 0.32177 0.335 0.0
H2764 H 0.71819 0.2956 0.29989 0.0
H2765 H 0.71642 0.27218 0.3645 0.0
H2766 H 0.69791 0.27451 0.35202 0.0
H2767 H 0.70677 0.29219 0.36252 0.0
C2768 C 0.66971 0.29018 0.30693 0.0
C2769 C 0.66275 0.30383 0.31535 0.0
C2770 C 0.68573 0.28458 0.31094 0.0
C2771 C 0.695 0.29246 0.32351 0.0
C2772 C 0.68745 0.30518 0.33282 0.0
H2773 H 0.79476 0.29879 0.36054 0.0
H2774 H 0.76643 0.3047 0.35126 0.0
C2775 C 0.67151 0.31081 0.32876 0.0
C2776 C 0.71314 0.28917 0.3254 0.0
H2777 H 0.74311 0.28045 0.35419 0.0
C2778 C 0.72364 0.29207 0.31171 0.0
C2779 C 0.7203 0.28462 0.34081 0.0
C2780 C 0.70975 0.28053 0.35575 0.0
C2781 C 0.74106 0.29125 0.31321 0.0
C2782 C 0.74822 0.28721 0.32877 0.0
C2783 C 0.73769 0.28381 0.34231 0.0
C2784 C 0.76655 0.2864 0.33152 0.0
C2785 C 0.75163 0.29532 0.29828 0.0
C2786 C 0.77647 0.27489 0.32287 0.0
C2787 C 0.79291 0.27187 0.32787 0.0
C2788 C 0.79959 0.28013 0.34178 0.0
C2789 C 0.79011 0.2926 0.3495 0.0
C2790 C 0.77379 0.29575 0.34439 0.0
H2791 H 0.74456 0.30239 0.28876 0.0
H2792 H 0.76272 0.30268 0.30194 0.0
H2793 H 0.75598 0.28358 0.29248 0.0
H2794 H 0.77113 0.26727 0.31314 0.0
H2795 H 0.79966 0.26173 0.32211 0.0
H2796 H 0.99638 0.58392 0.57576 0.0
H2797 H 0.98031 0.56203 0.56169 0.0
H2798 H 0.97882 0.53387 0.60726 0.0
H2799 H 0.99466 0.55554 0.62132 0.0
H2800 H 0.99059 0.52901 0.55788 0.0
H2801 H 0.93068 0.53122 0.5915 0.0
H2802 H 0.94549 0.54808 0.59218 0.0
H2803 H 0.94823 0.53012 0.60523 0.0
C2804 C 0.99227 0.57325 0.58287 0.0
C2805 C 0.99679 0.57154 0.5997 0.0
C2806 C 0.98317 0.5607 0.57479 0.0
C2807 C 0.97818 0.54634 0.58344 0.0
C2808 C 0.98221 0.54492 0.60036 0.0
H2809 H 0.96148 0.44576 0.55095 0.0
H2810 H 0.97169 0.47219 0.56192 0.0
C2811 C 0.99137 0.55734 0.60838 0.0
C2812 C 0.97 0.53218 0.57466 0.0
H2813 H 0.93645 0.50613 0.57635 0.0
C2814 C 0.97865 0.52415 0.56177 0.0
C2815 C 0.95435 0.52585 0.57961 0.0
C2816 C 0.94406 0.53436 0.59278 0.0
C2817 C 0.97242 0.50964 0.55422 0.0
C2818 C 0.95721 0.5028 0.55981 0.0
C2819 C 0.9482 0.51122 0.57219 0.0
C2820 C 0.95072 0.48667 0.55331 0.0
C2821 C 0.98224 0.5017 0.54035 0.0
C2822 C 0.93527 0.48584 0.5452 0.0
C2823 C 0.92934 0.47066 0.53893 0.0
C2824 C 0.93866 0.45595 0.54077 0.0
C2825 C 0.95397 0.4568 0.54922 0.0
C2826 C 0.9599 0.47196 0.55542 0.0
H2827 H 0.99088 0.51071 0.53446 0.0
H2828 H 0.98976 0.49133 0.54548 0.0
H2829 H 0.97389 0.49656 0.53063 0.0
H2830 H 0.9279 0.49699 0.54353 0.0
H2831 H 0.91749 0.47049 0.53254 0.0
H2832 H 0.84044 0.29902 0.72738 0.0
H2833 H 0.81288 0.29135 0.71707 0.0
H2834 H 0.79476 0.34046 0.7289 0.0
H2835 H 0.82204 0.34782 0.74009 0.0
H2836 H 0.77231 0.31966 0.73712 0.0
H2837 H 0.79237 0.3018 0.67392 0.0
H2838 H 0.8027 0.28944 0.68929 0.0
H2839 H 0.80629 0.31157 0.68848 0.0
C2840 C 0.8306 0.30821 0.72769 0.0
C2841 C 0.83349 0.32407 0.73445 0.0
C2842 C 0.81482 0.30385 0.72167 0.0
C2843 C 0.80168 0.31542 0.72175 0.0
C2844 C 0.8046 0.33126 0.72858 0.0
H2845 H 0.71439 0.29523 0.66063 0.0
H2846 H 0.73898 0.30814 0.67299 0.0
C2847 C 0.82025 0.33549 0.73495 0.0
C2848 C 0.78486 0.31098 0.71508 0.0
H2849 H 0.76502 0.29357 0.68175 0.0
C2850 C 0.77073 0.3141 0.72492 0.0
C2851 C 0.78256 0.30402 0.69904 0.0
C2852 C 0.79678 0.30169 0.68702 0.0
C2853 C 0.75458 0.31024 0.71935 0.0
C2854 C 0.7524 0.30237 0.70371 0.0
C2855 C 0.76651 0.29947 0.69379 0.0
C2856 C 0.73578 0.29689 0.69726 0.0
C2857 C 0.74006 0.31507 0.73018 0.0
C2858 C 0.72519 0.28677 0.70685 0.0
C2859 C 0.71071 0.27992 0.69992 0.0
C2860 C 0.70677 0.28262 0.68312 0.0
C2861 C 0.71698 0.29317 0.6737 0.0
C2862 C 0.73118 0.30039 0.68073 0.0
H2863 H 0.74315 0.32591 0.73818 0.0
H2864 H 0.72894 0.31823 0.72264 0.0
H2865 H 0.73693 0.30454 0.73851 0.0
H2866 H 0.72857 0.28335 0.71942 0.0
H2867 H 0.70336 0.27141 0.70732 0.0
H2868 H 1.00301 0.59912 0.99003 0.0
H2869 H 1.01222 0.57134 0.98148 0.0
H2870 H 0.97972 0.57373 0.9389 0.0
H2871 H 0.97046 0.60139 0.94754 0.0
H2872 H 0.98875 0.5456 0.9801 0.0
H2873 H 0.02117 0.5512 0.91963 0.0
H2874 H 0.01873 0.56855 0.93371 0.0
H2875 H 1.00185 0.56234 0.92043 0.0
C2876 C 0.99868 0.59416 0.97826 0.0
C2877 C 0.98646 0.60268 0.9691 0.0
C2878 C 1.0037 0.57813 0.97355 0.0
C2879 C 0.99674 0.57041 0.95949 0.0
C2880 C 0.98555 0.57949 0.9496 0.0
H2881 H 0.99159 0.4738 0.91358 0.0
H2882 H 0.98661 0.50216 0.9234 0.0
C2883 C 0.9804 0.59542 0.95441 0.0
C2884 C 0.99925 0.55228 0.95641 0.0
H2885 H 1.01104 0.52425 0.92674 0.0
C2886 C 0.99381 0.5409 0.96851 0.0
C2887 C 1.00574 0.54615 0.94127 0.0
C2888 C 1.01236 0.55768 0.92806 0.0
C2889 C 0.99407 0.52362 0.96562 0.0
C2890 C 1.00026 0.51747 0.95031 0.0
C2891 C 1.00611 0.52888 0.93841 0.0
C2892 C 1.0007 0.49934 0.94615 0.0
C2893 C 0.9871 0.51218 0.97873 0.0
C2894 C 1.0096 0.48794 0.95602 0.0
C2895 C 1.01201 0.4715 0.95062 0.0
C2896 C 1.00584 0.46625 0.93511 0.0
C2897 C 0.99615 0.47737 0.92575 0.0
C2898 C 0.99353 0.49368 0.93125 0.0
H2899 H 0.97864 0.51888 0.98735 0.0
H2900 H 0.9802 0.50168 0.97302 0.0
H2901 H 0.99747 0.50699 0.9862 0.0
H2902 H 0.01563 0.49201 0.96735 0.0
H2903 H 0.02006 0.46343 0.9578 0.0
H2904 H 0.67185 0.72007 0.21002 0.0
H2905 H 0.69747 0.72812 0.19589 0.0
H2906 H 0.72534 0.69455 0.22705 0.0
H2907 H 0.69969 0.68613 0.24102 0.0
H2908 H 0.72457 0.74296 0.20882 0.0
H2909 H 0.74299 0.68227 0.18166 0.0
H2910 H 0.7226 0.68592 0.19023 0.0
H2911 H 0.73989 0.68164 0.20375 0.0
C2912 C 0.6834 0.71426 0.21379 0.0
C2913 C 0.68367 0.70239 0.22664 0.0
C2914 C 0.69806 0.7189 0.20569 0.0
C2915 C 0.71336 0.71178 0.2102 0.0
C2916 C 0.71368 0.69993 0.22303 0.0
H2917 H 0.81527 0.73758 0.18286 0.0
H2918 H 0.79061 0.72465 0.19524 0.0
C2919 C 0.69899 0.69521 0.2311 0.0
C2920 C 0.72898 0.71743 0.20201 0.0
H2921 H 0.7628 0.70415 0.17987 0.0
C2922 C 0.73286 0.73446 0.20243 0.0
C2923 C 0.73989 0.70635 0.1937 0.0
C2924 C 0.73609 0.68805 0.19214 0.0
C2925 C 0.74733 0.74068 0.19492 0.0
C2926 C 0.75818 0.72963 0.18659 0.0
C2927 C 0.75445 0.71259 0.18627 0.0
C2928 C 0.77329 0.73577 0.17794 0.0
C2929 C 0.75101 0.75904 0.19607 0.0
C2930 C 0.77178 0.74581 0.16377 0.0
C2931 C 0.78581 0.75313 0.15661 0.0
C2932 C 0.8017 0.75059 0.1635 0.0
C2933 C 0.80326 0.7398 0.17721 0.0
C2934 C 0.78918 0.73242 0.18433 0.0
H2935 H 0.7433 0.76529 0.20568 0.0
H2936 H 0.76432 0.76116 0.19902 0.0
H2937 H 0.74836 0.76497 0.1839 0.0
H2938 H 0.75965 0.7484 0.15853 0.0
H2939 H 0.7841 0.76131 0.14605 0.0
H2940 H 0.53541 0.54481 0.40498 0.0
H2941 H 0.54268 0.51624 0.41259 0.0
H2942 H 0.52123 0.52369 0.46112 0.0
H2943 H 0.51409 0.55246 0.45359 0.0
H2944 H 0.56077 0.5012 0.44152 0.0
H2945 H 0.49361 0.48518 0.43786 0.0
H2946 H 0.50195 0.5039 0.4287 0.0
H2947 H 0.49937 0.50252 0.45081 0.0
C2948 C 0.53289 0.54058 0.41753 0.0
C2949 C 0.52444 0.55097 0.42879 0.0
C2950 C 0.53689 0.5242 0.4218 0.0
C2951 C 0.53224 0.51774 0.43731 0.0
C2952 C 0.52481 0.52839 0.44902 0.0
H2953 H 0.53309 0.41817 0.47829 0.0
H2954 H 0.52492 0.44612 0.46961 0.0
C2955 C 0.521 0.54492 0.44482 0.0
C2956 C 0.53415 0.4996 0.44061 0.0
H2957 H 0.51216 0.46337 0.44414 0.0
C2958 C 0.55016 0.49291 0.44211 0.0
C2959 C 0.52028 0.48882 0.44138 0.0
C2960 C 0.5028 0.49535 0.43951 0.0
C2961 C 0.5527 0.47577 0.44465 0.0
C2962 C 0.53884 0.46485 0.44503 0.0
C2963 C 0.5228 0.47162 0.44362 0.0
C2964 C 0.54081 0.44656 0.4479 0.0
C2965 C 0.57023 0.46968 0.44745 0.0
C2966 C 0.55141 0.43687 0.4379 0.0
C2967 C 0.55605 0.42079 0.44287 0.0
C2968 C 0.5498 0.41396 0.45766 0.0
C2969 C 0.5377 0.4229 0.46654 0.0
C2970 C 0.53323 0.43904 0.46172 0.0
H2971 H 0.57862 0.47992 0.45137 0.0
H2972 H 0.57061 0.45981 0.45709 0.0
H2973 H 0.57516 0.46446 0.43566 0.0
H2974 H 0.55706 0.44217 0.4269 0.0
H2975 H 0.56576 0.41441 0.43605 0.0
H2976 H 0.82128 0.83823 0.68997 0.0
H2977 H 0.83185 0.81306 0.70319 0.0
H2978 H 0.8091 0.82771 0.74947 0.0
H2979 H 0.79868 0.85334 0.73621 0.0
H2980 H 0.84017 0.81256 0.75387 0.0
H2981 H 0.80083 0.77421 0.71253 0.0
H2982 H 0.81414 0.78791 0.70106 0.0
H2983 H 0.79831 0.79644 0.71438 0.0
C2984 C 0.81884 0.8363 0.70308 0.0
C2985 C 0.80915 0.84776 0.71206 0.0
C2986 C 0.82473 0.82179 0.71057 0.0
C2987 C 0.82083 0.81818 0.72718 0.0
C2988 C 0.8121 0.83013 0.73657 0.0
H2989 H 0.83408 0.71624 0.76631 0.0
H2990 H 0.82154 0.74223 0.75613 0.0
C2991 C 0.80629 0.84484 0.72906 0.0
C2992 C 0.82551 0.80168 0.73432 0.0
H2993 H 0.82255 0.75983 0.72703 0.0
C2994 C 0.83619 0.80104 0.74811 0.0
C2995 C 0.82002 0.78655 0.72708 0.0
C2996 C 0.80755 0.78626 0.71306 0.0
C2997 C 0.84216 0.78577 0.75429 0.0
C2998 C 0.83764 0.77071 0.74625 0.0
C2999 C 0.82629 0.77132 0.73301 0.0
C3000 C 0.84501 0.75435 0.75108 0.0
C3001 C 0.85325 0.78595 0.76943 0.0
C3002 C 0.8623 0.75215 0.75084 0.0
C3003 C 0.86944 0.73737 0.75658 0.0
C3004 C 0.85948 0.72428 0.76251 0.0
C3005 C 0.84211 0.72601 0.7617 0.0
C3006 C 0.83494 0.74093 0.75603 0.0
H3007 H 0.85121 0.7973 0.77705 0.0
H3008 H 0.8511 0.77486 0.77736 0.0
H3009 H 0.86642 0.78591 0.76539 0.0
H3010 H 0.87035 0.76205 0.74657 0.0
H3011 H 0.88286 0.73644 0.75691 0.0
H3012 H 0.31923 0.66812 0.28622 0.0
H3013 H 0.33632 0.68951 0.27241 0.0
H3014 H 0.34651 0.71204 0.32002 0.0
H3015 H 0.32974 0.69098 0.33369 0.0
H3016 H 0.32969 0.7239 0.27364 0.0
H3017 H 0.3924 0.71122 0.29862 0.0
H3018 H 0.3759 0.69602 0.2992 0.0
H3019 H 0.37702 0.71212 0.31473 0.0
C3020 C 0.32548 0.67741 0.2937 0.0
C3021 C 0.32313 0.67788 0.31102 0.0
C3022 C 0.33516 0.68966 0.28582 0.0
C3023 C 0.34287 0.7023 0.2952 0.0
C3024 C 0.341 0.70229 0.31252 0.0
H3025 H 0.36484 0.80461 0.27443 0.0
H3026 H 0.35415 0.77774 0.2838 0.0
C3027 C 0.33127 0.69027 0.32032 0.0
C3028 C 0.35158 0.71647 0.28711 0.0
H3029 H 0.38749 0.73912 0.28873 0.0
C3030 C 0.34242 0.72708 0.2767 0.0
C3031 C 0.36824 0.72061 0.291 0.0
C3032 C 0.37902 0.70929 0.30137 0.0
C3033 C 0.34917 0.74208 0.2708 0.0
C3034 C 0.36544 0.74675 0.27562 0.0
C3035 C 0.37492 0.73572 0.28528 0.0
C3036 C 0.3727 0.76312 0.27092 0.0
C3037 C 0.33875 0.75287 0.25953 0.0
C3038 C 0.38717 0.76392 0.26122 0.0
C3039 C 0.39342 0.7793 0.25595 0.0
C3040 C 0.38538 0.79423 0.26037 0.0
C3041 C 0.37135 0.7934 0.27076 0.0
C3042 C 0.3651 0.77802 0.27599 0.0
H3043 H 0.32877 0.7456 0.25333 0.0
H3044 H 0.33275 0.76279 0.26702 0.0
H3045 H 0.3465 0.75889 0.24983 0.0
H3046 H 0.39334 0.75261 0.25729 0.0
H3047 H 0.40425 0.77944 0.24797 0.0
H3048 H 0.47996 0.13311 0.53681 0.0
H3049 H 0.5078 0.12345 0.54431 0.0
H3050 H 0.49575 0.07444 0.52625 0.0
H3051 H 0.46772 0.08407 0.51881 0.0
H3052 H 0.52038 0.09562 0.56435 0.0
H3053 H 0.53594 0.09059 0.49709 0.0
H3054 H 0.51813 0.1021 0.50445 0.0
H3055 H 0.51769 0.0798 0.50412 0.0
C3056 C 0.48303 0.12011 0.53502 0.0
C3057 C 0.47157 0.1093 0.52741 0.0
C3058 C 0.499 0.11464 0.53916 0.0
C3059 C 0.50399 0.09832 0.53554 0.0
C3060 C 0.49224 0.08716 0.52897 0.0
H3061 H 0.59946 0.04852 0.54063 0.0
H3062 H 0.57205 0.05845 0.53203 0.0
C3063 C 0.47612 0.09259 0.525 0.0
C3064 C 0.52172 0.09346 0.53775 0.0
H3065 H 0.55716 0.08399 0.51622 0.0
C3066 C 0.52843 0.09306 0.55384 0.0
C3067 C 0.53222 0.09012 0.52401 0.0
C3068 C 0.52575 0.09075 0.5064 0.0
C3069 C 0.54526 0.08919 0.55663 0.0
C3070 C 0.5559 0.08621 0.54287 0.0
C3071 C 0.54913 0.08649 0.52675 0.0
C3072 C 0.57385 0.08191 0.54511 0.0
C3073 C 0.55129 0.08782 0.57436 0.0
C3074 C 0.58456 0.09225 0.55432 0.0
C3075 C 0.60032 0.08658 0.55919 0.0
C3076 C 0.60581 0.07067 0.55454 0.0
C3077 C 0.59578 0.06107 0.54392 0.0
C3078 C 0.57997 0.06664 0.53921 0.0
H3079 H 0.54085 0.08588 0.58318 0.0
H3080 H 0.56021 0.07738 0.57579 0.0
H3081 H 0.55766 0.09953 0.57792 0.0
H3082 H 0.58033 0.10427 0.55867 0.0
H3083 H 0.60758 0.09401 0.56778 0.0
H3084 H 0.17983 0.35275 0.82937 0.0
H3085 H 0.17086 0.32492 0.82084 0.0
H3086 H 0.19805 0.33015 0.77497 0.0
H3087 H 0.20688 0.35812 0.78347 0.0
H3088 H 0.16754 0.31167 0.77189 0.0
H3089 H 0.20748 0.28874 0.82329 0.0
H3090 H 0.19173 0.30326 0.82963 0.0
H3091 H 0.2081 0.30996 0.81601 0.0
C3092 C 0.1831 0.34832 0.81706 0.0
C3093 C 0.19367 0.35776 0.80687 0.0
C3094 C 0.17827 0.33228 0.81234 0.0
C3095 C 0.18411 0.32528 0.79745 0.0
C3096 C 0.19343 0.33526 0.78655 0.0
H3097 H 0.19296 0.21949 0.77166 0.0
H3098 H 0.19912 0.24817 0.78047 0.0
C3099 C 0.19824 0.35136 0.79127 0.0
C3100 C 0.18184 0.30721 0.79403 0.0
H3101 H 0.19138 0.26851 0.80905 0.0
C3102 C 0.17274 0.30225 0.78 0.0
C3103 C 0.18899 0.29487 0.80441 0.0
C3104 C 0.19976 0.2994 0.8191 0.0
C3105 C 0.17016 0.28532 0.77637 0.0
C3106 C 0.17667 0.27299 0.78717 0.0
C3107 C 0.18621 0.27794 0.80091 0.0
C3108 C 0.1734 0.25495 0.78442 0.0
C3109 C 0.1606 0.28075 0.76087 0.0
C3110 C 0.15705 0.24897 0.78469 0.0
C3111 C 0.15355 0.23268 0.77979 0.0
C3112 C 0.16634 0.22189 0.77468 0.0
C3113 C 0.18288 0.22741 0.77577 0.0
C3114 C 0.18638 0.24385 0.78061 0.0
H3115 H 0.16025 0.29118 0.75182 0.0
H3116 H 0.16614 0.26971 0.7547 0.0
H3117 H 0.14761 0.27768 0.7643 0.0
H3118 H 0.14688 0.25716 0.78796 0.0
H3119 H 0.14069 0.22879 0.77908 0.0
H3120 H 0.41351 0.46091 0.53897 0.0
H3121 H 0.43919 0.44813 0.52816 0.0
H3122 H 0.45413 0.4363 0.57833 0.0
H3123 H 0.42846 0.44799 0.58883 0.0
H3124 H 0.46944 0.45817 0.5326 0.0
H3125 H 0.46772 0.3946 0.55756 0.0
H3126 H 0.44965 0.40781 0.55784 0.0
H3127 H 0.46483 0.40889 0.57436 0.0
C3128 C 0.4219 0.45475 0.54751 0.0
C3129 C 0.41883 0.45515 0.5647 0.0
C3130 C 0.43673 0.44771 0.54139 0.0
C3131 C 0.44867 0.441 0.55238 0.0
C3132 C 0.44509 0.44081 0.56945 0.0
H3133 H 0.55634 0.43752 0.53039 0.0
H3134 H 0.52877 0.44602 0.54055 0.0
C3135 C 0.43033 0.44757 0.57548 0.0
C3136 C 0.4655 0.43563 0.54652 0.0
H3137 H 0.49511 0.40574 0.5523 0.0
C3138 C 0.47496 0.44655 0.53667 0.0
C3139 C 0.47281 0.42043 0.55164 0.0
C3140 C 0.46311 0.40723 0.56076 0.0
C3141 C 0.49148 0.44287 0.53211 0.0
C3142 C 0.49913 0.42818 0.5382 0.0
C3143 C 0.48954 0.41718 0.54784 0.0
C3144 C 0.51645 0.42306 0.53357 0.0
C3145 C 0.50031 0.45459 0.52045 0.0
C3146 C 0.51913 0.40699 0.52736 0.0
C3147 C 0.53488 0.40193 0.52226 0.0
C3148 C 0.54855 0.41287 0.52284 0.0
C3149 C 0.54615 0.42877 0.52974 0.0
C3150 C 0.53027 0.43375 0.53525 0.0
H3151 H 0.49139 0.46229 0.51324 0.0
H3152 H 0.50825 0.46316 0.52779 0.0
H3153 H 0.5083 0.4477 0.51154 0.0
H3154 H 0.50888 0.39837 0.52595 0.0
H3155 H 0.53611 0.38953 0.51713 0.0
H3156 H 0.64429 0.30184 0.24081 0.0
H3157 H 0.65463 0.27439 0.23271 0.0
H3158 H 0.70255 0.28628 0.25349 0.0
H3159 H 0.69223 0.31393 0.26154 0.0
H3160 H 0.68317 0.26284 0.21347 0.0
H3161 H 0.68594 0.24475 0.2802 0.0
H3162 H 0.67482 0.26295 0.27317 0.0
H3163 H 0.69708 0.26319 0.27423 0.0
C3164 C 0.65722 0.29885 0.24309 0.0
C3165 C 0.66751 0.31014 0.25161 0.0
C3166 C 0.66307 0.28308 0.23859 0.0
C3167 C 0.67926 0.27813 0.24277 0.0
C3168 C 0.68994 0.28975 0.25032 0.0
H3169 H 0.72823 0.18173 0.23553 0.0
H3170 H 0.71885 0.20913 0.24489 0.0
C3171 C 0.68413 0.30567 0.25465 0.0
C3172 C 0.68442 0.26051 0.24006 0.0
H3173 H 0.69313 0.22422 0.26054 0.0
C3174 C 0.68539 0.2544 0.22375 0.0
C3175 C 0.68734 0.24949 0.25349 0.0
C3176 C 0.68616 0.2553 0.27129 0.0
C3177 C 0.68934 0.23766 0.22047 0.0
C3178 C 0.69178 0.22647 0.2339 0.0
C3179 C 0.69104 0.23266 0.25024 0.0
C3180 C 0.69574 0.20849 0.23112 0.0
C3181 C 0.69128 0.23228 0.20258 0.0
C3182 C 0.68538 0.19841 0.22124 0.0
C3183 C 0.69075 0.18268 0.21593 0.0
C3184 C 0.70633 0.17653 0.2208 0.0
C3185 C 0.71589 0.18589 0.23207 0.0
C3186 C 0.71064 0.20171 0.2372 0.0
H3187 H 0.69375 0.24303 0.19427 0.0
H3188 H 0.70158 0.2232 0.20119 0.0
H3189 H 0.67961 0.22629 0.19832 0.0
H3190 H 0.67362 0.20314 0.21674 0.0
H3191 H 0.68337 0.17597 0.20686 0.0
H3192 H 0.48737 0.89706 0.98117 0.0
H3193 H 0.51554 0.90694 0.97547 0.0
H3194 H 0.50288 0.95494 0.99573 0.0
H3195 H 0.47455 0.94511 1.00135 0.0
H3196 H 0.52952 0.93612 0.95803 0.0
H3197 H 0.54094 0.93598 0.02635 0.0
H3198 H 0.52373 0.92499 0.01703 0.0
H3199 H 0.52307 0.94721 0.01896 0.0
C3200 C 0.49039 0.90994 0.98375 0.0
C3201 C 0.47869 0.92037 0.99153 0.0
C3202 C 0.50654 0.91552 0.98066 0.0
C3203 C 0.51141 0.93155 0.9855 0.0
C3204 C 0.49942 0.94244 0.99208 0.0
H3205 H 0.60687 0.9807 0.9893 0.0
H3206 H 0.57913 0.97026 0.99588 0.0
C3207 C 0.48315 0.93691 0.995 0.0
C3208 C 0.52926 0.93627 0.98476 0.0
H3209 H 0.56337 0.94351 1.00913 0.0
C3210 C 0.53694 0.93775 0.96919 0.0
C3211 C 0.53891 0.93837 0.99935 0.0
C3212 C 0.53136 0.93648 0.01641 0.0
C3213 C 0.55393 0.94155 0.96777 0.0
C3214 C 0.56371 0.94332 0.98237 0.0
C3215 C 0.55597 0.94193 0.99796 0.0
C3216 C 0.58174 0.94759 0.98159 0.0
C3217 C 0.5611 0.94412 0.95062 0.0
C3218 C 0.59296 0.93775 0.97245 0.0
C3219 C 0.60892 0.94369 0.96878 0.0
C3220 C 0.61402 0.95937 0.97451 0.0
C3221 C 0.60344 0.96833 0.98515 0.0
C3222 C 0.58746 0.96248 0.9887 0.0
H3223 H 0.55126 0.94671 0.94127 0.0
H3224 H 0.57008 0.95459 0.95052 0.0
H3225 H 0.56772 0.93267 0.94668 0.0
H3226 H 0.589 0.92601 0.96718 0.0
H3227 H 0.61664 0.93677 0.96017 0.0
H3228 H 0.08582 0.0685 0.50426 0.0
H3229 H 0.06123 0.05648 0.49063 0.0
H3230 H 0.04336 0.10578 0.47946 0.0
H3231 H 0.06775 0.11774 0.49287 0.0
H3232 H 0.0289 0.06222 0.50166 0.0
H3233 H 0.03469 0.08147 0.43587 0.0
H3234 H 0.05209 0.08157 0.45007 0.0
H3235 H 0.03743 0.09847 0.45008 0.0
C3236 C 0.07694 0.07672 0.49836 0.0
C3237 C 0.07879 0.09407 0.49957 0.0
C3238 C 0.06281 0.06986 0.49072 0.0
C3239 C 0.05045 0.08021 0.4839 0.0
C3240 C 0.0528 0.09749 0.48433 0.0
H3241 H 0.94421 0.06514 0.47481 0.0
H3242 H 0.97246 0.07328 0.48271 0.0
C3243 C 0.06677 0.10433 0.49205 0.0
C3244 C 0.03434 0.07328 0.4779 0.0
H3245 H 1.00736 0.07376 0.44501 0.0
C3246 C 0.02429 0.06456 0.4892 0.0
C3247 C 0.02829 0.07624 0.46163 0.0
C3248 C 0.03875 0.08481 0.44866 0.0
C3249 C 1.00819 0.05926 0.48487 0.0
C3250 C 1.00183 0.06297 0.46887 0.0
C3251 C 1.01211 0.07113 0.45736 0.0
C3252 C 0.98458 0.05841 0.46383 0.0
C3253 C 0.99816 0.04969 0.49748 0.0
C3254 C 0.98189 0.04775 0.45026 0.0
C3255 C 0.96575 0.04315 0.44565 0.0
C3256 C 0.95186 0.0492 0.45443 0.0
C3257 C 0.95457 0.06019 0.46779 0.0
C3258 C 0.97075 0.06476 0.47241 0.0
H3259 H 1.00621 0.04405 0.5072 0.0
H3260 H 0.98937 0.05829 0.50374 0.0
H3261 H 0.99085 0.03967 0.49142 0.0
H3262 H 0.99233 0.04276 0.44337 0.0
H3263 H 0.96418 0.03469 0.43527 0.0
H3264 H 0.13839 0.45341 0.40188 0.0
H3265 H 0.13958 0.42557 0.3893 0.0
H3266 H 0.16962 0.40835 0.43019 0.0
H3267 H 0.16865 0.43597 0.44276 0.0
H3268 H 0.17043 0.4039 0.38182 0.0
H3269 H 0.12619 0.37776 0.42784 0.0
H3270 H 0.12734 0.39973 0.42325 0.0
H3271 H 0.14268 0.39021 0.43639 0.0
C3272 C 0.14544 0.44376 0.40809 0.0
C3273 C 0.15337 0.44695 0.42339 0.0
C3274 C 0.14607 0.42786 0.40089 0.0
C3275 C 0.1545 0.41488 0.40894 0.0
C3276 C 0.16289 0.41817 0.42387 0.0
H3277 H 0.18226 0.31495 0.40797 0.0
H3278 H 0.17248 0.34311 0.41304 0.0
C3279 C 0.16237 0.43402 0.43101 0.0
C3280 C 0.1543 0.39769 0.40218 0.0
H3281 H 0.14171 0.35832 0.41179 0.0
C3282 C 0.16392 0.39393 0.38813 0.0
C3283 C 0.14572 0.38478 0.41043 0.0
C3284 C 0.13477 0.38826 0.42524 0.0
C3285 C 0.16606 0.37739 0.38276 0.0
C3286 C 0.1581 0.36435 0.39152 0.0
C3287 C 0.14778 0.36829 0.40504 0.0
C3288 C 0.16216 0.34655 0.38843 0.0
C3289 C 0.17766 0.37392 0.36844 0.0
C3290 C 0.15907 0.33876 0.37305 0.0
C3291 C 0.16466 0.32245 0.37009 0.0
C3292 C 0.17345 0.31376 0.38247 0.0
C3293 C 0.17563 0.32131 0.39811 0.0
C3294 C 0.17003 0.33745 0.40105 0.0
H3295 H 0.18485 0.38511 0.36475 0.0
H3296 H 0.18652 0.36385 0.37172 0.0
H3297 H 0.17033 0.36972 0.35753 0.0
H3298 H 0.15274 0.34543 0.36322 0.0
H3299 H 0.16285 0.317 0.3579 0.0
H3300 H 0.9506 0.90655 0.65683 0.0
H3301 H 0.92307 0.89406 0.65523 0.0
H3302 H 0.92754 0.89045 0.60191 0.0
H3303 H 0.95534 0.90306 0.60346 0.0
H3304 H 0.89884 0.90705 0.61239 0.0
H3305 H 0.90495 0.84751 0.64612 0.0
H3306 H 0.91378 0.86452 0.65754 0.0
H3307 H 0.92266 0.85856 0.63787 0.0
C3308 C 0.94595 0.90267 0.64478 0.0
C3309 C 0.9552 0.90574 0.63027 0.0
C3310 C 0.93019 0.89545 0.64389 0.0
C3311 C 0.92324 0.89115 0.62847 0.0
C3312 C 0.93271 0.89354 0.61397 0.0
H3313 H 0.82065 0.85191 0.63488 0.0
H3314 H 0.84926 0.85492 0.62454 0.0
C3315 C 0.94864 0.90063 0.61487 0.0
C3316 C 0.90547 0.88603 0.62761 0.0
H3317 H 0.87739 0.85955 0.6453 0.0
C3318 C 0.89419 0.89644 0.61928 0.0
C3319 C 0.89933 0.8721 0.63643 0.0
C3320 C 0.91084 0.85994 0.64486 0.0
C3321 C 0.87693 0.89396 0.62051 0.0
C3322 C 0.87077 0.88082 0.63044 0.0
C3323 C 0.88207 0.86972 0.6378 0.0
C3324 C 0.85286 0.87951 0.63489 0.0
C3325 C 0.86543 0.90575 0.61154 0.0
C3326 C 0.84532 0.89236 0.64398 0.0
C3327 C 0.82912 0.89064 0.64993 0.0
C3328 C 0.81998 0.87603 0.64692 0.0
C3329 C 0.82728 0.86339 0.63725 0.0
C3330 C 0.84365 0.86506 0.63143 0.0
H3331 H 0.8716 0.91144 0.60058 0.0
H3332 H 0.85397 0.89931 0.60734 0.0
H3333 H 0.86182 0.91594 0.62012 0.0
H3334 H 0.85223 0.90349 0.64708 0.0
H3335 H 0.82391 0.9006 0.65737 0.0
H3336 H 0.37829 0.7048 0.8434 0.0
H3337 H 0.38985 0.67646 0.84411 0.0
H3338 H 0.37584 0.67215 0.89569 0.0
H3339 H 0.36484 0.70027 0.8952 0.0
H3340 H 0.40529 0.65731 0.89006 0.0
H3341 H 0.35903 0.63663 0.84287 0.0
H3342 H 0.37329 0.65259 0.83653 0.0
H3343 H 0.35813 0.65694 0.85234 0.0
C3344 C 0.37809 0.69793 0.85498 0.0
C3345 C 0.37048 0.70475 0.86919 0.0
C3346 C 0.38451 0.68165 0.85532 0.0
C3347 C 0.38336 0.67196 0.86986 0.0
C3348 C 0.37681 0.67926 0.88429 0.0
H3349 H 0.36115 0.57628 0.89933 0.0
H3350 H 0.36355 0.60326 0.88588 0.0
C3351 C 0.37047 0.6954 0.88397 0.0
C3352 C 0.38772 0.65392 0.87019 0.0
H3353 H 0.37417 0.61597 0.85657 0.0
C3354 C 0.39876 0.64825 0.8825 0.0
C3355 C 0.37909 0.64207 0.8604 0.0
C3356 C 0.36663 0.64726 0.84736 0.0
C3357 C 0.40058 0.63121 0.88605 0.0
C3358 C 0.39144 0.61939 0.87669 0.0
C3359 C 0.38124 0.62501 0.86365 0.0
C3360 C 0.3901 0.60167 0.88202 0.0
C3361 C 0.41127 0.62614 0.90063 0.0
C3362 C 0.4041 0.59128 0.8836 0.0
C3363 C 0.40274 0.57569 0.89138 0.0
C3364 C 0.38736 0.57027 0.89765 0.0
C3365 C 0.37321 0.58011 0.89474 0.0
C3366 C 0.37456 0.59559 0.88703 0.0
H3367 H 0.41521 0.63698 0.90825 0.0
H3368 H 0.40452 0.6173 0.90879 0.0
H3369 H 0.42262 0.61984 0.89599 0.0
H3370 H 0.41618 0.59552 0.87949 0.0
H3371 H 0.41389 0.56843 0.89348 0.0
H3372 H 0.69829 0.13077 0.15597 0.0
H3373 H 0.67119 0.12757 0.14294 0.0
H3374 H 0.67127 0.17946 0.12949 0.0
H3375 H 0.69867 0.1828 0.14272 0.0
H3376 H 0.64256 0.16981 0.14612 0.0
H3377 H 0.65513 0.12571 0.09503 0.0
H3378 H 0.66385 0.11852 0.11426 0.0
H3379 H 0.67141 0.13748 0.10507 0.0
C3380 C 0.69276 0.14147 0.14993 0.0
C3381 C 0.70069 0.15705 0.15037 0.0
C3382 C 0.67725 0.13958 0.14237 0.0
C3383 C 0.66922 0.15321 0.13502 0.0
C3384 C 0.67729 0.16872 0.13495 0.0
H3385 H 0.57066 0.12473 0.09532 0.0
H3386 H 0.59727 0.1398 0.09635 0.0
C3387 C 0.69299 0.1706 0.14242 0.0
C3388 C 0.65177 0.15131 0.12907 0.0
H3389 H 0.62704 0.12554 0.10604 0.0
C3390 C 0.63918 0.16041 0.13706 0.0
C3391 C 0.64727 0.13923 0.11706 0.0
C3392 C 0.66016 0.12981 0.10724 0.0
C3393 C 0.62229 0.15684 0.13432 0.0
C3394 C 0.61784 0.14368 0.12348 0.0
C3395 C 0.63038 0.1355 0.1145 0.0
C3396 C 0.60064 0.13682 0.12289 0.0
C3397 C 0.60937 0.16686 0.1435 0.0
C3398 C 0.59355 0.13035 0.13745 0.0
C3399 C 0.57849 0.12176 0.13687 0.0
C3400 C 0.57008 0.11939 0.12172 0.0
C3401 C 0.57673 0.12654 0.10721 0.0
C3402 C 0.59198 0.13505 0.10777 0.0
H3403 H 0.61397 0.17959 0.14627 0.0
H3404 H 0.59767 0.16783 0.13623 0.0
H3405 H 0.60658 0.16071 0.15552 0.0
H3406 H 0.60009 0.13119 0.1492 0.0
H3407 H 0.57376 0.11636 0.14826 0.0
H3408 H 0.19058 0.69738 0.1248 0.0
H3409 H 0.18162 0.66853 0.12171 0.0
H3410 H 0.13823 0.67871 0.1514 0.0
H3411 H 0.14709 0.70773 0.15454 0.0
H3412 H 0.17621 0.64566 0.14837 0.0
H3413 H 0.11938 0.65449 0.10992 0.0
H3414 H 0.13518 0.67032 0.11177 0.0
H3415 H 0.12093 0.66679 0.12855 0.0
C3416 C 0.17902 0.69359 0.13053 0.0
C3417 C 0.16955 0.70495 0.1399 0.0
C3418 C 0.17394 0.67704 0.12879 0.0
C3419 C 0.1592 0.67145 0.13623 0.0
C3420 C 0.14953 0.68278 0.14535 0.0
H3421 H 0.11643 0.57043 0.12782 0.0
H3422 H 0.12117 0.59906 0.13757 0.0
C3423 C 0.15464 0.69938 0.14716 0.0
C3424 C 0.15448 0.65358 0.13492 0.0
H3425 H 0.12615 0.62704 0.11757 0.0
C3426 C 0.1652 0.6416 0.14172 0.0
C3427 C 0.14002 0.64827 0.12642 0.0
C3428 C 0.12821 0.66057 0.11862 0.0
C3429 C 0.16207 0.62449 0.13997 0.0
C3430 C 0.148 0.61914 0.13085 0.0
C3431 C 0.13693 0.63112 0.12457 0.0
C3432 C 0.14548 0.60133 0.12632 0.0
C3433 C 0.17394 0.6123 0.14787 0.0
C3434 C 0.15756 0.59304 0.11686 0.0
C3435 C 0.15491 0.57679 0.11134 0.0
C3436 C 0.14005 0.56836 0.11504 0.0
C3437 C 0.12808 0.57648 0.1249 0.0
C3438 C 0.13073 0.59288 0.13038 0.0
H3439 H 0.18042 0.61791 0.15872 0.0
H3440 H 0.1674 0.60088 0.15203 0.0
H3441 H 0.18353 0.60869 0.13864 0.0
H3442 H 0.16887 0.59935 0.11325 0.0
H3443 H 0.16438 0.57099 0.10373 0.0
H3444 H 0.70633 0.90659 0.37429 0.0
H3445 H 0.67838 0.91003 0.38546 0.0
H3446 H 0.67865 0.85912 0.40218 0.0
H3447 H 0.70687 0.85557 0.39097 0.0
H3448 H 0.65078 0.86769 0.38236 0.0
H3449 H 0.65955 0.91371 0.43278 0.0
H3450 H 0.66943 0.9198 0.41373 0.0
H3451 H 0.67647 0.90149 0.42448 0.0
C3452 C 0.70064 0.89621 0.38071 0.0
C3453 C 0.70889 0.88082 0.3818 0.0
C3454 C 0.68464 0.89823 0.38715 0.0
C3455 C 0.67641 0.8849 0.39481 0.0
C3456 C 0.68479 0.86963 0.39643 0.0
H3457 H 0.5749 0.90683 0.43122 0.0
H3458 H 0.60272 0.89414 0.43035 0.0
C3459 C 0.70096 0.86764 0.39013 0.0
C3460 C 0.6586 0.88668 0.39957 0.0
H3461 H 0.63197 0.91175 0.42125 0.0
C3462 C 0.64668 0.8771 0.39112 0.0
C3463 C 0.65317 0.89883 0.4111 0.0
C3464 C 0.66533 0.90894 0.42117 0.0
C3465 C 0.62956 0.88006 0.39312 0.0
C3466 C 0.62417 0.89303 0.40375 0.0
C3467 C 0.63605 0.90189 0.413 0.0
C3468 C 0.60655 0.89875 0.40412 0.0
C3469 C 0.61738 0.86955 0.3835 0.0
C3470 C 0.59936 0.90537 0.38966 0.0
C3471 C 0.5836 0.91265 0.39015 0.0
C3472 C 0.57456 0.91347 0.4051 0.0
C3473 C 0.58143 0.9062 0.41946 0.0
C3474 C 0.59738 0.89905 0.419 0.0
H3475 H 0.6228 0.85726 0.38022 0.0
H3476 H 0.60578 0.86754 0.39069 0.0
H3477 H 0.61412 0.876 0.37174 0.0
H3478 H 0.60625 0.90557 0.3781 0.0
H3479 H 0.57872 0.9182 0.37888 0.0
H3480 H 0.42524 0.45734 0.63738 0.0
H3481 H 0.42454 0.42937 0.64977 0.0
H3482 H 0.37258 0.4253 0.63738 0.0
H3483 H 0.37313 0.45308 0.62544 0.0
H3484 H 0.37922 0.41092 0.66724 0.0
H3485 H 0.42408 0.3889 0.61938 0.0
H3486 H 0.43118 0.40519 0.63293 0.0
H3487 H 0.41466 0.40923 0.61845 0.0
C3488 C 0.41358 0.45066 0.63778 0.0
C3489 C 0.39927 0.45741 0.63033 0.0
C3490 C 0.41323 0.43456 0.64465 0.0
C3491 C 0.39858 0.425 0.64416 0.0
C3492 C 0.38406 0.4323 0.63785 0.0
H3493 H 0.36949 0.32729 0.62691 0.0
H3494 H 0.38178 0.35491 0.62749 0.0
C3495 C 0.3844 0.44825 0.631 0.0
C3496 C 0.39826 0.40703 0.6489 0.0
H3497 H 0.4114 0.36868 0.63592 0.0
C3498 C 0.3865 0.40167 0.66064 0.0
C3499 C 0.40763 0.39492 0.64016 0.0
C3500 C 0.42003 0.39974 0.62693 0.0
C3501 C 0.3832 0.38467 0.66323 0.0
C3502 C 0.3922 0.37257 0.6541 0.0
C3503 C 0.4046 0.37791 0.64302 0.0
C3504 C 0.38716 0.35468 0.65386 0.0
C3505 C 0.36931 0.37987 0.67487 0.0
C3506 C 0.38673 0.34486 0.66836 0.0
C3507 C 0.37964 0.32887 0.66806 0.0
C3508 C 0.37289 0.32245 0.65323 0.0
C3509 C 0.37448 0.33185 0.63857 0.0
C3510 C 0.38153 0.34771 0.63888 0.0
H3511 H 0.36174 0.39077 0.67873 0.0
H3512 H 0.36097 0.37062 0.66892 0.0
H3513 H 0.37463 0.37415 0.68624 0.0
H3514 H 0.39132 0.34979 0.68002 0.0
H3515 H 0.37854 0.32199 0.67958 0.0
H3516 H 0.9549 0.12118 0.8766 0.0
H3517 H 0.92754 0.13393 0.87652 0.0
H3518 H 0.93268 0.1458 0.92859 0.0
H3519 H 0.96031 0.13265 0.92879 0.0
H3520 H 0.90394 0.12968 0.92249 0.0
H3521 H 0.90931 0.18032 0.87684 0.0
H3522 H 0.91743 0.1615 0.86811 0.0
H3523 H 0.92733 0.17061 0.88607 0.0
C3524 C 0.95045 0.12689 0.88797 0.0
C3525 C 0.95982 0.12591 0.9027 0.0
C3526 C 0.93477 0.13431 0.88787 0.0
C3527 C 0.92804 0.14107 0.90248 0.0
C3528 C 0.93766 0.1408 0.91711 0.0
H3529 H 0.82627 0.17427 0.87947 0.0
H3530 H 0.85339 0.17579 0.89349 0.0
C3531 C 0.9535 0.1334 0.9172 0.0
C3532 C 0.91029 0.14645 0.9026 0.0
H3533 H 0.88188 0.16733 0.87892 0.0
C3534 C 0.89916 0.13826 0.91325 0.0
C3535 C 0.90393 0.15791 0.89083 0.0
C3536 C 0.91519 0.16821 0.87996 0.0
C3537 C 0.88186 0.14007 0.91143 0.0
C3538 C 0.8755 0.15007 0.8984 0.0
C3539 C 0.88665 0.15943 0.88876 0.0
C3540 C 0.85776 0.14922 0.89303 0.0
C3541 C 0.8706 0.13082 0.9232 0.0
C3542 C 0.85094 0.13381 0.88851 0.0
C3543 C 0.83551 0.13293 0.88062 0.0
C3544 C 0.8265 0.14745 0.87692 0.0
C3545 C 0.83279 0.16284 0.88236 0.0
C3546 C 0.84836 0.16373 0.89024 0.0
H3547 H 0.87644 0.1296 0.93567 0.0
H3548 H 0.85842 0.13714 0.9246 0.0
H3549 H 0.86847 0.11807 0.91835 0.0
H3550 H 0.85802 0.12246 0.89008 0.0
H3551 H 0.83109 0.12089 0.87649 0.0
H3552 H 0.40053 0.10236 0.45733 0.0
H3553 H 0.38868 0.10267 0.42909 0.0
H3554 H 0.40079 0.1547 0.42464 0.0
H3555 H 0.41238 0.15452 0.45262 0.0
H3556 H 0.36986 0.14667 0.4107 0.0
H3557 H 0.42 0.10439 0.38851 0.0
H3558 H 0.40718 0.09703 0.40526 0.0
H3559 H 0.42082 0.11436 0.4086 0.0
C3560 C 0.40027 0.11394 0.45046 0.0
C3561 C 0.4075 0.12839 0.45719 0.0
C3562 C 0.39366 0.11406 0.43426 0.0
C3563 C 0.39412 0.12865 0.4246 0.0
C3564 C 0.40035 0.14328 0.43177 0.0
H3565 H 0.40729 0.15915 0.32629 0.0
H3566 H 0.40832 0.14791 0.35439 0.0
C3567 C 0.407 0.14314 0.44781 0.0
C3568 C 0.38932 0.12878 0.40668 0.0
H3569 H 0.40287 0.11643 0.36829 0.0
C3570 C 0.37683 0.13979 0.40142 0.0
C3571 C 0.39856 0.11994 0.39456 0.0
C3572 C 0.41247 0.10833 0.3994 0.0
C3573 C 0.37382 0.14278 0.38443 0.0
C3574 C 0.38344 0.13435 0.37231 0.0
C3575 C 0.39542 0.12278 0.37757 0.0
C3576 C 0.38293 0.13914 0.3544 0.0
C3577 C 0.36113 0.15572 0.3796 0.0
C3578 C 0.36847 0.13743 0.34471 0.0
C3579 C 0.36784 0.14385 0.32845 0.0
C3580 C 0.38167 0.15213 0.32167 0.0
C3581 C 0.39637 0.15295 0.33112 0.0
C3582 C 0.397 0.1465 0.34723 0.0
H3583 H 0.35659 0.1629 0.3905 0.0
H3584 H 0.36645 0.16455 0.37042 0.0
H3585 H 0.35031 0.14952 0.3737 0.0
H3586 H 0.35752 0.13157 0.34987 0.0
H3587 H 0.35632 0.14305 0.32154 0.0
H3588 H 0.12982 0.14527 0.57723 0.0
H3589 H 0.14103 0.14771 0.60524 0.0
H3590 H 0.15751 0.09673 0.60328 0.0
H3591 H 0.14609 0.09414 0.57498 0.0
H3592 H 0.13914 0.10359 0.63145 0.0
H3593 H 0.18747 0.15165 0.62428 0.0
H3594 H 0.16826 0.1582 0.61507 0.0
H3595 H 0.17902 0.14039 0.60676 0.0
C3596 C 0.13615 0.13464 0.58256 0.0
C3597 C 0.13708 0.11951 0.57381 0.0
C3598 C 0.14267 0.1361 0.59861 0.0
C3599 C 0.15033 0.12249 0.60638 0.0
C3600 C 0.15178 0.10746 0.59751 0.0
H3601 H 0.18349 0.14785 0.70828 0.0
H3602 H 0.18465 0.13425 0.68084 0.0
C3603 C 0.14534 0.10602 0.58129 0.0
C3604 C 0.1552 0.12375 0.62426 0.0
H3605 H 0.17517 0.14933 0.65175 0.0
C3606 C 0.14733 0.11335 0.63586 0.0
C3607 C 0.16608 0.13629 0.63014 0.0
C3608 C 0.17583 0.14714 0.61838 0.0
C3609 C 0.14904 0.11597 0.6531 0.0
C3610 C 0.15871 0.12949 0.65894 0.0
C3611 C 0.1676 0.13907 0.64736 0.0
C3612 C 0.15811 0.13518 0.67661 0.0
C3613 C 0.1401 0.10447 0.66488 0.0
C3614 C 0.14283 0.13995 0.68354 0.0
C3615 C 0.14216 0.14766 0.69909 0.0
C3616 C 0.15675 0.15084 0.70819 0.0
C3617 C 0.17201 0.14531 0.70171 0.0
C3618 C 0.17269 0.13768 0.68597 0.0
H3619 H 0.13859 0.09189 0.65935 0.0
H3620 H 0.14681 0.10329 0.67689 0.0
H3621 H 0.1275 0.10948 0.66738 0.0
H3622 H 0.13144 0.13856 0.6765 0.0
H3623 H 0.13022 0.15188 0.70366 0.0
H3624 H 0.12236 0.92808 0.95721 0.0
H3625 H 0.13579 0.92495 0.9299 0.0
H3626 H 0.1198 0.87384 0.9278 0.0
H3627 H 0.10655 0.87681 0.95489 0.0
H3628 H 0.15264 0.87891 0.91583 0.0
H3629 H 0.10698 0.92236 0.88716 0.0
H3630 H 0.11885 0.92999 0.90452 0.0
H3631 H 0.10397 0.91368 0.90763 0.0
C3632 C 0.12204 0.91608 0.95109 0.0
C3633 C 0.11329 0.90273 0.95822 0.0
C3634 C 0.12959 0.91435 0.9354 0.0
C3635 C 0.12858 0.89922 0.92665 0.0
C3636 C 0.12071 0.88565 0.93424 0.0
H3637 H 0.12184 0.86258 0.82955 0.0
H3638 H 0.11913 0.87536 0.8569 0.0
C3639 C 0.11311 0.88739 0.94977 0.0
C3640 C 0.13462 0.89751 0.90918 0.0
H3641 H 0.12488 0.90809 0.86914 0.0
C3642 C 0.14683 0.88553 0.90562 0.0
C3643 C 0.12689 0.90603 0.89584 0.0
C3644 C 0.11336 0.91867 0.89885 0.0
C3645 C 0.15105 0.88139 0.88912 0.0
C3646 C 0.14293 0.88953 0.87578 0.0
C3647 C 0.1312 0.90198 0.87936 0.0
C3648 C 0.14464 0.88364 0.85826 0.0
C3649 C 0.16342 0.86763 0.88608 0.0
C3650 C 0.15979 0.8845 0.84957 0.0
C3651 C 0.16136 0.87724 0.83371 0.0
C3652 C 0.14784 0.8689 0.82638 0.0
C3653 C 0.13254 0.86881 0.83483 0.0
C3654 C 0.13095 0.87614 0.85051 0.0
H3655 H 0.16694 0.86109 0.89773 0.0
H3656 H 0.15826 0.85838 0.8772 0.0
H3657 H 0.17484 0.87292 0.88047 0.0
H3658 H 0.17048 0.8904 0.85522 0.0
H3659 H 0.17333 0.87745 0.82757 0.0
H3660 H 0.41316 0.872 0.05952 0.0
H3661 H 0.40433 0.86895 0.08839 0.0
H3662 H 0.40648 0.92214 0.09483 0.0
H3663 H 0.41522 0.92526 0.06568 0.0
H3664 H 0.42676 0.90349 0.11713 0.0
H3665 H 0.36254 0.87892 0.11625 0.0
H3666 H 0.37614 0.8684 0.10201 0.0
H3667 H 0.37146 0.89005 0.0989 0.0
C3668 C 0.41108 0.8831 0.06689 0.0
C3669 C 0.41471 0.89887 0.06034 0.0
C3670 C 0.40604 0.88134 0.08341 0.0
C3671 C 0.40465 0.89531 0.09377 0.0
C3672 C 0.40734 0.9112 0.087 0.0
H3673 H 0.38166 0.87866 0.19954 0.0
H3674 H 0.38236 0.8915 0.17193 0.0
C3675 C 0.41216 0.91299 0.07032 0.0
C3676 C 0.40273 0.89289 0.112 0.0
H3677 H 0.37857 0.8734 0.14095 0.0
C3678 C 0.41608 0.89721 0.1224 0.0
C3679 C 0.38879 0.88473 0.1189 0.0
C3680 C 0.37384 0.88038 0.10847 0.0
C3681 C 0.41624 0.89277 0.13931 0.0
C3682 C 0.40275 0.88371 0.14596 0.0
C3683 C 0.38899 0.88021 0.13579 0.0
C3684 C 0.40311 0.87688 0.16312 0.0
C3685 C 0.431 0.89749 0.14986 0.0
C3686 C 0.41461 0.86445 0.16737 0.0
C3687 C 0.4142 0.85701 0.1831 0.0
C3688 C 0.4023 0.8619 0.19494 0.0
C3689 C 0.39107 0.87467 0.19079 0.0
C3690 C 0.3914 0.88199 0.17498 0.0
H3691 H 0.43814 0.90789 0.14425 0.0
H3692 H 0.42703 0.90115 0.16257 0.0
H3693 H 0.43942 0.88662 0.15097 0.0
H3694 H 0.42362 0.86015 0.15833 0.0
H3695 H 0.42298 0.84718 0.18584 0.0
H3696 H 0.45349 0.39991 0.14544 0.0
H3697 H 0.42643 0.38666 0.14827 0.0
H3698 H 0.42763 0.37267 0.0965 0.0
H3699 H 0.455 0.38602 0.09359 0.0
H3700 H 0.39882 0.39022 0.10579 0.0
H3701 H 0.41002 0.33858 0.14969 0.0
H3702 H 0.41896 0.35771 0.15688 0.0
H3703 H 0.42656 0.3483 0.13804 0.0
C3704 C 0.44823 0.39363 0.13474 0.0
C3705 C 0.45643 0.39396 0.1193 0.0
C3706 C 0.43275 0.38598 0.1364 0.0
C3707 C 0.42501 0.3785 0.12266 0.0
C3708 C 0.43342 0.37824 0.10732 0.0
H3709 H 0.32515 0.33889 0.1462 0.0
H3710 H 0.35246 0.34035 0.13254 0.0
C3711 C 0.44911 0.38576 0.10569 0.0
C3712 C 0.40748 0.37275 0.12416 0.0
H3713 H 0.382 0.34956 0.14897 0.0
C3714 C 0.39516 0.38103 0.11496 0.0
C3715 C 0.40263 0.36066 0.13598 0.0
C3716 C 0.41526 0.35068 0.14559 0.0
C3717 C 0.37818 0.37843 0.11812 0.0
C3718 C 0.37336 0.36736 0.13092 0.0
C3719 C 0.38565 0.35817 0.13926 0.0
C3720 C 0.35595 0.36662 0.13718 0.0
C3721 C 0.36554 0.38794 0.10807 0.0
C3722 C 0.34874 0.3809 0.14416 0.0
C3723 C 0.33328 0.38008 0.15199 0.0
C3724 C 0.32458 0.36496 0.15304 0.0
C3725 C 0.33144 0.35077 0.14543 0.0
C3726 C 0.34709 0.35156 0.13772 0.0
H3727 H 0.37054 0.39136 0.09565 0.0
H3728 H 0.35397 0.38062 0.10634 0.0
H3729 H 0.36235 0.39963 0.11469 0.0
H3730 H 0.35543 0.39259 0.14422 0.0
H3731 H 0.3284 0.39124 0.15776 0.0
H3732 H 0.91226 0.95882 0.12243 0.0
H3733 H 0.908 0.93058 0.13341 0.0
H3734 H 0.86024 0.92842 0.10923 0.0
H3735 H 0.86423 0.95642 0.09852 0.0
H3736 H 0.8595 0.91575 0.1412 0.0
H3737 H 0.91164 0.88833 0.10493 0.0
H3738 H 0.91681 0.90533 0.11851 0.0
H3739 H 0.90369 0.90891 0.10081 0.0
C3740 C 0.90076 0.9524 0.11968 0.0
C3741 C 0.88864 0.95988 0.10951 0.0
C3742 C 0.89841 0.93619 0.12581 0.0
C3743 C 0.88392 0.92722 0.12188 0.0
C3744 C 0.87156 0.935 0.11236 0.0
H3745 H 0.8366 0.83248 0.12513 0.0
H3746 H 0.84594 0.86108 0.12127 0.0
C3747 C 0.87389 0.95107 0.10623 0.0
C3748 C 0.88147 0.90964 0.12723 0.0
H3749 H 0.89526 0.8699 0.12061 0.0
C3750 C 0.86743 0.90576 0.13684 0.0
C3751 C 0.89181 0.89655 0.12155 0.0
C3752 C 0.90678 0.89987 0.11078 0.0
C3753 C 0.86324 0.88921 0.14057 0.0
C3754 C 0.87319 0.8761 0.13434 0.0
C3755 C 0.88761 0.87996 0.12532 0.0
C3756 C 0.86815 0.85838 0.13617 0.0
C3757 C 0.84803 0.88587 0.151 0.0
C3758 C 0.87782 0.84713 0.14539 0.0
C3759 C 0.87251 0.83065 0.14763 0.0
C3760 C 0.8575 0.82508 0.14054 0.0
C3761 C 0.84818 0.83629 0.13085 0.0
C3762 C 0.85345 0.85271 0.12869 0.0
H3763 H 0.84446 0.89693 0.15848 0.0
H3764 H 0.83747 0.88274 0.1427 0.0
H3765 H 0.85012 0.87522 0.15953 0.0
H3766 H 0.88928 0.85121 0.15117 0.0
H3767 H 0.88001 0.82237 0.15515 0.0
H3768 H 0.20058 0.62825 0.65909 0.0
H3769 H 0.17292 0.62771 0.64677 0.0
H3770 H 0.17611 0.68027 0.63678 0.0
H3771 H 0.20408 0.68089 0.64919 0.0
H3772 H 0.1474 0.67085 0.65459 0.0
H3773 H 0.1551 0.63088 0.59916 0.0
H3774 H 0.16424 0.62186 0.61741 0.0
H3775 H 0.17242 0.64102 0.60926 0.0
C3776 C 0.19561 0.63964 0.65389 0.0
C3777 C 0.20457 0.65461 0.65506 0.0
C3778 C 0.17977 0.6393 0.64678 0.0
C3779 C 0.17244 0.65391 0.64068 0.0
C3780 C 0.18157 0.66881 0.64128 0.0
H3781 H 0.07079 0.63927 0.60131 0.0
H3782 H 0.09884 0.65119 0.60359 0.0
C3783 C 0.19759 0.66913 0.64826 0.0
C3784 C 0.1547 0.65364 0.63539 0.0
H3785 H 0.12744 0.63224 0.61078 0.0
C3786 C 0.14306 0.66269 0.64476 0.0
C3787 C 0.14897 0.64315 0.62246 0.0
C3788 C 0.16086 0.6338 0.61138 0.0
C3789 C 0.12587 0.66063 0.6423 0.0
C3790 C 0.12014 0.64912 0.63027 0.0
C3791 C 0.13178 0.64097 0.62011 0.0
C3792 C 0.10238 0.64397 0.62927 0.0
C3793 C 0.11398 0.67045 0.65296 0.0
C3794 C 0.09495 0.63615 0.64297 0.0
C3795 C 0.07905 0.62931 0.64168 0.0
C3796 C 0.07012 0.63014 0.62665 0.0
C3797 C 0.07724 0.63861 0.61312 0.0
C3798 C 0.09331 0.64533 0.61437 0.0
H3799 H 0.11974 0.6822 0.65742 0.0
H3800 H 0.10243 0.6735 0.64604 0.0
H3801 H 0.11058 0.66296 0.66403 0.0
H3802 H 0.10176 0.63465 0.6545 0.0
H3803 H 0.07398 0.62281 0.65232 0.0
H3804 H 0.65828 0.95715 0.90447 0.0
H3805 H 0.65969 0.92944 0.89223 0.0
H3806 H 0.60619 0.92703 0.89122 0.0
H3807 H 0.60474 0.95506 0.90349 0.0
H3808 H 0.62115 0.90081 0.90848 0.0
H3809 H 0.65098 0.90789 0.84706 0.0
H3810 H 0.66184 0.91923 0.86291 0.0
H3811 H 0.64087 0.92497 0.85761 0.0
C3812 C 0.6468 0.95098 0.90107 0.0
C3813 C 0.6314 0.95831 0.90481 0.0
C3814 C 0.64762 0.93513 0.89402 0.0
C3815 C 0.63306 0.92616 0.89064 0.0
C3816 C 0.61759 0.93379 0.89357 0.0
H3817 H 0.65313 0.82249 0.85867 0.0
H3818 H 0.63858 0.84941 0.85978 0.0
C3819 C 0.61676 0.94984 0.90044 0.0
C3820 C 0.63432 0.90819 0.88637 0.0
H3821 H 0.65512 0.88132 0.86084 0.0
C3822 C 0.62821 0.89652 0.89782 0.0
C3823 C 0.6434 0.9025 0.87241 0.0
C3824 C 0.6495 0.91431 0.85921 0.0
C3825 C 0.63204 0.87952 0.89637 0.0
C3826 C 0.64235 0.87405 0.88321 0.0
C3827 C 0.64735 0.88551 0.87104 0.0
C3828 C 0.64973 0.85709 0.88304 0.0
C3829 C 0.62557 0.86762 0.90932 0.0
C3830 C 0.66075 0.85247 0.89574 0.0
C3831 C 0.66912 0.83727 0.89507 0.0
C3832 C 0.66664 0.82626 0.8817 0.0
C3833 C 0.65519 0.83063 0.86921 0.0
C3834 C 0.64693 0.84602 0.86979 0.0
H3835 H 0.6141 0.87246 0.9153 0.0
H3836 H 0.62289 0.85524 0.90381 0.0
H3837 H 0.6351 0.866 0.91917 0.0
H3838 H 0.66332 0.8609 0.90594 0.0
H3839 H 0.67786 0.83432 0.90489 0.0
H3840 H 0.84215 0.20702 0.40289 0.0
H3841 H 0.85337 0.17954 0.40873 0.0
H3842 H 0.88104 0.18076 0.36289 0.0
H3843 H 0.86972 0.20859 0.35681 0.0
H3844 H 0.84841 0.15148 0.38475 0.0
H3845 H 0.91455 0.16414 0.40095 0.0
H3846 H 0.89871 0.17989 0.40341 0.0
H3847 H 0.90542 0.17402 0.383 0.0
C3848 C 0.8508 0.20164 0.39408 0.0
C3849 C 0.85495 0.21004 0.37931 0.0
C3850 C 0.8572 0.18587 0.39747 0.0
C3851 C 0.86801 0.17808 0.38626 0.0
C3852 C 0.87279 0.18661 0.37178 0.0
H3853 H 0.90662 0.07661 0.40744 0.0
H3854 H 0.90177 0.10281 0.39231 0.0
C3855 C 0.86634 0.20252 0.36834 0.0
C3856 C 0.87309 0.16059 0.38948 0.0
H3857 H 0.90473 0.13687 0.4051 0.0
C3858 C 0.8608 0.14823 0.38892 0.0
C3859 C 0.88929 0.15633 0.39481 0.0
C3860 C 0.90284 0.16922 0.39567 0.0
C3861 C 0.86406 0.13191 0.39423 0.0
C3862 C 0.87995 0.12788 0.40059 0.0
C3863 C 0.89254 0.13998 0.40027 0.0
C3864 C 0.88302 0.11185 0.40933 0.0
C3865 C 0.85029 0.11922 0.39342 0.0
C3866 C 0.87421 0.1083 0.42394 0.0
C3867 C 0.87695 0.09349 0.43256 0.0
C3868 C 0.88862 0.08178 0.42683 0.0
C3869 C 0.89746 0.08529 0.41213 0.0
C3870 C 0.89476 0.10028 0.40352 0.0
H3871 H 0.84091 0.12256 0.38384 0.0
H3872 H 0.85524 0.10664 0.3906 0.0
H3873 H 0.8439 0.11872 0.40563 0.0
H3874 H 0.86528 0.11713 0.42882 0.0
H3875 H 0.86994 0.09129 0.44383 0.0
H3876 H 0.65659 0.20584 0.6297 0.0
H3877 H 0.64472 0.17809 0.62702 0.0
H3878 H 0.62717 0.18059 0.6776 0.0
H3879 H 0.6391 0.20864 0.68038 0.0
H3880 H 0.6462 0.1518 0.67027 0.0
H3881 H 0.59697 0.16064 0.6231 0.0
H3882 H 0.61634 0.16983 0.617 0.0
H3883 H 0.60555 0.1777 0.63496 0.0
C3884 C 0.64988 0.20068 0.64017 0.0
C3885 C 0.64875 0.2095 0.65525 0.0
C3886 C 0.64302 0.1848 0.63858 0.0
C3887 C 0.63489 0.17727 0.65204 0.0
C3888 C 0.63327 0.18621 0.667 0.0
H3889 H 0.59728 0.07607 0.63039 0.0
H3890 H 0.59809 0.1039 0.64316 0.0
C3891 C 0.64 0.20227 0.66855 0.0
C3892 C 0.62962 0.15955 0.65072 0.0
H3893 H 0.60797 0.13282 0.62573 0.0
C3894 C 0.63756 0.14767 0.66077 0.0
C3895 C 0.61822 0.15409 0.63846 0.0
C3896 C 0.60865 0.16625 0.62787 0.0
C3897 C 0.63527 0.13052 0.65813 0.0
C3898 C 0.62487 0.12507 0.645 0.0
C3899 C 0.61604 0.13694 0.63572 0.0
C3900 C 0.62448 0.10738 0.63946 0.0
C3901 C 0.64439 0.11836 0.66911 0.0
C3902 C 0.63904 0.09997 0.63335 0.0
C3903 C 0.63858 0.08422 0.62603 0.0
C3904 C 0.62356 0.0754 0.62466 0.0
C3905 C 0.60908 0.08244 0.63147 0.0
C3906 C 0.60951 0.09839 0.63866 0.0
H3907 H 0.64729 0.12392 0.68143 0.0
H3908 H 0.63702 0.10685 0.67102 0.0
H3909 H 0.65631 0.11491 0.66311 0.0
H3910 H 0.65068 0.10673 0.63352 0.0
H3911 H 0.64994 0.0792 0.62083 0.0
H3912 H 0.07687 0.40942 0.88267 0.0
H3913 H 0.10365 0.39567 0.88023 0.0
H3914 H 0.0987 0.37654 0.93006 0.0
H3915 H 0.07167 0.39062 0.93271 0.0
H3916 H 0.12876 0.39153 0.9252 0.0
H3917 H 0.11762 0.34802 0.87343 0.0
H3918 H 0.11086 0.36852 0.86789 0.0
H3919 H 0.10084 0.3577 0.88476 0.0
C3920 C 0.08126 0.40204 0.89305 0.0
C3921 C 0.07205 0.40112 0.90789 0.0
C3922 C 0.09659 0.39405 0.89157 0.0
C3923 C 0.10317 0.38482 0.90484 0.0
C3924 C 0.09384 0.38347 0.91958 0.0
H3925 H 0.20053 0.34503 0.87444 0.0
H3926 H 0.17388 0.34451 0.88943 0.0
C3927 C 0.07834 0.39144 0.92105 0.0
C3928 C 0.1204 0.37807 0.90358 0.0
H3929 H 0.14614 0.35762 0.87669 0.0
C3930 C 0.1325 0.38377 0.91482 0.0
C3931 C 0.12537 0.36764 0.89028 0.0
C3932 C 0.11293 0.35997 0.87853 0.0
C3933 C 0.1495 0.38051 0.91229 0.0
C3934 C 0.15459 0.37158 0.89797 0.0
C3935 C 0.14237 0.36467 0.88756 0.0
C3936 C 0.17224 0.37125 0.89226 0.0
C3937 C 0.16186 0.38712 0.92475 0.0
C3938 C 0.18049 0.38634 0.88931 0.0
C3939 C 0.19564 0.38661 0.88087 0.0
C3940 C 0.20296 0.37182 0.87513 0.0
C3941 C 0.19537 0.35658 0.87905 0.0
C3942 C 0.18005 0.35631 0.88745 0.0
H3943 H 0.15639 0.38745 0.93743 0.0
H3944 H 0.17334 0.37947 0.92506 0.0
H3945 H 0.16523 0.40006 0.92137 0.0
H3946 H 0.17466 0.39807 0.89244 0.0
H3947 H 0.20108 0.39854 0.87781 0.0
H3948 H 0.32548 0.67857 0.38916 0.0
H3949 H 0.35287 0.67467 0.40222 0.0
H3950 H 0.35598 0.62554 0.38097 0.0
H3951 H 0.32884 0.62927 0.36806 0.0
H3952 H 0.36739 0.62753 0.41452 0.0
H3953 H 0.39593 0.67555 0.37367 0.0
H3954 H 0.37827 0.68167 0.38593 0.0
H3955 H 0.37571 0.66684 0.36945 0.0
C3956 C 0.33187 0.66683 0.38756 0.0
C3957 C 0.32499 0.65428 0.37748 0.0
C3958 C 0.34759 0.66467 0.39491 0.0
C3959 C 0.35661 0.64989 0.39238 0.0
C3960 C 0.34932 0.63706 0.38307 0.0
H3961 H 0.45354 0.61442 0.38305 0.0
H3962 H 0.42642 0.62778 0.38131 0.0
C3963 C 0.33377 0.63924 0.37566 0.0
C3964 C 0.374 0.64783 0.39845 0.0
H3965 H 0.41395 0.65968 0.39019 0.0
C3966 C 0.37757 0.63478 0.4095 0.0
C3967 C 0.38728 0.65719 0.39173 0.0
C3968 C 0.38425 0.67105 0.37945 0.0
C3969 C 0.39404 0.63041 0.41347 0.0
C3970 C 0.40735 0.63941 0.40631 0.0
C3971 C 0.40375 0.6529 0.3958 0.0
C3972 C 0.42485 0.63347 0.40755 0.0
C3973 C 0.39711 0.61552 0.42447 0.0
C3974 C 0.43339 0.63276 0.42282 0.0
C3975 C 0.44912 0.62517 0.42385 0.0
C3976 C 0.45645 0.61808 0.40962 0.0
C3977 C 0.44823 0.61968 0.39426 0.0
C3978 C 0.43269 0.62734 0.39323 0.0
H3979 H 0.3855 0.60857 0.4272 0.0
H3980 H 0.4061 0.6069 0.41851 0.0
H3981 H 0.40255 0.61972 0.43643 0.0
H3982 H 0.42768 0.63759 0.43402 0.0
H3983 H 0.45508 0.62404 0.43587 0.0
H3984 H 0.90677 0.6003 0.96142 0.0
H3985 H 0.89444 0.60381 0.93363 0.0
H3986 H 0.91403 0.65362 0.93125 0.0
H3987 H 0.92623 0.65028 0.95881 0.0
H3988 H 0.88104 0.65062 0.91885 0.0
H3989 H 0.92405 0.60387 0.89131 0.0
H3990 H 0.91155 0.59727 0.90863 0.0
H3991 H 0.92739 0.61266 0.9117 0.0
C3992 C 0.90816 0.6121 0.9551 0.0
C3993 C 0.91758 0.62497 0.96233 0.0
C3994 C 0.90124 0.61404 0.93915 0.0
C3995 C 0.90353 0.62891 0.93022 0.0
C3996 C 0.91214 0.64202 0.93783 0.0
H3997 H 0.91205 0.66336 0.83201 0.0
H3998 H 0.91456 0.65082 0.8595 0.0
C3999 C 0.91913 0.64007 0.95363 0.0
C4000 C 0.89786 0.63078 0.91266 0.0
H4001 H 0.9071 0.61881 0.87287 0.0
C4002 C 0.88648 0.64346 0.9088 0.0
C4003 C 0.90513 0.62156 0.89953 0.0
C4004 C 0.9178 0.60813 0.90287 0.0
C4005 C 0.8826 0.64752 0.89221 0.0
C4006 C 0.8902 0.63859 0.87907 0.0
C4007 C 0.90115 0.62554 0.88294 0.0
C4008 C 0.88864 0.64404 0.86141 0.0
C4009 C 0.87113 0.66199 0.88884 0.0
C4010 C 0.87333 0.64385 0.85296 0.0
C4011 C 0.87187 0.65095 0.83704 0.0
C4012 C 0.88568 0.65845 0.82939 0.0
C4013 C 0.90114 0.65775 0.83754 0.0
C4014 C 0.90261 0.65057 0.8533 0.0
H4015 H 0.86821 0.66912 0.90032 0.0
H4016 H 0.87675 0.67058 0.87962 0.0
H4017 H 0.8593 0.65729 0.88354 0.0
H4018 H 0.86242 0.63869 0.85888 0.0
H4019 H 0.85977 0.65137 0.83115 0.0
H4020 H 0.5769 0.66998 0.07313 0.0
H4021 H 0.58869 0.67431 0.10065 0.0
H4022 H 0.6181 0.62981 0.09529 0.0
H4023 H 0.60618 0.6253 0.06741 0.0
H4024 H 0.59934 0.63199 0.1257 0.0
H4025 H 0.63534 0.68945 0.11464 0.0
H4026 H 0.61458 0.69083 0.10664 0.0
H4027 H 0.6288 0.67589 0.09795 0.0
C4028 C 0.58606 0.6612 0.07764 0.0
C4029 C 0.59062 0.6473 0.06805 0.0
C4030 C 0.59286 0.66375 0.09338 0.0
C4031 C 0.60441 0.6525 0.09997 0.0
C4032 C 0.60928 0.63871 0.09037 0.0
H4033 H 0.63791 0.65915 0.2049 0.0
H4034 H 0.63488 0.64855 0.1764 0.0
C4035 C 0.60255 0.6362 0.07443 0.0
C4036 C 0.61037 0.65487 0.1173 0.0
H4037 H 0.62693 0.68438 0.14296 0.0
C4038 C 0.60573 0.64324 0.12948 0.0
C4039 C 0.61871 0.66955 0.1222 0.0
C4040 C 0.6248 0.68207 0.10964 0.0
C4041 C 0.60822 0.64647 0.14651 0.0
C4042 C 0.61563 0.66165 0.15141 0.0
C4043 C 0.62109 0.67282 0.13918 0.0
C4044 C 0.61663 0.66689 0.16909 0.0
C4045 C 0.60208 0.63414 0.15921 0.0
C4046 C 0.60726 0.68059 0.17445 0.0
C4047 C 0.60892 0.68663 0.19066 0.0
C4048 C 0.6201 0.67919 0.20187 0.0
C4049 C 0.62913 0.66512 0.19662 0.0
C4050 C 0.62742 0.65904 0.18035 0.0
H4051 H 0.59485 0.62388 0.15344 0.0
H4052 H 0.61285 0.62866 0.16587 0.0
H4053 H 0.59416 0.64048 0.16857 0.0
H4054 H 0.59885 0.68681 0.16597 0.0
H4055 H 0.60176 0.69747 0.19422 0.0
H4056 H 0.66832 0.38426 0.32044 0.0
H4057 H 0.66717 0.39704 0.34824 0.0
H4058 H 0.61833 0.37637 0.35565 0.0
H4059 H 0.61924 0.36396 0.32807 0.0
H4060 H 0.62052 0.40815 0.36767 0.0
H4061 H 0.67331 0.36978 0.39064 0.0
H4062 H 0.67743 0.38293 0.37306 0.0
H4063 H 0.66331 0.36577 0.37096 0.0
C4064 C 0.65722 0.38272 0.32789 0.0
C4065 C 0.64393 0.37297 0.32202 0.0
C4066 C 0.65665 0.38988 0.34386 0.0
C4067 C 0.64278 0.38741 0.35424 0.0
C4068 C 0.62921 0.37842 0.34799 0.0
H4069 H 0.61982 0.37443 0.45435 0.0
H4070 H 0.63127 0.37429 0.42633 0.0
C4071 C 0.62977 0.37129 0.33215 0.0
C4072 C 0.64236 0.39332 0.37188 0.0
H4073 H 0.65898 0.38576 0.41033 0.0
C4074 C 0.62912 0.40352 0.37698 0.0
C4075 C 0.65349 0.38716 0.38407 0.0
C4076 C 0.66764 0.37571 0.37953 0.0
C4077 C 0.62621 0.40705 0.39389 0.0
C4078 C 0.63705 0.40046 0.40614 0.0
C4079 C 0.65076 0.39094 0.40097 0.0
C4080 C 0.63288 0.40106 0.42425 0.0
C4081 C 0.61091 0.41685 0.39856 0.0
C4082 C 0.63071 0.41616 0.4329 0.0
C4083 C 0.62416 0.41626 0.44914 0.0
C4084 C 0.61968 0.40126 0.45693 0.0
C4085 C 0.6231 0.38621 0.4487 0.0
C4086 C 0.62965 0.38611 0.43262 0.0
H4087 H 0.60239 0.41863 0.38782 0.0
H4088 H 0.60398 0.41051 0.40866 0.0
H4089 H 0.61467 0.42931 0.40314 0.0
H4090 H 0.63341 0.42787 0.42686 0.0
H4091 H 0.62154 0.42806 0.45509 0.0
H4092 H 0.91599 0.33595 0.69582 0.0
H4093 H 0.91777 0.34766 0.66797 0.0
H4094 H 0.87654 0.38016 0.6787 0.0
H4095 H 0.87469 0.36848 0.70691 0.0
H4096 H 0.891 0.34612 0.64464 0.0
H4097 H 0.91189 0.41108 0.65668 0.0
H4098 H 0.9145 0.39472 0.67185 0.0
H4099 H 0.89433 0.40348 0.66825 0.0
C4100 C 0.9074 0.34575 0.69241 0.0
C4101 C 0.89514 0.35124 0.70361 0.0
C4102 C 0.90844 0.35241 0.67644 0.0
C4103 C 0.89731 0.36477 0.67124 0.0
C4104 C 0.88538 0.37075 0.68252 0.0
H4105 H 0.89843 0.40816 0.57013 0.0
H4106 H 0.88921 0.40155 0.59851 0.0
C4107 C 0.88433 0.36407 0.69862 0.0
C4108 C 0.89779 0.37041 0.65366 0.0
H4109 H 0.90902 0.40289 0.6287 0.0
C4110 C 0.89476 0.3586 0.64116 0.0
C4111 C 0.90254 0.38672 0.64914 0.0
C4112 C 0.90611 0.39978 0.66212 0.0
C4113 C 0.89694 0.36246 0.62429 0.0
C4114 C 0.90254 0.37849 0.61978 0.0
C4115 C 0.90477 0.39058 0.63221 0.0
C4116 C 0.90762 0.38235 0.60246 0.0
C4117 C 0.89351 0.34923 0.61142 0.0
C4118 C 0.92105 0.37382 0.59534 0.0
C4119 C 0.92634 0.37756 0.57924 0.0
C4120 C 0.91834 0.38997 0.56986 0.0
C4121 C 0.90479 0.39846 0.57697 0.0
C4122 C 0.89955 0.39475 0.59319 0.0
H4123 H 0.88483 0.33962 0.61622 0.0
H4124 H 0.88817 0.35471 0.59993 0.0
H4125 H 0.90533 0.34295 0.60811 0.0
H4126 H 0.92763 0.36439 0.60236 0.0
H4127 H 0.93685 0.37081 0.57422 0.0
loop_
_geom_bond_atom_site_label_1
_geom_bond_atom_site_label_2
_geom_bond_distance
_geom_bond_site_symmetry_2
_ccdc_geom_bond_type
C0 O2 1.247 . S
C0 O4 1.258 . S
C1 O8 1.247 . S
C1 O9 1.258 . S
O2 C0 1.247 . S
O2 Zn3 2.028 . S
Zn3 O2 2.028 . S
Zn3 O7 2.035 . S
Zn3 O9 2.035 . S
Zn3 O10 2.028 . S
O4 C0 1.258 . S
O4 Zn5 2.035 . S
Zn5 O4 2.035 . S
Zn5 O6 2.028 . S
Zn5 O8 2.028 . S
Zn5 O11 2.035 . S
O6 Zn5 2.028 . S
O6 C12 1.247 . S
O7 Zn3 2.035 . S
O7 C12 1.258 . S
O8 C1 1.247 . S
O8 Zn5 2.028 . S
O9 C1 1.258 . S
O9 Zn3 2.035 . S
O10 Zn3 2.028 . S
O10 C13 1.247 . S
O11 Zn5 2.035 . S
O11 C13 1.258 . S
C12 O6 1.247 . S
C12 O7 1.258 . S
C13 O10 1.247 . S
C13 O11 1.258 . S
C14 O16 1.247 . S
C14 O18 1.258 . S
C15 O22 1.247 . S
C15 O23 1.258 . S
O16 C14 1.247 . S
O16 Zn17 2.028 . S
Zn17 O16 2.028 . S
Zn17 O21 2.035 . S
Zn17 O23 2.035 . S
Zn17 O24 2.028 . S
O18 C14 1.258 . S
O18 Zn19 2.035 . S
Zn19 O18 2.035 . S
Zn19 O20 2.028 1_655 S
Zn19 O22 2.028 . S
Zn19 O25 2.035 . S
O20 Zn19 2.028 1_455 S
O20 C26 1.247 . S
O21 Zn17 2.035 . S
O21 C26 1.258 1_655 S
O22 C15 1.247 . S
O22 Zn19 2.028 . S
O23 C15 1.258 . S
O23 Zn17 2.035 . S
O24 Zn17 2.028 . S
O24 C27 1.247 . S
O25 Zn19 2.035 . S
O25 C27 1.258 . S
C26 O20 1.247 . S
C26 O21 1.258 1_455 S
C27 O24 1.247 . S
C27 O25 1.258 . S
C28 O30 1.247 . S
C28 O32 1.258 . S
C29 O36 1.247 . S
C29 O37 1.258 . S
O30 C28 1.247 . S
O30 Zn31 2.028 . S
Zn31 O30 2.028 . S
Zn31 O35 2.035 . S
Zn31 O37 2.035 . S
Zn31 O38 2.028 . S
O32 C28 1.258 . S
O32 Zn33 2.035 . S
Zn33 O32 2.035 . S
Zn33 O34 2.028 . S
Zn33 O36 2.028 . S
Zn33 O39 2.035 . S
O34 Zn33 2.028 . S
O34 C40 1.247 . S
O35 Zn31 2.035 . S
O35 C40 1.258 . S
O36 C29 1.247 . S
O36 Zn33 2.028 . S
O37 C29 1.258 . S
O37 Zn31 2.035 . S
O38 Zn31 2.028 . S
O38 C41 1.247 . S
O39 Zn33 2.035 . S
O39 C41 1.258 . S
C40 O34 1.247 . S
C40 O35 1.258 . S
C41 O38 1.247 . S
C41 O39 1.258 . S
C42 O44 1.247 . S
C42 O46 1.258 . S
C43 O50 1.247 . S
C43 O51 1.258 . S
O44 C42 1.247 . S
O44 Zn45 2.028 . S
Zn45 O44 2.028 . S
Zn45 O49 2.035 . S
Zn45 O51 2.035 . S
Zn45 O52 2.028 . S
O46 C42 1.258 . S
O46 Zn47 2.035 . S
Zn47 O46 2.035 . S
Zn47 O48 2.028 . S
Zn47 O50 2.028 . S
Zn47 O53 2.035 . S
O48 Zn47 2.028 . S
O48 C54 1.247 . S
O49 Zn45 2.035 . S
O49 C54 1.258 . S
O50 C43 1.247 . S
O50 Zn47 2.028 . S
O51 C43 1.258 . S
O51 Zn45 2.035 . S
O52 Zn45 2.028 . S
O52 C55 1.247 . S
O53 Zn47 2.035 . S
O53 C55 1.258 . S
C54 O48 1.247 . S
C54 O49 1.258 . S
C55 O52 1.247 . S
C55 O53 1.258 . S
C56 O58 1.247 . S
C56 O60 1.258 . S
C57 O64 1.247 . S
C57 O65 1.258 . S
O58 C56 1.247 . S
O58 Zn59 2.028 . S
Zn59 O58 2.028 . S
Zn59 O63 2.035 . S
Zn59 O65 2.035 . S
Zn59 O66 2.028 . S
O60 C56 1.258 . S
O60 Zn61 2.035 . S
Zn61 O60 2.035 . S
Zn61 O62 2.028 . S
Zn61 O64 2.028 . S
Zn61 O67 2.035 . S
O62 Zn61 2.028 . S
O62 C68 1.247 . S
O63 Zn59 2.035 . S
O63 C68 1.258 . S
O64 C57 1.247 . S
O64 Zn61 2.028 . S
O65 C57 1.258 . S
O65 Zn59 2.035 . S
O66 Zn59 2.028 . S
O66 C69 1.247 . S
O67 Zn61 2.035 . S
O67 C69 1.258 . S
C68 O62 1.247 . S
C68 O63 1.258 . S
C69 O66 1.247 . S
C69 O67 1.258 . S
C70 O72 1.247 . S
C70 O74 1.258 . S
C71 O78 1.247 . S
C71 O79 1.258 . S
O72 C70 1.247 . S
O72 Zn73 2.028 . S
Zn73 O72 2.028 . S
Zn73 O77 2.035 . S
Zn73 O79 2.035 . S
Zn73 O80 2.028 . S
O74 C70 1.258 . S
O74 Zn75 2.035 . S
Zn75 O74 2.035 . S
Zn75 O76 2.028 . S
Zn75 O78 2.028 . S
Zn75 O81 2.035 . S
O76 Zn75 2.028 . S
O76 C82 1.247 . S
O77 Zn73 2.035 . S
O77 C82 1.258 . S
O78 C71 1.247 . S
O78 Zn75 2.028 . S
O79 C71 1.258 . S
O79 Zn73 2.035 . S
O80 Zn73 2.028 . S
O80 C83 1.247 . S
O81 Zn75 2.035 . S
O81 C83 1.258 . S
C82 O76 1.247 . S
C82 O77 1.258 . S
C83 O80 1.247 . S
C83 O81 1.258 . S
C84 O86 1.247 . S
C84 O88 1.258 . S
C85 O92 1.247 . S
C85 O93 1.258 . S
O86 C84 1.247 . S
O86 Zn87 2.028 . S
Zn87 O86 2.028 . S
Zn87 O91 2.035 . S
Zn87 O93 2.035 . S
Zn87 O94 2.028 . S
O88 C84 1.258 . S
O88 Zn89 2.035 . S
Zn89 O88 2.035 . S
Zn89 O90 2.028 . S
Zn89 O92 2.028 . S
Zn89 O95 2.035 . S
O90 Zn89 2.028 . S
O90 C96 1.247 . S
O91 Zn87 2.035 . S
O91 C96 1.258 . S
O92 C85 1.247 . S
O92 Zn89 2.028 . S
O93 C85 1.258 . S
O93 Zn87 2.035 . S
O94 Zn87 2.028 . S
O94 C97 1.247 . S
O95 Zn89 2.035 . S
O95 C97 1.258 . S
C96 O90 1.247 . S
C96 O91 1.258 . S
C97 O94 1.247 . S
C97 O95 1.258 . S
C98 O100 1.247 . S
C98 O102 1.258 . S
C99 O106 1.247 . S
C99 O107 1.258 . S
O100 C98 1.247 . S
O100 Zn101 2.028 . S
Zn101 O100 2.028 . S
Zn101 O105 2.035 . S
Zn101 O107 2.035 . S
Zn101 O108 2.028 . S
O102 C98 1.258 . S
O102 Zn103 2.035 . S
Zn103 O102 2.035 . S
Zn103 O104 2.028 1_655 S
Zn103 O106 2.028 . S
Zn103 O109 2.035 . S
O104 Zn103 2.028 1_455 S
O104 C110 1.247 . S
O105 Zn101 2.035 . S
O105 C110 1.258 1_655 S
O106 C99 1.247 . S
O106 Zn103 2.028 . S
O107 C99 1.258 . S
O107 Zn101 2.035 . S
O108 Zn101 2.028 . S
O108 C111 1.247 . S
O109 Zn103 2.035 . S
O109 C111 1.258 . S
C110 O104 1.247 . S
C110 O105 1.258 1_455 S
C111 O108 1.247 . S
C111 O109 1.258 . S
C112 O114 1.247 . S
C112 O116 1.258 . S
C113 O120 1.247 . S
C113 O121 1.258 . S
O114 C112 1.247 . S
O114 Zn115 2.028 . S
Zn115 O114 2.028 . S
Zn115 O119 2.035 . S
Zn115 O121 2.035 . S
Zn115 O122 2.028 . S
O116 C112 1.258 . S
O116 Zn117 2.035 . S
Zn117 O116 2.035 . S
Zn117 O118 2.028 . S
Zn117 O120 2.028 . S
Zn117 O123 2.035 . S
O118 Zn117 2.028 . S
O118 C124 1.247 . S
O119 Zn115 2.035 . S
O119 C124 1.258 . S
O120 C113 1.247 . S
O120 Zn117 2.028 . S
O121 C113 1.258 . S
O121 Zn115 2.035 . S
O122 Zn115 2.028 . S
O122 C125 1.247 . S
O123 Zn117 2.035 . S
O123 C125 1.258 . S
C124 O118 1.247 . S
C124 O119 1.258 . S
C125 O122 1.247 . S
C125 O123 1.258 . S
C126 O128 1.247 . S
C126 O130 1.258 . S
C127 O134 1.247 . S
C127 O135 1.258 . S
O128 C126 1.247 . S
O128 Zn129 2.028 . S
Zn129 O128 2.028 . S
Zn129 O133 2.035 . S
Zn129 O135 2.035 . S
Zn129 O136 2.028 . S
O130 C126 1.258 . S
O130 Zn131 2.035 . S
Zn131 O130 2.035 . S
Zn131 O132 2.028 . S
Zn131 O134 2.028 . S
Zn131 O137 2.035 . S
O132 Zn131 2.028 . S
O132 C138 1.247 . S
O133 Zn129 2.035 . S
O133 C138 1.258 . S
O134 C127 1.247 . S
O134 Zn131 2.028 . S
O135 C127 1.258 . S
O135 Zn129 2.035 . S
O136 Zn129 2.028 . S
O136 C139 1.247 . S
O137 Zn131 2.035 . S
O137 C139 1.258 . S
C138 O132 1.247 . S
C138 O133 1.258 . S
C139 O136 1.247 . S
C139 O137 1.258 . S
C140 O142 1.247 . S
C140 O144 1.258 . S
C141 O148 1.247 . S
C141 O149 1.258 . S
O142 C140 1.247 . S
O142 Zn143 2.028 . S
Zn143 O142 2.028 . S
Zn143 O147 2.035 . S
Zn143 O149 2.035 . S
Zn143 O150 2.028 . S
O144 C140 1.258 . S
O144 Zn145 2.035 . S
Zn145 O144 2.035 . S
Zn145 O146 2.028 . S
Zn145 O148 2.028 . S
Zn145 O151 2.035 . S
O146 Zn145 2.028 . S
O146 C152 1.247 . S
O147 Zn143 2.035 . S
O147 C152 1.258 . S
O148 C141 1.247 . S
O148 Zn145 2.028 . S
O149 C141 1.258 . S
O149 Zn143 2.035 . S
O150 Zn143 2.028 . S
O150 C153 1.247 . S
O151 Zn145 2.035 . S
O151 C153 1.258 . S
C152 O146 1.247 . S
C152 O147 1.258 . S
C153 O150 1.247 . S
C153 O151 1.258 . S
C154 O156 1.247 . S
C154 O158 1.258 . S
C155 O162 1.247 . S
C155 O163 1.258 . S
O156 C154 1.247 . S
O156 Zn157 2.028 . S
Zn157 O156 2.028 . S
Zn157 O161 2.035 . S
Zn157 O163 2.035 . S
Zn157 O164 2.028 . S
O158 C154 1.258 . S
O158 Zn159 2.035 . S
Zn159 O158 2.035 . S
Zn159 O160 2.028 . S
Zn159 O162 2.028 . S
Zn159 O165 1.991 1_554 S
O160 Zn159 2.028 . S
O160 C166 1.247 . S
O161 Zn157 2.035 . S
O161 C166 1.258 . S
O162 C155 1.247 . S
O162 Zn159 2.028 . S
O163 C155 1.258 . S
O163 Zn157 2.035 . S
O164 Zn157 2.028 . S
O164 C167 1.247 1_554 S
O165 Zn159 1.991 1_556 S
O165 C167 1.262 . S
C166 O160 1.247 . S
C166 O161 1.258 . S
C167 O164 1.247 1_556 S
C167 O165 1.262 . S
C168 O170 1.247 . S
C168 O172 1.258 . S
C169 O176 1.247 . S
C169 O177 1.258 . S
O170 C168 1.247 . S
O170 Zn171 2.028 . S
Zn171 O170 2.028 . S
Zn171 O175 2.035 . S
Zn171 O177 2.035 . S
Zn171 O178 2.028 . S
O172 C168 1.258 . S
O172 Zn173 2.035 . S
Zn173 O172 2.035 . S
Zn173 O174 2.028 . S
Zn173 O176 2.028 . S
Zn173 O179 2.035 . S
O174 Zn173 2.028 . S
O174 C180 1.247 . S
O175 Zn171 2.035 . S
O175 C180 1.258 . S
O176 C169 1.247 . S
O176 Zn173 2.028 . S
O177 C169 1.258 . S
O177 Zn171 2.035 . S
O178 Zn171 2.028 . S
O178 C181 1.247 . S
O179 Zn173 2.035 . S
O179 C181 1.258 . S
C180 O174 1.247 . S
C180 O175 1.258 . S
C181 O178 1.247 . S
C181 O179 1.258 . S
C182 O184 1.247 . S
C182 O186 1.258 . S
C183 O190 1.247 . S
C183 O191 1.258 . S
O184 C182 1.247 . S
O184 Zn185 2.028 . S
Zn185 O184 2.028 . S
Zn185 O189 2.035 . S
Zn185 O191 2.035 . S
Zn185 O192 2.028 . S
O186 C182 1.258 . S
O186 Zn187 2.035 . S
Zn187 O186 2.035 . S
Zn187 O188 2.028 . S
Zn187 O190 2.028 . S
Zn187 O193 2.035 . S
O188 Zn187 2.028 . S
O188 C194 1.247 . S
O189 Zn185 2.035 . S
O189 C194 1.258 . S
O190 C183 1.247 . S
O190 Zn187 2.028 . S
O191 C183 1.258 . S
O191 Zn185 2.035 . S
O192 Zn185 2.028 . S
O192 C195 1.247 . S
O193 Zn187 2.035 . S
O193 C195 1.258 . S
C194 O188 1.247 . S
C194 O189 1.258 . S
C195 O192 1.247 . S
C195 O193 1.258 . S
C196 O198 1.247 . S
C196 O200 1.258 . S
C197 O204 1.247 . S
C197 O205 1.258 . S
O198 C196 1.247 . S
O198 Zn199 2.028 . S
Zn199 O198 2.028 . S
Zn199 O203 2.035 . S
Zn199 O205 2.035 . S
Zn199 O206 2.028 . S
O200 C196 1.258 . S
O200 Zn201 2.035 . S
Zn201 O200 2.035 . S
Zn201 O202 2.028 . S
Zn201 O204 2.028 . S
Zn201 O207 2.035 . S
O202 Zn201 2.028 . S
O202 C208 1.247 . S
O203 Zn199 2.035 . S
O203 C208 1.258 . S
O204 C197 1.247 . S
O204 Zn201 2.028 . S
O205 C197 1.258 . S
O205 Zn199 2.035 . S
O206 Zn199 2.028 . S
O206 C209 1.247 . S
O207 Zn201 2.035 . S
O207 C209 1.258 . S
C208 O202 1.247 . S
C208 O203 1.258 . S
C209 O206 1.247 . S
C209 O207 1.258 . S
C210 O212 1.247 . S
C210 O214 1.258 . S
C211 O218 1.247 1_554 S
C211 O219 1.262 . S
O212 C210 1.247 . S
O212 Zn213 2.028 . S
Zn213 O212 2.028 . S
Zn213 O217 2.035 . S
Zn213 O219 1.990 1_556 S
Zn213 O220 2.028 . S
O214 C210 1.258 . S
O214 Zn215 2.035 . S
Zn215 O214 2.035 . S
Zn215 O216 2.028 . S
Zn215 O218 2.028 . S
Zn215 O221 2.035 . S
O216 Zn215 2.028 . S
O216 C222 1.247 . S
O217 Zn213 2.035 . S
O217 C222 1.258 . S
O218 C211 1.247 1_556 S
O218 Zn215 2.028 . S
O219 C211 1.262 . S
O219 Zn213 1.990 1_554 S
O220 Zn213 2.028 . S
O220 C223 1.247 . S
O221 Zn215 2.035 . S
O221 C223 1.258 . S
C222 O216 1.247 . S
C222 O217 1.258 . S
C223 O220 1.247 . S
C223 O221 1.258 . S
C224 O226 1.247 . S
C224 O228 1.258 . S
C225 O232 1.247 . S
C225 O233 1.258 . S
O226 C224 1.247 . S
O226 Zn227 2.028 . S
Zn227 O226 2.028 . S
Zn227 O231 2.035 . S
Zn227 O233 2.035 . S
Zn227 O234 2.028 . S
O228 C224 1.258 . S
O228 Zn229 2.035 . S
Zn229 O228 2.035 . S
Zn229 O230 2.028 . S
Zn229 O232 2.028 . S
Zn229 O235 2.035 . S
O230 Zn229 2.028 . S
O230 C236 1.247 . S
O231 Zn227 2.035 . S
O231 C236 1.258 . S
O232 C225 1.247 . S
O232 Zn229 2.028 . S
O233 C225 1.258 . S
O233 Zn227 2.035 . S
O234 Zn227 2.028 . S
O234 C237 1.247 . S
O235 Zn229 2.035 . S
O235 C237 1.258 . S
C236 O230 1.247 . S
C236 O231 1.258 . S
C237 O234 1.247 . S
C237 O235 1.258 . S
C238 O240 1.247 . S
C238 O242 1.258 . S
C239 O246 1.247 . S
C239 O247 1.258 . S
O240 C238 1.247 . S
O240 Zn241 2.028 . S
Zn241 O240 2.028 . S
Zn241 O245 2.035 . S
Zn241 O247 2.035 . S
Zn241 O248 2.028 . S
O242 C238 1.258 . S
O242 Zn243 2.035 . S
Zn243 O242 2.035 . S
Zn243 O244 2.028 . S
Zn243 O246 2.028 . S
Zn243 O249 2.035 . S
O244 Zn243 2.028 . S
O244 C250 1.247 . S
O245 Zn241 2.035 . S
O245 C250 1.258 . S
O246 C239 1.247 . S
O246 Zn243 2.028 . S
O247 C239 1.258 . S
O247 Zn241 2.035 . S
O248 Zn241 2.028 . S
O248 C251 1.247 . S
O249 Zn243 2.035 . S
O249 C251 1.258 . S
C250 O244 1.247 . S
C250 O245 1.258 . S
C251 O248 1.247 . S
C251 O249 1.258 . S
C252 O254 1.247 . S
C252 O256 1.258 . S
C253 O260 1.247 . S
C253 O261 1.258 . S
O254 C252 1.247 . S
O254 Zn255 2.028 . S
Zn255 O254 2.028 . S
Zn255 O259 2.035 . S
Zn255 O261 2.035 . S
Zn255 O262 2.028 . S
O256 C252 1.258 . S
O256 Zn257 2.035 . S
Zn257 O256 2.035 . S
Zn257 O258 2.028 . S
Zn257 O260 2.028 . S
Zn257 O263 2.035 . S
O258 Zn257 2.028 . S
O258 C264 1.247 . S
O259 Zn255 2.035 . S
O259 C264 1.258 . S
O260 C253 1.247 . S
O260 Zn257 2.028 . S
O261 C253 1.258 . S
O261 Zn255 2.035 . S
O262 Zn255 2.028 . S
O262 C265 1.247 . S
O263 Zn257 2.035 . S
O263 C265 1.258 . S
C264 O258 1.247 . S
C264 O259 1.258 . S
C265 O262 1.247 . S
C265 O263 1.258 . S
C266 O268 1.247 . S
C266 O270 1.258 . S
C267 O274 1.247 . S
C267 O275 1.258 . S
O268 C266 1.247 . S
O268 Zn269 2.028 . S
Zn269 O268 2.028 . S
Zn269 O273 2.035 . S
Zn269 O275 2.035 . S
Zn269 O276 2.028 . S
O270 C266 1.258 . S
O270 Zn271 2.035 . S
Zn271 O270 2.035 . S
Zn271 O272 2.028 . S
Zn271 O274 2.028 . S
Zn271 O277 2.035 . S
O272 Zn271 2.028 . S
O272 C278 1.247 . S
O273 Zn269 2.035 . S
O273 C278 1.258 . S
O274 C267 1.247 . S
O274 Zn271 2.028 . S
O275 C267 1.258 . S
O275 Zn269 2.035 . S
O276 Zn269 2.028 . S
O276 C279 1.247 . S
O277 Zn271 2.035 . S
O277 C279 1.258 . S
C278 O272 1.247 . S
C278 O273 1.258 . S
C279 O276 1.247 . S
C279 O277 1.258 . S
C280 O282 1.247 . S
C280 O284 1.258 1_545 S
C281 O288 1.247 . S
C281 O289 1.258 . S
O282 C280 1.247 . S
O282 Zn283 2.028 1_545 S
Zn283 O282 2.028 1_565 S
Zn283 O287 2.035 . S
Zn283 O289 2.035 . S
Zn283 O290 2.028 . S
O284 C280 1.258 1_565 S
O284 Zn285 2.035 . S
Zn285 O284 2.035 . S
Zn285 O286 2.028 . S
Zn285 O288 2.028 . S
Zn285 O291 2.035 . S
O286 Zn285 2.028 . S
O286 C292 1.247 . S
O287 Zn283 2.035 . S
O287 C292 1.258 . S
O288 C281 1.247 . S
O288 Zn285 2.028 . S
O289 C281 1.258 . S
O289 Zn283 2.035 . S
O290 Zn283 2.028 . S
O290 C293 1.247 . S
O291 Zn285 2.035 . S
O291 C293 1.258 . S
C292 O286 1.247 . S
C292 O287 1.258 . S
C293 O290 1.247 . S
C293 O291 1.258 . S
C294 O296 1.247 . S
C294 O298 1.258 . S
C295 O302 1.247 . S
C295 O303 1.258 . S
O296 C294 1.247 . S
O296 Zn297 2.028 . S
Zn297 O296 2.028 . S
Zn297 O301 2.035 . S
Zn297 O303 2.035 . S
Zn297 O304 2.028 . S
O298 C294 1.258 . S
O298 Zn299 2.035 . S
Zn299 O298 2.035 . S
Zn299 O300 2.028 . S
Zn299 O302 2.028 . S
Zn299 O305 2.035 . S
O300 Zn299 2.028 . S
O300 C306 1.247 . S
O301 Zn297 2.035 . S
O301 C306 1.258 . S
O302 C295 1.247 . S
O302 Zn299 2.028 . S
O303 C295 1.258 . S
O303 Zn297 2.035 . S
O304 Zn297 2.028 . S
O304 C307 1.247 . S
O305 Zn299 2.035 . S
O305 C307 1.258 . S
C306 O300 1.247 . S
C306 O301 1.258 . S
C307 O304 1.247 . S
C307 O305 1.258 . S
C308 O310 1.247 . S
C308 O312 1.258 . S
C309 O316 1.247 . S
C309 O317 1.258 . S
O310 C308 1.247 . S
O310 Zn311 2.028 . S
Zn311 O310 2.028 . S
Zn311 O315 2.035 . S
Zn311 O317 2.035 . S
Zn311 O318 2.028 . S
O312 C308 1.258 . S
O312 Zn313 2.035 . S
Zn313 O312 2.035 . S
Zn313 O314 2.028 . S
Zn313 O316 2.028 . S
Zn313 O319 2.035 . S
O314 Zn313 2.028 . S
O314 C320 1.247 . S
O315 Zn311 2.035 . S
O315 C320 1.258 . S
O316 C309 1.247 . S
O316 Zn313 2.028 . S
O317 C309 1.258 . S
O317 Zn311 2.035 . S
O318 Zn311 2.028 . S
O318 C321 1.247 . S
O319 Zn313 2.035 . S
O319 C321 1.258 . S
C320 O314 1.247 . S
C320 O315 1.258 . S
C321 O318 1.247 . S
C321 O319 1.258 . S
C322 O324 1.247 . S
C322 O326 1.258 . S
C323 O330 1.247 . S
C323 O331 1.258 . S
O324 C322 1.247 . S
O324 Zn325 2.028 . S
Zn325 O324 2.028 . S
Zn325 O329 2.035 . S
Zn325 O331 2.035 . S
Zn325 O332 2.028 . S
O326 C322 1.258 . S
O326 Zn327 2.035 . S
Zn327 O326 2.035 . S
Zn327 O328 2.028 . S
Zn327 O330 2.028 . S
Zn327 O333 2.035 . S
O328 Zn327 2.028 . S
O328 C334 1.247 . S
O329 Zn325 2.035 . S
O329 C334 1.258 . S
O330 C323 1.247 . S
O330 Zn327 2.028 . S
O331 C323 1.258 . S
O331 Zn325 2.035 . S
O332 Zn325 2.028 . S
O332 C335 1.247 . S
O333 Zn327 2.035 . S
O333 C335 1.258 . S
C334 O328 1.247 . S
C334 O329 1.258 . S
C335 O332 1.247 . S
C335 O333 1.258 . S
C336 O338 1.247 . S
C336 O340 1.258 . S
C337 O344 1.247 . S
C337 O345 1.258 . S
O338 C336 1.247 . S
O338 Zn339 2.028 . S
Zn339 O338 2.028 . S
Zn339 O343 2.035 . S
Zn339 O345 2.035 . S
Zn339 O346 2.028 . S
O340 C336 1.258 . S
O340 Zn341 2.035 . S
Zn341 O340 2.035 . S
Zn341 O342 2.028 . S
Zn341 O344 2.028 . S
Zn341 O347 2.035 . S
O342 Zn341 2.028 . S
O342 C348 1.247 . S
O343 Zn339 2.035 . S
O343 C348 1.258 . S
O344 C337 1.247 . S
O344 Zn341 2.028 . S
O345 C337 1.258 . S
O345 Zn339 2.035 . S
O346 Zn339 2.028 . S
O346 C349 1.247 . S
O347 Zn341 2.035 . S
O347 C349 1.258 . S
C348 O342 1.247 . S
C348 O343 1.258 . S
C349 O346 1.247 . S
C349 O347 1.258 . S
C350 O352 1.247 . S
C350 O354 1.258 . S
C351 O358 1.247 . S
C351 O359 1.258 . S
O352 C350 1.247 . S
O352 Zn353 2.028 . S
Zn353 O352 2.028 . S
Zn353 O357 2.035 . S
Zn353 O359 2.035 . S
Zn353 O360 2.028 . S
O354 C350 1.258 . S
O354 Zn355 2.035 . S
Zn355 O354 2.035 . S
Zn355 O356 2.028 . S
Zn355 O358 2.028 . S
Zn355 O361 2.035 . S
O356 Zn355 2.028 . S
O356 C362 1.247 . S
O357 Zn353 2.035 . S
O357 C362 1.258 . S
O358 C351 1.247 . S
O358 Zn355 2.028 . S
O359 C351 1.258 . S
O359 Zn353 2.035 . S
O360 Zn353 2.028 . S
O360 C363 1.247 . S
O361 Zn355 2.035 . S
O361 C363 1.258 . S
C362 O356 1.247 . S
C362 O357 1.258 . S
C363 O360 1.247 . S
C363 O361 1.258 . S
C364 O366 1.247 . S
C364 O368 1.258 . S
C365 O372 1.247 . S
C365 O373 1.258 . S
O366 C364 1.247 . S
O366 Zn367 2.028 . S
Zn367 O366 2.028 . S
Zn367 O371 2.035 . S
Zn367 O373 2.035 . S
Zn367 O374 2.028 . S
O368 C364 1.258 . S
O368 Zn369 2.035 . S
Zn369 O368 2.035 . S
Zn369 O370 2.028 . S
Zn369 O372 2.028 . S
Zn369 O375 2.035 . S
O370 Zn369 2.028 . S
O370 C376 1.247 . S
O371 Zn367 2.035 . S
O371 C376 1.258 . S
O372 C365 1.247 . S
O372 Zn369 2.028 . S
O373 C365 1.258 . S
O373 Zn367 2.035 . S
O374 Zn367 2.028 . S
O374 C377 1.247 . S
O375 Zn369 2.035 . S
O375 C377 1.258 . S
C376 O370 1.247 . S
C376 O371 1.258 . S
C377 O374 1.247 . S
C377 O375 1.258 . S
C378 O380 1.247 . S
C378 O382 1.258 . S
C379 O386 1.247 . S
C379 O387 1.258 . S
O380 C378 1.247 . S
O380 Zn381 2.028 . S
Zn381 O380 2.028 . S
Zn381 O385 2.035 . S
Zn381 O387 2.035 . S
Zn381 O388 2.028 . S
O382 C378 1.258 . S
O382 Zn383 2.035 . S
Zn383 O382 2.035 . S
Zn383 O384 2.028 1_455 S
Zn383 O386 2.028 . S
Zn383 O389 2.035 . S
O384 Zn383 2.028 1_655 S
O384 C390 1.247 . S
O385 Zn381 2.035 . S
O385 C390 1.258 1_455 S
O386 C379 1.247 . S
O386 Zn383 2.028 . S
O387 C379 1.258 . S
O387 Zn381 2.035 . S
O388 Zn381 2.028 . S
O388 C391 1.247 . S
O389 Zn383 2.035 . S
O389 C391 1.258 . S
C390 O384 1.247 . S
C390 O385 1.258 1_655 S
C391 O388 1.247 . S
C391 O389 1.258 . S
C392 O394 1.247 . S
C392 O396 1.258 . S
C393 O400 1.247 . S
C393 O401 1.258 . S
O394 C392 1.247 . S
O394 Zn395 2.028 . S
Zn395 O394 2.028 . S
Zn395 O399 2.035 . S
Zn395 O401 2.035 . S
Zn395 O402 2.028 . S
O396 C392 1.258 . S
O396 Zn397 2.035 . S
Zn397 O396 2.035 . S
Zn397 O398 2.028 . S
Zn397 O400 2.028 . S
Zn397 O403 2.035 . S
O398 Zn397 2.028 . S
O398 C404 1.247 . S
O399 Zn395 2.035 . S
O399 C404 1.258 . S
O400 C393 1.247 . S
O400 Zn397 2.028 . S
O401 C393 1.258 . S
O401 Zn395 2.035 . S
O402 Zn395 2.028 . S
O402 C405 1.247 . S
O403 Zn397 2.035 . S
O403 C405 1.258 . S
C404 O398 1.247 . S
C404 O399 1.258 . S
C405 O402 1.247 . S
C405 O403 1.258 . S
C406 O408 1.247 . S
C406 O410 1.258 1_655 S
C407 O414 1.247 . S
C407 O415 1.258 . S
O408 C406 1.247 . S
O408 Zn409 2.028 1_655 S
Zn409 O408 2.028 1_455 S
Zn409 O413 2.035 . S
Zn409 O415 2.035 . S
Zn409 O416 2.028 . S
O410 C406 1.258 1_455 S
O410 Zn411 2.035 . S
Zn411 O410 2.035 . S
Zn411 O412 2.028 . S
Zn411 O414 2.028 . S
Zn411 O417 2.035 . S
O412 Zn411 2.028 . S
O412 C418 1.247 . S
O413 Zn409 2.035 . S
O413 C418 1.258 . S
O414 C407 1.247 . S
O414 Zn411 2.028 . S
O415 C407 1.258 . S
O415 Zn409 2.035 . S
O416 Zn409 2.028 . S
O416 C419 1.247 . S
O417 Zn411 2.035 . S
O417 C419 1.258 . S
C418 O412 1.247 . S
C418 O413 1.258 . S
C419 O416 1.247 . S
C419 O417 1.258 . S
C420 O422 1.247 . S
C420 O424 1.258 . S
C421 O428 1.247 . S
C421 O429 1.258 . S
O422 C420 1.247 . S
O422 Zn423 2.028 . S
Zn423 O422 2.028 . S
Zn423 O427 2.035 . S
Zn423 O429 2.035 . S
Zn423 O430 2.028 . S
O424 C420 1.258 . S
O424 Zn425 2.035 . S
Zn425 O424 2.035 . S
Zn425 O426 2.028 . S
Zn425 O428 2.028 . S
Zn425 O431 2.035 . S
O426 Zn425 2.028 . S
O426 C432 1.247 . S
O427 Zn423 2.035 . S
O427 C432 1.258 . S
O428 C421 1.247 . S
O428 Zn425 2.028 . S
O429 C421 1.258 . S
O429 Zn423 2.035 . S
O430 Zn423 2.028 . S
O430 C433 1.247 . S
O431 Zn425 2.035 . S
O431 C433 1.258 . S
C432 O426 1.247 . S
C432 O427 1.258 . S
C433 O430 1.247 . S
C433 O431 1.258 . S
C434 O436 1.247 . S
C434 O438 1.258 . S
C435 O442 1.247 . S
C435 O443 1.258 . S
O436 C434 1.247 . S
O436 Zn437 2.028 . S
Zn437 O436 2.028 . S
Zn437 O441 2.035 . S
Zn437 O443 2.035 . S
Zn437 O444 2.028 . S
O438 C434 1.258 . S
O438 Zn439 2.035 . S
Zn439 O438 2.035 . S
Zn439 O440 2.028 . S
Zn439 O442 2.028 . S
Zn439 O445 2.035 . S
O440 Zn439 2.028 . S
O440 C446 1.247 . S
O441 Zn437 2.035 . S
O441 C446 1.258 . S
O442 C435 1.247 . S
O442 Zn439 2.028 . S
O443 C435 1.258 . S
O443 Zn437 2.035 . S
O444 Zn437 2.028 . S
O444 C447 1.247 . S
O445 Zn439 2.035 . S
O445 C447 1.258 . S
C446 O440 1.247 . S
C446 O441 1.258 . S
C447 O444 1.247 . S
C447 O445 1.258 . S
C448 O450 1.247 . S
C448 O452 1.258 . S
C449 O456 1.247 . S
C449 O457 1.258 . S
O450 C448 1.247 . S
O450 Zn451 2.028 . S
Zn451 O450 2.028 . S
Zn451 O455 2.035 . S
Zn451 O457 2.035 . S
Zn451 O458 2.028 . S
O452 C448 1.258 . S
O452 Zn453 2.035 . S
Zn453 O452 2.035 . S
Zn453 O454 2.028 . S
Zn453 O456 2.028 . S
Zn453 O459 2.035 . S
O454 Zn453 2.028 . S
O454 C460 1.247 . S
O455 Zn451 2.035 . S
O455 C460 1.258 . S
O456 C449 1.247 . S
O456 Zn453 2.028 . S
O457 C449 1.258 . S
O457 Zn451 2.035 . S
O458 Zn451 2.028 . S
O458 C461 1.247 . S
O459 Zn453 2.035 . S
O459 C461 1.258 . S
C460 O454 1.247 . S
C460 O455 1.258 . S
C461 O458 1.247 . S
C461 O459 1.258 . S
C462 O464 1.247 . S
C462 O466 1.258 1_556 S
C463 O470 1.247 . S
C463 O471 1.258 . S
O464 C462 1.247 . S
O464 Zn465 2.028 1_556 S
Zn465 O464 2.028 1_554 S
Zn465 O469 2.035 . S
Zn465 O471 2.035 . S
Zn465 O472 2.028 . S
O466 C462 1.258 1_554 S
O466 Zn467 2.035 . S
Zn467 O466 2.035 . S
Zn467 O468 2.028 . S
Zn467 O470 2.028 . S
Zn467 O473 2.035 . S
O468 Zn467 2.028 . S
O468 C474 1.247 . S
O469 Zn465 2.035 . S
O469 C474 1.258 . S
O470 C463 1.247 . S
O470 Zn467 2.028 . S
O471 C463 1.258 . S
O471 Zn465 2.035 . S
O472 Zn465 2.028 . S
O472 C475 1.247 . S
O473 Zn467 2.035 . S
O473 C475 1.258 . S
C474 O468 1.247 . S
C474 O469 1.258 . S
C475 O472 1.247 . S
C475 O473 1.258 . S
C476 O478 1.247 . S
C476 O480 1.258 . S
C477 O484 1.247 . S
C477 O485 1.258 . S
O478 C476 1.247 . S
O478 Zn479 2.028 . S
Zn479 O478 2.028 . S
Zn479 O483 2.035 . S
Zn479 O485 2.035 . S
Zn479 O486 2.028 . S
O480 C476 1.258 . S
O480 Zn481 2.035 . S
Zn481 O480 2.035 . S
Zn481 O482 2.028 . S
Zn481 O484 2.028 . S
Zn481 O487 2.035 . S
O482 Zn481 2.028 . S
O482 C488 1.247 . S
O483 Zn479 2.035 . S
O483 C488 1.258 . S
O484 C477 1.247 . S
O484 Zn481 2.028 . S
O485 C477 1.258 . S
O485 Zn479 2.035 . S
O486 Zn479 2.028 . S
O486 C489 1.247 . S
O487 Zn481 2.035 . S
O487 C489 1.258 . S
C488 O482 1.247 . S
C488 O483 1.258 . S
C489 O486 1.247 . S
C489 O487 1.258 . S
C490 O492 1.247 . S
C490 O494 1.258 . S
C491 O498 1.247 . S
C491 O499 1.258 . S
O492 C490 1.247 . S
O492 Zn493 2.028 . S
Zn493 O492 2.028 . S
Zn493 O497 2.035 . S
Zn493 O499 2.035 . S
Zn493 O500 2.028 . S
O494 C490 1.258 . S
O494 Zn495 2.035 . S
Zn495 O494 2.035 . S
Zn495 O496 2.028 . S
Zn495 O498 2.028 . S
Zn495 O501 2.035 . S
O496 Zn495 2.028 . S
O496 C502 1.247 . S
O497 Zn493 2.035 . S
O497 C502 1.258 . S
O498 C491 1.247 . S
O498 Zn495 2.028 . S
O499 C491 1.258 . S
O499 Zn493 2.035 . S
O500 Zn493 2.028 . S
O500 C503 1.247 . S
O501 Zn495 2.035 . S
O501 C503 1.258 . S
C502 O496 1.247 . S
C502 O497 1.258 . S
C503 O500 1.247 . S
C503 O501 1.258 . S
C504 O506 1.247 . S
C504 O508 1.258 . S
C505 O512 1.247 . S
C505 O513 1.258 . S
O506 C504 1.247 . S
O506 Zn507 2.028 . S
Zn507 O506 2.028 . S
Zn507 O511 2.035 . S
Zn507 O513 2.035 . S
Zn507 O514 2.028 . S
O508 C504 1.258 . S
O508 Zn509 2.035 . S
Zn509 O508 2.035 . S
Zn509 O510 2.028 . S
Zn509 O512 2.028 . S
Zn509 O515 2.035 . S
O510 Zn509 2.028 . S
O510 C516 1.247 . S
O511 Zn507 2.035 . S
O511 C516 1.258 . S
O512 C505 1.247 . S
O512 Zn509 2.028 . S
O513 C505 1.258 . S
O513 Zn507 2.035 . S
O514 Zn507 2.028 . S
O514 C517 1.247 . S
O515 Zn509 2.035 . S
O515 C517 1.258 . S
C516 O510 1.247 . S
C516 O511 1.258 . S
C517 O514 1.247 . S
C517 O515 1.258 . S
C518 O520 1.247 . S
C518 O522 1.258 . S
C519 O526 1.247 1_554 S
C519 O527 1.262 . S
O520 C518 1.247 . S
O520 Zn521 2.028 . S
Zn521 O520 2.028 . S
Zn521 O525 2.035 . S
Zn521 O527 1.990 1_556 S
Zn521 O528 2.028 . S
O522 C518 1.258 . S
O522 Zn523 2.035 . S
Zn523 O522 2.035 . S
Zn523 O524 2.028 . S
Zn523 O526 2.028 . S
Zn523 O529 2.035 . S
O524 Zn523 2.028 . S
O524 C530 1.247 . S
O525 Zn521 2.035 . S
O525 C530 1.258 . S
O526 C519 1.247 1_556 S
O526 Zn523 2.028 . S
O527 C519 1.262 . S
O527 Zn521 1.990 1_554 S
O528 Zn521 2.028 . S
O528 C531 1.247 . S
O529 Zn523 2.035 . S
O529 C531 1.258 . S
C530 O524 1.247 . S
C530 O525 1.258 . S
C531 O528 1.247 . S
C531 O529 1.258 . S
C532 O534 1.247 . S
C532 O536 1.258 . S
C533 O540 1.247 . S
C533 O541 1.258 . S
O534 C532 1.247 . S
O534 Zn535 2.028 . S
Zn535 O534 2.028 . S
Zn535 O539 2.035 . S
Zn535 O541 2.035 . S
Zn535 O542 2.028 . S
O536 C532 1.258 . S
O536 Zn537 2.035 . S
Zn537 O536 2.035 . S
Zn537 O538 2.028 . S
Zn537 O540 2.028 . S
Zn537 O543 2.035 . S
O538 Zn537 2.028 . S
O538 C544 1.247 . S
O539 Zn535 2.035 . S
O539 C544 1.258 . S
O540 C533 1.247 . S
O540 Zn537 2.028 . S
O541 C533 1.258 . S
O541 Zn535 2.035 . S
O542 Zn535 2.028 . S
O542 C545 1.247 . S
O543 Zn537 2.035 . S
O543 C545 1.258 . S
C544 O538 1.247 . S
C544 O539 1.258 . S
C545 O542 1.247 . S
C545 O543 1.258 . S
C546 O548 1.247 . S
C546 O550 1.258 . S
C547 O554 1.247 . S
C547 O555 1.258 . S
O548 C546 1.247 . S
O548 Zn549 2.028 . S
Zn549 O548 2.028 . S
Zn549 O553 2.035 . S
Zn549 O555 2.035 . S
Zn549 O556 2.028 . S
O550 C546 1.258 . S
O550 Zn551 2.035 . S
Zn551 O550 2.035 . S
Zn551 O552 2.028 . S
Zn551 O554 2.028 . S
Zn551 O557 2.035 . S
O552 Zn551 2.028 . S
O552 C558 1.247 . S
O553 Zn549 2.035 . S
O553 C558 1.258 . S
O554 C547 1.247 . S
O554 Zn551 2.028 . S
O555 C547 1.258 . S
O555 Zn549 2.035 . S
O556 Zn549 2.028 . S
O556 C559 1.247 . S
O557 Zn551 2.035 . S
O557 C559 1.258 . S
C558 O552 1.247 . S
C558 O553 1.258 . S
C559 O556 1.247 . S
C559 O557 1.258 . S
C560 O562 1.247 . S
C560 O564 1.258 . S
C561 O568 1.247 . S
C561 O569 1.258 . S
O562 C560 1.247 . S
O562 Zn563 2.028 . S
Zn563 O562 2.028 . S
Zn563 O567 2.035 . S
Zn563 O569 2.035 . S
Zn563 O570 2.028 . S
O564 C560 1.258 . S
O564 Zn565 2.035 . S
Zn565 O564 2.035 . S
Zn565 O566 2.028 . S
Zn565 O568 2.028 . S
Zn565 O571 2.035 . S
O566 Zn565 2.028 . S
O566 C572 1.247 . S
O567 Zn563 2.035 . S
O567 C572 1.258 . S
O568 C561 1.247 . S
O568 Zn565 2.028 . S
O569 C561 1.258 . S
O569 Zn563 2.035 . S
O570 Zn563 2.028 . S
O570 C573 1.247 . S
O571 Zn565 2.035 . S
O571 C573 1.258 . S
C572 O566 1.247 . S
C572 O567 1.258 . S
C573 O570 1.247 . S
C573 O571 1.258 . S
C574 O576 1.247 . S
C574 O578 1.258 . S
C575 O582 1.247 . S
C575 O583 1.258 . S
O576 C574 1.247 . S
O576 Zn577 2.028 . S
Zn577 O576 2.028 . S
Zn577 O581 2.035 . S
Zn577 O583 2.035 . S
Zn577 O584 2.028 . S
O578 C574 1.258 . S
O578 Zn579 2.035 . S
Zn579 O578 2.035 . S
Zn579 O580 2.028 . S
Zn579 O582 2.028 . S
Zn579 O585 2.035 . S
O580 Zn579 2.028 . S
O580 C586 1.247 . S
O581 Zn577 2.035 . S
O581 C586 1.258 . S
O582 C575 1.247 . S
O582 Zn579 2.028 . S
O583 C575 1.258 . S
O583 Zn577 2.035 . S
O584 Zn577 2.028 . S
O584 C587 1.247 . S
O585 Zn579 2.035 . S
O585 C587 1.258 . S
C586 O580 1.247 . S
C586 O581 1.258 . S
C587 O584 1.247 . S
C587 O585 1.258 . S
C588 O590 1.247 . S
C588 O592 1.258 1_565 S
C589 O596 1.247 . S
C589 O597 1.258 . S
O590 C588 1.247 . S
O590 Zn591 2.028 1_565 S
Zn591 O590 2.028 1_545 S
Zn591 O595 2.035 . S
Zn591 O597 2.035 . S
Zn591 O598 2.028 . S
O592 C588 1.258 1_545 S
O592 Zn593 2.035 . S
Zn593 O592 2.035 . S
Zn593 O594 2.028 . S
Zn593 O596 2.028 . S
Zn593 O599 2.035 . S
O594 Zn593 2.028 . S
O594 C600 1.247 . S
O595 Zn591 2.035 . S
O595 C600 1.258 . S
O596 C589 1.247 . S
O596 Zn593 2.028 . S
O597 C589 1.258 . S
O597 Zn591 2.035 . S
O598 Zn591 2.028 . S
O598 C601 1.247 . S
O599 Zn593 2.035 . S
O599 C601 1.258 . S
C600 O594 1.247 . S
C600 O595 1.258 . S
C601 O598 1.247 . S
C601 O599 1.258 . S
C602 O604 1.247 . S
C602 O606 1.258 . S
C603 O610 1.247 . S
C603 O611 1.258 . S
O604 C602 1.247 . S
O604 Zn605 2.028 . S
Zn605 O604 2.028 . S
Zn605 O609 2.035 . S
Zn605 O611 2.035 . S
Zn605 O612 2.028 . S
O606 C602 1.258 . S
O606 Zn607 2.035 . S
Zn607 O606 2.035 . S
Zn607 O608 2.028 . S
Zn607 O610 2.028 . S
Zn607 O613 2.035 . S
O608 Zn607 2.028 . S
O608 C614 1.247 . S
O609 Zn605 2.035 . S
O609 C614 1.258 . S
O610 C603 1.247 . S
O610 Zn607 2.028 . S
O611 C603 1.258 . S
O611 Zn605 2.035 . S
O612 Zn605 2.028 . S
O612 C615 1.247 . S
O613 Zn607 2.035 . S
O613 C615 1.258 . S
C614 O608 1.247 . S
C614 O609 1.258 . S
C615 O612 1.247 . S
C615 O613 1.258 . S
C616 O618 1.247 . S
C616 O620 1.258 . S
C617 O624 1.247 . S
C617 O625 1.258 . S
O618 C616 1.247 . S
O618 Zn619 2.028 . S
Zn619 O618 2.028 . S
Zn619 O623 2.035 . S
Zn619 O625 2.035 . S
Zn619 O626 2.028 . S
O620 C616 1.258 . S
O620 Zn621 2.035 . S
Zn621 O620 2.035 . S
Zn621 O622 2.028 . S
Zn621 O624 2.028 . S
Zn621 O627 2.035 . S
O622 Zn621 2.028 . S
O622 C628 1.247 . S
O623 Zn619 2.035 . S
O623 C628 1.258 . S
O624 C617 1.247 . S
O624 Zn621 2.028 . S
O625 C617 1.258 . S
O625 Zn619 2.035 . S
O626 Zn619 2.028 . S
O626 C629 1.247 . S
O627 Zn621 2.035 . S
O627 C629 1.258 . S
C628 O622 1.247 . S
C628 O623 1.258 . S
C629 O626 1.247 . S
C629 O627 1.258 . S
C630 O632 1.247 . S
C630 O634 1.258 . S
C631 O638 1.247 . S
C631 O639 1.258 . S
O632 C630 1.247 . S
O632 Zn633 2.028 . S
Zn633 O632 2.028 . S
Zn633 O637 2.035 . S
Zn633 O639 2.035 . S
Zn633 O640 2.028 . S
O634 C630 1.258 . S
O634 Zn635 2.035 . S
Zn635 O634 2.035 . S
Zn635 O636 2.028 . S
Zn635 O638 2.028 . S
Zn635 O641 2.035 . S
O636 Zn635 2.028 . S
O636 C642 1.247 . S
O637 Zn633 2.035 . S
O637 C642 1.258 . S
O638 C631 1.247 . S
O638 Zn635 2.028 . S
O639 C631 1.258 . S
O639 Zn633 2.035 . S
O640 Zn633 2.028 . S
O640 C643 1.247 . S
O641 Zn635 2.035 . S
O641 C643 1.258 . S
C642 O636 1.247 . S
C642 O637 1.258 . S
C643 O640 1.247 . S
C643 O641 1.258 . S
C644 O646 1.247 . S
C644 O648 1.258 1_545 S
C645 O652 1.247 . S
C645 O653 1.258 . S
O646 C644 1.247 . S
O646 Zn647 2.028 1_545 S
Zn647 O646 2.028 1_565 S
Zn647 O651 2.035 . S
Zn647 O653 2.035 . S
Zn647 O654 2.028 . S
O648 C644 1.258 1_565 S
O648 Zn649 2.035 . S
Zn649 O648 2.035 . S
Zn649 O650 2.028 . S
Zn649 O652 2.028 . S
Zn649 O655 2.035 . S
O650 Zn649 2.028 . S
O650 C656 1.247 . S
O651 Zn647 2.035 . S
O651 C656 1.258 . S
O652 C645 1.247 . S
O652 Zn649 2.028 . S
O653 C645 1.258 . S
O653 Zn647 2.035 . S
O654 Zn647 2.028 . S
O654 C657 1.247 . S
O655 Zn649 2.035 . S
O655 C657 1.258 . S
C656 O650 1.247 . S
C656 O651 1.258 . S
C657 O654 1.247 . S
C657 O655 1.258 . S
C658 O660 1.247 . S
C658 O662 1.258 . S
C659 O666 1.247 . S
C659 O667 1.258 . S
O660 C658 1.247 . S
O660 Zn661 2.028 . S
Zn661 O660 2.028 . S
Zn661 O665 2.035 . S
Zn661 O667 2.035 . S
Zn661 O668 2.028 . S
O662 C658 1.258 . S
O662 Zn663 2.035 . S
Zn663 O662 2.035 . S
Zn663 O664 2.028 1_545 S
Zn663 O666 2.028 . S
Zn663 O669 2.035 . S
O664 Zn663 2.028 1_565 S
O664 C670 1.247 . S
O665 Zn661 2.035 . S
O665 C670 1.258 1_545 S
O666 C659 1.247 . S
O666 Zn663 2.028 . S
O667 C659 1.258 . S
O667 Zn661 2.035 . S
O668 Zn661 2.028 . S
O668 C671 1.247 . S
O669 Zn663 2.035 . S
O669 C671 1.258 . S
C670 O664 1.247 . S
C670 O665 1.258 1_565 S
C671 O668 1.247 . S
C671 O669 1.258 . S
H672 C680 0.929 . S
H673 C682 0.930 . S
H674 C684 0.930 . S
H675 C687 0.929 . S
H676 C690 0.930 . S
H677 C692 0.960 . S
H678 C692 0.960 . S
H679 C692 0.960 . S
C680 H672 0.929 . S
C680 C681 1.377 . S
C680 C682 1.384 . S
C681 C680 1.377 . S
C681 C687 1.390 . S
C682 H673 0.930 . S
C682 C680 1.384 . S
C682 C683 1.372 . S
C683 C682 1.372 . S
C683 C684 1.400 . S
C683 C688 1.490 . S
C684 H674 0.930 . S
C684 C683 1.400 . S
C684 C687 1.386 . S
H685 C701 0.930 . S
H686 C702 0.931 . S
C687 H675 0.929 . S
C687 C681 1.390 . S
C687 C684 1.386 . S
C688 C683 1.490 . S
C688 C690 1.395 . S
C688 C691 1.403 . S
H689 C695 0.930 . S
C690 H676 0.930 . S
C690 C688 1.395 . S
C690 C693 1.403 . S
C691 C688 1.403 . S
C691 C692 1.524 . S
C691 C695 1.400 . S
C692 H677 0.960 . S
C692 H678 0.960 . S
C692 H679 0.960 . S
C692 C691 1.524 . S
C693 C690 1.403 . S
C693 C694 1.392 . S
C693 C697 1.495 . S
C694 C693 1.392 . S
C694 C695 1.385 . S
C694 C696 1.478 . S
C695 H689 0.930 . S
C695 C691 1.400 . S
C695 C694 1.385 . S
C696 C694 1.478 . S
C696 C698 1.381 . S
C696 C702 1.383 . S
C697 C693 1.495 . S
C697 H703 0.959 . S
C697 H704 0.961 . S
C697 H705 0.960 . S
C698 C696 1.381 . S
C698 C699 1.394 . S
C698 H706 0.930 . S
C699 C698 1.394 . S
C699 C700 1.383 . S
C699 H707 0.929 . S
C700 C699 1.383 . S
C700 C701 1.377 . S
C701 H685 0.930 . S
C701 C700 1.377 . S
C701 C702 1.379 . S
C702 H686 0.931 . S
C702 C696 1.383 . S
C702 C701 1.379 . S
H703 C697 0.959 . S
H704 C697 0.961 . S
H705 C697 0.960 . S
H706 C698 0.930 . S
H707 C699 0.929 . S
H708 C716 0.929 . S
H709 C718 0.930 . S
H710 C720 0.930 . S
H711 C723 0.929 . S
H712 C726 0.930 . S
H713 C728 0.960 . S
H714 C728 0.960 . S
H715 C728 0.960 . S
C716 H708 0.929 . S
C716 C717 1.377 . S
C716 C718 1.384 . S
C717 C716 1.377 . S
C717 C723 1.390 . S
C718 H709 0.930 . S
C718 C716 1.384 . S
C718 C719 1.372 . S
C719 C718 1.372 . S
C719 C720 1.400 . S
C719 C724 1.490 . S
C720 H710 0.930 . S
C720 C719 1.400 . S
C720 C723 1.386 . S
H721 C737 0.930 . S
H722 C738 0.931 . S
C723 H711 0.929 . S
C723 C717 1.390 . S
C723 C720 1.386 . S
C724 C719 1.490 . S
C724 C726 1.395 . S
C724 C727 1.403 . S
H725 C731 0.930 . S
C726 H712 0.930 . S
C726 C724 1.395 . S
C726 C729 1.403 . S
C727 C724 1.403 . S
C727 C728 1.524 . S
C727 C731 1.400 . S
C728 H713 0.960 . S
C728 H714 0.960 . S
C728 H715 0.960 . S
C728 C727 1.524 . S
C729 C726 1.403 . S
C729 C730 1.392 . S
C729 C733 1.495 . S
C730 C729 1.392 . S
C730 C731 1.385 . S
C730 C732 1.478 . S
C731 H725 0.930 . S
C731 C727 1.400 . S
C731 C730 1.385 . S
C732 C730 1.478 . S
C732 C734 1.381 . S
C732 C738 1.383 . S
C733 C729 1.495 . S
C733 H739 0.959 . S
C733 H740 0.961 . S
C733 H741 0.960 . S
C734 C732 1.381 . S
C734 C735 1.394 . S
C734 H742 0.930 . S
C735 C734 1.394 . S
C735 C736 1.383 . S
C735 H743 0.929 1_455 S
C736 C735 1.383 . S
C736 C737 1.377 . S
C737 H721 0.930 . S
C737 C736 1.377 . S
C737 C738 1.379 . S
C738 H722 0.931 . S
C738 C732 1.383 . S
C738 C737 1.379 . S
H739 C733 0.959 . S
H740 C733 0.961 . S
H741 C733 0.960 . S
H742 C734 0.930 . S
H743 C735 0.929 1_655 S
H744 C752 0.929 1_554 S
H745 C754 0.930 . S
H746 C756 0.930 . S
H747 C759 0.929 . S
H748 C762 0.930 . S
H749 C764 0.960 . S
H750 C764 0.960 . S
H751 C764 0.960 . S
C752 H744 0.929 1_556 S
C752 C753 1.377 . S
C752 C754 1.384 . S
C753 C752 1.377 . S
C753 C759 1.390 . S
C754 H745 0.930 . S
C754 C752 1.384 . S
C754 C755 1.372 . S
C755 C754 1.372 . S
C755 C756 1.400 . S
C755 C760 1.490 . S
C756 H746 0.930 . S
C756 C755 1.400 . S
C756 C759 1.386 . S
H757 C773 0.930 . S
H758 C774 0.931 . S
C759 H747 0.929 . S
C759 C753 1.390 . S
C759 C756 1.386 . S
C760 C755 1.490 . S
C760 C762 1.395 . S
C760 C763 1.403 . S
H761 C767 0.930 . S
C762 H748 0.930 . S
C762 C760 1.395 . S
C762 C765 1.403 . S
C763 C760 1.403 . S
C763 C764 1.524 . S
C763 C767 1.400 . S
C764 H749 0.960 . S
C764 H750 0.960 . S
C764 H751 0.960 . S
C764 C763 1.524 . S
C765 C762 1.403 . S
C765 C766 1.392 . S
C765 C769 1.495 . S
C766 C765 1.392 . S
C766 C767 1.385 . S
C766 C768 1.478 . S
C767 H761 0.930 . S
C767 C763 1.400 . S
C767 C766 1.385 . S
C768 C766 1.478 . S
C768 C770 1.381 . S
C768 C774 1.383 . S
C769 C765 1.495 . S
C769 H775 0.959 . S
C769 H776 0.961 . S
C769 H777 0.960 . S
C770 C768 1.381 . S
C770 C771 1.394 . S
C770 H778 0.930 . S
C771 C770 1.394 . S
C771 C772 1.383 . S
C771 H779 0.929 . S
C772 C771 1.383 . S
C772 C773 1.377 . S
C773 H757 0.930 . S
C773 C772 1.377 . S
C773 C774 1.379 . S
C774 H758 0.931 . S
C774 C768 1.383 . S
C774 C773 1.379 . S
H775 C769 0.959 . S
H776 C769 0.961 . S
H777 C769 0.960 . S
H778 C770 0.930 . S
H779 C771 0.929 . S
H780 C788 0.929 . S
H781 C790 0.930 . S
H782 C792 0.930 . S
H783 C795 0.929 . S
H784 C798 0.930 . S
H785 C800 0.960 . S
H786 C800 0.960 . S
H787 C800 0.960 . S
C788 H780 0.929 . S
C788 C789 1.377 . S
C788 C790 1.384 . S
C789 C788 1.377 . S
C789 C795 1.390 . S
C790 H781 0.930 . S
C790 C788 1.384 . S
C790 C791 1.372 . S
C791 C790 1.372 . S
C791 C792 1.400 . S
C791 C796 1.490 . S
C792 H782 0.930 . S
C792 C791 1.400 . S
C792 C795 1.386 . S
H793 C809 0.930 . S
H794 C810 0.931 . S
C795 H783 0.929 . S
C795 C789 1.390 . S
C795 C792 1.386 . S
C796 C791 1.490 . S
C796 C798 1.395 . S
C796 C799 1.403 . S
H797 C803 0.930 . S
C798 H784 0.930 . S
C798 C796 1.395 . S
C798 C801 1.403 . S
C799 C796 1.403 . S
C799 C800 1.524 . S
C799 C803 1.400 . S
C800 H785 0.960 . S
C800 H786 0.960 . S
C800 H787 0.960 . S
C800 C799 1.524 . S
C801 C798 1.403 . S
C801 C802 1.392 . S
C801 C805 1.495 . S
C802 C801 1.392 . S
C802 C803 1.385 . S
C802 C804 1.478 . S
C803 H797 0.930 . S
C803 C799 1.400 . S
C803 C802 1.385 . S
C804 C802 1.478 . S
C804 C806 1.381 . S
C804 C810 1.383 . S
C805 C801 1.495 . S
C805 H811 0.959 . S
C805 H812 0.961 . S
C805 H813 0.960 . S
C806 C804 1.381 . S
C806 C807 1.394 . S
C806 H814 0.930 . S
C807 C806 1.394 . S
C807 C808 1.383 . S
C807 H815 0.929 . S
C808 C807 1.383 . S
C808 C809 1.377 . S
C809 H793 0.930 . S
C809 C808 1.377 . S
C809 C810 1.379 . S
C810 H794 0.931 . S
C810 C804 1.383 . S
C810 C809 1.379 . S
H811 C805 0.959 . S
H812 C805 0.961 . S
H813 C805 0.960 . S
H814 C806 0.930 . S
H815 C807 0.929 . S
H816 C824 0.929 . S
H817 C826 0.930 . S
H818 C828 0.930 . S
H819 C831 0.929 . S
H820 C834 0.930 . S
H821 C836 0.960 . S
H822 C836 0.960 . S
H823 C836 0.960 . S
C824 H816 0.929 . S
C824 C825 1.377 . S
C824 C826 1.384 . S
C825 C824 1.377 . S
C825 C831 1.390 . S
C826 H817 0.930 . S
C826 C824 1.384 . S
C826 C827 1.372 . S
C827 C826 1.372 . S
C827 C828 1.400 . S
C827 C832 1.490 . S
C828 H818 0.930 . S
C828 C827 1.400 . S
C828 C831 1.386 . S
H829 C845 0.930 . S
H830 C846 0.931 . S
C831 H819 0.929 . S
C831 C825 1.390 . S
C831 C828 1.386 . S
C832 C827 1.490 . S
C832 C834 1.395 . S
C832 C835 1.403 . S
H833 C839 0.930 . S
C834 H820 0.930 . S
C834 C832 1.395 . S
C834 C837 1.403 . S
C835 C832 1.403 . S
C835 C836 1.524 . S
C835 C839 1.400 . S
C836 H821 0.960 . S
C836 H822 0.960 . S
C836 H823 0.960 . S
C836 C835 1.524 . S
C837 C834 1.403 . S
C837 C838 1.392 . S
C837 C841 1.495 . S
C838 C837 1.392 . S
C838 C839 1.385 . S
C838 C840 1.478 . S
C839 H833 0.930 . S
C839 C835 1.400 . S
C839 C838 1.385 . S
C840 C838 1.478 . S
C840 C842 1.381 . S
C840 C846 1.383 . S
C841 C837 1.495 . S
C841 H847 0.959 . S
C841 H848 0.961 . S
C841 H849 0.960 . S
C842 C840 1.381 . S
C842 C843 1.394 . S
C842 H850 0.930 . S
C843 C842 1.394 . S
C843 C844 1.383 . S
C843 H851 0.929 1_554 S
C844 C843 1.383 . S
C844 C845 1.377 . S
C845 H829 0.930 . S
C845 C844 1.377 . S
C845 C846 1.379 . S
C846 H830 0.931 . S
C846 C840 1.383 . S
C846 C845 1.379 . S
H847 C841 0.959 . S
H848 C841 0.961 . S
H849 C841 0.960 . S
H850 C842 0.930 . S
H851 C843 0.929 1_556 S
H852 C860 0.929 . S
H853 C862 0.930 . S
H854 C864 0.930 . S
H855 C867 0.929 . S
H856 C870 0.930 . S
H857 C872 0.960 . S
H858 C872 0.960 . S
H859 C872 0.960 . S
C860 H852 0.929 . S
C860 C861 1.377 . S
C860 C862 1.384 . S
C861 C860 1.377 . S
C861 C867 1.390 . S
C862 H853 0.930 . S
C862 C860 1.384 . S
C862 C863 1.372 . S
C863 C862 1.372 . S
C863 C864 1.400 . S
C863 C868 1.490 . S
C864 H854 0.930 . S
C864 C863 1.400 . S
C864 C867 1.386 . S
H865 C881 0.930 . S
H866 C882 0.931 . S
C867 H855 0.929 . S
C867 C861 1.390 . S
C867 C864 1.386 . S
C868 C863 1.490 . S
C868 C870 1.395 . S
C868 C871 1.403 . S
H869 C875 0.930 . S
C870 H856 0.930 . S
C870 C868 1.395 . S
C870 C873 1.403 . S
C871 C868 1.403 . S
C871 C872 1.524 . S
C871 C875 1.400 . S
C872 H857 0.960 . S
C872 H858 0.960 . S
C872 H859 0.960 . S
C872 C871 1.524 . S
C873 C870 1.403 . S
C873 C874 1.392 . S
C873 C877 1.495 . S
C874 C873 1.392 . S
C874 C875 1.385 . S
C874 C876 1.478 . S
C875 H869 0.930 . S
C875 C871 1.400 . S
C875 C874 1.385 . S
C876 C874 1.478 . S
C876 C878 1.381 . S
C876 C882 1.383 . S
C877 C873 1.495 . S
C877 H883 0.959 . S
C877 H884 0.961 . S
C877 H885 0.960 . S
C878 C876 1.381 . S
C878 C879 1.394 . S
C878 H886 0.930 . S
C879 C878 1.394 . S
C879 C880 1.383 . S
C879 H887 0.929 . S
C880 C879 1.383 . S
C880 C881 1.377 . S
C881 H865 0.930 . S
C881 C880 1.377 . S
C881 C882 1.379 . S
C882 H866 0.931 . S
C882 C876 1.383 . S
C882 C881 1.379 . S
H883 C877 0.959 . S
H884 C877 0.961 . S
H885 C877 0.960 . S
H886 C878 0.930 . S
H887 C879 0.929 . S
H888 C896 0.929 . S
H889 C898 0.930 . S
H890 C900 0.930 . S
H891 C903 0.929 . S
H892 C906 0.930 . S
H893 C908 0.960 . S
H894 C908 0.960 . S
H895 C908 0.960 . S
C896 H888 0.929 . S
C896 C897 1.377 . S
C896 C898 1.384 . S
C897 C896 1.377 . S
C897 C903 1.390 . S
C898 H889 0.930 . S
C898 C896 1.384 . S
C898 C899 1.372 . S
C899 C898 1.372 . S
C899 C900 1.400 . S
C899 C904 1.490 . S
C900 H890 0.930 . S
C900 C899 1.400 . S
C900 C903 1.386 . S
H901 C917 0.930 . S
H902 C918 0.931 . S
C903 H891 0.929 . S
C903 C897 1.390 . S
C903 C900 1.386 . S
C904 C899 1.490 . S
C904 C906 1.395 . S
C904 C907 1.403 . S
H905 C911 0.930 . S
C906 H892 0.930 . S
C906 C904 1.395 . S
C906 C909 1.403 . S
C907 C904 1.403 . S
C907 C908 1.524 . S
C907 C911 1.400 . S
C908 H893 0.960 . S
C908 H894 0.960 . S
C908 H895 0.960 . S
C908 C907 1.524 . S
C909 C906 1.403 . S
C909 C910 1.392 . S
C909 C913 1.495 . S
C910 C909 1.392 . S
C910 C911 1.385 . S
C910 C912 1.478 . S
C911 H905 0.930 . S
C911 C907 1.400 . S
C911 C910 1.385 . S
C912 C910 1.478 . S
C912 C914 1.381 . S
C912 C918 1.383 . S
C913 C909 1.495 . S
C913 H919 0.959 . S
C913 H920 0.961 . S
C913 H921 0.960 . S
C914 C912 1.381 . S
C914 C915 1.394 . S
C914 H922 0.930 . S
C915 C914 1.394 . S
C915 C916 1.383 . S
C915 H923 0.929 . S
C916 C915 1.383 . S
C916 C917 1.377 . S
C917 H901 0.930 . S
C917 C916 1.377 . S
C917 C918 1.379 . S
C918 H902 0.931 . S
C918 C912 1.383 . S
C918 C917 1.379 . S
H919 C913 0.959 . S
H920 C913 0.961 . S
H921 C913 0.960 . S
H922 C914 0.930 . S
H923 C915 0.929 . S
H924 C932 0.929 . S
H925 C934 0.930 . S
H926 C936 0.930 . S
H927 C939 0.929 . S
H928 C942 0.930 . S
H929 C944 0.960 . S
H930 C944 0.960 . S
H931 C944 0.960 . S
C932 H924 0.929 . S
C932 C933 1.377 . S
C932 C934 1.384 . S
C933 C932 1.377 . S
C933 C939 1.390 . S
C934 H925 0.930 . S
C934 C932 1.384 . S
C934 C935 1.372 . S
C935 C934 1.372 . S
C935 C936 1.400 . S
C935 C940 1.490 . S
C936 H926 0.930 . S
C936 C935 1.400 . S
C936 C939 1.386 . S
H937 C953 0.930 . S
H938 C954 0.931 . S
C939 H927 0.929 . S
C939 C933 1.390 . S
C939 C936 1.386 . S
C940 C935 1.490 . S
C940 C942 1.395 . S
C940 C943 1.403 . S
H941 C947 0.930 . S
C942 H928 0.930 . S
C942 C940 1.395 . S
C942 C945 1.403 . S
C943 C940 1.403 . S
C943 C944 1.524 . S
C943 C947 1.400 . S
C944 H929 0.960 . S
C944 H930 0.960 . S
C944 H931 0.960 . S
C944 C943 1.524 . S
C945 C942 1.403 . S
C945 C946 1.392 . S
C945 C949 1.495 . S
C946 C945 1.392 . S
C946 C947 1.385 . S
C946 C948 1.478 . S
C947 H941 0.930 . S
C947 C943 1.400 . S
C947 C946 1.385 . S
C948 C946 1.478 . S
C948 C950 1.381 . S
C948 C954 1.383 . S
C949 C945 1.495 . S
C949 H955 0.959 . S
C949 H956 0.961 . S
C949 H957 0.960 . S
C950 C948 1.381 . S
C950 C951 1.394 . S
C950 H958 0.930 . S
C951 C950 1.394 . S
C951 C952 1.383 . S
C951 H959 0.929 1_455 S
C952 C951 1.383 . S
C952 C953 1.377 . S
C953 H937 0.930 . S
C953 C952 1.377 . S
C953 C954 1.379 . S
C954 H938 0.931 . S
C954 C948 1.383 . S
C954 C953 1.379 . S
H955 C949 0.959 . S
H956 C949 0.961 . S
H957 C949 0.960 . S
H958 C950 0.930 . S
H959 C951 0.929 1_655 S
H960 C968 0.929 . S
H961 C970 0.930 . S
H962 C972 0.930 . S
H963 C975 0.929 . S
H964 C978 0.930 . S
H965 C980 0.960 . S
H966 C980 0.960 . S
H967 C980 0.960 . S
C968 H960 0.929 . S
C968 C969 1.377 . S
C968 C970 1.384 . S
C969 C968 1.377 . S
C969 C975 1.390 . S
C970 H961 0.930 . S
C970 C968 1.384 . S
C970 C971 1.372 . S
C971 C970 1.372 . S
C971 C972 1.400 . S
C971 C976 1.490 . S
C972 H962 0.930 . S
C972 C971 1.400 . S
C972 C975 1.386 . S
H973 C989 0.930 . S
H974 C990 0.931 . S
C975 H963 0.929 . S
C975 C969 1.390 . S
C975 C972 1.386 . S
C976 C971 1.490 . S
C976 C978 1.395 . S
C976 C979 1.403 . S
H977 C983 0.930 . S
C978 H964 0.930 . S
C978 C976 1.395 . S
C978 C981 1.403 . S
C979 C976 1.403 . S
C979 C980 1.524 . S
C979 C983 1.400 . S
C980 H965 0.960 . S
C980 H966 0.960 . S
C980 H967 0.960 . S
C980 C979 1.524 . S
C981 C978 1.403 . S
C981 C982 1.392 . S
C981 C985 1.495 . S
C982 C981 1.392 . S
C982 C983 1.385 . S
C982 C984 1.478 . S
C983 H977 0.930 . S
C983 C979 1.400 . S
C983 C982 1.385 . S
C984 C982 1.478 . S
C984 C986 1.381 . S
C984 C990 1.383 . S
C985 C981 1.495 . S
C985 H991 0.959 . S
C985 H992 0.961 . S
C985 H993 0.960 . S
C986 C984 1.381 . S
C986 C987 1.394 . S
C986 H994 0.930 . S
C987 C986 1.394 . S
C987 C988 1.383 . S
C987 H995 0.929 . S
C988 C987 1.383 . S
C988 C989 1.377 . S
C989 H973 0.930 . S
C989 C988 1.377 . S
C989 C990 1.379 . S
C990 H974 0.931 . S
C990 C984 1.383 . S
C990 C989 1.379 . S
H991 C985 0.959 . S
H992 C985 0.961 . S
H993 C985 0.960 . S
H994 C986 0.930 . S
H995 C987 0.929 . S
H996 C1004 0.929 . S
H997 C1006 0.930 . S
H998 C1008 0.930 . S
H999 C1011 0.929 . S
H1000 C1014 0.930 . S
H1001 C1016 0.960 . S
H1002 C1016 0.960 . S
H1003 C1016 0.960 . S
C1004 H996 0.929 . S
C1004 C1005 1.377 . S
C1004 C1006 1.384 . S
C1005 C1004 1.377 . S
C1005 C1011 1.390 . S
C1006 H997 0.930 . S
C1006 C1004 1.384 . S
C1006 C1007 1.372 . S
C1007 C1006 1.372 . S
C1007 C1008 1.400 . S
C1007 C1012 1.490 . S
C1008 H998 0.930 . S
C1008 C1007 1.400 . S
C1008 C1011 1.386 . S
H1009 C1025 0.930 . S
H1010 C1026 0.931 . S
C1011 H999 0.929 . S
C1011 C1005 1.390 . S
C1011 C1008 1.386 . S
C1012 C1007 1.490 . S
C1012 C1014 1.395 . S
C1012 C1015 1.403 . S
H1013 C1019 0.930 . S
C1014 H1000 0.930 . S
C1014 C1012 1.395 . S
C1014 C1017 1.403 . S
C1015 C1012 1.403 . S
C1015 C1016 1.524 . S
C1015 C1019 1.400 . S
C1016 H1001 0.960 . S
C1016 H1002 0.960 . S
C1016 H1003 0.960 . S
C1016 C1015 1.524 . S
C1017 C1014 1.403 . S
C1017 C1018 1.392 . S
C1017 C1021 1.495 . S
C1018 C1017 1.392 . S
C1018 C1019 1.385 . S
C1018 C1020 1.478 . S
C1019 H1013 0.930 . S
C1019 C1015 1.400 . S
C1019 C1018 1.385 . S
C1020 C1018 1.478 . S
C1020 C1022 1.381 . S
C1020 C1026 1.383 . S
C1021 C1017 1.495 . S
C1021 H1027 0.959 . S
C1021 H1028 0.961 . S
C1021 H1029 0.960 . S
C1022 C1020 1.381 . S
C1022 C1023 1.394 . S
C1022 H1030 0.930 . S
C1023 C1022 1.394 . S
C1023 C1024 1.383 . S
C1023 H1031 0.929 1_545 S
C1024 C1023 1.383 . S
C1024 C1025 1.377 . S
C1025 H1009 0.930 . S
C1025 C1024 1.377 . S
C1025 C1026 1.379 . S
C1026 H1010 0.931 . S
C1026 C1020 1.383 . S
C1026 C1025 1.379 . S
H1027 C1021 0.959 . S
H1028 C1021 0.961 . S
H1029 C1021 0.960 . S
H1030 C1022 0.930 . S
H1031 C1023 0.929 1_565 S
H1032 C1040 0.929 . S
H1033 C1042 0.930 . S
H1034 C1044 0.930 . S
H1035 C1047 0.929 . S
H1036 C1050 0.930 . S
H1037 C1052 0.960 . S
H1038 C1052 0.960 . S
H1039 C1052 0.960 . S
C1040 H1032 0.929 . S
C1040 C1041 1.377 . S
C1040 C1042 1.384 . S
C1041 C1040 1.377 . S
C1041 C1047 1.390 . S
C1042 H1033 0.930 . S
C1042 C1040 1.384 . S
C1042 C1043 1.372 . S
C1043 C1042 1.372 . S
C1043 C1044 1.400 . S
C1043 C1048 1.490 . S
C1044 H1034 0.930 . S
C1044 C1043 1.400 . S
C1044 C1047 1.386 . S
H1045 C1061 0.930 1_545 S
H1046 C1062 0.931 . S
C1047 H1035 0.929 . S
C1047 C1041 1.390 . S
C1047 C1044 1.386 . S
C1048 C1043 1.490 . S
C1048 C1050 1.395 . S
C1048 C1051 1.403 . S
H1049 C1055 0.930 . S
C1050 H1036 0.930 . S
C1050 C1048 1.395 . S
C1050 C1053 1.403 . S
C1051 C1048 1.403 . S
C1051 C1052 1.524 . S
C1051 C1055 1.400 . S
C1052 H1037 0.960 . S
C1052 H1038 0.960 . S
C1052 H1039 0.960 . S
C1052 C1051 1.524 . S
C1053 C1050 1.403 . S
C1053 C1054 1.392 . S
C1053 C1057 1.495 . S
C1054 C1053 1.392 . S
C1054 C1055 1.385 . S
C1054 C1056 1.478 . S
C1055 H1049 0.930 . S
C1055 C1051 1.400 . S
C1055 C1054 1.385 . S
C1056 C1054 1.478 . S
C1056 C1058 1.381 . S
C1056 C1062 1.383 . S
C1057 C1053 1.495 . S
C1057 H1063 0.959 . S
C1057 H1064 0.961 . S
C1057 H1065 0.960 . S
C1058 C1056 1.381 . S
C1058 C1059 1.394 . S
C1058 H1066 0.930 . S
C1059 C1058 1.394 . S
C1059 C1060 1.383 . S
C1059 H1067 0.929 . S
C1060 C1059 1.383 . S
C1060 C1061 1.377 . S
C1061 H1045 0.930 1_565 S
C1061 C1060 1.377 . S
C1061 C1062 1.379 . S
C1062 H1046 0.931 . S
C1062 C1056 1.383 . S
C1062 C1061 1.379 . S
H1063 C1057 0.959 . S
H1064 C1057 0.961 . S
H1065 C1057 0.960 . S
H1066 C1058 0.930 . S
H1067 C1059 0.929 . S
H1068 C1076 0.929 . S
H1069 C1078 0.930 . S
H1070 C1080 0.930 . S
H1071 C1083 0.929 . S
H1072 C1086 0.930 . S
H1073 C1088 0.960 . S
H1074 C1088 0.960 . S
H1075 C1088 0.960 . S
C1076 H1068 0.929 . S
C1076 C1077 1.377 . S
C1076 C1078 1.384 . S
C1077 C1076 1.377 . S
C1077 C1083 1.390 . S
C1078 H1069 0.930 . S
C1078 C1076 1.384 . S
C1078 C1079 1.372 . S
C1079 C1078 1.372 . S
C1079 C1080 1.400 . S
C1079 C1084 1.490 . S
C1080 H1070 0.930 . S
C1080 C1079 1.400 . S
C1080 C1083 1.386 . S
H1081 C1097 0.930 . S
H1082 C1098 0.931 . S
C1083 H1071 0.929 . S
C1083 C1077 1.390 . S
C1083 C1080 1.386 . S
C1084 C1079 1.490 . S
C1084 C1086 1.395 . S
C1084 C1087 1.403 . S
H1085 C1091 0.930 . S
C1086 H1072 0.930 . S
C1086 C1084 1.395 . S
C1086 C1089 1.403 . S
C1087 C1084 1.403 . S
C1087 C1088 1.524 . S
C1087 C1091 1.400 . S
C1088 H1073 0.960 . S
C1088 H1074 0.960 . S
C1088 H1075 0.960 . S
C1088 C1087 1.524 . S
C1089 C1086 1.403 . S
C1089 C1090 1.392 . S
C1089 C1093 1.495 . S
C1090 C1089 1.392 . S
C1090 C1091 1.385 . S
C1090 C1092 1.478 . S
C1091 H1085 0.930 . S
C1091 C1087 1.400 . S
C1091 C1090 1.385 . S
C1092 C1090 1.478 . S
C1092 C1094 1.381 . S
C1092 C1098 1.383 . S
C1093 C1089 1.495 . S
C1093 H1099 0.959 . S
C1093 H1100 0.961 . S
C1093 H1101 0.960 . S
C1094 C1092 1.381 . S
C1094 C1095 1.394 . S
C1094 H1102 0.930 . S
C1095 C1094 1.394 . S
C1095 C1096 1.383 . S
C1095 H1103 0.929 . S
C1096 C1095 1.383 . S
C1096 C1097 1.377 . S
C1097 H1081 0.930 . S
C1097 C1096 1.377 . S
C1097 C1098 1.379 . S
C1098 H1082 0.931 . S
C1098 C1092 1.383 . S
C1098 C1097 1.379 . S
H1099 C1093 0.959 . S
H1100 C1093 0.961 . S
H1101 C1093 0.960 . S
H1102 C1094 0.930 . S
H1103 C1095 0.929 . S
H1104 C1112 0.929 . S
H1105 C1114 0.930 . S
H1106 C1116 0.930 . S
H1107 C1119 0.929 . S
H1108 C1122 0.930 . S
H1109 C1124 0.960 . S
H1110 C1124 0.960 . S
H1111 C1124 0.960 . S
C1112 H1104 0.929 . S
C1112 C1113 1.377 . S
C1112 C1114 1.384 . S
C1113 C1112 1.377 . S
C1113 C1119 1.390 . S
C1114 H1105 0.930 . S
C1114 C1112 1.384 . S
C1114 C1115 1.372 . S
C1115 C1114 1.372 . S
C1115 C1116 1.400 . S
C1115 C1120 1.490 . S
C1116 H1106 0.930 . S
C1116 C1115 1.400 . S
C1116 C1119 1.386 . S
H1117 C1133 0.930 . S
H1118 C1134 0.931 . S
C1119 H1107 0.929 . S
C1119 C1113 1.390 . S
C1119 C1116 1.386 . S
C1120 C1115 1.490 . S
C1120 C1122 1.395 . S
C1120 C1123 1.403 . S
H1121 C1127 0.930 . S
C1122 H1108 0.930 . S
C1122 C1120 1.395 . S
C1122 C1125 1.403 . S
C1123 C1120 1.403 . S
C1123 C1124 1.524 . S
C1123 C1127 1.400 . S
C1124 H1109 0.960 . S
C1124 H1110 0.960 . S
C1124 H1111 0.960 . S
C1124 C1123 1.524 . S
C1125 C1122 1.403 . S
C1125 C1126 1.392 . S
C1125 C1129 1.495 . S
C1126 C1125 1.392 . S
C1126 C1127 1.385 . S
C1126 C1128 1.478 . S
C1127 H1121 0.930 . S
C1127 C1123 1.400 . S
C1127 C1126 1.385 . S
C1128 C1126 1.478 . S
C1128 C1130 1.381 . S
C1128 C1134 1.383 . S
C1129 C1125 1.495 . S
C1129 H1135 0.959 . S
C1129 H1136 0.961 . S
C1129 H1137 0.960 . S
C1130 C1128 1.381 . S
C1130 C1131 1.394 . S
C1130 H1138 0.930 . S
C1131 C1130 1.394 . S
C1131 C1132 1.383 . S
C1131 H1139 0.929 . S
C1132 C1131 1.383 . S
C1132 C1133 1.377 . S
C1133 H1117 0.930 . S
C1133 C1132 1.377 . S
C1133 C1134 1.379 . S
C1134 H1118 0.931 . S
C1134 C1128 1.383 . S
C1134 C1133 1.379 . S
H1135 C1129 0.959 . S
H1136 C1129 0.961 . S
H1137 C1129 0.960 . S
H1138 C1130 0.930 . S
H1139 C1131 0.929 . S
H1140 C1148 0.929 . S
H1141 C1150 0.930 . S
H1142 C1152 0.930 . S
H1143 C1155 0.929 . S
H1144 C1158 0.930 . S
H1145 C1160 0.960 . S
H1146 C1160 0.960 . S
H1147 C1160 0.960 . S
C1148 H1140 0.929 . S
C1148 C1149 1.377 . S
C1148 C1150 1.384 . S
C1149 C1148 1.377 . S
C1149 C1155 1.390 . S
C1150 H1141 0.930 . S
C1150 C1148 1.384 . S
C1150 C1151 1.372 . S
C1151 C1150 1.372 . S
C1151 C1152 1.400 . S
C1151 C1156 1.490 . S
C1152 H1142 0.930 . S
C1152 C1151 1.400 . S
C1152 C1155 1.386 . S
H1153 C1169 0.930 . S
H1154 C1170 0.931 . S
C1155 H1143 0.929 . S
C1155 C1149 1.390 . S
C1155 C1152 1.386 . S
C1156 C1151 1.490 . S
C1156 C1158 1.395 . S
C1156 C1159 1.403 . S
H1157 C1163 0.930 . S
C1158 H1144 0.930 . S
C1158 C1156 1.395 . S
C1158 C1161 1.403 . S
C1159 C1156 1.403 . S
C1159 C1160 1.524 . S
C1159 C1163 1.400 . S
C1160 H1145 0.960 . S
C1160 H1146 0.960 . S
C1160 H1147 0.960 . S
C1160 C1159 1.524 . S
C1161 C1158 1.403 . S
C1161 C1162 1.392 . S
C1161 C1165 1.495 . S
C1162 C1161 1.392 . S
C1162 C1163 1.385 . S
C1162 C1164 1.478 . S
C1163 H1157 0.930 . S
C1163 C1159 1.400 . S
C1163 C1162 1.385 . S
C1164 C1162 1.478 . S
C1164 C1166 1.381 . S
C1164 C1170 1.383 . S
C1165 C1161 1.495 . S
C1165 H1171 0.959 . S
C1165 H1172 0.961 . S
C1165 H1173 0.960 . S
C1166 C1164 1.381 . S
C1166 C1167 1.394 . S
C1166 H1174 0.930 . S
C1167 C1166 1.394 . S
C1167 C1168 1.383 . S
C1167 H1175 0.929 . S
C1168 C1167 1.383 . S
C1168 C1169 1.377 . S
C1169 H1153 0.930 . S
C1169 C1168 1.377 . S
C1169 C1170 1.379 . S
C1170 H1154 0.931 . S
C1170 C1164 1.383 . S
C1170 C1169 1.379 . S
H1171 C1165 0.959 . S
H1172 C1165 0.961 . S
H1173 C1165 0.960 . S
H1174 C1166 0.930 . S
H1175 C1167 0.929 . S
H1176 C1184 0.929 . S
H1177 C1186 0.930 . S
H1178 C1188 0.930 . S
H1179 C1191 0.929 . S
H1180 C1194 0.930 . S
H1181 C1196 0.960 . S
H1182 C1196 0.960 . S
H1183 C1196 0.960 . S
C1184 H1176 0.929 . S
C1184 C1185 1.377 . S
C1184 C1186 1.384 . S
C1185 C1184 1.377 . S
C1185 C1191 1.390 . S
C1186 H1177 0.930 . S
C1186 C1184 1.384 . S
C1186 C1187 1.372 . S
C1187 C1186 1.372 . S
C1187 C1188 1.400 . S
C1187 C1192 1.490 . S
C1188 H1178 0.930 . S
C1188 C1187 1.400 . S
C1188 C1191 1.386 . S
H1189 C1205 0.930 . S
H1190 C1206 0.931 . S
C1191 H1179 0.929 . S
C1191 C1185 1.390 . S
C1191 C1188 1.386 . S
C1192 C1187 1.490 . S
C1192 C1194 1.395 . S
C1192 C1195 1.403 . S
H1193 C1199 0.930 . S
C1194 H1180 0.930 . S
C1194 C1192 1.395 . S
C1194 C1197 1.403 . S
C1195 C1192 1.403 . S
C1195 C1196 1.524 . S
C1195 C1199 1.400 . S
C1196 H1181 0.960 . S
C1196 H1182 0.960 . S
C1196 H1183 0.960 . S
C1196 C1195 1.524 . S
C1197 C1194 1.403 . S
C1197 C1198 1.392 . S
C1197 C1201 1.495 . S
C1198 C1197 1.392 . S
C1198 C1199 1.385 . S
C1198 C1200 1.478 . S
C1199 H1193 0.930 . S
C1199 C1195 1.400 . S
C1199 C1198 1.385 . S
C1200 C1198 1.478 . S
C1200 C1202 1.381 . S
C1200 C1206 1.383 . S
C1201 C1197 1.495 . S
C1201 H1207 0.959 . S
C1201 H1208 0.961 . S
C1201 H1209 0.960 . S
C1202 C1200 1.381 . S
C1202 C1203 1.394 . S
C1202 H1210 0.930 . S
C1203 C1202 1.394 . S
C1203 C1204 1.383 . S
C1203 H1211 0.929 . S
C1204 C1203 1.383 . S
C1204 C1205 1.377 . S
C1205 H1189 0.930 . S
C1205 C1204 1.377 . S
C1205 C1206 1.379 . S
C1206 H1190 0.931 . S
C1206 C1200 1.383 . S
C1206 C1205 1.379 . S
H1207 C1201 0.959 . S
H1208 C1201 0.961 . S
H1209 C1201 0.960 . S
H1210 C1202 0.930 . S
H1211 C1203 0.929 . S
H1212 C1220 0.929 . S
H1213 C1222 0.930 . S
H1214 C1224 0.930 . S
H1215 C1227 0.929 1_554 S
H1216 C1230 0.930 . S
H1217 C1232 0.960 . S
H1218 C1232 0.960 . S
H1219 C1232 0.960 . S
C1220 H1212 0.929 . S
C1220 C1221 1.377 . S
C1220 C1222 1.384 . S
C1221 C1220 1.377 . S
C1221 C1227 1.390 . S
C1222 H1213 0.930 . S
C1222 C1220 1.384 . S
C1222 C1223 1.372 . S
C1223 C1222 1.372 . S
C1223 C1224 1.400 . S
C1223 C1228 1.490 . S
C1224 H1214 0.930 . S
C1224 C1223 1.400 . S
C1224 C1227 1.386 . S
H1225 C1241 0.930 . S
H1226 C1242 0.931 . S
C1227 H1215 0.929 1_556 S
C1227 C1221 1.390 . S
C1227 C1224 1.386 . S
C1228 C1223 1.490 . S
C1228 C1230 1.395 . S
C1228 C1231 1.403 . S
H1229 C1235 0.930 . S
C1230 H1216 0.930 . S
C1230 C1228 1.395 . S
C1230 C1233 1.403 . S
C1231 C1228 1.403 . S
C1231 C1232 1.524 . S
C1231 C1235 1.400 . S
C1232 H1217 0.960 . S
C1232 H1218 0.960 . S
C1232 H1219 0.960 . S
C1232 C1231 1.524 . S
C1233 C1230 1.403 . S
C1233 C1234 1.392 . S
C1233 C1237 1.495 . S
C1234 C1233 1.392 . S
C1234 C1235 1.385 . S
C1234 C1236 1.478 . S
C1235 H1229 0.930 . S
C1235 C1231 1.400 . S
C1235 C1234 1.385 . S
C1236 C1234 1.478 . S
C1236 C1238 1.381 . S
C1236 C1242 1.383 . S
C1237 C1233 1.495 . S
C1237 H1243 0.959 . S
C1237 H1244 0.961 . S
C1237 H1245 0.960 . S
C1238 C1236 1.381 . S
C1238 C1239 1.394 . S
C1238 H1246 0.930 . S
C1239 C1238 1.394 . S
C1239 C1240 1.383 . S
C1239 H1247 0.929 . S
C1240 C1239 1.383 . S
C1240 C1241 1.377 . S
C1241 H1225 0.930 . S
C1241 C1240 1.377 . S
C1241 C1242 1.379 . S
C1242 H1226 0.931 . S
C1242 C1236 1.383 . S
C1242 C1241 1.379 . S
H1243 C1237 0.959 . S
H1244 C1237 0.961 . S
H1245 C1237 0.960 . S
H1246 C1238 0.930 . S
H1247 C1239 0.929 . S
H1248 C1256 0.929 . S
H1249 C1258 0.930 . S
H1250 C1260 0.930 . S
H1251 C1263 0.929 . S
H1252 C1266 0.930 . S
H1253 C1268 0.960 . S
H1254 C1268 0.960 . S
H1255 C1268 0.960 . S
C1256 H1248 0.929 . S
C1256 C1257 1.377 . S
C1256 C1258 1.384 . S
C1257 C1256 1.377 . S
C1257 C1263 1.390 . S
C1258 H1249 0.930 . S
C1258 C1256 1.384 . S
C1258 C1259 1.372 . S
C1259 C1258 1.372 . S
C1259 C1260 1.400 . S
C1259 C1264 1.490 . S
C1260 H1250 0.930 . S
C1260 C1259 1.400 . S
C1260 C1263 1.386 . S
H1261 C1277 0.930 . S
H1262 C1278 0.931 . S
C1263 H1251 0.929 . S
C1263 C1257 1.390 . S
C1263 C1260 1.386 . S
C1264 C1259 1.490 . S
C1264 C1266 1.395 . S
C1264 C1267 1.403 . S
H1265 C1271 0.930 . S
C1266 H1252 0.930 . S
C1266 C1264 1.395 . S
C1266 C1269 1.403 . S
C1267 C1264 1.403 . S
C1267 C1268 1.524 . S
C1267 C1271 1.400 . S
C1268 H1253 0.960 . S
C1268 H1254 0.960 . S
C1268 H1255 0.960 . S
C1268 C1267 1.524 . S
C1269 C1266 1.403 . S
C1269 C1270 1.392 . S
C1269 C1273 1.495 . S
C1270 C1269 1.392 . S
C1270 C1271 1.385 . S
C1270 C1272 1.478 . S
C1271 H1265 0.930 . S
C1271 C1267 1.400 . S
C1271 C1270 1.385 . S
C1272 C1270 1.478 . S
C1272 C1274 1.381 . S
C1272 C1278 1.383 . S
C1273 C1269 1.495 . S
C1273 H1279 0.959 . S
C1273 H1280 0.961 . S
C1273 H1281 0.960 . S
C1274 C1272 1.381 . S
C1274 C1275 1.394 . S
C1274 H1282 0.930 . S
C1275 C1274 1.394 . S
C1275 C1276 1.383 . S
C1275 H1283 0.929 . S
C1276 C1275 1.383 . S
C1276 C1277 1.377 . S
C1277 H1261 0.930 . S
C1277 C1276 1.377 . S
C1277 C1278 1.379 . S
C1278 H1262 0.931 . S
C1278 C1272 1.383 . S
C1278 C1277 1.379 . S
H1279 C1273 0.959 . S
H1280 C1273 0.961 . S
H1281 C1273 0.960 . S
H1282 C1274 0.930 . S
H1283 C1275 0.929 . S
H1284 C1292 0.929 . S
H1285 C1294 0.930 . S
H1286 C1296 0.930 . S
H1287 C1299 0.929 . S
H1288 C1302 0.930 . S
H1289 C1304 0.960 . S
H1290 C1304 0.960 . S
H1291 C1304 0.960 . S
C1292 H1284 0.929 . S
C1292 C1293 1.377 . S
C1292 C1294 1.384 . S
C1293 C1292 1.377 . S
C1293 C1299 1.390 . S
C1294 H1285 0.930 . S
C1294 C1292 1.384 . S
C1294 C1295 1.372 . S
C1295 C1294 1.372 . S
C1295 C1296 1.400 . S
C1295 C1300 1.490 . S
C1296 H1286 0.930 . S
C1296 C1295 1.400 . S
C1296 C1299 1.386 . S
H1297 C1313 0.930 . S
H1298 C1314 0.931 . S
C1299 H1287 0.929 . S
C1299 C1293 1.390 . S
C1299 C1296 1.386 . S
C1300 C1295 1.490 . S
C1300 C1302 1.395 . S
C1300 C1303 1.403 . S
H1301 C1307 0.930 . S
C1302 H1288 0.930 . S
C1302 C1300 1.395 . S
C1302 C1305 1.403 . S
C1303 C1300 1.403 . S
C1303 C1304 1.524 . S
C1303 C1307 1.400 . S
C1304 H1289 0.960 . S
C1304 H1290 0.960 . S
C1304 H1291 0.960 . S
C1304 C1303 1.524 . S
C1305 C1302 1.403 . S
C1305 C1306 1.392 . S
C1305 C1309 1.495 . S
C1306 C1305 1.392 . S
C1306 C1307 1.385 . S
C1306 C1308 1.478 . S
C1307 H1301 0.930 . S
C1307 C1303 1.400 . S
C1307 C1306 1.385 . S
C1308 C1306 1.478 . S
C1308 C1310 1.381 . S
C1308 C1314 1.383 . S
C1309 C1305 1.495 . S
C1309 H1315 0.959 . S
C1309 H1316 0.961 . S
C1309 H1317 0.960 . S
C1310 C1308 1.381 . S
C1310 C1311 1.394 . S
C1310 H1318 0.930 . S
C1311 C1310 1.394 . S
C1311 C1312 1.383 . S
C1311 H1319 0.929 . S
C1312 C1311 1.383 . S
C1312 C1313 1.377 . S
C1313 H1297 0.930 . S
C1313 C1312 1.377 . S
C1313 C1314 1.379 . S
C1314 H1298 0.931 . S
C1314 C1308 1.383 . S
C1314 C1313 1.379 . S
H1315 C1309 0.959 . S
H1316 C1309 0.961 . S
H1317 C1309 0.960 . S
H1318 C1310 0.930 . S
H1319 C1311 0.929 . S
H1320 C1328 0.929 . S
H1321 C1330 0.930 . S
H1322 C1332 0.930 . S
H1323 C1335 0.929 . S
H1324 C1338 0.930 . S
H1325 C1340 0.960 . S
H1326 C1340 0.960 . S
H1327 C1340 0.960 . S
C1328 H1320 0.929 . S
C1328 C1329 1.377 . S
C1328 C1330 1.384 . S
C1329 C1328 1.377 . S
C1329 C1335 1.390 . S
C1330 H1321 0.930 . S
C1330 C1328 1.384 . S
C1330 C1331 1.372 . S
C1331 C1330 1.372 . S
C1331 C1332 1.400 . S
C1331 C1336 1.490 . S
C1332 H1322 0.930 . S
C1332 C1331 1.400 . S
C1332 C1335 1.386 . S
H1333 C1349 0.930 . S
H1334 C1350 0.931 . S
C1335 H1323 0.929 . S
C1335 C1329 1.390 . S
C1335 C1332 1.386 . S
C1336 C1331 1.490 . S
C1336 C1338 1.395 . S
C1336 C1339 1.403 . S
H1337 C1343 0.930 . S
C1338 H1324 0.930 . S
C1338 C1336 1.395 . S
C1338 C1341 1.403 . S
C1339 C1336 1.403 . S
C1339 C1340 1.524 . S
C1339 C1343 1.400 . S
C1340 H1325 0.960 . S
C1340 H1326 0.960 . S
C1340 H1327 0.960 . S
C1340 C1339 1.524 . S
C1341 C1338 1.403 . S
C1341 C1342 1.392 . S
C1341 C1345 1.495 . S
C1342 C1341 1.392 . S
C1342 C1343 1.385 . S
C1342 C1344 1.478 . S
C1343 H1337 0.930 . S
C1343 C1339 1.400 . S
C1343 C1342 1.385 . S
C1344 C1342 1.478 . S
C1344 C1346 1.381 . S
C1344 C1350 1.383 . S
C1345 C1341 1.495 . S
C1345 H1351 0.959 . S
C1345 H1352 0.961 . S
C1345 H1353 0.960 . S
C1346 C1344 1.381 . S
C1346 C1347 1.394 . S
C1346 H1354 0.930 . S
C1347 C1346 1.394 . S
C1347 C1348 1.383 . S
C1347 H1355 0.929 . S
C1348 C1347 1.383 . S
C1348 C1349 1.377 . S
C1349 H1333 0.930 . S
C1349 C1348 1.377 . S
C1349 C1350 1.379 . S
C1350 H1334 0.931 . S
C1350 C1344 1.383 . S
C1350 C1349 1.379 . S
H1351 C1345 0.959 . S
H1352 C1345 0.961 . S
H1353 C1345 0.960 . S
H1354 C1346 0.930 . S
H1355 C1347 0.929 . S
H1356 C1364 0.929 . S
H1357 C1366 0.930 . S
H1358 C1368 0.930 . S
H1359 C1371 0.929 . S
H1360 C1374 0.930 . S
H1361 C1376 0.960 . S
H1362 C1376 0.960 . S
H1363 C1376 0.960 . S
C1364 H1356 0.929 . S
C1364 C1365 1.377 . S
C1364 C1366 1.384 . S
C1365 C1364 1.377 . S
C1365 C1371 1.390 . S
C1366 H1357 0.930 . S
C1366 C1364 1.384 . S
C1366 C1367 1.372 . S
C1367 C1366 1.372 . S
C1367 C1368 1.400 . S
C1367 C1372 1.490 . S
C1368 H1358 0.930 . S
C1368 C1367 1.400 . S
C1368 C1371 1.386 . S
H1369 C1385 0.930 . S
H1370 C1386 0.931 . S
C1371 H1359 0.929 . S
C1371 C1365 1.390 . S
C1371 C1368 1.386 . S
C1372 C1367 1.490 . S
C1372 C1374 1.395 . S
C1372 C1375 1.403 . S
H1373 C1379 0.930 . S
C1374 H1360 0.930 . S
C1374 C1372 1.395 . S
C1374 C1377 1.403 . S
C1375 C1372 1.403 . S
C1375 C1376 1.524 . S
C1375 C1379 1.400 . S
C1376 H1361 0.960 . S
C1376 H1362 0.960 . S
C1376 H1363 0.960 . S
C1376 C1375 1.524 . S
C1377 C1374 1.403 . S
C1377 C1378 1.392 . S
C1377 C1381 1.495 . S
C1378 C1377 1.392 . S
C1378 C1379 1.385 . S
C1378 C1380 1.478 . S
C1379 H1373 0.930 . S
C1379 C1375 1.400 . S
C1379 C1378 1.385 . S
C1380 C1378 1.478 . S
C1380 C1382 1.381 . S
C1380 C1386 1.383 . S
C1381 C1377 1.495 . S
C1381 H1387 0.959 . S
C1381 H1388 0.961 . S
C1381 H1389 0.960 . S
C1382 C1380 1.381 . S
C1382 C1383 1.394 . S
C1382 H1390 0.930 . S
C1383 C1382 1.394 . S
C1383 C1384 1.383 . S
C1383 H1391 0.929 . S
C1384 C1383 1.383 . S
C1384 C1385 1.377 . S
C1385 H1369 0.930 . S
C1385 C1384 1.377 . S
C1385 C1386 1.379 . S
C1386 H1370 0.931 . S
C1386 C1380 1.383 . S
C1386 C1385 1.379 . S
H1387 C1381 0.959 . S
H1388 C1381 0.961 . S
H1389 C1381 0.960 . S
H1390 C1382 0.930 . S
H1391 C1383 0.929 . S
H1392 C1400 0.929 . S
H1393 C1402 0.930 . S
H1394 C1404 0.930 . S
H1395 C1407 0.929 . S
H1396 C1410 0.930 . S
H1397 C1412 0.960 . S
H1398 C1412 0.960 . S
H1399 C1412 0.960 . S
C1400 H1392 0.929 . S
C1400 C1401 1.377 . S
C1400 C1402 1.384 . S
C1401 C1400 1.377 . S
C1401 C1407 1.390 . S
C1402 H1393 0.930 . S
C1402 C1400 1.384 . S
C1402 C1403 1.372 . S
C1403 C1402 1.372 . S
C1403 C1404 1.400 . S
C1403 C1408 1.490 . S
C1404 H1394 0.930 . S
C1404 C1403 1.400 . S
C1404 C1407 1.386 . S
H1405 C1421 0.930 . S
H1406 C1422 0.931 . S
C1407 H1395 0.929 . S
C1407 C1401 1.390 . S
C1407 C1404 1.386 . S
C1408 C1403 1.490 . S
C1408 C1410 1.395 . S
C1408 C1411 1.403 . S
H1409 C1415 0.930 . S
C1410 H1396 0.930 . S
C1410 C1408 1.395 . S
C1410 C1413 1.403 . S
C1411 C1408 1.403 . S
C1411 C1412 1.524 . S
C1411 C1415 1.400 . S
C1412 H1397 0.960 . S
C1412 H1398 0.960 . S
C1412 H1399 0.960 . S
C1412 C1411 1.524 . S
C1413 C1410 1.403 . S
C1413 C1414 1.392 . S
C1413 C1417 1.495 . S
C1414 C1413 1.392 . S
C1414 C1415 1.385 . S
C1414 C1416 1.478 . S
C1415 H1409 0.930 . S
C1415 C1411 1.400 . S
C1415 C1414 1.385 . S
C1416 C1414 1.478 . S
C1416 C1418 1.381 . S
C1416 C1422 1.383 . S
C1417 C1413 1.495 . S
C1417 H1423 0.959 . S
C1417 H1424 0.961 . S
C1417 H1425 0.960 . S
C1418 C1416 1.381 . S
C1418 C1419 1.394 . S
C1418 H1426 0.930 . S
C1419 C1418 1.394 . S
C1419 C1420 1.383 . S
C1419 H1427 0.929 . S
C1420 C1419 1.383 . S
C1420 C1421 1.377 . S
C1421 H1405 0.930 . S
C1421 C1420 1.377 . S
C1421 C1422 1.379 . S
C1422 H1406 0.931 . S
C1422 C1416 1.383 . S
C1422 C1421 1.379 . S
H1423 C1417 0.959 . S
H1424 C1417 0.961 . S
H1425 C1417 0.960 . S
H1426 C1418 0.930 . S
H1427 C1419 0.929 . S
H1428 C1436 0.929 . S
H1429 C1438 0.930 . S
H1430 C1440 0.930 . S
H1431 C1443 0.929 . S
H1432 C1446 0.930 . S
H1433 C1448 0.960 . S
H1434 C1448 0.960 . S
H1435 C1448 0.960 . S
C1436 H1428 0.929 . S
C1436 C1437 1.377 . S
C1436 C1438 1.384 . S
C1437 C1436 1.377 . S
C1437 C1443 1.390 . S
C1438 H1429 0.930 . S
C1438 C1436 1.384 . S
C1438 C1439 1.372 . S
C1439 C1438 1.372 . S
C1439 C1440 1.400 . S
C1439 C1444 1.490 . S
C1440 H1430 0.930 . S
C1440 C1439 1.400 . S
C1440 C1443 1.386 . S
H1441 C1457 0.944 . S
H1442 C1458 0.931 . S
C1443 H1431 0.929 . S
C1443 C1437 1.390 . S
C1443 C1440 1.386 . S
C1444 C1439 1.490 . S
C1444 C1446 1.395 . S
C1444 C1447 1.403 . S
H1445 C1451 0.930 . S
C1446 H1432 0.930 . S
C1446 C1444 1.395 . S
C1446 C1449 1.403 . S
C1447 C1444 1.403 . S
C1447 C1448 1.524 . S
C1447 C1451 1.400 . S
C1448 H1433 0.960 . S
C1448 H1434 0.960 . S
C1448 H1435 0.960 . S
C1448 C1447 1.524 . S
C1449 C1446 1.403 . S
C1449 C1450 1.392 . S
C1449 C1453 1.495 . S
C1450 C1449 1.392 . S
C1450 C1451 1.385 . S
C1450 C1452 1.478 . S
C1451 H1445 0.930 . S
C1451 C1447 1.400 . S
C1451 C1450 1.385 . S
C1452 C1450 1.478 . S
C1452 C1454 1.381 . S
C1452 C1458 1.383 . S
C1453 C1449 1.495 . S
C1453 H1459 0.959 . S
C1453 H1460 0.961 . S
C1453 H1461 0.960 . S
C1454 C1452 1.381 . S
C1454 C1455 1.394 . S
C1454 H1462 0.930 . S
C1455 C1454 1.394 . S
C1455 C1456 1.383 . S
C1455 H1463 0.929 . S
C1456 C1455 1.383 . S
C1456 C1457 1.377 . S
C1457 H1441 0.944 . S
C1457 C1456 1.377 . S
C1457 C1458 1.379 . S
C1458 H1442 0.931 . S
C1458 C1452 1.383 . S
C1458 C1457 1.379 . S
H1459 C1453 0.959 . S
H1460 C1453 0.961 . S
H1461 C1453 0.960 . S
H1462 C1454 0.930 . S
H1463 C1455 0.929 . S
H1464 C1472 0.929 . S
H1465 C1474 0.930 . S
H1466 C1476 0.930 . S
H1467 C1479 0.929 . S
H1468 C1482 0.930 . S
H1469 C1484 0.960 . S
H1470 C1484 0.960 . S
H1471 C1484 0.960 . S
C1472 H1464 0.929 . S
C1472 C1473 1.377 . S
C1472 C1474 1.384 . S
C1473 C1472 1.377 . S
C1473 C1479 1.390 . S
C1474 H1465 0.930 . S
C1474 C1472 1.384 . S
C1474 C1475 1.372 . S
C1475 C1474 1.372 . S
C1475 C1476 1.400 . S
C1475 C1480 1.490 . S
C1476 H1466 0.930 . S
C1476 C1475 1.400 . S
C1476 C1479 1.386 . S
H1477 C1493 0.930 . S
H1478 C1494 0.931 . S
C1479 H1467 0.929 . S
C1479 C1473 1.390 . S
C1479 C1476 1.386 . S
C1480 C1475 1.490 . S
C1480 C1482 1.395 . S
C1480 C1483 1.403 . S
H1481 C1487 0.930 . S
C1482 H1468 0.930 . S
C1482 C1480 1.395 . S
C1482 C1485 1.403 . S
C1483 C1480 1.403 . S
C1483 C1484 1.524 . S
C1483 C1487 1.400 . S
C1484 H1469 0.960 . S
C1484 H1470 0.960 . S
C1484 H1471 0.960 . S
C1484 C1483 1.524 . S
C1485 C1482 1.403 . S
C1485 C1486 1.392 . S
C1485 C1489 1.495 . S
C1486 C1485 1.392 . S
C1486 C1487 1.385 . S
C1486 C1488 1.478 . S
C1487 H1481 0.930 . S
C1487 C1483 1.400 . S
C1487 C1486 1.385 . S
C1488 C1486 1.478 . S
C1488 C1490 1.381 . S
C1488 C1494 1.383 . S
C1489 C1485 1.495 . S
C1489 H1495 0.959 . S
C1489 H1496 0.961 . S
C1489 H1497 0.960 . S
C1490 C1488 1.381 . S
C1490 C1491 1.394 . S
C1490 H1498 0.930 . S
C1491 C1490 1.394 . S
C1491 C1492 1.383 . S
C1491 H1499 0.929 . S
C1492 C1491 1.383 . S
C1492 C1493 1.377 . S
C1493 H1477 0.930 . S
C1493 C1492 1.377 . S
C1493 C1494 1.379 . S
C1494 H1478 0.931 . S
C1494 C1488 1.383 . S
C1494 C1493 1.379 . S
H1495 C1489 0.959 . S
H1496 C1489 0.961 . S
H1497 C1489 0.960 . S
H1498 C1490 0.930 . S
H1499 C1491 0.929 . S
H1500 C1508 0.929 . S
H1501 C1510 0.930 . S
H1502 C1512 0.930 . S
H1503 C1515 0.929 . S
H1504 C1518 0.930 . S
H1505 C1520 0.960 . S
H1506 C1520 0.960 . S
H1507 C1520 0.960 . S
C1508 H1500 0.929 . S
C1508 C1509 1.377 . S
C1508 C1510 1.384 . S
C1509 C1508 1.377 . S
C1509 C1515 1.390 . S
C1510 H1501 0.930 . S
C1510 C1508 1.384 . S
C1510 C1511 1.372 . S
C1511 C1510 1.372 . S
C1511 C1512 1.400 . S
C1511 C1516 1.490 . S
C1512 H1502 0.930 . S
C1512 C1511 1.400 . S
C1512 C1515 1.386 . S
H1513 C1529 0.930 . S
H1514 C1530 0.931 . S
C1515 H1503 0.929 . S
C1515 C1509 1.390 . S
C1515 C1512 1.386 . S
C1516 C1511 1.490 . S
C1516 C1518 1.395 . S
C1516 C1519 1.403 . S
H1517 C1523 0.930 . S
C1518 H1504 0.930 . S
C1518 C1516 1.395 . S
C1518 C1521 1.403 . S
C1519 C1516 1.403 . S
C1519 C1520 1.524 . S
C1519 C1523 1.400 . S
C1520 H1505 0.960 . S
C1520 H1506 0.960 . S
C1520 H1507 0.960 . S
C1520 C1519 1.524 . S
C1521 C1518 1.403 . S
C1521 C1522 1.392 . S
C1521 C1525 1.495 . S
C1522 C1521 1.392 . S
C1522 C1523 1.385 . S
C1522 C1524 1.478 . S
C1523 H1517 0.930 . S
C1523 C1519 1.400 . S
C1523 C1522 1.385 . S
C1524 C1522 1.478 . S
C1524 C1526 1.381 . S
C1524 C1530 1.383 . S
C1525 C1521 1.495 . S
C1525 H1531 0.959 . S
C1525 H1532 0.961 . S
C1525 H1533 0.960 . S
C1526 C1524 1.381 . S
C1526 C1527 1.394 . S
C1526 H1534 0.930 . S
C1527 C1526 1.394 . S
C1527 C1528 1.383 . S
C1527 H1535 0.929 . S
C1528 C1527 1.383 . S
C1528 C1529 1.377 . S
C1529 H1513 0.930 . S
C1529 C1528 1.377 . S
C1529 C1530 1.379 . S
C1530 H1514 0.931 . S
C1530 C1524 1.383 . S
C1530 C1529 1.379 . S
H1531 C1525 0.959 . S
H1532 C1525 0.961 . S
H1533 C1525 0.960 . S
H1534 C1526 0.930 . S
H1535 C1527 0.929 . S
H1536 C1544 0.929 . S
H1537 C1546 0.930 . S
H1538 C1548 0.930 . S
H1539 C1551 0.929 . S
H1540 C1554 0.930 . S
H1541 C1556 0.960 . S
H1542 C1556 0.960 . S
H1543 C1556 0.960 . S
C1544 H1536 0.929 . S
C1544 C1545 1.377 . S
C1544 C1546 1.384 . S
C1545 C1544 1.377 . S
C1545 C1551 1.390 . S
C1546 H1537 0.930 . S
C1546 C1544 1.384 . S
C1546 C1547 1.372 . S
C1547 C1546 1.372 . S
C1547 C1548 1.400 . S
C1547 C1552 1.490 . S
C1548 H1538 0.930 . S
C1548 C1547 1.400 . S
C1548 C1551 1.386 . S
H1549 C1565 0.930 . S
H1550 C1566 0.931 . S
C1551 H1539 0.929 . S
C1551 C1545 1.390 . S
C1551 C1548 1.386 . S
C1552 C1547 1.490 . S
C1552 C1554 1.395 . S
C1552 C1555 1.403 . S
H1553 C1559 0.930 . S
C1554 H1540 0.930 . S
C1554 C1552 1.395 . S
C1554 C1557 1.403 . S
C1555 C1552 1.403 . S
C1555 C1556 1.524 . S
C1555 C1559 1.400 . S
C1556 H1541 0.960 . S
C1556 H1542 0.960 . S
C1556 H1543 0.960 . S
C1556 C1555 1.524 . S
C1557 C1554 1.403 . S
C1557 C1558 1.392 . S
C1557 C1561 1.495 . S
C1558 C1557 1.392 . S
C1558 C1559 1.385 . S
C1558 C1560 1.478 . S
C1559 H1553 0.930 . S
C1559 C1555 1.400 . S
C1559 C1558 1.385 . S
C1560 C1558 1.478 . S
C1560 C1562 1.381 . S
C1560 C1566 1.383 . S
C1561 C1557 1.495 . S
C1561 H1567 0.959 . S
C1561 H1568 0.961 . S
C1561 H1569 0.960 . S
C1562 C1560 1.381 . S
C1562 C1563 1.394 . S
C1562 H1570 0.930 . S
C1563 C1562 1.394 . S
C1563 C1564 1.383 . S
C1563 H1571 0.929 . S
C1564 C1563 1.383 . S
C1564 C1565 1.377 . S
C1565 H1549 0.930 . S
C1565 C1564 1.377 . S
C1565 C1566 1.379 . S
C1566 H1550 0.931 . S
C1566 C1560 1.383 . S
C1566 C1565 1.379 . S
H1567 C1561 0.959 . S
H1568 C1561 0.961 . S
H1569 C1561 0.960 . S
H1570 C1562 0.930 . S
H1571 C1563 0.929 . S
H1572 C1580 0.929 . S
H1573 C1582 0.930 . S
H1574 C1584 0.930 . S
H1575 C1587 0.929 1_545 S
H1576 C1590 0.930 . S
H1577 C1592 0.960 1_545 S
H1578 C1592 0.960 . S
H1579 C1592 0.960 1_545 S
C1580 H1572 0.929 . S
C1580 C1581 1.377 . S
C1580 C1582 1.384 . S
C1581 C1580 1.377 . S
C1581 C1587 1.390 . S
C1582 H1573 0.930 . S
C1582 C1580 1.384 . S
C1582 C1583 1.372 . S
C1583 C1582 1.372 . S
C1583 C1584 1.400 . S
C1583 C1588 1.490 . S
C1584 H1574 0.930 . S
C1584 C1583 1.400 . S
C1584 C1587 1.386 . S
H1585 C1601 0.930 . S
H1586 C1602 0.931 . S
C1587 H1575 0.929 1_565 S
C1587 C1581 1.390 . S
C1587 C1584 1.386 . S
C1588 C1583 1.490 . S
C1588 C1590 1.395 . S
C1588 C1591 1.403 . S
H1589 C1595 0.930 . S
C1590 H1576 0.930 . S
C1590 C1588 1.395 . S
C1590 C1593 1.403 . S
C1591 C1588 1.403 . S
C1591 C1592 1.524 . S
C1591 C1595 1.400 . S
C1592 H1577 0.960 1_565 S
C1592 H1578 0.960 . S
C1592 H1579 0.960 1_565 S
C1592 C1591 1.524 . S
C1593 C1590 1.403 . S
C1593 C1594 1.392 . S
C1593 C1597 1.495 . S
C1594 C1593 1.392 . S
C1594 C1595 1.385 . S
C1594 C1596 1.478 . S
C1595 H1589 0.930 . S
C1595 C1591 1.400 . S
C1595 C1594 1.385 . S
C1596 C1594 1.478 . S
C1596 C1598 1.381 . S
C1596 C1602 1.383 . S
C1597 C1593 1.495 . S
C1597 H1603 0.959 . S
C1597 H1604 0.961 . S
C1597 H1605 0.960 . S
C1598 C1596 1.381 . S
C1598 C1599 1.394 . S
C1598 H1606 0.930 . S
C1599 C1598 1.394 . S
C1599 C1600 1.383 . S
C1599 H1607 0.929 . S
C1600 C1599 1.383 . S
C1600 C1601 1.377 . S
C1601 H1585 0.930 . S
C1601 C1600 1.377 . S
C1601 C1602 1.379 . S
C1602 H1586 0.931 . S
C1602 C1596 1.383 . S
C1602 C1601 1.379 . S
H1603 C1597 0.959 . S
H1604 C1597 0.961 . S
H1605 C1597 0.960 . S
H1606 C1598 0.930 . S
H1607 C1599 0.929 . S
H1608 C1616 0.929 . S
H1609 C1618 0.930 . S
H1610 C1620 0.930 . S
H1611 C1623 0.929 . S
H1612 C1626 0.930 . S
H1613 C1628 0.960 . S
H1614 C1628 0.960 . S
H1615 C1628 0.960 . S
C1616 H1608 0.929 . S
C1616 C1617 1.377 . S
C1616 C1618 1.384 . S
C1617 C1616 1.377 . S
C1617 C1623 1.390 . S
C1618 H1609 0.930 . S
C1618 C1616 1.384 . S
C1618 C1619 1.372 . S
C1619 C1618 1.372 . S
C1619 C1620 1.400 . S
C1619 C1624 1.490 . S
C1620 H1610 0.930 . S
C1620 C1619 1.400 . S
C1620 C1623 1.386 . S
H1621 C1637 0.930 . S
H1622 C1638 0.931 . S
C1623 H1611 0.929 . S
C1623 C1617 1.390 . S
C1623 C1620 1.386 . S
C1624 C1619 1.490 . S
C1624 C1626 1.395 . S
C1624 C1627 1.403 . S
H1625 C1631 0.930 . S
C1626 H1612 0.930 . S
C1626 C1624 1.395 . S
C1626 C1629 1.403 . S
C1627 C1624 1.403 . S
C1627 C1628 1.524 . S
C1627 C1631 1.400 . S
C1628 H1613 0.960 . S
C1628 H1614 0.960 . S
C1628 H1615 0.960 . S
C1628 C1627 1.524 . S
C1629 C1626 1.403 . S
C1629 C1630 1.392 . S
C1629 C1633 1.495 . S
C1630 C1629 1.392 . S
C1630 C1631 1.385 . S
C1630 C1632 1.478 . S
C1631 H1625 0.930 . S
C1631 C1627 1.400 . S
C1631 C1630 1.385 . S
C1632 C1630 1.478 . S
C1632 C1634 1.381 . S
C1632 C1638 1.383 . S
C1633 C1629 1.495 . S
C1633 H1639 0.959 . S
C1633 H1640 0.961 . S
C1633 H1641 0.960 . S
C1634 C1632 1.381 . S
C1634 C1635 1.394 . S
C1634 H1642 0.930 . S
C1635 C1634 1.394 . S
C1635 C1636 1.383 . S
C1635 H1643 0.929 . S
C1636 C1635 1.383 . S
C1636 C1637 1.377 . S
C1637 H1621 0.930 . S
C1637 C1636 1.377 . S
C1637 C1638 1.379 . S
C1638 H1622 0.931 . S
C1638 C1632 1.383 . S
C1638 C1637 1.379 . S
H1639 C1633 0.959 . S
H1640 C1633 0.961 . S
H1641 C1633 0.960 . S
H1642 C1634 0.930 . S
H1643 C1635 0.929 . S
H1644 C1652 0.906 1_565 S
H1645 C1654 0.930 . S
H1646 C1656 0.930 . S
H1647 C1659 0.929 . S
H1648 C1662 0.941 . S
H1649 C1664 0.960 1_554 S
H1650 C1664 0.970 . S
H1651 C1664 0.960 . S
C1652 H1644 0.906 1_545 S
C1652 C1653 1.377 . S
C1652 C1654 1.384 . S
C1653 C1652 1.377 . S
C1653 C1659 1.390 . S
C1654 H1645 0.930 . S
C1654 C1652 1.384 . S
C1654 C1655 1.372 . S
C1655 C1654 1.372 . S
C1655 C1656 1.400 . S
C1655 C1660 1.490 . S
C1656 H1646 0.930 . S
C1656 C1655 1.400 . S
C1656 C1659 1.386 . S
H1657 C1673 0.930 . S
H1658 C1674 0.931 . S
C1659 H1647 0.929 . S
C1659 C1653 1.390 . S
C1659 C1656 1.386 . S
C1660 C1655 1.490 . S
C1660 C1662 1.395 1_556 S
C1660 C1663 1.403 1_556 S
H1661 C1667 0.930 . S
C1662 H1648 0.941 . S
C1662 C1660 1.395 1_554 S
C1662 C1665 1.403 . S
C1663 C1660 1.403 1_554 S
C1663 C1664 1.524 1_554 S
C1663 C1667 1.400 . S
C1664 H1649 0.960 1_556 S
C1664 H1650 0.970 . S
C1664 H1651 0.960 . S
C1664 C1663 1.524 1_556 S
C1665 C1662 1.403 . S
C1665 C1666 1.392 . S
C1665 C1669 1.495 . S
C1666 C1665 1.392 . S
C1666 C1667 1.385 . S
C1666 C1668 1.478 . S
C1667 H1661 0.930 . S
C1667 C1663 1.400 . S
C1667 C1666 1.385 . S
C1668 C1666 1.478 . S
C1668 C1670 1.381 . S
C1668 C1674 1.383 . S
C1669 C1665 1.495 . S
C1669 H1675 0.959 . S
C1669 H1676 0.961 . S
C1669 H1677 0.960 . S
C1670 C1668 1.381 . S
C1670 C1671 1.394 . S
C1670 H1678 0.930 . S
C1671 C1670 1.394 . S
C1671 C1672 1.383 . S
C1671 H1679 0.929 . S
C1672 C1671 1.383 . S
C1672 C1673 1.377 . S
C1673 H1657 0.930 . S
C1673 C1672 1.377 . S
C1673 C1674 1.379 . S
C1674 H1658 0.931 . S
C1674 C1668 1.383 . S
C1674 C1673 1.379 . S
H1675 C1669 0.959 . S
H1676 C1669 0.961 . S
H1677 C1669 0.960 . S
H1678 C1670 0.930 . S
H1679 C1671 0.929 . S
H1680 C1688 0.929 . S
H1681 C1690 0.930 . S
H1682 C1692 0.930 . S
H1683 C1695 0.929 . S
H1684 C1698 0.930 . S
H1685 C1700 0.960 . S
H1686 C1700 0.960 . S
H1687 C1700 0.960 . S
C1688 H1680 0.929 . S
C1688 C1689 1.377 . S
C1688 C1690 1.384 . S
C1689 C1688 1.377 . S
C1689 C1695 1.390 . S
C1690 H1681 0.930 . S
C1690 C1688 1.384 . S
C1690 C1691 1.372 . S
C1691 C1690 1.372 . S
C1691 C1692 1.400 . S
C1691 C1696 1.490 . S
C1692 H1682 0.930 . S
C1692 C1691 1.400 . S
C1692 C1695 1.386 . S
H1693 C1709 0.930 . S
H1694 C1710 0.931 . S
C1695 H1683 0.929 . S
C1695 C1689 1.390 . S
C1695 C1692 1.386 . S
C1696 C1691 1.490 . S
C1696 C1698 1.395 . S
C1696 C1699 1.403 . S
H1697 C1703 0.930 . S
C1698 H1684 0.930 . S
C1698 C1696 1.395 . S
C1698 C1701 1.403 . S
C1699 C1696 1.403 . S
C1699 C1700 1.524 . S
C1699 C1703 1.400 . S
C1700 H1685 0.960 . S
C1700 H1686 0.960 . S
C1700 H1687 0.960 . S
C1700 C1699 1.524 . S
C1701 C1698 1.403 . S
C1701 C1702 1.392 . S
C1701 C1705 1.495 . S
C1702 C1701 1.392 . S
C1702 C1703 1.385 . S
C1702 C1704 1.478 . S
C1703 H1697 0.930 . S
C1703 C1699 1.400 . S
C1703 C1702 1.385 . S
C1704 C1702 1.478 . S
C1704 C1706 1.381 . S
C1704 C1710 1.383 . S
C1705 C1701 1.495 . S
C1705 H1711 0.959 . S
C1705 H1712 0.961 . S
C1705 H1713 0.960 . S
C1706 C1704 1.381 . S
C1706 C1707 1.394 . S
C1706 H1714 0.930 . S
C1707 C1706 1.394 . S
C1707 C1708 1.383 . S
C1707 H1715 0.929 . S
C1708 C1707 1.383 . S
C1708 C1709 1.377 . S
C1709 H1693 0.930 . S
C1709 C1708 1.377 . S
C1709 C1710 1.379 . S
C1710 H1694 0.931 . S
C1710 C1704 1.383 . S
C1710 C1709 1.379 . S
H1711 C1705 0.959 . S
H1712 C1705 0.961 . S
H1713 C1705 0.960 . S
H1714 C1706 0.930 . S
H1715 C1707 0.929 . S
H1716 C1724 0.929 1_545 S
H1717 C1726 0.930 . S
H1718 C1728 0.930 . S
H1719 C1731 0.929 . S
H1720 C1734 0.930 . S
H1721 C1736 0.960 . S
H1722 C1736 0.960 . S
H1723 C1736 0.960 . S
C1724 H1716 0.929 1_565 S
C1724 C1725 1.377 . S
C1724 C1726 1.384 . S
C1725 C1724 1.377 . S
C1725 C1731 1.390 . S
C1726 H1717 0.930 . S
C1726 C1724 1.384 . S
C1726 C1727 1.372 . S
C1727 C1726 1.372 . S
C1727 C1728 1.400 . S
C1727 C1732 1.490 . S
C1728 H1718 0.930 . S
C1728 C1727 1.400 . S
C1728 C1731 1.386 . S
H1729 C1745 0.930 . S
H1730 C1746 0.931 . S
C1731 H1719 0.929 . S
C1731 C1725 1.390 . S
C1731 C1728 1.386 . S
C1732 C1727 1.490 . S
C1732 C1734 1.395 . S
C1732 C1735 1.403 . S
H1733 C1739 0.930 . S
C1734 H1720 0.930 . S
C1734 C1732 1.395 . S
C1734 C1737 1.403 . S
C1735 C1732 1.403 . S
C1735 C1736 1.524 . S
C1735 C1739 1.400 . S
C1736 H1721 0.960 . S
C1736 H1722 0.960 . S
C1736 H1723 0.960 . S
C1736 C1735 1.524 . S
C1737 C1734 1.403 . S
C1737 C1738 1.392 . S
C1737 C1741 1.495 . S
C1738 C1737 1.392 . S
C1738 C1739 1.385 . S
C1738 C1740 1.478 . S
C1739 H1733 0.930 . S
C1739 C1735 1.400 . S
C1739 C1738 1.385 . S
C1740 C1738 1.478 . S
C1740 C1742 1.381 . S
C1740 C1746 1.383 . S
C1741 C1737 1.495 . S
C1741 H1747 0.959 . S
C1741 H1748 0.961 . S
C1741 H1749 0.960 . S
C1742 C1740 1.381 . S
C1742 C1743 1.394 . S
C1742 H1750 0.930 . S
C1743 C1742 1.394 . S
C1743 C1744 1.383 . S
C1743 H1751 0.929 . S
C1744 C1743 1.383 . S
C1744 C1745 1.377 . S
C1745 H1729 0.930 . S
C1745 C1744 1.377 . S
C1745 C1746 1.379 . S
C1746 H1730 0.931 . S
C1746 C1740 1.383 . S
C1746 C1745 1.379 . S
H1747 C1741 0.959 . S
H1748 C1741 0.961 . S
H1749 C1741 0.960 . S
H1750 C1742 0.930 . S
H1751 C1743 0.929 . S
H1752 C1760 0.929 . S
H1753 C1762 0.930 . S
H1754 C1764 0.930 . S
H1755 C1767 0.929 . S
H1756 C1770 0.930 . S
H1757 C1772 0.960 . S
H1758 C1772 0.960 . S
H1759 C1772 0.960 . S
C1760 H1752 0.929 . S
C1760 C1761 1.377 . S
C1760 C1762 1.384 . S
C1761 C1760 1.377 . S
C1761 C1767 1.390 . S
C1762 H1753 0.930 . S
C1762 C1760 1.384 . S
C1762 C1763 1.372 . S
C1763 C1762 1.372 . S
C1763 C1764 1.400 . S
C1763 C1768 1.490 . S
C1764 H1754 0.930 . S
C1764 C1763 1.400 . S
C1764 C1767 1.386 . S
H1765 C1781 0.930 . S
H1766 C1782 0.931 . S
C1767 H1755 0.929 . S
C1767 C1761 1.390 . S
C1767 C1764 1.386 . S
C1768 C1763 1.490 . S
C1768 C1770 1.395 . S
C1768 C1771 1.403 . S
H1769 C1775 0.930 . S
C1770 H1756 0.930 . S
C1770 C1768 1.395 . S
C1770 C1773 1.403 . S
C1771 C1768 1.403 . S
C1771 C1772 1.524 . S
C1771 C1775 1.400 . S
C1772 H1757 0.960 . S
C1772 H1758 0.960 . S
C1772 H1759 0.960 . S
C1772 C1771 1.524 . S
C1773 C1770 1.403 . S
C1773 C1774 1.392 . S
C1773 C1777 1.495 . S
C1774 C1773 1.392 . S
C1774 C1775 1.385 . S
C1774 C1776 1.478 . S
C1775 H1769 0.930 . S
C1775 C1771 1.400 . S
C1775 C1774 1.385 . S
C1776 C1774 1.478 . S
C1776 C1778 1.381 . S
C1776 C1782 1.383 . S
C1777 C1773 1.495 . S
C1777 H1783 0.959 . S
C1777 H1784 0.961 . S
C1777 H1785 0.960 . S
C1778 C1776 1.381 . S
C1778 C1779 1.394 . S
C1778 H1786 0.930 . S
C1779 C1778 1.394 . S
C1779 C1780 1.383 . S
C1779 H1787 0.929 . S
C1780 C1779 1.383 . S
C1780 C1781 1.377 . S
C1781 H1765 0.930 . S
C1781 C1780 1.377 . S
C1781 C1782 1.379 . S
C1782 H1766 0.931 . S
C1782 C1776 1.383 . S
C1782 C1781 1.379 . S
H1783 C1777 0.959 . S
H1784 C1777 0.961 . S
H1785 C1777 0.960 . S
H1786 C1778 0.930 . S
H1787 C1779 0.929 . S
H1788 C1796 0.984 . S
H1789 C1798 0.930 1_565 S
H1790 C1800 0.930 . S
H1791 C1803 0.929 . S
H1792 C1806 0.930 . S
H1793 C1808 0.960 . S
H1794 C1808 0.960 . S
H1795 C1808 0.960 . S
C1796 H1788 0.984 . S
C1796 C1797 1.345 1_565 S
C1796 C1798 1.365 1_565 S
C1797 C1796 1.345 1_545 S
C1797 C1803 1.390 . S
C1798 H1789 0.930 1_545 S
C1798 C1796 1.365 1_545 S
C1798 C1799 1.372 . S
C1799 C1798 1.372 . S
C1799 C1800 1.400 . S
C1799 C1804 1.490 . S
C1800 H1790 0.930 . S
C1800 C1799 1.400 . S
C1800 C1803 1.386 . S
H1801 C1817 0.930 . S
H1802 C1818 0.931 . S
C1803 H1791 0.929 . S
C1803 C1797 1.390 . S
C1803 C1800 1.386 . S
C1804 C1799 1.490 . S
C1804 C1806 1.395 1_554 S
C1804 C1807 1.403 . S
H1805 C1811 0.930 . S
C1806 H1792 0.930 . S
C1806 C1804 1.395 1_556 S
C1806 C1809 1.403 . S
C1807 C1804 1.403 . S
C1807 C1808 1.524 . S
C1807 C1811 1.400 1_554 S
C1808 H1793 0.960 . S
C1808 H1794 0.960 . S
C1808 H1795 0.960 . S
C1808 C1807 1.524 . S
C1809 C1806 1.403 . S
C1809 C1810 1.392 . S
C1809 C1813 1.495 . S
C1810 C1809 1.392 . S
C1810 C1811 1.385 . S
C1810 C1812 1.478 . S
C1811 H1805 0.930 . S
C1811 C1807 1.400 1_556 S
C1811 C1810 1.385 . S
C1812 C1810 1.478 . S
C1812 C1814 1.381 . S
C1812 C1818 1.383 . S
C1813 C1809 1.495 . S
C1813 H1819 0.959 . S
C1813 H1820 0.961 . S
C1813 H1821 0.960 . S
C1814 C1812 1.381 . S
C1814 C1815 1.394 . S
C1814 H1822 0.930 . S
C1815 C1814 1.394 . S
C1815 C1816 1.383 . S
C1815 H1823 0.929 . S
C1816 C1815 1.383 . S
C1816 C1817 1.377 . S
C1817 H1801 0.930 . S
C1817 C1816 1.377 . S
C1817 C1818 1.379 . S
C1818 H1802 0.931 . S
C1818 C1812 1.383 . S
C1818 C1817 1.379 . S
H1819 C1813 0.959 . S
H1820 C1813 0.961 . S
H1821 C1813 0.960 . S
H1822 C1814 0.930 . S
H1823 C1815 0.929 . S
H1824 C1832 0.929 . S
H1825 C1834 0.930 . S
H1826 C1836 0.930 . S
H1827 C1839 0.929 . S
H1828 C1842 0.930 . S
H1829 C1844 0.960 . S
H1830 C1844 0.960 . S
H1831 C1844 0.960 . S
C1832 H1824 0.929 . S
C1832 C1833 1.377 . S
C1832 C1834 1.384 . S
C1833 C1832 1.377 . S
C1833 C1839 1.390 . S
C1834 H1825 0.930 . S
C1834 C1832 1.384 . S
C1834 C1835 1.372 . S
C1835 C1834 1.372 . S
C1835 C1836 1.400 . S
C1835 C1840 1.490 . S
C1836 H1826 0.930 . S
C1836 C1835 1.400 . S
C1836 C1839 1.386 . S
H1837 C1853 0.930 . S
H1838 C1854 0.931 . S
C1839 H1827 0.929 . S
C1839 C1833 1.390 . S
C1839 C1836 1.386 . S
C1840 C1835 1.490 . S
C1840 C1842 1.395 . S
C1840 C1843 1.403 . S
H1841 C1847 0.930 . S
C1842 H1828 0.930 . S
C1842 C1840 1.395 . S
C1842 C1845 1.403 . S
C1843 C1840 1.403 . S
C1843 C1844 1.524 . S
C1843 C1847 1.400 . S
C1844 H1829 0.960 . S
C1844 H1830 0.960 . S
C1844 H1831 0.960 . S
C1844 C1843 1.524 . S
C1845 C1842 1.403 . S
C1845 C1846 1.392 . S
C1845 C1849 1.495 . S
C1846 C1845 1.392 . S
C1846 C1847 1.385 . S
C1846 C1848 1.478 . S
C1847 H1841 0.930 . S
C1847 C1843 1.400 . S
C1847 C1846 1.385 . S
C1848 C1846 1.478 . S
C1848 C1850 1.381 . S
C1848 C1854 1.383 . S
C1849 C1845 1.495 . S
C1849 H1855 0.959 . S
C1849 H1856 0.961 . S
C1849 H1857 0.960 . S
C1850 C1848 1.381 . S
C1850 C1851 1.394 . S
C1850 H1858 0.930 . S
C1851 C1850 1.394 . S
C1851 C1852 1.383 . S
C1851 H1859 0.929 . S
C1852 C1851 1.383 . S
C1852 C1853 1.377 . S
C1853 H1837 0.930 . S
C1853 C1852 1.377 . S
C1853 C1854 1.379 . S
C1854 H1838 0.931 . S
C1854 C1848 1.383 . S
C1854 C1853 1.379 . S
H1855 C1849 0.959 . S
H1856 C1849 0.961 . S
H1857 C1849 0.960 . S
H1858 C1850 0.930 . S
H1859 C1851 0.929 . S
H1860 C1868 0.929 . S
H1861 C1870 0.930 . S
H1862 C1872 0.936 . S
H1863 C1875 0.935 . S
H1864 C1878 0.930 . S
H1865 C1880 0.960 . S
H1866 C1880 0.960 . S
H1867 C1880 0.960 1_655 S
C1868 H1860 0.929 . S
C1868 C1869 1.377 . S
C1868 C1870 1.384 . S
C1869 C1868 1.377 . S
C1869 C1875 1.387 1_455 S
C1870 H1861 0.930 . S
C1870 C1868 1.384 . S
C1870 C1871 1.372 . S
C1871 C1870 1.372 . S
C1871 C1872 1.400 . S
C1871 C1876 1.490 . S
C1872 H1862 0.936 . S
C1872 C1871 1.400 . S
C1872 C1875 1.383 1_455 S
H1873 C1889 0.930 . S
H1874 C1890 0.931 . S
C1875 H1863 0.935 . S
C1875 C1869 1.387 1_655 S
C1875 C1872 1.383 1_655 S
C1876 C1871 1.490 . S
C1876 C1878 1.395 . S
C1876 C1879 1.403 1_565 S
H1877 C1883 0.930 . S
C1878 H1864 0.930 . S
C1878 C1876 1.395 . S
C1878 C1881 1.403 1_565 S
C1879 C1876 1.403 1_545 S
C1879 C1880 1.524 . S
C1879 C1883 1.400 . S
C1880 H1865 0.960 . S
C1880 H1866 0.960 . S
C1880 H1867 0.960 1_455 S
C1880 C1879 1.524 . S
C1881 C1878 1.403 1_545 S
C1881 C1882 1.392 . S
C1881 C1885 1.495 . S
C1882 C1881 1.392 . S
C1882 C1883 1.385 . S
C1882 C1884 1.478 . S
C1883 H1877 0.930 . S
C1883 C1879 1.400 . S
C1883 C1882 1.385 . S
C1884 C1882 1.478 . S
C1884 C1886 1.381 . S
C1884 C1890 1.383 . S
C1885 C1881 1.495 . S
C1885 H1891 0.959 1_545 S
C1885 H1892 0.961 . S
C1885 H1893 0.960 . S
C1886 C1884 1.381 . S
C1886 C1887 1.394 . S
C1886 H1894 0.930 . S
C1887 C1886 1.394 . S
C1887 C1888 1.383 . S
C1887 H1895 0.929 . S
C1888 C1887 1.383 . S
C1888 C1889 1.377 . S
C1889 H1873 0.930 . S
C1889 C1888 1.377 . S
C1889 C1890 1.379 . S
C1890 H1874 0.931 . S
C1890 C1884 1.383 . S
C1890 C1889 1.379 . S
H1891 C1885 0.959 1_565 S
H1892 C1885 0.961 . S
H1893 C1885 0.960 . S
H1894 C1886 0.930 . S
H1895 C1887 0.929 . S
H1896 C1904 0.929 . S
H1897 C1906 0.930 . S
H1898 C1908 0.930 . S
H1899 C1911 0.929 . S
H1900 C1914 0.930 . S
H1901 C1916 0.960 . S
H1902 C1916 0.960 . S
H1903 C1916 0.960 . S
C1904 H1896 0.929 . S
C1904 C1905 1.377 . S
C1904 C1906 1.384 . S
C1905 C1904 1.377 . S
C1905 C1911 1.390 . S
C1906 H1897 0.930 . S
C1906 C1904 1.384 . S
C1906 C1907 1.372 . S
C1907 C1906 1.372 . S
C1907 C1908 1.400 . S
C1907 C1912 1.490 . S
C1908 H1898 0.930 . S
C1908 C1907 1.400 . S
C1908 C1911 1.386 . S
H1909 C1925 0.930 . S
H1910 C1926 0.931 . S
C1911 H1899 0.929 . S
C1911 C1905 1.390 . S
C1911 C1908 1.386 . S
C1912 C1907 1.490 . S
C1912 C1914 1.395 . S
C1912 C1915 1.403 . S
H1913 C1919 0.930 . S
C1914 H1900 0.930 . S
C1914 C1912 1.395 . S
C1914 C1917 1.403 . S
C1915 C1912 1.403 . S
C1915 C1916 1.524 . S
C1915 C1919 1.400 . S
C1916 H1901 0.960 . S
C1916 H1902 0.960 . S
C1916 H1903 0.960 . S
C1916 C1915 1.524 . S
C1917 C1914 1.403 . S
C1917 C1918 1.392 . S
C1917 C1921 1.495 . S
C1918 C1917 1.392 . S
C1918 C1919 1.385 . S
C1918 C1920 1.478 . S
C1919 H1913 0.930 . S
C1919 C1915 1.400 . S
C1919 C1918 1.385 . S
C1920 C1918 1.478 . S
C1920 C1922 1.381 . S
C1920 C1926 1.383 . S
C1921 C1917 1.495 . S
C1921 H1927 0.959 . S
C1921 H1928 0.961 . S
C1921 H1929 0.960 . S
C1922 C1920 1.381 . S
C1922 C1923 1.394 . S
C1922 H1930 0.930 . S
C1923 C1922 1.394 . S
C1923 C1924 1.383 . S
C1923 H1931 0.929 . S
C1924 C1923 1.383 . S
C1924 C1925 1.377 . S
C1925 H1909 0.930 . S
C1925 C1924 1.377 . S
C1925 C1926 1.379 . S
C1926 H1910 0.931 . S
C1926 C1920 1.383 . S
C1926 C1925 1.379 . S
H1927 C1921 0.959 . S
H1928 C1921 0.961 . S
H1929 C1921 0.960 . S
H1930 C1922 0.930 . S
H1931 C1923 0.929 . S
H1932 C1940 0.929 . S
H1933 C1942 0.930 . S
H1934 C1944 0.930 . S
H1935 C1947 0.929 . S
H1936 C1950 0.930 . S
H1937 C1952 0.960 . S
H1938 C1952 0.960 . S
H1939 C1952 0.960 . S
C1940 H1932 0.929 . S
C1940 C1941 1.377 . S
C1940 C1942 1.384 . S
C1941 C1940 1.377 . S
C1941 C1947 1.390 . S
C1942 H1933 0.930 . S
C1942 C1940 1.384 . S
C1942 C1943 1.372 . S
C1943 C1942 1.372 . S
C1943 C1944 1.400 . S
C1943 C1948 1.490 . S
C1944 H1934 0.930 . S
C1944 C1943 1.400 . S
C1944 C1947 1.386 . S
H1945 C1961 0.930 . S
H1946 C1962 0.931 . S
C1947 H1935 0.929 . S
C1947 C1941 1.390 . S
C1947 C1944 1.386 . S
C1948 C1943 1.490 . S
C1948 C1950 1.395 1_545 S
C1948 C1951 1.401 . S
H1949 C1955 0.930 . S
C1950 H1936 0.930 . S
C1950 C1948 1.395 1_565 S
C1950 C1953 1.403 . S
C1951 C1948 1.401 . S
C1951 C1952 1.518 . S
C1951 C1955 1.407 1_545 S
C1952 H1937 0.960 . S
C1952 H1938 0.960 . S
C1952 H1939 0.960 . S
C1952 C1951 1.518 . S
C1953 C1950 1.403 . S
C1953 C1954 1.392 . S
C1953 C1957 1.495 . S
C1954 C1953 1.392 . S
C1954 C1955 1.385 . S
C1954 C1956 1.478 . S
C1955 H1949 0.930 . S
C1955 C1951 1.407 1_565 S
C1955 C1954 1.385 . S
C1956 C1954 1.478 . S
C1956 C1958 1.381 . S
C1956 C1962 1.383 . S
C1957 C1953 1.495 . S
C1957 H1963 0.959 . S
C1957 H1964 0.961 . S
C1957 H1965 0.960 . S
C1958 C1956 1.381 . S
C1958 C1959 1.394 . S
C1958 H1966 0.930 . S
C1959 C1958 1.394 . S
C1959 C1960 1.383 . S
C1959 H1967 0.929 . S
C1960 C1959 1.383 . S
C1960 C1961 1.377 . S
C1961 H1945 0.930 . S
C1961 C1960 1.377 . S
C1961 C1962 1.379 . S
C1962 H1946 0.931 . S
C1962 C1956 1.383 . S
C1962 C1961 1.379 . S
H1963 C1957 0.959 . S
H1964 C1957 0.961 . S
H1965 C1957 0.960 . S
H1966 C1958 0.930 . S
H1967 C1959 0.929 . S
H1968 C1976 0.929 . S
H1969 C1978 0.930 . S
H1970 C1980 0.930 . S
H1971 C1983 0.929 . S
H1972 C1986 0.930 . S
H1973 C1988 0.960 . S
H1974 C1988 0.960 . S
H1975 C1988 0.960 . S
C1976 H1968 0.929 . S
C1976 C1977 1.377 . S
C1976 C1978 1.384 . S
C1977 C1976 1.377 . S
C1977 C1983 1.390 . S
C1978 H1969 0.930 . S
C1978 C1976 1.384 . S
C1978 C1979 1.372 . S
C1979 C1978 1.372 . S
C1979 C1980 1.400 . S
C1979 C1984 1.490 . S
C1980 H1970 0.930 . S
C1980 C1979 1.400 . S
C1980 C1983 1.386 . S
H1981 C1997 0.930 . S
H1982 C1998 0.931 . S
C1983 H1971 0.929 . S
C1983 C1977 1.390 . S
C1983 C1980 1.386 . S
C1984 C1979 1.490 . S
C1984 C1986 1.395 . S
C1984 C1987 1.403 . S
H1985 C1991 0.930 . S
C1986 H1972 0.930 . S
C1986 C1984 1.395 . S
C1986 C1989 1.403 . S
C1987 C1984 1.403 . S
C1987 C1988 1.524 . S
C1987 C1991 1.400 . S
C1988 H1973 0.960 . S
C1988 H1974 0.960 . S
C1988 H1975 0.960 . S
C1988 C1987 1.524 . S
C1989 C1986 1.403 . S
C1989 C1990 1.392 . S
C1989 C1993 1.495 . S
C1990 C1989 1.392 . S
C1990 C1991 1.385 . S
C1990 C1992 1.478 . S
C1991 H1985 0.930 . S
C1991 C1987 1.400 . S
C1991 C1990 1.385 . S
C1992 C1990 1.478 . S
C1992 C1994 1.381 . S
C1992 C1998 1.383 . S
C1993 C1989 1.495 . S
C1993 H1999 0.959 . S
C1993 H2000 0.961 . S
C1993 H2001 0.960 . S
C1994 C1992 1.381 . S
C1994 C1995 1.394 . S
C1994 H2002 0.930 . S
C1995 C1994 1.394 . S
C1995 C1996 1.383 . S
C1995 H2003 0.929 . S
C1996 C1995 1.383 . S
C1996 C1997 1.377 . S
C1997 H1981 0.930 . S
C1997 C1996 1.377 . S
C1997 C1998 1.379 . S
C1998 H1982 0.931 . S
C1998 C1992 1.383 . S
C1998 C1997 1.379 . S
H1999 C1993 0.959 . S
H2000 C1993 0.961 . S
H2001 C1993 0.960 . S
H2002 C1994 0.930 . S
H2003 C1995 0.929 . S
H2004 C2012 0.929 . S
H2005 C2014 0.930 . S
H2006 C2016 0.930 . S
H2007 C2019 0.929 . S
H2008 C2022 0.911 1_565 S
H2009 C2024 0.960 1_545 S
H2010 C2024 0.960 . S
H2011 C2024 0.960 . S
C2012 H2004 0.929 . S
C2012 C2013 1.377 . S
C2012 C2014 1.384 . S
C2013 C2012 1.377 . S
C2013 C2019 1.390 . S
C2014 H2005 0.930 . S
C2014 C2012 1.384 . S
C2014 C2015 1.372 . S
C2015 C2014 1.372 . S
C2015 C2016 1.400 . S
C2015 C2020 1.490 . S
C2016 H2006 0.930 . S
C2016 C2015 1.400 . S
C2016 C2019 1.386 . S
H2017 C2033 0.930 . S
H2018 C2034 0.931 . S
C2019 H2007 0.929 . S
C2019 C2013 1.390 . S
C2019 C2016 1.386 . S
C2020 C2015 1.490 . S
C2020 C2022 1.395 1_565 S
C2020 C2023 1.403 1_565 S
H2021 C2027 0.930 . S
C2022 H2008 0.911 1_545 S
C2022 C2020 1.395 1_545 S
C2022 C2025 1.403 . S
C2023 C2020 1.403 1_545 S
C2023 C2024 1.524 1_545 S
C2023 C2027 1.400 . S
C2024 H2009 0.960 1_565 S
C2024 H2010 0.960 . S
C2024 H2011 0.960 . S
C2024 C2023 1.524 1_565 S
C2025 C2022 1.403 . S
C2025 C2026 1.392 . S
C2025 C2029 1.495 . S
C2026 C2025 1.392 . S
C2026 C2027 1.385 . S
C2026 C2028 1.478 . S
C2027 H2021 0.930 . S
C2027 C2023 1.400 . S
C2027 C2026 1.385 . S
C2028 C2026 1.478 . S
C2028 C2030 1.381 . S
C2028 C2034 1.383 . S
C2029 C2025 1.495 . S
C2029 H2035 0.959 . S
C2029 H2036 0.961 . S
C2029 H2037 0.960 . S
C2030 C2028 1.381 . S
C2030 C2031 1.394 . S
C2030 H2038 0.930 . S
C2031 C2030 1.394 . S
C2031 C2032 1.383 . S
C2031 H2039 0.929 . S
C2032 C2031 1.383 . S
C2032 C2033 1.377 . S
C2033 H2017 0.930 . S
C2033 C2032 1.377 . S
C2033 C2034 1.379 . S
C2034 H2018 0.931 . S
C2034 C2028 1.383 . S
C2034 C2033 1.379 . S
H2035 C2029 0.959 . S
H2036 C2029 0.961 . S
H2037 C2029 0.960 . S
H2038 C2030 0.930 . S
H2039 C2031 0.929 . S
H2040 C2048 0.929 . S
H2041 C2050 0.930 . S
H2042 C2052 0.930 . S
H2043 C2055 0.929 . S
H2044 C2058 0.930 . S
H2045 C2060 0.960 . S
H2046 C2060 0.960 . S
H2047 C2060 0.960 . S
C2048 H2040 0.929 . S
C2048 C2049 1.377 . S
C2048 C2050 1.384 . S
C2049 C2048 1.377 . S
C2049 C2055 1.390 . S
C2050 H2041 0.930 . S
C2050 C2048 1.384 . S
C2050 C2051 1.372 . S
C2051 C2050 1.372 . S
C2051 C2052 1.400 . S
C2051 C2056 1.490 . S
C2052 H2042 0.930 . S
C2052 C2051 1.400 . S
C2052 C2055 1.386 . S
H2053 C2069 0.930 . S
H2054 C2070 0.931 . S
C2055 H2043 0.929 . S
C2055 C2049 1.390 . S
C2055 C2052 1.386 . S
C2056 C2051 1.490 . S
C2056 C2058 1.395 . S
C2056 C2059 1.403 . S
H2057 C2063 0.930 . S
C2058 H2044 0.930 . S
C2058 C2056 1.395 . S
C2058 C2061 1.403 . S
C2059 C2056 1.403 . S
C2059 C2060 1.524 . S
C2059 C2063 1.400 . S
C2060 H2045 0.960 . S
C2060 H2046 0.960 . S
C2060 H2047 0.960 . S
C2060 C2059 1.524 . S
C2061 C2058 1.403 . S
C2061 C2062 1.392 . S
C2061 C2065 1.495 . S
C2062 C2061 1.392 . S
C2062 C2063 1.385 . S
C2062 C2064 1.478 . S
C2063 H2057 0.930 . S
C2063 C2059 1.400 . S
C2063 C2062 1.385 . S
C2064 C2062 1.478 . S
C2064 C2066 1.381 . S
C2064 C2070 1.383 . S
C2065 C2061 1.495 . S
C2065 H2071 0.959 . S
C2065 H2072 0.961 . S
C2065 H2073 0.960 . S
C2066 C2064 1.381 . S
C2066 C2067 1.394 . S
C2066 H2074 0.930 . S
C2067 C2066 1.394 . S
C2067 C2068 1.383 . S
C2067 H2075 0.929 . S
C2068 C2067 1.383 . S
C2068 C2069 1.377 . S
C2069 H2053 0.930 . S
C2069 C2068 1.377 . S
C2069 C2070 1.379 . S
C2070 H2054 0.931 . S
C2070 C2064 1.383 . S
C2070 C2069 1.379 . S
H2071 C2065 0.959 . S
H2072 C2065 0.961 . S
H2073 C2065 0.960 . S
H2074 C2066 0.930 . S
H2075 C2067 0.929 . S
H2076 C2084 0.929 . S
H2077 C2086 0.930 . S
H2078 C2088 0.930 . S
H2079 C2091 0.929 . S
H2080 C2094 0.930 . S
H2081 C2096 0.960 1_545 S
H2082 C2096 0.960 . S
H2083 C2096 0.960 . S
C2084 H2076 0.929 . S
C2084 C2085 1.377 . S
C2084 C2086 1.384 . S
C2085 C2084 1.377 . S
C2085 C2091 1.390 . S
C2086 H2077 0.930 . S
C2086 C2084 1.384 . S
C2086 C2087 1.372 . S
C2087 C2086 1.372 . S
C2087 C2088 1.400 . S
C2087 C2092 1.490 . S
C2088 H2078 0.930 . S
C2088 C2087 1.400 . S
C2088 C2091 1.386 . S
H2089 C2105 0.930 1_655 S
H2090 C2106 0.931 . S
C2091 H2079 0.929 . S
C2091 C2085 1.390 . S
C2091 C2088 1.386 . S
C2092 C2087 1.490 . S
C2092 C2094 1.395 . S
C2092 C2095 1.403 . S
H2093 C2099 0.930 . S
C2094 H2080 0.930 . S
C2094 C2092 1.395 . S
C2094 C2097 1.403 . S
C2095 C2092 1.403 . S
C2095 C2096 1.524 . S
C2095 C2099 1.400 1_565 S
C2096 H2081 0.960 1_565 S
C2096 H2082 0.960 . S
C2096 H2083 0.960 . S
C2096 C2095 1.524 . S
C2097 C2094 1.403 . S
C2097 C2098 1.392 1_565 S
C2097 C2101 1.495 . S
C2098 C2097 1.392 1_545 S
C2098 C2099 1.385 . S
C2098 C2100 1.478 . S
C2099 H2093 0.930 . S
C2099 C2095 1.400 1_545 S
C2099 C2098 1.385 . S
C2100 C2098 1.478 . S
C2100 C2102 1.381 . S
C2100 C2106 1.383 . S
C2101 C2097 1.495 . S
C2101 H2107 0.959 . S
C2101 H2108 0.961 . S
C2101 H2109 0.960 . S
C2102 C2100 1.381 . S
C2102 C2103 1.394 . S
C2102 H2110 0.930 . S
C2103 C2102 1.394 . S
C2103 C2104 1.383 . S
C2103 H2111 0.929 . S
C2104 C2103 1.383 . S
C2104 C2105 1.377 . S
C2105 H2089 0.930 1_455 S
C2105 C2104 1.377 . S
C2105 C2106 1.379 . S
C2106 H2090 0.931 . S
C2106 C2100 1.383 . S
C2106 C2105 1.379 . S
H2107 C2101 0.959 . S
H2108 C2101 0.961 . S
H2109 C2101 0.960 . S
H2110 C2102 0.930 . S
H2111 C2103 0.929 . S
H2112 C2120 0.929 . S
H2113 C2122 0.930 . S
H2114 C2124 0.930 . S
H2115 C2127 0.929 . S
H2116 C2130 0.930 . S
H2117 C2132 0.960 . S
H2118 C2132 0.960 . S
H2119 C2132 0.960 . S
C2120 H2112 0.929 . S
C2120 C2121 1.377 . S
C2120 C2122 1.384 . S
C2121 C2120 1.377 . S
C2121 C2127 1.390 . S
C2122 H2113 0.930 . S
C2122 C2120 1.384 . S
C2122 C2123 1.372 . S
C2123 C2122 1.372 . S
C2123 C2124 1.400 . S
C2123 C2128 1.490 . S
C2124 H2114 0.930 . S
C2124 C2123 1.400 . S
C2124 C2127 1.386 . S
H2125 C2141 0.930 . S
H2126 C2142 0.931 . S
C2127 H2115 0.929 . S
C2127 C2121 1.390 . S
C2127 C2124 1.386 . S
C2128 C2123 1.490 . S
C2128 C2130 1.395 . S
C2128 C2131 1.403 . S
H2129 C2135 0.930 . S
C2130 H2116 0.930 . S
C2130 C2128 1.395 . S
C2130 C2133 1.403 . S
C2131 C2128 1.403 . S
C2131 C2132 1.524 . S
C2131 C2135 1.400 . S
C2132 H2117 0.960 . S
C2132 H2118 0.960 . S
C2132 H2119 0.960 . S
C2132 C2131 1.524 . S
C2133 C2130 1.403 . S
C2133 C2134 1.392 . S
C2133 C2137 1.495 . S
C2134 C2133 1.392 . S
C2134 C2135 1.385 . S
C2134 C2136 1.478 . S
C2135 H2129 0.930 . S
C2135 C2131 1.400 . S
C2135 C2134 1.385 . S
C2136 C2134 1.478 . S
C2136 C2138 1.381 . S
C2136 C2142 1.383 . S
C2137 C2133 1.495 . S
C2137 H2143 0.959 . S
C2137 H2144 0.961 . S
C2137 H2145 0.960 . S
C2138 C2136 1.381 . S
C2138 C2139 1.394 . S
C2138 H2146 0.930 . S
C2139 C2138 1.394 . S
C2139 C2140 1.383 . S
C2139 H2147 0.929 . S
C2140 C2139 1.383 . S
C2140 C2141 1.377 . S
C2141 H2125 0.930 . S
C2141 C2140 1.377 . S
C2141 C2142 1.379 . S
C2142 H2126 0.931 . S
C2142 C2136 1.383 . S
C2142 C2141 1.379 . S
H2143 C2137 0.959 . S
H2144 C2137 0.961 . S
H2145 C2137 0.960 . S
H2146 C2138 0.930 . S
H2147 C2139 0.929 . S
H2148 C2156 0.929 . S
H2149 C2158 0.930 . S
H2150 C2160 0.930 . S
H2151 C2163 0.929 . S
H2152 C2166 0.930 . S
H2153 C2168 0.960 . S
H2154 C2168 0.960 . S
H2155 C2168 0.960 . S
C2156 H2148 0.929 . S
C2156 C2157 1.377 . S
C2156 C2158 1.384 . S
C2157 C2156 1.377 . S
C2157 C2163 1.390 . S
C2158 H2149 0.930 . S
C2158 C2156 1.384 . S
C2158 C2159 1.372 . S
C2159 C2158 1.372 . S
C2159 C2160 1.400 . S
C2159 C2164 1.490 . S
C2160 H2150 0.930 . S
C2160 C2159 1.400 . S
C2160 C2163 1.386 . S
H2161 C2177 0.930 . S
H2162 C2178 0.931 . S
C2163 H2151 0.929 . S
C2163 C2157 1.390 . S
C2163 C2160 1.386 . S
C2164 C2159 1.490 . S
C2164 C2166 1.395 . S
C2164 C2167 1.403 . S
H2165 C2171 0.930 . S
C2166 H2152 0.930 . S
C2166 C2164 1.395 . S
C2166 C2169 1.403 . S
C2167 C2164 1.403 . S
C2167 C2168 1.524 . S
C2167 C2171 1.400 . S
C2168 H2153 0.960 . S
C2168 H2154 0.960 . S
C2168 H2155 0.960 . S
C2168 C2167 1.524 . S
C2169 C2166 1.403 . S
C2169 C2170 1.392 . S
C2169 C2173 1.495 . S
C2170 C2169 1.392 . S
C2170 C2171 1.385 . S
C2170 C2172 1.478 . S
C2171 H2165 0.930 . S
C2171 C2167 1.400 . S
C2171 C2170 1.385 . S
C2172 C2170 1.478 . S
C2172 C2174 1.381 . S
C2172 C2178 1.383 . S
C2173 C2169 1.495 . S
C2173 H2179 0.959 . S
C2173 H2180 0.961 . S
C2173 H2181 0.960 . S
C2174 C2172 1.381 . S
C2174 C2175 1.394 . S
C2174 H2182 0.930 . S
C2175 C2174 1.394 . S
C2175 C2176 1.383 . S
C2175 H2183 0.929 . S
C2176 C2175 1.383 . S
C2176 C2177 1.377 . S
C2177 H2161 0.930 . S
C2177 C2176 1.377 . S
C2177 C2178 1.379 . S
C2178 H2162 0.931 . S
C2178 C2172 1.383 . S
C2178 C2177 1.379 . S
H2179 C2173 0.959 . S
H2180 C2173 0.961 . S
H2181 C2173 0.960 . S
H2182 C2174 0.930 . S
H2183 C2175 0.929 . S
H2184 C2192 0.929 . S
H2185 C2194 0.930 1_556 S
H2186 C2196 0.930 . S
H2187 C2199 0.929 . S
H2188 C2202 0.930 . S
H2189 C2204 0.960 . S
H2190 C2204 0.960 . S
H2191 C2204 0.960 . S
C2192 H2184 0.929 . S
C2192 C2193 1.377 1_556 S
C2192 C2194 1.384 1_556 S
C2193 C2192 1.377 1_554 S
C2193 C2199 1.390 . S
C2194 H2185 0.930 1_554 S
C2194 C2192 1.384 1_554 S
C2194 C2195 1.372 . S
C2195 C2194 1.372 . S
C2195 C2196 1.400 . S
C2195 C2200 1.490 . S
C2196 H2186 0.930 . S
C2196 C2195 1.400 . S
C2196 C2199 1.386 . S
H2197 C2213 0.930 . S
H2198 C2214 0.931 . S
C2199 H2187 0.929 . S
C2199 C2193 1.390 . S
C2199 C2196 1.386 . S
C2200 C2195 1.490 . S
C2200 C2202 1.395 1_655 S
C2200 C2203 1.403 . S
H2201 C2207 0.930 . S
C2202 H2188 0.930 . S
C2202 C2200 1.395 1_455 S
C2202 C2205 1.403 . S
C2203 C2200 1.403 . S
C2203 C2204 1.524 . S
C2203 C2207 1.400 1_655 S
C2204 H2189 0.960 . S
C2204 H2190 0.960 . S
C2204 H2191 0.960 . S
C2204 C2203 1.524 . S
C2205 C2202 1.403 . S
C2205 C2206 1.392 . S
C2205 C2209 1.495 . S
C2206 C2205 1.392 . S
C2206 C2207 1.385 . S
C2206 C2208 1.478 . S
C2207 H2201 0.930 . S
C2207 C2203 1.400 1_455 S
C2207 C2206 1.385 . S
C2208 C2206 1.478 . S
C2208 C2210 1.381 . S
C2208 C2214 1.383 . S
C2209 C2205 1.495 . S
C2209 H2215 0.959 . S
C2209 H2216 0.961 . S
C2209 H2217 0.960 . S
C2210 C2208 1.381 . S
C2210 C2211 1.394 . S
C2210 H2218 0.930 . S
C2211 C2210 1.394 . S
C2211 C2212 1.383 . S
C2211 H2219 0.929 . S
C2212 C2211 1.383 . S
C2212 C2213 1.377 . S
C2213 H2197 0.930 . S
C2213 C2212 1.377 . S
C2213 C2214 1.379 . S
C2214 H2198 0.931 . S
C2214 C2208 1.383 . S
C2214 C2213 1.379 . S
H2215 C2209 0.959 . S
H2216 C2209 0.961 . S
H2217 C2209 0.960 . S
H2218 C2210 0.930 . S
H2219 C2211 0.929 . S
H2220 C2228 0.929 . S
H2221 C2230 0.930 . S
H2222 C2232 0.930 . S
H2223 C2235 0.929 . S
H2224 C2238 0.930 . S
H2225 C2240 0.960 . S
H2226 C2240 0.960 . S
H2227 C2240 0.960 . S
C2228 H2220 0.929 . S
C2228 C2229 1.377 . S
C2228 C2230 1.384 . S
C2229 C2228 1.377 . S
C2229 C2235 1.390 . S
C2230 H2221 0.930 . S
C2230 C2228 1.384 . S
C2230 C2231 1.372 . S
C2231 C2230 1.372 . S
C2231 C2232 1.400 . S
C2231 C2236 1.490 . S
C2232 H2222 0.930 . S
C2232 C2231 1.400 . S
C2232 C2235 1.386 . S
H2233 C2249 0.930 . S
H2234 C2250 0.931 . S
C2235 H2223 0.929 . S
C2235 C2229 1.390 . S
C2235 C2232 1.386 . S
C2236 C2231 1.490 . S
C2236 C2238 1.395 . S
C2236 C2239 1.403 . S
H2237 C2243 0.930 . S
C2238 H2224 0.930 . S
C2238 C2236 1.395 . S
C2238 C2241 1.403 . S
C2239 C2236 1.403 . S
C2239 C2240 1.524 . S
C2239 C2243 1.400 . S
C2240 H2225 0.960 . S
C2240 H2226 0.960 . S
C2240 H2227 0.960 . S
C2240 C2239 1.524 . S
C2241 C2238 1.403 . S
C2241 C2242 1.392 . S
C2241 C2245 1.495 . S
C2242 C2241 1.392 . S
C2242 C2243 1.385 . S
C2242 C2244 1.478 . S
C2243 H2237 0.930 . S
C2243 C2239 1.400 . S
C2243 C2242 1.385 . S
C2244 C2242 1.478 . S
C2244 C2246 1.381 . S
C2244 C2250 1.383 . S
C2245 C2241 1.495 . S
C2245 H2251 0.959 . S
C2245 H2252 0.961 . S
C2245 H2253 0.960 . S
C2246 C2244 1.381 . S
C2246 C2247 1.394 . S
C2246 H2254 0.930 . S
C2247 C2246 1.394 . S
C2247 C2248 1.383 . S
C2247 H2255 0.929 . S
C2248 C2247 1.383 . S
C2248 C2249 1.377 . S
C2249 H2233 0.930 . S
C2249 C2248 1.377 . S
C2249 C2250 1.379 . S
C2250 H2234 0.931 . S
C2250 C2244 1.383 . S
C2250 C2249 1.379 . S
H2251 C2245 0.959 . S
H2252 C2245 0.961 . S
H2253 C2245 0.960 . S
H2254 C2246 0.930 . S
H2255 C2247 0.929 . S
H2256 C2264 0.929 . S
H2257 C2266 0.930 . S
H2258 C2268 0.900 1_556 S
H2259 C2271 0.989 . S
H2260 C2274 0.930 . S
H2261 C2276 0.960 . S
H2262 C2276 0.960 . S
H2263 C2276 0.960 . S
C2264 H2256 0.929 . S
C2264 C2265 1.377 . S
C2264 C2266 1.384 . S
C2265 C2264 1.377 . S
C2265 C2271 1.356 1_554 S
C2266 H2257 0.930 . S
C2266 C2264 1.384 . S
C2266 C2267 1.372 . S
C2267 C2266 1.372 . S
C2267 C2268 1.400 . S
C2267 C2272 1.490 . S
C2268 H2258 0.900 1_554 S
C2268 C2267 1.400 . S
C2268 C2271 1.363 1_554 S
H2269 C2285 0.930 . S
H2270 C2286 0.931 . S
C2271 H2259 0.989 . S
C2271 C2265 1.356 1_556 S
C2271 C2268 1.363 1_556 S
C2272 C2267 1.490 . S
C2272 C2274 1.395 . S
C2272 C2275 1.403 1_455 S
H2273 C2279 0.930 . S
C2274 H2260 0.930 . S
C2274 C2272 1.395 . S
C2274 C2277 1.403 1_455 S
C2275 C2272 1.403 1_655 S
C2275 C2276 1.524 . S
C2275 C2279 1.400 . S
C2276 H2261 0.960 . S
C2276 H2262 0.960 . S
C2276 H2263 0.960 . S
C2276 C2275 1.524 . S
C2277 C2274 1.403 1_655 S
C2277 C2278 1.392 . S
C2277 C2281 1.495 . S
C2278 C2277 1.392 . S
C2278 C2279 1.385 . S
C2278 C2280 1.478 . S
C2279 H2273 0.930 . S
C2279 C2275 1.400 . S
C2279 C2278 1.385 . S
C2280 C2278 1.478 . S
C2280 C2282 1.381 . S
C2280 C2286 1.383 . S
C2281 C2277 1.495 . S
C2281 H2287 0.937 1_655 S
C2281 H2288 0.961 . S
C2281 H2289 0.960 . S
C2282 C2280 1.381 . S
C2282 C2283 1.394 . S
C2282 H2290 0.930 . S
C2283 C2282 1.394 . S
C2283 C2284 1.383 . S
C2283 H2291 0.929 . S
C2284 C2283 1.383 . S
C2284 C2285 1.377 . S
C2285 H2269 0.930 . S
C2285 C2284 1.377 . S
C2285 C2286 1.379 . S
C2286 H2270 0.931 . S
C2286 C2280 1.383 . S
C2286 C2285 1.379 . S
H2287 C2281 0.937 1_455 S
H2288 C2281 0.961 . S
H2289 C2281 0.960 . S
H2290 C2282 0.930 . S
H2291 C2283 0.929 . S
H2292 C2300 0.929 . S
H2293 C2302 0.930 . S
H2294 C2304 0.930 . S
H2295 C2307 0.929 . S
H2296 C2310 0.930 . S
H2297 C2312 0.960 . S
H2298 C2312 0.960 . S
H2299 C2312 0.960 . S
C2300 H2292 0.929 . S
C2300 C2301 1.377 . S
C2300 C2302 1.384 . S
C2301 C2300 1.377 . S
C2301 C2307 1.390 . S
C2302 H2293 0.930 . S
C2302 C2300 1.384 . S
C2302 C2303 1.372 . S
C2303 C2302 1.372 . S
C2303 C2304 1.400 . S
C2303 C2308 1.490 . S
C2304 H2294 0.930 . S
C2304 C2303 1.400 . S
C2304 C2307 1.386 . S
H2305 C2321 0.930 . S
H2306 C2322 0.931 . S
C2307 H2295 0.929 . S
C2307 C2301 1.390 . S
C2307 C2304 1.386 . S
C2308 C2303 1.490 . S
C2308 C2310 1.395 . S
C2308 C2311 1.403 . S
H2309 C2315 0.930 . S
C2310 H2296 0.930 . S
C2310 C2308 1.395 . S
C2310 C2313 1.403 . S
C2311 C2308 1.403 . S
C2311 C2312 1.524 . S
C2311 C2315 1.400 . S
C2312 H2297 0.960 . S
C2312 H2298 0.960 . S
C2312 H2299 0.960 . S
C2312 C2311 1.524 . S
C2313 C2310 1.403 . S
C2313 C2314 1.392 . S
C2313 C2317 1.495 . S
C2314 C2313 1.392 . S
C2314 C2315 1.385 . S
C2314 C2316 1.478 . S
C2315 H2309 0.930 . S
C2315 C2311 1.400 . S
C2315 C2314 1.385 . S
C2316 C2314 1.478 . S
C2316 C2318 1.381 . S
C2316 C2322 1.383 . S
C2317 C2313 1.495 . S
C2317 H2323 0.959 . S
C2317 H2324 0.961 . S
C2317 H2325 0.960 . S
C2318 C2316 1.381 . S
C2318 C2319 1.394 . S
C2318 H2326 0.930 . S
C2319 C2318 1.394 . S
C2319 C2320 1.383 . S
C2319 H2327 0.929 . S
C2320 C2319 1.383 . S
C2320 C2321 1.377 . S
C2321 H2305 0.930 . S
C2321 C2320 1.377 . S
C2321 C2322 1.379 . S
C2322 H2306 0.931 . S
C2322 C2316 1.383 . S
C2322 C2321 1.379 . S
H2323 C2317 0.959 . S
H2324 C2317 0.961 . S
H2325 C2317 0.960 . S
H2326 C2318 0.930 . S
H2327 C2319 0.929 . S
H2328 C2336 0.929 . S
H2329 C2338 0.930 . S
H2330 C2340 0.930 . S
H2331 C2343 0.929 . S
H2332 C2346 0.930 . S
H2333 C2348 0.960 . S
H2334 C2348 0.960 . S
H2335 C2348 0.960 . S
C2336 H2328 0.929 . S
C2336 C2337 1.377 . S
C2336 C2338 1.384 . S
C2337 C2336 1.377 . S
C2337 C2343 1.390 . S
C2338 H2329 0.930 . S
C2338 C2336 1.384 . S
C2338 C2339 1.372 . S
C2339 C2338 1.372 . S
C2339 C2340 1.400 . S
C2339 C2344 1.490 . S
C2340 H2330 0.930 . S
C2340 C2339 1.400 . S
C2340 C2343 1.386 . S
H2341 C2357 0.930 . S
H2342 C2358 0.931 . S
C2343 H2331 0.929 . S
C2343 C2337 1.390 . S
C2343 C2340 1.386 . S
C2344 C2339 1.490 . S
C2344 C2346 1.395 . S
C2344 C2347 1.403 1_655 S
H2345 C2351 0.930 . S
C2346 H2332 0.930 . S
C2346 C2344 1.395 . S
C2346 C2349 1.403 1_655 S
C2347 C2344 1.403 1_455 S
C2347 C2348 1.524 . S
C2347 C2351 1.400 . S
C2348 H2333 0.960 . S
C2348 H2334 0.960 . S
C2348 H2335 0.960 . S
C2348 C2347 1.524 . S
C2349 C2346 1.403 1_455 S
C2349 C2350 1.392 . S
C2349 C2353 1.495 . S
C2350 C2349 1.392 . S
C2350 C2351 1.385 . S
C2350 C2352 1.478 . S
C2351 H2345 0.930 . S
C2351 C2347 1.400 . S
C2351 C2350 1.385 . S
C2352 C2350 1.478 . S
C2352 C2354 1.381 . S
C2352 C2358 1.383 . S
C2353 C2349 1.495 . S
C2353 H2359 0.959 1_455 S
C2353 H2360 0.961 . S
C2353 H2361 0.960 . S
C2354 C2352 1.381 . S
C2354 C2355 1.394 . S
C2354 H2362 0.930 . S
C2355 C2354 1.394 . S
C2355 C2356 1.383 . S
C2355 H2363 0.929 . S
C2356 C2355 1.383 . S
C2356 C2357 1.377 . S
C2357 H2341 0.930 . S
C2357 C2356 1.377 . S
C2357 C2358 1.379 . S
C2358 H2342 0.931 . S
C2358 C2352 1.383 . S
C2358 C2357 1.379 . S
H2359 C2353 0.959 1_655 S
H2360 C2353 0.961 . S
H2361 C2353 0.960 . S
H2362 C2354 0.930 . S
H2363 C2355 0.929 . S
H2364 C2372 0.929 . S
H2365 C2374 0.930 . S
H2366 C2376 0.930 . S
H2367 C2379 0.929 . S
H2368 C2382 0.930 . S
H2369 C2384 0.960 . S
H2370 C2384 0.960 . S
H2371 C2384 0.960 . S
C2372 H2364 0.929 . S
C2372 C2373 1.377 . S
C2372 C2374 1.384 . S
C2373 C2372 1.377 . S
C2373 C2379 1.390 . S
C2374 H2365 0.930 . S
C2374 C2372 1.384 . S
C2374 C2375 1.372 . S
C2375 C2374 1.372 . S
C2375 C2376 1.400 . S
C2375 C2380 1.490 . S
C2376 H2366 0.930 . S
C2376 C2375 1.400 . S
C2376 C2379 1.386 . S
H2377 C2393 0.930 . S
H2378 C2394 0.931 . S
C2379 H2367 0.929 . S
C2379 C2373 1.390 . S
C2379 C2376 1.386 . S
C2380 C2375 1.490 . S
C2380 C2382 1.395 . S
C2380 C2383 1.403 . S
H2381 C2387 0.930 . S
C2382 H2368 0.930 . S
C2382 C2380 1.395 . S
C2382 C2385 1.403 . S
C2383 C2380 1.403 . S
C2383 C2384 1.524 . S
C2383 C2387 1.400 . S
C2384 H2369 0.960 . S
C2384 H2370 0.960 . S
C2384 H2371 0.960 . S
C2384 C2383 1.524 . S
C2385 C2382 1.403 . S
C2385 C2386 1.392 . S
C2385 C2389 1.495 . S
C2386 C2385 1.392 . S
C2386 C2387 1.385 . S
C2386 C2388 1.478 . S
C2387 H2381 0.930 . S
C2387 C2383 1.400 . S
C2387 C2386 1.385 . S
C2388 C2386 1.478 . S
C2388 C2390 1.381 . S
C2388 C2394 1.383 . S
C2389 C2385 1.495 . S
C2389 H2395 0.959 1_556 S
C2389 H2396 0.961 . S
C2389 H2397 0.960 1_556 S
C2390 C2388 1.381 . S
C2390 C2391 1.394 1_556 S
C2390 H2398 0.930 1_556 S
C2391 C2390 1.394 1_554 S
C2391 C2392 1.383 1_554 S
C2391 H2399 0.929 . S
C2392 C2391 1.383 1_556 S
C2392 C2393 1.377 . S
C2393 H2377 0.930 . S
C2393 C2392 1.377 . S
C2393 C2394 1.379 . S
C2394 H2378 0.931 . S
C2394 C2388 1.383 . S
C2394 C2393 1.379 . S
H2395 C2389 0.959 1_554 S
H2396 C2389 0.961 . S
H2397 C2389 0.960 1_554 S
H2398 C2390 0.930 1_554 S
H2399 C2391 0.929 . S
H2400 C2408 0.929 . S
H2401 C2410 0.930 . S
H2402 C2412 0.930 . S
H2403 C2415 0.929 . S
H2404 C2418 0.930 . S
H2405 C2420 0.960 . S
H2406 C2420 0.960 . S
H2407 C2420 0.960 . S
C2408 H2400 0.929 . S
C2408 C2409 1.377 . S
C2408 C2410 1.384 . S
C2409 C2408 1.377 . S
C2409 C2415 1.390 . S
C2410 H2401 0.930 . S
C2410 C2408 1.384 . S
C2410 C2411 1.372 . S
C2411 C2410 1.372 . S
C2411 C2412 1.400 . S
C2411 C2416 1.490 . S
C2412 H2402 0.930 . S
C2412 C2411 1.400 . S
C2412 C2415 1.386 . S
H2413 C2429 0.930 . S
H2414 C2430 0.931 . S
C2415 H2403 0.929 . S
C2415 C2409 1.390 . S
C2415 C2412 1.386 . S
C2416 C2411 1.490 . S
C2416 C2418 1.395 . S
C2416 C2419 1.403 . S
H2417 C2423 0.930 . S
C2418 H2404 0.930 . S
C2418 C2416 1.395 . S
C2418 C2421 1.403 . S
C2419 C2416 1.403 . S
C2419 C2420 1.524 . S
C2419 C2423 1.400 . S
C2420 H2405 0.960 . S
C2420 H2406 0.960 . S
C2420 H2407 0.960 . S
C2420 C2419 1.524 . S
C2421 C2418 1.403 . S
C2421 C2422 1.392 . S
C2421 C2425 1.495 . S
C2422 C2421 1.392 . S
C2422 C2423 1.385 . S
C2422 C2424 1.478 . S
C2423 H2417 0.930 . S
C2423 C2419 1.400 . S
C2423 C2422 1.385 . S
C2424 C2422 1.478 . S
C2424 C2426 1.381 . S
C2424 C2430 1.383 . S
C2425 C2421 1.495 . S
C2425 H2431 0.959 . S
C2425 H2432 0.961 . S
C2425 H2433 0.960 . S
C2426 C2424 1.381 . S
C2426 C2427 1.394 . S
C2426 H2434 0.930 . S
C2427 C2426 1.394 . S
C2427 C2428 1.383 . S
C2427 H2435 0.929 . S
C2428 C2427 1.383 . S
C2428 C2429 1.377 . S
C2429 H2413 0.930 . S
C2429 C2428 1.377 . S
C2429 C2430 1.379 . S
C2430 H2414 0.931 . S
C2430 C2424 1.383 . S
C2430 C2429 1.379 . S
H2431 C2425 0.959 . S
H2432 C2425 0.961 . S
H2433 C2425 0.960 . S
H2434 C2426 0.930 . S
H2435 C2427 0.929 . S
H2436 C2444 0.929 . S
H2437 C2446 0.930 . S
H2438 C2448 0.930 . S
H2439 C2451 0.929 . S
H2440 C2454 0.930 . S
H2441 C2456 0.960 . S
H2442 C2456 0.960 . S
H2443 C2456 0.960 . S
C2444 H2436 0.929 . S
C2444 C2445 1.377 . S
C2444 C2446 1.384 . S
C2445 C2444 1.377 . S
C2445 C2451 1.390 . S
C2446 H2437 0.930 . S
C2446 C2444 1.384 . S
C2446 C2447 1.372 . S
C2447 C2446 1.372 . S
C2447 C2448 1.400 . S
C2447 C2452 1.490 . S
C2448 H2438 0.930 . S
C2448 C2447 1.400 . S
C2448 C2451 1.386 . S
H2449 C2465 0.930 . S
H2450 C2466 0.931 . S
C2451 H2439 0.929 . S
C2451 C2445 1.390 . S
C2451 C2448 1.386 . S
C2452 C2447 1.490 . S
C2452 C2454 1.395 . S
C2452 C2455 1.403 . S
H2453 C2459 0.930 1_556 S
C2454 H2440 0.930 . S
C2454 C2452 1.395 . S
C2454 C2457 1.403 . S
C2455 C2452 1.403 . S
C2455 C2456 1.524 . S
C2455 C2459 1.400 . S
C2456 H2441 0.960 . S
C2456 H2442 0.960 . S
C2456 H2443 0.960 . S
C2456 C2455 1.524 . S
C2457 C2454 1.403 . S
C2457 C2458 1.392 1_554 S
C2457 C2461 1.495 . S
C2458 C2457 1.392 1_556 S
C2458 C2459 1.385 1_556 S
C2458 C2460 1.478 . S
C2459 H2453 0.930 1_554 S
C2459 C2455 1.400 . S
C2459 C2458 1.385 1_554 S
C2460 C2458 1.478 . S
C2460 C2462 1.381 . S
C2460 C2466 1.383 . S
C2461 C2457 1.495 . S
C2461 H2467 0.959 . S
C2461 H2468 0.961 1_554 S
C2461 H2469 0.962 . S
C2462 C2460 1.381 . S
C2462 C2463 1.394 . S
C2462 H2470 0.930 . S
C2463 C2462 1.394 . S
C2463 C2464 1.383 . S
C2463 H2471 0.929 . S
C2464 C2463 1.383 . S
C2464 C2465 1.377 . S
C2465 H2449 0.930 . S
C2465 C2464 1.377 . S
C2465 C2466 1.379 . S
C2466 H2450 0.931 . S
C2466 C2460 1.383 . S
C2466 C2465 1.379 . S
H2467 C2461 0.959 . S
H2468 C2461 0.961 1_556 S
H2469 C2461 0.962 . S
H2470 C2462 0.930 . S
H2471 C2463 0.929 . S
H2472 C2480 0.929 . S
H2473 C2482 0.930 . S
H2474 C2484 0.930 . S
H2475 C2487 0.929 . S
H2476 C2490 0.930 . S
H2477 C2492 0.960 . S
H2478 C2492 0.960 . S
H2479 C2492 0.960 . S
C2480 H2472 0.929 . S
C2480 C2481 1.377 . S
C2480 C2482 1.384 . S
C2481 C2480 1.377 . S
C2481 C2487 1.390 . S
C2482 H2473 0.930 . S
C2482 C2480 1.384 . S
C2482 C2483 1.372 . S
C2483 C2482 1.372 . S
C2483 C2484 1.400 . S
C2483 C2488 1.490 . S
C2484 H2474 0.930 . S
C2484 C2483 1.400 . S
C2484 C2487 1.386 . S
H2485 C2501 0.930 . S
H2486 C2502 0.931 . S
C2487 H2475 0.929 . S
C2487 C2481 1.390 . S
C2487 C2484 1.386 . S
C2488 C2483 1.490 . S
C2488 C2490 1.395 . S
C2488 C2491 1.403 . S
H2489 C2495 0.930 . S
C2490 H2476 0.930 . S
C2490 C2488 1.395 . S
C2490 C2493 1.403 . S
C2491 C2488 1.403 . S
C2491 C2492 1.524 . S
C2491 C2495 1.400 . S
C2492 H2477 0.960 . S
C2492 H2478 0.960 . S
C2492 H2479 0.960 . S
C2492 C2491 1.524 . S
C2493 C2490 1.403 . S
C2493 C2494 1.392 . S
C2493 C2497 1.495 . S
C2494 C2493 1.392 . S
C2494 C2495 1.385 . S
C2494 C2496 1.478 . S
C2495 H2489 0.930 . S
C2495 C2491 1.400 . S
C2495 C2494 1.385 . S
C2496 C2494 1.478 . S
C2496 C2498 1.381 . S
C2496 C2502 1.383 . S
C2497 C2493 1.495 . S
C2497 H2503 0.959 . S
C2497 H2504 0.961 . S
C2497 H2505 0.960 . S
C2498 C2496 1.381 . S
C2498 C2499 1.394 . S
C2498 H2506 0.930 . S
C2499 C2498 1.394 . S
C2499 C2500 1.383 . S
C2499 H2507 0.929 . S
C2500 C2499 1.383 . S
C2500 C2501 1.377 . S
C2501 H2485 0.930 . S
C2501 C2500 1.377 . S
C2501 C2502 1.379 . S
C2502 H2486 0.931 . S
C2502 C2496 1.383 . S
C2502 C2501 1.379 . S
H2503 C2497 0.959 . S
H2504 C2497 0.961 . S
H2505 C2497 0.960 . S
H2506 C2498 0.930 . S
H2507 C2499 0.929 . S
H2508 C2516 0.929 . S
H2509 C2518 0.930 . S
H2510 C2520 0.930 . S
H2511 C2523 0.929 . S
H2512 C2526 0.930 . S
H2513 C2528 0.960 . S
H2514 C2528 0.960 . S
H2515 C2528 0.960 . S
C2516 H2508 0.929 . S
C2516 C2517 1.377 . S
C2516 C2518 1.384 . S
C2517 C2516 1.377 . S
C2517 C2523 1.390 . S
C2518 H2509 0.930 . S
C2518 C2516 1.384 . S
C2518 C2519 1.372 . S
C2519 C2518 1.372 . S
C2519 C2520 1.400 . S
C2519 C2524 1.490 . S
C2520 H2510 0.930 . S
C2520 C2519 1.400 . S
C2520 C2523 1.386 . S
H2521 C2537 0.930 . S
H2522 C2538 0.931 . S
C2523 H2511 0.929 . S
C2523 C2517 1.390 . S
C2523 C2520 1.386 . S
C2524 C2519 1.490 . S
C2524 C2526 1.395 . S
C2524 C2527 1.403 . S
H2525 C2531 0.930 . S
C2526 H2512 0.930 . S
C2526 C2524 1.395 . S
C2526 C2529 1.403 . S
C2527 C2524 1.403 . S
C2527 C2528 1.524 . S
C2527 C2531 1.400 . S
C2528 H2513 0.960 . S
C2528 H2514 0.960 . S
C2528 H2515 0.960 . S
C2528 C2527 1.524 . S
C2529 C2526 1.403 . S
C2529 C2530 1.392 . S
C2529 C2533 1.495 . S
C2530 C2529 1.392 . S
C2530 C2531 1.385 . S
C2530 C2532 1.478 . S
C2531 H2525 0.930 . S
C2531 C2527 1.400 . S
C2531 C2530 1.385 . S
C2532 C2530 1.478 . S
C2532 C2534 1.381 . S
C2532 C2538 1.383 . S
C2533 C2529 1.495 . S
C2533 H2539 0.959 . S
C2533 H2540 0.961 . S
C2533 H2541 0.960 . S
C2534 C2532 1.381 . S
C2534 C2535 1.394 . S
C2534 H2542 0.930 . S
C2535 C2534 1.394 . S
C2535 C2536 1.383 . S
C2535 H2543 0.929 . S
C2536 C2535 1.383 . S
C2536 C2537 1.377 . S
C2537 H2521 0.930 . S
C2537 C2536 1.377 . S
C2537 C2538 1.379 . S
C2538 H2522 0.931 . S
C2538 C2532 1.383 . S
C2538 C2537 1.379 . S
H2539 C2533 0.959 . S
H2540 C2533 0.961 . S
H2541 C2533 0.960 . S
H2542 C2534 0.930 . S
H2543 C2535 0.929 . S
H2544 C2552 0.929 . S
H2545 C2554 0.930 . S
H2546 C2556 0.930 . S
H2547 C2559 0.929 . S
H2548 C2562 0.930 . S
H2549 C2564 0.960 . S
H2550 C2564 0.960 . S
H2551 C2564 0.960 . S
C2552 H2544 0.929 . S
C2552 C2553 1.377 . S
C2552 C2554 1.384 . S
C2553 C2552 1.377 . S
C2553 C2559 1.390 . S
C2554 H2545 0.930 . S
C2554 C2552 1.384 . S
C2554 C2555 1.372 . S
C2555 C2554 1.372 . S
C2555 C2556 1.400 . S
C2555 C2560 1.490 . S
C2556 H2546 0.930 . S
C2556 C2555 1.400 . S
C2556 C2559 1.386 . S
H2557 C2573 0.930 . S
H2558 C2574 0.931 . S
C2559 H2547 0.929 . S
C2559 C2553 1.390 . S
C2559 C2556 1.386 . S
C2560 C2555 1.490 . S
C2560 C2562 1.395 . S
C2560 C2563 1.403 . S
H2561 C2567 0.930 . S
C2562 H2548 0.930 . S
C2562 C2560 1.395 . S
C2562 C2565 1.403 . S
C2563 C2560 1.403 . S
C2563 C2564 1.524 . S
C2563 C2567 1.400 . S
C2564 H2549 0.960 . S
C2564 H2550 0.960 . S
C2564 H2551 0.960 . S
C2564 C2563 1.524 . S
C2565 C2562 1.403 . S
C2565 C2566 1.392 . S
C2565 C2569 1.495 . S
C2566 C2565 1.392 . S
C2566 C2567 1.385 . S
C2566 C2568 1.478 . S
C2567 H2561 0.930 . S
C2567 C2563 1.400 . S
C2567 C2566 1.385 . S
C2568 C2566 1.478 . S
C2568 C2570 1.381 . S
C2568 C2574 1.383 . S
C2569 C2565 1.495 . S
C2569 H2575 0.959 . S
C2569 H2576 0.961 . S
C2569 H2577 0.960 . S
C2570 C2568 1.381 . S
C2570 C2571 1.394 . S
C2570 H2578 0.930 . S
C2571 C2570 1.394 . S
C2571 C2572 1.383 . S
C2571 H2579 0.929 . S
C2572 C2571 1.383 . S
C2572 C2573 1.377 . S
C2573 H2557 0.930 . S
C2573 C2572 1.377 . S
C2573 C2574 1.379 . S
C2574 H2558 0.931 . S
C2574 C2568 1.383 . S
C2574 C2573 1.379 . S
H2575 C2569 0.959 . S
H2576 C2569 0.961 . S
H2577 C2569 0.960 . S
H2578 C2570 0.930 . S
H2579 C2571 0.929 . S
H2580 C2588 0.929 . S
H2581 C2590 0.930 . S
H2582 C2592 0.930 . S
H2583 C2595 0.929 . S
H2584 C2598 0.930 . S
H2585 C2600 0.960 . S
H2586 C2600 0.960 . S
H2587 C2600 0.960 . S
C2588 H2580 0.929 . S
C2588 C2589 1.377 . S
C2588 C2590 1.384 . S
C2589 C2588 1.377 . S
C2589 C2595 1.390 . S
C2590 H2581 0.930 . S
C2590 C2588 1.384 . S
C2590 C2591 1.372 . S
C2591 C2590 1.372 . S
C2591 C2592 1.400 . S
C2591 C2596 1.490 . S
C2592 H2582 0.930 . S
C2592 C2591 1.400 . S
C2592 C2595 1.386 . S
H2593 C2609 0.930 . S
H2594 C2610 0.931 . S
C2595 H2583 0.929 . S
C2595 C2589 1.390 . S
C2595 C2592 1.386 . S
C2596 C2591 1.490 . S
C2596 C2598 1.395 . S
C2596 C2599 1.403 . S
H2597 C2603 0.935 . S
C2598 H2584 0.930 . S
C2598 C2596 1.395 . S
C2598 C2601 1.403 . S
C2599 C2596 1.403 . S
C2599 C2600 1.524 . S
C2599 C2603 1.400 . S
C2600 H2585 0.960 . S
C2600 H2586 0.960 . S
C2600 H2587 0.960 . S
C2600 C2599 1.524 . S
C2601 C2598 1.403 . S
C2601 C2602 1.392 1_556 S
C2601 C2605 1.495 1_556 S
C2602 C2601 1.392 1_554 S
C2602 C2603 1.385 1_554 S
C2602 C2604 1.478 . S
C2603 H2597 0.935 . S
C2603 C2599 1.400 . S
C2603 C2602 1.385 1_556 S
C2604 C2602 1.478 . S
C2604 C2606 1.381 . S
C2604 C2610 1.383 . S
C2605 C2601 1.495 1_554 S
C2605 H2611 0.979 . S
C2605 H2612 0.961 . S
C2605 H2613 0.960 . S
C2606 C2604 1.381 . S
C2606 C2607 1.394 . S
C2606 H2614 0.930 . S
C2607 C2606 1.394 . S
C2607 C2608 1.383 . S
C2607 H2615 0.929 . S
C2608 C2607 1.383 . S
C2608 C2609 1.377 . S
C2609 H2593 0.930 . S
C2609 C2608 1.377 . S
C2609 C2610 1.379 . S
C2610 H2594 0.931 . S
C2610 C2604 1.383 . S
C2610 C2609 1.379 . S
H2611 C2605 0.979 . S
H2612 C2605 0.961 . S
H2613 C2605 0.960 . S
H2614 C2606 0.930 . S
H2615 C2607 0.929 . S
H2616 C2624 0.929 . S
H2617 C2626 0.930 . S
H2618 C2628 0.930 . S
H2619 C2631 0.929 . S
H2620 C2634 0.930 . S
H2621 C2636 0.960 . S
H2622 C2636 0.960 . S
H2623 C2636 0.960 . S
C2624 H2616 0.929 . S
C2624 C2625 1.377 . S
C2624 C2626 1.384 . S
C2625 C2624 1.377 . S
C2625 C2631 1.390 . S
C2626 H2617 0.930 . S
C2626 C2624 1.384 . S
C2626 C2627 1.372 . S
C2627 C2626 1.372 . S
C2627 C2628 1.400 . S
C2627 C2632 1.490 . S
C2628 H2618 0.930 . S
C2628 C2627 1.400 . S
C2628 C2631 1.386 . S
H2629 C2645 0.930 . S
H2630 C2646 0.931 . S
C2631 H2619 0.929 . S
C2631 C2625 1.390 . S
C2631 C2628 1.386 . S
C2632 C2627 1.490 . S
C2632 C2634 1.395 . S
C2632 C2635 1.403 . S
H2633 C2639 0.930 . S
C2634 H2620 0.930 . S
C2634 C2632 1.395 . S
C2634 C2637 1.403 . S
C2635 C2632 1.403 . S
C2635 C2636 1.524 . S
C2635 C2639 1.400 . S
C2636 H2621 0.960 . S
C2636 H2622 0.960 . S
C2636 H2623 0.960 . S
C2636 C2635 1.524 . S
C2637 C2634 1.403 . S
C2637 C2638 1.392 . S
C2637 C2641 1.495 . S
C2638 C2637 1.392 . S
C2638 C2639 1.385 . S
C2638 C2640 1.478 . S
C2639 H2633 0.930 . S
C2639 C2635 1.400 . S
C2639 C2638 1.385 . S
C2640 C2638 1.478 . S
C2640 C2642 1.381 . S
C2640 C2646 1.383 . S
C2641 C2637 1.495 . S
C2641 H2647 0.959 . S
C2641 H2648 0.961 . S
C2641 H2649 0.960 . S
C2642 C2640 1.381 . S
C2642 C2643 1.394 . S
C2642 H2650 0.930 . S
C2643 C2642 1.394 . S
C2643 C2644 1.383 . S
C2643 H2651 0.929 . S
C2644 C2643 1.383 . S
C2644 C2645 1.377 . S
C2645 H2629 0.930 . S
C2645 C2644 1.377 . S
C2645 C2646 1.379 . S
C2646 H2630 0.931 . S
C2646 C2640 1.383 . S
C2646 C2645 1.379 . S
H2647 C2641 0.959 . S
H2648 C2641 0.961 . S
H2649 C2641 0.960 . S
H2650 C2642 0.930 . S
H2651 C2643 0.929 . S
H2652 C2660 0.929 . S
H2653 C2662 0.930 . S
H2654 C2664 0.930 . S
H2655 C2667 0.929 . S
H2656 C2670 0.930 . S
H2657 C2672 0.960 . S
H2658 C2672 0.960 . S
H2659 C2672 0.960 . S
C2660 H2652 0.929 . S
C2660 C2661 1.377 . S
C2660 C2662 1.384 . S
C2661 C2660 1.377 . S
C2661 C2667 1.390 . S
C2662 H2653 0.930 . S
C2662 C2660 1.384 . S
C2662 C2663 1.372 . S
C2663 C2662 1.372 . S
C2663 C2664 1.400 . S
C2663 C2668 1.490 . S
C2664 H2654 0.930 . S
C2664 C2663 1.400 . S
C2664 C2667 1.386 . S
H2665 C2681 0.930 . S
H2666 C2682 0.931 . S
C2667 H2655 0.929 . S
C2667 C2661 1.390 . S
C2667 C2664 1.386 . S
C2668 C2663 1.490 . S
C2668 C2670 1.395 . S
C2668 C2671 1.403 . S
H2669 C2675 0.930 . S
C2670 H2656 0.930 . S
C2670 C2668 1.395 . S
C2670 C2673 1.403 . S
C2671 C2668 1.403 . S
C2671 C2672 1.524 . S
C2671 C2675 1.400 . S
C2672 H2657 0.960 . S
C2672 H2658 0.960 . S
C2672 H2659 0.960 . S
C2672 C2671 1.524 . S
C2673 C2670 1.403 . S
C2673 C2674 1.392 . S
C2673 C2677 1.495 . S
C2674 C2673 1.392 . S
C2674 C2675 1.385 . S
C2674 C2676 1.478 . S
C2675 H2669 0.930 . S
C2675 C2671 1.400 . S
C2675 C2674 1.385 . S
C2676 C2674 1.478 . S
C2676 C2678 1.381 . S
C2676 C2682 1.383 . S
C2677 C2673 1.495 . S
C2677 H2683 0.959 . S
C2677 H2684 0.961 . S
C2677 H2685 0.960 . S
C2678 C2676 1.381 . S
C2678 C2679 1.394 . S
C2678 H2686 0.930 . S
C2679 C2678 1.394 . S
C2679 C2680 1.383 . S
C2679 H2687 0.929 . S
C2680 C2679 1.383 . S
C2680 C2681 1.377 . S
C2681 H2665 0.930 . S
C2681 C2680 1.377 . S
C2681 C2682 1.379 . S
C2682 H2666 0.931 . S
C2682 C2676 1.383 . S
C2682 C2681 1.379 . S
H2683 C2677 0.959 . S
H2684 C2677 0.961 . S
H2685 C2677 0.960 . S
H2686 C2678 0.930 . S
H2687 C2679 0.929 . S
H2688 C2696 0.929 . S
H2689 C2698 0.930 . S
H2690 C2700 0.930 . S
H2691 C2703 0.929 . S
H2692 C2706 0.930 . S
H2693 C2708 0.960 . S
H2694 C2708 0.960 . S
H2695 C2708 0.960 . S
C2696 H2688 0.929 . S
C2696 C2697 1.377 . S
C2696 C2698 1.384 . S
C2697 C2696 1.377 . S
C2697 C2703 1.390 . S
C2698 H2689 0.930 . S
C2698 C2696 1.384 . S
C2698 C2699 1.372 . S
C2699 C2698 1.372 . S
C2699 C2700 1.400 . S
C2699 C2704 1.490 . S
C2700 H2690 0.930 . S
C2700 C2699 1.400 . S
C2700 C2703 1.386 . S
H2701 C2717 0.930 . S
H2702 C2718 0.931 . S
C2703 H2691 0.929 . S
C2703 C2697 1.390 . S
C2703 C2700 1.386 . S
C2704 C2699 1.490 . S
C2704 C2706 1.395 . S
C2704 C2707 1.403 . S
H2705 C2711 0.930 . S
C2706 H2692 0.930 . S
C2706 C2704 1.395 . S
C2706 C2709 1.403 . S
C2707 C2704 1.403 . S
C2707 C2708 1.524 . S
C2707 C2711 1.400 . S
C2708 H2693 0.960 . S
C2708 H2694 0.960 . S
C2708 H2695 0.960 . S
C2708 C2707 1.524 . S
C2709 C2706 1.403 . S
C2709 C2710 1.392 . S
C2709 C2713 1.495 . S
C2710 C2709 1.392 . S
C2710 C2711 1.385 . S
C2710 C2712 1.478 . S
C2711 H2705 0.930 . S
C2711 C2707 1.400 . S
C2711 C2710 1.385 . S
C2712 C2710 1.478 . S
C2712 C2714 1.381 . S
C2712 C2718 1.383 . S
C2713 C2709 1.495 . S
C2713 H2719 0.959 . S
C2713 H2720 0.961 . S
C2713 H2721 0.960 . S
C2714 C2712 1.381 . S
C2714 C2715 1.394 . S
C2714 H2722 0.930 . S
C2715 C2714 1.394 . S
C2715 C2716 1.383 . S
C2715 H2723 0.929 . S
C2716 C2715 1.383 . S
C2716 C2717 1.377 . S
C2717 H2701 0.930 . S
C2717 C2716 1.377 . S
C2717 C2718 1.379 . S
C2718 H2702 0.931 . S
C2718 C2712 1.383 . S
C2718 C2717 1.379 . S
H2719 C2713 0.959 . S
H2720 C2713 0.961 . S
H2721 C2713 0.960 . S
H2722 C2714 0.930 . S
H2723 C2715 0.929 . S
H2724 C2732 0.929 . S
H2725 C2734 0.930 . S
H2726 C2736 0.930 . S
H2727 C2739 0.929 . S
H2728 C2742 0.930 . S
H2729 C2744 0.960 . S
H2730 C2744 0.960 . S
H2731 C2744 0.960 . S
C2732 H2724 0.929 . S
C2732 C2733 1.377 . S
C2732 C2734 1.384 . S
C2733 C2732 1.377 . S
C2733 C2739 1.390 . S
C2734 H2725 0.930 . S
C2734 C2732 1.384 . S
C2734 C2735 1.372 . S
C2735 C2734 1.372 . S
C2735 C2736 1.400 . S
C2735 C2740 1.490 . S
C2736 H2726 0.930 . S
C2736 C2735 1.400 . S
C2736 C2739 1.386 . S
H2737 C2753 0.930 . S
H2738 C2754 0.931 . S
C2739 H2727 0.929 . S
C2739 C2733 1.390 . S
C2739 C2736 1.386 . S
C2740 C2735 1.490 . S
C2740 C2742 1.395 . S
C2740 C2743 1.403 . S
H2741 C2747 0.930 . S
C2742 H2728 0.930 . S
C2742 C2740 1.395 . S
C2742 C2745 1.403 . S
C2743 C2740 1.403 . S
C2743 C2744 1.524 . S
C2743 C2747 1.400 . S
C2744 H2729 0.960 . S
C2744 H2730 0.960 . S
C2744 H2731 0.960 . S
C2744 C2743 1.524 . S
C2745 C2742 1.403 . S
C2745 C2746 1.392 . S
C2745 C2749 1.495 . S
C2746 C2745 1.392 . S
C2746 C2747 1.385 . S
C2746 C2748 1.478 . S
C2747 H2741 0.930 . S
C2747 C2743 1.400 . S
C2747 C2746 1.385 . S
C2748 C2746 1.478 . S
C2748 C2750 1.381 . S
C2748 C2754 1.383 . S
C2749 C2745 1.495 . S
C2749 H2755 0.959 . S
C2749 H2756 0.961 . S
C2749 H2757 0.960 . S
C2750 C2748 1.381 . S
C2750 C2751 1.394 . S
C2750 H2758 0.930 . S
C2751 C2750 1.394 . S
C2751 C2752 1.383 . S
C2751 H2759 0.929 . S
C2752 C2751 1.383 . S
C2752 C2753 1.377 . S
C2753 H2737 0.930 . S
C2753 C2752 1.377 . S
C2753 C2754 1.379 . S
C2754 H2738 0.931 . S
C2754 C2748 1.383 . S
C2754 C2753 1.379 . S
H2755 C2749 0.959 . S
H2756 C2749 0.961 . S
H2757 C2749 0.960 . S
H2758 C2750 0.930 . S
H2759 C2751 0.929 . S
H2760 C2768 0.929 . S
H2761 C2770 0.930 . S
H2762 C2772 0.930 . S
H2763 C2775 0.929 . S
H2764 C2778 0.930 . S
H2765 C2780 0.960 . S
H2766 C2780 0.960 . S
H2767 C2780 0.960 . S
C2768 H2760 0.929 . S
C2768 C2769 1.377 . S
C2768 C2770 1.384 . S
C2769 C2768 1.377 . S
C2769 C2775 1.390 . S
C2770 H2761 0.930 . S
C2770 C2768 1.384 . S
C2770 C2771 1.372 . S
C2771 C2770 1.372 . S
C2771 C2772 1.400 . S
C2771 C2776 1.490 . S
C2772 H2762 0.930 . S
C2772 C2771 1.400 . S
C2772 C2775 1.386 . S
H2773 C2789 0.930 . S
H2774 C2790 0.931 . S
C2775 H2763 0.929 . S
C2775 C2769 1.390 . S
C2775 C2772 1.386 . S
C2776 C2771 1.490 . S
C2776 C2778 1.395 . S
C2776 C2779 1.403 . S
H2777 C2783 0.930 . S
C2778 H2764 0.930 . S
C2778 C2776 1.395 . S
C2778 C2781 1.403 . S
C2779 C2776 1.403 . S
C2779 C2780 1.524 . S
C2779 C2783 1.400 . S
C2780 H2765 0.960 . S
C2780 H2766 0.960 . S
C2780 H2767 0.960 . S
C2780 C2779 1.524 . S
C2781 C2778 1.403 . S
C2781 C2782 1.392 . S
C2781 C2785 1.495 . S
C2782 C2781 1.392 . S
C2782 C2783 1.385 . S
C2782 C2784 1.478 . S
C2783 H2777 0.930 . S
C2783 C2779 1.400 . S
C2783 C2782 1.385 . S
C2784 C2782 1.478 . S
C2784 C2786 1.381 . S
C2784 C2790 1.383 . S
C2785 C2781 1.495 . S
C2785 H2791 0.959 . S
C2785 H2792 0.961 . S
C2785 H2793 0.960 . S
C2786 C2784 1.381 . S
C2786 C2787 1.394 . S
C2786 H2794 0.930 . S
C2787 C2786 1.394 . S
C2787 C2788 1.383 . S
C2787 H2795 0.929 . S
C2788 C2787 1.383 . S
C2788 C2789 1.377 . S
C2789 H2773 0.930 . S
C2789 C2788 1.377 . S
C2789 C2790 1.379 . S
C2790 H2774 0.931 . S
C2790 C2784 1.383 . S
C2790 C2789 1.379 . S
H2791 C2785 0.959 . S
H2792 C2785 0.961 . S
H2793 C2785 0.960 . S
H2794 C2786 0.930 . S
H2795 C2787 0.929 . S
H2796 C2804 0.929 1_455 S
H2797 C2806 0.930 . S
H2798 C2808 0.930 . S
H2799 C2811 0.929 . S
H2800 C2814 0.930 . S
H2801 C2816 0.960 . S
H2802 C2816 0.960 . S
H2803 C2816 0.960 . S
C2804 H2796 0.929 1_655 S
C2804 C2805 1.377 . S
C2804 C2806 1.384 . S
C2805 C2804 1.377 . S
C2805 C2811 1.390 . S
C2806 H2797 0.930 . S
C2806 C2804 1.384 . S
C2806 C2807 1.372 . S
C2807 C2806 1.372 . S
C2807 C2808 1.400 . S
C2807 C2812 1.490 . S
C2808 H2798 0.930 . S
C2808 C2807 1.400 . S
C2808 C2811 1.386 . S
H2809 C2825 0.930 . S
H2810 C2826 0.931 . S
C2811 H2799 0.929 . S
C2811 C2805 1.390 . S
C2811 C2808 1.386 . S
C2812 C2807 1.490 . S
C2812 C2814 1.395 . S
C2812 C2815 1.403 . S
H2813 C2819 0.930 . S
C2814 H2800 0.930 . S
C2814 C2812 1.395 . S
C2814 C2817 1.403 . S
C2815 C2812 1.403 . S
C2815 C2816 1.524 . S
C2815 C2819 1.400 . S
C2816 H2801 0.960 . S
C2816 H2802 0.960 . S
C2816 H2803 0.960 . S
C2816 C2815 1.524 . S
C2817 C2814 1.403 . S
C2817 C2818 1.392 . S
C2817 C2821 1.495 . S
C2818 C2817 1.392 . S
C2818 C2819 1.385 . S
C2818 C2820 1.478 . S
C2819 H2813 0.930 . S
C2819 C2815 1.400 . S
C2819 C2818 1.385 . S
C2820 C2818 1.478 . S
C2820 C2822 1.381 . S
C2820 C2826 1.383 . S
C2821 C2817 1.495 . S
C2821 H2827 0.959 1_655 S
C2821 H2828 0.961 . S
C2821 H2829 0.960 . S
C2822 C2820 1.381 . S
C2822 C2823 1.394 . S
C2822 H2830 0.930 . S
C2823 C2822 1.394 . S
C2823 C2824 1.383 . S
C2823 H2831 0.929 . S
C2824 C2823 1.383 . S
C2824 C2825 1.377 . S
C2825 H2809 0.930 . S
C2825 C2824 1.377 . S
C2825 C2826 1.379 . S
C2826 H2810 0.931 . S
C2826 C2820 1.383 . S
C2826 C2825 1.379 . S
H2827 C2821 0.959 1_455 S
H2828 C2821 0.961 . S
H2829 C2821 0.960 . S
H2830 C2822 0.930 . S
H2831 C2823 0.929 . S
H2832 C2840 0.929 . S
H2833 C2842 0.930 . S
H2834 C2844 0.930 . S
H2835 C2847 0.929 . S
H2836 C2850 0.930 . S
H2837 C2852 0.960 . S
H2838 C2852 0.960 . S
H2839 C2852 0.960 . S
C2840 H2832 0.929 . S
C2840 C2841 1.377 . S
C2840 C2842 1.384 . S
C2841 C2840 1.377 . S
C2841 C2847 1.390 . S
C2842 H2833 0.930 . S
C2842 C2840 1.384 . S
C2842 C2843 1.372 . S
C2843 C2842 1.372 . S
C2843 C2844 1.400 . S
C2843 C2848 1.490 . S
C2844 H2834 0.930 . S
C2844 C2843 1.400 . S
C2844 C2847 1.386 . S
H2845 C2861 0.930 . S
H2846 C2862 0.931 . S
C2847 H2835 0.929 . S
C2847 C2841 1.390 . S
C2847 C2844 1.386 . S
C2848 C2843 1.490 . S
C2848 C2850 1.395 . S
C2848 C2851 1.403 . S
H2849 C2855 0.930 . S
C2850 H2836 0.930 . S
C2850 C2848 1.395 . S
C2850 C2853 1.403 . S
C2851 C2848 1.403 . S
C2851 C2852 1.524 . S
C2851 C2855 1.400 . S
C2852 H2837 0.960 . S
C2852 H2838 0.960 . S
C2852 H2839 0.960 . S
C2852 C2851 1.524 . S
C2853 C2850 1.403 . S
C2853 C2854 1.392 . S
C2853 C2857 1.495 . S
C2854 C2853 1.392 . S
C2854 C2855 1.385 . S
C2854 C2856 1.478 . S
C2855 H2849 0.930 . S
C2855 C2851 1.400 . S
C2855 C2854 1.385 . S
C2856 C2854 1.478 . S
C2856 C2858 1.381 . S
C2856 C2862 1.383 . S
C2857 C2853 1.495 . S
C2857 H2863 0.959 . S
C2857 H2864 0.961 . S
C2857 H2865 0.960 . S
C2858 C2856 1.381 . S
C2858 C2859 1.394 . S
C2858 H2866 0.930 . S
C2859 C2858 1.394 . S
C2859 C2860 1.383 . S
C2859 H2867 0.929 . S
C2860 C2859 1.383 . S
C2860 C2861 1.377 . S
C2861 H2845 0.930 . S
C2861 C2860 1.377 . S
C2861 C2862 1.379 . S
C2862 H2846 0.931 . S
C2862 C2856 1.383 . S
C2862 C2861 1.379 . S
H2863 C2857 0.959 . S
H2864 C2857 0.961 . S
H2865 C2857 0.960 . S
H2866 C2858 0.930 . S
H2867 C2859 0.929 . S
H2868 C2876 0.929 . S
H2869 C2878 0.930 . S
H2870 C2880 0.930 . S
H2871 C2883 0.929 . S
H2872 C2886 0.930 . S
H2873 C2888 0.960 . S
H2874 C2888 0.960 . S
H2875 C2888 0.960 . S
C2876 H2868 0.929 . S
C2876 C2877 1.377 . S
C2876 C2878 1.384 . S
C2877 C2876 1.377 . S
C2877 C2883 1.390 . S
C2878 H2869 0.930 . S
C2878 C2876 1.384 . S
C2878 C2879 1.372 . S
C2879 C2878 1.372 . S
C2879 C2880 1.400 . S
C2879 C2884 1.490 . S
C2880 H2870 0.930 . S
C2880 C2879 1.400 . S
C2880 C2883 1.386 . S
H2881 C2897 0.930 . S
H2882 C2898 0.931 . S
C2883 H2871 0.929 . S
C2883 C2877 1.390 . S
C2883 C2880 1.386 . S
C2884 C2879 1.490 . S
C2884 C2886 1.395 . S
C2884 C2887 1.403 . S
H2885 C2891 0.930 . S
C2886 H2872 0.930 . S
C2886 C2884 1.395 . S
C2886 C2889 1.403 . S
C2887 C2884 1.403 . S
C2887 C2888 1.524 . S
C2887 C2891 1.400 . S
C2888 H2873 0.960 . S
C2888 H2874 0.960 . S
C2888 H2875 0.960 . S
C2888 C2887 1.524 . S
C2889 C2886 1.403 . S
C2889 C2890 1.392 . S
C2889 C2893 1.495 . S
C2890 C2889 1.392 . S
C2890 C2891 1.385 . S
C2890 C2892 1.478 . S
C2891 H2885 0.930 . S
C2891 C2887 1.400 . S
C2891 C2890 1.385 . S
C2892 C2890 1.478 . S
C2892 C2894 1.381 . S
C2892 C2898 1.383 . S
C2893 C2889 1.495 . S
C2893 H2899 0.959 1_655 S
C2893 H2900 0.961 . S
C2893 H2901 0.960 1_655 S
C2894 C2892 1.381 . S
C2894 C2895 1.394 1_655 S
C2894 H2902 0.930 1_655 S
C2895 C2894 1.394 1_455 S
C2895 C2896 1.383 1_455 S
C2895 H2903 0.929 . S
C2896 C2895 1.383 1_655 S
C2896 C2897 1.377 . S
C2897 H2881 0.930 . S
C2897 C2896 1.377 . S
C2897 C2898 1.379 . S
C2898 H2882 0.931 . S
C2898 C2892 1.383 . S
C2898 C2897 1.379 . S
H2899 C2893 0.959 1_455 S
H2900 C2893 0.961 . S
H2901 C2893 0.960 1_455 S
H2902 C2894 0.930 1_455 S
H2903 C2895 0.929 . S
H2904 C2912 0.929 . S
H2905 C2914 0.930 . S
H2906 C2916 0.930 . S
H2907 C2919 0.929 . S
H2908 C2922 0.930 . S
H2909 C2924 0.960 . S
H2910 C2924 0.960 . S
H2911 C2924 0.960 . S
C2912 H2904 0.929 . S
C2912 C2913 1.377 . S
C2912 C2914 1.384 . S
C2913 C2912 1.377 . S
C2913 C2919 1.390 . S
C2914 H2905 0.930 . S
C2914 C2912 1.384 . S
C2914 C2915 1.372 . S
C2915 C2914 1.372 . S
C2915 C2916 1.400 . S
C2915 C2920 1.490 . S
C2916 H2906 0.930 . S
C2916 C2915 1.400 . S
C2916 C2919 1.386 . S
H2917 C2933 0.930 . S
H2918 C2934 0.931 . S
C2919 H2907 0.929 . S
C2919 C2913 1.390 . S
C2919 C2916 1.386 . S
C2920 C2915 1.490 . S
C2920 C2922 1.395 . S
C2920 C2923 1.403 . S
H2921 C2927 0.930 . S
C2922 H2908 0.930 . S
C2922 C2920 1.395 . S
C2922 C2925 1.403 . S
C2923 C2920 1.403 . S
C2923 C2924 1.524 . S
C2923 C2927 1.400 . S
C2924 H2909 0.960 . S
C2924 H2910 0.960 . S
C2924 H2911 0.960 . S
C2924 C2923 1.524 . S
C2925 C2922 1.403 . S
C2925 C2926 1.392 . S
C2925 C2929 1.495 . S
C2926 C2925 1.392 . S
C2926 C2927 1.385 . S
C2926 C2928 1.478 . S
C2927 H2921 0.930 . S
C2927 C2923 1.400 . S
C2927 C2926 1.385 . S
C2928 C2926 1.478 . S
C2928 C2930 1.381 . S
C2928 C2934 1.383 . S
C2929 C2925 1.495 . S
C2929 H2935 0.959 . S
C2929 H2936 0.961 . S
C2929 H2937 0.960 . S
C2930 C2928 1.381 . S
C2930 C2931 1.394 . S
C2930 H2938 0.930 . S
C2931 C2930 1.394 . S
C2931 C2932 1.383 . S
C2931 H2939 0.929 . S
C2932 C2931 1.383 . S
C2932 C2933 1.377 . S
C2933 H2917 0.930 . S
C2933 C2932 1.377 . S
C2933 C2934 1.379 . S
C2934 H2918 0.931 . S
C2934 C2928 1.383 . S
C2934 C2933 1.379 . S
H2935 C2929 0.959 . S
H2936 C2929 0.961 . S
H2937 C2929 0.960 . S
H2938 C2930 0.930 . S
H2939 C2931 0.929 . S
H2940 C2948 0.929 . S
H2941 C2950 0.930 . S
H2942 C2952 0.930 . S
H2943 C2955 0.929 . S
H2944 C2958 0.930 . S
H2945 C2960 0.960 . S
H2946 C2960 0.960 . S
H2947 C2960 0.960 . S
C2948 H2940 0.929 . S
C2948 C2949 1.377 . S
C2948 C2950 1.384 . S
C2949 C2948 1.377 . S
C2949 C2955 1.390 . S
C2950 H2941 0.930 . S
C2950 C2948 1.384 . S
C2950 C2951 1.372 . S
C2951 C2950 1.372 . S
C2951 C2952 1.400 . S
C2951 C2956 1.490 . S
C2952 H2942 0.930 . S
C2952 C2951 1.400 . S
C2952 C2955 1.386 . S
H2953 C2969 0.930 . S
H2954 C2970 0.931 . S
C2955 H2943 0.929 . S
C2955 C2949 1.390 . S
C2955 C2952 1.386 . S
C2956 C2951 1.490 . S
C2956 C2958 1.395 . S
C2956 C2959 1.403 . S
H2957 C2963 0.930 . S
C2958 H2944 0.930 . S
C2958 C2956 1.395 . S
C2958 C2961 1.403 . S
C2959 C2956 1.403 . S
C2959 C2960 1.524 . S
C2959 C2963 1.400 . S
C2960 H2945 0.960 . S
C2960 H2946 0.960 . S
C2960 H2947 0.960 . S
C2960 C2959 1.524 . S
C2961 C2958 1.403 . S
C2961 C2962 1.392 . S
C2961 C2965 1.495 . S
C2962 C2961 1.392 . S
C2962 C2963 1.385 . S
C2962 C2964 1.478 . S
C2963 H2957 0.930 . S
C2963 C2959 1.400 . S
C2963 C2962 1.385 . S
C2964 C2962 1.478 . S
C2964 C2966 1.381 . S
C2964 C2970 1.383 . S
C2965 C2961 1.495 . S
C2965 H2971 0.959 . S
C2965 H2972 0.961 . S
C2965 H2973 0.960 . S
C2966 C2964 1.381 . S
C2966 C2967 1.394 . S
C2966 H2974 0.930 . S
C2967 C2966 1.394 . S
C2967 C2968 1.383 . S
C2967 H2975 0.929 . S
C2968 C2967 1.383 . S
C2968 C2969 1.377 . S
C2969 H2953 0.930 . S
C2969 C2968 1.377 . S
C2969 C2970 1.379 . S
C2970 H2954 0.931 . S
C2970 C2964 1.383 . S
C2970 C2969 1.379 . S
H2971 C2965 0.959 . S
H2972 C2965 0.961 . S
H2973 C2965 0.960 . S
H2974 C2966 0.930 . S
H2975 C2967 0.929 . S
H2976 C2984 0.929 . S
H2977 C2986 0.930 . S
H2978 C2988 0.930 . S
H2979 C2991 0.929 . S
H2980 C2994 0.930 . S
H2981 C2996 0.960 . S
H2982 C2996 0.960 . S
H2983 C2996 0.960 . S
C2984 H2976 0.929 . S
C2984 C2985 1.377 . S
C2984 C2986 1.384 . S
C2985 C2984 1.377 . S
C2985 C2991 1.390 . S
C2986 H2977 0.930 . S
C2986 C2984 1.384 . S
C2986 C2987 1.372 . S
C2987 C2986 1.372 . S
C2987 C2988 1.400 . S
C2987 C2992 1.490 . S
C2988 H2978 0.930 . S
C2988 C2987 1.400 . S
C2988 C2991 1.386 . S
H2989 C3005 0.930 . S
H2990 C3006 0.931 . S
C2991 H2979 0.929 . S
C2991 C2985 1.390 . S
C2991 C2988 1.386 . S
C2992 C2987 1.490 . S
C2992 C2994 1.395 . S
C2992 C2995 1.403 . S
H2993 C2999 0.930 . S
C2994 H2980 0.930 . S
C2994 C2992 1.395 . S
C2994 C2997 1.403 . S
C2995 C2992 1.403 . S
C2995 C2996 1.524 . S
C2995 C2999 1.400 . S
C2996 H2981 0.960 . S
C2996 H2982 0.960 . S
C2996 H2983 0.960 . S
C2996 C2995 1.524 . S
C2997 C2994 1.403 . S
C2997 C2998 1.392 . S
C2997 C3001 1.495 . S
C2998 C2997 1.392 . S
C2998 C2999 1.385 . S
C2998 C3000 1.478 . S
C2999 H2993 0.930 . S
C2999 C2995 1.400 . S
C2999 C2998 1.385 . S
C3000 C2998 1.478 . S
C3000 C3002 1.381 . S
C3000 C3006 1.383 . S
C3001 C2997 1.495 . S
C3001 H3007 0.959 . S
C3001 H3008 0.961 . S
C3001 H3009 0.960 . S
C3002 C3000 1.381 . S
C3002 C3003 1.394 . S
C3002 H3010 0.930 . S
C3003 C3002 1.394 . S
C3003 C3004 1.383 . S
C3003 H3011 0.929 . S
C3004 C3003 1.383 . S
C3004 C3005 1.377 . S
C3005 H2989 0.930 . S
C3005 C3004 1.377 . S
C3005 C3006 1.379 . S
C3006 H2990 0.931 . S
C3006 C3000 1.383 . S
C3006 C3005 1.379 . S
H3007 C3001 0.959 . S
H3008 C3001 0.961 . S
H3009 C3001 0.960 . S
H3010 C3002 0.930 . S
H3011 C3003 0.929 . S
H3012 C3020 0.929 . S
H3013 C3022 0.930 . S
H3014 C3024 0.930 . S
H3015 C3027 0.929 . S
H3016 C3030 0.930 . S
H3017 C3032 0.960 . S
H3018 C3032 0.960 . S
H3019 C3032 0.960 . S
C3020 H3012 0.929 . S
C3020 C3021 1.377 . S
C3020 C3022 1.384 . S
C3021 C3020 1.377 . S
C3021 C3027 1.390 . S
C3022 H3013 0.930 . S
C3022 C3020 1.384 . S
C3022 C3023 1.372 . S
C3023 C3022 1.372 . S
C3023 C3024 1.400 . S
C3023 C3028 1.490 . S
C3024 H3014 0.930 . S
C3024 C3023 1.400 . S
C3024 C3027 1.386 . S
H3025 C3041 0.930 . S
H3026 C3042 0.931 . S
C3027 H3015 0.929 . S
C3027 C3021 1.390 . S
C3027 C3024 1.386 . S
C3028 C3023 1.490 . S
C3028 C3030 1.395 . S
C3028 C3031 1.403 . S
H3029 C3035 0.930 . S
C3030 H3016 0.930 . S
C3030 C3028 1.395 . S
C3030 C3033 1.403 . S
C3031 C3028 1.403 . S
C3031 C3032 1.524 . S
C3031 C3035 1.400 . S
C3032 H3017 0.960 . S
C3032 H3018 0.960 . S
C3032 H3019 0.960 . S
C3032 C3031 1.524 . S
C3033 C3030 1.403 . S
C3033 C3034 1.392 . S
C3033 C3037 1.495 . S
C3034 C3033 1.392 . S
C3034 C3035 1.385 . S
C3034 C3036 1.478 . S
C3035 H3029 0.930 . S
C3035 C3031 1.400 . S
C3035 C3034 1.385 . S
C3036 C3034 1.478 . S
C3036 C3038 1.381 . S
C3036 C3042 1.383 . S
C3037 C3033 1.495 . S
C3037 H3043 0.959 . S
C3037 H3044 0.961 . S
C3037 H3045 0.960 . S
C3038 C3036 1.381 . S
C3038 C3039 1.394 . S
C3038 H3046 0.930 . S
C3039 C3038 1.394 . S
C3039 C3040 1.383 . S
C3039 H3047 0.929 . S
C3040 C3039 1.383 . S
C3040 C3041 1.377 . S
C3041 H3025 0.930 . S
C3041 C3040 1.377 . S
C3041 C3042 1.379 . S
C3042 H3026 0.931 . S
C3042 C3036 1.383 . S
C3042 C3041 1.379 . S
H3043 C3037 0.959 . S
H3044 C3037 0.961 . S
H3045 C3037 0.960 . S
H3046 C3038 0.930 . S
H3047 C3039 0.929 . S
H3048 C3056 0.929 . S
H3049 C3058 0.930 . S
H3050 C3060 0.930 . S
H3051 C3063 0.929 . S
H3052 C3066 0.930 . S
H3053 C3068 0.960 . S
H3054 C3068 0.960 . S
H3055 C3068 0.960 . S
C3056 H3048 0.929 . S
C3056 C3057 1.377 . S
C3056 C3058 1.384 . S
C3057 C3056 1.377 . S
C3057 C3063 1.390 . S
C3058 H3049 0.930 . S
C3058 C3056 1.384 . S
C3058 C3059 1.372 . S
C3059 C3058 1.372 . S
C3059 C3060 1.400 . S
C3059 C3064 1.490 . S
C3060 H3050 0.930 . S
C3060 C3059 1.400 . S
C3060 C3063 1.386 . S
H3061 C3077 0.930 . S
H3062 C3078 0.931 . S
C3063 H3051 0.929 . S
C3063 C3057 1.390 . S
C3063 C3060 1.386 . S
C3064 C3059 1.490 . S
C3064 C3066 1.395 . S
C3064 C3067 1.403 . S
H3065 C3071 0.930 . S
C3066 H3052 0.930 . S
C3066 C3064 1.395 . S
C3066 C3069 1.403 . S
C3067 C3064 1.403 . S
C3067 C3068 1.524 . S
C3067 C3071 1.400 . S
C3068 H3053 0.960 . S
C3068 H3054 0.960 . S
C3068 H3055 0.960 . S
C3068 C3067 1.524 . S
C3069 C3066 1.403 . S
C3069 C3070 1.392 . S
C3069 C3073 1.495 . S
C3070 C3069 1.392 . S
C3070 C3071 1.385 . S
C3070 C3072 1.478 . S
C3071 H3065 0.930 . S
C3071 C3067 1.400 . S
C3071 C3070 1.385 . S
C3072 C3070 1.478 . S
C3072 C3074 1.381 . S
C3072 C3078 1.383 . S
C3073 C3069 1.495 . S
C3073 H3079 0.959 . S
C3073 H3080 0.961 . S
C3073 H3081 0.960 . S
C3074 C3072 1.381 . S
C3074 C3075 1.394 . S
C3074 H3082 0.930 . S
C3075 C3074 1.394 . S
C3075 C3076 1.383 . S
C3075 H3083 0.929 . S
C3076 C3075 1.383 . S
C3076 C3077 1.377 . S
C3077 H3061 0.930 . S
C3077 C3076 1.377 . S
C3077 C3078 1.379 . S
C3078 H3062 0.931 . S
C3078 C3072 1.383 . S
C3078 C3077 1.379 . S
H3079 C3073 0.959 . S
H3080 C3073 0.961 . S
H3081 C3073 0.960 . S
H3082 C3074 0.930 . S
H3083 C3075 0.929 . S
H3084 C3092 0.929 . S
H3085 C3094 0.930 . S
H3086 C3096 0.930 . S
H3087 C3099 0.929 . S
H3088 C3102 0.930 . S
H3089 C3104 0.960 . S
H3090 C3104 0.960 . S
H3091 C3104 0.960 . S
C3092 H3084 0.929 . S
C3092 C3093 1.377 . S
C3092 C3094 1.384 . S
C3093 C3092 1.377 . S
C3093 C3099 1.390 . S
C3094 H3085 0.930 . S
C3094 C3092 1.384 . S
C3094 C3095 1.372 . S
C3095 C3094 1.372 . S
C3095 C3096 1.400 . S
C3095 C3100 1.490 . S
C3096 H3086 0.930 . S
C3096 C3095 1.400 . S
C3096 C3099 1.386 . S
H3097 C3113 0.930 . S
H3098 C3114 0.931 . S
C3099 H3087 0.929 . S
C3099 C3093 1.390 . S
C3099 C3096 1.386 . S
C3100 C3095 1.490 . S
C3100 C3102 1.395 . S
C3100 C3103 1.403 . S
H3101 C3107 0.930 . S
C3102 H3088 0.930 . S
C3102 C3100 1.395 . S
C3102 C3105 1.403 . S
C3103 C3100 1.403 . S
C3103 C3104 1.524 . S
C3103 C3107 1.400 . S
C3104 H3089 0.960 . S
C3104 H3090 0.960 . S
C3104 H3091 0.960 . S
C3104 C3103 1.524 . S
C3105 C3102 1.403 . S
C3105 C3106 1.392 . S
C3105 C3109 1.495 . S
C3106 C3105 1.392 . S
C3106 C3107 1.385 . S
C3106 C3108 1.478 . S
C3107 H3101 0.930 . S
C3107 C3103 1.400 . S
C3107 C3106 1.385 . S
C3108 C3106 1.478 . S
C3108 C3110 1.381 . S
C3108 C3114 1.383 . S
C3109 C3105 1.495 . S
C3109 H3115 0.959 . S
C3109 H3116 0.961 . S
C3109 H3117 0.960 . S
C3110 C3108 1.381 . S
C3110 C3111 1.394 . S
C3110 H3118 0.930 . S
C3111 C3110 1.394 . S
C3111 C3112 1.383 . S
C3111 H3119 0.929 . S
C3112 C3111 1.383 . S
C3112 C3113 1.377 . S
C3113 H3097 0.930 . S
C3113 C3112 1.377 . S
C3113 C3114 1.379 . S
C3114 H3098 0.931 . S
C3114 C3108 1.383 . S
C3114 C3113 1.379 . S
H3115 C3109 0.959 . S
H3116 C3109 0.961 . S
H3117 C3109 0.960 . S
H3118 C3110 0.930 . S
H3119 C3111 0.929 . S
H3120 C3128 0.929 . S
H3121 C3130 0.930 . S
H3122 C3132 0.930 . S
H3123 C3135 0.929 . S
H3124 C3138 0.930 . S
H3125 C3140 0.960 . S
H3126 C3140 0.960 . S
H3127 C3140 0.960 . S
C3128 H3120 0.929 . S
C3128 C3129 1.377 . S
C3128 C3130 1.384 . S
C3129 C3128 1.377 . S
C3129 C3135 1.390 . S
C3130 H3121 0.930 . S
C3130 C3128 1.384 . S
C3130 C3131 1.372 . S
C3131 C3130 1.372 . S
C3131 C3132 1.400 . S
C3131 C3136 1.490 . S
C3132 H3122 0.930 . S
C3132 C3131 1.400 . S
C3132 C3135 1.386 . S
H3133 C3149 0.930 . S
H3134 C3150 0.931 . S
C3135 H3123 0.929 . S
C3135 C3129 1.390 . S
C3135 C3132 1.386 . S
C3136 C3131 1.490 . S
C3136 C3138 1.395 . S
C3136 C3139 1.403 . S
H3137 C3143 0.930 . S
C3138 H3124 0.930 . S
C3138 C3136 1.395 . S
C3138 C3141 1.403 . S
C3139 C3136 1.403 . S
C3139 C3140 1.524 . S
C3139 C3143 1.400 . S
C3140 H3125 0.960 . S
C3140 H3126 0.960 . S
C3140 H3127 0.960 . S
C3140 C3139 1.524 . S
C3141 C3138 1.403 . S
C3141 C3142 1.392 . S
C3141 C3145 1.495 . S
C3142 C3141 1.392 . S
C3142 C3143 1.385 . S
C3142 C3144 1.478 . S
C3143 H3137 0.930 . S
C3143 C3139 1.400 . S
C3143 C3142 1.385 . S
C3144 C3142 1.478 . S
C3144 C3146 1.381 . S
C3144 C3150 1.383 . S
C3145 C3141 1.495 . S
C3145 H3151 0.959 . S
C3145 H3152 0.961 . S
C3145 H3153 0.960 . S
C3146 C3144 1.381 . S
C3146 C3147 1.394 . S
C3146 H3154 0.930 . S
C3147 C3146 1.394 . S
C3147 C3148 1.383 . S
C3147 H3155 0.929 . S
C3148 C3147 1.383 . S
C3148 C3149 1.377 . S
C3149 H3133 0.930 . S
C3149 C3148 1.377 . S
C3149 C3150 1.379 . S
C3150 H3134 0.931 . S
C3150 C3144 1.383 . S
C3150 C3149 1.379 . S
H3151 C3145 0.959 . S
H3152 C3145 0.961 . S
H3153 C3145 0.960 . S
H3154 C3146 0.930 . S
H3155 C3147 0.929 . S
H3156 C3164 0.929 . S
H3157 C3166 0.930 . S
H3158 C3168 0.930 . S
H3159 C3171 0.929 . S
H3160 C3174 0.930 . S
H3161 C3176 0.960 . S
H3162 C3176 0.960 . S
H3163 C3176 0.960 . S
C3164 H3156 0.929 . S
C3164 C3165 1.377 . S
C3164 C3166 1.384 . S
C3165 C3164 1.377 . S
C3165 C3171 1.390 . S
C3166 H3157 0.930 . S
C3166 C3164 1.384 . S
C3166 C3167 1.372 . S
C3167 C3166 1.372 . S
C3167 C3168 1.400 . S
C3167 C3172 1.490 . S
C3168 H3158 0.930 . S
C3168 C3167 1.400 . S
C3168 C3171 1.386 . S
H3169 C3185 0.930 . S
H3170 C3186 0.931 . S
C3171 H3159 0.929 . S
C3171 C3165 1.390 . S
C3171 C3168 1.386 . S
C3172 C3167 1.490 . S
C3172 C3174 1.395 . S
C3172 C3175 1.403 . S
H3173 C3179 0.930 . S
C3174 H3160 0.930 . S
C3174 C3172 1.395 . S
C3174 C3177 1.403 . S
C3175 C3172 1.403 . S
C3175 C3176 1.524 . S
C3175 C3179 1.400 . S
C3176 H3161 0.960 . S
C3176 H3162 0.960 . S
C3176 H3163 0.960 . S
C3176 C3175 1.524 . S
C3177 C3174 1.403 . S
C3177 C3178 1.392 . S
C3177 C3181 1.495 . S
C3178 C3177 1.392 . S
C3178 C3179 1.385 . S
C3178 C3180 1.478 . S
C3179 H3173 0.930 . S
C3179 C3175 1.400 . S
C3179 C3178 1.385 . S
C3180 C3178 1.478 . S
C3180 C3182 1.381 . S
C3180 C3186 1.383 . S
C3181 C3177 1.495 . S
C3181 H3187 0.959 . S
C3181 H3188 0.961 . S
C3181 H3189 0.960 . S
C3182 C3180 1.381 . S
C3182 C3183 1.394 . S
C3182 H3190 0.930 . S
C3183 C3182 1.394 . S
C3183 C3184 1.383 . S
C3183 H3191 0.929 . S
C3184 C3183 1.383 . S
C3184 C3185 1.377 . S
C3185 H3169 0.930 . S
C3185 C3184 1.377 . S
C3185 C3186 1.379 . S
C3186 H3170 0.931 . S
C3186 C3180 1.383 . S
C3186 C3185 1.379 . S
H3187 C3181 0.959 . S
H3188 C3181 0.961 . S
H3189 C3181 0.960 . S
H3190 C3182 0.930 . S
H3191 C3183 0.929 . S
H3192 C3200 0.929 . S
H3193 C3202 0.930 . S
H3194 C3204 0.930 . S
H3195 C3207 0.929 . S
H3196 C3210 0.930 . S
H3197 C3212 0.950 1_554 S
H3198 C3212 0.960 1_554 S
H3199 C3212 0.960 . S
C3200 H3192 0.929 . S
C3200 C3201 1.377 . S
C3200 C3202 1.384 . S
C3201 C3200 1.377 . S
C3201 C3207 1.390 . S
C3202 H3193 0.930 . S
C3202 C3200 1.384 . S
C3202 C3203 1.372 . S
C3203 C3202 1.372 . S
C3203 C3204 1.400 . S
C3203 C3208 1.490 . S
C3204 H3194 0.930 . S
C3204 C3203 1.400 . S
C3204 C3207 1.386 . S
H3205 C3221 0.930 . S
H3206 C3222 0.931 . S
C3207 H3195 0.929 . S
C3207 C3201 1.390 . S
C3207 C3204 1.386 . S
C3208 C3203 1.490 . S
C3208 C3210 1.395 . S
C3208 C3211 1.403 . S
H3209 C3215 0.930 . S
C3210 H3196 0.930 . S
C3210 C3208 1.395 . S
C3210 C3213 1.403 . S
C3211 C3208 1.403 . S
C3211 C3212 1.524 . S
C3211 C3215 1.400 . S
C3212 H3197 0.950 1_556 S
C3212 H3198 0.960 1_556 S
C3212 H3199 0.960 . S
C3212 C3211 1.524 . S
C3213 C3210 1.403 . S
C3213 C3214 1.392 . S
C3213 C3217 1.495 . S
C3214 C3213 1.392 . S
C3214 C3215 1.385 . S
C3214 C3216 1.478 . S
C3215 H3209 0.930 . S
C3215 C3211 1.400 . S
C3215 C3214 1.385 . S
C3216 C3214 1.478 . S
C3216 C3218 1.381 . S
C3216 C3222 1.383 . S
C3217 C3213 1.495 . S
C3217 H3223 0.959 . S
C3217 H3224 0.961 . S
C3217 H3225 0.960 . S
C3218 C3216 1.381 . S
C3218 C3219 1.394 . S
C3218 H3226 0.930 . S
C3219 C3218 1.394 . S
C3219 C3220 1.383 . S
C3219 H3227 0.929 . S
C3220 C3219 1.383 . S
C3220 C3221 1.377 . S
C3221 H3205 0.930 . S
C3221 C3220 1.377 . S
C3221 C3222 1.379 . S
C3222 H3206 0.931 . S
C3222 C3216 1.383 . S
C3222 C3221 1.379 . S
H3223 C3217 0.959 . S
H3224 C3217 0.961 . S
H3225 C3217 0.960 . S
H3226 C3218 0.930 . S
H3227 C3219 0.929 . S
H3228 C3236 0.929 . S
H3229 C3238 0.930 . S
H3230 C3240 0.930 . S
H3231 C3243 0.929 . S
H3232 C3246 0.930 . S
H3233 C3248 0.960 . S
H3234 C3248 0.960 . S
H3235 C3248 0.960 . S
C3236 H3228 0.929 . S
C3236 C3237 1.377 . S
C3236 C3238 1.384 . S
C3237 C3236 1.377 . S
C3237 C3243 1.390 . S
C3238 H3229 0.930 . S
C3238 C3236 1.384 . S
C3238 C3239 1.372 . S
C3239 C3238 1.372 . S
C3239 C3240 1.400 . S
C3239 C3244 1.490 . S
C3240 H3230 0.930 . S
C3240 C3239 1.400 . S
C3240 C3243 1.386 . S
H3241 C3257 0.930 . S
H3242 C3258 0.931 . S
C3243 H3231 0.929 . S
C3243 C3237 1.390 . S
C3243 C3240 1.386 . S
C3244 C3239 1.490 . S
C3244 C3246 1.395 1_455 S
C3244 C3247 1.403 1_455 S
H3245 C3251 0.930 . S
C3246 H3232 0.930 . S
C3246 C3244 1.395 1_655 S
C3246 C3249 1.403 . S
C3247 C3244 1.403 1_655 S
C3247 C3248 1.524 1_655 S
C3247 C3251 1.400 . S
C3248 H3233 0.960 . S
C3248 H3234 0.960 . S
C3248 H3235 0.960 . S
C3248 C3247 1.524 1_455 S
C3249 C3246 1.403 . S
C3249 C3250 1.392 . S
C3249 C3253 1.495 . S
C3250 C3249 1.392 . S
C3250 C3251 1.385 . S
C3250 C3252 1.478 . S
C3251 H3245 0.930 . S
C3251 C3247 1.400 . S
C3251 C3250 1.385 . S
C3252 C3250 1.478 . S
C3252 C3254 1.381 . S
C3252 C3258 1.383 . S
C3253 C3249 1.495 . S
C3253 H3259 0.959 . S
C3253 H3260 0.961 . S
C3253 H3261 0.960 . S
C3254 C3252 1.381 . S
C3254 C3255 1.394 . S
C3254 H3262 0.930 . S
C3255 C3254 1.394 . S
C3255 C3256 1.383 . S
C3255 H3263 0.929 . S
C3256 C3255 1.383 . S
C3256 C3257 1.377 . S
C3257 H3241 0.930 . S
C3257 C3256 1.377 . S
C3257 C3258 1.379 . S
C3258 H3242 0.931 . S
C3258 C3252 1.383 . S
C3258 C3257 1.379 . S
H3259 C3253 0.959 . S
H3260 C3253 0.961 . S
H3261 C3253 0.960 . S
H3262 C3254 0.930 . S
H3263 C3255 0.929 . S
H3264 C3272 0.929 . S
H3265 C3274 0.930 . S
H3266 C3276 0.930 . S
H3267 C3279 0.929 . S
H3268 C3282 0.930 . S
H3269 C3284 0.960 . S
H3270 C3284 0.960 . S
H3271 C3284 0.960 . S
C3272 H3264 0.929 . S
C3272 C3273 1.377 . S
C3272 C3274 1.384 . S
C3273 C3272 1.377 . S
C3273 C3279 1.390 . S
C3274 H3265 0.930 . S
C3274 C3272 1.384 . S
C3274 C3275 1.372 . S
C3275 C3274 1.372 . S
C3275 C3276 1.400 . S
C3275 C3280 1.490 . S
C3276 H3266 0.930 . S
C3276 C3275 1.400 . S
C3276 C3279 1.386 . S
H3277 C3293 0.930 . S
H3278 C3294 0.931 . S
C3279 H3267 0.929 . S
C3279 C3273 1.390 . S
C3279 C3276 1.386 . S
C3280 C3275 1.490 . S
C3280 C3282 1.395 . S
C3280 C3283 1.403 . S
H3281 C3287 0.930 . S
C3282 H3268 0.930 . S
C3282 C3280 1.395 . S
C3282 C3285 1.403 . S
C3283 C3280 1.403 . S
C3283 C3284 1.524 . S
C3283 C3287 1.400 . S
C3284 H3269 0.960 . S
C3284 H3270 0.960 . S
C3284 H3271 0.960 . S
C3284 C3283 1.524 . S
C3285 C3282 1.403 . S
C3285 C3286 1.392 . S
C3285 C3289 1.495 . S
C3286 C3285 1.392 . S
C3286 C3287 1.385 . S
C3286 C3288 1.478 . S
C3287 H3281 0.930 . S
C3287 C3283 1.400 . S
C3287 C3286 1.385 . S
C3288 C3286 1.478 . S
C3288 C3290 1.381 . S
C3288 C3294 1.383 . S
C3289 C3285 1.495 . S
C3289 H3295 0.959 . S
C3289 H3296 0.961 . S
C3289 H3297 0.960 . S
C3290 C3288 1.381 . S
C3290 C3291 1.394 . S
C3290 H3298 0.930 . S
C3291 C3290 1.394 . S
C3291 C3292 1.383 . S
C3291 H3299 0.929 . S
C3292 C3291 1.383 . S
C3292 C3293 1.377 . S
C3293 H3277 0.930 . S
C3293 C3292 1.377 . S
C3293 C3294 1.379 . S
C3294 H3278 0.931 . S
C3294 C3288 1.383 . S
C3294 C3293 1.379 . S
H3295 C3289 0.959 . S
H3296 C3289 0.961 . S
H3297 C3289 0.960 . S
H3298 C3290 0.930 . S
H3299 C3291 0.929 . S
H3300 C3308 0.929 . S
H3301 C3310 0.930 . S
H3302 C3312 0.930 . S
H3303 C3315 0.929 . S
H3304 C3318 0.930 . S
H3305 C3320 0.960 . S
H3306 C3320 0.960 . S
H3307 C3320 0.960 . S
C3308 H3300 0.929 . S
C3308 C3309 1.377 . S
C3308 C3310 1.384 . S
C3309 C3308 1.377 . S
C3309 C3315 1.390 . S
C3310 H3301 0.930 . S
C3310 C3308 1.384 . S
C3310 C3311 1.372 . S
C3311 C3310 1.372 . S
C3311 C3312 1.400 . S
C3311 C3316 1.490 . S
C3312 H3302 0.930 . S
C3312 C3311 1.400 . S
C3312 C3315 1.386 . S
H3313 C3329 0.930 . S
H3314 C3330 0.931 . S
C3315 H3303 0.929 . S
C3315 C3309 1.390 . S
C3315 C3312 1.386 . S
C3316 C3311 1.490 . S
C3316 C3318 1.395 . S
C3316 C3319 1.403 . S
H3317 C3323 0.930 . S
C3318 H3304 0.930 . S
C3318 C3316 1.395 . S
C3318 C3321 1.403 . S
C3319 C3316 1.403 . S
C3319 C3320 1.524 . S
C3319 C3323 1.400 . S
C3320 H3305 0.960 . S
C3320 H3306 0.960 . S
C3320 H3307 0.960 . S
C3320 C3319 1.524 . S
C3321 C3318 1.403 . S
C3321 C3322 1.392 . S
C3321 C3325 1.495 . S
C3322 C3321 1.392 . S
C3322 C3323 1.385 . S
C3322 C3324 1.478 . S
C3323 H3317 0.930 . S
C3323 C3319 1.400 . S
C3323 C3322 1.385 . S
C3324 C3322 1.478 . S
C3324 C3326 1.381 . S
C3324 C3330 1.383 . S
C3325 C3321 1.495 . S
C3325 H3331 0.959 . S
C3325 H3332 0.961 . S
C3325 H3333 0.960 . S
C3326 C3324 1.381 . S
C3326 C3327 1.394 . S
C3326 H3334 0.930 . S
C3327 C3326 1.394 . S
C3327 C3328 1.383 . S
C3327 H3335 0.929 . S
C3328 C3327 1.383 . S
C3328 C3329 1.377 . S
C3329 H3313 0.930 . S
C3329 C3328 1.377 . S
C3329 C3330 1.379 . S
C3330 H3314 0.931 . S
C3330 C3324 1.383 . S
C3330 C3329 1.379 . S
H3331 C3325 0.959 . S
H3332 C3325 0.961 . S
H3333 C3325 0.960 . S
H3334 C3326 0.930 . S
H3335 C3327 0.929 . S
H3336 C3344 0.929 . S
H3337 C3346 0.930 . S
H3338 C3348 0.930 . S
H3339 C3351 0.929 . S
H3340 C3354 0.930 . S
H3341 C3356 0.960 . S
H3342 C3356 0.960 . S
H3343 C3356 0.960 . S
C3344 H3336 0.929 . S
C3344 C3345 1.377 . S
C3344 C3346 1.384 . S
C3345 C3344 1.377 . S
C3345 C3351 1.390 . S
C3346 H3337 0.930 . S
C3346 C3344 1.384 . S
C3346 C3347 1.372 . S
C3347 C3346 1.372 . S
C3347 C3348 1.400 . S
C3347 C3352 1.490 . S
C3348 H3338 0.930 . S
C3348 C3347 1.400 . S
C3348 C3351 1.386 . S
H3349 C3365 0.930 . S
H3350 C3366 0.931 . S
C3351 H3339 0.929 . S
C3351 C3345 1.390 . S
C3351 C3348 1.386 . S
C3352 C3347 1.490 . S
C3352 C3354 1.395 . S
C3352 C3355 1.403 . S
H3353 C3359 0.930 . S
C3354 H3340 0.930 . S
C3354 C3352 1.395 . S
C3354 C3357 1.403 . S
C3355 C3352 1.403 . S
C3355 C3356 1.524 . S
C3355 C3359 1.400 . S
C3356 H3341 0.960 . S
C3356 H3342 0.960 . S
C3356 H3343 0.960 . S
C3356 C3355 1.524 . S
C3357 C3354 1.403 . S
C3357 C3358 1.392 . S
C3357 C3361 1.495 . S
C3358 C3357 1.392 . S
C3358 C3359 1.385 . S
C3358 C3360 1.478 . S
C3359 H3353 0.930 . S
C3359 C3355 1.400 . S
C3359 C3358 1.385 . S
C3360 C3358 1.478 . S
C3360 C3362 1.381 . S
C3360 C3366 1.383 . S
C3361 C3357 1.495 . S
C3361 H3367 0.959 . S
C3361 H3368 0.961 . S
C3361 H3369 0.960 . S
C3362 C3360 1.381 . S
C3362 C3363 1.394 . S
C3362 H3370 0.930 . S
C3363 C3362 1.394 . S
C3363 C3364 1.383 . S
C3363 H3371 0.929 . S
C3364 C3363 1.383 . S
C3364 C3365 1.377 . S
C3365 H3349 0.930 . S
C3365 C3364 1.377 . S
C3365 C3366 1.379 . S
C3366 H3350 0.931 . S
C3366 C3360 1.383 . S
C3366 C3365 1.379 . S
H3367 C3361 0.959 . S
H3368 C3361 0.961 . S
H3369 C3361 0.960 . S
H3370 C3362 0.930 . S
H3371 C3363 0.929 . S
H3372 C3380 0.929 . S
H3373 C3382 0.930 . S
H3374 C3384 0.930 . S
H3375 C3387 0.929 . S
H3376 C3390 0.930 . S
H3377 C3392 0.960 . S
H3378 C3392 0.960 . S
H3379 C3392 0.960 . S
C3380 H3372 0.929 . S
C3380 C3381 1.377 . S
C3380 C3382 1.384 . S
C3381 C3380 1.377 . S
C3381 C3387 1.390 . S
C3382 H3373 0.930 . S
C3382 C3380 1.384 . S
C3382 C3383 1.372 . S
C3383 C3382 1.372 . S
C3383 C3384 1.400 . S
C3383 C3388 1.490 . S
C3384 H3374 0.930 . S
C3384 C3383 1.400 . S
C3384 C3387 1.386 . S
H3385 C3401 0.930 . S
H3386 C3402 0.931 . S
C3387 H3375 0.929 . S
C3387 C3381 1.390 . S
C3387 C3384 1.386 . S
C3388 C3383 1.490 . S
C3388 C3390 1.395 . S
C3388 C3391 1.403 . S
H3389 C3395 0.930 . S
C3390 H3376 0.930 . S
C3390 C3388 1.395 . S
C3390 C3393 1.403 . S
C3391 C3388 1.403 . S
C3391 C3392 1.524 . S
C3391 C3395 1.400 . S
C3392 H3377 0.960 . S
C3392 H3378 0.960 . S
C3392 H3379 0.960 . S
C3392 C3391 1.524 . S
C3393 C3390 1.403 . S
C3393 C3394 1.392 . S
C3393 C3397 1.495 . S
C3394 C3393 1.392 . S
C3394 C3395 1.385 . S
C3394 C3396 1.478 . S
C3395 H3389 0.930 . S
C3395 C3391 1.400 . S
C3395 C3394 1.385 . S
C3396 C3394 1.478 . S
C3396 C3398 1.381 . S
C3396 C3402 1.383 . S
C3397 C3393 1.495 . S
C3397 H3403 0.959 . S
C3397 H3404 0.961 . S
C3397 H3405 0.960 . S
C3398 C3396 1.381 . S
C3398 C3399 1.394 . S
C3398 H3406 0.930 . S
C3399 C3398 1.394 . S
C3399 C3400 1.383 . S
C3399 H3407 0.929 . S
C3400 C3399 1.383 . S
C3400 C3401 1.377 . S
C3401 H3385 0.930 . S
C3401 C3400 1.377 . S
C3401 C3402 1.379 . S
C3402 H3386 0.931 . S
C3402 C3396 1.383 . S
C3402 C3401 1.379 . S
H3403 C3397 0.959 . S
H3404 C3397 0.961 . S
H3405 C3397 0.960 . S
H3406 C3398 0.930 . S
H3407 C3399 0.929 . S
H3408 C3416 0.929 . S
H3409 C3418 0.930 . S
H3410 C3420 0.930 . S
H3411 C3423 0.929 . S
H3412 C3426 0.930 . S
H3413 C3428 0.960 . S
H3414 C3428 0.960 . S
H3415 C3428 0.960 . S
C3416 H3408 0.929 . S
C3416 C3417 1.377 . S
C3416 C3418 1.384 . S
C3417 C3416 1.377 . S
C3417 C3423 1.390 . S
C3418 H3409 0.930 . S
C3418 C3416 1.384 . S
C3418 C3419 1.372 . S
C3419 C3418 1.372 . S
C3419 C3420 1.400 . S
C3419 C3424 1.490 . S
C3420 H3410 0.930 . S
C3420 C3419 1.400 . S
C3420 C3423 1.386 . S
H3421 C3437 0.930 . S
H3422 C3438 0.931 . S
C3423 H3411 0.929 . S
C3423 C3417 1.390 . S
C3423 C3420 1.386 . S
C3424 C3419 1.490 . S
C3424 C3426 1.395 . S
C3424 C3427 1.403 . S
H3425 C3431 0.930 . S
C3426 H3412 0.930 . S
C3426 C3424 1.395 . S
C3426 C3429 1.403 . S
C3427 C3424 1.403 . S
C3427 C3428 1.524 . S
C3427 C3431 1.400 . S
C3428 H3413 0.960 . S
C3428 H3414 0.960 . S
C3428 H3415 0.960 . S
C3428 C3427 1.524 . S
C3429 C3426 1.403 . S
C3429 C3430 1.392 . S
C3429 C3433 1.495 . S
C3430 C3429 1.392 . S
C3430 C3431 1.385 . S
C3430 C3432 1.478 . S
C3431 H3425 0.930 . S
C3431 C3427 1.400 . S
C3431 C3430 1.385 . S
C3432 C3430 1.478 . S
C3432 C3434 1.381 . S
C3432 C3438 1.383 . S
C3433 C3429 1.495 . S
C3433 H3439 0.959 . S
C3433 H3440 0.961 . S
C3433 H3441 0.960 . S
C3434 C3432 1.381 . S
C3434 C3435 1.394 . S
C3434 H3442 0.930 . S
C3435 C3434 1.394 . S
C3435 C3436 1.383 . S
C3435 H3443 0.929 . S
C3436 C3435 1.383 . S
C3436 C3437 1.377 . S
C3437 H3421 0.930 . S
C3437 C3436 1.377 . S
C3437 C3438 1.379 . S
C3438 H3422 0.931 . S
C3438 C3432 1.383 . S
C3438 C3437 1.379 . S
H3439 C3433 0.959 . S
H3440 C3433 0.961 . S
H3441 C3433 0.960 . S
H3442 C3434 0.930 . S
H3443 C3435 0.929 . S
H3444 C3452 0.929 . S
H3445 C3454 0.930 . S
H3446 C3456 0.930 . S
H3447 C3459 0.929 . S
H3448 C3462 0.930 . S
H3449 C3464 0.960 . S
H3450 C3464 0.960 . S
H3451 C3464 0.960 . S
C3452 H3444 0.929 . S
C3452 C3453 1.377 . S
C3452 C3454 1.384 . S
C3453 C3452 1.377 . S
C3453 C3459 1.390 . S
C3454 H3445 0.930 . S
C3454 C3452 1.384 . S
C3454 C3455 1.372 . S
C3455 C3454 1.372 . S
C3455 C3456 1.400 . S
C3455 C3460 1.490 . S
C3456 H3446 0.930 . S
C3456 C3455 1.400 . S
C3456 C3459 1.386 . S
H3457 C3473 0.930 . S
H3458 C3474 0.931 . S
C3459 H3447 0.929 . S
C3459 C3453 1.390 . S
C3459 C3456 1.386 . S
C3460 C3455 1.490 . S
C3460 C3462 1.395 . S
C3460 C3463 1.403 . S
H3461 C3467 0.930 . S
C3462 H3448 0.930 . S
C3462 C3460 1.395 . S
C3462 C3465 1.403 . S
C3463 C3460 1.403 . S
C3463 C3464 1.524 . S
C3463 C3467 1.400 . S
C3464 H3449 0.960 . S
C3464 H3450 0.960 . S
C3464 H3451 0.960 . S
C3464 C3463 1.524 . S
C3465 C3462 1.403 . S
C3465 C3466 1.392 . S
C3465 C3469 1.495 . S
C3466 C3465 1.392 . S
C3466 C3467 1.385 . S
C3466 C3468 1.478 . S
C3467 H3461 0.930 . S
C3467 C3463 1.400 . S
C3467 C3466 1.385 . S
C3468 C3466 1.478 . S
C3468 C3470 1.381 . S
C3468 C3474 1.383 . S
C3469 C3465 1.495 . S
C3469 H3475 0.959 . S
C3469 H3476 0.961 . S
C3469 H3477 0.960 . S
C3470 C3468 1.381 . S
C3470 C3471 1.394 . S
C3470 H3478 0.930 . S
C3471 C3470 1.394 . S
C3471 C3472 1.383 . S
C3471 H3479 0.929 . S
C3472 C3471 1.383 . S
C3472 C3473 1.377 . S
C3473 H3457 0.930 . S
C3473 C3472 1.377 . S
C3473 C3474 1.379 . S
C3474 H3458 0.931 . S
C3474 C3468 1.383 . S
C3474 C3473 1.379 . S
H3475 C3469 0.959 . S
H3476 C3469 0.961 . S
H3477 C3469 0.960 . S
H3478 C3470 0.930 . S
H3479 C3471 0.929 . S
H3480 C3488 0.929 . S
H3481 C3490 0.930 . S
H3482 C3492 0.930 . S
H3483 C3495 0.929 . S
H3484 C3498 0.930 . S
H3485 C3500 0.960 . S
H3486 C3500 0.960 . S
H3487 C3500 0.960 . S
C3488 H3480 0.929 . S
C3488 C3489 1.377 . S
C3488 C3490 1.384 . S
C3489 C3488 1.377 . S
C3489 C3495 1.390 . S
C3490 H3481 0.930 . S
C3490 C3488 1.384 . S
C3490 C3491 1.372 . S
C3491 C3490 1.372 . S
C3491 C3492 1.400 . S
C3491 C3496 1.490 . S
C3492 H3482 0.930 . S
C3492 C3491 1.400 . S
C3492 C3495 1.386 . S
H3493 C3509 0.930 . S
H3494 C3510 0.931 . S
C3495 H3483 0.929 . S
C3495 C3489 1.390 . S
C3495 C3492 1.386 . S
C3496 C3491 1.490 . S
C3496 C3498 1.395 . S
C3496 C3499 1.403 . S
H3497 C3503 0.930 . S
C3498 H3484 0.930 . S
C3498 C3496 1.395 . S
C3498 C3501 1.403 . S
C3499 C3496 1.403 . S
C3499 C3500 1.524 . S
C3499 C3503 1.400 . S
C3500 H3485 0.960 . S
C3500 H3486 0.960 . S
C3500 H3487 0.960 . S
C3500 C3499 1.524 . S
C3501 C3498 1.403 . S
C3501 C3502 1.392 . S
C3501 C3505 1.495 . S
C3502 C3501 1.392 . S
C3502 C3503 1.385 . S
C3502 C3504 1.478 . S
C3503 H3497 0.930 . S
C3503 C3499 1.400 . S
C3503 C3502 1.385 . S
C3504 C3502 1.478 . S
C3504 C3506 1.381 . S
C3504 C3510 1.383 . S
C3505 C3501 1.495 . S
C3505 H3511 0.959 . S
C3505 H3512 0.961 . S
C3505 H3513 0.960 . S
C3506 C3504 1.381 . S
C3506 C3507 1.394 . S
C3506 H3514 0.930 . S
C3507 C3506 1.394 . S
C3507 C3508 1.383 . S
C3507 H3515 0.929 . S
C3508 C3507 1.383 . S
C3508 C3509 1.377 . S
C3509 H3493 0.930 . S
C3509 C3508 1.377 . S
C3509 C3510 1.379 . S
C3510 H3494 0.931 . S
C3510 C3504 1.383 . S
C3510 C3509 1.379 . S
H3511 C3505 0.959 . S
H3512 C3505 0.961 . S
H3513 C3505 0.960 . S
H3514 C3506 0.930 . S
H3515 C3507 0.929 . S
H3516 C3524 0.929 . S
H3517 C3526 0.930 . S
H3518 C3528 0.930 . S
H3519 C3531 0.929 . S
H3520 C3534 0.930 . S
H3521 C3536 0.960 . S
H3522 C3536 0.960 . S
H3523 C3536 0.960 . S
C3524 H3516 0.929 . S
C3524 C3525 1.377 . S
C3524 C3526 1.384 . S
C3525 C3524 1.377 . S
C3525 C3531 1.390 . S
C3526 H3517 0.930 . S
C3526 C3524 1.384 . S
C3526 C3527 1.372 . S
C3527 C3526 1.372 . S
C3527 C3528 1.400 . S
C3527 C3532 1.490 . S
C3528 H3518 0.930 . S
C3528 C3527 1.400 . S
C3528 C3531 1.386 . S
H3529 C3545 0.930 . S
H3530 C3546 0.931 . S
C3531 H3519 0.929 . S
C3531 C3525 1.390 . S
C3531 C3528 1.386 . S
C3532 C3527 1.490 . S
C3532 C3534 1.395 . S
C3532 C3535 1.403 . S
H3533 C3539 0.930 . S
C3534 H3520 0.930 . S
C3534 C3532 1.395 . S
C3534 C3537 1.403 . S
C3535 C3532 1.403 . S
C3535 C3536 1.524 . S
C3535 C3539 1.400 . S
C3536 H3521 0.960 . S
C3536 H3522 0.960 . S
C3536 H3523 0.960 . S
C3536 C3535 1.524 . S
C3537 C3534 1.403 . S
C3537 C3538 1.392 . S
C3537 C3541 1.495 . S
C3538 C3537 1.392 . S
C3538 C3539 1.385 . S
C3538 C3540 1.478 . S
C3539 H3533 0.930 . S
C3539 C3535 1.400 . S
C3539 C3538 1.385 . S
C3540 C3538 1.478 . S
C3540 C3542 1.381 . S
C3540 C3546 1.383 . S
C3541 C3537 1.495 . S
C3541 H3547 0.959 . S
C3541 H3548 0.961 . S
C3541 H3549 0.960 . S
C3542 C3540 1.381 . S
C3542 C3543 1.394 . S
C3542 H3550 0.930 . S
C3543 C3542 1.394 . S
C3543 C3544 1.383 . S
C3543 H3551 0.929 . S
C3544 C3543 1.383 . S
C3544 C3545 1.377 . S
C3545 H3529 0.930 . S
C3545 C3544 1.377 . S
C3545 C3546 1.379 . S
C3546 H3530 0.931 . S
C3546 C3540 1.383 . S
C3546 C3545 1.379 . S
H3547 C3541 0.959 . S
H3548 C3541 0.961 . S
H3549 C3541 0.960 . S
H3550 C3542 0.930 . S
H3551 C3543 0.929 . S
H3552 C3560 0.929 . S
H3553 C3562 0.930 . S
H3554 C3564 0.930 . S
H3555 C3567 0.929 . S
H3556 C3570 0.930 . S
H3557 C3572 0.960 . S
H3558 C3572 0.960 . S
H3559 C3572 0.960 . S
C3560 H3552 0.929 . S
C3560 C3561 1.377 . S
C3560 C3562 1.384 . S
C3561 C3560 1.377 . S
C3561 C3567 1.390 . S
C3562 H3553 0.930 . S
C3562 C3560 1.384 . S
C3562 C3563 1.372 . S
C3563 C3562 1.372 . S
C3563 C3564 1.400 . S
C3563 C3568 1.490 . S
C3564 H3554 0.930 . S
C3564 C3563 1.400 . S
C3564 C3567 1.386 . S
H3565 C3581 0.930 . S
H3566 C3582 0.931 . S
C3567 H3555 0.929 . S
C3567 C3561 1.390 . S
C3567 C3564 1.386 . S
C3568 C3563 1.490 . S
C3568 C3570 1.395 . S
C3568 C3571 1.403 . S
H3569 C3575 0.930 . S
C3570 H3556 0.930 . S
C3570 C3568 1.395 . S
C3570 C3573 1.403 . S
C3571 C3568 1.403 . S
C3571 C3572 1.524 . S
C3571 C3575 1.400 . S
C3572 H3557 0.960 . S
C3572 H3558 0.960 . S
C3572 H3559 0.960 . S
C3572 C3571 1.524 . S
C3573 C3570 1.403 . S
C3573 C3574 1.392 . S
C3573 C3577 1.495 . S
C3574 C3573 1.392 . S
C3574 C3575 1.385 . S
C3574 C3576 1.478 . S
C3575 H3569 0.930 . S
C3575 C3571 1.400 . S
C3575 C3574 1.385 . S
C3576 C3574 1.478 . S
C3576 C3578 1.381 . S
C3576 C3582 1.383 . S
C3577 C3573 1.495 . S
C3577 H3583 0.959 . S
C3577 H3584 0.961 . S
C3577 H3585 0.960 . S
C3578 C3576 1.381 . S
C3578 C3579 1.394 . S
C3578 H3586 0.930 . S
C3579 C3578 1.394 . S
C3579 C3580 1.383 . S
C3579 H3587 0.929 . S
C3580 C3579 1.383 . S
C3580 C3581 1.377 . S
C3581 H3565 0.930 . S
C3581 C3580 1.377 . S
C3581 C3582 1.379 . S
C3582 H3566 0.931 . S
C3582 C3576 1.383 . S
C3582 C3581 1.379 . S
H3583 C3577 0.959 . S
H3584 C3577 0.961 . S
H3585 C3577 0.960 . S
H3586 C3578 0.930 . S
H3587 C3579 0.929 . S
H3588 C3596 0.929 . S
H3589 C3598 0.930 . S
H3590 C3600 0.930 . S
H3591 C3603 0.929 . S
H3592 C3606 0.930 . S
H3593 C3608 0.960 . S
H3594 C3608 0.960 . S
H3595 C3608 0.960 . S
C3596 H3588 0.929 . S
C3596 C3597 1.377 . S
C3596 C3598 1.384 . S
C3597 C3596 1.377 . S
C3597 C3603 1.390 . S
C3598 H3589 0.930 . S
C3598 C3596 1.384 . S
C3598 C3599 1.372 . S
C3599 C3598 1.372 . S
C3599 C3600 1.400 . S
C3599 C3604 1.490 . S
C3600 H3590 0.930 . S
C3600 C3599 1.400 . S
C3600 C3603 1.386 . S
H3601 C3617 0.930 . S
H3602 C3618 0.931 . S
C3603 H3591 0.929 . S
C3603 C3597 1.390 . S
C3603 C3600 1.386 . S
C3604 C3599 1.490 . S
C3604 C3606 1.395 . S
C3604 C3607 1.403 . S
H3605 C3611 0.930 . S
C3606 H3592 0.930 . S
C3606 C3604 1.395 . S
C3606 C3609 1.403 . S
C3607 C3604 1.403 . S
C3607 C3608 1.524 . S
C3607 C3611 1.400 . S
C3608 H3593 0.960 . S
C3608 H3594 0.960 . S
C3608 H3595 0.960 . S
C3608 C3607 1.524 . S
C3609 C3606 1.403 . S
C3609 C3610 1.392 . S
C3609 C3613 1.495 . S
C3610 C3609 1.392 . S
C3610 C3611 1.385 . S
C3610 C3612 1.478 . S
C3611 H3605 0.930 . S
C3611 C3607 1.400 . S
C3611 C3610 1.385 . S
C3612 C3610 1.478 . S
C3612 C3614 1.381 . S
C3612 C3618 1.383 . S
C3613 C3609 1.495 . S
C3613 H3619 0.959 . S
C3613 H3620 0.961 . S
C3613 H3621 0.960 . S
C3614 C3612 1.381 . S
C3614 C3615 1.394 . S
C3614 H3622 0.930 . S
C3615 C3614 1.394 . S
C3615 C3616 1.383 . S
C3615 H3623 0.929 . S
C3616 C3615 1.383 . S
C3616 C3617 1.377 . S
C3617 H3601 0.930 . S
C3617 C3616 1.377 . S
C3617 C3618 1.379 . S
C3618 H3602 0.931 . S
C3618 C3612 1.383 . S
C3618 C3617 1.379 . S
H3619 C3613 0.959 . S
H3620 C3613 0.961 . S
H3621 C3613 0.960 . S
H3622 C3614 0.930 . S
H3623 C3615 0.929 . S
H3624 C3632 0.929 . S
H3625 C3634 0.930 . S
H3626 C3636 0.930 . S
H3627 C3639 0.929 . S
H3628 C3642 0.930 . S
H3629 C3644 0.960 . S
H3630 C3644 0.960 . S
H3631 C3644 0.960 . S
C3632 H3624 0.929 . S
C3632 C3633 1.377 . S
C3632 C3634 1.384 . S
C3633 C3632 1.377 . S
C3633 C3639 1.390 . S
C3634 H3625 0.930 . S
C3634 C3632 1.384 . S
C3634 C3635 1.372 . S
C3635 C3634 1.372 . S
C3635 C3636 1.400 . S
C3635 C3640 1.490 . S
C3636 H3626 0.930 . S
C3636 C3635 1.400 . S
C3636 C3639 1.386 . S
H3637 C3653 0.930 . S
H3638 C3654 0.931 . S
C3639 H3627 0.929 . S
C3639 C3633 1.390 . S
C3639 C3636 1.386 . S
C3640 C3635 1.490 . S
C3640 C3642 1.395 . S
C3640 C3643 1.403 . S
H3641 C3647 0.930 . S
C3642 H3628 0.930 . S
C3642 C3640 1.395 . S
C3642 C3645 1.403 . S
C3643 C3640 1.403 . S
C3643 C3644 1.524 . S
C3643 C3647 1.400 . S
C3644 H3629 0.960 . S
C3644 H3630 0.960 . S
C3644 H3631 0.960 . S
C3644 C3643 1.524 . S
C3645 C3642 1.403 . S
C3645 C3646 1.392 . S
C3645 C3649 1.495 . S
C3646 C3645 1.392 . S
C3646 C3647 1.385 . S
C3646 C3648 1.478 . S
C3647 H3641 0.930 . S
C3647 C3643 1.400 . S
C3647 C3646 1.385 . S
C3648 C3646 1.478 . S
C3648 C3650 1.381 . S
C3648 C3654 1.383 . S
C3649 C3645 1.495 . S
C3649 H3655 0.959 . S
C3649 H3656 0.961 . S
C3649 H3657 0.960 . S
C3650 C3648 1.381 . S
C3650 C3651 1.394 . S
C3650 H3658 0.930 . S
C3651 C3650 1.394 . S
C3651 C3652 1.383 . S
C3651 H3659 0.929 . S
C3652 C3651 1.383 . S
C3652 C3653 1.377 . S
C3653 H3637 0.930 . S
C3653 C3652 1.377 . S
C3653 C3654 1.379 . S
C3654 H3638 0.931 . S
C3654 C3648 1.383 . S
C3654 C3653 1.379 . S
H3655 C3649 0.959 . S
H3656 C3649 0.961 . S
H3657 C3649 0.960 . S
H3658 C3650 0.930 . S
H3659 C3651 0.929 . S
H3660 C3668 0.929 . S
H3661 C3670 0.930 . S
H3662 C3672 0.930 . S
H3663 C3675 0.929 . S
H3664 C3678 0.930 . S
H3665 C3680 0.960 . S
H3666 C3680 0.960 . S
H3667 C3680 0.960 . S
C3668 H3660 0.929 . S
C3668 C3669 1.377 . S
C3668 C3670 1.384 . S
C3669 C3668 1.377 . S
C3669 C3675 1.390 . S
C3670 H3661 0.930 . S
C3670 C3668 1.384 . S
C3670 C3671 1.372 . S
C3671 C3670 1.372 . S
C3671 C3672 1.400 . S
C3671 C3676 1.490 . S
C3672 H3662 0.930 . S
C3672 C3671 1.400 . S
C3672 C3675 1.386 . S
H3673 C3689 0.930 . S
H3674 C3690 0.931 . S
C3675 H3663 0.929 . S
C3675 C3669 1.390 . S
C3675 C3672 1.386 . S
C3676 C3671 1.490 . S
C3676 C3678 1.395 . S
C3676 C3679 1.403 . S
H3677 C3683 0.930 . S
C3678 H3664 0.930 . S
C3678 C3676 1.395 . S
C3678 C3681 1.403 . S
C3679 C3676 1.403 . S
C3679 C3680 1.524 . S
C3679 C3683 1.400 . S
C3680 H3665 0.960 . S
C3680 H3666 0.960 . S
C3680 H3667 0.960 . S
C3680 C3679 1.524 . S
C3681 C3678 1.403 . S
C3681 C3682 1.392 . S
C3681 C3685 1.495 . S
C3682 C3681 1.392 . S
C3682 C3683 1.385 . S
C3682 C3684 1.478 . S
C3683 H3677 0.930 . S
C3683 C3679 1.400 . S
C3683 C3682 1.385 . S
C3684 C3682 1.478 . S
C3684 C3686 1.381 . S
C3684 C3690 1.383 . S
C3685 C3681 1.495 . S
C3685 H3691 0.959 . S
C3685 H3692 0.961 . S
C3685 H3693 0.960 . S
C3686 C3684 1.381 . S
C3686 C3687 1.394 . S
C3686 H3694 0.930 . S
C3687 C3686 1.394 . S
C3687 C3688 1.383 . S
C3687 H3695 0.929 . S
C3688 C3687 1.383 . S
C3688 C3689 1.377 . S
C3689 H3673 0.930 . S
C3689 C3688 1.377 . S
C3689 C3690 1.379 . S
C3690 H3674 0.931 . S
C3690 C3684 1.383 . S
C3690 C3689 1.379 . S
H3691 C3685 0.959 . S
H3692 C3685 0.961 . S
H3693 C3685 0.960 . S
H3694 C3686 0.930 . S
H3695 C3687 0.929 . S
H3696 C3704 0.929 . S
H3697 C3706 0.930 . S
H3698 C3708 0.930 . S
H3699 C3711 0.929 . S
H3700 C3714 0.930 . S
H3701 C3716 0.960 . S
H3702 C3716 0.960 . S
H3703 C3716 0.960 . S
C3704 H3696 0.929 . S
C3704 C3705 1.377 . S
C3704 C3706 1.384 . S
C3705 C3704 1.377 . S
C3705 C3711 1.390 . S
C3706 H3697 0.930 . S
C3706 C3704 1.384 . S
C3706 C3707 1.372 . S
C3707 C3706 1.372 . S
C3707 C3708 1.400 . S
C3707 C3712 1.490 . S
C3708 H3698 0.930 . S
C3708 C3707 1.400 . S
C3708 C3711 1.386 . S
H3709 C3725 0.930 . S
H3710 C3726 0.931 . S
C3711 H3699 0.929 . S
C3711 C3705 1.390 . S
C3711 C3708 1.386 . S
C3712 C3707 1.490 . S
C3712 C3714 1.395 . S
C3712 C3715 1.403 . S
H3713 C3719 0.930 . S
C3714 H3700 0.930 . S
C3714 C3712 1.395 . S
C3714 C3717 1.403 . S
C3715 C3712 1.403 . S
C3715 C3716 1.524 . S
C3715 C3719 1.400 . S
C3716 H3701 0.960 . S
C3716 H3702 0.960 . S
C3716 H3703 0.960 . S
C3716 C3715 1.524 . S
C3717 C3714 1.403 . S
C3717 C3718 1.392 . S
C3717 C3721 1.495 . S
C3718 C3717 1.392 . S
C3718 C3719 1.385 . S
C3718 C3720 1.478 . S
C3719 H3713 0.930 . S
C3719 C3715 1.400 . S
C3719 C3718 1.385 . S
C3720 C3718 1.478 . S
C3720 C3722 1.381 . S
C3720 C3726 1.383 . S
C3721 C3717 1.495 . S
C3721 H3727 0.959 . S
C3721 H3728 0.961 . S
C3721 H3729 0.960 . S
C3722 C3720 1.381 . S
C3722 C3723 1.394 . S
C3722 H3730 0.930 . S
C3723 C3722 1.394 . S
C3723 C3724 1.383 . S
C3723 H3731 0.929 . S
C3724 C3723 1.383 . S
C3724 C3725 1.377 . S
C3725 H3709 0.930 . S
C3725 C3724 1.377 . S
C3725 C3726 1.379 . S
C3726 H3710 0.931 . S
C3726 C3720 1.383 . S
C3726 C3725 1.379 . S
H3727 C3721 0.959 . S
H3728 C3721 0.961 . S
H3729 C3721 0.960 . S
H3730 C3722 0.930 . S
H3731 C3723 0.929 . S
H3732 C3740 0.929 . S
H3733 C3742 0.930 . S
H3734 C3744 0.930 . S
H3735 C3747 0.929 . S
H3736 C3750 0.930 . S
H3737 C3752 0.960 . S
H3738 C3752 0.960 . S
H3739 C3752 0.960 . S
C3740 H3732 0.929 . S
C3740 C3741 1.377 . S
C3740 C3742 1.384 . S
C3741 C3740 1.377 . S
C3741 C3747 1.390 . S
C3742 H3733 0.930 . S
C3742 C3740 1.384 . S
C3742 C3743 1.372 . S
C3743 C3742 1.372 . S
C3743 C3744 1.400 . S
C3743 C3748 1.490 . S
C3744 H3734 0.930 . S
C3744 C3743 1.400 . S
C3744 C3747 1.386 . S
H3745 C3761 0.930 . S
H3746 C3762 0.931 . S
C3747 H3735 0.929 . S
C3747 C3741 1.390 . S
C3747 C3744 1.386 . S
C3748 C3743 1.490 . S
C3748 C3750 1.395 . S
C3748 C3751 1.403 . S
H3749 C3755 0.930 . S
C3750 H3736 0.930 . S
C3750 C3748 1.395 . S
C3750 C3753 1.403 . S
C3751 C3748 1.403 . S
C3751 C3752 1.524 . S
C3751 C3755 1.400 . S
C3752 H3737 0.960 . S
C3752 H3738 0.960 . S
C3752 H3739 0.960 . S
C3752 C3751 1.524 . S
C3753 C3750 1.403 . S
C3753 C3754 1.392 . S
C3753 C3757 1.495 . S
C3754 C3753 1.392 . S
C3754 C3755 1.385 . S
C3754 C3756 1.478 . S
C3755 H3749 0.930 . S
C3755 C3751 1.400 . S
C3755 C3754 1.385 . S
C3756 C3754 1.478 . S
C3756 C3758 1.381 . S
C3756 C3762 1.383 . S
C3757 C3753 1.495 . S
C3757 H3763 0.959 . S
C3757 H3764 0.961 . S
C3757 H3765 0.960 . S
C3758 C3756 1.381 . S
C3758 C3759 1.394 . S
C3758 H3766 0.930 . S
C3759 C3758 1.394 . S
C3759 C3760 1.383 . S
C3759 H3767 0.929 . S
C3760 C3759 1.383 . S
C3760 C3761 1.377 . S
C3761 H3745 0.930 . S
C3761 C3760 1.377 . S
C3761 C3762 1.379 . S
C3762 H3746 0.931 . S
C3762 C3756 1.383 . S
C3762 C3761 1.379 . S
H3763 C3757 0.959 . S
H3764 C3757 0.961 . S
H3765 C3757 0.960 . S
H3766 C3758 0.930 . S
H3767 C3759 0.929 . S
H3768 C3776 0.929 . S
H3769 C3778 0.930 . S
H3770 C3780 0.930 . S
H3771 C3783 0.929 . S
H3772 C3786 0.930 . S
H3773 C3788 0.960 . S
H3774 C3788 0.960 . S
H3775 C3788 0.960 . S
C3776 H3768 0.929 . S
C3776 C3777 1.377 . S
C3776 C3778 1.384 . S
C3777 C3776 1.377 . S
C3777 C3783 1.390 . S
C3778 H3769 0.930 . S
C3778 C3776 1.384 . S
C3778 C3779 1.372 . S
C3779 C3778 1.372 . S
C3779 C3780 1.400 . S
C3779 C3784 1.490 . S
C3780 H3770 0.930 . S
C3780 C3779 1.400 . S
C3780 C3783 1.386 . S
H3781 C3797 0.930 . S
H3782 C3798 0.931 . S
C3783 H3771 0.929 . S
C3783 C3777 1.390 . S
C3783 C3780 1.386 . S
C3784 C3779 1.490 . S
C3784 C3786 1.395 . S
C3784 C3787 1.403 . S
H3785 C3791 0.930 . S
C3786 H3772 0.930 . S
C3786 C3784 1.395 . S
C3786 C3789 1.403 . S
C3787 C3784 1.403 . S
C3787 C3788 1.524 . S
C3787 C3791 1.400 . S
C3788 H3773 0.960 . S
C3788 H3774 0.960 . S
C3788 H3775 0.960 . S
C3788 C3787 1.524 . S
C3789 C3786 1.403 . S
C3789 C3790 1.392 . S
C3789 C3793 1.495 . S
C3790 C3789 1.392 . S
C3790 C3791 1.385 . S
C3790 C3792 1.478 . S
C3791 H3785 0.930 . S
C3791 C3787 1.400 . S
C3791 C3790 1.385 . S
C3792 C3790 1.478 . S
C3792 C3794 1.381 . S
C3792 C3798 1.383 . S
C3793 C3789 1.495 . S
C3793 H3799 0.959 . S
C3793 H3800 0.961 . S
C3793 H3801 0.960 . S
C3794 C3792 1.381 . S
C3794 C3795 1.394 . S
C3794 H3802 0.930 . S
C3795 C3794 1.394 . S
C3795 C3796 1.383 . S
C3795 H3803 0.929 . S
C3796 C3795 1.383 . S
C3796 C3797 1.377 . S
C3797 H3781 0.930 . S
C3797 C3796 1.377 . S
C3797 C3798 1.379 . S
C3798 H3782 0.931 . S
C3798 C3792 1.383 . S
C3798 C3797 1.379 . S
H3799 C3793 0.959 . S
H3800 C3793 0.961 . S
H3801 C3793 0.960 . S
H3802 C3794 0.930 . S
H3803 C3795 0.929 . S
H3804 C3812 0.929 . S
H3805 C3814 0.930 . S
H3806 C3816 0.930 . S
H3807 C3819 0.929 . S
H3808 C3822 0.930 . S
H3809 C3824 0.960 . S
H3810 C3824 0.960 . S
H3811 C3824 0.960 . S
C3812 H3804 0.929 . S
C3812 C3813 1.377 . S
C3812 C3814 1.384 . S
C3813 C3812 1.377 . S
C3813 C3819 1.390 . S
C3814 H3805 0.930 . S
C3814 C3812 1.384 . S
C3814 C3815 1.372 . S
C3815 C3814 1.372 . S
C3815 C3816 1.400 . S
C3815 C3820 1.490 . S
C3816 H3806 0.930 . S
C3816 C3815 1.400 . S
C3816 C3819 1.386 . S
H3817 C3833 0.930 . S
H3818 C3834 0.931 . S
C3819 H3807 0.929 . S
C3819 C3813 1.390 . S
C3819 C3816 1.386 . S
C3820 C3815 1.490 . S
C3820 C3822 1.395 . S
C3820 C3823 1.403 . S
H3821 C3827 0.930 . S
C3822 H3808 0.930 . S
C3822 C3820 1.395 . S
C3822 C3825 1.403 . S
C3823 C3820 1.403 . S
C3823 C3824 1.524 . S
C3823 C3827 1.400 . S
C3824 H3809 0.960 . S
C3824 H3810 0.960 . S
C3824 H3811 0.960 . S
C3824 C3823 1.524 . S
C3825 C3822 1.403 . S
C3825 C3826 1.392 . S
C3825 C3829 1.495 . S
C3826 C3825 1.392 . S
C3826 C3827 1.385 . S
C3826 C3828 1.478 . S
C3827 H3821 0.930 . S
C3827 C3823 1.400 . S
C3827 C3826 1.385 . S
C3828 C3826 1.478 . S
C3828 C3830 1.381 . S
C3828 C3834 1.383 . S
C3829 C3825 1.495 . S
C3829 H3835 0.959 . S
C3829 H3836 0.961 . S
C3829 H3837 0.960 . S
C3830 C3828 1.381 . S
C3830 C3831 1.394 . S
C3830 H3838 0.930 . S
C3831 C3830 1.394 . S
C3831 C3832 1.383 . S
C3831 H3839 0.929 . S
C3832 C3831 1.383 . S
C3832 C3833 1.377 . S
C3833 H3817 0.930 . S
C3833 C3832 1.377 . S
C3833 C3834 1.379 . S
C3834 H3818 0.931 . S
C3834 C3828 1.383 . S
C3834 C3833 1.379 . S
H3835 C3829 0.959 . S
H3836 C3829 0.961 . S
H3837 C3829 0.960 . S
H3838 C3830 0.930 . S
H3839 C3831 0.929 . S
H3840 C3848 0.929 . S
H3841 C3850 0.930 . S
H3842 C3852 0.930 . S
H3843 C3855 0.929 . S
H3844 C3858 0.930 . S
H3845 C3860 0.960 . S
H3846 C3860 0.960 . S
H3847 C3860 0.960 . S
C3848 H3840 0.929 . S
C3848 C3849 1.377 . S
C3848 C3850 1.384 . S
C3849 C3848 1.377 . S
C3849 C3855 1.390 . S
C3850 H3841 0.930 . S
C3850 C3848 1.384 . S
C3850 C3851 1.372 . S
C3851 C3850 1.372 . S
C3851 C3852 1.400 . S
C3851 C3856 1.490 . S
C3852 H3842 0.930 . S
C3852 C3851 1.400 . S
C3852 C3855 1.386 . S
H3853 C3869 0.930 . S
H3854 C3870 0.931 . S
C3855 H3843 0.929 . S
C3855 C3849 1.390 . S
C3855 C3852 1.386 . S
C3856 C3851 1.490 . S
C3856 C3858 1.395 . S
C3856 C3859 1.403 . S
H3857 C3863 0.930 . S
C3858 H3844 0.930 . S
C3858 C3856 1.395 . S
C3858 C3861 1.403 . S
C3859 C3856 1.403 . S
C3859 C3860 1.524 . S
C3859 C3863 1.400 . S
C3860 H3845 0.960 . S
C3860 H3846 0.960 . S
C3860 H3847 0.960 . S
C3860 C3859 1.524 . S
C3861 C3858 1.403 . S
C3861 C3862 1.392 . S
C3861 C3865 1.495 . S
C3862 C3861 1.392 . S
C3862 C3863 1.385 . S
C3862 C3864 1.478 . S
C3863 H3857 0.930 . S
C3863 C3859 1.400 . S
C3863 C3862 1.385 . S
C3864 C3862 1.478 . S
C3864 C3866 1.381 . S
C3864 C3870 1.383 . S
C3865 C3861 1.495 . S
C3865 H3871 0.959 . S
C3865 H3872 0.961 . S
C3865 H3873 0.960 . S
C3866 C3864 1.381 . S
C3866 C3867 1.394 . S
C3866 H3874 0.930 . S
C3867 C3866 1.394 . S
C3867 C3868 1.383 . S
C3867 H3875 0.929 . S
C3868 C3867 1.383 . S
C3868 C3869 1.377 . S
C3869 H3853 0.930 . S
C3869 C3868 1.377 . S
C3869 C3870 1.379 . S
C3870 H3854 0.931 . S
C3870 C3864 1.383 . S
C3870 C3869 1.379 . S
H3871 C3865 0.959 . S
H3872 C3865 0.961 . S
H3873 C3865 0.960 . S
H3874 C3866 0.930 . S
H3875 C3867 0.929 . S
H3876 C3884 0.929 . S
H3877 C3886 0.930 . S
H3878 C3888 0.930 . S
H3879 C3891 0.929 . S
H3880 C3894 0.930 . S
H3881 C3896 0.960 . S
H3882 C3896 0.960 . S
H3883 C3896 0.960 . S
C3884 H3876 0.929 . S
C3884 C3885 1.377 . S
C3884 C3886 1.384 . S
C3885 C3884 1.377 . S
C3885 C3891 1.390 . S
C3886 H3877 0.930 . S
C3886 C3884 1.384 . S
C3886 C3887 1.372 . S
C3887 C3886 1.372 . S
C3887 C3888 1.400 . S
C3887 C3892 1.490 . S
C3888 H3878 0.930 . S
C3888 C3887 1.400 . S
C3888 C3891 1.386 . S
H3889 C3905 0.930 . S
H3890 C3906 0.931 . S
C3891 H3879 0.929 . S
C3891 C3885 1.390 . S
C3891 C3888 1.386 . S
C3892 C3887 1.490 . S
C3892 C3894 1.395 . S
C3892 C3895 1.403 . S
H3893 C3899 0.930 . S
C3894 H3880 0.930 . S
C3894 C3892 1.395 . S
C3894 C3897 1.403 . S
C3895 C3892 1.403 . S
C3895 C3896 1.524 . S
C3895 C3899 1.400 . S
C3896 H3881 0.960 . S
C3896 H3882 0.960 . S
C3896 H3883 0.960 . S
C3896 C3895 1.524 . S
C3897 C3894 1.403 . S
C3897 C3898 1.392 . S
C3897 C3901 1.495 . S
C3898 C3897 1.392 . S
C3898 C3899 1.385 . S
C3898 C3900 1.478 . S
C3899 H3893 0.930 . S
C3899 C3895 1.400 . S
C3899 C3898 1.385 . S
C3900 C3898 1.478 . S
C3900 C3902 1.381 . S
C3900 C3906 1.383 . S
C3901 C3897 1.495 . S
C3901 H3907 0.959 . S
C3901 H3908 0.961 . S
C3901 H3909 0.960 . S
C3902 C3900 1.381 . S
C3902 C3903 1.394 . S
C3902 H3910 0.930 . S
C3903 C3902 1.394 . S
C3903 C3904 1.383 . S
C3903 H3911 0.929 . S
C3904 C3903 1.383 . S
C3904 C3905 1.377 . S
C3905 H3889 0.930 . S
C3905 C3904 1.377 . S
C3905 C3906 1.379 . S
C3906 H3890 0.931 . S
C3906 C3900 1.383 . S
C3906 C3905 1.379 . S
H3907 C3901 0.959 . S
H3908 C3901 0.961 . S
H3909 C3901 0.960 . S
H3910 C3902 0.930 . S
H3911 C3903 0.929 . S
H3912 C3920 0.929 . S
H3913 C3922 0.930 . S
H3914 C3924 0.930 . S
H3915 C3927 0.929 . S
H3916 C3930 0.930 . S
H3917 C3932 0.960 . S
H3918 C3932 0.960 . S
H3919 C3932 0.960 . S
C3920 H3912 0.929 . S
C3920 C3921 1.377 . S
C3920 C3922 1.384 . S
C3921 C3920 1.377 . S
C3921 C3927 1.390 . S
C3922 H3913 0.930 . S
C3922 C3920 1.384 . S
C3922 C3923 1.372 . S
C3923 C3922 1.372 . S
C3923 C3924 1.400 . S
C3923 C3928 1.490 . S
C3924 H3914 0.930 . S
C3924 C3923 1.400 . S
C3924 C3927 1.386 . S
H3925 C3941 0.930 . S
H3926 C3942 0.931 . S
C3927 H3915 0.929 . S
C3927 C3921 1.390 . S
C3927 C3924 1.386 . S
C3928 C3923 1.490 . S
C3928 C3930 1.395 . S
C3928 C3931 1.403 . S
H3929 C3935 0.930 . S
C3930 H3916 0.930 . S
C3930 C3928 1.395 . S
C3930 C3933 1.403 . S
C3931 C3928 1.403 . S
C3931 C3932 1.524 . S
C3931 C3935 1.400 . S
C3932 H3917 0.960 . S
C3932 H3918 0.960 . S
C3932 H3919 0.960 . S
C3932 C3931 1.524 . S
C3933 C3930 1.403 . S
C3933 C3934 1.392 . S
C3933 C3937 1.495 . S
C3934 C3933 1.392 . S
C3934 C3935 1.385 . S
C3934 C3936 1.478 . S
C3935 H3929 0.930 . S
C3935 C3931 1.400 . S
C3935 C3934 1.385 . S
C3936 C3934 1.478 . S
C3936 C3938 1.381 . S
C3936 C3942 1.383 . S
C3937 C3933 1.495 . S
C3937 H3943 0.959 . S
C3937 H3944 0.961 . S
C3937 H3945 0.960 . S
C3938 C3936 1.381 . S
C3938 C3939 1.394 . S
C3938 H3946 0.930 . S
C3939 C3938 1.394 . S
C3939 C3940 1.383 . S
C3939 H3947 0.929 . S
C3940 C3939 1.383 . S
C3940 C3941 1.377 . S
C3941 H3925 0.930 . S
C3941 C3940 1.377 . S
C3941 C3942 1.379 . S
C3942 H3926 0.931 . S
C3942 C3936 1.383 . S
C3942 C3941 1.379 . S
H3943 C3937 0.959 . S
H3944 C3937 0.961 . S
H3945 C3937 0.960 . S
H3946 C3938 0.930 . S
H3947 C3939 0.929 . S
H3948 C3956 0.929 . S
H3949 C3958 0.930 . S
H3950 C3960 0.930 . S
H3951 C3963 0.929 . S
H3952 C3966 0.930 . S
H3953 C3968 0.960 . S
H3954 C3968 0.960 . S
H3955 C3968 0.960 . S
C3956 H3948 0.929 . S
C3956 C3957 1.377 . S
C3956 C3958 1.384 . S
C3957 C3956 1.377 . S
C3957 C3963 1.390 . S
C3958 H3949 0.930 . S
C3958 C3956 1.384 . S
C3958 C3959 1.372 . S
C3959 C3958 1.372 . S
C3959 C3960 1.400 . S
C3959 C3964 1.490 . S
C3960 H3950 0.930 . S
C3960 C3959 1.400 . S
C3960 C3963 1.386 . S
H3961 C3977 0.930 . S
H3962 C3978 0.931 . S
C3963 H3951 0.929 . S
C3963 C3957 1.390 . S
C3963 C3960 1.386 . S
C3964 C3959 1.490 . S
C3964 C3966 1.395 . S
C3964 C3967 1.403 . S
H3965 C3971 0.930 . S
C3966 H3952 0.930 . S
C3966 C3964 1.395 . S
C3966 C3969 1.403 . S
C3967 C3964 1.403 . S
C3967 C3968 1.524 . S
C3967 C3971 1.400 . S
C3968 H3953 0.960 . S
C3968 H3954 0.960 . S
C3968 H3955 0.960 . S
C3968 C3967 1.524 . S
C3969 C3966 1.403 . S
C3969 C3970 1.392 . S
C3969 C3973 1.495 . S
C3970 C3969 1.392 . S
C3970 C3971 1.385 . S
C3970 C3972 1.478 . S
C3971 H3965 0.930 . S
C3971 C3967 1.400 . S
C3971 C3970 1.385 . S
C3972 C3970 1.478 . S
C3972 C3974 1.381 . S
C3972 C3978 1.383 . S
C3973 C3969 1.495 . S
C3973 H3979 0.959 . S
C3973 H3980 0.961 . S
C3973 H3981 0.960 . S
C3974 C3972 1.381 . S
C3974 C3975 1.394 . S
C3974 H3982 0.930 . S
C3975 C3974 1.394 . S
C3975 C3976 1.383 . S
C3975 H3983 0.929 . S
C3976 C3975 1.383 . S
C3976 C3977 1.377 . S
C3977 H3961 0.930 . S
C3977 C3976 1.377 . S
C3977 C3978 1.379 . S
C3978 H3962 0.931 . S
C3978 C3972 1.383 . S
C3978 C3977 1.379 . S
H3979 C3973 0.959 . S
H3980 C3973 0.961 . S
H3981 C3973 0.960 . S
H3982 C3974 0.930 . S
H3983 C3975 0.929 . S
H3984 C3992 0.929 . S
H3985 C3994 0.930 . S
H3986 C3996 0.930 . S
H3987 C3999 0.929 . S
H3988 C4002 0.930 . S
H3989 C4004 0.960 . S
H3990 C4004 0.960 . S
H3991 C4004 0.960 . S
C3992 H3984 0.929 . S
C3992 C3993 1.377 . S
C3992 C3994 1.384 . S
C3993 C3992 1.377 . S
C3993 C3999 1.390 . S
C3994 H3985 0.930 . S
C3994 C3992 1.384 . S
C3994 C3995 1.372 . S
C3995 C3994 1.372 . S
C3995 C3996 1.400 . S
C3995 C4000 1.490 . S
C3996 H3986 0.930 . S
C3996 C3995 1.400 . S
C3996 C3999 1.386 . S
H3997 C4013 0.930 . S
H3998 C4014 0.931 . S
C3999 H3987 0.929 . S
C3999 C3993 1.390 . S
C3999 C3996 1.386 . S
C4000 C3995 1.490 . S
C4000 C4002 1.395 . S
C4000 C4003 1.403 . S
H4001 C4007 0.930 . S
C4002 H3988 0.930 . S
C4002 C4000 1.395 . S
C4002 C4005 1.403 . S
C4003 C4000 1.403 . S
C4003 C4004 1.524 . S
C4003 C4007 1.400 . S
C4004 H3989 0.960 . S
C4004 H3990 0.960 . S
C4004 H3991 0.960 . S
C4004 C4003 1.524 . S
C4005 C4002 1.403 . S
C4005 C4006 1.392 . S
C4005 C4009 1.495 . S
C4006 C4005 1.392 . S
C4006 C4007 1.385 . S
C4006 C4008 1.478 . S
C4007 H4001 0.930 . S
C4007 C4003 1.400 . S
C4007 C4006 1.385 . S
C4008 C4006 1.478 . S
C4008 C4010 1.381 . S
C4008 C4014 1.383 . S
C4009 C4005 1.495 . S
C4009 H4015 0.959 . S
C4009 H4016 0.961 . S
C4009 H4017 0.960 . S
C4010 C4008 1.381 . S
C4010 C4011 1.394 . S
C4010 H4018 0.930 . S
C4011 C4010 1.394 . S
C4011 C4012 1.383 . S
C4011 H4019 0.929 . S
C4012 C4011 1.383 . S
C4012 C4013 1.377 . S
C4013 H3997 0.930 . S
C4013 C4012 1.377 . S
C4013 C4014 1.379 . S
C4014 H3998 0.931 . S
C4014 C4008 1.383 . S
C4014 C4013 1.379 . S
H4015 C4009 0.959 . S
H4016 C4009 0.961 . S
H4017 C4009 0.960 . S
H4018 C4010 0.930 . S
H4019 C4011 0.929 . S
H4020 C4028 0.929 . S
H4021 C4030 0.930 . S
H4022 C4032 0.930 . S
H4023 C4035 0.929 . S
H4024 C4038 0.930 . S
H4025 C4040 0.960 . S
H4026 C4040 0.960 . S
H4027 C4040 0.960 . S
C4028 H4020 0.929 . S
C4028 C4029 1.377 . S
C4028 C4030 1.384 . S
C4029 C4028 1.377 . S
C4029 C4035 1.390 . S
C4030 H4021 0.930 . S
C4030 C4028 1.384 . S
C4030 C4031 1.372 . S
C4031 C4030 1.372 . S
C4031 C4032 1.400 . S
C4031 C4036 1.490 . S
C4032 H4022 0.930 . S
C4032 C4031 1.400 . S
C4032 C4035 1.386 . S
H4033 C4049 0.930 . S
H4034 C4050 0.931 . S
C4035 H4023 0.929 . S
C4035 C4029 1.390 . S
C4035 C4032 1.386 . S
C4036 C4031 1.490 . S
C4036 C4038 1.395 . S
C4036 C4039 1.403 . S
H4037 C4043 0.930 . S
C4038 H4024 0.930 . S
C4038 C4036 1.395 . S
C4038 C4041 1.403 . S
C4039 C4036 1.403 . S
C4039 C4040 1.524 . S
C4039 C4043 1.400 . S
C4040 H4025 0.960 . S
C4040 H4026 0.960 . S
C4040 H4027 0.960 . S
C4040 C4039 1.524 . S
C4041 C4038 1.403 . S
C4041 C4042 1.392 . S
C4041 C4045 1.495 . S
C4042 C4041 1.392 . S
C4042 C4043 1.385 . S
C4042 C4044 1.478 . S
C4043 H4037 0.930 . S
C4043 C4039 1.400 . S
C4043 C4042 1.385 . S
C4044 C4042 1.478 . S
C4044 C4046 1.381 . S
C4044 C4050 1.383 . S
C4045 C4041 1.495 . S
C4045 H4051 0.959 . S
C4045 H4052 0.961 . S
C4045 H4053 0.960 . S
C4046 C4044 1.381 . S
C4046 C4047 1.394 . S
C4046 H4054 0.930 . S
C4047 C4046 1.394 . S
C4047 C4048 1.383 . S
C4047 H4055 0.929 . S
C4048 C4047 1.383 . S
C4048 C4049 1.377 . S
C4049 H4033 0.930 . S
C4049 C4048 1.377 . S
C4049 C4050 1.379 . S
C4050 H4034 0.931 . S
C4050 C4044 1.383 . S
C4050 C4049 1.379 . S
H4051 C4045 0.959 . S
H4052 C4045 0.961 . S
H4053 C4045 0.960 . S
H4054 C4046 0.930 . S
H4055 C4047 0.929 . S
H4056 C4064 0.929 . S
H4057 C4066 0.930 . S
H4058 C4068 0.930 . S
H4059 C4071 0.929 . S
H4060 C4074 0.930 . S
H4061 C4076 0.960 . S
H4062 C4076 0.960 . S
H4063 C4076 0.960 . S
C4064 H4056 0.929 . S
C4064 C4065 1.377 . S
C4064 C4066 1.384 . S
C4065 C4064 1.377 . S
C4065 C4071 1.390 . S
C4066 H4057 0.930 . S
C4066 C4064 1.384 . S
C4066 C4067 1.372 . S
C4067 C4066 1.372 . S
C4067 C4068 1.400 . S
C4067 C4072 1.490 . S
C4068 H4058 0.930 . S
C4068 C4067 1.400 . S
C4068 C4071 1.386 . S
H4069 C4085 0.930 . S
H4070 C4086 0.931 . S
C4071 H4059 0.929 . S
C4071 C4065 1.390 . S
C4071 C4068 1.386 . S
C4072 C4067 1.490 . S
C4072 C4074 1.395 . S
C4072 C4075 1.403 . S
H4073 C4079 0.930 . S
C4074 H4060 0.930 . S
C4074 C4072 1.395 . S
C4074 C4077 1.403 . S
C4075 C4072 1.403 . S
C4075 C4076 1.524 . S
C4075 C4079 1.400 . S
C4076 H4061 0.960 . S
C4076 H4062 0.960 . S
C4076 H4063 0.960 . S
C4076 C4075 1.524 . S
C4077 C4074 1.403 . S
C4077 C4078 1.392 . S
C4077 C4081 1.495 . S
C4078 C4077 1.392 . S
C4078 C4079 1.385 . S
C4078 C4080 1.478 . S
C4079 H4073 0.930 . S
C4079 C4075 1.400 . S
C4079 C4078 1.385 . S
C4080 C4078 1.478 . S
C4080 C4082 1.381 . S
C4080 C4086 1.383 . S
C4081 C4077 1.495 . S
C4081 H4087 0.959 . S
C4081 H4088 0.961 . S
C4081 H4089 0.960 . S
C4082 C4080 1.381 . S
C4082 C4083 1.394 . S
C4082 H4090 0.930 . S
C4083 C4082 1.394 . S
C4083 C4084 1.383 . S
C4083 H4091 0.929 . S
C4084 C4083 1.383 . S
C4084 C4085 1.377 . S
C4085 H4069 0.930 . S
C4085 C4084 1.377 . S
C4085 C4086 1.379 . S
C4086 H4070 0.931 . S
C4086 C4080 1.383 . S
C4086 C4085 1.379 . S
H4087 C4081 0.959 . S
H4088 C4081 0.961 . S
H4089 C4081 0.960 . S
H4090 C4082 0.930 . S
H4091 C4083 0.929 . S
H4092 C4100 0.929 . S
H4093 C4102 0.930 . S
H4094 C4104 0.930 . S
H4095 C4107 0.929 . S
H4096 C4110 0.930 . S
H4097 C4112 0.960 . S
H4098 C4112 0.960 . S
H4099 C4112 0.960 . S
C4100 H4092 0.929 . S
C4100 C4101 1.377 . S
C4100 C4102 1.384 . S
C4101 C4100 1.377 . S
C4101 C4107 1.390 . S
C4102 H4093 0.930 . S
C4102 C4100 1.384 . S
C4102 C4103 1.372 . S
C4103 C4102 1.372 . S
C4103 C4104 1.400 . S
C4103 C4108 1.490 . S
C4104 H4094 0.930 . S
C4104 C4103 1.400 . S
C4104 C4107 1.386 . S
H4105 C4121 0.930 . S
H4106 C4122 0.931 . S
C4107 H4095 0.929 . S
C4107 C4101 1.390 . S
C4107 C4104 1.386 . S
C4108 C4103 1.490 . S
C4108 C4110 1.395 . S
C4108 C4111 1.403 . S
H4109 C4115 0.930 . S
C4110 H4096 0.930 . S
C4110 C4108 1.395 . S
C4110 C4113 1.403 . S
C4111 C4108 1.403 . S
C4111 C4112 1.524 . S
C4111 C4115 1.400 . S
C4112 H4097 0.960 . S
C4112 H4098 0.960 . S
C4112 H4099 0.960 . S
C4112 C4111 1.524 . S
C4113 C4110 1.403 . S
C4113 C4114 1.392 . S
C4113 C4117 1.495 . S
C4114 C4113 1.392 . S
C4114 C4115 1.385 . S
C4114 C4116 1.478 . S
C4115 H4109 0.930 . S
C4115 C4111 1.400 . S
C4115 C4114 1.385 . S
C4116 C4114 1.478 . S
C4116 C4118 1.381 . S
C4116 C4122 1.383 . S
C4117 C4113 1.495 . S
C4117 H4123 0.959 . S
C4117 H4124 0.961 . S
C4117 H4125 0.960 . S
C4118 C4116 1.381 . S
C4118 C4119 1.394 . S
C4118 H4126 0.930 . S
C4119 C4118 1.394 . S
C4119 C4120 1.383 . S
C4119 H4127 0.929 . S
C4120 C4119 1.383 . S
C4120 C4121 1.377 . S
C4121 H4105 0.930 . S
C4121 C4120 1.377 . S
C4121 C4122 1.379 . S
C4122 H4106 0.931 . S
C4122 C4116 1.383 . S
C4122 C4121 1.379 . S
H4123 C4117 0.959 . S
H4124 C4117 0.961 . S
H4125 C4117 0.960 . S
H4126 C4118 0.930 . S
H4127 C4119 0.929 . S
C681 C127 2.403 . S
C700 C1 2.401 . S
C717 C152 2.404 . S
C736 C14 2.400 1_455 S
C753 C155 2.404 1_556 S
C772 C40 2.393 . S
C789 C124 2.402 . S
C808 C54 2.407 . S
C825 C57 2.403 . S
C844 C223 2.399 1_554 S
C861 C82 2.402 . S
C880 C168 2.404 . S
C897 C97 2.404 . S
C916 C194 2.391 . S
C933 C196 2.403 . S
C952 C98 2.403 1_455 S
C969 C236 2.405 . S
C988 C264 2.391 . S
C1005 C239 2.402 . S
C1024 C656 2.404 1_545 S
C1041 C278 2.403 . S
C1060 C658 2.399 1_565 S
C1077 C292 2.402 1_545 S
C1096 C631 2.405 . S
C1113 C306 2.402 . S
C1132 C616 2.404 . S
C1149 C586 2.402 . S
C1168 C308 2.406 . S
C1185 C334 2.404 . S
C1204 C603 2.398 . S
C1221 C474 2.403 1_556 S
C1240 C349 2.397 . S
C1257 C476 2.404 . S
C1276 C350 2.398 . S
C1293 C491 2.401 . S
C1312 C376 2.406 . S
C1329 C448 2.405 . S
C1348 C378 2.393 1_655 S
C1365 C559 2.401 . S
C1384 C405 2.403 . S
C1401 C504 2.402 . S
C1420 C418 2.405 1_655 S
C1437 C421 2.404 . S
C1456 C531 2.392 1_554 S
C1473 C435 2.401 . S
C1492 C532 2.406 . S
C1509 C561 2.404 . S
C1528 C600 2.391 1_565 S
C1545 C224 1.010 . S
C1564 C0 1.027 . S
C1581 C670 1.004 . S
C1600 C15 1.004 . S
C1617 C41 1.019 . S
C1636 C294 1.030 . S
C1653 C644 1.001 . S
C1672 C55 1.020 . S
C1689 C56 1.019 . S
C1708 C574 1.032 . S
C1725 C588 1.001 . S
C1744 C83 1.021 . S
C1761 C96 1.021 . S
C1780 C615 0.988 . S
C1797 C280 1.008 . S
C1816 C99 1.029 . S
C1833 C125 1.021 . S
C1852 C13 1.020 . S
C1869 C26 1.005 . S
C1888 C126 1.005 . S
C1905 C153 1.019 . S
C1924 C28 0.977 . S
C1941 C42 1.011 . S
C1960 C154 1.024 . S
C1977 C169 1.016 . S
C1996 C69 0.982 . S
C2013 C70 1.013 . S
C2032 C195 1.018 . S
C2049 C197 1.015 . S
C2068 C85 0.993 . S
C2085 C222 1.017 . S
C2104 C110 0.982 . S
C2121 C237 1.016 . S
C2140 C112 0.984 . S
C2157 C238 1.016 . S
C2176 C516 0.997 . S
C2193 C519 1.005 . S
C2212 C265 1.030 . S
C2229 C544 1.005 . S
C2248 C279 1.029 . S
C2265 C211 1.009 . S
C2284 C293 1.004 . S
C2301 C307 1.016 . S
C2320 C140 1.024 . S
C2337 C503 1.006 . S
C2356 C309 1.003 . S
C2373 C335 1.020 . S
C2392 C462 0.993 . S
C2409 C348 1.019 . S
C2428 C573 1.029 . S
C2445 C351 1.021 . S
C2464 C322 0.992 . S
C2481 C377 1.015 . S
C2500 C643 0.995 . S
C2517 C379 1.015 . S
C2536 C320 0.993 . S
C2553 C404 1.021 . S
C2572 C251 0.995 . S
C2589 C419 1.021 . S
C2608 C252 1.006 . S
C2625 C266 1.007 . S
C2644 C420 1.004 . S
C2661 C628 1.012 . S
C2680 C434 1.012 . S
C2697 C337 1.006 . S
C2716 C449 1.029 . S
C2733 C362 1.002 . S
C2752 C475 1.008 . S
C2769 C477 1.021 . S
C2788 C364 0.996 . S
C2805 C390 1.011 . S
C2824 C490 1.025 . S
C2841 C505 1.020 . S
C2860 C393 1.022 . S
C2877 C530 1.021 . S
C2896 C406 0.993 . S
C2913 C533 1.017 . S
C2932 C433 0.976 . S
C2949 C447 1.000 . S
C2968 C558 1.012 . S
C2985 C560 1.016 . S
C3004 C460 1.008 . S
C3021 C587 1.021 . S
C3040 C180 1.000 . S
C3057 C182 1.001 . S
C3076 C601 1.015 . S
C3093 C602 1.017 . S
C3112 C208 0.988 . S
C3129 C617 1.021 . S
C3148 C547 0.997 . S
C3165 C488 1.001 . S
C3184 C630 1.014 . S
C3201 C167 1.000 . S
C3220 C657 1.014 . S
C3237 C139 1.012 . S
C3256 C659 1.021 . S
C3273 C321 1.483 . S
C3292 C12 1.474 . S
C3309 C27 1.491 . S
C3328 C572 1.508 . S
C3345 C29 1.484 . S
C3364 C323 1.463 . S
C3381 C642 1.490 . S
C3400 C43 1.512 . S
C3417 C68 1.495 . S
C3436 C253 1.489 . S
C3453 C267 1.489 . S
C3472 C71 1.511 . S
C3489 C629 1.484 . S
C3508 C84 1.468 . S
C3525 C111 1.485 . S
C3544 C250 1.510 . S
C3561 C183 1.482 . S
C3580 C113 1.485 . S
C3597 C138 1.495 . S
C3616 C209 1.485 . S
C3633 C210 1.485 . S
C3652 C141 1.470 . S
C3669 C166 1.487 . S
C3688 C181 1.510 . S
C3705 C363 1.486 . S
C3724 C225 1.512 . S
C3741 C281 1.489 . S
C3760 C432 1.459 . S
C3777 C295 1.485 . S
C3796 C391 1.510 . S
C3813 C645 1.492 . S
C3832 C336 1.467 . S
C3849 C365 1.492 . S
C3868 C671 1.502 . S
C3885 C392 1.495 . S
C3904 C589 1.485 . S
C3921 C407 1.487 . S
C3940 C614 1.513 . S
C3957 C575 1.482 . S
C3976 C446 1.484 . S
C3993 C518 1.489 . S
C4012 C461 1.457 . S
C4029 C463 1.484 . S
C4048 C545 1.508 . S
C4065 C489 1.482 . S
C4084 C546 1.483 . S
C4101 C517 1.493 . S
C4120 C502 1.481 . S
