# Generated by pormake.
# Topology umf, (4)-cn, num edge types: 1
# Building blocks:
#     Node 0, Type 0, BuildingBlock: KOZSID_clean_sbu_0, # of connection points: 4
#     Node 1, Type 0, BuildingBlock: KOZSID_clean_sbu_0, # of connection points: 4
#     Node 2, Type 0, BuildingBlock: KOZSID_clean_sbu_0, # of connection points: 4
#     Node 3, Type 0, BuildingBlock: KOZSID_clean_sbu_0, # of connection points: 4
#     Node 4, Type 0, BuildingBlock: KOZSID_clean_sbu_0, # of connection points: 4
#     Node 5, Type 0, BuildingBlock: KOZSID_clean_sbu_0, # of connection points: 4
#     Node 6, Type 0, BuildingBlock: KOZSID_clean_sbu_0, # of connection points: 4
#     Node 7, Type 0, BuildingBlock: KOZSID_clean_sbu_0, # of connection points: 4
#     Edge 8, Type (0, 0), BuildingBlock: AJUNOK_clean_linker_0, # of connection points: 2
#     Edge 9, Type (0, 0), BuildingBlock: AJUNOK_clean_linker_0, # of connection points: 2
#     Edge 10, Type (0, 0), BuildingBlock: AJUNOK_clean_linker_0, # of connection points: 2
#     Edge 11, Type (0, 0), BuildingBlock: AJUNOK_clean_linker_0, # of connection points: 2
#     Edge 12, Type (0, 0), BuildingBlock: AJUNOK_clean_linker_0, # of connection points: 2
#     Edge 13, Type (0, 0), BuildingBlock: AJUNOK_clean_linker_0, # of connection points: 2
#     Edge 14, Type (0, 0), BuildingBlock: AJUNOK_clean_linker_0, # of connection points: 2
#     Edge 15, Type (0, 0), BuildingBlock: AJUNOK_clean_linker_0, # of connection points: 2
#     Edge 16, Type (0, 0), BuildingBlock: AJUNOK_clean_linker_0, # of connection points: 2
#     Edge 17, Type (0, 0), BuildingBlock: AJUNOK_clean_linker_0, # of connection points: 2
#     Edge 18, Type (0, 0), BuildingBlock: AJUNOK_clean_linker_0, # of connection points: 2
#     Edge 19, Type (0, 0), BuildingBlock: AJUNOK_clean_linker_0, # of connection points: 2
#     Edge 20, Type (0, 0), BuildingBlock: AJUNOK_clean_linker_0, # of connection points: 2
#     Edge 21, Type (0, 0), BuildingBlock: AJUNOK_clean_linker_0, # of connection points: 2
#     Edge 22, Type (0, 0), BuildingBlock: AJUNOK_clean_linker_0, # of connection points: 2
#     Edge 23, Type (0, 0), BuildingBlock: AJUNOK_clean_linker_0, # of connection points: 2
# Relax obj value: 0.081
# Max RMSD: 0.195
# Mean RMSD: 0.195
data_MOF--net-umf--node1-KOZSID_clean_sbu_0--edge1-AJUNOK_clean_linker_0
_symmetry_space_group_name_H-M    P1
_symmetry_Int_Tables_number       1
_symmetry_cell_setting            triclinic
loop_
_symmetry_equiv_pos_as_xyz
'x, y, z'
_cell_length_a     29.970777
_cell_length_b     29.927191
_cell_length_c     44.511116
_cell_angle_alpha  89.914606
_cell_angle_beta   90.111126
_cell_angle_gamma 90.195439
loop_
_atom_site_label
_atom_site_type_symbol
_atom_site_fract_x
_atom_site_fract_y
_atom_site_fract_z
_atom_type_partial_charge
C0 C 0.13932 0.2365 0.19645 0.0
C1 C 0.18358 0.24062 0.20535 0.0
C2 C 0.20501 0.26396 0.18305 0.0
C3 C 0.17271 0.27311 0.16199 0.0
N4 N 0.13235 0.25734 0.16989 0.0
Co5 Co 0.07661 0.2649 0.14675 0.0
N6 N 0.11032 0.27085 0.10877 0.0
C7 C 0.15374 0.28211 0.10648 0.0
C8 C 0.16825 0.28398 0.07729 0.0
C9 C 0.13152 0.27386 0.06019 0.0
C10 C 0.09638 0.26666 0.08 0.0
N11 N 0.02141 0.27426 0.12346 0.0
C12 C 1.01452 0.2725 0.0933 0.0
C13 C 0.97072 0.28369 0.08665 0.0
C14 C 0.95005 0.29278 0.11368 0.0
C15 C 0.98227 0.28694 0.13542 0.0
N16 N 0.04515 0.25615 0.18539 0.0
C17 C 1.00259 0.26752 0.19075 0.0
C18 C 0.98772 0.24967 0.21748 0.0
C19 C 0.02312 0.22577 0.22928 0.0
C20 C 0.05836 0.23059 0.20939 0.0
N21 N 0.07773 0.33175 0.15245 0.0
C22 C 0.04872 0.42298 0.15744 0.0
C23 C 0.05756 0.39636 0.18305 0.0
C24 C 0.0724 0.35138 0.18011 0.0
C25 C 0.05843 0.40329 0.1296 0.0
C26 C 0.07259 0.35859 0.12759 0.0
N27 N 0.07009 0.19946 0.14061 0.0
C28 C 1.01758 0.13799 0.13988 0.0
C29 C 0.05133 0.10699 0.13553 0.0
C30 C 0.09539 0.12343 0.13248 0.0
C31 C 0.10411 0.1701 0.13508 0.0
C32 C 0.02751 0.18293 0.14281 0.0
H33 H 0.13798 0.1823 0.13312 0.0
H34 H 0.99973 0.20396 0.14758 0.0
H35 H 0.07685 0.3318 0.2003 0.0
H36 H 0.07589 0.34522 0.10532 0.0
C37 C 0.18083 0.28513 0.1321 0.0
C38 C 0.10477 0.21267 0.21354 0.0
C39 C 0.04949 0.26273 0.07073 0.0
C40 C 0.97555 0.28378 0.16692 0.0
H41 H 0.19895 0.22723 0.22545 0.0
H42 H 0.24046 0.27055 0.18143 0.0
H43 H 0.20166 0.29106 0.06938 0.0
H44 H 0.1305 0.27338 0.03589 0.0
H45 H 0.95538 0.28507 0.06463 0.0
H46 H 0.91525 0.30079 0.11706 0.0
H47 H 0.95406 0.25067 0.22623 0.0
H48 H 0.02223 0.20594 0.24957 0.0
H49 H 0.05094 0.40917 0.20531 0.0
H50 H 0.05365 0.4219 0.10896 0.0
H51 H 0.98302 0.12749 0.14163 0.0
H52 H 0.12274 0.10056 0.12884 0.0
C53 C 0.79938 0.16351 0.68249 0.0
C54 C 0.80555 0.20965 0.68267 0.0
C55 C 0.78344 0.22639 0.65835 0.0
C56 C 0.76654 0.1899 0.64369 0.0
N57 N 0.7765 0.15101 0.65745 0.0
Co58 Co 0.76806 0.09045 0.64009 0.0
N59 N 0.76534 0.11514 0.59874 0.0
C60 C 0.75599 0.15774 0.59142 0.0
C61 C 0.75649 0.16559 0.5611 0.0
C62 C 0.76611 0.12523 0.54844 0.0
C63 C 0.77066 0.09479 0.57193 0.0
N64 N 0.75929 0.03051 0.62258 0.0
C65 C 0.76211 1.0169 0.59349 0.0
C66 C 0.75046 0.97215 0.59118 0.0
C67 C 0.73978 0.95781 0.6198 0.0
C68 C 0.74535 0.99449 0.63808 0.0
N69 N 0.77273 0.06798 0.68187 0.0
C70 C 0.75821 0.0278 0.69127 0.0
C71 C 0.76821 0.02056 0.7211 0.0
C72 C 0.79044 0.0585 0.73073 0.0
C73 C 0.79324 0.08703 0.70623 0.0
N74 N 0.70082 0.09344 0.64343 0.0
C75 C 0.60995 0.06251 0.64787 0.0
C76 C 0.63418 0.07721 0.67333 0.0
C77 C 0.679 0.09295 0.67061 0.0
C78 C 0.63118 0.06881 0.62008 0.0
C79 C 0.67575 0.08362 0.61835 0.0
N80 N 0.83351 0.08198 0.63644 0.0
C81 C 0.89487 0.03078 0.64382 0.0
C82 C 0.9251 0.06062 0.63104 0.0
C83 C 0.90842 0.10178 0.62042 0.0
C84 C 0.86234 0.11195 0.62346 0.0
C85 C 0.85005 0.04185 0.64622 0.0
H86 H 0.85004 0.14365 0.61532 0.0
H87 H 0.82877 1.01698 0.65598 0.0
H88 H 0.69672 0.10191 0.69088 0.0
H89 H 0.69045 0.0834 0.59638 0.0
C90 C 0.75505 0.19066 0.61339 0.0
C91 C 0.81338 0.13286 0.70699 0.0
C92 C 0.77314 0.04636 0.5677 0.0
C93 C 0.74442 0.9954 0.66993 0.0
H94 H 0.82537 0.22971 0.69781 0.0
H95 H 0.78393 0.26068 0.65056 0.0
H96 H 0.75187 0.19715 0.54961 0.0
H97 H 0.76828 0.11888 0.52456 0.0
H98 H 0.7495 0.95216 0.57095 0.0
H99 H 0.73031 0.92433 0.6265 0.0
H100 H 0.76231 0.9904 0.73395 0.0
H101 H 0.80356 0.06428 0.75306 0.0
H102 H 0.6195 0.0746 0.69546 0.0
H103 H 0.61399 0.06079 0.59936 0.0
H104 H 0.90586 0.99849 0.652 0.0
H105 H 0.93075 0.12601 0.61033 0.0
C106 C 0.87856 0.80135 0.18065 0.0
C107 C 0.83286 0.80942 0.17934 0.0
C108 C 0.81647 0.78624 0.15536 0.0
C109 C 0.85287 0.76698 0.14223 0.0
N110 N 0.89136 0.7766 0.15664 0.0
Co111 Co 0.95226 0.76616 0.1408 0.0
N112 N 0.92938 0.76217 0.0991 0.0
C113 C 0.88712 0.75254 0.09111 0.0
C114 C 0.88072 0.75158 0.06064 0.0
C115 C 0.92168 0.76063 0.04864 0.0
C116 C 0.95097 0.76639 0.07266 0.0
N117 N 1.01253 0.75537 0.12466 0.0
C118 C 0.02756 0.75801 0.09589 0.0
C119 C 0.07207 0.74569 0.09463 0.0
C120 C 0.08476 0.73489 0.12361 0.0
C121 C 0.04737 0.74101 0.14105 0.0
N122 N 0.97304 0.77198 0.18283 0.0
C123 C 1.01222 0.75673 0.19329 0.0
C124 C 1.01829 0.76737 0.22312 0.0
C125 C 0.98065 0.79078 0.23159 0.0
C126 C 0.95345 0.79363 0.20642 0.0
N127 N 0.9469 0.69933 0.14546 0.0
C128 C 0.97121 0.60726 0.1534 0.0
C129 C 0.95581 0.63362 0.17755 0.0
C130 C 0.94323 0.679 0.17306 0.0
C131 C 0.97057 0.62762 0.12499 0.0
C132 C 0.95866 0.67282 0.12154 0.0
N133 N 0.96288 0.83121 0.13619 0.0
C134 C 1.01603 0.89155 0.14253 0.0
C135 C 0.98633 0.92226 0.1305 0.0
C136 C 0.94396 0.90674 0.12132 0.0
C137 C 0.93299 0.86075 0.12409 0.0
C138 C 1.00375 0.84693 0.14535 0.0
H139 H 0.90061 0.84911 0.11669 0.0
H140 H 0.02806 0.82525 0.15522 0.0
H141 H 0.93298 0.6982 0.19237 0.0
H142 H 0.9627 0.68682 0.09946 0.0
C143 C 0.85318 0.75344 0.11233 0.0
C144 C 0.90828 0.8149 0.2058 0.0
C145 C 0.9995 0.76952 0.0695 0.0
C146 C 0.04505 0.74125 0.1729 0.0
H147 H 0.81297 0.83104 0.1933 0.0
H148 H 0.78272 0.78748 0.14666 0.0
H149 H 0.8497 0.74662 0.04858 0.0
H150 H 0.92913 0.7618 0.02487 0.0
H151 H 0.09301 0.74448 0.07487 0.0
H152 H 0.11771 0.72523 0.13112 0.0
H153 H 0.04754 0.76101 0.23675 0.0
H154 H 0.97419 0.80457 0.25361 0.0
H155 H 0.9541 0.61957 0.19994 0.0
H156 H 0.9818 0.60943 0.1054 0.0
H157 H 0.04866 0.90216 0.15036 0.0
H158 H 0.91967 0.92983 0.11224 0.0
C159 C 0.23314 0.88661 0.67724 0.0
C160 C 0.22303 0.8414 0.67456 0.0
C161 C 0.24398 0.82638 0.64937 0.0
C162 C 0.26385 0.86333 0.63701 0.0
N163 N 0.25666 0.90091 0.65296 0.0
Co164 Co 0.26663 0.96305 0.63851 0.0
N165 N 0.26876 0.94293 0.5961 0.0
C166 C 0.27737 0.90109 0.58675 0.0
C167 C 0.2773 0.89676 0.55613 0.0
C168 C 0.26855 0.93861 0.54543 0.0
C169 C 0.26384 0.96631 0.57034 0.0
N170 N 0.2763 0.02462 0.62384 0.0
C171 C 0.27274 0.04151 0.59553 0.0
C172 C 0.28455 0.08634 0.59529 0.0
C173 C 0.29607 0.09736 0.62442 0.0
C174 C 0.29079 0.05875 0.6409 0.0
N175 N 0.26306 0.98108 0.68133 0.0
C176 C 0.27862 0.01987 0.69243 0.0
C177 C 0.27047 0.02371 0.72275 0.0
C178 C 0.24843 0.98496 0.73096 0.0
C179 C 0.24394 0.95938 0.70518 0.0
N180 N 0.33376 0.95825 0.6416 0.0
C181 C 0.4262 0.98302 0.64745 0.0
C182 C 0.40115 0.96736 0.67217 0.0
C183 C 0.35564 0.95425 0.66868 0.0
C184 C 0.40429 0.98302 0.6196 0.0
C185 C 0.35893 0.971 0.61719 0.0
N186 N 0.20137 0.97313 0.63528 0.0
C187 C 0.14068 0.02413 0.64512 0.0
C188 C 0.11033 0.99683 0.63006 0.0
C189 C 0.12657 0.95707 0.61716 0.0
C190 C 0.17233 0.94567 0.62016 0.0
C191 C 0.1853 1.01197 0.64736 0.0
H192 H 0.18425 0.91505 0.6102 0.0
H193 H 0.20686 0.03499 0.65879 0.0
H194 H 0.33768 0.94327 0.68837 0.0
H195 H 0.34386 0.97568 0.59551 0.0
C196 C 0.27613 0.86563 0.60691 0.0
C197 C 0.22338 0.91384 0.70422 0.0
C198 C 0.26069 1.01508 0.56853 0.0
C199 C 0.29234 0.05433 0.67259 0.0
H200 H 0.20214 0.82111 0.68894 0.0
H201 H 0.24117 0.79333 0.63966 0.0
H202 H 0.2813 0.8665 0.54313 0.0
H203 H 0.26674 0.94765 0.52191 0.0
H204 H 0.28499 0.10856 0.57609 0.0
H205 H 0.3058 0.12998 0.63266 0.0
H206 H 0.27765 0.05215 0.73697 0.0
H207 H 0.23665 0.97667 0.75325 0.0
H208 H 0.41643 0.96572 0.69421 0.0
H209 H 0.42154 0.9947 0.5997 0.0
H210 H 0.12995 0.05524 0.65519 0.0
H211 H 0.10411 0.93478 0.60532 0.0
C212 C 0.16404 0.80438 0.83063 0.0
C213 C 0.20944 0.81383 0.83215 0.0
C214 C 0.22587 0.79173 0.85658 0.0
C215 C 0.18961 0.77182 0.86972 0.0
N216 N 0.15116 0.77997 0.85493 0.0
Co217 Co 0.09001 0.7701 0.87089 0.0
N218 N 0.11273 0.76668 0.91273 0.0
C219 C 0.15504 0.75764 0.92087 0.0
C220 C 0.16139 0.75724 0.95135 0.0
C221 C 0.1204 0.76603 0.96323 0.0
C222 C 0.0911 0.77109 0.93914 0.0
N223 N 0.02938 0.76084 0.88698 0.0
C224 C 1.01436 0.76339 0.91576 0.0
C225 C 0.9695 0.75205 0.91698 0.0
C226 C 0.95653 0.74187 0.888 0.0
C227 C 0.99408 0.74743 0.87061 0.0
N228 N 0.0696 0.77462 0.82855 0.0
C229 C 0.03017 0.75949 0.81823 0.0
C230 C 0.02447 0.7689 0.78817 0.0
C231 C 0.06262 0.79136 0.77933 0.0
C232 C 0.0897 0.79486 0.8045 0.0
N233 N 0.09397 0.70285 0.86722 0.0
C234 C 0.06853 0.61044 0.86163 0.0
C235 C 0.08261 0.63584 0.83661 0.0
C236 C 0.09609 0.68134 0.83995 0.0
C237 C 0.07035 0.63196 0.88953 0.0
C238 C 0.08263 0.67731 0.89182 0.0
N239 N 0.08064 0.83552 0.87502 0.0
C240 C 0.02971 0.89695 0.86677 0.0
C241 C 0.054 0.92508 0.88577 0.0
C242 C 0.09395 0.90786 0.89806 0.0
C243 C 0.10679 0.86307 0.89229 0.0
C244 C 0.04272 0.85288 0.86239 0.0
H245 H 0.13701 0.85043 0.90242 0.0
H246 H 0.02051 0.83266 0.84928 0.0
H247 H 0.10587 0.69958 0.82006 0.0
H248 H 0.07939 0.69201 0.91368 0.0
C249 C 0.1891 0.7589 0.89976 0.0
C250 C 0.13495 0.81595 0.8048 0.0
C251 C 0.04257 0.77364 0.94232 0.0
C252 C 0.99668 0.74618 0.83883 0.0
H253 H 0.22896 0.83524 0.81764 0.0
H254 H 0.25948 0.79394 0.86543 0.0
H255 H 0.19242 0.75288 0.96347 0.0
H256 H 0.11294 0.76754 0.98698 0.0
H257 H 0.94857 0.75087 0.93675 0.0
H258 H 0.92342 0.73257 0.88049 0.0
H259 H 0.99508 0.76258 0.77464 0.0
H260 H 0.06943 0.80429 0.75708 0.0
H261 H 0.08281 0.62085 0.81449 0.0
H262 H 0.05998 0.6144 0.90966 0.0
H263 H 1.00008 0.90861 0.85528 0.0
H264 H 0.1146 0.92841 0.9125 0.0
C265 C 0.23863 0.14125 0.31449 0.0
C266 C 0.24454 0.18517 0.30522 0.0
C267 C 0.2691 0.20596 0.32725 0.0
C268 C 0.27718 0.17355 0.34848 0.0
N269 N 0.2596 0.13376 0.3409 0.0
Co270 Co 0.26486 0.07793 0.36424 0.0
N271 N 0.27252 0.11179 0.40202 0.0
C272 C 0.28554 0.15481 0.40409 0.0
C273 C 0.28785 0.1696 0.43321 0.0
C274 C 0.27618 0.13346 0.45048 0.0
C275 C 0.26772 0.09832 0.43083 0.0
N276 N 0.27163 0.02248 0.38763 0.0
C277 C 0.26941 1.01592 0.4178 0.0
C278 C 0.27826 0.97157 0.42458 0.0
C279 C 0.28638 0.95025 0.39762 0.0
C280 C 0.28231 0.98262 0.37577 0.0
N281 N 0.25462 0.04657 0.32573 0.0
C282 C 0.26476 1.0037 0.32026 0.0
C283 C 0.24712 0.98975 0.2932 0.0
C284 C 0.22452 0.02609 0.2814 0.0
C285 C 0.22952 0.06071 0.30178 0.0
N286 N 0.33166 0.07627 0.35849 0.0
C287 C 0.42275 0.04673 0.35355 0.0
C288 C 0.39619 0.05583 0.32792 0.0
C289 C 0.35128 0.07085 0.33085 0.0
C290 C 0.40287 0.05602 0.38139 0.0
C291 C 0.35827 0.07031 0.38337 0.0
N292 N 0.1994 0.07433 0.37065 0.0
C293 C 0.13528 0.02499 0.37188 0.0
C294 C 0.10689 0.06012 0.37837 0.0
C295 C 0.12557 0.10331 0.38113 0.0
C296 C 0.1723 0.10966 0.37748 0.0
C297 C 0.18052 0.03269 0.36792 0.0
H298 H 0.18638 0.1428 0.37972 0.0
H299 H 0.19992 1.00409 0.3621 0.0
H300 H 0.33181 0.07567 0.31065 0.0
H301 H 0.34484 0.0734 0.40563 0.0
C302 C 0.28962 0.18155 0.37833 0.0
C303 C 0.21245 0.10751 0.29817 0.0
C304 C 0.26163 0.05165 0.44026 0.0
C305 C 0.27943 0.97594 0.34421 0.0
H306 H 0.23125 0.20082 0.28518 0.0
H307 H 0.27707 0.2412 0.32864 0.0
H308 H 0.29613 0.20287 0.44097 0.0
H309 H 0.27534 0.13285 0.47477 0.0
H310 H 0.27883 0.95633 0.44664 0.0
H311 H 0.29271 0.91501 0.39435 0.0
H312 H 0.24754 0.95621 0.28415 0.0
H313 H 0.20573 0.02641 0.26066 0.0
H314 H 0.40904 0.04941 0.30566 0.0
H315 H 0.42132 0.051 0.40205 0.0
H316 H 0.12231 0.99138 0.36905 0.0
H317 H 0.10438 0.1317 0.38573 0.0
C318 C 0.8818 0.23858 0.83377 0.0
C319 C 0.83574 0.23341 0.83598 0.0
C320 C 0.82244 0.25603 0.86099 0.0
C321 C 0.86085 0.27221 0.87367 0.0
N322 N 0.8977 0.26128 0.85803 0.0
Co323 Co 0.96017 0.26776 0.87241 0.0
N324 N 0.94044 0.27144 0.91485 0.0
C325 C 0.89923 0.28253 0.92414 0.0
C326 C 0.89488 0.28272 0.95476 0.0
C327 C 0.93611 0.27163 0.9655 0.0
C328 C 0.96354 0.26546 0.94063 0.0
N329 N 0.02214 0.27393 0.88687 0.0
C330 C 0.03893 0.27027 0.9152 0.0
C331 C 0.08425 0.27975 0.91523 0.0
C332 C 0.09569 0.28992 0.88596 0.0
C333 C 0.05684 0.28618 0.8696 0.0
N334 N 0.97752 0.26294 0.82958 0.0
C335 C 1.01682 0.27651 0.81822 0.0
C336 C 0.02022 0.2669 0.78806 0.0
C337 C 0.98072 0.24589 0.7803 0.0
C338 C 0.95518 0.24332 0.80619 0.0
N339 N 0.95905 0.33524 0.86921 0.0
C340 C 0.98985 0.42619 0.86362 0.0
C341 C 0.97193 0.40243 0.83891 0.0
C342 C 0.95634 0.35754 0.84221 0.0
C343 C 0.9871 0.40438 0.89151 0.0
C344 C 0.97249 0.35977 0.89375 0.0
N345 N 0.96671 0.2019 0.87601 0.0
C346 C 1.01404 0.13817 0.86623 0.0
C347 C 0.98986 0.11096 0.88591 0.0
C348 C 0.9523 0.13037 0.89995 0.0
C349 C 0.94095 0.17562 0.89436 0.0
C350 C 1.00276 0.18284 0.86219 0.0
H351 H 0.9124 0.18967 0.90566 0.0
H352 H 0.02494 0.20214 0.84845 0.0
H353 H 0.94465 0.34024 0.82241 0.0
H354 H 0.97558 0.34468 0.91553 0.0
C355 C 0.86395 0.2841 0.90384 0.0
C356 C 0.90917 0.22393 0.80779 0.0
C357 C 1.01213 0.26062 0.94247 0.0
C358 C 0.05217 0.28807 0.83793 0.0
H359 H 0.81358 0.2139 0.82204 0.0
H360 H 0.78922 0.25635 0.8705 0.0
H361 H 0.86497 0.28866 0.96773 0.0
H362 H 0.94503 0.26952 0.98903 0.0
H363 H 0.10651 0.27973 0.9344 0.0
H364 H 0.12862 0.29801 0.87759 0.0
H365 H 0.04895 0.27203 0.77376 0.0
H366 H 0.97203 0.23328 0.75827 0.0
H367 H 0.97177 0.41755 0.8168 0.0
H368 H 0.9977 0.42115 0.91185 0.0
H369 H 0.04253 0.12538 0.85408 0.0
H370 H 0.93248 0.11152 0.91583 0.0
C371 C 0.80232 0.88069 0.33025 0.0
C372 C 0.81036 0.83492 0.33155 0.0
C373 C 0.78841 0.81881 0.35613 0.0
C374 C 0.76968 0.85543 0.36939 0.0
N375 N 0.77845 0.89378 0.35455 0.0
Co376 Co 0.76692 0.95496 0.36968 0.0
N377 N 0.76429 0.93311 0.41167 0.0
C378 C 0.7559 0.89078 0.42026 0.0
C379 C 0.75568 0.8852 0.45081 0.0
C380 C 0.76387 0.92677 0.46223 0.0
C381 C 0.76842 0.95556 0.4378 0.0
N382 N 0.75505 1.0155 0.38516 0.0
C383 C 0.75778 0.03139 0.41373 0.0
C384 C 0.74444 0.07568 0.41455 0.0
C385 C 0.73286 0.08733 0.38551 0.0
C386 C 0.73957 0.04958 0.36846 0.0
N387 N 0.77132 0.97467 0.32734 0.0
C388 C 0.755 1.01325 0.31651 0.0
C389 C 0.76518 1.0188 0.28656 0.0
C390 C 0.78934 0.98143 0.27841 0.0
C391 C 0.79302 0.95492 0.30385 0.0
N392 N 0.70018 0.94798 0.36564 0.0
C393 C 0.60781 0.97107 0.35787 0.0
C394 C 0.63405 0.95534 0.33378 0.0
C395 C 0.67955 0.94331 0.33819 0.0
C396 C 0.62846 0.97125 0.38621 0.0
C397 C 0.67382 0.95993 0.38957 0.0
N398 N 0.83183 0.96741 0.37352 0.0
C399 C 0.89025 0.02192 0.36487 0.0
C400 C 0.92253 0.99407 0.37726 0.0
C401 C 0.90817 0.95233 0.3887 0.0
C402 C 0.86251 0.93952 0.38652 0.0
C403 C 0.84608 1.00812 0.36305 0.0
H404 H 0.85202 0.90743 0.39524 0.0
H405 H 0.82344 0.03137 0.35304 0.0
H406 H 0.69859 0.93276 0.3189 0.0
H407 H 0.68802 0.96465 0.41153 0.0
C408 C 0.75698 0.85622 0.39945 0.0
C409 C 0.81513 0.91016 0.30488 0.0
C410 C 0.77043 1.00428 0.44034 0.0
C411 C 0.73919 0.04635 0.33663 0.0
H412 H 0.83107 0.81484 0.3171 0.0
H413 H 0.78993 0.7851 0.36493 0.0
H414 H 0.75169 0.85438 0.46329 0.0
H415 H 0.76528 0.93491 0.48589 0.0
H416 H 0.74309 0.09715 0.43407 0.0
H417 H 0.72228 0.11988 0.37769 0.0
H418 H 0.75806 0.04759 0.27264 0.0
H419 H 0.8031 0.97471 0.25642 0.0
H420 H 0.61981 0.95296 0.31147 0.0
H421 H 0.61034 0.98269 0.40575 0.0
H422 H 0.89896 0.05487 0.35658 0.0
H423 H 0.93197 0.92966 0.39879 0.0
C424 C 0.99578 0.48267 0.13685 0.0
C425 C 0.02764 0.46964 0.15871 0.0
C426 C 0.97716 0.52611 0.13595 0.0
C427 C 0.98875 0.55954 0.15699 0.0
H428 H 0.98491 0.45896 0.11999 0.0
H429 H 0.95336 0.5336 0.11832 0.0
S430 S 0.07088 0.54441 0.21888 0.0
N431 N 0.06998 0.49524 0.20206 0.0
N432 N 0.03487 0.57604 0.20054 0.0
C433 C 0.01984 0.54694 0.1794 0.0
C434 C 0.03913 0.50253 0.18024 0.0
C435 C 0.48639 0.03539 0.66948 0.0
C436 C 0.47422 1.0001 0.64991 0.0
C437 C 0.52999 0.05473 0.66932 0.0
C438 C 0.56394 0.0398 0.64964 0.0
H439 H 0.46153 0.04928 0.68437 0.0
H440 H 0.53668 0.08257 0.68419 0.0
S441 S 0.55152 0.94354 0.59722 0.0
N442 N 0.50154 0.94855 0.61233 0.0
N443 N 0.5825 0.98311 0.61259 0.0
C444 C 0.55254 1.00295 0.63111 0.0
C445 C 0.50824 0.98373 0.63109 0.0
C446 C 0.9951 0.50668 0.84232 0.0
C447 C 1.01224 0.47234 0.861 0.0
C448 C 1.01422 0.55043 0.84157 0.0
C449 C 0.05147 0.56235 0.85951 0.0
H450 H 0.96575 0.5002 0.82879 0.0
H451 H 0.99867 0.57559 0.82756 0.0
S452 S 0.11374 0.4842 0.90891 0.0
N453 N 0.07286 0.45328 0.89515 0.0
N454 N 0.1069 0.53453 0.89444 0.0
C455 C 0.06992 0.52799 0.87727 0.0
C456 C 0.05096 0.48354 0.87781 0.0
C457 C 0.48304 0.99446 0.37431 0.0
C458 C 0.4696 0.02602 0.35233 0.0
C459 C 0.52668 0.97637 0.37534 0.0
C460 C 0.55993 0.98812 0.35425 0.0
H461 H 0.45951 0.98341 0.3912 0.0
H462 H 0.53446 0.95283 0.39308 0.0
S463 S 0.54385 0.06956 0.29201 0.0
N464 N 0.49477 0.06828 0.30882 0.0
N465 N 0.57583 0.03403 0.31051 0.0
C466 C 0.54696 1.01887 0.3317 0.0
C467 C 0.50237 0.03768 0.33077 0.0
C468 C 0.03101 0.22117 0.99056 0.0
C469 C 0.03137 0.26087 0.9735 0.0
C470 C 0.03581 0.22197 0.02208 0.0
C471 C 0.03981 0.26259 0.03773 0.0
H472 H 0.02516 0.18943 0.97954 0.0
H473 H 0.03588 0.19068 0.03434 0.0
S474 S 0.04288 0.37567 1.00374 0.0
N475 N 0.03679 0.34176 0.97475 0.0
N476 N 0.04521 0.34329 0.03381 0.0
C477 C 0.04089 0.30238 0.02093 0.0
C478 C 0.03689 0.30152 0.9889 0.0
C479 C 0.73252 0.02924 0.51973 0.0
C480 C 0.77299 0.03054 0.53587 0.0
C481 C 0.73193 0.02516 0.48821 0.0
C482 C 0.77181 0.02225 0.47163 0.0
H483 H 0.70115 0.03262 0.53156 0.0
H484 H 0.70008 0.02248 0.47679 0.0
S485 S 0.88633 0.02452 0.50312 0.0
N486 N 0.85375 0.02994 0.53281 0.0
N487 N 0.85264 0.02029 0.47381 0.0
C488 C 0.81235 0.02359 0.48753 0.0
C489 C 0.81294 0.02818 0.51953 0.0
C490 C 1.01797 0.81085 0.0221 0.0
C491 C 1.01665 0.77017 0.03801 0.0
C492 C 0.02307 0.81181 0.99063 0.0
C493 C 0.02542 0.7721 0.97381 0.0
H494 H 1.01422 0.84212 0.03405 0.0
H495 H 0.02605 0.84382 0.9794 0.0
S496 S 0.02232 0.65699 1.00458 0.0
N497 N 1.01747 0.68928 0.03448 0.0
N498 N 0.02643 0.69106 0.97547 0.0
C499 C 0.02357 0.73127 0.98944 0.0
C500 C 0.01943 0.73031 0.02145 0.0
C501 C 0.30028 0.04437 0.49026 0.0
C502 C 0.26064 0.04222 0.47326 0.0
C503 C 0.29967 0.04047 0.5218 0.0
C504 C 0.25937 0.03423 0.53751 0.0
H505 H 0.33198 0.0491 0.47903 0.0
H506 H 0.3311 0.03988 0.53385 0.0
S507 S 0.14655 0.0274 0.5035 0.0
N508 N 0.18007 0.03522 0.4745 0.0
N509 N 0.17897 0.02632 0.53358 0.0
C510 C 0.21954 0.03291 0.52075 0.0
C511 C 0.22016 0.03721 0.4887 0.0
C512 C 0.14954 0.143 0.226 0.0
C513 C 0.12083 0.1775 0.23606 0.0
C514 C 0.17651 0.11758 0.24595 0.0
C515 C 0.17538 0.12428 0.2773 0.0
H516 H 0.15388 0.138 0.20208 0.0
H517 H 0.20083 0.09513 0.23638 0.0
S518 S 0.10457 0.20801 0.31613 0.0
N519 N 0.09349 0.21611 0.28019 0.0
N520 N 0.14 0.16597 0.31744 0.0
C521 C 0.1443 0.15627 0.28778 0.0
C522 C 0.11817 0.1833 0.26741 0.0
C523 C 0.84628 0.21576 0.76933 0.0
C524 C 0.88688 0.19983 0.78129 0.0
C525 C 0.82087 0.19105 0.74848 0.0
C526 C 0.83737 0.15217 0.73452 0.0
H527 H 0.83305 0.24748 0.77674 0.0
H528 H 0.78858 0.20411 0.74203 0.0
S529 S 0.94367 0.0967 0.75544 0.0
N530 N 0.94186 0.14062 0.7779 0.0
N531 N 0.89817 0.09875 0.7344 0.0
C532 C 0.8788 0.13631 0.74528 0.0
C533 C 0.903 0.15954 0.76885 0.0
C534 C 0.82222 0.84975 0.26519 0.0
C535 C 0.83901 0.88944 0.27803 0.0
C536 C 0.84742 0.82386 0.24512 0.0
C537 C 0.88796 0.83926 0.2327 0.0
H538 H 0.78991 0.83703 0.27203 0.0
H539 H 0.83371 0.79197 0.23819 0.0
S540 S 0.94698 0.9422 0.25742 0.0
N541 N 0.90103 0.94183 0.27792 0.0
N542 N 0.94433 0.89767 0.23551 0.0
C543 C 0.90486 0.8798 0.24446 0.0
C544 C 0.8809 0.90429 0.2674 0.0
C545 C 0.16167 0.90584 0.74415 0.0
C546 C 0.20247 0.89115 0.73169 0.0
C547 C 0.13911 0.88107 0.76695 0.0
C548 C 0.15525 0.83948 0.77745 0.0
H549 H 0.14688 0.93656 0.73605 0.0
H550 H 0.10894 0.89474 0.77658 0.0
S551 S 0.25968 0.78515 0.75166 0.0
N552 N 0.25961 0.83382 0.7342 0.0
N553 N 0.21266 0.78322 0.77084 0.0
C554 C 0.19479 0.82368 0.76397 0.0
C555 C 0.21974 0.85069 0.74318 0.0
C556 C 0.04775 0.03071 0.11051 0.0
C557 C 0.03829 0.05847 0.13523 0.0
C558 C 0.02925 0.98724 0.10831 0.0
C559 C 0.99995 0.9703 0.1304 0.0
H560 H 0.06873 0.04298 0.0925 0.0
H561 H 0.03809 0.9666 0.08927 0.0
S562 S 0.96764 0.02769 0.20067 0.0
N563 N 1.0002 0.064 0.1833 0.0
N564 N 0.96492 0.98353 0.17853 0.0
C565 C 0.99109 0.9973 0.15538 0.0
C566 C 1.01033 0.04096 0.15792 0.0
C567 C 0.04007 0.02241 0.60288 0.0
C568 C 0.06218 1.01044 0.62972 0.0
C569 C 0.99648 0.04072 0.60325 0.0
C570 C 0.97346 0.04765 0.63047 0.0
H571 H 0.05685 1.01834 0.58153 0.0
H572 H 0.98037 0.04862 0.58211 0.0
S573 S 1.0166 0.02182 0.70676 0.0
N574 N 0.05743 1.00693 0.68409 0.0
N575 N 0.97651 0.04099 0.68481 0.0
C576 C 0.99543 0.0358 0.65731 0.0
C577 C 0.0394 1.01734 0.65692 0.0
C578 C 0.05134 0.05299 0.89065 0.0
C579 C 1.00519 0.0633 0.89096 0.0
C580 C 0.06704 1.00861 0.89055 0.0
C581 C 0.03748 0.97204 0.89128 0.0
H582 H 0.07592 0.07954 0.88962 0.0
H583 H 0.10259 1.00306 0.88853 0.0
S584 S 0.91392 0.97967 0.89802 0.0
N585 N 0.93046 0.03214 0.89506 0.0
N586 N 0.95983 0.94942 0.89726 0.0
C587 C 0.99148 0.98177 0.89431 0.0
C588 C 0.97542 0.02701 0.89368 0.0
C589 C 0.99558 1.01095 0.40427 0.0
C590 C 0.97019 1.01016 0.37757 0.0
C591 C 0.03883 0.03007 0.40505 0.0
C592 C 0.05809 0.04985 0.37933 0.0
H593 H 0.98182 0.997 0.42474 0.0
H594 H 0.05782 0.02846 0.42576 0.0
S595 S 1.00766 0.05328 0.30331 0.0
N596 N 0.9694 0.02857 0.32427 0.0
N597 N 0.04954 0.06499 0.32617 0.0
C598 C 0.03329 0.04893 0.35257 0.0
C599 C 0.98974 0.02907 0.3516 0.0
loop_
_geom_bond_atom_site_label_1
_geom_bond_atom_site_label_2
_geom_bond_distance
_geom_bond_site_symmetry_2
_ccdc_geom_bond_type
C0 C1 1.443 . S
C0 N4 1.376 . S
C0 C38 1.389 . S
C1 C0 1.443 . S
C1 C2 1.340 . S
C1 H41 0.951 . S
C2 C1 1.340 . S
C2 C3 1.439 . S
C2 H42 0.950 . S
C3 C2 1.439 . S
C3 N4 1.374 . S
C3 C37 1.395 . S
N4 C0 1.376 . S
N4 C3 1.374 . S
N4 Co5 2.008 . S
Co5 N4 2.008 . S
Co5 N6 1.995 . S
Co5 N11 2.027 . S
Co5 N16 1.995 . S
Co5 N21 2.282 . S
Co5 N27 2.282 . S
N6 Co5 1.995 . S
N6 C7 1.376 . S
N6 C10 1.383 . S
C7 N6 1.376 . S
C7 C8 1.446 . S
C7 C37 1.391 . S
C8 C7 1.446 . S
C8 C9 1.339 . S
C8 H43 0.949 . S
C9 C8 1.339 . S
C9 C10 1.439 . S
C9 H44 0.950 . S
C10 N6 1.383 . S
C10 C9 1.439 . S
C10 C39 1.392 . S
N11 Co5 2.027 . S
N11 C12 1.372 1_455 S
N11 C15 1.357 1_455 S
C12 N11 1.372 1_655 S
C12 C13 1.443 . S
C12 C39 1.389 1_655 S
C13 C12 1.443 . S
C13 C14 1.340 . S
C13 H45 0.951 . S
C14 C13 1.340 . S
C14 C15 1.439 . S
C14 H46 0.950 . S
C15 N11 1.357 1_655 S
C15 C14 1.439 . S
C15 C40 1.395 . S
N16 Co5 1.995 . S
N16 C17 1.376 1_455 S
N16 C20 1.383 . S
C17 N16 1.376 1_655 S
C17 C18 1.446 . S
C17 C40 1.391 . S
C18 C17 1.446 . S
C18 C19 1.339 1_655 S
C18 H47 0.949 . S
C19 C18 1.339 1_455 S
C19 C20 1.439 . S
C19 H48 0.950 . S
C20 N16 1.383 . S
C20 C19 1.439 . S
C20 C38 1.392 . S
N21 Co5 2.282 . S
N21 C24 1.332 . S
N21 C26 1.332 . S
C22 C23 1.386 . S
C22 C25 1.388 . S
C23 C22 1.386 . S
C23 C24 1.382 . S
C23 H49 0.950 . S
C24 N21 1.332 . S
C24 C23 1.382 . S
C24 H35 0.952 . S
C25 C22 1.388 . S
C25 C26 1.382 . S
C25 H50 0.950 . S
C26 N21 1.332 . S
C26 C25 1.382 . S
C26 H36 0.948 . S
N27 Co5 2.282 . S
N27 C31 1.332 . S
N27 C32 1.332 . S
C28 C29 1.388 . S
C28 C32 1.382 . S
C28 H51 0.950 . S
C29 C28 1.388 . S
C29 C30 1.386 . S
C30 C29 1.386 . S
C30 C31 1.382 . S
C30 H52 0.950 . S
C31 N27 1.332 . S
C31 C30 1.382 . S
C31 H33 0.952 . S
C32 N27 1.332 . S
C32 C28 1.382 . S
C32 H34 0.948 . S
H33 C31 0.952 . S
H34 C32 0.948 . S
H35 C24 0.952 . S
H36 C26 0.948 . S
C37 C3 1.395 . S
C37 C7 1.391 . S
C38 C0 1.389 . S
C38 C20 1.392 . S
C39 C10 1.392 . S
C39 C12 1.389 1_455 S
C40 C15 1.395 . S
C40 C17 1.391 . S
H41 C1 0.951 . S
H42 C2 0.950 . S
H43 C8 0.949 . S
H44 C9 0.950 . S
H45 C13 0.951 . S
H46 C14 0.950 . S
H47 C18 0.949 . S
H48 C19 0.950 . S
H49 C23 0.950 . S
H50 C25 0.950 . S
H51 C28 0.950 . S
H52 C30 0.950 . S
C53 C54 1.443 . S
C53 N57 1.376 . S
C53 C91 1.389 . S
C54 C53 1.443 . S
C54 C55 1.340 . S
C54 H94 0.951 . S
C55 C54 1.340 . S
C55 C56 1.439 . S
C55 H95 0.950 . S
C56 C55 1.439 . S
C56 N57 1.374 . S
C56 C90 1.395 . S
N57 C53 1.376 . S
N57 C56 1.374 . S
N57 Co58 2.008 . S
Co58 N57 2.008 . S
Co58 N59 1.995 . S
Co58 N64 2.027 . S
Co58 N69 1.995 . S
Co58 N74 2.282 . S
Co58 N80 2.282 . S
N59 Co58 1.995 . S
N59 C60 1.376 . S
N59 C63 1.383 . S
C60 N59 1.376 . S
C60 C61 1.446 . S
C60 C90 1.391 . S
C61 C60 1.446 . S
C61 C62 1.339 . S
C61 H96 0.949 . S
C62 C61 1.339 . S
C62 C63 1.439 . S
C62 H97 0.950 . S
C63 N59 1.383 . S
C63 C62 1.439 . S
C63 C92 1.392 . S
N64 Co58 2.027 . S
N64 C65 1.372 1_545 S
N64 C68 1.357 1_545 S
C65 N64 1.372 1_565 S
C65 C66 1.443 . S
C65 C92 1.389 1_565 S
C66 C65 1.443 . S
C66 C67 1.340 . S
C66 H98 0.951 . S
C67 C66 1.340 . S
C67 C68 1.439 . S
C67 H99 0.950 . S
C68 N64 1.357 1_565 S
C68 C67 1.439 . S
C68 C93 1.395 . S
N69 Co58 1.995 . S
N69 C70 1.376 1_545 S
N69 C73 1.383 . S
C70 N69 1.376 1_565 S
C70 C71 1.446 . S
C70 C93 1.391 . S
C71 C70 1.446 . S
C71 C72 1.339 1_565 S
C71 H100 0.949 . S
C72 C71 1.339 1_545 S
C72 C73 1.439 . S
C72 H101 0.950 . S
C73 N69 1.383 . S
C73 C72 1.439 . S
C73 C91 1.392 . S
N74 Co58 2.282 . S
N74 C77 1.332 . S
N74 C79 1.332 . S
C75 C76 1.386 . S
C75 C78 1.388 . S
C76 C75 1.386 . S
C76 C77 1.382 . S
C76 H102 0.950 . S
C77 N74 1.332 . S
C77 C76 1.382 . S
C77 H88 0.952 . S
C78 C75 1.388 . S
C78 C79 1.382 . S
C78 H103 0.950 . S
C79 N74 1.332 . S
C79 C78 1.382 . S
C79 H89 0.948 . S
N80 Co58 2.282 . S
N80 C84 1.332 . S
N80 C85 1.332 . S
C81 C82 1.388 . S
C81 C85 1.382 . S
C81 H104 0.950 . S
C82 C81 1.388 . S
C82 C83 1.386 . S
C83 C82 1.386 . S
C83 C84 1.382 . S
C83 H105 0.950 . S
C84 N80 1.332 . S
C84 C83 1.382 . S
C84 H86 0.952 . S
C85 N80 1.332 . S
C85 C81 1.382 . S
C85 H87 0.948 . S
H86 C84 0.952 . S
H87 C85 0.948 . S
H88 C77 0.952 . S
H89 C79 0.948 . S
C90 C56 1.395 . S
C90 C60 1.391 . S
C91 C53 1.389 . S
C91 C73 1.392 . S
C92 C63 1.392 . S
C92 C65 1.389 1_545 S
C93 C68 1.395 . S
C93 C70 1.391 . S
H94 C54 0.951 . S
H95 C55 0.950 . S
H96 C61 0.949 . S
H97 C62 0.950 . S
H98 C66 0.951 . S
H99 C67 0.950 . S
H100 C71 0.949 . S
H101 C72 0.950 . S
H102 C76 0.950 . S
H103 C78 0.950 . S
H104 C81 0.950 . S
H105 C83 0.950 . S
C106 C107 1.443 . S
C106 N110 1.376 . S
C106 C144 1.389 . S
C107 C106 1.443 . S
C107 C108 1.340 . S
C107 H147 0.951 . S
C108 C107 1.340 . S
C108 C109 1.439 . S
C108 H148 0.950 . S
C109 C108 1.439 . S
C109 N110 1.374 . S
C109 C143 1.395 . S
N110 C106 1.376 . S
N110 C109 1.374 . S
N110 Co111 2.008 . S
Co111 N110 2.008 . S
Co111 N112 1.995 . S
Co111 N117 2.027 . S
Co111 N122 1.995 . S
Co111 N127 2.282 . S
Co111 N133 2.282 . S
N112 Co111 1.995 . S
N112 C113 1.376 . S
N112 C116 1.383 . S
C113 N112 1.376 . S
C113 C114 1.446 . S
C113 C143 1.391 . S
C114 C113 1.446 . S
C114 C115 1.339 . S
C114 H149 0.949 . S
C115 C114 1.339 . S
C115 C116 1.439 . S
C115 H150 0.950 . S
C116 N112 1.383 . S
C116 C115 1.439 . S
C116 C145 1.392 . S
N117 Co111 2.027 . S
N117 C118 1.372 1_655 S
N117 C121 1.357 1_655 S
C118 N117 1.372 1_455 S
C118 C119 1.443 . S
C118 C145 1.389 1_455 S
C119 C118 1.443 . S
C119 C120 1.340 . S
C119 H151 0.951 . S
C120 C119 1.340 . S
C120 C121 1.439 . S
C120 H152 0.950 . S
C121 N117 1.357 1_455 S
C121 C120 1.439 . S
C121 C146 1.395 . S
N122 Co111 1.995 . S
N122 C123 1.376 1_655 S
N122 C126 1.383 . S
C123 N122 1.376 1_455 S
C123 C124 1.446 . S
C123 C146 1.391 . S
C124 C123 1.446 . S
C124 C125 1.339 1_455 S
C124 H153 0.949 . S
C125 C124 1.339 1_655 S
C125 C126 1.439 . S
C125 H154 0.950 . S
C126 N122 1.383 . S
C126 C125 1.439 . S
C126 C144 1.392 . S
N127 Co111 2.282 . S
N127 C130 1.332 . S
N127 C132 1.332 . S
C128 C129 1.386 . S
C128 C131 1.388 . S
C129 C128 1.386 . S
C129 C130 1.382 . S
C129 H155 0.950 . S
C130 N127 1.332 . S
C130 C129 1.382 . S
C130 H141 0.952 . S
C131 C128 1.388 . S
C131 C132 1.382 . S
C131 H156 0.950 . S
C132 N127 1.332 . S
C132 C131 1.382 . S
C132 H142 0.948 . S
N133 Co111 2.282 . S
N133 C137 1.332 . S
N133 C138 1.332 . S
C134 C135 1.388 . S
C134 C138 1.382 . S
C134 H157 0.950 . S
C135 C134 1.388 . S
C135 C136 1.386 . S
C136 C135 1.386 . S
C136 C137 1.382 . S
C136 H158 0.950 . S
C137 N133 1.332 . S
C137 C136 1.382 . S
C137 H139 0.952 . S
C138 N133 1.332 . S
C138 C134 1.382 . S
C138 H140 0.948 . S
H139 C137 0.952 . S
H140 C138 0.948 . S
H141 C130 0.952 . S
H142 C132 0.948 . S
C143 C109 1.395 . S
C143 C113 1.391 . S
C144 C106 1.389 . S
C144 C126 1.392 . S
C145 C116 1.392 . S
C145 C118 1.389 1_655 S
C146 C121 1.395 . S
C146 C123 1.391 . S
H147 C107 0.951 . S
H148 C108 0.950 . S
H149 C114 0.949 . S
H150 C115 0.950 . S
H151 C119 0.951 . S
H152 C120 0.950 . S
H153 C124 0.949 . S
H154 C125 0.950 . S
H155 C129 0.950 . S
H156 C131 0.950 . S
H157 C134 0.950 . S
H158 C136 0.950 . S
C159 C160 1.443 . S
C159 N163 1.376 . S
C159 C197 1.389 . S
C160 C159 1.443 . S
C160 C161 1.340 . S
C160 H200 0.951 . S
C161 C160 1.340 . S
C161 C162 1.439 . S
C161 H201 0.950 . S
C162 C161 1.439 . S
C162 N163 1.374 . S
C162 C196 1.395 . S
N163 C159 1.376 . S
N163 C162 1.374 . S
N163 Co164 2.008 . S
Co164 N163 2.008 . S
Co164 N165 1.995 . S
Co164 N170 2.027 . S
Co164 N175 1.995 . S
Co164 N180 2.282 . S
Co164 N186 2.282 . S
N165 Co164 1.995 . S
N165 C166 1.376 . S
N165 C169 1.383 . S
C166 N165 1.376 . S
C166 C167 1.446 . S
C166 C196 1.391 . S
C167 C166 1.446 . S
C167 C168 1.339 . S
C167 H202 0.949 . S
C168 C167 1.339 . S
C168 C169 1.439 . S
C168 H203 0.950 . S
C169 N165 1.383 . S
C169 C168 1.439 . S
C169 C198 1.392 . S
N170 Co164 2.027 . S
N170 C171 1.372 1_565 S
N170 C174 1.357 1_565 S
C171 N170 1.372 1_545 S
C171 C172 1.443 . S
C171 C198 1.389 1_545 S
C172 C171 1.443 . S
C172 C173 1.340 . S
C172 H204 0.951 . S
C173 C172 1.340 . S
C173 C174 1.439 . S
C173 H205 0.950 . S
C174 N170 1.357 1_545 S
C174 C173 1.439 . S
C174 C199 1.395 . S
N175 Co164 1.995 . S
N175 C176 1.376 1_565 S
N175 C179 1.383 . S
C176 N175 1.376 1_545 S
C176 C177 1.446 . S
C176 C199 1.391 . S
C177 C176 1.446 . S
C177 C178 1.339 1_545 S
C177 H206 0.949 . S
C178 C177 1.339 1_565 S
C178 C179 1.439 . S
C178 H207 0.950 . S
C179 N175 1.383 . S
C179 C178 1.439 . S
C179 C197 1.392 . S
N180 Co164 2.282 . S
N180 C183 1.332 . S
N180 C185 1.332 . S
C181 C182 1.386 . S
C181 C184 1.388 . S
C182 C181 1.386 . S
C182 C183 1.382 . S
C182 H208 0.950 . S
C183 N180 1.332 . S
C183 C182 1.382 . S
C183 H194 0.952 . S
C184 C181 1.388 . S
C184 C185 1.382 . S
C184 H209 0.950 . S
C185 N180 1.332 . S
C185 C184 1.382 . S
C185 H195 0.948 . S
N186 Co164 2.282 . S
N186 C190 1.332 . S
N186 C191 1.332 . S
C187 C188 1.388 . S
C187 C191 1.382 . S
C187 H210 0.950 . S
C188 C187 1.388 . S
C188 C189 1.386 . S
C189 C188 1.386 . S
C189 C190 1.382 . S
C189 H211 0.950 . S
C190 N186 1.332 . S
C190 C189 1.382 . S
C190 H192 0.952 . S
C191 N186 1.332 . S
C191 C187 1.382 . S
C191 H193 0.948 . S
H192 C190 0.952 . S
H193 C191 0.948 . S
H194 C183 0.952 . S
H195 C185 0.948 . S
C196 C162 1.395 . S
C196 C166 1.391 . S
C197 C159 1.389 . S
C197 C179 1.392 . S
C198 C169 1.392 . S
C198 C171 1.389 1_565 S
C199 C174 1.395 . S
C199 C176 1.391 . S
H200 C160 0.951 . S
H201 C161 0.950 . S
H202 C167 0.949 . S
H203 C168 0.950 . S
H204 C172 0.951 . S
H205 C173 0.950 . S
H206 C177 0.949 . S
H207 C178 0.950 . S
H208 C182 0.950 . S
H209 C184 0.950 . S
H210 C187 0.950 . S
H211 C189 0.950 . S
C212 C213 1.443 . S
C212 N216 1.376 . S
C212 C250 1.389 . S
C213 C212 1.443 . S
C213 C214 1.340 . S
C213 H253 0.951 . S
C214 C213 1.340 . S
C214 C215 1.439 . S
C214 H254 0.950 . S
C215 C214 1.439 . S
C215 N216 1.374 . S
C215 C249 1.395 . S
N216 C212 1.376 . S
N216 C215 1.374 . S
N216 Co217 2.008 . S
Co217 N216 2.008 . S
Co217 N218 1.995 . S
Co217 N223 2.027 . S
Co217 N228 1.995 . S
Co217 N233 2.282 . S
Co217 N239 2.282 . S
N218 Co217 1.995 . S
N218 C219 1.376 . S
N218 C222 1.383 . S
C219 N218 1.376 . S
C219 C220 1.446 . S
C219 C249 1.391 . S
C220 C219 1.446 . S
C220 C221 1.339 . S
C220 H255 0.949 . S
C221 C220 1.339 . S
C221 C222 1.439 . S
C221 H256 0.950 . S
C222 N218 1.383 . S
C222 C221 1.439 . S
C222 C251 1.392 . S
N223 Co217 2.027 . S
N223 C224 1.372 1_455 S
N223 C227 1.357 1_455 S
C224 N223 1.372 1_655 S
C224 C225 1.443 . S
C224 C251 1.389 1_655 S
C225 C224 1.443 . S
C225 C226 1.340 . S
C225 H257 0.951 . S
C226 C225 1.340 . S
C226 C227 1.439 . S
C226 H258 0.950 . S
C227 N223 1.357 1_655 S
C227 C226 1.439 . S
C227 C252 1.395 . S
N228 Co217 1.995 . S
N228 C229 1.376 1_455 S
N228 C232 1.383 . S
C229 N228 1.376 1_655 S
C229 C230 1.446 . S
C229 C252 1.391 . S
C230 C229 1.446 . S
C230 C231 1.339 1_655 S
C230 H259 0.949 . S
C231 C230 1.339 1_455 S
C231 C232 1.439 . S
C231 H260 0.950 . S
C232 N228 1.383 . S
C232 C231 1.439 . S
C232 C250 1.392 . S
N233 Co217 2.282 . S
N233 C236 1.332 . S
N233 C238 1.332 . S
C234 C235 1.386 . S
C234 C237 1.388 . S
C235 C234 1.386 . S
C235 C236 1.382 . S
C235 H261 0.950 . S
C236 N233 1.332 . S
C236 C235 1.382 . S
C236 H247 0.952 . S
C237 C234 1.388 . S
C237 C238 1.382 . S
C237 H262 0.950 . S
C238 N233 1.332 . S
C238 C237 1.382 . S
C238 H248 0.948 . S
N239 Co217 2.282 . S
N239 C243 1.332 . S
N239 C244 1.332 . S
C240 C241 1.388 . S
C240 C244 1.382 . S
C240 H263 0.950 . S
C241 C240 1.388 . S
C241 C242 1.386 . S
C242 C241 1.386 . S
C242 C243 1.382 . S
C242 H264 0.950 . S
C243 N239 1.332 . S
C243 C242 1.382 . S
C243 H245 0.952 . S
C244 N239 1.332 . S
C244 C240 1.382 . S
C244 H246 0.948 . S
H245 C243 0.952 . S
H246 C244 0.948 . S
H247 C236 0.952 . S
H248 C238 0.948 . S
C249 C215 1.395 . S
C249 C219 1.391 . S
C250 C212 1.389 . S
C250 C232 1.392 . S
C251 C222 1.392 . S
C251 C224 1.389 1_455 S
C252 C227 1.395 . S
C252 C229 1.391 . S
H253 C213 0.951 . S
H254 C214 0.950 . S
H255 C220 0.949 . S
H256 C221 0.950 . S
H257 C225 0.951 . S
H258 C226 0.950 . S
H259 C230 0.949 . S
H260 C231 0.950 . S
H261 C235 0.950 . S
H262 C237 0.950 . S
H263 C240 0.950 . S
H264 C242 0.950 . S
C265 C266 1.443 . S
C265 N269 1.376 . S
C265 C303 1.389 . S
C266 C265 1.443 . S
C266 C267 1.340 . S
C266 H306 0.951 . S
C267 C266 1.340 . S
C267 C268 1.439 . S
C267 H307 0.950 . S
C268 C267 1.439 . S
C268 N269 1.374 . S
C268 C302 1.395 . S
N269 C265 1.376 . S
N269 C268 1.374 . S
N269 Co270 2.008 . S
Co270 N269 2.008 . S
Co270 N271 1.995 . S
Co270 N276 2.027 . S
Co270 N281 1.995 . S
Co270 N286 2.282 . S
Co270 N292 2.282 . S
N271 Co270 1.995 . S
N271 C272 1.376 . S
N271 C275 1.383 . S
C272 N271 1.376 . S
C272 C273 1.446 . S
C272 C302 1.391 . S
C273 C272 1.446 . S
C273 C274 1.339 . S
C273 H308 0.949 . S
C274 C273 1.339 . S
C274 C275 1.439 . S
C274 H309 0.950 . S
C275 N271 1.383 . S
C275 C274 1.439 . S
C275 C304 1.392 . S
N276 Co270 2.027 . S
N276 C277 1.372 1_545 S
N276 C280 1.357 1_545 S
C277 N276 1.372 1_565 S
C277 C278 1.443 . S
C277 C304 1.389 1_565 S
C278 C277 1.443 . S
C278 C279 1.340 . S
C278 H310 0.951 . S
C279 C278 1.340 . S
C279 C280 1.439 . S
C279 H311 0.950 . S
C280 N276 1.357 1_565 S
C280 C279 1.439 . S
C280 C305 1.395 . S
N281 Co270 1.995 . S
N281 C282 1.376 1_545 S
N281 C285 1.383 . S
C282 N281 1.376 1_565 S
C282 C283 1.446 . S
C282 C305 1.391 . S
C283 C282 1.446 . S
C283 C284 1.339 1_565 S
C283 H312 0.949 . S
C284 C283 1.339 1_545 S
C284 C285 1.439 . S
C284 H313 0.950 . S
C285 N281 1.383 . S
C285 C284 1.439 . S
C285 C303 1.392 . S
N286 Co270 2.282 . S
N286 C289 1.332 . S
N286 C291 1.332 . S
C287 C288 1.386 . S
C287 C290 1.388 . S
C288 C287 1.386 . S
C288 C289 1.382 . S
C288 H314 0.950 . S
C289 N286 1.332 . S
C289 C288 1.382 . S
C289 H300 0.952 . S
C290 C287 1.388 . S
C290 C291 1.382 . S
C290 H315 0.950 . S
C291 N286 1.332 . S
C291 C290 1.382 . S
C291 H301 0.948 . S
N292 Co270 2.282 . S
N292 C296 1.332 . S
N292 C297 1.332 . S
C293 C294 1.388 . S
C293 C297 1.382 . S
C293 H316 0.950 . S
C294 C293 1.388 . S
C294 C295 1.386 . S
C295 C294 1.386 . S
C295 C296 1.382 . S
C295 H317 0.950 . S
C296 N292 1.332 . S
C296 C295 1.382 . S
C296 H298 0.952 . S
C297 N292 1.332 . S
C297 C293 1.382 . S
C297 H299 0.948 . S
H298 C296 0.952 . S
H299 C297 0.948 . S
H300 C289 0.952 . S
H301 C291 0.948 . S
C302 C268 1.395 . S
C302 C272 1.391 . S
C303 C265 1.389 . S
C303 C285 1.392 . S
C304 C275 1.392 . S
C304 C277 1.389 1_545 S
C305 C280 1.395 . S
C305 C282 1.391 . S
H306 C266 0.951 . S
H307 C267 0.950 . S
H308 C273 0.949 . S
H309 C274 0.950 . S
H310 C278 0.951 . S
H311 C279 0.950 . S
H312 C283 0.949 . S
H313 C284 0.950 . S
H314 C288 0.950 . S
H315 C290 0.950 . S
H316 C293 0.950 . S
H317 C295 0.950 . S
C318 C319 1.443 . S
C318 N322 1.376 . S
C318 C356 1.389 . S
C319 C318 1.443 . S
C319 C320 1.340 . S
C319 H359 0.951 . S
C320 C319 1.340 . S
C320 C321 1.439 . S
C320 H360 0.950 . S
C321 C320 1.439 . S
C321 N322 1.374 . S
C321 C355 1.395 . S
N322 C318 1.376 . S
N322 C321 1.374 . S
N322 Co323 2.008 . S
Co323 N322 2.008 . S
Co323 N324 1.995 . S
Co323 N329 2.027 . S
Co323 N334 1.995 . S
Co323 N339 2.282 . S
Co323 N345 2.282 . S
N324 Co323 1.995 . S
N324 C325 1.376 . S
N324 C328 1.383 . S
C325 N324 1.376 . S
C325 C326 1.446 . S
C325 C355 1.391 . S
C326 C325 1.446 . S
C326 C327 1.339 . S
C326 H361 0.949 . S
C327 C326 1.339 . S
C327 C328 1.439 . S
C327 H362 0.950 . S
C328 N324 1.383 . S
C328 C327 1.439 . S
C328 C357 1.392 . S
N329 Co323 2.027 . S
N329 C330 1.372 1_655 S
N329 C333 1.357 1_655 S
C330 N329 1.372 1_455 S
C330 C331 1.443 . S
C330 C357 1.389 1_455 S
C331 C330 1.443 . S
C331 C332 1.340 . S
C331 H363 0.951 . S
C332 C331 1.340 . S
C332 C333 1.439 . S
C332 H364 0.950 . S
C333 N329 1.357 1_455 S
C333 C332 1.439 . S
C333 C358 1.395 . S
N334 Co323 1.995 . S
N334 C335 1.376 1_655 S
N334 C338 1.383 . S
C335 N334 1.376 1_455 S
C335 C336 1.446 . S
C335 C358 1.391 . S
C336 C335 1.446 . S
C336 C337 1.339 1_455 S
C336 H365 0.949 . S
C337 C336 1.339 1_655 S
C337 C338 1.439 . S
C337 H366 0.950 . S
C338 N334 1.383 . S
C338 C337 1.439 . S
C338 C356 1.392 . S
N339 Co323 2.282 . S
N339 C342 1.332 . S
N339 C344 1.332 . S
C340 C341 1.386 . S
C340 C343 1.388 . S
C341 C340 1.386 . S
C341 C342 1.382 . S
C341 H367 0.950 . S
C342 N339 1.332 . S
C342 C341 1.382 . S
C342 H353 0.952 . S
C343 C340 1.388 . S
C343 C344 1.382 . S
C343 H368 0.950 . S
C344 N339 1.332 . S
C344 C343 1.382 . S
C344 H354 0.948 . S
N345 Co323 2.282 . S
N345 C349 1.332 . S
N345 C350 1.332 . S
C346 C347 1.388 . S
C346 C350 1.382 . S
C346 H369 0.950 . S
C347 C346 1.388 . S
C347 C348 1.386 . S
C348 C347 1.386 . S
C348 C349 1.382 . S
C348 H370 0.950 . S
C349 N345 1.332 . S
C349 C348 1.382 . S
C349 H351 0.952 . S
C350 N345 1.332 . S
C350 C346 1.382 . S
C350 H352 0.948 . S
H351 C349 0.952 . S
H352 C350 0.948 . S
H353 C342 0.952 . S
H354 C344 0.948 . S
C355 C321 1.395 . S
C355 C325 1.391 . S
C356 C318 1.389 . S
C356 C338 1.392 . S
C357 C328 1.392 . S
C357 C330 1.389 1_655 S
C358 C333 1.395 . S
C358 C335 1.391 . S
H359 C319 0.951 . S
H360 C320 0.950 . S
H361 C326 0.949 . S
H362 C327 0.950 . S
H363 C331 0.951 . S
H364 C332 0.950 . S
H365 C336 0.949 . S
H366 C337 0.950 . S
H367 C341 0.950 . S
H368 C343 0.950 . S
H369 C346 0.950 . S
H370 C348 0.950 . S
C371 C372 1.443 . S
C371 N375 1.376 . S
C371 C409 1.389 . S
C372 C371 1.443 . S
C372 C373 1.340 . S
C372 H412 0.951 . S
C373 C372 1.340 . S
C373 C374 1.439 . S
C373 H413 0.950 . S
C374 C373 1.439 . S
C374 N375 1.374 . S
C374 C408 1.395 . S
N375 C371 1.376 . S
N375 C374 1.374 . S
N375 Co376 2.008 . S
Co376 N375 2.008 . S
Co376 N377 1.995 . S
Co376 N382 2.027 . S
Co376 N387 1.995 . S
Co376 N392 2.282 . S
Co376 N398 2.282 . S
N377 Co376 1.995 . S
N377 C378 1.376 . S
N377 C381 1.383 . S
C378 N377 1.376 . S
C378 C379 1.446 . S
C378 C408 1.391 . S
C379 C378 1.446 . S
C379 C380 1.339 . S
C379 H414 0.949 . S
C380 C379 1.339 . S
C380 C381 1.439 . S
C380 H415 0.950 . S
C381 N377 1.383 . S
C381 C380 1.439 . S
C381 C410 1.392 . S
N382 Co376 2.027 . S
N382 C383 1.372 1_565 S
N382 C386 1.357 1_565 S
C383 N382 1.372 1_545 S
C383 C384 1.443 . S
C383 C410 1.389 1_545 S
C384 C383 1.443 . S
C384 C385 1.340 . S
C384 H416 0.951 . S
C385 C384 1.340 . S
C385 C386 1.439 . S
C385 H417 0.950 . S
C386 N382 1.357 1_545 S
C386 C385 1.439 . S
C386 C411 1.395 . S
N387 Co376 1.995 . S
N387 C388 1.376 1_565 S
N387 C391 1.383 . S
C388 N387 1.376 1_545 S
C388 C389 1.446 . S
C388 C411 1.391 . S
C389 C388 1.446 . S
C389 C390 1.339 1_545 S
C389 H418 0.949 . S
C390 C389 1.339 1_565 S
C390 C391 1.439 . S
C390 H419 0.950 . S
C391 N387 1.383 . S
C391 C390 1.439 . S
C391 C409 1.392 . S
N392 Co376 2.282 . S
N392 C395 1.332 . S
N392 C397 1.332 . S
C393 C394 1.386 . S
C393 C396 1.388 . S
C394 C393 1.386 . S
C394 C395 1.382 . S
C394 H420 0.950 . S
C395 N392 1.332 . S
C395 C394 1.382 . S
C395 H406 0.952 . S
C396 C393 1.388 . S
C396 C397 1.382 . S
C396 H421 0.950 . S
C397 N392 1.332 . S
C397 C396 1.382 . S
C397 H407 0.948 . S
N398 Co376 2.282 . S
N398 C402 1.332 . S
N398 C403 1.332 . S
C399 C400 1.388 . S
C399 C403 1.382 . S
C399 H422 0.950 . S
C400 C399 1.388 . S
C400 C401 1.386 . S
C401 C400 1.386 . S
C401 C402 1.382 . S
C401 H423 0.950 . S
C402 N398 1.332 . S
C402 C401 1.382 . S
C402 H404 0.952 . S
C403 N398 1.332 . S
C403 C399 1.382 . S
C403 H405 0.948 . S
H404 C402 0.952 . S
H405 C403 0.948 . S
H406 C395 0.952 . S
H407 C397 0.948 . S
C408 C374 1.395 . S
C408 C378 1.391 . S
C409 C371 1.389 . S
C409 C391 1.392 . S
C410 C381 1.392 . S
C410 C383 1.389 1_565 S
C411 C386 1.395 . S
C411 C388 1.391 . S
H412 C372 0.951 . S
H413 C373 0.950 . S
H414 C379 0.949 . S
H415 C380 0.950 . S
H416 C384 0.951 . S
H417 C385 0.950 . S
H418 C389 0.949 . S
H419 C390 0.950 . S
H420 C394 0.950 . S
H421 C396 0.950 . S
H422 C399 0.950 . S
H423 C401 0.950 . S
C424 C425 1.369 . S
C424 C426 1.419 1_455 S
C424 H428 0.930 . S
C425 C424 1.369 . S
C425 C434 1.429 . S
C426 C424 1.419 1_655 S
C426 C427 1.363 . S
C426 H429 0.929 . S
C427 C426 1.363 . S
C427 C433 1.428 . S
H428 C424 0.930 . S
H429 C426 0.929 . S
S430 N431 1.613 . S
S430 N432 1.610 1_455 S
N431 S430 1.613 . S
N431 C434 1.350 . S
N432 S430 1.610 1_655 S
N432 C433 1.351 . S
C433 C427 1.428 . S
C433 N432 1.351 . S
C433 C434 1.434 1_655 S
C434 C425 1.429 . S
C434 N431 1.350 . S
C434 C433 1.434 1_455 S
C435 C436 1.369 . S
C435 C437 1.419 1_565 S
C435 H439 0.930 . S
C436 C435 1.369 . S
C436 C445 1.429 . S
C437 C435 1.419 1_545 S
C437 C438 1.363 . S
C437 H440 0.929 . S
C438 C437 1.363 . S
C438 C444 1.428 . S
H439 C435 0.930 . S
H440 C437 0.929 . S
S441 N442 1.613 1_545 S
S441 N443 1.610 . S
N442 S441 1.613 1_565 S
N442 C445 1.350 . S
N443 S441 1.610 . S
N443 C444 1.351 . S
C444 C438 1.428 . S
C444 N443 1.351 . S
C444 C445 1.434 1_545 S
C445 C436 1.429 . S
C445 N442 1.350 . S
C445 C444 1.434 1_565 S
C446 C447 1.369 . S
C446 C448 1.419 . S
C446 H450 0.930 . S
C447 C446 1.369 . S
C447 C456 1.429 1_655 S
C448 C446 1.419 . S
C448 C449 1.363 1_655 S
C448 H451 0.929 . S
C449 C448 1.363 1_455 S
C449 C455 1.428 . S
H450 C446 0.930 . S
H451 C448 0.929 . S
S452 N453 1.613 . S
S452 N454 1.610 . S
N453 S452 1.613 . S
N453 C456 1.350 . S
N454 S452 1.610 . S
N454 C455 1.351 . S
C455 C449 1.428 . S
C455 N454 1.351 . S
C455 C456 1.434 . S
C456 C447 1.429 1_455 S
C456 N453 1.350 . S
C456 C455 1.434 . S
C457 C458 1.369 1_565 S
C457 C459 1.419 . S
C457 H461 0.930 . S
C458 C457 1.369 1_545 S
C458 C467 1.429 . S
C459 C457 1.419 . S
C459 C460 1.363 . S
C459 H462 0.929 . S
C460 C459 1.363 . S
C460 C466 1.428 1_565 S
H461 C457 0.930 . S
H462 C459 0.929 . S
S463 N464 1.613 . S
S463 N465 1.610 . S
N464 S463 1.613 . S
N464 C467 1.350 . S
N465 S463 1.610 . S
N465 C466 1.351 . S
C466 C460 1.428 1_545 S
C466 N465 1.351 . S
C466 C467 1.434 . S
C467 C458 1.429 . S
C467 N464 1.350 . S
C467 C466 1.434 . S
C468 C469 1.369 1_455 S
C468 C470 1.419 1_556 S
C468 H472 0.930 . S
C469 C468 1.369 1_655 S
C469 C478 1.429 . S
C470 C468 1.419 1_554 S
C470 C471 1.363 . S
C470 H473 0.929 . S
C471 C470 1.363 . S
C471 C477 1.428 1_455 S
H472 C468 0.930 . S
H473 C470 0.929 . S
S474 N475 1.613 1_554 S
S474 N476 1.610 . S
N475 S474 1.613 1_556 S
N475 C478 1.350 . S
N476 S474 1.610 . S
N476 C477 1.351 . S
C477 C471 1.428 1_655 S
C477 N476 1.351 . S
C477 C478 1.434 1_554 S
C478 C469 1.429 . S
C478 N475 1.350 . S
C478 C477 1.434 1_556 S
C479 C480 1.369 1_565 S
C479 C481 1.419 . S
C479 H483 0.930 . S
C480 C479 1.369 1_545 S
C480 C489 1.429 . S
C481 C479 1.419 . S
C481 C482 1.363 . S
C481 H484 0.929 . S
C482 C481 1.363 . S
C482 C488 1.428 1_565 S
H483 C479 0.930 . S
H484 C481 0.929 . S
S485 N486 1.613 . S
S485 N487 1.610 . S
N486 S485 1.613 . S
N486 C489 1.350 . S
N487 S485 1.610 . S
N487 C488 1.351 . S
C488 C482 1.428 1_545 S
C488 N487 1.351 . S
C488 C489 1.434 . S
C489 C480 1.429 . S
C489 N486 1.350 . S
C489 C488 1.434 . S
C490 C491 1.369 1_455 S
C490 C492 1.419 1_554 S
C490 H494 0.930 . S
C491 C490 1.369 1_655 S
C491 C500 1.429 . S
C492 C490 1.419 1_556 S
C492 C493 1.363 . S
C492 H495 0.929 . S
C493 C492 1.363 . S
C493 C499 1.428 1_455 S
H494 C490 0.930 . S
H495 C492 0.929 . S
S496 N497 1.613 1_556 S
S496 N498 1.610 . S
N497 S496 1.613 1_554 S
N497 C500 1.350 . S
N498 S496 1.610 . S
N498 C499 1.351 . S
C499 C493 1.428 1_655 S
C499 N498 1.351 . S
C499 C500 1.434 1_556 S
C500 C491 1.429 . S
C500 N497 1.350 . S
C500 C499 1.434 1_554 S
C501 C502 1.369 1_565 S
C501 C503 1.419 . S
C501 H505 0.930 . S
C502 C501 1.369 1_545 S
C502 C511 1.429 . S
C503 C501 1.419 . S
C503 C504 1.363 . S
C503 H506 0.929 . S
C504 C503 1.363 . S
C504 C510 1.428 1_565 S
H505 C501 0.930 . S
H506 C503 0.929 . S
S507 N508 1.613 . S
S507 N509 1.610 . S
N508 S507 1.613 . S
N508 C511 1.350 . S
N509 S507 1.610 . S
N509 C510 1.351 . S
C510 C504 1.428 1_545 S
C510 N509 1.351 . S
C510 C511 1.434 . S
C511 C502 1.429 . S
C511 N508 1.350 . S
C511 C510 1.434 . S
C512 C513 1.369 . S
C512 C514 1.419 . S
C512 H516 0.930 . S
C513 C512 1.369 . S
C513 C522 1.429 . S
C514 C512 1.419 . S
C514 C515 1.363 . S
C514 H517 0.929 . S
C515 C514 1.363 . S
C515 C521 1.428 . S
H516 C512 0.930 . S
H517 C514 0.929 . S
S518 N519 1.613 . S
S518 N520 1.610 . S
N519 S518 1.613 . S
N519 C522 1.350 . S
N520 S518 1.610 . S
N520 C521 1.351 . S
C521 C515 1.428 . S
C521 N520 1.351 . S
C521 C522 1.434 . S
C522 C513 1.429 . S
C522 N519 1.350 . S
C522 C521 1.434 . S
C523 C524 1.369 . S
C523 C525 1.419 . S
C523 H527 0.930 . S
C524 C523 1.369 . S
C524 C533 1.429 . S
C525 C523 1.419 . S
C525 C526 1.363 . S
C525 H528 0.929 . S
C526 C525 1.363 . S
C526 C532 1.428 . S
H527 C523 0.930 . S
H528 C525 0.929 . S
S529 N530 1.613 . S
S529 N531 1.610 . S
N530 S529 1.613 . S
N530 C533 1.350 . S
N531 S529 1.610 . S
N531 C532 1.351 . S
C532 C526 1.428 . S
C532 N531 1.351 . S
C532 C533 1.434 . S
C533 C524 1.429 . S
C533 N530 1.350 . S
C533 C532 1.434 . S
C534 C535 1.369 . S
C534 C536 1.419 . S
C534 H538 0.930 . S
C535 C534 1.369 . S
C535 C544 1.429 . S
C536 C534 1.419 . S
C536 C537 1.363 . S
C536 H539 0.929 . S
C537 C536 1.363 . S
C537 C543 1.428 . S
H538 C534 0.930 . S
H539 C536 0.929 . S
S540 N541 1.613 . S
S540 N542 1.610 . S
N541 S540 1.613 . S
N541 C544 1.350 . S
N542 S540 1.610 . S
N542 C543 1.351 . S
C543 C537 1.428 . S
C543 N542 1.351 . S
C543 C544 1.434 . S
C544 C535 1.429 . S
C544 N541 1.350 . S
C544 C543 1.434 . S
C545 C546 1.369 . S
C545 C547 1.419 . S
C545 H549 0.930 . S
C546 C545 1.369 . S
C546 C555 1.429 . S
C547 C545 1.419 . S
C547 C548 1.363 . S
C547 H550 0.929 . S
C548 C547 1.363 . S
C548 C554 1.428 . S
H549 C545 0.930 . S
H550 C547 0.929 . S
S551 N552 1.613 . S
S551 N553 1.610 . S
N552 S551 1.613 . S
N552 C555 1.350 . S
N553 S551 1.610 . S
N553 C554 1.351 . S
C554 C548 1.428 . S
C554 N553 1.351 . S
C554 C555 1.434 . S
C555 C546 1.429 . S
C555 N552 1.350 . S
C555 C554 1.434 . S
C556 C557 1.369 . S
C556 C558 1.419 1_445 S
C556 H560 0.930 . S
C557 C556 1.369 . S
C557 C566 1.429 . S
C558 C556 1.419 1_665 S
C558 C559 1.363 . S
C558 H561 0.929 . S
C559 C558 1.363 . S
C559 C565 1.428 . S
H560 C556 0.930 . S
H561 C558 0.929 . S
S562 N563 1.635 . S
S562 N564 1.632 . S
N563 S562 1.635 . S
N563 C566 1.349 1_655 S
N564 S562 1.632 . S
N564 C565 1.350 1_545 S
C565 C559 1.428 . S
C565 N564 1.350 1_565 S
C565 C566 1.434 1_665 S
C566 C557 1.429 . S
C566 N563 1.349 1_455 S
C566 C565 1.434 1_445 S
C567 C568 1.369 . S
C567 C569 1.419 1_465 S
C567 H571 0.930 . S
C568 C567 1.369 . S
C568 C577 1.429 . S
C569 C567 1.419 1_645 S
C569 C570 1.363 . S
C569 H572 0.929 . S
C570 C569 1.363 . S
C570 C576 1.428 . S
H571 C567 0.930 . S
H572 C569 0.929 . S
S573 N574 1.611 1_655 S
S573 N575 1.610 1_565 S
N574 S573 1.611 1_455 S
N574 C577 1.350 . S
N575 S573 1.610 1_545 S
N575 C576 1.351 . S
C576 C570 1.428 . S
C576 N575 1.351 . S
C576 C577 1.434 1_645 S
C577 C568 1.429 . S
C577 N574 1.350 . S
C577 C576 1.434 1_465 S
C578 C579 1.369 1_455 S
C578 C580 1.419 . S
C578 H582 0.930 . S
C579 C578 1.369 1_655 S
C579 C588 1.429 1_545 S
C580 C578 1.419 . S
C580 C581 1.363 1_545 S
C580 H583 0.929 . S
C581 C580 1.363 1_565 S
C581 C587 1.428 1_455 S
H582 C578 0.930 . S
H583 C580 0.929 . S
S584 N585 1.613 . S
S584 N586 1.610 . S
N585 S584 1.613 . S
N585 C588 1.350 . S
N586 S584 1.610 . S
N586 C587 1.351 . S
C587 C581 1.428 1_655 S
C587 N586 1.351 . S
C587 C588 1.434 . S
C588 C579 1.429 1_565 S
C588 N585 1.350 . S
C588 C587 1.434 . S
C589 C590 1.369 . S
C589 C591 1.419 1_665 S
C589 H593 0.930 . S
C590 C589 1.369 . S
C590 C599 1.429 . S
C591 C589 1.419 1_445 S
C591 C592 1.363 . S
C591 H594 0.929 . S
C592 C591 1.363 . S
C592 C598 1.428 . S
H593 C589 0.930 . S
H594 C591 0.929 . S
S595 N596 1.613 1_545 S
S595 N597 1.610 1_655 S
N596 S595 1.613 1_565 S
N596 C599 1.350 . S
N597 S595 1.610 1_455 S
N597 C598 1.351 . S
C598 C592 1.428 . S
C598 N597 1.351 . S
C598 C599 1.434 1_445 S
C599 C590 1.429 . S
C599 N596 1.350 . S
C599 C598 1.434 1_665 S
C425 C22 1.958 . S
C427 C128 1.959 . S
C436 C181 1.961 . S
C438 C75 1.959 . S
C447 C340 1.957 . S
C449 C234 1.962 . S
C458 C287 1.962 . S
C460 C393 1.956 . S
C469 C357 1.774 . S
C471 C39 1.776 . S
C480 C92 1.771 . S
C482 C410 1.773 . S
C491 C145 1.776 . S
C493 C251 1.776 . S
C502 C304 1.773 . S
C504 C198 1.775 . S
C513 C38 1.875 . S
C515 C303 1.868 . S
C524 C356 1.871 . S
C526 C91 1.872 . S
C535 C409 1.870 . S
C537 C144 1.872 . S
C546 C197 1.868 . S
C548 C250 1.874 . S
C557 C29 1.787 . S
C559 C135 1.789 . S
C568 C188 1.792 . S
C570 C82 1.785 . S
C579 C347 1.790 . S
C581 C241 1.785 . S
C590 C400 1.790 . S
C592 C294 1.787 . S
