# Generated by pormake.
# Topology unb, (4)-cn, num edge types: 1
# Building blocks:
#     Node 0, Type 0, BuildingBlock: GALJAG_clean_sbu_0, # of connection points: 4
#     Node 1, Type 0, BuildingBlock: GALJAG_clean_sbu_0, # of connection points: 4
#     Node 2, Type 0, BuildingBlock: GALJAG_clean_sbu_0, # of connection points: 4
#     Node 3, Type 0, BuildingBlock: GALJAG_clean_sbu_0, # of connection points: 4
#     Node 4, Type 0, BuildingBlock: GALJAG_clean_sbu_0, # of connection points: 4
#     Node 5, Type 0, BuildingBlock: GALJAG_clean_sbu_0, # of connection points: 4
#     Node 6, Type 0, BuildingBlock: GALJAG_clean_sbu_0, # of connection points: 4
#     Node 7, Type 0, BuildingBlock: GALJAG_clean_sbu_0, # of connection points: 4
#     Node 8, Type 0, BuildingBlock: GALJAG_clean_sbu_0, # of connection points: 4
#     Node 9, Type 0, BuildingBlock: GALJAG_clean_sbu_0, # of connection points: 4
#     Node 10, Type 0, BuildingBlock: GALJAG_clean_sbu_0, # of connection points: 4
#     Node 11, Type 0, BuildingBlock: GALJAG_clean_sbu_0, # of connection points: 4
#     Node 12, Type 0, BuildingBlock: GALJAG_clean_sbu_0, # of connection points: 4
#     Node 13, Type 0, BuildingBlock: GALJAG_clean_sbu_0, # of connection points: 4
#     Node 14, Type 0, BuildingBlock: GALJAG_clean_sbu_0, # of connection points: 4
#     Node 15, Type 0, BuildingBlock: GALJAG_clean_sbu_0, # of connection points: 4
#     Node 16, Type 0, BuildingBlock: GALJAG_clean_sbu_0, # of connection points: 4
#     Node 17, Type 0, BuildingBlock: GALJAG_clean_sbu_0, # of connection points: 4
#     Edge 18, Type (0, 0), BuildingBlock: AJUNOK_clean_linker_0, # of connection points: 2
#     Edge 19, Type (0, 0), BuildingBlock: AJUNOK_clean_linker_0, # of connection points: 2
#     Edge 20, Type (0, 0), BuildingBlock: AJUNOK_clean_linker_0, # of connection points: 2
#     Edge 21, Type (0, 0), BuildingBlock: AJUNOK_clean_linker_0, # of connection points: 2
#     Edge 22, Type (0, 0), BuildingBlock: AJUNOK_clean_linker_0, # of connection points: 2
#     Edge 23, Type (0, 0), BuildingBlock: AJUNOK_clean_linker_0, # of connection points: 2
#     Edge 24, Type (0, 0), BuildingBlock: AJUNOK_clean_linker_0, # of connection points: 2
#     Edge 25, Type (0, 0), BuildingBlock: AJUNOK_clean_linker_0, # of connection points: 2
#     Edge 26, Type (0, 0), BuildingBlock: AJUNOK_clean_linker_0, # of connection points: 2
#     Edge 27, Type (0, 0), BuildingBlock: AJUNOK_clean_linker_0, # of connection points: 2
#     Edge 28, Type (0, 0), BuildingBlock: AJUNOK_clean_linker_0, # of connection points: 2
#     Edge 29, Type (0, 0), BuildingBlock: AJUNOK_clean_linker_0, # of connection points: 2
#     Edge 30, Type (0, 0), BuildingBlock: AJUNOK_clean_linker_0, # of connection points: 2
#     Edge 31, Type (0, 0), BuildingBlock: AJUNOK_clean_linker_0, # of connection points: 2
#     Edge 32, Type (0, 0), BuildingBlock: AJUNOK_clean_linker_0, # of connection points: 2
#     Edge 33, Type (0, 0), BuildingBlock: AJUNOK_clean_linker_0, # of connection points: 2
#     Edge 34, Type (0, 0), BuildingBlock: AJUNOK_clean_linker_0, # of connection points: 2
#     Edge 35, Type (0, 0), BuildingBlock: AJUNOK_clean_linker_0, # of connection points: 2
#     Edge 36, Type (0, 0), BuildingBlock: AJUNOK_clean_linker_0, # of connection points: 2
#     Edge 37, Type (0, 0), BuildingBlock: AJUNOK_clean_linker_0, # of connection points: 2
#     Edge 38, Type (0, 0), BuildingBlock: AJUNOK_clean_linker_0, # of connection points: 2
#     Edge 39, Type (0, 0), BuildingBlock: AJUNOK_clean_linker_0, # of connection points: 2
#     Edge 40, Type (0, 0), BuildingBlock: AJUNOK_clean_linker_0, # of connection points: 2
#     Edge 41, Type (0, 0), BuildingBlock: AJUNOK_clean_linker_0, # of connection points: 2
#     Edge 42, Type (0, 0), BuildingBlock: AJUNOK_clean_linker_0, # of connection points: 2
#     Edge 43, Type (0, 0), BuildingBlock: AJUNOK_clean_linker_0, # of connection points: 2
#     Edge 44, Type (0, 0), BuildingBlock: AJUNOK_clean_linker_0, # of connection points: 2
#     Edge 45, Type (0, 0), BuildingBlock: AJUNOK_clean_linker_0, # of connection points: 2
#     Edge 46, Type (0, 0), BuildingBlock: AJUNOK_clean_linker_0, # of connection points: 2
#     Edge 47, Type (0, 0), BuildingBlock: AJUNOK_clean_linker_0, # of connection points: 2
#     Edge 48, Type (0, 0), BuildingBlock: AJUNOK_clean_linker_0, # of connection points: 2
#     Edge 49, Type (0, 0), BuildingBlock: AJUNOK_clean_linker_0, # of connection points: 2
#     Edge 50, Type (0, 0), BuildingBlock: AJUNOK_clean_linker_0, # of connection points: 2
#     Edge 51, Type (0, 0), BuildingBlock: AJUNOK_clean_linker_0, # of connection points: 2
#     Edge 52, Type (0, 0), BuildingBlock: AJUNOK_clean_linker_0, # of connection points: 2
#     Edge 53, Type (0, 0), BuildingBlock: AJUNOK_clean_linker_0, # of connection points: 2
# Relax obj value: 0.185
# Max RMSD: 0.139
# Mean RMSD: 0.139
data_MOF--net-unb--node1-GALJAG_clean_sbu_0--edge1-AJUNOK_clean_linker_0
_symmetry_space_group_name_H-M    P1
_symmetry_Int_Tables_number       1
_symmetry_cell_setting            triclinic
loop_
_symmetry_equiv_pos_as_xyz
'x, y, z'
_cell_length_a     45.769531
_cell_length_b     45.85063
_cell_length_c     19.883163
_cell_angle_alpha  89.913033
_cell_angle_beta   90.104573
_cell_angle_gamma 120.06785
loop_
_atom_site_label
_atom_site_type_symbol
_atom_site_fract_x
_atom_site_fract_y
_atom_site_fract_z
_atom_type_partial_charge
In0 In 0.13267 0.2684 0.07523 0.0
O1 O 0.1511 0.31411 0.14438 0.0
O2 O 0.13655 0.26707 0.19024 0.0
C3 C 0.147 0.29971 0.95572 0.0
C4 C 0.16894 0.23773 0.05322 0.0
C5 C 0.06516 0.23713 0.0595 0.0
O6 O 0.16085 0.31532 0.00942 0.0
O7 O 0.12641 0.26877 0.96305 0.0
O8 O 0.08069 0.22123 0.06929 0.0
O9 O 0.08337 0.26874 0.06358 0.0
C10 C 0.14777 0.29822 0.19824 0.0
O11 O 0.13824 0.22178 0.07009 0.0
O12 O 0.1819 0.26932 0.05242 0.0
In13 In 0.73122 0.8654 0.08452 0.0
O14 O 0.77923 0.91678 0.08438 0.0
O15 O 0.73266 0.91531 0.06873 0.0
C16 C 0.76126 0.82858 0.06203 0.0
C17 C 0.70092 0.8501 0.20734 0.0
C18 C 0.69984 0.8505 0.96471 0.0
O19 O 0.77774 0.85959 0.07587 0.0
O20 O 0.72963 0.81577 0.06428 0.0
O21 O 0.68402 0.83765 0.01876 0.0
O22 O 0.73096 0.87053 0.97189 0.0
C23 C 0.76444 0.93291 0.06965 0.0
O24 O 0.6857 0.84931 0.15388 0.0
O25 O 0.73165 0.85913 0.19908 0.0
In26 In 0.12706 0.8625 0.0903 0.0
O27 O 0.07462 0.85761 0.08212 0.0
O28 O 0.07996 0.81577 0.05504 0.0
C29 C 0.15555 0.92891 0.06277 0.0
C30 C 0.14104 0.84767 0.21487 0.0
C31 C 0.15045 0.84655 0.98057 0.0
O32 O 0.12432 0.90865 0.05582 0.0
O33 O 0.17176 0.91601 0.0883 0.0
O34 O 0.12629 0.82471 0.01507 0.0
O35 O 0.16411 0.87591 0.00406 0.0
C36 C 0.06085 0.82813 0.05805 0.0
O37 O 0.15331 0.84368 0.16152 0.0
O38 O 0.12161 0.8594 0.20581 0.0
In39 In 0.26273 0.12932 0.92258 0.0
O40 O 0.30953 0.1459 0.8574 0.0
O41 O 0.2642 0.13417 0.80707 0.0
C42 C 0.29324 0.14443 0.04321 0.0
C43 C 0.23428 0.16787 0.94139 0.0
C44 C 0.22784 0.06183 0.93985 0.0
O45 O 0.30976 0.15417 0.98894 0.0
O46 O 0.26171 0.12725 0.03599 0.0
O47 O 0.214 0.07823 0.92042 0.0
O48 O 0.25955 0.07908 0.94448 0.0
C49 C 0.29527 0.14397 0.80205 0.0
O50 O 0.21733 0.137 0.92655 0.0
O51 O 0.26581 0.17983 0.94142 0.0
In52 In 0.86335 0.13331 0.92408 0.0
O53 O 0.84796 0.16357 0.85656 0.0
O54 O 0.8565 0.12729 0.80899 0.0
C55 C 0.84356 0.14677 0.04099 0.0
C56 C 0.8311 0.06655 0.94932 0.0
C57 C 0.93062 0.17089 0.94229 0.0
O58 O 0.82898 0.14542 0.98611 0.0
O59 O 0.86811 0.14176 0.03615 0.0
O60 O 0.91641 0.14041 0.92417 0.0
O61 O 0.91122 0.18295 0.94536 0.0
C62 C 0.8481 0.14951 0.80236 0.0
O63 O 0.86209 0.08317 0.93494 0.0
O64 O 0.81587 0.083 0.94487 0.0
In65 In 0.85905 0.72568 0.91704 0.0
O66 O 0.90749 0.77492 0.94228 0.0
O67 O 0.91108 0.73126 0.92289 0.0
C68 C 0.82605 0.75906 0.94552 0.0
C69 C 0.84495 0.69671 0.79276 0.0
C70 C 0.84066 0.68849 0.03062 0.0
O71 O 0.85712 0.77434 0.93096 0.0
O72 O 0.81165 0.72745 0.94077 0.0
O73 O 0.81975 0.6909 0.99327 0.0
O74 O 0.87032 0.70281 0.00822 0.0
C75 C 0.9261 0.76184 0.94042 0.0
O76 O 0.84048 0.68044 0.84641 0.0
O77 O 0.85666 0.72786 0.80145 0.0
In78 In 0.79673 0.59585 0.41242 0.0
O79 O 0.81588 0.64308 0.47699 0.0
O80 O 0.80035 0.59699 0.52787 0.0
C81 C 0.8133 0.63464 0.3013 0.0
C82 C 0.83012 0.56174 0.39729 0.0
C83 C 0.72998 0.5563 0.38853 0.0
O84 O 0.78584 0.62465 0.33182 0.0
O85 O 0.83317 0.62697 0.32944 0.0
O86 O 0.74141 0.57849 0.43408 0.0
O87 O 0.75218 0.55289 0.35791 0.0
C88 C 0.81207 0.6284 0.5326 0.0
O89 O 0.79857 0.54688 0.40636 0.0
O90 O 0.84469 0.5934 0.40096 0.0
In91 In 0.39432 0.19483 0.41932 0.0
O92 O 0.34936 0.17893 0.48981 0.0
O93 O 0.3958 0.19009 0.53441 0.0
C94 C 0.36 0.17738 0.30285 0.0
C95 C 0.42791 0.26223 0.40064 0.0
C96 C 0.42415 0.15791 0.39562 0.0
O97 O 0.34533 0.16809 0.35908 0.0
O98 O 0.39166 0.19524 0.306 0.0
O99 O 0.44066 0.18916 0.40704 0.0
O100 O 0.3926 0.14487 0.40124 0.0
C101 C 0.36502 0.18069 0.54317 0.0
O102 O 0.44227 0.2465 0.42107 0.0
O103 O 0.39629 0.24437 0.39549 0.0
In104 In 0.79224 0.19224 0.41938 0.0
O105 O 0.81034 0.16509 0.48986 0.0
O106 O 0.79787 0.19945 0.53395 0.0
C107 C 0.80615 0.17416 0.3011 0.0
C108 C 0.72477 0.15594 0.40358 0.0
C109 C 0.82895 0.25857 0.3912 0.0
O110 O 0.82035 0.17308 0.35494 0.0
O111 O 0.78531 0.18422 0.30774 0.0
O112 O 0.79853 0.24473 0.40986 0.0
O113 O 0.84139 0.2395 0.39233 0.0
C114 C 0.80843 0.17903 0.54292 0.0
O115 O 0.7401 0.18727 0.4148 0.0
O116 O 0.74312 0.14269 0.40715 0.0
In117 In 0.92844 0.45911 0.25251 0.0
O118 O 0.97257 0.47358 0.18067 0.0
O119 O 0.9269 0.46593 0.13799 0.0
C120 C 0.96379 0.47622 0.3678 0.0
C121 C 0.89745 0.49443 0.28221 0.0
C122 C 0.89588 0.39173 0.26885 0.0
O123 O 0.97583 0.49252 0.31394 0.0
O124 O 0.93452 0.45117 0.36261 0.0
O125 O 0.88045 0.40783 0.2602 0.0
O126 O 0.92757 0.40934 0.26371 0.0
C127 C 0.95719 0.47367 0.12817 0.0
O128 O 0.88126 0.46404 0.26353 0.0
O129 O 0.92906 0.50739 0.28053 0.0
In130 In 0.52689 0.46171 0.25067 0.0
O131 O 0.52971 0.41606 0.28747 0.0
O132 O 0.48268 0.40763 0.25018 0.0
C133 C 0.59293 0.49418 0.2842 0.0
C134 C 0.51402 0.47819 0.12647 0.0
C135 C 0.50279 0.47803 0.35852 0.0
O136 O 0.58002 0.46803 0.24789 0.0
O137 O 0.57314 0.50476 0.29899 0.0
O138 O 0.5262 0.49994 0.32247 0.0
O139 O 0.49017 0.44827 0.33736 0.0
C140 C 0.49886 0.39526 0.27805 0.0
O141 O 0.50083 0.48104 0.17962 0.0
O142 O 0.5337 0.46678 0.13558 0.0
In143 In 0.52525 0.05808 0.25524 0.0
O144 O 0.51037 0.0135 0.18465 0.0
O145 O 0.52103 0.05977 0.14023 0.0
C146 C 0.50713 0.02418 0.37179 0.0
C147 C 0.59241 0.08961 0.27659 0.0
C148 C 0.48929 0.08898 0.2783 0.0
O149 O 0.4927 0.01064 0.31698 0.0
O150 O 0.53058 0.05429 0.367 0.0
O151 O 0.52002 0.10497 0.26161 0.0
O152 O 0.47625 0.05739 0.27802 0.0
C153 C 0.51212 0.02916 0.13134 0.0
O154 O 0.57697 0.10546 0.26486 0.0
O155 O 0.5744 0.05802 0.2715 0.0
In156 In 0.46087 0.92774 0.75147 0.0
O157 O 0.47616 0.97376 0.81757 0.0
O158 O 0.46786 0.92922 0.86649 0.0
C159 C 0.47312 0.95936 0.63247 0.0
C160 C 0.49939 0.89966 0.72716 0.0
C161 C 0.39317 0.89233 0.73844 0.0
O162 O 0.48937 0.9742 0.68493 0.0
O163 O 0.45095 0.92898 0.64063 0.0
O164 O 0.41076 0.87834 0.74475 0.0
O165 O 0.40947 0.92397 0.74485 0.0
C166 C 0.47608 0.95984 0.87224 0.0
O167 O 0.46934 0.88274 0.74778 0.0
O168 O 0.51063 0.93094 0.72377 0.0
In169 In 0.05964 0.52875 0.74891 0.0
O170 O 0.10722 0.58041 0.75547 0.0
O171 O 0.06089 0.57841 0.73269 0.0
C172 C 0.09378 0.49638 0.72101 0.0
C173 C 0.02679 0.51209 0.86923 0.0
C174 C 0.02798 0.51346 0.62938 0.0
O175 O 0.10827 0.52707 0.73727 0.0
O176 O 0.06201 0.48133 0.72442 0.0
O177 O 0.01465 0.49562 0.68108 0.0
O178 O 0.05668 0.53878 0.63878 0.0
C179 C 0.09254 0.59639 0.73843 0.0
O180 O 0.01334 0.51353 0.81499 0.0
O181 O 0.05719 0.51945 0.8632 0.0
In182 In 0.46557 0.52973 0.74414 0.0
O183 O 0.41601 0.52991 0.73071 0.0
O184 O 0.4151 0.48344 0.71974 0.0
C185 C 0.49687 0.59668 0.72227 0.0
C186 C 0.48261 0.51506 0.86601 0.0
C187 C 0.48135 0.51053 0.62833 0.0
O188 O 0.46538 0.5791 0.73143 0.0
O189 O 0.51265 0.5808 0.72923 0.0
O190 O 0.4611 0.48961 0.67036 0.0
O191 O 0.49508 0.54078 0.64678 0.0
C192 C 0.39906 0.49909 0.71533 0.0
O193 O 0.49508 0.51296 0.81123 0.0
O194 O 0.46151 0.52495 0.85985 0.0
In195 In 0.5994 0.79855 0.5877 0.0
O196 O 0.64437 0.81101 0.51996 0.0
O197 O 0.60077 0.80613 0.4726 0.0
C198 C 0.63336 0.81622 0.70475 0.0
C199 C 0.56845 0.83452 0.61046 0.0
C200 C 0.56505 0.73114 0.60552 0.0
O201 O 0.64717 0.82975 0.64958 0.0
O202 O 0.6027 0.79392 0.70033 0.0
O203 O 0.5507 0.74754 0.5895 0.0
O204 O 0.59684 0.74837 0.60669 0.0
C205 C 0.63079 0.81236 0.46587 0.0
O206 O 0.5525 0.80371 0.59491 0.0
O207 O 0.60012 0.84773 0.6094 0.0
In208 In 0.19158 0.79765 0.59653 0.0
O209 O 0.16334 0.81613 0.5302 0.0
O210 O 0.19457 0.80137 0.48057 0.0
C211 C 0.17405 0.81641 0.71056 0.0
C212 C 0.16188 0.73108 0.62309 0.0
C213 C 0.25833 0.82879 0.6228 0.0
O214 O 0.19645 0.83729 0.67155 0.0
O215 O 0.15911 0.78647 0.68981 0.0
O216 O 0.24233 0.79911 0.5999 0.0
O217 O 0.24117 0.84327 0.62713 0.0
C218 C 0.17461 0.8127 0.47502 0.0
O219 O 0.19351 0.75021 0.6228 0.0
O220 O 0.14541 0.74515 0.60523 0.0
In221 In 0.19732 0.39935 0.57858 0.0
O222 O 0.18333 0.35374 0.51195 0.0
O223 O 0.19072 0.39795 0.46332 0.0
C224 C 0.1802 0.36563 0.69567 0.0
C225 C 0.26488 0.43351 0.59625 0.0
C226 C 0.16185 0.4309 0.60108 0.0
O227 O 0.16518 0.35228 0.64126 0.0
O228 O 0.20376 0.39569 0.69046 0.0
O229 O 0.19208 0.44623 0.58123 0.0
O230 O 0.14876 0.39933 0.60422 0.0
C231 C 0.1832 0.36756 0.45734 0.0
O232 O 0.24818 0.44801 0.58418 0.0
O233 O 0.24784 0.40177 0.59379 0.0
C234 C 0.1759 0.36642 0.33208 0.0
C235 C 0.17432 0.34933 0.39199 0.0
C236 C 0.16729 0.34967 0.26989 0.0
C237 C 0.1566 0.31509 0.26501 0.0
H238 H 0.18386 0.39299 0.33308 0.0
H239 H 0.16898 0.36402 0.22528 0.0
S240 S 0.14805 0.25863 0.4069 0.0
N241 N 0.16123 0.2957 0.44239 0.0
N242 N 0.14499 0.26434 0.32578 0.0
C243 C 0.15488 0.29767 0.32452 0.0
C244 C 0.16376 0.31474 0.38786 0.0
C245 C 0.63294 0.82354 0.3417 0.0
C246 C 0.64903 0.82149 0.40043 0.0
C247 C 0.64992 0.83284 0.27971 0.0
C248 C 0.68374 0.84059 0.27386 0.0
H249 H 0.60701 0.81802 0.34354 0.0
H250 H 0.63637 0.83404 0.23605 0.0
S251 S 0.7373 0.83858 0.4122 0.0
N252 N 0.70081 0.82766 0.44842 0.0
N253 N 0.73258 0.84516 0.33231 0.0
C254 C 0.70011 0.83853 0.33212 0.0
C255 C 0.68281 0.82897 0.39521 0.0
C256 C 0.17928 0.81776 0.34941 0.0
C257 C 0.1654 0.82161 0.40949 0.0
C258 C 0.17122 0.82627 0.28699 0.0
C259 C 0.14896 0.83901 0.28198 0.0
H260 H 0.19659 0.80813 0.35047 0.0
H261 H 0.18264 0.82282 0.24227 0.0
S262 S 0.10555 0.85377 0.42417 0.0
N263 N 0.12808 0.83899 0.45993 0.0
N264 N 0.11303 0.85493 0.34275 0.0
C265 C 0.13483 0.84295 0.34161 0.0
C266 C 0.14302 0.83427 0.40526 0.0
C267 C 0.31349 0.16096 0.61492 0.0
C268 C 0.34814 0.1717 0.61 0.0
C269 C 0.29662 0.15189 0.67698 0.0
C270 C 0.31368 0.15318 0.73683 0.0
H271 H 0.29913 0.15948 0.5704 0.0
H272 H 0.26999 0.14389 0.67794 0.0
S273 S 0.40453 0.1794 0.75163 0.0
N274 N 0.39892 0.18296 0.67065 0.0
N275 N 0.36736 0.16599 0.78709 0.0
C276 C 0.34836 0.16384 0.73268 0.0
C277 C 0.36553 0.17307 0.66941 0.0
C278 C 0.82843 0.1478 0.61576 0.0
C279 C 0.81833 0.17211 0.60976 0.0
C280 C 0.83818 0.1408 0.67797 0.0
C281 C 0.83832 0.15787 0.7368 0.0
H282 H 0.82877 0.13392 0.57202 0.0
H283 H 0.84556 0.12177 0.67987 0.0
S284 S 0.81457 0.22425 0.74841 0.0
N285 N 0.80939 0.21352 0.66822 0.0
N286 N 0.82772 0.20051 0.78487 0.0
C287 C 0.82843 0.18239 0.73151 0.0
C288 C 0.81844 0.18945 0.66814 0.0
C289 C 0.82373 0.64516 0.72088 0.0
C290 C 0.8369 0.68022 0.72561 0.0
C291 C 0.81579 0.62869 0.65845 0.0
C292 C 0.82067 0.64656 0.59803 0.0
H293 H 0.81947 0.63019 0.76585 0.0
H294 H 0.80574 0.6017 0.65768 0.0
S295 S 0.85451 0.73878 0.58246 0.0
N296 N 0.85447 0.73229 0.66415 0.0
N297 N 0.83959 0.70145 0.54695 0.0
C298 C 0.83383 0.68166 0.60194 0.0
C299 C 0.84192 0.69843 0.66562 0.0
C300 C 0.00814 0.49201 0.0554 0.0
C301 C 0.97392 0.4829 0.06122 0.0
C302 C 0.02497 0.50143 0.99334 0.0
C303 C 0.00832 0.50217 0.93436 0.0
H304 H 0.02221 0.492 0.09926 0.0
H305 H 0.05128 0.50822 0.99173 0.0
S306 S 0.91857 0.48031 0.92189 0.0
N307 N 0.9239 0.47503 0.00222 0.0
N308 N 0.95541 0.49269 0.88574 0.0
C309 C 0.97405 0.49302 0.93933 0.0
C310 C 0.9569 0.4834 0.00263 0.0
C311 C 0.48334 0.49882 0.05364 0.0
C312 C 0.50682 0.48761 0.05941 0.0
C313 C 0.47583 0.50781 0.99114 0.0
C314 C 0.49152 0.50602 0.93176 0.0
H315 H 0.47047 0.50058 0.09778 0.0
H316 H 0.45746 0.5161 0.98945 0.0
S317 S 0.5554 0.47886 0.91938 0.0
N318 N 0.54605 0.47563 0.00018 0.0
N319 N 0.53205 0.49251 0.88293 0.0
C320 C 0.51524 0.49505 0.93682 0.0
C321 C 0.52284 0.48585 0.00052 0.0
C322 C 0.49404 0.97817 0.05909 0.0
C323 C 0.50356 0.01245 0.06442 0.0
C324 C 0.48516 0.96139 0.99695 0.0
C325 C 0.48538 0.97816 0.93749 0.0
H326 H 0.49334 0.96403 0.10336 0.0
H327 H 0.47806 0.93503 0.99565 0.0
S328 S 0.50842 0.06805 0.92379 0.0
N329 N 0.51272 0.06261 0.00453 0.0
N330 N 0.49606 0.03121 0.88796 0.0
C331 C 0.49491 0.01249 0.94202 0.0
C332 C 0.50399 0.02958 0.00535 0.0
C333 C 0.18091 0.34939 0.88202 0.0
C334 C 0.15455 0.31598 0.88909 0.0
C335 C 0.18901 0.36512 0.8191 0.0
C336 C 0.17096 0.34804 0.76099 0.0
H337 H 0.19562 0.36347 0.92528 0.0
H338 H 0.20963 0.39089 0.81614 0.0
S339 S 0.099 0.2604 0.75278 0.0
N340 N 0.10991 0.26637 0.83289 0.0
N341 N 0.1252 0.29607 0.71458 0.0
C342 C 0.14435 0.31469 0.76736 0.0
C343 C 0.13613 0.29862 0.83146 0.0
C344 C 0.63319 0.81023 0.82925 0.0
C345 C 0.65112 0.82566 0.76999 0.0
C346 C 0.64909 0.81854 0.89207 0.0
C347 C 0.68353 0.84253 0.89795 0.0
H348 H 0.60658 0.79153 0.82729 0.0
H349 H 0.63426 0.80593 0.93624 0.0
S350 S 0.74185 0.89037 0.75806 0.0
N351 N 0.70515 0.86617 0.72106 0.0
N352 N 0.73518 0.88185 0.83911 0.0
C353 C 0.7018 0.85824 0.83908 0.0
C354 C 0.68556 0.84979 0.77507 0.0
C355 C 0.13865 0.80695 0.88568 0.0
C356 C 0.15863 0.83924 0.91335 0.0
C357 C 0.1434 0.8001 0.81946 0.0
C358 C 0.16828 0.82526 0.77846 0.0
H359 H 0.11878 0.78689 0.91493 0.0
H360 H 0.12744 0.7748 0.80044 0.0
S361 S 0.22787 0.9138 0.82751 0.0
N362 N 0.20467 0.89657 0.8952 0.0
N363 N 0.21363 0.8836 0.77049 0.0
C364 C 0.18866 0.85762 0.80558 0.0
C365 C 0.18387 0.8646 0.87318 0.0
C366 C 0.36078 0.17803 0.17775 0.0
C367 C 0.34204 0.16839 0.23783 0.0
C368 C 0.34478 0.17019 0.11506 0.0
C369 C 0.30942 0.15241 0.11009 0.0
H370 H 0.38812 0.19176 0.17893 0.0
H371 H 0.3603 0.1781 0.07024 0.0
S372 S 0.24869 0.12178 0.25237 0.0
N373 N 0.28621 0.14038 0.28857 0.0
N374 N 0.25597 0.12557 0.17066 0.0
C375 C 0.2903 0.14264 0.16978 0.0
C376 C 0.30664 0.15064 0.2337 0.0
C377 C 0.85128 0.155 0.16463 0.0
C378 C 0.83288 0.15319 0.10645 0.0
C379 C 0.84208 0.16117 0.22768 0.0
C380 C 0.81421 0.16585 0.23475 0.0
H381 H 0.87316 0.15183 0.16159 0.0
H382 H 0.85725 0.16277 0.27093 0.0
S383 S 0.75669 0.162 0.09857 0.0
N384 N 0.78484 0.15548 0.06014 0.0
N385 N 0.76744 0.16711 0.17879 0.0
C386 C 0.79522 0.1636 0.17717 0.0
C387 C 0.8046 0.15727 0.11292 0.0
C388 C 0.85636 0.66953 0.13474 0.0
C389 C 0.83231 0.67374 0.09859 0.0
C390 C 0.85032 0.65783 0.20101 0.0
C391 C 0.82006 0.65004 0.2338 0.0
H392 H 0.88012 0.67535 0.11174 0.0
H393 H 0.86943 0.65453 0.22638 0.0
S394 S 0.74942 0.65801 0.16209 0.0
N395 N 0.77741 0.67011 0.10081 0.0
N396 N 0.76601 0.64806 0.2257 0.0
C397 C 0.79591 0.65451 0.19856 0.0
C398 C 0.80201 0.6663 0.13079 0.0
C399 C 0.96761 0.46448 0.48863 0.0
C400 C 0.98136 0.48623 0.43308 0.0
C401 C 0.98268 0.47362 0.55212 0.0
C402 C 0.01205 0.50485 0.56237 0.0
H403 H 0.94494 0.44013 0.4832 0.0
H404 H 0.97129 0.45597 0.59329 0.0
S405 S 0.05749 0.57139 0.4338 0.0
N406 N 0.02565 0.54063 0.39258 0.0
N407 N 0.05409 0.55796 0.51202 0.0
C408 C 0.02604 0.52695 0.5073 0.0
C409 C 0.01069 0.51759 0.44257 0.0
C410 C 0.50993 0.52621 0.51719 0.0
C411 C 0.48625 0.50116 0.56018 0.0
C412 C 0.51412 0.51873 0.45107 0.0
C413 C 0.49475 0.48592 0.42541 0.0
H414 H 0.52549 0.55188 0.53468 0.0
H415 H 0.5332 0.53874 0.42039 0.0
S416 S 0.42824 0.41148 0.51658 0.0
N417 N 0.44238 0.44242 0.57195 0.0
N418 N 0.45027 0.42826 0.44741 0.0
C419 C 0.47054 0.46069 0.46746 0.0
C420 C 0.46633 0.46831 0.53498 0.0
C421 C 0.50973 0.00705 0.55686 0.0
C422 C 0.48045 0.97565 0.56595 0.0
C423 C 0.51809 0.02239 0.49364 0.0
C424 C 0.49746 0.00688 0.43725 0.0
H425 H 0.5266 0.01975 0.59863 0.0
H426 H 0.54108 0.04652 0.48901 0.0
S427 S 0.41694 0.92537 0.43521 0.0
N428 N 0.42999 0.93 0.51398 0.0
N429 N 0.44584 0.95898 0.39489 0.0
C430 C 0.46784 0.97567 0.44572 0.0
C431 C 0.45928 0.96002 0.51022 0.0
C432 C 0.16819 0.18603 0.01182 0.0
C433 C 0.18675 0.22058 0.02735 0.0
C434 C 0.18361 0.16957 0.98181 0.0
C435 C 0.21829 0.1869 0.96663 0.0
H436 H 0.14136 0.17158 0.022 0.0
H437 H 0.16823 0.14287 0.97146 0.0
S438 S 0.27834 0.27763 0.99757 0.0
N439 N 0.24175 0.27169 0.02519 0.0
N440 N 0.27085 0.24062 0.96956 0.0
C441 C 0.23723 0.22147 0.98201 0.0
C442 C 0.22145 0.23832 0.01222 0.0
C443 C 0.77988 0.0148 0.99096 0.0
C444 C 0.8148 0.03212 0.97815 0.0
C445 C 0.76407 0.98331 0.02288 0.0
C446 C 0.78256 0.96794 0.04374 0.0
H447 H 0.76454 0.02563 0.97629 0.0
H448 H 0.73701 0.97074 0.03038 0.0
S449 S 0.87494 0.0033 0.02413 0.0
N450 N 0.8676 0.03189 0.99018 0.0
N451 N 0.83793 0.9728 0.0504 0.0
C452 C 0.81761 0.98518 0.0321 0.0
C453 C 0.83369 0.01719 0.99911 0.0
C454 C 0.97467 0.81088 0.99778 0.0
C455 C 0.96125 0.77923 0.96626 0.0
C456 C 0.00663 0.8263 0.02845 0.0
C457 C 0.02635 0.81063 0.02888 0.0
H458 H 0.9602 0.82366 0.99975 0.0
H459 H 0.01593 0.8507 0.05186 0.0
S460 S 0.00319 0.72807 0.95142 0.0
N461 N 0.97058 0.73314 0.93606 0.0
N462 N 0.03032 0.76189 0.99363 0.0
C463 C 0.01333 0.77912 0.99694 0.0
C464 C 0.9809 0.76351 0.96559 0.0
C465 C 0.82682 0.81127 0.98487 0.0
C466 C 0.80871 0.77628 0.97368 0.0
C467 C 0.81157 0.82778 0.01561 0.0
C468 C 0.77758 0.80997 0.03613 0.0
H469 H 0.85307 0.82607 0.97014 0.0
H470 H 0.82642 0.85484 0.02219 0.0
S471 S 0.71933 0.7178 0.02071 0.0
N472 N 0.75506 0.72417 0.98738 0.0
N473 N 0.72648 0.75527 0.04466 0.0
C474 C 0.75925 0.77493 0.02586 0.0
C475 C 0.77478 0.75809 0.99471 0.0
C476 C 0.20836 0.98199 0.03303 0.0
C477 C 0.17286 0.96317 0.03299 0.0
C478 C 0.22581 0.01319 0.0004 0.0
C479 C 0.20853 0.02701 0.96653 0.0
H480 H 0.22294 0.97246 0.05798 0.0
H481 H 0.25313 0.02681 0.00286 0.0
S482 S 0.11552 0.98767 0.95029 0.0
N483 N 0.12094 0.9604 0.99512 0.0
N484 N 0.15379 0.01925 0.93421 0.0
C485 C 0.17301 0.00841 0.96564 0.0
C486 C 0.15518 0.9765 0.99884 0.0
C487 C 0.98311 0.17154 0.97932 0.0
C488 C 0.96555 0.18906 0.96901 0.0
C489 C 0.01471 0.18693 0.01104 0.0
C490 C 0.03014 0.22052 0.03338 0.0
H491 H 0.97219 0.14552 0.96367 0.0
H492 H 0.02735 0.17246 0.01702 0.0
S493 S 0.99473 0.27752 0.01882 0.0
N494 N 0.96589 0.2419 0.98412 0.0
N495 N 0.0254 0.27087 0.0432 0.0
C496 C 0.0129 0.23838 0.02341 0.0
C497 C 0.98062 0.22267 0.99129 0.0
C498 C 0.8293 0.51118 0.34789 0.0
C499 C 0.84788 0.54417 0.37343 0.0
C500 C 0.84547 0.49553 0.31725 0.0
C501 C 0.88085 0.51224 0.31113 0.0
H502 H 0.80197 0.49758 0.35006 0.0
H503 H 0.83008 0.47014 0.29828 0.0
S504 S 0.9412 0.59829 0.37328 0.0
N505 N 0.90366 0.59257 0.39283 0.0
N506 N 0.93405 0.56326 0.33562 0.0
C507 C 0.89976 0.54503 0.3376 0.0
C508 C 0.88329 0.56094 0.36872 0.0
C509 C 0.44641 0.34128 0.30532 0.0
C510 C 0.48182 0.36096 0.3076 0.0
C511 C 0.42921 0.31001 0.33783 0.0
C512 C 0.44672 0.29704 0.37378 0.0
H513 H 0.43169 0.35019 0.27874 0.0
H514 H 0.40196 0.29567 0.33367 0.0
S515 S 0.5396 0.33885 0.39627 0.0
N516 N 0.53388 0.36543 0.34974 0.0
N517 N 0.50153 0.30652 0.41046 0.0
C518 C 0.48214 0.3165 0.37687 0.0
C519 C 0.49969 0.34845 0.34379 0.0
C520 C 0.64252 0.14021 0.3252 0.0
C521 C 0.62684 0.10615 0.30582 0.0
C522 C 0.6735 0.15569 0.35936 0.0
C523 C 0.69012 0.13777 0.37539 0.0
H524 H 0.63061 0.15503 0.31473 0.0
H525 H 0.68472 0.18209 0.37231 0.0
S526 S 0.65982 0.04792 0.3357 0.0
N527 N 0.63031 0.05491 0.30521 0.0
N528 N 0.68852 0.08397 0.36914 0.0
C529 C 0.6747 0.10364 0.35642 0.0
C530 C 0.64313 0.08788 0.3216 0.0
C531 C 0.48941 0.14089 0.31642 0.0
C532 C 0.47144 0.1059 0.30522 0.0
C533 C 0.47415 0.15724 0.34762 0.0
C534 C 0.44024 0.1393 0.36853 0.0
H535 H 0.51566 0.15582 0.30183 0.0
H536 H 0.48901 0.18427 0.35453 0.0
S537 S 0.38201 0.04722 0.35111 0.0
N538 N 0.41782 0.05373 0.31788 0.0
N539 N 0.38909 0.08455 0.37596 0.0
C540 C 0.4219 0.1043 0.35757 0.0
C541 C 0.43749 0.0876 0.32598 0.0
C542 C 0.8296 0.3104 0.34991 0.0
C543 C 0.84702 0.29284 0.36159 0.0
C544 C 0.84519 0.34171 0.31723 0.0
C545 C 0.87887 0.3568 0.29519 0.0
H546 H 0.80358 0.29981 0.36564 0.0
H547 H 0.83086 0.35445 0.31049 0.0
S548 S 0.93546 0.32095 0.31218 0.0
N549 N 0.89972 0.29263 0.34737 0.0
N550 N 0.92903 0.35151 0.28637 0.0
C551 C 0.89652 0.3394 0.30599 0.0
C552 C 0.88062 0.30746 0.33916 0.0
C553 C 0.65111 0.50184 0.28542 0.0
C554 C 0.62755 0.50977 0.31217 0.0
C555 C 0.68389 0.51623 0.31184 0.0
C556 C 0.69422 0.53881 0.36648 0.0
H557 H 0.64436 0.48475 0.24318 0.0
H558 H 0.70141 0.50998 0.28845 0.0
S559 S 0.64114 0.56575 0.45811 0.0
N560 N 0.61622 0.54035 0.39867 0.0
N561 N 0.6776 0.56708 0.44845 0.0
C562 C 0.67056 0.54617 0.39493 0.0
C563 C 0.63731 0.53177 0.36769 0.0
C564 C 0.51711 0.83353 0.65553 0.0
C565 C 0.55136 0.85224 0.63717 0.0
C566 C 0.50089 0.84893 0.6867 0.0
C567 C 0.51817 0.88373 0.70017 0.0
H568 H 0.50275 0.80661 0.64678 0.0
H569 H 0.47442 0.83346 0.69934 0.0
S570 S 0.6081 0.94416 0.66162 0.0
N571 N 0.6021 0.90749 0.6348 0.0
N572 N 0.57148 0.93654 0.69253 0.0
C573 C 0.5524 0.90281 0.68183 0.0
C574 C 0.56901 0.88705 0.65051 0.0
C575 C 0.10973 0.67737 0.65305 0.0
C576 C 0.14518 0.69657 0.65158 0.0
C577 C 0.09301 0.64564 0.68381 0.0
C578 C 0.11104 0.63175 0.71446 0.0
H579 H 0.09463 0.68691 0.63034 0.0
H580 H 0.06567 0.63164 0.68233 0.0
S581 S 0.2043 0.67225 0.72663 0.0
N582 N 0.19788 0.69976 0.68511 0.0
N583 N 0.16642 0.64003 0.74278 0.0
C584 C 0.14653 0.65084 0.71421 0.0
C585 C 0.1636 0.68321 0.6827 0.0
C586 C 0.34793 0.44882 0.66918 0.0
C587 C 0.36457 0.48319 0.68653 0.0
C588 C 0.31626 0.43334 0.63781 0.0
C589 C 0.29997 0.45161 0.62217 0.0
H590 H 0.35943 0.43363 0.67975 0.0
H591 H 0.30431 0.40669 0.62654 0.0
S592 S 0.33308 0.54254 0.65564 0.0
N593 N 0.36263 0.53525 0.68474 0.0
N594 N 0.3031 0.50617 0.6257 0.0
C595 C 0.31647 0.48612 0.63849 0.0
C596 C 0.34873 0.50188 0.67081 0.0
C597 C 0.11112 0.42962 0.65088 0.0
C598 C 0.14459 0.44849 0.62769 0.0
C599 C 0.09511 0.44525 0.68214 0.0
C600 C 0.11208 0.48032 0.69214 0.0
H601 H 0.09717 0.40247 0.64545 0.0
H602 H 0.06925 0.42967 0.69868 0.0
S603 S 0.19973 0.54138 0.63919 0.0
N604 N 0.19395 0.50435 0.61567 0.0
N605 N 0.16401 0.53365 0.67485 0.0
C606 C 0.1455 0.49956 0.66892 0.0
C607 C 0.1617 0.48368 0.63646 0.0
C608 C 0.54843 0.64862 0.68283 0.0
C609 C 0.51346 0.63146 0.6951 0.0
C610 C 0.5646 0.68031 0.6518 0.0
C611 C 0.54648 0.69613 0.63147 0.0
H612 H 0.56354 0.63744 0.69689 0.0
H613 H 0.59165 0.69261 0.64434 0.0
S614 S 0.45427 0.66178 0.65148 0.0
N615 N 0.46107 0.63257 0.68408 0.0
N616 N 0.49147 0.69216 0.62572 0.0
C617 C 0.51143 0.67921 0.64308 0.0
C618 C 0.49494 0.64693 0.67504 0.0
C619 C 0.3081 0.87691 0.6779 0.0
C620 C 0.29301 0.84426 0.65048 0.0
C621 C 0.33991 0.89167 0.70855 0.0
C622 C 0.35791 0.87433 0.71345 0.0
H623 H 0.29524 0.89132 0.67589 0.0
H624 H 0.35062 0.91709 0.72781 0.0
S625 S 0.32954 0.78798 0.65028 0.0
N626 N 0.2984 0.79481 0.63075 0.0
N627 N 0.35823 0.82253 0.68844 0.0
C628 C 0.34302 0.84148 0.6869 0.0
C629 C 0.31061 0.82649 0.65527 0.0
loop_
_geom_bond_atom_site_label_1
_geom_bond_atom_site_label_2
_geom_bond_distance
_geom_bond_site_symmetry_2
_ccdc_geom_bond_type
In0 O1 2.294 . S
In0 O2 2.326 . S
In0 O6 2.266 1_554 S
In0 O7 2.326 1_554 S
In0 O8 2.266 . S
In0 O9 2.326 . S
In0 O11 2.294 . S
In0 O12 2.326 . S
O1 In0 2.294 . S
O1 C10 1.240 . S
O2 In0 2.326 . S
O2 C10 1.252 . S
C3 O6 1.252 . S
C3 O7 1.260 . S
C4 O11 1.240 . S
C4 O12 1.252 . S
C5 O8 1.252 . S
C5 O9 1.260 . S
O6 In0 2.266 1_556 S
O6 C3 1.252 . S
O7 In0 2.326 1_556 S
O7 C3 1.260 . S
O8 In0 2.266 . S
O8 C5 1.252 . S
O9 In0 2.326 . S
O9 C5 1.260 . S
C10 O1 1.240 . S
C10 O2 1.252 . S
O11 In0 2.294 . S
O11 C4 1.240 . S
O12 In0 2.326 . S
O12 C4 1.252 . S
In13 O14 2.294 . S
In13 O15 2.326 . S
In13 O19 2.266 . S
In13 O20 2.326 . S
In13 O21 2.266 1_554 S
In13 O22 2.326 1_554 S
In13 O24 2.294 . S
In13 O25 2.326 . S
O14 In13 2.294 . S
O14 C23 1.240 . S
O15 In13 2.326 . S
O15 C23 1.252 . S
C16 O19 1.252 . S
C16 O20 1.260 . S
C17 O24 1.240 . S
C17 O25 1.252 . S
C18 O21 1.252 . S
C18 O22 1.260 . S
O19 In13 2.266 . S
O19 C16 1.252 . S
O20 In13 2.326 . S
O20 C16 1.260 . S
O21 In13 2.266 1_556 S
O21 C18 1.252 . S
O22 In13 2.326 1_556 S
O22 C18 1.260 . S
C23 O14 1.240 . S
C23 O15 1.252 . S
O24 In13 2.294 . S
O24 C17 1.240 . S
O25 In13 2.326 . S
O25 C17 1.252 . S
In26 O27 2.294 . S
In26 O28 2.326 . S
In26 O32 2.266 . S
In26 O33 2.326 . S
In26 O34 2.266 1_554 S
In26 O35 2.326 1_554 S
In26 O37 2.294 . S
In26 O38 2.326 . S
O27 In26 2.294 . S
O27 C36 1.240 . S
O28 In26 2.326 . S
O28 C36 1.252 . S
C29 O32 1.252 . S
C29 O33 1.260 . S
C30 O37 1.240 . S
C30 O38 1.252 . S
C31 O34 1.252 . S
C31 O35 1.260 . S
O32 In26 2.266 . S
O32 C29 1.252 . S
O33 In26 2.326 . S
O33 C29 1.260 . S
O34 In26 2.266 1_556 S
O34 C31 1.252 . S
O35 In26 2.326 1_556 S
O35 C31 1.260 . S
C36 O27 1.240 . S
C36 O28 1.252 . S
O37 In26 2.294 . S
O37 C30 1.240 . S
O38 In26 2.326 . S
O38 C30 1.252 . S
In39 O40 2.294 . S
In39 O41 2.326 . S
In39 O45 2.266 1_556 S
In39 O46 2.326 1_556 S
In39 O47 2.266 . S
In39 O48 2.326 . S
In39 O50 2.294 . S
In39 O51 2.326 . S
O40 In39 2.294 . S
O40 C49 1.240 . S
O41 In39 2.326 . S
O41 C49 1.252 . S
C42 O45 1.252 . S
C42 O46 1.260 . S
C43 O50 1.240 . S
C43 O51 1.252 . S
C44 O47 1.252 . S
C44 O48 1.260 . S
O45 In39 2.266 1_554 S
O45 C42 1.252 . S
O46 In39 2.326 1_554 S
O46 C42 1.260 . S
O47 In39 2.266 . S
O47 C44 1.252 . S
O48 In39 2.326 . S
O48 C44 1.260 . S
C49 O40 1.240 . S
C49 O41 1.252 . S
O50 In39 2.294 . S
O50 C43 1.240 . S
O51 In39 2.326 . S
O51 C43 1.252 . S
In52 O53 2.294 . S
In52 O54 2.326 . S
In52 O58 2.266 1_556 S
In52 O59 2.326 1_556 S
In52 O60 2.266 . S
In52 O61 2.326 . S
In52 O63 2.294 . S
In52 O64 2.326 . S
O53 In52 2.294 . S
O53 C62 1.240 . S
O54 In52 2.326 . S
O54 C62 1.252 . S
C55 O58 1.252 . S
C55 O59 1.260 . S
C56 O63 1.240 . S
C56 O64 1.252 . S
C57 O60 1.252 . S
C57 O61 1.260 . S
O58 In52 2.266 1_554 S
O58 C55 1.252 . S
O59 In52 2.326 1_554 S
O59 C55 1.260 . S
O60 In52 2.266 . S
O60 C57 1.252 . S
O61 In52 2.326 . S
O61 C57 1.260 . S
C62 O53 1.240 . S
C62 O54 1.252 . S
O63 In52 2.294 . S
O63 C56 1.240 . S
O64 In52 2.326 . S
O64 C56 1.252 . S
In65 O66 2.294 . S
In65 O67 2.326 . S
In65 O71 2.266 . S
In65 O72 2.326 . S
In65 O73 2.266 1_556 S
In65 O74 2.326 1_556 S
In65 O76 2.294 . S
In65 O77 2.326 . S
O66 In65 2.294 . S
O66 C75 1.240 . S
O67 In65 2.326 . S
O67 C75 1.252 . S
C68 O71 1.252 . S
C68 O72 1.260 . S
C69 O76 1.240 . S
C69 O77 1.252 . S
C70 O73 1.252 . S
C70 O74 1.260 . S
O71 In65 2.266 . S
O71 C68 1.252 . S
O72 In65 2.326 . S
O72 C68 1.260 . S
O73 In65 2.266 1_554 S
O73 C70 1.252 . S
O74 In65 2.326 1_554 S
O74 C70 1.260 . S
C75 O66 1.240 . S
C75 O67 1.252 . S
O76 In65 2.294 . S
O76 C69 1.240 . S
O77 In65 2.326 . S
O77 C69 1.252 . S
In78 O79 2.294 . S
In78 O80 2.326 . S
In78 O84 2.266 . S
In78 O85 2.326 . S
In78 O86 2.266 . S
In78 O87 2.326 . S
In78 O89 2.294 . S
In78 O90 2.326 . S
O79 In78 2.294 . S
O79 C88 1.240 . S
O80 In78 2.326 . S
O80 C88 1.252 . S
C81 O84 1.252 . S
C81 O85 1.260 . S
C82 O89 1.240 . S
C82 O90 1.252 . S
C83 O86 1.252 . S
C83 O87 1.260 . S
O84 In78 2.266 . S
O84 C81 1.252 . S
O85 In78 2.326 . S
O85 C81 1.260 . S
O86 In78 2.266 . S
O86 C83 1.252 . S
O87 In78 2.326 . S
O87 C83 1.260 . S
C88 O79 1.240 . S
C88 O80 1.252 . S
O89 In78 2.294 . S
O89 C82 1.240 . S
O90 In78 2.326 . S
O90 C82 1.252 . S
In91 O92 2.294 . S
In91 O93 2.326 . S
In91 O97 2.266 . S
In91 O98 2.326 . S
In91 O99 2.266 . S
In91 O100 2.326 . S
In91 O102 2.294 . S
In91 O103 2.326 . S
O92 In91 2.294 . S
O92 C101 1.240 . S
O93 In91 2.326 . S
O93 C101 1.252 . S
C94 O97 1.252 . S
C94 O98 1.260 . S
C95 O102 1.240 . S
C95 O103 1.252 . S
C96 O99 1.252 . S
C96 O100 1.260 . S
O97 In91 2.266 . S
O97 C94 1.252 . S
O98 In91 2.326 . S
O98 C94 1.260 . S
O99 In91 2.266 . S
O99 C96 1.252 . S
O100 In91 2.326 . S
O100 C96 1.260 . S
C101 O92 1.240 . S
C101 O93 1.252 . S
O102 In91 2.294 . S
O102 C95 1.240 . S
O103 In91 2.326 . S
O103 C95 1.252 . S
In104 O105 2.294 . S
In104 O106 2.326 . S
In104 O110 2.266 . S
In104 O111 2.326 . S
In104 O112 2.266 . S
In104 O113 2.326 . S
In104 O115 2.294 . S
In104 O116 2.326 . S
O105 In104 2.294 . S
O105 C114 1.240 . S
O106 In104 2.326 . S
O106 C114 1.252 . S
C107 O110 1.252 . S
C107 O111 1.260 . S
C108 O115 1.240 . S
C108 O116 1.252 . S
C109 O112 1.252 . S
C109 O113 1.260 . S
O110 In104 2.266 . S
O110 C107 1.252 . S
O111 In104 2.326 . S
O111 C107 1.260 . S
O112 In104 2.266 . S
O112 C109 1.252 . S
O113 In104 2.326 . S
O113 C109 1.260 . S
C114 O105 1.240 . S
C114 O106 1.252 . S
O115 In104 2.294 . S
O115 C108 1.240 . S
O116 In104 2.326 . S
O116 C108 1.252 . S
In117 O118 2.294 . S
In117 O119 2.326 . S
In117 O123 2.277 . S
In117 O124 2.326 . S
In117 O125 2.266 . S
In117 O126 2.326 . S
In117 O128 2.294 . S
In117 O129 2.326 . S
O118 In117 2.294 . S
O118 C127 1.240 . S
O119 In117 2.326 . S
O119 C127 1.252 . S
C120 O123 1.259 . S
C120 O124 1.260 . S
C121 O128 1.240 . S
C121 O129 1.252 . S
C122 O125 1.252 . S
C122 O126 1.260 . S
O123 In117 2.277 . S
O123 C120 1.259 . S
O124 In117 2.326 . S
O124 C120 1.260 . S
O125 In117 2.266 . S
O125 C122 1.252 . S
O126 In117 2.326 . S
O126 C122 1.260 . S
C127 O118 1.240 . S
C127 O119 1.252 . S
O128 In117 2.294 . S
O128 C121 1.240 . S
O129 In117 2.326 . S
O129 C121 1.252 . S
In130 O131 2.294 . S
In130 O132 2.326 . S
In130 O136 2.266 . S
In130 O137 2.326 . S
In130 O138 2.266 . S
In130 O139 2.326 . S
In130 O141 2.294 . S
In130 O142 2.326 . S
O131 In130 2.294 . S
O131 C140 1.240 . S
O132 In130 2.326 . S
O132 C140 1.252 . S
C133 O136 1.252 . S
C133 O137 1.260 . S
C134 O141 1.240 . S
C134 O142 1.252 . S
C135 O138 1.252 . S
C135 O139 1.260 . S
O136 In130 2.266 . S
O136 C133 1.252 . S
O137 In130 2.326 . S
O137 C133 1.260 . S
O138 In130 2.266 . S
O138 C135 1.252 . S
O139 In130 2.326 . S
O139 C135 1.260 . S
C140 O131 1.240 . S
C140 O132 1.252 . S
O141 In130 2.294 . S
O141 C134 1.240 . S
O142 In130 2.326 . S
O142 C134 1.252 . S
In143 O144 2.294 . S
In143 O145 2.326 . S
In143 O149 2.266 1_545 S
In143 O150 2.326 . S
In143 O151 2.266 . S
In143 O152 2.326 . S
In143 O154 2.294 . S
In143 O155 2.326 . S
O144 In143 2.294 . S
O144 C153 1.240 . S
O145 In143 2.326 . S
O145 C153 1.252 . S
C146 O149 1.252 1_545 S
C146 O150 1.260 . S
C147 O154 1.240 . S
C147 O155 1.252 . S
C148 O151 1.252 . S
C148 O152 1.260 . S
O149 In143 2.266 1_565 S
O149 C146 1.252 1_565 S
O150 In143 2.326 . S
O150 C146 1.260 . S
O151 In143 2.266 . S
O151 C148 1.252 . S
O152 In143 2.326 . S
O152 C148 1.260 . S
C153 O144 1.240 . S
C153 O145 1.252 . S
O154 In143 2.294 . S
O154 C147 1.240 . S
O155 In143 2.326 . S
O155 C147 1.252 . S
In156 O157 2.294 . S
In156 O158 2.326 . S
In156 O162 2.277 . S
In156 O163 2.326 . S
In156 O164 2.266 . S
In156 O165 2.326 . S
In156 O167 2.294 . S
In156 O168 2.326 . S
O157 In156 2.294 . S
O157 C166 1.240 . S
O158 In156 2.326 . S
O158 C166 1.252 . S
C159 O162 1.259 . S
C159 O163 1.260 . S
C160 O167 1.240 . S
C160 O168 1.252 . S
C161 O164 1.252 . S
C161 O165 1.260 . S
O162 In156 2.277 . S
O162 C159 1.259 . S
O163 In156 2.326 . S
O163 C159 1.260 . S
O164 In156 2.266 . S
O164 C161 1.252 . S
O165 In156 2.326 . S
O165 C161 1.260 . S
C166 O157 1.240 . S
C166 O158 1.252 . S
O167 In156 2.294 . S
O167 C160 1.240 . S
O168 In156 2.326 . S
O168 C160 1.252 . S
In169 O170 2.294 . S
In169 O171 2.326 . S
In169 O175 2.266 . S
In169 O176 2.326 . S
In169 O177 2.266 1_455 S
In169 O178 2.326 . S
In169 O180 2.294 . S
In169 O181 2.326 . S
O170 In169 2.294 . S
O170 C179 1.240 . S
O171 In169 2.326 . S
O171 C179 1.252 . S
C172 O175 1.252 . S
C172 O176 1.260 . S
C173 O180 1.240 . S
C173 O181 1.252 . S
C174 O177 1.252 1_455 S
C174 O178 1.260 . S
O175 In169 2.266 . S
O175 C172 1.252 . S
O176 In169 2.326 . S
O176 C172 1.260 . S
O177 In169 2.266 1_655 S
O177 C174 1.252 1_655 S
O178 In169 2.326 . S
O178 C174 1.260 . S
C179 O170 1.240 . S
C179 O171 1.252 . S
O180 In169 2.294 . S
O180 C173 1.240 . S
O181 In169 2.326 . S
O181 C173 1.252 . S
In182 O183 2.294 . S
In182 O184 2.326 . S
In182 O188 2.266 . S
In182 O189 2.326 . S
In182 O190 2.266 . S
In182 O191 2.326 . S
In182 O193 2.294 . S
In182 O194 2.326 . S
O183 In182 2.294 . S
O183 C192 1.240 . S
O184 In182 2.326 . S
O184 C192 1.252 . S
C185 O188 1.252 . S
C185 O189 1.260 . S
C186 O193 1.240 . S
C186 O194 1.252 . S
C187 O190 1.252 . S
C187 O191 1.260 . S
O188 In182 2.266 . S
O188 C185 1.252 . S
O189 In182 2.326 . S
O189 C185 1.260 . S
O190 In182 2.266 . S
O190 C187 1.252 . S
O191 In182 2.326 . S
O191 C187 1.260 . S
C192 O183 1.240 . S
C192 O184 1.252 . S
O193 In182 2.294 . S
O193 C186 1.240 . S
O194 In182 2.326 . S
O194 C186 1.252 . S
In195 O196 2.294 . S
In195 O197 2.326 . S
In195 O201 2.266 . S
In195 O202 2.326 . S
In195 O203 2.266 . S
In195 O204 2.326 . S
In195 O206 2.294 . S
In195 O207 2.326 . S
O196 In195 2.294 . S
O196 C205 1.240 . S
O197 In195 2.326 . S
O197 C205 1.252 . S
C198 O201 1.252 . S
C198 O202 1.260 . S
C199 O206 1.240 . S
C199 O207 1.252 . S
C200 O203 1.252 . S
C200 O204 1.260 . S
O201 In195 2.266 . S
O201 C198 1.252 . S
O202 In195 2.326 . S
O202 C198 1.260 . S
O203 In195 2.266 . S
O203 C200 1.252 . S
O204 In195 2.326 . S
O204 C200 1.260 . S
C205 O196 1.240 . S
C205 O197 1.252 . S
O206 In195 2.294 . S
O206 C199 1.240 . S
O207 In195 2.326 . S
O207 C199 1.252 . S
In208 O209 2.294 . S
In208 O210 2.326 . S
In208 O214 2.266 . S
In208 O215 2.326 . S
In208 O216 2.266 . S
In208 O217 2.326 . S
In208 O219 2.294 . S
In208 O220 2.326 . S
O209 In208 2.294 . S
O209 C218 1.240 . S
O210 In208 2.326 . S
O210 C218 1.252 . S
C211 O214 1.252 . S
C211 O215 1.260 . S
C212 O219 1.240 . S
C212 O220 1.252 . S
C213 O216 1.252 . S
C213 O217 1.260 . S
O214 In208 2.266 . S
O214 C211 1.252 . S
O215 In208 2.326 . S
O215 C211 1.260 . S
O216 In208 2.266 . S
O216 C213 1.252 . S
O217 In208 2.326 . S
O217 C213 1.260 . S
C218 O209 1.240 . S
C218 O210 1.252 . S
O219 In208 2.294 . S
O219 C212 1.240 . S
O220 In208 2.326 . S
O220 C212 1.252 . S
In221 O222 2.294 . S
In221 O223 2.326 . S
In221 O227 2.266 . S
In221 O228 2.326 . S
In221 O229 2.266 . S
In221 O230 2.326 . S
In221 O232 2.294 . S
In221 O233 2.326 . S
O222 In221 2.294 . S
O222 C231 1.240 . S
O223 In221 2.326 . S
O223 C231 1.252 . S
C224 O227 1.252 . S
C224 O228 1.260 . S
C225 O232 1.240 . S
C225 O233 1.252 . S
C226 O229 1.252 . S
C226 O230 1.260 . S
O227 In221 2.266 . S
O227 C224 1.252 . S
O228 In221 2.326 . S
O228 C224 1.260 . S
O229 In221 2.266 . S
O229 C226 1.252 . S
O230 In221 2.326 . S
O230 C226 1.260 . S
C231 O222 1.240 . S
C231 O223 1.252 . S
O232 In221 2.294 . S
O232 C225 1.240 . S
O233 In221 2.326 . S
O233 C225 1.252 . S
C234 C235 1.369 . S
C234 C236 1.419 . S
C234 H238 0.930 . S
C235 C234 1.369 . S
C235 C244 1.429 . S
C236 C234 1.419 . S
C236 C237 1.363 . S
C236 H239 0.929 . S
C237 C236 1.363 . S
C237 C243 1.428 . S
H238 C234 0.930 . S
H239 C236 0.929 . S
S240 N241 1.613 . S
S240 N242 1.610 . S
N241 S240 1.613 . S
N241 C244 1.350 . S
N242 S240 1.610 . S
N242 C243 1.351 . S
C243 C237 1.428 . S
C243 N242 1.351 . S
C243 C244 1.434 . S
C244 C235 1.429 . S
C244 N241 1.350 . S
C244 C243 1.434 . S
C245 C246 1.369 . S
C245 C247 1.419 . S
C245 H249 0.930 . S
C246 C245 1.369 . S
C246 C255 1.429 . S
C247 C245 1.419 . S
C247 C248 1.363 . S
C247 H250 0.929 . S
C248 C247 1.363 . S
C248 C254 1.428 . S
H249 C245 0.930 . S
H250 C247 0.929 . S
S251 N252 1.613 . S
S251 N253 1.610 . S
N252 S251 1.613 . S
N252 C255 1.350 . S
N253 S251 1.610 . S
N253 C254 1.351 . S
C254 C248 1.428 . S
C254 N253 1.351 . S
C254 C255 1.434 . S
C255 C246 1.429 . S
C255 N252 1.350 . S
C255 C254 1.434 . S
C256 C257 1.369 . S
C256 C258 1.419 . S
C256 H260 0.930 . S
C257 C256 1.369 . S
C257 C266 1.429 . S
C258 C256 1.419 . S
C258 C259 1.363 . S
C258 H261 0.929 . S
C259 C258 1.363 . S
C259 C265 1.428 . S
H260 C256 0.930 . S
H261 C258 0.929 . S
S262 N263 1.613 . S
S262 N264 1.610 . S
N263 S262 1.613 . S
N263 C266 1.350 . S
N264 S262 1.610 . S
N264 C265 1.351 . S
C265 C259 1.428 . S
C265 N264 1.351 . S
C265 C266 1.434 . S
C266 C257 1.429 . S
C266 N263 1.350 . S
C266 C265 1.434 . S
C267 C268 1.369 . S
C267 C269 1.419 . S
C267 H271 0.930 . S
C268 C267 1.369 . S
C268 C277 1.429 . S
C269 C267 1.419 . S
C269 C270 1.363 . S
C269 H272 0.929 . S
C270 C269 1.363 . S
C270 C276 1.428 . S
H271 C267 0.930 . S
H272 C269 0.929 . S
S273 N274 1.613 . S
S273 N275 1.610 . S
N274 S273 1.613 . S
N274 C277 1.350 . S
N275 S273 1.610 . S
N275 C276 1.351 . S
C276 C270 1.428 . S
C276 N275 1.351 . S
C276 C277 1.434 . S
C277 C268 1.429 . S
C277 N274 1.350 . S
C277 C276 1.434 . S
C278 C279 1.369 . S
C278 C280 1.419 . S
C278 H282 0.930 . S
C279 C278 1.369 . S
C279 C288 1.429 . S
C280 C278 1.419 . S
C280 C281 1.363 . S
C280 H283 0.929 . S
C281 C280 1.363 . S
C281 C287 1.428 . S
H282 C278 0.930 . S
H283 C280 0.929 . S
S284 N285 1.613 . S
S284 N286 1.610 . S
N285 S284 1.613 . S
N285 C288 1.350 . S
N286 S284 1.610 . S
N286 C287 1.351 . S
C287 C281 1.428 . S
C287 N286 1.351 . S
C287 C288 1.434 . S
C288 C279 1.429 . S
C288 N285 1.350 . S
C288 C287 1.434 . S
C289 C290 1.369 . S
C289 C291 1.419 . S
C289 H293 0.930 . S
C290 C289 1.369 . S
C290 C299 1.429 . S
C291 C289 1.419 . S
C291 C292 1.363 . S
C291 H294 0.929 . S
C292 C291 1.363 . S
C292 C298 1.428 . S
H293 C289 0.930 . S
H294 C291 0.929 . S
S295 N296 1.613 . S
S295 N297 1.610 . S
N296 S295 1.613 . S
N296 C299 1.350 . S
N297 S295 1.610 . S
N297 C298 1.351 . S
C298 C292 1.428 . S
C298 N297 1.351 . S
C298 C299 1.434 . S
C299 C290 1.429 . S
C299 N296 1.350 . S
C299 C298 1.434 . S
C300 C301 1.369 1_455 S
C300 C302 1.419 1_554 S
C300 H304 0.930 . S
C301 C300 1.369 1_655 S
C301 C310 1.429 . S
C302 C300 1.419 1_556 S
C302 C303 1.363 . S
C302 H305 0.929 . S
C303 C302 1.363 . S
C303 C309 1.428 1_455 S
H304 C300 0.930 . S
H305 C302 0.929 . S
S306 N307 1.613 1_556 S
S306 N308 1.610 . S
N307 S306 1.613 1_554 S
N307 C310 1.350 . S
N308 S306 1.610 . S
N308 C309 1.351 . S
C309 C303 1.428 1_655 S
C309 N308 1.351 . S
C309 C310 1.434 1_556 S
C310 C301 1.429 . S
C310 N307 1.350 . S
C310 C309 1.434 1_554 S
C311 C312 1.369 . S
C311 C313 1.419 1_554 S
C311 H315 0.930 . S
C312 C311 1.369 . S
C312 C321 1.429 . S
C313 C311 1.419 1_556 S
C313 C314 1.363 . S
C313 H316 0.929 . S
C314 C313 1.363 . S
C314 C320 1.428 . S
H315 C311 0.930 . S
H316 C313 0.929 . S
S317 N318 1.613 1_556 S
S317 N319 1.610 . S
N318 S317 1.613 1_554 S
N318 C321 1.350 . S
N319 S317 1.610 . S
N319 C320 1.351 . S
C320 C314 1.428 . S
C320 N319 1.351 . S
C320 C321 1.434 1_556 S
C321 C312 1.429 . S
C321 N318 1.350 . S
C321 C320 1.434 1_554 S
C322 C323 1.369 1_565 S
C322 C324 1.419 1_554 S
C322 H326 0.930 . S
C323 C322 1.369 1_545 S
C323 C332 1.429 . S
C324 C322 1.419 1_556 S
C324 C325 1.363 . S
C324 H327 0.929 . S
C325 C324 1.363 . S
C325 C331 1.428 1_565 S
H326 C322 0.930 . S
H327 C324 0.929 . S
S328 N329 1.613 1_556 S
S328 N330 1.610 . S
N329 S328 1.613 1_554 S
N329 C332 1.350 . S
N330 S328 1.610 . S
N330 C331 1.351 . S
C331 C325 1.428 1_545 S
C331 N330 1.351 . S
C331 C332 1.434 1_556 S
C332 C323 1.429 . S
C332 N329 1.350 . S
C332 C331 1.434 1_554 S
C333 C334 1.369 . S
C333 C335 1.419 . S
C333 H337 0.930 . S
C334 C333 1.369 . S
C334 C343 1.429 . S
C335 C333 1.419 . S
C335 C336 1.363 . S
C335 H338 0.929 . S
C336 C335 1.363 . S
C336 C342 1.428 . S
H337 C333 0.930 . S
H338 C335 0.929 . S
S339 N340 1.613 . S
S339 N341 1.610 . S
N340 S339 1.613 . S
N340 C343 1.350 . S
N341 S339 1.610 . S
N341 C342 1.351 . S
C342 C336 1.428 . S
C342 N341 1.351 . S
C342 C343 1.434 . S
C343 C334 1.429 . S
C343 N340 1.350 . S
C343 C342 1.434 . S
C344 C345 1.369 . S
C344 C346 1.419 . S
C344 H348 0.930 . S
C345 C344 1.369 . S
C345 C354 1.429 . S
C346 C344 1.419 . S
C346 C347 1.363 . S
C346 H349 0.929 . S
C347 C346 1.363 . S
C347 C353 1.428 . S
H348 C344 0.930 . S
H349 C346 0.929 . S
S350 N351 1.613 . S
S350 N352 1.610 . S
N351 S350 1.613 . S
N351 C354 1.350 . S
N352 S350 1.610 . S
N352 C353 1.351 . S
C353 C347 1.428 . S
C353 N352 1.351 . S
C353 C354 1.434 . S
C354 C345 1.429 . S
C354 N351 1.350 . S
C354 C353 1.434 . S
C355 C356 1.369 . S
C355 C357 1.419 . S
C355 H359 0.930 . S
C356 C355 1.369 . S
C356 C365 1.429 . S
C357 C355 1.419 . S
C357 C358 1.363 . S
C357 H360 0.929 . S
C358 C357 1.363 . S
C358 C364 1.428 . S
H359 C355 0.930 . S
H360 C357 0.929 . S
S361 N362 1.613 . S
S361 N363 1.610 . S
N362 S361 1.613 . S
N362 C365 1.350 . S
N363 S361 1.610 . S
N363 C364 1.351 . S
C364 C358 1.428 . S
C364 N363 1.351 . S
C364 C365 1.434 . S
C365 C356 1.429 . S
C365 N362 1.350 . S
C365 C364 1.434 . S
C366 C367 1.369 . S
C366 C368 1.419 . S
C366 H370 0.930 . S
C367 C366 1.369 . S
C367 C376 1.429 . S
C368 C366 1.419 . S
C368 C369 1.363 . S
C368 H371 0.929 . S
C369 C368 1.363 . S
C369 C375 1.428 . S
H370 C366 0.930 . S
H371 C368 0.929 . S
S372 N373 1.613 . S
S372 N374 1.610 . S
N373 S372 1.613 . S
N373 C376 1.350 . S
N374 S372 1.610 . S
N374 C375 1.351 . S
C375 C369 1.428 . S
C375 N374 1.351 . S
C375 C376 1.434 . S
C376 C367 1.429 . S
C376 N373 1.350 . S
C376 C375 1.434 . S
C377 C378 1.369 . S
C377 C379 1.419 . S
C377 H381 0.930 . S
C378 C377 1.369 . S
C378 C387 1.429 . S
C379 C377 1.419 . S
C379 C380 1.363 . S
C379 H382 0.929 . S
C380 C379 1.363 . S
C380 C386 1.428 . S
H381 C377 0.930 . S
H382 C379 0.929 . S
S383 N384 1.613 . S
S383 N385 1.610 . S
N384 S383 1.613 . S
N384 C387 1.350 . S
N385 S383 1.610 . S
N385 C386 1.351 . S
C386 C380 1.428 . S
C386 N385 1.351 . S
C386 C387 1.434 . S
C387 C378 1.429 . S
C387 N384 1.350 . S
C387 C386 1.434 . S
C388 C389 1.369 . S
C388 C390 1.419 . S
C388 H392 0.930 . S
C389 C388 1.369 . S
C389 C398 1.429 . S
C390 C388 1.419 . S
C390 C391 1.363 . S
C390 H393 0.929 . S
C391 C390 1.363 . S
C391 C397 1.428 . S
H392 C388 0.930 . S
H393 C390 0.929 . S
S394 N395 1.613 . S
S394 N396 1.610 . S
N395 S394 1.613 . S
N395 C398 1.350 . S
N396 S394 1.610 . S
N396 C397 1.351 . S
C397 C391 1.428 . S
C397 N396 1.351 . S
C397 C398 1.434 . S
C398 C389 1.429 . S
C398 N395 1.350 . S
C398 C397 1.434 . S
C399 C400 1.369 . S
C399 C401 1.419 . S
C399 H403 0.930 . S
C400 C399 1.369 . S
C400 C409 1.438 1_655 S
C401 C399 1.419 . S
C401 C402 1.363 1_655 S
C401 H404 0.929 . S
C402 C401 1.363 1_455 S
C402 C408 1.428 . S
H403 C399 0.930 . S
H404 C401 0.929 . S
S405 N406 1.613 . S
S405 N407 1.610 . S
N406 S405 1.613 . S
N406 C409 1.337 . S
N407 S405 1.610 . S
N407 C408 1.351 . S
C408 C402 1.428 . S
C408 N407 1.351 . S
C408 C409 1.440 . S
C409 C400 1.438 1_455 S
C409 N406 1.337 . S
C409 C408 1.440 . S
C410 C411 1.369 . S
C410 C412 1.419 . S
C410 H414 0.930 . S
C411 C410 1.369 . S
C411 C420 1.429 . S
C412 C410 1.419 . S
C412 C413 1.363 . S
C412 H415 0.929 . S
C413 C412 1.363 . S
C413 C419 1.428 . S
H414 C410 0.930 . S
H415 C412 0.929 . S
S416 N417 1.613 . S
S416 N418 1.610 . S
N417 S416 1.613 . S
N417 C420 1.350 . S
N418 S416 1.610 . S
N418 C419 1.351 . S
C419 C413 1.428 . S
C419 N418 1.351 . S
C419 C420 1.434 . S
C420 C411 1.429 . S
C420 N417 1.350 . S
C420 C419 1.434 . S
C421 C422 1.369 1_545 S
C421 C423 1.419 . S
C421 H425 0.930 . S
C422 C421 1.369 1_565 S
C422 C431 1.429 . S
C423 C421 1.419 . S
C423 C424 1.363 . S
C423 H426 0.929 . S
C424 C423 1.363 . S
C424 C430 1.428 1_545 S
H425 C421 0.930 . S
H426 C423 0.929 . S
S427 N428 1.613 . S
S427 N429 1.610 . S
N428 S427 1.613 . S
N428 C431 1.350 . S
N429 S427 1.610 . S
N429 C430 1.351 . S
C430 C424 1.428 1_565 S
C430 N429 1.351 . S
C430 C431 1.434 . S
C431 C422 1.429 . S
C431 N428 1.350 . S
C431 C430 1.434 . S
C432 C433 1.369 1_556 S
C432 C434 1.419 . S
C432 H436 0.930 . S
C433 C432 1.369 1_554 S
C433 C442 1.429 . S
C434 C432 1.419 . S
C434 C435 1.363 . S
C434 H437 0.929 . S
C435 C434 1.363 . S
C435 C441 1.428 1_556 S
H436 C432 0.930 . S
H437 C434 0.929 . S
S438 N439 1.613 . S
S438 N440 1.610 . S
N439 S438 1.613 . S
N439 C442 1.350 . S
N440 S438 1.610 . S
N440 C441 1.351 . S
C441 C435 1.428 1_554 S
C441 N440 1.351 . S
C441 C442 1.434 . S
C442 C433 1.429 . S
C442 N439 1.350 . S
C442 C441 1.434 . S
C443 C444 1.369 . S
C443 C445 1.419 1_545 S
C443 H447 0.930 . S
C444 C443 1.369 . S
C444 C453 1.429 1_556 S
C445 C443 1.419 1_565 S
C445 C446 1.363 1_556 S
C445 H448 0.929 . S
C446 C445 1.363 1_554 S
C446 C452 1.428 . S
H447 C443 0.930 . S
H448 C445 0.929 . S
S449 N450 1.613 . S
S449 N451 1.610 1_545 S
N450 S449 1.613 . S
N450 C453 1.350 . S
N451 S449 1.610 1_565 S
N451 C452 1.351 . S
C452 C446 1.428 . S
C452 N451 1.351 . S
C452 C453 1.434 1_565 S
C453 C444 1.429 1_554 S
C453 N450 1.350 . S
C453 C452 1.434 1_545 S
C454 C455 1.374 . S
C454 C456 1.414 1_656 S
C454 H458 0.930 1_556 S
C455 C454 1.374 . S
C455 C464 1.429 . S
C456 C454 1.414 1_454 S
C456 C457 1.363 . S
C456 H459 0.929 . S
C457 C456 1.363 . S
C457 C463 1.431 . S
H458 C454 0.930 1_554 S
H459 C456 0.929 . S
S460 N461 1.613 1_455 S
S460 N462 1.610 . S
N461 S460 1.613 1_655 S
N461 C464 1.350 . S
N462 S460 1.610 . S
N462 C463 1.351 1_556 S
C463 C457 1.431 . S
C463 N462 1.351 1_554 S
C463 C464 1.431 1_454 S
C464 C455 1.429 . S
C464 N461 1.350 . S
C464 C463 1.431 1_656 S
C465 C466 1.369 . S
C465 C467 1.419 . S
C465 H469 0.930 . S
C466 C465 1.369 . S
C466 C475 1.429 1_556 S
C467 C465 1.419 . S
C467 C468 1.363 1_556 S
C467 H470 0.929 . S
C468 C467 1.363 1_554 S
C468 C474 1.428 . S
H469 C465 0.930 . S
H470 C467 0.929 . S
S471 N472 1.613 . S
S471 N473 1.610 . S
N472 S471 1.613 . S
N472 C475 1.350 . S
N473 S471 1.610 . S
N473 C474 1.351 . S
C474 C468 1.428 . S
C474 N473 1.351 . S
C474 C475 1.434 . S
C475 C466 1.429 1_554 S
C475 N472 1.350 . S
C475 C474 1.434 . S
C476 C477 1.369 . S
C476 C478 1.419 1_565 S
C476 H480 0.930 . S
C477 C476 1.369 . S
C477 C486 1.429 1_554 S
C478 C476 1.419 1_545 S
C478 C479 1.363 1_554 S
C478 H481 0.929 . S
C479 C478 1.363 1_556 S
C479 C485 1.428 . S
H480 C476 0.930 . S
H481 C478 0.929 . S
S482 N483 1.613 . S
S482 N484 1.610 1_565 S
N483 S482 1.613 . S
N483 C486 1.350 . S
N484 S482 1.610 1_545 S
N484 C485 1.351 . S
C485 C479 1.428 . S
C485 N484 1.351 . S
C485 C486 1.434 1_545 S
C486 C477 1.429 1_556 S
C486 N483 1.350 . S
C486 C485 1.434 1_565 S
C487 C488 1.369 . S
C487 C489 1.419 1_655 S
C487 H491 0.930 . S
C488 C487 1.369 . S
C488 C497 1.429 1_556 S
C489 C487 1.419 1_455 S
C489 C490 1.363 1_556 S
C489 H492 0.929 . S
C490 C489 1.363 1_554 S
C490 C496 1.428 . S
H491 C487 0.930 . S
H492 C489 0.929 . S
S493 N494 1.613 . S
S493 N495 1.610 1_655 S
N494 S493 1.613 . S
N494 C497 1.350 . S
N495 S493 1.610 1_455 S
N495 C496 1.351 . S
C496 C490 1.428 . S
C496 N495 1.351 . S
C496 C497 1.434 1_455 S
C497 C488 1.429 1_554 S
C497 N494 1.350 . S
C497 C496 1.434 1_655 S
C498 C499 1.369 . S
C498 C500 1.419 . S
C498 H502 0.930 . S
C499 C498 1.369 . S
C499 C508 1.429 . S
C500 C498 1.419 . S
C500 C501 1.363 . S
C500 H503 0.929 . S
C501 C500 1.363 . S
C501 C507 1.428 . S
H502 C498 0.930 . S
H503 C500 0.929 . S
S504 N505 1.613 . S
S504 N506 1.610 . S
N505 S504 1.613 . S
N505 C508 1.350 . S
N506 S504 1.610 . S
N506 C507 1.351 . S
C507 C501 1.428 . S
C507 N506 1.351 . S
C507 C508 1.434 . S
C508 C499 1.429 . S
C508 N505 1.350 . S
C508 C507 1.434 . S
C509 C510 1.369 . S
C509 C511 1.419 . S
C509 H513 0.930 . S
C510 C509 1.369 . S
C510 C519 1.429 . S
C511 C509 1.419 . S
C511 C512 1.363 . S
C511 H514 0.929 . S
C512 C511 1.363 . S
C512 C518 1.428 . S
H513 C509 0.930 . S
H514 C511 0.929 . S
S515 N516 1.613 . S
S515 N517 1.610 . S
N516 S515 1.613 . S
N516 C519 1.350 . S
N517 S515 1.610 . S
N517 C518 1.351 . S
C518 C512 1.428 . S
C518 N517 1.351 . S
C518 C519 1.434 . S
C519 C510 1.429 . S
C519 N516 1.350 . S
C519 C518 1.434 . S
C520 C521 1.369 . S
C520 C522 1.419 . S
C520 H524 0.930 . S
C521 C520 1.369 . S
C521 C530 1.429 . S
C522 C520 1.419 . S
C522 C523 1.363 . S
C522 H525 0.929 . S
C523 C522 1.363 . S
C523 C529 1.428 . S
H524 C520 0.930 . S
H525 C522 0.929 . S
S526 N527 1.613 . S
S526 N528 1.610 . S
N527 S526 1.613 . S
N527 C530 1.350 . S
N528 S526 1.610 . S
N528 C529 1.351 . S
C529 C523 1.428 . S
C529 N528 1.351 . S
C529 C530 1.434 . S
C530 C521 1.429 . S
C530 N527 1.350 . S
C530 C529 1.434 . S
C531 C532 1.369 . S
C531 C533 1.419 . S
C531 H535 0.930 . S
C532 C531 1.369 . S
C532 C541 1.429 . S
C533 C531 1.419 . S
C533 C534 1.363 . S
C533 H536 0.929 . S
C534 C533 1.363 . S
C534 C540 1.428 . S
H535 C531 0.930 . S
H536 C533 0.929 . S
S537 N538 1.613 . S
S537 N539 1.610 . S
N538 S537 1.613 . S
N538 C541 1.350 . S
N539 S537 1.610 . S
N539 C540 1.351 . S
C540 C534 1.428 . S
C540 N539 1.351 . S
C540 C541 1.434 . S
C541 C532 1.429 . S
C541 N538 1.350 . S
C541 C540 1.434 . S
C542 C543 1.369 . S
C542 C544 1.419 . S
C542 H546 0.930 . S
C543 C542 1.369 . S
C543 C552 1.429 . S
C544 C542 1.419 . S
C544 C545 1.363 . S
C544 H547 0.929 . S
C545 C544 1.363 . S
C545 C551 1.428 . S
H546 C542 0.930 . S
H547 C544 0.929 . S
S548 N549 1.613 . S
S548 N550 1.610 . S
N549 S548 1.613 . S
N549 C552 1.350 . S
N550 S548 1.610 . S
N550 C551 1.351 . S
C551 C545 1.428 . S
C551 N550 1.351 . S
C551 C552 1.434 . S
C552 C543 1.429 . S
C552 N549 1.350 . S
C552 C551 1.434 . S
C553 C554 1.369 . S
C553 C555 1.419 . S
C553 H557 0.930 . S
C554 C553 1.369 . S
C554 C563 1.429 . S
C555 C553 1.419 . S
C555 C556 1.363 . S
C555 H558 0.929 . S
C556 C555 1.363 . S
C556 C562 1.428 . S
H557 C553 0.930 . S
H558 C555 0.929 . S
S559 N560 1.613 . S
S559 N561 1.610 . S
N560 S559 1.613 . S
N560 C563 1.350 . S
N561 S559 1.610 . S
N561 C562 1.351 . S
C562 C556 1.428 . S
C562 N561 1.351 . S
C562 C563 1.434 . S
C563 C554 1.429 . S
C563 N560 1.350 . S
C563 C562 1.434 . S
C564 C565 1.369 . S
C564 C566 1.419 . S
C564 H568 0.930 . S
C565 C564 1.369 . S
C565 C574 1.429 . S
C566 C564 1.419 . S
C566 C567 1.363 . S
C566 H569 0.929 . S
C567 C566 1.363 . S
C567 C573 1.428 . S
H568 C564 0.930 . S
H569 C566 0.929 . S
S570 N571 1.613 . S
S570 N572 1.610 . S
N571 S570 1.613 . S
N571 C574 1.350 . S
N572 S570 1.610 . S
N572 C573 1.351 . S
C573 C567 1.428 . S
C573 N572 1.351 . S
C573 C574 1.434 . S
C574 C565 1.429 . S
C574 N571 1.350 . S
C574 C573 1.434 . S
C575 C576 1.369 . S
C575 C577 1.419 . S
C575 H579 0.930 . S
C576 C575 1.369 . S
C576 C585 1.429 . S
C577 C575 1.419 . S
C577 C578 1.363 . S
C577 H580 0.929 . S
C578 C577 1.363 . S
C578 C584 1.428 . S
H579 C575 0.930 . S
H580 C577 0.929 . S
S581 N582 1.613 . S
S581 N583 1.610 . S
N582 S581 1.613 . S
N582 C585 1.350 . S
N583 S581 1.610 . S
N583 C584 1.351 . S
C584 C578 1.428 . S
C584 N583 1.351 . S
C584 C585 1.434 . S
C585 C576 1.429 . S
C585 N582 1.350 . S
C585 C584 1.434 . S
C586 C587 1.369 . S
C586 C588 1.419 . S
C586 H590 0.930 . S
C587 C586 1.369 . S
C587 C596 1.429 . S
C588 C586 1.419 . S
C588 C589 1.363 . S
C588 H591 0.929 . S
C589 C588 1.363 . S
C589 C595 1.428 . S
H590 C586 0.930 . S
H591 C588 0.929 . S
S592 N593 1.613 . S
S592 N594 1.610 . S
N593 S592 1.613 . S
N593 C596 1.350 . S
N594 S592 1.610 . S
N594 C595 1.351 . S
C595 C589 1.428 . S
C595 N594 1.351 . S
C595 C596 1.434 . S
C596 C587 1.429 . S
C596 N593 1.350 . S
C596 C595 1.434 . S
C597 C598 1.369 . S
C597 C599 1.419 . S
C597 H601 0.930 . S
C598 C597 1.369 . S
C598 C607 1.429 . S
C599 C597 1.419 . S
C599 C600 1.363 . S
C599 H602 0.929 . S
C600 C599 1.363 . S
C600 C606 1.428 . S
H601 C597 0.930 . S
H602 C599 0.929 . S
S603 N604 1.613 . S
S603 N605 1.610 . S
N604 S603 1.613 . S
N604 C607 1.350 . S
N605 S603 1.610 . S
N605 C606 1.351 . S
C606 C600 1.428 . S
C606 N605 1.351 . S
C606 C607 1.434 . S
C607 C598 1.429 . S
C607 N604 1.350 . S
C607 C606 1.434 . S
C608 C609 1.369 . S
C608 C610 1.419 . S
C608 H612 0.930 . S
C609 C608 1.369 . S
C609 C618 1.429 . S
C610 C608 1.419 . S
C610 C611 1.363 . S
C610 H613 0.929 . S
C611 C610 1.363 . S
C611 C617 1.428 . S
H612 C608 0.930 . S
H613 C610 0.929 . S
S614 N615 1.613 . S
S614 N616 1.610 . S
N615 S614 1.613 . S
N615 C618 1.350 . S
N616 S614 1.610 . S
N616 C617 1.351 . S
C617 C611 1.428 . S
C617 N616 1.351 . S
C617 C618 1.434 . S
C618 C609 1.429 . S
C618 N615 1.350 . S
C618 C617 1.434 . S
C619 C620 1.369 . S
C619 C621 1.419 . S
C619 H623 0.930 . S
C620 C619 1.369 . S
C620 C629 1.429 . S
C621 C619 1.419 . S
C621 C622 1.363 . S
C621 H624 0.929 . S
C622 C621 1.363 . S
C622 C628 1.428 . S
H623 C619 0.930 . S
H624 C621 0.929 . S
S625 N626 1.613 . S
S625 N627 1.610 . S
N626 S625 1.613 . S
N626 C629 1.350 . S
N627 S625 1.610 . S
N627 C628 1.351 . S
C628 C622 1.428 . S
C628 N627 1.351 . S
C628 C629 1.434 . S
C629 C620 1.429 . S
C629 N626 1.350 . S
C629 C628 1.434 . S
C235 C231 1.796 . S
C237 C10 1.796 . S
C246 C205 1.795 . S
C248 C17 1.796 . S
C257 C218 1.795 . S
C259 C30 1.796 . S
C268 C101 1.796 . S
C270 C49 1.796 . S
C279 C114 1.795 . S
C281 C62 1.795 . S
C290 C69 1.796 . S
C292 C88 1.795 . S
C301 C127 1.796 . S
C303 C173 1.795 . S
C312 C134 1.795 . S
C314 C186 1.795 . S
C323 C153 1.796 . S
C325 C166 1.795 . S
C334 C3 0.660 . S
C336 C224 0.672 . S
C345 C198 0.674 . S
C347 C18 0.662 . S
C356 C31 0.666 . S
C358 C211 0.670 . S
C367 C94 0.673 . S
C369 C42 0.662 . S
C378 C55 0.673 . S
C380 C107 0.662 . S
C389 C70 0.666 . S
C391 C81 0.670 . S
C400 C120 0.669 . S
C402 C174 0.664 . S
C411 C187 0.668 . S
C413 C135 0.665 . S
C422 C159 0.664 . S
C424 C146 0.671 . S
C433 C4 1.835 . S
C435 C43 1.833 . S
C444 C56 1.831 . S
C446 C23 1.835 . S
C455 C75 1.834 . S
C457 C36 1.834 . S
C466 C68 1.687 . S
C468 C16 1.687 . S
C477 C29 1.685 . S
C479 C44 1.686 . S
C488 C57 1.686 . S
C490 C5 1.687 . S
C499 C82 1.837 . S
C501 C121 1.832 . S
C510 C140 1.831 . S
C512 C95 1.835 . S
C521 C147 1.834 . S
C523 C108 1.834 . S
C532 C148 1.686 . S
C534 C96 1.687 . S
C543 C109 1.687 . S
C545 C122 1.686 . S
C554 C133 1.685 . S
C556 C83 1.687 . S
C565 C199 1.832 . S
C567 C160 1.836 . S
C576 C212 1.830 . S
C578 C179 1.835 . S
C587 C192 1.833 . S
C589 C225 1.833 . S
C598 C226 1.686 . S
C600 C172 1.685 . S
C609 C185 1.685 . S
C611 C200 1.685 . S
C620 C213 1.686 . S
C622 C161 1.685 . S
