# Generated by pormake.
# Topology whh, (6)-cn, num edge types: 1
# Building blocks:
#     Node 0, Type 0, BuildingBlock: OJICUG_clean_sbu_0, # of connection points: 6
#     Node 1, Type 0, BuildingBlock: OJICUG_clean_sbu_0, # of connection points: 6
#     Node 2, Type 0, BuildingBlock: OJICUG_clean_sbu_0, # of connection points: 6
#     Node 3, Type 0, BuildingBlock: OJICUG_clean_sbu_0, # of connection points: 6
#     Node 4, Type 0, BuildingBlock: OJICUG_clean_sbu_0, # of connection points: 6
#     Node 5, Type 0, BuildingBlock: OJICUG_clean_sbu_0, # of connection points: 6
#     Node 6, Type 0, BuildingBlock: OJICUG_clean_sbu_0, # of connection points: 6
#     Node 7, Type 0, BuildingBlock: OJICUG_clean_sbu_0, # of connection points: 6
#     Node 8, Type 0, BuildingBlock: OJICUG_clean_sbu_0, # of connection points: 6
#     Node 9, Type 0, BuildingBlock: OJICUG_clean_sbu_0, # of connection points: 6
#     Node 10, Type 0, BuildingBlock: OJICUG_clean_sbu_0, # of connection points: 6
#     Node 11, Type 0, BuildingBlock: OJICUG_clean_sbu_0, # of connection points: 6
#     Node 12, Type 0, BuildingBlock: OJICUG_clean_sbu_0, # of connection points: 6
#     Node 13, Type 0, BuildingBlock: OJICUG_clean_sbu_0, # of connection points: 6
#     Node 14, Type 0, BuildingBlock: OJICUG_clean_sbu_0, # of connection points: 6
#     Node 15, Type 0, BuildingBlock: OJICUG_clean_sbu_0, # of connection points: 6
#     Edge 16, Type (0, 0), BuildingBlock: KIFKEQ_clean_linker_1, # of connection points: 2
#     Edge 17, Type (0, 0), BuildingBlock: KIFKEQ_clean_linker_1, # of connection points: 2
#     Edge 18, Type (0, 0), BuildingBlock: KIFKEQ_clean_linker_1, # of connection points: 2
#     Edge 19, Type (0, 0), BuildingBlock: KIFKEQ_clean_linker_1, # of connection points: 2
#     Edge 20, Type (0, 0), BuildingBlock: KIFKEQ_clean_linker_1, # of connection points: 2
#     Edge 21, Type (0, 0), BuildingBlock: KIFKEQ_clean_linker_1, # of connection points: 2
#     Edge 22, Type (0, 0), BuildingBlock: KIFKEQ_clean_linker_1, # of connection points: 2
#     Edge 23, Type (0, 0), BuildingBlock: KIFKEQ_clean_linker_1, # of connection points: 2
#     Edge 24, Type (0, 0), BuildingBlock: KIFKEQ_clean_linker_1, # of connection points: 2
#     Edge 25, Type (0, 0), BuildingBlock: KIFKEQ_clean_linker_1, # of connection points: 2
#     Edge 26, Type (0, 0), BuildingBlock: KIFKEQ_clean_linker_1, # of connection points: 2
#     Edge 27, Type (0, 0), BuildingBlock: KIFKEQ_clean_linker_1, # of connection points: 2
#     Edge 28, Type (0, 0), BuildingBlock: KIFKEQ_clean_linker_1, # of connection points: 2
#     Edge 29, Type (0, 0), BuildingBlock: KIFKEQ_clean_linker_1, # of connection points: 2
#     Edge 30, Type (0, 0), BuildingBlock: KIFKEQ_clean_linker_1, # of connection points: 2
#     Edge 31, Type (0, 0), BuildingBlock: KIFKEQ_clean_linker_1, # of connection points: 2
#     Edge 32, Type (0, 0), BuildingBlock: KIFKEQ_clean_linker_1, # of connection points: 2
#     Edge 33, Type (0, 0), BuildingBlock: KIFKEQ_clean_linker_1, # of connection points: 2
#     Edge 34, Type (0, 0), BuildingBlock: KIFKEQ_clean_linker_1, # of connection points: 2
#     Edge 35, Type (0, 0), BuildingBlock: KIFKEQ_clean_linker_1, # of connection points: 2
#     Edge 36, Type (0, 0), BuildingBlock: KIFKEQ_clean_linker_1, # of connection points: 2
#     Edge 37, Type (0, 0), BuildingBlock: KIFKEQ_clean_linker_1, # of connection points: 2
#     Edge 38, Type (0, 0), BuildingBlock: KIFKEQ_clean_linker_1, # of connection points: 2
#     Edge 39, Type (0, 0), BuildingBlock: KIFKEQ_clean_linker_1, # of connection points: 2
#     Edge 40, Type (0, 0), BuildingBlock: KIFKEQ_clean_linker_1, # of connection points: 2
#     Edge 41, Type (0, 0), BuildingBlock: KIFKEQ_clean_linker_1, # of connection points: 2
#     Edge 42, Type (0, 0), BuildingBlock: KIFKEQ_clean_linker_1, # of connection points: 2
#     Edge 43, Type (0, 0), BuildingBlock: KIFKEQ_clean_linker_1, # of connection points: 2
#     Edge 44, Type (0, 0), BuildingBlock: KIFKEQ_clean_linker_1, # of connection points: 2
#     Edge 45, Type (0, 0), BuildingBlock: KIFKEQ_clean_linker_1, # of connection points: 2
#     Edge 46, Type (0, 0), BuildingBlock: KIFKEQ_clean_linker_1, # of connection points: 2
#     Edge 47, Type (0, 0), BuildingBlock: KIFKEQ_clean_linker_1, # of connection points: 2
#     Edge 48, Type (0, 0), BuildingBlock: KIFKEQ_clean_linker_1, # of connection points: 2
#     Edge 49, Type (0, 0), BuildingBlock: KIFKEQ_clean_linker_1, # of connection points: 2
#     Edge 50, Type (0, 0), BuildingBlock: KIFKEQ_clean_linker_1, # of connection points: 2
#     Edge 51, Type (0, 0), BuildingBlock: KIFKEQ_clean_linker_1, # of connection points: 2
#     Edge 52, Type (0, 0), BuildingBlock: KIFKEQ_clean_linker_1, # of connection points: 2
#     Edge 53, Type (0, 0), BuildingBlock: KIFKEQ_clean_linker_1, # of connection points: 2
#     Edge 54, Type (0, 0), BuildingBlock: KIFKEQ_clean_linker_1, # of connection points: 2
#     Edge 55, Type (0, 0), BuildingBlock: KIFKEQ_clean_linker_1, # of connection points: 2
#     Edge 56, Type (0, 0), BuildingBlock: KIFKEQ_clean_linker_1, # of connection points: 2
#     Edge 57, Type (0, 0), BuildingBlock: KIFKEQ_clean_linker_1, # of connection points: 2
#     Edge 58, Type (0, 0), BuildingBlock: KIFKEQ_clean_linker_1, # of connection points: 2
#     Edge 59, Type (0, 0), BuildingBlock: KIFKEQ_clean_linker_1, # of connection points: 2
#     Edge 60, Type (0, 0), BuildingBlock: KIFKEQ_clean_linker_1, # of connection points: 2
#     Edge 61, Type (0, 0), BuildingBlock: KIFKEQ_clean_linker_1, # of connection points: 2
#     Edge 62, Type (0, 0), BuildingBlock: KIFKEQ_clean_linker_1, # of connection points: 2
#     Edge 63, Type (0, 0), BuildingBlock: KIFKEQ_clean_linker_1, # of connection points: 2
# Relax obj value: 0.385
# Max RMSD: 0.252
# Mean RMSD: 0.252
data_MOF--net-whh--node1-OJICUG_clean_sbu_0--edge1-KIFKEQ_clean_linker_1
_symmetry_space_group_name_H-M    P1
_symmetry_Int_Tables_number       1
_symmetry_cell_setting            triclinic
loop_
_symmetry_equiv_pos_as_xyz
'x, y, z'
_cell_length_a     36.266674
_cell_length_b     36.264754
_cell_length_c     45.364537
_cell_angle_alpha  90.009287
_cell_angle_beta   89.973538
_cell_angle_gamma 89.982253
loop_
_atom_site_label
_atom_site_type_symbol
_atom_site_fract_x
_atom_site_fract_y
_atom_site_fract_z
_atom_type_partial_charge
Sc0 Sc 0.05135 0.67314 0.06313 0.0
Sc1 Sc 0.09975 0.6244 0.11621 0.0
Sc2 Sc 0.0263 0.68164 0.13596 0.0
O3 O 0.05936 0.66033 0.10572 0.0
C4 C 0.01919 0.74637 0.09161 0.0
C5 C 0.13452 0.68347 0.07028 0.0
C6 C 0.10785 0.68813 0.16284 0.0
C7 C 0.07152 0.59289 0.05849 0.0
C8 C 0.97404 0.64732 0.08561 0.0
C9 C 0.03835 0.60111 0.16333 0.0
O10 O 0.02283 0.72493 0.06975 0.0
O11 O 0.13575 0.65231 0.08387 0.0
O12 O 0.07393 0.6977 0.16147 0.0
O13 O 0.0794 0.62448 0.04889 0.0
O14 O 0.97859 0.66474 0.11 0.0
O15 O 0.0688 0.59461 0.15027 0.0
O16 O 0.99902 0.64503 0.06571 0.0
O17 O 0.07673 0.58545 0.08538 0.0
O18 O 0.02049 0.63074 0.1593 0.0
O19 O 0.1042 0.69934 0.06344 0.0
O20 O 0.02709 0.73607 0.11749 0.0
O21 O 0.12182 0.66153 0.14834 0.0
Sc22 Sc 0.83438 0.04956 0.06173 0.0
Sc23 Sc 0.88027 0.09781 0.11656 0.0
Sc24 Sc 0.82193 0.02489 0.13453 0.0
O25 O 0.84482 0.05768 0.10483 0.0
C26 C 0.75916 0.01886 0.08817 0.0
C27 C 0.8247 0.13305 0.06842 0.0
C28 C 0.81433 0.10671 0.16097 0.0
C29 C 0.91559 0.06837 0.0604 0.0
C30 C 0.85792 0.97192 0.08528 0.0
C31 C 0.90076 0.03668 0.16474 0.0
O32 O 0.78149 0.02239 0.06684 0.0
O33 O 0.85516 0.13391 0.08294 0.0
O34 O 0.80498 0.07273 0.15956 0.0
O35 O 0.88493 0.07577 0.04871 0.0
O36 O 0.83974 0.97687 0.10926 0.0
O37 O 0.90775 0.06718 0.15195 0.0
O38 O 0.86115 0.99668 0.06533 0.0
O39 O 0.9204 0.07351 0.08768 0.0
O40 O 0.87155 0.01864 0.15953 0.0
O41 O 0.80908 0.1029 0.06087 0.0
O42 O 0.76857 0.02618 0.11436 0.0
O43 O 0.84143 0.12061 0.14704 0.0
Sc44 Sc 0.45686 0.83213 0.05918 0.0
Sc45 Sc 0.40843 0.88106 0.11223 0.0
Sc46 Sc 0.48167 0.82369 0.13213 0.0
O47 O 0.4488 0.84505 0.10179 0.0
C48 C 0.48853 0.75873 0.08778 0.0
C49 C 0.37356 0.82227 0.06641 0.0
C50 C 0.39993 0.81727 0.15875 0.0
C51 C 0.43732 0.91271 0.05471 0.0
C52 C 0.53427 0.85769 0.08176 0.0
C53 C 0.46944 0.90406 0.15969 0.0
O54 O 0.4848 0.78003 0.06584 0.0
O55 O 0.37252 0.85362 0.07969 0.0
O56 O 0.43386 0.80769 0.15754 0.0
O57 O 0.42954 0.88119 0.04484 0.0
O58 O 0.52951 0.84059 0.10627 0.0
O59 O 0.43907 0.91056 0.14656 0.0
O60 O 0.50945 0.85978 0.06175 0.0
O61 O 0.43179 0.91999 0.08161 0.0
O62 O 0.48744 0.87454 0.15557 0.0
O63 O 0.40379 0.80627 0.05951 0.0
O64 O 0.481 0.76925 0.11367 0.0
O65 O 0.38608 0.84382 0.14414 0.0
Sc66 Sc 0.67494 0.45543 0.05996 0.0
Sc67 Sc 0.62539 0.40665 0.1124 0.0
Sc68 Sc 0.68222 0.47999 0.13301 0.0
O69 O 0.66142 0.44713 0.1024 0.0
C70 C 0.74779 0.48712 0.08938 0.0
C71 C 0.68522 0.3721 0.06707 0.0
C72 C 0.68829 0.39828 0.15968 0.0
C73 C 0.59458 0.43544 0.05448 0.0
C74 C 0.64887 0.53267 0.08252 0.0
C75 C 0.60127 0.46778 0.1595 0.0
O76 O 0.72676 0.4836 0.06726 0.0
O77 O 0.65375 0.37081 0.08019 0.0
O78 O 0.69781 0.43221 0.15857 0.0
O79 O 0.62631 0.42793 0.04493 0.0
O80 O 0.66585 0.52789 0.10707 0.0
O81 O 0.59507 0.43735 0.14632 0.0
O82 O 0.64693 0.50787 0.06246 0.0
O83 O 0.58693 0.42986 0.08131 0.0
O84 O 0.63088 0.48575 0.15579 0.0
O85 O 0.70107 0.40247 0.06034 0.0
O86 O 0.73696 0.47927 0.11514 0.0
O87 O 0.66202 0.38436 0.14479 0.0
Sc88 Sc 0.02277 0.82445 0.35423 0.0
Sc89 Sc 0.09619 0.88129 0.37502 0.0
Sc90 Sc 0.04728 0.83151 0.42749 0.0
O91 O 0.05553 0.84552 0.38512 0.0
C92 C 0.96947 0.85648 0.40478 0.0
C93 C 0.03444 0.90599 0.32868 0.0
C94 C 0.07171 0.91326 0.43453 0.0
C95 C 0.10397 0.81889 0.32701 0.0
C96 C 0.01668 0.75821 0.39747 0.0
C97 C 0.13125 0.8217 0.42015 0.0
O98 O 0.97471 0.84028 0.37998 0.0
O99 O 0.06462 0.91245 0.34213 0.0
O100 O 0.07213 0.88076 0.4446 0.0
O101 O 0.07027 0.80886 0.3285 0.0
O102 O 0.02082 0.77893 0.41969 0.0
O103 O 0.13261 0.85251 0.40619 0.0
O104 O 0.02329 0.76951 0.37164 0.0
O105 O 0.11763 0.84534 0.34177 0.0
O106 O 0.10089 0.80637 0.42758 0.0
O107 O 0.01699 0.87596 0.33175 0.0
O108 O 0.99408 0.85826 0.42498 0.0
O109 O 0.07601 0.91965 0.40731 0.0
Sc110 Sc 0.67029 0.04865 0.42575 0.0
Sc111 Sc 0.62101 0.09665 0.3728 0.0
Sc112 Sc 0.67945 0.02421 0.35283 0.0
O113 O 0.65752 0.05673 0.38316 0.0
C114 C 0.74393 0.01731 0.39738 0.0
C115 C 0.68001 0.13201 0.41832 0.0
C116 C 0.68462 0.10593 0.32609 0.0
C117 C 0.58987 0.06757 0.43046 0.0
C118 C 0.64542 0.97121 0.40284 0.0
C119 C 0.59883 0.03535 0.32534 0.0
O120 O 0.72231 0.02067 0.41915 0.0
O121 O 0.64857 0.13292 0.40514 0.0
O122 O 0.69492 0.07223 0.32749 0.0
O123 O 0.6213 0.07603 0.44006 0.0
O124 O 0.663 0.97615 0.37856 0.0
O125 O 0.59172 0.06547 0.33868 0.0
O126 O 0.64273 0.99598 0.42288 0.0
O127 O 0.58234 0.07289 0.40359 0.0
O128 O 0.62875 0.01795 0.32926 0.0
O129 O 0.69601 0.10182 0.42538 0.0
O130 O 0.7338 0.02542 0.3715 0.0
O131 O 0.65774 0.11934 0.34062 0.0
Sc132 Sc 0.47856 0.68058 0.35013 0.0
Sc133 Sc 0.40548 0.6227 0.36959 0.0
Sc134 Sc 0.45342 0.67148 0.42291 0.0
O135 O 0.44558 0.65887 0.38025 0.0
C136 C 0.53094 0.64616 0.40037 0.0
C137 C 0.46713 0.60008 0.32245 0.0
C138 C 0.43378 0.59111 0.42731 0.0
C139 C 0.39707 0.68659 0.32309 0.0
C140 C 0.48529 0.74506 0.3948 0.0
C141 C 0.37015 0.68153 0.41552 0.0
O142 O 0.52631 0.66372 0.37605 0.0
O143 O 0.43679 0.59321 0.33556 0.0
O144 O 0.42563 0.62261 0.43695 0.0
O145 O 0.43086 0.69652 0.32463 0.0
O146 O 0.48164 0.72347 0.41656 0.0
O147 O 0.36911 0.6504 0.40186 0.0
O148 O 0.47754 0.7349 0.36886 0.0
O149 O 0.38331 0.65977 0.33744 0.0
O150 O 0.40039 0.69741 0.42258 0.0
O151 O 0.48467 0.62987 0.32653 0.0
O152 O 0.50597 0.64365 0.42026 0.0
O153 O 0.42865 0.58372 0.40039 0.0
Sc154 Sc 0.82352 0.47963 0.35198 0.0
Sc155 Sc 0.88039 0.40619 0.37238 0.0
Sc156 Sc 0.83059 0.45453 0.42493 0.0
O157 O 0.84427 0.44656 0.38248 0.0
C158 C 0.85683 0.53188 0.40275 0.0
C159 C 0.90464 0.4677 0.32569 0.0
C160 C 0.91097 0.43412 0.43072 0.0
C161 C 0.81772 0.39818 0.32482 0.0
C162 C 0.75783 0.48655 0.39551 0.0
C163 C 0.82028 0.37124 0.41726 0.0
O164 O 0.83982 0.52732 0.37819 0.0
O165 O 0.91092 0.43726 0.33882 0.0
O166 O 0.8791 0.42691 0.44013 0.0
O167 O 0.80802 0.43206 0.32617 0.0
O168 O 0.77881 0.48283 0.41763 0.0
O169 O 0.85178 0.37004 0.4042 0.0
O170 O 0.7687 0.47885 0.36974 0.0
O171 O 0.84402 0.38423 0.33966 0.0
O172 O 0.80445 0.40157 0.42419 0.0
O173 O 0.87491 0.48551 0.32931 0.0
O174 O 0.85872 0.50694 0.4227 0.0
O175 O 0.91866 0.42896 0.40384 0.0
Sc176 Sc 0.98164 0.32763 0.85485 0.0
Sc177 Sc 0.90693 0.38345 0.87403 0.0
Sc178 Sc 0.95671 0.33688 0.9281 0.0
O179 O 0.94831 0.34904 0.88527 0.0
C180 C 0.98784 0.2627 0.89946 0.0
C181 C 0.90059 0.31944 0.82759 0.0
C182 C 0.87255 0.326 0.92132 0.0
C183 C 0.96848 0.4077 0.82717 0.0
C184 C 0.03457 0.36161 0.90498 0.0
C185 C 0.93111 0.4189 0.93229 0.0
O186 O 0.98158 0.27341 0.87342 0.0
O187 O 0.88622 0.34576 0.84203 0.0
O188 O 0.90313 0.3115 0.92922 0.0
O189 O 0.98682 0.37841 0.83131 0.0
O190 O 0.00989 0.36356 0.92511 0.0
O191 O 0.92655 0.42332 0.90488 0.0
O192 O 0.02945 0.34502 0.88034 0.0
O193 O 0.93786 0.41373 0.84015 0.0
O194 O 0.93212 0.38721 0.94396 0.0
O195 O 0.93459 0.31041 0.82913 0.0
O196 O 0.98331 0.28387 0.92141 0.0
O197 O 0.87081 0.35581 0.90609 0.0
Sc198 Sc 0.1731 0.95813 0.92676 0.0
Sc199 Sc 0.12284 0.90557 0.87569 0.0
Sc200 Sc 0.17875 0.97842 0.85189 0.0
O201 O 0.1582 0.94746 0.88467 0.0
C202 C 0.14627 0.03498 0.89977 0.0
C203 C 0.09031 0.93117 0.93567 0.0
C204 C 0.09845 0.96094 0.82521 0.0
C205 C 0.18176 0.87218 0.92243 0.0
C206 C 0.24607 0.9883 0.89592 0.0
C207 C 0.18743 0.89669 0.82873 0.0
O208 O 0.14983 0.01312 0.92183 0.0
O209 O 0.08431 0.92245 0.90905 0.0
O210 O 0.1298 0.97628 0.82555 0.0
O211 O 0.19533 0.90304 0.93067 0.0
O212 O 0.23239 0.9871 0.87034 0.0
O213 O 0.15829 0.88513 0.84134 0.0
O214 O 0.2277 0.97917 0.91846 0.0
O215 O 0.15321 0.86976 0.90591 0.0
O216 O 0.19966 0.92956 0.83103 0.0
O217 O 0.12202 0.93981 0.94501 0.0
O218 O 0.15713 0.02699 0.87364 0.0
O219 O 0.08937 0.93627 0.84382 0.0
Sc220 Sc 0.52674 0.18084 0.85372 0.0
Sc221 Sc 0.60193 0.12551 0.87271 0.0
Sc222 Sc 0.55156 0.17131 0.92701 0.0
O223 O 0.56021 0.15953 0.88412 0.0
C224 C 0.51993 0.24559 0.89869 0.0
C225 C 0.60772 0.19002 0.8266 0.0
C226 C 0.63578 0.18274 0.92044 0.0
C227 C 0.54073 0.1009 0.82578 0.0
C228 C 0.4739 0.14618 0.90349 0.0
C229 C 0.57776 0.08932 0.93084 0.0
O230 O 0.52577 0.23495 0.87256 0.0
O231 O 0.62231 0.16354 0.84071 0.0
O232 O 0.60508 0.19684 0.92852 0.0
O233 O 0.52232 0.13017 0.82985 0.0
O234 O 0.49846 0.14442 0.92371 0.0
O235 O 0.58277 0.08524 0.90344 0.0
O236 O 0.47901 0.1628 0.87888 0.0
O237 O 0.57124 0.09496 0.8389 0.0
O238 O 0.57603 0.12086 0.94273 0.0
O239 O 0.57369 0.19882 0.82832 0.0
O240 O 0.52504 0.22442 0.92057 0.0
O241 O 0.63781 0.15329 0.9048 0.0
Sc242 Sc 0.32677 0.52627 0.85421 0.0
Sc243 Sc 0.38206 0.6016 0.87283 0.0
Sc244 Sc 0.33665 0.55143 0.92747 0.0
O245 O 0.34818 0.5599 0.88448 0.0
C246 C 0.2622 0.51981 0.8995 0.0
C247 C 0.31719 0.60716 0.82697 0.0
C248 C 0.32545 0.63578 0.92097 0.0
C249 C 0.40621 0.5405 0.82556 0.0
C250 C 0.36162 0.47349 0.90405 0.0
C251 C 0.4188 0.57729 0.93074 0.0
O252 O 0.27286 0.52513 0.87331 0.0
O253 O 0.34367 0.62183 0.84103 0.0
O254 O 0.31136 0.60512 0.92913 0.0
O255 O 0.3771 0.52198 0.82993 0.0
O256 O 0.36318 0.49806 0.92428 0.0
O257 O 0.42264 0.58241 0.90332 0.0
O258 O 0.34528 0.47865 0.87933 0.0
O259 O 0.41225 0.57097 0.83873 0.0
O260 O 0.38738 0.57564 0.94284 0.0
O261 O 0.30845 0.57312 0.8288 0.0
O262 O 0.28335 0.52525 0.92133 0.0
O263 O 0.35469 0.63767 0.90506 0.0
Sc264 Sc 0.95471 0.17108 0.56388 0.0
Sc265 Sc 0.90601 0.12456 0.61816 0.0
Sc266 Sc 0.9793 0.18213 0.63694 0.0
O267 O 0.94646 0.1599 0.60686 0.0
C268 C 0.03226 0.14644 0.58741 0.0
C269 C 0.93448 0.08978 0.56134 0.0
C270 C 0.96663 0.10291 0.66649 0.0
C271 C 0.87104 0.18146 0.5708 0.0
C272 C 0.98628 0.24568 0.59108 0.0
C273 C 0.89747 0.18986 0.66316 0.0
O274 O 0.00761 0.144 0.56728 0.0
O275 O 0.92948 0.08483 0.58862 0.0
O276 O 0.98462 0.1323 0.66186 0.0
O277 O 0.90138 0.19671 0.56319 0.0
O278 O 0.97932 0.23584 0.61724 0.0
O279 O 0.88369 0.16276 0.6492 0.0
O280 O 0.982 0.22384 0.56952 0.0
O281 O 0.86988 0.15083 0.58507 0.0
O282 O 0.93138 0.19944 0.66174 0.0
O283 O 0.92857 0.12087 0.5498 0.0
O284 O 0.02724 0.16387 0.61175 0.0
O285 O 0.93656 0.09594 0.65307 0.0
Sc286 Sc 0.3343 0.95689 0.56315 0.0
Sc287 Sc 0.38131 0.90621 0.61704 0.0
Sc288 Sc 0.32807 0.98258 0.63688 0.0
O289 O 0.34761 0.94848 0.60596 0.0
C290 C 0.36263 0.03411 0.58631 0.0
C291 C 0.4163 0.92918 0.55779 0.0
C292 C 0.40823 0.96658 0.66371 0.0
C293 C 0.32262 0.87241 0.57035 0.0
C294 C 0.26148 0.99004 0.59277 0.0
C295 C 0.31715 0.90209 0.66405 0.0
O296 O 0.36087 0.01039 0.56547 0.0
O297 O 0.42099 0.92356 0.58507 0.0
O298 O 0.37872 0.9848 0.6607 0.0
O299 O 0.30898 0.90317 0.56199 0.0
O300 O 0.27383 0.98699 0.61871 0.0
O301 O 0.3438 0.88738 0.65015 0.0
O302 O 0.28103 0.98243 0.57042 0.0
O303 O 0.3519 0.87019 0.58611 0.0
O304 O 0.30827 0.93608 0.66195 0.0
O305 O 0.38462 0.9332 0.54648 0.0
O306 O 0.34881 0.02914 0.61198 0.0
O307 O 0.41398 0.93661 0.64978 0.0
Sc308 Sc 0.54953 0.33719 0.56051 0.0
Sc309 Sc 0.59917 0.38517 0.61399 0.0
Sc310 Sc 0.52329 0.33136 0.63376 0.0
O311 O 0.55742 0.35096 0.60313 0.0
C312 C 0.47142 0.36362 0.58227 0.0
C313 C 0.57542 0.41893 0.55486 0.0
C314 C 0.53758 0.41199 0.6599 0.0
C315 C 0.63358 0.32568 0.56845 0.0
C316 C 0.51695 0.26458 0.59068 0.0
C317 C 0.60388 0.32266 0.6618 0.0
O318 O 0.49632 0.36431 0.56224 0.0
O319 O 0.58017 0.42419 0.58217 0.0
O320 O 0.51868 0.38301 0.65612 0.0
O321 O 0.60297 0.3113 0.56053 0.0
O322 O 0.52229 0.27657 0.61649 0.0
O323 O 0.61897 0.34819 0.64692 0.0
O324 O 0.52279 0.28445 0.56816 0.0
O325 O 0.6354 0.35613 0.58282 0.0
O326 O 0.56974 0.31425 0.66018 0.0
O327 O 0.57455 0.38689 0.54378 0.0
O328 O 0.4762 0.34846 0.60751 0.0
O329 O 0.56848 0.41699 0.6471 0.0
Sc330 Sc 0.16839 0.5514 0.55966 0.0
Sc331 Sc 0.12236 0.59997 0.61468 0.0
Sc332 Sc 0.17932 0.52569 0.63257 0.0
O333 O 0.15704 0.55916 0.60271 0.0
C334 C 0.14464 0.47311 0.58254 0.0
C335 C 0.08615 0.57522 0.55683 0.0
C336 C 0.09978 0.53793 0.66163 0.0
C337 C 0.17876 0.6355 0.56721 0.0
C338 C 0.24341 0.52053 0.58694 0.0
C339 C 0.18731 0.60651 0.66034 0.0
O340 O 0.14211 0.49796 0.56259 0.0
O341 O 0.08212 0.57968 0.5843 0.0
O342 O 0.12917 0.51993 0.65696 0.0
O343 O 0.19339 0.60517 0.55884 0.0
O344 O 0.23313 0.52626 0.61318 0.0
O345 O 0.16052 0.62082 0.6464 0.0
O346 O 0.22176 0.5252 0.56532 0.0
O347 O 0.14897 0.63675 0.5825 0.0
O348 O 0.19666 0.57263 0.65834 0.0
O349 O 0.1176 0.57596 0.54477 0.0
O350 O 0.16171 0.47808 0.60698 0.0
O351 O 0.09313 0.56849 0.64878 0.0
H352 H 0.77836 0.51624 0.03898 0.0
H353 H 0.79974 0.4997 0.13182 0.0
H354 H 0.83343 0.55493 0.03543 0.0
H355 H 0.8545 0.53802 0.12809 0.0
H356 H 0.91377 0.64712 0.12172 0.0
H357 H 0.86132 0.60564 0.12027 0.0
H358 H 0.90341 0.55591 0.04059 0.0
H359 H 0.95625 0.59781 0.0418 0.0
C360 C 0.79508 0.52025 0.0585 0.0
C361 C 0.78426 0.5052 0.08579 0.0
C362 C 0.82663 0.54242 0.05642 0.0
C363 C 0.84781 0.5501 0.0816 0.0
C364 C 0.83821 0.53329 0.10843 0.0
C365 C 0.8069 0.51109 0.1105 0.0
C366 C 0.91183 0.62772 0.10364 0.0
C367 C 0.93951 0.62576 0.08198 0.0
C368 C 0.88185 0.60368 0.10298 0.0
C369 C 0.87861 0.57705 0.08064 0.0
C370 C 0.90522 0.57612 0.05811 0.0
C371 C 0.93545 0.6002 0.05881 0.0
H372 H 0.00762 0.79973 0.13315 0.0
H373 H 0.9886 0.77512 0.04113 0.0
H374 H 0.96901 0.85425 0.12893 0.0
H375 H 0.94954 0.82984 0.0371 0.0
H376 H 0.9054 0.95179 0.04069 0.0
H377 H 0.94772 0.89928 0.04024 0.0
H378 H 0.90168 0.86134 0.12262 0.0
H379 H 0.86003 0.91368 0.12345 0.0
C380 C 0.9956 0.80612 0.11191 0.0
C381 C 1.0009 0.78266 0.08759 0.0
C382 C 0.97322 0.83728 0.10956 0.0
C383 C 0.9556 0.84588 0.08285 0.0
C384 C 0.96268 0.82385 0.058 0.0
C385 C 0.98507 0.79249 0.06035 0.0
C386 C 0.90398 0.93201 0.05853 0.0
C387 C 0.87944 0.93727 0.08225 0.0
C388 C 0.92826 0.90193 0.05824 0.0
C389 C 0.92849 0.87657 0.08167 0.0
C390 C 0.9028 0.88091 0.1046 0.0
C391 C 0.87861 0.9108 0.1049 0.0
H392 H 0.59337 0.85991 0.11899 0.0
H393 H 0.55325 0.90528 0.03686 0.0
H394 H 0.64538 0.90191 0.11756 0.0
H395 H 0.60579 0.94767 0.03564 0.0
H396 H 0.70375 0.00956 0.12822 0.0
H397 H 0.64938 0.97091 0.12343 0.0
H398 H 0.67726 0.94836 0.03271 0.0
H399 H 0.73215 0.98728 0.03734 0.0
C400 C 0.59577 0.8785 0.10041 0.0
C401 C 0.5688 0.87928 0.07815 0.0
C402 C 0.62551 0.90283 0.09975 0.0
C403 C 0.62925 0.92853 0.07679 0.0
C404 C 0.60351 0.92819 0.05365 0.0
C405 C 0.57347 0.90386 0.05437 0.0
C406 C 0.69819 0.99688 0.10706 0.0
C407 C 0.72274 1.00115 0.0833 0.0
C408 C 0.66708 0.97454 0.1044 0.0
C409 C 0.65957 0.95599 0.07789 0.0
C410 C 0.68252 0.96222 0.05343 0.0
C411 C 0.71391 0.98454 0.05612 0.0
H412 H 0.50095 0.70606 0.12968 0.0
H413 H 0.51752 0.72882 0.03703 0.0
H414 H 0.5393 0.65136 0.12543 0.0
H415 H 0.55621 0.67375 0.03296 0.0
H416 H 0.64881 0.59292 0.11862 0.0
H417 H 0.60717 0.64527 0.11739 0.0
H418 H 0.55725 0.60336 0.03777 0.0
H419 H 0.59928 0.55055 0.03878 0.0
C420 C 0.51234 0.69921 0.10829 0.0
C421 C 0.50649 0.72224 0.08379 0.0
C422 C 0.53455 0.66793 0.10592 0.0
C423 C 0.55138 0.65873 0.07901 0.0
C424 C 0.54369 0.68026 0.05401 0.0
C425 C 0.52151 0.7118 0.05639 0.0
C426 C 0.62933 0.59488 0.10059 0.0
C427 C 0.62735 0.56724 0.0789 0.0
C428 C 0.60521 0.62481 0.10006 0.0
C429 C 0.57848 0.62805 0.07782 0.0
C430 C 0.57755 0.60153 0.05523 0.0
C431 C 0.6017 0.57133 0.0558 0.0
H432 H 0.90893 0.85494 0.3691 0.0
H433 H 0.95136 0.90673 0.448 0.0
H434 H 0.85647 0.89646 0.3697 0.0
H435 H 0.89832 0.94853 0.44845 0.0
H436 H 0.7963 1.00297 0.35555 0.0
H437 H 0.85058 0.9641 0.36041 0.0
H438 H 0.82812 0.95007 0.45318 0.0
H439 H 0.77355 0.98929 0.4485 0.0
C440 C 0.90692 0.87486 0.38682 0.0
C441 C 0.93465 0.87756 0.40839 0.0
C442 C 0.87693 0.8989 0.38699 0.0
C443 C 0.87369 0.92624 0.40876 0.0
C444 C 0.90019 0.92777 0.43134 0.0
C445 C 0.93047 0.90372 0.43111 0.0
C446 C 0.80307 0.99211 0.37712 0.0
C447 C 0.78018 0.99896 0.40155 0.0
C448 C 0.83408 0.96959 0.37984 0.0
C449 C 0.84314 0.95343 0.40705 0.0
C450 C 0.82172 0.96206 0.43192 0.0
C451 C 0.79046 0.98453 0.42919 0.0
H452 H 0.64607 0.9114 0.36625 0.0
H453 H 0.59546 0.95248 0.44611 0.0
H454 H 0.60462 0.85892 0.36671 0.0
H455 H 0.55359 0.89958 0.44634 0.0
H456 H 0.49869 0.7979 0.3532 0.0
H457 H 0.53707 0.85249 0.35807 0.0
H458 H 0.55241 0.8294 0.45059 0.0
H459 H 0.51367 0.77449 0.4459 0.0
C460 C 0.62639 0.90914 0.38413 0.0
C461 C 0.62404 0.93648 0.40604 0.0
C462 C 0.60237 0.87913 0.38421 0.0
C463 C 0.57537 0.87551 0.40622 0.0
C464 C 0.57408 0.90171 0.42905 0.0
C465 C 0.59814 0.93197 0.42892 0.0
C466 C 0.50974 0.80458 0.37472 0.0
C467 C 0.5034 0.78142 0.39907 0.0
C468 C 0.53198 0.83578 0.37745 0.0
C469 C 0.54837 0.84478 0.40457 0.0
C470 C 0.54024 0.82307 0.42939 0.0
C471 C 0.51804 0.79162 0.42665 0.0
H472 H 0.5489 0.59613 0.44376 0.0
H473 H 0.59132 0.64675 0.36437 0.0
H474 H 0.60193 0.55442 0.44465 0.0
H475 H 0.64396 0.60546 0.3655 0.0
H476 H 0.70611 0.49993 0.35302 0.0
H477 H 0.65125 0.5381 0.35701 0.0
H478 H 0.67181 0.55344 0.44992 0.0
H479 H 0.72697 0.51488 0.44611 0.0
C480 C 0.56973 0.59885 0.42681 0.0
C481 C 0.56559 0.62472 0.40388 0.0
C482 C 0.60007 0.57488 0.42732 0.0
C483 C 0.62673 0.57623 0.40483 0.0
C484 C 0.62341 0.60317 0.38275 0.0
C485 C 0.59332 0.62709 0.38228 0.0
C486 C 0.69882 0.51094 0.37444 0.0
C487 C 0.72134 0.50464 0.39916 0.0
C488 C 0.66746 0.53307 0.37666 0.0
C489 C 0.65767 0.54939 0.40365 0.0
C490 C 0.67875 0.54131 0.42881 0.0
C491 C 0.71036 0.51922 0.42658 0.0
H492 H 1.00258 0.7068 0.35486 0.0
H493 H 0.99015 0.72653 0.44836 0.0
H494 H 0.96454 0.65188 0.35908 0.0
H495 H 0.95176 0.67131 0.4524 0.0
H496 H 0.85542 0.59311 0.36781 0.0
H497 H 0.89717 0.64536 0.36883 0.0
H498 H 0.95032 0.60122 0.44631 0.0
H499 H 0.90824 0.54845 0.44547 0.0
C500 C 0.99219 0.69923 0.37641 0.0
C501 C 0.9991 0.72149 0.40119 0.0
C502 C 0.97015 0.66783 0.37877 0.0
C503 C 0.95453 0.65775 0.40595 0.0
C504 C 0.96333 0.67849 0.43114 0.0
C505 C 0.98533 0.71013 0.42878 0.0
C506 C 0.87565 0.59456 0.38533 0.0
C507 C 0.87848 0.56633 0.40646 0.0
C508 C 0.89983 0.62443 0.38573 0.0
C509 C 0.92748 0.62703 0.4073 0.0
C510 C 0.9293 0.5999 0.42938 0.0
C511 C 0.90509 0.56975 0.42893 0.0
H512 H 0.09445 0.36186 0.86844 0.0
H513 H 0.05361 0.40994 0.94939 0.0
H514 H 0.14737 0.40272 0.86997 0.0
H515 H 0.10715 0.45108 0.95076 0.0
H516 H 0.23331 0.48999 0.95042 0.0
H517 H 0.17805 0.45148 0.95475 0.0
H518 H 0.15347 0.47092 0.86299 0.0
H519 H 0.2082 0.50907 0.85851 0.0
C520 C 0.09688 0.38082 0.88679 0.0
C521 C 0.06947 0.38264 0.90869 0.0
C522 C 0.12717 0.40448 0.88751 0.0
C523 C 0.13106 0.43059 0.91018 0.0
C524 C 0.10482 0.43128 0.93298 0.0
C525 C 0.07421 0.40762 0.9322 0.0
C526 C 0.21572 0.48664 0.93133 0.0
C527 C 0.22557 0.50228 0.90401 0.0
C528 C 0.18411 0.46453 0.93383 0.0
C529 C 0.16193 0.45754 0.90904 0.0
C530 C 0.17054 0.47506 0.8823 0.0
C531 C 0.20186 0.49716 0.87982 0.0
H532 H 0.02289 0.23539 0.94866 0.0
H533 H 0.99354 0.2072 0.8591 0.0
H534 H 0.06162 0.18019 0.95146 0.0
H535 H 0.03172 0.15228 0.8621 0.0
H536 H 0.10441 0.05715 0.94734 0.0
H537 H 0.06316 0.11053 0.94997 0.0
H538 H 0.09922 0.14477 0.8635 0.0
H539 H 0.13996 0.09182 0.86067 0.0
C540 C 0.02401 0.21708 0.92982 0.0
C541 C 0.00547 0.22606 0.9035 0.0
C542 C 0.04626 0.18549 0.93143 0.0
C543 C 0.0504 0.16236 0.90677 0.0
C544 C 0.02991 0.17009 0.88122 0.0
C545 C 0.00777 0.20149 0.87959 0.0
C546 C 0.10397 0.07639 0.92909 0.0
C547 C 0.12537 0.06992 0.90367 0.0
C548 C 0.08024 0.10691 0.9306 0.0
C549 C 0.07737 0.13143 0.9067 0.0
C550 C 0.10006 0.12586 0.88198 0.0
C551 C 0.1237 0.09558 0.88047 0.0
H552 H 0.29559 0.006 0.8528 0.0
H553 H 0.28009 0.01024 0.94724 0.0
H554 H 0.35072 0.0436 0.85749 0.0
H555 H 0.3354 0.04841 0.9518 0.0
H556 H 0.45747 0.09283 0.94467 0.0
H557 H 0.40425 0.05132 0.94474 0.0
H558 H 0.35921 0.10918 0.86977 0.0
H559 H 0.41201 0.15027 0.86947 0.0
C560 C 0.30413 0.01456 0.87464 0.0
C561 C 0.28303 0.00541 0.8996 0.0
C562 C 0.33563 0.03639 0.87729 0.0
C563 C 0.34694 0.04971 0.90494 0.0
C564 C 0.32732 0.03867 0.93017 0.0
C565 C 0.29563 0.01675 0.92753 0.0
C566 C 0.43587 0.09712 0.92854 0.0
C567 C 0.43922 0.12482 0.90693 0.0
C568 C 0.40545 0.07322 0.92855 0.0
C569 C 0.37792 0.07649 0.90688 0.0
C570 C 0.38044 0.1053 0.88628 0.0
C571 C 0.41063 0.12911 0.88629 0.0
H572 H 0.4902 0.27478 0.94956 0.0
H573 H 0.50881 0.2993 0.85748 0.0
H574 H 0.45178 0.33013 0.95382 0.0
H575 H 0.47075 0.35414 0.86189 0.0
H576 H 0.41023 0.45456 0.94832 0.0
H577 H 0.45138 0.40097 0.94966 0.0
H578 H 0.4027 0.3606 0.86908 0.0
H579 H 0.36184 0.41355 0.8676 0.0
C580 C 0.48675 0.29225 0.9304 0.0
C581 C 0.50227 0.28222 0.90307 0.0
C582 C 0.4647 0.32393 0.93287 0.0
C583 C 0.45762 0.34601 0.90803 0.0
C584 C 0.47497 0.33718 0.88125 0.0
C585 C 0.49702 0.30579 0.8788 0.0
C586 C 0.40785 0.43392 0.93117 0.0
C587 C 0.38278 0.43863 0.90773 0.0
C588 C 0.43152 0.40329 0.93193 0.0
C589 C 0.43074 0.37697 0.90917 0.0
C590 C 0.40455 0.38085 0.88658 0.0
C591 C 0.38089 0.41116 0.88588 0.0
H592 H 0.09251 0.14744 0.62351 0.0
H593 H 0.05074 0.0964 0.54409 0.0
H594 H 0.14565 0.1068 0.62232 0.0
H595 H 0.10422 0.05522 0.54321 0.0
H596 H 0.22986 0.01671 0.54182 0.0
H597 H 0.174 0.05436 0.53783 0.0
H598 H 0.15401 0.03997 0.63093 0.0
H599 H 0.20949 1.00282 0.63507 0.0
C600 C 0.09473 0.12779 0.60561 0.0
C601 C 0.06706 0.12515 0.58401 0.0
C602 C 0.12513 0.10423 0.60509 0.0
C603 C 0.1288 0.07732 0.58299 0.0
C604 C 0.10213 0.07566 0.56054 0.0
C605 C 0.07152 0.09931 0.56107 0.0
C606 C 0.21317 0.02102 0.56133 0.0
C607 C 0.22453 0.00712 0.58886 0.0
C608 C 0.18119 0.04262 0.55901 0.0
C609 C 0.16008 0.05081 0.58419 0.0
C610 C 0.17022 0.03496 0.61126 0.0
C611 C 0.20197 0.01343 0.61358 0.0
H612 H 0.49587 0.21789 0.63455 0.0
H613 H 0.49742 0.22793 0.5396 0.0
H614 H 0.46045 0.16194 0.63062 0.0
H615 H 0.46291 0.17011 0.53557 0.0
H616 H 0.36191 0.08983 0.54485 0.0
H617 H 0.40283 0.14391 0.54354 0.0
H618 H 0.46304 0.10021 0.61808 0.0
H619 H 0.42109 0.04819 0.6202 0.0
C620 C 0.48935 0.20776 0.6127 0.0
C621 C 0.49963 0.22763 0.58739 0.0
C622 C 0.46907 0.17529 0.61042 0.0
C623 C 0.45883 0.16112 0.58274 0.0
C624 C 0.46991 0.18037 0.55727 0.0
C625 C 0.49005 0.21333 0.55957 0.0
C626 C 0.38396 0.09214 0.56084 0.0
C627 C 0.38792 0.0656 0.5831 0.0
C628 C 0.4076 0.12284 0.56001 0.0
C629 C 0.43593 0.12694 0.5811 0.0
C630 C 0.44088 0.09889 0.60213 0.0
C631 C 0.41692 0.06894 0.60334 0.0
H632 H 0.27235 0.49139 0.53574 0.0
H633 H 0.29782 0.51019 0.62763 0.0
H634 H 0.32802 0.45343 0.53105 0.0
H635 H 0.35284 0.47247 0.6228 0.0
H636 H 0.45413 0.41299 0.53805 0.0
H637 H 0.40043 0.45411 0.53603 0.0
H638 H 0.35703 0.40323 0.61471 0.0
H639 H 0.40988 0.36231 0.61679 0.0
C640 C 0.29009 0.4881 0.55475 0.0
C641 C 0.28022 0.50345 0.58219 0.0
C642 C 0.32193 0.46633 0.55203 0.0
C643 C 0.34426 0.45938 0.57672 0.0
C644 C 0.33566 0.47669 0.60356 0.0
C645 C 0.30416 0.49849 0.60625 0.0
C646 C 0.43275 0.41008 0.55457 0.0
C647 C 0.43657 0.38446 0.57774 0.0
C648 C 0.40211 0.43373 0.55343 0.0
C649 C 0.37499 0.43233 0.57556 0.0
C650 C 0.37793 0.4055 0.59773 0.0
C651 C 0.4082 0.38186 0.59879 0.0
H652 H 0.14682 0.41241 0.61809 0.0
H653 H 0.094 0.45476 0.53961 0.0
H654 H 0.10598 0.35943 0.61743 0.0
H655 H 0.05295 0.40109 0.53906 0.0
H656 H 0.01441 0.27465 0.53958 0.0
H657 H 0.05291 0.32979 0.53441 0.0
H658 H 0.03779 0.35373 0.62681 0.0
H659 H 0.99958 0.29915 0.63213 0.0
C660 C 0.12683 0.41029 0.60044 0.0
C661 C 0.12366 0.43815 0.57902 0.0
C662 C 0.1032 0.37996 0.60022 0.0
C663 C 0.07582 0.37646 0.57852 0.0
C664 C 0.07377 0.40313 0.55609 0.0
C665 C 0.09739 0.43379 0.55639 0.0
C666 C 0.01875 0.29204 0.55868 0.0
C667 C 0.00421 0.28209 0.58637 0.0
C668 C 0.04082 0.32359 0.55568 0.0
C669 C 0.04895 0.3456 0.58034 0.0
C670 C 0.03268 0.33682 0.60755 0.0
C671 C 0.01054 0.30558 0.61052 0.0
H672 H 0.16023 0.66093 0.19991 0.0
H673 H 0.1095 0.76187 0.16998 0.0
H674 H 0.1867 0.6939 0.24203 0.0
H675 H 0.13639 0.79483 0.21122 0.0
H676 H 0.15694 0.84707 0.29088 0.0
H677 H 0.1855 0.81483 0.24922 0.0
H678 H 0.13478 0.71313 0.27791 0.0
H679 H 0.10585 0.74536 0.31866 0.0
C680 C 0.15614 0.69044 0.2017 0.0
C681 C 0.13182 0.70886 0.1827 0.0
C682 C 0.1716 0.70931 0.2255 0.0
C683 C 0.16304 0.74667 0.23009 0.0
C684 C 0.1435 0.76603 0.20829 0.0
C685 C 0.12747 0.74709 0.18498 0.0
C686 C 0.1531 0.81757 0.28869 0.0
C687 C 0.12823 0.79871 0.30697 0.0
C688 C 0.16976 0.79913 0.26518 0.0
C689 C 0.16194 0.7617 0.26019 0.0
C690 C 0.14144 0.74196 0.28122 0.0
C691 C 0.12422 0.76049 0.30421 0.0
H692 H 0.65555 0.15757 0.28929 0.0
H693 H 0.75818 0.10898 0.3178 0.0
H694 H 0.68705 0.18485 0.24678 0.0
H695 H 0.78968 0.13674 0.27615 0.0
H696 H 0.84062 0.16085 0.19684 0.0
H697 H 0.80763 0.18778 0.23876 0.0
H698 H 0.70759 0.13399 0.21004 0.0
H699 H 0.74058 0.10664 0.16895 0.0
C700 C 0.6851 0.15412 0.2871 0.0
C701 C 0.70445 0.13024 0.30588 0.0
C702 C 0.70311 0.17003 0.26305 0.0
C703 C 0.74059 0.16247 0.25803 0.0
C704 C 0.7608 0.14316 0.27948 0.0
C705 C 0.7427 0.12666 0.30303 0.0
C706 C 0.81126 0.15605 0.19901 0.0
C707 C 0.7932 0.13071 0.18062 0.0
C708 C 0.79238 0.17176 0.22271 0.0
C709 C 0.75532 0.1625 0.22781 0.0
C710 C 0.73615 0.1417 0.20665 0.0
C711 C 0.75513 0.12543 0.18343 0.0
H712 H 0.39908 0.74365 0.16697 0.0
H713 H 0.34616 0.84456 0.19455 0.0
H714 H 0.37054 0.71103 0.20769 0.0
H715 H 0.31803 0.81194 0.23617 0.0
H716 H 0.39478 0.76029 0.31563 0.0
H717 H 0.36774 0.79274 0.27418 0.0
H718 H 0.31863 0.69115 0.24357 0.0
H719 H 0.34521 0.65869 0.2859 0.0
C720 C 0.38037 0.7585 0.18134 0.0
C721 C 0.37573 0.79665 0.17855 0.0
C722 C 0.36339 0.73974 0.20433 0.0
C723 C 0.34252 0.75918 0.22531 0.0
C724 C 0.33406 0.79646 0.22025 0.0
C725 C 0.35047 0.81513 0.19675 0.0
C726 C 0.37703 0.74525 0.30063 0.0
C727 C 0.37303 0.707 0.30305 0.0
C728 C 0.36092 0.7639 0.2772 0.0
C729 C 0.34163 0.74422 0.25543 0.0
C730 C 0.33349 0.70679 0.26009 0.0
C731 C 0.34901 0.68823 0.28402 0.0
H732 H 0.76186 0.3968 0.16778 0.0
H733 H 0.66052 0.34542 0.19608 0.0
H734 H 0.79419 0.36908 0.20899 0.0
H735 H 0.69286 0.31811 0.23818 0.0
H736 H 0.74418 0.39654 0.31656 0.0
H737 H 0.71204 0.36884 0.27524 0.0
H738 H 0.81367 0.31841 0.246 0.0
H739 H 0.84581 0.34569 0.28821 0.0
C740 C 0.74686 0.37855 0.18242 0.0
C741 C 0.70869 0.37417 0.17968 0.0
C742 C 0.76545 0.36204 0.2057 0.0
C743 C 0.7458 0.34194 0.22701 0.0
C744 C 0.70849 0.33358 0.22201 0.0
C745 C 0.68999 0.34951 0.19823 0.0
C746 C 0.75929 0.37842 0.30188 0.0
C747 C 0.79748 0.37417 0.30466 0.0
C748 C 0.74081 0.36192 0.27854 0.0
C749 C 0.76059 0.34196 0.2572 0.0
C750 C 0.79794 0.33376 0.26219 0.0
C751 C 0.81633 0.34968 0.28604 0.0
H752 H 0.84474 0.16229 0.69958 0.0
H753 H 0.89583 0.26363 0.67089 0.0
H754 H 0.81812 0.19454 0.74196 0.0
H755 H 0.86855 0.29594 0.71239 0.0
H756 H 0.84596 0.34646 0.79267 0.0
H757 H 0.81755 0.31426 0.751 0.0
H758 H 0.87251 0.21374 0.77721 0.0
H759 H 0.90151 0.246 0.81796 0.0
C760 C 0.84882 0.19177 0.70166 0.0
C761 C 0.87335 0.21047 0.68298 0.0
C762 C 0.83323 0.21022 0.7256 0.0
C763 C 0.8418 0.24746 0.73058 0.0
C764 C 0.86145 0.26721 0.70906 0.0
C765 C 0.8777 0.24865 0.68563 0.0
C766 C 0.85084 0.31717 0.78996 0.0
C767 C 0.87686 0.29877 0.80751 0.0
C768 C 0.83421 0.29875 0.76647 0.0
C769 C 0.84314 0.26175 0.76084 0.0
C770 C 0.86497 0.24224 0.78113 0.0
C771 C 0.88221 0.26081 0.80407 0.0
H772 H 0.24391 0.90579 0.67449 0.0
H773 H 0.34227 0.84546 0.69801 0.0
H774 H 0.21078 0.87656 0.71463 0.0
H775 H 0.30913 0.81657 0.739 0.0
H776 H 0.26116 0.88969 0.82251 0.0
H777 H 0.29252 0.86358 0.78012 0.0
H778 H 0.18878 0.82189 0.74726 0.0
H779 H 0.15739 0.8475 0.7904 0.0
C780 C 0.25808 0.88548 0.68787 0.0
C781 C 0.29578 0.87875 0.68405 0.0
C782 C 0.23897 0.86811 0.71048 0.0
C783 C 0.2576 0.84455 0.73006 0.0
C784 C 0.29426 0.83458 0.72411 0.0
C785 C 0.31324 0.85144 0.70098 0.0
C786 C 0.24538 0.87356 0.80685 0.0
C787 C 0.20691 0.87165 0.80885 0.0
C788 C 0.26336 0.85801 0.78282 0.0
C789 C 0.24282 0.84148 0.76015 0.0
C790 C 0.20506 0.83473 0.76445 0.0
C791 C 0.18712 0.84969 0.7889 0.0
H792 H 0.65982 0.16346 0.7891 0.0
H793 H 0.60811 0.2638 0.81935 0.0
H794 H 0.68534 0.19666 0.74673 0.0
H795 H 0.63429 0.29705 0.77787 0.0
H796 H 0.6576 0.34931 0.69777 0.0
H797 H 0.68528 0.31652 0.73952 0.0
H798 H 0.63069 0.21643 0.71187 0.0
H799 H 0.60242 0.24927 0.67108 0.0
C800 C 0.65535 0.19292 0.78733 0.0
C801 C 0.63103 0.21109 0.80651 0.0
C802 C 0.6703 0.2119 0.7634 0.0
C803 C 0.66134 0.24916 0.75894 0.0
C804 C 0.64173 0.26834 0.78082 0.0
C805 C 0.62613 0.24925 0.80424 0.0
C806 C 0.65265 0.32001 0.70023 0.0
C807 C 0.627 0.30184 0.6822 0.0
C808 C 0.66883 0.30126 0.72376 0.0
C809 C 0.65988 0.26415 0.72891 0.0
C810 C 0.63828 0.24498 0.70829 0.0
C811 C 0.62147 0.26387 0.68532 0.0
H812 H 0.26088 0.60644 0.66933 0.0
H813 H 0.15987 0.65927 0.69687 0.0
H814 H 0.29295 0.63346 0.71105 0.0
H815 H 0.19189 0.68567 0.73945 0.0
H816 H 0.3439 0.66035 0.79055 0.0
H817 H 0.31154 0.68642 0.74799 0.0
H818 H 0.2112 0.63282 0.77627 0.0
H819 H 0.24363 0.60611 0.81796 0.0
C820 C 0.24592 0.62483 0.6839 0.0
C821 C 0.20788 0.62991 0.68074 0.0
C822 C 0.26436 0.6409 0.70746 0.0
C823 C 0.24465 0.66126 0.72859 0.0
C824 C 0.20754 0.6701 0.72335 0.0
C825 C 0.18924 0.65468 0.69928 0.0
C826 C 0.3146 0.65538 0.78812 0.0
C827 C 0.29629 0.63033 0.80661 0.0
C828 C 0.2961 0.67062 0.76407 0.0
C829 C 0.25911 0.6613 0.75882 0.0
C830 C 0.23968 0.64061 0.7799 0.0
C831 C 0.25833 0.62474 0.80343 0.0
H832 H 0.20498 0.6589 0.08013 0.0
H833 H 0.14419 0.75111 0.0442 0.0
H834 H 0.2623 0.69277 0.07351 0.0
H835 H 0.20176 0.78471 0.03724 0.0
H836 H 0.30332 0.84763 0.0759 0.0
H837 H 0.24589 0.81349 0.07132 0.0
H838 H 0.30565 0.71949 0.03762 0.0
H839 H 0.36339 0.75341 0.04255 0.0
C840 C 0.20381 0.68614 0.07039 0.0
C841 C 0.16978 0.70232 0.06299 0.0
C842 C 0.23679 0.7055 0.06642 0.0
C843 C 0.23661 0.74156 0.05502 0.0
C844 C 0.20279 0.75718 0.04646 0.0
C845 C 0.16978 0.73778 0.05035 0.0
C846 C 0.3043 0.81987 0.06713 0.0
C847 C 0.33817 0.80323 0.05989 0.0
C848 C 0.27124 0.80034 0.06433 0.0
C849 C 0.27119 0.76364 0.05432 0.0
C850 C 0.30482 0.74753 0.04582 0.0
C851 C 0.33791 0.76711 0.04851 0.0
H852 H 0.84924 0.20331 0.07929 0.0
H853 H 0.75751 0.14339 0.04178 0.0
H854 H 0.81531 0.26077 0.07351 0.0
H855 H 0.72382 0.2011 0.0357 0.0
H856 H 0.66019 0.30154 0.07572 0.0
H857 H 0.69463 0.24428 0.07054 0.0
H858 H 0.78869 0.30508 0.03827 0.0
H859 H 0.75447 0.36258 0.04375 0.0
C860 C 0.82211 0.20237 0.06936 0.0
C861 C 0.80608 0.16852 0.06127 0.0
C862 C 0.8027 0.23544 0.06589 0.0
C863 C 0.76672 0.23552 0.05434 0.0
C864 C 0.75128 0.20192 0.04506 0.0
C865 C 0.77074 0.16884 0.04841 0.0
C866 C 0.68804 0.30278 0.06715 0.0
C867 C 0.70456 0.33686 0.06043 0.0
C868 C 0.70775 0.26984 0.06401 0.0
C869 C 0.74453 0.2701 0.05418 0.0
C870 C 0.76058 0.30398 0.04629 0.0
C871 C 0.74082 0.33694 0.0493 0.0
H872 H 0.29971 0.65734 0.40475 0.0
H873 H 0.36018 0.74885 0.44205 0.0
H874 H 0.24233 0.69128 0.41122 0.0
H875 H 0.30261 0.7825 0.44885 0.0
H876 H 0.14095 0.75202 0.44268 0.0
H877 H 0.19849 0.71752 0.44698 0.0
H878 H 0.25888 0.81207 0.41512 0.0
H879 H 0.20168 0.84672 0.41116 0.0
C880 C 0.3008 0.68443 0.41475 0.0
C881 C 0.33477 0.70039 0.42261 0.0
C882 C 0.26778 0.70384 0.41862 0.0
C883 C 0.26787 0.73973 0.43038 0.0
C884 C 0.30163 0.75512 0.43934 0.0
C885 C 0.33465 0.73569 0.43556 0.0
C886 C 0.16653 0.7657 0.43702 0.0
C887 C 0.16651 0.80217 0.42635 0.0
C888 C 0.19951 0.74579 0.43931 0.0
C889 C 0.23328 0.76191 0.43118 0.0
C890 C 0.23344 0.79887 0.42182 0.0
C891 C 0.20051 0.81871 0.41939 0.0
H892 H 0.75137 0.36149 0.44119 0.0
H893 H 0.84488 0.30076 0.40738 0.0
H894 H 0.71724 0.30397 0.44667 0.0
H895 H 0.81052 0.24349 0.41252 0.0
H896 H 0.74866 0.14233 0.44248 0.0
H897 H 0.78266 0.19999 0.4474 0.0
H898 H 0.68943 0.25971 0.41239 0.0
H899 H 0.65518 0.20228 0.40782 0.0
C900 C 0.76486 0.33591 0.4352 0.0
C901 C 0.80091 0.33594 0.42364 0.0
C902 C 0.74515 0.30293 0.4382 0.0
C903 C 0.76101 0.26912 0.42985 0.0
C904 C 0.79755 0.26897 0.41944 0.0
C905 C 0.81722 0.30193 0.41633 0.0
C906 C 0.73514 0.16777 0.4362 0.0
C907 C 0.69915 0.16748 0.42455 0.0
C908 C 0.75478 0.20084 0.43887 0.0
C909 C 0.73891 0.23446 0.43007 0.0
C910 C 0.7024 0.23438 0.41963 0.0
C911 C 0.6828 0.20133 0.41686 0.0
H912 H 0.70677 0.15913 0.91154 0.0
H913 H 0.64417 0.25114 0.94574 0.0
H914 H 0.76345 0.1942 0.91756 0.0
H915 H 0.70117 0.28607 0.95205 0.0
H916 H 0.80171 0.34967 0.91173 0.0
H917 H 0.7449 0.31469 0.91734 0.0
H918 H 0.80656 0.22292 0.95263 0.0
H919 H 0.86368 0.25774 0.94673 0.0
C920 C 0.70507 0.18662 0.92079 0.0
C921 C 0.67069 0.20233 0.92787 0.0
C922 C 0.7377 0.20668 0.92442 0.0
C923 C 0.73689 0.24308 0.9351 0.0
C924 C 0.70273 0.25827 0.9434 0.0
C925 C 0.67004 0.23811 0.93993 0.0
C926 C 0.80325 0.32223 0.92107 0.0
C927 C 0.8375 0.30651 0.92849 0.0
C928 C 0.77053 0.30221 0.92446 0.0
C929 C 0.77115 0.26586 0.93523 0.0
C930 C 0.80516 0.25068 0.94388 0.0
C931 C 0.83791 0.27077 0.94064 0.0
H932 H 0.25802 0.64443 0.94789 0.0
H933 H 0.3486 0.70676 0.91112 0.0
H934 H 0.2233 0.70148 0.95478 0.0
H935 H 0.31371 0.7635 0.91771 0.0
H936 H 0.15796 0.80109 0.91484 0.0
H937 H 0.19332 0.74454 0.92048 0.0
H938 H 0.28597 0.80725 0.95293 0.0
H939 H 0.25069 0.86418 0.94698 0.0
C940 C 0.27079 0.67026 0.94162 0.0
C941 C 0.30609 0.67078 0.92867 0.0
C942 C 0.25075 0.70298 0.94544 0.0
C943 C 0.26555 0.73709 0.93659 0.0
C944 C 0.30153 0.73781 0.92502 0.0
C945 C 0.32149 0.70512 0.92105 0.0
C946 C 0.18568 0.80293 0.92359 0.0
C947 C 0.20149 0.83741 0.93015 0.0
C948 C 0.20592 0.77035 0.92701 0.0
C949 C 0.24264 0.77131 0.93694 0.0
C950 C 0.25793 0.80557 0.94484 0.0
C951 C 0.23757 0.83821 0.94161 0.0
H952 H 0.86141 0.24922 0.54481 0.0
H953 H 0.80035 0.15803 0.58198 0.0
H954 H 0.80419 0.28378 0.53908 0.0
H955 H 0.7433 0.19285 0.57653 0.0
H956 H 0.64211 0.25565 0.54615 0.0
H957 H 0.69907 0.22016 0.54165 0.0
H958 H 0.76118 0.31369 0.57325 0.0
H959 H 0.70454 0.34929 0.57745 0.0
C960 C 0.83581 0.23629 0.55147 0.0
C961 C 0.83571 0.20079 0.56406 0.0
C962 C 0.80297 0.25628 0.54833 0.0
C963 C 0.76912 0.24127 0.55756 0.0
C964 C 0.76879 0.20519 0.56895 0.0
C965 C 0.80164 0.18525 0.57221 0.0
C966 C 0.66794 0.26889 0.55173 0.0
C967 C 0.66854 0.30539 0.56233 0.0
C968 C 0.7006 0.2484 0.54933 0.0
C969 C 0.73473 0.26395 0.55726 0.0
C970 C 0.73548 0.3009 0.56668 0.0
C971 C 0.70286 0.3213 0.56925 0.0
H972 H 0.25378 0.86452 0.54573 0.0
H973 H 0.3458 0.80124 0.57901 0.0
H974 H 0.21856 0.8077 0.53927 0.0
H975 H 0.31046 0.74474 0.57281 0.0
H976 H 0.247 0.64515 0.54196 0.0
H977 H 0.28178 0.70243 0.53709 0.0
H978 H 0.18992 0.7631 0.57337 0.0
H979 H 0.15495 0.7061 0.57796 0.0
C980 C 0.26673 0.83854 0.55132 0.0
C981 C 0.30265 0.83764 0.5631 0.0
C982 C 0.2464 0.80596 0.54778 0.0
C983 C 0.26156 0.77164 0.55569 0.0
C984 C 0.29801 0.77061 0.56623 0.0
C985 C 0.31823 0.80314 0.56996 0.0
C986 C 0.23392 0.67074 0.54848 0.0
C987 C 0.19816 0.67079 0.56059 0.0
C988 C 0.25401 0.70358 0.54585 0.0
C989 C 0.2388 0.73736 0.55508 0.0
C990 C 0.20242 0.73766 0.56582 0.0
C991 C 0.1824 0.70484 0.56861 0.0
H992 H 0.92162 0.42682 0.99146 0.0
H993 H 0.96613 0.48087 0.91439 0.0
H994 H 0.95213 0.47195 0.02299 0.0
H995 H 0.99808 0.52458 0.94565 0.0
H996 H 0.03669 0.61126 0.00778 0.0
H997 H 0.9952 0.57378 0.97886 0.0
H998 H 0.01463 0.48159 0.03734 0.0
H999 H 0.05488 0.52013 0.06752 0.0
C1000 C 0.93741 0.44878 0.98131 0.0
C1001 C 0.94175 0.4504 0.95059 0.0
C1002 C 0.95523 0.47427 -0.00068 0.0
C1003 C 0.97814 0.50132 0.98685 0.0
C1004 C 0.98039 0.50431 0.956 0.0
C1005 C 0.96204 0.47927 0.93802 0.0
C1006 C 0.0324 0.58289 0.01442 0.0
C1007 C 0.04935 0.56842 0.03977 0.0
C1008 C 0.00851 0.56143 -0.0022 0.0
C1009 C 1.0016 0.52473 0.00575 0.0
C1010 C 0.01882 0.51005 0.03097 0.0
C1011 C 0.04228 0.53185 0.048 0.0
H1012 H 0.09396 0.93683 -0.0048 0.0
H1013 H 0.01695 0.9396 0.92251 0.0
H1014 H 0.04884 0.96551 0.02682 0.0
H1015 H 0.9705 0.96659 0.95493 0.0
H1016 H 0.92874 0.07047 0.00166 0.0
H1017 H 0.96586 0.02758 0.973 0.0
H1018 H 0.99371 0.96854 0.05288 0.0
H1019 H 0.95822 0.01286 0.08154 0.0
C1020 C 0.06686 0.9425 0.98621 0.0
C1021 C 0.05936 0.93713 0.95612 0.0
C1022 C 0.04078 0.95873 0.0045 0.0
C1023 C 0.00639 0.96939 0.99319 0.0
C1024 C 0.99728 0.95983 0.96399 0.0
C1025 C 0.02367 0.94392 0.94551 0.0
C1026 C 0.94337 0.04863 0.01301 0.0
C1027 C 0.94143 0.04537 0.04375 0.0
C1028 C 0.96399 0.02357 -0.00339 0.0
C1029 C 0.98243 0.99428 0.01059 0.0
C1030 C 0.9803 0.99105 0.04144 0.0
C1031 C 0.96026 0.01659 0.0579 0.0
H1032 H 0.54408 0.02693 0.9122 0.0
H1033 H 0.58643 0.08091 0.99006 0.0
H1034 H 0.51222 0.98248 0.94286 0.0
H1035 H 0.55602 0.03507 0.02099 0.0
H1036 H 0.45302 0.98558 0.06412 0.0
H1037 H 0.4934 0.02468 0.03455 0.0
H1038 H 0.51479 0.93305 0.97589 0.0
H1039 H 0.47315 0.89497 0.00424 0.0
C1040 C 0.54774 0.02837 0.93588 0.0
C1041 C 0.56736 0.05745 0.94884 0.0
C1042 C 0.52943 1.0029 0.95352 0.0
C1043 C 0.53105 0.00566 0.98441 0.0
C1044 C 0.55338 0.03291 -0.00273 0.0
C1045 C 0.57115 0.05882 0.97961 0.0
C1046 C 0.46606 0.97409 0.04469 0.0
C1047 C 0.4595 0.9375 0.03625 0.0
C1048 C 0.48962 0.99622 0.02801 0.0
C1049 C 0.50745 0.98187 0.00292 0.0
C1050 C 0.50102 0.94516 -0.00526 0.0
C1051 C 0.47704 0.92335 0.01103 0.0
H1052 H 0.52179 0.45173 0.06377 0.0
H1053 H 0.6124 0.47028 0.00356 0.0
H1054 H 0.48301 0.49224 0.03406 0.0
H1055 H 0.5746 0.51202 0.97502 0.0
H1056 H 0.4806 0.54273 0.91173 0.0
H1057 H 0.52485 0.51021 0.94217 0.0
H1058 H 0.47362 0.55504 0.02054 0.0
H1059 H 0.42799 0.58612 0.98985 0.0
C1060 C 0.53335 0.46442 0.04422 0.0
C1061 C 0.56988 0.45745 0.03578 0.0
C1062 C 0.5114 0.48806 0.02746 0.0
C1063 C 0.52585 0.50554 0.00226 0.0
C1064 C 0.56244 0.49856 -0.00601 0.0
C1065 C 0.58408 0.47453 0.01038 0.0
C1066 C 0.47945 0.54647 0.93541 0.0
C1067 C 0.45078 0.56659 0.94852 0.0
C1068 C 0.50478 0.52778 0.95292 0.0
C1069 C 0.50229 0.52949 0.98383 0.0
C1070 C 0.47553 0.55232 -0.00319 0.0
C1071 C 0.44976 0.57047 0.97929 0.0
H1072 H 0.98852 0.04461 0.58107 0.0
H1073 H 0.9285 0.07595 0.5028 0.0
H1074 H 0.02981 0.00695 0.55136 0.0
H1075 H 0.96829 0.03652 0.47311 0.0
H1076 H 0.06108 0.90787 0.49366 0.0
H1077 H 0.03006 0.95165 0.52505 0.0
H1078 H 0.02892 0.03102 0.45388 0.0
H1079 H 0.05844 0.98598 0.42162 0.0
C1080 C 0.98352 0.04245 0.55758 0.0
C1081 C 0.95507 0.06253 0.54416 0.0
C1082 C 0.00729 0.02111 0.54052 0.0
C1083 C 1.0025 0.01887 0.50982 0.0
C1084 C 0.97337 0.03838 0.49658 0.0
C1085 C 0.95013 0.06036 0.51358 0.0
C1086 C 0.0548 0.93484 0.48471 0.0
C1087 C 0.06149 0.94318 0.45492 0.0
C1088 C 0.03716 0.96013 0.50287 0.0
C1089 C 0.02633 0.99459 0.49182 0.0
C1090 C 0.03597 0.00422 0.46277 0.0
C1091 C 0.05329 0.97863 0.44439 0.0
H1092 H 0.48034 0.96088 0.57498 0.0
H1093 H 0.42303 0.91882 0.4986 0.0
H1094 H 0.5245 0.99137 0.5432 0.0
H1095 H 0.46859 0.94771 0.4665 0.0
H1096 H 0.51715 0.05035 0.42187 0.0
H1097 H 0.47924 0.00954 0.45204 0.0
H1098 H 0.57249 0.9893 0.50926 0.0
H1099 H 0.60932 0.03147 0.48039 0.0
C1100 C 0.47815 0.95689 0.55137 0.0
C1101 C 0.44816 0.9379 0.53917 0.0
C1102 C 0.50346 0.97442 0.53307 0.0
C1103 C 0.49964 0.9726 0.50223 0.0
C1104 C 0.47159 0.95058 0.49014 0.0
C1105 C 0.44583 0.93365 0.50847 0.0
C1106 C 0.52926 0.03742 0.4411 0.0
C1107 C 0.5659 0.04458 0.44904 0.0
C1108 C 0.50781 0.01359 0.45813 0.0
C1109 C 0.5229 0.99603 0.48306 0.0
C1110 C 0.55976 1.00287 0.4906 0.0
C1111 C 0.58086 0.02716 0.474 0.0
H1112 H 0.54038 0.48126 0.57197 0.0
H1113 H 0.58369 0.42515 0.49538 0.0
H1114 H 0.50792 0.52411 0.54034 0.0
H1115 H 0.5527 0.46949 0.46341 0.0
H1116 H 0.45028 0.51818 0.41861 0.0
H1117 H 0.49048 0.47975 0.44896 0.0
H1118 H 0.51059 0.57255 0.5067 0.0
H1119 H 0.4691 0.60986 0.47768 0.0
C1120 C 0.5441 0.47902 0.54834 0.0
C1121 C 0.56428 0.44984 0.53606 0.0
C1122 C 0.52544 0.50357 0.53013 0.0
C1123 C 0.52728 0.49987 0.4993 0.0
C1124 C 0.54993 0.47241 0.48707 0.0
C1125 C 0.56804 0.44737 0.50532 0.0
C1126 C 0.46301 0.53005 0.43801 0.0
C1127 C 0.45609 0.56673 0.44603 0.0
C1128 C 0.48645 0.5083 0.45515 0.0
C1129 C 0.50382 0.52316 0.48025 0.0
C1130 C 0.49712 0.56 0.48791 0.0
C1131 C 0.47324 0.58139 0.47121 0.0
H1132 H 0.02652 0.5368 0.57553 0.0
H1133 H 0.07657 0.58399 0.49776 0.0
H1134 H 0.98328 0.50321 0.54482 0.0
H1135 H 0.03199 0.55174 0.46686 0.0
H1136 H 0.98386 0.45019 0.42142 0.0
H1137 H 0.02325 0.48903 0.45206 0.0
H1138 H 0.93265 0.50612 0.51258 0.0
H1139 H 0.89423 0.46612 0.48306 0.0
C1140 C 0.02735 0.54103 0.55189 0.0
C1141 C 0.05489 0.56279 0.53894 0.0
C1142 C 1.00262 0.52171 0.53424 0.0
C1143 C 0.0046 0.52438 0.50335 0.0
C1144 C 0.03047 0.54835 0.49055 0.0
C1145 C 0.05562 0.56717 0.50821 0.0
C1146 C 0.97266 0.46189 0.44149 0.0
C1147 C 0.93618 0.45476 0.45 0.0
C1148 C 0.99497 0.48454 0.45882 0.0
C1149 C 0.98095 0.50084 0.48467 0.0
C1150 C 0.94448 0.49356 0.49308 0.0
C1151 C 0.92246 0.47054 0.47611 0.0
H1152 H 0.91302 0.53986 0.31219 0.0
H1153 H 0.95741 0.43251 0.29117 0.0
H1154 H 0.9488 0.5671 0.27267 0.0
H1155 H 0.99374 0.46035 0.25087 0.0
H1156 H 0.96636 0.59412 0.17803 0.0
H1157 H 0.93933 0.5586 0.21774 0.0
H1158 H 0.04568 0.51164 0.23791 0.0
H1159 H 0.07336 0.54775 0.1974 0.0
C1160 C 0.93073 0.52201 0.29926 0.0
C1161 C 0.93177 0.48381 0.30459 0.0
C1162 C 0.95124 0.53771 0.2765 0.0
C1163 C 0.9735 0.51581 0.25817 0.0
C1164 C 0.97669 0.47791 0.26456 0.0
C1165 C 0.95595 0.462 0.28763 0.0
C1166 C 0.98419 0.57608 0.19065 0.0
C1167 C 0.02225 0.57439 0.18477 0.0
C1168 C 0.9686 0.5557 0.21353 0.0
C1169 C 0.99046 0.53291 0.23144 0.0
C1170 C 0.02817 0.52913 0.22455 0.0
C1171 C 0.04398 0.54975 0.20137 0.0
H1172 H 0.962 0.91649 0.31768 0.0
H1173 H 0.06945 0.9568 0.29238 0.0
H1174 H 0.93386 0.95178 0.27824 0.0
H1175 H 0.04078 0.99246 0.25209 0.0
H1176 H 0.95605 0.07135 0.19705 0.0
H1177 H 0.99173 0.0448 0.23821 0.0
H1178 H 0.93863 0.93987 0.2239 0.0
H1179 H 0.90354 0.96575 0.18356 0.0
C1180 C 0.97966 0.93328 0.30384 0.0
C1181 C 0.01809 0.93332 0.30794 0.0
C1182 C 0.96347 0.95346 0.28112 0.0
C1183 C 0.98513 0.97426 0.26155 0.0
C1184 C 0.02338 0.97656 0.26674 0.0
C1185 C 0.03977 0.95623 0.28981 0.0
C1186 C 0.95245 0.04251 0.20252 0.0
C1187 C 0.92635 0.02094 0.18726 0.0
C1188 C 0.97287 0.02734 0.22607 0.0
C1189 C 0.9674 0.99043 0.23475 0.0
C1190 C 0.94285 0.96862 0.21835 0.0
C1191 C 0.92271 0.98357 0.19508 0.0
H1192 H 0.59263 0.96347 0.31009 0.0
H1193 H 0.54578 0.07036 0.29108 0.0
H1194 H 0.55807 0.93672 0.2697 0.0
H1195 H 0.51072 0.04302 0.24989 0.0
H1196 H 0.43353 0.95627 0.19423 0.0
H1197 H 0.46033 0.99169 0.23545 0.0
H1198 H 0.56746 0.9465 0.2152 0.0
H1199 H 0.54124 0.9116 0.17478 0.0
C1200 C 0.57467 0.98132 0.2974 0.0
C1201 C 0.57255 0.01927 0.30358 0.0
C1202 C 0.55487 0.96591 0.27413 0.0
C1203 C 0.53228 0.98786 0.25612 0.0
C1204 C 0.52805 0.02543 0.26331 0.0
C1205 C 0.54807 0.04105 0.28689 0.0
C1206 C 0.4629 0.95454 0.19833 0.0
C1207 C 0.48509 0.93055 0.1815 0.0
C1208 C 0.47821 0.97476 0.22193 0.0
C1209 C 0.51588 0.97123 0.229 0.0
C1210 C 0.5382 0.94915 0.21085 0.0
C1211 C 0.5231 0.92915 0.18757 0.0
H1212 H 0.43263 0.5462 0.28856 0.0
H1213 H 0.53908 0.59415 0.30728 0.0
H1214 H 0.46048 0.51042 0.24794 0.0
H1215 H 0.56629 0.55894 0.26746 0.0
H1216 H 0.59249 0.53989 0.17307 0.0
H1217 H 0.55671 0.56692 0.21269 0.0
H1218 H 0.51264 0.45989 0.23465 0.0
H1219 H 0.54895 0.43227 0.19422 0.0
C1220 C 0.46193 0.54863 0.28441 0.0
C1221 C 0.48343 0.57361 0.30087 0.0
C1222 C 0.47785 0.52819 0.26116 0.0
C1223 C 0.51544 0.53249 0.25406 0.0
C1224 C 0.5371 0.55565 0.27182 0.0
C1225 C 0.5214 0.57585 0.29476 0.0
C1226 C 0.57498 0.52193 0.18606 0.0
C1227 C 0.57417 0.48373 0.18072 0.0
C1228 C 0.55447 0.53751 0.20888 0.0
C1229 C 0.53245 0.51548 0.22729 0.0
C1230 C 0.5295 0.47755 0.2209 0.0
C1231 C 0.55023 0.46177 0.19776 0.0
H1232 H 0.04537 0.57295 0.69474 0.0
H1233 H 0.09513 0.46652 0.67888 0.0
H1234 H 0.00986 0.5462 0.73595 0.0
H1235 H 0.06024 0.44045 0.71932 0.0
H1236 H 0.04059 0.41754 0.81415 0.0
H1237 H 0.0675 0.45238 0.77395 0.0
H1238 H 0.95997 0.49361 0.75012 0.0
H1239 H 0.93247 0.45825 0.79111 0.0
C1240 C 0.04831 0.54387 0.69965 0.0
C1241 C 0.07367 0.52211 0.68375 0.0
C1242 C 0.02801 0.52859 0.72324 0.0
C1243 C 0.03285 0.49137 0.73131 0.0
C1244 C 0.0565 0.46939 0.7142 0.0
C1245 C 0.07652 0.48445 0.69088 0.0
C1246 C 0.02249 0.43427 0.80064 0.0
C1247 C 0.98421 0.43453 0.80564 0.0
C1248 C 0.038 0.45423 0.77748 0.0
C1249 C 0.01582 0.47514 0.75839 0.0
C1250 C 0.97776 0.47762 0.7644 0.0
C1251 C 0.96204 0.45744 0.78787 0.0
H1252 H 0.93258 0.04504 0.69637 0.0
H1253 H 0.03686 0.10145 0.68707 0.0
H1254 H 0.96024 0.00476 0.73422 0.0
H1255 H 0.06368 0.06229 0.72435 0.0
H1256 H 0.1173 0.96951 0.76834 0.0
H1257 H 0.08205 0.99805 0.72899 0.0
H1258 H 0.98814 0.00791 0.78698 0.0
H1259 H 0.02377 0.97799 0.8267 0.0
C1260 C 0.9613 0.04874 0.70218 0.0
C1261 C 0.9824 0.07657 0.68851 0.0
C1262 C 0.97705 0.02587 0.72401 0.0
C1263 C 0.01433 0.03001 0.73221 0.0
C1264 C 0.03514 0.05773 0.71835 0.0
C1265 C 0.01953 0.0805 0.69696 0.0
C1266 C 0.08888 0.97709 0.77262 0.0
C1267 C 0.07347 0.97184 0.80072 0.0
C1268 C 0.06868 0.99367 0.75006 0.0
C1269 C 0.03248 0.00613 0.75493 0.0
C1270 C 0.01597 0.99867 0.78247 0.0
C1271 C 0.03631 0.98154 0.80521 0.0
H1272 H 0.4192 0.0386 0.67585 0.0
H1273 H 0.45946 0.93043 0.69921 0.0
H1274 H 0.45517 0.06575 0.71522 0.0
H1275 H 0.49596 0.95823 0.73952 0.0
H1276 H 0.57655 0.04715 0.79248 0.0
H1277 H 0.54967 0.01027 0.75204 0.0
H1278 H 0.44287 0.05724 0.77059 0.0
H1279 H 0.46905 0.09344 0.81025 0.0
C1280 C 0.43616 0.02055 0.6892 0.0
C1281 C 0.43593 0.98219 0.68457 0.0
C1282 C 0.45677 0.0362 0.71189 0.0
C1283 C 0.47783 0.01411 0.73091 0.0
C1284 C 0.47987 0.97594 0.72524 0.0
C1285 C 0.45905 0.96005 0.70218 0.0
C1286 C 0.54724 0.049 0.78818 0.0
C1287 C 0.52515 0.07385 0.80431 0.0
C1288 C 0.53189 0.02791 0.76505 0.0
C1289 C 0.49429 0.03143 0.75775 0.0
C1290 C 0.47207 0.05446 0.77519 0.0
C1291 C 0.48718 0.07528 0.79801 0.0
H1292 H 0.4605 0.57668 0.79309 0.0
H1293 H 0.41172 0.46949 0.80747 0.0
H1294 H 0.49641 0.55101 0.75159 0.0
H1295 H 0.44685 0.44458 0.76668 0.0
H1296 H 0.46555 0.42504 0.67118 0.0
H1297 H 0.43885 0.46004 0.71146 0.0
H1298 H 0.54716 0.49636 0.73784 0.0
H1299 H 0.57446 0.46078 0.69685 0.0
C1300 C 0.45786 0.54768 0.7878 0.0
C1301 C 0.43265 0.52538 0.80337 0.0
C1302 C 0.47838 0.53303 0.76405 0.0
C1303 C 0.47386 0.49594 0.7555 0.0
C1304 C 0.45038 0.47342 0.77226 0.0
C1305 C 0.4302 0.48782 0.79575 0.0
C1306 C 0.48385 0.44084 0.68521 0.0
C1307 C 0.52226 0.43957 0.681 0.0
C1308 C 0.46847 0.4609 0.70838 0.0
C1309 C 0.49091 0.48038 0.72822 0.0
C1310 C 0.52919 0.48152 0.72293 0.0
C1311 C 0.54479 0.46123 0.69946 0.0
loop_
_geom_bond_atom_site_label_1
_geom_bond_atom_site_label_2
_geom_bond_distance
_geom_bond_site_symmetry_2
_ccdc_geom_bond_type
Sc0 O3 2.025 . S
Sc0 O10 2.105 . S
Sc0 O13 2.105 . S
Sc0 O16 2.105 1_455 S
Sc0 O19 2.105 . S
Sc1 O3 2.025 . S
Sc1 O11 2.105 . S
Sc1 O15 2.105 . S
Sc1 O17 2.105 . S
Sc1 O21 2.105 . S
Sc2 O3 2.025 1_655 S
Sc2 O12 2.105 1_655 S
Sc2 O14 2.105 . S
Sc2 O18 2.105 . S
Sc2 O20 2.105 . S
O3 Sc0 2.025 . S
O3 Sc1 2.025 . S
O3 Sc2 2.025 1_455 S
C4 O10 1.268 . S
C4 O20 1.268 1_455 S
C5 O11 1.268 . S
C5 O19 1.268 . S
C6 O12 1.268 . S
C6 O21 1.268 . S
C7 O13 1.268 . S
C7 O17 1.268 . S
C8 O14 1.268 . S
C8 O16 1.268 . S
C9 O15 1.268 . S
C9 O18 1.268 1_455 S
O10 Sc0 2.105 . S
O10 C4 1.268 . S
O11 Sc1 2.105 . S
O11 C5 1.268 . S
O12 Sc2 2.105 1_455 S
O12 C6 1.268 . S
O13 Sc0 2.105 . S
O13 C7 1.268 . S
O14 Sc2 2.105 . S
O14 C8 1.268 . S
O15 Sc1 2.105 . S
O15 C9 1.268 . S
O16 Sc0 2.105 1_655 S
O16 C8 1.268 . S
O17 Sc1 2.105 . S
O17 C7 1.268 . S
O18 Sc2 2.105 . S
O18 C9 1.268 1_655 S
O19 Sc0 2.105 . S
O19 C5 1.268 . S
O20 Sc2 2.105 . S
O20 C4 1.268 1_655 S
O21 Sc1 2.105 . S
O21 C6 1.268 . S
Sc22 O25 2.025 . S
Sc22 O32 2.105 . S
Sc22 O35 2.105 . S
Sc22 O38 2.105 1_545 S
Sc22 O41 2.105 . S
Sc23 O25 2.025 . S
Sc23 O33 2.105 . S
Sc23 O37 2.105 . S
Sc23 O39 2.105 . S
Sc23 O43 2.105 . S
Sc24 O25 2.025 1_565 S
Sc24 O34 2.105 1_565 S
Sc24 O36 2.105 . S
Sc24 O40 2.105 . S
Sc24 O42 2.105 . S
O25 Sc22 2.025 . S
O25 Sc23 2.025 . S
O25 Sc24 2.025 1_545 S
C26 O32 1.268 . S
C26 O42 1.268 1_545 S
C27 O33 1.268 . S
C27 O41 1.268 . S
C28 O34 1.268 . S
C28 O43 1.268 . S
C29 O35 1.268 . S
C29 O39 1.268 . S
C30 O36 1.268 . S
C30 O38 1.268 . S
C31 O37 1.268 . S
C31 O40 1.268 1_545 S
O32 Sc22 2.105 . S
O32 C26 1.268 . S
O33 Sc23 2.105 . S
O33 C27 1.268 . S
O34 Sc24 2.105 1_545 S
O34 C28 1.268 . S
O35 Sc22 2.105 . S
O35 C29 1.268 . S
O36 Sc24 2.105 . S
O36 C30 1.268 . S
O37 Sc23 2.105 . S
O37 C31 1.268 . S
O38 Sc22 2.105 1_565 S
O38 C30 1.268 . S
O39 Sc23 2.105 . S
O39 C29 1.268 . S
O40 Sc24 2.105 . S
O40 C31 1.268 1_565 S
O41 Sc22 2.105 . S
O41 C27 1.268 . S
O42 Sc24 2.105 . S
O42 C26 1.268 1_565 S
O43 Sc23 2.105 . S
O43 C28 1.268 . S
Sc44 O47 2.025 . S
Sc44 O54 2.105 . S
Sc44 O57 2.105 . S
Sc44 O60 2.105 . S
Sc44 O63 2.105 . S
Sc45 O47 2.025 . S
Sc45 O55 2.105 . S
Sc45 O59 2.105 . S
Sc45 O61 2.105 . S
Sc45 O65 2.105 . S
Sc46 O47 2.025 . S
Sc46 O56 2.105 . S
Sc46 O58 2.105 . S
Sc46 O62 2.105 . S
Sc46 O64 2.105 . S
O47 Sc44 2.025 . S
O47 Sc45 2.025 . S
O47 Sc46 2.025 . S
C48 O54 1.268 . S
C48 O64 1.268 . S
C49 O55 1.268 . S
C49 O63 1.268 . S
C50 O56 1.268 . S
C50 O65 1.268 . S
C51 O57 1.268 . S
C51 O61 1.268 . S
C52 O58 1.268 . S
C52 O60 1.268 . S
C53 O59 1.268 . S
C53 O62 1.268 . S
O54 Sc44 2.105 . S
O54 C48 1.268 . S
O55 Sc45 2.105 . S
O55 C49 1.268 . S
O56 Sc46 2.105 . S
O56 C50 1.268 . S
O57 Sc44 2.105 . S
O57 C51 1.268 . S
O58 Sc46 2.105 . S
O58 C52 1.268 . S
O59 Sc45 2.105 . S
O59 C53 1.268 . S
O60 Sc44 2.105 . S
O60 C52 1.268 . S
O61 Sc45 2.105 . S
O61 C51 1.268 . S
O62 Sc46 2.105 . S
O62 C53 1.268 . S
O63 Sc44 2.105 . S
O63 C49 1.268 . S
O64 Sc46 2.105 . S
O64 C48 1.268 . S
O65 Sc45 2.105 . S
O65 C50 1.268 . S
Sc66 O69 2.025 . S
Sc66 O76 2.105 . S
Sc66 O79 2.105 . S
Sc66 O82 2.105 . S
Sc66 O85 2.105 . S
Sc67 O69 2.025 . S
Sc67 O77 2.105 . S
Sc67 O81 2.105 . S
Sc67 O83 2.105 . S
Sc67 O87 2.105 . S
Sc68 O69 2.025 . S
Sc68 O78 2.105 . S
Sc68 O80 2.105 . S
Sc68 O84 2.105 . S
Sc68 O86 2.105 . S
O69 Sc66 2.025 . S
O69 Sc67 2.025 . S
O69 Sc68 2.025 . S
C70 O76 1.268 . S
C70 O86 1.268 . S
C71 O77 1.268 . S
C71 O85 1.268 . S
C72 O78 1.268 . S
C72 O87 1.268 . S
C73 O79 1.268 . S
C73 O83 1.268 . S
C74 O80 1.268 . S
C74 O82 1.268 . S
C75 O81 1.268 . S
C75 O84 1.268 . S
O76 Sc66 2.105 . S
O76 C70 1.268 . S
O77 Sc67 2.105 . S
O77 C71 1.268 . S
O78 Sc68 2.105 . S
O78 C72 1.268 . S
O79 Sc66 2.105 . S
O79 C73 1.268 . S
O80 Sc68 2.105 . S
O80 C74 1.268 . S
O81 Sc67 2.105 . S
O81 C75 1.268 . S
O82 Sc66 2.105 . S
O82 C74 1.268 . S
O83 Sc67 2.105 . S
O83 C73 1.268 . S
O84 Sc68 2.105 . S
O84 C75 1.268 . S
O85 Sc66 2.105 . S
O85 C71 1.268 . S
O86 Sc68 2.105 . S
O86 C70 1.268 . S
O87 Sc67 2.105 . S
O87 C72 1.268 . S
Sc88 O91 2.025 1_655 S
Sc88 O98 2.105 . S
Sc88 O101 2.105 1_655 S
Sc88 O104 2.105 . S
Sc88 O107 2.105 . S
Sc89 O91 2.025 . S
Sc89 O99 2.105 . S
Sc89 O103 2.105 . S
Sc89 O105 2.105 . S
Sc89 O109 2.105 . S
Sc90 O91 2.025 . S
Sc90 O100 2.105 . S
Sc90 O102 2.105 . S
Sc90 O106 2.105 . S
Sc90 O108 2.105 1_455 S
O91 Sc88 2.025 1_455 S
O91 Sc89 2.025 . S
O91 Sc90 2.025 . S
C92 O98 1.268 . S
C92 O108 1.268 . S
C93 O99 1.268 . S
C93 O107 1.268 1_455 S
C94 O100 1.268 . S
C94 O109 1.268 . S
C95 O101 1.268 . S
C95 O105 1.268 . S
C96 O102 1.268 . S
C96 O104 1.268 1_455 S
C97 O103 1.268 . S
C97 O106 1.268 . S
O98 Sc88 2.105 . S
O98 C92 1.268 . S
O99 Sc89 2.105 . S
O99 C93 1.268 . S
O100 Sc90 2.105 . S
O100 C94 1.268 . S
O101 Sc88 2.105 1_455 S
O101 C95 1.268 . S
O102 Sc90 2.105 . S
O102 C96 1.268 . S
O103 Sc89 2.105 . S
O103 C97 1.268 . S
O104 Sc88 2.105 . S
O104 C96 1.268 1_655 S
O105 Sc89 2.105 . S
O105 C95 1.268 . S
O106 Sc90 2.105 . S
O106 C97 1.268 . S
O107 Sc88 2.105 . S
O107 C93 1.268 1_655 S
O108 Sc90 2.105 1_655 S
O108 C92 1.268 . S
O109 Sc89 2.105 . S
O109 C94 1.268 . S
Sc110 O113 2.025 . S
Sc110 O120 2.105 . S
Sc110 O123 2.105 . S
Sc110 O126 2.105 1_545 S
Sc110 O129 2.105 . S
Sc111 O113 2.025 . S
Sc111 O121 2.105 . S
Sc111 O125 2.105 . S
Sc111 O127 2.105 . S
Sc111 O131 2.105 . S
Sc112 O113 2.025 1_565 S
Sc112 O122 2.105 1_565 S
Sc112 O124 2.105 . S
Sc112 O128 2.105 . S
Sc112 O130 2.105 . S
O113 Sc110 2.025 . S
O113 Sc111 2.025 . S
O113 Sc112 2.025 1_545 S
C114 O120 1.268 . S
C114 O130 1.268 1_545 S
C115 O121 1.268 . S
C115 O129 1.268 . S
C116 O122 1.268 . S
C116 O131 1.268 . S
C117 O123 1.268 . S
C117 O127 1.268 . S
C118 O124 1.268 . S
C118 O126 1.268 . S
C119 O125 1.268 . S
C119 O128 1.268 1_545 S
O120 Sc110 2.105 . S
O120 C114 1.268 . S
O121 Sc111 2.105 . S
O121 C115 1.268 . S
O122 Sc112 2.105 1_545 S
O122 C116 1.268 . S
O123 Sc110 2.105 . S
O123 C117 1.268 . S
O124 Sc112 2.105 . S
O124 C118 1.268 . S
O125 Sc111 2.105 . S
O125 C119 1.268 . S
O126 Sc110 2.105 1_565 S
O126 C118 1.268 . S
O127 Sc111 2.105 . S
O127 C117 1.268 . S
O128 Sc112 2.105 . S
O128 C119 1.268 1_565 S
O129 Sc110 2.105 . S
O129 C115 1.268 . S
O130 Sc112 2.105 . S
O130 C114 1.268 1_565 S
O131 Sc111 2.105 . S
O131 C116 1.268 . S
Sc132 O135 2.025 . S
Sc132 O142 2.105 . S
Sc132 O145 2.105 . S
Sc132 O148 2.105 . S
Sc132 O151 2.105 . S
Sc133 O135 2.025 . S
Sc133 O143 2.105 . S
Sc133 O147 2.105 . S
Sc133 O149 2.105 . S
Sc133 O153 2.105 . S
Sc134 O135 2.025 . S
Sc134 O144 2.105 . S
Sc134 O146 2.105 . S
Sc134 O150 2.105 . S
Sc134 O152 2.105 . S
O135 Sc132 2.025 . S
O135 Sc133 2.025 . S
O135 Sc134 2.025 . S
C136 O142 1.268 . S
C136 O152 1.268 . S
C137 O143 1.268 . S
C137 O151 1.268 . S
C138 O144 1.268 . S
C138 O153 1.268 . S
C139 O145 1.268 . S
C139 O149 1.268 . S
C140 O146 1.268 . S
C140 O148 1.268 . S
C141 O147 1.268 . S
C141 O150 1.268 . S
O142 Sc132 2.105 . S
O142 C136 1.268 . S
O143 Sc133 2.105 . S
O143 C137 1.268 . S
O144 Sc134 2.105 . S
O144 C138 1.268 . S
O145 Sc132 2.105 . S
O145 C139 1.268 . S
O146 Sc134 2.105 . S
O146 C140 1.268 . S
O147 Sc133 2.105 . S
O147 C141 1.268 . S
O148 Sc132 2.105 . S
O148 C140 1.268 . S
O149 Sc133 2.105 . S
O149 C139 1.268 . S
O150 Sc134 2.105 . S
O150 C141 1.268 . S
O151 Sc132 2.105 . S
O151 C137 1.268 . S
O152 Sc134 2.105 . S
O152 C136 1.268 . S
O153 Sc133 2.105 . S
O153 C138 1.268 . S
Sc154 O157 2.025 . S
Sc154 O164 2.105 . S
Sc154 O167 2.105 . S
Sc154 O170 2.105 . S
Sc154 O173 2.105 . S
Sc155 O157 2.025 . S
Sc155 O165 2.105 . S
Sc155 O169 2.105 . S
Sc155 O171 2.105 . S
Sc155 O175 2.105 . S
Sc156 O157 2.025 . S
Sc156 O166 2.105 . S
Sc156 O168 2.105 . S
Sc156 O172 2.105 . S
Sc156 O174 2.105 . S
O157 Sc154 2.025 . S
O157 Sc155 2.025 . S
O157 Sc156 2.025 . S
C158 O164 1.268 . S
C158 O174 1.268 . S
C159 O165 1.268 . S
C159 O173 1.268 . S
C160 O166 1.268 . S
C160 O175 1.268 . S
C161 O167 1.268 . S
C161 O171 1.268 . S
C162 O168 1.268 . S
C162 O170 1.268 . S
C163 O169 1.268 . S
C163 O172 1.268 . S
O164 Sc154 2.105 . S
O164 C158 1.268 . S
O165 Sc155 2.105 . S
O165 C159 1.268 . S
O166 Sc156 2.105 . S
O166 C160 1.268 . S
O167 Sc154 2.105 . S
O167 C161 1.268 . S
O168 Sc156 2.105 . S
O168 C162 1.268 . S
O169 Sc155 2.105 . S
O169 C163 1.268 . S
O170 Sc154 2.105 . S
O170 C162 1.268 . S
O171 Sc155 2.105 . S
O171 C161 1.268 . S
O172 Sc156 2.105 . S
O172 C163 1.268 . S
O173 Sc154 2.105 . S
O173 C159 1.268 . S
O174 Sc156 2.105 . S
O174 C158 1.268 . S
O175 Sc155 2.105 . S
O175 C160 1.268 . S
Sc176 O179 2.025 1_455 S
Sc176 O186 2.105 . S
Sc176 O189 2.105 . S
Sc176 O192 2.105 . S
Sc176 O195 2.105 1_455 S
Sc177 O179 2.025 . S
Sc177 O187 2.105 . S
Sc177 O191 2.105 . S
Sc177 O193 2.105 . S
Sc177 O197 2.105 . S
Sc178 O179 2.025 . S
Sc178 O188 2.105 . S
Sc178 O190 2.105 1_655 S
Sc178 O194 2.105 . S
Sc178 O196 2.105 . S
O179 Sc176 2.025 1_655 S
O179 Sc177 2.025 . S
O179 Sc178 2.025 . S
C180 O186 1.268 1_655 S
C180 O196 1.268 . S
C181 O187 1.268 . S
C181 O195 1.268 . S
C182 O188 1.268 . S
C182 O197 1.268 . S
C183 O189 1.268 1_655 S
C183 O193 1.268 . S
C184 O190 1.268 . S
C184 O192 1.268 . S
C185 O191 1.268 . S
C185 O194 1.268 . S
O186 Sc176 2.105 . S
O186 C180 1.268 1_455 S
O187 Sc177 2.105 . S
O187 C181 1.268 . S
O188 Sc178 2.105 . S
O188 C182 1.268 . S
O189 Sc176 2.105 . S
O189 C183 1.268 1_455 S
O190 Sc178 2.105 1_455 S
O190 C184 1.268 . S
O191 Sc177 2.105 . S
O191 C185 1.268 . S
O192 Sc176 2.105 . S
O192 C184 1.268 . S
O193 Sc177 2.105 . S
O193 C183 1.268 . S
O194 Sc178 2.105 . S
O194 C185 1.268 . S
O195 Sc176 2.105 1_655 S
O195 C181 1.268 . S
O196 Sc178 2.105 . S
O196 C180 1.268 . S
O197 Sc177 2.105 . S
O197 C182 1.268 . S
Sc198 O201 2.025 . S
Sc198 O208 2.105 1_565 S
Sc198 O211 2.105 . S
Sc198 O214 2.105 . S
Sc198 O217 2.105 . S
Sc199 O201 2.025 . S
Sc199 O209 2.105 . S
Sc199 O213 2.105 . S
Sc199 O215 2.105 . S
Sc199 O219 2.105 . S
Sc200 O201 2.025 1_545 S
Sc200 O210 2.105 . S
Sc200 O212 2.105 . S
Sc200 O216 2.105 1_545 S
Sc200 O218 2.105 . S
O201 Sc198 2.025 . S
O201 Sc199 2.025 . S
O201 Sc200 2.025 1_565 S
C202 O208 1.268 . S
C202 O218 1.268 . S
C203 O209 1.268 . S
C203 O217 1.268 . S
C204 O210 1.268 1_565 S
C204 O219 1.268 . S
C205 O211 1.268 . S
C205 O215 1.268 . S
C206 O212 1.268 1_565 S
C206 O214 1.268 . S
C207 O213 1.268 . S
C207 O216 1.268 . S
O208 Sc198 2.105 1_545 S
O208 C202 1.268 . S
O209 Sc199 2.105 . S
O209 C203 1.268 . S
O210 Sc200 2.105 . S
O210 C204 1.268 1_545 S
O211 Sc198 2.105 . S
O211 C205 1.268 . S
O212 Sc200 2.105 . S
O212 C206 1.268 1_545 S
O213 Sc199 2.105 . S
O213 C207 1.268 . S
O214 Sc198 2.105 . S
O214 C206 1.268 . S
O215 Sc199 2.105 . S
O215 C205 1.268 . S
O216 Sc200 2.105 1_565 S
O216 C207 1.268 . S
O217 Sc198 2.105 . S
O217 C203 1.268 . S
O218 Sc200 2.105 . S
O218 C202 1.268 . S
O219 Sc199 2.105 . S
O219 C204 1.268 . S
Sc220 O223 2.025 . S
Sc220 O230 2.105 . S
Sc220 O233 2.105 . S
Sc220 O236 2.105 . S
Sc220 O239 2.105 . S
Sc221 O223 2.025 . S
Sc221 O231 2.105 . S
Sc221 O235 2.105 . S
Sc221 O237 2.105 . S
Sc221 O241 2.105 . S
Sc222 O223 2.025 . S
Sc222 O232 2.105 . S
Sc222 O234 2.105 . S
Sc222 O238 2.105 . S
Sc222 O240 2.105 . S
O223 Sc220 2.025 . S
O223 Sc221 2.025 . S
O223 Sc222 2.025 . S
C224 O230 1.268 . S
C224 O240 1.268 . S
C225 O231 1.268 . S
C225 O239 1.268 . S
C226 O232 1.268 . S
C226 O241 1.268 . S
C227 O233 1.268 . S
C227 O237 1.268 . S
C228 O234 1.268 . S
C228 O236 1.268 . S
C229 O235 1.268 . S
C229 O238 1.268 . S
O230 Sc220 2.105 . S
O230 C224 1.268 . S
O231 Sc221 2.105 . S
O231 C225 1.268 . S
O232 Sc222 2.105 . S
O232 C226 1.268 . S
O233 Sc220 2.105 . S
O233 C227 1.268 . S
O234 Sc222 2.105 . S
O234 C228 1.268 . S
O235 Sc221 2.105 . S
O235 C229 1.268 . S
O236 Sc220 2.105 . S
O236 C228 1.268 . S
O237 Sc221 2.105 . S
O237 C227 1.268 . S
O238 Sc222 2.105 . S
O238 C229 1.268 . S
O239 Sc220 2.105 . S
O239 C225 1.268 . S
O240 Sc222 2.105 . S
O240 C224 1.268 . S
O241 Sc221 2.105 . S
O241 C226 1.268 . S
Sc242 O245 2.025 . S
Sc242 O252 2.105 . S
Sc242 O255 2.105 . S
Sc242 O258 2.105 . S
Sc242 O261 2.105 . S
Sc243 O245 2.025 . S
Sc243 O253 2.105 . S
Sc243 O257 2.105 . S
Sc243 O259 2.105 . S
Sc243 O263 2.105 . S
Sc244 O245 2.025 . S
Sc244 O254 2.105 . S
Sc244 O256 2.105 . S
Sc244 O260 2.105 . S
Sc244 O262 2.105 . S
O245 Sc242 2.025 . S
O245 Sc243 2.025 . S
O245 Sc244 2.025 . S
C246 O252 1.268 . S
C246 O262 1.268 . S
C247 O253 1.268 . S
C247 O261 1.268 . S
C248 O254 1.268 . S
C248 O263 1.268 . S
C249 O255 1.268 . S
C249 O259 1.268 . S
C250 O256 1.268 . S
C250 O258 1.268 . S
C251 O257 1.268 . S
C251 O260 1.268 . S
O252 Sc242 2.105 . S
O252 C246 1.268 . S
O253 Sc243 2.105 . S
O253 C247 1.268 . S
O254 Sc244 2.105 . S
O254 C248 1.268 . S
O255 Sc242 2.105 . S
O255 C249 1.268 . S
O256 Sc244 2.105 . S
O256 C250 1.268 . S
O257 Sc243 2.105 . S
O257 C251 1.268 . S
O258 Sc242 2.105 . S
O258 C250 1.268 . S
O259 Sc243 2.105 . S
O259 C249 1.268 . S
O260 Sc244 2.105 . S
O260 C251 1.268 . S
O261 Sc242 2.105 . S
O261 C247 1.268 . S
O262 Sc244 2.105 . S
O262 C246 1.268 . S
O263 Sc243 2.105 . S
O263 C248 1.268 . S
Sc264 O267 2.025 . S
Sc264 O274 2.105 1_655 S
Sc264 O277 2.105 . S
Sc264 O280 2.105 . S
Sc264 O283 2.105 . S
Sc265 O267 2.025 . S
Sc265 O275 2.105 . S
Sc265 O279 2.105 . S
Sc265 O281 2.105 . S
Sc265 O285 2.105 . S
Sc266 O267 2.025 1_455 S
Sc266 O276 2.105 . S
Sc266 O278 2.105 . S
Sc266 O282 2.105 1_455 S
Sc266 O284 2.105 . S
O267 Sc264 2.025 . S
O267 Sc265 2.025 . S
O267 Sc266 2.025 1_655 S
C268 O274 1.268 . S
C268 O284 1.268 . S
C269 O275 1.268 . S
C269 O283 1.268 . S
C270 O276 1.268 1_655 S
C270 O285 1.268 . S
C271 O277 1.268 . S
C271 O281 1.268 . S
C272 O278 1.268 1_655 S
C272 O280 1.268 . S
C273 O279 1.268 . S
C273 O282 1.268 . S
O274 Sc264 2.105 1_455 S
O274 C268 1.268 . S
O275 Sc265 2.105 . S
O275 C269 1.268 . S
O276 Sc266 2.105 . S
O276 C270 1.268 1_455 S
O277 Sc264 2.105 . S
O277 C271 1.268 . S
O278 Sc266 2.105 . S
O278 C272 1.268 1_455 S
O279 Sc265 2.105 . S
O279 C273 1.268 . S
O280 Sc264 2.105 . S
O280 C272 1.268 . S
O281 Sc265 2.105 . S
O281 C271 1.268 . S
O282 Sc266 2.105 1_655 S
O282 C273 1.268 . S
O283 Sc264 2.105 . S
O283 C269 1.268 . S
O284 Sc266 2.105 . S
O284 C268 1.268 . S
O285 Sc265 2.105 . S
O285 C270 1.268 . S
Sc286 O289 2.025 . S
Sc286 O296 2.105 1_565 S
Sc286 O299 2.105 . S
Sc286 O302 2.105 . S
Sc286 O305 2.105 . S
Sc287 O289 2.025 . S
Sc287 O297 2.105 . S
Sc287 O301 2.105 . S
Sc287 O303 2.105 . S
Sc287 O307 2.105 . S
Sc288 O289 2.025 1_545 S
Sc288 O298 2.105 . S
Sc288 O300 2.105 . S
Sc288 O304 2.105 1_545 S
Sc288 O306 2.105 . S
O289 Sc286 2.025 . S
O289 Sc287 2.025 . S
O289 Sc288 2.025 1_565 S
C290 O296 1.268 . S
C290 O306 1.268 . S
C291 O297 1.268 . S
C291 O305 1.268 . S
C292 O298 1.268 1_565 S
C292 O307 1.268 . S
C293 O299 1.268 . S
C293 O303 1.268 . S
C294 O300 1.268 1_565 S
C294 O302 1.268 . S
C295 O301 1.268 . S
C295 O304 1.268 . S
O296 Sc286 2.105 1_545 S
O296 C290 1.268 . S
O297 Sc287 2.105 . S
O297 C291 1.268 . S
O298 Sc288 2.105 . S
O298 C292 1.268 1_545 S
O299 Sc286 2.105 . S
O299 C293 1.268 . S
O300 Sc288 2.105 . S
O300 C294 1.268 1_545 S
O301 Sc287 2.105 . S
O301 C295 1.268 . S
O302 Sc286 2.105 . S
O302 C294 1.268 . S
O303 Sc287 2.105 . S
O303 C293 1.268 . S
O304 Sc288 2.105 1_565 S
O304 C295 1.268 . S
O305 Sc286 2.105 . S
O305 C291 1.268 . S
O306 Sc288 2.105 . S
O306 C290 1.268 . S
O307 Sc287 2.105 . S
O307 C292 1.268 . S
Sc308 O311 2.025 . S
Sc308 O318 2.105 . S
Sc308 O321 2.105 . S
Sc308 O324 2.105 . S
Sc308 O327 2.105 . S
Sc309 O311 2.025 . S
Sc309 O319 2.105 . S
Sc309 O323 2.105 . S
Sc309 O325 2.105 . S
Sc309 O329 2.105 . S
Sc310 O311 2.025 . S
Sc310 O320 2.105 . S
Sc310 O322 2.105 . S
Sc310 O326 2.105 . S
Sc310 O328 2.105 . S
O311 Sc308 2.025 . S
O311 Sc309 2.025 . S
O311 Sc310 2.025 . S
C312 O318 1.268 . S
C312 O328 1.268 . S
C313 O319 1.268 . S
C313 O327 1.268 . S
C314 O320 1.268 . S
C314 O329 1.268 . S
C315 O321 1.268 . S
C315 O325 1.268 . S
C316 O322 1.268 . S
C316 O324 1.268 . S
C317 O323 1.268 . S
C317 O326 1.268 . S
O318 Sc308 2.105 . S
O318 C312 1.268 . S
O319 Sc309 2.105 . S
O319 C313 1.268 . S
O320 Sc310 2.105 . S
O320 C314 1.268 . S
O321 Sc308 2.105 . S
O321 C315 1.268 . S
O322 Sc310 2.105 . S
O322 C316 1.268 . S
O323 Sc309 2.105 . S
O323 C317 1.268 . S
O324 Sc308 2.105 . S
O324 C316 1.268 . S
O325 Sc309 2.105 . S
O325 C315 1.268 . S
O326 Sc310 2.105 . S
O326 C317 1.268 . S
O327 Sc308 2.105 . S
O327 C313 1.268 . S
O328 Sc310 2.105 . S
O328 C312 1.268 . S
O329 Sc309 2.105 . S
O329 C314 1.268 . S
Sc330 O333 2.025 . S
Sc330 O340 2.105 . S
Sc330 O343 2.105 . S
Sc330 O346 2.105 . S
Sc330 O349 2.105 . S
Sc331 O333 2.025 . S
Sc331 O341 2.105 . S
Sc331 O345 2.105 . S
Sc331 O347 2.105 . S
Sc331 O351 2.105 . S
Sc332 O333 2.025 . S
Sc332 O342 2.105 . S
Sc332 O344 2.105 . S
Sc332 O348 2.105 . S
Sc332 O350 2.105 . S
O333 Sc330 2.025 . S
O333 Sc331 2.025 . S
O333 Sc332 2.025 . S
C334 O340 1.268 . S
C334 O350 1.268 . S
C335 O341 1.268 . S
C335 O349 1.268 . S
C336 O342 1.268 . S
C336 O351 1.268 . S
C337 O343 1.268 . S
C337 O347 1.268 . S
C338 O344 1.268 . S
C338 O346 1.268 . S
C339 O345 1.268 . S
C339 O348 1.268 . S
O340 Sc330 2.105 . S
O340 C334 1.268 . S
O341 Sc331 2.105 . S
O341 C335 1.268 . S
O342 Sc332 2.105 . S
O342 C336 1.268 . S
O343 Sc330 2.105 . S
O343 C337 1.268 . S
O344 Sc332 2.105 . S
O344 C338 1.268 . S
O345 Sc331 2.105 . S
O345 C339 1.268 . S
O346 Sc330 2.105 . S
O346 C338 1.268 . S
O347 Sc331 2.105 . S
O347 C337 1.268 . S
O348 Sc332 2.105 . S
O348 C339 1.268 . S
O349 Sc330 2.105 . S
O349 C335 1.268 . S
O350 Sc332 2.105 . S
O350 C334 1.268 . S
O351 Sc331 2.105 . S
O351 C336 1.268 . S
H352 C360 0.950 . S
H353 C365 0.950 . S
H354 C362 0.950 . S
H355 C364 0.950 . S
H356 C366 0.950 . S
H357 C368 0.950 . S
H358 C370 0.950 . S
H359 C371 0.950 . S
C360 H352 0.950 . S
C360 C361 1.386 . S
C360 C362 1.391 . S
C361 C360 1.386 . S
C361 C365 1.393 . S
C362 H354 0.950 . S
C362 C360 1.391 . S
C362 C363 1.400 . S
C363 C362 1.400 . S
C363 C364 1.398 . S
C363 C369 1.491 . S
C364 H355 0.950 . S
C364 C363 1.398 . S
C364 C365 1.391 . S
C365 H353 0.950 . S
C365 C361 1.393 . S
C365 C364 1.391 . S
C366 H356 0.950 . S
C366 C367 1.386 . S
C366 C368 1.391 . S
C367 C366 1.386 . S
C367 C371 1.393 . S
C368 H357 0.950 . S
C368 C366 1.391 . S
C368 C369 1.400 . S
C369 C363 1.491 . S
C369 C368 1.400 . S
C369 C370 1.398 . S
C370 H358 0.950 . S
C370 C369 1.398 . S
C370 C371 1.391 . S
C371 H359 0.950 . S
C371 C367 1.393 . S
C371 C370 1.391 . S
H372 C380 0.950 . S
H373 C385 0.950 . S
H374 C382 0.950 . S
H375 C384 0.956 . S
H376 C386 0.950 . S
H377 C388 0.950 . S
H378 C390 0.950 . S
H379 C391 0.950 . S
C380 H372 0.950 . S
C380 C381 1.386 . S
C380 C382 1.391 . S
C381 C380 1.386 . S
C381 C385 1.393 1_655 S
C382 H374 0.950 . S
C382 C380 1.391 . S
C382 C383 1.400 . S
C383 C382 1.400 . S
C383 C384 1.398 . S
C383 C389 1.491 . S
C384 H375 0.956 . S
C384 C383 1.398 . S
C384 C385 1.391 1_655 S
C385 H373 0.950 . S
C385 C381 1.393 1_455 S
C385 C384 1.391 1_455 S
C386 H376 0.950 . S
C386 C387 1.386 . S
C386 C388 1.391 . S
C387 C386 1.386 . S
C387 C391 1.393 . S
C388 H377 0.950 . S
C388 C386 1.391 . S
C388 C389 1.400 . S
C389 C383 1.491 . S
C389 C388 1.400 . S
C389 C390 1.398 . S
C390 H378 0.950 . S
C390 C389 1.398 . S
C390 C391 1.391 . S
C391 H379 0.950 . S
C391 C387 1.393 . S
C391 C390 1.391 . S
H392 C400 0.950 . S
H393 C405 0.950 . S
H394 C402 0.950 . S
H395 C404 0.950 . S
H396 C406 0.950 . S
H397 C408 0.950 . S
H398 C410 0.950 . S
H399 C411 0.950 . S
C400 H392 0.950 . S
C400 C401 1.386 . S
C400 C402 1.391 . S
C401 C400 1.386 . S
C401 C405 1.393 . S
C402 H394 0.950 . S
C402 C400 1.391 . S
C402 C403 1.400 . S
C403 C402 1.400 . S
C403 C404 1.398 . S
C403 C409 1.491 . S
C404 H395 0.950 . S
C404 C403 1.398 . S
C404 C405 1.391 . S
C405 H393 0.950 . S
C405 C401 1.393 . S
C405 C404 1.391 . S
C406 H396 0.950 . S
C406 C407 1.386 1_545 S
C406 C408 1.391 1_545 S
C407 C406 1.386 1_565 S
C407 C411 1.393 . S
C408 H397 0.950 . S
C408 C406 1.391 1_565 S
C408 C409 1.400 . S
C409 C403 1.491 . S
C409 C408 1.400 . S
C409 C410 1.398 . S
C410 H398 0.950 . S
C410 C409 1.398 . S
C410 C411 1.391 . S
C411 H399 0.950 . S
C411 C407 1.393 . S
C411 C410 1.391 . S
H412 C420 0.950 . S
H413 C425 0.950 . S
H414 C422 0.950 . S
H415 C424 0.950 . S
H416 C426 0.950 . S
H417 C428 0.950 . S
H418 C430 0.950 . S
H419 C431 0.950 . S
C420 H412 0.950 . S
C420 C421 1.386 . S
C420 C422 1.391 . S
C421 C420 1.386 . S
C421 C425 1.393 . S
C422 H414 0.950 . S
C422 C420 1.391 . S
C422 C423 1.400 . S
C423 C422 1.400 . S
C423 C424 1.398 . S
C423 C429 1.491 . S
C424 H415 0.950 . S
C424 C423 1.398 . S
C424 C425 1.391 . S
C425 H413 0.950 . S
C425 C421 1.393 . S
C425 C424 1.391 . S
C426 H416 0.950 . S
C426 C427 1.386 . S
C426 C428 1.391 . S
C427 C426 1.386 . S
C427 C431 1.393 . S
C428 H417 0.950 . S
C428 C426 1.391 . S
C428 C429 1.400 . S
C429 C423 1.491 . S
C429 C428 1.400 . S
C429 C430 1.398 . S
C430 H418 0.950 . S
C430 C429 1.398 . S
C430 C431 1.391 . S
C431 H419 0.950 . S
C431 C427 1.393 . S
C431 C430 1.391 . S
H432 C440 0.950 . S
H433 C445 0.950 . S
H434 C442 0.950 . S
H435 C444 0.950 . S
H436 C446 0.950 . S
H437 C448 0.950 . S
H438 C450 0.950 . S
H439 C451 0.950 . S
C440 H432 0.950 . S
C440 C441 1.386 . S
C440 C442 1.391 . S
C441 C440 1.386 . S
C441 C445 1.393 . S
C442 H434 0.950 . S
C442 C440 1.391 . S
C442 C443 1.400 . S
C443 C442 1.400 . S
C443 C444 1.398 . S
C443 C449 1.491 . S
C444 H435 0.950 . S
C444 C443 1.398 . S
C444 C445 1.391 . S
C445 H433 0.950 . S
C445 C441 1.393 . S
C445 C444 1.391 . S
C446 H436 0.950 . S
C446 C447 1.386 1_545 S
C446 C448 1.391 1_545 S
C447 C446 1.386 1_565 S
C447 C451 1.393 . S
C448 H437 0.950 . S
C448 C446 1.391 1_565 S
C448 C449 1.400 . S
C449 C443 1.491 . S
C449 C448 1.400 . S
C449 C450 1.398 . S
C450 H438 0.950 . S
C450 C449 1.398 . S
C450 C451 1.391 . S
C451 H439 0.950 . S
C451 C447 1.393 . S
C451 C450 1.391 . S
H452 C460 0.950 . S
H453 C465 0.950 . S
H454 C462 0.950 . S
H455 C464 0.950 . S
H456 C466 0.950 . S
H457 C468 0.950 . S
H458 C470 0.950 . S
H459 C471 0.950 . S
C460 H452 0.950 . S
C460 C461 1.386 . S
C460 C462 1.391 . S
C461 C460 1.386 . S
C461 C465 1.393 . S
C462 H454 0.950 . S
C462 C460 1.391 . S
C462 C463 1.400 . S
C463 C462 1.400 . S
C463 C464 1.398 . S
C463 C469 1.491 . S
C464 H455 0.950 . S
C464 C463 1.398 . S
C464 C465 1.391 . S
C465 H453 0.950 . S
C465 C461 1.393 . S
C465 C464 1.391 . S
C466 H456 0.950 . S
C466 C467 1.386 . S
C466 C468 1.391 . S
C467 C466 1.386 . S
C467 C471 1.393 . S
C468 H457 0.950 . S
C468 C466 1.391 . S
C468 C469 1.400 . S
C469 C463 1.491 . S
C469 C468 1.400 . S
C469 C470 1.398 . S
C470 H458 0.950 . S
C470 C469 1.398 . S
C470 C471 1.391 . S
C471 H459 0.950 . S
C471 C467 1.393 . S
C471 C470 1.391 . S
H472 C480 0.950 . S
H473 C485 0.950 . S
H474 C482 0.950 . S
H475 C484 0.950 . S
H476 C486 0.950 . S
H477 C488 0.950 . S
H478 C490 0.950 . S
H479 C491 0.950 . S
C480 H472 0.950 . S
C480 C481 1.386 . S
C480 C482 1.391 . S
C481 C480 1.386 . S
C481 C485 1.393 . S
C482 H474 0.950 . S
C482 C480 1.391 . S
C482 C483 1.400 . S
C483 C482 1.400 . S
C483 C484 1.398 . S
C483 C489 1.491 . S
C484 H475 0.950 . S
C484 C483 1.398 . S
C484 C485 1.391 . S
C485 H473 0.950 . S
C485 C481 1.393 . S
C485 C484 1.391 . S
C486 H476 0.950 . S
C486 C487 1.386 . S
C486 C488 1.391 . S
C487 C486 1.386 . S
C487 C491 1.393 . S
C488 H477 0.950 . S
C488 C486 1.391 . S
C488 C489 1.400 . S
C489 C483 1.491 . S
C489 C488 1.400 . S
C489 C490 1.398 . S
C490 H478 0.950 . S
C490 C489 1.398 . S
C490 C491 1.391 . S
C491 H479 0.950 . S
C491 C487 1.393 . S
C491 C490 1.391 . S
H492 C500 0.950 . S
H493 C505 0.950 . S
H494 C502 0.950 1_455 S
H495 C504 0.950 . S
H496 C506 0.950 . S
H497 C508 0.950 . S
H498 C510 0.950 . S
H499 C511 0.950 . S
C500 H492 0.950 . S
C500 C501 1.386 1_455 S
C500 C502 1.391 1_455 S
C501 C500 1.386 1_655 S
C501 C505 1.393 . S
C502 H494 0.950 1_655 S
C502 C500 1.391 1_655 S
C502 C503 1.400 . S
C503 C502 1.400 . S
C503 C504 1.398 . S
C503 C509 1.491 . S
C504 H495 0.950 . S
C504 C503 1.398 . S
C504 C505 1.391 . S
C505 H493 0.950 . S
C505 C501 1.393 . S
C505 C504 1.391 . S
C506 H496 0.950 . S
C506 C507 1.386 . S
C506 C508 1.391 . S
C507 C506 1.386 . S
C507 C511 1.393 . S
C508 H497 0.950 . S
C508 C506 1.391 . S
C508 C509 1.400 . S
C509 C503 1.491 . S
C509 C508 1.400 . S
C509 C510 1.398 . S
C510 H498 0.950 . S
C510 C509 1.398 . S
C510 C511 1.391 . S
C511 H499 0.950 . S
C511 C507 1.393 . S
C511 C510 1.391 . S
H512 C520 0.950 . S
H513 C525 0.950 . S
H514 C522 0.950 . S
H515 C524 0.950 . S
H516 C526 0.950 . S
H517 C528 0.950 . S
H518 C530 0.950 . S
H519 C531 0.950 . S
C520 H512 0.950 . S
C520 C521 1.386 . S
C520 C522 1.391 . S
C521 C520 1.386 . S
C521 C525 1.393 . S
C522 H514 0.950 . S
C522 C520 1.391 . S
C522 C523 1.400 . S
C523 C522 1.400 . S
C523 C524 1.398 . S
C523 C529 1.491 . S
C524 H515 0.950 . S
C524 C523 1.398 . S
C524 C525 1.391 . S
C525 H513 0.950 . S
C525 C521 1.393 . S
C525 C524 1.391 . S
C526 H516 0.950 . S
C526 C527 1.386 . S
C526 C528 1.391 . S
C527 C526 1.386 . S
C527 C531 1.393 . S
C528 H517 0.950 . S
C528 C526 1.391 . S
C528 C529 1.400 . S
C529 C523 1.491 . S
C529 C528 1.400 . S
C529 C530 1.398 . S
C530 H518 0.950 . S
C530 C529 1.398 . S
C530 C531 1.391 . S
C531 H519 0.950 . S
C531 C527 1.393 . S
C531 C530 1.391 . S
H532 C540 0.950 . S
H533 C545 0.950 . S
H534 C542 0.950 . S
H535 C544 0.950 . S
H536 C546 0.950 . S
H537 C548 0.950 . S
H538 C550 0.950 . S
H539 C551 0.950 . S
C540 H532 0.950 . S
C540 C541 1.386 . S
C540 C542 1.391 . S
C541 C540 1.386 . S
C541 C545 1.393 1_455 S
C542 H534 0.950 . S
C542 C540 1.391 . S
C542 C543 1.400 . S
C543 C542 1.400 . S
C543 C544 1.398 . S
C543 C549 1.491 . S
C544 H535 0.950 . S
C544 C543 1.398 . S
C544 C545 1.391 1_455 S
C545 H533 0.950 . S
C545 C541 1.393 1_655 S
C545 C544 1.391 1_655 S
C546 H536 0.950 . S
C546 C547 1.386 . S
C546 C548 1.391 . S
C547 C546 1.386 . S
C547 C551 1.393 . S
C548 H537 0.950 . S
C548 C546 1.391 . S
C548 C549 1.400 . S
C549 C543 1.491 . S
C549 C548 1.400 . S
C549 C550 1.398 . S
C550 H538 0.950 . S
C550 C549 1.398 . S
C550 C551 1.391 . S
C551 H539 0.950 . S
C551 C547 1.393 . S
C551 C550 1.391 . S
H552 C560 0.950 . S
H553 C565 0.950 1_565 S
H554 C562 0.950 . S
H555 C564 0.950 . S
H556 C566 0.950 . S
H557 C568 0.950 . S
H558 C570 0.950 . S
H559 C571 0.950 . S
C560 H552 0.950 . S
C560 C561 1.386 . S
C560 C562 1.391 . S
C561 C560 1.386 . S
C561 C565 1.393 . S
C562 H554 0.950 . S
C562 C560 1.391 . S
C562 C563 1.400 . S
C563 C562 1.400 . S
C563 C564 1.398 . S
C563 C569 1.491 . S
C564 H555 0.950 . S
C564 C563 1.398 . S
C564 C565 1.391 . S
C565 H553 0.950 1_545 S
C565 C561 1.393 . S
C565 C564 1.391 . S
C566 H556 0.950 . S
C566 C567 1.386 . S
C566 C568 1.391 . S
C567 C566 1.386 . S
C567 C571 1.393 . S
C568 H557 0.950 . S
C568 C566 1.391 . S
C568 C569 1.400 . S
C569 C563 1.491 . S
C569 C568 1.400 . S
C569 C570 1.398 . S
C570 H558 0.950 . S
C570 C569 1.398 . S
C570 C571 1.391 . S
C571 H559 0.950 . S
C571 C567 1.393 . S
C571 C570 1.391 . S
H572 C580 0.950 . S
H573 C585 0.950 . S
H574 C582 0.950 . S
H575 C584 0.950 . S
H576 C586 0.950 . S
H577 C588 0.950 . S
H578 C590 0.950 . S
H579 C591 0.950 . S
C580 H572 0.950 . S
C580 C581 1.386 . S
C580 C582 1.391 . S
C581 C580 1.386 . S
C581 C585 1.393 . S
C582 H574 0.950 . S
C582 C580 1.391 . S
C582 C583 1.400 . S
C583 C582 1.400 . S
C583 C584 1.398 . S
C583 C589 1.491 . S
C584 H575 0.950 . S
C584 C583 1.398 . S
C584 C585 1.391 . S
C585 H573 0.950 . S
C585 C581 1.393 . S
C585 C584 1.391 . S
C586 H576 0.950 . S
C586 C587 1.386 . S
C586 C588 1.391 . S
C587 C586 1.386 . S
C587 C591 1.393 . S
C588 H577 0.950 . S
C588 C586 1.391 . S
C588 C589 1.400 . S
C589 C583 1.491 . S
C589 C588 1.400 . S
C589 C590 1.398 . S
C590 H578 0.950 . S
C590 C589 1.398 . S
C590 C591 1.391 . S
C591 H579 0.950 . S
C591 C587 1.393 . S
C591 C590 1.391 . S
H592 C600 0.950 . S
H593 C605 0.950 . S
H594 C602 0.950 . S
H595 C604 0.950 . S
H596 C606 0.950 1_565 S
H597 C608 0.950 . S
H598 C610 0.950 . S
H599 C611 0.950 . S
C600 H592 0.950 . S
C600 C601 1.386 . S
C600 C602 1.391 . S
C601 C600 1.386 . S
C601 C605 1.393 . S
C602 H594 0.950 . S
C602 C600 1.391 . S
C602 C603 1.400 . S
C603 C602 1.400 . S
C603 C604 1.398 . S
C603 C609 1.491 . S
C604 H595 0.950 . S
C604 C603 1.398 . S
C604 C605 1.391 . S
C605 H593 0.950 . S
C605 C601 1.393 . S
C605 C604 1.391 . S
C606 H596 0.950 1_545 S
C606 C607 1.386 . S
C606 C608 1.391 . S
C607 C606 1.386 . S
C607 C611 1.393 . S
C608 H597 0.950 . S
C608 C606 1.391 . S
C608 C609 1.400 . S
C609 C603 1.491 . S
C609 C608 1.400 . S
C609 C610 1.398 . S
C610 H598 0.950 . S
C610 C609 1.398 . S
C610 C611 1.391 . S
C611 H599 0.950 . S
C611 C607 1.393 . S
C611 C610 1.391 . S
H612 C620 0.950 . S
H613 C625 0.950 . S
H614 C622 0.950 . S
H615 C624 0.950 . S
H616 C626 0.950 . S
H617 C628 0.950 . S
H618 C630 0.950 . S
H619 C631 0.950 . S
C620 H612 0.950 . S
C620 C621 1.386 . S
C620 C622 1.391 . S
C621 C620 1.386 . S
C621 C625 1.393 . S
C622 H614 0.950 . S
C622 C620 1.391 . S
C622 C623 1.400 . S
C623 C622 1.400 . S
C623 C624 1.398 . S
C623 C629 1.491 . S
C624 H615 0.950 . S
C624 C623 1.398 . S
C624 C625 1.391 . S
C625 H613 0.950 . S
C625 C621 1.393 . S
C625 C624 1.391 . S
C626 H616 0.950 . S
C626 C627 1.386 . S
C626 C628 1.391 . S
C627 C626 1.386 . S
C627 C631 1.393 . S
C628 H617 0.950 . S
C628 C626 1.391 . S
C628 C629 1.400 . S
C629 C623 1.491 . S
C629 C628 1.400 . S
C629 C630 1.398 . S
C630 H618 0.950 . S
C630 C629 1.398 . S
C630 C631 1.391 . S
C631 H619 0.950 . S
C631 C627 1.393 . S
C631 C630 1.391 . S
H632 C640 0.950 . S
H633 C645 0.950 . S
H634 C642 0.950 . S
H635 C644 0.950 . S
H636 C646 0.950 . S
H637 C648 0.950 . S
H638 C650 0.950 . S
H639 C651 0.950 . S
C640 H632 0.950 . S
C640 C641 1.386 . S
C640 C642 1.391 . S
C641 C640 1.386 . S
C641 C645 1.393 . S
C642 H634 0.950 . S
C642 C640 1.391 . S
C642 C643 1.400 . S
C643 C642 1.400 . S
C643 C644 1.398 . S
C643 C649 1.491 . S
C644 H635 0.950 . S
C644 C643 1.398 . S
C644 C645 1.391 . S
C645 H633 0.950 . S
C645 C641 1.393 . S
C645 C644 1.391 . S
C646 H636 0.950 . S
C646 C647 1.386 . S
C646 C648 1.391 . S
C647 C646 1.386 . S
C647 C651 1.393 . S
C648 H637 0.950 . S
C648 C646 1.391 . S
C648 C649 1.400 . S
C649 C643 1.491 . S
C649 C648 1.400 . S
C649 C650 1.398 . S
C650 H638 0.950 . S
C650 C649 1.398 . S
C650 C651 1.391 . S
C651 H639 0.950 . S
C651 C647 1.393 . S
C651 C650 1.391 . S
H652 C660 0.950 . S
H653 C665 0.950 . S
H654 C662 0.950 . S
H655 C664 0.950 . S
H656 C666 0.950 . S
H657 C668 0.950 . S
H658 C670 0.950 . S
H659 C671 0.950 . S
C660 H652 0.950 . S
C660 C661 1.386 . S
C660 C662 1.391 . S
C661 C660 1.386 . S
C661 C665 1.393 . S
C662 H654 0.950 . S
C662 C660 1.391 . S
C662 C663 1.400 . S
C663 C662 1.400 . S
C663 C664 1.398 . S
C663 C669 1.491 . S
C664 H655 0.950 . S
C664 C663 1.398 . S
C664 C665 1.391 . S
C665 H653 0.950 . S
C665 C661 1.393 . S
C665 C664 1.391 . S
C666 H656 0.950 . S
C666 C667 1.386 1_655 S
C666 C668 1.391 1_655 S
C667 C666 1.386 1_455 S
C667 C671 1.393 . S
C668 H657 0.950 . S
C668 C666 1.391 1_455 S
C668 C669 1.400 . S
C669 C663 1.491 . S
C669 C668 1.400 . S
C669 C670 1.398 . S
C670 H658 0.950 . S
C670 C669 1.398 . S
C670 C671 1.391 . S
C671 H659 0.950 . S
C671 C667 1.393 . S
C671 C670 1.391 . S
H672 C680 0.950 . S
H673 C685 0.950 . S
H674 C682 0.950 . S
H675 C684 0.950 . S
H676 C686 0.950 . S
H677 C688 0.950 . S
H678 C690 0.950 . S
H679 C691 0.950 . S
C680 H672 0.950 . S
C680 C681 1.386 . S
C680 C682 1.391 . S
C681 C680 1.386 . S
C681 C685 1.393 . S
C682 H674 0.950 . S
C682 C680 1.391 . S
C682 C683 1.400 . S
C683 C682 1.400 . S
C683 C684 1.398 . S
C683 C689 1.491 . S
C684 H675 0.950 . S
C684 C683 1.398 . S
C684 C685 1.391 . S
C685 H673 0.950 . S
C685 C681 1.393 . S
C685 C684 1.391 . S
C686 H676 0.950 . S
C686 C687 1.386 . S
C686 C688 1.391 . S
C687 C686 1.386 . S
C687 C691 1.393 . S
C688 H677 0.950 . S
C688 C686 1.391 . S
C688 C689 1.400 . S
C689 C683 1.491 . S
C689 C688 1.400 . S
C689 C690 1.398 . S
C690 H678 0.950 . S
C690 C689 1.398 . S
C690 C691 1.391 . S
C691 H679 0.950 . S
C691 C687 1.393 . S
C691 C690 1.391 . S
H692 C700 0.950 . S
H693 C705 0.950 . S
H694 C702 0.950 . S
H695 C704 0.950 . S
H696 C706 0.950 . S
H697 C708 0.950 . S
H698 C710 0.950 . S
H699 C711 0.950 . S
C700 H692 0.950 . S
C700 C701 1.386 . S
C700 C702 1.391 . S
C701 C700 1.386 . S
C701 C705 1.393 . S
C702 H694 0.950 . S
C702 C700 1.391 . S
C702 C703 1.400 . S
C703 C702 1.400 . S
C703 C704 1.398 . S
C703 C709 1.491 . S
C704 H695 0.950 . S
C704 C703 1.398 . S
C704 C705 1.391 . S
C705 H693 0.950 . S
C705 C701 1.393 . S
C705 C704 1.391 . S
C706 H696 0.950 . S
C706 C707 1.386 . S
C706 C708 1.391 . S
C707 C706 1.386 . S
C707 C711 1.393 . S
C708 H697 0.950 . S
C708 C706 1.391 . S
C708 C709 1.400 . S
C709 C703 1.491 . S
C709 C708 1.400 . S
C709 C710 1.398 . S
C710 H698 0.950 . S
C710 C709 1.398 . S
C710 C711 1.391 . S
C711 H699 0.950 . S
C711 C707 1.393 . S
C711 C710 1.391 . S
H712 C720 0.950 . S
H713 C725 0.950 . S
H714 C722 0.950 . S
H715 C724 0.950 . S
H716 C726 0.950 . S
H717 C728 0.950 . S
H718 C730 0.950 . S
H719 C731 0.950 . S
C720 H712 0.950 . S
C720 C721 1.386 . S
C720 C722 1.391 . S
C721 C720 1.386 . S
C721 C725 1.393 . S
C722 H714 0.950 . S
C722 C720 1.391 . S
C722 C723 1.400 . S
C723 C722 1.400 . S
C723 C724 1.398 . S
C723 C729 1.491 . S
C724 H715 0.950 . S
C724 C723 1.398 . S
C724 C725 1.391 . S
C725 H713 0.950 . S
C725 C721 1.393 . S
C725 C724 1.391 . S
C726 H716 0.950 . S
C726 C727 1.386 . S
C726 C728 1.391 . S
C727 C726 1.386 . S
C727 C731 1.393 . S
C728 H717 0.950 . S
C728 C726 1.391 . S
C728 C729 1.400 . S
C729 C723 1.491 . S
C729 C728 1.400 . S
C729 C730 1.398 . S
C730 H718 0.950 . S
C730 C729 1.398 . S
C730 C731 1.391 . S
C731 H719 0.950 . S
C731 C727 1.393 . S
C731 C730 1.391 . S
H732 C740 0.950 . S
H733 C745 0.950 . S
H734 C742 0.950 . S
H735 C744 0.950 . S
H736 C746 0.950 . S
H737 C748 0.950 . S
H738 C750 0.950 . S
H739 C751 0.950 . S
C740 H732 0.950 . S
C740 C741 1.386 . S
C740 C742 1.391 . S
C741 C740 1.386 . S
C741 C745 1.393 . S
C742 H734 0.950 . S
C742 C740 1.391 . S
C742 C743 1.400 . S
C743 C742 1.400 . S
C743 C744 1.398 . S
C743 C749 1.491 . S
C744 H735 0.950 . S
C744 C743 1.398 . S
C744 C745 1.391 . S
C745 H733 0.950 . S
C745 C741 1.393 . S
C745 C744 1.391 . S
C746 H736 0.950 . S
C746 C747 1.386 . S
C746 C748 1.391 . S
C747 C746 1.386 . S
C747 C751 1.393 . S
C748 H737 0.950 . S
C748 C746 1.391 . S
C748 C749 1.400 . S
C749 C743 1.491 . S
C749 C748 1.400 . S
C749 C750 1.398 . S
C750 H738 0.950 . S
C750 C749 1.398 . S
C750 C751 1.391 . S
C751 H739 0.950 . S
C751 C747 1.393 . S
C751 C750 1.391 . S
H752 C760 0.950 . S
H753 C765 0.950 . S
H754 C762 0.950 . S
H755 C764 0.950 . S
H756 C766 0.950 . S
H757 C768 0.950 . S
H758 C770 0.950 . S
H759 C771 0.950 . S
C760 H752 0.950 . S
C760 C761 1.386 . S
C760 C762 1.391 . S
C761 C760 1.386 . S
C761 C765 1.393 . S
C762 H754 0.950 . S
C762 C760 1.391 . S
C762 C763 1.400 . S
C763 C762 1.400 . S
C763 C764 1.398 . S
C763 C769 1.491 . S
C764 H755 0.950 . S
C764 C763 1.398 . S
C764 C765 1.391 . S
C765 H753 0.950 . S
C765 C761 1.393 . S
C765 C764 1.391 . S
C766 H756 0.950 . S
C766 C767 1.386 . S
C766 C768 1.391 . S
C767 C766 1.386 . S
C767 C771 1.393 . S
C768 H757 0.950 . S
C768 C766 1.391 . S
C768 C769 1.400 . S
C769 C763 1.491 . S
C769 C768 1.400 . S
C769 C770 1.398 . S
C770 H758 0.950 . S
C770 C769 1.398 . S
C770 C771 1.391 . S
C771 H759 0.950 . S
C771 C767 1.393 . S
C771 C770 1.391 . S
H772 C780 0.950 . S
H773 C785 0.950 . S
H774 C782 0.950 . S
H775 C784 0.950 . S
H776 C786 0.950 . S
H777 C788 0.950 . S
H778 C790 0.950 . S
H779 C791 0.950 . S
C780 H772 0.950 . S
C780 C781 1.386 . S
C780 C782 1.391 . S
C781 C780 1.386 . S
C781 C785 1.393 . S
C782 H774 0.950 . S
C782 C780 1.391 . S
C782 C783 1.400 . S
C783 C782 1.400 . S
C783 C784 1.398 . S
C783 C789 1.491 . S
C784 H775 0.950 . S
C784 C783 1.398 . S
C784 C785 1.391 . S
C785 H773 0.950 . S
C785 C781 1.393 . S
C785 C784 1.391 . S
C786 H776 0.950 . S
C786 C787 1.386 . S
C786 C788 1.391 . S
C787 C786 1.386 . S
C787 C791 1.393 . S
C788 H777 0.950 . S
C788 C786 1.391 . S
C788 C789 1.400 . S
C789 C783 1.491 . S
C789 C788 1.400 . S
C789 C790 1.398 . S
C790 H778 0.950 . S
C790 C789 1.398 . S
C790 C791 1.391 . S
C791 H779 0.950 . S
C791 C787 1.393 . S
C791 C790 1.391 . S
H792 C800 0.950 . S
H793 C805 0.950 . S
H794 C802 0.950 . S
H795 C804 0.950 . S
H796 C806 0.950 . S
H797 C808 0.950 . S
H798 C810 0.950 . S
H799 C811 0.950 . S
C800 H792 0.950 . S
C800 C801 1.386 . S
C800 C802 1.391 . S
C801 C800 1.386 . S
C801 C805 1.393 . S
C802 H794 0.950 . S
C802 C800 1.391 . S
C802 C803 1.400 . S
C803 C802 1.400 . S
C803 C804 1.398 . S
C803 C809 1.491 . S
C804 H795 0.950 . S
C804 C803 1.398 . S
C804 C805 1.391 . S
C805 H793 0.950 . S
C805 C801 1.393 . S
C805 C804 1.391 . S
C806 H796 0.950 . S
C806 C807 1.386 . S
C806 C808 1.391 . S
C807 C806 1.386 . S
C807 C811 1.393 . S
C808 H797 0.950 . S
C808 C806 1.391 . S
C808 C809 1.400 . S
C809 C803 1.491 . S
C809 C808 1.400 . S
C809 C810 1.398 . S
C810 H798 0.950 . S
C810 C809 1.398 . S
C810 C811 1.391 . S
C811 H799 0.950 . S
C811 C807 1.393 . S
C811 C810 1.391 . S
H812 C820 0.950 . S
H813 C825 0.950 . S
H814 C822 0.950 . S
H815 C824 0.950 . S
H816 C826 0.950 . S
H817 C828 0.950 . S
H818 C830 0.950 . S
H819 C831 0.950 . S
C820 H812 0.950 . S
C820 C821 1.386 . S
C820 C822 1.391 . S
C821 C820 1.386 . S
C821 C825 1.393 . S
C822 H814 0.950 . S
C822 C820 1.391 . S
C822 C823 1.400 . S
C823 C822 1.400 . S
C823 C824 1.398 . S
C823 C829 1.491 . S
C824 H815 0.950 . S
C824 C823 1.398 . S
C824 C825 1.391 . S
C825 H813 0.950 . S
C825 C821 1.393 . S
C825 C824 1.391 . S
C826 H816 0.950 . S
C826 C827 1.386 . S
C826 C828 1.391 . S
C827 C826 1.386 . S
C827 C831 1.393 . S
C828 H817 0.950 . S
C828 C826 1.391 . S
C828 C829 1.400 . S
C829 C823 1.491 . S
C829 C828 1.400 . S
C829 C830 1.398 . S
C830 H818 0.950 . S
C830 C829 1.398 . S
C830 C831 1.391 . S
C831 H819 0.950 . S
C831 C827 1.393 . S
C831 C830 1.391 . S
H832 C840 0.950 . S
H833 C845 0.950 . S
H834 C842 0.950 . S
H835 C844 0.950 . S
H836 C846 0.950 . S
H837 C848 0.950 . S
H838 C850 0.950 . S
H839 C851 0.950 . S
C840 H832 0.950 . S
C840 C841 1.386 . S
C840 C842 1.391 . S
C841 C840 1.386 . S
C841 C845 1.393 . S
C842 H834 0.950 . S
C842 C840 1.391 . S
C842 C843 1.400 . S
C843 C842 1.400 . S
C843 C844 1.398 . S
C843 C849 1.491 . S
C844 H835 0.950 . S
C844 C843 1.398 . S
C844 C845 1.391 . S
C845 H833 0.950 . S
C845 C841 1.393 . S
C845 C844 1.391 . S
C846 H836 0.950 . S
C846 C847 1.386 . S
C846 C848 1.391 . S
C847 C846 1.386 . S
C847 C851 1.393 . S
C848 H837 0.950 . S
C848 C846 1.391 . S
C848 C849 1.400 . S
C849 C843 1.491 . S
C849 C848 1.400 . S
C849 C850 1.398 . S
C850 H838 0.950 . S
C850 C849 1.398 . S
C850 C851 1.391 . S
C851 H839 0.950 . S
C851 C847 1.393 . S
C851 C850 1.391 . S
H852 C860 0.950 . S
H853 C865 0.950 . S
H854 C862 0.950 . S
H855 C864 0.950 . S
H856 C866 0.950 . S
H857 C868 0.950 . S
H858 C870 0.950 . S
H859 C871 0.950 . S
C860 H852 0.950 . S
C860 C861 1.386 . S
C860 C862 1.391 . S
C861 C860 1.386 . S
C861 C865 1.393 . S
C862 H854 0.950 . S
C862 C860 1.391 . S
C862 C863 1.400 . S
C863 C862 1.400 . S
C863 C864 1.398 . S
C863 C869 1.491 . S
C864 H855 0.950 . S
C864 C863 1.398 . S
C864 C865 1.391 . S
C865 H853 0.950 . S
C865 C861 1.393 . S
C865 C864 1.391 . S
C866 H856 0.950 . S
C866 C867 1.386 . S
C866 C868 1.391 . S
C867 C866 1.386 . S
C867 C871 1.393 . S
C868 H857 0.950 . S
C868 C866 1.391 . S
C868 C869 1.400 . S
C869 C863 1.491 . S
C869 C868 1.400 . S
C869 C870 1.398 . S
C870 H858 0.950 . S
C870 C869 1.398 . S
C870 C871 1.391 . S
C871 H859 0.950 . S
C871 C867 1.393 . S
C871 C870 1.391 . S
H872 C880 0.950 . S
H873 C885 0.950 . S
H874 C882 0.950 . S
H875 C884 0.950 . S
H876 C886 0.950 . S
H877 C888 0.950 . S
H878 C890 0.950 . S
H879 C891 0.950 . S
C880 H872 0.950 . S
C880 C881 1.386 . S
C880 C882 1.391 . S
C881 C880 1.386 . S
C881 C885 1.393 . S
C882 H874 0.950 . S
C882 C880 1.391 . S
C882 C883 1.400 . S
C883 C882 1.400 . S
C883 C884 1.398 . S
C883 C889 1.491 . S
C884 H875 0.950 . S
C884 C883 1.398 . S
C884 C885 1.391 . S
C885 H873 0.950 . S
C885 C881 1.393 . S
C885 C884 1.391 . S
C886 H876 0.950 . S
C886 C887 1.386 . S
C886 C888 1.391 . S
C887 C886 1.386 . S
C887 C891 1.393 . S
C888 H877 0.950 . S
C888 C886 1.391 . S
C888 C889 1.400 . S
C889 C883 1.491 . S
C889 C888 1.400 . S
C889 C890 1.398 . S
C890 H878 0.950 . S
C890 C889 1.398 . S
C890 C891 1.391 . S
C891 H879 0.950 . S
C891 C887 1.393 . S
C891 C890 1.391 . S
H892 C900 0.950 . S
H893 C905 0.950 . S
H894 C902 0.950 . S
H895 C904 0.950 . S
H896 C906 0.950 . S
H897 C908 0.950 . S
H898 C910 0.950 . S
H899 C911 0.950 . S
C900 H892 0.950 . S
C900 C901 1.386 . S
C900 C902 1.391 . S
C901 C900 1.386 . S
C901 C905 1.393 . S
C902 H894 0.950 . S
C902 C900 1.391 . S
C902 C903 1.400 . S
C903 C902 1.400 . S
C903 C904 1.398 . S
C903 C909 1.491 . S
C904 H895 0.950 . S
C904 C903 1.398 . S
C904 C905 1.391 . S
C905 H893 0.950 . S
C905 C901 1.393 . S
C905 C904 1.391 . S
C906 H896 0.950 . S
C906 C907 1.386 . S
C906 C908 1.391 . S
C907 C906 1.386 . S
C907 C911 1.393 . S
C908 H897 0.950 . S
C908 C906 1.391 . S
C908 C909 1.400 . S
C909 C903 1.491 . S
C909 C908 1.400 . S
C909 C910 1.398 . S
C910 H898 0.950 . S
C910 C909 1.398 . S
C910 C911 1.391 . S
C911 H899 0.950 . S
C911 C907 1.393 . S
C911 C910 1.391 . S
H912 C920 0.950 . S
H913 C925 0.950 . S
H914 C922 0.950 . S
H915 C924 0.950 . S
H916 C926 0.950 . S
H917 C928 0.950 . S
H918 C930 0.950 . S
H919 C931 0.950 . S
C920 H912 0.950 . S
C920 C921 1.386 . S
C920 C922 1.391 . S
C921 C920 1.386 . S
C921 C925 1.393 . S
C922 H914 0.950 . S
C922 C920 1.391 . S
C922 C923 1.400 . S
C923 C922 1.400 . S
C923 C924 1.398 . S
C923 C929 1.491 . S
C924 H915 0.950 . S
C924 C923 1.398 . S
C924 C925 1.391 . S
C925 H913 0.950 . S
C925 C921 1.393 . S
C925 C924 1.391 . S
C926 H916 0.950 . S
C926 C927 1.386 . S
C926 C928 1.391 . S
C927 C926 1.386 . S
C927 C931 1.393 . S
C928 H917 0.950 . S
C928 C926 1.391 . S
C928 C929 1.400 . S
C929 C923 1.491 . S
C929 C928 1.400 . S
C929 C930 1.398 . S
C930 H918 0.950 . S
C930 C929 1.398 . S
C930 C931 1.391 . S
C931 H919 0.950 . S
C931 C927 1.393 . S
C931 C930 1.391 . S
H932 C940 0.950 . S
H933 C945 0.950 . S
H934 C942 0.950 . S
H935 C944 0.950 . S
H936 C946 0.950 . S
H937 C948 0.950 . S
H938 C950 0.950 . S
H939 C951 0.950 . S
C940 H932 0.950 . S
C940 C941 1.386 . S
C940 C942 1.391 . S
C941 C940 1.386 . S
C941 C945 1.393 . S
C942 H934 0.950 . S
C942 C940 1.391 . S
C942 C943 1.400 . S
C943 C942 1.400 . S
C943 C944 1.398 . S
C943 C949 1.491 . S
C944 H935 0.950 . S
C944 C943 1.398 . S
C944 C945 1.391 . S
C945 H933 0.950 . S
C945 C941 1.393 . S
C945 C944 1.391 . S
C946 H936 0.950 . S
C946 C947 1.386 . S
C946 C948 1.391 . S
C947 C946 1.386 . S
C947 C951 1.393 . S
C948 H937 0.950 . S
C948 C946 1.391 . S
C948 C949 1.400 . S
C949 C943 1.491 . S
C949 C948 1.400 . S
C949 C950 1.398 . S
C950 H938 0.950 . S
C950 C949 1.398 . S
C950 C951 1.391 . S
C951 H939 0.950 . S
C951 C947 1.393 . S
C951 C950 1.391 . S
H952 C960 0.950 . S
H953 C965 0.950 . S
H954 C962 0.950 . S
H955 C964 0.950 . S
H956 C966 0.950 . S
H957 C968 0.950 . S
H958 C970 0.950 . S
H959 C971 0.950 . S
C960 H952 0.950 . S
C960 C961 1.386 . S
C960 C962 1.391 . S
C961 C960 1.386 . S
C961 C965 1.393 . S
C962 H954 0.950 . S
C962 C960 1.391 . S
C962 C963 1.400 . S
C963 C962 1.400 . S
C963 C964 1.398 . S
C963 C969 1.491 . S
C964 H955 0.950 . S
C964 C963 1.398 . S
C964 C965 1.391 . S
C965 H953 0.950 . S
C965 C961 1.393 . S
C965 C964 1.391 . S
C966 H956 0.950 . S
C966 C967 1.386 . S
C966 C968 1.391 . S
C967 C966 1.386 . S
C967 C971 1.393 . S
C968 H957 0.950 . S
C968 C966 1.391 . S
C968 C969 1.400 . S
C969 C963 1.491 . S
C969 C968 1.400 . S
C969 C970 1.398 . S
C970 H958 0.950 . S
C970 C969 1.398 . S
C970 C971 1.391 . S
C971 H959 0.950 . S
C971 C967 1.393 . S
C971 C970 1.391 . S
H972 C980 0.950 . S
H973 C985 0.950 . S
H974 C982 0.950 . S
H975 C984 0.950 . S
H976 C986 0.950 . S
H977 C988 0.950 . S
H978 C990 0.950 . S
H979 C991 0.950 . S
C980 H972 0.950 . S
C980 C981 1.386 . S
C980 C982 1.391 . S
C981 C980 1.386 . S
C981 C985 1.393 . S
C982 H974 0.950 . S
C982 C980 1.391 . S
C982 C983 1.400 . S
C983 C982 1.400 . S
C983 C984 1.398 . S
C983 C989 1.491 . S
C984 H975 0.950 . S
C984 C983 1.398 . S
C984 C985 1.391 . S
C985 H973 0.950 . S
C985 C981 1.393 . S
C985 C984 1.391 . S
C986 H976 0.950 . S
C986 C987 1.386 . S
C986 C988 1.391 . S
C987 C986 1.386 . S
C987 C991 1.393 . S
C988 H977 0.950 . S
C988 C986 1.391 . S
C988 C989 1.400 . S
C989 C983 1.491 . S
C989 C988 1.400 . S
C989 C990 1.398 . S
C990 H978 0.950 . S
C990 C989 1.398 . S
C990 C991 1.391 . S
C991 H979 0.950 . S
C991 C987 1.393 . S
C991 C990 1.391 . S
H992 C1000 0.950 . S
H993 C1005 0.950 . S
H994 C1002 0.950 1_554 S
H995 C1004 0.950 . S
H996 C1006 0.950 . S
H997 C1008 0.950 1_556 S
H998 C1010 0.950 . S
H999 C1011 0.950 . S
C1000 H992 0.950 . S
C1000 C1001 1.386 . S
C1000 C1002 1.391 . S
C1001 C1000 1.386 . S
C1001 C1005 1.393 . S
C1002 H994 0.950 1_556 S
C1002 C1000 1.391 . S
C1002 C1003 1.400 . S
C1003 C1002 1.400 . S
C1003 C1004 1.398 . S
C1003 C1009 1.491 1_656 S
C1004 H995 0.950 . S
C1004 C1003 1.398 . S
C1004 C1005 1.391 . S
C1005 H993 0.950 . S
C1005 C1001 1.393 . S
C1005 C1004 1.391 . S
C1006 H996 0.950 . S
C1006 C1007 1.386 . S
C1006 C1008 1.391 . S
C1007 C1006 1.386 . S
C1007 C1011 1.393 . S
C1008 H997 0.950 1_554 S
C1008 C1006 1.391 . S
C1008 C1009 1.400 . S
C1009 C1003 1.491 1_454 S
C1009 C1008 1.400 . S
C1009 C1010 1.398 . S
C1010 H998 0.950 . S
C1010 C1009 1.398 . S
C1010 C1011 1.391 . S
C1011 H999 0.950 . S
C1011 C1007 1.393 . S
C1011 C1010 1.391 . S
H1012 C1020 0.950 . S
H1013 C1025 0.950 . S
H1014 C1022 0.950 1_554 S
H1015 C1024 0.950 1_645 S
H1016 C1026 0.950 . S
H1017 C1028 0.950 1_556 S
H1018 C1030 0.950 1_465 S
H1019 C1031 0.950 . S
C1020 H1012 0.950 . S
C1020 C1021 1.386 . S
C1020 C1022 1.391 . S
C1021 C1020 1.386 . S
C1021 C1025 1.393 . S
C1022 H1014 0.950 1_556 S
C1022 C1020 1.391 . S
C1022 C1023 1.400 . S
C1023 C1022 1.400 . S
C1023 C1024 1.398 . S
C1023 C1029 1.491 1_466 S
C1024 H1015 0.950 1_465 S
C1024 C1023 1.398 . S
C1024 C1025 1.391 . S
C1025 H1013 0.950 . S
C1025 C1021 1.393 . S
C1025 C1024 1.391 . S
C1026 H1016 0.950 . S
C1026 C1027 1.386 . S
C1026 C1028 1.391 . S
C1027 C1026 1.386 . S
C1027 C1031 1.393 . S
C1028 H1017 0.950 1_554 S
C1028 C1026 1.391 . S
C1028 C1029 1.400 . S
C1029 C1023 1.491 1_644 S
C1029 C1028 1.400 . S
C1029 C1030 1.398 . S
C1030 H1018 0.950 1_645 S
C1030 C1029 1.398 . S
C1030 C1031 1.391 . S
C1031 H1019 0.950 . S
C1031 C1027 1.393 . S
C1031 C1030 1.391 . S
H1032 C1040 0.950 . S
H1033 C1045 0.950 . S
H1034 C1042 0.966 . S
H1035 C1044 0.950 1_554 S
H1036 C1046 0.950 . S
H1037 C1048 0.966 . S
H1038 C1050 0.950 1_556 S
H1039 C1051 0.950 . S
C1040 H1032 0.950 . S
C1040 C1041 1.386 . S
C1040 C1042 1.381 1_545 S
C1041 C1040 1.386 . S
C1041 C1045 1.393 . S
C1042 H1034 0.966 . S
C1042 C1040 1.381 1_565 S
C1042 C1043 1.395 1_565 S
C1043 C1042 1.395 1_545 S
C1043 C1044 1.398 . S
C1043 C1049 1.491 1_546 S
C1044 H1035 0.950 1_556 S
C1044 C1043 1.398 . S
C1044 C1045 1.391 . S
C1045 H1033 0.950 . S
C1045 C1041 1.393 . S
C1045 C1044 1.391 . S
C1046 H1036 0.950 . S
C1046 C1047 1.386 . S
C1046 C1048 1.381 1_565 S
C1047 C1046 1.386 . S
C1047 C1051 1.393 . S
C1048 H1037 0.966 . S
C1048 C1046 1.381 1_545 S
C1048 C1049 1.395 1_545 S
C1049 C1043 1.491 1_564 S
C1049 C1048 1.395 1_565 S
C1049 C1050 1.398 . S
C1050 H1038 0.950 1_554 S
C1050 C1049 1.398 . S
C1050 C1051 1.391 . S
C1051 H1039 0.950 . S
C1051 C1047 1.393 . S
C1051 C1050 1.391 . S
H1052 C1060 0.950 . S
H1053 C1065 0.950 . S
H1054 C1062 0.950 . S
H1055 C1064 0.950 1_556 S
H1056 C1066 0.950 . S
H1057 C1068 0.950 . S
H1058 C1070 0.950 1_554 S
H1059 C1071 0.950 . S
C1060 H1052 0.950 . S
C1060 C1061 1.386 . S
C1060 C1062 1.391 . S
C1061 C1060 1.386 . S
C1061 C1065 1.393 . S
C1062 H1054 0.950 . S
C1062 C1060 1.391 . S
C1062 C1063 1.400 . S
C1063 C1062 1.400 . S
C1063 C1064 1.398 . S
C1063 C1069 1.491 1_554 S
C1064 H1055 0.950 1_554 S
C1064 C1063 1.398 . S
C1064 C1065 1.391 . S
C1065 H1053 0.950 . S
C1065 C1061 1.393 . S
C1065 C1064 1.391 . S
C1066 H1056 0.950 . S
C1066 C1067 1.386 . S
C1066 C1068 1.391 . S
C1067 C1066 1.386 . S
C1067 C1071 1.393 . S
C1068 H1057 0.950 . S
C1068 C1066 1.391 . S
C1068 C1069 1.400 . S
C1069 C1063 1.491 1_556 S
C1069 C1068 1.400 . S
C1069 C1070 1.398 . S
C1070 H1058 0.950 1_556 S
C1070 C1069 1.398 . S
C1070 C1071 1.391 . S
C1071 H1059 0.950 . S
C1071 C1067 1.393 . S
C1071 C1070 1.391 . S
H1072 C1080 0.950 . S
H1073 C1085 0.950 . S
H1074 C1082 0.953 1_455 S
H1075 C1084 0.950 . S
H1076 C1086 0.950 . S
H1077 C1088 0.953 1_655 S
H1078 C1090 0.950 . S
H1079 C1091 0.950 . S
C1080 H1072 0.950 . S
C1080 C1081 1.386 . S
C1080 C1082 1.389 . S
C1081 C1080 1.386 . S
C1081 C1085 1.393 . S
C1082 H1074 0.953 1_655 S
C1082 C1080 1.389 . S
C1082 C1083 1.399 . S
C1083 C1082 1.399 . S
C1083 C1084 1.398 1_545 S
C1083 C1089 1.491 1_645 S
C1084 H1075 0.950 . S
C1084 C1083 1.398 1_565 S
C1084 C1085 1.391 1_565 S
C1085 H1073 0.950 . S
C1085 C1081 1.393 . S
C1085 C1084 1.391 1_545 S
C1086 H1076 0.950 . S
C1086 C1087 1.386 . S
C1086 C1088 1.389 . S
C1087 C1086 1.386 . S
C1087 C1091 1.393 . S
C1088 H1077 0.953 1_455 S
C1088 C1086 1.389 . S
C1088 C1089 1.399 . S
C1089 C1083 1.491 1_465 S
C1089 C1088 1.399 . S
C1089 C1090 1.398 1_565 S
C1090 H1078 0.950 . S
C1090 C1089 1.398 1_545 S
C1090 C1091 1.391 1_545 S
C1091 H1079 0.950 . S
C1091 C1087 1.393 . S
C1091 C1090 1.391 1_565 S
H1092 C1100 0.950 . S
H1093 C1105 0.950 . S
H1094 C1102 0.950 . S
H1095 C1104 0.950 . S
H1096 C1106 0.950 . S
H1097 C1108 0.950 . S
H1098 C1110 0.950 . S
H1099 C1111 0.950 . S
C1100 H1092 0.950 . S
C1100 C1101 1.386 . S
C1100 C1102 1.391 . S
C1101 C1100 1.386 . S
C1101 C1105 1.393 . S
C1102 H1094 0.950 . S
C1102 C1100 1.391 . S
C1102 C1103 1.400 . S
C1103 C1102 1.400 . S
C1103 C1104 1.398 . S
C1103 C1109 1.491 1_565 S
C1104 H1095 0.950 . S
C1104 C1103 1.398 . S
C1104 C1105 1.391 . S
C1105 H1093 0.950 . S
C1105 C1101 1.393 . S
C1105 C1104 1.391 . S
C1106 H1096 0.950 . S
C1106 C1107 1.386 . S
C1106 C1108 1.391 . S
C1107 C1106 1.386 . S
C1107 C1111 1.393 . S
C1108 H1097 0.950 . S
C1108 C1106 1.391 . S
C1108 C1109 1.400 . S
C1109 C1103 1.491 1_545 S
C1109 C1108 1.400 . S
C1109 C1110 1.398 . S
C1110 H1098 0.950 . S
C1110 C1109 1.398 . S
C1110 C1111 1.391 . S
C1111 H1099 0.950 . S
C1111 C1107 1.393 . S
C1111 C1110 1.391 . S
H1112 C1120 0.950 . S
H1113 C1125 0.950 . S
H1114 C1122 0.950 . S
H1115 C1124 0.950 . S
H1116 C1126 0.950 . S
H1117 C1128 0.950 . S
H1118 C1130 0.950 . S
H1119 C1131 0.950 . S
C1120 H1112 0.950 . S
C1120 C1121 1.386 . S
C1120 C1122 1.391 . S
C1121 C1120 1.386 . S
C1121 C1125 1.393 . S
C1122 H1114 0.950 . S
C1122 C1120 1.391 . S
C1122 C1123 1.400 . S
C1123 C1122 1.400 . S
C1123 C1124 1.398 . S
C1123 C1129 1.491 . S
C1124 H1115 0.950 . S
C1124 C1123 1.398 . S
C1124 C1125 1.391 . S
C1125 H1113 0.950 . S
C1125 C1121 1.393 . S
C1125 C1124 1.391 . S
C1126 H1116 0.950 . S
C1126 C1127 1.386 . S
C1126 C1128 1.391 . S
C1127 C1126 1.386 . S
C1127 C1131 1.393 . S
C1128 H1117 0.950 . S
C1128 C1126 1.391 . S
C1128 C1129 1.400 . S
C1129 C1123 1.491 . S
C1129 C1128 1.400 . S
C1129 C1130 1.398 . S
C1130 H1118 0.950 . S
C1130 C1129 1.398 . S
C1130 C1131 1.391 . S
C1131 H1119 0.950 . S
C1131 C1127 1.393 . S
C1131 C1130 1.391 . S
H1132 C1140 0.950 . S
H1133 C1145 0.950 . S
H1134 C1142 0.950 . S
H1135 C1144 0.950 . S
H1136 C1146 0.950 . S
H1137 C1148 0.950 . S
H1138 C1150 0.950 . S
H1139 C1151 0.950 . S
C1140 H1132 0.950 . S
C1140 C1141 1.386 . S
C1140 C1142 1.391 1_455 S
C1141 C1140 1.386 . S
C1141 C1145 1.393 . S
C1142 H1134 0.950 . S
C1142 C1140 1.391 1_655 S
C1142 C1143 1.400 1_655 S
C1143 C1142 1.400 1_455 S
C1143 C1144 1.398 . S
C1143 C1149 1.491 1_455 S
C1144 H1135 0.950 . S
C1144 C1143 1.398 . S
C1144 C1145 1.391 . S
C1145 H1133 0.950 . S
C1145 C1141 1.393 . S
C1145 C1144 1.391 . S
C1146 H1136 0.950 . S
C1146 C1147 1.386 . S
C1146 C1148 1.391 1_655 S
C1147 C1146 1.386 . S
C1147 C1151 1.393 . S
C1148 H1137 0.950 . S
C1148 C1146 1.391 1_455 S
C1148 C1149 1.400 1_455 S
C1149 C1143 1.491 1_655 S
C1149 C1148 1.400 1_655 S
C1149 C1150 1.398 . S
C1150 H1138 0.950 . S
C1150 C1149 1.398 . S
C1150 C1151 1.391 . S
C1151 H1139 0.950 . S
C1151 C1147 1.393 . S
C1151 C1150 1.391 . S
H1152 C1160 0.950 . S
H1153 C1165 0.950 . S
H1154 C1162 0.950 1_455 S
H1155 C1164 0.950 . S
H1156 C1166 0.950 . S
H1157 C1168 0.950 . S
H1158 C1170 0.950 . S
H1159 C1171 0.950 . S
C1160 H1152 0.950 . S
C1160 C1161 1.386 . S
C1160 C1162 1.391 . S
C1161 C1160 1.386 . S
C1161 C1165 1.393 . S
C1162 H1154 0.950 1_655 S
C1162 C1160 1.391 . S
C1162 C1163 1.400 . S
C1163 C1162 1.400 . S
C1163 C1164 1.398 . S
C1163 C1169 1.491 . S
C1164 H1155 0.950 . S
C1164 C1163 1.398 . S
C1164 C1165 1.391 . S
C1165 H1153 0.950 . S
C1165 C1161 1.393 . S
C1165 C1164 1.391 . S
C1166 H1156 0.950 . S
C1166 C1167 1.386 1_655 S
C1166 C1168 1.391 . S
C1167 C1166 1.386 1_455 S
C1167 C1171 1.393 . S
C1168 H1157 0.950 . S
C1168 C1166 1.391 . S
C1168 C1169 1.400 . S
C1169 C1163 1.491 . S
C1169 C1168 1.400 . S
C1169 C1170 1.398 1_655 S
C1170 H1158 0.950 . S
C1170 C1169 1.398 1_455 S
C1170 C1171 1.391 . S
C1171 H1159 0.950 . S
C1171 C1167 1.393 . S
C1171 C1170 1.391 . S
H1172 C1180 0.950 . S
H1173 C1185 0.950 . S
H1174 C1182 0.950 . S
H1175 C1184 0.950 1_545 S
H1176 C1186 0.950 . S
H1177 C1188 0.950 . S
H1178 C1190 0.950 . S
H1179 C1191 0.950 . S
C1180 H1172 0.950 . S
C1180 C1181 1.386 1_655 S
C1180 C1182 1.391 . S
C1181 C1180 1.386 1_455 S
C1181 C1185 1.393 . S
C1182 H1174 0.950 . S
C1182 C1180 1.391 . S
C1182 C1183 1.400 . S
C1183 C1182 1.400 . S
C1183 C1184 1.398 . S
C1183 C1189 1.491 . S
C1184 H1175 0.950 1_565 S
C1184 C1183 1.398 . S
C1184 C1185 1.391 1_655 S
C1185 H1173 0.950 . S
C1185 C1181 1.393 . S
C1185 C1184 1.391 1_455 S
C1186 H1176 0.950 . S
C1186 C1187 1.386 . S
C1186 C1188 1.391 . S
C1187 C1186 1.386 . S
C1187 C1191 1.393 1_545 S
C1188 H1177 0.950 . S
C1188 C1186 1.391 . S
C1188 C1189 1.400 1_545 S
C1189 C1183 1.491 . S
C1189 C1188 1.400 1_565 S
C1189 C1190 1.398 . S
C1190 H1178 0.950 . S
C1190 C1189 1.398 . S
C1190 C1191 1.391 . S
C1191 H1179 0.950 . S
C1191 C1187 1.393 1_565 S
C1191 C1190 1.391 . S
H1192 C1200 0.950 . S
H1193 C1205 0.950 . S
H1194 C1202 0.950 . S
H1195 C1204 0.950 . S
H1196 C1206 0.950 . S
H1197 C1208 0.950 . S
H1198 C1210 0.950 . S
H1199 C1211 0.950 . S
C1200 H1192 0.950 . S
C1200 C1201 1.386 1_565 S
C1200 C1202 1.391 . S
C1201 C1200 1.386 1_545 S
C1201 C1205 1.393 . S
C1202 H1194 0.950 . S
C1202 C1200 1.391 . S
C1202 C1203 1.400 . S
C1203 C1202 1.400 . S
C1203 C1204 1.398 . S
C1203 C1209 1.491 . S
C1204 H1195 0.950 . S
C1204 C1203 1.398 . S
C1204 C1205 1.391 1_565 S
C1205 H1193 0.950 . S
C1205 C1201 1.393 . S
C1205 C1204 1.391 1_545 S
C1206 H1196 0.950 . S
C1206 C1207 1.386 . S
C1206 C1208 1.391 . S
C1207 C1206 1.386 . S
C1207 C1211 1.393 . S
C1208 H1197 0.950 . S
C1208 C1206 1.391 . S
C1208 C1209 1.400 . S
C1209 C1203 1.491 . S
C1209 C1208 1.400 . S
C1209 C1210 1.398 . S
C1210 H1198 0.950 . S
C1210 C1209 1.398 . S
C1210 C1211 1.391 . S
C1211 H1199 0.950 . S
C1211 C1207 1.393 . S
C1211 C1210 1.391 . S
H1212 C1220 0.950 . S
H1213 C1225 0.950 . S
H1214 C1222 0.950 . S
H1215 C1224 0.950 . S
H1216 C1226 0.950 . S
H1217 C1228 0.950 . S
H1218 C1230 0.950 . S
H1219 C1231 0.950 . S
C1220 H1212 0.950 . S
C1220 C1221 1.386 . S
C1220 C1222 1.391 . S
C1221 C1220 1.386 . S
C1221 C1225 1.393 . S
C1222 H1214 0.950 . S
C1222 C1220 1.391 . S
C1222 C1223 1.400 . S
C1223 C1222 1.400 . S
C1223 C1224 1.398 . S
C1223 C1229 1.491 . S
C1224 H1215 0.950 . S
C1224 C1223 1.398 . S
C1224 C1225 1.391 . S
C1225 H1213 0.950 . S
C1225 C1221 1.393 . S
C1225 C1224 1.391 . S
C1226 H1216 0.950 . S
C1226 C1227 1.386 . S
C1226 C1228 1.391 . S
C1227 C1226 1.386 . S
C1227 C1231 1.393 . S
C1228 H1217 0.950 . S
C1228 C1226 1.391 . S
C1228 C1229 1.400 . S
C1229 C1223 1.491 . S
C1229 C1228 1.400 . S
C1229 C1230 1.398 . S
C1230 H1218 0.950 . S
C1230 C1229 1.398 . S
C1230 C1231 1.391 . S
C1231 H1219 0.950 . S
C1231 C1227 1.393 . S
C1231 C1230 1.391 . S
H1232 C1240 0.950 . S
H1233 C1245 0.950 . S
H1234 C1242 0.950 1_655 S
H1235 C1244 0.950 . S
H1236 C1246 0.950 . S
H1237 C1248 0.950 . S
H1238 C1250 0.950 . S
H1239 C1251 0.950 . S
C1240 H1232 0.950 . S
C1240 C1241 1.386 . S
C1240 C1242 1.391 . S
C1241 C1240 1.386 . S
C1241 C1245 1.393 . S
C1242 H1234 0.950 1_455 S
C1242 C1240 1.391 . S
C1242 C1243 1.400 . S
C1243 C1242 1.400 . S
C1243 C1244 1.398 . S
C1243 C1249 1.491 . S
C1244 H1235 0.950 . S
C1244 C1243 1.398 . S
C1244 C1245 1.391 . S
C1245 H1233 0.950 . S
C1245 C1241 1.393 . S
C1245 C1244 1.391 . S
C1246 H1236 0.950 . S
C1246 C1247 1.386 1_455 S
C1246 C1248 1.391 . S
C1247 C1246 1.386 1_655 S
C1247 C1251 1.393 . S
C1248 H1237 0.950 . S
C1248 C1246 1.391 . S
C1248 C1249 1.400 . S
C1249 C1243 1.491 . S
C1249 C1248 1.400 . S
C1249 C1250 1.398 1_455 S
C1250 H1238 0.950 . S
C1250 C1249 1.398 1_655 S
C1250 C1251 1.391 . S
C1251 H1239 0.950 . S
C1251 C1247 1.393 . S
C1251 C1250 1.391 . S
H1252 C1260 0.950 . S
H1253 C1265 0.950 . S
H1254 C1262 0.950 . S
H1255 C1264 0.950 . S
H1256 C1266 0.950 . S
H1257 C1268 0.950 . S
H1258 C1270 0.950 1_655 S
H1259 C1271 0.947 1_565 S
C1260 H1252 0.950 . S
C1260 C1261 1.386 . S
C1260 C1262 1.391 . S
C1261 C1260 1.386 . S
C1261 C1265 1.393 1_655 S
C1262 H1254 0.950 . S
C1262 C1260 1.391 . S
C1262 C1263 1.400 1_655 S
C1263 C1262 1.400 1_455 S
C1263 C1264 1.398 . S
C1263 C1269 1.491 . S
C1264 H1255 0.950 . S
C1264 C1263 1.398 . S
C1264 C1265 1.391 . S
C1265 H1253 0.950 . S
C1265 C1261 1.393 1_455 S
C1265 C1264 1.391 . S
C1266 H1256 0.950 . S
C1266 C1267 1.386 1_545 S
C1266 C1268 1.391 . S
C1267 C1266 1.386 1_565 S
C1267 C1271 1.393 1_565 S
C1268 H1257 0.950 . S
C1268 C1266 1.391 . S
C1268 C1269 1.400 . S
C1269 C1263 1.491 . S
C1269 C1268 1.400 . S
C1269 C1270 1.398 . S
C1270 H1258 0.950 1_455 S
C1270 C1269 1.398 . S
C1270 C1271 1.391 . S
C1271 H1259 0.947 1_545 S
C1271 C1267 1.393 1_545 S
C1271 C1270 1.391 . S
H1272 C1280 0.950 . S
H1273 C1285 0.950 . S
H1274 C1282 0.950 . S
H1275 C1284 0.950 . S
H1276 C1286 0.950 . S
H1277 C1288 0.950 . S
H1278 C1290 0.950 . S
H1279 C1291 0.950 . S
C1280 H1272 0.950 . S
C1280 C1281 1.386 1_545 S
C1280 C1282 1.391 . S
C1281 C1280 1.386 1_565 S
C1281 C1285 1.393 . S
C1282 H1274 0.950 . S
C1282 C1280 1.391 . S
C1282 C1283 1.400 . S
C1283 C1282 1.400 . S
C1283 C1284 1.398 1_545 S
C1283 C1289 1.491 . S
C1284 H1275 0.950 . S
C1284 C1283 1.398 1_565 S
C1284 C1285 1.391 . S
C1285 H1273 0.950 . S
C1285 C1281 1.393 . S
C1285 C1284 1.391 . S
C1286 H1276 0.950 . S
C1286 C1287 1.386 . S
C1286 C1288 1.391 . S
C1287 C1286 1.386 . S
C1287 C1291 1.393 . S
C1288 H1277 0.950 . S
C1288 C1286 1.391 . S
C1288 C1289 1.400 . S
C1289 C1283 1.491 . S
C1289 C1288 1.400 . S
C1289 C1290 1.398 . S
C1290 H1278 0.950 . S
C1290 C1289 1.398 . S
C1290 C1291 1.391 . S
C1291 H1279 0.950 . S
C1291 C1287 1.393 . S
C1291 C1290 1.391 . S
H1292 C1300 0.950 . S
H1293 C1305 0.950 . S
H1294 C1302 0.950 . S
H1295 C1304 0.950 . S
H1296 C1306 0.950 . S
H1297 C1308 0.950 . S
H1298 C1310 0.950 . S
H1299 C1311 0.950 . S
C1300 H1292 0.950 . S
C1300 C1301 1.386 . S
C1300 C1302 1.391 . S
C1301 C1300 1.386 . S
C1301 C1305 1.393 . S
C1302 H1294 0.950 . S
C1302 C1300 1.391 . S
C1302 C1303 1.400 . S
C1303 C1302 1.400 . S
C1303 C1304 1.398 . S
C1303 C1309 1.491 . S
C1304 H1295 0.950 . S
C1304 C1303 1.398 . S
C1304 C1305 1.391 . S
C1305 H1293 0.950 . S
C1305 C1301 1.393 . S
C1305 C1304 1.391 . S
C1306 H1296 0.950 . S
C1306 C1307 1.386 . S
C1306 C1308 1.391 . S
C1307 C1306 1.386 . S
C1307 C1311 1.393 . S
C1308 H1297 0.950 . S
C1308 C1306 1.391 . S
C1308 C1309 1.400 . S
C1309 C1303 1.491 . S
C1309 C1308 1.400 . S
C1309 C1310 1.398 . S
C1310 H1298 0.950 . S
C1310 C1309 1.398 . S
C1310 C1311 1.391 . S
C1311 H1299 0.950 . S
C1311 C1307 1.393 . S
C1311 C1310 1.391 . S
C361 C70 1.196 . S
C367 C8 1.223 . S
C381 C4 1.209 1_655 S
C387 C30 1.242 . S
C401 C52 1.242 . S
C407 C26 1.194 1_565 S
C421 C48 1.215 . S
C427 C74 1.224 . S
C441 C92 1.242 . S
C447 C114 1.193 1_565 S
C461 C118 1.239 . S
C467 C140 1.189 . S
C481 C136 1.232 . S
C487 C162 1.186 . S
C501 C96 1.200 1_655 S
C507 C158 1.222 . S
C521 C184 1.226 . S
C527 C246 1.191 . S
C541 C180 1.217 1_455 S
C547 C202 1.225 . S
C561 C206 1.190 1_545 S
C567 C228 1.226 . S
C581 C224 1.214 . S
C587 C250 1.223 . S
C601 C268 1.229 . S
C607 C294 1.187 1_545 S
C621 C316 1.186 . S
C627 C290 1.235 . S
C641 C338 1.212 . S
C647 C312 1.223 . S
C661 C334 1.226 . S
C667 C272 1.191 1_455 S
C681 C6 0.619 . S
C687 C95 0.598 . S
C701 C116 0.619 . S
C707 C28 0.569 . S
C721 C50 0.567 . S
C727 C139 0.617 . S
C741 C72 0.565 . S
C747 C161 0.616 . S
C761 C273 0.574 . S
C767 C181 0.621 . S
C781 C295 0.590 . S
C787 C207 0.559 . S
C801 C225 0.565 . S
C807 C317 0.579 . S
C821 C339 0.610 . S
C827 C247 0.611 . S
C841 C5 2.018 . S
C847 C49 2.011 . S
C861 C27 2.014 . S
C867 C71 2.009 . S
C881 C141 2.012 . S
C887 C97 2.009 . S
C901 C163 2.010 . S
C907 C115 2.017 . S
C921 C226 2.015 . S
C927 C182 2.020 . S
C941 C248 2.012 . S
C947 C205 2.009 . S
C961 C271 2.018 . S
C967 C315 2.011 . S
C981 C293 2.014 . S
C987 C337 2.009 . S
C1001 C185 1.477 . S
C1007 C7 1.477 . S
C1021 C203 1.476 . S
C1027 C29 1.476 . S
C1041 C229 1.503 . S
C1047 C51 1.503 . S
C1061 C73 1.482 . S
C1067 C251 1.482 . S
C1081 C269 1.494 . S
C1087 C94 1.494 . S
C1101 C291 1.498 . S
C1107 C117 1.498 . S
C1121 C313 1.497 . S
C1127 C138 1.497 . S
C1141 C335 1.486 . S
C1147 C160 1.486 . S
C1161 C159 1.243 . S
C1167 C9 1.224 . S
C1181 C93 1.252 . S
C1187 C31 1.258 . S
C1201 C119 1.249 . S
C1207 C53 1.259 . S
C1221 C137 1.223 . S
C1227 C75 1.225 . S
C1241 C336 1.244 . S
C1247 C183 1.258 . S
C1261 C270 1.259 . S
C1267 C204 1.245 . S
C1281 C292 1.229 . S
C1287 C227 1.222 . S
C1301 C249 1.258 . S
C1307 C314 1.251 . S
