# Generated by pormake.
# Topology unl, (4)-cn, num edge types: 1
# Building blocks:
#     Node 0, Type 0, BuildingBlock: KUFVIS_clean_sbu_0, # of connection points: 4
#     Node 1, Type 0, BuildingBlock: KUFVIS_clean_sbu_0, # of connection points: 4
#     Node 2, Type 0, BuildingBlock: KUFVIS_clean_sbu_0, # of connection points: 4
#     Node 3, Type 0, BuildingBlock: KUFVIS_clean_sbu_0, # of connection points: 4
#     Node 4, Type 0, BuildingBlock: KUFVIS_clean_sbu_0, # of connection points: 4
#     Node 5, Type 0, BuildingBlock: KUFVIS_clean_sbu_0, # of connection points: 4
#     Node 6, Type 0, BuildingBlock: KUFVIS_clean_sbu_0, # of connection points: 4
#     Node 7, Type 0, BuildingBlock: KUFVIS_clean_sbu_0, # of connection points: 4
#     Node 8, Type 0, BuildingBlock: KUFVIS_clean_sbu_0, # of connection points: 4
#     Node 9, Type 0, BuildingBlock: KUFVIS_clean_sbu_0, # of connection points: 4
#     Node 10, Type 0, BuildingBlock: KUFVIS_clean_sbu_0, # of connection points: 4
#     Node 11, Type 0, BuildingBlock: KUFVIS_clean_sbu_0, # of connection points: 4
#     Node 12, Type 0, BuildingBlock: KUFVIS_clean_sbu_0, # of connection points: 4
#     Node 13, Type 0, BuildingBlock: KUFVIS_clean_sbu_0, # of connection points: 4
#     Node 14, Type 0, BuildingBlock: KUFVIS_clean_sbu_0, # of connection points: 4
#     Node 15, Type 0, BuildingBlock: KUFVIS_clean_sbu_0, # of connection points: 4
#     Node 16, Type 0, BuildingBlock: KUFVIS_clean_sbu_0, # of connection points: 4
#     Node 17, Type 0, BuildingBlock: KUFVIS_clean_sbu_0, # of connection points: 4
#     Node 18, Type 0, BuildingBlock: KUFVIS_clean_sbu_0, # of connection points: 4
#     Node 19, Type 0, BuildingBlock: KUFVIS_clean_sbu_0, # of connection points: 4
#     Node 20, Type 0, BuildingBlock: KUFVIS_clean_sbu_0, # of connection points: 4
#     Node 21, Type 0, BuildingBlock: KUFVIS_clean_sbu_0, # of connection points: 4
#     Node 22, Type 0, BuildingBlock: KUFVIS_clean_sbu_0, # of connection points: 4
#     Node 23, Type 0, BuildingBlock: KUFVIS_clean_sbu_0, # of connection points: 4
#     Node 24, Type 0, BuildingBlock: KUFVIS_clean_sbu_0, # of connection points: 4
#     Node 25, Type 0, BuildingBlock: KUFVIS_clean_sbu_0, # of connection points: 4
#     Node 26, Type 0, BuildingBlock: KUFVIS_clean_sbu_0, # of connection points: 4
#     Node 27, Type 0, BuildingBlock: KUFVIS_clean_sbu_0, # of connection points: 4
#     Node 28, Type 0, BuildingBlock: KUFVIS_clean_sbu_0, # of connection points: 4
#     Node 29, Type 0, BuildingBlock: KUFVIS_clean_sbu_0, # of connection points: 4
#     Node 30, Type 0, BuildingBlock: KUFVIS_clean_sbu_0, # of connection points: 4
#     Node 31, Type 0, BuildingBlock: KUFVIS_clean_sbu_0, # of connection points: 4
#     Node 32, Type 0, BuildingBlock: KUFVIS_clean_sbu_0, # of connection points: 4
#     Node 33, Type 0, BuildingBlock: KUFVIS_clean_sbu_0, # of connection points: 4
#     Node 34, Type 0, BuildingBlock: KUFVIS_clean_sbu_0, # of connection points: 4
#     Node 35, Type 0, BuildingBlock: KUFVIS_clean_sbu_0, # of connection points: 4
#     Edge 36, Type (0, 0), BuildingBlock: CIFDUS_clean_linker_0, # of connection points: 2
#     Edge 37, Type (0, 0), BuildingBlock: CIFDUS_clean_linker_0, # of connection points: 2
#     Edge 38, Type (0, 0), BuildingBlock: CIFDUS_clean_linker_0, # of connection points: 2
#     Edge 39, Type (0, 0), BuildingBlock: CIFDUS_clean_linker_0, # of connection points: 2
#     Edge 40, Type (0, 0), BuildingBlock: CIFDUS_clean_linker_0, # of connection points: 2
#     Edge 41, Type (0, 0), BuildingBlock: CIFDUS_clean_linker_0, # of connection points: 2
#     Edge 42, Type (0, 0), BuildingBlock: CIFDUS_clean_linker_0, # of connection points: 2
#     Edge 43, Type (0, 0), BuildingBlock: CIFDUS_clean_linker_0, # of connection points: 2
#     Edge 44, Type (0, 0), BuildingBlock: CIFDUS_clean_linker_0, # of connection points: 2
#     Edge 45, Type (0, 0), BuildingBlock: CIFDUS_clean_linker_0, # of connection points: 2
#     Edge 46, Type (0, 0), BuildingBlock: CIFDUS_clean_linker_0, # of connection points: 2
#     Edge 47, Type (0, 0), BuildingBlock: CIFDUS_clean_linker_0, # of connection points: 2
#     Edge 48, Type (0, 0), BuildingBlock: CIFDUS_clean_linker_0, # of connection points: 2
#     Edge 49, Type (0, 0), BuildingBlock: CIFDUS_clean_linker_0, # of connection points: 2
#     Edge 50, Type (0, 0), BuildingBlock: CIFDUS_clean_linker_0, # of connection points: 2
#     Edge 51, Type (0, 0), BuildingBlock: CIFDUS_clean_linker_0, # of connection points: 2
#     Edge 52, Type (0, 0), BuildingBlock: CIFDUS_clean_linker_0, # of connection points: 2
#     Edge 53, Type (0, 0), BuildingBlock: CIFDUS_clean_linker_0, # of connection points: 2
#     Edge 54, Type (0, 0), BuildingBlock: CIFDUS_clean_linker_0, # of connection points: 2
#     Edge 55, Type (0, 0), BuildingBlock: CIFDUS_clean_linker_0, # of connection points: 2
#     Edge 56, Type (0, 0), BuildingBlock: CIFDUS_clean_linker_0, # of connection points: 2
#     Edge 57, Type (0, 0), BuildingBlock: CIFDUS_clean_linker_0, # of connection points: 2
#     Edge 58, Type (0, 0), BuildingBlock: CIFDUS_clean_linker_0, # of connection points: 2
#     Edge 59, Type (0, 0), BuildingBlock: CIFDUS_clean_linker_0, # of connection points: 2
#     Edge 60, Type (0, 0), BuildingBlock: CIFDUS_clean_linker_0, # of connection points: 2
#     Edge 61, Type (0, 0), BuildingBlock: CIFDUS_clean_linker_0, # of connection points: 2
#     Edge 62, Type (0, 0), BuildingBlock: CIFDUS_clean_linker_0, # of connection points: 2
#     Edge 63, Type (0, 0), BuildingBlock: CIFDUS_clean_linker_0, # of connection points: 2
#     Edge 64, Type (0, 0), BuildingBlock: CIFDUS_clean_linker_0, # of connection points: 2
#     Edge 65, Type (0, 0), BuildingBlock: CIFDUS_clean_linker_0, # of connection points: 2
#     Edge 66, Type (0, 0), BuildingBlock: CIFDUS_clean_linker_0, # of connection points: 2
#     Edge 67, Type (0, 0), BuildingBlock: CIFDUS_clean_linker_0, # of connection points: 2
#     Edge 68, Type (0, 0), BuildingBlock: CIFDUS_clean_linker_0, # of connection points: 2
#     Edge 69, Type (0, 0), BuildingBlock: CIFDUS_clean_linker_0, # of connection points: 2
#     Edge 70, Type (0, 0), BuildingBlock: CIFDUS_clean_linker_0, # of connection points: 2
#     Edge 71, Type (0, 0), BuildingBlock: CIFDUS_clean_linker_0, # of connection points: 2
#     Edge 72, Type (0, 0), BuildingBlock: CIFDUS_clean_linker_0, # of connection points: 2
#     Edge 73, Type (0, 0), BuildingBlock: CIFDUS_clean_linker_0, # of connection points: 2
#     Edge 74, Type (0, 0), BuildingBlock: CIFDUS_clean_linker_0, # of connection points: 2
#     Edge 75, Type (0, 0), BuildingBlock: CIFDUS_clean_linker_0, # of connection points: 2
#     Edge 76, Type (0, 0), BuildingBlock: CIFDUS_clean_linker_0, # of connection points: 2
#     Edge 77, Type (0, 0), BuildingBlock: CIFDUS_clean_linker_0, # of connection points: 2
#     Edge 78, Type (0, 0), BuildingBlock: CIFDUS_clean_linker_0, # of connection points: 2
#     Edge 79, Type (0, 0), BuildingBlock: CIFDUS_clean_linker_0, # of connection points: 2
#     Edge 80, Type (0, 0), BuildingBlock: CIFDUS_clean_linker_0, # of connection points: 2
#     Edge 81, Type (0, 0), BuildingBlock: CIFDUS_clean_linker_0, # of connection points: 2
#     Edge 82, Type (0, 0), BuildingBlock: CIFDUS_clean_linker_0, # of connection points: 2
#     Edge 83, Type (0, 0), BuildingBlock: CIFDUS_clean_linker_0, # of connection points: 2
#     Edge 84, Type (0, 0), BuildingBlock: CIFDUS_clean_linker_0, # of connection points: 2
#     Edge 85, Type (0, 0), BuildingBlock: CIFDUS_clean_linker_0, # of connection points: 2
#     Edge 86, Type (0, 0), BuildingBlock: CIFDUS_clean_linker_0, # of connection points: 2
#     Edge 87, Type (0, 0), BuildingBlock: CIFDUS_clean_linker_0, # of connection points: 2
#     Edge 88, Type (0, 0), BuildingBlock: CIFDUS_clean_linker_0, # of connection points: 2
#     Edge 89, Type (0, 0), BuildingBlock: CIFDUS_clean_linker_0, # of connection points: 2
#     Edge 90, Type (0, 0), BuildingBlock: CIFDUS_clean_linker_0, # of connection points: 2
#     Edge 91, Type (0, 0), BuildingBlock: CIFDUS_clean_linker_0, # of connection points: 2
#     Edge 92, Type (0, 0), BuildingBlock: CIFDUS_clean_linker_0, # of connection points: 2
#     Edge 93, Type (0, 0), BuildingBlock: CIFDUS_clean_linker_0, # of connection points: 2
#     Edge 94, Type (0, 0), BuildingBlock: CIFDUS_clean_linker_0, # of connection points: 2
#     Edge 95, Type (0, 0), BuildingBlock: CIFDUS_clean_linker_0, # of connection points: 2
#     Edge 96, Type (0, 0), BuildingBlock: CIFDUS_clean_linker_0, # of connection points: 2
#     Edge 97, Type (0, 0), BuildingBlock: CIFDUS_clean_linker_0, # of connection points: 2
#     Edge 98, Type (0, 0), BuildingBlock: CIFDUS_clean_linker_0, # of connection points: 2
#     Edge 99, Type (0, 0), BuildingBlock: CIFDUS_clean_linker_0, # of connection points: 2
#     Edge 100, Type (0, 0), BuildingBlock: CIFDUS_clean_linker_0, # of connection points: 2
#     Edge 101, Type (0, 0), BuildingBlock: CIFDUS_clean_linker_0, # of connection points: 2
#     Edge 102, Type (0, 0), BuildingBlock: CIFDUS_clean_linker_0, # of connection points: 2
#     Edge 103, Type (0, 0), BuildingBlock: CIFDUS_clean_linker_0, # of connection points: 2
#     Edge 104, Type (0, 0), BuildingBlock: CIFDUS_clean_linker_0, # of connection points: 2
#     Edge 105, Type (0, 0), BuildingBlock: CIFDUS_clean_linker_0, # of connection points: 2
#     Edge 106, Type (0, 0), BuildingBlock: CIFDUS_clean_linker_0, # of connection points: 2
#     Edge 107, Type (0, 0), BuildingBlock: CIFDUS_clean_linker_0, # of connection points: 2
# Relax obj value: 0.072
# Max RMSD: 0.161
# Mean RMSD: 0.161
data_MOF--net-unl--node1-KUFVIS_clean_sbu_0--edge1-CIFDUS_clean_linker_0
_symmetry_space_group_name_H-M    P1
_symmetry_Int_Tables_number       1
_symmetry_cell_setting            triclinic
loop_
_symmetry_equiv_pos_as_xyz
'x, y, z'
_cell_length_a     56.813172
_cell_length_b     56.791388
_cell_length_c     35.607954
_cell_angle_alpha  90.121238
_cell_angle_beta   89.821761
_cell_angle_gamma 120.08249
loop_
_atom_site_label
_atom_site_type_symbol
_atom_site_fract_x
_atom_site_fract_y
_atom_site_fract_z
_atom_type_partial_charge
Mn0 Mn 0.23081 0.14859 0.11938 0.0
Mn1 Mn 0.16361 0.10422 0.11107 0.0
C2 C 0.20216 0.15327 0.16203 0.0
C3 C 0.27334 0.15805 0.14215 0.0
C4 C 0.19579 0.15237 0.05887 0.0
O5 O 0.2286 0.1189 0.08465 0.0
O6 O 0.18472 0.08728 0.09256 0.0
C7 C 0.15472 0.0596 0.16255 0.0
N8 N 0.14765 0.07783 0.15 0.0
C9 C 0.10551 0.05575 0.18439 0.0
C10 C 0.11226 0.03667 0.19776 0.0
C11 C 0.13708 0.03874 0.18702 0.0
C12 C 0.1239 0.07609 0.16025 0.0
H13 H 0.17347 0.06082 0.1535 0.0
C14 C 0.20869 0.09481 0.08059 0.0
O15 O 0.27124 0.1702 0.11257 0.0
O16 O 0.25079 0.13994 0.15768 0.0
N17 N 0.13952 0.11651 0.1271 0.0
C18 C 0.13824 0.13882 0.11625 0.0
C19 C 0.11586 0.14136 0.1273 0.0
C20 C 0.09486 0.12073 0.14877 0.0
C21 C 0.09668 0.09795 0.15955 0.0
C22 C 0.11951 0.09662 0.14793 0.0
H23 H 0.15407 0.15441 0.09913 0.0
O24 O 0.22688 0.17243 0.15546 0.0
O25 O 0.1944 0.13037 0.14361 0.0
O26 O 0.21806 0.16419 0.07703 0.0
O27 O 0.17585 0.1293 0.06809 0.0
C28 C 0.07706 0.07678 0.18204 0.0
C29 C 0.08146 0.05567 0.19443 0.0
H30 H 0.09868 0.02051 0.21654 0.0
H31 H 0.14244 0.0241 0.19721 0.0
H32 H 0.11465 0.15904 0.11898 0.0
H33 H 0.07763 0.12275 0.15722 0.0
H34 H 0.05882 0.07689 0.19067 0.0
H35 H 0.06653 0.03982 0.21241 0.0
Mn36 Mn 0.85869 0.07411 0.10392 0.0
Mn37 Mn 0.87794 0.02655 0.10175 0.0
C38 C 0.84002 0.03812 0.14666 0.0
C39 C 0.85989 0.11344 0.12669 0.0
C40 C 0.83841 0.02761 0.04678 0.0
O41 O 0.89509 0.09473 0.07603 0.0
O42 O 0.90401 0.06035 0.07483 0.0
C43 C 0.92991 0.05433 0.14346 0.0
N44 N 0.9048 0.03222 0.13823 0.0
C45 C 0.91598 1.00412 0.176 0.0
C46 C 0.94229 0.0264 0.1808 0.0
C47 C 0.94909 0.05174 0.16515 0.0
C48 C 0.89776 0.00799 0.15425 0.0
H49 H 0.93545 0.07358 0.13046 0.0
C50 C 0.91022 0.08485 0.06716 0.0
O51 O 0.84939 0.10309 0.09429 0.0
O52 O 0.87152 0.10214 0.14461 0.0
N53 N 0.85548 0.99282 0.12681 0.0
C54 C 0.82879 0.97414 0.12117 0.0
C55 C 0.81763 0.94855 0.13854 0.0
C56 C 0.83423 0.94222 0.16055 0.0
C57 C 0.86173 0.96177 0.16563 0.0
C58 C 0.87145 0.98715 0.14858 0.0
H59 H 0.81626 0.97875 0.10342 0.0
O60 O 0.82689 0.05011 0.1358 0.0
O61 O 0.86375 0.04656 0.13094 0.0
O62 O 0.84051 0.05003 0.05725 0.0
O63 O 0.85081 0.01701 0.06256 0.0
C64 C 0.8799 0.95714 0.18693 0.0
C65 C 0.90712 0.97818 0.19162 0.0
H66 H 0.95746 0.0244 0.19647 0.0
H67 H 0.96926 0.06906 0.16908 0.0
H68 H 0.79641 0.93356 0.13443 0.0
H69 H 0.82565 0.92233 0.17345 0.0
H70 H 0.87315 0.93755 0.19995 0.0
H71 H 0.92091 0.97423 0.20764 0.0
Mn72 Mn 0.93463 0.79979 0.10912 0.0
Mn73 Mn 0.97282 0.86891 0.1139 0.0
C74 C 0.96892 0.81982 0.15448 0.0
C75 C 0.89707 0.75695 0.12419 0.0
C76 C 0.98012 0.83542 0.05397 0.0
O77 O 0.91099 0.81199 0.08105 0.0
O78 O 0.93753 0.85713 0.08937 0.0
C79 C 0.93964 0.88339 0.16266 0.0
N80 N 0.96386 0.8852 0.15418 0.0
C81 C 0.98811 0.92389 0.19485 0.0
C82 C 0.96343 0.92259 0.20392 0.0
C83 C 0.93905 0.90202 0.18815 0.0
C84 C 0.98736 0.90459 0.16976 0.0
H85 H 0.92105 0.86819 0.14951 0.0
C86 C 0.9157 0.8364 0.07775 0.0
O87 O 0.91069 0.76132 0.09328 0.0
O88 O 0.90454 0.77784 0.14614 0.0
N89 N 0.00772 0.88408 0.13681 0.0
C90 C 0.02904 0.8805 0.12797 0.0
C91 C 0.05448 0.89742 0.14461 0.0
C92 C 0.05784 0.91828 0.16924 0.0
C93 C 0.03557 0.92168 0.17758 0.0
C94 C 0.01062 0.90379 0.16087 0.0
H95 H 0.02662 0.86499 0.10819 0.0
O96 O 0.9603 0.79532 0.14213 0.0
O97 O 0.95765 0.83281 0.13944 0.0
O98 O 0.96184 0.81197 0.06489 0.0
O99 O 0.98528 0.85726 0.07042 0.0
C100 C 0.03706 0.94203 0.2018 0.0
C101 C 0.01343 0.94344 0.20983 0.0
H102 H 0.96291 0.93708 0.22324 0.0
H103 H 0.91994 0.90087 0.19508 0.0
H104 H 0.07158 0.89471 0.13798 0.0
H105 H 0.07756 0.9315 0.18166 0.0
H106 H 0.0562 0.95661 0.21455 0.0
H107 H 0.01481 0.95926 0.22828 0.0
Mn108 Mn 0.13637 0.22781 0.37818 0.0
Mn109 Mn 0.10432 0.15907 0.37433 0.0
C110 C 0.15296 0.20777 0.33663 0.0
C111 C 0.14094 0.26944 0.35939 0.0
C112 C 0.14365 0.19246 0.43609 0.0
O113 O 0.10038 0.21642 0.40492 0.0
O114 O 0.07975 0.1714 0.39488 0.0
C115 C 0.06063 0.1466 0.31938 0.0
N116 N 0.08184 0.1438 0.3313 0.0
C117 C 0.06933 0.10582 0.28999 0.0
C118 C 0.0473 0.10823 0.27716 0.0
C119 C 0.04314 0.12893 0.2916 0.0
C120 C 0.08636 0.12436 0.31701 0.0
H121 H 0.05686 0.16186 0.3315 0.0
C122 C 0.07962 0.19264 0.40664 0.0
O123 O 0.15018 0.26667 0.39137 0.0
O124 O 0.12802 0.24771 0.33892 0.0
N125 N 0.12454 0.14306 0.3554 0.0
C126 C 0.14816 0.14537 0.36821 0.0
C127 C 0.15671 0.1277 0.35423 0.0
C128 C 0.14045 0.10737 0.32818 0.0
C129 C 0.11607 0.10527 0.31573 0.0
C130 C 0.10904 0.12393 0.32984 0.0
H131 H 0.1602 0.16039 0.38915 0.0
O132 O 0.1675 0.23264 0.3483 0.0
O133 O 0.12774 0.19462 0.34895 0.0
O134 O 0.15074 0.2161 0.42352 0.0
O135 O 0.12605 0.17062 0.42031 0.0
C136 C 0.09846 0.08551 0.28981 0.0
C137 C 0.07494 0.08563 0.27734 0.0
H138 H 0.03354 0.09438 0.25616 0.0
H139 H 0.02616 0.13089 0.28191 0.0
H140 H 0.17552 0.12941 0.36403 0.0
H141 H 0.14692 0.09356 0.31784 0.0
H142 H 0.10294 0.07034 0.27902 0.0
H143 H 0.06123 0.07013 0.25808 0.0
Mn144 Mn 0.80429 0.92712 0.3884 0.0
Mn145 Mn 0.87213 0.97089 0.37973 0.0
C146 C 0.82047 0.95925 0.34033 0.0
C147 C 0.76291 0.88734 0.37601 0.0
C148 C 0.83757 0.9775 0.43789 0.0
O149 O 0.82 0.90718 0.41745 0.0
O150 O 0.86409 0.93912 0.41142 0.0
C151 C 0.8887 0.93595 0.33896 0.0
N152 N 0.88867 0.95982 0.34226 0.0
C153 C 0.92365 0.98116 0.29534 0.0
C154 C 0.92412 0.95682 0.29139 0.0
C155 C 0.90636 0.93403 0.31302 0.0
C156 C 0.90538 0.98173 0.32119 0.0
H157 H 0.87565 0.91867 0.35635 0.0
C158 C 0.84523 0.91618 0.42371 0.0
O159 O 0.76688 0.90148 0.40633 0.0
O160 O 0.78359 0.89543 0.35348 0.0
N161 N 0.88388 1.00274 0.34992 0.0
C162 C 0.87864 0.0235 0.35432 0.0
C163 C 0.89285 0.04702 0.33223 0.0
C164 C 0.91276 0.04919 0.30667 0.0
C165 C 0.91794 0.0276 0.30295 0.0
C166 C 0.90277 1.0045 0.32515 0.0
H167 H 0.86381 0.02209 0.37461 0.0
O168 O 0.7962 0.94971 0.35412 0.0
O169 O 0.83558 0.95065 0.35597 0.0
O170 O 0.81563 0.95546 0.431 0.0
O171 O 0.85931 0.9856 0.41926 0.0
C172 C 0.9374 0.02796 0.27798 0.0
C173 C 0.94048 1.00487 0.27458 0.0
H174 H 0.93786 0.95533 0.27163 0.0
H175 H 0.9066 0.91517 0.31012 0.0
H176 H 0.88874 0.06359 0.33526 0.0
H177 H 0.92383 0.06745 0.28991 0.0
H178 H 0.94995 0.04581 0.26109 0.0
H179 H 0.95555 0.00533 0.25547 0.0
Mn180 Mn 0.09061 0.86908 0.38811 0.0
Mn181 Mn 0.04126 0.88602 0.38444 0.0
C182 C 0.05644 0.84939 0.34259 0.0
C183 C 0.13216 0.87178 0.3725 0.0
C184 C 0.04187 0.8478 0.44203 0.0
O185 O 0.10881 0.90556 0.41604 0.0
O186 O 0.07362 0.91313 0.41274 0.0
C187 C 0.0685 0.9378 0.3421 0.0
N188 N 0.04696 0.91225 0.34691 0.0
C189 C 0.01831 0.92213 0.30828 0.0
C190 C 0.04012 0.94869 0.30324 0.0
C191 C 0.06546 0.95639 0.31962 0.0
C192 C 0.02279 0.90436 0.33016 0.0
H193 H 0.0876 0.94411 0.35609 0.0
C194 C 0.09788 0.92007 0.42279 0.0
O195 O 0.11948 0.86131 0.40369 0.0
O196 O 0.12143 0.88217 0.35063 0.0
N197 N 0.00858 0.86239 0.35809 0.0
C198 C 0.99046 0.83554 0.3639 0.0
C199 C 0.96499 0.82361 0.34615 0.0
C200 C 0.95811 0.83967 0.32382 0.0
C201 C 0.97705 0.86736 0.31869 0.0
C202 C 1.00247 0.87779 0.33582 0.0
H203 H 0.99541 0.82349 0.38216 0.0
O204 O 0.06879 0.83702 0.3552 0.0
O205 O 0.06347 0.87295 0.35789 0.0
O206 O 0.06476 0.85045 0.4331 0.0
O207 O 0.0312 0.85947 0.42464 0.0
C208 C 0.97173 0.88513 0.29756 0.0
C209 C 0.99218 0.91261 0.29306 0.0
H210 H 0.0377 0.96339 0.28693 0.0
H211 H 0.08236 0.97684 0.3158 0.0
H212 H 0.95045 0.80226 0.35036 0.0
H213 H 0.93824 0.83055 0.31081 0.0
H214 H 0.95202 0.87791 0.28474 0.0
H215 H 0.98754 0.92622 0.27789 0.0
Mn216 Mn 0.78861 0.85986 0.87301 0.0
Mn217 Mn 0.85342 0.91073 0.88121 0.0
C218 C 0.82173 0.85876 0.83586 0.0
C219 C 0.74552 0.84512 0.84745 0.0
C220 C 0.82561 0.86358 0.93634 0.0
O221 O 0.78601 0.88861 0.90465 0.0
O222 O 0.82839 0.92372 0.89695 0.0
C223 C 0.85414 0.94857 0.82363 0.0
N224 N 0.86488 0.93385 0.83818 0.0
C225 C 0.90426 0.95647 0.79833 0.0
C226 C 0.89363 0.97184 0.78275 0.0
C227 C 0.86827 0.96761 0.79512 0.0
C228 C 0.88858 0.93682 0.82524 0.0
H229 H 0.83514 0.94603 0.83411 0.0
C230 C 0.80383 0.9137 0.90813 0.0
O231 O 0.74842 0.83471 0.87836 0.0
O232 O 0.76754 0.86409 0.83184 0.0
N233 N 0.88113 0.90252 0.86758 0.0
C234 C 0.88939 0.88733 0.88714 0.0
C235 C 0.91452 0.88946 0.87872 0.0
C236 C 0.93166 0.90828 0.85177 0.0
C237 C 0.92325 0.92441 0.83286 0.0
C238 C 0.89745 0.92057 0.84129 0.0
H239 H 0.87706 0.87386 0.90934 0.0
O240 O 0.79783 0.83743 0.8398 0.0
O241 O 0.82498 0.88095 0.85152 0.0
O242 O 0.80367 0.84924 0.91803 0.0
O243 O 0.84384 0.88764 0.92668 0.0
C244 C 0.9399 0.94488 0.80703 0.0
C245 C 0.9302 0.96055 0.78924 0.0
H246 H 0.90488 0.98715 0.76161 0.0
H247 H 0.85999 0.97948 0.78339 0.0
H248 H 0.92106 0.87724 0.89388 0.0
H249 H 0.95145 0.91053 0.8463 0.0
H250 H 0.96002 0.94844 0.8002 0.0
H251 H 0.943 0.97592 0.76899 0.0
Mn252 Mn 0.16153 0.93373 0.88745 0.0
Mn253 Mn 0.1292 0.96983 0.89542 0.0
C254 C 0.17393 0.97005 0.84664 0.0
C255 C 0.16452 0.89721 0.86225 0.0
C256 C 0.17262 0.97462 0.94948 0.0
O257 O 0.12804 0.90901 0.91866 0.0
O258 O 0.10563 0.93232 0.91566 0.0
C259 C 0.08065 0.94091 0.84697 0.0
N260 N 0.10361 0.96423 0.85697 0.0
C261 C 0.08931 0.99177 0.82365 0.0
C262 C 0.06541 0.96803 0.81308 0.0
C263 C 0.06126 0.94248 0.82433 0.0
C264 C 0.108 0.98887 0.84571 0.0
H265 H 0.07695 0.92138 0.85693 0.0
C266 C 0.10724 0.91139 0.92509 0.0
O267 O 0.17646 0.90875 0.89352 0.0
O268 O 0.14985 0.90606 0.8466 0.0
N269 N 0.14905 0.00636 0.87748 0.0
C270 C 0.17426 0.02676 0.88724 0.0
C271 C 0.18299 0.05341 0.87506 0.0
C272 C 0.16545 0.05883 0.85377 0.0
C273 C 0.13956 0.03742 0.84413 0.0
C274 C 0.13231 0.01123 0.85623 0.0
H275 H 0.18744 0.0227 0.90435 0.0
O276 O 0.18992 0.96061 0.85439 0.0
O277 O 0.15008 0.95778 0.86342 0.0
O278 O 0.17929 0.95892 0.93304 0.0
O279 O 0.15395 0.97878 0.93788 0.0
C280 C 0.12061 0.04098 0.82313 0.0
C281 C 0.09532 0.01822 0.81351 0.0
H282 H 0.05015 0.96913 0.79626 0.0
H283 H 0.04286 0.9241 0.81629 0.0
H284 H 0.20301 0.0698 0.8826 0.0
H285 H 0.17208 0.07946 0.84487 0.0
H286 H 0.12527 0.06108 0.81415 0.0
H287 H 0.08076 0.02141 0.79826 0.0
Mn288 Mn 0.08359 0.21117 0.88684 0.0
Mn289 Mn 0.04942 0.14264 0.87858 0.0
C290 C 0.05138 0.1916 0.83906 0.0
C291 C 0.12122 0.25445 0.8751 0.0
C292 C 0.03892 0.17335 0.93999 0.0
O293 O 0.1064 0.19904 0.91731 0.0
O294 O 0.08597 0.15504 0.89978 0.0
C295 C 0.08092 0.12986 0.824 0.0
N296 N 0.05695 0.12742 0.8356 0.0
C297 C 0.03142 0.09033 0.79286 0.0
C298 C 0.05584 0.09261 0.7801 0.0
C299 C 0.08072 0.11258 0.79551 0.0
C300 C 0.03294 0.10838 0.82071 0.0
H301 H 0.09991 0.14462 0.83675 0.0
C302 C 0.10536 0.17602 0.91573 0.0
O303 O 0.10602 0.24935 0.9046 0.0
O304 O 0.1153 0.23403 0.85289 0.0
N305 N 0.01361 0.12759 0.85854 0.0
C306 C 0.99259 0.13094 0.87009 0.0
C307 C 0.96663 0.11442 0.85467 0.0
C308 C 0.96248 0.09431 0.82819 0.0
C309 C 0.98449 0.09132 0.81678 0.0
C310 C 0.00996 0.10871 0.83257 0.0
H311 H 0.99559 0.14595 0.89103 0.0
O312 O 0.05939 0.21591 0.85172 0.0
O313 O 0.06279 0.17889 0.85455 0.0
O314 O 0.05357 0.19734 0.9274 0.0
O315 O 0.03828 0.15279 0.92498 0.0
C316 C 0.98223 0.07187 0.79028 0.0
C317 C 1.00563 0.07108 0.77883 0.0
H318 H 0.05569 0.07938 0.7581 0.0
H319 H 0.09962 0.11436 0.78581 0.0
H320 H 0.94978 0.11692 0.86357 0.0
H321 H 0.94238 0.08143 0.81663 0.0
H322 H 0.96265 0.05755 0.77838 0.0
H323 H 1.00358 0.05583 0.75874 0.0
Mn324 Mn 0.86753 0.77875 0.61387 0.0
Mn325 Mn 0.91613 0.84431 0.62364 0.0
C326 C 0.86153 0.80501 0.6583 0.0
C327 C 0.85283 0.73343 0.62825 0.0
C328 C 0.87466 0.8234 0.56049 0.0
O329 O 0.89973 0.78226 0.58358 0.0
O330 O 0.93273 0.82377 0.60166 0.0
C331 C 0.94903 0.83758 0.68233 0.0
N332 N 0.93425 0.849 0.67043 0.0
C333 C 0.93945 0.87113 0.72995 0.0
C334 C 0.95494 0.85982 0.74279 0.0
C335 C 0.95978 0.84299 0.71884 0.0
C336 C 0.92952 0.86525 0.69319 0.0
H337 H 0.95241 0.82429 0.66417 0.0
C338 C 0.92457 0.80126 0.58422 0.0
O339 O 0.84468 0.73999 0.59802 0.0
O340 O 0.86978 0.75319 0.64956 0.0
N341 N 0.90339 0.86698 0.64425 0.0
C342 C 0.88872 0.87694 0.6272 0.0
C343 C 0.88262 0.89461 0.64706 0.0
C344 C 0.89171 0.90187 0.68415 0.0
C345 C 0.90743 0.89196 0.70059 0.0
C346 C 0.91358 0.87513 0.67907 0.0
H347 H 0.88158 0.8714 0.59874 0.0
O348 O 0.84118 0.78185 0.64787 0.0
O349 O 0.88507 0.8113 0.64388 0.0
O350 O 0.85982 0.79911 0.57258 0.0
O351 O 0.89722 0.84076 0.57565 0.0
C352 C 0.91671 0.89765 0.73779 0.0
C353 C 0.93286 0.88742 0.75246 0.0
H354 H 0.96301 0.86373 0.77107 0.0
H355 H 0.97156 0.83404 0.72861 0.0
H356 H 0.87067 0.90232 0.63399 0.0
H357 H 0.88649 0.91502 0.69975 0.0
H358 H 0.91075 0.90922 0.75536 0.0
H359 H 0.93984 0.89184 0.78116 0.0
Mn360 Mn 0.21029 0.09047 0.61405 0.0
Mn361 Mn 0.14184 0.05191 0.62171 0.0
C362 C 0.19223 0.05777 0.66141 0.0
C363 C 0.25248 0.12924 0.62658 0.0
C364 C 0.17489 0.04472 0.56046 0.0
O365 O 0.19619 0.1119 0.58419 0.0
O366 O 0.15173 0.08765 0.59942 0.0
C367 C 0.12587 0.0816 0.67506 0.0
N368 N 0.12543 0.05837 0.6643 0.0
C369 C 0.08963 0.03153 0.70826 0.0
C370 C 0.08983 0.05518 0.72011 0.0
C371 C 0.10816 0.08036 0.70366 0.0
C372 C 0.10794 0.03408 0.68013 0.0
H373 H 0.13938 0.10077 0.66156 0.0
C374 C 0.17209 0.10838 0.58442 0.0
O375 O 0.24815 0.11477 0.59651 0.0
O376 O 0.23177 0.1221 0.64877 0.0
N377 N 0.12923 0.01669 0.64271 0.0
C378 C 0.13448 0.99678 0.63177 0.0
C379 C 0.11984 0.97088 0.64822 0.0
C380 C 0.09965 0.96564 0.67514 0.0
C381 C 0.09467 0.98652 0.68589 0.0
C382 C 0.11022 0.01201 0.669 0.0
H383 H 0.14961 1.00061 0.61055 0.0
O384 O 0.21673 0.06706 0.64859 0.0
O385 O 0.17829 0.06789 0.646 0.0
O386 O 0.19849 0.06127 0.57276 0.0
O387 O 0.15335 0.04159 0.5758 0.0
C388 C 0.07503 0.98315 0.71283 0.0
C389 C 0.0722 0.00555 0.72351 0.0
H390 H 0.07626 0.05421 0.74218 0.0
H391 H 0.10836 0.09867 0.71265 0.0
H392 H 0.12387 0.9549 0.63984 0.0
H393 H 0.08824 0.94558 0.68756 0.0
H394 H 0.06214 0.96348 0.72567 0.0
H395 H 0.0568 1.00263 0.7439 0.0
Mn396 Mn 0.92606 0.15581 0.61176 0.0
Mn397 Mn 0.96276 0.1243 0.60664 0.0
C398 C 0.96039 0.16807 0.65576 0.0
C399 C 0.88687 0.15585 0.63235 0.0
C400 C 0.9682 0.16787 0.55212 0.0
O401 O 0.9044 0.12346 0.57714 0.0
O402 O 0.92547 0.09939 0.587 0.0
C403 C 0.93568 0.07628 0.65647 0.0
N404 N 0.95839 0.09969 0.64597 0.0
C405 C 0.9874 0.08728 0.67925 0.0
C406 C 0.96431 0.063 0.6905 0.0
C407 C 0.93832 0.05767 0.67951 0.0
C408 C 0.98344 0.10519 0.65692 0.0
H409 H 0.91584 0.07161 0.64653 0.0
C410 C 0.90607 0.10202 0.57333 0.0
O411 O 0.90028 0.16941 0.60286 0.0
O412 O 0.89569 0.14151 0.6491 0.0
N413 N 0.99926 0.14568 0.6241 0.0
C414 C 0.01891 0.17112 0.61367 0.0
C415 C 0.04581 0.18099 0.62556 0.0
C416 C 0.05227 0.16433 0.64718 0.0
C417 C 0.03163 0.13819 0.65748 0.0
C418 C 1.00512 0.12982 0.64575 0.0
H419 H 0.01411 0.18364 0.59621 0.0
O420 O 0.95005 0.18331 0.64808 0.0
O421 O 0.94961 0.14471 0.6377 0.0
O422 O 0.95405 0.17601 0.56966 0.0
O423 O 0.97057 0.14789 0.56291 0.0
C424 C 0.03628 0.12002 0.6787 0.0
C425 C 0.01424 0.09439 0.68891 0.0
H426 H 0.96627 0.04833 0.7076 0.0
H427 H 0.92044 0.03893 0.68801 0.0
H428 H 0.0616 0.20118 0.6175 0.0
H429 H 0.07311 0.17182 0.65579 0.0
H430 H 0.05667 0.12554 0.68734 0.0
H431 H 0.01827 0.08041 0.70417 0.0
Mn432 Mn 0.87846 0.47388 0.43908 0.0
Mn433 Mn 0.81017 0.43387 0.43381 0.0
C434 C 0.85134 0.48297 0.47915 0.0
C435 C 0.92118 0.48256 0.45937 0.0
C436 C 0.84391 0.47926 0.37868 0.0
O437 O 0.87342 0.44067 0.40897 0.0
O438 O 0.82848 0.41407 0.41682 0.0
C439 C 0.80214 0.39243 0.49066 0.0
N440 N 0.79524 0.41027 0.47603 0.0
C441 C 0.75462 0.39168 0.51359 0.0
C442 C 0.76104 0.37282 0.52879 0.0
C443 C 0.78516 0.37352 0.51775 0.0
C444 C 0.77299 0.41083 0.48803 0.0
H445 H 0.82033 0.39255 0.48144 0.0
C446 C 0.85163 0.41761 0.40708 0.0
O447 O 0.91803 0.49301 0.42882 0.0
O448 O 0.8993 0.46667 0.47841 0.0
N449 N 0.78793 0.44867 0.44919 0.0
C450 C 0.78449 0.46805 0.43164 0.0
C451 C 0.76203 0.47097 0.44083 0.0
C452 C 0.74238 0.45289 0.46629 0.0
C453 C 0.74552 0.43218 0.48256 0.0
C454 C 0.76893 0.431 0.47351 0.0
H455 H 0.79874 0.48122 0.41072 0.0
O456 O 0.87652 0.50094 0.47233 0.0
O457 O 0.84268 0.45916 0.46368 0.0
O458 O 0.86653 0.48862 0.39548 0.0
O459 O 0.82249 0.45744 0.38854 0.0
C460 C 0.72612 0.41239 0.50702 0.0
C461 C 0.73077 0.39229 0.52277 0.0
H462 H 0.74768 0.35784 0.54907 0.0
H463 H 0.79035 0.35915 0.52951 0.0
H464 H 0.75947 0.48666 0.42753 0.0
H465 H 0.72477 0.45482 0.47268 0.0
H466 H 0.70775 0.4127 0.51435 0.0
H467 H 0.71602 0.37757 0.54213 0.0
Mn468 Mn 0.5389 0.41661 0.46063 0.0
Mn469 Mn 0.58603 0.39734 0.46005 0.0
C470 C 0.53359 0.38282 0.50259 0.0
C471 C 0.52769 0.44919 0.48049 0.0
C472 C 0.54054 0.37862 0.40235 0.0
O473 O 0.56959 0.44502 0.42764 0.0
O474 O 0.60191 0.43486 0.44101 0.0
C475 C 0.62391 0.43549 0.5168 0.0
N476 N 0.60836 0.40963 0.50371 0.0
C477 C 0.62948 0.39282 0.54585 0.0
C478 C 0.64567 0.41923 0.56005 0.0
C479 C 0.6426 0.44061 0.54579 0.0
C480 C 0.61015 0.38873 0.51845 0.0
H481 H 0.62235 0.45209 0.50472 0.0
C482 C 0.59412 0.45017 0.42608 0.0
O483 O 0.51679 0.43449 0.45068 0.0
O484 O 0.54499 0.44494 0.49852 0.0
N485 N 0.57546 0.36144 0.47678 0.0
C486 C 0.56005 0.33769 0.45775 0.0
C487 C 0.56188 0.31464 0.46679 0.0
C488 C 0.58057 0.31652 0.49394 0.0
C489 C 0.59663 0.34123 0.51276 0.0
C490 C 0.59328 0.36331 0.50343 0.0
H491 H 0.54681 0.33641 0.43522 0.0
O492 O 0.51392 0.38751 0.49574 0.0
O493 O 0.55681 0.39956 0.48671 0.0
O494 O 0.52709 0.38847 0.41802 0.0
O495 O 0.56373 0.38317 0.41409 0.0
C496 C 0.61634 0.34495 0.53974 0.0
C497 C 0.63244 0.37062 0.55673 0.0
H498 H 0.66077 0.42341 0.58147 0.0
H499 H 0.65517 0.46108 0.55637 0.0
H500 H 0.54957 0.2957 0.45193 0.0
H501 H 0.58243 0.29886 0.50016 0.0
H502 H 0.61923 0.32817 0.54767 0.0
H503 H 0.64743 0.37319 0.57752 0.0
Mn504 Mn 0.59736 0.12029 0.44177 0.0
Mn505 Mn 0.628 0.18804 0.45151 0.0
C506 C 0.63257 0.14194 0.48457 0.0
C507 C 0.56066 0.07785 0.45901 0.0
C508 C 0.63691 0.16011 0.38483 0.0
O509 O 0.57183 0.13095 0.41577 0.0
O510 O 0.58969 0.17396 0.43695 0.0
C511 C 0.59797 0.19071 0.51768 0.0
N512 N 0.62201 0.19751 0.50055 0.0
C513 C 0.64716 0.21935 0.55636 0.0
C514 C 0.6227 0.21265 0.57466 0.0
C515 C 0.598 0.19838 0.55518 0.0
C516 C 0.64592 0.21142 0.51894 0.0
H517 H 0.5789 0.17915 0.50301 0.0
C518 C 0.57074 0.15269 0.42098 0.0
O519 O 0.57356 0.08113 0.42746 0.0
O520 O 0.56888 0.0992 0.47997 0.0
N521 N 0.66541 0.20418 0.46585 0.0
C522 C 0.68706 0.20728 0.44524 0.0
C523 C 0.71331 0.22144 0.46057 0.0
C524 C 0.7171 0.23234 0.4969 0.0
C525 C 0.69459 0.22914 0.51739 0.0
C526 C 0.66896 0.2154 0.50031 0.0
H527 H 0.6845 0.19919 0.41724 0.0
O528 O 0.62506 0.11737 0.4736 0.0
O529 O 0.61882 0.15241 0.4708 0.0
O530 O 0.62481 0.1359 0.398 0.0
O531 O 0.636 0.17991 0.40058 0.0
C532 C 0.69638 0.23784 0.55476 0.0
C533 C 0.67257 0.23213 0.5744 0.0
H534 H 0.62253 0.2179 0.60383 0.0
H535 H 0.57902 0.19295 0.5692 0.0
H536 H 0.73056 0.22382 0.44448 0.0
H537 H 0.7373 0.24277 0.50898 0.0
H538 H 0.71572 0.24763 0.56929 0.0
H539 H 0.67383 0.23626 0.60387 0.0
Mn540 Mn 0.80763 0.54478 0.7239 0.0
Mn541 Mn 0.77034 0.47788 0.70627 0.0
C542 C 0.82251 0.52559 0.67886 0.0
C543 C 0.8158 0.58866 0.71248 0.0
C544 C 0.80448 0.50152 0.77616 0.0
O545 O 0.77049 0.53305 0.74838 0.0
O546 O 0.74592 0.49111 0.72345 0.0
C547 C 0.73969 0.47997 0.64082 0.0
N548 N 0.75632 0.47188 0.65651 0.0
C549 C 0.76179 0.45464 0.59757 0.0
C550 C 0.74479 0.46284 0.58064 0.0
C551 C 0.73351 0.47535 0.60245 0.0
C552 C 0.76697 0.45946 0.63592 0.0
H553 H 0.73163 0.4903 0.65735 0.0
C554 C 0.74781 0.51135 0.74194 0.0
O555 O 0.82331 0.58254 0.74366 0.0
O556 O 0.80287 0.56909 0.68856 0.0
N557 N 0.79173 0.4625 0.6894 0.0
C558 C 0.80941 0.45773 0.70925 0.0
C559 C 0.82188 0.4446 0.69175 0.0
C560 C 0.81609 0.43654 0.65405 0.0
C561 C 0.79768 0.44149 0.63435 0.0
C562 C 0.78526 0.45394 0.65358 0.0
H563 H 0.81396 0.46377 0.73824 0.0
O564 O 0.83936 0.54917 0.69311 0.0
O565 O 0.79767 0.51455 0.69094 0.0
O566 O 0.81718 0.52633 0.76578 0.0
O567 O 0.78487 0.48249 0.75776 0.0
C568 C 0.79227 0.4359 0.5959 0.0
C569 C 0.77512 0.44338 0.57749 0.0
H570 H 0.74061 0.46008 0.55087 0.0
H571 H 0.72048 0.48185 0.58956 0.0
H572 H 0.83608 0.4409 0.70721 0.0
H573 H 0.82621 0.427 0.64033 0.0
H574 H 0.80236 0.42729 0.57979 0.0
H575 H 0.77356 0.44187 0.54759 0.0
Mn576 Mn 0.44458 0.26075 0.72884 0.0
Mn577 Mn 0.51084 0.28022 0.71713 0.0
C578 C 0.47093 0.295 0.68583 0.0
C579 C 0.39875 0.23117 0.71384 0.0
C580 C 0.48932 0.29717 0.78381 0.0
O581 O 0.44802 0.22982 0.75394 0.0
O582 O 0.49099 0.2428 0.73688 0.0
C583 C 0.50366 0.24188 0.65609 0.0
N584 N 0.51564 0.26781 0.66959 0.0
C585 C 0.53957 0.28585 0.61172 0.0
C586 C 0.52796 0.25936 0.59731 0.0
C587 C 0.50983 0.23725 0.6196 0.0
C588 C 0.53285 0.28922 0.64828 0.0
H589 H 0.48926 0.22491 0.67285 0.0
C590 C 0.46811 0.22563 0.75127 0.0
O591 O 0.40582 0.24423 0.74554 0.0
O592 O 0.41829 0.23483 0.69131 0.0
N593 N 0.53299 0.31615 0.69774 0.0
C594 C 0.54177 0.34051 0.71528 0.0
C595 C 0.55988 0.3647 0.69656 0.0
C596 C 0.56887 0.36358 0.66017 0.0
C597 C 0.55993 0.33824 0.64307 0.0
C598 C 0.54236 0.31482 0.66338 0.0
H599 H 0.53497 0.34152 0.74326 0.0
O600 O 0.44816 0.29217 0.69825 0.0
O601 O 0.47719 0.27735 0.69823 0.0
O602 O 0.46474 0.28673 0.77273 0.0
O603 O 0.5075 0.29437 0.76645 0.0
C604 C 0.56715 0.33529 0.60629 0.0
C605 C 0.55684 0.30908 0.59072 0.0
H606 H 0.5325 0.2558 0.56899 0.0
H607 H 0.50048 0.21675 0.60857 0.0
H608 H 0.56673 0.38416 0.71005 0.0
H609 H 0.58246 0.38228 0.64552 0.0
H610 H 0.5799 0.35305 0.58948 0.0
H611 H 0.56156 0.3067 0.56231 0.0
Mn612 Mn 0.74167 0.20338 0.71969 0.0
Mn613 Mn 0.71849 0.24751 0.72031 0.0
C614 C 0.70587 0.19518 0.67991 0.0
C615 C 0.77462 0.19388 0.696 0.0
C616 C 0.70337 0.20331 0.77937 0.0
O617 O 0.77098 0.23605 0.74883 0.0
O618 O 0.75669 0.26558 0.73724 0.0
C619 C 0.7539 0.28575 0.66147 0.0
N620 N 0.72866 0.26941 0.67614 0.0
C621 C 0.7088 0.2878 0.63437 0.0
C622 C 0.73458 0.30495 0.61884 0.0
C623 C 0.75718 0.30363 0.63208 0.0
C624 C 0.70663 0.26955 0.66238 0.0
H625 H 0.77138 0.28531 0.67242 0.0
C626 C 0.77453 0.26003 0.74906 0.0
O627 O 0.76198 0.18315 0.72737 0.0
O628 O 0.76819 0.20999 0.67909 0.0
N629 N 0.68178 0.2344 0.70475 0.0
C630 C 0.65837 0.21689 0.72318 0.0
C631 C 0.63374 0.2151 0.7126 0.0
C632 C 0.63358 0.23238 0.6846 0.0
C633 C 0.65804 0.25113 0.66718 0.0
C634 C 0.68181 0.25122 0.67786 0.0
H635 H 0.65841 0.20433 0.7458 0.0
O636 O 0.71164 0.1764 0.68784 0.0
O637 O 0.72234 0.21912 0.69399 0.0
O638 O 0.71509 0.19131 0.76462 0.0
O639 O 0.70616 0.22564 0.76675 0.0
C640 C 0.65985 0.27003 0.64 0.0
C641 C 0.68518 0.28821 0.62339 0.0
H642 H 0.73727 0.31918 0.59676 0.0
H643 H 0.77714 0.31676 0.62022 0.0
H644 H 0.61501 0.2009 0.72667 0.0
H645 H 0.61462 0.23134 0.67707 0.0
H646 H 0.64183 0.27049 0.63131 0.0
H647 H 0.68624 0.30229 0.60208 0.0
Mn648 Mn 0.4644 0.20504 0.22423 0.0
Mn649 Mn 0.53192 0.22591 0.22447 0.0
C650 C 0.48173 0.18794 0.17911 0.0
C651 C 0.42606 0.20727 0.20579 0.0
C652 C 0.49144 0.18419 0.27828 0.0
O653 O 0.48017 0.23999 0.25576 0.0
O654 O 0.52418 0.25161 0.25187 0.0
C655 C 0.55451 0.2773 0.18133 0.0
N656 N 0.55243 0.25267 0.18736 0.0
C657 C 0.58987 0.2634 0.14564 0.0
C658 C 0.59259 0.28902 0.13916 0.0
C659 C 0.57463 0.29586 0.15676 0.0
C660 C 0.5694 0.24575 0.17022 0.0
H661 H 0.54114 0.28282 0.19556 0.0
C662 C 0.50535 0.25623 0.26255 0.0
O663 O 0.42646 0.19527 0.23648 0.0
O664 O 0.44865 0.21968 0.18684 0.0
N665 N 0.54342 0.20372 0.19919 0.0
C666 C 0.53579 0.17714 0.20505 0.0
C667 C 0.5498 0.16599 0.18648 0.0
C668 C 0.57185 0.18244 0.16277 0.0
C669 C 0.57943 0.20981 0.15742 0.0
C670 C 0.56451 0.21968 0.17633 0.0
H671 H 0.51917 0.16464 0.22377 0.0
O672 O 0.45637 0.17486 0.18913 0.0
O673 O 0.49713 0.21121 0.19609 0.0
O674 O 0.47026 0.18428 0.26717 0.0
O675 O 0.51487 0.19894 0.26416 0.0
C676 C 0.60086 0.22758 0.13361 0.0
C677 C 0.60633 0.25448 0.12819 0.0
H678 H 0.60813 0.30343 0.12033 0.0
H679 H 0.57652 0.31553 0.15174 0.0
H680 H 0.54381 0.14485 0.1907 0.0
H681 H 0.58265 0.17378 0.14858 0.0
H682 H 0.61303 0.22068 0.11895 0.0
H683 H 0.62278 0.26793 0.10972 0.0
Mn684 Mn 0.81745 0.25825 0.22249 0.0
Mn685 Mn 0.79874 0.30627 0.21837 0.0
C686 C 0.83794 0.29316 0.17866 0.0
C687 C 0.81472 0.2176 0.20272 0.0
C688 C 0.83691 0.306 0.27695 0.0
O689 O 0.7808 0.23943 0.25015 0.0
O690 O 0.77084 0.27287 0.24416 0.0
C691 C 0.74909 0.27961 0.17161 0.0
N692 N 0.77422 0.30124 0.17863 0.0
C693 C 0.76624 0.33007 0.13744 0.0
C694 C 0.7402 0.30812 0.12986 0.0
C695 C 0.73176 0.28268 0.14656 0.0
C696 C 0.78276 0.32562 0.16199 0.0
H697 H 0.74214 0.2604 0.1857 0.0
C698 C 0.76489 0.24901 0.25496 0.0
O699 O 0.82536 0.22858 0.23483 0.0
O700 O 0.80379 0.22905 0.18359 0.0
N701 N 0.82317 0.33985 0.19431 0.0
C702 C 0.84958 0.3581 0.20257 0.0
C703 C 0.86219 0.38382 0.18539 0.0
C704 C 0.84725 0.39075 0.1609 0.0
C705 C 0.82 0.37165 0.15316 0.0
C706 C 0.80884 0.34606 0.17012 0.0
H707 H 0.86079 0.35307 0.22225 0.0
O708 O 0.84976 0.28023 0.19091 0.0
O709 O 0.81386 0.28568 0.19271 0.0
O710 O 0.83644 0.28415 0.26737 0.0
O711 O 0.82348 0.31518 0.26042 0.0
C712 C 0.80341 0.37693 0.12937 0.0
C713 C 0.77642 0.35629 0.12203 0.0
H714 H 0.72649 0.3105 0.11129 0.0
H715 H 0.71168 0.26568 0.14086 0.0
H716 H 0.88321 0.39846 0.19157 0.0
H717 H 0.85691 0.41076 0.14818 0.0
H718 H 0.81122 0.39673 0.11645 0.0
H719 H 0.76377 0.36084 0.1044 0.0
Mn720 Mn 0.75011 0.56838 0.22379 0.0
Mn721 Mn 0.71564 0.50039 0.21052 0.0
C722 C 0.71417 0.54879 0.18075 0.0
C723 C 0.78654 0.6121 0.20983 0.0
C724 C 0.71026 0.528 0.28018 0.0
O725 O 0.77518 0.55529 0.24662 0.0
O726 O 0.75313 0.51193 0.22557 0.0
C727 C 0.74531 0.49781 0.14397 0.0
N728 N 0.72141 0.4915 0.16114 0.0
C729 C 0.69593 0.46992 0.10552 0.0
C730 C 0.72026 0.4762 0.08711 0.0
C731 C 0.74504 0.49013 0.10645 0.0
C732 C 0.69745 0.47813 0.1428 0.0
H733 H 0.76442 0.50899 0.15865 0.0
C734 C 0.7735 0.5321 0.24124 0.0
O735 O 0.77398 0.60645 0.24188 0.0
O736 O 0.77866 0.59205 0.18627 0.0
N737 N 0.67864 0.48633 0.19579 0.0
C738 C 0.65735 0.48403 0.21647 0.0
C739 C 0.63103 0.47044 0.20128 0.0
C740 C 0.62682 0.45919 0.16511 0.0
C741 C 0.649 0.46158 0.14457 0.0
C742 C 0.6747 0.47493 0.16143 0.0
H743 H 0.66032 0.49232 0.24442 0.0
O744 O 0.72226 0.57294 0.19412 0.0
O745 O 0.72732 0.5372 0.19284 0.0
O746 O 0.72384 0.55243 0.26845 0.0
O747 O 0.70785 0.50754 0.26201 0.0
C748 C 0.64684 0.45228 0.10746 0.0
C749 C 0.67042 0.45722 0.0878 0.0
H750 H 0.72031 0.471 0.05795 0.0
H751 H 0.7639 0.49522 0.09232 0.0
H752 H 0.61404 0.46869 0.21739 0.0
H753 H 0.60657 0.4491 0.15318 0.0
H754 H 0.62742 0.44257 0.09313 0.0
H755 H 0.6689 0.45245 0.05858 0.0
Mn756 Mn 0.51854 0.11203 0.93831 0.0
Mn757 Mn 0.53899 0.17906 0.94815 0.0
C758 C 0.50235 0.12671 0.98827 0.0
C759 C 0.51941 0.07172 0.95011 0.0
C760 C 0.49602 0.14244 0.89321 0.0
O761 O 0.55391 0.12977 0.90709 0.0
O762 O 0.5631 0.17283 0.9145 0.0
C763 C 0.59262 0.19955 0.98447 0.0
N764 N 0.56765 0.1974 0.9836 0.0
C765 C 0.58179 0.23461 0.02698 0.0
C766 C 0.60772 0.23733 0.02824 0.0
C767 C 0.61301 0.21944 0.00737 0.0
C768 C 0.56212 0.21396 0.00449 0.0
H769 H 0.59708 0.18661 0.9672 0.0
C770 C 0.56885 0.15535 0.90126 0.0
O771 O 0.50804 0.07474 0.92045 0.0
O772 O 0.53211 0.09289 0.97173 0.0
N773 N 0.51846 0.18925 0.97997 0.0
C774 C 0.49186 0.18238 0.9777 0.0
C775 C 0.4824 0.19655 -0.00039 0.0
C776 C 0.50063 0.21826 0.02249 0.0
C777 C 0.52801 0.22514 0.02396 0.0
C778 C 0.53597 0.20957 0.00265 0.0
H779 H 0.47808 0.16632 0.95919 0.0
O780 O 0.48845 0.10225 0.9748 0.0
O781 O 0.52546 0.14282 0.97163 0.0
O782 O 0.49821 0.1214 0.898 0.0
O783 O 0.50992 0.16441 0.91117 0.0
C784 C 0.54776 0.24676 0.04571 0.0
C785 C 0.57472 0.25173 0.04671 0.0
H786 H 0.62373 0.25305 0.04509 0.0
H787 H 0.63298 0.22144 0.00818 0.0
H788 H 0.46125 0.19115 -0.00174 0.0
H789 H 0.49337 0.22946 0.03884 0.0
H790 H 0.54242 0.25957 0.06193 0.0
H791 H 0.58981 0.26873 0.0628 0.0
Mn792 Mn 0.89905 0.41345 0.94388 0.0
Mn793 Mn 0.83006 0.37475 0.94186 0.0
C794 C 0.87683 0.38079 0.99026 0.0
C795 C 0.93976 0.45195 0.96229 0.0
C796 C 0.86743 0.36595 0.89033 0.0
O797 O 0.88825 0.43528 0.90941 0.0
O798 O 0.84275 0.4093 0.91449 0.0
C799 C 0.81278 0.40868 0.98375 0.0
N800 N 0.81152 0.38437 0.97806 0.0
C801 C 0.77216 0.36114 0.01794 0.0
C802 C 0.77289 0.3859 0.02413 0.0
C803 C 0.79347 0.40982 0.00728 0.0
C804 C 0.79203 0.36131 0.99454 0.0
H805 H 0.82817 0.42691 0.97005 0.0
C806 C 0.86416 0.43061 0.90297 0.0
O807 O 0.93849 0.43776 0.93301 0.0
O808 O 0.91704 0.44463 0.97985 0.0
N809 N 0.81423 0.34057 0.96715 0.0
C810 C 0.81872 0.31938 0.96206 0.0
C811 C 0.80177 0.29454 0.9802 0.0
C812 C 0.78006 0.29162 0.00265 0.0
C813 C 0.7758 0.31374 0.00727 0.0
C814 C 0.79361 0.33808 0.989 0.0
H815 H 0.83506 0.32146 0.94423 0.0
O816 O 0.90212 0.38967 0.9817 0.0
O817 O 0.86451 0.39111 0.97113 0.0
O818 O 0.8902 0.38455 0.90277 0.0
O819 O 0.84467 0.36161 0.90271 0.0
C820 C 0.75481 0.31275 0.0296 0.0
C821 C 0.75273 0.33633 0.03439 0.0
H822 H 0.75797 0.38685 0.0421 0.0
H823 H 0.79421 0.42901 0.01203 0.0
H824 H 0.80522 0.27758 0.97654 0.0
H825 H 0.76693 0.27238 0.01642 0.0
H826 H 0.74033 0.29406 0.04351 0.0
H827 H 0.73648 0.33532 0.05151 0.0
Mn828 Mn 0.59637 0.48016 0.94999 0.0
Mn829 Mn 0.62461 0.44024 0.94597 0.0
C830 C 0.63336 0.49096 0.98924 0.0
C831 C 0.56201 0.48757 0.97363 0.0
C832 C 0.63499 0.48387 0.88841 0.0
O833 O 0.56867 0.44683 0.91975 0.0
O834 O 0.58662 0.4201 0.92861 0.0
C835 C 0.59102 0.39944 0.00331 0.0
N836 N 0.6159 0.41749 0.98902 0.0
C837 C 0.638 0.40033 0.02874 0.0
C838 C 0.61265 0.38159 0.04411 0.0
C839 C 0.58908 0.38138 0.03166 0.0
C840 C 0.63876 0.41866 0.00185 0.0
H841 H 0.57282 0.39862 0.99273 0.0
C842 C 0.56769 0.42397 0.91682 0.0
O843 O 0.57435 0.49832 0.94218 0.0
O844 O 0.56915 0.472 0.99076 0.0
N845 N 0.6617 0.45516 0.9607 0.0
C846 C 0.68437 0.47334 0.94141 0.0
C847 C 0.70973 0.47628 0.95057 0.0
C848 C 0.71135 0.45931 0.97778 0.0
C849 C 0.68758 0.43961 0.99569 0.0
C850 C 0.66302 0.43834 0.98642 0.0
H851 H 0.68318 0.48557 0.91918 0.0
O852 O 0.62536 0.50818 0.98198 0.0
O853 O 0.61837 0.46667 0.97469 0.0
O854 O 0.62239 0.49429 0.90484 0.0
O855 O 0.63522 0.4628 0.90022 0.0
C856 C 0.68723 0.4208 0.02185 0.0
C857 C 0.6625 0.40138 0.03869 0.0
H858 H 0.61102 0.3672 0.06533 0.0
H859 H 0.56943 0.36691 0.04326 0.0
H860 H 0.72788 0.49109 0.93595 0.0
H861 H 0.73086 0.46123 0.9842 0.0
H862 H 0.7059 0.42127 0.0295 0.0
H863 H 0.66255 0.38732 0.05914 0.0
Mn864 Mn 0.55723 0.80571 0.76838 0.0
Mn865 Mn 0.49256 0.79391 0.76851 0.0
C866 C 0.54483 0.82935 0.80997 0.0
C867 C 0.59338 0.80017 0.78829 0.0
C868 C 0.53412 0.82857 0.71073 0.0
O869 O 0.53716 0.76868 0.74283 0.0
O870 O 0.49567 0.76458 0.74228 0.0
C871 C 0.46395 0.74314 0.81292 0.0
N872 N 0.47023 0.76931 0.80682 0.0
C873 C 0.43353 0.7639 0.84669 0.0
C874 C 0.42645 0.73676 0.85301 0.0
C875 C 0.442 0.72648 0.83658 0.0
C876 C 0.45573 0.77955 0.82318 0.0
H877 H 0.47518 0.73487 0.79912 0.0
C878 C 0.51194 0.75577 0.73443 0.0
O879 O 0.5932 0.81008 0.75563 0.0
O880 O 0.57164 0.79176 0.80877 0.0
N881 N 0.48553 0.81984 0.79258 0.0
C882 C 0.49613 0.84679 0.78508 0.0
C883 C 0.48456 0.86098 0.8021 0.0
C884 C 0.46175 0.84709 0.82567 0.0
C885 C 0.45107 0.81925 0.83263 0.0
C886 C 0.46397 0.80643 0.8158 0.0
H887 H 0.51319 0.85728 0.76618 0.0
O888 O 0.56961 0.83937 0.79796 0.0
O889 O 0.52695 0.80554 0.79643 0.0
O890 O 0.55276 0.82389 0.72105 0.0
O891 O 0.51153 0.81921 0.7276 0.0
C892 C 0.42823 0.80372 0.85571 0.0
C893 C 0.41929 0.77599 0.86239 0.0
H894 H 0.40919 0.72365 0.87056 0.0
H895 H 0.43668 0.70558 0.84144 0.0
H896 H 0.4929 0.88244 0.79655 0.0
H897 H 0.45266 0.85801 0.83834 0.0
H898 H 0.41753 0.81293 0.8687 0.0
H899 H 0.40158 0.76425 0.87988 0.0
Mn900 Mn 0.20803 0.75372 0.76185 0.0
Mn901 Mn 0.23382 0.71138 0.76026 0.0
C902 C 0.19272 0.71905 0.80608 0.0
C903 C 0.20866 0.79316 0.78258 0.0
C904 C 0.18885 0.70509 0.70876 0.0
O905 O 0.24166 0.77475 0.72911 0.0
O906 O 0.25679 0.74512 0.73066 0.0
C907 C 0.28535 0.74577 0.801 0.0
N908 N 0.26207 0.72146 0.79628 0.0
C909 C 0.27798 0.69888 0.83733 0.0
C910 C 0.30221 0.72364 0.84265 0.0
C911 C 0.30577 0.74726 0.82475 0.0
C912 C 0.25816 0.69881 0.81412 0.0
H913 H 0.28844 0.76373 0.78633 0.0
C914 C 0.25895 0.76767 0.72023 0.0
O915 O 0.19603 0.78074 0.75208 0.0
O916 O 0.22221 0.78361 0.79967 0.0
N917 N 0.21522 0.6777 0.78688 0.0
C918 C 0.18972 0.6562 0.78156 0.0
C919 C 0.18201 0.63142 0.7997 0.0
C920 C 0.20088 0.62879 0.82214 0.0
C921 C 0.22712 0.65115 0.82686 0.0
C922 C 0.23338 0.67549 0.80886 0.0
H923 H 0.17549 0.65796 0.76348 0.0
O924 O 0.17887 0.73054 0.79665 0.0
O925 O 0.21651 0.72854 0.78958 0.0
O926 O 0.18796 0.72614 0.71912 0.0
O927 O 0.20515 0.69817 0.72236 0.0
C928 C 0.24728 0.65041 0.84899 0.0
C929 C 0.27276 0.67422 0.8539 0.0
H930 H 0.31815 0.72478 0.86051 0.0
H931 H 0.3244 0.76644 0.8287 0.0
H932 H 0.16172 0.61425 0.79587 0.0
H933 H 0.19495 0.60957 0.83578 0.0
H934 H 0.24328 0.63176 0.86276 0.0
H935 H 0.28823 0.67343 0.87052 0.0
Mn936 Mn 0.25971 0.44612 0.77593 0.0
Mn937 Mn 0.27217 0.51019 0.77877 0.0
C938 C 0.29237 0.4756 0.81913 0.0
C939 C 0.22994 0.40056 0.79236 0.0
C940 C 0.29191 0.48685 0.71711 0.0
O941 O 0.23042 0.44715 0.7428 0.0
O942 O 0.23371 0.48498 0.76686 0.0
C943 C 0.23761 0.50799 0.84251 0.0
N944 N 0.2622 0.52001 0.82485 0.0
C945 C 0.27876 0.56007 0.86308 0.0
C946 C 0.2537 0.54813 0.882 0.0
C947 C 0.23317 0.52177 0.87204 0.0
C948 C 0.28251 0.54466 0.83547 0.0
H949 H 0.2214 0.48828 0.83362 0.0
C950 C 0.22192 0.46405 0.74594 0.0
O951 O 0.24517 0.40707 0.7626 0.0
O952 O 0.23181 0.42054 0.81245 0.0
N953 N 0.30841 0.53832 0.78994 0.0
C954 C 0.33111 0.54736 0.76815 0.0
C955 C 0.35367 0.57327 0.77463 0.0
C956 C 0.3521 0.59037 0.80182 0.0
C957 C 0.32819 0.58116 0.82287 0.0
C958 C 0.30688 0.5546 0.81653 0.0
H959 H 0.332 0.53506 0.74573 0.0
O960 O 0.2895 0.45199 0.81127 0.0
O961 O 0.27449 0.48047 0.80359 0.0
O962 O 0.28747 0.46534 0.7342 0.0
O963 O 0.28369 0.50275 0.72928 0.0
C964 C 0.32443 0.59755 0.84932 0.0
C965 C 0.2999 0.58687 0.86984 0.0
H966 H 0.24992 0.55908 0.90393 0.0
H967 H 0.21372 0.51247 0.8863 0.0
H968 H 0.37189 0.58041 0.75781 0.0
H969 H 0.36925 0.61066 0.80595 0.0
H970 H 0.34049 0.61824 0.85458 0.0
H971 H 0.29747 0.59948 0.89059 0.0
Mn972 Mn 0.49167 0.88995 0.05308 0.0
Mn973 Mn 0.46405 0.82132 0.04844 0.0
C974 C 0.5003 0.87034 0.00111 0.0
C975 C 0.49371 0.93169 0.04151 0.0
C976 C 0.51396 0.85735 0.09366 0.0
O977 O 0.46024 0.87699 0.09096 0.0
O978 O 0.44653 0.83243 0.08742 0.0
C979 C 0.40874 0.80663 0.02268 0.0
N980 N 0.43157 0.80468 0.01914 0.0
C981 C 0.40976 0.7681 0.97456 0.0
C982 C 0.38596 0.76966 0.97771 0.0
C983 C 0.38555 0.78919 0.00162 0.0
C984 C 0.43233 0.78628 0.99575 0.0
H985 H 0.40817 0.82116 0.04173 0.0
C986 C 0.44488 0.85234 0.10133 0.0
O987 O 0.50714 0.9287 0.06861 0.0
O988 O 0.47765 0.90997 0.02241 0.0
N989 N 0.47786 0.80616 0.01269 0.0
C990 C 0.50322 0.80936 0.00988 0.0
C991 C 0.50771 0.79267 0.9852 0.0
C992 C 0.48594 0.77241 0.96445 0.0
C993 C 0.45997 0.76939 0.96805 0.0
C994 C 0.45684 0.7869 0.99258 0.0
H995 H 0.51983 0.82456 0.02628 0.0
O996 O 0.5171 0.89517 0.01133 0.0
O997 O 0.47861 0.8568 0.02202 0.0
O998 O 0.51345 0.87938 0.08928 0.0
O999 O 0.49691 0.83492 0.0787 0.0
C1000 C 0.43715 0.74995 0.94792 0.0
C1001 C 0.41204 0.74927 0.9512 0.0
H1002 H 0.36796 0.75608 0.96177 0.0
H1003 H 0.36726 0.79052 0.0042 0.0
H1004 H 0.52783 0.79521 0.98249 0.0
H1005 H 0.48944 0.75949 0.94557 0.0
H1006 H 0.4388 0.73561 0.92961 0.0
H1007 H 0.39471 0.73442 0.93524 0.0
Mn1008 Mn 0.13394 0.59686 0.0397 0.0
Mn1009 Mn 0.2028 0.63569 0.04236 0.0
C1010 C 0.15653 0.62821 0.99193 0.0
C1011 C 0.09296 0.55829 0.02224 0.0
C1012 C 0.16559 0.64806 0.08823 0.0
O1013 O 0.14367 0.57569 0.0765 0.0
O1014 O 0.18888 0.60382 0.07657 0.0
C1015 C 0.21623 0.59561 0.01036 0.0
N1016 N 0.21974 0.62115 0.011 0.0
C1017 C 0.25768 0.63766 0.96845 0.0
C1018 C 0.25463 0.61157 0.96746 0.0
C1019 C 0.23366 0.5904 0.98826 0.0
C1020 C 0.2396 0.64155 0.99071 0.0
H1021 H 0.2004 0.57943 0.0268 0.0
C1022 C 0.16748 0.58228 0.08762 0.0
O1023 O 0.09434 0.57333 0.05054 0.0
O1024 O 0.11568 0.56484 0.00521 0.0
N1025 N 0.22067 0.66734 0.01143 0.0
C1026 C 0.21853 0.69017 0.01171 0.0
C1027 C 0.23669 0.71275 0.99011 0.0
C1028 C 0.25717 0.71179 0.96908 0.0
C1029 C 0.25903 0.68807 0.96937 0.0
C1030 C 0.24027 0.66619 0.99122 0.0
H1031 H 0.20301 0.69103 0.02816 0.0
O1032 O 0.13132 0.61973 0.00033 0.0
O1033 O 0.16876 0.61825 0.01213 0.0
O1034 O 0.14331 0.62688 0.0793 0.0
O1035 O 0.18865 0.65339 0.07542 0.0
C1036 C 0.27837 0.68505 0.94825 0.0
C1037 C 0.27773 0.65986 0.94789 0.0
H1038 H 0.26808 0.6075 0.95054 0.0
H1039 H 0.23109 0.57019 0.98752 0.0
H1040 H 0.23503 0.73092 0.98988 0.0
H1041 H 0.27112 0.72923 0.95242 0.0
H1042 H 0.29347 0.7018 0.93161 0.0
H1043 H 0.29245 0.65762 0.93118 0.0
Mn1044 Mn 0.41646 0.53633 0.0503 0.0
Mn1045 Mn 0.37823 0.5661 0.03974 0.0
C1046 C 0.38231 0.52022 0.00481 0.0
C1047 C 0.45525 0.53385 0.03419 0.0
C1048 C 0.36723 0.52447 0.10003 0.0
O1049 O 0.43881 0.5722 0.07951 0.0
O1050 O 0.41079 0.58868 0.07041 0.0
C1051 C 0.41923 0.61116 0.99308 0.0
N1052 N 0.3934 0.59001 -0.00215 0.0
C1053 C 0.38161 0.59427 0.9346 0.0
C1054 C 0.40799 0.61619 0.92897 0.0
C1055 C 0.42686 0.62476 0.95845 0.0
C1056 C 0.37505 0.58175 0.96981 0.0
H1057 H 0.43404 0.61744 0.01533 0.0
C1058 C 0.43245 0.59065 0.08407 0.0
O1059 O 0.442 0.52316 0.06515 0.0
O1060 O 0.44664 0.54681 0.01376 0.0
N1061 N 0.3459 0.54735 0.01054 0.0
C1062 C 0.32082 0.52708 0.02137 0.0
C1063 C 0.29906 0.51732 0.99594 0.0
C1064 C 0.30336 0.52858 0.95978 0.0
C1065 C 0.32914 0.5501 0.94995 0.0
C1066 C 0.34969 0.55966 0.97692 0.0
H1067 H 0.31746 0.51842 0.04915 0.0
O1068 O 0.39184 0.50516 0.01681 0.0
O1069 O 0.39342 0.54457 0.01912 0.0
O1070 O 0.38751 0.52116 0.09273 0.0
O1071 O 0.36174 0.54058 0.082 0.0
C1072 C 0.33555 0.56184 0.91405 0.0
C1073 C 0.36182 0.58381 0.90627 0.0
H1074 H 0.41402 0.62647 0.9021 0.0
H1075 H 0.44733 0.64157 0.95434 0.0
H1076 H 0.27917 0.50093 0.004 0.0
H1077 H 0.28677 0.52056 0.93979 0.0
H1078 H 0.32068 0.55323 0.89203 0.0
H1079 H 0.36692 0.59233 0.87837 0.0
Mn1080 Mn 0.10493 0.51658 0.56305 0.0
Mn1081 Mn 0.17239 0.56103 0.55794 0.0
C1082 C 0.13094 0.51064 0.51727 0.0
C1083 C 0.06061 0.5056 0.54759 0.0
C1084 C 0.1467 0.51595 0.61605 0.0
O1085 O 0.10981 0.54866 0.59558 0.0
O1086 O 0.15388 0.5782 0.58351 0.0
C1087 C 0.16826 0.59906 0.50551 0.0
N1088 N 0.17912 0.5832 0.51464 0.0
C1089 C 0.20256 0.59259 0.45565 0.0
C1090 C 0.19228 0.60963 0.44594 0.0
C1091 C 0.175 0.61284 0.47101 0.0
C1092 C 0.19552 0.57974 0.49061 0.0
H1093 H 0.15416 0.60076 0.52404 0.0
C1094 C 0.13089 0.5723 0.59765 0.0
O1095 O 0.06555 0.49521 0.5769 0.0
O1096 O 0.08141 0.52245 0.52759 0.0
N1097 N 0.19361 0.54796 0.53356 0.0
C1098 C 0.20149 0.53047 0.54684 0.0
C1099 C 0.21901 0.52516 0.52516 0.0
C1100 C 0.22823 0.53789 0.49014 0.0
C1101 C 0.22031 0.55628 0.47761 0.0
C1102 C 0.20363 0.56149 0.50097 0.0
H1103 H 0.19447 0.52062 0.5737 0.0
O1104 O 0.10709 0.49075 0.52637 0.0
O1105 O 0.13848 0.53355 0.53445 0.0
O1106 O 0.12231 0.50482 0.60397 0.0
O1107 O 0.16652 0.53777 0.60246 0.0
C1108 C 0.22738 0.56878 0.44218 0.0
C1109 C 0.21846 0.58688 0.43122 0.0
H1110 H 0.19711 0.61992 0.41904 0.0
H1111 H 0.16655 0.62555 0.46352 0.0
H1112 H 0.22512 0.51105 0.5352 0.0
H1113 H 0.24117 0.53325 0.47299 0.0
H1114 H 0.23841 0.56343 0.42259 0.0
H1115 H 0.22292 0.59559 0.40349 0.0
Mn1116 Mn 0.46933 0.59088 0.5416 0.0
Mn1117 Mn 0.42565 0.61402 0.53832 0.0
C1118 C 0.47715 0.62484 0.49793 0.0
C1119 C 0.47861 0.55658 0.52369 0.0
C1120 C 0.46842 0.62923 0.59916 0.0
O1121 O 0.43678 0.564 0.57371 0.0
O1122 O 0.40643 0.57575 0.55507 0.0
C1123 C 0.38961 0.58009 0.47671 0.0
N1124 N 0.40532 0.60488 0.49289 0.0
C1125 C 0.38826 0.62598 0.45118 0.0
C1126 C 0.37235 0.60086 0.43328 0.0
C1127 C 0.37324 0.57785 0.44585 0.0
C1128 C 0.40569 0.62732 0.47975 0.0
H1129 H 0.38951 0.56227 0.48752 0.0
C1130 C 0.4126 0.56008 0.57278 0.0
O1131 O 0.48935 0.57115 0.55365 0.0
O1132 O 0.46243 0.56184 0.50452 0.0
N1133 N 0.44023 0.651 0.52312 0.0
C1134 C 0.45801 0.67397 0.54208 0.0
C1135 C 0.45874 0.69856 0.53448 0.0
C1136 C 0.44053 0.69911 0.50843 0.0
C1137 C 0.4227 0.67535 0.48876 0.0
C1138 C 0.4235 0.65164 0.49673 0.0
H1139 H 0.47093 0.67343 0.56375 0.0
O1140 O 0.496 0.6193 0.50665 0.0
O1141 O 0.45367 0.60911 0.51354 0.0
O1142 O 0.48175 0.61922 0.58373 0.0
O1143 O 0.44576 0.62539 0.5864 0.0
C1144 C 0.40383 0.67412 0.46197 0.0
C1145 C 0.38712 0.6496 0.44245 0.0
H1146 H 0.35936 0.59904 0.40997 0.0
H1147 H 0.36087 0.55834 0.43239 0.0
H1148 H 0.47263 0.71684 0.54965 0.0
H1149 H 0.44057 0.71795 0.50352 0.0
H1150 H 0.40262 0.69209 0.45534 0.0
H1151 H 0.37335 0.64908 0.42107 0.0
Mn1152 Mn 0.42323 0.87829 0.52811 0.0
Mn1153 Mn 0.41139 0.81426 0.52812 0.0
C1154 C 0.39114 0.84682 0.48717 0.0
C1155 C 0.4518 0.92259 0.5058 0.0
C1156 C 0.38933 0.83689 0.5877 0.0
O1157 O 0.45426 0.88029 0.55904 0.0
O1158 O 0.44853 0.83882 0.54769 0.0
C1159 C 0.45148 0.81848 0.47132 0.0
N1160 N 0.42529 0.80665 0.4837 0.0
C1161 C 0.41035 0.77175 0.43653 0.0
C1162 C 0.43714 0.78358 0.42312 0.0
C1163 C 0.45775 0.80721 0.44036 0.0
C1164 C 0.40516 0.78453 0.46647 0.0
H1165 H 0.46748 0.83615 0.4853 0.0
C1166 C 0.46208 0.86287 0.56121 0.0
O1167 O 0.43764 0.91831 0.53643 0.0
O1168 O 0.44911 0.90132 0.48858 0.0
N1169 N 0.37631 0.78781 0.51003 0.0
C1170 C 0.3517 0.77864 0.52699 0.0
C1171 C 0.32909 0.75458 0.51422 0.0
C1172 C 0.33216 0.73983 0.48484 0.0
C1173 C 0.35759 0.74988 0.46733 0.0
C1174 C 0.37928 0.77426 0.48083 0.0
H1175 H 0.34944 0.78916 0.55076 0.0
O1176 O 0.39194 0.86959 0.49451 0.0
O1177 O 0.41025 0.84394 0.50255 0.0
O1178 O 0.39672 0.85994 0.5724 0.0
O1179 O 0.39569 0.81979 0.57467 0.0
C1180 C 0.36253 0.73614 0.43804 0.0
C1181 C 0.38877 0.74732 0.4222 0.0
H1182 H 0.44216 0.77453 0.39987 0.0
H1183 H 0.4785 0.81636 0.43033 0.0
H1184 H 0.30953 0.74694 0.5278 0.0
H1185 H 0.3149 0.72059 0.47644 0.0
H1186 H 0.3463 0.71697 0.42741 0.0
H1187 H 0.39223 0.73669 0.39948 0.0
Mn1188 Mn 0.21048 0.47096 0.2914 0.0
Mn1189 Mn 0.25817 0.53646 0.30154 0.0
C1190 C 0.20155 0.49746 0.33276 0.0
C1191 C 0.19672 0.42625 0.3099 0.0
C1192 C 0.21995 0.51387 0.23434 0.0
O1193 O 0.24395 0.4746 0.26404 0.0
O1194 O 0.27549 0.5151 0.28656 0.0
C1195 C 0.28678 0.53112 0.36742 0.0
N1196 N 0.27472 0.54356 0.3498 0.0
C1197 C 0.29012 0.57837 0.39701 0.0
C1198 C 0.3023 0.56573 0.41621 0.0
C1199 C 0.30042 0.54183 0.40151 0.0
C1200 C 0.27525 0.56567 0.36462 0.0
H1201 H 0.28602 0.51325 0.35541 0.0
C1202 C 0.26863 0.49338 0.26799 0.0
O1203 O 0.18892 0.43116 0.27799 0.0
O1204 O 0.21262 0.44716 0.33017 0.0
N1205 N 0.24621 0.56125 0.31567 0.0
C1206 C 0.2325 0.57034 0.29436 0.0
C1207 C 0.23271 0.59432 0.30466 0.0
C1208 C 0.24807 0.60943 0.33571 0.0
C1209 C 0.26248 0.60002 0.35684 0.0
C1210 C 0.26076 0.57551 0.34595 0.0
H1211 H 0.22186 0.55967 0.26928 0.0
O1212 O 0.18245 0.47383 0.32157 0.0
O1213 O 0.22593 0.50418 0.32122 0.0
O1214 O 0.20385 0.49005 0.24718 0.0
O1215 O 0.24182 0.53127 0.25094 0.0
C1216 C 0.27872 0.61414 0.38809 0.0
C1217 C 0.29213 0.60307 0.40859 0.0
H1218 H 0.31318 0.5742 0.44218 0.0
H1219 H 0.30986 0.53201 0.41605 0.0
H1220 H 0.22172 0.60157 0.28804 0.0
H1221 H 0.24864 0.62823 0.3431 0.0
H1222 H 0.28047 0.63318 0.39713 0.0
H1223 H 0.30389 0.61367 0.43318 0.0
Mn1224 Mn 0.57213 0.7511 0.27534 0.0
Mn1225 Mn 0.50696 0.73543 0.28433 0.0
C1226 C 0.54521 0.72148 0.32299 0.0
C1227 C 0.61806 0.78105 0.28921 0.0
C1228 C 0.52697 0.71217 0.22322 0.0
O1229 O 0.56961 0.78004 0.24325 0.0
O1230 O 0.5281 0.77177 0.26136 0.0
C1231 C 0.51421 0.77699 0.34047 0.0
N1232 N 0.50228 0.75042 0.32977 0.0
C1233 C 0.47892 0.7355 0.38874 0.0
C1234 C 0.4905 0.76269 0.40022 0.0
C1235 C 0.50825 0.78355 0.37594 0.0
C1236 C 0.48527 0.7302 0.35293 0.0
H1237 H 0.5284 0.79303 0.32228 0.0
C1238 C 0.55087 0.78631 0.24473 0.0
O1239 O 0.61093 0.76538 0.25982 0.0
O1240 O 0.59858 0.77972 0.3098 0.0
N1241 N 0.48411 0.70065 0.30661 0.0
C1242 C 0.47464 0.67541 0.29146 0.0
C1243 C 0.45638 0.65232 0.31208 0.0
C1244 C 0.44809 0.65542 0.34801 0.0
C1245 C 0.45792 0.68163 0.36272 0.0
C1246 C 0.47534 0.70388 0.34044 0.0
H1247 H 0.48088 0.67282 0.26385 0.0
O1248 O 0.56755 0.72235 0.31269 0.0
O1249 O 0.53987 0.73831 0.30566 0.0
O1250 O 0.55116 0.72159 0.23552 0.0
O1251 O 0.51008 0.71842 0.23736 0.0
C1252 C 0.45179 0.6865 0.39906 0.0
C1253 C 0.4621 0.71341 0.41195 0.0
H1254 H 0.48619 0.76776 0.42778 0.0
H1255 H 0.51754 0.8046 0.3847 0.0
H1256 H 0.44891 0.63219 0.30045 0.0
H1257 H 0.43444 0.63758 0.36424 0.0
H1258 H 0.43992 0.66954 0.41744 0.0
H1259 H 0.45755 0.71719 0.43989 0.0
Mn1260 Mn 0.26861 0.81948 0.26863 0.0
Mn1261 Mn 0.27742 0.76509 0.27538 0.0
C1262 C 0.2932 0.81615 0.31848 0.0
C1263 C 0.24064 0.83802 0.28199 0.0
C1264 C 0.31145 0.81327 0.2236 0.0
O1265 O 0.24126 0.7928 0.2305 0.0
O1266 O 0.24675 0.75691 0.24157 0.0
C1267 C 0.2257 0.72973 0.31539 0.0
N1268 N 0.2533 0.74172 0.31342 0.0
C1269 C 0.2548 0.72138 0.37181 0.0
C1270 C 0.22637 0.70839 0.37414 0.0
C1271 C 0.21177 0.71276 0.34592 0.0
C1272 C 0.26759 0.73834 0.34096 0.0
H1273 H 0.21443 0.73323 0.29397 0.0
C1274 C 0.23478 0.76804 0.22542 0.0
O1275 O 0.25843 0.84771 0.25492 0.0
O1276 O 0.23886 0.81753 0.30029 0.0
N1277 N 0.30611 0.76893 0.3073 0.0
C1278 C 0.33333 0.78188 0.29998 0.0
C1279 C 0.35084 0.77941 0.32531 0.0
C1280 C 0.34012 0.76317 0.35745 0.0
C1281 C 0.31194 0.74918 0.36361 0.0
C1282 C 0.29552 0.75242 0.33742 0.0
H1283 H 0.34171 0.79434 0.27534 0.0
O1284 O 0.29516 0.83928 0.31019 0.0
O1285 O 0.27611 0.79553 0.29847 0.0
O1286 O 0.30038 0.82746 0.2324 0.0
O1287 O 0.30352 0.78946 0.23693 0.0
C1288 C 0.29945 0.73168 0.39428 0.0
C1289 C 0.27097 0.71805 0.39873 0.0
H1290 H 0.21556 0.69513 0.39753 0.0
H1291 H 0.18984 0.70304 0.34767 0.0
H1292 H 0.37254 0.79006 0.32015 0.0
H1293 H 0.35372 0.7615 0.37698 0.0
H1294 H 0.31152 0.72824 0.41423 0.0
H1295 H 0.26171 0.70479 0.42267 0.0
H1296 H 0.18237 0.04012 0.09017 0.0
H1297 H 0.24345 0.10448 0.02184 0.0
H1298 H 0.24271 0.07084 0.97802 0.0
H1299 H 0.21814 0.02384 0.95342 0.0
H1300 H 0.15576 0.96012 0.02072 0.0
H1301 H 0.16433 0.99247 0.07147 0.0
C1302 C 0.19594 0.04674 0.06611 0.0
C1303 C 0.21254 0.07473 0.05881 0.0
C1304 C 0.19527 0.02731 0.04099 0.0
C1305 C 0.23038 0.08305 0.02793 0.0
C1306 C 0.22988 0.06381 0.00279 0.0
C1307 C 0.20742 0.0169 0.97996 0.0
C1308 C 0.18652 0.98968 0.9836 0.0
C1309 C 0.21159 0.03595 0.00824 0.0
C1310 C 0.17231 0.98089 0.01771 0.0
C1311 C 0.17685 0.99951 0.0464 0.0
H1312 H 0.93048 0.13449 0.03036 0.0
H1313 H 0.95178 0.07452 0.06473 0.0
H1314 H 0.99567 0.10019 0.03506 0.0
H1315 H 0.0263 0.13634 0.99376 0.0
H1316 H 1.00577 0.19511 0.95312 0.0
H1317 H 0.9641 0.17402 0.99159 0.0
C1318 C 0.94482 0.12721 0.03152 0.0
C1319 C 0.93738 0.10227 0.04952 0.0
C1320 C 0.97041 0.142 0.01342 0.0
C1321 C 0.95644 0.09331 0.05082 0.0
C1322 C 0.9818 0.10808 0.03394 0.0
C1323 C 0.01304 0.14499 0.99405 0.0
C1324 C 0.01906 0.16718 0.97072 0.0
C1325 C 0.98874 0.13201 0.0145 0.0
C1326 C 1.00176 0.17822 0.9713 0.0
C1327 C 0.9777 0.16584 0.9928 0.0
H1328 H 0.85463 0.88861 -0.00191 0.0
H1329 H 0.81381 0.81073 0.94262 0.0
H1330 H 0.83625 0.79376 0.98437 0.0
H1331 H 0.87277 0.80366 0.03087 0.0
H1332 H 0.91326 0.88263 0.08444 0.0
H1333 H 0.88567 0.8963 0.04955 0.0
C1334 C 0.85013 0.86769 0.99577 0.0
C1335 C 0.83278 0.85103 0.96727 0.0
C1336 C 0.86349 0.85836 0.01918 0.0
C1337 C 0.82697 0.82391 0.96462 0.0
C1338 C 0.84007 0.81432 0.98819 0.0
C1339 C 0.8752 0.82365 0.03529 0.0
C1340 C 0.8956 0.8422 0.05969 0.0
C1341 C 0.85922 0.83172 0.01468 0.0
C1342 C 0.89823 0.868 0.06532 0.0
C1343 C 0.88237 0.87594 0.04542 0.0
H1344 H 0.96614 0.14661 0.48465 0.0
H1345 H 0.00955 0.22066 0.54831 0.0
H1346 H 0.04817 0.23716 0.50469 0.0
H1347 H 0.07252 0.22608 0.45584 0.0
H1348 H 0.02875 0.1499 0.3959 0.0
H1349 H 0.98751 0.13876 0.43035 0.0
C1350 C 0.9836 0.1669 0.48789 0.0
C1351 C 0.98501 0.18251 0.51932 0.0
C1352 C 1.00606 0.17548 0.46396 0.0
C1353 C 0.00783 0.20854 0.52383 0.0
C1354 C 0.03012 0.21769 0.4993 0.0
C1355 C 0.05382 0.20732 0.44982 0.0
C1356 C 0.05399 0.18861 0.42385 0.0
C1357 C 0.03 0.20068 0.47041 0.0
C1358 C 0.02947 0.16445 0.41626 0.0
C1359 C 1.00575 0.15805 0.43586 0.0
H1360 H 0.81381 0.86593 0.45708 0.0
H1361 H 0.89723 0.92931 0.43883 0.0
H1362 H 0.91328 0.90449 0.47551 0.0
H1363 H 0.90434 0.86683 0.51615 0.0
H1364 H 0.82183 0.80322 0.53718 0.0
H1365 H 0.80495 0.82568 0.49531 0.0
C1366 C 0.83547 0.87424 0.46105 0.0
C1367 C 0.85411 0.89974 0.4455 0.0
C1368 C 0.84488 0.85976 0.4825 0.0
C1369 C 0.88219 0.90998 0.45069 0.0
C1370 C 0.89155 0.89574 0.47163 0.0
C1371 C 0.88264 0.85763 0.51129 0.0
C1372 C 0.8644 0.83353 0.53 0.0
C1373 C 0.87313 0.8709 0.48809 0.0
C1374 C 0.83637 0.82174 0.52298 0.0
C1375 C 0.82668 0.83473 0.49934 0.0
H1376 H 0.14564 0.94101 0.46398 0.0
H1377 H 0.08548 0.96028 0.4238 0.0
H1378 H 0.10737 1.00285 0.4576 0.0
H1379 H 0.13986 0.03233 0.50409 0.0
H1380 H 0.19944 0.01417 0.54814 0.0
H1381 H 0.18219 0.97417 0.50675 0.0
C1382 C 0.13754 0.95467 0.46237 0.0
C1383 C 0.11354 0.94694 0.4418 0.0
C1384 C 0.1502 0.9795 0.48251 0.0
C1385 C 0.10353 0.96515 0.43984 0.0
C1386 C 0.11612 0.98973 0.45908 0.0
C1387 C 0.14955 0.02 0.50387 0.0
C1388 C 0.17083 0.02611 0.52896 0.0
C1389 C 0.13895 0.99677 0.48121 0.0
C1390 C 0.18324 0.01004 0.5286 0.0
C1391 C 0.17307 0.98694 0.50536 0.0
H1392 H 0.79423 0.97768 0.04261 0.0
H1393 H 0.85122 0.04522 0.97506 0.0
H1394 H 0.8413 0.01493 0.92109 0.0
H1395 H 0.82499 0.96809 0.8991 0.0
H1396 H 0.76917 0.90031 0.96773 0.0
H1397 H 0.76959 0.93172 0.01511 0.0
C1398 C 0.80341 0.9859 0.0155 0.0
C1399 C 0.82341 0.01354 0.01264 0.0
C1400 C 0.79834 0.96814 0.98516 0.0
C1401 C 0.83546 0.02408 0.97765 0.0
C1402 C 0.83015 0.00664 0.94702 0.0
C1403 C 0.81226 0.96023 0.92391 0.0
C1404 C 0.79753 0.93194 0.93033 0.0
C1405 C 0.81295 0.97843 0.95127 0.0
C1406 C 0.78079 0.92197 0.96224 0.0
C1407 C 0.78119 0.93995 0.98949 0.0
H1408 H 0.0268 0.83395 0.04884 0.0
H1409 H 0.97078 0.84797 0.98499 0.0
H1410 H 1.00524 0.87122 0.93629 0.0
H1411 H 0.05345 0.89421 0.91777 0.0
H1412 H 0.1098 0.8803 0.98138 0.0
H1413 H 0.0732 0.85025 0.02414 0.0
C1414 C 0.02185 0.84097 0.02336 0.0
C1415 C 0.99625 0.83889 0.01999 0.0
C1416 C 0.04208 0.85501 0.99601 0.0
C1417 C 0.9902 0.84883 0.98757 0.0
C1418 C 0.01004 0.8625 0.96007 0.0
C1419 C 0.05758 0.88419 0.9406 0.0
C1420 C 0.08434 0.88978 0.94679 0.0
C1421 C 0.03641 0.86681 0.96489 0.0
C1422 C 0.08937 0.87637 0.97612 0.0
C1423 C 0.06846 0.85925 0.00065 0.0
H1424 H 0.1439 0.20858 0.96816 0.0
H1425 H 0.11571 0.13494 0.9031 0.0
H1426 H 0.14571 0.12399 0.93743 0.0
H1427 H 0.17453 0.13133 0.99176 0.0
H1428 H 0.20268 0.2036 0.05886 0.0
H1429 H 0.17893 0.21944 0.01748 0.0
C1430 C 0.14469 0.19041 0.96109 0.0
C1431 C 0.12695 0.17234 0.93361 0.0
C1432 C 0.16206 0.18394 0.98135 0.0
C1433 C 0.12854 0.14899 0.92463 0.0
C1434 C 0.14583 0.14268 0.94417 0.0
C1435 C 0.17625 0.15103 0.99647 0.0
C1436 C 0.19034 0.16633 0.02809 0.0
C1437 C 0.16192 0.15945 0.97339 0.0
C1438 C 0.1923 0.1917 0.03425 0.0
C1439 C 0.17832 0.2005 0.01095 0.0
H1440 H 0.97983 0.82786 0.59124 0.0
H1441 H 0.91416 0.7701 0.52132 0.0
H1442 H 0.94663 0.77524 0.47254 0.0
H1443 H 0.99231 0.803 0.44525 0.0
H1444 H 0.05795 0.86111 0.51427 0.0
H1445 H 0.02712 0.84852 0.56826 0.0
C1446 C 0.97269 0.81588 0.56571 0.0
C1447 C 0.94453 0.79906 0.55964 0.0
C1448 C 0.99151 0.8191 0.53754 0.0
C1449 C 0.93566 0.78332 0.52669 0.0
C1450 C 0.95423 0.78637 0.49862 0.0
C1451 C 1.00004 0.81198 0.47258 0.0
C1452 C 0.02728 0.83283 0.47599 0.0
C1453 C 0.98202 0.80513 0.50307 0.0
C1454 C 0.03714 0.84467 0.51128 0.0
C1455 C 0.01939 0.83778 0.54194 0.0
H1456 H 0.11989 0.16813 0.50066 0.0
H1457 H 0.19673 0.20601 0.44269 0.0
H1458 H 0.21415 0.18508 0.4866 0.0
H1459 H 0.20442 0.1499 0.53526 0.0
H1460 H 0.12641 0.11206 0.59153 0.0
H1461 H 0.11278 0.13913 0.55498 0.0
C1462 C 0.14082 0.17266 0.49869 0.0
C1463 C 0.15715 0.18879 0.46897 0.0
C1464 C 0.15028 0.15994 0.52323 0.0
C1465 C 0.18405 0.19414 0.46599 0.0
C1466 C 0.1938 0.18177 0.49071 0.0
C1467 C 0.18465 0.14794 0.53996 0.0
C1468 C 0.1663 0.12834 0.56557 0.0
C1469 C 0.17667 0.16366 0.51849 0.0
C1470 C 0.14084 0.12639 0.57149 0.0
C1471 C 0.13295 0.14199 0.55066 0.0
H1472 H 0.88502 0.04741 0.5813 0.0
H1473 H 0.88289 0.10758 0.50996 0.0
H1474 H 0.85683 0.07269 0.46306 0.0
H1475 H 0.84096 0.02652 0.43848 0.0
H1476 H 0.84175 0.966 0.51017 0.0
H1477 H 0.86138 0.99927 0.56122 0.0
C1478 C 0.87834 0.05271 0.5558 0.0
C1479 C 0.88617 0.08004 0.5488 0.0
C1480 C 0.86309 0.03246 0.52909 0.0
C1481 C 0.87712 0.08667 0.51593 0.0
C1482 C 0.86233 0.06675 0.48902 0.0
C1483 C 0.8444 0.02044 0.46585 0.0
C1484 C 0.83971 0.99393 0.47095 0.0
C1485 C 0.85598 0.03977 0.49477 0.0
C1486 C 0.84472 0.98622 0.50609 0.0
C1487 C 0.85631 0.00534 0.53502 0.0
H1488 H 0.81964 0.30213 0.34747 0.0
H1489 H 0.88836 0.34892 0.27537 0.0
H1490 H 0.90214 0.38946 0.31398 0.0
H1491 H 0.8878 0.4135 0.35906 0.0
H1492 H 0.81617 0.36566 0.42688 0.0
H1493 H 0.81059 0.3241 0.39978 0.0
C1494 C 0.83855 0.32081 0.34165 0.0
C1495 C 0.853 0.32258 0.30886 0.0
C1496 C 0.84521 0.34434 0.3625 0.0
C1497 C 0.87711 0.34702 0.3009 0.0
C1498 C 0.88462 0.3704 0.3225 0.0
C1499 C 0.87139 0.39395 0.36844 0.0
C1500 C 0.85208 0.3929 0.3943 0.0
C1501 C 0.86774 0.36969 0.35189 0.0
C1502 C 0.83104 0.36729 0.40641 0.0
C1503 C 0.8278 0.34333 0.39102 0.0
H1504 H 0.64881 0.47193 0.42706 0.0
H1505 H 0.58531 0.47945 0.37196 0.0
H1506 H 0.61796 0.5092 0.32455 0.0
H1507 H 0.66265 0.5265 0.29316 0.0
H1508 H 0.72404 0.51452 0.34567 0.0
H1509 H 0.69432 0.49336 0.39997 0.0
C1510 C 0.6421 0.4804 0.40506 0.0
C1511 C 0.61448 0.47301 0.40271 0.0
C1512 C 0.66069 0.4966 0.37727 0.0
C1513 C 0.60638 0.48464 0.37439 0.0
C1514 C 0.62502 0.50151 0.34709 0.0
C1515 C 0.66968 0.51999 0.31713 0.0
C1516 C 0.69544 0.52218 0.31592 0.0
C1517 C 0.65195 0.50671 0.34741 0.0
C1518 C 0.70436 0.51325 0.34649 0.0
C1519 C 0.6873 0.50098 0.37729 0.0
H1520 H 0.5347 0.12204 0.36583 0.0
H1521 H 0.55463 0.18834 0.44268 0.0
H1522 H 0.52429 0.19962 0.40947 0.0
H1523 H 0.5007 0.19717 0.35095 0.0
H1524 H 0.48265 0.13298 0.2719 0.0
H1525 H 0.50267 0.11376 0.31396 0.0
C1526 C 0.53181 0.13845 0.3759 0.0
C1527 C 0.54757 0.15482 0.40597 0.0
C1528 C 0.51462 0.14527 0.35613 0.0
C1529 C 0.54334 0.17585 0.41894 0.0
C1530 C 0.52591 0.18232 0.40003 0.0
C1531 C 0.49984 0.17813 0.34403 0.0
C1532 C 0.49013 0.16632 0.30877 0.0
C1533 C 0.51259 0.1681 0.36749 0.0
C1534 C 0.48967 0.14208 0.29934 0.0
C1535 C 0.50158 0.13141 0.32308 0.0
H1536 H 0.6344 0.46348 0.82015 0.0
H1537 H 0.67799 0.53537 0.88808 0.0
H1538 H 0.71703 0.55278 0.84521 0.0
H1539 H 0.74125 0.54319 0.79472 0.0
H1540 H 0.69624 0.47089 0.72698 0.0
H1541 H 0.65533 0.45836 0.76291 0.0
C1542 C 0.65206 0.48345 0.82461 0.0
C1543 C 0.65343 0.49822 0.85691 0.0
C1544 C 0.67445 0.49301 0.80029 0.0
C1545 C 0.67643 0.52392 0.86292 0.0
C1546 C 0.69888 0.53365 0.83872 0.0
C1547 C 0.72237 0.52505 0.78727 0.0
C1548 C 0.72221 0.50765 0.75886 0.0
C1549 C 0.69858 0.51775 0.80823 0.0
C1550 C 0.69733 0.4844 0.74929 0.0
C1551 C 0.67377 0.47714 0.7698 0.0
H1552 H 0.43911 0.19504 0.81228 0.0
H1553 H 0.4945 0.20032 0.72514 0.0
H1554 H 0.50306 0.16807 0.75822 0.0
H1555 H 0.50295 0.14688 0.81822 0.0
H1556 H 0.44919 0.14247 0.90668 0.0
H1557 H 0.43137 0.16494 0.86684 0.0
C1558 C 0.45229 0.18839 0.79998 0.0
C1559 C 0.46658 0.20062 0.76671 0.0
C1560 C 0.45771 0.17008 0.81972 0.0
C1561 C 0.48359 0.19169 0.75109 0.0
C1562 C 0.48859 0.1732 0.77003 0.0
C1563 C 0.4863 0.14953 0.82793 0.0
C1564 C 0.47737 0.14308 0.86518 0.0
C1565 C 0.47692 0.1634 0.8053 0.0
C1566 C 0.45627 0.14721 0.87792 0.0
C1567 C 0.44633 0.1604 0.8553 0.0
H1568 H 0.85962 0.37125 0.81786 0.0
H1569 H 0.86789 0.31862 0.89667 0.0
H1570 H 0.84203 0.27956 0.85512 0.0
H1571 H 0.80824 0.25935 0.8037 0.0
H1572 H 0.79786 0.31284 0.72825 0.0
H1573 H 0.83338 0.35237 0.7605 0.0
C1574 C 0.85704 0.35148 0.82482 0.0
C1575 C 0.86575 0.34774 0.8599 0.0
C1576 C 0.84086 0.32901 0.80184 0.0
C1577 C 0.86172 0.32198 0.86936 0.0
C1578 C 0.84645 0.29955 0.84593 0.0
C1579 C 0.81432 0.27966 0.79378 0.0
C1580 C 0.79994 0.2831 0.7642 0.0
C1581 C 0.83447 0.30258 0.81321 0.0
C1582 C 0.80814 0.30957 0.75149 0.0
C1583 C 0.82855 0.33227 0.76986 0.0
H1584 H 0.56695 0.36792 0.34821 0.0
H1585 H 0.48626 0.34313 0.38862 0.0
H1586 H 0.46733 0.30336 0.34686 0.0
H1587 H 0.47477 0.27291 0.30376 0.0
H1588 H 0.55675 0.29903 0.26635 0.0
H1589 H 0.57385 0.34059 0.30205 0.0
C1590 C 0.54514 0.35408 0.34747 0.0
C1591 C 0.5281 0.3584 0.37165 0.0
C1592 C 0.53459 0.33107 0.32431 0.0
C1593 C 0.49985 0.34039 0.37008 0.0
C1594 C 0.48906 0.31746 0.34651 0.0
C1595 C 0.4963 0.28781 0.30321 0.0
C1596 C 0.51436 0.28234 0.2828 0.0
C1597 C 0.50637 0.31211 0.3243 0.0
C1598 C 0.54224 0.30215 0.28222 0.0
C1599 C 0.55219 0.32616 0.30257 0.0
H1600 H 0.74321 0.19847 0.28914 0.0
H1601 H 0.72479 0.26159 0.26123 0.0
H1602 H 0.68164 0.23709 0.29352 0.0
H1603 H 0.65092 0.20055 0.33488 0.0
H1604 H 0.66825 0.13749 0.36577 0.0
H1605 H 0.70922 0.15855 0.32628 0.0
C1606 C 0.72967 0.20675 0.28992 0.0
C1607 C 0.73779 0.23225 0.27324 0.0
C1608 C 0.70442 0.19245 0.30889 0.0
C1609 C 0.71965 0.24237 0.27425 0.0
C1610 C 0.69471 0.22829 0.29262 0.0
C1611 C 0.6633 0.19101 0.3323 0.0
C1612 C 0.65656 0.16755 0.35333 0.0
C1613 C 0.68716 0.20368 0.3107 0.0
C1614 C 0.67277 0.1554 0.34955 0.0
C1615 C 0.69647 0.1677 0.32741 0.0
H1616 H 0.82652 0.46807 0.30649 0.0
H1617 H 0.85252 0.52972 0.39204 0.0
H1618 H 0.83631 0.55484 0.35457 0.0
H1619 H 0.80804 0.55506 0.30161 0.0
H1620 H 0.78525 0.49456 0.21441 0.0
H1621 H 0.80754 0.47388 0.24758 0.0
C1622 C 0.82936 0.48743 0.31625 0.0
C1623 C 0.84054 0.49705 0.35181 0.0
C1624 C 0.82034 0.50194 0.29435 0.0
C1625 C 0.84415 0.52212 0.36443 0.0
C1626 C 0.83467 0.53637 0.34317 0.0
C1627 C 0.80877 0.53796 0.28929 0.0
C1628 C 0.79428 0.52598 0.25609 0.0
C1629 C 0.82181 0.52596 0.3086 0.0
C1630 C 0.79565 0.50387 0.24041 0.0
C1631 C 0.80834 0.49187 0.25941 0.0
H1632 H 0.59373 0.12879 0.86764 0.0
H1633 H 0.60516 0.2088 0.89041 0.0
H1634 H 0.64922 0.22982 0.86117 0.0
H1635 H 0.68381 0.22675 0.82607 0.0
H1636 H 0.67341 0.14843 0.79672 0.0
H1637 H 0.63068 0.12588 0.83266 0.0
C1638 C 0.60583 0.15078 0.86605 0.0
C1639 C 0.59555 0.16689 0.88118 0.0
C1640 C 0.63177 0.16329 0.84846 0.0
C1641 C 0.61191 0.19549 0.87897 0.0
C1642 C 0.63746 0.20778 0.86235 0.0
C1643 C 0.6725 0.2047 0.8279 0.0
C1644 C 0.68189 0.18941 0.80854 0.0
C1645 C 0.64748 0.19198 0.84676 0.0
C1646 C 0.66691 0.16084 0.81162 0.0
C1647 C 0.64219 0.14791 0.8317 0.0
H1648 H 0.81877 0.43446 0.9024 0.0
H1649 H 0.89971 0.47154 0.85547 0.0
H1650 H 0.88957 0.50058 0.81566 0.0
H1651 H 0.85556 0.51128 0.78921 0.0
H1652 H 0.77417 0.47125 0.83448 0.0
H1653 H 0.78679 0.44781 0.88069 0.0
C1654 C 0.83438 0.44899 0.88369 0.0
C1655 C 0.85983 0.45045 0.88145 0.0
C1656 C 0.8283 0.46518 0.86078 0.0
C1657 C 0.87989 0.46983 0.85754 0.0
C1658 C 0.87406 0.48639 0.83475 0.0
C1659 C 0.84096 0.49808 0.81007 0.0
C1660 C 0.81408 0.4931 0.80895 0.0
C1661 C 0.84809 0.48376 0.8355 0.0
C1662 C 0.795 0.47546 0.83524 0.0
C1663 C 0.80215 0.46192 0.86136 0.0
H1664 H 0.55451 0.37117 0.91885 0.0
H1665 H 0.53071 0.42477 0.86732 0.0
H1666 H 0.50052 0.38811 0.82452 0.0
H1667 H 0.48612 0.34278 0.79606 0.0
H1668 H 0.51423 0.29194 0.84491 0.0
H1669 H 0.53745 0.32548 0.89454 0.0
C1670 C 0.5425 0.37488 0.8986 0.0
C1671 C 0.54525 0.40092 0.896 0.0
C1672 C 0.52607 0.35413 0.87337 0.0
C1673 C 0.52909 0.40502 0.86996 0.0
C1674 C 0.51198 0.38408 0.84527 0.0
C1675 C 0.49671 0.33884 0.81828 0.0
C1676 C 0.49832 0.31488 0.81725 0.0
C1677 C 0.51101 0.35883 0.84589 0.0
C1678 C 0.51262 0.31017 0.84546 0.0
C1679 C 0.52599 0.32939 0.87366 0.0
H1680 H 0.44263 0.64577 0.64707 0.0
H1681 H 0.52223 0.65836 0.62021 0.0
H1682 H 0.54304 0.69799 0.66199 0.0
H1683 H 0.53868 0.73203 0.70072 0.0
H1684 H 0.45834 0.71901 0.72453 0.0
H1685 H 0.438 0.67687 0.68916 0.0
C1686 C 0.46454 0.65689 0.65071 0.0
C1687 C 0.48081 0.6492 0.63022 0.0
C1688 C 0.47635 0.67998 0.67377 0.0
C1689 C 0.50915 0.66373 0.6357 0.0
C1690 C 0.5211 0.68659 0.65931 0.0
C1691 C 0.51673 0.71985 0.69843 0.0
C1692 C 0.5002 0.7291 0.71485 0.0
C1693 C 0.50493 0.69542 0.6776 0.0
C1694 C 0.47173 0.71284 0.71175 0.0
C1695 C 0.45997 0.68856 0.69161 0.0
H1696 H 0.34747 0.84648 0.60261 0.0
H1697 H 0.3881 0.80505 0.64488 0.0
H1698 H 0.35199 0.78112 0.6909 0.0
H1699 H 0.30691 0.76841 0.71488 0.0
H1700 H 0.26511 0.80882 0.67324 0.0
H1701 H 0.30353 0.83667 0.63144 0.0
C1702 C 0.34872 0.83277 0.62259 0.0
C1703 C 0.37045 0.82754 0.62026 0.0
C1704 C 0.32741 0.81847 0.64863 0.0
C1705 C 0.37158 0.80938 0.646 0.0
C1706 C 0.35085 0.79555 0.67221 0.0
C1707 C 0.30617 0.78338 0.6968 0.0
C1708 C 0.28292 0.78618 0.69684 0.0
C1709 C 0.32828 0.79929 0.67299 0.0
C1710 C 0.28265 0.80609 0.67368 0.0
C1711 C 0.30464 0.82202 0.64972 0.0
H1712 H 0.15926 0.47608 0.60981 0.0
H1713 H 0.14921 0.52718 0.69017 0.0
H1714 H 0.16695 0.51078 0.7401 0.0
H1715 H 0.19094 0.48704 0.75851 0.0
H1716 H 0.20477 0.43864 0.67749 0.0
H1717 H 0.17905 0.44793 0.63046 0.0
C1718 C 0.16045 0.48305 0.63851 0.0
C1719 C 0.15297 0.50268 0.64668 0.0
C1720 C 0.17135 0.47402 0.66678 0.0
C1721 C 0.15478 0.51196 0.68359 0.0
C1722 C 0.16497 0.50265 0.71199 0.0
C1723 C 0.18783 0.47797 0.7308 0.0
C1724 C 0.20005 0.46241 0.72142 0.0
C1725 C 0.17411 0.48437 0.70362 0.0
C1726 C 0.19552 0.45058 0.68554 0.0
C1727 C 0.18112 0.45621 0.65849 0.0
H1728 H 0.41488 0.87756 0.11669 0.0
H1729 H 0.42472 0.80968 0.1487 0.0
H1730 H 0.38415 0.79148 0.18738 0.0
H1731 H 0.34466 0.79284 0.20935 0.0
H1732 H 0.33416 0.86102 0.18215 0.0
H1733 H 0.37572 0.88064 0.14377 0.0
C1734 C 0.40839 0.85911 0.13274 0.0
C1735 C 0.42286 0.84496 0.12948 0.0
C1736 C 0.38458 0.84842 0.15518 0.0
C1737 C 0.41397 0.82091 0.1503 0.0
C1738 C 0.39064 0.81036 0.1724 0.0
C1739 C 0.35135 0.81213 0.1954 0.0
C1740 C 0.33604 0.8253 0.19883 0.0
C1741 C 0.37552 0.8236 0.17445 0.0
C1742 C 0.34535 0.85025 0.18005 0.0
C1743 C 0.36924 0.86157 0.1582 0.0
H1744 H 0.21407 0.58172 0.10043 0.0
H1745 H 0.12956 0.54174 0.13329 0.0
H1746 H 0.13754 0.51416 0.17886 0.0
H1747 H 0.16976 0.50433 0.21303 0.0
H1748 H 0.25425 0.54601 0.18009 0.0
H1749 H 0.24492 0.56965 0.13041 0.0
C1750 C 0.19728 0.56695 0.11745 0.0
C1751 C 0.17133 0.56415 0.11381 0.0
C1752 C 0.20202 0.55133 0.14346 0.0
C1753 C 0.14979 0.54448 0.13566 0.0
C1754 C 0.15435 0.5287 0.16173 0.0
C1755 C 0.1859 0.51806 0.19429 0.0
C1756 C 0.21266 0.5234 0.2001 0.0
C1757 C 0.18051 0.53226 0.16631 0.0
C1758 C 0.23353 0.5416 0.17612 0.0
C1759 C 0.22824 0.55524 0.14786 0.0
H1760 H 0.48659 0.70101 0.17431 0.0
H1761 H 0.54302 0.67493 0.2063 0.0
H1762 H 0.51963 0.63509 0.16501 0.0
H1763 H 0.48026 0.60557 0.12337 0.0
H1764 H 0.42491 0.63385 0.093 0.0
H1765 H 0.45062 0.67443 0.12998 0.0
C1766 C 0.49405 0.68682 0.17194 0.0
C1767 C 0.51643 0.69091 0.1935 0.0
C1768 C 0.48037 0.66394 0.14867 0.0
C1769 C 0.52593 0.6724 0.18979 0.0
C1770 C 0.51237 0.64945 0.16643 0.0
C1771 C 0.47395 0.62068 0.1247 0.0
C1772 C 0.45023 0.61606 0.10565 0.0
C1773 C 0.48909 0.64462 0.14631 0.0
C1774 C 0.44268 0.63623 0.10756 0.0
C1775 C 0.45747 0.65973 0.12872 0.0
H1776 H 0.15524 0.62514 0.57773 0.0
H1777 H 0.10529 0.56936 0.66433 0.0
H1778 H 0.11407 0.60786 0.70499 0.0
H1779 H 0.14332 0.6568 0.71955 0.0
H1780 H 0.19521 0.71164 0.6336 0.0
H1781 H 0.17743 0.67426 0.58819 0.0
C1782 C 0.14564 0.62137 0.60509 0.0
C1783 C 0.12998 0.59448 0.61829 0.0
C1784 C 0.15114 0.64352 0.62828 0.0
C1785 C 0.11743 0.58988 0.65363 0.0
C1786 C 0.12262 0.6119 0.67692 0.0
C1787 C 0.14985 0.66064 0.69045 0.0
C1788 C 0.17044 0.68682 0.67969 0.0
C1789 C 0.14044 0.63876 0.66511 0.0
C1790 C 0.17903 0.69173 0.64217 0.0
C1791 C 0.1692 0.67025 0.61646 0.0
H1792 H 0.33827 0.4852 0.70396 0.0
H1793 H 0.28353 0.50801 0.65403 0.0
H1794 H 0.3146 0.52866 0.60106 0.0
H1795 H 0.35922 0.54508 0.57342 0.0
H1796 H 0.41678 0.52701 0.62589 0.0
H1797 H 0.38247 0.49901 0.67282 0.0
C1798 C 0.33296 0.49415 0.68097 0.0
C1799 C 0.30869 0.49512 0.68271 0.0
C1800 C 0.35151 0.50699 0.65129 0.0
C1801 C 0.30215 0.50714 0.65322 0.0
C1802 C 0.31992 0.51897 0.62302 0.0
C1803 C 0.36432 0.53478 0.59476 0.0
C1804 C 0.39079 0.53856 0.59634 0.0
C1805 C 0.34499 0.51978 0.62242 0.0
C1806 C 0.39667 0.52462 0.62399 0.0
C1807 C 0.37709 0.50875 0.65103 0.0
H1808 H 0.53046 0.87351 0.7014 0.0
H1809 H 0.54013 0.81314 0.64102 0.0
H1810 H 0.52256 0.82278 0.58394 0.0
H1811 H 0.49414 0.84 0.55724 0.0
H1812 H 0.48289 0.89908 0.61911 0.0
H1813 H 0.51188 0.89885 0.66929 0.0
C1814 C 0.5299 0.86345 0.67521 0.0
C1815 C 0.53631 0.84257 0.6752 0.0
C1816 C 0.51883 0.8684 0.64309 0.0
C1817 C 0.53552 0.82949 0.6414 0.0
C1818 C 0.52502 0.83468 0.60898 0.0
C1819 C 0.49869 0.85341 0.58122 0.0
C1820 C 0.48577 0.86894 0.58498 0.0
C1821 C 0.51498 0.85278 0.61033 0.0
C1822 C 0.49232 0.8867 0.61572 0.0
C1823 C 0.50877 0.88645 0.64458 0.0
H1824 H 0.26397 0.46824 0.20099 0.0
H1825 H 0.32263 0.51835 0.28467 0.0
H1826 H 0.35975 0.52893 0.24089 0.0
H1827 H 0.37485 0.53089 0.17527 0.0
H1828 H 0.31597 0.48304 0.09085 0.0
H1829 H 0.27981 0.4644 0.13816 0.0
C1830 C 0.2849 0.48067 0.21007 0.0
C1831 C 0.29047 0.49271 0.24591 0.0
C1832 C 0.30618 0.4875 0.18423 0.0
C1833 C 0.31776 0.50901 0.2571 0.0
C1834 C 0.33903 0.51522 0.23199 0.0
C1835 C 0.35425 0.51566 0.16768 0.0
C1836 C 0.34791 0.50827 0.12987 0.0
C1837 C 0.33343 0.50565 0.19493 0.0
C1838 C 0.32115 0.48894 0.11994 0.0
C1839 C 0.30049 0.47839 0.14694 0.0
H1840 H 0.57174 0.80483 0.17468 0.0
H1841 H 0.53514 0.82129 0.26985 0.0
H1842 H 0.52576 0.85121 0.23199 0.0
H1843 H 0.51854 0.86399 0.16895 0.0
H1844 H 0.55309 0.84603 0.07302 0.0
H1845 H 0.57311 0.82614 0.11361 0.0
C1846 C 0.56272 0.81584 0.18737 0.0
C1847 C 0.55378 0.8105 0.22484 0.0
C1848 C 0.55654 0.83249 0.16497 0.0
C1849 C 0.5419 0.82476 0.24092 0.0
C1850 C 0.5364 0.84184 0.21921 0.0
C1851 C 0.53156 0.85691 0.15726 0.0
C1852 C 0.53423 0.85627 0.11819 0.0
C1853 C 0.54224 0.84464 0.18074 0.0
C1854 C 0.55066 0.84654 0.10312 0.0
C1855 C 0.56195 0.83498 0.12631 0.0
H1856 H 0.194 0.71624 0.23364 0.0
H1857 H 0.23075 0.78172 0.15345 0.0
H1858 H 0.20743 0.74953 0.10215 0.0
H1859 H 0.18458 0.7019 0.08023 0.0
H1860 H 0.14868 0.63651 0.16056 0.0
H1861 H 0.16306 0.66952 0.21205 0.0
C1862 C 0.19612 0.72357 0.20505 0.0
C1863 C 0.21424 0.75119 0.19714 0.0
C1864 C 0.18307 0.70489 0.17585 0.0
C1865 C 0.21678 0.76056 0.16012 0.0
C1866 C 0.20371 0.7421 0.1308 0.0
C1867 C 0.1792 0.69497 0.10896 0.0
C1868 C 0.16589 0.66693 0.11685 0.0
C1869 C 0.18798 0.71407 0.13827 0.0
C1870 C 0.15876 0.65802 0.154 0.0
C1871 C 0.16726 0.67689 0.18338 0.0
H1872 H 0.12757 0.16542 0.28502 0.0
H1873 H 0.20562 0.23313 0.31549 0.0
H1874 H 0.226 0.22483 0.26103 0.0
H1875 H 0.22197 0.19809 0.20564 0.0
H1876 H 0.15384 0.1177 0.19897 0.0
H1877 H 0.12788 0.1298 0.24216 0.0
C1878 C 0.14929 0.17674 0.28213 0.0
C1879 C 0.16483 0.19891 0.30608 0.0
C1880 C 0.16199 0.1699 0.25342 0.0
C1881 C 0.19282 0.2156 0.29822 0.0
C1882 C 0.20468 0.21092 0.26697 0.0
C1883 C 0.20138 0.18291 0.21338 0.0
C1884 C 0.18765 0.15797 0.19376 0.0
C1885 C 0.18944 0.18807 0.24444 0.0
C1886 C 0.16226 0.13828 0.20752 0.0
C1887 C 0.14843 0.14487 0.23449 0.0
H1888 H 0.7926 0.97979 0.30278 0.0
H1889 H 0.85886 0.96464 0.29011 0.0
H1890 H 0.87593 0.99507 0.23616 0.0
H1891 H 0.87026 0.02527 0.19183 0.0
H1892 H 0.79195 0.01919 0.18487 0.0
H1893 H 0.7802 0.99776 0.24696 0.0
C1894 C 0.81075 0.98308 0.2881 0.0
C1895 C 0.82732 0.97367 0.30376 0.0
C1896 C 0.81716 0.99588 0.2527 0.0
C1897 C 0.84885 0.97565 0.2822 0.0
C1898 C 0.85761 0.99177 0.25014 0.0
C1899 C 0.8498 0.01718 0.20192 0.0
C1900 C 0.83161 0.0223 0.18217 0.0
C1901 C 0.84186 1.00199 0.23511 0.0
C1902 C 0.80625 0.01481 0.19879 0.0
C1903 C 0.79947 1.00255 0.23432 0.0
H1904 H 0.99294 0.79493 0.19155 0.0
H1905 H 0.97703 0.86066 0.20202 0.0
H1906 H 0.01126 0.88152 0.25101 0.0
H1907 H 0.04293 0.87793 0.29488 0.0
H1908 H 0.03786 0.80029 0.30709 0.0
H1909 H 0.01427 0.78574 0.24662 0.0
C1910 C 0.9969 0.81381 0.20466 0.0
C1911 C 0.98601 0.82914 0.18893 0.0
C1912 C 0.01173 0.82219 0.23853 0.0
C1913 C 0.98915 0.85172 0.20889 0.0
C1914 C 0.00737 0.86252 0.23861 0.0
C1915 C 0.0349 0.85716 0.2861 0.0
C1916 C 0.04062 0.83982 0.3071 0.0
C1917 C 0.01852 0.8477 0.25404 0.0
C1918 C 0.03298 0.81393 0.29228 0.0
C1919 C 0.01946 0.80555 0.25768 0.0
H1920 H 0.87914 0.81497 0.73032 0.0
H1921 H 0.83161 0.82932 0.64939 0.0
H1922 H 0.82017 0.85329 0.69683 0.0
H1923 H 0.82039 0.86652 0.76248 0.0
H1924 H 0.85913 0.84287 0.84576 0.0
H1925 H 0.87895 0.82796 0.79667 0.0
C1926 C 0.86678 0.82391 0.72312 0.0
C1927 C 0.85709 0.82151 0.68625 0.0
C1928 C 0.85934 0.8366 0.751 0.0
C1929 C 0.83987 0.83175 0.67744 0.0
C1930 C 0.83332 0.84537 0.70453 0.0
C1931 C 0.83412 0.85913 0.76959 0.0
C1932 C 0.84004 0.8577 0.80749 0.0
C1933 C 0.84275 0.84772 0.74148 0.0
C1934 C 0.8562 0.8463 0.81673 0.0
C1935 C 0.86672 0.83687 0.78864 0.0
H1936 H 0.2194 0.03582 0.69569 0.0
H1937 H 0.15233 0.04889 0.7125 0.0
H1938 H 0.13518 0.01593 0.76392 0.0
H1939 H 0.14169 0.98363 0.80475 0.0
H1940 H 0.22189 0.99385 0.80876 0.0
H1941 H 0.23267 0.01735 0.74881 0.0
C1942 C 0.20093 0.03146 0.71047 0.0
C1943 C 0.18417 0.0411 0.6963 0.0
C1944 C 0.19471 0.01739 0.74477 0.0
C1945 C 0.16217 0.03746 0.71833 0.0
C1946 C 0.15353 0.01998 0.74928 0.0
C1947 C 0.16224 0.99314 0.79489 0.0
C1948 C 0.18105 0.98802 0.81308 0.0
C1949 C 0.16977 0.00977 0.76282 0.0
C1950 C 0.2068 0.99768 0.79617 0.0
C1951 C 0.21313 0.0112 0.7617 0.0
H1952 H 0.97611 0.13734 0.69765 0.0
H1953 H 0.98237 0.2159 0.69352 0.0
H1954 H 1.00648 0.2279 0.75288 0.0
H1955 H 0.02685 0.2164 0.80533 0.0
H1956 H 0.04355 0.15173 0.78841 0.0
H1957 H 0.00993 0.13285 0.73799 0.0
C1958 C 0.98489 0.15786 0.70732 0.0
C1959 C 0.97849 0.17582 0.68924 0.0
C1960 C 1.00187 0.16623 0.73907 0.0
C1961 C 0.98717 0.20144 0.70602 0.0
C1962 C 1.00105 0.20848 0.74015 0.0
C1963 C 0.02317 0.19809 0.79076 0.0
C1964 C 0.03419 0.18246 0.80468 0.0
C1965 C 0.00858 0.19101 0.75689 0.0
C1966 C 0.03123 0.16063 0.78288 0.0
C1967 C 0.01333 0.15105 0.75244 0.0
H1968 H 0.8037 0.52264 0.60882 0.0
H1969 H 0.85964 0.50888 0.67335 0.0
H1970 H 0.87127 0.49166 0.61713 0.0
H1971 H 0.86472 0.47985 0.54981 0.0
H1972 H 0.81521 0.50134 0.48362 0.0
H1973 H 0.80059 0.51496 0.54018 0.0
C1974 C 0.81834 0.51573 0.6104 0.0
C1975 C 0.83008 0.51589 0.64514 0.0
C1976 C 0.82539 0.50661 0.57785 0.0
C1977 C 0.8499 0.50815 0.64692 0.0
C1978 C 0.85653 0.49837 0.61484 0.0
C1979 C 0.85016 0.48687 0.54807 0.0
C1980 C 0.83899 0.48723 0.51302 0.0
C1981 C 0.84403 0.49708 0.58031 0.0
C1982 C 0.82179 0.49822 0.51055 0.0
C1983 C 0.81431 0.50701 0.54282 0.0
H1984 H 0.48132 0.28487 0.61506 0.0
H1985 H 0.49328 0.34975 0.68955 0.0
H1986 H 0.5187 0.38337 0.64052 0.0
H1987 H 0.53576 0.39408 0.5756 0.0
H1988 H 0.51684 0.32883 0.49823 0.0
H1989 H 0.49746 0.29566 0.54921 0.0
C1990 C 0.48982 0.30643 0.62051 0.0
C1991 C 0.48637 0.31506 0.65614 0.0
C1992 C 0.50381 0.32553 0.59183 0.0
C1993 C 0.49628 0.34283 0.66253 0.0
C1994 C 0.51084 0.362 0.63456 0.0
C1995 C 0.52838 0.37267 0.57035 0.0
C1996 C 0.52973 0.3641 0.53371 0.0
C1997 C 0.51484 0.3536 0.59915 0.0
C1998 C 0.51827 0.33615 0.52663 0.0
C1999 C 0.50623 0.3171 0.55562 0.0
H2000 H 0.6176 0.14942 0.55296 0.0
H2001 H 0.68651 0.15887 0.48968 0.0
H2002 H 0.71614 0.17996 0.54429 0.0
H2003 H 0.72213 0.19584 0.60983 0.0
H2004 H 0.65186 0.17881 0.67577 0.0
H2005 H 0.62304 0.16196 0.6201 0.0
C2006 C 0.63916 0.15622 0.5513 0.0
C2007 C 0.65029 0.15363 0.51735 0.0
C2008 C 0.65575 0.16765 0.58293 0.0
C2009 C 0.67786 0.16135 0.51551 0.0
C2010 C 0.69469 0.17337 0.54662 0.0
C2011 C 0.70061 0.1892 0.61157 0.0
C2012 C 0.68943 0.1908 0.64611 0.0
C2013 C 0.6839 0.177 0.58026 0.0
C2014 C 0.6613 0.18032 0.64888 0.0
C2015 C 0.64469 0.16966 0.61728 0.0
H2016 H 0.53479 0.16565 0.03784 0.0
H2017 H 0.4529 0.09965 0.02358 0.0
H2018 H 0.44047 0.1098 0.08503 0.0
H2019 H 0.45267 0.14001 0.14091 0.0
H2020 H 0.52542 0.21762 0.13397 0.0
H2021 H 0.54337 0.20082 0.08495 0.0
C2022 C 0.51386 0.15453 0.04692 0.0
C2023 C 0.49453 0.13317 0.02492 0.0
C2024 C 0.50603 0.16235 0.07979 0.0
C2025 C 0.46806 0.11692 0.03934 0.0
C2026 C 0.46091 0.12272 0.07443 0.0
C2027 C 0.47244 0.15336 0.1285 0.0
C2028 C 0.49008 0.17886 0.14505 0.0
C2029 C 0.47965 0.14585 0.09454 0.0
C2030 C 0.51411 0.19656 0.12621 0.0
C2031 C 0.52341 0.18744 0.09651 0.0
H2032 H 0.89895 0.35643 0.0315 0.0
H2033 H 0.83423 0.3743 0.03319 0.0
H2034 H 0.81101 0.34079 0.08283 0.0
H2035 H 0.81184 0.30823 0.12854 0.0
H2036 H 0.88837 0.3123 0.14847 0.0
H2037 H 0.90561 0.33571 0.08861 0.0
C2038 C 0.87978 0.3531 0.04282 0.0
C2039 C 0.86557 0.36424 0.02468 0.0
C2040 C 0.86989 0.33876 0.07667 0.0
C2041 C 0.8425 0.36196 0.04223 0.0
C2042 C 0.83028 0.34416 0.07219 0.0
C2043 C 0.83294 0.3162 0.1217 0.0
C2044 C 0.84909 0.30998 0.14445 0.0
C2045 C 0.84398 0.3326 0.08989 0.0
C2046 C 0.87555 0.31746 0.13213 0.0
C2047 C 0.88548 0.33086 0.09789 0.0
H2048 H 0.62047 0.49499 0.06018 0.0
H2049 H 0.68773 0.50783 0.99062 0.0
H2050 H 0.71861 0.52621 0.04396 0.0
H2051 H 0.7266 0.54011 0.11082 0.0
H2052 H 0.66083 0.53506 0.17739 0.0
H2053 H 0.62938 0.51371 0.12459 0.0
C2054 C 0.64179 0.50107 0.0571 0.0
C2055 C 0.65131 0.49727 0.02227 0.0
C2056 C 0.65979 0.51424 0.08711 0.0
C2057 C 0.6793 0.50736 0.01787 0.0
C2058 C 0.69717 0.51908 0.04814 0.0
C2059 C 0.70536 0.53436 0.11359 0.0
C2060 C 0.69568 0.5382 0.14816 0.0
C2061 C 0.68763 0.52262 0.08293 0.0
C2062 C 0.66848 0.53173 0.1512 0.0
C2063 C 0.65055 0.51948 0.12108 0.0
H2064 H 0.54644 0.89174 0.95826 0.0
H2065 H 0.46179 0.83094 0.9566 0.0
H2066 H 0.46958 0.80826 0.90352 0.0
H2067 H 0.50202 0.80624 0.85858 0.0
H2068 H 0.57911 0.87892 0.84118 0.0
H2069 H 0.57383 0.8971 0.90093 0.0
C2070 C 0.5296 0.87365 0.94603 0.0
C2071 C 0.50419 0.8604 0.96442 0.0
C2072 C 0.53316 0.86364 0.91157 0.0
C2073 C 0.48218 0.83885 0.94605 0.0
C2074 C 0.48643 0.82669 0.91473 0.0
C2075 C 0.51653 0.82695 0.86578 0.0
C2076 C 0.53997 0.84161 0.84388 0.0
C2077 C 0.51199 0.8388 0.89747 0.0
C2078 C 0.56037 0.86728 0.85683 0.0
C2079 C 0.5574 0.87777 0.891 0.0
H2080 H 0.22061 0.70307 0.85382 0.0
H2081 H 0.14241 0.69618 0.83622 0.0
H2082 H 0.12615 0.67173 0.89496 0.0
H2083 H 0.134 0.65182 0.95102 0.0
H2084 H 0.19971 0.63536 0.94815 0.0
H2085 H 0.22209 0.66919 0.89813 0.0
C2086 C 0.1994 0.6942 0.86069 0.0
C2087 C 0.1827 0.70052 0.83905 0.0
C2088 C 0.18866 0.67687 0.89201 0.0
C2089 C 0.15592 0.69146 0.85168 0.0
C2090 C 0.14644 0.67737 0.88537 0.0
C2091 C 0.1532 0.65542 0.93942 0.0
C2092 C 0.16779 0.64461 0.95723 0.0
C2093 C 0.16267 0.66995 0.90575 0.0
C2094 C 0.19092 0.64732 0.93916 0.0
C2095 C 0.20273 0.66537 0.90908 0.0
H2096 H 0.38895 0.53959 0.93341 0.0
H2097 H 0.33127 0.47695 0.0069 0.0
H2098 H 0.2973 0.45957 0.95662 0.0
H2099 H 0.28392 0.46233 0.89179 0.0
H2100 H 0.34358 0.51998 0.81549 0.0
H2101 H 0.37648 0.54006 0.86662 0.0
C2102 C 0.36882 0.5223 0.93833 0.0
C2103 C 0.36204 0.51024 0.97418 0.0
C2104 C 0.34963 0.51201 0.90891 0.0
C2105 C 0.33651 0.487 0.97982 0.0
C2106 C 0.31714 0.47707 0.95109 0.0
C2107 C 0.30389 0.47986 0.88673 0.0
C2108 C 0.31056 0.49126 0.85051 0.0
C2109 C 0.32333 0.48967 0.9157 0.0
C2110 C 0.33709 0.51261 0.84367 0.0
C2111 C 0.35624 0.52339 0.87274 0.0
H2112 H 0.14462 0.53597 0.44945 0.0
H2113 H 0.1504 0.47589 0.51609 0.0
H2114 H 0.17674 0.46978 0.46628 0.0
H2115 H 0.19771 0.4812 0.40358 0.0
H2116 H 0.18642 0.53612 0.33316 0.0
H2117 H 0.16376 0.54564 0.38476 0.0
C2118 C 0.15191 0.52175 0.453 0.0
C2119 C 0.14666 0.50717 0.48685 0.0
C2120 C 0.16653 0.51793 0.42382 0.0
C2121 C 0.15493 0.48781 0.49061 0.0
C2122 C 0.16997 0.48436 0.46218 0.0
C2123 C 0.19117 0.49604 0.40013 0.0
C2124 C 0.19547 0.50947 0.36548 0.0
C2125 C 0.17623 0.49959 0.42891 0.0
C2126 C 0.18522 0.52716 0.36036 0.0
C2127 C 0.17143 0.53185 0.38952 0.0
H2128 H 0.50002 0.67954 0.48648 0.0
H2129 H 0.46446 0.60224 0.42974 0.0
H2130 H 0.48407 0.62506 0.37014 0.0
H2131 H 0.51478 0.66702 0.33509 0.0
H2132 H 0.54522 0.74469 0.38935 0.0
H2133 H 0.52455 0.72203 0.44895 0.0
C2134 C 0.49563 0.66786 0.46074 0.0
C2135 C 0.48042 0.6393 0.46228 0.0
C2136 C 0.50677 0.68121 0.42636 0.0
C2137 C 0.47556 0.62429 0.42897 0.0
C2138 C 0.48723 0.6373 0.39504 0.0
C2139 C 0.51655 0.67887 0.35993 0.0
C2140 C 0.53124 0.70738 0.35796 0.0
C2141 C 0.50349 0.66571 0.39357 0.0
C2142 C 0.53374 0.72266 0.3903 0.0
C2143 C 0.52191 0.70972 0.42431 0.0
H2144 H 0.33677 0.81285 0.47906 0.0
H2145 H 0.41295 0.85076 0.41917 0.0
H2146 H 0.38906 0.84496 0.35987 0.0
H2147 H 0.34707 0.83606 0.32726 0.0
H2148 H 0.27015 0.79172 0.38447 0.0
H2149 H 0.29358 0.79317 0.44304 0.0
C2150 C 0.34793 0.81851 0.45276 0.0
C2151 C 0.3765 0.83213 0.45325 0.0
C2152 C 0.33399 0.81478 0.41869 0.0
C2153 C 0.3909 0.83987 0.41921 0.0
C2154 C 0.3773 0.83705 0.38545 0.0
C2155 C 0.3355 0.82621 0.35242 0.0
C2156 C 0.30707 0.81377 0.35185 0.0
C2157 C 0.34898 0.82576 0.38519 0.0
C2158 C 0.29212 0.80122 0.38446 0.0
C2159 C 0.30548 0.80201 0.41781 0.0
H2160 H 0.32426 0.195 0.11643 0.0
H2161 H 0.28248 0.13712 0.20538 0.0
H2162 H 0.32585 0.14885 0.23411 0.0
H2163 H 0.37549 0.17448 0.23352 0.0
H2164 H 0.41814 0.23133 0.144 0.0
H2165 H 0.37465 0.22137 0.11633 0.0
C2166 C 0.32467 0.18495 0.14207 0.0
C2167 C 0.30007 0.16511 0.1586 0.0
C2168 C 0.34984 0.19174 0.15854 0.0
C2169 C 0.30102 0.15235 0.1919 0.0
C2170 C 0.32585 0.1591 0.20847 0.0
C2171 C 0.37536 0.18498 0.20818 0.0
C2172 C 0.40009 0.20375 0.19098 0.0
C2173 C 0.35036 0.17869 0.19202 0.0
C2174 C 0.39942 0.2169 0.15794 0.0
C2175 C 0.37454 0.2111 0.14199 0.0
H2176 H 0.84775 0.1988 0.22715 0.0
H2177 H 0.79063 0.18784 0.1398 0.0
H2178 H 0.80061 0.1558 0.10766 0.0
H2179 H 0.8262 0.13156 0.10353 0.0
H2180 H 0.88326 0.14226 0.19079 0.0
H2181 H 0.87302 0.17405 0.22337 0.0
C2182 C 0.8372 0.18912 0.20135 0.0
C2183 C 0.81832 0.19562 0.18606 0.0
C2184 C 0.84339 0.17102 0.18261 0.0
C2185 C 0.80513 0.18313 0.15233 0.0
C2186 C 0.81096 0.16492 0.13377 0.0
C2187 C 0.83663 0.14106 0.12947 0.0
C2188 C 0.85568 0.1347 0.14449 0.0
C2189 C 0.83029 0.15896 0.1484 0.0
C2190 C 0.86867 0.14693 0.17844 0.0
C2191 C 0.8627 0.16499 0.19722 0.0
H2192 H 0.81139 0.63143 0.14202 0.0
H2193 H 0.80882 0.65687 0.25545 0.0
H2194 H 0.84175 0.70393 0.23903 0.0
H2195 H 0.87162 0.7382 0.19227 0.0
H2196 H 0.87397 0.71233 0.07897 0.0
H2197 H 0.84082 0.66551 0.09541 0.0
C2198 C 0.81813 0.64723 0.16323 0.0
C2199 C 0.80766 0.64048 0.19998 0.0
C2200 C 0.83698 0.67438 0.15352 0.0
C2201 C 0.81655 0.66136 0.22696 0.0
C2202 C 0.83536 0.68836 0.21756 0.0
C2203 C 0.86469 0.72235 0.17112 0.0
C2204 C 0.87531 0.72893 0.13438 0.0
C2205 C 0.84569 0.69519 0.18087 0.0
C2206 C 0.86622 0.70799 0.10746 0.0
C2207 C 0.84725 0.6811 0.11685 0.0
H2208 H 0.16235 0.37711 0.27612 0.0
H2209 H 0.21115 0.41266 0.3753 0.0
H2210 H 0.19719 0.36765 0.39986 0.0
H2211 H 0.17201 0.31824 0.39327 0.0
H2212 H 0.12357 0.28165 0.29432 0.0
H2213 H 0.13624 0.32679 0.26995 0.0
C2214 C 0.16991 0.37496 0.30307 0.0
C2215 C 0.18786 0.39835 0.32368 0.0
C2216 C 0.16177 0.34877 0.31727 0.0
C2217 C 0.19739 0.39513 0.35866 0.0
C2218 C 0.18938 0.36933 0.37287 0.0
C2219 C 0.16401 0.32006 0.36649 0.0
C2220 C 0.14682 0.29655 0.34574 0.0
C2221 C 0.17165 0.34603 0.35245 0.0
C2222 C 0.1368 0.2994 0.31097 0.0
C2223 C 0.14412 0.32524 0.29693 0.0
H2224 H 0.63749 0.80533 0.3564 0.0
H2225 H 0.66362 0.79717 0.24574 0.0
H2226 H 0.71115 0.82804 0.26328 0.0
H2227 H 0.74518 0.85904 0.30968 0.0
H2228 H 0.71799 0.86583 0.42046 0.0
H2229 H 0.67118 0.83362 0.40337 0.0
C2230 C 0.65356 0.81028 0.33605 0.0
C2231 C 0.64697 0.79918 0.29968 0.0
C2232 C 0.68075 0.82775 0.34645 0.0
C2233 C 0.66812 0.80553 0.27388 0.0
C2234 C 0.6953 0.82318 0.28392 0.0
C2235 C 0.72905 0.85316 0.33021 0.0
C2236 C 0.73519 0.86499 0.3663 0.0
C2237 C 0.70188 0.8346 0.3201 0.0
C2238 C 0.71396 0.85717 0.39248 0.0
C2239 C 0.68709 0.83879 0.3827 0.0
H2240 H 0.22026 0.83684 0.35057 0.0
H2241 H 0.22225 0.86538 0.23797 0.0
H2242 H 0.19007 0.88044 0.25628 0.0
H2243 H 0.15866 0.88226 0.30401 0.0
H2244 H 0.15907 0.85447 0.41672 0.0
H2245 H 0.19316 0.84274 0.39875 0.0
C2246 C 0.21378 0.8465 0.33001 0.0
C2247 C 0.22331 0.84964 0.29285 0.0
C2248 C 0.19565 0.85527 0.34084 0.0
C2249 C 0.21512 0.86265 0.26675 0.0
C2250 C 0.19667 0.87118 0.27723 0.0
C2251 C 0.16657 0.87407 0.32473 0.0
C2252 C 0.15599 0.86902 0.36164 0.0
C2253 C 0.18642 0.86719 0.31415 0.0
C2254 C 0.16655 0.8584 0.38808 0.0
C2255 C 0.18607 0.85158 0.37784 0.0
H2256 H 0.69501 0.81317 0.87862 0.0
H2257 H 0.73547 0.85694 0.77767 0.0
H2258 H 0.69179 0.84446 0.74939 0.0
H2259 H 0.64258 0.82364 0.7543 0.0
H2260 H 0.6013 0.78171 0.85576 0.0
H2261 H 0.64468 0.79054 0.88257 0.0
C2262 C 0.6942 0.81978 0.85036 0.0
C2263 C 0.71854 0.83611 0.83041 0.0
C2264 C 0.66886 0.81283 0.83429 0.0
C2265 C 0.71713 0.84456 0.79381 0.0
C2266 C 0.69213 0.83738 0.77753 0.0
C2267 C 0.64292 0.81606 0.78211 0.0
C2268 C 0.61868 0.80201 0.80296 0.0
C2269 C 0.66793 0.82185 0.79765 0.0
C2270 C 0.61964 0.79252 0.83904 0.0
C2271 C 0.64448 0.7977 0.85446 0.0
H2272 H 0.17338 0.81004 0.7617 0.0
H2273 H 0.23579 0.82508 0.84263 0.0
H2274 H 0.22712 0.85793 0.87505 0.0
H2275 H 0.2011 0.88167 0.8814 0.0
H2276 H 0.13862 0.86658 0.8006 0.0
H2277 H 0.1478 0.8343 0.76752 0.0
C2278 C 0.18531 0.82074 0.78616 0.0
C2279 C 0.20529 0.81516 0.79959 0.0
C2280 C 0.17994 0.83935 0.80505 0.0
C2281 C 0.22035 0.82903 0.83159 0.0
C2282 C 0.21532 0.84774 0.85029 0.0
C2283 C 0.18936 0.87118 0.85671 0.0
C2284 C 0.16908 0.87643 0.84367 0.0
C2285 C 0.19496 0.85284 0.83753 0.0
C2286 C 0.15427 0.86286 0.81137 0.0
C2287 C 0.15958 0.84445 0.79232 0.0
H2288 H 0.20113 0.38103 0.8573 0.0
H2289 H 0.21706 0.35503 0.75106 0.0
H2290 H 0.18595 0.3075 0.7677 0.0
H2291 H 0.15298 0.27318 0.81184 0.0
H2292 H 0.13763 0.29965 0.9182 0.0
H2293 H 0.1698 0.34684 0.90224 0.0
C2294 C 0.19782 0.36498 0.83777 0.0
C2295 C 0.21133 0.37167 0.80288 0.0
C2296 C 0.18 0.33764 0.84761 0.0
C2297 C 0.20692 0.35053 0.77809 0.0
C2298 C 0.18911 0.32329 0.78758 0.0
C2299 C 0.15688 0.28925 0.83166 0.0
C2300 C 0.14279 0.28276 0.86616 0.0
C2301 C 0.1754 0.31657 0.82221 0.0
C2302 C 0.14809 0.30393 0.89143 0.0
C2303 C 0.16647 0.33103 0.8823 0.0
H2304 H 0.86183 0.71469 0.69346 0.0
H2305 H 0.82154 0.68776 0.58642 0.0
H2306 H 0.80563 0.64045 0.6037 0.0
H2307 H 0.80406 0.60691 0.64869 0.0
H2308 H 0.84429 0.63403 0.75578 0.0
H2309 H 0.85913 0.68114 0.73908 0.0
C2310 C 0.84958 0.69849 0.67386 0.0
C2311 C 0.84301 0.70476 0.6386 0.0
C2312 C 0.84042 0.67138 0.68405 0.0
C2313 C 0.82694 0.6835 0.61369 0.0
C2314 C 0.81783 0.65644 0.62357 0.0
C2315 C 0.81592 0.6231 0.6685 0.0
C2316 C 0.82309 0.61694 0.70343 0.0
C2317 C 0.82453 0.65017 0.65862 0.0
C2318 C 0.83847 0.63818 0.72873 0.0
C2319 C 0.84705 0.66514 0.71916 0.0
H2320 H 0.27126 0.15543 0.69401 0.0
H2321 H 0.29699 0.15114 0.58126 0.0
H2322 H 0.34419 0.18221 0.59822 0.0
H2323 H 0.3786 0.20891 0.64555 0.0
H2324 H 0.35364 0.21381 0.75844 0.0
H2325 H 0.30593 0.18423 0.74103 0.0
C2326 C 0.28716 0.16162 0.67305 0.0
C2327 C 0.2805 0.15088 0.6364 0.0
C2328 C 0.31452 0.17938 0.68312 0.0
C2329 C 0.30145 0.159 0.60968 0.0
C2330 C 0.32853 0.17673 0.61937 0.0
C2331 C 0.36275 0.20352 0.6664 0.0
C2332 C 0.36975 0.2134 0.70333 0.0
C2333 C 0.33537 0.18668 0.65613 0.0
C2334 C 0.34886 0.20641 0.72983 0.0
C2335 C 0.32154 0.18951 0.71988 0.0
H2336 H 0.86633 0.18649 0.60523 0.0
H2337 H 0.85575 0.13069 0.6944 0.0
H2338 H 0.81989 0.13711 0.72212 0.0
H2339 H 0.79232 0.15984 0.72202 0.0
H2340 H 0.80385 0.21578 0.63239 0.0
H2341 H 0.83841 0.20807 0.60419 0.0
C2342 C 0.85607 0.17556 0.63058 0.0
C2343 C 0.86376 0.15815 0.64766 0.0
C2344 C 0.83566 0.17952 0.64654 0.0
C2345 C 0.85024 0.14421 0.68059 0.0
C2346 C 0.82976 0.14794 0.69655 0.0
C2347 C 0.80239 0.1703 0.69632 0.0
C2348 C 0.79548 0.18844 0.67953 0.0
C2349 C 0.82245 0.16576 0.67998 0.0
C2350 C 0.80871 0.20174 0.6461 0.0
C2351 C 0.82854 0.19735 0.62982 0.0
H2352 H 0.0453 0.52272 0.48633 0.0
H2353 H 0.01293 0.47237 0.5849 0.0
H2354 H 0.96677 0.46058 0.56656 0.0
H2355 H 0.93552 0.46464 0.52208 0.0
H2356 H 0.96895 0.51509 0.42362 0.0
H2357 H 0.01461 0.52665 0.44239 0.0
C2358 C 0.02819 0.50918 0.5039 0.0
C2359 C 0.0326 0.49848 0.53695 0.0
C2360 C 1.00179 0.50244 0.49315 0.0
C2361 C 0.01012 0.48091 0.55929 0.0
C2362 C 0.98371 0.47415 0.5488 0.0
C2363 C 0.95281 0.47813 0.50476 0.0
C2364 C 0.94872 0.48895 0.47148 0.0
C2365 C 0.97927 0.48478 0.51573 0.0
C2366 C 0.97139 0.50642 0.44937 0.0
C2367 C 0.9976 0.5131 0.46006 0.0
H2368 H 0.51275 0.54182 0.55638 0.0
H2369 H 0.45797 0.5231 0.46293 0.0
H2370 H 0.46805 0.48829 0.4414 0.0
H2371 H 0.49273 0.46322 0.44862 0.0
H2372 H 0.54765 0.48206 0.54194 0.0
H2373 H 0.53722 0.51656 0.56381 0.0
C2374 C 0.50298 0.53009 0.53135 0.0
C2375 C 0.48463 0.53514 0.51136 0.0
C2376 C 0.50892 0.51006 0.51898 0.0
C2377 C 0.47219 0.51972 0.47893 0.0
C2378 C 0.47794 0.49976 0.46653 0.0
C2379 C 0.5024 0.47485 0.47375 0.0
C2380 C 0.52096 0.47 0.49353 0.0
C2381 C 0.49633 0.49477 0.48625 0.0
C2382 C 0.53329 0.48532 0.52608 0.0
C2383 C 0.52734 0.5051 0.53867 0.0
H2384 H 0.54038 0.02892 0.42341 0.0
H2385 H 0.53052 0.06637 0.52319 0.0
H2386 H 0.49519 0.02206 0.54601 0.0
H2387 H 0.46814 0.97209 0.53891 0.0
H2388 H 0.47876 0.935 0.43922 0.0
H2389 H 0.5124 0.97948 0.41529 0.0
C2390 C 0.5304 0.02742 0.45003 0.0
C2391 C 0.53821 0.05097 0.47153 0.0
C2392 C 0.51016 1.0018 0.46319 0.0
C2393 C 0.525 0.04859 0.50602 0.0
C2394 C 0.50476 0.02322 0.51917 0.0
C2395 C 0.47767 0.9738 0.51185 0.0
C2396 C 0.47095 0.95017 0.49106 0.0
C2397 C 0.49732 0.99959 0.49819 0.0
C2398 C 0.48358 0.95278 0.45601 0.0
C2399 C 0.50289 0.97826 0.4422 0.0
H2400 H 0.53097 0.05608 0.017 0.0
H2401 H 0.49676 0.02559 0.90753 0.0
H2402 H 0.48444 0.97956 0.92658 0.0
H2403 H 0.48265 0.94752 0.97465 0.0
H2404 H 0.51748 0.97798 0.08378 0.0
H2405 H 0.52984 0.02411 0.0648 0.0
C2406 C 0.52112 0.03943 -0.00284 0.0
C2407 C 0.51494 0.04444 0.96079 0.0
C2408 C 0.51377 0.0128 0.00845 0.0
C2409 C 0.50189 0.02246 0.93564 0.0
C2410 C 0.49468 0.99602 0.94658 0.0
C2411 C 0.49266 0.9642 0.99441 0.0
C2412 C 0.49886 0.95918 0.03074 0.0
C2413 C 0.50024 0.99086 0.98304 0.0
C2414 C 0.5123 0.98118 0.05573 0.0
C2415 C 0.51951 0.00764 0.04483 0.0
H2416 H 0.99044 0.46545 0.93795 0.0
H2417 H 0.94861 0.4873 0.01998 0.0
H2418 H 0.99221 0.52136 0.0466 0.0
H2419 H 0.04226 0.5448 0.04684 0.0
H2420 H 0.08399 0.52271 0.96493 0.0
H2421 H 0.0404 0.48869 0.93837 0.0
C2422 C 0.99083 0.4778 0.96147 0.0
C2423 C 0.96624 0.4739 0.97679 0.0
C2424 C 0.01599 0.49712 0.97695 0.0
C2425 C 0.96719 0.48993 0.00752 0.0
C2426 C 0.99214 0.50935 0.02287 0.0
C2427 C 0.04184 0.5324 0.02336 0.0
C2428 C 0.06642 0.53626 0.00803 0.0
C2429 C 0.01666 0.51302 0.00795 0.0
C2430 C 0.06543 0.52013 0.97741 0.0
C2431 C 0.04049 0.50073 0.96208 0.0
H2432 H 0.54729 0.52362 0.94843 0.0
H2433 H 0.53066 0.46496 0.03612 0.0
H2434 H 0.49728 0.475 0.06392 0.0
H2435 H 0.47195 0.49986 0.06265 0.0
H2436 H 0.48879 0.55839 0.97462 0.0
H2437 H 0.52298 0.5492 0.94808 0.0
C2438 C 0.53632 0.51297 0.97357 0.0
C2439 C 0.5414 0.49344 0.98998 0.0
C2440 C 0.51723 0.51896 0.98958 0.0
C2441 C 0.52712 0.48002 0.02276 0.0
C2442 C 0.50803 0.48579 0.03877 0.0
C2443 C 0.48331 0.51081 0.03791 0.0
C2444 C 0.47776 0.5298 0.02074 0.0
C2445 C 0.50286 0.5052 0.02241 0.0
C2446 C 0.49258 0.54365 0.98849 0.0
C2447 C 0.51213 0.53836 0.97315 0.0
loop_
_geom_bond_atom_site_label_1
_geom_bond_atom_site_label_2
_geom_bond_distance
_geom_bond_site_symmetry_2
_ccdc_geom_bond_type
Mn0 O5 2.095 . S
Mn0 O15 2.162 . S
Mn0 O16 2.297 . S
Mn0 O24 2.385 . S
Mn0 O25 2.209 . S
Mn0 O26 2.094 . S
Mn1 O6 2.121 . S
Mn1 N8 2.257 . S
Mn1 N17 2.282 . S
Mn1 O25 2.215 . S
Mn1 O27 2.117 . S
C2 O24 1.234 . S
C2 O25 1.283 . S
C3 O15 1.281 . S
C3 O16 1.236 . S
C4 O26 1.240 . S
C4 O27 1.264 . S
O5 Mn0 2.095 . S
O5 C14 1.250 . S
O6 Mn1 2.121 . S
O6 C14 1.258 . S
C7 N8 1.326 . S
C7 C11 1.460 . S
C7 H13 0.929 . S
N8 Mn1 2.257 . S
N8 C7 1.326 . S
N8 C12 1.362 . S
C9 C10 1.258 . S
C9 C12 1.431 . S
C9 C29 1.449 . S
C10 C9 1.258 . S
C10 C11 1.477 . S
C10 H30 0.931 . S
C11 C7 1.460 . S
C11 C10 1.477 . S
C11 H31 0.930 . S
C12 N8 1.362 . S
C12 C9 1.431 . S
C12 C22 1.476 . S
H13 C7 0.929 . S
C14 O5 1.250 . S
C14 O6 1.258 . S
O15 Mn0 2.162 . S
O15 C3 1.281 . S
O16 Mn0 2.297 . S
O16 C3 1.236 . S
N17 Mn1 2.282 . S
N17 C18 1.328 . S
N17 C22 1.318 . S
C18 N17 1.328 . S
C18 C19 1.457 . S
C18 H23 0.929 . S
C19 C18 1.457 . S
C19 C20 1.291 . S
C19 H32 0.931 . S
C20 C19 1.291 . S
C20 C21 1.373 . S
C20 H33 0.929 . S
C21 C20 1.373 . S
C21 C22 1.396 . S
C21 C28 1.403 . S
C22 C12 1.476 . S
C22 N17 1.318 . S
C22 C21 1.396 . S
H23 C18 0.929 . S
O24 Mn0 2.385 . S
O24 C2 1.234 . S
O25 Mn0 2.209 . S
O25 Mn1 2.215 . S
O25 C2 1.283 . S
O26 Mn0 2.094 . S
O26 C4 1.240 . S
O27 Mn1 2.117 . S
O27 C4 1.264 . S
C28 C21 1.403 . S
C28 C29 1.399 . S
C28 H34 0.929 . S
C29 C9 1.449 . S
C29 C28 1.399 . S
C29 H35 0.930 . S
H30 C10 0.931 . S
H31 C11 0.930 . S
H32 C19 0.931 . S
H33 C20 0.929 . S
H34 C28 0.929 . S
H35 C29 0.930 . S
Mn36 O41 2.095 . S
Mn36 O51 2.162 . S
Mn36 O52 2.297 . S
Mn36 O60 2.385 . S
Mn36 O61 2.209 . S
Mn36 O62 2.094 . S
Mn37 O42 2.121 . S
Mn37 N44 2.257 . S
Mn37 N53 2.282 . S
Mn37 O61 2.215 . S
Mn37 O63 2.117 . S
C38 O60 1.234 . S
C38 O61 1.283 . S
C39 O51 1.281 . S
C39 O52 1.236 . S
C40 O62 1.240 . S
C40 O63 1.264 . S
O41 Mn36 2.095 . S
O41 C50 1.250 . S
O42 Mn37 2.121 . S
O42 C50 1.258 . S
C43 N44 1.326 . S
C43 C47 1.460 . S
C43 H49 0.929 . S
N44 Mn37 2.257 . S
N44 C43 1.326 . S
N44 C48 1.362 . S
C45 C46 1.258 . S
C45 C48 1.431 . S
C45 C65 1.423 1_545 S
C46 C45 1.258 . S
C46 C47 1.477 . S
C46 H66 0.931 . S
C47 C43 1.460 . S
C47 C46 1.477 . S
C47 H67 0.930 . S
C48 N44 1.362 . S
C48 C45 1.431 . S
C48 C58 1.476 . S
H49 C43 0.929 . S
C50 O41 1.250 . S
C50 O42 1.258 . S
O51 Mn36 2.162 . S
O51 C39 1.281 . S
O52 Mn36 2.297 . S
O52 C39 1.236 . S
N53 Mn37 2.282 . S
N53 C54 1.328 1_545 S
N53 C58 1.318 . S
C54 N53 1.328 1_565 S
C54 C55 1.457 . S
C54 H59 0.929 . S
C55 C54 1.457 . S
C55 C56 1.291 . S
C55 H68 0.931 . S
C56 C55 1.291 . S
C56 C57 1.373 . S
C56 H69 0.929 . S
C57 C56 1.373 . S
C57 C58 1.396 1_565 S
C57 C64 1.403 . S
C58 C48 1.476 . S
C58 N53 1.318 . S
C58 C57 1.396 1_545 S
H59 C54 0.929 . S
O60 Mn36 2.385 . S
O60 C38 1.234 . S
O61 Mn36 2.209 . S
O61 Mn37 2.215 . S
O61 C38 1.283 . S
O62 Mn36 2.094 . S
O62 C40 1.240 . S
O63 Mn37 2.117 . S
O63 C40 1.264 . S
C64 C57 1.403 . S
C64 C65 1.411 . S
C64 H70 0.929 . S
C65 C45 1.423 1_565 S
C65 C64 1.411 . S
C65 H71 0.945 . S
H66 C46 0.931 . S
H67 C47 0.930 . S
H68 C55 0.931 . S
H69 C56 0.929 . S
H70 C64 0.929 . S
H71 C65 0.945 . S
Mn72 O77 2.095 . S
Mn72 O87 2.162 . S
Mn72 O88 2.297 . S
Mn72 O96 2.385 . S
Mn72 O97 2.209 . S
Mn72 O98 2.094 . S
Mn73 O78 2.121 . S
Mn73 N80 2.257 . S
Mn73 N89 2.282 . S
Mn73 O97 2.215 . S
Mn73 O99 2.117 . S
C74 O96 1.234 . S
C74 O97 1.283 . S
C75 O87 1.281 . S
C75 O88 1.236 . S
C76 O98 1.240 . S
C76 O99 1.264 . S
O77 Mn72 2.095 . S
O77 C86 1.250 . S
O78 Mn73 2.121 . S
O78 C86 1.258 . S
C79 N80 1.326 . S
C79 C83 1.460 . S
C79 H85 0.929 . S
N80 Mn73 2.257 . S
N80 C79 1.326 . S
N80 C84 1.362 . S
C81 C82 1.258 . S
C81 C84 1.431 . S
C81 C101 1.425 1_655 S
C82 C81 1.258 . S
C82 C83 1.477 . S
C82 H102 0.931 . S
C83 C79 1.460 . S
C83 C82 1.477 . S
C83 H103 0.930 . S
C84 N80 1.362 . S
C84 C81 1.431 . S
C84 C94 1.476 . S
H85 C79 0.929 . S
C86 O77 1.250 . S
C86 O78 1.258 . S
O87 Mn72 2.162 . S
O87 C75 1.281 . S
O88 Mn72 2.297 . S
O88 C75 1.236 . S
N89 Mn73 2.282 . S
N89 C90 1.328 1_655 S
N89 C94 1.318 . S
C90 N89 1.328 1_455 S
C90 C91 1.457 . S
C90 H95 0.929 . S
C91 C90 1.457 . S
C91 C92 1.291 . S
C91 H104 0.931 . S
C92 C91 1.291 . S
C92 C93 1.373 . S
C92 H105 0.929 . S
C93 C92 1.373 . S
C93 C94 1.396 1_455 S
C93 C100 1.403 . S
C94 C84 1.476 . S
C94 N89 1.318 . S
C94 C93 1.396 1_655 S
H95 C90 0.929 . S
O96 Mn72 2.385 . S
O96 C74 1.234 . S
O97 Mn72 2.209 . S
O97 Mn73 2.215 . S
O97 C74 1.283 . S
O98 Mn72 2.094 . S
O98 C76 1.240 . S
O99 Mn73 2.117 . S
O99 C76 1.264 . S
C100 C93 1.403 . S
C100 C101 1.434 . S
C100 H106 0.929 . S
C101 C81 1.425 1_455 S
C101 C100 1.434 . S
C101 H107 0.920 . S
H102 C82 0.931 . S
H103 C83 0.930 . S
H104 C91 0.931 . S
H105 C92 0.929 . S
H106 C100 0.929 . S
H107 C101 0.920 . S
Mn108 O113 2.095 . S
Mn108 O123 2.162 . S
Mn108 O124 2.297 . S
Mn108 O132 2.385 . S
Mn108 O133 2.209 . S
Mn108 O134 2.094 . S
Mn109 O114 2.121 . S
Mn109 N116 2.257 . S
Mn109 N125 2.282 . S
Mn109 O133 2.215 . S
Mn109 O135 2.117 . S
C110 O132 1.234 . S
C110 O133 1.283 . S
C111 O123 1.281 . S
C111 O124 1.236 . S
C112 O134 1.240 . S
C112 O135 1.264 . S
O113 Mn108 2.095 . S
O113 C122 1.250 . S
O114 Mn109 2.121 . S
O114 C122 1.258 . S
C115 N116 1.326 . S
C115 C119 1.460 . S
C115 H121 0.929 . S
N116 Mn109 2.257 . S
N116 C115 1.326 . S
N116 C120 1.362 . S
C117 C118 1.258 . S
C117 C120 1.431 . S
C117 C137 1.449 . S
C118 C117 1.258 . S
C118 C119 1.477 . S
C118 H138 0.931 . S
C119 C115 1.460 . S
C119 C118 1.477 . S
C119 H139 0.930 . S
C120 N116 1.362 . S
C120 C117 1.431 . S
C120 C130 1.476 . S
H121 C115 0.929 . S
C122 O113 1.250 . S
C122 O114 1.258 . S
O123 Mn108 2.162 . S
O123 C111 1.281 . S
O124 Mn108 2.297 . S
O124 C111 1.236 . S
N125 Mn109 2.282 . S
N125 C126 1.328 . S
N125 C130 1.318 . S
C126 N125 1.328 . S
C126 C127 1.457 . S
C126 H131 0.929 . S
C127 C126 1.457 . S
C127 C128 1.291 . S
C127 H140 0.931 . S
C128 C127 1.291 . S
C128 C129 1.373 . S
C128 H141 0.929 . S
C129 C128 1.373 . S
C129 C130 1.396 . S
C129 C136 1.403 . S
C130 C120 1.476 . S
C130 N125 1.318 . S
C130 C129 1.396 . S
H131 C126 0.929 . S
O132 Mn108 2.385 . S
O132 C110 1.234 . S
O133 Mn108 2.209 . S
O133 Mn109 2.215 . S
O133 C110 1.283 . S
O134 Mn108 2.094 . S
O134 C112 1.240 . S
O135 Mn109 2.117 . S
O135 C112 1.264 . S
C136 C129 1.403 . S
C136 C137 1.399 . S
C136 H142 0.929 . S
C137 C117 1.449 . S
C137 C136 1.399 . S
C137 H143 0.930 . S
H138 C118 0.931 . S
H139 C119 0.930 . S
H140 C127 0.931 . S
H141 C128 0.929 . S
H142 C136 0.929 . S
H143 C137 0.930 . S
Mn144 O149 2.095 . S
Mn144 O159 2.162 . S
Mn144 O160 2.297 . S
Mn144 O168 2.385 . S
Mn144 O169 2.209 . S
Mn144 O170 2.094 . S
Mn145 O150 2.121 . S
Mn145 N152 2.257 . S
Mn145 N161 2.282 . S
Mn145 O169 2.215 . S
Mn145 O171 2.117 . S
C146 O168 1.234 . S
C146 O169 1.283 . S
C147 O159 1.281 . S
C147 O160 1.236 . S
C148 O170 1.240 . S
C148 O171 1.264 . S
O149 Mn144 2.095 . S
O149 C158 1.250 . S
O150 Mn145 2.121 . S
O150 C158 1.258 . S
C151 N152 1.326 . S
C151 C155 1.460 . S
C151 H157 0.929 . S
N152 Mn145 2.257 . S
N152 C151 1.326 . S
N152 C156 1.362 . S
C153 C154 1.258 . S
C153 C156 1.431 . S
C153 C173 1.425 1_565 S
C154 C153 1.258 . S
C154 C155 1.477 . S
C154 H174 0.931 . S
C155 C151 1.460 . S
C155 C154 1.477 . S
C155 H175 0.930 . S
C156 N152 1.362 . S
C156 C153 1.431 . S
C156 C166 1.476 . S
H157 C151 0.929 . S
C158 O149 1.250 . S
C158 O150 1.258 . S
O159 Mn144 2.162 . S
O159 C147 1.281 . S
O160 Mn144 2.297 . S
O160 C147 1.236 . S
N161 Mn145 2.282 . S
N161 C162 1.328 1_565 S
N161 C166 1.318 . S
C162 N161 1.328 1_545 S
C162 C163 1.457 . S
C162 H167 0.929 . S
C163 C162 1.457 . S
C163 C164 1.291 . S
C163 H176 0.931 . S
C164 C163 1.291 . S
C164 C165 1.373 . S
C164 H177 0.929 . S
C165 C164 1.373 . S
C165 C166 1.396 1_545 S
C165 C172 1.403 . S
C166 C156 1.476 . S
C166 N161 1.318 . S
C166 C165 1.396 1_565 S
H167 C162 0.929 . S
O168 Mn144 2.385 . S
O168 C146 1.234 . S
O169 Mn144 2.209 . S
O169 Mn145 2.215 . S
O169 C146 1.283 . S
O170 Mn144 2.094 . S
O170 C148 1.240 . S
O171 Mn145 2.117 . S
O171 C148 1.264 . S
C172 C165 1.403 . S
C172 C173 1.434 . S
C172 H178 0.929 . S
C173 C153 1.425 1_545 S
C173 C172 1.434 . S
C173 H179 0.920 . S
H174 C154 0.931 . S
H175 C155 0.930 . S
H176 C163 0.931 . S
H177 C164 0.929 . S
H178 C172 0.929 . S
H179 C173 0.920 . S
Mn180 O185 2.095 . S
Mn180 O195 2.162 . S
Mn180 O196 2.297 . S
Mn180 O204 2.385 . S
Mn180 O205 2.209 . S
Mn180 O206 2.094 . S
Mn181 O186 2.121 . S
Mn181 N188 2.257 . S
Mn181 N197 2.282 . S
Mn181 O205 2.215 . S
Mn181 O207 2.117 . S
C182 O204 1.234 . S
C182 O205 1.283 . S
C183 O195 1.281 . S
C183 O196 1.236 . S
C184 O206 1.240 . S
C184 O207 1.264 . S
O185 Mn180 2.095 . S
O185 C194 1.250 . S
O186 Mn181 2.121 . S
O186 C194 1.258 . S
C187 N188 1.326 . S
C187 C191 1.460 . S
C187 H193 0.929 . S
N188 Mn181 2.257 . S
N188 C187 1.326 . S
N188 C192 1.362 . S
C189 C190 1.258 . S
C189 C192 1.431 . S
C189 C209 1.423 1_455 S
C190 C189 1.258 . S
C190 C191 1.477 . S
C190 H210 0.931 . S
C191 C187 1.460 . S
C191 C190 1.477 . S
C191 H211 0.930 . S
C192 N188 1.362 . S
C192 C189 1.431 . S
C192 C202 1.476 . S
H193 C187 0.929 . S
C194 O185 1.250 . S
C194 O186 1.258 . S
O195 Mn180 2.162 . S
O195 C183 1.281 . S
O196 Mn180 2.297 . S
O196 C183 1.236 . S
N197 Mn181 2.282 . S
N197 C198 1.328 1_455 S
N197 C202 1.318 . S
C198 N197 1.328 1_655 S
C198 C199 1.457 . S
C198 H203 0.929 . S
C199 C198 1.457 . S
C199 C200 1.291 . S
C199 H212 0.931 . S
C200 C199 1.291 . S
C200 C201 1.373 . S
C200 H213 0.929 . S
C201 C200 1.373 . S
C201 C202 1.396 1_655 S
C201 C208 1.403 . S
C202 C192 1.476 . S
C202 N197 1.318 . S
C202 C201 1.396 1_455 S
H203 C198 0.929 . S
O204 Mn180 2.385 . S
O204 C182 1.234 . S
O205 Mn180 2.209 . S
O205 Mn181 2.215 . S
O205 C182 1.283 . S
O206 Mn180 2.094 . S
O206 C184 1.240 . S
O207 Mn181 2.117 . S
O207 C184 1.264 . S
C208 C201 1.403 . S
C208 C209 1.411 . S
C208 H214 0.929 . S
C209 C189 1.423 1_655 S
C209 C208 1.411 . S
C209 H215 0.945 . S
H210 C190 0.931 . S
H211 C191 0.930 . S
H212 C199 0.931 . S
H213 C200 0.929 . S
H214 C208 0.929 . S
H215 C209 0.945 . S
Mn216 O221 2.095 . S
Mn216 O231 2.162 . S
Mn216 O232 2.297 . S
Mn216 O240 2.385 . S
Mn216 O241 2.209 . S
Mn216 O242 2.094 . S
Mn217 O222 2.121 . S
Mn217 N224 2.257 . S
Mn217 N233 2.282 . S
Mn217 O241 2.215 . S
Mn217 O243 2.117 . S
C218 O240 1.234 . S
C218 O241 1.283 . S
C219 O231 1.281 . S
C219 O232 1.236 . S
C220 O242 1.240 . S
C220 O243 1.264 . S
O221 Mn216 2.095 . S
O221 C230 1.250 . S
O222 Mn217 2.121 . S
O222 C230 1.258 . S
C223 N224 1.326 . S
C223 C227 1.460 . S
C223 H229 0.929 . S
N224 Mn217 2.257 . S
N224 C223 1.326 . S
N224 C228 1.362 . S
C225 C226 1.258 . S
C225 C228 1.431 . S
C225 C245 1.449 . S
C226 C225 1.258 . S
C226 C227 1.477 . S
C226 H246 0.931 . S
C227 C223 1.460 . S
C227 C226 1.477 . S
C227 H247 0.930 . S
C228 N224 1.362 . S
C228 C225 1.431 . S
C228 C238 1.476 . S
H229 C223 0.929 . S
C230 O221 1.250 . S
C230 O222 1.258 . S
O231 Mn216 2.162 . S
O231 C219 1.281 . S
O232 Mn216 2.297 . S
O232 C219 1.236 . S
N233 Mn217 2.282 . S
N233 C234 1.328 . S
N233 C238 1.318 . S
C234 N233 1.328 . S
C234 C235 1.457 . S
C234 H239 0.929 . S
C235 C234 1.457 . S
C235 C236 1.291 . S
C235 H248 0.931 . S
C236 C235 1.291 . S
C236 C237 1.373 . S
C236 H249 0.929 . S
C237 C236 1.373 . S
C237 C238 1.396 . S
C237 C244 1.403 . S
C238 C228 1.476 . S
C238 N233 1.318 . S
C238 C237 1.396 . S
H239 C234 0.929 . S
O240 Mn216 2.385 . S
O240 C218 1.234 . S
O241 Mn216 2.209 . S
O241 Mn217 2.215 . S
O241 C218 1.283 . S
O242 Mn216 2.094 . S
O242 C220 1.240 . S
O243 Mn217 2.117 . S
O243 C220 1.264 . S
C244 C237 1.403 . S
C244 C245 1.399 . S
C244 H250 0.929 . S
C245 C225 1.449 . S
C245 C244 1.399 . S
C245 H251 0.930 . S
H246 C226 0.931 . S
H247 C227 0.930 . S
H248 C235 0.931 . S
H249 C236 0.929 . S
H250 C244 0.929 . S
H251 C245 0.930 . S
Mn252 O257 2.095 . S
Mn252 O267 2.162 . S
Mn252 O268 2.297 . S
Mn252 O276 2.385 . S
Mn252 O277 2.209 . S
Mn252 O278 2.094 . S
Mn253 O258 2.121 . S
Mn253 N260 2.257 . S
Mn253 N269 2.282 . S
Mn253 O277 2.215 . S
Mn253 O279 2.117 . S
C254 O276 1.234 . S
C254 O277 1.283 . S
C255 O267 1.281 . S
C255 O268 1.236 . S
C256 O278 1.240 . S
C256 O279 1.264 . S
O257 Mn252 2.095 . S
O257 C266 1.250 . S
O258 Mn253 2.121 . S
O258 C266 1.258 . S
C259 N260 1.326 . S
C259 C263 1.460 . S
C259 H265 0.929 . S
N260 Mn253 2.257 . S
N260 C259 1.326 . S
N260 C264 1.362 . S
C261 C262 1.258 . S
C261 C264 1.431 . S
C261 C281 1.423 1_565 S
C262 C261 1.258 . S
C262 C263 1.477 . S
C262 H282 0.931 . S
C263 C259 1.460 . S
C263 C262 1.477 . S
C263 H283 0.930 . S
C264 N260 1.362 . S
C264 C261 1.431 . S
C264 C274 1.476 . S
H265 C259 0.929 . S
C266 O257 1.250 . S
C266 O258 1.258 . S
O267 Mn252 2.162 . S
O267 C255 1.281 . S
O268 Mn252 2.297 . S
O268 C255 1.236 . S
N269 Mn253 2.282 . S
N269 C270 1.328 1_565 S
N269 C274 1.318 . S
C270 N269 1.328 1_545 S
C270 C271 1.457 . S
C270 H275 0.929 . S
C271 C270 1.457 . S
C271 C272 1.291 . S
C271 H284 0.931 . S
C272 C271 1.291 . S
C272 C273 1.373 . S
C272 H285 0.929 . S
C273 C272 1.373 . S
C273 C274 1.396 1_545 S
C273 C280 1.403 . S
C274 C264 1.476 . S
C274 N269 1.318 . S
C274 C273 1.396 1_565 S
H275 C270 0.929 . S
O276 Mn252 2.385 . S
O276 C254 1.234 . S
O277 Mn252 2.209 . S
O277 Mn253 2.215 . S
O277 C254 1.283 . S
O278 Mn252 2.094 . S
O278 C256 1.240 . S
O279 Mn253 2.117 . S
O279 C256 1.264 . S
C280 C273 1.403 . S
C280 C281 1.411 . S
C280 H286 0.929 . S
C281 C261 1.423 1_545 S
C281 C280 1.411 . S
C281 H287 0.945 . S
H282 C262 0.931 . S
H283 C263 0.930 . S
H284 C271 0.931 . S
H285 C272 0.929 . S
H286 C280 0.929 . S
H287 C281 0.945 . S
Mn288 O293 2.095 . S
Mn288 O303 2.162 . S
Mn288 O304 2.297 . S
Mn288 O312 2.385 . S
Mn288 O313 2.209 . S
Mn288 O314 2.094 . S
Mn289 O294 2.121 . S
Mn289 N296 2.257 . S
Mn289 N305 2.282 . S
Mn289 O313 2.215 . S
Mn289 O315 2.117 . S
C290 O312 1.234 . S
C290 O313 1.283 . S
C291 O303 1.281 . S
C291 O304 1.236 . S
C292 O314 1.240 . S
C292 O315 1.264 . S
O293 Mn288 2.095 . S
O293 C302 1.250 . S
O294 Mn289 2.121 . S
O294 C302 1.258 . S
C295 N296 1.326 . S
C295 C299 1.460 . S
C295 H301 0.929 . S
N296 Mn289 2.257 . S
N296 C295 1.326 . S
N296 C300 1.362 . S
C297 C298 1.258 . S
C297 C300 1.431 . S
C297 C317 1.425 1_455 S
C298 C297 1.258 . S
C298 C299 1.477 . S
C298 H318 0.931 . S
C299 C295 1.460 . S
C299 C298 1.477 . S
C299 H319 0.930 . S
C300 N296 1.362 . S
C300 C297 1.431 . S
C300 C310 1.476 . S
H301 C295 0.929 . S
C302 O293 1.250 . S
C302 O294 1.258 . S
O303 Mn288 2.162 . S
O303 C291 1.281 . S
O304 Mn288 2.297 . S
O304 C291 1.236 . S
N305 Mn289 2.282 . S
N305 C306 1.328 1_455 S
N305 C310 1.318 . S
C306 N305 1.328 1_655 S
C306 C307 1.457 . S
C306 H311 0.929 . S
C307 C306 1.457 . S
C307 C308 1.291 . S
C307 H320 0.931 . S
C308 C307 1.291 . S
C308 C309 1.373 . S
C308 H321 0.929 . S
C309 C308 1.373 . S
C309 C310 1.396 1_655 S
C309 C316 1.403 . S
C310 C300 1.476 . S
C310 N305 1.318 . S
C310 C309 1.396 1_455 S
H311 C306 0.929 . S
O312 Mn288 2.385 . S
O312 C290 1.234 . S
O313 Mn288 2.209 . S
O313 Mn289 2.215 . S
O313 C290 1.283 . S
O314 Mn288 2.094 . S
O314 C292 1.240 . S
O315 Mn289 2.117 . S
O315 C292 1.264 . S
C316 C309 1.403 . S
C316 C317 1.434 . S
C316 H322 0.929 . S
C317 C297 1.425 1_655 S
C317 C316 1.434 . S
C317 H323 0.920 . S
H318 C298 0.931 . S
H319 C299 0.930 . S
H320 C307 0.931 . S
H321 C308 0.929 . S
H322 C316 0.929 . S
H323 C317 0.920 . S
Mn324 O329 2.095 . S
Mn324 O339 2.162 . S
Mn324 O340 2.297 . S
Mn324 O348 2.385 . S
Mn324 O349 2.209 . S
Mn324 O350 2.094 . S
Mn325 O330 2.121 . S
Mn325 N332 2.257 . S
Mn325 N341 2.282 . S
Mn325 O349 2.215 . S
Mn325 O351 2.117 . S
C326 O348 1.234 . S
C326 O349 1.283 . S
C327 O339 1.281 . S
C327 O340 1.236 . S
C328 O350 1.240 . S
C328 O351 1.264 . S
O329 Mn324 2.095 . S
O329 C338 1.250 . S
O330 Mn325 2.121 . S
O330 C338 1.258 . S
C331 N332 1.326 . S
C331 C335 1.460 . S
C331 H337 0.929 . S
N332 Mn325 2.257 . S
N332 C331 1.326 . S
N332 C336 1.362 . S
C333 C334 1.258 . S
C333 C336 1.431 . S
C333 C353 1.449 . S
C334 C333 1.258 . S
C334 C335 1.477 . S
C334 H354 0.931 . S
C335 C331 1.460 . S
C335 C334 1.477 . S
C335 H355 0.930 . S
C336 N332 1.362 . S
C336 C333 1.431 . S
C336 C346 1.476 . S
H337 C331 0.929 . S
C338 O329 1.250 . S
C338 O330 1.258 . S
O339 Mn324 2.162 . S
O339 C327 1.281 . S
O340 Mn324 2.297 . S
O340 C327 1.236 . S
N341 Mn325 2.282 . S
N341 C342 1.328 . S
N341 C346 1.318 . S
C342 N341 1.328 . S
C342 C343 1.457 . S
C342 H347 0.929 . S
C343 C342 1.457 . S
C343 C344 1.291 . S
C343 H356 0.931 . S
C344 C343 1.291 . S
C344 C345 1.373 . S
C344 H357 0.929 . S
C345 C344 1.373 . S
C345 C346 1.396 . S
C345 C352 1.403 . S
C346 C336 1.476 . S
C346 N341 1.318 . S
C346 C345 1.396 . S
H347 C342 0.929 . S
O348 Mn324 2.385 . S
O348 C326 1.234 . S
O349 Mn324 2.209 . S
O349 Mn325 2.215 . S
O349 C326 1.283 . S
O350 Mn324 2.094 . S
O350 C328 1.240 . S
O351 Mn325 2.117 . S
O351 C328 1.264 . S
C352 C345 1.403 . S
C352 C353 1.399 . S
C352 H358 0.929 . S
C353 C333 1.449 . S
C353 C352 1.399 . S
C353 H359 0.930 . S
H354 C334 0.931 . S
H355 C335 0.930 . S
H356 C343 0.931 . S
H357 C344 0.929 . S
H358 C352 0.929 . S
H359 C353 0.930 . S
Mn360 O365 2.095 . S
Mn360 O375 2.162 . S
Mn360 O376 2.297 . S
Mn360 O384 2.385 . S
Mn360 O385 2.209 . S
Mn360 O386 2.094 . S
Mn361 O366 2.121 . S
Mn361 N368 2.257 . S
Mn361 N377 2.282 . S
Mn361 O385 2.215 . S
Mn361 O387 2.117 . S
C362 O384 1.234 . S
C362 O385 1.283 . S
C363 O375 1.281 . S
C363 O376 1.236 . S
C364 O386 1.240 . S
C364 O387 1.264 . S
O365 Mn360 2.095 . S
O365 C374 1.250 . S
O366 Mn361 2.121 . S
O366 C374 1.258 . S
C367 N368 1.326 . S
C367 C371 1.460 . S
C367 H373 0.929 . S
N368 Mn361 2.257 . S
N368 C367 1.326 . S
N368 C372 1.362 . S
C369 C370 1.258 . S
C369 C372 1.431 . S
C369 C389 1.425 1_545 S
C370 C369 1.258 . S
C370 C371 1.477 . S
C370 H390 0.931 . S
C371 C367 1.460 . S
C371 C370 1.477 . S
C371 H391 0.930 . S
C372 N368 1.362 . S
C372 C369 1.431 . S
C372 C382 1.476 . S
H373 C367 0.929 . S
C374 O365 1.250 . S
C374 O366 1.258 . S
O375 Mn360 2.162 . S
O375 C363 1.281 . S
O376 Mn360 2.297 . S
O376 C363 1.236 . S
N377 Mn361 2.282 . S
N377 C378 1.328 1_545 S
N377 C382 1.318 . S
C378 N377 1.328 1_565 S
C378 C379 1.457 . S
C378 H383 0.929 . S
C379 C378 1.457 . S
C379 C380 1.291 . S
C379 H392 0.931 . S
C380 C379 1.291 . S
C380 C381 1.373 . S
C380 H393 0.929 . S
C381 C380 1.373 . S
C381 C382 1.396 1_565 S
C381 C388 1.403 . S
C382 C372 1.476 . S
C382 N377 1.318 . S
C382 C381 1.396 1_545 S
H383 C378 0.929 . S
O384 Mn360 2.385 . S
O384 C362 1.234 . S
O385 Mn360 2.209 . S
O385 Mn361 2.215 . S
O385 C362 1.283 . S
O386 Mn360 2.094 . S
O386 C364 1.240 . S
O387 Mn361 2.117 . S
O387 C364 1.264 . S
C388 C381 1.403 . S
C388 C389 1.434 . S
C388 H394 0.929 . S
C389 C369 1.425 1_565 S
C389 C388 1.434 . S
C389 H395 0.920 . S
H390 C370 0.931 . S
H391 C371 0.930 . S
H392 C379 0.931 . S
H393 C380 0.929 . S
H394 C388 0.929 . S
H395 C389 0.920 . S
Mn396 O401 2.095 . S
Mn396 O411 2.162 . S
Mn396 O412 2.297 . S
Mn396 O420 2.385 . S
Mn396 O421 2.209 . S
Mn396 O422 2.094 . S
Mn397 O402 2.121 . S
Mn397 N404 2.257 . S
Mn397 N413 2.282 . S
Mn397 O421 2.215 . S
Mn397 O423 2.117 . S
C398 O420 1.234 . S
C398 O421 1.283 . S
C399 O411 1.281 . S
C399 O412 1.236 . S
C400 O422 1.240 . S
C400 O423 1.264 . S
O401 Mn396 2.095 . S
O401 C410 1.250 . S
O402 Mn397 2.121 . S
O402 C410 1.258 . S
C403 N404 1.326 . S
C403 C407 1.460 . S
C403 H409 0.929 . S
N404 Mn397 2.257 . S
N404 C403 1.326 . S
N404 C408 1.362 . S
C405 C406 1.258 . S
C405 C408 1.431 . S
C405 C425 1.423 1_655 S
C406 C405 1.258 . S
C406 C407 1.477 . S
C406 H426 0.931 . S
C407 C403 1.460 . S
C407 C406 1.477 . S
C407 H427 0.930 . S
C408 N404 1.362 . S
C408 C405 1.431 . S
C408 C418 1.476 . S
H409 C403 0.929 . S
C410 O401 1.250 . S
C410 O402 1.258 . S
O411 Mn396 2.162 . S
O411 C399 1.281 . S
O412 Mn396 2.297 . S
O412 C399 1.236 . S
N413 Mn397 2.282 . S
N413 C414 1.328 1_655 S
N413 C418 1.318 . S
C414 N413 1.328 1_455 S
C414 C415 1.457 . S
C414 H419 0.929 . S
C415 C414 1.457 . S
C415 C416 1.291 . S
C415 H428 0.931 . S
C416 C415 1.291 . S
C416 C417 1.373 . S
C416 H429 0.929 . S
C417 C416 1.373 . S
C417 C418 1.396 1_455 S
C417 C424 1.403 . S
C418 C408 1.476 . S
C418 N413 1.318 . S
C418 C417 1.396 1_655 S
H419 C414 0.929 . S
O420 Mn396 2.385 . S
O420 C398 1.234 . S
O421 Mn396 2.209 . S
O421 Mn397 2.215 . S
O421 C398 1.283 . S
O422 Mn396 2.094 . S
O422 C400 1.240 . S
O423 Mn397 2.117 . S
O423 C400 1.264 . S
C424 C417 1.403 . S
C424 C425 1.411 . S
C424 H430 0.929 . S
C425 C405 1.423 1_455 S
C425 C424 1.411 . S
C425 H431 0.945 . S
H426 C406 0.931 . S
H427 C407 0.930 . S
H428 C415 0.931 . S
H429 C416 0.929 . S
H430 C424 0.929 . S
H431 C425 0.945 . S
Mn432 O437 2.095 . S
Mn432 O447 2.162 . S
Mn432 O448 2.297 . S
Mn432 O456 2.385 . S
Mn432 O457 2.209 . S
Mn432 O458 2.094 . S
Mn433 O438 2.121 . S
Mn433 N440 2.257 . S
Mn433 N449 2.282 . S
Mn433 O457 2.215 . S
Mn433 O459 2.117 . S
C434 O456 1.234 . S
C434 O457 1.283 . S
C435 O447 1.281 . S
C435 O448 1.236 . S
C436 O458 1.240 . S
C436 O459 1.264 . S
O437 Mn432 2.095 . S
O437 C446 1.250 . S
O438 Mn433 2.121 . S
O438 C446 1.258 . S
C439 N440 1.326 . S
C439 C443 1.460 . S
C439 H445 0.929 . S
N440 Mn433 2.257 . S
N440 C439 1.326 . S
N440 C444 1.362 . S
C441 C442 1.258 . S
C441 C444 1.431 . S
C441 C461 1.449 . S
C442 C441 1.258 . S
C442 C443 1.477 . S
C442 H462 0.931 . S
C443 C439 1.460 . S
C443 C442 1.477 . S
C443 H463 0.930 . S
C444 N440 1.362 . S
C444 C441 1.431 . S
C444 C454 1.476 . S
H445 C439 0.929 . S
C446 O437 1.250 . S
C446 O438 1.258 . S
O447 Mn432 2.162 . S
O447 C435 1.281 . S
O448 Mn432 2.297 . S
O448 C435 1.236 . S
N449 Mn433 2.282 . S
N449 C450 1.328 . S
N449 C454 1.318 . S
C450 N449 1.328 . S
C450 C451 1.457 . S
C450 H455 0.929 . S
C451 C450 1.457 . S
C451 C452 1.291 . S
C451 H464 0.931 . S
C452 C451 1.291 . S
C452 C453 1.373 . S
C452 H465 0.929 . S
C453 C452 1.373 . S
C453 C454 1.396 . S
C453 C460 1.403 . S
C454 C444 1.476 . S
C454 N449 1.318 . S
C454 C453 1.396 . S
H455 C450 0.929 . S
O456 Mn432 2.385 . S
O456 C434 1.234 . S
O457 Mn432 2.209 . S
O457 Mn433 2.215 . S
O457 C434 1.283 . S
O458 Mn432 2.094 . S
O458 C436 1.240 . S
O459 Mn433 2.117 . S
O459 C436 1.264 . S
C460 C453 1.403 . S
C460 C461 1.399 . S
C460 H466 0.929 . S
C461 C441 1.449 . S
C461 C460 1.399 . S
C461 H467 0.930 . S
H462 C442 0.931 . S
H463 C443 0.930 . S
H464 C451 0.931 . S
H465 C452 0.929 . S
H466 C460 0.929 . S
H467 C461 0.930 . S
Mn468 O473 2.095 . S
Mn468 O483 2.162 . S
Mn468 O484 2.297 . S
Mn468 O492 2.385 . S
Mn468 O493 2.209 . S
Mn468 O494 2.094 . S
Mn469 O474 2.121 . S
Mn469 N476 2.257 . S
Mn469 N485 2.282 . S
Mn469 O493 2.215 . S
Mn469 O495 2.117 . S
C470 O492 1.234 . S
C470 O493 1.283 . S
C471 O483 1.281 . S
C471 O484 1.236 . S
C472 O494 1.240 . S
C472 O495 1.264 . S
O473 Mn468 2.095 . S
O473 C482 1.250 . S
O474 Mn469 2.121 . S
O474 C482 1.258 . S
C475 N476 1.326 . S
C475 C479 1.460 . S
C475 H481 0.929 . S
N476 Mn469 2.257 . S
N476 C475 1.326 . S
N476 C480 1.362 . S
C477 C478 1.258 . S
C477 C480 1.431 . S
C477 C497 1.449 . S
C478 C477 1.258 . S
C478 C479 1.477 . S
C478 H498 0.931 . S
C479 C475 1.460 . S
C479 C478 1.477 . S
C479 H499 0.930 . S
C480 N476 1.362 . S
C480 C477 1.431 . S
C480 C490 1.476 . S
H481 C475 0.929 . S
C482 O473 1.250 . S
C482 O474 1.258 . S
O483 Mn468 2.162 . S
O483 C471 1.281 . S
O484 Mn468 2.297 . S
O484 C471 1.236 . S
N485 Mn469 2.282 . S
N485 C486 1.328 . S
N485 C490 1.318 . S
C486 N485 1.328 . S
C486 C487 1.457 . S
C486 H491 0.929 . S
C487 C486 1.457 . S
C487 C488 1.291 . S
C487 H500 0.931 . S
C488 C487 1.291 . S
C488 C489 1.373 . S
C488 H501 0.929 . S
C489 C488 1.373 . S
C489 C490 1.396 . S
C489 C496 1.403 . S
C490 C480 1.476 . S
C490 N485 1.318 . S
C490 C489 1.396 . S
H491 C486 0.929 . S
O492 Mn468 2.385 . S
O492 C470 1.234 . S
O493 Mn468 2.209 . S
O493 Mn469 2.215 . S
O493 C470 1.283 . S
O494 Mn468 2.094 . S
O494 C472 1.240 . S
O495 Mn469 2.117 . S
O495 C472 1.264 . S
C496 C489 1.403 . S
C496 C497 1.399 . S
C496 H502 0.929 . S
C497 C477 1.449 . S
C497 C496 1.399 . S
C497 H503 0.930 . S
H498 C478 0.931 . S
H499 C479 0.930 . S
H500 C487 0.931 . S
H501 C488 0.929 . S
H502 C496 0.929 . S
H503 C497 0.930 . S
Mn504 O509 2.095 . S
Mn504 O519 2.162 . S
Mn504 O520 2.297 . S
Mn504 O528 2.385 . S
Mn504 O529 2.209 . S
Mn504 O530 2.094 . S
Mn505 O510 2.121 . S
Mn505 N512 2.257 . S
Mn505 N521 2.282 . S
Mn505 O529 2.215 . S
Mn505 O531 2.117 . S
C506 O528 1.234 . S
C506 O529 1.283 . S
C507 O519 1.281 . S
C507 O520 1.236 . S
C508 O530 1.240 . S
C508 O531 1.264 . S
O509 Mn504 2.095 . S
O509 C518 1.250 . S
O510 Mn505 2.121 . S
O510 C518 1.258 . S
C511 N512 1.326 . S
C511 C515 1.460 . S
C511 H517 0.929 . S
N512 Mn505 2.257 . S
N512 C511 1.326 . S
N512 C516 1.362 . S
C513 C514 1.258 . S
C513 C516 1.431 . S
C513 C533 1.449 . S
C514 C513 1.258 . S
C514 C515 1.477 . S
C514 H534 0.931 . S
C515 C511 1.460 . S
C515 C514 1.477 . S
C515 H535 0.930 . S
C516 N512 1.362 . S
C516 C513 1.431 . S
C516 C526 1.476 . S
H517 C511 0.929 . S
C518 O509 1.250 . S
C518 O510 1.258 . S
O519 Mn504 2.162 . S
O519 C507 1.281 . S
O520 Mn504 2.297 . S
O520 C507 1.236 . S
N521 Mn505 2.282 . S
N521 C522 1.328 . S
N521 C526 1.318 . S
C522 N521 1.328 . S
C522 C523 1.457 . S
C522 H527 0.929 . S
C523 C522 1.457 . S
C523 C524 1.291 . S
C523 H536 0.931 . S
C524 C523 1.291 . S
C524 C525 1.373 . S
C524 H537 0.929 . S
C525 C524 1.373 . S
C525 C526 1.396 . S
C525 C532 1.403 . S
C526 C516 1.476 . S
C526 N521 1.318 . S
C526 C525 1.396 . S
H527 C522 0.929 . S
O528 Mn504 2.385 . S
O528 C506 1.234 . S
O529 Mn504 2.209 . S
O529 Mn505 2.215 . S
O529 C506 1.283 . S
O530 Mn504 2.094 . S
O530 C508 1.240 . S
O531 Mn505 2.117 . S
O531 C508 1.264 . S
C532 C525 1.403 . S
C532 C533 1.399 . S
C532 H538 0.929 . S
C533 C513 1.449 . S
C533 C532 1.399 . S
C533 H539 0.930 . S
H534 C514 0.931 . S
H535 C515 0.930 . S
H536 C523 0.931 . S
H537 C524 0.929 . S
H538 C532 0.929 . S
H539 C533 0.930 . S
Mn540 O545 2.095 . S
Mn540 O555 2.162 . S
Mn540 O556 2.297 . S
Mn540 O564 2.385 . S
Mn540 O565 2.209 . S
Mn540 O566 2.094 . S
Mn541 O546 2.121 . S
Mn541 N548 2.257 . S
Mn541 N557 2.282 . S
Mn541 O565 2.215 . S
Mn541 O567 2.117 . S
C542 O564 1.234 . S
C542 O565 1.283 . S
C543 O555 1.281 . S
C543 O556 1.236 . S
C544 O566 1.240 . S
C544 O567 1.264 . S
O545 Mn540 2.095 . S
O545 C554 1.250 . S
O546 Mn541 2.121 . S
O546 C554 1.258 . S
C547 N548 1.326 . S
C547 C551 1.460 . S
C547 H553 0.929 . S
N548 Mn541 2.257 . S
N548 C547 1.326 . S
N548 C552 1.362 . S
C549 C550 1.258 . S
C549 C552 1.431 . S
C549 C569 1.449 . S
C550 C549 1.258 . S
C550 C551 1.477 . S
C550 H570 0.931 . S
C551 C547 1.460 . S
C551 C550 1.477 . S
C551 H571 0.930 . S
C552 N548 1.362 . S
C552 C549 1.431 . S
C552 C562 1.476 . S
H553 C547 0.929 . S
C554 O545 1.250 . S
C554 O546 1.258 . S
O555 Mn540 2.162 . S
O555 C543 1.281 . S
O556 Mn540 2.297 . S
O556 C543 1.236 . S
N557 Mn541 2.282 . S
N557 C558 1.328 . S
N557 C562 1.318 . S
C558 N557 1.328 . S
C558 C559 1.457 . S
C558 H563 0.929 . S
C559 C558 1.457 . S
C559 C560 1.291 . S
C559 H572 0.931 . S
C560 C559 1.291 . S
C560 C561 1.373 . S
C560 H573 0.929 . S
C561 C560 1.373 . S
C561 C562 1.396 . S
C561 C568 1.403 . S
C562 C552 1.476 . S
C562 N557 1.318 . S
C562 C561 1.396 . S
H563 C558 0.929 . S
O564 Mn540 2.385 . S
O564 C542 1.234 . S
O565 Mn540 2.209 . S
O565 Mn541 2.215 . S
O565 C542 1.283 . S
O566 Mn540 2.094 . S
O566 C544 1.240 . S
O567 Mn541 2.117 . S
O567 C544 1.264 . S
C568 C561 1.403 . S
C568 C569 1.399 . S
C568 H574 0.929 . S
C569 C549 1.449 . S
C569 C568 1.399 . S
C569 H575 0.930 . S
H570 C550 0.931 . S
H571 C551 0.930 . S
H572 C559 0.931 . S
H573 C560 0.929 . S
H574 C568 0.929 . S
H575 C569 0.930 . S
Mn576 O581 2.095 . S
Mn576 O591 2.162 . S
Mn576 O592 2.297 . S
Mn576 O600 2.385 . S
Mn576 O601 2.209 . S
Mn576 O602 2.094 . S
Mn577 O582 2.121 . S
Mn577 N584 2.257 . S
Mn577 N593 2.282 . S
Mn577 O601 2.215 . S
Mn577 O603 2.117 . S
C578 O600 1.234 . S
C578 O601 1.283 . S
C579 O591 1.281 . S
C579 O592 1.236 . S
C580 O602 1.240 . S
C580 O603 1.264 . S
O581 Mn576 2.095 . S
O581 C590 1.250 . S
O582 Mn577 2.121 . S
O582 C590 1.258 . S
C583 N584 1.326 . S
C583 C587 1.460 . S
C583 H589 0.929 . S
N584 Mn577 2.257 . S
N584 C583 1.326 . S
N584 C588 1.362 . S
C585 C586 1.258 . S
C585 C588 1.431 . S
C585 C605 1.449 . S
C586 C585 1.258 . S
C586 C587 1.477 . S
C586 H606 0.931 . S
C587 C583 1.460 . S
C587 C586 1.477 . S
C587 H607 0.930 . S
C588 N584 1.362 . S
C588 C585 1.431 . S
C588 C598 1.476 . S
H589 C583 0.929 . S
C590 O581 1.250 . S
C590 O582 1.258 . S
O591 Mn576 2.162 . S
O591 C579 1.281 . S
O592 Mn576 2.297 . S
O592 C579 1.236 . S
N593 Mn577 2.282 . S
N593 C594 1.328 . S
N593 C598 1.318 . S
C594 N593 1.328 . S
C594 C595 1.457 . S
C594 H599 0.929 . S
C595 C594 1.457 . S
C595 C596 1.291 . S
C595 H608 0.931 . S
C596 C595 1.291 . S
C596 C597 1.373 . S
C596 H609 0.929 . S
C597 C596 1.373 . S
C597 C598 1.396 . S
C597 C604 1.403 . S
C598 C588 1.476 . S
C598 N593 1.318 . S
C598 C597 1.396 . S
H599 C594 0.929 . S
O600 Mn576 2.385 . S
O600 C578 1.234 . S
O601 Mn576 2.209 . S
O601 Mn577 2.215 . S
O601 C578 1.283 . S
O602 Mn576 2.094 . S
O602 C580 1.240 . S
O603 Mn577 2.117 . S
O603 C580 1.264 . S
C604 C597 1.403 . S
C604 C605 1.399 . S
C604 H610 0.929 . S
C605 C585 1.449 . S
C605 C604 1.399 . S
C605 H611 0.930 . S
H606 C586 0.931 . S
H607 C587 0.930 . S
H608 C595 0.931 . S
H609 C596 0.929 . S
H610 C604 0.929 . S
H611 C605 0.930 . S
Mn612 O617 2.095 . S
Mn612 O627 2.162 . S
Mn612 O628 2.297 . S
Mn612 O636 2.385 . S
Mn612 O637 2.209 . S
Mn612 O638 2.094 . S
Mn613 O618 2.121 . S
Mn613 N620 2.257 . S
Mn613 N629 2.282 . S
Mn613 O637 2.215 . S
Mn613 O639 2.117 . S
C614 O636 1.234 . S
C614 O637 1.283 . S
C615 O627 1.281 . S
C615 O628 1.236 . S
C616 O638 1.240 . S
C616 O639 1.264 . S
O617 Mn612 2.095 . S
O617 C626 1.250 . S
O618 Mn613 2.121 . S
O618 C626 1.258 . S
C619 N620 1.326 . S
C619 C623 1.460 . S
C619 H625 0.929 . S
N620 Mn613 2.257 . S
N620 C619 1.326 . S
N620 C624 1.362 . S
C621 C622 1.258 . S
C621 C624 1.431 . S
C621 C641 1.449 . S
C622 C621 1.258 . S
C622 C623 1.477 . S
C622 H642 0.931 . S
C623 C619 1.460 . S
C623 C622 1.477 . S
C623 H643 0.930 . S
C624 N620 1.362 . S
C624 C621 1.431 . S
C624 C634 1.476 . S
H625 C619 0.929 . S
C626 O617 1.250 . S
C626 O618 1.258 . S
O627 Mn612 2.162 . S
O627 C615 1.281 . S
O628 Mn612 2.297 . S
O628 C615 1.236 . S
N629 Mn613 2.282 . S
N629 C630 1.328 . S
N629 C634 1.318 . S
C630 N629 1.328 . S
C630 C631 1.457 . S
C630 H635 0.929 . S
C631 C630 1.457 . S
C631 C632 1.291 . S
C631 H644 0.931 . S
C632 C631 1.291 . S
C632 C633 1.373 . S
C632 H645 0.929 . S
C633 C632 1.373 . S
C633 C634 1.396 . S
C633 C640 1.403 . S
C634 C624 1.476 . S
C634 N629 1.318 . S
C634 C633 1.396 . S
H635 C630 0.929 . S
O636 Mn612 2.385 . S
O636 C614 1.234 . S
O637 Mn612 2.209 . S
O637 Mn613 2.215 . S
O637 C614 1.283 . S
O638 Mn612 2.094 . S
O638 C616 1.240 . S
O639 Mn613 2.117 . S
O639 C616 1.264 . S
C640 C633 1.403 . S
C640 C641 1.399 . S
C640 H646 0.929 . S
C641 C621 1.449 . S
C641 C640 1.399 . S
C641 H647 0.930 . S
H642 C622 0.931 . S
H643 C623 0.930 . S
H644 C631 0.931 . S
H645 C632 0.929 . S
H646 C640 0.929 . S
H647 C641 0.930 . S
Mn648 O653 2.095 . S
Mn648 O663 2.162 . S
Mn648 O664 2.297 . S
Mn648 O672 2.385 . S
Mn648 O673 2.209 . S
Mn648 O674 2.094 . S
Mn649 O654 2.121 . S
Mn649 N656 2.257 . S
Mn649 N665 2.282 . S
Mn649 O673 2.215 . S
Mn649 O675 2.117 . S
C650 O672 1.234 . S
C650 O673 1.283 . S
C651 O663 1.281 . S
C651 O664 1.236 . S
C652 O674 1.240 . S
C652 O675 1.264 . S
O653 Mn648 2.095 . S
O653 C662 1.250 . S
O654 Mn649 2.121 . S
O654 C662 1.258 . S
C655 N656 1.326 . S
C655 C659 1.460 . S
C655 H661 0.929 . S
N656 Mn649 2.257 . S
N656 C655 1.326 . S
N656 C660 1.362 . S
C657 C658 1.258 . S
C657 C660 1.431 . S
C657 C677 1.449 . S
C658 C657 1.258 . S
C658 C659 1.477 . S
C658 H678 0.931 . S
C659 C655 1.460 . S
C659 C658 1.477 . S
C659 H679 0.930 . S
C660 N656 1.362 . S
C660 C657 1.431 . S
C660 C670 1.476 . S
H661 C655 0.929 . S
C662 O653 1.250 . S
C662 O654 1.258 . S
O663 Mn648 2.162 . S
O663 C651 1.281 . S
O664 Mn648 2.297 . S
O664 C651 1.236 . S
N665 Mn649 2.282 . S
N665 C666 1.328 . S
N665 C670 1.318 . S
C666 N665 1.328 . S
C666 C667 1.457 . S
C666 H671 0.929 . S
C667 C666 1.457 . S
C667 C668 1.291 . S
C667 H680 0.931 . S
C668 C667 1.291 . S
C668 C669 1.373 . S
C668 H681 0.929 . S
C669 C668 1.373 . S
C669 C670 1.396 . S
C669 C676 1.403 . S
C670 C660 1.476 . S
C670 N665 1.318 . S
C670 C669 1.396 . S
H671 C666 0.929 . S
O672 Mn648 2.385 . S
O672 C650 1.234 . S
O673 Mn648 2.209 . S
O673 Mn649 2.215 . S
O673 C650 1.283 . S
O674 Mn648 2.094 . S
O674 C652 1.240 . S
O675 Mn649 2.117 . S
O675 C652 1.264 . S
C676 C669 1.403 . S
C676 C677 1.399 . S
C676 H682 0.929 . S
C677 C657 1.449 . S
C677 C676 1.399 . S
C677 H683 0.930 . S
H678 C658 0.931 . S
H679 C659 0.930 . S
H680 C667 0.931 . S
H681 C668 0.929 . S
H682 C676 0.929 . S
H683 C677 0.930 . S
Mn684 O689 2.095 . S
Mn684 O699 2.162 . S
Mn684 O700 2.297 . S
Mn684 O708 2.385 . S
Mn684 O709 2.209 . S
Mn684 O710 2.094 . S
Mn685 O690 2.121 . S
Mn685 N692 2.257 . S
Mn685 N701 2.282 . S
Mn685 O709 2.215 . S
Mn685 O711 2.117 . S
C686 O708 1.234 . S
C686 O709 1.283 . S
C687 O699 1.281 . S
C687 O700 1.236 . S
C688 O710 1.240 . S
C688 O711 1.264 . S
O689 Mn684 2.095 . S
O689 C698 1.250 . S
O690 Mn685 2.121 . S
O690 C698 1.258 . S
C691 N692 1.326 . S
C691 C695 1.460 . S
C691 H697 0.929 . S
N692 Mn685 2.257 . S
N692 C691 1.326 . S
N692 C696 1.362 . S
C693 C694 1.258 . S
C693 C696 1.431 . S
C693 C713 1.449 . S
C694 C693 1.258 . S
C694 C695 1.477 . S
C694 H714 0.931 . S
C695 C691 1.460 . S
C695 C694 1.477 . S
C695 H715 0.930 . S
C696 N692 1.362 . S
C696 C693 1.431 . S
C696 C706 1.476 . S
H697 C691 0.929 . S
C698 O689 1.250 . S
C698 O690 1.258 . S
O699 Mn684 2.162 . S
O699 C687 1.281 . S
O700 Mn684 2.297 . S
O700 C687 1.236 . S
N701 Mn685 2.282 . S
N701 C702 1.328 . S
N701 C706 1.318 . S
C702 N701 1.328 . S
C702 C703 1.457 . S
C702 H707 0.929 . S
C703 C702 1.457 . S
C703 C704 1.291 . S
C703 H716 0.931 . S
C704 C703 1.291 . S
C704 C705 1.373 . S
C704 H717 0.929 . S
C705 C704 1.373 . S
C705 C706 1.396 . S
C705 C712 1.403 . S
C706 C696 1.476 . S
C706 N701 1.318 . S
C706 C705 1.396 . S
H707 C702 0.929 . S
O708 Mn684 2.385 . S
O708 C686 1.234 . S
O709 Mn684 2.209 . S
O709 Mn685 2.215 . S
O709 C686 1.283 . S
O710 Mn684 2.094 . S
O710 C688 1.240 . S
O711 Mn685 2.117 . S
O711 C688 1.264 . S
C712 C705 1.403 . S
C712 C713 1.399 . S
C712 H718 0.929 . S
C713 C693 1.449 . S
C713 C712 1.399 . S
C713 H719 0.930 . S
H714 C694 0.931 . S
H715 C695 0.930 . S
H716 C703 0.931 . S
H717 C704 0.929 . S
H718 C712 0.929 . S
H719 C713 0.930 . S
Mn720 O725 2.095 . S
Mn720 O735 2.162 . S
Mn720 O736 2.297 . S
Mn720 O744 2.385 . S
Mn720 O745 2.209 . S
Mn720 O746 2.094 . S
Mn721 O726 2.121 . S
Mn721 N728 2.257 . S
Mn721 N737 2.282 . S
Mn721 O745 2.215 . S
Mn721 O747 2.117 . S
C722 O744 1.234 . S
C722 O745 1.283 . S
C723 O735 1.281 . S
C723 O736 1.236 . S
C724 O746 1.240 . S
C724 O747 1.264 . S
O725 Mn720 2.095 . S
O725 C734 1.250 . S
O726 Mn721 2.121 . S
O726 C734 1.258 . S
C727 N728 1.326 . S
C727 C731 1.460 . S
C727 H733 0.929 . S
N728 Mn721 2.257 . S
N728 C727 1.326 . S
N728 C732 1.362 . S
C729 C730 1.258 . S
C729 C732 1.431 . S
C729 C749 1.449 . S
C730 C729 1.258 . S
C730 C731 1.477 . S
C730 H750 0.931 . S
C731 C727 1.460 . S
C731 C730 1.477 . S
C731 H751 0.930 . S
C732 N728 1.362 . S
C732 C729 1.431 . S
C732 C742 1.476 . S
H733 C727 0.929 . S
C734 O725 1.250 . S
C734 O726 1.258 . S
O735 Mn720 2.162 . S
O735 C723 1.281 . S
O736 Mn720 2.297 . S
O736 C723 1.236 . S
N737 Mn721 2.282 . S
N737 C738 1.328 . S
N737 C742 1.318 . S
C738 N737 1.328 . S
C738 C739 1.457 . S
C738 H743 0.929 . S
C739 C738 1.457 . S
C739 C740 1.291 . S
C739 H752 0.931 . S
C740 C739 1.291 . S
C740 C741 1.373 . S
C740 H753 0.929 . S
C741 C740 1.373 . S
C741 C742 1.396 . S
C741 C748 1.403 . S
C742 C732 1.476 . S
C742 N737 1.318 . S
C742 C741 1.396 . S
H743 C738 0.929 . S
O744 Mn720 2.385 . S
O744 C722 1.234 . S
O745 Mn720 2.209 . S
O745 Mn721 2.215 . S
O745 C722 1.283 . S
O746 Mn720 2.094 . S
O746 C724 1.240 . S
O747 Mn721 2.117 . S
O747 C724 1.264 . S
C748 C741 1.403 . S
C748 C749 1.399 . S
C748 H754 0.929 . S
C749 C729 1.449 . S
C749 C748 1.399 . S
C749 H755 0.930 . S
H750 C730 0.931 . S
H751 C731 0.930 . S
H752 C739 0.931 . S
H753 C740 0.929 . S
H754 C748 0.929 . S
H755 C749 0.930 . S
Mn756 O761 2.095 . S
Mn756 O771 2.162 . S
Mn756 O772 2.297 . S
Mn756 O780 2.385 . S
Mn756 O781 2.209 . S
Mn756 O782 2.094 . S
Mn757 O762 2.121 . S
Mn757 N764 2.257 . S
Mn757 N773 2.282 . S
Mn757 O781 2.215 . S
Mn757 O783 2.117 . S
C758 O780 1.234 . S
C758 O781 1.283 . S
C759 O771 1.281 . S
C759 O772 1.236 . S
C760 O782 1.240 . S
C760 O783 1.264 . S
O761 Mn756 2.095 . S
O761 C770 1.250 . S
O762 Mn757 2.121 . S
O762 C770 1.258 . S
C763 N764 1.326 . S
C763 C767 1.460 1_556 S
C763 H769 0.929 . S
N764 Mn757 2.257 . S
N764 C763 1.326 . S
N764 C768 1.362 1_556 S
C765 C766 1.258 . S
C765 C768 1.431 . S
C765 C785 1.449 . S
C766 C765 1.258 . S
C766 C767 1.477 . S
C766 H786 0.931 . S
C767 C763 1.460 1_554 S
C767 C766 1.477 . S
C767 H787 0.930 . S
C768 N764 1.362 1_554 S
C768 C765 1.431 . S
C768 C778 1.476 . S
H769 C763 0.929 . S
C770 O761 1.250 . S
C770 O762 1.258 . S
O771 Mn756 2.162 . S
O771 C759 1.281 . S
O772 Mn756 2.297 . S
O772 C759 1.236 . S
N773 Mn757 2.282 . S
N773 C774 1.328 . S
N773 C778 1.318 1_556 S
C774 N773 1.328 . S
C774 C775 1.457 . S
C774 H779 0.929 . S
C775 C774 1.457 . S
C775 C776 1.291 1_556 S
C775 H788 0.931 . S
C776 C775 1.291 1_554 S
C776 C777 1.373 . S
C776 H789 0.929 . S
C777 C776 1.373 . S
C777 C778 1.396 . S
C777 C784 1.403 . S
C778 C768 1.476 . S
C778 N773 1.318 1_554 S
C778 C777 1.396 . S
H779 C774 0.929 . S
O780 Mn756 2.385 . S
O780 C758 1.234 . S
O781 Mn756 2.209 . S
O781 Mn757 2.215 . S
O781 C758 1.283 . S
O782 Mn756 2.094 . S
O782 C760 1.240 . S
O783 Mn757 2.117 . S
O783 C760 1.264 . S
C784 C777 1.403 . S
C784 C785 1.399 . S
C784 H790 0.929 . S
C785 C765 1.449 . S
C785 C784 1.399 . S
C785 H791 0.930 . S
H786 C766 0.931 . S
H787 C767 0.930 . S
H788 C775 0.931 . S
H789 C776 0.929 . S
H790 C784 0.929 . S
H791 C785 0.930 . S
Mn792 O797 2.095 . S
Mn792 O807 2.162 . S
Mn792 O808 2.297 . S
Mn792 O816 2.385 . S
Mn792 O817 2.209 . S
Mn792 O818 2.094 . S
Mn793 O798 2.121 . S
Mn793 N800 2.257 . S
Mn793 N809 2.282 . S
Mn793 O817 2.215 . S
Mn793 O819 2.117 . S
C794 O816 1.234 . S
C794 O817 1.283 . S
C795 O807 1.281 . S
C795 O808 1.236 . S
C796 O818 1.240 . S
C796 O819 1.264 . S
O797 Mn792 2.095 . S
O797 C806 1.250 . S
O798 Mn793 2.121 . S
O798 C806 1.258 . S
C799 N800 1.326 . S
C799 C803 1.460 1_556 S
C799 H805 0.929 . S
N800 Mn793 2.257 . S
N800 C799 1.326 . S
N800 C804 1.362 1_556 S
C801 C802 1.258 . S
C801 C804 1.431 . S
C801 C821 1.449 . S
C802 C801 1.258 . S
C802 C803 1.477 . S
C802 H822 0.931 . S
C803 C799 1.460 1_554 S
C803 C802 1.477 . S
C803 H823 0.930 . S
C804 N800 1.362 1_554 S
C804 C801 1.431 . S
C804 C814 1.476 . S
H805 C799 0.929 . S
C806 O797 1.250 . S
C806 O798 1.258 . S
O807 Mn792 2.162 . S
O807 C795 1.281 . S
O808 Mn792 2.297 . S
O808 C795 1.236 . S
N809 Mn793 2.282 . S
N809 C810 1.328 . S
N809 C814 1.318 1_556 S
C810 N809 1.328 . S
C810 C811 1.457 . S
C810 H815 0.929 . S
C811 C810 1.457 . S
C811 C812 1.291 1_556 S
C811 H824 0.931 . S
C812 C811 1.291 1_554 S
C812 C813 1.373 . S
C812 H825 0.929 . S
C813 C812 1.373 . S
C813 C814 1.396 . S
C813 C820 1.403 . S
C814 C804 1.476 . S
C814 N809 1.318 1_554 S
C814 C813 1.396 . S
H815 C810 0.929 . S
O816 Mn792 2.385 . S
O816 C794 1.234 . S
O817 Mn792 2.209 . S
O817 Mn793 2.215 . S
O817 C794 1.283 . S
O818 Mn792 2.094 . S
O818 C796 1.240 . S
O819 Mn793 2.117 . S
O819 C796 1.264 . S
C820 C813 1.403 . S
C820 C821 1.399 . S
C820 H826 0.929 . S
C821 C801 1.449 . S
C821 C820 1.399 . S
C821 H827 0.930 . S
H822 C802 0.931 . S
H823 C803 0.930 . S
H824 C811 0.931 . S
H825 C812 0.929 . S
H826 C820 0.929 . S
H827 C821 0.930 . S
Mn828 O833 2.095 . S
Mn828 O843 2.162 . S
Mn828 O844 2.297 . S
Mn828 O852 2.385 . S
Mn828 O853 2.209 . S
Mn828 O854 2.094 . S
Mn829 O834 2.121 . S
Mn829 N836 2.257 . S
Mn829 N845 2.282 . S
Mn829 O853 2.215 . S
Mn829 O855 2.117 . S
C830 O852 1.234 . S
C830 O853 1.283 . S
C831 O843 1.281 . S
C831 O844 1.236 . S
C832 O854 1.240 . S
C832 O855 1.264 . S
O833 Mn828 2.095 . S
O833 C842 1.250 . S
O834 Mn829 2.121 . S
O834 C842 1.258 . S
C835 N836 1.326 . S
C835 C839 1.460 1_556 S
C835 H841 0.929 . S
N836 Mn829 2.257 . S
N836 C835 1.326 . S
N836 C840 1.362 1_556 S
C837 C838 1.258 . S
C837 C840 1.431 . S
C837 C857 1.449 . S
C838 C837 1.258 . S
C838 C839 1.477 . S
C838 H858 0.931 . S
C839 C835 1.460 1_554 S
C839 C838 1.477 . S
C839 H859 0.930 . S
C840 N836 1.362 1_554 S
C840 C837 1.431 . S
C840 C850 1.476 . S
H841 C835 0.929 . S
C842 O833 1.250 . S
C842 O834 1.258 . S
O843 Mn828 2.162 . S
O843 C831 1.281 . S
O844 Mn828 2.297 . S
O844 C831 1.236 . S
N845 Mn829 2.282 . S
N845 C846 1.328 . S
N845 C850 1.318 1_556 S
C846 N845 1.328 . S
C846 C847 1.457 . S
C846 H851 0.929 . S
C847 C846 1.457 . S
C847 C848 1.291 1_556 S
C847 H860 0.931 . S
C848 C847 1.291 1_554 S
C848 C849 1.373 . S
C848 H861 0.929 . S
C849 C848 1.373 . S
C849 C850 1.396 . S
C849 C856 1.403 . S
C850 C840 1.476 . S
C850 N845 1.318 1_554 S
C850 C849 1.396 . S
H851 C846 0.929 . S
O852 Mn828 2.385 . S
O852 C830 1.234 . S
O853 Mn828 2.209 . S
O853 Mn829 2.215 . S
O853 C830 1.283 . S
O854 Mn828 2.094 . S
O854 C832 1.240 . S
O855 Mn829 2.117 . S
O855 C832 1.264 . S
C856 C849 1.403 . S
C856 C857 1.399 . S
C856 H862 0.929 . S
C857 C837 1.449 . S
C857 C856 1.399 . S
C857 H863 0.930 . S
H858 C838 0.931 . S
H859 C839 0.930 . S
H860 C847 0.931 . S
H861 C848 0.929 . S
H862 C856 0.929 . S
H863 C857 0.930 . S
Mn864 O869 2.095 . S
Mn864 O879 2.162 . S
Mn864 O880 2.297 . S
Mn864 O888 2.385 . S
Mn864 O889 2.209 . S
Mn864 O890 2.094 . S
Mn865 O870 2.121 . S
Mn865 N872 2.257 . S
Mn865 N881 2.282 . S
Mn865 O889 2.215 . S
Mn865 O891 2.117 . S
C866 O888 1.234 . S
C866 O889 1.283 . S
C867 O879 1.281 . S
C867 O880 1.236 . S
C868 O890 1.240 . S
C868 O891 1.264 . S
O869 Mn864 2.095 . S
O869 C878 1.250 . S
O870 Mn865 2.121 . S
O870 C878 1.258 . S
C871 N872 1.326 . S
C871 C875 1.460 . S
C871 H877 0.929 . S
N872 Mn865 2.257 . S
N872 C871 1.326 . S
N872 C876 1.362 . S
C873 C874 1.258 . S
C873 C876 1.431 . S
C873 C893 1.449 . S
C874 C873 1.258 . S
C874 C875 1.477 . S
C874 H894 0.931 . S
C875 C871 1.460 . S
C875 C874 1.477 . S
C875 H895 0.930 . S
C876 N872 1.362 . S
C876 C873 1.431 . S
C876 C886 1.476 . S
H877 C871 0.929 . S
C878 O869 1.250 . S
C878 O870 1.258 . S
O879 Mn864 2.162 . S
O879 C867 1.281 . S
O880 Mn864 2.297 . S
O880 C867 1.236 . S
N881 Mn865 2.282 . S
N881 C882 1.328 . S
N881 C886 1.318 . S
C882 N881 1.328 . S
C882 C883 1.457 . S
C882 H887 0.929 . S
C883 C882 1.457 . S
C883 C884 1.291 . S
C883 H896 0.931 . S
C884 C883 1.291 . S
C884 C885 1.373 . S
C884 H897 0.929 . S
C885 C884 1.373 . S
C885 C886 1.396 . S
C885 C892 1.403 . S
C886 C876 1.476 . S
C886 N881 1.318 . S
C886 C885 1.396 . S
H887 C882 0.929 . S
O888 Mn864 2.385 . S
O888 C866 1.234 . S
O889 Mn864 2.209 . S
O889 Mn865 2.215 . S
O889 C866 1.283 . S
O890 Mn864 2.094 . S
O890 C868 1.240 . S
O891 Mn865 2.117 . S
O891 C868 1.264 . S
C892 C885 1.403 . S
C892 C893 1.399 . S
C892 H898 0.929 . S
C893 C873 1.449 . S
C893 C892 1.399 . S
C893 H899 0.930 . S
H894 C874 0.931 . S
H895 C875 0.930 . S
H896 C883 0.931 . S
H897 C884 0.929 . S
H898 C892 0.929 . S
H899 C893 0.930 . S
Mn900 O905 2.095 . S
Mn900 O915 2.162 . S
Mn900 O916 2.297 . S
Mn900 O924 2.385 . S
Mn900 O925 2.209 . S
Mn900 O926 2.094 . S
Mn901 O906 2.121 . S
Mn901 N908 2.257 . S
Mn901 N917 2.282 . S
Mn901 O925 2.215 . S
Mn901 O927 2.117 . S
C902 O924 1.234 . S
C902 O925 1.283 . S
C903 O915 1.281 . S
C903 O916 1.236 . S
C904 O926 1.240 . S
C904 O927 1.264 . S
O905 Mn900 2.095 . S
O905 C914 1.250 . S
O906 Mn901 2.121 . S
O906 C914 1.258 . S
C907 N908 1.326 . S
C907 C911 1.460 . S
C907 H913 0.929 . S
N908 Mn901 2.257 . S
N908 C907 1.326 . S
N908 C912 1.362 . S
C909 C910 1.258 . S
C909 C912 1.431 . S
C909 C929 1.449 . S
C910 C909 1.258 . S
C910 C911 1.477 . S
C910 H930 0.931 . S
C911 C907 1.460 . S
C911 C910 1.477 . S
C911 H931 0.930 . S
C912 N908 1.362 . S
C912 C909 1.431 . S
C912 C922 1.476 . S
H913 C907 0.929 . S
C914 O905 1.250 . S
C914 O906 1.258 . S
O915 Mn900 2.162 . S
O915 C903 1.281 . S
O916 Mn900 2.297 . S
O916 C903 1.236 . S
N917 Mn901 2.282 . S
N917 C918 1.328 . S
N917 C922 1.318 . S
C918 N917 1.328 . S
C918 C919 1.457 . S
C918 H923 0.929 . S
C919 C918 1.457 . S
C919 C920 1.291 . S
C919 H932 0.931 . S
C920 C919 1.291 . S
C920 C921 1.373 . S
C920 H933 0.929 . S
C921 C920 1.373 . S
C921 C922 1.396 . S
C921 C928 1.403 . S
C922 C912 1.476 . S
C922 N917 1.318 . S
C922 C921 1.396 . S
H923 C918 0.929 . S
O924 Mn900 2.385 . S
O924 C902 1.234 . S
O925 Mn900 2.209 . S
O925 Mn901 2.215 . S
O925 C902 1.283 . S
O926 Mn900 2.094 . S
O926 C904 1.240 . S
O927 Mn901 2.117 . S
O927 C904 1.264 . S
C928 C921 1.403 . S
C928 C929 1.399 . S
C928 H934 0.929 . S
C929 C909 1.449 . S
C929 C928 1.399 . S
C929 H935 0.930 . S
H930 C910 0.931 . S
H931 C911 0.930 . S
H932 C919 0.931 . S
H933 C920 0.929 . S
H934 C928 0.929 . S
H935 C929 0.930 . S
Mn936 O941 2.095 . S
Mn936 O951 2.162 . S
Mn936 O952 2.297 . S
Mn936 O960 2.385 . S
Mn936 O961 2.209 . S
Mn936 O962 2.094 . S
Mn937 O942 2.121 . S
Mn937 N944 2.257 . S
Mn937 N953 2.282 . S
Mn937 O961 2.215 . S
Mn937 O963 2.117 . S
C938 O960 1.234 . S
C938 O961 1.283 . S
C939 O951 1.281 . S
C939 O952 1.236 . S
C940 O962 1.240 . S
C940 O963 1.264 . S
O941 Mn936 2.095 . S
O941 C950 1.250 . S
O942 Mn937 2.121 . S
O942 C950 1.258 . S
C943 N944 1.326 . S
C943 C947 1.460 . S
C943 H949 0.929 . S
N944 Mn937 2.257 . S
N944 C943 1.326 . S
N944 C948 1.362 . S
C945 C946 1.258 . S
C945 C948 1.431 . S
C945 C965 1.449 . S
C946 C945 1.258 . S
C946 C947 1.477 . S
C946 H966 0.931 . S
C947 C943 1.460 . S
C947 C946 1.477 . S
C947 H967 0.930 . S
C948 N944 1.362 . S
C948 C945 1.431 . S
C948 C958 1.476 . S
H949 C943 0.929 . S
C950 O941 1.250 . S
C950 O942 1.258 . S
O951 Mn936 2.162 . S
O951 C939 1.281 . S
O952 Mn936 2.297 . S
O952 C939 1.236 . S
N953 Mn937 2.282 . S
N953 C954 1.328 . S
N953 C958 1.318 . S
C954 N953 1.328 . S
C954 C955 1.457 . S
C954 H959 0.929 . S
C955 C954 1.457 . S
C955 C956 1.291 . S
C955 H968 0.931 . S
C956 C955 1.291 . S
C956 C957 1.373 . S
C956 H969 0.929 . S
C957 C956 1.373 . S
C957 C958 1.396 . S
C957 C964 1.403 . S
C958 C948 1.476 . S
C958 N953 1.318 . S
C958 C957 1.396 . S
H959 C954 0.929 . S
O960 Mn936 2.385 . S
O960 C938 1.234 . S
O961 Mn936 2.209 . S
O961 Mn937 2.215 . S
O961 C938 1.283 . S
O962 Mn936 2.094 . S
O962 C940 1.240 . S
O963 Mn937 2.117 . S
O963 C940 1.264 . S
C964 C957 1.403 . S
C964 C965 1.399 . S
C964 H970 0.929 . S
C965 C945 1.449 . S
C965 C964 1.399 . S
C965 H971 0.930 . S
H966 C946 0.931 . S
H967 C947 0.930 . S
H968 C955 0.931 . S
H969 C956 0.929 . S
H970 C964 0.929 . S
H971 C965 0.930 . S
Mn972 O977 2.095 . S
Mn972 O987 2.162 . S
Mn972 O988 2.297 . S
Mn972 O996 2.385 . S
Mn972 O997 2.209 . S
Mn972 O998 2.094 . S
Mn973 O978 2.121 . S
Mn973 N980 2.257 . S
Mn973 N989 2.282 . S
Mn973 O997 2.215 . S
Mn973 O999 2.117 . S
C974 O996 1.234 . S
C974 O997 1.283 . S
C975 O987 1.281 . S
C975 O988 1.236 . S
C976 O998 1.240 . S
C976 O999 1.264 . S
O977 Mn972 2.095 . S
O977 C986 1.250 . S
O978 Mn973 2.121 . S
O978 C986 1.258 . S
C979 N980 1.326 . S
C979 C983 1.460 1_554 S
C979 H985 0.929 . S
N980 Mn973 2.257 . S
N980 C979 1.326 . S
N980 C984 1.362 1_554 S
C981 C982 1.258 . S
C981 C984 1.431 . S
C981 C1001 1.449 . S
C982 C981 1.258 . S
C982 C983 1.477 . S
C982 H1002 0.931 . S
C983 C979 1.460 1_556 S
C983 C982 1.477 . S
C983 H1003 0.930 . S
C984 N980 1.362 1_556 S
C984 C981 1.431 . S
C984 C994 1.476 . S
H985 C979 0.929 . S
C986 O977 1.250 . S
C986 O978 1.258 . S
O987 Mn972 2.162 . S
O987 C975 1.281 . S
O988 Mn972 2.297 . S
O988 C975 1.236 . S
N989 Mn973 2.282 . S
N989 C990 1.328 . S
N989 C994 1.318 1_554 S
C990 N989 1.328 . S
C990 C991 1.457 . S
C990 H995 0.929 . S
C991 C990 1.457 . S
C991 C992 1.291 1_554 S
C991 H1004 0.931 . S
C992 C991 1.291 1_556 S
C992 C993 1.373 . S
C992 H1005 0.929 . S
C993 C992 1.373 . S
C993 C994 1.396 . S
C993 C1000 1.403 . S
C994 C984 1.476 . S
C994 N989 1.318 1_556 S
C994 C993 1.396 . S
H995 C990 0.929 . S
O996 Mn972 2.385 . S
O996 C974 1.234 . S
O997 Mn972 2.209 . S
O997 Mn973 2.215 . S
O997 C974 1.283 . S
O998 Mn972 2.094 . S
O998 C976 1.240 . S
O999 Mn973 2.117 . S
O999 C976 1.264 . S
C1000 C993 1.403 . S
C1000 C1001 1.399 . S
C1000 H1006 0.929 . S
C1001 C981 1.449 . S
C1001 C1000 1.399 . S
C1001 H1007 0.930 . S
H1002 C982 0.931 . S
H1003 C983 0.930 . S
H1004 C991 0.931 . S
H1005 C992 0.929 . S
H1006 C1000 0.929 . S
H1007 C1001 0.930 . S
Mn1008 O1013 2.095 . S
Mn1008 O1023 2.162 . S
Mn1008 O1024 2.297 . S
Mn1008 O1032 2.385 . S
Mn1008 O1033 2.209 . S
Mn1008 O1034 2.094 . S
Mn1009 O1014 2.121 . S
Mn1009 N1016 2.257 . S
Mn1009 N1025 2.282 . S
Mn1009 O1033 2.215 . S
Mn1009 O1035 2.117 . S
C1010 O1032 1.234 . S
C1010 O1033 1.283 . S
C1011 O1023 1.281 . S
C1011 O1024 1.236 . S
C1012 O1034 1.240 . S
C1012 O1035 1.264 . S
O1013 Mn1008 2.095 . S
O1013 C1022 1.250 . S
O1014 Mn1009 2.121 . S
O1014 C1022 1.258 . S
C1015 N1016 1.326 . S
C1015 C1019 1.460 1_554 S
C1015 H1021 0.929 . S
N1016 Mn1009 2.257 . S
N1016 C1015 1.326 . S
N1016 C1020 1.362 1_554 S
C1017 C1018 1.258 . S
C1017 C1020 1.431 . S
C1017 C1037 1.449 . S
C1018 C1017 1.258 . S
C1018 C1019 1.477 . S
C1018 H1038 0.931 . S
C1019 C1015 1.460 1_556 S
C1019 C1018 1.477 . S
C1019 H1039 0.930 . S
C1020 N1016 1.362 1_556 S
C1020 C1017 1.431 . S
C1020 C1030 1.476 . S
H1021 C1015 0.929 . S
C1022 O1013 1.250 . S
C1022 O1014 1.258 . S
O1023 Mn1008 2.162 . S
O1023 C1011 1.281 . S
O1024 Mn1008 2.297 . S
O1024 C1011 1.236 . S
N1025 Mn1009 2.282 . S
N1025 C1026 1.328 . S
N1025 C1030 1.318 1_554 S
C1026 N1025 1.328 . S
C1026 C1027 1.457 . S
C1026 H1031 0.929 . S
C1027 C1026 1.457 . S
C1027 C1028 1.291 1_554 S
C1027 H1040 0.931 . S
C1028 C1027 1.291 1_556 S
C1028 C1029 1.373 . S
C1028 H1041 0.929 . S
C1029 C1028 1.373 . S
C1029 C1030 1.396 . S
C1029 C1036 1.403 . S
C1030 C1020 1.476 . S
C1030 N1025 1.318 1_556 S
C1030 C1029 1.396 . S
H1031 C1026 0.929 . S
O1032 Mn1008 2.385 . S
O1032 C1010 1.234 . S
O1033 Mn1008 2.209 . S
O1033 Mn1009 2.215 . S
O1033 C1010 1.283 . S
O1034 Mn1008 2.094 . S
O1034 C1012 1.240 . S
O1035 Mn1009 2.117 . S
O1035 C1012 1.264 . S
C1036 C1029 1.403 . S
C1036 C1037 1.399 . S
C1036 H1042 0.929 . S
C1037 C1017 1.449 . S
C1037 C1036 1.399 . S
C1037 H1043 0.930 . S
H1038 C1018 0.931 . S
H1039 C1019 0.930 . S
H1040 C1027 0.931 . S
H1041 C1028 0.929 . S
H1042 C1036 0.929 . S
H1043 C1037 0.930 . S
Mn1044 O1049 2.095 . S
Mn1044 O1059 2.162 . S
Mn1044 O1060 2.297 . S
Mn1044 O1068 2.385 . S
Mn1044 O1069 2.209 . S
Mn1044 O1070 2.094 . S
Mn1045 O1050 2.121 . S
Mn1045 N1052 2.257 . S
Mn1045 N1061 2.282 . S
Mn1045 O1069 2.215 . S
Mn1045 O1071 2.117 . S
C1046 O1068 1.234 . S
C1046 O1069 1.283 . S
C1047 O1059 1.281 . S
C1047 O1060 1.236 . S
C1048 O1070 1.240 . S
C1048 O1071 1.264 . S
O1049 Mn1044 2.095 . S
O1049 C1058 1.250 . S
O1050 Mn1045 2.121 . S
O1050 C1058 1.258 . S
C1051 N1052 1.326 . S
C1051 C1055 1.460 1_554 S
C1051 H1057 0.929 . S
N1052 Mn1045 2.257 . S
N1052 C1051 1.326 . S
N1052 C1056 1.362 1_554 S
C1053 C1054 1.258 . S
C1053 C1056 1.431 . S
C1053 C1073 1.449 . S
C1054 C1053 1.258 . S
C1054 C1055 1.477 . S
C1054 H1074 0.931 . S
C1055 C1051 1.460 1_556 S
C1055 C1054 1.477 . S
C1055 H1075 0.930 . S
C1056 N1052 1.362 1_556 S
C1056 C1053 1.431 . S
C1056 C1066 1.476 . S
H1057 C1051 0.929 . S
C1058 O1049 1.250 . S
C1058 O1050 1.258 . S
O1059 Mn1044 2.162 . S
O1059 C1047 1.281 . S
O1060 Mn1044 2.297 . S
O1060 C1047 1.236 . S
N1061 Mn1045 2.282 . S
N1061 C1062 1.328 . S
N1061 C1066 1.318 1_554 S
C1062 N1061 1.328 . S
C1062 C1063 1.457 . S
C1062 H1067 0.929 . S
C1063 C1062 1.457 . S
C1063 C1064 1.291 1_554 S
C1063 H1076 0.931 . S
C1064 C1063 1.291 1_556 S
C1064 C1065 1.373 . S
C1064 H1077 0.929 . S
C1065 C1064 1.373 . S
C1065 C1066 1.396 . S
C1065 C1072 1.403 . S
C1066 C1056 1.476 . S
C1066 N1061 1.318 1_556 S
C1066 C1065 1.396 . S
H1067 C1062 0.929 . S
O1068 Mn1044 2.385 . S
O1068 C1046 1.234 . S
O1069 Mn1044 2.209 . S
O1069 Mn1045 2.215 . S
O1069 C1046 1.283 . S
O1070 Mn1044 2.094 . S
O1070 C1048 1.240 . S
O1071 Mn1045 2.117 . S
O1071 C1048 1.264 . S
C1072 C1065 1.403 . S
C1072 C1073 1.399 . S
C1072 H1078 0.929 . S
C1073 C1053 1.449 . S
C1073 C1072 1.399 . S
C1073 H1079 0.930 . S
H1074 C1054 0.931 . S
H1075 C1055 0.930 . S
H1076 C1063 0.931 . S
H1077 C1064 0.929 . S
H1078 C1072 0.929 . S
H1079 C1073 0.930 . S
Mn1080 O1085 2.095 . S
Mn1080 O1095 2.162 . S
Mn1080 O1096 2.297 . S
Mn1080 O1104 2.385 . S
Mn1080 O1105 2.209 . S
Mn1080 O1106 2.094 . S
Mn1081 O1086 2.121 . S
Mn1081 N1088 2.257 . S
Mn1081 N1097 2.282 . S
Mn1081 O1105 2.215 . S
Mn1081 O1107 2.117 . S
C1082 O1104 1.234 . S
C1082 O1105 1.283 . S
C1083 O1095 1.281 . S
C1083 O1096 1.236 . S
C1084 O1106 1.240 . S
C1084 O1107 1.264 . S
O1085 Mn1080 2.095 . S
O1085 C1094 1.250 . S
O1086 Mn1081 2.121 . S
O1086 C1094 1.258 . S
C1087 N1088 1.326 . S
C1087 C1091 1.460 . S
C1087 H1093 0.929 . S
N1088 Mn1081 2.257 . S
N1088 C1087 1.326 . S
N1088 C1092 1.362 . S
C1089 C1090 1.258 . S
C1089 C1092 1.431 . S
C1089 C1109 1.449 . S
C1090 C1089 1.258 . S
C1090 C1091 1.477 . S
C1090 H1110 0.931 . S
C1091 C1087 1.460 . S
C1091 C1090 1.477 . S
C1091 H1111 0.930 . S
C1092 N1088 1.362 . S
C1092 C1089 1.431 . S
C1092 C1102 1.476 . S
H1093 C1087 0.929 . S
C1094 O1085 1.250 . S
C1094 O1086 1.258 . S
O1095 Mn1080 2.162 . S
O1095 C1083 1.281 . S
O1096 Mn1080 2.297 . S
O1096 C1083 1.236 . S
N1097 Mn1081 2.282 . S
N1097 C1098 1.328 . S
N1097 C1102 1.318 . S
C1098 N1097 1.328 . S
C1098 C1099 1.457 . S
C1098 H1103 0.929 . S
C1099 C1098 1.457 . S
C1099 C1100 1.291 . S
C1099 H1112 0.931 . S
C1100 C1099 1.291 . S
C1100 C1101 1.373 . S
C1100 H1113 0.929 . S
C1101 C1100 1.373 . S
C1101 C1102 1.396 . S
C1101 C1108 1.403 . S
C1102 C1092 1.476 . S
C1102 N1097 1.318 . S
C1102 C1101 1.396 . S
H1103 C1098 0.929 . S
O1104 Mn1080 2.385 . S
O1104 C1082 1.234 . S
O1105 Mn1080 2.209 . S
O1105 Mn1081 2.215 . S
O1105 C1082 1.283 . S
O1106 Mn1080 2.094 . S
O1106 C1084 1.240 . S
O1107 Mn1081 2.117 . S
O1107 C1084 1.264 . S
C1108 C1101 1.403 . S
C1108 C1109 1.399 . S
C1108 H1114 0.929 . S
C1109 C1089 1.449 . S
C1109 C1108 1.399 . S
C1109 H1115 0.930 . S
H1110 C1090 0.931 . S
H1111 C1091 0.930 . S
H1112 C1099 0.931 . S
H1113 C1100 0.929 . S
H1114 C1108 0.929 . S
H1115 C1109 0.930 . S
Mn1116 O1121 2.095 . S
Mn1116 O1131 2.162 . S
Mn1116 O1132 2.297 . S
Mn1116 O1140 2.385 . S
Mn1116 O1141 2.209 . S
Mn1116 O1142 2.094 . S
Mn1117 O1122 2.121 . S
Mn1117 N1124 2.257 . S
Mn1117 N1133 2.282 . S
Mn1117 O1141 2.215 . S
Mn1117 O1143 2.117 . S
C1118 O1140 1.234 . S
C1118 O1141 1.283 . S
C1119 O1131 1.281 . S
C1119 O1132 1.236 . S
C1120 O1142 1.240 . S
C1120 O1143 1.264 . S
O1121 Mn1116 2.095 . S
O1121 C1130 1.250 . S
O1122 Mn1117 2.121 . S
O1122 C1130 1.258 . S
C1123 N1124 1.326 . S
C1123 C1127 1.460 . S
C1123 H1129 0.929 . S
N1124 Mn1117 2.257 . S
N1124 C1123 1.326 . S
N1124 C1128 1.362 . S
C1125 C1126 1.258 . S
C1125 C1128 1.431 . S
C1125 C1145 1.449 . S
C1126 C1125 1.258 . S
C1126 C1127 1.477 . S
C1126 H1146 0.931 . S
C1127 C1123 1.460 . S
C1127 C1126 1.477 . S
C1127 H1147 0.930 . S
C1128 N1124 1.362 . S
C1128 C1125 1.431 . S
C1128 C1138 1.476 . S
H1129 C1123 0.929 . S
C1130 O1121 1.250 . S
C1130 O1122 1.258 . S
O1131 Mn1116 2.162 . S
O1131 C1119 1.281 . S
O1132 Mn1116 2.297 . S
O1132 C1119 1.236 . S
N1133 Mn1117 2.282 . S
N1133 C1134 1.328 . S
N1133 C1138 1.318 . S
C1134 N1133 1.328 . S
C1134 C1135 1.457 . S
C1134 H1139 0.929 . S
C1135 C1134 1.457 . S
C1135 C1136 1.291 . S
C1135 H1148 0.931 . S
C1136 C1135 1.291 . S
C1136 C1137 1.373 . S
C1136 H1149 0.929 . S
C1137 C1136 1.373 . S
C1137 C1138 1.396 . S
C1137 C1144 1.403 . S
C1138 C1128 1.476 . S
C1138 N1133 1.318 . S
C1138 C1137 1.396 . S
H1139 C1134 0.929 . S
O1140 Mn1116 2.385 . S
O1140 C1118 1.234 . S
O1141 Mn1116 2.209 . S
O1141 Mn1117 2.215 . S
O1141 C1118 1.283 . S
O1142 Mn1116 2.094 . S
O1142 C1120 1.240 . S
O1143 Mn1117 2.117 . S
O1143 C1120 1.264 . S
C1144 C1137 1.403 . S
C1144 C1145 1.399 . S
C1144 H1150 0.929 . S
C1145 C1125 1.449 . S
C1145 C1144 1.399 . S
C1145 H1151 0.930 . S
H1146 C1126 0.931 . S
H1147 C1127 0.930 . S
H1148 C1135 0.931 . S
H1149 C1136 0.929 . S
H1150 C1144 0.929 . S
H1151 C1145 0.930 . S
Mn1152 O1157 2.095 . S
Mn1152 O1167 2.162 . S
Mn1152 O1168 2.297 . S
Mn1152 O1176 2.385 . S
Mn1152 O1177 2.209 . S
Mn1152 O1178 2.094 . S
Mn1153 O1158 2.121 . S
Mn1153 N1160 2.257 . S
Mn1153 N1169 2.282 . S
Mn1153 O1177 2.215 . S
Mn1153 O1179 2.117 . S
C1154 O1176 1.234 . S
C1154 O1177 1.283 . S
C1155 O1167 1.281 . S
C1155 O1168 1.236 . S
C1156 O1178 1.240 . S
C1156 O1179 1.264 . S
O1157 Mn1152 2.095 . S
O1157 C1166 1.250 . S
O1158 Mn1153 2.121 . S
O1158 C1166 1.258 . S
C1159 N1160 1.326 . S
C1159 C1163 1.460 . S
C1159 H1165 0.929 . S
N1160 Mn1153 2.257 . S
N1160 C1159 1.326 . S
N1160 C1164 1.362 . S
C1161 C1162 1.258 . S
C1161 C1164 1.431 . S
C1161 C1181 1.449 . S
C1162 C1161 1.258 . S
C1162 C1163 1.477 . S
C1162 H1182 0.931 . S
C1163 C1159 1.460 . S
C1163 C1162 1.477 . S
C1163 H1183 0.930 . S
C1164 N1160 1.362 . S
C1164 C1161 1.431 . S
C1164 C1174 1.476 . S
H1165 C1159 0.929 . S
C1166 O1157 1.250 . S
C1166 O1158 1.258 . S
O1167 Mn1152 2.162 . S
O1167 C1155 1.281 . S
O1168 Mn1152 2.297 . S
O1168 C1155 1.236 . S
N1169 Mn1153 2.282 . S
N1169 C1170 1.328 . S
N1169 C1174 1.318 . S
C1170 N1169 1.328 . S
C1170 C1171 1.457 . S
C1170 H1175 0.929 . S
C1171 C1170 1.457 . S
C1171 C1172 1.291 . S
C1171 H1184 0.931 . S
C1172 C1171 1.291 . S
C1172 C1173 1.373 . S
C1172 H1185 0.929 . S
C1173 C1172 1.373 . S
C1173 C1174 1.396 . S
C1173 C1180 1.403 . S
C1174 C1164 1.476 . S
C1174 N1169 1.318 . S
C1174 C1173 1.396 . S
H1175 C1170 0.929 . S
O1176 Mn1152 2.385 . S
O1176 C1154 1.234 . S
O1177 Mn1152 2.209 . S
O1177 Mn1153 2.215 . S
O1177 C1154 1.283 . S
O1178 Mn1152 2.094 . S
O1178 C1156 1.240 . S
O1179 Mn1153 2.117 . S
O1179 C1156 1.264 . S
C1180 C1173 1.403 . S
C1180 C1181 1.399 . S
C1180 H1186 0.929 . S
C1181 C1161 1.449 . S
C1181 C1180 1.399 . S
C1181 H1187 0.930 . S
H1182 C1162 0.931 . S
H1183 C1163 0.930 . S
H1184 C1171 0.931 . S
H1185 C1172 0.929 . S
H1186 C1180 0.929 . S
H1187 C1181 0.930 . S
Mn1188 O1193 2.095 . S
Mn1188 O1203 2.162 . S
Mn1188 O1204 2.297 . S
Mn1188 O1212 2.385 . S
Mn1188 O1213 2.209 . S
Mn1188 O1214 2.094 . S
Mn1189 O1194 2.121 . S
Mn1189 N1196 2.257 . S
Mn1189 N1205 2.282 . S
Mn1189 O1213 2.215 . S
Mn1189 O1215 2.117 . S
C1190 O1212 1.234 . S
C1190 O1213 1.283 . S
C1191 O1203 1.281 . S
C1191 O1204 1.236 . S
C1192 O1214 1.240 . S
C1192 O1215 1.264 . S
O1193 Mn1188 2.095 . S
O1193 C1202 1.250 . S
O1194 Mn1189 2.121 . S
O1194 C1202 1.258 . S
C1195 N1196 1.326 . S
C1195 C1199 1.460 . S
C1195 H1201 0.929 . S
N1196 Mn1189 2.257 . S
N1196 C1195 1.326 . S
N1196 C1200 1.362 . S
C1197 C1198 1.258 . S
C1197 C1200 1.431 . S
C1197 C1217 1.449 . S
C1198 C1197 1.258 . S
C1198 C1199 1.477 . S
C1198 H1218 0.931 . S
C1199 C1195 1.460 . S
C1199 C1198 1.477 . S
C1199 H1219 0.930 . S
C1200 N1196 1.362 . S
C1200 C1197 1.431 . S
C1200 C1210 1.476 . S
H1201 C1195 0.929 . S
C1202 O1193 1.250 . S
C1202 O1194 1.258 . S
O1203 Mn1188 2.162 . S
O1203 C1191 1.281 . S
O1204 Mn1188 2.297 . S
O1204 C1191 1.236 . S
N1205 Mn1189 2.282 . S
N1205 C1206 1.328 . S
N1205 C1210 1.318 . S
C1206 N1205 1.328 . S
C1206 C1207 1.457 . S
C1206 H1211 0.929 . S
C1207 C1206 1.457 . S
C1207 C1208 1.291 . S
C1207 H1220 0.931 . S
C1208 C1207 1.291 . S
C1208 C1209 1.373 . S
C1208 H1221 0.929 . S
C1209 C1208 1.373 . S
C1209 C1210 1.396 . S
C1209 C1216 1.403 . S
C1210 C1200 1.476 . S
C1210 N1205 1.318 . S
C1210 C1209 1.396 . S
H1211 C1206 0.929 . S
O1212 Mn1188 2.385 . S
O1212 C1190 1.234 . S
O1213 Mn1188 2.209 . S
O1213 Mn1189 2.215 . S
O1213 C1190 1.283 . S
O1214 Mn1188 2.094 . S
O1214 C1192 1.240 . S
O1215 Mn1189 2.117 . S
O1215 C1192 1.264 . S
C1216 C1209 1.403 . S
C1216 C1217 1.399 . S
C1216 H1222 0.929 . S
C1217 C1197 1.449 . S
C1217 C1216 1.399 . S
C1217 H1223 0.930 . S
H1218 C1198 0.931 . S
H1219 C1199 0.930 . S
H1220 C1207 0.931 . S
H1221 C1208 0.929 . S
H1222 C1216 0.929 . S
H1223 C1217 0.930 . S
Mn1224 O1229 2.095 . S
Mn1224 O1239 2.162 . S
Mn1224 O1240 2.297 . S
Mn1224 O1248 2.385 . S
Mn1224 O1249 2.209 . S
Mn1224 O1250 2.094 . S
Mn1225 O1230 2.121 . S
Mn1225 N1232 2.257 . S
Mn1225 N1241 2.282 . S
Mn1225 O1249 2.215 . S
Mn1225 O1251 2.117 . S
C1226 O1248 1.234 . S
C1226 O1249 1.283 . S
C1227 O1239 1.281 . S
C1227 O1240 1.236 . S
C1228 O1250 1.240 . S
C1228 O1251 1.264 . S
O1229 Mn1224 2.095 . S
O1229 C1238 1.250 . S
O1230 Mn1225 2.121 . S
O1230 C1238 1.258 . S
C1231 N1232 1.326 . S
C1231 C1235 1.460 . S
C1231 H1237 0.929 . S
N1232 Mn1225 2.257 . S
N1232 C1231 1.326 . S
N1232 C1236 1.362 . S
C1233 C1234 1.258 . S
C1233 C1236 1.431 . S
C1233 C1253 1.449 . S
C1234 C1233 1.258 . S
C1234 C1235 1.477 . S
C1234 H1254 0.931 . S
C1235 C1231 1.460 . S
C1235 C1234 1.477 . S
C1235 H1255 0.930 . S
C1236 N1232 1.362 . S
C1236 C1233 1.431 . S
C1236 C1246 1.476 . S
H1237 C1231 0.929 . S
C1238 O1229 1.250 . S
C1238 O1230 1.258 . S
O1239 Mn1224 2.162 . S
O1239 C1227 1.281 . S
O1240 Mn1224 2.297 . S
O1240 C1227 1.236 . S
N1241 Mn1225 2.282 . S
N1241 C1242 1.328 . S
N1241 C1246 1.318 . S
C1242 N1241 1.328 . S
C1242 C1243 1.457 . S
C1242 H1247 0.929 . S
C1243 C1242 1.457 . S
C1243 C1244 1.291 . S
C1243 H1256 0.931 . S
C1244 C1243 1.291 . S
C1244 C1245 1.373 . S
C1244 H1257 0.929 . S
C1245 C1244 1.373 . S
C1245 C1246 1.396 . S
C1245 C1252 1.403 . S
C1246 C1236 1.476 . S
C1246 N1241 1.318 . S
C1246 C1245 1.396 . S
H1247 C1242 0.929 . S
O1248 Mn1224 2.385 . S
O1248 C1226 1.234 . S
O1249 Mn1224 2.209 . S
O1249 Mn1225 2.215 . S
O1249 C1226 1.283 . S
O1250 Mn1224 2.094 . S
O1250 C1228 1.240 . S
O1251 Mn1225 2.117 . S
O1251 C1228 1.264 . S
C1252 C1245 1.403 . S
C1252 C1253 1.399 . S
C1252 H1258 0.929 . S
C1253 C1233 1.449 . S
C1253 C1252 1.399 . S
C1253 H1259 0.930 . S
H1254 C1234 0.931 . S
H1255 C1235 0.930 . S
H1256 C1243 0.931 . S
H1257 C1244 0.929 . S
H1258 C1252 0.929 . S
H1259 C1253 0.930 . S
Mn1260 O1265 2.095 . S
Mn1260 O1275 2.162 . S
Mn1260 O1276 2.297 . S
Mn1260 O1284 2.385 . S
Mn1260 O1285 2.209 . S
Mn1260 O1286 2.094 . S
Mn1261 O1266 2.121 . S
Mn1261 N1268 2.257 . S
Mn1261 N1277 2.282 . S
Mn1261 O1285 2.215 . S
Mn1261 O1287 2.117 . S
C1262 O1284 1.234 . S
C1262 O1285 1.283 . S
C1263 O1275 1.281 . S
C1263 O1276 1.236 . S
C1264 O1286 1.240 . S
C1264 O1287 1.264 . S
O1265 Mn1260 2.095 . S
O1265 C1274 1.250 . S
O1266 Mn1261 2.121 . S
O1266 C1274 1.258 . S
C1267 N1268 1.326 . S
C1267 C1271 1.460 . S
C1267 H1273 0.929 . S
N1268 Mn1261 2.257 . S
N1268 C1267 1.326 . S
N1268 C1272 1.362 . S
C1269 C1270 1.258 . S
C1269 C1272 1.431 . S
C1269 C1289 1.449 . S
C1270 C1269 1.258 . S
C1270 C1271 1.477 . S
C1270 H1290 0.931 . S
C1271 C1267 1.460 . S
C1271 C1270 1.477 . S
C1271 H1291 0.930 . S
C1272 N1268 1.362 . S
C1272 C1269 1.431 . S
C1272 C1282 1.476 . S
H1273 C1267 0.929 . S
C1274 O1265 1.250 . S
C1274 O1266 1.258 . S
O1275 Mn1260 2.162 . S
O1275 C1263 1.281 . S
O1276 Mn1260 2.297 . S
O1276 C1263 1.236 . S
N1277 Mn1261 2.282 . S
N1277 C1278 1.328 . S
N1277 C1282 1.318 . S
C1278 N1277 1.328 . S
C1278 C1279 1.457 . S
C1278 H1283 0.929 . S
C1279 C1278 1.457 . S
C1279 C1280 1.291 . S
C1279 H1292 0.931 . S
C1280 C1279 1.291 . S
C1280 C1281 1.373 . S
C1280 H1293 0.929 . S
C1281 C1280 1.373 . S
C1281 C1282 1.396 . S
C1281 C1288 1.403 . S
C1282 C1272 1.476 . S
C1282 N1277 1.318 . S
C1282 C1281 1.396 . S
H1283 C1278 0.929 . S
O1284 Mn1260 2.385 . S
O1284 C1262 1.234 . S
O1285 Mn1260 2.209 . S
O1285 Mn1261 2.215 . S
O1285 C1262 1.283 . S
O1286 Mn1260 2.094 . S
O1286 C1264 1.240 . S
O1287 Mn1261 2.117 . S
O1287 C1264 1.264 . S
C1288 C1281 1.403 . S
C1288 C1289 1.399 . S
C1288 H1294 0.929 . S
C1289 C1269 1.449 . S
C1289 C1288 1.399 . S
C1289 H1295 0.930 . S
H1290 C1270 0.931 . S
H1291 C1271 0.930 . S
H1292 C1279 0.931 . S
H1293 C1280 0.929 . S
H1294 C1288 0.929 . S
H1295 C1289 0.930 . S
H1296 C1302 0.930 . S
H1297 C1305 0.930 . S
H1298 C1306 0.930 . S
H1299 C1307 0.930 . S
H1300 C1310 0.930 . S
H1301 C1311 0.930 . S
C1302 H1296 0.930 . S
C1302 C1303 1.355 . S
C1302 C1304 1.415 . S
C1303 C1302 1.355 . S
C1303 C1305 1.419 . S
C1304 C1302 1.415 . S
C1304 C1309 1.425 1_554 S
C1304 C1311 1.409 1_545 S
C1305 H1297 0.930 . S
C1305 C1303 1.419 . S
C1305 C1306 1.362 1_554 S
C1306 H1298 0.930 . S
C1306 C1305 1.362 1_556 S
C1306 C1309 1.409 . S
C1307 H1299 0.930 . S
C1307 C1308 1.355 1_545 S
C1307 C1309 1.415 . S
C1308 C1307 1.355 1_565 S
C1308 C1310 1.419 1_556 S
C1309 C1304 1.425 1_556 S
C1309 C1306 1.409 . S
C1309 C1307 1.415 . S
C1310 H1300 0.930 . S
C1310 C1308 1.419 1_554 S
C1310 C1311 1.362 . S
C1311 H1301 0.930 . S
C1311 C1304 1.409 1_565 S
C1311 C1310 1.362 . S
H1312 C1318 0.930 . S
H1313 C1321 0.930 . S
H1314 C1322 0.930 . S
H1315 C1323 0.930 . S
H1316 C1326 0.930 . S
H1317 C1327 0.930 . S
C1318 H1312 0.930 . S
C1318 C1319 1.355 . S
C1318 C1320 1.415 . S
C1319 C1318 1.355 . S
C1319 C1321 1.419 . S
C1320 C1318 1.415 . S
C1320 C1325 1.425 . S
C1320 C1327 1.409 1_554 S
C1321 H1313 0.930 . S
C1321 C1319 1.419 . S
C1321 C1322 1.362 . S
C1322 H1314 0.930 . S
C1322 C1321 1.362 . S
C1322 C1325 1.409 . S
C1323 H1315 0.930 . S
C1323 C1324 1.355 1_554 S
C1323 C1325 1.415 1_455 S
C1324 C1323 1.355 1_556 S
C1324 C1326 1.419 1_455 S
C1325 C1320 1.425 . S
C1325 C1322 1.409 . S
C1325 C1323 1.415 1_655 S
C1326 H1316 0.930 . S
C1326 C1324 1.419 1_655 S
C1326 C1327 1.362 . S
C1327 H1317 0.930 . S
C1327 C1320 1.409 1_556 S
C1327 C1326 1.362 . S
H1328 C1334 0.930 . S
H1329 C1337 0.930 . S
H1330 C1338 0.930 . S
H1331 C1339 0.930 . S
H1332 C1342 0.930 . S
H1333 C1343 0.930 . S
C1334 H1328 0.930 . S
C1334 C1335 1.355 1_554 S
C1334 C1336 1.415 . S
C1335 C1334 1.355 1_556 S
C1335 C1337 1.419 . S
C1336 C1334 1.415 . S
C1336 C1341 1.425 . S
C1336 C1343 1.409 . S
C1337 H1329 0.930 . S
C1337 C1335 1.419 . S
C1337 C1338 1.362 . S
C1338 H1330 0.930 . S
C1338 C1337 1.362 . S
C1338 C1341 1.409 1_556 S
C1339 H1331 0.930 . S
C1339 C1340 1.355 . S
C1339 C1341 1.415 . S
C1340 C1339 1.355 . S
C1340 C1342 1.419 . S
C1341 C1336 1.425 . S
C1341 C1338 1.409 1_554 S
C1341 C1339 1.415 . S
C1342 H1332 0.930 . S
C1342 C1340 1.419 . S
C1342 C1343 1.362 . S
C1343 H1333 0.930 . S
C1343 C1336 1.409 . S
C1343 C1342 1.362 . S
H1344 C1350 0.930 . S
H1345 C1353 0.930 . S
H1346 C1354 0.930 . S
H1347 C1355 0.930 . S
H1348 C1358 0.930 . S
H1349 C1359 0.930 . S
C1350 H1344 0.930 . S
C1350 C1351 1.355 . S
C1350 C1352 1.415 1_655 S
C1351 C1350 1.355 . S
C1351 C1353 1.419 1_655 S
C1352 C1350 1.415 1_455 S
C1352 C1357 1.425 . S
C1352 C1359 1.409 . S
C1353 H1345 0.930 . S
C1353 C1351 1.419 1_455 S
C1353 C1354 1.362 . S
C1354 H1346 0.930 . S
C1354 C1353 1.362 . S
C1354 C1357 1.409 . S
C1355 H1347 0.930 . S
C1355 C1356 1.355 . S
C1355 C1357 1.415 . S
C1356 C1355 1.355 . S
C1356 C1358 1.419 . S
C1357 C1352 1.425 . S
C1357 C1354 1.409 . S
C1357 C1355 1.415 . S
C1358 H1348 0.930 . S
C1358 C1356 1.419 . S
C1358 C1359 1.362 . S
C1359 H1349 0.930 . S
C1359 C1352 1.409 . S
C1359 C1358 1.362 . S
H1360 C1366 0.930 . S
H1361 C1369 0.930 . S
H1362 C1370 0.930 . S
H1363 C1371 0.930 . S
H1364 C1374 0.930 . S
H1365 C1375 0.930 . S
C1366 H1360 0.930 . S
C1366 C1367 1.355 . S
C1366 C1368 1.415 . S
C1367 C1366 1.355 . S
C1367 C1369 1.419 . S
C1368 C1366 1.415 . S
C1368 C1373 1.425 . S
C1368 C1375 1.409 . S
C1369 H1361 0.930 . S
C1369 C1367 1.419 . S
C1369 C1370 1.362 . S
C1370 H1362 0.930 . S
C1370 C1369 1.362 . S
C1370 C1373 1.409 . S
C1371 H1363 0.930 . S
C1371 C1372 1.355 . S
C1371 C1373 1.415 . S
C1372 C1371 1.355 . S
C1372 C1374 1.419 . S
C1373 C1368 1.425 . S
C1373 C1370 1.409 . S
C1373 C1371 1.415 . S
C1374 H1364 0.930 . S
C1374 C1372 1.419 . S
C1374 C1375 1.362 . S
C1375 H1365 0.930 . S
C1375 C1368 1.409 . S
C1375 C1374 1.362 . S
H1376 C1382 0.930 . S
H1377 C1385 0.930 . S
H1378 C1386 0.930 . S
H1379 C1387 0.930 1_545 S
H1380 C1390 0.930 1_545 S
H1381 C1391 0.930 . S
C1382 H1376 0.930 . S
C1382 C1383 1.355 . S
C1382 C1384 1.415 . S
C1383 C1382 1.355 . S
C1383 C1385 1.419 . S
C1384 C1382 1.415 . S
C1384 C1389 1.425 . S
C1384 C1391 1.409 . S
C1385 H1377 0.930 . S
C1385 C1383 1.419 . S
C1385 C1386 1.362 . S
C1386 H1378 0.930 . S
C1386 C1385 1.362 . S
C1386 C1389 1.409 . S
C1387 H1379 0.930 1_565 S
C1387 C1388 1.355 1_565 S
C1387 C1389 1.415 . S
C1388 C1387 1.355 1_545 S
C1388 C1390 1.419 1_545 S
C1389 C1384 1.425 . S
C1389 C1386 1.409 . S
C1389 C1387 1.415 . S
C1390 H1380 0.930 1_565 S
C1390 C1388 1.419 1_565 S
C1390 C1391 1.362 . S
C1391 H1381 0.930 . S
C1391 C1384 1.409 . S
C1391 C1390 1.362 . S
H1392 C1398 0.930 . S
H1393 C1401 0.935 . S
H1394 C1402 0.930 . S
H1395 C1403 0.930 . S
H1396 C1406 0.930 . S
H1397 C1407 0.930 . S
C1398 H1392 0.930 . S
C1398 C1399 1.355 1_565 S
C1398 C1400 1.415 1_554 S
C1399 C1398 1.355 1_545 S
C1399 C1401 1.437 . S
C1400 C1398 1.415 1_556 S
C1400 C1405 1.425 . S
C1400 C1407 1.409 . S
C1401 H1393 0.935 . S
C1401 C1399 1.437 . S
C1401 C1402 1.340 1_545 S
C1402 H1394 0.930 . S
C1402 C1401 1.340 1_565 S
C1402 C1405 1.409 1_554 S
C1403 H1395 0.930 . S
C1403 C1404 1.355 . S
C1403 C1405 1.415 . S
C1404 C1403 1.355 . S
C1404 C1406 1.419 . S
C1405 C1400 1.425 . S
C1405 C1402 1.409 1_556 S
C1405 C1403 1.415 . S
C1406 H1396 0.930 . S
C1406 C1404 1.419 . S
C1406 C1407 1.362 . S
C1407 H1397 0.930 . S
C1407 C1400 1.409 . S
C1407 C1406 1.362 . S
H1408 C1414 0.932 1_656 S
H1409 C1417 0.930 1_655 S
H1410 C1418 0.930 . S
H1411 C1419 0.930 . S
H1412 C1422 0.930 . S
H1413 C1423 0.930 . S
C1414 H1408 0.932 1_454 S
C1414 C1415 1.355 1_455 S
C1414 C1416 1.415 1_554 S
C1415 C1414 1.355 1_655 S
C1415 C1417 1.419 1_655 S
C1416 C1414 1.415 1_556 S
C1416 C1421 1.425 . S
C1416 C1423 1.409 . S
C1417 H1409 0.930 1_455 S
C1417 C1415 1.419 1_455 S
C1417 C1418 1.362 . S
C1418 H1410 0.930 . S
C1418 C1417 1.362 . S
C1418 C1421 1.409 1_554 S
C1419 H1411 0.930 . S
C1419 C1420 1.355 . S
C1419 C1421 1.415 . S
C1420 C1419 1.355 . S
C1420 C1422 1.419 . S
C1421 C1416 1.425 . S
C1421 C1418 1.409 1_556 S
C1421 C1419 1.415 . S
C1422 H1412 0.930 . S
C1422 C1420 1.419 . S
C1422 C1423 1.362 . S
C1423 H1413 0.930 . S
C1423 C1416 1.409 . S
C1423 C1422 1.362 . S
H1424 C1430 0.930 . S
H1425 C1433 0.930 . S
H1426 C1434 0.930 . S
H1427 C1435 0.930 . S
H1428 C1438 0.930 . S
H1429 C1439 0.930 . S
C1430 H1424 0.930 . S
C1430 C1431 1.355 . S
C1430 C1432 1.415 . S
C1431 C1430 1.355 . S
C1431 C1433 1.419 . S
C1432 C1430 1.415 . S
C1432 C1437 1.425 . S
C1432 C1439 1.409 1_556 S
C1433 H1425 0.930 . S
C1433 C1431 1.419 . S
C1433 C1434 1.362 . S
C1434 H1426 0.930 . S
C1434 C1433 1.362 . S
C1434 C1437 1.409 . S
C1435 H1427 0.930 . S
C1435 C1436 1.355 1_556 S
C1435 C1437 1.415 . S
C1436 C1435 1.355 1_554 S
C1436 C1438 1.419 . S
C1437 C1432 1.425 . S
C1437 C1434 1.409 . S
C1437 C1435 1.415 . S
C1438 H1428 0.930 . S
C1438 C1436 1.419 . S
C1438 C1439 1.362 . S
C1439 H1429 0.930 . S
C1439 C1432 1.409 1_554 S
C1439 C1438 1.362 . S
H1440 C1446 0.930 . S
H1441 C1449 0.930 . S
H1442 C1450 0.930 . S
H1443 C1451 0.930 . S
H1444 C1454 0.930 . S
H1445 C1455 0.930 . S
C1446 H1440 0.930 . S
C1446 C1447 1.355 . S
C1446 C1448 1.415 . S
C1447 C1446 1.355 . S
C1447 C1449 1.419 . S
C1448 C1446 1.415 . S
C1448 C1453 1.425 . S
C1448 C1455 1.409 . S
C1449 H1441 0.930 . S
C1449 C1447 1.419 . S
C1449 C1450 1.362 . S
C1450 H1442 0.930 . S
C1450 C1449 1.362 . S
C1450 C1453 1.409 . S
C1451 H1443 0.930 . S
C1451 C1452 1.355 1_655 S
C1451 C1453 1.415 . S
C1452 C1451 1.355 1_455 S
C1452 C1454 1.419 . S
C1453 C1448 1.425 . S
C1453 C1450 1.409 . S
C1453 C1451 1.415 . S
C1454 H1444 0.930 . S
C1454 C1452 1.419 . S
C1454 C1455 1.362 1_455 S
C1455 H1445 0.930 . S
C1455 C1448 1.409 . S
C1455 C1454 1.362 1_655 S
H1456 C1462 0.930 . S
H1457 C1465 0.930 . S
H1458 C1466 0.930 . S
H1459 C1467 0.930 . S
H1460 C1470 0.930 . S
H1461 C1471 0.930 . S
C1462 H1456 0.930 . S
C1462 C1463 1.355 . S
C1462 C1464 1.415 . S
C1463 C1462 1.355 . S
C1463 C1465 1.419 . S
C1464 C1462 1.415 . S
C1464 C1469 1.425 . S
C1464 C1471 1.409 . S
C1465 H1457 0.930 . S
C1465 C1463 1.419 . S
C1465 C1466 1.362 . S
C1466 H1458 0.930 . S
C1466 C1465 1.362 . S
C1466 C1469 1.409 . S
C1467 H1459 0.930 . S
C1467 C1468 1.355 . S
C1467 C1469 1.415 . S
C1468 C1467 1.355 . S
C1468 C1470 1.419 . S
C1469 C1464 1.425 . S
C1469 C1466 1.409 . S
C1469 C1467 1.415 . S
C1470 H1460 0.930 . S
C1470 C1468 1.419 . S
C1470 C1471 1.362 . S
C1471 H1461 0.930 . S
C1471 C1464 1.409 . S
C1471 C1470 1.362 . S
H1472 C1478 0.930 . S
H1473 C1481 0.930 . S
H1474 C1482 0.930 . S
H1475 C1483 0.930 . S
H1476 C1486 0.930 . S
H1477 C1487 0.930 . S
C1478 H1472 0.930 . S
C1478 C1479 1.355 . S
C1478 C1480 1.415 . S
C1479 C1478 1.355 . S
C1479 C1481 1.419 . S
C1480 C1478 1.415 . S
C1480 C1485 1.425 . S
C1480 C1487 1.409 . S
C1481 H1473 0.930 . S
C1481 C1479 1.419 . S
C1481 C1482 1.362 . S
C1482 H1474 0.930 . S
C1482 C1481 1.362 . S
C1482 C1485 1.409 . S
C1483 H1475 0.930 . S
C1483 C1484 1.355 1_545 S
C1483 C1485 1.415 . S
C1484 C1483 1.355 1_565 S
C1484 C1486 1.419 . S
C1485 C1480 1.425 . S
C1485 C1482 1.409 . S
C1485 C1483 1.415 . S
C1486 H1476 0.930 . S
C1486 C1484 1.419 . S
C1486 C1487 1.362 1_565 S
C1487 H1477 0.930 . S
C1487 C1480 1.409 . S
C1487 C1486 1.362 1_545 S
H1488 C1494 0.930 . S
H1489 C1497 0.930 . S
H1490 C1498 0.930 . S
H1491 C1499 0.930 . S
H1492 C1502 0.930 . S
H1493 C1503 0.930 . S
C1494 H1488 0.930 . S
C1494 C1495 1.355 . S
C1494 C1496 1.415 . S
C1495 C1494 1.355 . S
C1495 C1497 1.419 . S
C1496 C1494 1.415 . S
C1496 C1501 1.425 . S
C1496 C1503 1.409 . S
C1497 H1489 0.930 . S
C1497 C1495 1.419 . S
C1497 C1498 1.362 . S
C1498 H1490 0.930 . S
C1498 C1497 1.362 . S
C1498 C1501 1.409 . S
C1499 H1491 0.930 . S
C1499 C1500 1.355 . S
C1499 C1501 1.415 . S
C1500 C1499 1.355 . S
C1500 C1502 1.419 . S
C1501 C1496 1.425 . S
C1501 C1498 1.409 . S
C1501 C1499 1.415 . S
C1502 H1492 0.930 . S
C1502 C1500 1.419 . S
C1502 C1503 1.362 . S
C1503 H1493 0.930 . S
C1503 C1496 1.409 . S
C1503 C1502 1.362 . S
H1504 C1510 0.930 . S
H1505 C1513 0.930 . S
H1506 C1514 0.930 . S
H1507 C1515 0.930 . S
H1508 C1518 0.930 . S
H1509 C1519 0.930 . S
C1510 H1504 0.930 . S
C1510 C1511 1.355 . S
C1510 C1512 1.415 . S
C1511 C1510 1.355 . S
C1511 C1513 1.419 . S
C1512 C1510 1.415 . S
C1512 C1517 1.425 . S
C1512 C1519 1.409 . S
C1513 H1505 0.930 . S
C1513 C1511 1.419 . S
C1513 C1514 1.362 . S
C1514 H1506 0.930 . S
C1514 C1513 1.362 . S
C1514 C1517 1.409 . S
C1515 H1507 0.930 . S
C1515 C1516 1.355 . S
C1515 C1517 1.415 . S
C1516 C1515 1.355 . S
C1516 C1518 1.419 . S
C1517 C1512 1.425 . S
C1517 C1514 1.409 . S
C1517 C1515 1.415 . S
C1518 H1508 0.930 . S
C1518 C1516 1.419 . S
C1518 C1519 1.362 . S
C1519 H1509 0.930 . S
C1519 C1512 1.409 . S
C1519 C1518 1.362 . S
H1520 C1526 0.930 . S
H1521 C1529 0.930 . S
H1522 C1530 0.930 . S
H1523 C1531 0.930 . S
H1524 C1534 0.930 . S
H1525 C1535 0.930 . S
C1526 H1520 0.930 . S
C1526 C1527 1.355 . S
C1526 C1528 1.415 . S
C1527 C1526 1.355 . S
C1527 C1529 1.419 . S
C1528 C1526 1.415 . S
C1528 C1533 1.425 . S
C1528 C1535 1.409 . S
C1529 H1521 0.930 . S
C1529 C1527 1.419 . S
C1529 C1530 1.362 . S
C1530 H1522 0.930 . S
C1530 C1529 1.362 . S
C1530 C1533 1.409 . S
C1531 H1523 0.930 . S
C1531 C1532 1.355 . S
C1531 C1533 1.415 . S
C1532 C1531 1.355 . S
C1532 C1534 1.419 . S
C1533 C1528 1.425 . S
C1533 C1530 1.409 . S
C1533 C1531 1.415 . S
C1534 H1524 0.930 . S
C1534 C1532 1.419 . S
C1534 C1535 1.362 . S
C1535 H1525 0.930 . S
C1535 C1528 1.409 . S
C1535 C1534 1.362 . S
H1536 C1542 0.930 . S
H1537 C1545 0.930 . S
H1538 C1546 0.930 . S
H1539 C1547 0.930 . S
H1540 C1550 0.930 . S
H1541 C1551 0.930 . S
C1542 H1536 0.930 . S
C1542 C1543 1.355 . S
C1542 C1544 1.415 . S
C1543 C1542 1.355 . S
C1543 C1545 1.419 . S
C1544 C1542 1.415 . S
C1544 C1549 1.425 . S
C1544 C1551 1.409 . S
C1545 H1537 0.930 . S
C1545 C1543 1.419 . S
C1545 C1546 1.362 . S
C1546 H1538 0.930 . S
C1546 C1545 1.362 . S
C1546 C1549 1.409 . S
C1547 H1539 0.930 . S
C1547 C1548 1.355 . S
C1547 C1549 1.415 . S
C1548 C1547 1.355 . S
C1548 C1550 1.419 . S
C1549 C1544 1.425 . S
C1549 C1546 1.409 . S
C1549 C1547 1.415 . S
C1550 H1540 0.930 . S
C1550 C1548 1.419 . S
C1550 C1551 1.362 . S
C1551 H1541 0.930 . S
C1551 C1544 1.409 . S
C1551 C1550 1.362 . S
H1552 C1558 0.930 . S
H1553 C1561 0.930 . S
H1554 C1562 0.930 . S
H1555 C1563 0.930 . S
H1556 C1566 0.930 . S
H1557 C1567 0.930 . S
C1558 H1552 0.930 . S
C1558 C1559 1.355 . S
C1558 C1560 1.415 . S
C1559 C1558 1.355 . S
C1559 C1561 1.419 . S
C1560 C1558 1.415 . S
C1560 C1565 1.425 . S
C1560 C1567 1.409 . S
C1561 H1553 0.930 . S
C1561 C1559 1.419 . S
C1561 C1562 1.362 . S
C1562 H1554 0.930 . S
C1562 C1561 1.362 . S
C1562 C1565 1.409 . S
C1563 H1555 0.930 . S
C1563 C1564 1.355 . S
C1563 C1565 1.415 . S
C1564 C1563 1.355 . S
C1564 C1566 1.419 . S
C1565 C1560 1.425 . S
C1565 C1562 1.409 . S
C1565 C1563 1.415 . S
C1566 H1556 0.930 . S
C1566 C1564 1.419 . S
C1566 C1567 1.362 . S
C1567 H1557 0.930 . S
C1567 C1560 1.409 . S
C1567 C1566 1.362 . S
H1568 C1574 0.930 . S
H1569 C1577 0.930 . S
H1570 C1578 0.930 . S
H1571 C1579 0.930 . S
H1572 C1582 0.930 . S
H1573 C1583 0.930 . S
C1574 H1568 0.930 . S
C1574 C1575 1.355 . S
C1574 C1576 1.415 . S
C1575 C1574 1.355 . S
C1575 C1577 1.419 . S
C1576 C1574 1.415 . S
C1576 C1581 1.425 . S
C1576 C1583 1.409 . S
C1577 H1569 0.930 . S
C1577 C1575 1.419 . S
C1577 C1578 1.362 . S
C1578 H1570 0.930 . S
C1578 C1577 1.362 . S
C1578 C1581 1.409 . S
C1579 H1571 0.930 . S
C1579 C1580 1.355 . S
C1579 C1581 1.415 . S
C1580 C1579 1.355 . S
C1580 C1582 1.419 . S
C1581 C1576 1.425 . S
C1581 C1578 1.409 . S
C1581 C1579 1.415 . S
C1582 H1572 0.930 . S
C1582 C1580 1.419 . S
C1582 C1583 1.362 . S
C1583 H1573 0.930 . S
C1583 C1576 1.409 . S
C1583 C1582 1.362 . S
H1584 C1590 0.930 . S
H1585 C1593 0.930 . S
H1586 C1594 0.930 . S
H1587 C1595 0.930 . S
H1588 C1598 0.930 . S
H1589 C1599 0.930 . S
C1590 H1584 0.930 . S
C1590 C1591 1.355 . S
C1590 C1592 1.415 . S
C1591 C1590 1.355 . S
C1591 C1593 1.419 . S
C1592 C1590 1.415 . S
C1592 C1597 1.425 . S
C1592 C1599 1.409 . S
C1593 H1585 0.930 . S
C1593 C1591 1.419 . S
C1593 C1594 1.362 . S
C1594 H1586 0.930 . S
C1594 C1593 1.362 . S
C1594 C1597 1.409 . S
C1595 H1587 0.930 . S
C1595 C1596 1.355 . S
C1595 C1597 1.415 . S
C1596 C1595 1.355 . S
C1596 C1598 1.419 . S
C1597 C1592 1.425 . S
C1597 C1594 1.409 . S
C1597 C1595 1.415 . S
C1598 H1588 0.930 . S
C1598 C1596 1.419 . S
C1598 C1599 1.362 . S
C1599 H1589 0.930 . S
C1599 C1592 1.409 . S
C1599 C1598 1.362 . S
H1600 C1606 0.930 . S
H1601 C1609 0.930 . S
H1602 C1610 0.930 . S
H1603 C1611 0.930 . S
H1604 C1614 0.930 . S
H1605 C1615 0.930 . S
C1606 H1600 0.930 . S
C1606 C1607 1.355 . S
C1606 C1608 1.415 . S
C1607 C1606 1.355 . S
C1607 C1609 1.419 . S
C1608 C1606 1.415 . S
C1608 C1613 1.425 . S
C1608 C1615 1.409 . S
C1609 H1601 0.930 . S
C1609 C1607 1.419 . S
C1609 C1610 1.362 . S
C1610 H1602 0.930 . S
C1610 C1609 1.362 . S
C1610 C1613 1.409 . S
C1611 H1603 0.930 . S
C1611 C1612 1.355 . S
C1611 C1613 1.415 . S
C1612 C1611 1.355 . S
C1612 C1614 1.419 . S
C1613 C1608 1.425 . S
C1613 C1610 1.409 . S
C1613 C1611 1.415 . S
C1614 H1604 0.930 . S
C1614 C1612 1.419 . S
C1614 C1615 1.362 . S
C1615 H1605 0.930 . S
C1615 C1608 1.409 . S
C1615 C1614 1.362 . S
H1616 C1622 0.930 . S
H1617 C1625 0.930 . S
H1618 C1626 0.930 . S
H1619 C1627 0.930 . S
H1620 C1630 0.930 . S
H1621 C1631 0.930 . S
C1622 H1616 0.930 . S
C1622 C1623 1.355 . S
C1622 C1624 1.415 . S
C1623 C1622 1.355 . S
C1623 C1625 1.419 . S
C1624 C1622 1.415 . S
C1624 C1629 1.425 . S
C1624 C1631 1.409 . S
C1625 H1617 0.930 . S
C1625 C1623 1.419 . S
C1625 C1626 1.362 . S
C1626 H1618 0.930 . S
C1626 C1625 1.362 . S
C1626 C1629 1.409 . S
C1627 H1619 0.930 . S
C1627 C1628 1.355 . S
C1627 C1629 1.415 . S
C1628 C1627 1.355 . S
C1628 C1630 1.419 . S
C1629 C1624 1.425 . S
C1629 C1626 1.409 . S
C1629 C1627 1.415 . S
C1630 H1620 0.930 . S
C1630 C1628 1.419 . S
C1630 C1631 1.362 . S
C1631 H1621 0.930 . S
C1631 C1624 1.409 . S
C1631 C1630 1.362 . S
H1632 C1638 0.930 . S
H1633 C1641 0.930 . S
H1634 C1642 0.930 . S
H1635 C1643 0.930 . S
H1636 C1646 0.930 . S
H1637 C1647 0.930 . S
C1638 H1632 0.930 . S
C1638 C1639 1.355 . S
C1638 C1640 1.415 . S
C1639 C1638 1.355 . S
C1639 C1641 1.419 . S
C1640 C1638 1.415 . S
C1640 C1645 1.425 . S
C1640 C1647 1.409 . S
C1641 H1633 0.930 . S
C1641 C1639 1.419 . S
C1641 C1642 1.362 . S
C1642 H1634 0.930 . S
C1642 C1641 1.362 . S
C1642 C1645 1.409 . S
C1643 H1635 0.930 . S
C1643 C1644 1.355 . S
C1643 C1645 1.415 . S
C1644 C1643 1.355 . S
C1644 C1646 1.419 . S
C1645 C1640 1.425 . S
C1645 C1642 1.409 . S
C1645 C1643 1.415 . S
C1646 H1636 0.930 . S
C1646 C1644 1.419 . S
C1646 C1647 1.362 . S
C1647 H1637 0.930 . S
C1647 C1640 1.409 . S
C1647 C1646 1.362 . S
H1648 C1654 0.930 . S
H1649 C1657 0.930 . S
H1650 C1658 0.930 . S
H1651 C1659 0.930 . S
H1652 C1662 0.930 . S
H1653 C1663 0.930 . S
C1654 H1648 0.930 . S
C1654 C1655 1.355 . S
C1654 C1656 1.415 . S
C1655 C1654 1.355 . S
C1655 C1657 1.419 . S
C1656 C1654 1.415 . S
C1656 C1661 1.425 . S
C1656 C1663 1.409 . S
C1657 H1649 0.930 . S
C1657 C1655 1.419 . S
C1657 C1658 1.362 . S
C1658 H1650 0.930 . S
C1658 C1657 1.362 . S
C1658 C1661 1.409 . S
C1659 H1651 0.930 . S
C1659 C1660 1.355 . S
C1659 C1661 1.415 . S
C1660 C1659 1.355 . S
C1660 C1662 1.419 . S
C1661 C1656 1.425 . S
C1661 C1658 1.409 . S
C1661 C1659 1.415 . S
C1662 H1652 0.930 . S
C1662 C1660 1.419 . S
C1662 C1663 1.362 . S
C1663 H1653 0.930 . S
C1663 C1656 1.409 . S
C1663 C1662 1.362 . S
H1664 C1670 0.930 . S
H1665 C1673 0.930 . S
H1666 C1674 0.930 . S
H1667 C1675 0.930 . S
H1668 C1678 0.930 . S
H1669 C1679 0.930 . S
C1670 H1664 0.930 . S
C1670 C1671 1.355 . S
C1670 C1672 1.415 . S
C1671 C1670 1.355 . S
C1671 C1673 1.419 . S
C1672 C1670 1.415 . S
C1672 C1677 1.425 . S
C1672 C1679 1.409 . S
C1673 H1665 0.930 . S
C1673 C1671 1.419 . S
C1673 C1674 1.362 . S
C1674 H1666 0.930 . S
C1674 C1673 1.362 . S
C1674 C1677 1.409 . S
C1675 H1667 0.930 . S
C1675 C1676 1.355 . S
C1675 C1677 1.415 . S
C1676 C1675 1.355 . S
C1676 C1678 1.419 . S
C1677 C1672 1.425 . S
C1677 C1674 1.409 . S
C1677 C1675 1.415 . S
C1678 H1668 0.930 . S
C1678 C1676 1.419 . S
C1678 C1679 1.362 . S
C1679 H1669 0.930 . S
C1679 C1672 1.409 . S
C1679 C1678 1.362 . S
H1680 C1686 0.930 . S
H1681 C1689 0.930 . S
H1682 C1690 0.930 . S
H1683 C1691 0.930 . S
H1684 C1694 0.930 . S
H1685 C1695 0.930 . S
C1686 H1680 0.930 . S
C1686 C1687 1.355 . S
C1686 C1688 1.415 . S
C1687 C1686 1.355 . S
C1687 C1689 1.419 . S
C1688 C1686 1.415 . S
C1688 C1693 1.425 . S
C1688 C1695 1.409 . S
C1689 H1681 0.930 . S
C1689 C1687 1.419 . S
C1689 C1690 1.362 . S
C1690 H1682 0.930 . S
C1690 C1689 1.362 . S
C1690 C1693 1.409 . S
C1691 H1683 0.930 . S
C1691 C1692 1.355 . S
C1691 C1693 1.415 . S
C1692 C1691 1.355 . S
C1692 C1694 1.419 . S
C1693 C1688 1.425 . S
C1693 C1690 1.409 . S
C1693 C1691 1.415 . S
C1694 H1684 0.930 . S
C1694 C1692 1.419 . S
C1694 C1695 1.362 . S
C1695 H1685 0.930 . S
C1695 C1688 1.409 . S
C1695 C1694 1.362 . S
H1696 C1702 0.930 . S
H1697 C1705 0.930 . S
H1698 C1706 0.930 . S
H1699 C1707 0.930 . S
H1700 C1710 0.930 . S
H1701 C1711 0.930 . S
C1702 H1696 0.930 . S
C1702 C1703 1.355 . S
C1702 C1704 1.415 . S
C1703 C1702 1.355 . S
C1703 C1705 1.419 . S
C1704 C1702 1.415 . S
C1704 C1709 1.425 . S
C1704 C1711 1.409 . S
C1705 H1697 0.930 . S
C1705 C1703 1.419 . S
C1705 C1706 1.362 . S
C1706 H1698 0.930 . S
C1706 C1705 1.362 . S
C1706 C1709 1.409 . S
C1707 H1699 0.930 . S
C1707 C1708 1.355 . S
C1707 C1709 1.415 . S
C1708 C1707 1.355 . S
C1708 C1710 1.419 . S
C1709 C1704 1.425 . S
C1709 C1706 1.409 . S
C1709 C1707 1.415 . S
C1710 H1700 0.930 . S
C1710 C1708 1.419 . S
C1710 C1711 1.362 . S
C1711 H1701 0.930 . S
C1711 C1704 1.409 . S
C1711 C1710 1.362 . S
H1712 C1718 0.930 . S
H1713 C1721 0.930 . S
H1714 C1722 0.930 . S
H1715 C1723 0.930 . S
H1716 C1726 0.930 . S
H1717 C1727 0.930 . S
C1718 H1712 0.930 . S
C1718 C1719 1.355 . S
C1718 C1720 1.415 . S
C1719 C1718 1.355 . S
C1719 C1721 1.419 . S
C1720 C1718 1.415 . S
C1720 C1725 1.425 . S
C1720 C1727 1.409 . S
C1721 H1713 0.930 . S
C1721 C1719 1.419 . S
C1721 C1722 1.362 . S
C1722 H1714 0.930 . S
C1722 C1721 1.362 . S
C1722 C1725 1.409 . S
C1723 H1715 0.930 . S
C1723 C1724 1.355 . S
C1723 C1725 1.415 . S
C1724 C1723 1.355 . S
C1724 C1726 1.419 . S
C1725 C1720 1.425 . S
C1725 C1722 1.409 . S
C1725 C1723 1.415 . S
C1726 H1716 0.930 . S
C1726 C1724 1.419 . S
C1726 C1727 1.362 . S
C1727 H1717 0.930 . S
C1727 C1720 1.409 . S
C1727 C1726 1.362 . S
H1728 C1734 0.930 . S
H1729 C1737 0.930 . S
H1730 C1738 0.930 . S
H1731 C1739 0.930 . S
H1732 C1742 0.930 . S
H1733 C1743 0.930 . S
C1734 H1728 0.930 . S
C1734 C1735 1.355 . S
C1734 C1736 1.415 . S
C1735 C1734 1.355 . S
C1735 C1737 1.419 . S
C1736 C1734 1.415 . S
C1736 C1741 1.425 . S
C1736 C1743 1.409 . S
C1737 H1729 0.930 . S
C1737 C1735 1.419 . S
C1737 C1738 1.362 . S
C1738 H1730 0.930 . S
C1738 C1737 1.362 . S
C1738 C1741 1.409 . S
C1739 H1731 0.930 . S
C1739 C1740 1.355 . S
C1739 C1741 1.415 . S
C1740 C1739 1.355 . S
C1740 C1742 1.419 . S
C1741 C1736 1.425 . S
C1741 C1738 1.409 . S
C1741 C1739 1.415 . S
C1742 H1732 0.930 . S
C1742 C1740 1.419 . S
C1742 C1743 1.362 . S
C1743 H1733 0.930 . S
C1743 C1736 1.409 . S
C1743 C1742 1.362 . S
H1744 C1750 0.930 . S
H1745 C1753 0.930 . S
H1746 C1754 0.930 . S
H1747 C1755 0.930 . S
H1748 C1758 0.930 . S
H1749 C1759 0.930 . S
C1750 H1744 0.930 . S
C1750 C1751 1.355 . S
C1750 C1752 1.415 . S
C1751 C1750 1.355 . S
C1751 C1753 1.419 . S
C1752 C1750 1.415 . S
C1752 C1757 1.425 . S
C1752 C1759 1.409 . S
C1753 H1745 0.930 . S
C1753 C1751 1.419 . S
C1753 C1754 1.362 . S
C1754 H1746 0.930 . S
C1754 C1753 1.362 . S
C1754 C1757 1.409 . S
C1755 H1747 0.930 . S
C1755 C1756 1.355 . S
C1755 C1757 1.415 . S
C1756 C1755 1.355 . S
C1756 C1758 1.419 . S
C1757 C1752 1.425 . S
C1757 C1754 1.409 . S
C1757 C1755 1.415 . S
C1758 H1748 0.930 . S
C1758 C1756 1.419 . S
C1758 C1759 1.362 . S
C1759 H1749 0.930 . S
C1759 C1752 1.409 . S
C1759 C1758 1.362 . S
H1760 C1766 0.930 . S
H1761 C1769 0.930 . S
H1762 C1770 0.930 . S
H1763 C1771 0.930 . S
H1764 C1774 0.930 . S
H1765 C1775 0.930 . S
C1766 H1760 0.930 . S
C1766 C1767 1.355 . S
C1766 C1768 1.415 . S
C1767 C1766 1.355 . S
C1767 C1769 1.419 . S
C1768 C1766 1.415 . S
C1768 C1773 1.425 . S
C1768 C1775 1.409 . S
C1769 H1761 0.930 . S
C1769 C1767 1.419 . S
C1769 C1770 1.362 . S
C1770 H1762 0.930 . S
C1770 C1769 1.362 . S
C1770 C1773 1.409 . S
C1771 H1763 0.930 . S
C1771 C1772 1.355 . S
C1771 C1773 1.415 . S
C1772 C1771 1.355 . S
C1772 C1774 1.419 . S
C1773 C1768 1.425 . S
C1773 C1770 1.409 . S
C1773 C1771 1.415 . S
C1774 H1764 0.930 . S
C1774 C1772 1.419 . S
C1774 C1775 1.362 . S
C1775 H1765 0.930 . S
C1775 C1768 1.409 . S
C1775 C1774 1.362 . S
H1776 C1782 0.930 . S
H1777 C1785 0.930 . S
H1778 C1786 0.930 . S
H1779 C1787 0.930 . S
H1780 C1790 0.930 . S
H1781 C1791 0.930 . S
C1782 H1776 0.930 . S
C1782 C1783 1.355 . S
C1782 C1784 1.415 . S
C1783 C1782 1.355 . S
C1783 C1785 1.419 . S
C1784 C1782 1.415 . S
C1784 C1789 1.425 . S
C1784 C1791 1.409 . S
C1785 H1777 0.930 . S
C1785 C1783 1.419 . S
C1785 C1786 1.362 . S
C1786 H1778 0.930 . S
C1786 C1785 1.362 . S
C1786 C1789 1.409 . S
C1787 H1779 0.930 . S
C1787 C1788 1.355 . S
C1787 C1789 1.415 . S
C1788 C1787 1.355 . S
C1788 C1790 1.419 . S
C1789 C1784 1.425 . S
C1789 C1786 1.409 . S
C1789 C1787 1.415 . S
C1790 H1780 0.930 . S
C1790 C1788 1.419 . S
C1790 C1791 1.362 . S
C1791 H1781 0.930 . S
C1791 C1784 1.409 . S
C1791 C1790 1.362 . S
H1792 C1798 0.930 . S
H1793 C1801 0.930 . S
H1794 C1802 0.930 . S
H1795 C1803 0.930 . S
H1796 C1806 0.930 . S
H1797 C1807 0.930 . S
C1798 H1792 0.930 . S
C1798 C1799 1.355 . S
C1798 C1800 1.415 . S
C1799 C1798 1.355 . S
C1799 C1801 1.419 . S
C1800 C1798 1.415 . S
C1800 C1805 1.425 . S
C1800 C1807 1.409 . S
C1801 H1793 0.930 . S
C1801 C1799 1.419 . S
C1801 C1802 1.362 . S
C1802 H1794 0.930 . S
C1802 C1801 1.362 . S
C1802 C1805 1.409 . S
C1803 H1795 0.930 . S
C1803 C1804 1.355 . S
C1803 C1805 1.415 . S
C1804 C1803 1.355 . S
C1804 C1806 1.419 . S
C1805 C1800 1.425 . S
C1805 C1802 1.409 . S
C1805 C1803 1.415 . S
C1806 H1796 0.930 . S
C1806 C1804 1.419 . S
C1806 C1807 1.362 . S
C1807 H1797 0.930 . S
C1807 C1800 1.409 . S
C1807 C1806 1.362 . S
H1808 C1814 0.930 . S
H1809 C1817 0.930 . S
H1810 C1818 0.930 . S
H1811 C1819 0.930 . S
H1812 C1822 0.930 . S
H1813 C1823 0.930 . S
C1814 H1808 0.930 . S
C1814 C1815 1.355 . S
C1814 C1816 1.415 . S
C1815 C1814 1.355 . S
C1815 C1817 1.419 . S
C1816 C1814 1.415 . S
C1816 C1821 1.425 . S
C1816 C1823 1.409 . S
C1817 H1809 0.930 . S
C1817 C1815 1.419 . S
C1817 C1818 1.362 . S
C1818 H1810 0.930 . S
C1818 C1817 1.362 . S
C1818 C1821 1.409 . S
C1819 H1811 0.930 . S
C1819 C1820 1.355 . S
C1819 C1821 1.415 . S
C1820 C1819 1.355 . S
C1820 C1822 1.419 . S
C1821 C1816 1.425 . S
C1821 C1818 1.409 . S
C1821 C1819 1.415 . S
C1822 H1812 0.930 . S
C1822 C1820 1.419 . S
C1822 C1823 1.362 . S
C1823 H1813 0.930 . S
C1823 C1816 1.409 . S
C1823 C1822 1.362 . S
H1824 C1830 0.930 . S
H1825 C1833 0.930 . S
H1826 C1834 0.930 . S
H1827 C1835 0.930 . S
H1828 C1838 0.930 . S
H1829 C1839 0.930 . S
C1830 H1824 0.930 . S
C1830 C1831 1.355 . S
C1830 C1832 1.415 . S
C1831 C1830 1.355 . S
C1831 C1833 1.419 . S
C1832 C1830 1.415 . S
C1832 C1837 1.425 . S
C1832 C1839 1.409 . S
C1833 H1825 0.930 . S
C1833 C1831 1.419 . S
C1833 C1834 1.362 . S
C1834 H1826 0.930 . S
C1834 C1833 1.362 . S
C1834 C1837 1.409 . S
C1835 H1827 0.930 . S
C1835 C1836 1.355 . S
C1835 C1837 1.415 . S
C1836 C1835 1.355 . S
C1836 C1838 1.419 . S
C1837 C1832 1.425 . S
C1837 C1834 1.409 . S
C1837 C1835 1.415 . S
C1838 H1828 0.930 . S
C1838 C1836 1.419 . S
C1838 C1839 1.362 . S
C1839 H1829 0.930 . S
C1839 C1832 1.409 . S
C1839 C1838 1.362 . S
H1840 C1846 0.930 . S
H1841 C1849 0.930 . S
H1842 C1850 0.930 . S
H1843 C1851 0.930 . S
H1844 C1854 0.930 . S
H1845 C1855 0.930 . S
C1846 H1840 0.930 . S
C1846 C1847 1.355 . S
C1846 C1848 1.415 . S
C1847 C1846 1.355 . S
C1847 C1849 1.419 . S
C1848 C1846 1.415 . S
C1848 C1853 1.425 . S
C1848 C1855 1.409 . S
C1849 H1841 0.930 . S
C1849 C1847 1.419 . S
C1849 C1850 1.362 . S
C1850 H1842 0.930 . S
C1850 C1849 1.362 . S
C1850 C1853 1.409 . S
C1851 H1843 0.930 . S
C1851 C1852 1.355 . S
C1851 C1853 1.415 . S
C1852 C1851 1.355 . S
C1852 C1854 1.419 . S
C1853 C1848 1.425 . S
C1853 C1850 1.409 . S
C1853 C1851 1.415 . S
C1854 H1844 0.930 . S
C1854 C1852 1.419 . S
C1854 C1855 1.362 . S
C1855 H1845 0.930 . S
C1855 C1848 1.409 . S
C1855 C1854 1.362 . S
H1856 C1862 0.930 . S
H1857 C1865 0.930 . S
H1858 C1866 0.930 . S
H1859 C1867 0.930 . S
H1860 C1870 0.930 . S
H1861 C1871 0.930 . S
C1862 H1856 0.930 . S
C1862 C1863 1.355 . S
C1862 C1864 1.415 . S
C1863 C1862 1.355 . S
C1863 C1865 1.419 . S
C1864 C1862 1.415 . S
C1864 C1869 1.425 . S
C1864 C1871 1.409 . S
C1865 H1857 0.930 . S
C1865 C1863 1.419 . S
C1865 C1866 1.362 . S
C1866 H1858 0.930 . S
C1866 C1865 1.362 . S
C1866 C1869 1.409 . S
C1867 H1859 0.930 . S
C1867 C1868 1.355 . S
C1867 C1869 1.415 . S
C1868 C1867 1.355 . S
C1868 C1870 1.419 . S
C1869 C1864 1.425 . S
C1869 C1866 1.409 . S
C1869 C1867 1.415 . S
C1870 H1860 0.930 . S
C1870 C1868 1.419 . S
C1870 C1871 1.362 . S
C1871 H1861 0.930 . S
C1871 C1864 1.409 . S
C1871 C1870 1.362 . S
H1872 C1878 0.930 . S
H1873 C1881 0.930 . S
H1874 C1882 0.930 . S
H1875 C1883 0.930 . S
H1876 C1886 0.930 . S
H1877 C1887 0.930 . S
C1878 H1872 0.930 . S
C1878 C1879 1.355 . S
C1878 C1880 1.415 . S
C1879 C1878 1.355 . S
C1879 C1881 1.419 . S
C1880 C1878 1.415 . S
C1880 C1885 1.425 . S
C1880 C1887 1.409 . S
C1881 H1873 0.930 . S
C1881 C1879 1.419 . S
C1881 C1882 1.362 . S
C1882 H1874 0.930 . S
C1882 C1881 1.362 . S
C1882 C1885 1.409 . S
C1883 H1875 0.930 . S
C1883 C1884 1.355 . S
C1883 C1885 1.415 . S
C1884 C1883 1.355 . S
C1884 C1886 1.419 . S
C1885 C1880 1.425 . S
C1885 C1882 1.409 . S
C1885 C1883 1.415 . S
C1886 H1876 0.930 . S
C1886 C1884 1.419 . S
C1886 C1887 1.362 . S
C1887 H1877 0.930 . S
C1887 C1880 1.409 . S
C1887 C1886 1.362 . S
H1888 C1894 0.930 . S
H1889 C1897 0.930 . S
H1890 C1898 0.930 . S
H1891 C1899 0.930 . S
H1892 C1902 0.930 . S
H1893 C1903 0.930 . S
C1894 H1888 0.930 . S
C1894 C1895 1.355 . S
C1894 C1896 1.419 . S
C1895 C1894 1.355 . S
C1895 C1897 1.419 . S
C1896 C1894 1.419 . S
C1896 C1901 1.434 1_565 S
C1896 C1903 1.400 1_565 S
C1897 H1889 0.930 . S
C1897 C1895 1.419 . S
C1897 C1898 1.362 . S
C1898 H1890 0.930 . S
C1898 C1897 1.362 . S
C1898 C1901 1.400 1_565 S
C1899 H1891 0.930 . S
C1899 C1900 1.355 . S
C1899 C1901 1.419 . S
C1900 C1899 1.355 . S
C1900 C1902 1.419 . S
C1901 C1896 1.434 1_545 S
C1901 C1898 1.400 1_545 S
C1901 C1899 1.419 . S
C1902 H1892 0.930 . S
C1902 C1900 1.419 . S
C1902 C1903 1.362 . S
C1903 H1893 0.930 . S
C1903 C1896 1.400 1_545 S
C1903 C1902 1.362 . S
H1904 C1910 0.930 . S
H1905 C1913 0.930 . S
H1906 C1914 0.930 . S
H1907 C1915 0.930 . S
H1908 C1918 0.930 . S
H1909 C1919 0.930 . S
C1910 H1904 0.930 . S
C1910 C1911 1.355 . S
C1910 C1912 1.415 . S
C1911 C1910 1.355 . S
C1911 C1913 1.419 . S
C1912 C1910 1.415 . S
C1912 C1917 1.425 1_655 S
C1912 C1919 1.409 1_655 S
C1913 H1905 0.930 . S
C1913 C1911 1.419 . S
C1913 C1914 1.362 . S
C1914 H1906 0.930 . S
C1914 C1913 1.362 . S
C1914 C1917 1.409 1_655 S
C1915 H1907 0.930 . S
C1915 C1916 1.355 . S
C1915 C1917 1.415 . S
C1916 C1915 1.355 . S
C1916 C1918 1.419 . S
C1917 C1912 1.425 1_455 S
C1917 C1914 1.409 1_455 S
C1917 C1915 1.415 . S
C1918 H1908 0.930 . S
C1918 C1916 1.419 . S
C1918 C1919 1.362 . S
C1919 H1909 0.930 . S
C1919 C1912 1.409 1_455 S
C1919 C1918 1.362 . S
H1920 C1926 0.930 . S
H1921 C1929 0.930 . S
H1922 C1930 0.930 . S
H1923 C1931 0.930 . S
H1924 C1934 0.930 . S
H1925 C1935 0.930 . S
C1926 H1920 0.930 . S
C1926 C1927 1.355 . S
C1926 C1928 1.415 . S
C1927 C1926 1.355 . S
C1927 C1929 1.419 . S
C1928 C1926 1.415 . S
C1928 C1933 1.425 . S
C1928 C1935 1.409 . S
C1929 H1921 0.930 . S
C1929 C1927 1.419 . S
C1929 C1930 1.362 . S
C1930 H1922 0.930 . S
C1930 C1929 1.362 . S
C1930 C1933 1.409 . S
C1931 H1923 0.930 . S
C1931 C1932 1.355 . S
C1931 C1933 1.415 . S
C1932 C1931 1.355 . S
C1932 C1934 1.419 . S
C1933 C1928 1.425 . S
C1933 C1930 1.409 . S
C1933 C1931 1.415 . S
C1934 H1924 0.930 . S
C1934 C1932 1.419 . S
C1934 C1935 1.362 . S
C1935 H1925 0.930 . S
C1935 C1928 1.409 . S
C1935 C1934 1.362 . S
H1936 C1942 0.930 . S
H1937 C1945 0.930 . S
H1938 C1946 0.930 . S
H1939 C1947 0.930 . S
H1940 C1950 0.930 . S
H1941 C1951 0.930 . S
C1942 H1936 0.930 . S
C1942 C1943 1.355 . S
C1942 C1944 1.415 1_545 S
C1943 C1942 1.355 . S
C1943 C1945 1.419 . S
C1944 C1942 1.415 1_565 S
C1944 C1949 1.425 1_565 S
C1944 C1951 1.409 . S
C1945 H1937 0.930 . S
C1945 C1943 1.419 . S
C1945 C1946 1.362 . S
C1946 H1938 0.930 . S
C1946 C1945 1.362 . S
C1946 C1949 1.409 . S
C1947 H1939 0.930 . S
C1947 C1948 1.355 . S
C1947 C1949 1.415 1_565 S
C1948 C1947 1.355 . S
C1948 C1950 1.419 . S
C1949 C1944 1.425 1_545 S
C1949 C1946 1.409 . S
C1949 C1947 1.415 1_545 S
C1950 H1940 0.930 . S
C1950 C1948 1.419 . S
C1950 C1951 1.362 . S
C1951 H1941 0.930 . S
C1951 C1944 1.409 . S
C1951 C1950 1.362 . S
H1952 C1958 0.930 . S
H1953 C1961 0.930 . S
H1954 C1962 0.930 . S
H1955 C1963 0.930 . S
H1956 C1966 0.930 . S
H1957 C1967 0.930 . S
C1958 H1952 0.930 . S
C1958 C1959 1.355 . S
C1958 C1960 1.415 . S
C1959 C1958 1.355 . S
C1959 C1961 1.419 . S
C1960 C1958 1.415 . S
C1960 C1965 1.425 1_655 S
C1960 C1967 1.409 . S
C1961 H1953 0.930 . S
C1961 C1959 1.419 . S
C1961 C1962 1.362 1_655 S
C1962 H1954 0.930 . S
C1962 C1961 1.362 1_455 S
C1962 C1965 1.409 . S
C1963 H1955 0.930 . S
C1963 C1964 1.355 . S
C1963 C1965 1.415 . S
C1964 C1963 1.355 . S
C1964 C1966 1.419 . S
C1965 C1960 1.425 1_455 S
C1965 C1962 1.409 . S
C1965 C1963 1.415 . S
C1966 H1956 0.930 . S
C1966 C1964 1.419 . S
C1966 C1967 1.362 1_455 S
C1967 H1957 0.930 . S
C1967 C1960 1.409 . S
C1967 C1966 1.362 1_655 S
H1968 C1974 0.930 . S
H1969 C1977 0.930 . S
H1970 C1978 0.930 . S
H1971 C1979 0.930 . S
H1972 C1982 0.930 . S
H1973 C1983 0.930 . S
C1974 H1968 0.930 . S
C1974 C1975 1.355 . S
C1974 C1976 1.415 . S
C1975 C1974 1.355 . S
C1975 C1977 1.419 . S
C1976 C1974 1.415 . S
C1976 C1981 1.425 . S
C1976 C1983 1.409 . S
C1977 H1969 0.930 . S
C1977 C1975 1.419 . S
C1977 C1978 1.362 . S
C1978 H1970 0.930 . S
C1978 C1977 1.362 . S
C1978 C1981 1.409 . S
C1979 H1971 0.930 . S
C1979 C1980 1.355 . S
C1979 C1981 1.415 . S
C1980 C1979 1.355 . S
C1980 C1982 1.419 . S
C1981 C1976 1.425 . S
C1981 C1978 1.409 . S
C1981 C1979 1.415 . S
C1982 H1972 0.930 . S
C1982 C1980 1.419 . S
C1982 C1983 1.362 . S
C1983 H1973 0.930 . S
C1983 C1976 1.409 . S
C1983 C1982 1.362 . S
H1984 C1990 0.930 . S
H1985 C1993 0.930 . S
H1986 C1994 0.930 . S
H1987 C1995 0.930 . S
H1988 C1998 0.930 . S
H1989 C1999 0.930 . S
C1990 H1984 0.930 . S
C1990 C1991 1.355 . S
C1990 C1992 1.415 . S
C1991 C1990 1.355 . S
C1991 C1993 1.419 . S
C1992 C1990 1.415 . S
C1992 C1997 1.425 . S
C1992 C1999 1.409 . S
C1993 H1985 0.930 . S
C1993 C1991 1.419 . S
C1993 C1994 1.362 . S
C1994 H1986 0.930 . S
C1994 C1993 1.362 . S
C1994 C1997 1.409 . S
C1995 H1987 0.930 . S
C1995 C1996 1.355 . S
C1995 C1997 1.415 . S
C1996 C1995 1.355 . S
C1996 C1998 1.419 . S
C1997 C1992 1.425 . S
C1997 C1994 1.409 . S
C1997 C1995 1.415 . S
C1998 H1988 0.930 . S
C1998 C1996 1.419 . S
C1998 C1999 1.362 . S
C1999 H1989 0.930 . S
C1999 C1992 1.409 . S
C1999 C1998 1.362 . S
H2000 C2006 0.930 . S
H2001 C2009 0.930 . S
H2002 C2010 0.930 . S
H2003 C2011 0.930 . S
H2004 C2014 0.930 . S
H2005 C2015 0.930 . S
C2006 H2000 0.930 . S
C2006 C2007 1.355 . S
C2006 C2008 1.415 . S
C2007 C2006 1.355 . S
C2007 C2009 1.419 . S
C2008 C2006 1.415 . S
C2008 C2013 1.425 . S
C2008 C2015 1.409 . S
C2009 H2001 0.930 . S
C2009 C2007 1.419 . S
C2009 C2010 1.362 . S
C2010 H2002 0.930 . S
C2010 C2009 1.362 . S
C2010 C2013 1.409 . S
C2011 H2003 0.930 . S
C2011 C2012 1.355 . S
C2011 C2013 1.415 . S
C2012 C2011 1.355 . S
C2012 C2014 1.419 . S
C2013 C2008 1.425 . S
C2013 C2010 1.409 . S
C2013 C2011 1.415 . S
C2014 H2004 0.930 . S
C2014 C2012 1.419 . S
C2014 C2015 1.362 . S
C2015 H2005 0.930 . S
C2015 C2008 1.409 . S
C2015 C2014 1.362 . S
H2016 C2022 0.930 . S
H2017 C2025 0.930 . S
H2018 C2026 0.930 . S
H2019 C2027 0.930 . S
H2020 C2030 0.930 . S
H2021 C2031 0.930 . S
C2022 H2016 0.930 . S
C2022 C2023 1.355 . S
C2022 C2024 1.415 . S
C2023 C2022 1.355 . S
C2023 C2025 1.419 . S
C2024 C2022 1.415 . S
C2024 C2029 1.425 . S
C2024 C2031 1.409 . S
C2025 H2017 0.930 . S
C2025 C2023 1.419 . S
C2025 C2026 1.362 . S
C2026 H2018 0.930 . S
C2026 C2025 1.362 . S
C2026 C2029 1.409 . S
C2027 H2019 0.930 . S
C2027 C2028 1.355 . S
C2027 C2029 1.415 . S
C2028 C2027 1.355 . S
C2028 C2030 1.419 . S
C2029 C2024 1.425 . S
C2029 C2026 1.409 . S
C2029 C2027 1.415 . S
C2030 H2020 0.930 . S
C2030 C2028 1.419 . S
C2030 C2031 1.362 . S
C2031 H2021 0.930 . S
C2031 C2024 1.409 . S
C2031 C2030 1.362 . S
H2032 C2038 0.930 . S
H2033 C2041 0.930 . S
H2034 C2042 0.930 . S
H2035 C2043 0.930 . S
H2036 C2046 0.930 . S
H2037 C2047 0.930 . S
C2038 H2032 0.930 . S
C2038 C2039 1.355 . S
C2038 C2040 1.415 . S
C2039 C2038 1.355 . S
C2039 C2041 1.419 . S
C2040 C2038 1.415 . S
C2040 C2045 1.425 . S
C2040 C2047 1.409 . S
C2041 H2033 0.930 . S
C2041 C2039 1.419 . S
C2041 C2042 1.362 . S
C2042 H2034 0.930 . S
C2042 C2041 1.362 . S
C2042 C2045 1.409 . S
C2043 H2035 0.930 . S
C2043 C2044 1.355 . S
C2043 C2045 1.415 . S
C2044 C2043 1.355 . S
C2044 C2046 1.419 . S
C2045 C2040 1.425 . S
C2045 C2042 1.409 . S
C2045 C2043 1.415 . S
C2046 H2036 0.930 . S
C2046 C2044 1.419 . S
C2046 C2047 1.362 . S
C2047 H2037 0.930 . S
C2047 C2040 1.409 . S
C2047 C2046 1.362 . S
H2048 C2054 0.930 . S
H2049 C2057 0.930 1_556 S
H2050 C2058 0.930 . S
H2051 C2059 0.930 . S
H2052 C2062 0.930 . S
H2053 C2063 0.930 . S
C2054 H2048 0.930 . S
C2054 C2055 1.355 . S
C2054 C2056 1.415 . S
C2055 C2054 1.355 . S
C2055 C2057 1.419 . S
C2056 C2054 1.415 . S
C2056 C2061 1.425 . S
C2056 C2063 1.409 . S
C2057 H2049 0.930 1_554 S
C2057 C2055 1.419 . S
C2057 C2058 1.362 . S
C2058 H2050 0.930 . S
C2058 C2057 1.362 . S
C2058 C2061 1.409 . S
C2059 H2051 0.930 . S
C2059 C2060 1.355 . S
C2059 C2061 1.415 . S
C2060 C2059 1.355 . S
C2060 C2062 1.419 . S
C2061 C2056 1.425 . S
C2061 C2058 1.409 . S
C2061 C2059 1.415 . S
C2062 H2052 0.930 . S
C2062 C2060 1.419 . S
C2062 C2063 1.362 . S
C2063 H2053 0.930 . S
C2063 C2056 1.409 . S
C2063 C2062 1.362 . S
H2064 C2070 0.930 . S
H2065 C2073 0.930 . S
H2066 C2074 0.930 . S
H2067 C2075 0.930 . S
H2068 C2078 0.930 . S
H2069 C2079 0.930 . S
C2070 H2064 0.930 . S
C2070 C2071 1.355 . S
C2070 C2072 1.415 . S
C2071 C2070 1.355 . S
C2071 C2073 1.419 . S
C2072 C2070 1.415 . S
C2072 C2077 1.425 . S
C2072 C2079 1.409 . S
C2073 H2065 0.930 . S
C2073 C2071 1.419 . S
C2073 C2074 1.362 . S
C2074 H2066 0.930 . S
C2074 C2073 1.362 . S
C2074 C2077 1.409 . S
C2075 H2067 0.930 . S
C2075 C2076 1.355 . S
C2075 C2077 1.415 . S
C2076 C2075 1.355 . S
C2076 C2078 1.419 . S
C2077 C2072 1.425 . S
C2077 C2074 1.409 . S
C2077 C2075 1.415 . S
C2078 H2068 0.930 . S
C2078 C2076 1.419 . S
C2078 C2079 1.362 . S
C2079 H2069 0.930 . S
C2079 C2072 1.409 . S
C2079 C2078 1.362 . S
H2080 C2086 0.930 . S
H2081 C2089 0.930 . S
H2082 C2090 0.930 . S
H2083 C2091 0.930 . S
H2084 C2094 0.918 1_554 S
H2085 C2095 0.930 . S
C2086 H2080 0.930 . S
C2086 C2087 1.355 . S
C2086 C2088 1.415 . S
C2087 C2086 1.355 . S
C2087 C2089 1.419 . S
C2088 C2086 1.415 . S
C2088 C2093 1.425 . S
C2088 C2095 1.409 . S
C2089 H2081 0.930 . S
C2089 C2087 1.419 . S
C2089 C2090 1.362 . S
C2090 H2082 0.930 . S
C2090 C2089 1.362 . S
C2090 C2093 1.409 . S
C2091 H2083 0.930 . S
C2091 C2092 1.355 . S
C2091 C2093 1.415 . S
C2092 C2091 1.355 . S
C2092 C2094 1.419 . S
C2093 C2088 1.425 . S
C2093 C2090 1.409 . S
C2093 C2091 1.415 . S
C2094 H2084 0.918 1_556 S
C2094 C2092 1.419 . S
C2094 C2095 1.362 . S
C2095 H2085 0.930 . S
C2095 C2088 1.409 . S
C2095 C2094 1.362 . S
H2096 C2102 0.930 . S
H2097 C2105 0.930 1_554 S
H2098 C2106 0.930 . S
H2099 C2107 0.930 . S
H2100 C2110 0.930 . S
H2101 C2111 0.930 . S
C2102 H2096 0.930 . S
C2102 C2103 1.355 . S
C2102 C2104 1.415 . S
C2103 C2102 1.355 . S
C2103 C2105 1.419 . S
C2104 C2102 1.415 . S
C2104 C2109 1.425 . S
C2104 C2111 1.409 . S
C2105 H2097 0.930 1_556 S
C2105 C2103 1.419 . S
C2105 C2106 1.362 . S
C2106 H2098 0.930 . S
C2106 C2105 1.362 . S
C2106 C2109 1.409 . S
C2107 H2099 0.930 . S
C2107 C2108 1.355 . S
C2107 C2109 1.415 . S
C2108 C2107 1.355 . S
C2108 C2110 1.419 . S
C2109 C2104 1.425 . S
C2109 C2106 1.409 . S
C2109 C2107 1.415 . S
C2110 H2100 0.930 . S
C2110 C2108 1.419 . S
C2110 C2111 1.362 . S
C2111 H2101 0.930 . S
C2111 C2104 1.409 . S
C2111 C2110 1.362 . S
H2112 C2118 0.930 . S
H2113 C2121 0.930 . S
H2114 C2122 0.930 . S
H2115 C2123 0.930 . S
H2116 C2126 0.930 . S
H2117 C2127 0.930 . S
C2118 H2112 0.930 . S
C2118 C2119 1.355 . S
C2118 C2120 1.415 . S
C2119 C2118 1.355 . S
C2119 C2121 1.419 . S
C2120 C2118 1.415 . S
C2120 C2125 1.425 . S
C2120 C2127 1.409 . S
C2121 H2113 0.930 . S
C2121 C2119 1.419 . S
C2121 C2122 1.362 . S
C2122 H2114 0.930 . S
C2122 C2121 1.362 . S
C2122 C2125 1.409 . S
C2123 H2115 0.930 . S
C2123 C2124 1.355 . S
C2123 C2125 1.415 . S
C2124 C2123 1.355 . S
C2124 C2126 1.419 . S
C2125 C2120 1.425 . S
C2125 C2122 1.409 . S
C2125 C2123 1.415 . S
C2126 H2116 0.930 . S
C2126 C2124 1.419 . S
C2126 C2127 1.362 . S
C2127 H2117 0.930 . S
C2127 C2120 1.409 . S
C2127 C2126 1.362 . S
H2128 C2134 0.930 . S
H2129 C2137 0.930 . S
H2130 C2138 0.930 . S
H2131 C2139 0.930 . S
H2132 C2142 0.930 . S
H2133 C2143 0.930 . S
C2134 H2128 0.930 . S
C2134 C2135 1.355 . S
C2134 C2136 1.415 . S
C2135 C2134 1.355 . S
C2135 C2137 1.419 . S
C2136 C2134 1.415 . S
C2136 C2141 1.425 . S
C2136 C2143 1.409 . S
C2137 H2129 0.930 . S
C2137 C2135 1.419 . S
C2137 C2138 1.362 . S
C2138 H2130 0.930 . S
C2138 C2137 1.362 . S
C2138 C2141 1.409 . S
C2139 H2131 0.930 . S
C2139 C2140 1.355 . S
C2139 C2141 1.415 . S
C2140 C2139 1.355 . S
C2140 C2142 1.419 . S
C2141 C2136 1.425 . S
C2141 C2138 1.409 . S
C2141 C2139 1.415 . S
C2142 H2132 0.930 . S
C2142 C2140 1.419 . S
C2142 C2143 1.362 . S
C2143 H2133 0.930 . S
C2143 C2136 1.409 . S
C2143 C2142 1.362 . S
H2144 C2150 0.930 . S
H2145 C2153 0.930 . S
H2146 C2154 0.930 . S
H2147 C2155 0.930 . S
H2148 C2158 0.930 . S
H2149 C2159 0.930 . S
C2150 H2144 0.930 . S
C2150 C2151 1.355 . S
C2150 C2152 1.415 . S
C2151 C2150 1.355 . S
C2151 C2153 1.419 . S
C2152 C2150 1.415 . S
C2152 C2157 1.425 . S
C2152 C2159 1.409 . S
C2153 H2145 0.930 . S
C2153 C2151 1.419 . S
C2153 C2154 1.362 . S
C2154 H2146 0.930 . S
C2154 C2153 1.362 . S
C2154 C2157 1.409 . S
C2155 H2147 0.930 . S
C2155 C2156 1.355 . S
C2155 C2157 1.415 . S
C2156 C2155 1.355 . S
C2156 C2158 1.419 . S
C2157 C2152 1.425 . S
C2157 C2154 1.409 . S
C2157 C2155 1.415 . S
C2158 H2148 0.930 . S
C2158 C2156 1.419 . S
C2158 C2159 1.362 . S
C2159 H2149 0.930 . S
C2159 C2152 1.409 . S
C2159 C2158 1.362 . S
H2160 C2166 0.930 . S
H2161 C2169 0.930 . S
H2162 C2170 0.930 . S
H2163 C2171 0.930 . S
H2164 C2174 0.930 . S
H2165 C2175 0.930 . S
C2166 H2160 0.930 . S
C2166 C2167 1.355 . S
C2166 C2168 1.415 . S
C2167 C2166 1.355 . S
C2167 C2169 1.419 . S
C2168 C2166 1.415 . S
C2168 C2173 1.425 . S
C2168 C2175 1.409 . S
C2169 H2161 0.930 . S
C2169 C2167 1.419 . S
C2169 C2170 1.362 . S
C2170 H2162 0.930 . S
C2170 C2169 1.362 . S
C2170 C2173 1.409 . S
C2171 H2163 0.930 . S
C2171 C2172 1.355 . S
C2171 C2173 1.415 . S
C2172 C2171 1.355 . S
C2172 C2174 1.419 . S
C2173 C2168 1.425 . S
C2173 C2170 1.409 . S
C2173 C2171 1.415 . S
C2174 H2164 0.930 . S
C2174 C2172 1.419 . S
C2174 C2175 1.362 . S
C2175 H2165 0.930 . S
C2175 C2168 1.409 . S
C2175 C2174 1.362 . S
H2176 C2182 0.930 . S
H2177 C2185 0.930 . S
H2178 C2186 0.930 . S
H2179 C2187 0.930 . S
H2180 C2190 0.930 . S
H2181 C2191 0.930 . S
C2182 H2176 0.930 . S
C2182 C2183 1.355 . S
C2182 C2184 1.415 . S
C2183 C2182 1.355 . S
C2183 C2185 1.419 . S
C2184 C2182 1.415 . S
C2184 C2189 1.425 . S
C2184 C2191 1.409 . S
C2185 H2177 0.930 . S
C2185 C2183 1.419 . S
C2185 C2186 1.362 . S
C2186 H2178 0.930 . S
C2186 C2185 1.362 . S
C2186 C2189 1.409 . S
C2187 H2179 0.930 . S
C2187 C2188 1.355 . S
C2187 C2189 1.415 . S
C2188 C2187 1.355 . S
C2188 C2190 1.419 . S
C2189 C2184 1.425 . S
C2189 C2186 1.409 . S
C2189 C2187 1.415 . S
C2190 H2180 0.930 . S
C2190 C2188 1.419 . S
C2190 C2191 1.362 . S
C2191 H2181 0.930 . S
C2191 C2184 1.409 . S
C2191 C2190 1.362 . S
H2192 C2198 0.930 . S
H2193 C2201 0.930 . S
H2194 C2202 0.930 . S
H2195 C2203 0.930 . S
H2196 C2206 0.930 . S
H2197 C2207 0.930 . S
C2198 H2192 0.930 . S
C2198 C2199 1.355 . S
C2198 C2200 1.415 . S
C2199 C2198 1.355 . S
C2199 C2201 1.419 . S
C2200 C2198 1.415 . S
C2200 C2205 1.425 . S
C2200 C2207 1.409 . S
C2201 H2193 0.930 . S
C2201 C2199 1.419 . S
C2201 C2202 1.362 . S
C2202 H2194 0.930 . S
C2202 C2201 1.362 . S
C2202 C2205 1.409 . S
C2203 H2195 0.930 . S
C2203 C2204 1.355 . S
C2203 C2205 1.415 . S
C2204 C2203 1.355 . S
C2204 C2206 1.419 . S
C2205 C2200 1.425 . S
C2205 C2202 1.409 . S
C2205 C2203 1.415 . S
C2206 H2196 0.930 . S
C2206 C2204 1.419 . S
C2206 C2207 1.362 . S
C2207 H2197 0.930 . S
C2207 C2200 1.409 . S
C2207 C2206 1.362 . S
H2208 C2214 0.930 . S
H2209 C2217 0.930 . S
H2210 C2218 0.930 . S
H2211 C2219 0.930 . S
H2212 C2222 0.930 . S
H2213 C2223 0.930 . S
C2214 H2208 0.930 . S
C2214 C2215 1.355 . S
C2214 C2216 1.415 . S
C2215 C2214 1.355 . S
C2215 C2217 1.419 . S
C2216 C2214 1.415 . S
C2216 C2221 1.425 . S
C2216 C2223 1.409 . S
C2217 H2209 0.930 . S
C2217 C2215 1.419 . S
C2217 C2218 1.362 . S
C2218 H2210 0.930 . S
C2218 C2217 1.362 . S
C2218 C2221 1.409 . S
C2219 H2211 0.930 . S
C2219 C2220 1.355 . S
C2219 C2221 1.415 . S
C2220 C2219 1.355 . S
C2220 C2222 1.419 . S
C2221 C2216 1.425 . S
C2221 C2218 1.409 . S
C2221 C2219 1.415 . S
C2222 H2212 0.930 . S
C2222 C2220 1.419 . S
C2222 C2223 1.362 . S
C2223 H2213 0.930 . S
C2223 C2216 1.409 . S
C2223 C2222 1.362 . S
H2224 C2230 0.930 . S
H2225 C2233 0.930 . S
H2226 C2234 0.930 . S
H2227 C2235 0.930 . S
H2228 C2238 0.930 . S
H2229 C2239 0.930 . S
C2230 H2224 0.930 . S
C2230 C2231 1.355 . S
C2230 C2232 1.415 . S
C2231 C2230 1.355 . S
C2231 C2233 1.419 . S
C2232 C2230 1.415 . S
C2232 C2237 1.425 . S
C2232 C2239 1.409 . S
C2233 H2225 0.930 . S
C2233 C2231 1.419 . S
C2233 C2234 1.362 . S
C2234 H2226 0.930 . S
C2234 C2233 1.362 . S
C2234 C2237 1.409 . S
C2235 H2227 0.930 . S
C2235 C2236 1.355 . S
C2235 C2237 1.415 . S
C2236 C2235 1.355 . S
C2236 C2238 1.419 . S
C2237 C2232 1.425 . S
C2237 C2234 1.409 . S
C2237 C2235 1.415 . S
C2238 H2228 0.930 . S
C2238 C2236 1.419 . S
C2238 C2239 1.362 . S
C2239 H2229 0.930 . S
C2239 C2232 1.409 . S
C2239 C2238 1.362 . S
H2240 C2246 0.930 . S
H2241 C2249 0.930 . S
H2242 C2250 0.930 . S
H2243 C2251 0.930 . S
H2244 C2254 0.930 . S
H2245 C2255 0.930 . S
C2246 H2240 0.930 . S
C2246 C2247 1.355 . S
C2246 C2248 1.415 . S
C2247 C2246 1.355 . S
C2247 C2249 1.419 . S
C2248 C2246 1.415 . S
C2248 C2253 1.425 . S
C2248 C2255 1.409 . S
C2249 H2241 0.930 . S
C2249 C2247 1.419 . S
C2249 C2250 1.362 . S
C2250 H2242 0.930 . S
C2250 C2249 1.362 . S
C2250 C2253 1.409 . S
C2251 H2243 0.930 . S
C2251 C2252 1.355 . S
C2251 C2253 1.415 . S
C2252 C2251 1.355 . S
C2252 C2254 1.419 . S
C2253 C2248 1.425 . S
C2253 C2250 1.409 . S
C2253 C2251 1.415 . S
C2254 H2244 0.930 . S
C2254 C2252 1.419 . S
C2254 C2255 1.362 . S
C2255 H2245 0.930 . S
C2255 C2248 1.409 . S
C2255 C2254 1.362 . S
H2256 C2262 0.930 . S
H2257 C2265 0.930 . S
H2258 C2266 0.930 . S
H2259 C2267 0.930 . S
H2260 C2270 0.930 . S
H2261 C2271 0.930 . S
C2262 H2256 0.930 . S
C2262 C2263 1.355 . S
C2262 C2264 1.415 . S
C2263 C2262 1.355 . S
C2263 C2265 1.419 . S
C2264 C2262 1.415 . S
C2264 C2269 1.425 . S
C2264 C2271 1.409 . S
C2265 H2257 0.930 . S
C2265 C2263 1.419 . S
C2265 C2266 1.362 . S
C2266 H2258 0.930 . S
C2266 C2265 1.362 . S
C2266 C2269 1.409 . S
C2267 H2259 0.930 . S
C2267 C2268 1.355 . S
C2267 C2269 1.415 . S
C2268 C2267 1.355 . S
C2268 C2270 1.419 . S
C2269 C2264 1.425 . S
C2269 C2266 1.409 . S
C2269 C2267 1.415 . S
C2270 H2260 0.930 . S
C2270 C2268 1.419 . S
C2270 C2271 1.362 . S
C2271 H2261 0.930 . S
C2271 C2264 1.409 . S
C2271 C2270 1.362 . S
H2272 C2278 0.930 . S
H2273 C2281 0.930 . S
H2274 C2282 0.930 . S
H2275 C2283 0.930 . S
H2276 C2286 0.930 . S
H2277 C2287 0.930 . S
C2278 H2272 0.930 . S
C2278 C2279 1.355 . S
C2278 C2280 1.415 . S
C2279 C2278 1.355 . S
C2279 C2281 1.419 . S
C2280 C2278 1.415 . S
C2280 C2285 1.425 . S
C2280 C2287 1.409 . S
C2281 H2273 0.930 . S
C2281 C2279 1.419 . S
C2281 C2282 1.362 . S
C2282 H2274 0.930 . S
C2282 C2281 1.362 . S
C2282 C2285 1.409 . S
C2283 H2275 0.930 . S
C2283 C2284 1.355 . S
C2283 C2285 1.415 . S
C2284 C2283 1.355 . S
C2284 C2286 1.419 . S
C2285 C2280 1.425 . S
C2285 C2282 1.409 . S
C2285 C2283 1.415 . S
C2286 H2276 0.930 . S
C2286 C2284 1.419 . S
C2286 C2287 1.362 . S
C2287 H2277 0.930 . S
C2287 C2280 1.409 . S
C2287 C2286 1.362 . S
H2288 C2294 0.930 . S
H2289 C2297 0.930 . S
H2290 C2298 0.930 . S
H2291 C2299 0.930 . S
H2292 C2302 0.930 . S
H2293 C2303 0.930 . S
C2294 H2288 0.930 . S
C2294 C2295 1.355 . S
C2294 C2296 1.415 . S
C2295 C2294 1.355 . S
C2295 C2297 1.419 . S
C2296 C2294 1.415 . S
C2296 C2301 1.425 . S
C2296 C2303 1.409 . S
C2297 H2289 0.930 . S
C2297 C2295 1.419 . S
C2297 C2298 1.362 . S
C2298 H2290 0.930 . S
C2298 C2297 1.362 . S
C2298 C2301 1.409 . S
C2299 H2291 0.930 . S
C2299 C2300 1.355 . S
C2299 C2301 1.415 . S
C2300 C2299 1.355 . S
C2300 C2302 1.419 . S
C2301 C2296 1.425 . S
C2301 C2298 1.409 . S
C2301 C2299 1.415 . S
C2302 H2292 0.930 . S
C2302 C2300 1.419 . S
C2302 C2303 1.362 . S
C2303 H2293 0.930 . S
C2303 C2296 1.409 . S
C2303 C2302 1.362 . S
H2304 C2310 0.930 . S
H2305 C2313 0.930 . S
H2306 C2314 0.930 . S
H2307 C2315 0.930 . S
H2308 C2318 0.930 . S
H2309 C2319 0.930 . S
C2310 H2304 0.930 . S
C2310 C2311 1.355 . S
C2310 C2312 1.415 . S
C2311 C2310 1.355 . S
C2311 C2313 1.419 . S
C2312 C2310 1.415 . S
C2312 C2317 1.425 . S
C2312 C2319 1.409 . S
C2313 H2305 0.930 . S
C2313 C2311 1.419 . S
C2313 C2314 1.362 . S
C2314 H2306 0.930 . S
C2314 C2313 1.362 . S
C2314 C2317 1.409 . S
C2315 H2307 0.930 . S
C2315 C2316 1.355 . S
C2315 C2317 1.415 . S
C2316 C2315 1.355 . S
C2316 C2318 1.419 . S
C2317 C2312 1.425 . S
C2317 C2314 1.409 . S
C2317 C2315 1.415 . S
C2318 H2308 0.930 . S
C2318 C2316 1.419 . S
C2318 C2319 1.362 . S
C2319 H2309 0.930 . S
C2319 C2312 1.409 . S
C2319 C2318 1.362 . S
H2320 C2326 0.930 . S
H2321 C2329 0.930 . S
H2322 C2330 0.930 . S
H2323 C2331 0.930 . S
H2324 C2334 0.930 . S
H2325 C2335 0.930 . S
C2326 H2320 0.930 . S
C2326 C2327 1.355 . S
C2326 C2328 1.415 . S
C2327 C2326 1.355 . S
C2327 C2329 1.419 . S
C2328 C2326 1.415 . S
C2328 C2333 1.425 . S
C2328 C2335 1.409 . S
C2329 H2321 0.930 . S
C2329 C2327 1.419 . S
C2329 C2330 1.362 . S
C2330 H2322 0.930 . S
C2330 C2329 1.362 . S
C2330 C2333 1.409 . S
C2331 H2323 0.930 . S
C2331 C2332 1.355 . S
C2331 C2333 1.415 . S
C2332 C2331 1.355 . S
C2332 C2334 1.419 . S
C2333 C2328 1.425 . S
C2333 C2330 1.409 . S
C2333 C2331 1.415 . S
C2334 H2324 0.930 . S
C2334 C2332 1.419 . S
C2334 C2335 1.362 . S
C2335 H2325 0.930 . S
C2335 C2328 1.409 . S
C2335 C2334 1.362 . S
H2336 C2342 0.930 . S
H2337 C2345 0.930 . S
H2338 C2346 0.930 . S
H2339 C2347 0.930 . S
H2340 C2350 0.930 . S
H2341 C2351 0.930 . S
C2342 H2336 0.930 . S
C2342 C2343 1.355 . S
C2342 C2344 1.415 . S
C2343 C2342 1.355 . S
C2343 C2345 1.419 . S
C2344 C2342 1.415 . S
C2344 C2349 1.425 . S
C2344 C2351 1.409 . S
C2345 H2337 0.930 . S
C2345 C2343 1.419 . S
C2345 C2346 1.362 . S
C2346 H2338 0.930 . S
C2346 C2345 1.362 . S
C2346 C2349 1.409 . S
C2347 H2339 0.930 . S
C2347 C2348 1.355 . S
C2347 C2349 1.415 . S
C2348 C2347 1.355 . S
C2348 C2350 1.419 . S
C2349 C2344 1.425 . S
C2349 C2346 1.409 . S
C2349 C2347 1.415 . S
C2350 H2340 0.930 . S
C2350 C2348 1.419 . S
C2350 C2351 1.362 . S
C2351 H2341 0.930 . S
C2351 C2344 1.409 . S
C2351 C2350 1.362 . S
H2352 C2358 0.930 . S
H2353 C2361 0.930 . S
H2354 C2362 0.930 . S
H2355 C2363 0.930 . S
H2356 C2366 0.930 . S
H2357 C2367 0.930 . S
C2358 H2352 0.930 . S
C2358 C2359 1.355 . S
C2358 C2360 1.415 . S
C2359 C2358 1.355 . S
C2359 C2361 1.419 . S
C2360 C2358 1.415 . S
C2360 C2365 1.425 1_455 S
C2360 C2367 1.409 1_455 S
C2361 H2353 0.930 . S
C2361 C2359 1.419 . S
C2361 C2362 1.362 . S
C2362 H2354 0.930 . S
C2362 C2361 1.362 . S
C2362 C2365 1.409 1_455 S
C2363 H2355 0.930 . S
C2363 C2364 1.355 . S
C2363 C2365 1.415 . S
C2364 C2363 1.355 . S
C2364 C2366 1.419 . S
C2365 C2360 1.425 1_655 S
C2365 C2362 1.409 1_655 S
C2365 C2363 1.415 . S
C2366 H2356 0.930 . S
C2366 C2364 1.419 . S
C2366 C2367 1.362 . S
C2367 H2357 0.930 . S
C2367 C2360 1.409 1_655 S
C2367 C2366 1.362 . S
H2368 C2374 0.930 . S
H2369 C2377 0.930 . S
H2370 C2378 0.930 . S
H2371 C2379 0.930 . S
H2372 C2382 0.930 . S
H2373 C2383 0.930 . S
C2374 H2368 0.930 . S
C2374 C2375 1.355 . S
C2374 C2376 1.415 . S
C2375 C2374 1.355 . S
C2375 C2377 1.419 . S
C2376 C2374 1.415 . S
C2376 C2381 1.425 . S
C2376 C2383 1.409 . S
C2377 H2369 0.930 . S
C2377 C2375 1.419 . S
C2377 C2378 1.362 . S
C2378 H2370 0.930 . S
C2378 C2377 1.362 . S
C2378 C2381 1.409 . S
C2379 H2371 0.930 . S
C2379 C2380 1.355 . S
C2379 C2381 1.415 . S
C2380 C2379 1.355 . S
C2380 C2382 1.419 . S
C2381 C2376 1.425 . S
C2381 C2378 1.409 . S
C2381 C2379 1.415 . S
C2382 H2372 0.930 . S
C2382 C2380 1.419 . S
C2382 C2383 1.362 . S
C2383 H2373 0.930 . S
C2383 C2376 1.409 . S
C2383 C2382 1.362 . S
H2384 C2390 0.930 . S
H2385 C2393 0.930 . S
H2386 C2394 0.930 . S
H2387 C2395 0.930 . S
H2388 C2398 0.930 . S
H2389 C2399 0.930 . S
C2390 H2384 0.930 . S
C2390 C2391 1.355 . S
C2390 C2392 1.415 1_545 S
C2391 C2390 1.355 . S
C2391 C2393 1.419 . S
C2392 C2390 1.415 1_565 S
C2392 C2397 1.425 1_565 S
C2392 C2399 1.409 . S
C2393 H2385 0.930 . S
C2393 C2391 1.419 . S
C2393 C2394 1.362 . S
C2394 H2386 0.930 . S
C2394 C2393 1.362 . S
C2394 C2397 1.409 . S
C2395 H2387 0.930 . S
C2395 C2396 1.355 . S
C2395 C2397 1.415 1_565 S
C2396 C2395 1.355 . S
C2396 C2398 1.419 . S
C2397 C2392 1.425 1_545 S
C2397 C2394 1.409 . S
C2397 C2395 1.415 1_545 S
C2398 H2388 0.930 . S
C2398 C2396 1.419 . S
C2398 C2399 1.362 . S
C2399 H2389 0.930 . S
C2399 C2392 1.409 . S
C2399 C2398 1.362 . S
H2400 C2406 0.930 1_554 S
H2401 C2409 0.930 . S
H2402 C2410 0.930 . S
H2403 C2411 0.930 1_556 S
H2404 C2414 0.930 . S
H2405 C2415 0.930 . S
C2406 H2400 0.930 1_556 S
C2406 C2407 1.355 . S
C2406 C2408 1.415 1_556 S
C2407 C2406 1.355 . S
C2407 C2409 1.419 . S
C2408 C2406 1.415 1_554 S
C2408 C2413 1.425 1_544 S
C2408 C2415 1.409 1_545 S
C2409 H2401 0.930 . S
C2409 C2407 1.419 . S
C2409 C2410 1.362 . S
C2410 H2402 0.930 . S
C2410 C2409 1.362 . S
C2410 C2413 1.409 1_545 S
C2411 H2403 0.930 1_554 S
C2411 C2412 1.355 . S
C2411 C2413 1.415 1_554 S
C2412 C2411 1.355 . S
C2412 C2414 1.419 . S
C2413 C2408 1.425 1_566 S
C2413 C2410 1.409 1_565 S
C2413 C2411 1.415 1_556 S
C2414 H2404 0.930 . S
C2414 C2412 1.419 . S
C2414 C2415 1.362 . S
C2415 H2405 0.930 . S
C2415 C2408 1.409 1_565 S
C2415 C2414 1.362 . S
H2416 C2422 0.930 . S
H2417 C2425 0.930 . S
H2418 C2426 0.930 . S
H2419 C2427 0.930 . S
H2420 C2430 0.930 . S
H2421 C2431 0.930 . S
C2422 H2416 0.930 . S
C2422 C2423 1.355 . S
C2422 C2424 1.415 1_655 S
C2423 C2422 1.355 . S
C2423 C2425 1.419 . S
C2424 C2422 1.415 1_455 S
C2424 C2429 1.425 1_456 S
C2424 C2431 1.409 . S
C2425 H2417 0.930 . S
C2425 C2423 1.419 . S
C2425 C2426 1.362 1_556 S
C2426 H2418 0.930 . S
C2426 C2425 1.362 1_554 S
C2426 C2429 1.409 . S
C2427 H2419 0.930 . S
C2427 C2428 1.355 . S
C2427 C2429 1.415 1_455 S
C2428 C2427 1.355 . S
C2428 C2430 1.419 . S
C2429 C2424 1.425 1_654 S
C2429 C2426 1.409 . S
C2429 C2427 1.415 1_655 S
C2430 H2420 0.930 . S
C2430 C2428 1.419 . S
C2430 C2431 1.362 1_554 S
C2431 H2421 0.930 . S
C2431 C2424 1.409 . S
C2431 C2430 1.362 1_556 S
H2432 C2438 0.930 . S
H2433 C2441 0.930 . S
H2434 C2442 0.930 . S
H2435 C2443 0.930 . S
H2436 C2446 0.930 . S
H2437 C2447 0.930 . S
C2438 H2432 0.930 . S
C2438 C2439 1.355 . S
C2438 C2440 1.415 . S
C2439 C2438 1.355 . S
C2439 C2441 1.419 1_556 S
C2440 C2438 1.415 . S
C2440 C2445 1.425 1_556 S
C2440 C2447 1.409 . S
C2441 H2433 0.930 . S
C2441 C2439 1.419 1_554 S
C2441 C2442 1.362 . S
C2442 H2434 0.930 . S
C2442 C2441 1.362 . S
C2442 C2445 1.409 . S
C2443 H2435 0.930 . S
C2443 C2444 1.355 . S
C2443 C2445 1.415 . S
C2444 C2443 1.355 . S
C2444 C2446 1.419 1_554 S
C2445 C2440 1.425 1_554 S
C2445 C2442 1.409 . S
C2445 C2443 1.415 . S
C2446 H2436 0.930 . S
C2446 C2444 1.419 1_556 S
C2446 C2447 1.362 . S
C2447 H2437 0.930 . S
C2447 C2440 1.409 . S
C2447 C2446 1.362 . S
C1303 C14 1.240 . S
C1308 C256 1.229 . S
C1319 C50 1.230 . S
C1324 C292 1.246 . S
C1335 C220 1.212 . S
C1340 C86 1.263 . S
C1351 C400 1.227 . S
C1356 C122 1.250 . S
C1367 C158 1.219 . S
C1372 C328 1.257 . S
C1383 C194 1.199 . S
C1388 C364 1.272 . S
C1399 C40 1.201 . S
C1404 C230 1.271 . S
C1415 C76 1.204 . S
C1420 C266 1.270 . S
C1431 C302 1.267 . S
C1436 C4 1.207 . S
C1447 C338 1.257 . S
C1452 C184 1.212 . S
C1463 C112 1.264 . S
C1468 C374 1.211 . S
C1479 C410 1.199 . S
C1484 C148 1.272 . S
C1495 C688 1.251 . S
C1500 C446 1.225 . S
C1511 C482 1.267 . S
C1516 C724 1.206 . S
C1527 C518 1.237 . S
C1532 C652 1.240 . S
C1543 C832 1.268 . S
C1548 C554 1.205 . S
C1559 C590 1.212 . S
C1564 C760 1.263 . S
C1575 C796 1.208 . S
C1580 C626 1.266 . S
C1591 C472 1.228 . S
C1596 C662 1.248 . S
C1607 C698 1.229 . S
C1612 C508 1.247 . S
C1623 C436 1.228 . S
C1628 C734 1.249 . S
C1639 C770 1.199 . S
C1644 C616 1.272 . S
C1655 C806 1.235 . S
C1660 C544 1.234 . S
C1671 C842 1.272 . S
C1676 C580 1.201 . S
C1687 C1120 1.267 . S
C1692 C878 1.207 . S
C1703 C1156 1.252 . S
C1708 C914 1.216 . S
C1719 C1084 1.269 . S
C1724 C950 1.201 . S
C1735 C986 1.252 . S
C1740 C1264 1.224 . S
C1751 C1022 1.251 . S
C1756 C1192 1.218 . S
C1767 C1228 1.220 . S
C1772 C1058 1.256 . S
C1783 C1094 1.199 . S
C1788 C904 1.272 . S
C1799 C940 1.240 . S
C1804 C1130 1.229 . S
C1815 C868 1.247 . S
C1820 C1166 1.221 . S
C1831 C1202 1.269 . S
C1836 C1048 1.204 . S
C1847 C1238 1.207 . S
C1852 C976 1.267 . S
C1863 C1274 1.213 . S
C1868 C1012 1.255 . S
C1879 C110 1.372 . S
C1884 C2 1.387 . S
C1895 C146 1.436 . S
C1900 C38 1.399 . S
C1911 C74 1.435 . S
C1916 C182 1.395 . S
C1927 C326 1.377 . S
C1932 C218 1.381 . S
C1943 C362 1.429 . S
C1948 C254 1.383 . S
C1959 C398 1.370 . S
C1964 C290 1.410 . S
C1975 C542 1.378 . S
C1980 C434 1.380 . S
C1991 C578 1.403 . S
C1996 C470 1.369 . S
C2007 C506 1.379 . S
C2012 C614 1.379 . S
C2023 C758 1.401 1_554 S
C2028 C650 1.436 . S
C2039 C794 1.402 1_554 S
C2044 C686 1.369 . S
C2055 C830 1.372 1_554 S
C2060 C722 1.389 . S
C2071 C974 1.432 1_556 S
C2076 C866 1.388 . S
C2087 C902 1.371 . S
C2092 C1010 1.393 1_556 S
C2103 C1046 1.376 1_556 S
C2108 C938 1.381 . S
C2119 C1082 1.372 . S
C2124 C1190 1.390 . S
C2135 C1118 1.413 . S
C2140 C1226 1.436 . S
C2151 C1154 1.427 . S
C2156 C1262 1.428 . S
C2167 C3 1.437 . S
C2172 C651 1.437 . S
C2183 C687 1.433 . S
C2188 C39 1.433 . S
C2199 C723 1.431 . S
C2204 C75 1.431 . S
C2215 C1191 1.422 . S
C2220 C111 1.422 . S
C2231 C1227 1.445 . S
C2236 C147 1.445 . S
C2247 C1263 1.446 . S
C2252 C183 1.446 . S
C2263 C219 1.447 . S
C2268 C867 1.447 . S
C2279 C903 1.428 . S
C2284 C255 1.428 . S
C2295 C939 1.441 . S
C2300 C291 1.441 . S
C2311 C327 1.427 . S
C2316 C543 1.427 . S
C2327 C363 1.428 . S
C2332 C579 1.428 . S
C2343 C399 1.425 . S
C2348 C615 1.425 . S
C2359 C1083 1.429 . S
C2364 C435 1.429 . S
C2375 C1119 1.422 . S
C2380 C471 1.422 . S
C2391 C507 1.422 . S
C2396 C1155 1.422 . S
C2407 C759 1.427 . S
C2412 C975 1.427 . S
C2423 C795 1.423 . S
C2428 C1011 1.423 . S
C2439 C831 1.437 . S
C2444 C1047 1.437 . S
