# Generated by pormake.
# Topology wmc, (6)-cn, num edge types: 1
# Building blocks:
#     Node 0, Type 0, BuildingBlock: FUNLAD_clean_sbu_0, # of connection points: 6
#     Node 1, Type 0, BuildingBlock: FUNLAD_clean_sbu_0, # of connection points: 6
#     Node 2, Type 0, BuildingBlock: FUNLAD_clean_sbu_0, # of connection points: 6
#     Node 3, Type 0, BuildingBlock: FUNLAD_clean_sbu_0, # of connection points: 6
#     Node 4, Type 0, BuildingBlock: FUNLAD_clean_sbu_0, # of connection points: 6
#     Node 5, Type 0, BuildingBlock: FUNLAD_clean_sbu_0, # of connection points: 6
#     Node 6, Type 0, BuildingBlock: FUNLAD_clean_sbu_0, # of connection points: 6
#     Node 7, Type 0, BuildingBlock: FUNLAD_clean_sbu_0, # of connection points: 6
#     Node 8, Type 0, BuildingBlock: FUNLAD_clean_sbu_0, # of connection points: 6
#     Node 9, Type 0, BuildingBlock: FUNLAD_clean_sbu_0, # of connection points: 6
#     Node 10, Type 0, BuildingBlock: FUNLAD_clean_sbu_0, # of connection points: 6
#     Node 11, Type 0, BuildingBlock: FUNLAD_clean_sbu_0, # of connection points: 6
#     Node 12, Type 0, BuildingBlock: FUNLAD_clean_sbu_0, # of connection points: 6
#     Node 13, Type 0, BuildingBlock: FUNLAD_clean_sbu_0, # of connection points: 6
#     Node 14, Type 0, BuildingBlock: FUNLAD_clean_sbu_0, # of connection points: 6
#     Node 15, Type 0, BuildingBlock: FUNLAD_clean_sbu_0, # of connection points: 6
#     Node 16, Type 0, BuildingBlock: FUNLAD_clean_sbu_0, # of connection points: 6
#     Node 17, Type 0, BuildingBlock: FUNLAD_clean_sbu_0, # of connection points: 6
#     Edge 18, Type (0, 0), BuildingBlock: EZIPEK_clean_linker_0, # of connection points: 2
#     Edge 19, Type (0, 0), BuildingBlock: EZIPEK_clean_linker_0, # of connection points: 2
#     Edge 20, Type (0, 0), BuildingBlock: EZIPEK_clean_linker_0, # of connection points: 2
#     Edge 21, Type (0, 0), BuildingBlock: EZIPEK_clean_linker_0, # of connection points: 2
#     Edge 22, Type (0, 0), BuildingBlock: EZIPEK_clean_linker_0, # of connection points: 2
#     Edge 23, Type (0, 0), BuildingBlock: EZIPEK_clean_linker_0, # of connection points: 2
#     Edge 24, Type (0, 0), BuildingBlock: EZIPEK_clean_linker_0, # of connection points: 2
#     Edge 25, Type (0, 0), BuildingBlock: EZIPEK_clean_linker_0, # of connection points: 2
#     Edge 26, Type (0, 0), BuildingBlock: EZIPEK_clean_linker_0, # of connection points: 2
#     Edge 27, Type (0, 0), BuildingBlock: EZIPEK_clean_linker_0, # of connection points: 2
#     Edge 28, Type (0, 0), BuildingBlock: EZIPEK_clean_linker_0, # of connection points: 2
#     Edge 29, Type (0, 0), BuildingBlock: EZIPEK_clean_linker_0, # of connection points: 2
#     Edge 30, Type (0, 0), BuildingBlock: EZIPEK_clean_linker_0, # of connection points: 2
#     Edge 31, Type (0, 0), BuildingBlock: EZIPEK_clean_linker_0, # of connection points: 2
#     Edge 32, Type (0, 0), BuildingBlock: EZIPEK_clean_linker_0, # of connection points: 2
#     Edge 33, Type (0, 0), BuildingBlock: EZIPEK_clean_linker_0, # of connection points: 2
#     Edge 34, Type (0, 0), BuildingBlock: EZIPEK_clean_linker_0, # of connection points: 2
#     Edge 35, Type (0, 0), BuildingBlock: EZIPEK_clean_linker_0, # of connection points: 2
#     Edge 36, Type (0, 0), BuildingBlock: EZIPEK_clean_linker_0, # of connection points: 2
#     Edge 37, Type (0, 0), BuildingBlock: EZIPEK_clean_linker_0, # of connection points: 2
#     Edge 38, Type (0, 0), BuildingBlock: EZIPEK_clean_linker_0, # of connection points: 2
#     Edge 39, Type (0, 0), BuildingBlock: EZIPEK_clean_linker_0, # of connection points: 2
#     Edge 40, Type (0, 0), BuildingBlock: EZIPEK_clean_linker_0, # of connection points: 2
#     Edge 41, Type (0, 0), BuildingBlock: EZIPEK_clean_linker_0, # of connection points: 2
#     Edge 42, Type (0, 0), BuildingBlock: EZIPEK_clean_linker_0, # of connection points: 2
#     Edge 43, Type (0, 0), BuildingBlock: EZIPEK_clean_linker_0, # of connection points: 2
#     Edge 44, Type (0, 0), BuildingBlock: EZIPEK_clean_linker_0, # of connection points: 2
#     Edge 45, Type (0, 0), BuildingBlock: EZIPEK_clean_linker_0, # of connection points: 2
#     Edge 46, Type (0, 0), BuildingBlock: EZIPEK_clean_linker_0, # of connection points: 2
#     Edge 47, Type (0, 0), BuildingBlock: EZIPEK_clean_linker_0, # of connection points: 2
#     Edge 48, Type (0, 0), BuildingBlock: EZIPEK_clean_linker_0, # of connection points: 2
#     Edge 49, Type (0, 0), BuildingBlock: EZIPEK_clean_linker_0, # of connection points: 2
#     Edge 50, Type (0, 0), BuildingBlock: EZIPEK_clean_linker_0, # of connection points: 2
#     Edge 51, Type (0, 0), BuildingBlock: EZIPEK_clean_linker_0, # of connection points: 2
#     Edge 52, Type (0, 0), BuildingBlock: EZIPEK_clean_linker_0, # of connection points: 2
#     Edge 53, Type (0, 0), BuildingBlock: EZIPEK_clean_linker_0, # of connection points: 2
#     Edge 54, Type (0, 0), BuildingBlock: EZIPEK_clean_linker_0, # of connection points: 2
#     Edge 55, Type (0, 0), BuildingBlock: EZIPEK_clean_linker_0, # of connection points: 2
#     Edge 56, Type (0, 0), BuildingBlock: EZIPEK_clean_linker_0, # of connection points: 2
#     Edge 57, Type (0, 0), BuildingBlock: EZIPEK_clean_linker_0, # of connection points: 2
#     Edge 58, Type (0, 0), BuildingBlock: EZIPEK_clean_linker_0, # of connection points: 2
#     Edge 59, Type (0, 0), BuildingBlock: EZIPEK_clean_linker_0, # of connection points: 2
#     Edge 60, Type (0, 0), BuildingBlock: EZIPEK_clean_linker_0, # of connection points: 2
#     Edge 61, Type (0, 0), BuildingBlock: EZIPEK_clean_linker_0, # of connection points: 2
#     Edge 62, Type (0, 0), BuildingBlock: EZIPEK_clean_linker_0, # of connection points: 2
#     Edge 63, Type (0, 0), BuildingBlock: EZIPEK_clean_linker_0, # of connection points: 2
#     Edge 64, Type (0, 0), BuildingBlock: EZIPEK_clean_linker_0, # of connection points: 2
#     Edge 65, Type (0, 0), BuildingBlock: EZIPEK_clean_linker_0, # of connection points: 2
#     Edge 66, Type (0, 0), BuildingBlock: EZIPEK_clean_linker_0, # of connection points: 2
#     Edge 67, Type (0, 0), BuildingBlock: EZIPEK_clean_linker_0, # of connection points: 2
#     Edge 68, Type (0, 0), BuildingBlock: EZIPEK_clean_linker_0, # of connection points: 2
#     Edge 69, Type (0, 0), BuildingBlock: EZIPEK_clean_linker_0, # of connection points: 2
#     Edge 70, Type (0, 0), BuildingBlock: EZIPEK_clean_linker_0, # of connection points: 2
#     Edge 71, Type (0, 0), BuildingBlock: EZIPEK_clean_linker_0, # of connection points: 2
# Relax obj value: 0.591
# Max RMSD: 0.260
# Mean RMSD: 0.260
data_MOF--net-wmc--node1-FUNLAD_clean_sbu_0--edge1-EZIPEK_clean_linker_0
_symmetry_space_group_name_H-M    P1
_symmetry_Int_Tables_number       1
_symmetry_cell_setting            triclinic
loop_
_symmetry_equiv_pos_as_xyz
'x, y, z'
_cell_length_a     42.031334
_cell_length_b     41.874351
_cell_length_c     20.858352
_cell_angle_alpha  89.882332
_cell_angle_beta   90.070703
_cell_angle_gamma 119.98051
loop_
_atom_site_label
_atom_site_type_symbol
_atom_site_fract_x
_atom_site_fract_y
_atom_site_fract_z
_atom_type_partial_charge
C0 C 0.59468 0.13035 0.14436 0.0
N1 N 0.68175 0.1993 0.0178 0.0
C2 C 0.70963 0.20588 0.05873 0.0
C3 C 0.74403 0.23748 0.05126 0.0
C4 C 0.74942 0.26207 0.00113 0.0
C5 C 0.72063 0.25423 0.95886 0.0
C6 C 0.68679 0.22261 0.96826 0.0
Zn7 Zn 0.6326 0.15158 0.02113 0.0
C8 C 0.64641 0.09 0.048 0.0
N9 N 0.52645 0.05024 0.00869 0.0
C10 C 0.49885 0.05271 0.03863 0.0
C11 C 0.51798 0.02309 0.96455 0.0
C12 C 0.48112 0.99853 0.94744 0.0
C13 C 0.45243 1.00188 0.97543 0.0
C14 C 0.46184 0.02904 0.02252 0.0
Zn15 Zn 0.57989 0.09754 0.01561 0.0
O16 O 0.62582 0.15462 0.12216 0.0
C17 C 0.57215 0.16507 -0.0024 0.0
O18 O 0.57222 0.10408 0.10919 0.0
H19 H 0.5398 0.02164 0.93976 0.0
H20 H 0.70514 0.18675 0.09726 0.0
H21 H 0.50543 0.07466 0.07239 0.0
O22 O 0.60623 0.18093 0.008 0.0
O23 O 0.55369 0.13005 -0.00675 0.0
H24 H 0.66444 0.2168 0.93586 0.0
O25 O 0.58777 0.09272 0.92004 0.0
O26 O 0.63634 0.14738 0.92113 0.0
O27 O 0.61133 0.06878 0.04347 0.0
O28 O 0.66031 0.12396 0.03659 0.0
C29 C 0.61363 0.11921 0.88988 0.0
H30 H 0.76567 0.24348 0.08556 0.0
H31 H 0.72384 0.27327 0.92079 0.0
H32 H 0.47516 0.97798 0.91083 0.0
H33 H 0.44074 0.03274 0.04524 0.0
C34 C 0.90021 0.47315 0.12369 0.0
N35 N 0.8323 0.49317 0.00179 0.0
C36 C 0.80113 0.46601 0.02926 0.0
C37 C 0.76916 0.46827 0.02891 0.0
C38 C 0.76972 0.49906 0.00113 0.0
C39 C 0.80239 0.52726 0.97515 0.0
C40 C 0.8334 0.52342 0.97492 0.0
Zn41 Zn 0.87855 0.48934 -0.00261 0.0
C42 C 0.94151 0.56422 0.02751 0.0
N43 N 0.97827 0.48156 -0.00959 0.0
C44 C 0.97518 0.45074 0.01895 0.0
C45 C 1.00558 0.50055 0.9468 0.0
C46 C 0.03008 0.48813 0.92956 0.0
C47 C 0.02621 0.45541 0.95634 0.0
C48 C 0.99844 0.43702 0.00214 0.0
Zn49 Zn 0.93215 0.4893 0.00077 0.0
O50 O 0.87591 0.47705 0.09404 0.0
C51 C 0.86245 0.41404 0.98158 0.0
O52 O 0.92971 0.47955 0.0964 0.0
H53 H 1.00738 0.52435 0.92291 0.0
H54 H 0.8009 0.44238 0.05067 0.0
H55 H 0.95323 0.43529 0.0525 0.0
O56 O 0.84748 0.43374 0.97972 0.0
O57 O 0.89728 0.42957 0.9869 0.0
H58 H 0.85826 0.54453 0.95252 0.0
O59 O 0.93263 0.49713 0.90341 0.0
O60 O 0.88159 0.49967 0.90068 0.0
O61 O 0.96281 0.55052 0.0212 0.0
O62 O 0.90761 0.54397 0.01802 0.0
C63 C 0.90776 0.49899 0.87216 0.0
H64 H 0.74421 0.44623 0.04984 0.0
H65 H 0.80352 0.55141 0.95377 0.0
H66 H 0.05105 0.50322 0.8939 0.0
H67 H 0.99423 0.41168 0.02388 0.0
C68 C 0.56184 0.4486 0.14594 0.0
N69 N 0.55033 0.35317 0.04634 0.0
C70 C 0.57755 0.34947 0.0746 0.0
C71 C 0.57754 0.31598 0.06983 0.0
C72 C 0.54931 0.28651 0.03565 0.0
C73 C 0.52108 0.29062 0.00934 0.0
C74 C 0.52219 0.32421 0.01495 0.0
Zn75 Zn 0.55134 0.40269 0.0331 0.0
C76 C 0.47305 0.3865 0.04107 0.0
N77 N 0.5511 0.50407 0.98078 0.0
C78 C 0.54045 0.5246 0.01595 0.0
C79 C 0.57326 0.51945 0.92853 0.0
C80 C 0.58657 0.5563 0.91142 0.0
C81 C 0.57628 0.57823 0.94638 0.0
C82 C 0.55232 0.56166 -0.00108 0.0
Zn83 Zn 0.54594 0.45242 0.00735 0.0
O84 O 0.55757 0.41712 0.13126 0.0
C85 C 0.62348 0.46533 0.00514 0.0
O86 O 0.55672 0.46768 0.10381 0.0
H87 H 0.58247 0.50374 0.90114 0.0
H88 H 0.60007 0.37283 0.09814 0.0
H89 H 0.52378 0.5128 0.05833 0.0
O90 O 0.60856 0.43196 0.02323 0.0
O91 O 0.60391 0.4799 -0.006 0.0
H92 H 0.50135 0.3275 -0.0095 0.0
O93 O 0.53834 0.43664 0.91036 0.0
O94 O 0.54687 0.39061 0.93496 0.0
O95 O 0.48502 0.4204 0.02551 0.0
O96 O 0.49532 0.3747 0.04502 0.0
C97 C 0.54318 0.41035 0.89313 0.0
H98 H 0.59994 0.31355 0.09025 0.0
H99 H 0.49919 0.2685 0.98218 0.0
H100 H 0.60501 0.56768 0.87086 0.0
H101 H 0.54359 0.57751 0.02738 0.0
C102 C 0.89387 0.42406 0.37812 0.0
N103 N 0.98051 0.50714 0.47989 0.0
C104 C 0.97154 0.52686 0.4389 0.0
C105 C 0.99622 0.56349 0.42342 0.0
C106 C 0.03157 0.58107 0.44924 0.0
C107 C 0.04096 0.56065 0.49147 0.0
C108 C 1.01478 0.52357 0.50659 0.0
Zn109 Zn 0.93425 0.45394 0.49973 0.0
C110 C 0.86499 0.46444 0.51347 0.0
N111 N 0.83009 0.35454 0.52533 0.0
C112 C 0.79891 0.35002 0.49692 0.0
C113 C 0.83102 0.32536 0.55259 0.0
C114 C 0.8004 0.2899 0.54907 0.0
C115 C 0.76809 0.28485 0.52 0.0
C116 C 0.76738 0.3155 0.49485 0.0
Zn117 Zn 0.87735 0.4046 0.51243 0.0
O118 O 0.92417 0.44731 0.40279 0.0
C119 C 0.9392 0.38668 0.50437 0.0
O120 O 0.8685 0.3996 0.41265 0.0
H121 H 0.85586 0.32913 0.57501 0.0
H122 H 0.94473 0.5145 0.41835 0.0
H123 H 0.79863 0.37286 0.47347 0.0
O124 O 0.96299 0.42106 0.49736 0.0
O125 O 0.90571 0.377 0.50894 0.0
H126 H 0.02179 0.50827 0.54004 0.0
O127 O 0.88731 0.4153 0.61029 0.0
O128 O 0.94398 0.46054 0.59484 0.0
O129 O 0.84798 0.42998 0.51872 0.0
O130 O 0.89999 0.48158 0.50672 0.0
C131 C 0.91681 0.44282 0.63148 0.0
H132 H 0.98772 0.57802 0.39082 0.0
H133 H 0.06811 0.57325 0.51258 0.0
H134 H 0.80189 0.26669 0.56859 0.0
H135 H 0.74292 0.3125 0.47175 0.0
C136 C 0.61284 0.50695 0.39291 0.0
N137 N 0.52354 0.48039 0.51327 0.0
C138 C 0.51599 0.50121 0.47223 0.0
C139 C 0.47957 0.48933 0.45279 0.0
C140 C 0.45047 0.4555 0.47512 0.0
C141 C 0.45889 0.43556 0.51936 0.0
C142 C 0.4954 0.44863 0.53808 0.0
Zn143 Zn 0.57664 0.48599 0.51998 0.0
C144 C 0.56858 0.41214 0.47362 0.0
N145 N 0.67775 0.48525 0.51615 0.0
C146 C 0.7067 0.51727 0.49394 0.0
C147 C 0.68258 0.45778 0.54027 0.0
C148 C 0.71757 0.46171 0.54124 0.0
C149 C 0.74759 0.4943 0.51794 0.0
C150 C 0.74213 0.52253 0.49487 0.0
Zn151 Zn 0.62754 0.48152 0.5153 0.0
O152 O 0.58546 0.5029 0.4249 0.0
C153 C 0.64176 0.55544 0.5647 0.0
O154 O 0.63683 0.50197 0.42098 0.0
H155 H 0.65926 0.43272 0.55801 0.0
H156 H 0.53829 0.52592 0.45134 0.0
H157 H 0.70234 0.53882 0.47492 0.0
O158 O 0.60773 0.54487 0.55417 0.0
O159 O 0.65343 0.5336 0.55316 0.0
H160 H 0.50132 0.43177 0.56906 0.0
O161 O 0.615 0.4581 0.60795 0.0
O162 O 0.56806 0.46738 0.61519 0.0
O163 O 0.6032 0.4295 0.4788 0.0
O164 O 0.55083 0.42849 0.48805 0.0
C165 C 0.58785 0.45532 0.63946 0.0
H166 H 0.47435 0.50564 0.41852 0.0
H167 H 0.43747 0.40933 0.53769 0.0
H168 H 0.72111 0.43924 0.55842 0.0
H169 H 0.76476 0.54765 0.47551 0.0
C170 C 0.53796 0.12784 0.38973 0.0
N171 N 0.55211 0.05415 0.50421 0.0
C172 C 0.53329 0.02698 0.46022 0.0
C173 C 0.54544 1.00219 0.44318 0.0
C174 C 0.57777 1.00565 0.47043 0.0
C175 C 0.59581 0.0331 0.51697 0.0
C176 C 0.58235 0.05663 0.53364 0.0
Zn177 Zn 0.54617 0.10161 0.51348 0.0
C178 C 0.62301 0.16806 0.499 0.0
N179 N 0.54857 0.20552 0.52247 0.0
C180 C 0.52032 0.20393 0.48757 0.0
C181 C 0.57487 0.2379 0.54831 0.0
C182 C 0.57371 0.27041 0.53781 0.0
C183 C 0.54517 0.26918 0.50082 0.0
C184 C 0.518 0.23546 0.47645 0.0
Zn185 Zn 0.55082 0.15749 0.52339 0.0
O186 O 0.53567 0.09989 0.41781 0.0
C187 C 0.47336 0.09506 0.54225 0.0
O188 O 0.54428 0.15565 0.423 0.0
H189 H 0.59733 0.23876 0.57511 0.0
H190 H 0.50999 0.02566 0.43562 0.0
H191 H 0.50009 0.17835 0.46583 0.0
O192 O 0.48581 0.07275 0.53536 0.0
O193 O 0.49508 0.1293 0.53768 0.0
H194 H 0.5978 0.07861 0.56736 0.0
O195 O 0.55917 0.15807 0.62426 0.0
O196 O 0.55836 0.10557 0.60885 0.0
O197 O 0.60704 0.18621 0.51096 0.0
O198 O 0.60446 0.13314 0.49449 0.0
C199 C 0.56349 0.13188 0.64549 0.0
H200 H 0.53062 0.98149 0.40693 0.0
H201 H 0.62087 0.03704 0.53903 0.0
H202 H 0.59527 0.29631 0.55679 0.0
H203 H 0.49591 0.23381 0.44717 0.0
C204 C 0.25755 0.46557 0.47003 0.0
N205 N 0.34758 0.53635 0.34902 0.0
C206 C 0.3526 0.56758 0.37822 0.0
C207 C 0.38605 0.60052 0.37169 0.0
C208 C 0.41417 0.60104 0.33472 0.0
C209 C 0.40864 0.56846 0.30637 0.0
C210 C 0.37498 0.53627 0.31421 0.0
Zn211 Zn 0.29804 0.48824 0.34874 0.0
C212 C 0.31258 0.42688 0.3771 0.0
N213 N 0.19302 0.38478 0.3323 0.0
C214 C 0.16477 0.3856 0.36322 0.0
C215 C 0.18545 0.35768 0.28849 0.0
C216 C 0.1488 0.33119 0.27328 0.0
C217 C 0.11935 0.33239 0.30312 0.0
C218 C 0.12791 0.35976 0.34945 0.0
Zn219 Zn 0.24607 0.43303 0.34065 0.0
O220 O 0.28863 0.49076 0.44913 0.0
C221 C 0.23747 0.49987 0.31878 0.0
O222 O 0.23655 0.4389 0.43411 0.0
H223 H 0.20771 0.35747 0.26292 0.0
H224 H 0.33045 0.56712 0.40529 0.0
H225 H 0.17054 0.40758 0.39649 0.0
O226 O 0.27144 0.51671 0.3309 0.0
O227 O 0.21963 0.46476 0.31606 0.0
H228 H 0.37052 0.5113 0.29101 0.0
O229 O 0.25588 0.42927 0.2455 0.0
O230 O 0.30384 0.48448 0.24854 0.0
O231 O 0.27782 0.4049 0.36971 0.0
O232 O 0.32573 0.46097 0.36839 0.0
C233 C 0.282 0.45622 0.21641 0.0
H234 H 0.38971 0.62547 0.39403 0.0
H235 H 0.42992 0.56815 0.27756 0.0
H236 H 0.14348 0.31061 0.23707 0.0
H237 H 0.1062 0.36189 0.3734 0.0
C238 C 0.56784 0.80105 0.47257 0.0
N239 N 0.4997 0.8239 0.35338 0.0
C240 C 0.46785 0.79815 0.38126 0.0
C241 C 0.43624 0.80105 0.37574 0.0
C242 C 0.43792 0.83077 0.34164 0.0
C243 C 0.47121 0.8575 0.31535 0.0
C244 C 0.50187 0.85335 0.32135 0.0
Zn245 Zn 0.54596 0.81984 0.35228 0.0
C246 C 0.60839 0.89555 0.38165 0.0
N247 N 0.64683 0.81537 0.33422 0.0
C248 C 0.64284 0.78398 0.36198 0.0
C249 C 0.6748 0.83458 0.29184 0.0
C250 C 0.69893 0.82171 0.2748 0.0
C251 C 0.69405 0.78838 0.30062 0.0
C252 C 0.66579 0.7699 0.34547 0.0
Zn253 Zn 0.60057 0.82285 0.34316 0.0
O254 O 0.54269 0.80704 0.45207 0.0
C255 C 0.53257 0.74758 0.31966 0.0
O256 O 0.59432 0.80674 0.43637 0.0
H257 H 0.67733 0.85885 0.26854 0.0
H258 H 0.46677 0.77498 0.40629 0.0
H259 H 0.62023 0.76818 0.39423 0.0
O260 O 0.5158 0.76471 0.33296 0.0
O261 O 0.56753 0.76484 0.31714 0.0
H262 H 0.52727 0.87336 0.29883 0.0
O263 O 0.60518 0.83737 0.24856 0.0
O264 O 0.55032 0.83052 0.25211 0.0
O265 O 0.63033 0.8828 0.37306 0.0
O266 O 0.57447 0.87457 0.37355 0.0
C267 C 0.57849 0.83706 0.21973 0.0
H268 H 0.41062 0.77997 0.39637 0.0
H269 H 0.47309 0.88058 0.28858 0.0
H270 H 0.72032 0.83684 0.23979 0.0
H271 H 0.6608 0.74407 0.36629 0.0
C272 C 0.23832 0.7825 0.46904 0.0
N273 N 0.22188 0.69061 0.35695 0.0
C274 C 0.24863 0.68551 0.38344 0.0
C275 C 0.24696 0.65133 0.3775 0.0
C276 C 0.21756 0.62265 0.34403 0.0
C277 C 0.1901 0.62836 0.31868 0.0
C278 C 0.19282 0.66262 0.32559 0.0
Zn279 Zn 0.22317 0.7403 0.353 0.0
C280 C 0.14589 0.72344 0.37432 0.0
N281 N 0.21992 0.84192 0.32258 0.0
C282 C 0.2488 0.87077 0.3529 0.0
C283 C 0.2001 0.84861 0.2781 0.0
C284 C 0.20976 0.88511 0.26177 0.0
C285 C 0.24043 0.91518 0.29066 0.0
C286 C 0.25962 0.90742 0.3374 0.0
Zn287 Zn 0.21654 0.78988 0.33444 0.0
O288 O 0.23538 0.75206 0.45113 0.0
C289 C 0.29371 0.80237 0.31932 0.0
O290 O 0.23005 0.80089 0.43078 0.0
H291 H 0.17786 0.82579 0.25299 0.0
H292 H 0.27164 0.70811 0.40757 0.0
H293 H 0.26508 0.86561 0.38695 0.0
O294 O 0.27858 0.76848 0.33355 0.0
O295 O 0.27455 0.81803 0.31407 0.0
H296 H 0.17199 0.66701 0.30379 0.0
O297 O 0.20555 0.77849 0.23669 0.0
O298 O 0.21265 0.73094 0.25435 0.0
O299 O 0.15639 0.75695 0.35827 0.0
O300 O 0.16879 0.71242 0.3745 0.0
C301 C 0.20721 0.75094 0.21553 0.0
H302 H 0.26869 0.64755 0.3973 0.0
H303 H 0.16725 0.60676 0.29236 0.0
H304 H 0.19425 0.88983 0.22521 0.0
H305 H 0.28351 0.9296 0.36056 0.0
C306 C 0.57244 0.74925 0.71896 0.0
N307 N 0.64701 0.84101 0.82325 0.0
C308 C 0.67374 0.84745 0.77951 0.0
C309 C 0.69793 0.88357 0.75711 0.0
C310 C 0.69412 0.91353 0.77812 0.0
C311 C 0.66694 0.90606 0.82428 0.0
C312 C 0.64432 0.86997 0.84696 0.0
Zn313 Zn 0.5999 0.78797 0.83937 0.0
C314 C 0.5329 0.79726 0.82086 0.0
N315 N 0.49669 0.68752 0.85826 0.0
C316 C 0.49724 0.65938 0.82636 0.0
C317 C 0.46518 0.68304 0.88494 0.0
C318 C 0.43236 0.64951 0.87806 0.0
C319 C 0.43239 0.62077 0.84356 0.0
C320 C 0.46528 0.6256 0.81861 0.0
Zn321 Zn 0.54421 0.73736 0.85351 0.0
O322 O 0.60024 0.77596 0.74494 0.0
C323 C 0.60595 0.72212 0.8763 0.0
O324 O 0.54516 0.72848 0.75383 0.0
H325 H 0.46525 0.70581 0.90949 0.0
H326 H 0.67523 0.82446 0.75931 0.0
H327 H 0.52228 0.66345 0.80441 0.0
O328 O 0.62873 0.75634 0.86434 0.0
O329 O 0.57198 0.71052 0.87345 0.0
H330 H 0.62288 0.86494 0.88079 0.0
O331 O 0.54433 0.74924 0.95253 0.0
O332 O 0.59746 0.79975 0.9343 0.0
O333 O 0.51531 0.76345 0.83524 0.0
O334 O 0.56776 0.81403 0.81666 0.0
C335 C 0.57096 0.77996 0.97173 0.0
H336 H 0.71846 0.88785 0.72157 0.0
H337 H 0.66269 0.92796 0.84188 0.0
H338 H 0.4071 0.64633 0.89773 0.0
H339 H 0.46596 0.60386 0.79165 0.0
C340 C 0.29011 0.84143 0.71351 0.0
N341 N 0.1962 0.8175 0.81748 0.0
C342 C 0.1816 0.79689 0.76332 0.0
C343 C 0.14488 0.78291 0.7465 0.0
C344 C 0.12219 0.7912 0.78342 0.0
C345 C 0.13778 0.8135 0.83825 0.0
C346 C 0.17483 0.82591 0.85511 0.0
Zn347 Zn 0.24898 0.82441 0.83759 0.0
C348 C 0.23965 0.74758 0.80288 0.0
N349 N 0.3469 0.81867 0.84864 0.0
C350 C 0.37617 0.84984 0.82468 0.0
C351 C 0.35057 0.79001 0.87025 0.0
C352 C 0.38459 0.79169 0.86597 0.0
C353 C 0.41457 0.82306 0.83911 0.0
C354 C 0.41036 0.85255 0.81921 0.0
Zn355 Zn 0.29754 0.81646 0.8395 0.0
O356 O 0.2623 0.83862 0.74214 0.0
C357 C 0.31201 0.89271 0.88159 0.0
O358 O 0.3125 0.83589 0.74536 0.0
H359 H 0.3269 0.76542 0.88852 0.0
H360 H 0.19798 0.78966 0.73346 0.0
H361 H 0.3728 0.87226 0.8071 0.0
O362 O 0.27905 0.88364 0.86515 0.0
O363 O 0.32256 0.86943 0.87615 0.0
H364 H 0.18606 0.84141 0.8988 0.0
O365 O 0.2784 0.79357 0.9322 0.0
O366 O 0.23648 0.81023 0.93267 0.0
O367 O 0.27428 0.76405 0.80514 0.0
O368 O 0.22338 0.76558 0.81496 0.0
C369 C 0.2519 0.79446 0.9603 0.0
H370 H 0.13428 0.76581 0.70414 0.0
H371 H 0.12128 0.82065 0.86829 0.0
H372 H 0.38725 0.76841 0.88132 0.0
H373 H 0.43304 0.87694 0.798 0.0
C374 C 0.19987 0.46195 0.71518 0.0
N375 N 0.21763 0.38809 0.8217 0.0
C376 C 0.19748 0.36093 0.77842 0.0
C377 C 0.20943 0.33657 0.75741 0.0
C378 C 0.24302 0.34062 0.77954 0.0
C379 C 0.2625 0.36813 0.82536 0.0
C380 C 0.2491 0.39102 0.84644 0.0
Zn381 Zn 0.21134 0.43505 0.83652 0.0
C382 C 0.28683 0.50289 0.81885 0.0
N383 N 0.21241 0.53781 0.8538 0.0
C384 C 0.18353 0.53696 0.82232 0.0
C385 C 0.24007 0.56985 0.8782 0.0
C386 C 0.23991 0.60291 0.86898 0.0
C387 C 0.21093 0.60252 0.83485 0.0
C388 C 0.18211 0.56909 0.81273 0.0
Zn389 Zn 0.2147 0.49011 0.84977 0.0
O390 O 0.1988 0.43423 0.7419 0.0
C391 C 0.13838 0.42728 0.87284 0.0
O392 O 0.20563 0.48921 0.74963 0.0
H393 H 0.26297 0.57005 0.90233 0.0
H394 H 0.17312 0.35923 0.7575 0.0
H395 H 0.16222 0.51158 0.80166 0.0
O396 O 0.15108 0.40538 0.86269 0.0
O397 O 0.15963 0.46157 0.86845 0.0
H398 H 0.26542 0.41282 0.87986 0.0
O399 O 0.22601 0.48979 0.94979 0.0
O400 O 0.22584 0.43789 0.93069 0.0
O401 O 0.26988 0.5197 0.83295 0.0
O402 O 0.26943 0.46793 0.81389 0.0
C403 C 0.23144 0.46383 0.96858 0.0
H404 H 0.1934 0.31577 0.72201 0.0
H405 H 0.28852 0.37254 0.8437 0.0
H406 H 0.26259 0.62857 0.88643 0.0
H407 H 0.15956 0.56814 0.7859 0.0
C408 C 0.92547 0.79657 0.81068 0.0
N409 N 1.01387 0.87006 0.69056 0.0
C410 C 0.01932 0.90118 0.72074 0.0
C411 C 0.05319 0.93382 0.71548 0.0
C412 C 0.08138 0.9341 0.67899 0.0
C413 C 0.07544 0.90156 0.64991 0.0
C414 C 0.0413 0.86975 0.65613 0.0
Zn415 Zn 0.96399 0.8221 0.68916 0.0
C416 C 0.97962 0.76049 0.70885 0.0
N417 N 0.85946 0.71817 0.67054 0.0
C418 C 0.8323 0.7185 0.7061 0.0
C419 C 0.85025 0.69262 0.62299 0.0
C420 C 0.81303 0.66722 0.60903 0.0
C421 C 0.78469 0.66807 0.64374 0.0
C422 C 0.79499 0.69392 0.69344 0.0
Zn423 Zn 0.91288 0.76606 0.67899 0.0
O424 O 0.95534 0.82334 0.78927 0.0
C425 C 0.90289 0.83272 0.6654 0.0
O426 O 0.90531 0.76943 0.77482 0.0
H427 H 0.87159 0.69292 0.59365 0.0
H428 H 0.99718 0.90091 0.7476 0.0
H429 H 0.83926 0.73927 0.74245 0.0
O430 O 0.9372 0.85044 0.67452 0.0
O431 O 0.88582 0.79767 0.66226 0.0
H432 H 0.03653 0.84494 0.63193 0.0
O433 O 0.92103 0.7653 0.58212 0.0
O434 O 0.96963 0.81996 0.58844 0.0
O435 O 0.94533 0.73757 0.69893 0.0
O436 O 0.99121 0.79459 0.70581 0.0
C437 C 0.9473 0.79289 0.55447 0.0
H438 H 0.05712 0.95875 0.7383 0.0
H439 H 0.09668 0.90106 0.6213 0.0
H440 H 0.80642 0.64781 0.57013 0.0
H441 H 0.77422 0.69577 0.72126 0.0
C442 C 0.24183 0.14585 0.79587 0.0
N443 N 0.16565 0.15556 0.67977 0.0
C444 C 0.16398 0.18035 0.71978 0.0
C445 C 0.13304 0.18443 0.7201 0.0
C446 C 0.10357 0.16228 0.67964 0.0
C447 C 0.10588 0.13703 0.63885 0.0
C448 C 0.13748 0.13415 0.63952 0.0
Zn449 Zn 0.21282 0.15362 0.67449 0.0
C450 C 0.27431 0.23203 0.68254 0.0
N451 N 0.31407 0.15165 0.65174 0.0
C452 C 0.31097 0.12103 0.68116 0.0
C453 C 0.34148 0.17051 0.6083 0.0
C454 C 0.3661 0.15809 0.5921 0.0
C455 C 0.36202 0.12539 0.61943 0.0
C456 C 0.33409 0.10716 0.66497 0.0
Zn457 Zn 0.26746 0.15815 0.66211 0.0
O458 O 0.21671 0.15198 0.77599 0.0
C459 C 0.19994 0.08035 0.66014 0.0
O460 O 0.26634 0.14832 0.75775 0.0
H461 H 0.34326 0.19414 0.58381 0.0
H462 H 0.18678 0.19718 0.7512 0.0
H463 H 0.28895 0.10571 0.71481 0.0
O464 O 0.18345 0.09747 0.67495 0.0
O465 O 0.23427 0.09819 0.64858 0.0
H466 H 0.13956 0.1149 0.60774 0.0
O467 O 0.26738 0.16635 0.56389 0.0
O468 O 0.20962 0.15177 0.57325 0.0
O469 O 0.29652 0.21924 0.68076 0.0
O470 O 0.24043 0.21016 0.67514 0.0
C471 C 0.23657 0.15691 0.53845 0.0
H472 H 0.13165 0.20388 0.75252 0.0
H473 H 0.08325 0.11938 0.60759 0.0
H474 H 0.38724 0.17306 0.55661 0.0
H475 H 0.32969 0.08182 0.68702 0.0
C476 C 0.88715 0.11234 0.79361 0.0
N477 N 0.87992 0.01833 0.70036 0.0
C478 C 0.9055 0.01412 0.73355 0.0
C479 C 0.90436 0.98009 0.73274 0.0
C480 C 0.87657 0.95074 0.69778 0.0
C481 C 0.84963 0.95524 0.66724 0.0
C482 C 0.85202 0.98941 0.66854 0.0
Zn483 Zn 0.88304 0.0678 0.68184 0.0
C484 C 0.80468 0.05164 0.68066 0.0
N485 N 0.8832 0.16906 0.6285 0.0
C486 C 0.90653 0.1995 0.66292 0.0
C487 C 0.87056 0.17346 0.57096 0.0
C488 C 0.8805 0.20886 0.54743 0.0
C489 C 0.90213 0.24122 0.5844 0.0
C490 C 0.91692 0.2352 0.64124 0.0
Zn491 Zn 0.87851 0.11779 0.65602 0.0
O492 O 0.88846 0.08362 0.77789 0.0
C493 C 0.95597 0.12887 0.66735 0.0
O494 O 0.88017 0.1303 0.75229 0.0
H495 H 0.85429 0.14963 0.54115 0.0
H496 H 0.92773 0.03749 0.75763 0.0
H497 H 0.91887 0.19649 0.7061 0.0
O498 O 0.93873 0.09436 0.6764 0.0
O499 O 0.93827 0.14581 0.65709 0.0
H500 H 0.83259 0.99311 0.6402 0.0
O501 O 0.87949 0.10489 0.5595 0.0
O502 O 0.88066 0.05462 0.5851 0.0
O503 O 0.81647 0.08485 0.66106 0.0
O504 O 0.82737 0.04102 0.691 0.0
C505 C 0.88178 0.07695 0.54323 0.0
H506 H 0.92579 0.97719 0.75619 0.0
H507 H 0.82826 0.93314 0.63921 0.0
H508 H 0.87244 0.2096 0.49885 0.0
H509 H 0.93779 0.25787 0.66865 0.0
C510 C 0.24513 0.08758 0.03505 0.0
N511 N 0.30677 0.17403 0.15998 0.0
C512 C 0.33622 0.18182 0.12198 0.0
C513 C 0.3618 0.21852 0.10508 0.0
C514 C 0.35702 0.24772 0.12663 0.0
C515 C 0.32734 0.239 0.1678 0.0
C516 C 0.30285 0.20212 0.18438 0.0
Zn517 Zn 0.25909 0.12099 0.16206 0.0
C518 C 0.19495 0.13073 0.11799 0.0
N519 N 0.1565 0.01984 0.15054 0.0
C520 C 0.15816 0.99212 0.11934 0.0
C521 C 0.12452 0.01464 0.17621 0.0
C522 C 0.09252 0.9804 0.17093 0.0
C523 C 0.09372 0.95164 0.13883 0.0
C524 C 0.12684 0.95759 0.11273 0.0
Zn525 Zn 0.20378 0.06938 0.1569 0.0
O526 O 0.26931 0.11322 0.06915 0.0
C527 C 0.26317 0.05447 0.20266 0.0
O528 O 0.21492 0.06454 0.06079 0.0
H529 H 0.12385 0.03705 0.20067 0.0
H530 H 0.33883 0.15953 0.10153 0.0
H531 H 0.18387 0.99675 0.09948 0.0
O532 O 0.28547 0.08938 0.1978 0.0
O533 O 0.22987 0.04145 0.18744 0.0
H534 H 0.27919 0.19588 0.21348 0.0
O535 O 0.19328 0.0769 0.25286 0.0
O536 O 0.24723 0.12812 0.25523 0.0
O537 O 0.1768 0.09628 0.12726 0.0
O538 O 0.22949 0.14797 0.12749 0.0
C539 C 0.21721 0.10551 0.2822 0.0
H540 H 0.3843 0.22394 0.07326 0.0
H541 H 0.32249 0.2605 0.18549 0.0
H542 H 0.06711 0.97636 0.19146 0.0
H543 H 0.12841 0.93575 0.08778 0.0
C544 C 0.93008 0.16328 0.04983 0.0
N545 N 0.85583 0.14365 0.19046 0.0
C546 C 0.84717 0.16605 0.15605 0.0
C547 C 0.81053 0.15401 0.13809 0.0
C548 C 0.7823 0.11848 0.15522 0.0
C549 C 0.79161 0.09717 0.19471 0.0
C550 C 0.82843 0.11042 0.21228 0.0
Zn551 Zn 0.90875 0.14899 0.18286 0.0
C552 C 0.8957 0.07314 0.13328 0.0
N553 N 1.00689 0.14515 0.14532 0.0
C554 C 0.03216 0.17449 0.11053 0.0
C555 C 1.01419 0.11887 0.16732 0.0
C556 C 0.04817 0.12171 0.15469 0.0
C557 C 0.0746 0.15188 0.11942 0.0
C558 C 0.06643 0.17845 0.09702 0.0
Zn559 Zn 0.95797 0.14272 0.16361 0.0
O560 O 0.9111 0.16811 0.09117 0.0
C561 C 0.97712 0.21828 0.21595 0.0
O562 O 0.95477 0.15609 0.06736 0.0
H563 H 0.99372 0.0958 0.19478 0.0
H564 H 0.86888 0.192 0.13764 0.0
H565 H 0.02581 0.19508 0.09345 0.0
O566 O 0.94242 0.20652 0.21939 0.0
O567 O 0.988 0.19756 0.19258 0.0
H568 H 0.83534 0.09245 0.23851 0.0
O569 O 0.95602 0.12491 0.25944 0.0
O570 O 0.90626 0.12935 0.27346 0.0
O571 O 0.93029 0.08898 0.13631 0.0
O572 O 0.87985 0.09123 0.14863 0.0
C573 C 0.92906 0.12028 0.29411 0.0
H574 H 0.8046 0.17142 0.10775 0.0
H575 H 0.77084 0.06967 0.20909 0.0
H576 H 0.0539 0.10078 0.1725 0.0
H577 H 0.08638 0.20198 0.06963 0.0
C578 C 0.86088 0.78625 0.05144 0.0
N579 N 0.88266 0.71787 0.16529 0.0
C580 C 0.86366 0.69028 0.12205 0.0
C581 C 0.87676 0.66651 0.10316 0.0
C582 C 0.91001 0.67119 0.1282 0.0
C583 C 0.92819 0.69887 0.1743 0.0
C584 C 0.91402 0.72165 0.19235 0.0
Zn585 Zn 0.87507 0.76449 0.17475 0.0
C586 C 0.94958 0.83208 0.14733 0.0
N587 N 0.87468 0.8672 0.18128 0.0
C588 C 0.84527 0.86441 0.14848 0.0
C589 C 0.90105 0.90019 0.20506 0.0
C590 C 0.89881 0.9321 0.1944 0.0
C591 C 0.86917 0.92975 0.15925 0.0
C592 C 0.84194 0.8954 0.13703 0.0
Zn593 Zn 0.87851 0.81996 0.18294 0.0
O594 O 0.85958 0.7592 0.08105 0.0
C595 C 0.80306 0.75712 0.21348 0.0
O596 O 0.86792 0.81487 0.08312 0.0
H597 H 0.92439 0.90199 0.23028 0.0
H598 H 0.83944 0.68787 0.09923 0.0
H599 H 0.82484 0.83824 0.12876 0.0
O600 O 0.8159 0.73513 0.20605 0.0
O601 O 0.82381 0.7912 0.20452 0.0
H602 H 0.92978 0.74412 0.22503 0.0
O603 O 0.89148 0.82354 0.28305 0.0
O604 O 0.89213 0.77171 0.26803 0.0
O605 O 0.93339 0.84955 0.16246 0.0
O606 O 0.93202 0.797 0.14605 0.0
C607 C 0.89751 0.79832 0.30401 0.0
H608 H 0.86184 0.64563 0.06724 0.0
H609 H 0.95396 0.70373 0.19462 0.0
H610 H 0.92048 0.95848 0.21159 0.0
H611 H 0.81901 0.89282 0.10914 0.0
C612 C 0.56731 0.21662 0.95061 0.0
C613 C 0.55512 0.18856 -0.00238 0.0
C614 C 0.5328 0.22164 0.06409 0.0
C615 C 0.55044 0.25228 0.02201 0.0
N616 N 0.58455 0.27978 0.92497 0.0
N617 N 0.52596 0.16324 0.09915 0.0
C618 C 0.56735 0.24985 0.96469 0.0
C619 C 0.53702 0.19035 0.05381 0.0
N620 N 0.57896 0.21115 0.89263 0.0
N621 N 0.51202 0.22252 0.1137 0.0
H622 H 0.52743 0.1394 0.09225 0.0
H623 H 0.51693 0.165 0.14475 0.0
H624 H 0.50943 0.24551 0.12383 0.0
H625 H 0.4953 0.19977 0.14215 0.0
H626 H 0.58565 0.22899 0.85376 0.0
H627 H 0.57871 0.18669 0.88169 0.0
H628 H 0.60072 0.28125 0.8861 0.0
H629 H 0.58456 0.30437 0.93299 0.0
C630 C 0.78094 0.32625 0.04092 0.0
C631 C 0.78178 0.29953 0.00092 0.0
C632 C 0.83877 0.34722 0.95048 0.0
C633 C 0.83808 0.37376 -0.00823 0.0
N634 N 0.81519 0.38551 0.09014 0.0
N635 N 0.81353 0.28214 0.92521 0.0
C636 C 0.8112 0.36229 0.04115 0.0
C637 C 0.81153 0.30924 0.95816 0.0
N638 N 0.75048 0.31774 0.07697 0.0
N639 N 0.86429 0.35843 0.90263 0.0
H640 H 0.79362 0.25434 0.92963 0.0
H641 H 0.83592 0.28668 0.89731 0.0
H642 H 0.88456 0.3859 0.89623 0.0
H643 H 0.86434 0.341 0.86721 0.0
H644 H 0.74658 0.33762 0.09987 0.0
H645 H 0.7276 0.29137 0.08 0.0
H646 H 0.79892 0.37723 0.13124 0.0
H647 H 0.8374 0.41188 0.0933 0.0
C648 C 0.68135 0.4925 0.94196 0.0
C649 C 0.66371 0.48744 0.00133 0.0
C650 C 0.7209 0.50538 0.05804 0.0
C651 C 0.73582 0.5014 -0.00048 0.0
N652 N 0.73089 0.49211 0.88444 0.0
N653 N 0.6694 0.50539 0.11124 0.0
C654 C 0.71675 0.49635 0.94066 0.0
C655 C 0.68439 0.49892 0.05837 0.0
N656 N 0.6648 0.495 0.88748 0.0
N657 N 0.74118 0.51384 0.11311 0.0
H658 H 0.64328 0.50257 0.11 0.0
H659 H 0.68353 0.51652 0.15379 0.0
H660 H 0.76879 0.52098 0.1133 0.0
H661 H 0.73077 0.51323 0.15859 0.0
H662 H 0.67865 0.50401 0.84399 0.0
H663 H 0.6388 0.49246 0.88804 0.0
H664 H 0.71603 0.48423 0.84176 0.0
H665 H 0.75647 0.49393 0.88108 0.0
C666 C 0.81067 0.51079 0.55753 0.0
C667 C 0.78337 0.49621 0.50914 0.0
C668 C 0.81439 0.46787 0.456 0.0
C669 C 0.84208 0.48196 0.50465 0.0
N670 N 0.87109 0.5237 0.59281 0.0
N671 N 0.7661 0.47268 0.40188 0.0
C672 C 0.84195 0.50614 0.55212 0.0
C673 C 0.78782 0.47903 0.45464 0.0
N674 N 0.80584 0.5276 0.60967 0.0
N675 N 0.81145 0.44162 0.41364 0.0
H676 H 0.74561 0.47979 0.3997 0.0
H677 H 0.77093 0.46389 0.35813 0.0
H678 H 0.82982 0.43195 0.41121 0.0
H679 H 0.78882 0.42705 0.38374 0.0
H680 H 0.8225 0.53522 0.6502 0.0
H681 H 0.7838 0.53236 0.61353 0.0
H682 H 0.87401 0.54372 0.62552 0.0
H683 H 0.89401 0.52047 0.58974 0.0
C684 C 0.52205 0.3136 0.51703 0.0
C685 C 0.54489 0.30339 0.4832 0.0
C686 C 0.56975 0.35996 0.41914 0.0
C687 C 0.55051 0.37203 0.45897 0.0
N688 N 0.49518 0.3531 0.51921 0.0
N689 N 0.58274 0.31124 0.39098 0.0
C690 C 0.5223 0.34652 0.49953 0.0
C691 C 0.56614 0.32473 0.43019 0.0
N692 N 0.50122 0.29264 0.5673 0.0
N693 N 0.59212 0.38303 0.37215 0.0
H694 H 0.58078 0.28567 0.39833 0.0
H695 H 0.5968 0.32414 0.34921 0.0
H696 H 0.59247 0.40752 0.3607 0.0
H697 H 0.61011 0.37839 0.3449 0.0
H698 H 0.4873 0.301 0.59814 0.0
H699 H 0.49989 0.26801 0.5809 0.0
H700 H 0.47243 0.33424 0.54557 0.0
H701 H 0.49303 0.3753 0.5019 0.0
C702 C 0.68097 0.19489 0.56001 0.0
C703 C 0.6634 0.18779 0.49973 0.0
C704 C 0.72063 0.23465 0.45113 0.0
C705 C 0.73491 0.24778 0.51346 0.0
N706 N 0.72706 0.24125 0.6287 0.0
N707 N 0.66596 0.19908 0.38639 0.0
C708 C 0.7151 0.22769 0.5685 0.0
C709 C 0.68326 0.20675 0.44447 0.0
N710 N 0.66457 0.17062 0.60929 0.0
N711 N 0.74287 0.24892 0.39876 0.0
H712 H 0.63901 0.17759 0.3802 0.0
H713 H 0.6777 0.21488 0.34539 0.0
H714 H 0.77063 0.26877 0.40269 0.0
H715 H 0.73482 0.23859 0.35256 0.0
H716 H 0.67763 0.17267 0.65284 0.0
H717 H 0.63942 0.14637 0.60384 0.0
H718 H 0.71136 0.22951 0.66973 0.0
H719 H 0.75115 0.26596 0.63761 0.0
C720 C 0.2321 0.58267 0.27505 0.0
C721 C 0.21623 0.58715 0.33198 0.0
C722 C 0.20166 0.52577 0.3692 0.0
C723 C 0.21966 0.52244 0.3143 0.0
N724 N 0.24268 0.54143 0.20776 0.0
N725 N 0.17818 0.56051 0.42534 0.0
C726 C 0.23155 0.54888 0.26457 0.0
C727 C 0.19828 0.55773 0.3764 0.0
N728 N 0.24896 0.61125 0.23252 0.0
N729 N 0.18996 0.4995 0.41617 0.0
H730 H 0.17608 0.58401 0.43291 0.0
H731 H 0.16152 0.53881 0.4558 0.0
H732 H 0.19066 0.47511 0.41102 0.0
H733 H 0.18087 0.50226 0.46109 0.0
H734 H 0.26438 0.61126 0.19354 0.0
H735 H 0.24923 0.63615 0.23796 0.0
H736 H 0.24934 0.55806 0.16719 0.0
H737 H 0.24206 0.5165 0.19976 0.0
C738 C 0.50781 0.68453 0.36593 0.0
C739 C 0.51039 0.70718 0.31318 0.0
C740 C 0.45253 0.65802 0.26938 0.0
C741 C 0.44899 0.63602 0.32377 0.0
N742 N 0.47665 0.62367 0.41463 0.0
N743 N 0.49167 0.71327 0.20732 0.0
C744 C 0.47792 0.64774 0.36892 0.0
C745 C 0.48483 0.69296 0.26221 0.0
N746 N 0.5325 0.69898 0.41512 0.0
N747 N 0.42434 0.64615 0.22626 0.0
H748 H 0.51547 0.73884 0.20145 0.0
H749 H 0.4758 0.70369 0.16595 0.0
H750 H 0.40067 0.6203 0.22915 0.0
H751 H 0.42337 0.66247 0.18948 0.0
H752 H 0.52954 0.68563 0.4587 0.0
H753 H 0.55529 0.72543 0.41373 0.0
H754 H 0.49844 0.62922 0.44509 0.0
H755 H 0.45471 0.59677 0.41878 0.0
C756 C 0.38539 0.81941 0.27063 0.0
C757 C 0.40424 0.83263 0.32975 0.0
C758 C 0.35449 0.84125 0.37081 0.0
C759 C 0.33399 0.82333 0.3153 0.0
N760 N 0.33369 0.80921 0.20443 0.0
N761 N 0.41014 0.86047 0.43327 0.0
C762 C 0.35079 0.81693 0.26253 0.0
C763 C 0.39009 0.8456 0.37867 0.0
N764 N 0.39927 0.80675 0.2242 0.0
N765 N 0.33963 0.85389 0.41534 0.0
H766 H 0.43676 0.86503 0.43901 0.0
H767 H 0.40068 0.86791 0.47336 0.0
H768 H 0.31371 0.85106 0.40953 0.0
H769 H 0.35317 0.86868 0.45613 0.0
H770 H 0.3846 0.79264 0.18357 0.0
H771 H 0.42474 0.80829 0.2279 0.0
H772 H 0.34686 0.80947 0.16211 0.0
H773 H 0.3081 0.80725 0.19815 0.0
C774 C 0.4859 0.8047 0.76333 0.0
C775 C 0.5118 0.81637 0.81365 0.0
C776 C 0.47896 0.84183 0.87172 0.0
C777 C 0.4497 0.82405 0.82722 0.0
N778 N 0.42552 0.79145 0.7277 0.0
N779 N 0.53642 0.84915 0.91247 0.0
C780 C 0.45348 0.80681 0.77145 0.0
C781 C 0.50986 0.83677 0.86615 0.0
N782 N 0.4926 0.79133 0.70831 0.0
N783 N 0.47677 0.86297 0.91952 0.0
H784 H 0.55986 0.84679 0.90848 0.0
H785 H 0.53499 0.86067 0.95574 0.0
H786 H 0.45385 0.86602 0.92623 0.0
H787 H 0.4983 0.87935 0.95031 0.0
H788 H 0.47628 0.78425 0.66744 0.0
H789 H 0.51667 0.79019 0.70196 0.0
H790 H 0.42472 0.7752 0.68941 0.0
H791 H 0.40203 0.79385 0.73085 0.0
C792 C 0.19397 0.65078 0.85883 0.0
C793 C 0.21168 0.63729 0.81837 0.0
C794 C 0.23447 0.69205 0.75011 0.0
C795 C 0.21978 0.70697 0.79427 0.0
N796 N 0.17237 0.69429 0.87168 0.0
N797 N 0.24085 0.63983 0.71742 0.0
C798 C 0.19513 0.68428 0.84256 0.0
C799 C 0.2292 0.65618 0.76096 0.0
N800 N 0.17712 0.63221 0.91381 0.0
N801 N 0.25443 0.71308 0.69914 0.0
H802 H 0.23816 0.61395 0.72477 0.0
H803 H 0.25125 0.65068 0.67236 0.0
H804 H 0.25593 0.73815 0.68805 0.0
H805 H 0.26969 0.70631 0.66859 0.0
H806 H 0.16757 0.64291 0.94906 0.0
H807 H 0.17486 0.60703 0.92635 0.0
H808 H 0.15226 0.67779 0.90477 0.0
H809 H 0.16998 0.71662 0.85609 0.0
C810 C 0.34842 0.52645 0.86788 0.0
C811 C 0.32707 0.52492 0.81422 0.0
C812 C 0.37751 0.58329 0.77377 0.0
C813 C 0.39765 0.58624 0.83043 0.0
N814 N 0.40403 0.55786 0.92765 0.0
N815 N 0.32298 0.54576 0.70903 0.0
C816 C 0.38405 0.55695 0.87549 0.0
C817 C 0.3424 0.55143 0.76459 0.0
N818 N 0.33427 0.49944 0.91356 0.0
N819 N 0.39132 0.61168 0.73049 0.0
H820 H 0.29745 0.52216 0.70174 0.0
H821 H 0.33293 0.56246 0.66861 0.0
H822 H 0.41726 0.63501 0.73509 0.0
H823 H 0.37678 0.61312 0.69129 0.0
H824 H 0.34895 0.50017 0.95448 0.0
H825 H 0.30812 0.47636 0.91026 0.0
H826 H 0.43059 0.57921 0.93747 0.0
H827 H 0.43059 0.57921 0.93747 0.0
C828 C 0.85943 0.88595 0.72634 0.0
C829 C 0.87794 0.91682 0.68504 0.0
C830 C 0.89625 0.88197 0.61526 0.0
C831 C 0.88399 0.85417 0.66253 0.0
N832 N 0.85146 0.82697 0.76075 0.0
N833 N 0.91361 0.945 0.58947 0.0
C834 C 0.86404 0.85489 0.71677 0.0
C835 C 0.89582 0.91488 0.62866 0.0
N836 N 0.83765 0.88652 0.77446 0.0
N837 N 0.90861 0.8766 0.55794 0.0
H838 H 0.91352 0.96957 0.59707 0.0
H839 H 0.93043 0.94663 0.55154 0.0
H840 H 0.90868 0.85222 0.5477 0.0
H841 H 0.91544 0.89435 0.51889 0.0
H842 H 0.82064 0.86374 0.80259 0.0
H843 H 0.83471 0.90939 0.78374 0.0
H844 H 0.84051 0.82764 0.8051 0.0
H845 H 0.85323 0.80328 0.75384 0.0
C846 C 0.15289 0.02511 0.60503 0.0
C847 C 0.17786 0.03986 0.65626 0.0
C848 C 0.14472 0.98153 0.71483 0.0
C849 C 0.11639 0.96897 0.66809 0.0
N850 N 0.09296 0.97739 0.56757 0.0
N851 N 0.20054 0.03318 0.75813 0.0
C852 C 0.12062 0.99006 0.61194 0.0
C853 C 0.17507 0.0181 0.71025 0.0
N854 N 0.16101 0.04604 0.55089 0.0
N855 N 0.14237 0.95841 0.7633 0.0
H856 H 0.22366 0.05939 0.75433 0.0
H857 H 0.19851 0.02053 0.80207 0.0
H858 H 0.12025 0.93163 0.76798 0.0
H859 H 0.16318 0.96456 0.79638 0.0
H860 H 0.14602 0.03775 0.50836 0.0
H861 H 0.14602 0.03775 0.50836 0.0
H862 H 0.09222 0.99287 0.52917 0.0
H863 H 0.06929 0.95159 0.5708 0.0
C864 C 1.00899 0.13989 0.73424 0.0
C865 C 0.99611 0.14845 0.67751 0.0
C866 C 0.05834 0.1784 0.63335 0.0
C867 C 0.06869 0.16264 0.68379 0.0
N868 N 0.05376 0.12696 0.78161 0.0
N869 N 1.00839 0.17819 0.57415 0.0
C870 C 0.04428 0.14365 0.73484 0.0
C871 C 0.02091 0.16917 0.62779 0.0
N872 N 0.98718 0.12787 0.7875 0.0
N873 N 0.08433 0.20185 0.59093 0.0
H874 H 0.98137 0.17244 0.56916 0.0
H875 H 0.02423 0.18994 0.53335 0.0
H876 H 0.11184 0.20881 0.59426 0.0
H877 H 0.0795 0.21671 0.55603 0.0
H878 H 0.99638 0.12485 0.83228 0.0
H879 H 0.96093 0.1245 0.78838 0.0
H880 H 0.0352 0.10875 0.81518 0.0
H881 H 0.07946 0.12898 0.78437 0.0
C882 C 0.17398 0.17591 0.14055 0.0
C883 C 0.17424 0.14938 0.09908 0.0
C884 C 0.11503 0.13636 0.05417 0.0
C885 C 0.11095 0.15557 0.10653 0.0
N886 N 0.13668 0.19548 0.19826 0.0
N887 N 0.15013 0.11053 0.00658 0.0
C888 C 0.14076 0.17653 0.14866 0.0
C889 C 0.14652 0.13209 0.05184 0.0
N890 N 0.20536 0.20051 0.17149 0.0
N891 N 0.0886 0.122 0.00765 0.0
H892 H 0.17427 0.10936 0.00205 0.0
H893 H 0.12967 0.0938 0.97432 0.0
H894 H 0.06521 0.12466 0.00877 0.0
H895 H 0.09069 0.10959 0.96597 0.0
H896 H 0.20756 0.22224 0.19901 0.0
H897 H 0.23041 0.20186 0.16327 0.0
H898 H 0.15577 0.20748 0.23512 0.0
H899 H 0.11307 0.19738 0.20468 0.0
C900 C 0.8898 0.98493 0.08773 0.0
C901 C 0.86822 0.96353 0.14047 0.0
C902 C 0.84732 1.00795 0.15862 0.0
C903 C 0.87569 0.03304 0.11798 0.0
N904 N 0.91312 0.04193 0.02596 0.0
N905 N 0.82433 0.95293 0.22413 0.0
C906 C 0.8932 0.02004 0.07616 0.0
C907 C 0.84574 0.97415 0.1746 0.0
N908 N 0.90768 0.97201 0.05044 0.0
N909 N 0.82134 0.01586 0.1797 0.0
H910 H 0.82208 0.92773 0.23655 0.0
H911 H 0.81064 0.96138 0.2553 0.0
H912 H 0.8205 0.03901 0.16367 0.0
H913 H 0.79837 0.9975 0.2061 0.0
H914 H 0.9253 0.98659 0.01298 0.0
H915 H 0.90479 0.94597 0.05684 0.0
H916 H 0.92702 0.03514 -0.00759 0.0
H917 H 0.91389 0.0668 0.01615 0.0
C918 C 0.0363 0.90817 0.07959 0.0
C919 C 0.06 0.91528 0.13278 0.0
C920 C 1.01384 0.85904 0.1862 0.0
C921 C 0.98929 0.85351 0.13525 0.0
N922 N 0.97888 0.86532 0.0269 0.0
N923 N 0.07603 0.8936 0.22776 0.0
C924 C 1.00133 0.87561 0.07942 0.0
C925 C 0.05034 0.8892 0.18304 0.0
N926 N 0.04665 0.93339 0.03098 0.0
N927 N 1.00145 0.83687 0.23922 0.0
H928 H 0.10284 0.91583 0.22712 0.0
H929 H 0.07184 0.87395 0.26239 0.0
H930 H 0.97526 0.81373 0.24181 0.0
H931 H 1.01634 0.84209 0.28158 0.0
H932 H 0.02924 0.93194 -0.00581 0.0
H933 H 0.07258 0.95695 0.02878 0.0
H934 H 0.98658 0.87854 0.98265 0.0
H935 H 0.95329 0.84122 0.02633 0.0
C936 C 0.56276 0.16419 0.28667 0.0
C937 C 0.54169 0.12992 0.31888 0.0
C938 C 0.55925 0.09898 0.24111 0.0
C939 C 0.58128 0.13278 0.20844 0.0
N940 N 0.5953 0.19578 0.19 0.0
N941 N 0.50496 0.06436 0.30546 0.0
C942 C 0.58089 0.16516 0.22835 0.0
C943 C 0.53471 0.09718 0.28828 0.0
N944 N 0.5648 0.19546 0.31067 0.0
N945 N 0.56243 0.06873 0.22839 0.0
H946 H 0.48577 0.06306 0.33873 0.0
H947 H 0.49748 0.03974 0.28158 0.0
H948 H 0.58163 0.06947 0.19609 0.0
H949 H 0.54888 0.04443 0.25504 0.0
H950 H 0.58455 0.22192 0.29642 0.0
H951 H 0.54586 0.19472 0.3437 0.0
H952 H 0.59201 0.21842 0.19877 0.0
H953 H 0.60786 0.19771 0.14613 0.0
C954 C 0.88592 0.46474 0.30045 0.0
C955 C 0.88645 0.43147 0.3128 0.0
C956 C 0.89106 0.42291 0.19898 0.0
C957 C 0.89226 0.45712 0.1876 0.0
N958 N 0.88167 0.50575 0.22409 0.0
N959 N 0.88093 0.37474 0.27524 0.0
C960 C 0.88622 0.47617 0.2371 0.0
C961 C 0.88597 0.40901 0.26233 0.0
N962 N 0.88747 0.48681 0.34951 0.0
N963 N 0.89529 0.4041 0.14939 0.0
H964 H 0.87783 0.36435 0.32172 0.0
H965 H 0.87699 0.35542 0.24026 0.0
H966 H 0.89543 0.41134 0.10174 0.0
H967 H 0.89954 0.38182 0.15509 0.0
H968 H 0.88558 0.47871 0.39653 0.0
H969 H 0.89305 0.51386 0.34428 0.0
H970 H 0.87148 0.51694 0.25726 0.0
H971 H 0.88573 0.51805 0.17914 0.0
C972 C 0.58096 0.50848 0.29337 0.0
C973 C 0.61015 0.50601 0.32172 0.0
C974 C 0.60998 0.46795 0.23308 0.0
C975 C 0.57713 0.46594 0.20902 0.0
N976 N 0.52888 0.48098 0.2218 0.0
N977 N 0.66365 0.50125 0.30078 0.0
C978 C 0.56226 0.48585 0.24009 0.0
C979 C 0.62809 0.49098 0.28637 0.0
N980 N 0.57207 0.53343 0.31685 0.0
N981 N 0.62403 0.44786 0.2062 0.0
H982 H 0.6787 0.52167 0.33459 0.0
H983 H 0.67966 0.49377 0.2736 0.0
H984 H 0.6155 0.434 0.16283 0.0
H985 H 0.64405 0.44403 0.22858 0.0
H986 H 0.55299 0.53904 0.29545 0.0
H987 H 0.58723 0.55158 0.35371 0.0
H988 H 0.51496 0.49171 0.24698 0.0
H989 H 0.51315 0.46302 0.18536 0.0
C990 C 0.93169 0.51244 0.762 0.0
C991 C 0.90426 0.4888 0.80509 0.0
C992 C 0.89205 0.43557 0.74129 0.0
C993 C 0.91601 0.45923 0.69334 0.0
N994 N 0.95004 0.5228 0.65195 0.0
N995 N 0.85012 0.42965 0.82498 0.0
C996 C 0.93371 0.49853 0.70154 0.0
C997 C 0.88144 0.45097 0.79083 0.0
N998 N 0.95564 0.54816 0.77865 0.0
N999 N 0.88044 0.39871 0.74091 0.0
H1000 H 0.84017 0.44059 0.85901 0.0
H1001 H 0.83167 0.40226 0.8134 0.0
H1002 H 0.89067 0.38694 0.70882 0.0
H1003 H 0.86417 0.38077 0.77699 0.0
H1004 H 0.97911 0.56523 0.75203 0.0
H1005 H 0.95303 0.55986 0.82107 0.0
H1006 H 0.96034 0.55107 0.65676 0.0
H1007 H 0.94896 0.51559 0.60415 0.0
C1008 C 0.53839 0.41198 0.71367 0.0
C1009 C 0.5765 0.43497 0.70125 0.0
C1010 C 0.5892 0.42069 0.80831 0.0
C1011 C 0.55206 0.4082 0.82559 0.0
N1012 N 0.49014 0.38902 0.79328 0.0
N1013 N 0.63918 0.45644 0.73654 0.0
C1014 C 0.52618 0.40271 0.77767 0.0
C1015 C 0.60223 0.43752 0.74795 0.0
N1016 N 0.51436 0.3968 0.664 0.0
N1017 N 0.61346 0.41877 0.84915 0.0
H1018 H 0.65136 0.47321 0.69682 0.0
H1019 H 0.65812 0.45639 0.76884 0.0
H1020 H 0.60665 0.40619 0.8942 0.0
H1021 H 0.60665 0.40619 0.8942 0.0
H1022 H 0.48654 0.37783 0.67016 0.0
H1023 H 0.52365 0.39924 0.61699 0.0
H1024 H 0.47084 0.38832 0.76099 0.0
H1025 H 0.48014 0.3798 0.83944 0.0
C1026 C 0.58083 0.09026 0.78961 0.0
C1027 C 0.61043 0.12082 0.81922 0.0
C1028 C 0.6105 0.16127 0.73405 0.0
C1029 C 0.57688 0.13127 0.71079 0.0
N1030 N 0.52637 0.06924 0.72594 0.0
N1031 N 0.66354 0.18044 0.80364 0.0
C1032 C 0.56109 0.09631 0.74134 0.0
C1033 C 0.62831 0.15519 0.787 0.0
N1034 N 0.5724 0.05541 0.80672 0.0
N1035 N 0.62538 0.19536 0.70627 0.0
H1036 H 0.67848 0.17413 0.83619 0.0
H1037 H 0.67956 0.20538 0.7801 0.0
H1038 H 0.61499 0.201 0.66531 0.0
H1039 H 0.6472 0.219 0.72588 0.0
H1040 H 0.5526 0.03186 0.78321 0.0
H1041 H 0.5886 0.05074 0.83918 0.0
H1042 H 0.51234 0.04444 0.75104 0.0
H1043 H 0.51026 0.07344 0.69286 0.0
C1044 C 0.24234 0.49978 0.55358 0.0
C1045 C 0.24258 0.46738 0.53319 0.0
C1046 C 0.19564 0.43182 0.61266 0.0
C1047 C 0.20314 0.46452 0.64415 0.0
N1048 N 0.22788 0.5304 0.6377 0.0
N1049 N 0.22314 0.40308 0.55282 0.0
C1050 C 0.22469 0.49889 0.61249 0.0
C1051 C 0.22013 0.43347 0.56537 0.0
N1052 N 0.25641 0.53038 0.51523 0.0
N1053 N 0.16576 0.3991 0.6298 0.0
H1054 H 0.24259 0.40365 0.52129 0.0
H1055 H 0.2092 0.37873 0.57924 0.0
H1056 H 0.14691 0.39789 0.66374 0.0
H1057 H 0.15793 0.37453 0.60546 0.0
H1058 H 0.25339 0.55311 0.52482 0.0
H1059 H 0.26791 0.53199 0.4704 0.0
H1060 H 0.24805 0.55671 0.62353 0.0
H1061 H 0.20962 0.53008 0.67178 0.0
C1062 C 0.53436 0.75189 0.5569 0.0
C1063 C 0.56642 0.78456 0.53587 0.0
C1064 C 0.60231 0.77402 0.61586 0.0
C1065 C 0.56986 0.74901 0.64793 0.0
N1066 N 0.50444 0.70709 0.642 0.0
N1067 N 0.63043 0.82987 0.5544 0.0
C1068 C 0.53556 0.73558 0.61627 0.0
C1069 C 0.60036 0.79645 0.56782 0.0
N1070 N 0.50382 0.73505 0.51883 0.0
N1071 N 0.63504 0.77711 0.63325 0.0
H1072 H 0.62963 0.84853 0.5223 0.0
H1073 H 0.65478 0.84056 0.58061 0.0
H1074 H 0.63643 0.75975 0.66783 0.0
H1075 H 0.65944 0.79376 0.60858 0.0
H1076 H 0.48128 0.70929 0.52898 0.0
H1077 H 0.50204 0.74473 0.47377 0.0
H1078 H 0.47807 0.70039 0.62765 0.0
H1079 H 0.50521 0.68959 0.6768 0.0
C1080 C 0.26112 0.84392 0.61278 0.0
C1081 C 0.28944 0.8405 0.6422 0.0
C1082 C 0.28984 0.80432 0.55017 0.0
C1083 C 0.25513 0.79978 0.53106 0.0
N1084 N 0.20541 0.81187 0.55164 0.0
N1085 N 0.33814 0.8265 0.6306 0.0
C1086 C 0.24026 0.81894 0.56412 0.0
C1087 C 0.30629 0.8236 0.60811 0.0
N1088 N 0.25371 0.87049 0.63299 0.0
N1089 N 0.30802 0.79225 0.51171 0.0
H1090 H 0.35453 0.84639 0.66423 0.0
H1091 H 0.34868 0.80999 0.61526 0.0
H1092 H 0.2982 0.77951 0.46766 0.0
H1093 H 0.33469 0.79776 0.52019 0.0
H1094 H 0.23464 0.87572 0.61035 0.0
H1095 H 0.26984 0.88971 0.66786 0.0
H1096 H 0.1925 0.82303 0.57874 0.0
H1097 H 0.188 0.79171 0.51932 0.0
C1098 C 0.54089 0.79973 0.0554 0.0
C1099 C 0.571 0.79546 0.03526 0.0
C1100 C 0.6091 0.83834 0.11827 0.0
C1101 C 0.57749 0.8348 0.14839 0.0
N1102 N 0.51456 0.82044 0.1378 0.0
N1103 N 0.63252 0.80671 0.05513 0.0
C1104 C 0.54363 0.81806 0.11447 0.0
C1105 C 0.60485 0.8138 0.06873 0.0
N1106 N 0.51081 0.78842 0.01679 0.0
N1107 N 0.64314 0.86516 0.13741 0.0
H1108 H 0.62968 0.78699 0.02165 0.0
H1109 H 0.65653 0.81738 0.08227 0.0
H1110 H 0.6465 0.88481 0.17161 0.0
H1111 H 0.66718 0.87031 0.11409 0.0
H1112 H 0.48979 0.79407 0.02589 0.0
H1113 H 0.50791 0.77603 0.97235 0.0
H1114 H 0.4876 0.80381 0.12238 0.0
H1115 H 0.51784 0.84005 0.17187 0.0
C1116 C 0.25798 0.76642 0.06499 0.0
C1117 C 0.23674 0.77495 0.02235 0.0
C1118 C 0.18821 0.75424 0.1033 0.0
C1119 C 0.21006 0.747 0.14561 0.0
N1120 N 0.25461 0.72648 0.15184 0.0
N1121 N 0.174 0.75726 -0.00755 0.0
C1122 C 0.24107 0.74607 0.12134 0.0
C1123 C 0.19938 0.76288 0.03862 0.0
N1124 N 0.29449 0.77921 0.05472 0.0
N1125 N 0.15675 0.75259 0.12466 0.0
H1126 H 0.17947 0.75823 0.9436 0.0
H1127 H 0.14615 0.74625 0.00242 0.0
H1128 H 0.14625 0.74309 0.17046 0.0
H1129 H 0.14213 0.7619 0.09754 0.0
H1130 H 0.31027 0.77245 0.08405 0.0
H1131 H 0.31046 0.80014 0.02253 0.0
H1132 H 0.27593 0.72344 0.13321 0.0
H1133 H 0.24098 0.7085 0.18961 0.0
C1134 C 0.28041 0.49437 0.05409 0.0
C1135 C 0.24689 0.46364 0.0322 0.0
C1136 C 0.25269 0.42545 0.11478 0.0
C1137 C 0.28022 0.45737 0.14525 0.0
N1138 N 0.32908 0.52043 0.1321 0.0
N1139 N 0.19854 0.4005 0.04921 0.0
C1140 C 0.29668 0.49136 0.11161 0.0
C1141 C 0.23243 0.42923 0.06449 0.0
N1142 N 0.29855 0.52652 0.02054 0.0
N1143 N 0.24636 0.39154 0.13371 0.0
H1144 H 0.18174 0.40255 0.01469 0.0
H1145 H 0.18563 0.37609 0.07565 0.0
H1146 H 0.26277 0.38863 0.16823 0.0
H1147 H 0.22823 0.36727 0.10997 0.0
H1148 H 0.29026 0.53144 0.97621 0.0
H1149 H 0.29026 0.53144 0.97621 0.0
H1150 H 0.34121 0.54625 0.10994 0.0
H1151 H 0.3452 0.51769 0.16732 0.0
C1152 C 0.90396 0.82631 0.89197 0.0
C1153 C 0.91038 0.79707 0.8742 0.0
C1154 C 0.86489 0.75698 0.95213 0.0
C1155 C 0.86539 0.78771 0.98055 0.0
N1156 N 0.87726 0.84992 0.96869 0.0
N1157 N 0.90153 0.73651 0.89676 0.0
C1158 C 0.88243 0.822 0.94761 0.0
C1159 C 0.89218 0.76297 0.90727 0.0
N1160 N 0.91641 0.85703 0.85425 0.0
N1161 N 0.83833 0.72215 0.96847 0.0
H1162 H 0.92301 0.74081 0.86634 0.0
H1163 H 0.8907 0.71226 0.92359 0.0
H1164 H 0.81674 0.71752 -0.00098 0.0
H1165 H 0.83559 0.69866 0.94607 0.0
H1166 H 0.90938 0.87734 0.86111 0.0
H1167 H 0.93182 0.86152 0.81285 0.0
H1168 H 0.89324 0.87729 0.95436 0.0
H1169 H 0.85609 0.84519 0.00024 0.0
C1170 C 0.27506 0.14478 0.89244 0.0
C1171 C 0.24105 0.13021 0.85947 0.0
C1172 C 0.21549 0.07505 0.92759 0.0
C1173 C 0.24791 0.09227 0.96456 0.0
N1174 N 0.31319 0.1318 0.96251 0.0
N1175 N 0.17788 0.08094 0.84589 0.0
C1176 C 0.27934 0.1234 0.94024 0.0
C1177 C 0.21086 0.09509 0.8769 0.0
N1178 N 0.30274 0.17977 0.8798 0.0
N1179 N 0.19055 0.03879 0.93871 0.0
H1180 H 0.17314 0.09339 0.80678 0.0
H1181 H 0.15405 0.05766 0.86145 0.0
H1182 H 0.19589 0.02313 0.97139 0.0
H1183 H 0.16724 0.02318 0.91095 0.0
H1184 H 0.32685 0.19307 0.90663 0.0
H1185 H 0.29986 0.19677 0.84664 0.0
H1186 H 0.33769 0.15276 0.94341 0.0
H1187 H 0.31638 0.11472 -0.00466 0.0
C1188 C 0.87484 0.10588 0.91035 0.0
C1189 C 0.89716 0.12693 0.85878 0.0
C1190 C 0.93993 0.17474 0.93264 0.0
C1191 C 0.91633 0.1547 0.98372 0.0
N1192 N 0.85653 0.10553 0.01939 0.0
N1193 N 0.94971 0.18255 0.81828 0.0
C1194 C 0.88231 0.12165 0.97215 0.0
C1195 C 0.92916 0.16193 0.86908 0.0
N1196 N 0.84659 0.07068 0.9005 0.0
N1197 N 0.97311 0.20536 0.94531 0.0
H1198 H 0.9457 0.17248 0.77172 0.0
H1199 H 0.97014 0.21009 0.82176 0.0
H1200 H 0.98064 0.21677 -0.00892 0.0
H1201 H 0.99385 0.2186 0.91144 0.0
H1202 H 0.83308 0.05193 0.9374 0.0
H1203 H 0.83829 0.05883 0.85529 0.0
H1204 H 0.83079 0.08245 0.01233 0.0
H1205 H 0.85827 0.11715 0.06393 0.0
C1206 C 0.21781 0.09351 0.39725 0.0
C1207 C 0.21165 0.11298 0.34851 0.0
C1208 C 0.21673 0.15917 0.42599 0.0
C1209 C 0.22951 0.14321 0.47202 0.0
N1210 N 0.24752 0.09752 0.49744 0.0
N1211 N 0.20312 0.16295 0.31388 0.0
C1212 C 0.23141 0.11095 0.4568 0.0
C1213 C 0.2101 0.14529 0.36231 0.0
N1214 N 0.21094 0.05843 0.38656 0.0
N1215 N 0.2115 0.18775 0.44289 0.0
H1216 H 0.19546 0.15157 0.26812 0.0
H1217 H 0.2058 0.18893 0.3183 0.0
H1218 H 0.21849 0.20019 0.48792 0.0
H1219 H 0.19869 0.19807 0.41349 0.0
H1220 H 0.211 0.04135 0.42293 0.0
H1221 H 0.2013 0.04494 0.34287 0.0
H1222 H 0.25309 0.07678 0.48458 0.0
H1223 H 0.25908 0.10915 0.54121 0.0
C1224 C 0.88318 0.07149 0.36443 0.0
C1225 C 0.92016 0.09987 0.35491 0.0
C1226 C 0.93278 0.09519 0.46692 0.0
C1227 C 0.89443 0.07578 0.47857 0.0
N1228 N 0.83247 0.04258 0.43928 0.0
N1229 N 0.9811 0.13891 0.39778 0.0
C1230 C 0.86932 0.06252 0.42747 0.0
C1231 C 0.94564 0.11127 0.40594 0.0
N1232 N 0.86176 0.05312 0.31308 0.0
N1233 N 0.95662 0.09818 0.51402 0.0
H1234 H 0.9916 0.15184 0.35394 0.0
H1235 H 0.99946 0.15071 0.43571 0.0
H1236 H 0.98475 0.10965 0.50648 0.0
H1237 H 0.9475 0.0849 0.55799 0.0
H1238 H 0.83539 0.03047 0.3173 0.0
H1239 H 0.87228 0.05827 0.26664 0.0
H1240 H 0.81264 0.03574 0.40379 0.0
H1241 H 0.82194 0.03431 0.48547 0.0
C1242 C 0.89962 0.76541 0.40134 0.0
C1243 C 0.91284 0.79943 0.3684 0.0
C1244 C 0.96058 0.82983 0.45073 0.0
C1245 C 0.94614 0.7954 0.48326 0.0
N1246 N 0.91648 0.72972 0.46958 0.0
N1247 N 0.96328 0.86159 0.35174 0.0
C1248 C 0.92065 0.76294 0.45143 0.0
C1249 C 0.9454 0.83119 0.39022 0.0
N1250 N 0.86629 0.73567 0.38656 0.0
N1251 N 0.98905 0.86098 0.47643 0.0
H1252 H 0.95422 0.86346 0.30617 0.0
H1253 H 0.9891 0.88383 0.3623 0.0
H1254 H 1.00644 0.86025 0.51126 0.0
H1255 H 0.99605 0.88746 0.46151 0.0
H1256 H 0.85451 0.71134 0.41327 0.0
H1257 H 0.84877 0.73681 0.35247 0.0
H1258 H 0.89968 0.70532 0.4449 0.0
H1259 H 0.93329 0.72777 0.50448 0.0
C1260 C 0.36699 0.95562 0.86627 0.0
C1261 C 0.34022 0.92919 0.90831 0.0
C1262 C 0.38578 0.95219 -0.00403 0.0
C1263 C 0.41297 0.97829 0.95362 0.0
N1264 N 0.42632 1.0113 0.85331 0.0
N1265 N 0.32097 0.90887 0.01594 0.0
C1266 C 0.40251 0.98207 0.89025 0.0
C1267 C 0.34867 0.93013 0.97433 0.0
N1268 N 0.35898 0.95404 0.80248 0.0
N1269 N 0.39582 0.94667 0.0555 0.0
H1270 H 0.29388 0.89251 0.00041 0.0
H1271 H 0.32406 0.91016 0.06557 0.0
H1272 H 0.4227 0.96138 0.07256 0.0
H1273 H 0.37825 0.92548 0.08608 0.0
H1274 H 0.37845 0.96905 0.76745 0.0
H1275 H 0.33274 0.93621 0.78456 0.0
H1276 H 0.41926 0.01756 0.80909 0.0
H1277 H 0.45221 0.03131 0.86943 0.0
C1278 C 0.07307 0.43488 0.98008 0.0
C1279 C 0.05017 0.43973 0.93527 0.0
C1280 C 0.07695 0.42044 0.84847 0.0
C1281 C 0.10009 0.41629 0.89325 0.0
N1282 N 0.11111 0.40743 0.00239 0.0
N1283 N 0.02289 0.42613 0.82977 0.0
C1284 C 0.09463 0.41909 0.95942 0.0
C1285 C 0.04972 0.42894 0.87031 0.0
N1286 N 0.0763 0.44764 0.04135 0.0
N1287 N 0.08241 0.41806 0.78457 0.0
H1288 H 1.00214 0.43126 0.8444 0.0
H1289 H 0.01914 0.41535 0.78364 0.0
H1290 H 0.10087 0.41011 0.76797 0.0
H1291 H 0.06998 0.42536 0.74868 0.0
H1292 H 0.09526 0.44815 0.07413 0.0
H1293 H 0.06256 0.46096 0.0578 0.0
H1294 H 0.10648 0.40604 0.05164 0.0
H1295 H 0.12605 0.39512 0.987 0.0
C1296 C 0.60111 0.66372 0.84239 0.0
C1297 C 0.61527 0.69249 0.88817 0.0
C1298 C 0.61192 0.64779 0.96921 0.0
C1299 C 0.59053 0.61799 0.92653 0.0
N1300 N 0.56017 0.5987 0.8237 0.0
N1301 N 0.63417 0.71214 -0.00376 0.0
C1302 C 0.58435 0.62629 0.86301 0.0
C1303 C 0.62121 0.68464 0.95178 0.0
N1304 N 0.60203 0.67245 0.77907 0.0
N1305 N 0.62413 0.64114 0.02559 0.0
H1306 H 0.64296 0.73942 0.98347 0.0
H1307 H 0.63476 0.70761 0.04524 0.0
H1308 H 0.61872 0.6149 0.03911 0.0
H1309 H 0.64239 0.66202 0.05595 0.0
H1310 H 0.59474 0.65321 0.74232 0.0
H1311 H 0.61374 0.69979 0.76366 0.0
H1312 H 0.55191 0.60358 0.77941 0.0
H1313 H 0.54518 0.5712 0.83807 0.0
C1314 C 0.0696 0.62802 0.36412 0.0
C1315 C 0.05813 0.62025 0.42928 0.0
C1316 C 0.09602 0.68667 0.45379 0.0
C1317 C 0.10745 0.69408 0.38885 0.0
N1318 N 0.09733 0.67404 0.27967 0.0
N1319 N 0.05368 0.64344 0.53265 0.0
C1320 C 0.09105 0.66535 0.34325 0.0
C1321 C 0.06922 0.65003 0.4731 0.0
N1322 N 0.06193 0.59971 0.32293 0.0
N1323 N 0.1122 0.71452 0.49742 0.0
H1324 H 0.03422 0.61713 0.5483 0.0
H1325 H 0.05792 0.66426 0.56464 0.0
H1326 H 0.13001 0.74169 0.48329 0.0
H1327 H 0.10898 0.71059 0.54681 0.0
H1328 H 0.07268 0.6036 0.27679 0.0
H1329 H 0.04759 0.57207 0.33673 0.0
H1330 H 0.08408 0.65511 0.24296 0.0
H1331 H 0.11324 0.7013 0.26417 0.0
C1332 C 0.38268 0.43459 0.49241 0.0
C1333 C 0.41166 0.44003 0.45033 0.0
C1334 C 0.36827 0.42102 0.35937 0.0
C1335 C 0.33972 0.41645 0.40132 0.0
N1336 N 0.3168 0.40763 0.50845 0.0
N1337 N 0.429 0.42817 0.34664 0.0
C1338 C 0.34606 0.41911 0.46824 0.0
C1339 C 0.40344 0.4299 0.38464 0.0
N1340 N 0.39043 0.44633 0.55452 0.0
N1341 N 0.36211 0.4187 0.29481 0.0
H1342 H 0.45467 0.43389 0.36363 0.0
H1343 H 0.42362 0.41792 0.30005 0.0
H1344 H 0.33612 0.41038 0.27577 0.0
H1345 H 0.38274 0.42635 0.26067 0.0
H1346 H 0.37125 0.44662 0.58571 0.0
H1347 H 0.41689 0.45889 0.57357 0.0
H1348 H 0.31862 0.40664 0.55811 0.0
H1349 H 0.29005 0.39528 0.4907 0.0
C1350 C 0.615 0.93769 0.47051 0.0
C1351 C 0.61864 0.93347 0.4041 0.0
C1352 C 0.60481 0.98343 0.38328 0.0
C1353 C 0.59378 0.98207 0.44832 0.0
N1354 N 0.58572 0.95462 0.55336 0.0
N1355 N 0.61732 0.95256 0.29623 0.0
C1356 C 0.59876 0.95874 0.49215 0.0
C1357 C 0.61425 0.957 0.36035 0.0
N1358 N 0.62623 0.92044 0.51272 0.0
N1359 N 0.60692 1.01041 0.34361 0.0
H1360 H 0.62612 0.93486 0.27895 0.0
H1361 H 0.60971 0.96495 0.2607 0.0
H1362 H 0.60147 0.03089 0.35893 0.0
H1363 H 0.61726 0.01444 0.29723 0.0
H1364 H 0.6268 0.92394 0.5622 0.0
H1365 H 0.63885 0.90588 0.49677 0.0
H1366 H 0.58523 0.93534 0.58552 0.0
H1367 H 0.57215 0.96801 0.57037 0.0
C1368 C 0.05551 0.27774 0.32645 0.0
C1369 C 0.07981 0.30628 0.28406 0.0
C1370 C 0.03089 0.28245 0.20168 0.0
C1371 C 1.00675 0.25388 0.24384 0.0
N1372 N 0.9931 0.22891 0.35038 0.0
N1373 N 0.08751 0.34088 0.18717 0.0
C1374 C 1.01813 0.25339 0.30781 0.0
C1375 C 0.06644 0.31021 0.22348 0.0
N1376 N 0.06874 0.27256 0.38308 0.0
N1377 N 0.02028 0.28202 0.1396 0.0
H1378 H 0.11348 0.36165 0.20148 0.0
H1379 H 0.07816 0.34733 0.1456 0.0
H1380 H 0.99382 0.2634 0.12354 0.0
H1381 H 0.03793 0.29882 0.10369 0.0
H1382 H 0.05389 0.25001 0.41312 0.0
H1383 H 0.09579 0.28946 0.39808 0.0
H1384 H 0.99819 0.22866 0.39917 0.0
H1385 H 0.96585 0.21083 0.33756 0.0
C1386 C 0.71579 0.76093 0.21371 0.0
C1387 C 0.71705 0.77184 0.27879 0.0
C1388 C 0.76031 0.74951 0.30151 0.0
C1389 C 0.76513 0.74658 0.23516 0.0
N1390 N 0.7467 0.74836 0.12703 0.0
N1391 N 0.74317 0.77848 0.38459 0.0
C1392 C 0.74202 0.75127 0.19109 0.0
C1393 C 0.73958 0.76604 0.32303 0.0
N1394 N 0.68915 0.75916 0.17382 0.0
N1395 N 0.77652 0.73716 0.34376 0.0
H1396 H 0.72985 0.79211 0.40168 0.0
H1397 H 0.7619 0.7783 0.41709 0.0
H1398 H 0.79066 0.72414 0.32769 0.0
H1399 H 0.77237 0.73592 0.39313 0.0
H1400 H 0.68482 0.74846 0.12758 0.0
H1401 H 0.66911 0.76522 0.18896 0.0
H1402 H 0.73442 0.75602 0.09143 0.0
H1403 H 0.76437 0.73952 0.10995 0.0
C1404 C 0.26679 0.96608 0.20642 0.0
C1405 C 0.25365 0.95453 0.27 0.0
C1406 C 0.26709 0.01791 0.29348 0.0
C1407 C 0.27292 0.02692 0.2275 0.0
N1408 N 0.27839 1.00974 0.12012 0.0
N1409 N 0.23904 0.96956 0.37359 0.0
C1410 C 0.27334 1.00116 0.18387 0.0
C1411 C 0.25383 0.9807 0.31383 0.0
N1412 N 0.27377 0.9439 0.168 0.0
N1413 N 0.27358 0.04502 0.33648 0.0
H1414 H 0.22791 0.94248 0.3897 0.0
H1415 H 0.23486 0.98634 0.40518 0.0
H1416 H 0.28295 0.07218 0.32203 0.0
H1417 H 0.2732 0.04145 0.38596 0.0
H1418 H 0.28652 0.95212 0.12345 0.0
H1419 H 0.27001 0.91849 0.1832 0.0
H1420 H 0.27429 0.99071 0.08439 0.0
H1421 H 0.28523 0.03587 0.10304 0.0
C1422 C 0.75903 0.0192 0.76597 0.0
C1423 C 0.76607 0.02412 0.69931 0.0
C1424 C 0.71831 0.95891 0.68367 0.0
C1425 C 0.71752 0.95224 0.75099 0.0
N1426 N 0.74194 0.97711 0.85584 0.0
N1427 N 0.75233 0.9984 0.59362 0.0
C1428 C 0.73867 0.98285 0.79225 0.0
C1429 C 0.74515 0.99393 0.65781 0.0
N1430 N 0.77347 0.04958 0.80441 0.0
N1431 N 0.69298 0.93214 0.64453 0.0
H1432 H 0.77046 0.02415 0.57381 0.0
H1433 H 0.74171 0.97666 0.56108 0.0
H1434 H 0.67211 0.90694 0.66182 0.0
H1435 H 0.69049 0.93628 0.59597 0.0
H1436 H 0.76716 0.04853 0.85295 0.0
H1437 H 0.78895 0.07616 0.78559 0.0
H1438 H 0.75981 0.99795 0.88668 0.0
H1439 H 0.72986 0.95097 0.87652 0.0
C1440 C 1.01603 0.74399 0.78413 0.0
C1441 C 1.00911 0.75116 0.72071 0.0
C1442 C 0.07542 0.78438 0.69919 0.0
C1443 C 0.08284 0.77691 0.76246 0.0
N1444 N 0.05863 0.74037 0.85866 0.0
N1445 N 0.03095 0.767 0.61292 0.0
C1446 C 0.05263 0.75378 0.80303 0.0
C1447 C 0.03855 0.76689 0.67652 0.0
N1448 N 0.98788 0.72948 0.82717 0.0
N1449 N 0.10315 0.81041 0.66226 0.0
H1450 H 1.00395 0.75484 0.59613 0.0
H1451 H 0.05092 0.77564 0.57723 0.0
H1452 H 0.1301 0.82615 0.67853 0.0
H1453 H 0.09864 0.81935 0.61831 0.0
H1454 H 0.99181 0.72835 0.87623 0.0
H1455 H 0.96077 0.72006 0.81321 0.0
H1456 H 0.03746 0.7209 0.88722 0.0
H1457 H 0.0847 0.74606 0.87313 0.0
C1458 C 0.28452 0.27644 0.76985 0.0
C1459 C 0.28368 0.27009 0.70314 0.0
C1460 C 0.26566 0.31743 0.68639 0.0
C1461 C 0.25864 0.31744 0.75331 0.0
N1462 N 0.25779 0.29236 0.85826 0.0
N1463 N 0.27374 0.28499 0.5967 0.0
C1464 C 0.26764 0.29611 0.79512 0.0
C1465 C 0.27482 0.29123 0.66109 0.0
N1466 N 0.3008 0.26276 0.80915 0.0
N1467 N 0.26439 0.34292 0.64714 0.0
H1468 H 0.28234 0.26758 0.57726 0.0
H1469 H 0.26299 0.29565 0.56341 0.0
H1470 H 0.2594 0.36342 0.6641 0.0
H1471 H 0.27167 0.34594 0.59893 0.0
H1472 H 0.30471 0.26834 0.85809 0.0
H1473 H 0.3143 0.24964 0.79053 0.0
H1474 H 0.26046 0.27433 0.88935 0.0
H1475 H 0.24344 0.30427 0.87813 0.0
C1476 C 0.69379 0.62011 0.54807 0.0
C1477 C 0.67012 0.59199 0.59129 0.0
C1478 C 0.72045 0.61508 0.67071 0.0
C1479 C 0.74449 0.64299 0.62711 0.0
N1480 N 0.75085 0.67778 0.53096 0.0
N1481 N 0.65771 0.56861 0.69864 0.0
C1482 C 0.73007 0.64732 0.56788 0.0
C1483 C 0.68249 0.59192 0.65455 0.0
N1484 N 0.68215 0.61948 0.48671 0.0
N1485 N 0.73432 0.60902 0.72578 0.0
H1486 H 0.63004 0.55146 0.68709 0.0
H1487 H 0.6636 0.56879 0.74718 0.0
H1488 H 0.76192 0.62457 0.73863 0.0
H1489 H 0.71925 0.58673 0.75624 0.0
H1490 H 0.69929 0.63592 0.44995 0.0
H1491 H 0.65528 0.60105 0.47225 0.0
H1492 H 0.74086 0.6844 0.49038 0.0
H1493 H 0.77721 0.69826 0.54405 0.0
C1494 C 0.40683 0.10256 0.64499 0.0
C1495 C 0.38574 0.10937 0.59909 0.0
C1496 C 0.41364 0.09084 0.51331 0.0
C1497 C 0.43479 0.08454 0.55934 0.0
N1498 N 0.44091 0.07102 0.66833 0.0
N1499 N 0.36084 0.09818 0.49173 0.0
C1500 C 0.42739 0.0856 0.62506 0.0
C1501 C 0.3865 0.09972 0.53381 0.0
N1502 N 0.40942 0.11447 0.70671 0.0
N1503 N 0.42087 0.09003 0.44975 0.0
H1504 H 0.3399 0.10323 0.50541 0.0
H1505 H 0.3581 0.0883 0.44507 0.0
H1506 H 0.43928 0.08184 0.43392 0.0
H1507 H 0.40994 0.09889 0.41361 0.0
H1508 H 0.42711 0.11323 0.74037 0.0
H1509 H 0.39682 0.12902 0.72265 0.0
H1510 H 0.43479 0.06863 0.71711 0.0
H1511 H 0.45444 0.05722 0.65305 0.0
C1512 C 0.95043 0.34856 0.58112 0.0
C1513 C 0.94689 0.3559 0.51611 0.0
C1514 C 0.9068 0.28933 0.49896 0.0
C1515 C 0.91294 0.28094 0.56257 0.0
N1516 N 0.92094 0.30645 0.66901 0.0
N1517 N 0.92918 0.33227 0.40984 0.0
C1518 C 0.93008 0.31167 0.60555 0.0
C1519 C 0.92872 0.32566 0.47392 0.0
N1520 N 0.97188 0.37742 0.62045 0.0
N1521 N 0.87462 0.26634 0.46864 0.0
H1522 H 0.94397 0.35899 0.39123 0.0
H1523 H 0.91779 0.31107 0.37612 0.0
H1524 H 0.85211 0.24631 0.49419 0.0
H1525 H 0.8677 0.27214 0.42379 0.0
H1526 H 0.97813 0.37398 0.66743 0.0
H1527 H 0.98624 0.40446 0.60324 0.0
H1528 H 0.92975 0.32792 0.7019 0.0
H1529 H 0.89988 0.28136 0.68643 0.0
C1530 C 0.38352 0.29625 0.03808 0.0
C1531 C 0.38202 0.28697 0.10426 0.0
C1532 C 0.42767 0.35203 0.12651 0.0
C1533 C 0.43446 0.35917 0.06007 0.0
N1534 N 0.41868 0.33835 0.95164 0.0
N1535 N 0.40528 0.30636 0.21159 0.0
C1536 C 0.41181 0.33145 0.0156 0.0
C1537 C 0.40434 0.31516 0.14875 0.0
N1538 N 0.35753 0.27168 -0.0031 0.0
N1539 N 0.44468 0.38075 0.16831 0.0
H1540 H 0.38985 0.27964 0.22952 0.0
H1541 H 0.42373 0.32485 0.24488 0.0
H1542 H 0.46154 0.40768 0.15209 0.0
H1543 H 0.43913 0.37853 0.21727 0.0
H1544 H 0.35516 0.2779 0.9494 0.0
H1545 H 0.33614 0.24612 0.01181 0.0
H1546 H 0.40668 0.31818 0.91638 0.0
H1547 H 0.43779 0.36447 0.93447 0.0
C1548 C 0.71342 0.09439 0.16786 0.0
C1549 C 0.74395 0.10258 0.12767 0.0
C1550 C 0.70316 0.08585 0.03309 0.0
C1551 C 0.67319 0.0792 0.07309 0.0
N1552 N 0.6469 0.06555 0.1778 0.0
N1553 N 0.7653 0.0965 0.0236 0.0
C1554 C 0.67749 0.07934 0.14041 0.0
C1555 C 0.73791 0.09512 0.06071 0.0
N1556 N 0.71901 0.10279 0.23165 0.0
N1557 N 0.69866 0.08521 0.96815 0.0
H1558 H 0.79095 0.10343 0.04211 0.0
H1559 H 0.76177 0.08794 0.97601 0.0
H1560 H 0.673 0.07651 0.94736 0.0
H1561 H 0.72018 0.09445 0.93544 0.0
H1562 H 0.69872 0.10101 0.26243 0.0
H1563 H 0.74482 0.11435 0.25313 0.0
H1564 H 0.64719 0.06368 0.22746 0.0
H1565 H 0.62075 0.05235 0.15741 0.0
C1566 C 0.94719 0.6032 0.12094 0.0
C1567 C 0.95191 0.60142 0.05404 0.0
C1568 C 0.93874 0.65231 0.03889 0.0
C1569 C 0.92683 0.64875 0.1038 0.0
N1570 N 0.91795 0.6186 0.20634 0.0
N1571 N 0.95328 0.62489 0.94868 0.0
C1572 C 0.93128 0.62409 0.14515 0.0
C1573 C 0.94868 0.62677 0.01308 0.0
N1574 N 0.95679 0.58359 0.161 0.0
N1575 N 0.94101 0.68041 0.00211 0.0
H1576 H 0.96234 0.60776 0.92965 0.0
H1577 H 0.94689 0.63894 0.91444 0.0
H1578 H 0.93473 0.69993 0.01961 0.0
H1579 H 0.95201 0.68628 0.95613 0.0
H1580 H 0.95692 0.58552 0.21077 0.0
H1581 H 0.96801 0.56798 0.1436 0.0
H1582 H 0.91672 0.59821 0.23662 0.0
H1583 H 0.90518 0.63234 0.22532 0.0
loop_
_geom_bond_atom_site_label_1
_geom_bond_atom_site_label_2
_geom_bond_distance
_geom_bond_site_symmetry_2
_ccdc_geom_bond_type
C0 O16 1.251 . S
C0 O18 1.254 . S
N1 C2 1.333 . S
N1 C6 1.307 1_554 S
N1 Zn7 2.020 . S
C2 N1 1.333 . S
C2 C3 1.379 . S
C2 H20 0.952 . S
C3 C2 1.379 . S
C3 C4 1.390 . S
C3 H30 0.949 . S
C4 C3 1.390 . S
C4 C5 1.357 1_554 S
C5 C4 1.357 1_556 S
C5 C6 1.370 . S
C5 H31 0.950 . S
C6 N1 1.307 1_556 S
C6 C5 1.370 . S
C6 H24 0.948 . S
Zn7 N1 2.020 . S
Zn7 O16 2.039 . S
Zn7 O22 2.034 . S
Zn7 O26 2.025 1_554 S
Zn7 O28 2.024 . S
C8 O27 1.246 . S
C8 O28 1.249 . S
N9 C10 1.307 . S
N9 C11 1.333 1_554 S
N9 Zn15 2.020 . S
C10 N9 1.307 . S
C10 C14 1.370 . S
C10 H21 0.948 . S
C11 N9 1.333 1_556 S
C11 C12 1.379 . S
C11 H19 0.952 . S
C12 C11 1.379 . S
C12 C13 1.390 1_545 S
C12 H32 0.949 1_545 S
C13 C12 1.390 1_565 S
C13 C14 1.357 1_566 S
C14 C10 1.370 . S
C14 C13 1.357 1_544 S
C14 H33 0.950 . S
Zn15 N9 2.020 . S
Zn15 O18 2.025 . S
Zn15 O23 2.024 . S
Zn15 O25 2.039 1_554 S
Zn15 O27 2.034 . S
O16 C0 1.251 . S
O16 Zn7 2.039 . S
C17 O22 1.247 . S
C17 O23 1.250 . S
O18 C0 1.254 . S
O18 Zn15 2.025 . S
H19 C11 0.952 . S
H20 C2 0.952 . S
H21 C10 0.948 . S
O22 Zn7 2.034 . S
O22 C17 1.247 . S
O23 Zn15 2.024 . S
O23 C17 1.250 . S
H24 C6 0.948 . S
O25 Zn15 2.039 1_556 S
O25 C29 1.251 . S
O26 Zn7 2.025 1_556 S
O26 C29 1.254 . S
O27 C8 1.246 . S
O27 Zn15 2.034 . S
O28 Zn7 2.024 . S
O28 C8 1.249 . S
C29 O25 1.251 . S
C29 O26 1.254 . S
H30 C3 0.949 . S
H31 C5 0.950 . S
H32 C12 0.949 1_565 S
H33 C14 0.950 . S
C34 O50 1.251 . S
C34 O52 1.254 . S
N35 C36 1.333 . S
N35 C40 1.307 1_554 S
N35 Zn41 2.020 . S
C36 N35 1.333 . S
C36 C37 1.379 . S
C36 H54 0.952 . S
C37 C36 1.379 . S
C37 C38 1.390 . S
C37 H64 0.949 . S
C38 C37 1.390 . S
C38 C39 1.357 1_554 S
C39 C38 1.357 1_556 S
C39 C40 1.370 . S
C39 H65 0.950 . S
C40 N35 1.307 1_556 S
C40 C39 1.370 . S
C40 H58 0.948 . S
Zn41 N35 2.020 . S
Zn41 O50 2.039 . S
Zn41 O56 2.034 . S
Zn41 O60 2.025 1_554 S
Zn41 O62 2.024 . S
C42 O61 1.246 . S
C42 O62 1.249 . S
N43 C44 1.307 . S
N43 C45 1.333 1_554 S
N43 Zn49 2.020 . S
C44 N43 1.307 . S
C44 C48 1.370 . S
C44 H55 0.948 . S
C45 N43 1.333 1_556 S
C45 C46 1.379 . S
C45 H53 0.952 . S
C46 C45 1.379 . S
C46 C47 1.390 1_655 S
C46 H66 0.949 1_655 S
C47 C46 1.390 1_455 S
C47 C48 1.357 1_456 S
C48 C44 1.370 . S
C48 C47 1.357 1_654 S
C48 H67 0.950 . S
Zn49 N43 2.020 . S
Zn49 O52 2.025 . S
Zn49 O57 2.024 . S
Zn49 O59 2.039 1_554 S
Zn49 O61 2.034 . S
O50 C34 1.251 . S
O50 Zn41 2.039 . S
C51 O56 1.246 . S
C51 O57 1.250 . S
O52 C34 1.254 . S
O52 Zn49 2.025 . S
H53 C45 0.952 . S
H54 C36 0.952 . S
H55 C44 0.948 . S
O56 Zn41 2.034 . S
O56 C51 1.246 . S
O57 Zn49 2.024 . S
O57 C51 1.250 . S
H58 C40 0.948 . S
O59 Zn49 2.039 1_556 S
O59 C63 1.251 . S
O60 Zn41 2.025 1_556 S
O60 C63 1.254 . S
O61 C42 1.246 . S
O61 Zn49 2.034 . S
O62 Zn41 2.024 . S
O62 C42 1.249 . S
C63 O59 1.251 . S
C63 O60 1.254 . S
H64 C37 0.949 . S
H65 C39 0.950 . S
H66 C46 0.949 1_455 S
H67 C48 0.950 . S
C68 O84 1.251 . S
C68 O86 1.254 . S
N69 C70 1.333 . S
N69 C74 1.307 1_554 S
N69 Zn75 2.020 . S
C70 N69 1.333 . S
C70 C71 1.379 . S
C70 H88 0.952 . S
C71 C70 1.379 . S
C71 C72 1.390 . S
C71 H98 0.949 . S
C72 C71 1.390 . S
C72 C73 1.357 1_554 S
C73 C72 1.357 1_556 S
C73 C74 1.370 . S
C73 H99 0.950 . S
C74 N69 1.307 1_556 S
C74 C73 1.370 . S
C74 H92 0.948 . S
Zn75 N69 2.020 . S
Zn75 O84 2.039 . S
Zn75 O90 2.034 . S
Zn75 O94 2.025 1_554 S
Zn75 O96 2.024 . S
C76 O95 1.246 . S
C76 O96 1.249 . S
N77 C78 1.307 . S
N77 C79 1.333 1_554 S
N77 Zn83 2.020 . S
C78 N77 1.307 . S
C78 C82 1.370 . S
C78 H89 0.948 . S
C79 N77 1.333 1_556 S
C79 C80 1.379 . S
C79 H87 0.952 . S
C80 C79 1.379 . S
C80 C81 1.390 . S
C80 H100 0.949 . S
C81 C80 1.390 . S
C81 C82 1.357 1_556 S
C82 C78 1.370 . S
C82 C81 1.357 1_554 S
C82 H101 0.950 . S
Zn83 N77 2.020 . S
Zn83 O86 2.025 . S
Zn83 O91 2.024 . S
Zn83 O93 2.039 1_554 S
Zn83 O95 2.034 . S
O84 C68 1.251 . S
O84 Zn75 2.039 . S
C85 O90 1.246 . S
C85 O91 1.250 . S
O86 C68 1.254 . S
O86 Zn83 2.025 . S
H87 C79 0.952 . S
H88 C70 0.952 . S
H89 C78 0.948 . S
O90 Zn75 2.034 . S
O90 C85 1.246 . S
O91 Zn83 2.024 . S
O91 C85 1.250 . S
H92 C74 0.948 . S
O93 Zn83 2.039 1_556 S
O93 C97 1.251 . S
O94 Zn75 2.025 1_556 S
O94 C97 1.254 . S
O95 C76 1.246 . S
O95 Zn83 2.034 . S
O96 Zn75 2.024 . S
O96 C76 1.249 . S
C97 O93 1.251 . S
C97 O94 1.254 . S
H98 C71 0.949 . S
H99 C73 0.950 . S
H100 C80 0.949 . S
H101 C82 0.950 . S
C102 O118 1.251 . S
C102 O120 1.254 . S
N103 C104 1.333 . S
N103 C108 1.307 . S
N103 Zn109 2.020 . S
C104 N103 1.333 . S
C104 C105 1.379 . S
C104 H122 0.952 . S
C105 C104 1.379 . S
C105 C106 1.390 1_655 S
C105 H132 0.949 1_655 S
C106 C105 1.390 1_455 S
C106 C107 1.357 1_455 S
C107 C106 1.357 1_655 S
C107 C108 1.370 . S
C107 H133 0.950 . S
C108 N103 1.307 . S
C108 C107 1.370 . S
C108 H126 0.948 . S
Zn109 N103 2.020 . S
Zn109 O118 2.039 . S
Zn109 O124 2.034 . S
Zn109 O128 2.025 . S
Zn109 O130 2.024 . S
C110 O129 1.246 . S
C110 O130 1.249 . S
N111 C112 1.307 . S
N111 C113 1.333 . S
N111 Zn117 2.020 . S
C112 N111 1.307 . S
C112 C116 1.370 . S
C112 H123 0.948 . S
C113 N111 1.333 . S
C113 C114 1.379 . S
C113 H121 0.952 . S
C114 C113 1.379 . S
C114 C115 1.390 . S
C114 H134 0.949 . S
C115 C114 1.390 . S
C115 C116 1.357 . S
C116 C112 1.370 . S
C116 C115 1.357 . S
C116 H135 0.950 . S
Zn117 N111 2.020 . S
Zn117 O120 2.025 . S
Zn117 O125 2.024 . S
Zn117 O127 2.039 . S
Zn117 O129 2.034 . S
O118 C102 1.251 . S
O118 Zn109 2.039 . S
C119 O124 1.246 . S
C119 O125 1.249 . S
O120 C102 1.254 . S
O120 Zn117 2.025 . S
H121 C113 0.952 . S
H122 C104 0.952 . S
H123 C112 0.948 . S
O124 Zn109 2.034 . S
O124 C119 1.246 . S
O125 Zn117 2.024 . S
O125 C119 1.249 . S
H126 C108 0.948 . S
O127 Zn117 2.039 . S
O127 C131 1.251 . S
O128 Zn109 2.025 . S
O128 C131 1.254 . S
O129 C110 1.246 . S
O129 Zn117 2.034 . S
O130 Zn109 2.024 . S
O130 C110 1.249 . S
C131 O127 1.251 . S
C131 O128 1.254 . S
H132 C105 0.949 1_455 S
H133 C107 0.950 . S
H134 C114 0.949 . S
H135 C116 0.950 . S
C136 O152 1.251 . S
C136 O154 1.254 . S
N137 C138 1.333 . S
N137 C142 1.307 . S
N137 Zn143 2.020 . S
C138 N137 1.333 . S
C138 C139 1.379 . S
C138 H156 0.952 . S
C139 C138 1.379 . S
C139 C140 1.390 . S
C139 H166 0.949 . S
C140 C139 1.390 . S
C140 C141 1.357 . S
C141 C140 1.357 . S
C141 C142 1.370 . S
C141 H167 0.950 . S
C142 N137 1.307 . S
C142 C141 1.370 . S
C142 H160 0.948 . S
Zn143 N137 2.020 . S
Zn143 O152 2.039 . S
Zn143 O158 2.034 . S
Zn143 O162 2.025 . S
Zn143 O164 2.024 . S
C144 O163 1.246 . S
C144 O164 1.249 . S
N145 C146 1.307 . S
N145 C147 1.333 . S
N145 Zn151 2.020 . S
C146 N145 1.307 . S
C146 C150 1.370 . S
C146 H157 0.948 . S
C147 N145 1.333 . S
C147 C148 1.379 . S
C147 H155 0.952 . S
C148 C147 1.379 . S
C148 C149 1.390 . S
C148 H168 0.949 . S
C149 C148 1.390 . S
C149 C150 1.357 . S
C150 C146 1.370 . S
C150 C149 1.357 . S
C150 H169 0.950 . S
Zn151 N145 2.020 . S
Zn151 O154 2.025 . S
Zn151 O159 2.024 . S
Zn151 O161 2.039 . S
Zn151 O163 2.034 . S
O152 C136 1.251 . S
O152 Zn143 2.039 . S
C153 O158 1.246 . S
C153 O159 1.249 . S
O154 C136 1.254 . S
O154 Zn151 2.025 . S
H155 C147 0.952 . S
H156 C138 0.952 . S
H157 C146 0.948 . S
O158 Zn143 2.034 . S
O158 C153 1.246 . S
O159 Zn151 2.024 . S
O159 C153 1.249 . S
H160 C142 0.948 . S
O161 Zn151 2.039 . S
O161 C165 1.251 . S
O162 Zn143 2.025 . S
O162 C165 1.254 . S
O163 C144 1.246 . S
O163 Zn151 2.034 . S
O164 Zn143 2.024 . S
O164 C144 1.249 . S
C165 O161 1.251 . S
C165 O162 1.254 . S
H166 C139 0.949 . S
H167 C141 0.950 . S
H168 C148 0.949 . S
H169 C150 0.950 . S
C170 O186 1.251 . S
C170 O188 1.254 . S
N171 C172 1.333 . S
N171 C176 1.307 . S
N171 Zn177 2.020 . S
C172 N171 1.333 . S
C172 C173 1.379 . S
C172 H190 0.952 . S
C173 C172 1.379 . S
C173 C174 1.390 1_545 S
C173 H200 0.949 1_545 S
C174 C173 1.390 1_565 S
C174 C175 1.357 1_565 S
C175 C174 1.357 1_545 S
C175 C176 1.370 . S
C175 H201 0.950 . S
C176 N171 1.307 . S
C176 C175 1.370 . S
C176 H194 0.948 . S
Zn177 N171 2.020 . S
Zn177 O186 2.039 . S
Zn177 O192 2.034 . S
Zn177 O196 2.025 . S
Zn177 O198 2.024 . S
C178 O197 1.246 . S
C178 O198 1.249 . S
N179 C180 1.307 . S
N179 C181 1.333 . S
N179 Zn185 2.020 . S
C180 N179 1.307 . S
C180 C184 1.370 . S
C180 H191 0.948 . S
C181 N179 1.333 . S
C181 C182 1.379 . S
C181 H189 0.952 . S
C182 C181 1.379 . S
C182 C183 1.390 . S
C182 H202 0.949 . S
C183 C182 1.390 . S
C183 C184 1.357 . S
C184 C180 1.370 . S
C184 C183 1.357 . S
C184 H203 0.950 . S
Zn185 N179 2.020 . S
Zn185 O188 2.025 . S
Zn185 O193 2.024 . S
Zn185 O195 2.039 . S
Zn185 O197 2.034 . S
O186 C170 1.251 . S
O186 Zn177 2.039 . S
C187 O192 1.246 . S
C187 O193 1.249 . S
O188 C170 1.254 . S
O188 Zn185 2.025 . S
H189 C181 0.952 . S
H190 C172 0.952 . S
H191 C180 0.948 . S
O192 Zn177 2.034 . S
O192 C187 1.246 . S
O193 Zn185 2.024 . S
O193 C187 1.249 . S
H194 C176 0.948 . S
O195 Zn185 2.039 . S
O195 C199 1.251 . S
O196 Zn177 2.025 . S
O196 C199 1.254 . S
O197 C178 1.246 . S
O197 Zn185 2.034 . S
O198 Zn177 2.024 . S
O198 C178 1.249 . S
C199 O195 1.251 . S
C199 O196 1.254 . S
H200 C173 0.949 1_565 S
H201 C175 0.950 . S
H202 C182 0.949 . S
H203 C184 0.950 . S
C204 O220 1.251 . S
C204 O222 1.254 . S
N205 C206 1.333 . S
N205 C210 1.307 . S
N205 Zn211 2.020 . S
C206 N205 1.333 . S
C206 C207 1.379 . S
C206 H224 0.952 . S
C207 C206 1.379 . S
C207 C208 1.390 . S
C207 H234 0.949 . S
C208 C207 1.390 . S
C208 C209 1.357 . S
C209 C208 1.357 . S
C209 C210 1.370 . S
C209 H235 0.950 . S
C210 N205 1.307 . S
C210 C209 1.370 . S
C210 H228 0.948 . S
Zn211 N205 2.020 . S
Zn211 O220 2.039 . S
Zn211 O226 2.034 . S
Zn211 O230 2.025 . S
Zn211 O232 2.024 . S
C212 O231 1.246 . S
C212 O232 1.249 . S
N213 C214 1.307 . S
N213 C215 1.333 . S
N213 Zn219 2.020 . S
C214 N213 1.307 . S
C214 C218 1.370 . S
C214 H225 0.948 . S
C215 N213 1.333 . S
C215 C216 1.379 . S
C215 H223 0.952 . S
C216 C215 1.379 . S
C216 C217 1.390 . S
C216 H236 0.949 . S
C217 C216 1.390 . S
C217 C218 1.357 . S
C218 C214 1.370 . S
C218 C217 1.357 . S
C218 H237 0.950 . S
Zn219 N213 2.020 . S
Zn219 O222 2.025 . S
Zn219 O227 2.024 . S
Zn219 O229 2.039 . S
Zn219 O231 2.034 . S
O220 C204 1.251 . S
O220 Zn211 2.039 . S
C221 O226 1.246 . S
C221 O227 1.249 . S
O222 C204 1.254 . S
O222 Zn219 2.025 . S
H223 C215 0.952 . S
H224 C206 0.952 . S
H225 C214 0.948 . S
O226 Zn211 2.034 . S
O226 C221 1.246 . S
O227 Zn219 2.024 . S
O227 C221 1.249 . S
H228 C210 0.948 . S
O229 Zn219 2.039 . S
O229 C233 1.251 . S
O230 Zn211 2.025 . S
O230 C233 1.254 . S
O231 C212 1.246 . S
O231 Zn219 2.034 . S
O232 Zn211 2.024 . S
O232 C212 1.249 . S
C233 O229 1.251 . S
C233 O230 1.254 . S
H234 C207 0.949 . S
H235 C209 0.950 . S
H236 C216 0.949 . S
H237 C218 0.950 . S
C238 O254 1.251 . S
C238 O256 1.254 . S
N239 C240 1.333 . S
N239 C244 1.307 . S
N239 Zn245 2.020 . S
C240 N239 1.333 . S
C240 C241 1.379 . S
C240 H258 0.952 . S
C241 C240 1.379 . S
C241 C242 1.390 . S
C241 H268 0.949 . S
C242 C241 1.390 . S
C242 C243 1.357 . S
C243 C242 1.357 . S
C243 C244 1.370 . S
C243 H269 0.950 . S
C244 N239 1.307 . S
C244 C243 1.370 . S
C244 H262 0.948 . S
Zn245 N239 2.020 . S
Zn245 O254 2.039 . S
Zn245 O260 2.034 . S
Zn245 O264 2.025 . S
Zn245 O266 2.024 . S
C246 O265 1.246 . S
C246 O266 1.249 . S
N247 C248 1.307 . S
N247 C249 1.333 . S
N247 Zn253 2.020 . S
C248 N247 1.307 . S
C248 C252 1.370 . S
C248 H259 0.948 . S
C249 N247 1.333 . S
C249 C250 1.379 . S
C249 H257 0.952 . S
C250 C249 1.379 . S
C250 C251 1.390 . S
C250 H270 0.949 . S
C251 C250 1.390 . S
C251 C252 1.357 . S
C252 C248 1.370 . S
C252 C251 1.357 . S
C252 H271 0.950 . S
Zn253 N247 2.020 . S
Zn253 O256 2.025 . S
Zn253 O261 2.024 . S
Zn253 O263 2.039 . S
Zn253 O265 2.034 . S
O254 C238 1.251 . S
O254 Zn245 2.039 . S
C255 O260 1.246 . S
C255 O261 1.249 . S
O256 C238 1.254 . S
O256 Zn253 2.025 . S
H257 C249 0.952 . S
H258 C240 0.952 . S
H259 C248 0.948 . S
O260 Zn245 2.034 . S
O260 C255 1.246 . S
O261 Zn253 2.024 . S
O261 C255 1.249 . S
H262 C244 0.948 . S
O263 Zn253 2.039 . S
O263 C267 1.251 . S
O264 Zn245 2.025 . S
O264 C267 1.254 . S
O265 C246 1.246 . S
O265 Zn253 2.034 . S
O266 Zn245 2.024 . S
O266 C246 1.249 . S
C267 O263 1.251 . S
C267 O264 1.254 . S
H268 C241 0.949 . S
H269 C243 0.950 . S
H270 C250 0.949 . S
H271 C252 0.950 . S
C272 O288 1.251 . S
C272 O290 1.254 . S
N273 C274 1.333 . S
N273 C278 1.307 . S
N273 Zn279 2.020 . S
C274 N273 1.333 . S
C274 C275 1.379 . S
C274 H292 0.952 . S
C275 C274 1.379 . S
C275 C276 1.390 . S
C275 H302 0.949 . S
C276 C275 1.390 . S
C276 C277 1.357 . S
C277 C276 1.357 . S
C277 C278 1.370 . S
C277 H303 0.950 . S
C278 N273 1.307 . S
C278 C277 1.370 . S
C278 H296 0.948 . S
Zn279 N273 2.020 . S
Zn279 O288 2.039 . S
Zn279 O294 2.034 . S
Zn279 O298 2.025 . S
Zn279 O300 2.024 . S
C280 O299 1.246 . S
C280 O300 1.249 . S
N281 C282 1.307 . S
N281 C283 1.333 . S
N281 Zn287 2.020 . S
C282 N281 1.307 . S
C282 C286 1.370 . S
C282 H293 0.948 . S
C283 N281 1.333 . S
C283 C284 1.379 . S
C283 H291 0.952 . S
C284 C283 1.379 . S
C284 C285 1.390 . S
C284 H304 0.949 . S
C285 C284 1.390 . S
C285 C286 1.357 . S
C286 C282 1.370 . S
C286 C285 1.357 . S
C286 H305 0.950 . S
Zn287 N281 2.020 . S
Zn287 O290 2.025 . S
Zn287 O295 2.024 . S
Zn287 O297 2.039 . S
Zn287 O299 2.034 . S
O288 C272 1.251 . S
O288 Zn279 2.039 . S
C289 O294 1.246 . S
C289 O295 1.249 . S
O290 C272 1.254 . S
O290 Zn287 2.025 . S
H291 C283 0.952 . S
H292 C274 0.952 . S
H293 C282 0.948 . S
O294 Zn279 2.034 . S
O294 C289 1.246 . S
O295 Zn287 2.024 . S
O295 C289 1.249 . S
H296 C278 0.948 . S
O297 Zn287 2.039 . S
O297 C301 1.251 . S
O298 Zn279 2.025 . S
O298 C301 1.254 . S
O299 C280 1.246 . S
O299 Zn287 2.034 . S
O300 Zn279 2.024 . S
O300 C280 1.249 . S
C301 O297 1.251 . S
C301 O298 1.254 . S
H302 C275 0.949 . S
H303 C277 0.950 . S
H304 C284 0.949 . S
H305 C286 0.950 . S
C306 O322 1.251 . S
C306 O324 1.254 . S
N307 C308 1.333 . S
N307 C312 1.307 . S
N307 Zn313 2.020 . S
C308 N307 1.333 . S
C308 C309 1.379 . S
C308 H326 0.952 . S
C309 C308 1.379 . S
C309 C310 1.390 . S
C309 H336 0.949 . S
C310 C309 1.390 . S
C310 C311 1.357 . S
C311 C310 1.357 . S
C311 C312 1.370 . S
C311 H337 0.950 . S
C312 N307 1.307 . S
C312 C311 1.370 . S
C312 H330 0.948 . S
Zn313 N307 2.020 . S
Zn313 O322 2.039 . S
Zn313 O328 2.034 . S
Zn313 O332 2.025 . S
Zn313 O334 2.024 . S
C314 O333 1.246 . S
C314 O334 1.249 . S
N315 C316 1.307 . S
N315 C317 1.333 . S
N315 Zn321 2.020 . S
C316 N315 1.307 . S
C316 C320 1.370 . S
C316 H327 0.948 . S
C317 N315 1.333 . S
C317 C318 1.379 . S
C317 H325 0.952 . S
C318 C317 1.379 . S
C318 C319 1.390 . S
C318 H338 0.949 . S
C319 C318 1.390 . S
C319 C320 1.357 . S
C320 C316 1.370 . S
C320 C319 1.357 . S
C320 H339 0.950 . S
Zn321 N315 2.020 . S
Zn321 O324 2.025 . S
Zn321 O329 2.024 . S
Zn321 O331 2.039 . S
Zn321 O333 2.034 . S
O322 C306 1.251 . S
O322 Zn313 2.039 . S
C323 O328 1.246 . S
C323 O329 1.249 . S
O324 C306 1.254 . S
O324 Zn321 2.025 . S
H325 C317 0.952 . S
H326 C308 0.952 . S
H327 C316 0.948 . S
O328 Zn313 2.034 . S
O328 C323 1.246 . S
O329 Zn321 2.024 . S
O329 C323 1.249 . S
H330 C312 0.948 . S
O331 Zn321 2.039 . S
O331 C335 1.251 . S
O332 Zn313 2.025 . S
O332 C335 1.254 . S
O333 C314 1.246 . S
O333 Zn321 2.034 . S
O334 Zn313 2.024 . S
O334 C314 1.249 . S
C335 O331 1.251 . S
C335 O332 1.254 . S
H336 C309 0.949 . S
H337 C311 0.950 . S
H338 C318 0.949 . S
H339 C320 0.950 . S
C340 O356 1.251 . S
C340 O358 1.254 . S
N341 C342 1.333 . S
N341 C346 1.307 . S
N341 Zn347 2.020 . S
C342 N341 1.333 . S
C342 C343 1.379 . S
C342 H360 0.952 . S
C343 C342 1.379 . S
C343 C344 1.390 . S
C343 H370 0.949 . S
C344 C343 1.390 . S
C344 C345 1.357 . S
C345 C344 1.357 . S
C345 C346 1.370 . S
C345 H371 0.950 . S
C346 N341 1.307 . S
C346 C345 1.370 . S
C346 H364 0.948 . S
Zn347 N341 2.020 . S
Zn347 O356 2.039 . S
Zn347 O362 2.034 . S
Zn347 O366 2.025 . S
Zn347 O368 2.024 . S
C348 O367 1.246 . S
C348 O368 1.249 . S
N349 C350 1.307 . S
N349 C351 1.333 . S
N349 Zn355 2.020 . S
C350 N349 1.307 . S
C350 C354 1.370 . S
C350 H361 0.948 . S
C351 N349 1.333 . S
C351 C352 1.379 . S
C351 H359 0.952 . S
C352 C351 1.379 . S
C352 C353 1.390 . S
C352 H372 0.949 . S
C353 C352 1.390 . S
C353 C354 1.357 . S
C354 C350 1.370 . S
C354 C353 1.357 . S
C354 H373 0.950 . S
Zn355 N349 2.020 . S
Zn355 O358 2.025 . S
Zn355 O363 2.024 . S
Zn355 O365 2.039 . S
Zn355 O367 2.034 . S
O356 C340 1.251 . S
O356 Zn347 2.039 . S
C357 O362 1.246 . S
C357 O363 1.249 . S
O358 C340 1.254 . S
O358 Zn355 2.025 . S
H359 C351 0.952 . S
H360 C342 0.952 . S
H361 C350 0.948 . S
O362 Zn347 2.034 . S
O362 C357 1.246 . S
O363 Zn355 2.024 . S
O363 C357 1.249 . S
H364 C346 0.948 . S
O365 Zn355 2.039 . S
O365 C369 1.251 . S
O366 Zn347 2.025 . S
O366 C369 1.254 . S
O367 C348 1.246 . S
O367 Zn355 2.034 . S
O368 Zn347 2.024 . S
O368 C348 1.249 . S
C369 O365 1.251 . S
C369 O366 1.254 . S
H370 C343 0.949 . S
H371 C345 0.950 . S
H372 C352 0.949 . S
H373 C354 0.950 . S
C374 O390 1.251 . S
C374 O392 1.254 . S
N375 C376 1.333 . S
N375 C380 1.307 . S
N375 Zn381 2.020 . S
C376 N375 1.333 . S
C376 C377 1.379 . S
C376 H394 0.952 . S
C377 C376 1.379 . S
C377 C378 1.390 . S
C377 H404 0.949 . S
C378 C377 1.390 . S
C378 C379 1.357 . S
C379 C378 1.357 . S
C379 C380 1.370 . S
C379 H405 0.950 . S
C380 N375 1.307 . S
C380 C379 1.370 . S
C380 H398 0.948 . S
Zn381 N375 2.020 . S
Zn381 O390 2.039 . S
Zn381 O396 2.034 . S
Zn381 O400 2.025 . S
Zn381 O402 2.024 . S
C382 O401 1.246 . S
C382 O402 1.249 . S
N383 C384 1.307 . S
N383 C385 1.333 . S
N383 Zn389 2.020 . S
C384 N383 1.307 . S
C384 C388 1.370 . S
C384 H395 0.948 . S
C385 N383 1.333 . S
C385 C386 1.379 . S
C385 H393 0.952 . S
C386 C385 1.379 . S
C386 C387 1.390 . S
C386 H406 0.949 . S
C387 C386 1.390 . S
C387 C388 1.357 . S
C388 C384 1.370 . S
C388 C387 1.357 . S
C388 H407 0.950 . S
Zn389 N383 2.020 . S
Zn389 O392 2.025 . S
Zn389 O397 2.024 . S
Zn389 O399 2.039 . S
Zn389 O401 2.034 . S
O390 C374 1.251 . S
O390 Zn381 2.039 . S
C391 O396 1.246 . S
C391 O397 1.249 . S
O392 C374 1.254 . S
O392 Zn389 2.025 . S
H393 C385 0.952 . S
H394 C376 0.952 . S
H395 C384 0.948 . S
O396 Zn381 2.034 . S
O396 C391 1.246 . S
O397 Zn389 2.024 . S
O397 C391 1.249 . S
H398 C380 0.948 . S
O399 Zn389 2.039 . S
O399 C403 1.251 . S
O400 Zn381 2.025 . S
O400 C403 1.254 . S
O401 C382 1.246 . S
O401 Zn389 2.034 . S
O402 Zn381 2.024 . S
O402 C382 1.249 . S
C403 O399 1.251 . S
C403 O400 1.254 . S
H404 C377 0.949 . S
H405 C379 0.950 . S
H406 C386 0.949 . S
H407 C388 0.950 . S
C408 O424 1.251 . S
C408 O426 1.254 . S
N409 C410 1.333 . S
N409 C414 1.307 . S
N409 Zn415 2.020 1_455 S
C410 N409 1.333 . S
C410 C411 1.379 . S
C410 H428 0.952 1_455 S
C411 C410 1.379 . S
C411 C412 1.390 . S
C411 H438 0.949 . S
C412 C411 1.390 . S
C412 C413 1.357 . S
C413 C412 1.357 . S
C413 C414 1.370 . S
C413 H439 0.950 . S
C414 N409 1.307 . S
C414 C413 1.370 . S
C414 H432 0.948 . S
Zn415 N409 2.020 1_655 S
Zn415 O424 2.039 . S
Zn415 O430 2.034 . S
Zn415 O434 2.025 . S
Zn415 O436 2.024 . S
C416 O435 1.246 . S
C416 O436 1.249 . S
N417 C418 1.307 . S
N417 C419 1.333 . S
N417 Zn423 2.020 . S
C418 N417 1.307 . S
C418 C422 1.370 . S
C418 H429 0.948 . S
C419 N417 1.333 . S
C419 C420 1.379 . S
C419 H427 0.952 . S
C420 C419 1.379 . S
C420 C421 1.390 . S
C420 H440 0.949 . S
C421 C420 1.390 . S
C421 C422 1.357 . S
C422 C418 1.370 . S
C422 C421 1.357 . S
C422 H441 0.950 . S
Zn423 N417 2.020 . S
Zn423 O426 2.025 . S
Zn423 O431 2.024 . S
Zn423 O433 2.039 . S
Zn423 O435 2.034 . S
O424 C408 1.251 . S
O424 Zn415 2.039 . S
C425 O430 1.246 . S
C425 O431 1.249 . S
O426 C408 1.254 . S
O426 Zn423 2.025 . S
H427 C419 0.952 . S
H428 C410 0.952 1_655 S
H429 C418 0.948 . S
O430 Zn415 2.034 . S
O430 C425 1.246 . S
O431 Zn423 2.024 . S
O431 C425 1.249 . S
H432 C414 0.948 . S
O433 Zn423 2.039 . S
O433 C437 1.251 . S
O434 Zn415 2.025 . S
O434 C437 1.254 . S
O435 C416 1.246 . S
O435 Zn423 2.034 . S
O436 Zn415 2.024 . S
O436 C416 1.249 . S
C437 O433 1.251 . S
C437 O434 1.254 . S
H438 C411 0.949 . S
H439 C413 0.950 . S
H440 C420 0.949 . S
H441 C422 0.950 . S
C442 O458 1.251 . S
C442 O460 1.254 . S
N443 C444 1.333 . S
N443 C448 1.307 . S
N443 Zn449 2.020 . S
C444 N443 1.333 . S
C444 C445 1.379 . S
C444 H462 0.952 . S
C445 C444 1.379 . S
C445 C446 1.390 . S
C445 H472 0.949 . S
C446 C445 1.390 . S
C446 C447 1.357 . S
C447 C446 1.357 . S
C447 C448 1.370 . S
C447 H473 0.950 . S
C448 N443 1.307 . S
C448 C447 1.370 . S
C448 H466 0.948 . S
Zn449 N443 2.020 . S
Zn449 O458 2.039 . S
Zn449 O464 2.034 . S
Zn449 O468 2.025 . S
Zn449 O470 2.024 . S
C450 O469 1.246 . S
C450 O470 1.249 . S
N451 C452 1.307 . S
N451 C453 1.333 . S
N451 Zn457 2.020 . S
C452 N451 1.307 . S
C452 C456 1.370 . S
C452 H463 0.948 . S
C453 N451 1.333 . S
C453 C454 1.379 . S
C453 H461 0.952 . S
C454 C453 1.379 . S
C454 C455 1.390 . S
C454 H474 0.949 . S
C455 C454 1.390 . S
C455 C456 1.357 . S
C456 C452 1.370 . S
C456 C455 1.357 . S
C456 H475 0.950 . S
Zn457 N451 2.020 . S
Zn457 O460 2.025 . S
Zn457 O465 2.024 . S
Zn457 O467 2.039 . S
Zn457 O469 2.034 . S
O458 C442 1.251 . S
O458 Zn449 2.039 . S
C459 O464 1.246 . S
C459 O465 1.249 . S
O460 C442 1.254 . S
O460 Zn457 2.025 . S
H461 C453 0.952 . S
H462 C444 0.952 . S
H463 C452 0.948 . S
O464 Zn449 2.034 . S
O464 C459 1.246 . S
O465 Zn457 2.024 . S
O465 C459 1.249 . S
H466 C448 0.948 . S
O467 Zn457 2.039 . S
O467 C471 1.251 . S
O468 Zn449 2.025 . S
O468 C471 1.254 . S
O469 C450 1.246 . S
O469 Zn457 2.034 . S
O470 Zn449 2.024 . S
O470 C450 1.249 . S
C471 O467 1.251 . S
C471 O468 1.254 . S
H472 C445 0.949 . S
H473 C447 0.950 . S
H474 C454 0.949 . S
H475 C456 0.950 . S
C476 O492 1.251 . S
C476 O494 1.254 . S
N477 C478 1.333 . S
N477 C482 1.307 . S
N477 Zn483 2.020 1_565 S
C478 N477 1.333 . S
C478 C479 1.379 . S
C478 H496 0.952 1_565 S
C479 C478 1.379 . S
C479 C480 1.390 . S
C479 H506 0.949 . S
C480 C479 1.390 . S
C480 C481 1.357 . S
C481 C480 1.357 . S
C481 C482 1.370 . S
C481 H507 0.950 . S
C482 N477 1.307 . S
C482 C481 1.370 . S
C482 H500 0.948 . S
Zn483 N477 2.020 1_545 S
Zn483 O492 2.039 . S
Zn483 O498 2.034 . S
Zn483 O502 2.025 . S
Zn483 O504 2.024 . S
C484 O503 1.246 . S
C484 O504 1.249 . S
N485 C486 1.307 . S
N485 C487 1.333 . S
N485 Zn491 2.020 . S
C486 N485 1.307 . S
C486 C490 1.370 . S
C486 H497 0.948 . S
C487 N485 1.333 . S
C487 C488 1.379 . S
C487 H495 0.952 . S
C488 C487 1.379 . S
C488 C489 1.390 . S
C488 H508 0.949 . S
C489 C488 1.390 . S
C489 C490 1.357 . S
C490 C486 1.370 . S
C490 C489 1.357 . S
C490 H509 0.950 . S
Zn491 N485 2.020 . S
Zn491 O494 2.025 . S
Zn491 O499 2.024 . S
Zn491 O501 2.039 . S
Zn491 O503 2.034 . S
O492 C476 1.251 . S
O492 Zn483 2.039 . S
C493 O498 1.246 . S
C493 O499 1.249 . S
O494 C476 1.254 . S
O494 Zn491 2.025 . S
H495 C487 0.952 . S
H496 C478 0.952 1_545 S
H497 C486 0.948 . S
O498 Zn483 2.034 . S
O498 C493 1.246 . S
O499 Zn491 2.024 . S
O499 C493 1.249 . S
H500 C482 0.948 . S
O501 Zn491 2.039 . S
O501 C505 1.251 . S
O502 Zn483 2.025 . S
O502 C505 1.254 . S
O503 C484 1.246 . S
O503 Zn491 2.034 . S
O504 Zn483 2.024 . S
O504 C484 1.249 . S
C505 O501 1.251 . S
C505 O502 1.254 . S
H506 C479 0.949 . S
H507 C481 0.950 . S
H508 C488 0.949 . S
H509 C490 0.950 . S
C510 O526 1.251 . S
C510 O528 1.254 . S
N511 C512 1.333 . S
N511 C516 1.307 . S
N511 Zn517 2.020 . S
C512 N511 1.333 . S
C512 C513 1.379 . S
C512 H530 0.952 . S
C513 C512 1.379 . S
C513 C514 1.390 . S
C513 H540 0.949 . S
C514 C513 1.390 . S
C514 C515 1.357 . S
C515 C514 1.357 . S
C515 C516 1.370 . S
C515 H541 0.950 . S
C516 N511 1.307 . S
C516 C515 1.370 . S
C516 H534 0.948 . S
Zn517 N511 2.020 . S
Zn517 O526 2.039 . S
Zn517 O532 2.034 . S
Zn517 O536 2.025 . S
Zn517 O538 2.024 . S
C518 O537 1.246 . S
C518 O538 1.249 . S
N519 C520 1.307 . S
N519 C521 1.333 . S
N519 Zn525 2.020 1_565 S
C520 N519 1.307 . S
C520 C524 1.370 . S
C520 H531 0.948 . S
C521 N519 1.333 . S
C521 C522 1.379 . S
C521 H529 0.952 1_565 S
C522 C521 1.379 . S
C522 C523 1.390 . S
C522 H542 0.949 . S
C523 C522 1.390 . S
C523 C524 1.357 . S
C524 C520 1.370 . S
C524 C523 1.357 . S
C524 H543 0.950 . S
Zn525 N519 2.020 1_545 S
Zn525 O528 2.025 . S
Zn525 O533 2.024 . S
Zn525 O535 2.039 . S
Zn525 O537 2.034 . S
O526 C510 1.251 . S
O526 Zn517 2.039 . S
C527 O532 1.246 . S
C527 O533 1.249 . S
O528 C510 1.254 . S
O528 Zn525 2.025 . S
H529 C521 0.952 1_545 S
H530 C512 0.952 . S
H531 C520 0.948 . S
O532 Zn517 2.034 . S
O532 C527 1.246 . S
O533 Zn525 2.024 . S
O533 C527 1.249 . S
H534 C516 0.948 . S
O535 Zn525 2.039 . S
O535 C539 1.251 . S
O536 Zn517 2.025 . S
O536 C539 1.254 . S
O537 C518 1.246 . S
O537 Zn525 2.034 . S
O538 Zn517 2.024 . S
O538 C518 1.249 . S
C539 O535 1.251 . S
C539 O536 1.254 . S
H540 C513 0.949 . S
H541 C515 0.950 . S
H542 C522 0.949 . S
H543 C524 0.950 . S
C544 O560 1.251 . S
C544 O562 1.254 . S
N545 C546 1.333 . S
N545 C550 1.307 . S
N545 Zn551 2.020 . S
C546 N545 1.333 . S
C546 C547 1.379 . S
C546 H564 0.952 . S
C547 C546 1.379 . S
C547 C548 1.390 . S
C547 H574 0.949 . S
C548 C547 1.390 . S
C548 C549 1.357 . S
C549 C548 1.357 . S
C549 C550 1.370 . S
C549 H575 0.950 . S
C550 N545 1.307 . S
C550 C549 1.370 . S
C550 H568 0.948 . S
Zn551 N545 2.020 . S
Zn551 O560 2.039 . S
Zn551 O566 2.034 . S
Zn551 O570 2.025 . S
Zn551 O572 2.024 . S
C552 O571 1.246 . S
C552 O572 1.249 . S
N553 C554 1.307 . S
N553 C555 1.333 . S
N553 Zn559 2.020 1_455 S
C554 N553 1.307 . S
C554 C558 1.370 . S
C554 H565 0.948 . S
C555 N553 1.333 . S
C555 C556 1.379 . S
C555 H563 0.952 1_455 S
C556 C555 1.379 . S
C556 C557 1.390 . S
C556 H576 0.949 . S
C557 C556 1.390 . S
C557 C558 1.357 . S
C558 C554 1.370 . S
C558 C557 1.357 . S
C558 H577 0.950 . S
Zn559 N553 2.020 1_655 S
Zn559 O562 2.025 . S
Zn559 O567 2.024 . S
Zn559 O569 2.039 . S
Zn559 O571 2.034 . S
O560 C544 1.251 . S
O560 Zn551 2.039 . S
C561 O566 1.246 . S
C561 O567 1.249 . S
O562 C544 1.254 . S
O562 Zn559 2.025 . S
H563 C555 0.952 1_655 S
H564 C546 0.952 . S
H565 C554 0.948 . S
O566 Zn551 2.034 . S
O566 C561 1.246 . S
O567 Zn559 2.024 . S
O567 C561 1.249 . S
H568 C550 0.948 . S
O569 Zn559 2.039 . S
O569 C573 1.251 . S
O570 Zn551 2.025 . S
O570 C573 1.254 . S
O571 C552 1.246 . S
O571 Zn559 2.034 . S
O572 Zn551 2.024 . S
O572 C552 1.249 . S
C573 O569 1.251 . S
C573 O570 1.254 . S
H574 C547 0.949 . S
H575 C549 0.950 . S
H576 C556 0.949 . S
H577 C558 0.950 . S
C578 O594 1.251 . S
C578 O596 1.254 . S
N579 C580 1.333 . S
N579 C584 1.307 . S
N579 Zn585 2.020 . S
C580 N579 1.333 . S
C580 C581 1.379 . S
C580 H598 0.952 . S
C581 C580 1.379 . S
C581 C582 1.390 . S
C581 H608 0.949 . S
C582 C581 1.390 . S
C582 C583 1.357 . S
C583 C582 1.357 . S
C583 C584 1.370 . S
C583 H609 0.950 . S
C584 N579 1.307 . S
C584 C583 1.370 . S
C584 H602 0.948 . S
Zn585 N579 2.020 . S
Zn585 O594 2.039 . S
Zn585 O600 2.034 . S
Zn585 O604 2.025 . S
Zn585 O606 2.024 . S
C586 O605 1.246 . S
C586 O606 1.249 . S
N587 C588 1.307 . S
N587 C589 1.333 . S
N587 Zn593 2.020 . S
C588 N587 1.307 . S
C588 C592 1.370 . S
C588 H599 0.948 . S
C589 N587 1.333 . S
C589 C590 1.379 . S
C589 H597 0.952 . S
C590 C589 1.379 . S
C590 C591 1.390 . S
C590 H610 0.949 . S
C591 C590 1.390 . S
C591 C592 1.357 . S
C592 C588 1.370 . S
C592 C591 1.357 . S
C592 H611 0.950 . S
Zn593 N587 2.020 . S
Zn593 O596 2.025 . S
Zn593 O601 2.024 . S
Zn593 O603 2.039 . S
Zn593 O605 2.034 . S
O594 C578 1.251 . S
O594 Zn585 2.039 . S
C595 O600 1.246 . S
C595 O601 1.249 . S
O596 C578 1.254 . S
O596 Zn593 2.025 . S
H597 C589 0.952 . S
H598 C580 0.952 . S
H599 C588 0.948 . S
O600 Zn585 2.034 . S
O600 C595 1.246 . S
O601 Zn593 2.024 . S
O601 C595 1.249 . S
H602 C584 0.948 . S
O603 Zn593 2.039 . S
O603 C607 1.251 . S
O604 Zn585 2.025 . S
O604 C607 1.254 . S
O605 C586 1.246 . S
O605 Zn593 2.034 . S
O606 Zn585 2.024 . S
O606 C586 1.249 . S
C607 O603 1.251 . S
C607 O604 1.254 . S
H608 C581 0.949 . S
H609 C583 0.950 . S
H610 C590 0.949 . S
H611 C592 0.950 . S
C612 C613 1.363 . S
C612 C618 1.379 1_556 S
C612 N620 1.356 . S
C613 C612 1.363 . S
C613 C619 1.363 1_556 S
C614 C615 1.363 . S
C614 C619 1.379 . S
C614 N621 1.356 . S
C615 C614 1.363 . S
C615 C618 1.363 . S
N616 C618 1.356 1_556 S
N616 H628 0.984 . S
N616 H629 0.985 1_556 S
N617 C619 1.356 . S
N617 H622 0.984 . S
N617 H623 0.985 . S
C618 C612 1.379 1_554 S
C618 C615 1.363 . S
C618 N616 1.356 1_554 S
C619 C613 1.363 1_554 S
C619 C614 1.379 . S
C619 N617 1.356 . S
N620 C612 1.356 . S
N620 H626 0.984 . S
N620 H627 0.984 . S
N621 C614 1.356 . S
N621 H624 0.984 . S
N621 H625 0.985 . S
H622 N617 0.984 . S
H623 N617 0.985 . S
H624 N621 0.984 . S
H625 N621 0.985 . S
H626 N620 0.984 . S
H627 N620 0.984 . S
H628 N616 0.984 . S
H629 N616 0.985 1_554 S
C630 C631 1.363 . S
C630 C636 1.379 . S
C630 N638 1.356 . S
C631 C630 1.363 . S
C631 C637 1.363 1_554 S
C632 C633 1.363 . S
C632 C637 1.379 . S
C632 N639 1.356 . S
C633 C632 1.363 . S
C633 C636 1.363 1_556 S
N634 C636 1.356 . S
N634 H646 0.984 . S
N634 H647 0.985 . S
N635 C637 1.356 . S
N635 H640 0.984 1_556 S
N635 H641 0.985 . S
C636 C630 1.379 . S
C636 C633 1.363 1_554 S
C636 N634 1.356 . S
C637 C631 1.363 1_556 S
C637 C632 1.379 . S
C637 N635 1.356 . S
N638 C630 1.356 . S
N638 H644 0.984 . S
N638 H645 0.984 . S
N639 C632 1.356 . S
N639 H642 0.984 . S
N639 H643 0.985 . S
H640 N635 0.984 1_554 S
H641 N635 0.985 . S
H642 N639 0.984 . S
H643 N639 0.985 . S
H644 N638 0.984 . S
H645 N638 0.984 . S
H646 N634 0.984 . S
H647 N634 0.985 . S
C648 C649 1.363 . S
C648 C654 1.379 . S
C648 N656 1.356 . S
C649 C648 1.363 . S
C649 C655 1.363 1_556 S
C650 C651 1.363 . S
C650 C655 1.379 . S
C650 N657 1.356 . S
C651 C650 1.363 . S
C651 C654 1.363 1_554 S
N652 C654 1.356 . S
N652 H664 0.984 . S
N652 H665 0.985 . S
N653 C655 1.356 . S
N653 H658 0.984 . S
N653 H659 0.985 . S
C654 C648 1.379 . S
C654 C651 1.363 1_556 S
C654 N652 1.356 . S
C655 C649 1.363 1_554 S
C655 C650 1.379 . S
C655 N653 1.356 . S
N656 C648 1.356 . S
N656 H662 0.984 . S
N656 H663 0.984 . S
N657 C650 1.356 . S
N657 H660 0.984 . S
N657 H661 0.985 . S
H658 N653 0.984 . S
H659 N653 0.985 . S
H660 N657 0.984 . S
H661 N657 0.985 . S
H662 N656 0.984 . S
H663 N656 0.984 . S
H664 N652 0.984 . S
H665 N652 0.985 . S
C666 C667 1.363 . S
C666 C672 1.379 . S
C666 N674 1.356 . S
C667 C666 1.363 . S
C667 C673 1.363 . S
C668 C669 1.363 . S
C668 C673 1.379 . S
C668 N675 1.356 . S
C669 C668 1.363 . S
C669 C672 1.363 . S
N670 C672 1.356 . S
N670 H682 0.984 . S
N670 H683 0.985 . S
N671 C673 1.356 . S
N671 H676 0.984 . S
N671 H677 0.985 . S
C672 C666 1.379 . S
C672 C669 1.363 . S
C672 N670 1.356 . S
C673 C667 1.363 . S
C673 C668 1.379 . S
C673 N671 1.356 . S
N674 C666 1.356 . S
N674 H680 0.984 . S
N674 H681 0.984 . S
N675 C668 1.356 . S
N675 H678 0.984 . S
N675 H679 0.985 . S
H676 N671 0.984 . S
H677 N671 0.985 . S
H678 N675 0.984 . S
H679 N675 0.985 . S
H680 N674 0.984 . S
H681 N674 0.984 . S
H682 N670 0.984 . S
H683 N670 0.985 . S
C684 C685 1.363 . S
C684 C690 1.379 . S
C684 N692 1.356 . S
C685 C684 1.363 . S
C685 C691 1.363 . S
C686 C687 1.363 . S
C686 C691 1.379 . S
C686 N693 1.356 . S
C687 C686 1.363 . S
C687 C690 1.363 . S
N688 C690 1.356 . S
N688 H700 0.984 . S
N688 H701 0.985 . S
N689 C691 1.356 . S
N689 H694 0.984 . S
N689 H695 0.985 . S
C690 C684 1.379 . S
C690 C687 1.363 . S
C690 N688 1.356 . S
C691 C685 1.363 . S
C691 C686 1.379 . S
C691 N689 1.356 . S
N692 C684 1.356 . S
N692 H698 0.984 . S
N692 H699 0.984 . S
N693 C686 1.356 . S
N693 H696 0.984 . S
N693 H697 0.985 . S
H694 N689 0.984 . S
H695 N689 0.985 . S
H696 N693 0.984 . S
H697 N693 0.985 . S
H698 N692 0.984 . S
H699 N692 0.984 . S
H700 N688 0.984 . S
H701 N688 0.985 . S
C702 C703 1.363 . S
C702 C708 1.379 . S
C702 N710 1.356 . S
C703 C702 1.363 . S
C703 C709 1.363 . S
C704 C705 1.363 . S
C704 C709 1.379 . S
C704 N711 1.356 . S
C705 C704 1.363 . S
C705 C708 1.363 . S
N706 C708 1.356 . S
N706 H718 0.984 . S
N706 H719 0.985 . S
N707 C709 1.356 . S
N707 H712 0.984 . S
N707 H713 0.985 . S
C708 C702 1.379 . S
C708 C705 1.363 . S
C708 N706 1.356 . S
C709 C703 1.363 . S
C709 C704 1.379 . S
C709 N707 1.356 . S
N710 C702 1.356 . S
N710 H716 0.984 . S
N710 H717 0.984 . S
N711 C704 1.356 . S
N711 H714 0.984 . S
N711 H715 0.985 . S
H712 N707 0.984 . S
H713 N707 0.985 . S
H714 N711 0.984 . S
H715 N711 0.985 . S
H716 N710 0.984 . S
H717 N710 0.984 . S
H718 N706 0.984 . S
H719 N706 0.985 . S
C720 C721 1.363 . S
C720 C726 1.379 . S
C720 N728 1.356 . S
C721 C720 1.363 . S
C721 C727 1.363 . S
C722 C723 1.363 . S
C722 C727 1.379 . S
C722 N729 1.356 . S
C723 C722 1.363 . S
C723 C726 1.363 . S
N724 C726 1.356 . S
N724 H736 0.984 . S
N724 H737 0.985 . S
N725 C727 1.356 . S
N725 H730 0.984 . S
N725 H731 0.985 . S
C726 C720 1.379 . S
C726 C723 1.363 . S
C726 N724 1.356 . S
C727 C721 1.363 . S
C727 C722 1.379 . S
C727 N725 1.356 . S
N728 C720 1.356 . S
N728 H734 0.984 . S
N728 H735 0.984 . S
N729 C722 1.356 . S
N729 H732 0.984 . S
N729 H733 0.985 . S
H730 N725 0.984 . S
H731 N725 0.985 . S
H732 N729 0.984 . S
H733 N729 0.985 . S
H734 N728 0.984 . S
H735 N728 0.984 . S
H736 N724 0.984 . S
H737 N724 0.985 . S
C738 C739 1.363 . S
C738 C744 1.379 . S
C738 N746 1.356 . S
C739 C738 1.363 . S
C739 C745 1.363 . S
C740 C741 1.363 . S
C740 C745 1.379 . S
C740 N747 1.356 . S
C741 C740 1.363 . S
C741 C744 1.363 . S
N742 C744 1.356 . S
N742 H754 0.984 . S
N742 H755 0.985 . S
N743 C745 1.356 . S
N743 H748 0.984 . S
N743 H749 0.985 . S
C744 C738 1.379 . S
C744 C741 1.363 . S
C744 N742 1.356 . S
C745 C739 1.363 . S
C745 C740 1.379 . S
C745 N743 1.356 . S
N746 C738 1.356 . S
N746 H752 0.984 . S
N746 H753 0.984 . S
N747 C740 1.356 . S
N747 H750 0.984 . S
N747 H751 0.985 . S
H748 N743 0.984 . S
H749 N743 0.985 . S
H750 N747 0.984 . S
H751 N747 0.985 . S
H752 N746 0.984 . S
H753 N746 0.984 . S
H754 N742 0.984 . S
H755 N742 0.985 . S
C756 C757 1.363 . S
C756 C762 1.379 . S
C756 N764 1.356 . S
C757 C756 1.363 . S
C757 C763 1.363 . S
C758 C759 1.363 . S
C758 C763 1.379 . S
C758 N765 1.356 . S
C759 C758 1.363 . S
C759 C762 1.363 . S
N760 C762 1.356 . S
N760 H772 0.984 . S
N760 H773 0.985 . S
N761 C763 1.356 . S
N761 H766 0.984 . S
N761 H767 0.985 . S
C762 C756 1.379 . S
C762 C759 1.363 . S
C762 N760 1.356 . S
C763 C757 1.363 . S
C763 C758 1.379 . S
C763 N761 1.356 . S
N764 C756 1.356 . S
N764 H770 0.984 . S
N764 H771 0.984 . S
N765 C758 1.356 . S
N765 H768 0.984 . S
N765 H769 0.985 . S
H766 N761 0.984 . S
H767 N761 0.985 . S
H768 N765 0.984 . S
H769 N765 0.985 . S
H770 N764 0.984 . S
H771 N764 0.984 . S
H772 N760 0.984 . S
H773 N760 0.985 . S
C774 C775 1.363 . S
C774 C780 1.379 . S
C774 N782 1.356 . S
C775 C774 1.363 . S
C775 C781 1.363 . S
C776 C777 1.363 . S
C776 C781 1.379 . S
C776 N783 1.356 . S
C777 C776 1.363 . S
C777 C780 1.363 . S
N778 C780 1.356 . S
N778 H790 0.984 . S
N778 H791 0.985 . S
N779 C781 1.356 . S
N779 H784 0.984 . S
N779 H785 0.985 . S
C780 C774 1.379 . S
C780 C777 1.363 . S
C780 N778 1.356 . S
C781 C775 1.363 . S
C781 C776 1.379 . S
C781 N779 1.356 . S
N782 C774 1.356 . S
N782 H788 0.984 . S
N782 H789 0.984 . S
N783 C776 1.356 . S
N783 H786 0.984 . S
N783 H787 0.985 1_556 S
H784 N779 0.984 . S
H785 N779 0.985 . S
H786 N783 0.984 . S
H787 N783 0.985 1_554 S
H788 N782 0.984 . S
H789 N782 0.984 . S
H790 N778 0.984 . S
H791 N778 0.985 . S
C792 C793 1.363 . S
C792 C798 1.379 . S
C792 N800 1.356 . S
C793 C792 1.363 . S
C793 C799 1.363 . S
C794 C795 1.363 . S
C794 C799 1.379 . S
C794 N801 1.356 . S
C795 C794 1.363 . S
C795 C798 1.363 . S
N796 C798 1.356 . S
N796 H808 0.984 . S
N796 H809 0.985 . S
N797 C799 1.356 . S
N797 H802 0.984 . S
N797 H803 0.985 . S
C798 C792 1.379 . S
C798 C795 1.363 . S
C798 N796 1.356 . S
C799 C793 1.363 . S
C799 C794 1.379 . S
C799 N797 1.356 . S
N800 C792 1.356 . S
N800 H806 0.984 1_556 S
N800 H807 0.984 . S
N801 C794 1.356 . S
N801 H804 0.984 . S
N801 H805 0.985 . S
H802 N797 0.984 . S
H803 N797 0.985 . S
H804 N801 0.984 . S
H805 N801 0.985 . S
H806 N800 0.984 1_554 S
H807 N800 0.984 . S
H808 N796 0.984 . S
H809 N796 0.985 . S
C810 C811 1.363 . S
C810 C816 1.379 . S
C810 N818 1.356 . S
C811 C810 1.363 . S
C811 C817 1.363 . S
C812 C813 1.363 . S
C812 C817 1.379 . S
C812 N819 1.356 . S
C813 C812 1.363 . S
C813 C816 1.363 . S
N814 C816 1.356 . S
N814 H826 0.984 . S
N814 H827 0.985 . S
N815 C817 1.356 . S
N815 H820 0.984 . S
N815 H821 0.985 . S
C816 C810 1.379 . S
C816 C813 1.363 . S
C816 N814 1.356 . S
C817 C811 1.363 . S
C817 C812 1.379 . S
C817 N815 1.356 . S
N818 C810 1.356 . S
N818 H824 0.984 . S
N818 H825 0.984 . S
N819 C812 1.356 . S
N819 H822 0.984 . S
N819 H823 0.985 . S
H820 N815 0.984 . S
H821 N815 0.985 . S
H822 N819 0.984 . S
H823 N819 0.985 . S
H824 N818 0.984 . S
H825 N818 0.984 . S
H826 N814 0.984 . S
H827 N814 0.985 . S
C828 C829 1.363 . S
C828 C834 1.379 . S
C828 N836 1.356 . S
C829 C828 1.363 . S
C829 C835 1.363 . S
C830 C831 1.363 . S
C830 C835 1.379 . S
C830 N837 1.356 . S
C831 C830 1.363 . S
C831 C834 1.363 . S
N832 C834 1.356 . S
N832 H844 0.984 . S
N832 H845 0.985 . S
N833 C835 1.356 . S
N833 H838 0.984 . S
N833 H839 0.985 . S
C834 C828 1.379 . S
C834 C831 1.363 . S
C834 N832 1.356 . S
C835 C829 1.363 . S
C835 C830 1.379 . S
C835 N833 1.356 . S
N836 C828 1.356 . S
N836 H842 0.984 . S
N836 H843 0.984 . S
N837 C830 1.356 . S
N837 H840 0.984 . S
N837 H841 0.985 . S
H838 N833 0.984 . S
H839 N833 0.985 . S
H840 N837 0.984 . S
H841 N837 0.985 . S
H842 N836 0.984 . S
H843 N836 0.984 . S
H844 N832 0.984 . S
H845 N832 0.985 . S
C846 C847 1.363 . S
C846 C852 1.379 1_545 S
C846 N854 1.356 . S
C847 C846 1.363 . S
C847 C853 1.363 . S
C848 C849 1.363 . S
C848 C853 1.379 1_565 S
C848 N855 1.356 . S
C849 C848 1.363 . S
C849 C852 1.363 . S
N850 C852 1.356 . S
N850 H862 0.984 . S
N850 H863 0.985 . S
N851 C853 1.356 . S
N851 H856 0.984 . S
N851 H857 0.985 . S
C852 C846 1.379 1_565 S
C852 C849 1.363 . S
C852 N850 1.356 . S
C853 C847 1.363 . S
C853 C848 1.379 1_545 S
C853 N851 1.356 . S
N854 C846 1.356 . S
N854 H860 0.984 . S
N854 H861 0.984 . S
N855 C848 1.356 . S
N855 H858 0.984 . S
N855 H859 0.985 . S
H856 N851 0.984 . S
H857 N851 0.985 . S
H858 N855 0.984 . S
H859 N855 0.985 . S
H860 N854 0.984 . S
H861 N854 0.984 . S
H862 N850 0.984 . S
H863 N850 0.985 . S
C864 C865 1.363 . S
C864 C870 1.379 . S
C864 N872 1.356 . S
C865 C864 1.363 . S
C865 C871 1.344 1_655 S
C866 C867 1.363 . S
C866 C871 1.404 . S
C866 N873 1.356 . S
C867 C866 1.363 . S
C867 C870 1.363 1_455 S
N868 C870 1.356 . S
N868 H880 0.984 . S
N868 H881 0.985 1_655 S
N869 C871 1.343 1_655 S
N869 H874 0.984 . S
N869 H875 0.985 1_655 S
C870 C864 1.379 . S
C870 C867 1.363 1_655 S
C870 N868 1.356 . S
C871 C865 1.344 1_455 S
C871 C866 1.404 . S
C871 N869 1.343 1_455 S
N872 C864 1.356 . S
N872 H878 0.984 . S
N872 H879 0.984 . S
N873 C866 1.356 . S
N873 H876 0.984 . S
N873 H877 0.985 . S
H874 N869 0.984 . S
H875 N869 0.985 1_455 S
H876 N873 0.984 . S
H877 N873 0.985 . S
H878 N872 0.984 . S
H879 N872 0.984 . S
H880 N868 0.984 . S
H881 N868 0.985 1_455 S
C882 C883 1.363 . S
C882 C888 1.379 . S
C882 N890 1.356 . S
C883 C882 1.363 . S
C883 C889 1.363 . S
C884 C885 1.363 . S
C884 C889 1.379 . S
C884 N891 1.356 . S
C885 C884 1.363 . S
C885 C888 1.363 . S
N886 C888 1.356 . S
N886 H898 0.984 . S
N886 H899 0.985 . S
N887 C889 1.356 . S
N887 H892 0.984 . S
N887 H893 0.985 . S
C888 C882 1.379 . S
C888 C885 1.363 . S
C888 N886 1.356 . S
C889 C883 1.363 . S
C889 C884 1.379 . S
C889 N887 1.356 . S
N890 C882 1.356 . S
N890 H896 0.984 . S
N890 H897 0.984 . S
N891 C884 1.356 . S
N891 H894 0.984 . S
N891 H895 0.985 . S
H892 N887 0.984 . S
H893 N887 0.985 . S
H894 N891 0.984 . S
H895 N891 0.985 . S
H896 N890 0.984 . S
H897 N890 0.984 . S
H898 N886 0.984 . S
H899 N886 0.985 . S
C900 C901 1.363 1_545 S
C900 C906 1.379 . S
C900 N908 1.356 1_545 S
C901 C900 1.363 1_565 S
C901 C907 1.363 . S
C902 C903 1.363 . S
C902 C907 1.379 1_545 S
C902 N909 1.356 . S
C903 C902 1.363 . S
C903 C906 1.363 . S
N904 C906 1.356 . S
N904 H916 0.984 . S
N904 H917 0.985 . S
N905 C907 1.356 . S
N905 H910 0.984 . S
N905 H911 0.985 . S
C906 C900 1.379 . S
C906 C903 1.363 . S
C906 N904 1.356 . S
C907 C901 1.363 . S
C907 C902 1.379 1_565 S
C907 N905 1.356 . S
N908 C900 1.356 1_565 S
N908 H914 0.984 1_565 S
N908 H915 0.984 . S
N909 C902 1.356 . S
N909 H912 0.984 . S
N909 H913 0.985 . S
H910 N905 0.984 . S
H911 N905 0.985 . S
H912 N909 0.984 . S
H913 N909 0.985 . S
H914 N908 0.984 1_545 S
H915 N908 0.984 . S
H916 N904 0.984 . S
H917 N904 0.985 . S
C918 C919 1.363 1_655 S
C918 C924 1.379 . S
C918 N926 1.356 . S
C919 C918 1.363 1_455 S
C919 C925 1.363 . S
C920 C921 1.363 . S
C920 C925 1.379 1_655 S
C920 N927 1.356 . S
C921 C920 1.363 . S
C921 C924 1.363 . S
N922 C924 1.356 . S
N922 H934 0.984 . S
N922 H935 0.985 . S
N923 C925 1.356 . S
N923 H928 0.984 . S
N923 H929 0.985 . S
C924 C918 1.379 . S
C924 C921 1.363 . S
C924 N922 1.356 . S
C925 C919 1.363 . S
C925 C920 1.379 1_455 S
C925 N923 1.356 . S
N926 C918 1.356 . S
N926 H932 0.984 . S
N926 H933 0.984 1_655 S
N927 C920 1.356 . S
N927 H930 0.984 . S
N927 H931 0.985 1_655 S
H928 N923 0.984 . S
H929 N923 0.985 . S
H930 N927 0.984 . S
H931 N927 0.985 1_455 S
H932 N926 0.984 . S
H933 N926 0.984 1_455 S
H934 N922 0.984 . S
H935 N922 0.985 . S
C936 C937 1.363 . S
C936 C942 1.379 . S
C936 N944 1.356 . S
C937 C936 1.363 . S
C937 C943 1.363 . S
C938 C939 1.363 . S
C938 C943 1.379 . S
C938 N945 1.356 . S
C939 C938 1.363 . S
C939 C942 1.363 . S
N940 C942 1.356 . S
N940 H952 0.984 . S
N940 H953 0.985 . S
N941 C943 1.356 . S
N941 H946 0.984 . S
N941 H947 0.985 . S
C942 C936 1.379 . S
C942 C939 1.363 . S
C942 N940 1.356 . S
C943 C937 1.363 . S
C943 C938 1.379 . S
C943 N941 1.356 . S
N944 C936 1.356 . S
N944 H950 0.984 . S
N944 H951 0.984 . S
N945 C938 1.356 . S
N945 H948 0.984 . S
N945 H949 0.985 . S
H946 N941 0.984 . S
H947 N941 0.985 . S
H948 N945 0.984 . S
H949 N945 0.985 . S
H950 N944 0.984 . S
H951 N944 0.984 . S
H952 N940 0.984 . S
H953 N940 0.985 . S
C954 C955 1.363 . S
C954 C960 1.379 . S
C954 N962 1.356 . S
C955 C954 1.363 . S
C955 C961 1.363 . S
C956 C957 1.363 . S
C956 C961 1.379 . S
C956 N963 1.356 . S
C957 C956 1.363 . S
C957 C960 1.363 . S
N958 C960 1.356 . S
N958 H970 0.984 . S
N958 H971 0.985 . S
N959 C961 1.356 . S
N959 H964 0.984 . S
N959 H965 0.985 . S
C960 C954 1.379 . S
C960 C957 1.363 . S
C960 N958 1.356 . S
C961 C955 1.363 . S
C961 C956 1.379 . S
C961 N959 1.356 . S
N962 C954 1.356 . S
N962 H968 0.984 . S
N962 H969 0.984 . S
N963 C956 1.356 . S
N963 H966 0.984 . S
N963 H967 0.985 . S
H964 N959 0.984 . S
H965 N959 0.985 . S
H966 N963 0.984 . S
H967 N963 0.985 . S
H968 N962 0.984 . S
H969 N962 0.984 . S
H970 N958 0.984 . S
H971 N958 0.985 . S
C972 C973 1.363 . S
C972 C978 1.379 . S
C972 N980 1.356 . S
C973 C972 1.363 . S
C973 C979 1.363 . S
C974 C975 1.363 . S
C974 C979 1.379 . S
C974 N981 1.356 . S
C975 C974 1.363 . S
C975 C978 1.363 . S
N976 C978 1.356 . S
N976 H988 0.984 . S
N976 H989 0.985 . S
N977 C979 1.356 . S
N977 H982 0.984 . S
N977 H983 0.985 . S
C978 C972 1.379 . S
C978 C975 1.363 . S
C978 N976 1.356 . S
C979 C973 1.363 . S
C979 C974 1.379 . S
C979 N977 1.356 . S
N980 C972 1.356 . S
N980 H986 0.984 . S
N980 H987 0.984 . S
N981 C974 1.356 . S
N981 H984 0.984 . S
N981 H985 0.985 . S
H982 N977 0.984 . S
H983 N977 0.985 . S
H984 N981 0.984 . S
H985 N981 0.985 . S
H986 N980 0.984 . S
H987 N980 0.984 . S
H988 N976 0.984 . S
H989 N976 0.985 . S
C990 C991 1.363 . S
C990 C996 1.379 . S
C990 N998 1.356 . S
C991 C990 1.363 . S
C991 C997 1.363 . S
C992 C993 1.363 . S
C992 C997 1.379 . S
C992 N999 1.356 . S
C993 C992 1.363 . S
C993 C996 1.363 . S
N994 C996 1.356 . S
N994 H1006 0.984 . S
N994 H1007 0.985 . S
N995 C997 1.356 . S
N995 H1000 0.984 . S
N995 H1001 0.985 . S
C996 C990 1.379 . S
C996 C993 1.363 . S
C996 N994 1.356 . S
C997 C991 1.363 . S
C997 C992 1.379 . S
C997 N995 1.356 . S
N998 C990 1.356 . S
N998 H1004 0.984 . S
N998 H1005 0.984 . S
N999 C992 1.356 . S
N999 H1002 0.984 . S
N999 H1003 0.985 . S
H1000 N995 0.984 . S
H1001 N995 0.985 . S
H1002 N999 0.984 . S
H1003 N999 0.985 . S
H1004 N998 0.984 . S
H1005 N998 0.984 . S
H1006 N994 0.984 . S
H1007 N994 0.985 . S
C1008 C1009 1.363 . S
C1008 C1014 1.379 . S
C1008 N1016 1.356 . S
C1009 C1008 1.363 . S
C1009 C1015 1.363 . S
C1010 C1011 1.363 . S
C1010 C1015 1.379 . S
C1010 N1017 1.356 . S
C1011 C1010 1.363 . S
C1011 C1014 1.363 . S
N1012 C1014 1.356 . S
N1012 H1024 0.984 . S
N1012 H1025 0.985 . S
N1013 C1015 1.356 . S
N1013 H1018 0.984 . S
N1013 H1019 0.985 . S
C1014 C1008 1.379 . S
C1014 C1011 1.363 . S
C1014 N1012 1.356 . S
C1015 C1009 1.363 . S
C1015 C1010 1.379 . S
C1015 N1013 1.356 . S
N1016 C1008 1.356 . S
N1016 H1022 0.984 . S
N1016 H1023 0.984 . S
N1017 C1010 1.356 . S
N1017 H1020 0.984 . S
N1017 H1021 0.985 . S
H1018 N1013 0.984 . S
H1019 N1013 0.985 . S
H1020 N1017 0.984 . S
H1021 N1017 0.985 . S
H1022 N1016 0.984 . S
H1023 N1016 0.984 . S
H1024 N1012 0.984 . S
H1025 N1012 0.985 . S
C1026 C1027 1.363 . S
C1026 C1032 1.379 . S
C1026 N1034 1.356 . S
C1027 C1026 1.363 . S
C1027 C1033 1.363 . S
C1028 C1029 1.363 . S
C1028 C1033 1.379 . S
C1028 N1035 1.356 . S
C1029 C1028 1.363 . S
C1029 C1032 1.363 . S
N1030 C1032 1.356 . S
N1030 H1042 0.984 . S
N1030 H1043 0.985 . S
N1031 C1033 1.356 . S
N1031 H1036 0.984 . S
N1031 H1037 0.985 . S
C1032 C1026 1.379 . S
C1032 C1029 1.363 . S
C1032 N1030 1.356 . S
C1033 C1027 1.363 . S
C1033 C1028 1.379 . S
C1033 N1031 1.356 . S
N1034 C1026 1.356 . S
N1034 H1040 0.984 . S
N1034 H1041 0.984 . S
N1035 C1028 1.356 . S
N1035 H1038 0.984 . S
N1035 H1039 0.985 . S
H1036 N1031 0.984 . S
H1037 N1031 0.985 . S
H1038 N1035 0.984 . S
H1039 N1035 0.985 . S
H1040 N1034 0.984 . S
H1041 N1034 0.984 . S
H1042 N1030 0.984 . S
H1043 N1030 0.985 . S
C1044 C1045 1.363 . S
C1044 C1050 1.379 . S
C1044 N1052 1.356 . S
C1045 C1044 1.363 . S
C1045 C1051 1.363 . S
C1046 C1047 1.363 . S
C1046 C1051 1.379 . S
C1046 N1053 1.356 . S
C1047 C1046 1.363 . S
C1047 C1050 1.363 . S
N1048 C1050 1.356 . S
N1048 H1060 0.984 . S
N1048 H1061 0.985 . S
N1049 C1051 1.356 . S
N1049 H1054 0.984 . S
N1049 H1055 0.985 . S
C1050 C1044 1.379 . S
C1050 C1047 1.363 . S
C1050 N1048 1.356 . S
C1051 C1045 1.363 . S
C1051 C1046 1.379 . S
C1051 N1049 1.356 . S
N1052 C1044 1.356 . S
N1052 H1058 0.984 . S
N1052 H1059 0.984 . S
N1053 C1046 1.356 . S
N1053 H1056 0.984 . S
N1053 H1057 0.985 . S
H1054 N1049 0.984 . S
H1055 N1049 0.985 . S
H1056 N1053 0.984 . S
H1057 N1053 0.985 . S
H1058 N1052 0.984 . S
H1059 N1052 0.984 . S
H1060 N1048 0.984 . S
H1061 N1048 0.985 . S
C1062 C1063 1.363 . S
C1062 C1068 1.379 . S
C1062 N1070 1.356 . S
C1063 C1062 1.363 . S
C1063 C1069 1.363 . S
C1064 C1065 1.363 . S
C1064 C1069 1.379 . S
C1064 N1071 1.356 . S
C1065 C1064 1.363 . S
C1065 C1068 1.363 . S
N1066 C1068 1.356 . S
N1066 H1078 0.984 . S
N1066 H1079 0.985 . S
N1067 C1069 1.356 . S
N1067 H1072 0.984 . S
N1067 H1073 0.985 . S
C1068 C1062 1.379 . S
C1068 C1065 1.363 . S
C1068 N1066 1.356 . S
C1069 C1063 1.363 . S
C1069 C1064 1.379 . S
C1069 N1067 1.356 . S
N1070 C1062 1.356 . S
N1070 H1076 0.984 . S
N1070 H1077 0.984 . S
N1071 C1064 1.356 . S
N1071 H1074 0.984 . S
N1071 H1075 0.985 . S
H1072 N1067 0.984 . S
H1073 N1067 0.985 . S
H1074 N1071 0.984 . S
H1075 N1071 0.985 . S
H1076 N1070 0.984 . S
H1077 N1070 0.984 . S
H1078 N1066 0.984 . S
H1079 N1066 0.985 . S
C1080 C1081 1.363 . S
C1080 C1086 1.379 . S
C1080 N1088 1.356 . S
C1081 C1080 1.363 . S
C1081 C1087 1.363 . S
C1082 C1083 1.363 . S
C1082 C1087 1.379 . S
C1082 N1089 1.356 . S
C1083 C1082 1.363 . S
C1083 C1086 1.363 . S
N1084 C1086 1.356 . S
N1084 H1096 0.984 . S
N1084 H1097 0.985 . S
N1085 C1087 1.356 . S
N1085 H1090 0.984 . S
N1085 H1091 0.985 . S
C1086 C1080 1.379 . S
C1086 C1083 1.363 . S
C1086 N1084 1.356 . S
C1087 C1081 1.363 . S
C1087 C1082 1.379 . S
C1087 N1085 1.356 . S
N1088 C1080 1.356 . S
N1088 H1094 0.984 . S
N1088 H1095 0.984 . S
N1089 C1082 1.356 . S
N1089 H1092 0.984 . S
N1089 H1093 0.985 . S
H1090 N1085 0.984 . S
H1091 N1085 0.985 . S
H1092 N1089 0.984 . S
H1093 N1089 0.985 . S
H1094 N1088 0.984 . S
H1095 N1088 0.984 . S
H1096 N1084 0.984 . S
H1097 N1084 0.985 . S
C1098 C1099 1.363 . S
C1098 C1104 1.379 . S
C1098 N1106 1.356 . S
C1099 C1098 1.363 . S
C1099 C1105 1.363 . S
C1100 C1101 1.363 . S
C1100 C1105 1.379 . S
C1100 N1107 1.356 . S
C1101 C1100 1.363 . S
C1101 C1104 1.363 . S
N1102 C1104 1.356 . S
N1102 H1114 0.984 . S
N1102 H1115 0.985 . S
N1103 C1105 1.356 . S
N1103 H1108 0.984 1_554 S
N1103 H1109 0.985 . S
C1104 C1098 1.379 . S
C1104 C1101 1.363 . S
C1104 N1102 1.356 . S
C1105 C1099 1.363 . S
C1105 C1100 1.379 . S
C1105 N1103 1.356 . S
N1106 C1098 1.356 . S
N1106 H1112 0.984 . S
N1106 H1113 0.984 1_554 S
N1107 C1100 1.356 . S
N1107 H1110 0.984 . S
N1107 H1111 0.985 . S
H1108 N1103 0.984 1_556 S
H1109 N1103 0.985 . S
H1110 N1107 0.984 . S
H1111 N1107 0.985 . S
H1112 N1106 0.984 . S
H1113 N1106 0.984 1_556 S
H1114 N1102 0.984 . S
H1115 N1102 0.985 . S
C1116 C1117 1.363 . S
C1116 C1122 1.379 . S
C1116 N1124 1.356 . S
C1117 C1116 1.363 . S
C1117 C1123 1.363 . S
C1118 C1119 1.363 . S
C1118 C1123 1.379 . S
C1118 N1125 1.356 . S
C1119 C1118 1.363 . S
C1119 C1122 1.363 . S
N1120 C1122 1.356 . S
N1120 H1132 0.984 . S
N1120 H1133 0.985 . S
N1121 C1123 1.356 1_556 S
N1121 H1126 0.984 . S
N1121 H1127 0.985 . S
C1122 C1116 1.379 . S
C1122 C1119 1.363 . S
C1122 N1120 1.356 . S
C1123 C1117 1.363 . S
C1123 C1118 1.379 . S
C1123 N1121 1.356 1_554 S
N1124 C1116 1.356 . S
N1124 H1130 0.984 . S
N1124 H1131 0.984 . S
N1125 C1118 1.356 . S
N1125 H1128 0.984 . S
N1125 H1129 0.985 . S
H1126 N1121 0.984 . S
H1127 N1121 0.985 . S
H1128 N1125 0.984 . S
H1129 N1125 0.985 . S
H1130 N1124 0.984 . S
H1131 N1124 0.984 . S
H1132 N1120 0.984 . S
H1133 N1120 0.985 . S
C1134 C1135 1.363 . S
C1134 C1140 1.379 . S
C1134 N1142 1.356 1_554 S
C1135 C1134 1.363 . S
C1135 C1141 1.363 . S
C1136 C1137 1.363 . S
C1136 C1141 1.379 . S
C1136 N1143 1.356 . S
C1137 C1136 1.363 . S
C1137 C1140 1.363 . S
N1138 C1140 1.356 . S
N1138 H1150 0.984 . S
N1138 H1151 0.985 . S
N1139 C1141 1.356 . S
N1139 H1144 0.984 . S
N1139 H1145 0.985 . S
C1140 C1134 1.379 . S
C1140 C1137 1.363 . S
C1140 N1138 1.356 . S
C1141 C1135 1.363 . S
C1141 C1136 1.379 . S
C1141 N1139 1.356 . S
N1142 C1134 1.356 1_556 S
N1142 H1148 0.984 . S
N1142 H1149 0.984 . S
N1143 C1136 1.356 . S
N1143 H1146 0.984 . S
N1143 H1147 0.985 . S
H1144 N1139 0.984 . S
H1145 N1139 0.985 . S
H1146 N1143 0.984 . S
H1147 N1143 0.985 . S
H1148 N1142 0.984 . S
H1149 N1142 0.984 . S
H1150 N1138 0.984 . S
H1151 N1138 0.985 . S
C1152 C1153 1.363 . S
C1152 C1158 1.379 . S
C1152 N1160 1.356 . S
C1153 C1152 1.363 . S
C1153 C1159 1.363 . S
C1154 C1155 1.363 . S
C1154 C1159 1.379 . S
C1154 N1161 1.356 . S
C1155 C1154 1.363 . S
C1155 C1158 1.363 . S
N1156 C1158 1.356 1_554 S
N1156 H1168 0.984 . S
N1156 H1169 0.985 . S
N1157 C1159 1.356 . S
N1157 H1162 0.984 . S
N1157 H1163 0.985 . S
C1158 C1152 1.379 . S
C1158 C1155 1.363 . S
C1158 N1156 1.356 1_556 S
C1159 C1153 1.363 . S
C1159 C1154 1.379 . S
C1159 N1157 1.356 . S
N1160 C1152 1.356 . S
N1160 H1166 0.984 . S
N1160 H1167 0.984 . S
N1161 C1154 1.356 . S
N1161 H1164 0.984 1_556 S
N1161 H1165 0.985 . S
H1162 N1157 0.984 . S
H1163 N1157 0.985 . S
H1164 N1161 0.984 1_554 S
H1165 N1161 0.985 . S
H1166 N1160 0.984 . S
H1167 N1160 0.984 . S
H1168 N1156 0.984 . S
H1169 N1156 0.985 . S
C1170 C1171 1.363 . S
C1170 C1176 1.379 . S
C1170 N1178 1.356 . S
C1171 C1170 1.363 . S
C1171 C1177 1.363 . S
C1172 C1173 1.363 . S
C1172 C1177 1.379 . S
C1172 N1179 1.356 . S
C1173 C1172 1.363 . S
C1173 C1176 1.363 . S
N1174 C1176 1.356 1_554 S
N1174 H1186 0.984 . S
N1174 H1187 0.985 . S
N1175 C1177 1.356 . S
N1175 H1180 0.984 . S
N1175 H1181 0.985 . S
C1176 C1170 1.379 . S
C1176 C1173 1.363 . S
C1176 N1174 1.356 1_556 S
C1177 C1171 1.363 . S
C1177 C1172 1.379 . S
C1177 N1175 1.356 . S
N1178 C1170 1.356 . S
N1178 H1184 0.984 . S
N1178 H1185 0.984 . S
N1179 C1172 1.356 . S
N1179 H1182 0.984 1_556 S
N1179 H1183 0.985 . S
H1180 N1175 0.984 . S
H1181 N1175 0.985 . S
H1182 N1179 0.984 1_554 S
H1183 N1179 0.985 . S
H1184 N1178 0.984 . S
H1185 N1178 0.984 . S
H1186 N1174 0.984 . S
H1187 N1174 0.985 . S
C1188 C1189 1.363 . S
C1188 C1194 1.379 . S
C1188 N1196 1.356 . S
C1189 C1188 1.363 . S
C1189 C1195 1.363 . S
C1190 C1191 1.363 . S
C1190 C1195 1.379 . S
C1190 N1197 1.356 . S
C1191 C1190 1.363 . S
C1191 C1194 1.363 . S
N1192 C1194 1.356 1_554 S
N1192 H1204 0.984 . S
N1192 H1205 0.985 . S
N1193 C1195 1.356 . S
N1193 H1198 0.984 . S
N1193 H1199 0.985 . S
C1194 C1188 1.379 . S
C1194 C1191 1.363 . S
C1194 N1192 1.356 1_556 S
C1195 C1189 1.363 . S
C1195 C1190 1.379 . S
C1195 N1193 1.356 . S
N1196 C1188 1.356 . S
N1196 H1202 0.984 . S
N1196 H1203 0.984 . S
N1197 C1190 1.356 . S
N1197 H1200 0.984 . S
N1197 H1201 0.985 . S
H1198 N1193 0.984 . S
H1199 N1193 0.985 . S
H1200 N1197 0.984 . S
H1201 N1197 0.985 . S
H1202 N1196 0.984 . S
H1203 N1196 0.984 . S
H1204 N1192 0.984 . S
H1205 N1192 0.985 . S
C1206 C1207 1.363 . S
C1206 C1212 1.379 . S
C1206 N1214 1.356 . S
C1207 C1206 1.363 . S
C1207 C1213 1.363 . S
C1208 C1209 1.363 . S
C1208 C1213 1.379 . S
C1208 N1215 1.356 . S
C1209 C1208 1.363 . S
C1209 C1212 1.363 . S
N1210 C1212 1.356 . S
N1210 H1222 0.984 . S
N1210 H1223 0.985 . S
N1211 C1213 1.356 . S
N1211 H1216 0.984 . S
N1211 H1217 0.985 . S
C1212 C1206 1.379 . S
C1212 C1209 1.363 . S
C1212 N1210 1.356 . S
C1213 C1207 1.363 . S
C1213 C1208 1.379 . S
C1213 N1211 1.356 . S
N1214 C1206 1.356 . S
N1214 H1220 0.984 . S
N1214 H1221 0.984 . S
N1215 C1208 1.356 . S
N1215 H1218 0.984 . S
N1215 H1219 0.985 . S
H1216 N1211 0.984 . S
H1217 N1211 0.985 . S
H1218 N1215 0.984 . S
H1219 N1215 0.985 . S
H1220 N1214 0.984 . S
H1221 N1214 0.984 . S
H1222 N1210 0.984 . S
H1223 N1210 0.985 . S
C1224 C1225 1.363 . S
C1224 C1230 1.379 . S
C1224 N1232 1.356 . S
C1225 C1224 1.363 . S
C1225 C1231 1.363 . S
C1226 C1227 1.363 . S
C1226 C1231 1.379 . S
C1226 N1233 1.356 . S
C1227 C1226 1.363 . S
C1227 C1230 1.363 . S
N1228 C1230 1.356 . S
N1228 H1240 0.984 . S
N1228 H1241 0.985 . S
N1229 C1231 1.356 . S
N1229 H1234 0.984 . S
N1229 H1235 0.985 . S
C1230 C1224 1.379 . S
C1230 C1227 1.363 . S
C1230 N1228 1.356 . S
C1231 C1225 1.363 . S
C1231 C1226 1.379 . S
C1231 N1229 1.356 . S
N1232 C1224 1.356 . S
N1232 H1238 0.984 . S
N1232 H1239 0.984 . S
N1233 C1226 1.356 . S
N1233 H1236 0.984 . S
N1233 H1237 0.985 . S
H1234 N1229 0.984 . S
H1235 N1229 0.985 . S
H1236 N1233 0.984 . S
H1237 N1233 0.985 . S
H1238 N1232 0.984 . S
H1239 N1232 0.984 . S
H1240 N1228 0.984 . S
H1241 N1228 0.985 . S
C1242 C1243 1.363 . S
C1242 C1248 1.379 . S
C1242 N1250 1.356 . S
C1243 C1242 1.363 . S
C1243 C1249 1.363 . S
C1244 C1245 1.363 . S
C1244 C1249 1.379 . S
C1244 N1251 1.356 . S
C1245 C1244 1.363 . S
C1245 C1248 1.363 . S
N1246 C1248 1.356 . S
N1246 H1258 0.984 . S
N1246 H1259 0.985 . S
N1247 C1249 1.356 . S
N1247 H1252 0.984 . S
N1247 H1253 0.985 . S
C1248 C1242 1.379 . S
C1248 C1245 1.363 . S
C1248 N1246 1.356 . S
C1249 C1243 1.363 . S
C1249 C1244 1.379 . S
C1249 N1247 1.356 . S
N1250 C1242 1.356 . S
N1250 H1256 0.984 . S
N1250 H1257 0.984 . S
N1251 C1244 1.356 . S
N1251 H1254 0.984 . S
N1251 H1255 0.985 . S
H1252 N1247 0.984 . S
H1253 N1247 0.985 . S
H1254 N1251 0.984 . S
H1255 N1251 0.985 . S
H1256 N1250 0.984 . S
H1257 N1250 0.984 . S
H1258 N1246 0.984 . S
H1259 N1246 0.985 . S
C1260 C1261 1.363 . S
C1260 C1266 1.379 . S
C1260 N1268 1.356 . S
C1261 C1260 1.363 . S
C1261 C1267 1.363 . S
C1262 C1263 1.363 . S
C1262 C1267 1.379 . S
C1262 N1269 1.356 . S
C1263 C1262 1.363 . S
C1263 C1266 1.363 . S
N1264 C1266 1.356 . S
N1264 H1276 0.984 1_565 S
N1264 H1277 0.985 1_565 S
N1265 C1267 1.356 . S
N1265 H1270 0.984 . S
N1265 H1271 0.985 . S
C1266 C1260 1.379 . S
C1266 C1263 1.363 . S
C1266 N1264 1.356 . S
C1267 C1261 1.363 . S
C1267 C1262 1.379 . S
C1267 N1265 1.356 . S
N1268 C1260 1.356 . S
N1268 H1274 0.984 . S
N1268 H1275 0.984 . S
N1269 C1262 1.356 . S
N1269 H1272 0.984 . S
N1269 H1273 0.985 . S
H1270 N1265 0.984 . S
H1271 N1265 0.985 . S
H1272 N1269 0.984 . S
H1273 N1269 0.985 . S
H1274 N1268 0.984 . S
H1275 N1268 0.984 . S
H1276 N1264 0.984 1_545 S
H1277 N1264 0.985 1_545 S
C1278 C1279 1.363 . S
C1278 C1284 1.379 . S
C1278 N1286 1.356 1_556 S
C1279 C1278 1.363 . S
C1279 C1285 1.363 . S
C1280 C1281 1.363 . S
C1280 C1285 1.379 . S
C1280 N1287 1.356 . S
C1281 C1280 1.363 . S
C1281 C1284 1.363 . S
N1282 C1284 1.356 . S
N1282 H1294 0.984 1_556 S
N1282 H1295 0.985 . S
N1283 C1285 1.356 . S
N1283 H1288 0.976 1_455 S
N1283 H1289 0.985 1_455 S
C1284 C1278 1.379 . S
C1284 C1281 1.363 . S
C1284 N1282 1.356 . S
C1285 C1279 1.363 . S
C1285 C1280 1.379 . S
C1285 N1283 1.356 . S
N1286 C1278 1.356 1_554 S
N1286 H1292 0.984 . S
N1286 H1293 0.984 . S
N1287 C1280 1.356 . S
N1287 H1290 0.984 . S
N1287 H1291 0.985 . S
H1288 N1283 0.976 1_655 S
H1289 N1283 0.985 1_655 S
H1290 N1287 0.984 . S
H1291 N1287 0.985 . S
H1292 N1286 0.984 . S
H1293 N1286 0.984 . S
H1294 N1282 0.984 1_554 S
H1295 N1282 0.985 . S
C1296 C1297 1.363 . S
C1296 C1302 1.379 . S
C1296 N1304 1.356 . S
C1297 C1296 1.363 . S
C1297 C1303 1.363 . S
C1298 C1299 1.363 . S
C1298 C1303 1.379 . S
C1298 N1305 1.356 . S
C1299 C1298 1.363 . S
C1299 C1302 1.363 . S
N1300 C1302 1.356 . S
N1300 H1312 0.984 . S
N1300 H1313 0.985 . S
N1301 C1303 1.356 . S
N1301 H1306 0.984 . S
N1301 H1307 0.985 . S
C1302 C1296 1.379 . S
C1302 C1299 1.363 . S
C1302 N1300 1.356 . S
C1303 C1297 1.363 . S
C1303 C1298 1.379 . S
C1303 N1301 1.356 . S
N1304 C1296 1.356 . S
N1304 H1310 0.984 . S
N1304 H1311 0.984 . S
N1305 C1298 1.356 . S
N1305 H1308 0.984 1_556 S
N1305 H1309 0.985 1_556 S
H1306 N1301 0.984 . S
H1307 N1301 0.985 . S
H1308 N1305 0.984 1_554 S
H1309 N1305 0.985 1_554 S
H1310 N1304 0.984 . S
H1311 N1304 0.984 . S
H1312 N1300 0.984 . S
H1313 N1300 0.985 . S
C1314 C1315 1.363 . S
C1314 C1320 1.379 . S
C1314 N1322 1.356 . S
C1315 C1314 1.363 . S
C1315 C1321 1.363 . S
C1316 C1317 1.363 . S
C1316 C1321 1.379 . S
C1316 N1323 1.356 . S
C1317 C1316 1.363 . S
C1317 C1320 1.363 . S
N1318 C1320 1.356 . S
N1318 H1330 0.984 . S
N1318 H1331 0.985 . S
N1319 C1321 1.356 . S
N1319 H1324 0.984 . S
N1319 H1325 0.985 . S
C1320 C1314 1.379 . S
C1320 C1317 1.363 . S
C1320 N1318 1.356 . S
C1321 C1315 1.363 . S
C1321 C1316 1.379 . S
C1321 N1319 1.356 . S
N1322 C1314 1.356 . S
N1322 H1328 0.984 . S
N1322 H1329 0.984 . S
N1323 C1316 1.356 . S
N1323 H1326 0.984 . S
N1323 H1327 0.985 . S
H1324 N1319 0.984 . S
H1325 N1319 0.985 . S
H1326 N1323 0.984 . S
H1327 N1323 0.985 . S
H1328 N1322 0.984 . S
H1329 N1322 0.984 . S
H1330 N1318 0.984 . S
H1331 N1318 0.985 . S
C1332 C1333 1.363 . S
C1332 C1338 1.379 . S
C1332 N1340 1.356 . S
C1333 C1332 1.363 . S
C1333 C1339 1.363 . S
C1334 C1335 1.363 . S
C1334 C1339 1.379 . S
C1334 N1341 1.356 . S
C1335 C1334 1.363 . S
C1335 C1338 1.363 . S
N1336 C1338 1.356 . S
N1336 H1348 0.984 . S
N1336 H1349 0.985 . S
N1337 C1339 1.356 . S
N1337 H1342 0.984 . S
N1337 H1343 0.985 . S
C1338 C1332 1.379 . S
C1338 C1335 1.363 . S
C1338 N1336 1.356 . S
C1339 C1333 1.363 . S
C1339 C1334 1.379 . S
C1339 N1337 1.356 . S
N1340 C1332 1.356 . S
N1340 H1346 0.984 . S
N1340 H1347 0.984 . S
N1341 C1334 1.356 . S
N1341 H1344 0.984 . S
N1341 H1345 0.985 . S
H1342 N1337 0.984 . S
H1343 N1337 0.985 . S
H1344 N1341 0.984 . S
H1345 N1341 0.985 . S
H1346 N1340 0.984 . S
H1347 N1340 0.984 . S
H1348 N1336 0.984 . S
H1349 N1336 0.985 . S
C1350 C1351 1.363 . S
C1350 C1356 1.379 . S
C1350 N1358 1.356 . S
C1351 C1350 1.363 . S
C1351 C1357 1.363 . S
C1352 C1353 1.363 . S
C1352 C1357 1.379 . S
C1352 N1359 1.356 . S
C1353 C1352 1.363 . S
C1353 C1356 1.363 . S
N1354 C1356 1.356 . S
N1354 H1366 0.984 . S
N1354 H1367 0.985 . S
N1355 C1357 1.356 . S
N1355 H1360 0.984 . S
N1355 H1361 0.985 . S
C1356 C1350 1.379 . S
C1356 C1353 1.363 . S
C1356 N1354 1.356 . S
C1357 C1351 1.363 . S
C1357 C1352 1.379 . S
C1357 N1355 1.356 . S
N1358 C1350 1.356 . S
N1358 H1364 0.984 . S
N1358 H1365 0.984 . S
N1359 C1352 1.356 . S
N1359 H1362 0.984 . S
N1359 H1363 0.985 . S
H1360 N1355 0.984 . S
H1361 N1355 0.985 . S
H1362 N1359 0.984 . S
H1363 N1359 0.985 . S
H1364 N1358 0.984 . S
H1365 N1358 0.984 . S
H1366 N1354 0.984 . S
H1367 N1354 0.985 . S
C1368 C1369 1.363 . S
C1368 C1374 1.379 . S
C1368 N1376 1.356 . S
C1369 C1368 1.363 . S
C1369 C1375 1.363 . S
C1370 C1371 1.363 . S
C1370 C1375 1.379 . S
C1370 N1377 1.356 . S
C1371 C1370 1.363 . S
C1371 C1374 1.363 . S
N1372 C1374 1.356 1_655 S
N1372 H1384 0.984 . S
N1372 H1385 0.985 . S
N1373 C1375 1.356 . S
N1373 H1378 0.984 . S
N1373 H1379 0.985 . S
C1374 C1368 1.379 . S
C1374 C1371 1.363 . S
C1374 N1372 1.356 1_455 S
C1375 C1369 1.363 . S
C1375 C1370 1.379 . S
C1375 N1373 1.356 . S
N1376 C1368 1.356 . S
N1376 H1382 0.984 . S
N1376 H1383 0.984 . S
N1377 C1370 1.356 . S
N1377 H1380 0.984 . S
N1377 H1381 0.985 . S
H1378 N1373 0.984 . S
H1379 N1373 0.985 . S
H1380 N1377 0.984 . S
H1381 N1377 0.985 . S
H1382 N1376 0.984 . S
H1383 N1376 0.984 . S
H1384 N1372 0.984 . S
H1385 N1372 0.985 . S
C1386 C1387 1.363 . S
C1386 C1392 1.379 . S
C1386 N1394 1.356 . S
C1387 C1386 1.363 . S
C1387 C1393 1.363 . S
C1388 C1389 1.363 . S
C1388 C1393 1.379 . S
C1388 N1395 1.356 . S
C1389 C1388 1.363 . S
C1389 C1392 1.363 . S
N1390 C1392 1.356 . S
N1390 H1402 0.984 . S
N1390 H1403 0.985 . S
N1391 C1393 1.356 . S
N1391 H1396 0.984 . S
N1391 H1397 0.985 . S
C1392 C1386 1.379 . S
C1392 C1389 1.363 . S
C1392 N1390 1.356 . S
C1393 C1387 1.363 . S
C1393 C1388 1.379 . S
C1393 N1391 1.356 . S
N1394 C1386 1.356 . S
N1394 H1400 0.984 . S
N1394 H1401 0.984 . S
N1395 C1388 1.356 . S
N1395 H1398 0.984 . S
N1395 H1399 0.985 . S
H1396 N1391 0.984 . S
H1397 N1391 0.985 . S
H1398 N1395 0.984 . S
H1399 N1395 0.985 . S
H1400 N1394 0.984 . S
H1401 N1394 0.984 . S
H1402 N1390 0.984 . S
H1403 N1390 0.985 . S
C1404 C1405 1.363 . S
C1404 C1410 1.379 . S
C1404 N1412 1.356 . S
C1405 C1404 1.363 . S
C1405 C1411 1.363 . S
C1406 C1407 1.363 . S
C1406 C1411 1.379 . S
C1406 N1413 1.356 . S
C1407 C1406 1.363 . S
C1407 C1410 1.363 . S
N1408 C1410 1.356 . S
N1408 H1420 0.984 . S
N1408 H1421 0.985 1_565 S
N1409 C1411 1.356 . S
N1409 H1414 0.984 . S
N1409 H1415 0.985 . S
C1410 C1404 1.379 . S
C1410 C1407 1.363 . S
C1410 N1408 1.356 . S
C1411 C1405 1.363 . S
C1411 C1406 1.379 . S
C1411 N1409 1.356 . S
N1412 C1404 1.356 . S
N1412 H1418 0.984 . S
N1412 H1419 0.984 . S
N1413 C1406 1.356 . S
N1413 H1416 0.984 1_565 S
N1413 H1417 0.985 . S
H1414 N1409 0.984 . S
H1415 N1409 0.985 . S
H1416 N1413 0.984 1_545 S
H1417 N1413 0.985 . S
H1418 N1412 0.984 . S
H1419 N1412 0.984 . S
H1420 N1408 0.984 . S
H1421 N1408 0.985 1_545 S
C1422 C1423 1.363 . S
C1422 C1428 1.379 . S
C1422 N1430 1.356 1_565 S
C1423 C1422 1.363 . S
C1423 C1429 1.363 . S
C1424 C1425 1.363 . S
C1424 C1429 1.379 . S
C1424 N1431 1.356 . S
C1425 C1424 1.363 . S
C1425 C1428 1.363 . S
N1426 C1428 1.356 . S
N1426 H1438 0.984 . S
N1426 H1439 0.985 . S
N1427 C1429 1.356 . S
N1427 H1432 0.984 1_565 S
N1427 H1433 0.985 . S
C1428 C1422 1.379 . S
C1428 C1425 1.363 . S
C1428 N1426 1.356 . S
C1429 C1423 1.363 . S
C1429 C1424 1.379 . S
C1429 N1427 1.356 . S
N1430 C1422 1.356 1_545 S
N1430 H1436 0.984 . S
N1430 H1437 0.984 . S
N1431 C1424 1.356 . S
N1431 H1434 0.984 . S
N1431 H1435 0.985 . S
H1432 N1427 0.984 1_545 S
H1433 N1427 0.985 . S
H1434 N1431 0.984 . S
H1435 N1431 0.985 . S
H1436 N1430 0.984 . S
H1437 N1430 0.984 . S
H1438 N1426 0.984 . S
H1439 N1426 0.985 . S
C1440 C1441 1.363 . S
C1440 C1446 1.379 . S
C1440 N1448 1.356 1_455 S
C1441 C1440 1.363 . S
C1441 C1447 1.363 . S
C1442 C1443 1.363 . S
C1442 C1447 1.379 . S
C1442 N1449 1.356 . S
C1443 C1442 1.363 . S
C1443 C1446 1.363 . S
N1444 C1446 1.356 . S
N1444 H1456 0.984 . S
N1444 H1457 0.985 . S
N1445 C1447 1.356 . S
N1445 H1450 0.984 . S
N1445 H1451 0.985 . S
C1446 C1440 1.379 . S
C1446 C1443 1.363 . S
C1446 N1444 1.356 . S
C1447 C1441 1.363 . S
C1447 C1442 1.379 . S
C1447 N1445 1.356 . S
N1448 C1440 1.356 1_655 S
N1448 H1454 0.984 . S
N1448 H1455 0.984 . S
N1449 C1442 1.356 . S
N1449 H1452 0.984 . S
N1449 H1453 0.985 . S
H1450 N1445 0.984 . S
H1451 N1445 0.985 . S
H1452 N1449 0.984 . S
H1453 N1449 0.985 . S
H1454 N1448 0.984 . S
H1455 N1448 0.984 . S
H1456 N1444 0.984 . S
H1457 N1444 0.985 . S
C1458 C1459 1.363 . S
C1458 C1464 1.379 . S
C1458 N1466 1.356 . S
C1459 C1458 1.363 . S
C1459 C1465 1.363 . S
C1460 C1461 1.363 . S
C1460 C1465 1.379 . S
C1460 N1467 1.356 . S
C1461 C1460 1.363 . S
C1461 C1464 1.363 . S
N1462 C1464 1.356 . S
N1462 H1474 0.984 . S
N1462 H1475 0.985 . S
N1463 C1465 1.356 . S
N1463 H1468 0.984 . S
N1463 H1469 0.985 . S
C1464 C1458 1.379 . S
C1464 C1461 1.363 . S
C1464 N1462 1.356 . S
C1465 C1459 1.363 . S
C1465 C1460 1.379 . S
C1465 N1463 1.356 . S
N1466 C1458 1.356 . S
N1466 H1472 0.984 . S
N1466 H1473 0.984 . S
N1467 C1460 1.356 . S
N1467 H1470 0.984 . S
N1467 H1471 0.985 . S
H1468 N1463 0.984 . S
H1469 N1463 0.985 . S
H1470 N1467 0.984 . S
H1471 N1467 0.985 . S
H1472 N1466 0.984 . S
H1473 N1466 0.984 . S
H1474 N1462 0.984 . S
H1475 N1462 0.985 . S
C1476 C1477 1.363 . S
C1476 C1482 1.379 . S
C1476 N1484 1.356 . S
C1477 C1476 1.363 . S
C1477 C1483 1.363 . S
C1478 C1479 1.363 . S
C1478 C1483 1.379 . S
C1478 N1485 1.356 . S
C1479 C1478 1.363 . S
C1479 C1482 1.363 . S
N1480 C1482 1.356 . S
N1480 H1492 0.984 . S
N1480 H1493 0.985 . S
N1481 C1483 1.356 . S
N1481 H1486 0.984 . S
N1481 H1487 0.985 . S
C1482 C1476 1.379 . S
C1482 C1479 1.363 . S
C1482 N1480 1.356 . S
C1483 C1477 1.363 . S
C1483 C1478 1.379 . S
C1483 N1481 1.356 . S
N1484 C1476 1.356 . S
N1484 H1490 0.984 . S
N1484 H1491 0.984 . S
N1485 C1478 1.356 . S
N1485 H1488 0.984 . S
N1485 H1489 0.985 . S
H1486 N1481 0.984 . S
H1487 N1481 0.985 . S
H1488 N1485 0.984 . S
H1489 N1485 0.985 . S
H1490 N1484 0.984 . S
H1491 N1484 0.984 . S
H1492 N1480 0.984 . S
H1493 N1480 0.985 . S
C1494 C1495 1.363 . S
C1494 C1500 1.379 . S
C1494 N1502 1.356 . S
C1495 C1494 1.363 . S
C1495 C1501 1.363 . S
C1496 C1497 1.363 . S
C1496 C1501 1.379 . S
C1496 N1503 1.356 . S
C1497 C1496 1.363 . S
C1497 C1500 1.363 . S
N1498 C1500 1.356 . S
N1498 H1510 0.984 . S
N1498 H1511 0.985 . S
N1499 C1501 1.356 . S
N1499 H1504 0.984 . S
N1499 H1505 0.985 . S
C1500 C1494 1.379 . S
C1500 C1497 1.363 . S
C1500 N1498 1.356 . S
C1501 C1495 1.363 . S
C1501 C1496 1.379 . S
C1501 N1499 1.356 . S
N1502 C1494 1.356 . S
N1502 H1508 0.984 . S
N1502 H1509 0.984 . S
N1503 C1496 1.356 . S
N1503 H1506 0.984 . S
N1503 H1507 0.985 . S
H1504 N1499 0.984 . S
H1505 N1499 0.985 . S
H1506 N1503 0.984 . S
H1507 N1503 0.985 . S
H1508 N1502 0.984 . S
H1509 N1502 0.984 . S
H1510 N1498 0.984 . S
H1511 N1498 0.985 . S
C1512 C1513 1.363 . S
C1512 C1518 1.379 . S
C1512 N1520 1.356 . S
C1513 C1512 1.363 . S
C1513 C1519 1.363 . S
C1514 C1515 1.363 . S
C1514 C1519 1.379 . S
C1514 N1521 1.356 . S
C1515 C1514 1.363 . S
C1515 C1518 1.363 . S
N1516 C1518 1.356 . S
N1516 H1528 0.984 . S
N1516 H1529 0.985 . S
N1517 C1519 1.356 . S
N1517 H1522 0.984 . S
N1517 H1523 0.985 . S
C1518 C1512 1.379 . S
C1518 C1515 1.363 . S
C1518 N1516 1.356 . S
C1519 C1513 1.363 . S
C1519 C1514 1.379 . S
C1519 N1517 1.356 . S
N1520 C1512 1.356 . S
N1520 H1526 0.984 . S
N1520 H1527 0.984 . S
N1521 C1514 1.356 . S
N1521 H1524 0.984 . S
N1521 H1525 0.985 . S
H1522 N1517 0.984 . S
H1523 N1517 0.985 . S
H1524 N1521 0.984 . S
H1525 N1521 0.985 . S
H1526 N1520 0.984 . S
H1527 N1520 0.984 . S
H1528 N1516 0.984 . S
H1529 N1516 0.985 . S
C1530 C1531 1.363 . S
C1530 C1536 1.379 . S
C1530 N1538 1.356 . S
C1531 C1530 1.363 . S
C1531 C1537 1.363 . S
C1532 C1533 1.363 . S
C1532 C1537 1.379 . S
C1532 N1539 1.356 . S
C1533 C1532 1.363 . S
C1533 C1536 1.363 . S
N1534 C1536 1.356 1_556 S
N1534 H1546 0.984 . S
N1534 H1547 0.985 . S
N1535 C1537 1.356 . S
N1535 H1540 0.984 . S
N1535 H1541 0.985 . S
C1536 C1530 1.379 . S
C1536 C1533 1.363 . S
C1536 N1534 1.356 1_554 S
C1537 C1531 1.363 . S
C1537 C1532 1.379 . S
C1537 N1535 1.356 . S
N1538 C1530 1.356 . S
N1538 H1544 0.984 1_554 S
N1538 H1545 0.984 . S
N1539 C1532 1.356 . S
N1539 H1542 0.984 . S
N1539 H1543 0.985 . S
H1540 N1535 0.984 . S
H1541 N1535 0.985 . S
H1542 N1539 0.984 . S
H1543 N1539 0.985 . S
H1544 N1538 0.984 1_556 S
H1545 N1538 0.984 . S
H1546 N1534 0.984 . S
H1547 N1534 0.985 . S
C1548 C1549 1.363 . S
C1548 C1554 1.379 . S
C1548 N1556 1.356 . S
C1549 C1548 1.363 . S
C1549 C1555 1.363 . S
C1550 C1551 1.363 . S
C1550 C1555 1.379 . S
C1550 N1557 1.356 . S
C1551 C1550 1.363 . S
C1551 C1554 1.363 . S
N1552 C1554 1.356 . S
N1552 H1564 0.984 . S
N1552 H1565 0.985 . S
N1553 C1555 1.356 . S
N1553 H1558 0.984 . S
N1553 H1559 0.985 . S
C1554 C1548 1.379 . S
C1554 C1551 1.363 . S
C1554 N1552 1.356 . S
C1555 C1549 1.363 . S
C1555 C1550 1.379 . S
C1555 N1553 1.356 . S
N1556 C1548 1.356 . S
N1556 H1562 0.984 . S
N1556 H1563 0.984 . S
N1557 C1550 1.356 . S
N1557 H1560 0.984 . S
N1557 H1561 0.985 . S
H1558 N1553 0.984 . S
H1559 N1553 0.985 . S
H1560 N1557 0.984 . S
H1561 N1557 0.985 . S
H1562 N1556 0.984 . S
H1563 N1556 0.984 . S
H1564 N1552 0.984 . S
H1565 N1552 0.985 . S
C1566 C1567 1.363 . S
C1566 C1572 1.379 . S
C1566 N1574 1.356 . S
C1567 C1566 1.363 . S
C1567 C1573 1.363 . S
C1568 C1569 1.363 . S
C1568 C1573 1.379 . S
C1568 N1575 1.356 . S
C1569 C1568 1.363 . S
C1569 C1572 1.363 . S
N1570 C1572 1.356 . S
N1570 H1582 0.984 . S
N1570 H1583 0.985 . S
N1571 C1573 1.356 1_556 S
N1571 H1576 0.984 . S
N1571 H1577 0.985 . S
C1572 C1566 1.379 . S
C1572 C1569 1.363 . S
C1572 N1570 1.356 . S
C1573 C1567 1.363 . S
C1573 C1568 1.379 . S
C1573 N1571 1.356 1_554 S
N1574 C1566 1.356 . S
N1574 H1580 0.984 . S
N1574 H1581 0.984 . S
N1575 C1568 1.356 . S
N1575 H1578 0.984 . S
N1575 H1579 0.985 1_554 S
H1576 N1571 0.984 . S
H1577 N1571 0.985 . S
H1578 N1575 0.984 . S
H1579 N1575 0.985 1_556 S
H1580 N1574 0.984 . S
H1581 N1574 0.984 . S
H1582 N1570 0.984 . S
H1583 N1570 0.985 . S
C613 C17 0.749 1_556 S
C615 C72 0.751 . S
C631 C4 0.751 . S
C633 C51 0.749 1_556 S
C649 C85 0.749 1_556 S
C651 C38 0.751 . S
C667 C149 0.751 . S
C669 C110 0.751 . S
C685 C183 0.751 . S
C687 C144 0.751 . S
C703 C178 0.751 . S
C705 C115 0.751 . S
C721 C276 0.751 . S
C723 C221 0.751 . S
C739 C255 0.751 . S
C741 C208 0.751 . S
C757 C242 0.751 . S
C759 C289 0.751 . S
C775 C314 0.751 . S
C777 C353 0.751 . S
C793 C387 0.751 . S
C795 C348 0.751 . S
C811 C382 0.751 . S
C813 C319 0.751 . S
C829 C480 0.751 . S
C831 C425 0.751 . S
C847 C459 0.751 . S
C849 C412 0.751 . S
C865 C493 0.751 . S
C867 C446 0.751 . S
C883 C518 0.751 . S
C885 C557 0.751 . S
C901 C591 0.751 . S
C903 C552 0.751 . S
C919 C523 0.751 . S
C921 C586 0.751 . S
C937 C170 1.400 . S
C939 C0 1.397 . S
C955 C102 1.400 . S
C957 C34 1.397 . S
C973 C136 1.400 . S
C975 C68 1.397 . S
C991 C63 1.400 . S
C993 C131 1.398 . S
C1009 C165 1.398 . S
C1011 C97 1.400 . S
C1027 C29 1.400 . S
C1029 C199 1.398 . S
C1045 C204 1.397 . S
C1047 C374 1.400 . S
C1063 C238 1.397 . S
C1065 C306 1.400 . S
C1081 C340 1.400 . S
C1083 C272 1.397 . S
C1099 C335 1.397 1_554 S
C1101 C267 1.400 . S
C1117 C369 1.397 1_554 S
C1119 C301 1.400 . S
C1135 C403 1.397 1_554 S
C1137 C233 1.400 . S
C1153 C408 1.397 . S
C1155 C578 1.400 1_556 S
C1171 C442 1.397 . S
C1173 C510 1.400 1_556 S
C1189 C476 1.397 . S
C1191 C544 1.400 1_556 S
C1207 C539 1.397 . S
C1209 C471 1.400 . S
C1225 C573 1.397 . S
C1227 C505 1.400 . S
C1243 C607 1.397 . S
C1245 C437 1.400 . S
C1261 C357 2.014 . S
C1263 C13 2.114 . S
C1279 C47 2.114 . S
C1281 C391 2.014 . S
C1297 C323 2.014 . S
C1299 C81 2.114 . S
C1315 C106 2.114 . S
C1317 C280 2.014 . S
C1333 C140 2.114 . S
C1335 C212 2.014 . S
C1351 C246 2.014 . S
C1353 C174 2.114 . S
C1369 C217 2.114 . S
C1371 C561 2.014 1_455 S
C1387 C251 2.114 . S
C1389 C595 2.014 . S
C1405 C285 2.114 . S
C1407 C527 2.014 1_565 S
C1423 C484 2.014 1_565 S
C1425 C310 2.114 . S
C1441 C416 2.014 1_455 S
C1443 C344 2.114 . S
C1459 C450 2.014 . S
C1461 C378 2.114 . S
C1477 C153 2.014 . S
C1479 C421 2.114 . S
C1495 C455 2.114 . S
C1497 C187 2.014 . S
C1513 C119 2.014 . S
C1515 C489 2.114 . S
C1531 C514 2.114 . S
C1533 C76 2.014 . S
C1549 C548 2.114 . S
C1551 C8 2.014 . S
C1567 C42 2.014 . S
C1569 C582 2.114 . S
