# Generated by pormake.
# Topology wip, (6)-cn, num edge types: 1
# Building blocks:
#     Node 0, Type 0, BuildingBlock: GEDQOX_clean_sbu_0, # of connection points: 6
#     Node 1, Type 0, BuildingBlock: GEDQOX_clean_sbu_0, # of connection points: 6
#     Node 2, Type 0, BuildingBlock: GEDQOX_clean_sbu_0, # of connection points: 6
#     Node 3, Type 0, BuildingBlock: GEDQOX_clean_sbu_0, # of connection points: 6
#     Node 4, Type 0, BuildingBlock: GEDQOX_clean_sbu_0, # of connection points: 6
#     Node 5, Type 0, BuildingBlock: GEDQOX_clean_sbu_0, # of connection points: 6
#     Node 6, Type 0, BuildingBlock: GEDQOX_clean_sbu_0, # of connection points: 6
#     Node 7, Type 0, BuildingBlock: GEDQOX_clean_sbu_0, # of connection points: 6
#     Node 8, Type 0, BuildingBlock: GEDQOX_clean_sbu_0, # of connection points: 6
#     Node 9, Type 0, BuildingBlock: GEDQOX_clean_sbu_0, # of connection points: 6
#     Node 10, Type 0, BuildingBlock: GEDQOX_clean_sbu_0, # of connection points: 6
#     Node 11, Type 0, BuildingBlock: GEDQOX_clean_sbu_0, # of connection points: 6
#     Node 12, Type 0, BuildingBlock: GEDQOX_clean_sbu_0, # of connection points: 6
#     Node 13, Type 0, BuildingBlock: GEDQOX_clean_sbu_0, # of connection points: 6
#     Node 14, Type 0, BuildingBlock: GEDQOX_clean_sbu_0, # of connection points: 6
#     Node 15, Type 0, BuildingBlock: GEDQOX_clean_sbu_0, # of connection points: 6
#     Node 16, Type 0, BuildingBlock: GEDQOX_clean_sbu_0, # of connection points: 6
#     Node 17, Type 0, BuildingBlock: GEDQOX_clean_sbu_0, # of connection points: 6
#     Node 18, Type 0, BuildingBlock: GEDQOX_clean_sbu_0, # of connection points: 6
#     Node 19, Type 0, BuildingBlock: GEDQOX_clean_sbu_0, # of connection points: 6
#     Node 20, Type 0, BuildingBlock: GEDQOX_clean_sbu_0, # of connection points: 6
#     Node 21, Type 0, BuildingBlock: GEDQOX_clean_sbu_0, # of connection points: 6
#     Node 22, Type 0, BuildingBlock: GEDQOX_clean_sbu_0, # of connection points: 6
#     Node 23, Type 0, BuildingBlock: GEDQOX_clean_sbu_0, # of connection points: 6
#     Node 24, Type 0, BuildingBlock: GEDQOX_clean_sbu_0, # of connection points: 6
#     Node 25, Type 0, BuildingBlock: GEDQOX_clean_sbu_0, # of connection points: 6
#     Node 26, Type 0, BuildingBlock: GEDQOX_clean_sbu_0, # of connection points: 6
#     Node 27, Type 0, BuildingBlock: GEDQOX_clean_sbu_0, # of connection points: 6
#     Node 28, Type 0, BuildingBlock: GEDQOX_clean_sbu_0, # of connection points: 6
#     Node 29, Type 0, BuildingBlock: GEDQOX_clean_sbu_0, # of connection points: 6
#     Node 30, Type 0, BuildingBlock: GEDQOX_clean_sbu_0, # of connection points: 6
#     Node 31, Type 0, BuildingBlock: GEDQOX_clean_sbu_0, # of connection points: 6
#     Edge 32, Type (0, 0), BuildingBlock: ZUJKAS_clean_linker_0, # of connection points: 2
#     Edge 33, Type (0, 0), BuildingBlock: ZUJKAS_clean_linker_0, # of connection points: 2
#     Edge 34, Type (0, 0), BuildingBlock: ZUJKAS_clean_linker_0, # of connection points: 2
#     Edge 35, Type (0, 0), BuildingBlock: ZUJKAS_clean_linker_0, # of connection points: 2
#     Edge 36, Type (0, 0), BuildingBlock: ZUJKAS_clean_linker_0, # of connection points: 2
#     Edge 37, Type (0, 0), BuildingBlock: ZUJKAS_clean_linker_0, # of connection points: 2
#     Edge 38, Type (0, 0), BuildingBlock: ZUJKAS_clean_linker_0, # of connection points: 2
#     Edge 39, Type (0, 0), BuildingBlock: ZUJKAS_clean_linker_0, # of connection points: 2
#     Edge 40, Type (0, 0), BuildingBlock: ZUJKAS_clean_linker_0, # of connection points: 2
#     Edge 41, Type (0, 0), BuildingBlock: ZUJKAS_clean_linker_0, # of connection points: 2
#     Edge 42, Type (0, 0), BuildingBlock: ZUJKAS_clean_linker_0, # of connection points: 2
#     Edge 43, Type (0, 0), BuildingBlock: ZUJKAS_clean_linker_0, # of connection points: 2
#     Edge 44, Type (0, 0), BuildingBlock: ZUJKAS_clean_linker_0, # of connection points: 2
#     Edge 45, Type (0, 0), BuildingBlock: ZUJKAS_clean_linker_0, # of connection points: 2
#     Edge 46, Type (0, 0), BuildingBlock: ZUJKAS_clean_linker_0, # of connection points: 2
#     Edge 47, Type (0, 0), BuildingBlock: ZUJKAS_clean_linker_0, # of connection points: 2
#     Edge 48, Type (0, 0), BuildingBlock: ZUJKAS_clean_linker_0, # of connection points: 2
#     Edge 49, Type (0, 0), BuildingBlock: ZUJKAS_clean_linker_0, # of connection points: 2
#     Edge 50, Type (0, 0), BuildingBlock: ZUJKAS_clean_linker_0, # of connection points: 2
#     Edge 51, Type (0, 0), BuildingBlock: ZUJKAS_clean_linker_0, # of connection points: 2
#     Edge 52, Type (0, 0), BuildingBlock: ZUJKAS_clean_linker_0, # of connection points: 2
#     Edge 53, Type (0, 0), BuildingBlock: ZUJKAS_clean_linker_0, # of connection points: 2
#     Edge 54, Type (0, 0), BuildingBlock: ZUJKAS_clean_linker_0, # of connection points: 2
#     Edge 55, Type (0, 0), BuildingBlock: ZUJKAS_clean_linker_0, # of connection points: 2
#     Edge 56, Type (0, 0), BuildingBlock: ZUJKAS_clean_linker_0, # of connection points: 2
#     Edge 57, Type (0, 0), BuildingBlock: ZUJKAS_clean_linker_0, # of connection points: 2
#     Edge 58, Type (0, 0), BuildingBlock: ZUJKAS_clean_linker_0, # of connection points: 2
#     Edge 59, Type (0, 0), BuildingBlock: ZUJKAS_clean_linker_0, # of connection points: 2
#     Edge 60, Type (0, 0), BuildingBlock: ZUJKAS_clean_linker_0, # of connection points: 2
#     Edge 61, Type (0, 0), BuildingBlock: ZUJKAS_clean_linker_0, # of connection points: 2
#     Edge 62, Type (0, 0), BuildingBlock: ZUJKAS_clean_linker_0, # of connection points: 2
#     Edge 63, Type (0, 0), BuildingBlock: ZUJKAS_clean_linker_0, # of connection points: 2
#     Edge 64, Type (0, 0), BuildingBlock: ZUJKAS_clean_linker_0, # of connection points: 2
#     Edge 65, Type (0, 0), BuildingBlock: ZUJKAS_clean_linker_0, # of connection points: 2
#     Edge 66, Type (0, 0), BuildingBlock: ZUJKAS_clean_linker_0, # of connection points: 2
#     Edge 67, Type (0, 0), BuildingBlock: ZUJKAS_clean_linker_0, # of connection points: 2
#     Edge 68, Type (0, 0), BuildingBlock: ZUJKAS_clean_linker_0, # of connection points: 2
#     Edge 69, Type (0, 0), BuildingBlock: ZUJKAS_clean_linker_0, # of connection points: 2
#     Edge 70, Type (0, 0), BuildingBlock: ZUJKAS_clean_linker_0, # of connection points: 2
#     Edge 71, Type (0, 0), BuildingBlock: ZUJKAS_clean_linker_0, # of connection points: 2
#     Edge 72, Type (0, 0), BuildingBlock: ZUJKAS_clean_linker_0, # of connection points: 2
#     Edge 73, Type (0, 0), BuildingBlock: ZUJKAS_clean_linker_0, # of connection points: 2
#     Edge 74, Type (0, 0), BuildingBlock: ZUJKAS_clean_linker_0, # of connection points: 2
#     Edge 75, Type (0, 0), BuildingBlock: ZUJKAS_clean_linker_0, # of connection points: 2
#     Edge 76, Type (0, 0), BuildingBlock: ZUJKAS_clean_linker_0, # of connection points: 2
#     Edge 77, Type (0, 0), BuildingBlock: ZUJKAS_clean_linker_0, # of connection points: 2
#     Edge 78, Type (0, 0), BuildingBlock: ZUJKAS_clean_linker_0, # of connection points: 2
#     Edge 79, Type (0, 0), BuildingBlock: ZUJKAS_clean_linker_0, # of connection points: 2
#     Edge 80, Type (0, 0), BuildingBlock: ZUJKAS_clean_linker_0, # of connection points: 2
#     Edge 81, Type (0, 0), BuildingBlock: ZUJKAS_clean_linker_0, # of connection points: 2
#     Edge 82, Type (0, 0), BuildingBlock: ZUJKAS_clean_linker_0, # of connection points: 2
#     Edge 83, Type (0, 0), BuildingBlock: ZUJKAS_clean_linker_0, # of connection points: 2
#     Edge 84, Type (0, 0), BuildingBlock: ZUJKAS_clean_linker_0, # of connection points: 2
#     Edge 85, Type (0, 0), BuildingBlock: ZUJKAS_clean_linker_0, # of connection points: 2
#     Edge 86, Type (0, 0), BuildingBlock: ZUJKAS_clean_linker_0, # of connection points: 2
#     Edge 87, Type (0, 0), BuildingBlock: ZUJKAS_clean_linker_0, # of connection points: 2
#     Edge 88, Type (0, 0), BuildingBlock: ZUJKAS_clean_linker_0, # of connection points: 2
#     Edge 89, Type (0, 0), BuildingBlock: ZUJKAS_clean_linker_0, # of connection points: 2
#     Edge 90, Type (0, 0), BuildingBlock: ZUJKAS_clean_linker_0, # of connection points: 2
#     Edge 91, Type (0, 0), BuildingBlock: ZUJKAS_clean_linker_0, # of connection points: 2
#     Edge 92, Type (0, 0), BuildingBlock: ZUJKAS_clean_linker_0, # of connection points: 2
#     Edge 93, Type (0, 0), BuildingBlock: ZUJKAS_clean_linker_0, # of connection points: 2
#     Edge 94, Type (0, 0), BuildingBlock: ZUJKAS_clean_linker_0, # of connection points: 2
#     Edge 95, Type (0, 0), BuildingBlock: ZUJKAS_clean_linker_0, # of connection points: 2
#     Edge 96, Type (0, 0), BuildingBlock: ZUJKAS_clean_linker_0, # of connection points: 2
#     Edge 97, Type (0, 0), BuildingBlock: ZUJKAS_clean_linker_0, # of connection points: 2
#     Edge 98, Type (0, 0), BuildingBlock: ZUJKAS_clean_linker_0, # of connection points: 2
#     Edge 99, Type (0, 0), BuildingBlock: ZUJKAS_clean_linker_0, # of connection points: 2
#     Edge 100, Type (0, 0), BuildingBlock: ZUJKAS_clean_linker_0, # of connection points: 2
#     Edge 101, Type (0, 0), BuildingBlock: ZUJKAS_clean_linker_0, # of connection points: 2
#     Edge 102, Type (0, 0), BuildingBlock: ZUJKAS_clean_linker_0, # of connection points: 2
#     Edge 103, Type (0, 0), BuildingBlock: ZUJKAS_clean_linker_0, # of connection points: 2
#     Edge 104, Type (0, 0), BuildingBlock: ZUJKAS_clean_linker_0, # of connection points: 2
#     Edge 105, Type (0, 0), BuildingBlock: ZUJKAS_clean_linker_0, # of connection points: 2
#     Edge 106, Type (0, 0), BuildingBlock: ZUJKAS_clean_linker_0, # of connection points: 2
#     Edge 107, Type (0, 0), BuildingBlock: ZUJKAS_clean_linker_0, # of connection points: 2
#     Edge 108, Type (0, 0), BuildingBlock: ZUJKAS_clean_linker_0, # of connection points: 2
#     Edge 109, Type (0, 0), BuildingBlock: ZUJKAS_clean_linker_0, # of connection points: 2
#     Edge 110, Type (0, 0), BuildingBlock: ZUJKAS_clean_linker_0, # of connection points: 2
#     Edge 111, Type (0, 0), BuildingBlock: ZUJKAS_clean_linker_0, # of connection points: 2
#     Edge 112, Type (0, 0), BuildingBlock: ZUJKAS_clean_linker_0, # of connection points: 2
#     Edge 113, Type (0, 0), BuildingBlock: ZUJKAS_clean_linker_0, # of connection points: 2
#     Edge 114, Type (0, 0), BuildingBlock: ZUJKAS_clean_linker_0, # of connection points: 2
#     Edge 115, Type (0, 0), BuildingBlock: ZUJKAS_clean_linker_0, # of connection points: 2
#     Edge 116, Type (0, 0), BuildingBlock: ZUJKAS_clean_linker_0, # of connection points: 2
#     Edge 117, Type (0, 0), BuildingBlock: ZUJKAS_clean_linker_0, # of connection points: 2
#     Edge 118, Type (0, 0), BuildingBlock: ZUJKAS_clean_linker_0, # of connection points: 2
#     Edge 119, Type (0, 0), BuildingBlock: ZUJKAS_clean_linker_0, # of connection points: 2
#     Edge 120, Type (0, 0), BuildingBlock: ZUJKAS_clean_linker_0, # of connection points: 2
#     Edge 121, Type (0, 0), BuildingBlock: ZUJKAS_clean_linker_0, # of connection points: 2
#     Edge 122, Type (0, 0), BuildingBlock: ZUJKAS_clean_linker_0, # of connection points: 2
#     Edge 123, Type (0, 0), BuildingBlock: ZUJKAS_clean_linker_0, # of connection points: 2
#     Edge 124, Type (0, 0), BuildingBlock: ZUJKAS_clean_linker_0, # of connection points: 2
#     Edge 125, Type (0, 0), BuildingBlock: ZUJKAS_clean_linker_0, # of connection points: 2
#     Edge 126, Type (0, 0), BuildingBlock: ZUJKAS_clean_linker_0, # of connection points: 2
#     Edge 127, Type (0, 0), BuildingBlock: ZUJKAS_clean_linker_0, # of connection points: 2
# Relax obj value: 0.260
# Max RMSD: 0.231
# Mean RMSD: 0.213
data_MOF--net-wip--node1-GEDQOX_clean_sbu_0--edge1-ZUJKAS_clean_linker_0
_symmetry_space_group_name_H-M    P1
_symmetry_Int_Tables_number       1
_symmetry_cell_setting            triclinic
loop_
_symmetry_equiv_pos_as_xyz
'x, y, z'
_cell_length_a     84.244647
_cell_length_b     84.286376
_cell_length_c     43.559872
_cell_angle_alpha  89.965747
_cell_angle_beta   89.976086
_cell_angle_gamma 90.068097
loop_
_atom_site_label
_atom_site_type_symbol
_atom_site_fract_x
_atom_site_fract_y
_atom_site_fract_z
_atom_type_partial_charge
Nd0 Nd 0.07193 0.44577 0.0966 0.0
Nd1 Nd 0.04974 0.42218 0.13245 0.0
C2 C 0.08445 0.46544 0.05543 0.0
C3 C 0.0833 0.47036 0.02255 0.0
C4 C 0.07629 0.48497 1.01486 0.0
C5 C 0.07615 0.4904 0.98441 0.0
C6 C 0.08312 0.48144 0.96069 0.0
C7 C 0.09001 0.46673 0.96835 0.0
C8 C 0.09011 0.46127 0.99885 0.0
C9 C 0.08691 0.42326 0.13152 0.0
C10 C 0.05414 0.41541 0.06091 0.0
C11 C 0.03575 0.40369 0.17382 0.0
C12 C 0.03311 0.40288 0.20743 0.0
C13 C 0.04472 0.40764 0.22874 0.0
C14 C 0.04156 0.40705 0.26043 0.0
C15 C 0.02669 0.4018 0.27142 0.0
C16 C 0.01522 0.39694 0.24985 0.0
C17 C 0.0184 0.39749 0.21834 0.0
C18 C 0.03478 0.44422 0.09667 0.0
C19 C 0.06584 0.4534 0.16832 0.0
O20 O 0.07273 0.46934 0.07374 0.0
O21 O 0.09038 0.45144 0.06178 0.0
O22 O 0.09249 0.43751 0.12761 0.0
O23 O 0.0747 0.42111 0.11536 0.0
O24 O 0.06044 0.42982 0.0595 0.0
O25 O 0.05098 0.40835 0.08738 0.0
O26 O 0.05015 0.40126 0.16353 0.0
O27 O 0.02843 0.41507 0.15918 0.0
O28 O 0.02954 0.42987 0.10075 0.0
O29 O 0.04679 0.44683 0.11327 0.0
O30 O 0.05913 0.43921 0.16983 0.0
O31 O 0.0706 0.45964 0.14195 0.0
H32 H 0.07115 0.4924 0.03254 0.0
H33 H 0.07094 0.50188 0.97964 0.0
H34 H 0.09532 0.45939 0.95076 0.0
H35 H 0.09571 0.45 1.00384 0.0
H36 H 0.05616 0.41192 0.22092 0.0
H37 H 0.05064 0.41099 0.27627 0.0
H38 H 0.00377 0.39256 0.25733 0.0
H39 H 0.00928 0.39372 0.20238 0.0
Nd40 Nd 0.79462 0.84002 0.34355 0.0
Nd41 Nd 0.81578 0.81753 0.38096 0.0
C42 C 0.7752 0.85368 0.30356 0.0
C43 C 0.77004 0.85257 0.27114 0.0
C44 C 0.7668 0.83792 0.25706 0.0
C45 C 0.76114 0.83733 0.22679 0.0
C46 C 0.75865 0.85139 0.20987 0.0
C47 C 0.76229 0.86599 0.22394 0.0
C48 C 0.76787 0.86655 0.25419 0.0
C49 C 0.82231 0.85307 0.36487 0.0
C50 C 0.81668 0.81295 0.30873 0.0
C51 C 0.83416 0.80412 0.42302 0.0
C52 C 0.8325 0.79869 0.45544 0.0
C53 C 0.83152 0.80953 0.47994 0.0
C54 C 0.83023 0.80416 0.51034 0.0
C55 C 0.82986 0.78781 0.51712 0.0
C56 C 0.83069 0.77701 0.4925 0.0
C57 C 0.83206 0.78238 0.46215 0.0
C58 C 0.78588 0.80555 0.36829 0.0
C59 C 0.79045 0.84139 0.41742 0.0
O60 O 0.77084 0.84231 0.32226 0.0
O61 O 0.78969 0.85861 0.30859 0.0
O62 O 0.80895 0.86069 0.36312 0.0
O63 O 0.82098 0.83932 0.35353 0.0
O64 O 0.80333 0.8212 0.30899 0.0
O65 O 0.82577 0.81197 0.33337 0.0
O66 O 0.83395 0.81941 0.41773 0.0
O67 O 0.82641 0.79606 0.40219 0.0
O68 O 0.79892 0.79738 0.36666 0.0
O69 O 0.78941 0.8196 0.37488 0.0
O70 O 0.8036 0.83279 0.41843 0.0
O71 O 0.78352 0.84486 0.39094 0.0
H72 H 0.76844 0.82693 0.26957 0.0
H73 H 0.75836 0.82587 0.21695 0.0
H74 H 0.76086 0.87704 0.21158 0.0
H75 H 0.77036 0.87798 0.2645 0.0
H76 H 0.83185 0.82218 0.47572 0.0
H77 H 0.82985 0.81288 0.52857 0.0
H78 H 0.83017 0.76435 0.49657 0.0
H79 H 0.83279 0.77371 0.44385 0.0
Nd80 Nd 0.41487 0.54338 0.60363 0.0
Nd81 Nd 0.43033 0.57108 0.64132 0.0
C82 C 0.40762 0.52071 0.56346 0.0
C83 C 0.40967 0.51525 0.53127 0.0
C84 C 0.4078 0.49908 0.52464 0.0
C85 C 0.409 0.49348 0.49444 0.0
C86 C 0.41217 0.50391 0.46987 0.0
C87 C 0.41414 0.52018 0.47666 0.0
C88 C 0.41291 0.52578 0.50702 0.0
C89 C 0.39444 0.56533 0.62797 0.0
C90 C 0.4316 0.57429 0.56836 0.0
C91 C 0.43689 0.59257 0.68426 0.0
C92 C 0.44155 0.59257 0.71712 0.0
C93 C 0.44204 0.60688 0.7335 0.0
C94 C 0.44669 0.60716 0.76445 0.0
C95 C 0.45101 0.59309 0.77986 0.0
C96 C 0.45039 0.57871 0.76328 0.0
C97 C 0.44572 0.57847 0.73231 0.0
C98 C 0.45111 0.54855 0.62022 0.0
C99 C 0.41737 0.53818 0.67722 0.0
O100 O 0.41997 0.52006 0.58165 0.0
O101 O 0.39882 0.53325 0.56826 0.0
O102 O 0.39123 0.55026 0.62647 0.0
O103 O 0.4076 0.56832 0.61546 0.0
O104 O 0.42781 0.55902 0.56798 0.0
O105 O 0.43115 0.58283 0.59387 0.0
O106 O 0.42248 0.58778 0.67787 0.0
O107 O 0.44738 0.58713 0.66478 0.0
O108 O 0.4545 0.56356 0.62227 0.0
O109 O 0.43737 0.54608 0.63059 0.0
O110 O 0.42187 0.55325 0.67854 0.0
O111 O 0.41502 0.53088 0.65066 0.0
H112 H 0.40518 0.49073 0.54289 0.0
H113 H 0.4071 0.48096 0.49033 0.0
H114 H 0.41677 0.52859 0.45856 0.0
H115 H 0.4144 0.53832 0.51154 0.0
H116 H 0.43891 0.61792 0.72229 0.0
H117 H 0.44719 0.61849 0.7761 0.0
H118 H 0.45338 0.56759 0.77429 0.0
H119 H 0.44543 0.56726 0.72015 0.0
Nd120 Nd 0.69828 0.15942 0.85294 0.0
Nd121 Nd 0.67358 0.17803 0.88951 0.0
C122 C 0.7188 0.14817 0.81205 0.0
C123 C 0.72351 0.14894 0.77922 0.0
C124 C 0.72734 0.16335 0.7647 0.0
C125 C 0.73293 0.1635 0.73434 0.0
C126 C 0.73477 0.14927 0.71775 0.0
C127 C 0.73058 0.13492 0.73219 0.0
C128 C 0.72506 0.13477 0.76254 0.0
C129 C 0.67552 0.14138 0.88159 0.0
C130 C 0.66908 0.17834 0.81724 0.0
C131 C 0.65384 0.18891 0.93226 0.0
C132 C 0.655 0.19408 0.96466 0.0
C133 C 0.64114 0.19662 0.98175 0.0
C134 C 0.64199 0.20173 1.01233 0.0
C135 C 0.65677 0.20431 0.02661 0.0
C136 C 0.67069 0.20162 1.00941 0.0
C137 C 0.6698 0.19664 0.9787 0.0
C138 C 0.69714 0.19653 0.86443 0.0
C139 C 0.70548 0.16312 0.92516 0.0
O140 O 0.72163 0.16054 0.82943 0.0
O141 O 0.70535 0.1412 0.81863 0.0
O142 O 0.69034 0.1373 0.87961 0.0
O143 O 0.67303 0.15419 0.86741 0.0
O144 O 0.68393 0.17325 0.81666 0.0
O145 O 0.66084 0.17872 0.8431 0.0
O146 O 0.65605 0.17382 0.92689 0.0
O147 O 0.66083 0.19793 0.91194 0.0
O148 O 0.68218 0.20015 0.8645 0.0
O149 O 0.69905 0.18312 0.87689 0.0
O150 O 0.69095 0.16902 0.92694 0.0
O151 O 0.71199 0.15953 0.89843 0.0
H152 H 0.72622 0.17449 0.77688 0.0
H153 H 0.73583 0.17479 0.72385 0.0
H154 H 0.73199 0.12372 0.72035 0.0
H155 H 0.72231 0.12349 0.77323 0.0
H156 H 0.6296 0.1947 0.9714 0.0
H157 H 0.63105 0.20348 0.02492 0.0
H158 H 0.68226 0.20363 0.01951 0.0
H159 H 0.68067 0.19489 0.96584 0.0
Nd160 Nd 0.06612 0.56433 0.59267 0.0
Nd161 Nd 0.04599 0.58542 0.6359 0.0
C162 C 0.0859 0.54888 0.55604 0.0
C163 C 0.08485 0.5428 0.52418 0.0
C164 C 0.09866 0.54021 0.50689 0.0
C165 C 0.09773 0.53397 0.47706 0.0
C166 C 0.08293 0.53008 0.46395 0.0
C167 C 0.0691 0.53293 0.48126 0.0
C168 C 0.07005 0.53927 0.51095 0.0
C169 C 0.03608 0.55334 0.60326 0.0
C170 C 0.04009 0.58763 0.56096 0.0
C171 C 0.02485 0.59944 0.67213 0.0
C172 C 0.01967 0.59804 0.70454 0.0
C173 C 0.02922 0.59049 0.72656 0.0
C174 C 0.02434 0.58957 0.75733 0.0
C175 C 0.00978 0.5962 0.76682 0.0
C176 C 0.0002 0.60361 0.74449 0.0
C177 C 0.0051 0.60451 0.71375 0.0
C178 C 0.07595 0.59642 0.62176 0.0
C179 C 0.06827 0.55897 0.66784 0.0
O180 O 0.08623 0.56432 0.55941 0.0
O181 O 0.07673 0.54188 0.5762 0.0
O182 O 0.04303 0.55319 0.57672 0.0
O183 O 0.04509 0.55943 0.62324 0.0
O184 O 0.0532 0.57931 0.55681 0.0
O185 O 0.0345 0.59085 0.58874 0.0
O186 O 0.02134 0.58761 0.65391 0.0
O187 O 0.0392 0.60488 0.66752 0.0
O188 O 0.06933 0.59885 0.64821 0.0
O189 O 0.06637 0.58995 0.60377 0.0
O190 O 0.05495 0.56707 0.66977 0.0
O191 O 0.0763 0.55819 0.64153 0.0
H192 H 0.1102 0.54287 0.51659 0.0
H193 H 0.10862 0.53184 0.46453 0.0
H194 H 0.0575 0.53033 0.47179 0.0
H195 H 0.05919 0.5413 0.52367 0.0
H196 H 0.04055 0.58546 0.72001 0.0
H197 H 0.03214 0.58392 0.77378 0.0
H198 H 0.98882 0.60863 0.75068 0.0
H199 H -0.00249 0.61033 0.69714 0.0
Nd200 Nd 0.68402 0.81999 0.8423 0.0
Nd201 Nd 0.66782 0.79365 0.88365 0.0
C202 C 0.69064 0.8415 0.79968 0.0
C203 C 0.69548 0.84107 0.76716 0.0
C204 C 0.69593 0.85511 0.74994 0.0
C205 C 0.70177 0.85503 0.71981 0.0
C206 C 0.70733 0.84088 0.70639 0.0
C207 C 0.70642 0.82674 0.72355 0.0
C208 C 0.70054 0.82683 0.75361 0.0
C209 C 0.70327 0.79539 0.85857 0.0
C210 C 0.66634 0.78906 0.8088 0.0
C211 C 0.66082 0.76854 0.91767 0.0
C212 C 0.65899 0.76479 0.95065 0.0
C213 C 0.65802 0.74891 0.96004 0.0
C214 C 0.6577 0.74499 0.9913 0.0
C215 C 0.65836 0.75689 1.01397 0.0
C216 C 0.65905 0.77286 1.0044 0.0
C217 C 0.65943 0.77676 0.97305 0.0
C218 C 0.65196 0.82205 0.8781 0.0
C219 C 0.68804 0.82183 0.9159 0.0
O220 O 0.67618 0.83687 0.80602 0.0
O221 O 0.70106 0.83603 0.81919 0.0
O222 O 0.70825 0.80991 0.85618 0.0
O223 O 0.68884 0.79437 0.85159 0.0
O224 O 0.67529 0.80198 0.80583 0.0
O225 O 0.66157 0.78371 0.83595 0.0
O226 O 0.67526 0.77216 0.90896 0.0
O227 O 0.64997 0.77755 0.90488 0.0
O228 O 0.65061 0.81321 0.9024 0.0
O229 O 0.6596 0.81487 0.85792 0.0
O230 O 0.68492 0.80648 0.91573 0.0
O231 O 0.68582 0.83077 0.89114 0.0
H232 H 0.69212 0.86621 0.76003 0.0
H233 H 0.70242 0.86615 0.7074 0.0
H234 H 0.71037 0.8156 0.7138 0.0
H235 H 0.70023 0.81584 0.76652 0.0
H236 H 0.65777 0.73948 0.94314 0.0
H237 H 0.65694 0.73259 0.99772 0.0
H238 H 0.65976 0.78233 0.02113 0.0
H239 H 0.66039 0.7891 0.9663 0.0
Nd240 Nd 0.43313 0.42267 0.09947 0.0
Nd241 Nd 0.45415 0.40303 0.14266 0.0
C242 C 0.41257 0.43613 0.06158 0.0
C243 C 0.41335 0.44322 0.03034 0.0
C244 C 0.42614 0.45294 0.02144 0.0
C245 C 0.42656 0.45982 0.99212 0.0
C246 C 0.4143 0.45704 0.97081 0.0
C247 C 0.40166 0.44707 0.97963 0.0
C248 C 0.40118 0.44028 1.00907 0.0
C249 C 0.46284 0.43521 0.10783 0.0
C250 C 0.46201 0.40154 0.07052 0.0
C251 C 0.47172 0.39061 0.18709 0.0
C252 C 0.47642 0.39304 0.21965 0.0
C253 C 0.48477 0.40659 0.22945 0.0
C254 C 0.48976 0.40803 0.2601 0.0
C255 C 0.48652 0.39597 0.28169 0.0
C256 C 0.47788 0.3826 0.2718 0.0
C257 C 0.47297 0.38115 0.24124 0.0
C258 C 0.43004 0.38681 0.11338 0.0
C259 C 0.42945 0.4287 0.17391 0.0
O260 O 0.41442 0.42073 0.06351 0.0
O261 O 0.41989 0.44381 0.08357 0.0
O262 O 0.45551 0.43458 0.08173 0.0
O263 O 0.45445 0.42892 0.12861 0.0
O264 O 0.44728 0.4066 0.06632 0.0
O265 O 0.46851 0.40111 0.09814 0.0
O266 O 0.4774 0.40029 0.16617 0.0
O267 O 0.45695 0.38653 0.18197 0.0
O268 O 0.4442 0.38116 0.11731 0.0
O269 O 0.42894 0.40031 0.12551 0.0
O270 O 0.44084 0.41817 0.17765 0.0
O271 O 0.4238 0.43225 0.14629 0.0
H272 H 0.43581 0.45528 0.03718 0.0
H273 H 0.43661 0.46721 0.98603 0.0
H274 H 0.39194 0.44475 0.96399 0.0
H275 H 0.39122 0.4328 1.0153 0.0
H276 H 0.48764 0.41598 0.21339 0.0
H277 H 0.49648 0.41844 0.26668 0.0
H278 H 0.47485 0.3732 0.28772 0.0
H279 H 0.46656 0.37058 0.23438 0.0
Nd280 Nd 0.8125 0.16641 0.34944 0.0
Nd281 Nd 0.8239 0.19413 0.38903 0.0
C282 C 0.80866 0.1451 0.30531 0.0
C283 C 0.80205 0.14643 0.27401 0.0
C284 C 0.80134 0.13318 0.25461 0.0
C285 C 0.79462 0.13445 0.22524 0.0
C286 C 0.78831 0.14897 0.21485 0.0
C287 C 0.7892 0.16225 0.23438 0.0
C288 C 0.79602 0.161 0.26359 0.0
C289 C 0.78878 0.18711 0.3629 0.0
C290 C 0.82571 0.20003 0.31668 0.0
C291 C 0.82852 0.21708 0.42999 0.0
C292 C 0.82701 0.22088 0.46305 0.0
C293 C 0.82708 0.2368 0.4723 0.0
C294 C 0.82631 0.24082 0.50346 0.0
C295 C 0.82542 0.22898 0.52625 0.0
C296 C 0.82519 0.21297 0.5168 0.0
C297 C 0.82599 0.20897 0.48552 0.0
C298 C 0.84684 0.17311 0.36913 0.0
C299 C 0.80815 0.16281 0.42244 0.0
O300 O 0.82204 0.15255 0.3102 0.0
O301 O 0.79851 0.14716 0.32762 0.0
O302 O 0.78704 0.17188 0.36142 0.0
O303 O 0.80287 0.19121 0.35676 0.0
O304 O 0.82243 0.18468 0.31396 0.0
O305 O 0.82539 0.2072 0.34355 0.0
O306 O 0.8154 0.21548 0.41422 0.0
O307 O 0.83939 0.20679 0.42214 0.0
O308 O 0.84885 0.18839 0.37009 0.0
O309 O 0.83341 0.16958 0.37979 0.0
O310 O 0.81081 0.17821 0.42323 0.0
O311 O 0.81016 0.15441 0.397 0.0
H312 H 0.80589 0.12183 0.26225 0.0
H313 H 0.79403 0.12396 0.21094 0.0
H314 H 0.78467 0.17366 0.22703 0.0
H315 H 0.79646 0.17139 0.2782 0.0
H316 H 0.82795 0.24619 0.45537 0.0
H317 H 0.82677 0.25325 0.50969 0.0
H318 H 0.82432 0.20351 0.53354 0.0
H319 H 0.82592 0.19661 0.47888 0.0
Nd320 Nd 0.93685 0.5767 0.22406 0.0
Nd321 Nd 0.91728 0.55267 0.26343 0.0
C322 C 0.94636 0.59728 0.18169 0.0
C323 C 0.95088 0.59658 0.14888 0.0
C324 C 0.94992 0.58233 0.13228 0.0
C325 C 0.95437 0.58181 0.10122 0.0
C326 C 0.9599 0.59555 0.08608 0.0
C327 C 0.96079 0.60979 0.10297 0.0
C328 C 0.95631 0.61028 0.13396 0.0
C329 C 0.95212 0.54838 0.23593 0.0
C330 C 0.91523 0.54855 0.18939 0.0
C331 C 0.90653 0.53162 0.30392 0.0
C332 C 0.909 0.52531 0.33535 0.0
C333 C 0.90415 0.50977 0.34195 0.0
C334 C 0.90567 0.50354 0.37162 0.0
C335 C 0.91214 0.51271 0.3956 0.0
C336 C 0.91712 0.52832 0.38884 0.0
C337 C 0.91559 0.53455 0.35901 0.0
C338 C 0.90148 0.57929 0.24384 0.0
C339 C 0.94261 0.57745 0.29619 0.0
O340 O 0.93142 0.59454 0.18806 0.0
O341 O 0.95601 0.59038 0.20106 0.0
O342 O 0.95925 0.56204 0.23463 0.0
O343 O 0.93762 0.55043 0.23084 0.0
O344 O 0.92228 0.56263 0.18781 0.0
O345 O 0.91297 0.54127 0.21605 0.0
O346 O 0.91728 0.5283 0.28319 0.0
O347 O 0.90094 0.54604 0.3013 0.0
O348 O 0.89498 0.56531 0.24548 0.0
O349 O 0.91547 0.57891 0.2541 0.0
O350 O 0.93616 0.56312 0.296 0.0
O351 O 0.94194 0.58682 0.27185 0.0
H352 H 0.94574 0.57159 0.14333 0.0
H353 H 0.9533 0.57067 0.08902 0.0
H354 H 0.9652 0.62056 0.0924 0.0
H355 H 0.95719 0.62139 0.14635 0.0
H356 H 0.89895 0.50245 0.32415 0.0
H357 H 0.90145 0.4916 0.37587 0.0
H358 H 0.92231 0.5357 0.40653 0.0
H359 H 0.91947 0.54659 0.35448 0.0
Nd360 Nd 0.16231 0.18547 0.96765 0.0
Nd361 Nd 0.18875 0.16759 1.00413 0.0
C362 C 0.14142 0.19385 0.92502 0.0
C363 C 0.14181 0.19785 0.89183 0.0
C364 C 0.15066 0.18884 0.87074 0.0
C365 C 0.15118 0.19309 0.8396 0.0
C366 C 0.14291 0.20651 0.8288 0.0
C367 C 0.13399 0.21541 0.85002 0.0
C368 C 0.13345 0.21113 0.8811 0.0
C369 C 0.18535 0.20462 0.9921 0.0
C370 C 0.19511 0.17258 0.93143 0.0
C371 C 0.21036 0.15781 0.0444 0.0
C372 C 0.21633 0.16018 0.07617 0.0
C373 C 0.20607 0.16223 0.10134 0.0
C374 C 0.21216 0.16363 0.13128 0.0
C375 C 0.22866 0.16303 0.13676 0.0
C376 C 0.23884 0.16112 0.11134 0.0
C377 C 0.23274 0.15973 0.08153 0.0
C378 C 0.1663 0.14897 0.97597 0.0
C379 C 0.15927 0.18605 0.04044 0.0
O380 O 0.14425 0.17911 0.93268 0.0
O381 O 0.14817 0.20399 0.94362 0.0
O382 O 0.17053 0.20871 0.98966 0.0
O383 O 0.18748 0.19113 0.98031 0.0
O384 O 0.18032 0.17794 0.93006 0.0
O385 O 0.20185 0.16869 0.95786 0.0
O386 O 0.21297 0.16914 0.02445 0.0
O387 O 0.19646 0.15106 0.04089 0.0
O388 O 0.1812 0.14512 0.97791 0.0
O389 O 0.16367 0.16171 0.99024 0.0
O390 O 0.17422 0.18119 0.04043 0.0
O391 O 0.15063 0.18641 1.01507 0.0
H392 H 0.15727 0.17855 0.87834 0.0
H393 H 0.15831 0.18602 0.8241 0.0
H394 H 0.12727 0.22566 0.84257 0.0
H395 H 0.12651 0.21825 0.89685 0.0
H396 H 0.19335 0.16263 0.09791 0.0
H397 H 0.20394 0.16529 0.1501 0.0
H398 H 0.25156 0.16033 0.11448 0.0
H399 H 0.24091 0.15804 0.06258 0.0
Nd400 Nd 0.56209 0.41932 0.73611 0.0
Nd401 Nd 0.57998 0.44608 0.77197 0.0
C402 C 0.55432 0.39826 0.69346 0.0
C403 C 0.54942 0.39893 0.66078 0.0
C404 C 0.55566 0.38799 0.63973 0.0
C405 C 0.55118 0.38846 0.60873 0.0
C406 C 0.54029 0.39988 0.598 0.0
C407 C 0.5342 0.41094 0.61922 0.0
C408 C 0.53876 0.41051 0.65016 0.0
C409 C 0.54295 0.44187 0.76151 0.0
C410 C 0.5748 0.45204 0.69929 0.0
C411 C 0.59005 0.46714 0.813 0.0
C412 C 0.58728 0.47264 0.84512 0.0
C413 C 0.57686 0.48527 0.85128 0.0
C414 C 0.57531 0.49137 0.8811 0.0
C415 C 0.58422 0.48507 0.9056 0.0
C416 C 0.59445 0.47226 0.89947 0.0
C417 C 0.596 0.46616 0.86967 0.0
C418 C 0.59853 0.42335 0.7448 0.0
C419 C 0.56157 0.41667 0.80864 0.0
O420 O 0.56898 0.40234 0.69939 0.0
O421 O 0.54428 0.40372 0.71382 0.0
O422 O 0.53853 0.42724 0.75747 0.0
O423 O 0.55624 0.44437 0.74912 0.0
O424 O 0.56957 0.43721 0.69834 0.0
O425 O 0.57855 0.45906 0.72554 0.0
O426 O 0.57916 0.47024 0.79239 0.0
O427 O 0.59659 0.45321 0.80904 0.0
O428 O 0.60237 0.43827 0.74575 0.0
O429 O 0.58575 0.42092 0.75907 0.0
O430 O 0.56585 0.43181 0.80804 0.0
O431 O 0.56208 0.40773 0.78367 0.0
H432 H 0.56404 0.37906 0.64727 0.0
H433 H 0.55639 0.37993 0.59313 0.0
H434 H 0.52567 0.41981 0.61209 0.0
H435 H 0.53386 0.41922 0.6658 0.0
H436 H 0.57012 0.49072 0.83292 0.0
H437 H 0.56746 0.50136 0.88474 0.0
H438 H 0.60136 0.46694 0.91773 0.0
H439 H 0.60425 0.45652 0.86581 0.0
Nd440 Nd 0.31881 0.80924 0.4894 0.0
Nd441 Nd 0.30107 0.83463 0.52902 0.0
C442 C 0.33543 0.79393 0.44693 0.0
C443 C 0.3343 0.78999 0.41385 0.0
C444 C 0.32975 0.80137 0.39191 0.0
C445 C 0.32926 0.79747 0.36063 0.0
C446 C 0.33323 0.78209 0.35059 0.0
C447 C 0.33766 0.77073 0.37271 0.0
C448 C 0.3382 0.77466 0.40393 0.0
C449 C 0.28846 0.80101 0.50769 0.0
C450 C 0.29515 0.8356 0.45529 0.0
C451 C 0.28417 0.85032 0.57057 0.0
C452 C 0.27864 0.84908 0.60278 0.0
C453 C 0.27597 0.83433 0.61694 0.0
C454 C 0.27004 0.83355 0.64705 0.0
C455 C 0.26672 0.84751 0.66371 0.0
C456 C 0.26969 0.86223 0.64949 0.0
C457 C 0.27556 0.86298 0.61942 0.0
C458 C 0.32923 0.84412 0.50313 0.0
C459 C 0.32127 0.80549 0.56185 0.0
O460 O 0.33766 0.80883 0.45402 0.0
O461 O 0.32549 0.78683 0.46548 0.0
O462 O 0.30015 0.791 0.50566 0.0
O463 O 0.29331 0.81444 0.49968 0.0
O464 O 0.30734 0.82571 0.45297 0.0
O465 O 0.28926 0.83984 0.48234 0.0
O466 O 0.27798 0.84046 0.55066 0.0
O467 O 0.29936 0.85268 0.56615 0.0
O468 O 0.3171 0.85344 0.50696 0.0
O469 O 0.32657 0.83077 0.51533 0.0
O470 O 0.30872 0.81492 0.56272 0.0
O471 O 0.32948 0.80339 0.53631 0.0
H472 H 0.32662 0.81329 0.3989 0.0
H473 H 0.32563 0.80647 0.34435 0.0
H474 H 0.34103 0.75886 0.36586 0.0
H475 H 0.34183 0.76572 0.42037 0.0
H476 H 0.27835 0.82342 0.60464 0.0
H477 H 0.26812 0.82201 0.65732 0.0
H478 H 0.26711 0.87322 0.66133 0.0
H479 H 0.27749 0.87449 0.60895 0.0
Nd480 Nd 0.94719 0.40583 0.72191 0.0
Nd481 Nd 0.93608 0.43437 0.76397 0.0
C482 C 0.96294 0.38663 0.68455 0.0
C483 C 0.96907 0.38822 0.65281 0.0
C484 C 0.96451 0.40108 0.63429 0.0
C485 C 0.97011 0.40246 0.6041 0.0
C486 C 0.98039 0.39097 0.59159 0.0
C487 C 0.98504 0.37817 0.6104 0.0
C488 C 0.97943 0.37683 0.64066 0.0
C489 C 0.91886 0.40137 0.75251 0.0
C490 C 0.92772 0.43503 0.68961 0.0
C491 C 0.92173 0.45541 0.79961 0.0
C492 C 0.92131 0.46076 0.83208 0.0
C493 C 0.91799 0.45032 0.85649 0.0
C494 C 0.91746 0.45592 0.88686 0.0
C495 C 0.92034 0.47204 0.89349 0.0
C496 C 0.92371 0.48238 0.86895 0.0
C497 C 0.92414 0.47681 0.8387 0.0
C498 C 0.9655 0.43642 0.7384 0.0
C499 C 0.95916 0.40793 0.79465 0.0
O500 O 0.96989 0.39534 0.70552 0.0
O501 O 0.94747 0.38646 0.68748 0.0
O502 O 0.92194 0.39508 0.72596 0.0
O503 O 0.93096 0.4083 0.76258 0.0
O504 O 0.938 0.42336 0.68595 0.0
O505 O 0.92353 0.44005 0.71738 0.0
O506 O 0.91552 0.44157 0.79275 0.0
O507 O 0.93477 0.45843 0.78432 0.0
O508 O 0.96228 0.44228 0.76531 0.0
O509 O 0.95319 0.43136 0.72547 0.0
O510 O 0.94814 0.41878 0.79989 0.0
O511 O 0.96185 0.40207 0.76675 0.0
H512 H 0.95658 0.41007 0.64313 0.0
H513 H 0.96645 0.41262 0.59063 0.0
H514 H 0.99277 0.36899 0.60157 0.0
H515 H 0.98309 0.36679 0.6545 0.0
H516 H 0.9158 0.43786 0.85218 0.0
H517 H 0.91497 0.4476 0.90518 0.0
H518 H 0.92575 0.49489 0.87304 0.0
H519 H 0.92664 0.48513 0.82033 0.0
Nd520 Nd 0.33829 0.19531 0.46365 0.0
Nd521 Nd 0.30864 0.18594 0.50457 0.0
C522 C 0.35865 0.20976 0.42645 0.0
C523 C 0.35732 0.2163 0.3949 0.0
C524 C 0.3438 0.21325 0.37697 0.0
C525 C 0.34268 0.21904 0.34687 0.0
C526 C 0.3551 0.22798 0.33378 0.0
C527 C 0.36859 0.23113 0.352 0.0
C528 C 0.36967 0.22535 0.3822 0.0
C529 C 0.34092 0.16668 0.4944 0.0
C530 C 0.30782 0.17815 0.43013 0.0
C531 C 0.28596 0.17332 0.5391 0.0
C532 C 0.28096 0.17238 0.57164 0.0
C533 C 0.29198 0.17232 0.59587 0.0
C534 C 0.28675 0.17169 0.62649 0.0
C535 C 0.2704 0.17115 0.63351 0.0
C536 C 0.25949 0.17133 0.60902 0.0
C537 C 0.26472 0.17191 0.57854 0.0
C538 C 0.30922 0.21573 0.48041 0.0
C539 C 0.33661 0.2065 0.53675 0.0
O540 O 0.35078 0.21719 0.44804 0.0
O541 O 0.35745 0.19432 0.4288 0.0
O542 O 0.34785 0.16964 0.46838 0.0
O543 O 0.33434 0.17906 0.50399 0.0
O544 O 0.3203 0.18754 0.42713 0.0
O545 O 0.30229 0.17414 0.45763 0.0
O546 O 0.29876 0.16558 0.53085 0.0
O547 O 0.28479 0.18725 0.52602 0.0
O548 O 0.30296 0.21263 0.50703 0.0
O549 O 0.31327 0.20323 0.46685 0.0
O550 O 0.3253 0.19582 0.54126 0.0
O551 O 0.34256 0.20947 0.50899 0.0
H552 H 0.3341 0.20634 0.3862 0.0
H553 H 0.33199 0.21656 0.33393 0.0
H554 H 0.37849 0.2378 0.34273 0.0
H555 H 0.38024 0.22781 0.39552 0.0
H556 H 0.3046 0.17277 0.59114 0.0
H557 H 0.29553 0.17144 0.64462 0.0
H558 H 0.24683 0.17127 0.61334 0.0
H559 H 0.25601 0.1721 0.56024 0.0
Nd560 Nd 0.53929 0.59039 0.22893 0.0
Nd561 Nd 0.55213 0.56219 0.27057 0.0
C562 C 0.522 0.60772 0.1908 0.0
C563 C 0.51642 0.60593 0.15848 0.0
C564 C 0.50038 0.60845 0.15121 0.0
C565 C 0.49492 0.60689 0.12089 0.0
C566 C 0.50538 0.60282 0.09685 0.0
C567 C 0.52145 0.60014 0.10434 0.0
C568 C 0.52687 0.60162 0.1347 0.0
C569 C 0.56674 0.59673 0.26108 0.0
C570 C 0.56195 0.5634 0.19679 0.0
C571 C 0.5676 0.54152 0.30543 0.0
C572 C 0.56933 0.53687 0.33798 0.0
C573 C 0.5612 0.54481 0.36156 0.0
C574 C 0.56216 0.53936 0.39201 0.0
C575 C 0.57118 0.5258 0.3994 0.0
C576 C 0.57952 0.51813 0.37564 0.0
C577 C 0.57859 0.5236 0.34534 0.0
C578 C 0.52364 0.55801 0.24193 0.0
C579 C 0.52718 0.58676 0.30148 0.0
O580 O 0.51573 0.59814 0.2112 0.0
O581 O 0.53724 0.60997 0.19512 0.0
O582 O 0.56335 0.60345 0.235 0.0
O583 O 0.55518 0.5886 0.27022 0.0
O584 O 0.55098 0.57443 0.19291 0.0
O585 O 0.56578 0.55808 0.22457 0.0
O586 O 0.57366 0.55516 0.29688 0.0
O587 O 0.55379 0.53865 0.29287 0.0
O588 O 0.52667 0.55205 0.26884 0.0
O589 O 0.53577 0.56438 0.23071 0.0
O590 O 0.53909 0.57687 0.3066 0.0
O591 O 0.52403 0.59249 0.27361 0.0
H592 H 0.49202 0.61163 0.16907 0.0
H593 H 0.48243 0.60875 0.1164 0.0
H594 H 0.52997 0.59716 0.08666 0.0
H595 H 0.5393 0.59946 0.13948 0.0
H596 H 0.5539 0.55504 0.35633 0.0
H597 H 0.55548 0.54551 0.4096 0.0
H598 H 0.5868 0.50784 0.38043 0.0
H599 H 0.58494 0.51728 0.3275 0.0
Nd600 Nd 0.1732 0.79475 0.9883 0.0
Nd601 Nd 0.18809 0.8204 0.03043 0.0
C602 C 0.16564 0.77014 0.95336 0.0
C603 C 0.16341 0.76662 0.92027 0.0
C604 C 0.17324 0.77351 0.89781 0.0
C605 C 0.17174 0.76922 0.86685 0.0
C606 C 0.1603 0.75801 0.85756 0.0
C607 C 0.15022 0.75143 0.88004 0.0
C608 C 0.1518 0.75566 0.91104 0.0
C609 C 0.15632 0.82254 0.99492 0.0
C610 C 0.19288 0.82324 0.95694 0.0
C611 C 0.19474 0.84157 0.07379 0.0
C612 C 0.19942 0.84106 0.10643 0.0
C613 C 0.20308 0.85516 0.12189 0.0
C614 C 0.20907 0.85477 0.15189 0.0
C615 C 0.2115 0.84021 0.16714 0.0
C616 C 0.2074 0.82609 0.1517 0.0
C617 C 0.20149 0.82652 0.12163 0.0
C618 C 0.20883 0.79699 1.01405 0.0
C619 C 0.1707 0.7891 0.0625 0.0
O620 O 0.18015 0.77341 0.96215 0.0
O621 O 0.15497 0.77906 0.96683 0.0
O622 O 0.15632 0.81459 0.96941 0.0
O623 O 0.16369 0.81516 1.01517 0.0
O624 O 0.19022 0.80783 0.95668 0.0
O625 O 0.19017 0.83187 0.98193 0.0
O626 O 0.18029 0.83716 0.06696 0.0
O627 O 0.2052 0.83596 0.05458 0.0
O628 O 0.21242 0.81193 1.01533 0.0
O629 O 0.19439 0.79488 0.02067 0.0
O630 O 0.17953 0.80201 0.06631 0.0
O631 O 0.16636 0.78407 0.03497 0.0
H632 H 0.18225 0.78207 0.90423 0.0
H633 H 0.17953 0.77471 0.85017 0.0
H634 H 0.14138 0.74267 0.87382 0.0
H635 H 0.14412 0.75015 0.92792 0.0
H636 H 0.20173 0.8665 0.11044 0.0
H637 H 0.21229 0.86587 0.1627 0.0
H638 H 0.20885 0.81467 0.16273 0.0
H639 H 0.19888 0.81548 0.10999 0.0
Nd640 Nd 0.57516 0.9387 0.61033 0.0
Nd641 Nd 0.55584 0.91267 0.64579 0.0
C642 C 0.58577 0.96026 0.5709 0.0
C643 C 0.58319 0.96605 0.53923 0.0
C644 C 0.58723 0.98174 0.53198 0.0
C645 C 0.5851 0.98759 0.5022 0.0
C646 C 0.57888 0.97786 0.47884 0.0
C647 C 0.5748 0.96208 0.4862 0.0
C648 C 0.57688 0.95625 0.51615 0.0
C649 C 0.59279 0.91678 0.64186 0.0
C650 C 0.55722 0.90917 0.5731 0.0
C651 C 0.54478 0.89268 0.68789 0.0
C652 C 0.54182 0.89335 0.7214 0.0
C653 C 0.55061 0.90351 0.74047 0.0
C654 C 0.54695 0.90489 0.77178 0.0
C655 C 0.53441 0.89607 0.78478 0.0
C656 C 0.52576 0.88576 0.76556 0.0
C657 C 0.5294 0.88446 0.73425 0.0
C658 C 0.5381 0.93613 0.61865 0.0
C659 C 0.57002 0.94451 0.68253 0.0
O660 O 0.57447 0.96305 0.5908 0.0
O661 O 0.59215 0.94619 0.57419 0.0
O662 O 0.59702 0.9315 0.6383 0.0
O663 O 0.58041 0.91384 0.6265 0.0
O664 O 0.56251 0.92396 0.57319 0.0
O665 O 0.55568 0.90074 0.5986 0.0
O666 O 0.55958 0.89283 0.67871 0.0
O667 O 0.53571 0.90172 0.67103 0.0
O668 O 0.53361 0.92141 0.62049 0.0
O669 O 0.55117 0.93789 0.63223 0.0
O670 O 0.5651 0.92959 0.68367 0.0
O671 O 0.573 0.95179 0.65625 0.0
H672 H 0.59213 0.9895 0.54941 0.0
H673 H 0.58859 -0.00029 0.49736 0.0
H674 H 0.56982 0.9543 0.46892 0.0
H675 H 0.57358 0.94412 0.52128 0.0
H676 H 0.56025 0.91044 0.7311 0.0
H677 H 0.55403 0.91279 0.78582 0.0
H678 H 0.51589 0.87895 0.77454 0.0
H679 H 0.52235 0.87666 0.71994 0.0
Nd680 Nd 0.30326 0.32469 0.83765 0.0
Nd681 Nd 0.32694 0.30365 0.87613 0.0
C682 C 0.28367 0.33628 0.79532 0.0
C683 C 0.27817 0.33384 0.76304 0.0
C684 C 0.26321 0.32702 0.75729 0.0
C685 C 0.25728 0.32582 0.72728 0.0
C686 C 0.26607 0.33152 0.70206 0.0
C687 C 0.28113 0.33819 0.70778 0.0
C688 C 0.2871 0.33934 0.73782 0.0
C689 C 0.32742 0.3405 0.86659 0.0
C690 C 0.33116 0.30292 0.8035 0.0
C691 C 0.34624 0.2927 0.91948 0.0
C692 C 0.34578 0.28832 0.95263 0.0
C693 C 0.34237 0.29952 0.97569 0.0
C694 C 0.3425 0.29512 1.00682 0.0
C695 C 0.34598 0.27942 1.0157 0.0
C696 C 0.34931 0.26827 0.99251 0.0
C697 C 0.34925 0.27267 0.96148 0.0
C698 C 0.30173 0.2879 0.85036 0.0
C699 C 0.29595 0.32124 0.91045 0.0
O700 O 0.2794 0.32579 0.81592 0.0
O701 O 0.29808 0.34165 0.79985 0.0
O702 O 0.31323 0.34631 0.86327 0.0
O703 O 0.32867 0.32732 0.85302 0.0
O704 O 0.31678 0.30926 0.80256 0.0
O705 O 0.33926 0.30167 0.82944 0.0
O706 O 0.3451 0.30773 0.91225 0.0
O707 O 0.3385 0.28351 0.90044 0.0
O708 O 0.31557 0.28146 0.85452 0.0
O709 O 0.3015 0.3015 0.86212 0.0
O710 O 0.3101 0.31446 0.91262 0.0
O711 O 0.28966 0.32516 0.88357 0.0
H712 H 0.2559 0.32289 0.77613 0.0
H713 H 0.24556 0.32082 0.72396 0.0
H714 H 0.28835 0.34255 0.689 0.0
H715 H 0.29862 0.34476 0.74127 0.0
H716 H 0.33963 0.3117 0.96976 0.0
H717 H 0.33972 0.30402 0.02393 0.0
H718 H 0.35229 0.25614 0.99835 0.0
H719 H 0.35206 0.26382 0.9443 0.0
Nd720 Nd 0.91599 0.05061 0.09478 0.0
Nd721 Nd 0.93517 0.0751 0.13345 0.0
C722 C 0.90526 0.03016 0.0532 0.0
C723 C 0.90809 0.02394 0.02177 0.0
C724 C 0.90617 0.00765 1.01631 0.0
C725 C 0.90798 0.0014 0.98673 0.0
C726 C 0.91178 0.01128 0.96168 0.0
C727 C 0.91384 0.02764 0.96727 0.0
C728 C 0.91202 0.0339 0.99698 0.0
C729 C 0.89872 0.07441 0.12194 0.0
C730 C 0.93761 0.07866 0.06123 0.0
C731 C 0.94524 0.09491 0.17668 0.0
C732 C 0.94926 0.09381 0.20975 0.0
C733 C 0.94037 0.08427 0.22989 0.0
C734 C 0.94473 0.08282 0.26083 0.0
C735 C 0.9581 0.0909 0.27239 0.0
C736 C 0.96686 0.10058 0.25214 0.0
C737 C 0.96249 0.10199 0.22121 0.0
C738 C 0.95268 0.05047 0.10994 0.0
C739 C 0.91833 0.04369 0.16753 0.0
O740 O 0.91554 0.02637 0.0745 0.0
O741 O 0.89998 0.0447 0.05597 0.0
O742 O 0.89368 0.05989 0.11933 0.0
O743 O 0.91196 0.07603 0.10883 0.0
O744 O 0.93201 0.06398 0.06049 0.0
O745 O 0.93747 0.08719 0.08671 0.0
O746 O 0.9303 0.09327 0.16912 0.0
O747 O 0.95477 0.08752 0.15782 0.0
O748 O 0.95796 0.06488 0.11269 0.0
O749 O 0.93889 0.04954 0.12089 0.0
O750 O 0.92429 0.0582 0.16991 0.0
O751 O 0.91535 0.03711 0.14055 0.0
H752 H 0.90302 -0.00026 0.03497 0.0
H753 H 0.90603 0.98881 0.98343 0.0
H754 H 0.91695 0.03561 0.94872 0.0
H755 H 0.91358 0.04652 1.00051 0.0
H756 H 0.93007 0.07791 0.22168 0.0
H757 H 0.93754 0.07544 0.27573 0.0
H758 H 0.97734 0.10682 0.26003 0.0
H759 H 0.96959 0.10935 0.2061 0.0
Nd760 Nd 0.1983 0.67933 0.3638 0.0
Nd761 Nd 0.17019 0.69433 0.39899 0.0
C762 C 0.2209 0.67055 0.32488 0.0
C763 C 0.22625 0.67148 0.2926 0.0
C764 C 0.2423 0.66879 0.28601 0.0
C765 C 0.24775 0.66878 0.25568 0.0
C766 C 0.23727 0.6715 0.23106 0.0
C767 C 0.22114 0.67435 0.23778 0.0
C768 C 0.21568 0.67435 0.26829 0.0
C769 C 0.17956 0.65876 0.39671 0.0
C770 C 0.16612 0.69148 0.32641 0.0
C771 C 0.14862 0.70176 0.44099 0.0
C772 C 0.14826 0.70377 0.47477 0.0
C773 C 0.15758 0.69433 0.49432 0.0
C774 C 0.1581 0.69742 0.52598 0.0
C775 C 0.1492 0.70994 0.53877 0.0
C776 C 0.13961 0.71908 0.5191 0.0
C777 C 0.13919 0.71606 0.4875 0.0
C778 C 0.18862 0.7156 0.36764 0.0
C779 C 0.20423 0.68616 0.43522 0.0
O780 O 0.22169 0.6835 0.34139 0.0
O781 O 0.20824 0.66204 0.33069 0.0
O782 O 0.19486 0.65739 0.39457 0.0
O783 O 0.1747 0.67013 0.38047 0.0
O784 O 0.18149 0.6883 0.32602 0.0
O785 O 0.15789 0.69217 0.35229 0.0
O786 O 0.15048 0.68738 0.43021 0.0
O787 O 0.15691 0.7123 0.42588 0.0
O788 O 0.17333 0.71679 0.37062 0.0
O789 O 0.19385 0.70385 0.38269 0.0
O790 O 0.1888 0.68899 0.43672 0.0
O791 O 0.2115 0.68373 0.40878 0.0
H792 H 0.25064 0.66644 0.3044 0.0
H793 H 0.26017 0.66627 0.25153 0.0
H794 H 0.21274 0.67664 0.21951 0.0
H795 H 0.20323 0.67648 0.27287 0.0
H796 H 0.16464 0.68472 0.48508 0.0
H797 H 0.16548 0.69002 0.54044 0.0
H798 H 0.13275 0.72892 0.528 0.0
H799 H 0.132 0.72356 0.47287 0.0
Nd800 Nd 0.55257 0.05357 0.10943 0.0
Nd801 Nd 0.54199 0.08327 0.14842 0.0
C802 C 0.56709 0.03137 0.07687 0.0
C803 C 0.56867 0.02684 0.04435 0.0
C804 C 0.56135 0.03572 0.02107 0.0
C805 C 0.56208 0.03065 0.99046 0.0
C806 C 0.57016 0.01658 0.98259 0.0
C807 C 0.57766 0.0079 1.00609 0.0
C808 C 0.5769 0.01298 0.03663 0.0
C809 C 0.52212 0.05303 0.12952 0.0
C810 C 0.53153 0.08074 0.07533 0.0
C811 C 0.52822 0.1043 0.18507 0.0
C812 C 0.52003 0.10278 0.21512 0.0
C813 C 0.5184 0.0879 0.22939 0.0
C814 C 0.5119 0.08663 0.25896 0.0
C815 C 0.507 0.10024 0.27519 0.0
C816 C 0.50841 0.1151 0.26049 0.0
C817 C 0.51486 0.11634 0.23084 0.0
C818 C 0.57113 0.08583 0.11898 0.0
C819 C 0.55846 0.05337 0.18402 0.0
O820 O 0.57403 0.04455 0.08547 0.0
O821 O 0.55295 0.02959 0.0888 0.0
O822 O 0.52662 0.0464 0.10407 0.0
O823 O 0.53375 0.05805 0.14506 0.0
O824 O 0.5425 0.06962 0.0717 0.0
O825 O 0.52814 0.0869 0.10271 0.0
O826 O 0.52113 0.09822 0.16104 0.0
O827 O 0.54343 0.10121 0.18548 0.0
O828 O 0.56794 0.09282 0.14475 0.0
O829 O 0.55882 0.07928 0.10921 0.0
O830 O 0.54826 0.06521 0.18582 0.0
O831 O 0.56364 0.04816 0.15713 0.0
H832 H 0.5549 0.04646 0.02663 0.0
H833 H 0.55633 0.03773 0.97297 0.0
H834 H 0.58377 -0.00309 1.00103 0.0
H835 H 0.58251 0.0059 0.05433 0.0
H836 H 0.52251 0.07727 0.21796 0.0
H837 H 0.51121 0.075 0.26948 0.0
H838 H 0.50457 0.12582 0.27194 0.0
H839 H 0.51606 0.12795 0.2204 0.0
Nd840 Nd 0.18308 0.30944 0.33628 0.0
Nd841 Nd 0.16022 0.29201 0.37958 0.0
C842 C 0.20185 0.3269 0.3006 0.0
C843 C 0.20703 0.32735 0.26812 0.0
C844 C 0.19747 0.32141 0.24432 0.0
C845 C 0.20298 0.32144 0.21387 0.0
C846 C 0.2182 0.32735 0.20657 0.0
C847 C 0.22767 0.33327 0.23066 0.0
C848 C 0.22214 0.33328 0.26098 0.0
C849 C 0.1926 0.2797 0.35284 0.0
C850 C 0.15892 0.28446 0.30491 0.0
C851 C 0.14458 0.27182 0.41547 0.0
C852 C 0.14569 0.26609 0.44753 0.0
C853 C 0.15599 0.2733 0.46868 0.0
C854 C 0.15653 0.26809 0.49927 0.0
C855 C 0.14679 0.2555 0.50939 0.0
C856 C 0.13661 0.24823 0.4879 0.0
C857 C 0.13607 0.25348 0.45736 0.0
C858 C 0.14944 0.32099 0.35827 0.0
C859 C 0.18626 0.31483 0.41146 0.0
O860 O 0.1871 0.33058 0.30665 0.0
O861 O 0.20684 0.31484 0.31674 0.0
O862 O 0.19252 0.285 0.3249 0.0
O863 O 0.18655 0.28981 0.3708 0.0
O864 O 0.16744 0.29743 0.3002 0.0
O865 O 0.1557 0.27931 0.33304 0.0
O866 O 0.15591 0.26749 0.3967 0.0
O867 O 0.14056 0.28668 0.41187 0.0
O868 O 0.14614 0.31556 0.38541 0.0
O869 O 0.15693 0.31075 0.34328 0.0
O870 O 0.17709 0.30231 0.41511 0.0
O871 O 0.18874 0.3211 0.38386 0.0
H872 H 0.18579 0.31666 0.24929 0.0
H873 H 0.19525 0.31693 0.19604 0.0
H874 H 0.23955 0.33762 0.22625 0.0
H875 H 0.22979 0.33776 0.279 0.0
H876 H 0.16357 0.28303 0.46159 0.0
H877 H 0.16467 0.27385 0.51495 0.0
H878 H 0.12879 0.23867 0.49482 0.0
H879 H 0.12799 0.24778 0.44146 0.0
Nd880 Nd 0.93608 0.93285 0.59597 0.0
Nd881 Nd 0.95605 0.90874 0.63645 0.0
C882 C 0.91768 0.94564 0.55318 0.0
C883 C 0.9183 0.95204 0.52158 0.0
C884 C 0.92792 0.94526 0.49874 0.0
C885 C 0.92819 0.95167 0.46899 0.0
C886 C 0.91888 0.96502 0.46155 0.0
C887 C 0.90924 0.97168 0.48459 0.0
C888 C 0.90898 0.96527 0.51421 0.0
C889 C 0.9606 0.94615 0.62796 0.0
C890 C 0.96716 0.91348 0.5656 0.0
C891 C 0.97184 0.89438 0.68115 0.0
C892 C 0.97711 0.89811 0.71296 0.0
C893 C 0.99338 0.89879 0.71993 0.0
C894 C -0.00146 0.90157 0.75006 0.0
C895 C 0.98754 0.90356 0.77407 0.0
C896 C 0.97125 0.90318 0.76697 0.0
C897 C 0.96609 0.9005 0.73683 0.0
C898 C 0.93171 0.896 0.60279 0.0
C899 C 0.93031 0.9333 0.66905 0.0
O900 O 0.91948 0.93032 0.55674 0.0
O901 O 0.92482 0.95393 0.57446 0.0
O902 O 0.94817 0.95408 0.61921 0.0
O903 O 0.96055 0.9326 0.61573 0.0
O904 O 0.95419 0.92221 0.56157 0.0
O905 O 0.97137 0.90788 0.59288 0.0
O906 O 0.97888 0.90192 0.65866 0.0
O907 O 0.95658 0.89254 0.6765 0.0
O908 O 0.94499 0.88868 0.60802 0.0
O909 O 0.93122 0.90904 0.61702 0.0
O910 O 0.94364 0.92511 0.6711 0.0
O911 O 0.92311 0.93571 0.64235 0.0
H912 H 0.93524 0.93505 0.50389 0.0
H913 H 0.93587 0.94631 0.45196 0.0
H914 H 0.9017 0.98176 0.47966 0.0
H915 H 0.90141 0.97064 0.53142 0.0
H916 H 0.00215 0.89696 0.70208 0.0
H917 H 0.01117 0.90167 0.7547 0.0
H918 H 0.96244 0.90487 0.78479 0.0
H919 H 0.95346 0.90008 0.73238 0.0
Nd920 Nd 0.31177 0.67646 0.86332 0.0
Nd921 Nd 0.3371 0.69647 0.90089 0.0
C922 C 0.2985 0.65852 0.82053 0.0
C923 C 0.29264 0.66056 0.78879 0.0
C924 C 0.30101 0.66965 0.76707 0.0
C925 C 0.29487 0.67189 0.73749 0.0
C926 C 0.28019 0.66516 0.72911 0.0
C927 C 0.27197 0.65593 0.75088 0.0
C928 C 0.27814 0.65366 0.78035 0.0
C929 C 0.29906 0.70071 0.8963 0.0
C930 C 0.33028 0.70736 0.8306 0.0
C931 C 0.35261 0.71278 0.94332 0.0
C932 C 0.34908 0.71875 0.97471 0.0
C933 C 0.34615 0.70824 0.99919 0.0
C934 C 0.34332 0.71399 0.02883 0.0
C935 C 0.34337 0.73039 0.03485 0.0
C936 C 0.34594 0.74091 1.01022 0.0
C937 C 0.34881 0.73514 0.98053 0.0
C938 C 0.34862 0.67163 0.86714 0.0
C939 C 0.31285 0.67105 0.93616 0.0
O940 O 0.31386 0.65938 0.82485 0.0
O941 O 0.29038 0.66573 0.84199 0.0
O942 O 0.29093 0.68835 0.88777 0.0
O943 O 0.31251 0.70091 0.8834 0.0
O944 O 0.32111 0.69464 0.82795 0.0
O945 O 0.33713 0.71141 0.85683 0.0
O946 O 0.34521 0.71959 0.92039 0.0
O947 O 0.35388 0.69739 0.9399 0.0
O948 O 0.3563 0.68485 0.87096 0.0
O949 O 0.33595 0.67156 0.88252 0.0
O950 O 0.32164 0.68405 0.93722 0.0
O951 O 0.30944 0.66381 0.90993 0.0
H952 H 0.31221 0.67518 0.77304 0.0
H953 H 0.30144 0.67918 0.7214 0.0
H954 H 0.26076 0.65039 0.74508 0.0
H955 H 0.2715 0.64658 0.79671 0.0
H956 H 0.34617 0.69554 0.99558 0.0
H957 H 0.34112 0.70554 0.0471 0.0
H958 H 0.34618 0.7536 1.01401 0.0
H959 H 0.35102 0.74353 0.96215 0.0
Nd960 Nd 0.43432 0.07375 0.73606 0.0
Nd961 Nd 0.41416 0.05007 0.77635 0.0
C962 C 0.44513 0.09242 0.69139 0.0
C963 C 0.44909 0.09177 0.65806 0.0
C964 C 0.43807 0.08666 0.63586 0.0
C965 C 0.44203 0.08672 0.60448 0.0
C966 C 0.4571 0.09193 0.59448 0.0
C967 C 0.46811 0.09683 0.6169 0.0
C968 C 0.46415 0.09677 0.64817 0.0
C969 C 0.45089 0.04928 0.76252 0.0
C970 C 0.41693 0.04212 0.70386 0.0
C971 C 0.40317 0.0305 0.81936 0.0
C972 C 0.40477 0.02579 0.85227 0.0
C973 C 0.41773 0.01672 0.86269 0.0
C974 C 0.41819 0.01096 0.89295 0.0
C975 C 0.40572 0.01407 0.91367 0.0
C976 C 0.39296 0.02346 0.90338 0.0
C977 C 0.39248 0.02917 0.87312 0.0
C978 C 0.39744 0.07315 0.74613 0.0
C979 C 0.43525 0.07917 0.80846 0.0
O980 O 0.43019 0.09159 0.69935 0.0
O981 O 0.45438 0.08461 0.71013 0.0
O982 O 0.45671 0.0634 0.75833 0.0
O983 O 0.4372 0.04847 0.75115 0.0
O984 O 0.42328 0.05644 0.70081 0.0
O985 O 0.41362 0.03595 0.73114 0.0
O986 O 0.41465 0.02683 0.80035 0.0
O987 O 0.39674 0.04429 0.81318 0.0
O988 O 0.39208 0.05888 0.75084 0.0
O989 O 0.41065 0.07509 0.75934 0.0
O990 O 0.42902 0.06477 0.8105 0.0
O991 O 0.43646 0.08681 0.78197 0.0
H992 H 0.42633 0.08275 0.64266 0.0
H993 H 0.43315 0.08299 0.58803 0.0
H994 H 0.47992 0.10065 0.61035 0.0
H995 H 0.47289 0.10075 0.66471 0.0
H996 H 0.4274 0.01379 0.84732 0.0
H997 H 0.42833 0.00398 0.90005 0.0
H998 H 0.38304 0.02596 0.9184 0.0
H999 H 0.38222 0.03592 0.86578 0.0
Nd1000 Nd 0.68029 0.68992 0.47533 0.0
Nd1001 Nd 0.70396 0.66949 0.51262 0.0
C1002 C 0.66113 0.70212 0.43295 0.0
C1003 C 0.66121 0.70534 0.39954 0.0
C1004 C 0.64687 0.70834 0.3843 0.0
C1005 C 0.64675 0.71224 0.353 0.0
C1006 C 0.66101 0.71316 0.33616 0.0
C1007 C 0.67537 0.70985 0.35148 0.0
C1008 C 0.67546 0.70605 0.38285 0.0
C1009 C 0.70193 0.70671 0.5087 0.0
C1010 C 0.71227 0.67454 0.44118 0.0
C1011 C 0.72377 0.65689 0.55333 0.0
C1012 C 0.7289 0.65719 0.58584 0.0
C1013 C 0.72844 0.67109 0.60362 0.0
C1014 C 0.73442 0.67111 0.63375 0.0
C1015 C 0.74102 0.65725 0.64666 0.0
C1016 C 0.74106 0.64331 0.62886 0.0
C1017 C 0.73509 0.64331 0.59887 0.0
C1018 C 0.68128 0.65306 0.48031 0.0
C1019 C 0.67409 0.68798 0.54742 0.0
O1020 O 0.66059 0.68725 0.44157 0.0
O1021 O 0.67089 0.71055 0.4496 0.0
O1022 O 0.68735 0.71115 0.50444 0.0
O1023 O 0.70509 0.6943 0.49356 0.0
O1024 O 0.69789 0.68071 0.43874 0.0
O1025 O 0.71833 0.67051 0.46804 0.0
O1026 O 0.72728 0.66917 0.53618 0.0
O1027 O 0.70978 0.65093 0.54721 0.0
O1028 O 0.69585 0.64826 0.48313 0.0
O1029 O 0.67902 0.66559 0.49541 0.0
O1030 O 0.68864 0.68211 0.54912 0.0
O1031 O 0.66668 0.68971 0.52082 0.0
H1032 H 0.63573 0.70785 0.39671 0.0
H1033 H 0.63546 0.71447 0.34196 0.0
H1034 H 0.68658 0.71059 0.33941 0.0
H1035 H 0.68669 0.70392 0.39422 0.0
H1036 H 0.7237 0.68197 0.59407 0.0
H1037 H 0.73426 0.6821 0.64662 0.0
H1038 H 0.74573 0.63233 0.63809 0.0
H1039 H 0.73553 0.63243 0.58563 0.0
Nd1040 Nd 0.0663 0.91977 0.22708 0.0
Nd1041 Nd 0.08718 0.94393 0.26308 0.0
C1042 C 0.05511 0.90023 0.18446 0.0
C1043 C 0.05127 0.90142 0.1514 0.0
C1044 C 0.04954 0.88762 0.13376 0.0
C1045 C 0.04532 0.8886 0.10268 0.0
C1046 C 0.04283 0.90342 0.08852 0.0
C1047 C 0.04494 0.91725 0.10619 0.0
C1048 C 0.04904 0.91625 0.13733 0.0
C1049 C 0.04988 0.94414 0.254 0.0
C1050 C 0.08194 0.9514 0.19114 0.0
C1051 C 0.09967 0.96372 0.30385 0.0
C1052 C 0.09808 0.96875 0.33643 0.0
C1053 C 0.08384 0.97504 0.34808 0.0
C1054 C 0.08298 0.9806 0.3784 0.0
C1055 C 0.09633 0.98 0.3979 0.0
C1056 C 0.11047 0.97343 0.38624 0.0
C1057 C 0.11133 0.96794 0.35592 0.0
C1058 C 0.10308 0.92071 0.23137 0.0
C1059 C 0.06667 0.91586 0.29968 0.0
O1060 O 0.07013 0.90104 0.19184 0.0
O1061 O 0.04609 0.90836 0.20311 0.0
O1062 O 0.04449 0.92973 0.25165 0.0
O1063 O 0.0632 0.94524 0.241 0.0
O1064 O 0.07537 0.93711 0.18958 0.0
O1065 O 0.0864 0.95769 0.21762 0.0
O1066 O 0.08836 0.96771 0.2847 0.0
O1067 O 0.10531 0.9495 0.29864 0.0
O1068 O 0.10821 0.93518 0.23418 0.0
O1069 O 0.09064 0.91878 0.24706 0.0
O1070 O 0.07295 0.93026 0.29985 0.0
O1071 O 0.06508 0.9076 0.27402 0.0
H1072 H 0.05129 0.87607 0.14411 0.0
H1073 H 0.04403 0.87772 0.0897 0.0
H1074 H 0.04301 0.92885 0.09618 0.0
H1075 H 0.05023 0.92706 0.15056 0.0
H1076 H 0.0734 0.97588 0.33367 0.0
H1077 H 0.07193 0.98572 0.38628 0.0
H1078 H 0.12092 0.97248 0.40057 0.0
H1079 H 0.12247 0.96318 0.34757 0.0
Nd1080 Nd 0.81428 0.30251 0.98583 0.0
Nd1081 Nd 0.79479 0.32741 0.02408 0.0
C1082 C 0.83004 0.28627 0.9434 0.0
C1083 C 0.8303 0.28459 0.90955 0.0
C1084 C 0.84384 0.27848 0.89505 0.0
C1085 C 0.8437 0.2751 0.86354 0.0
C1086 C 0.82998 0.27771 0.84573 0.0
C1087 C 0.81658 0.28436 0.86024 0.0
C1088 C 0.81675 0.28776 0.89177 0.0
C1089 C 0.78947 0.29072 0.02001 0.0
C1090 C 0.78477 0.32243 0.9531 0.0
C1091 C 0.77785 0.34247 0.0664 0.0
C1092 C 0.77232 0.34059 0.09843 0.0
C1093 C 0.77265 0.32583 0.11338 0.0
C1094 C 0.76678 0.3243 0.14344 0.0
C1095 C 0.76052 0.33751 0.15918 0.0
C1096 C 0.76045 0.35229 0.14409 0.0
C1097 C 0.76627 0.35379 0.1141 0.0
C1098 C 0.81811 0.34009 0.98799 0.0
C1099 C 0.82122 0.30343 0.05747 0.0
O1100 O 0.83543 0.29949 0.95531 0.0
O1101 O 0.81726 0.28111 0.95718 0.0
O1102 O 0.80267 0.2831 1.01552 0.0
O1103 O 0.78957 0.30347 1.00505 0.0
O1104 O 0.79837 0.31476 0.94996 0.0
O1105 O 0.77949 0.32718 0.98025 0.0
O1106 O 0.77168 0.33291 0.04594 0.0
O1107 O 0.79306 0.34485 0.06222 0.0
O1108 O 0.80513 0.34756 0.99481 0.0
O1109 O 0.8192 0.32718 1.00263 0.0
O1110 O 0.80796 0.31181 0.05959 0.0
O1111 O 0.82802 0.30045 0.03073 0.0
H1112 H 0.85442 0.27594 0.90828 0.0
H1113 H 0.85435 0.2703 0.85319 0.0
H1114 H 0.80575 0.28644 0.84751 0.0
H1115 H 0.80611 0.29241 0.90244 0.0
H1116 H 0.77733 0.31548 0.10175 0.0
H1117 H 0.76722 0.31277 0.15439 0.0
H1118 H 0.75554 0.36269 0.15517 0.0
H1119 H 0.76587 0.36529 0.10296 0.0
Nd1120 Nd 0.4491 0.91699 0.2353 0.0
Nd1121 Nd 0.42801 0.9352 0.2791 0.0
C1122 C 0.47149 0.9054 0.19865 0.0
C1123 C 0.47658 0.90621 0.16617 0.0
C1124 C 0.47083 0.91794 0.14613 0.0
C1125 C 0.47552 0.91811 0.11516 0.0
C1126 C 0.48596 0.90648 0.10359 0.0
C1127 C 0.49171 0.89485 0.12395 0.0
C1128 C 0.48707 0.89473 0.15483 0.0
C1129 C 0.42553 0.89943 0.26394 0.0
C1130 C 0.41982 0.93556 0.20425 0.0
C1131 C 0.40683 0.94805 0.31662 0.0
C1132 C 0.40601 0.9523 0.34947 0.0
C1133 C 0.41587 0.94501 0.37131 0.0
C1134 C 0.41609 0.95042 0.40177 0.0
C1135 C 0.40658 0.96334 0.41086 0.0
C1136 C 0.39647 0.97032 0.38897 0.0
C1137 C 0.39621 0.96486 0.35864 0.0
C1138 C 0.45189 0.95337 0.25672 0.0
C1139 C 0.45972 0.91962 0.30826 0.0
O1140 O 0.47338 0.91815 0.21542 0.0
O1141 O 0.45801 0.89822 0.20402 0.0
O1142 O 0.42959 0.89703 0.23558 0.0
O1143 O 0.43416 0.90986 0.27539 0.0
O1144 O 0.43385 0.9292 0.19958 0.0
O1145 O 0.41409 0.93744 0.23249 0.0
O1146 O 0.40686 0.93294 0.30948 0.0
O1147 O 0.41693 0.9563 0.3004 0.0
O1148 O 0.4491 0.95132 0.28574 0.0
O1149 O 0.44402 0.9435 0.24088 0.0
O1150 O 0.44531 0.92495 0.31439 0.0
O1151 O 0.46442 0.91705 0.27963 0.0
H1152 H 0.46262 0.92686 0.15435 0.0
H1153 H 0.47072 0.92715 0.10015 0.0
H1154 H 0.49994 0.88586 0.11609 0.0
H1155 H 0.49165 0.88558 0.16988 0.0
H1156 H 0.42368 0.93541 0.36464 0.0
H1157 H 0.42411 0.94486 0.41793 0.0
H1158 H 0.38884 0.98013 0.39522 0.0
H1159 H 0.38859 0.97072 0.34211 0.0
Nd1160 Nd 0.83189 0.70243 0.973 0.0
Nd1161 Nd 0.81683 0.67503 1.01398 0.0
C1162 C 0.83866 0.72344 0.92958 0.0
C1163 C 0.8346 0.72748 0.89737 0.0
C1164 C 0.83154 0.74335 0.88968 0.0
C1165 C 0.82904 0.74782 0.8591 0.0
C1166 C 0.82959 0.73652 0.83529 0.0
C1167 C 0.83203 0.72049 0.84323 0.0
C1168 C 0.8345 0.71602 0.87392 0.0
C1169 C 0.85262 0.68243 1.00244 0.0
C1170 C 0.81693 0.67013 0.9405 0.0
C1171 C 0.81202 0.65454 0.05918 0.0
C1172 C 0.80592 0.65601 0.0908 0.0
C1173 C 0.80824 0.64377 0.11213 0.0
C1174 C 0.80207 0.64502 0.14194 0.0
C1175 C 0.79344 0.65856 0.15094 0.0
C1176 C 0.7915 0.67095 0.12959 0.0
C1177 C 0.79769 0.6697 0.09988 0.0
C1178 C 0.79537 0.69388 0.98529 0.0
C1179 C 0.82655 0.71042 0.04484 0.0
O1180 O 0.8277 0.72574 0.95041 0.0
O1181 O 0.84701 0.71057 0.93442 0.0
O1182 O 0.8553 0.69752 0.99874 0.0
O1183 O 0.83989 0.67842 0.98944 0.0
O1184 O 0.82046 0.68538 0.93865 0.0
O1185 O 0.81696 0.66225 0.96697 0.0
O1186 O 0.82576 0.66122 0.05383 0.0
O1187 O 0.80174 0.65714 0.03723 0.0
O1188 O 0.79218 0.67949 0.99414 0.0
O1189 O 0.80849 0.69839 0.99625 0.0
O1190 O 0.8221 0.69541 0.04842 0.0
O1191 O 0.82994 0.71652 0.01762 0.0
H1192 H 0.83141 0.75239 0.90734 0.0
H1193 H 0.82679 0.7602 0.85413 0.0
H1194 H 0.83258 0.71142 0.82566 0.0
H1195 H 0.83672 0.70366 0.87917 0.0
H1196 H 0.81466 0.63316 0.10562 0.0
H1197 H 0.80374 0.63522 0.1577 0.0
H1198 H 0.7852 0.68167 0.13586 0.0
H1199 H 0.79596 0.6794 0.08388 0.0
Nd1200 Nd 0.03992 0.06901 0.72795 0.0
Nd1201 Nd 0.06731 0.05728 0.76672 0.0
C1202 C 0.01675 0.07379 0.6876 0.0
C1203 C 0.0137 0.07464 0.65409 0.0
C1204 C 0.01919 0.06296 0.63364 0.0
C1205 C 0.01549 0.06382 0.60225 0.0
C1206 C 0.0063 0.07643 0.59059 0.0
C1207 C 0.001 0.08816 0.61117 0.0
C1208 C 0.00463 0.08724 0.64248 0.0
C1209 C 0.06385 0.09073 0.7394 0.0
C1210 C 0.06863 0.04895 0.69495 0.0
C1211 C 0.08968 0.05307 0.80873 0.0
C1212 C 0.08911 0.04686 0.84042 0.0
C1213 C 0.10283 0.0465 0.85861 0.0
C1214 C 0.10234 0.04009 0.88832 0.0
C1215 C 0.08812 0.03377 0.90028 0.0
C1216 C 0.07436 0.03436 0.88199 0.0
C1217 C 0.07484 0.04087 0.85242 0.0
C1218 C 0.04356 0.03529 0.76157 0.0
C1219 C 0.03649 0.07543 0.7996 0.0
O1220 O 0.02003 0.05991 0.69952 0.0
O1221 O 0.02509 0.08526 0.69974 0.0
O1222 O 0.04887 0.09424 0.73909 0.0
O1223 O 0.06564 0.07643 0.73198 0.0
O1224 O 0.05339 0.05242 0.69554 0.0
O1225 O 0.07791 0.0524 0.71856 0.0
O1226 O 0.0826 0.06665 0.80411 0.0
O1227 O 0.08653 0.04276 0.78719 0.0
O1228 O 0.05854 0.032 0.76156 0.0
O1229 O 0.04132 0.04997 0.76485 0.0
O1230 O 0.05186 0.07207 0.80083 0.0
O1231 O 0.02823 0.07288 0.77436 0.0
H1232 H 0.02626 0.05312 0.64189 0.0
H1233 H 0.01993 0.05468 0.58706 0.0
H1234 H 0.99373 0.09791 0.6032 0.0
H1235 H 0.00018 0.09635 0.65778 0.0
H1236 H 0.11396 0.05103 0.84973 0.0
H1237 H 0.11318 0.03971 0.90164 0.0
H1238 H 0.06317 0.02982 0.89057 0.0
H1239 H 0.06409 0.04109 0.83875 0.0
Nd1240 Nd 0.65625 0.28804 0.48226 0.0
Nd1241 Nd 0.67856 0.30971 0.52332 0.0
C1242 C 0.64351 0.27136 0.43686 0.0
C1243 C 0.64777 0.26628 0.40518 0.0
C1244 C 0.64737 0.25012 0.39738 0.0
C1245 C 0.65017 0.24518 0.3671 0.0
C1246 C 0.65333 0.25633 0.34377 0.0
C1247 C 0.65418 0.27248 0.35182 0.0
C1248 C 0.65149 0.2774 0.38213 0.0
C1249 C 0.64249 0.31395 0.50935 0.0
C1250 C 0.68217 0.31242 0.45017 0.0
C1251 C 0.68944 0.32929 0.56607 0.0
C1252 C 0.69528 0.32883 0.5981 0.0
C1253 C 0.68804 0.3193 0.62061 0.0
C1254 C 0.69397 0.31901 0.65071 0.0
C1255 C 0.7073 0.32819 0.65888 0.0
C1256 C 0.71443 0.33776 0.63622 0.0
C1257 C 0.70848 0.33807 0.60623 0.0
C1258 C 0.69292 0.28369 0.49887 0.0
C1259 C 0.65798 0.27932 0.5546 0.0
O1260 O 0.65122 0.26482 0.45965 0.0
O1261 O 0.64077 0.28647 0.44131 0.0
O1262 O 0.6353 0.30041 0.50604 0.0
O1263 O 0.65606 0.31365 0.49718 0.0
O1264 O 0.67477 0.29859 0.44948 0.0
O1265 O 0.68278 0.32105 0.47564 0.0
O1266 O 0.67431 0.32659 0.5615 0.0
O1267 O 0.6985 0.3227 0.5453 0.0
O1268 O 0.70066 0.29654 0.50587 0.0
O1269 O 0.67885 0.2845 0.50838 0.0
O1270 O 0.66634 0.29261 0.5582 0.0
O1271 O 0.65354 0.27411 0.52717 0.0
H1272 H 0.64454 0.24129 0.41463 0.0
H1273 H 0.64932 0.23266 0.36176 0.0
H1274 H 0.65685 0.28137 0.3346 0.0
H1275 H 0.65207 0.28995 0.38734 0.0
H1276 H 0.67787 0.31203 0.61492 0.0
H1277 H 0.68827 0.31139 0.66744 0.0
H1278 H 0.72454 0.34517 0.64172 0.0
H1279 H 0.71422 0.34555 0.5893 0.0
H1280 H 0.08257 0.48113 0.17849 0.0
H1281 H 0.08692 0.49468 0.22769 0.0
H1282 H 0.05838 0.45939 0.27355 0.0
H1283 H 0.05432 0.44567 0.22507 0.0
H1284 H 0.06671 0.50822 0.26843 0.0
H1285 H 0.09743 0.4585 0.32609 0.0
H1286 H 0.0937 0.45864 0.28532 0.0
H1287 H 0.07835 0.4527 0.31175 0.0
C1288 C 0.07726 0.47624 0.19907 0.0
C1289 C 0.0682 0.4622 0.19769 0.0
C1290 C 0.07976 0.484 0.22723 0.0
C1291 C 0.0733 0.47789 0.2546 0.0
C1292 C 0.06392 0.46412 0.25306 0.0
H1293 H 0.06398 0.50548 0.44502 0.0
H1294 H 0.06222 0.4936 0.39384 0.0
C1295 C 0.06151 0.45633 0.2251 0.0
C1296 C 0.076 0.48597 0.28472 0.0
H1297 H 0.08807 0.47937 0.35868 0.0
C1298 C 0.07156 0.50195 0.28805 0.0
C1299 C 0.08238 0.47786 0.31045 0.0
C1300 C 0.08839 0.46103 0.30818 0.0
C1301 C 0.07278 0.50982 0.3165 0.0
C1302 C 0.07871 0.50155 0.34235 0.0
C1303 C 0.08342 0.48568 0.33893 0.0
C1304 C 0.07979 0.50903 0.37332 0.0
C1305 C 0.06726 0.52678 0.31899 0.0
C1306 C 0.09037 0.52159 0.37899 0.0
C1307 C 0.09144 0.5284 0.40832 0.0
C1308 C 0.08189 0.52285 0.43263 0.0
C1309 C 0.07135 0.51022 0.42681 0.0
C1310 C 0.07039 0.50335 0.39758 0.0
H1311 H 0.0603 0.53054 0.29859 0.0
H1312 H 0.05986 0.52843 0.33986 0.0
H1313 H 0.07774 0.5347 0.32101 0.0
H1314 H 0.0979 0.52606 0.36075 0.0
H1315 H 0.09963 0.53815 0.41187 0.0
H1316 H 0.73404 0.82525 0.68715 0.0
H1317 H 0.74674 0.82635 0.63672 0.0
H1318 H 0.71002 0.85778 0.6044 0.0
H1319 H 0.69727 0.85682 0.6549 0.0
H1320 H 0.73629 0.81814 0.57937 0.0
H1321 H 0.74978 0.88262 0.58338 0.0
H1322 H 0.74327 0.87168 0.6167 0.0
H1323 H 0.72914 0.87793 0.58823 0.0
C1324 C 0.72856 0.8323 0.66925 0.0
C1325 C 0.71465 0.84102 0.67518 0.0
C1326 C 0.73589 0.83296 0.64044 0.0
C1327 C 0.72952 0.84237 0.61687 0.0
C1328 C 0.7154 0.85076 0.62242 0.0
H1329 H 0.76099 0.85475 0.42606 0.0
H1330 H 0.74555 0.85542 0.47385 0.0
C1331 C 0.7081 0.85017 0.65131 0.0
C1332 C 0.73773 0.84338 0.58662 0.0
H1333 H 0.75573 0.86926 0.53698 0.0
C1334 C 0.74052 0.82932 0.57013 0.0
C1335 C 0.74329 0.85799 0.5745 0.0
C1336 C 0.74137 0.8734 0.5917 0.0
C1337 C 0.74868 0.82948 0.54196 0.0
C1338 C 0.7543 0.84405 0.53006 0.0
C1339 C 0.75133 0.85813 0.54619 0.0
C1340 C 0.76394 0.84474 0.50159 0.0
C1341 C 0.75125 0.81407 0.52501 0.0
C1342 C 0.77954 0.839 0.50167 0.0
C1343 C 0.78846 0.83879 0.47461 0.0
C1344 C 0.78191 0.84424 0.44677 0.0
C1345 C 0.76644 0.85055 0.44705 0.0
C1346 C 0.75756 0.85086 0.47428 0.0
H1347 H 0.7438 0.80431 0.53434 0.0
H1348 H 0.74856 0.81554 0.50021 0.0
H1349 H 0.7639 0.81053 0.52702 0.0
H1350 H 0.78473 0.83439 0.52261 0.0
H1351 H 0.80031 0.83384 0.47541 0.0
H1352 H 0.41057 0.50644 0.68608 0.0
H1353 H 0.4093 0.49195 0.73495 0.0
H1354 H 0.42056 0.53497 0.78381 0.0
H1355 H 0.42145 0.54953 0.73557 0.0
H1356 H 0.43214 0.48714 0.77921 0.0
H1357 H 0.38179 0.52013 0.83003 0.0
H1358 H 0.38689 0.52162 0.7899 0.0
H1359 H 0.39767 0.53291 0.81812 0.0
C1360 C 0.4126 0.51286 0.70725 0.0
C1361 C 0.41599 0.52922 0.70671 0.0
C1362 C 0.41194 0.50453 0.73521 0.0
C1363 C 0.41455 0.51239 0.76325 0.0
C1364 C 0.41809 0.52867 0.76268 0.0
H1365 H 0.42275 0.4876 0.95612 0.0
H1366 H 0.42305 0.50021 0.90546 0.0
C1367 C 0.4187 0.53698 0.73488 0.0
C1368 C 0.41398 0.5036 0.79309 0.0
H1369 H 0.39668 0.50378 0.86422 0.0
C1370 C 0.42426 0.49068 0.79767 0.0
C1371 C 0.40373 0.50819 0.81733 0.0
C1372 C 0.39178 0.52137 0.81356 0.0
C1373 C 0.42487 0.48256 0.82596 0.0
C1374 C 0.41482 0.48735 0.85032 0.0
C1375 C 0.40444 0.50014 0.84565 0.0
C1376 C 0.415 0.47939 0.88098 0.0
C1377 C 0.4366 0.4692 0.8299 0.0
C1378 C 0.41026 0.46348 0.88426 0.0
C1379 C 0.41004 0.45623 0.91328 0.0
C1380 C 0.41461 0.46469 0.93974 0.0
C1381 C 0.41936 0.48063 0.93629 0.0
C1382 C 0.41946 0.4879 0.90732 0.0
H1383 H 0.44576 0.46921 0.81153 0.0
H1384 H 0.44261 0.47002 0.85253 0.0
H1385 H 0.43018 0.45771 0.82899 0.0
H1386 H 0.40655 0.45671 0.86438 0.0
H1387 H 0.40641 0.44393 0.91496 0.0
H1388 H 0.76077 0.16447 0.20002 0.0
H1389 H 0.7479 0.1664 0.14986 0.0
H1390 H 0.78546 0.13859 0.10963 0.0
H1391 H 0.79829 0.13643 0.1599 0.0
H1392 H 0.75763 0.17922 0.09662 0.0
H1393 H 0.74719 0.11489 0.079 0.0
H1394 H 0.75339 0.12292 0.11545 0.0
H1395 H 0.76766 0.11977 0.08532 0.0
C1396 C 0.76633 0.15879 0.1805 0.0
C1397 C 0.78055 0.15023 0.18409 0.0
C1398 C 0.75892 0.15986 0.15179 0.0
C1399 C 0.76552 0.15241 0.12591 0.0
C1400 C 0.77986 0.14408 0.12931 0.0
H1401 H 0.73546 0.15066 0.93273 0.0
H1402 H 0.75062 0.14826 0.98063 0.0
C1403 C 0.78723 0.14289 0.15809 0.0
C1404 C 0.75748 0.15367 0.09542 0.0
H1405 H 0.74147 0.13179 0.03689 0.0
C1406 C 0.75409 0.16883 0.08364 0.0
C1407 C 0.75282 0.14013 0.07831 0.0
C1408 C 0.7553 0.12351 0.09025 0.0
C1409 C 0.74627 0.17081 0.05535 0.0
C1410 C 0.74158 0.15729 0.03837 0.0
C1411 C 0.74514 0.14214 0.04986 0.0
C1412 C 0.73241 0.15865 1.00925 0.0
C1413 C 0.74318 0.18739 0.0437 0.0
C1414 C 0.71704 0.16504 1.00947 0.0
C1415 C 0.70832 0.16632 0.98227 0.0
C1416 C 0.71476 0.16127 0.95406 0.0
C1417 C 0.73012 0.15471 0.95394 0.0
C1418 C 0.73882 0.15333 0.98131 0.0
H1419 H 0.75082 0.1963 0.05535 0.0
H1420 H 0.74524 0.18815 0.01856 0.0
H1421 H 0.73061 0.19055 0.04819 0.0
H1422 H 0.71174 0.16898 0.0308 0.0
H1423 H 0.69651 0.17132 0.98344 0.0
H1424 H 0.9114 0.51647 0.18118 0.0
H1425 H 0.91142 0.50189 0.13248 0.0
H1426 H 0.9142 0.54603 0.08276 0.0
H1427 H 0.91419 0.56069 0.13119 0.0
H1428 H 0.89169 0.52328 0.05858 0.0
H1429 H 0.95175 0.49757 0.077 0.0
H1430 H 0.9377 0.49495 0.10769 0.0
H1431 H 0.94461 0.51449 0.09833 0.0
C1432 C 0.91171 0.5231 0.15989 0.0
C1433 C 0.91273 0.53978 0.16016 0.0
C1434 C 0.9119 0.51473 0.13206 0.0
C1435 C 0.91303 0.52286 0.10397 0.0
C1436 C 0.91339 0.5395 0.10414 0.0
H1437 H 0.94033 0.49341 0.92123 0.0
H1438 H 0.93823 0.5048 0.97274 0.0
C1439 C 0.91334 0.54787 0.1319 0.0
C1440 C 0.91407 0.51411 0.07433 0.0
H1441 H 0.93826 0.49006 0.03177 0.0
C1442 C 0.90181 0.51592 0.05278 0.0
C1443 C 0.9274 0.50469 0.06664 0.0
C1444 C 0.94121 0.50284 0.08843 0.0
C1445 C 0.9025 0.50857 0.02381 0.0
C1446 C 0.91574 0.49902 1.01619 0.0
C1447 C 0.92804 0.49724 0.03772 0.0
C1448 C 0.91733 0.49139 0.98544 0.0
C1449 C 0.88924 0.51147 1.00122 0.0
C1450 C 0.90646 0.47982 0.97555 0.0
C1451 C 0.90761 0.47329 0.94601 0.0
C1452 C 0.91965 0.47821 0.92567 0.0
C1453 C 0.93076 0.48951 0.93602 0.0
C1454 C 0.92964 0.49597 0.96558 0.0
H1455 H 0.88171 0.52169 1.00804 0.0
H1456 H 0.89405 0.51372 0.97788 0.0
H1457 H 0.88157 0.50077 1.00005 0.0
H1458 H 0.89699 0.47593 0.9906 0.0
H1459 H 0.89881 0.46469 0.93883 0.0
H1460 H 0.22519 0.16058 0.92206 0.0
H1461 H 0.24048 0.16039 0.87404 0.0
H1462 H 0.20155 0.18304 0.82719 0.0
H1463 H 0.18639 0.1835 0.87475 0.0
H1464 H 0.23338 0.14631 0.81758 0.0
H1465 H 0.23901 0.21142 0.80403 0.0
H1466 H 0.23379 0.20214 0.84 0.0
H1467 H 0.21898 0.205 0.81078 0.0
C1468 C 0.2199 0.16555 0.90155 0.0
C1469 C 0.20449 0.172 0.90241 0.0
C1470 C 0.22866 0.16543 0.87409 0.0
C1471 C 0.22229 0.17193 0.84703 0.0
C1472 C 0.20689 0.17825 0.84782 0.0
H1473 H 0.24497 0.15455 0.65676 0.0
H1474 H 0.23463 0.15465 0.70904 0.0
C1475 C 0.19814 0.17833 0.87512 0.0
C1476 C 0.23143 0.17176 0.81767 0.0
H1477 H 0.24468 0.19576 0.75971 0.0
C1478 C 0.23599 0.15713 0.80506 0.0
C1479 C 0.23513 0.18588 0.80152 0.0
C1480 C 0.23163 0.20202 0.81486 0.0
C1481 C 0.24354 0.1562 0.77626 0.0
C1482 C 0.24633 0.17026 0.7592 0.0
C1483 C 0.24236 0.18494 0.77244 0.0
C1484 C 0.25293 0.17 0.72733 0.0
C1485 C 0.24854 0.14012 0.76455 0.0
C1486 C 0.26646 0.17896 0.71968 0.0
C1487 C 0.27227 0.17918 0.68947 0.0
C1488 C 0.26463 0.17051 0.66607 0.0
C1489 C 0.25111 0.16152 0.67392 0.0
C1490 C 0.24529 0.16136 0.70404 0.0
H1491 H 0.25043 0.13163 0.78373 0.0
H1492 H 0.23902 0.13523 0.74969 0.0
H1493 H 0.25964 0.14089 0.75088 0.0
H1494 H 0.27251 0.18585 0.7371 0.0
H1495 H 0.28256 0.18643 0.68435 0.0
H1496 H 0.57311 0.54227 0.45401 0.0
H1497 H 0.57467 0.5314 0.5062 0.0
H1498 H 0.57172 0.48398 0.46967 0.0
H1499 H 0.57014 0.49468 0.41769 0.0
H1500 H 0.55401 0.51223 0.5393 0.0
H1501 H 0.61125 0.48117 0.52262 0.0
H1502 H 0.60395 0.49578 0.49584 0.0
H1503 H 0.59662 0.47572 0.49463 0.0
C1504 C 0.57272 0.52953 0.45708 0.0
C1505 C 0.5717 0.51937 0.43147 0.0
C1506 C 0.57367 0.52332 0.48697 0.0
C1507 C 0.57369 0.50684 0.49193 0.0
C1508 C 0.57223 0.49672 0.46649 0.0
H1509 H 0.57156 0.44023 0.64121 0.0
H1510 H 0.57167 0.45464 0.59267 0.0
C1511 C 0.57132 0.50288 0.43668 0.0
C1512 C 0.57499 0.50014 0.52361 0.0
H1513 H 0.59645 0.47415 0.5674 0.0
C1514 C 0.56341 0.50407 0.54557 0.0
C1515 C 0.58726 0.48948 0.53192 0.0
C1516 C 0.60056 0.4854 0.51012 0.0
C1517 C 0.56343 0.49717 0.57506 0.0
C1518 C 0.57545 0.4862 0.58303 0.0
C1519 C 0.58722 0.48254 0.56132 0.0
C1520 C 0.57556 0.47768 0.61309 0.0
C1521 C 0.55016 0.50107 0.59703 0.0
C1522 C 0.57792 0.48579 0.64094 0.0
C1523 C 0.57796 0.47753 0.669 0.0
C1524 C 0.57559 0.46099 0.66975 0.0
C1525 C 0.5734 0.45295 0.64171 0.0
C1526 C 0.57346 0.46118 0.6138 0.0
H1527 H 0.54042 0.50776 0.58576 0.0
H1528 H 0.5452 0.49 0.60703 0.0
H1529 H 0.55487 0.50838 0.61615 0.0
H1530 H 0.57979 0.49851 0.64097 0.0
H1531 H 0.57966 0.48412 0.69008 0.0
H1532 H 0.30672 0.83642 0.39674 0.0
H1533 H 0.29149 0.83845 0.34903 0.0
H1534 H 0.24844 0.84456 0.40118 0.0
H1535 H 0.2636 0.84261 0.44909 0.0
H1536 H 0.24833 0.81938 0.35336 0.0
H1537 H 0.26858 0.87818 0.3105 0.0
H1538 H 0.28386 0.86484 0.32331 0.0
H1539 H 0.26985 0.87258 0.35047 0.0
C1540 C 0.29405 0.83849 0.39807 0.0
C1541 C 0.28639 0.83947 0.42673 0.0
C1542 C 0.28537 0.83965 0.37077 0.0
C1543 C 0.26884 0.84171 0.37155 0.0
C1544 C 0.26119 0.84304 0.40008 0.0
H1545 H 0.20698 0.86093 0.21526 0.0
H1546 H 0.22015 0.86095 0.2653 0.0
C1547 C 0.2699 0.84207 0.42743 0.0
C1548 C 0.2595 0.84169 0.3426 0.0
H1549 H 0.25332 0.86251 0.27635 0.0
C1550 C 0.24933 0.82885 0.33657 0.0
C1551 C 0.2608 0.85406 0.32081 0.0
C1552 C 0.27126 0.86829 0.32652 0.0
C1553 C 0.24065 0.82791 0.30903 0.0
C1554 C 0.24222 0.84013 0.28689 0.0
C1555 C 0.25216 0.85312 0.29325 0.0
C1556 C 0.23376 0.83966 0.25687 0.0
C1557 C 0.22979 0.81391 0.30396 0.0
C1558 C 0.23708 0.82773 0.23534 0.0
C1559 C 0.2297 0.82777 0.20651 0.0
C1560 C 0.21882 0.83977 0.19848 0.0
C1561 C 0.21543 0.85161 0.22032 0.0
C1562 C 0.22288 0.8516 0.24908 0.0
H1563 H 0.22683 0.80782 0.32587 0.0
H1564 H 0.2186 0.81764 0.29263 0.0
H1565 H 0.23581 0.80521 0.2888 0.0
H1566 H 0.24567 0.81856 0.24057 0.0
H1567 H 0.23289 0.81862 0.19021 0.0
H1568 H 0.54595 0.01686 0.94033 0.0
H1569 H 0.54616 0.00617 0.88811 0.0
H1570 H 0.5949 0.99184 0.89959 0.0
H1571 H 0.59498 0.00295 0.95144 0.0
H1572 H 0.58917 0.0059 0.84288 0.0
H1573 H 0.54476 0.95884 0.8675 0.0
H1574 H 0.53823 0.97858 0.8764 0.0
H1575 H 0.55444 0.97002 0.89746 0.0
C1576 C 0.55679 0.01162 0.93165 0.0
C1577 C 0.57043 0.0107 0.95026 0.0
C1578 C 0.55682 0.00534 0.90188 0.0
C1579 C 0.57045 -0.00206 0.8901 0.0
C1580 C 0.5842 -0.00262 0.90826 0.0
H1581 H 0.57725 0.93225 0.73859 0.0
H1582 H 0.57747 0.94589 0.78802 0.0
C1583 C 0.58419 0.00365 0.93802 0.0
C1584 C 0.5704 0.99067 0.85898 0.0
H1585 H 0.55291 0.96167 0.81582 0.0
C1586 C 0.58123 0.99625 0.83691 0.0
C1587 C 0.56017 0.97793 0.85134 0.0
C1588 C 0.54884 0.97085 0.87445 0.0
C1589 C 0.58205 0.9895 0.80742 0.0
C1590 C 0.57161 0.97697 0.79961 0.0
C1591 C 0.56082 0.97136 0.82171 0.0
C1592 C 0.57206 0.96902 0.76912 0.0
C1593 C 0.59439 0.99554 0.78518 0.0
C1594 C 0.56902 0.97746 0.74191 0.0
C1595 C 0.56888 0.96964 0.71349 0.0
C1596 C 0.57156 0.95321 0.7119 0.0
C1597 C 0.57483 0.94486 0.73912 0.0
C1598 C 0.57504 0.95266 0.7674 0.0
H1599 H 0.6039 0.00233 0.79702 0.0
H1600 H 0.59992 0.98559 0.77235 0.0
H1601 H 0.58864 0.00356 0.76833 0.0
H1602 H 0.56639 0.99003 0.7427 0.0
H1603 H 0.56615 0.97635 0.69294 0.0
H1604 H 0.26373 0.32579 0.91744 0.0
H1605 H 0.24869 0.32698 0.96566 0.0
H1606 H 0.29223 0.32247 1.01693 0.0
H1607 H 0.30721 0.32093 0.96915 0.0
H1608 H 0.26998 0.30272 0.03873 0.0
H1609 H 0.24409 0.3629 0.02655 0.0
H1610 H 0.23963 0.34974 0.99532 0.0
H1611 H 0.2598 0.3558 1.00201 0.0
C1612 C 0.27011 0.32529 0.93899 0.0
C1613 C 0.2867 0.32335 0.93933 0.0
C1614 C 0.26149 0.326 0.9666 0.0
C1615 C 0.26931 0.32502 0.99511 0.0
C1616 C 0.28588 0.32327 0.99536 0.0
H1617 H 0.23681 0.34966 0.17754 0.0
H1618 H 0.24833 0.34848 0.12616 0.0
C1619 C 0.29446 0.32243 0.96791 0.0
C1620 C 0.26037 0.32525 0.02478 0.0
H1621 H 0.23557 0.34771 0.06926 0.0
C1622 C 0.26243 0.31256 0.04535 0.0
C1623 C 0.25061 0.33814 0.03367 0.0
C1624 C 0.24848 0.35249 1.0134 0.0
C1625 C 0.25518 0.31243 0.07447 0.0
C1626 C 0.24522 0.3252 0.0832 0.0
C1627 C 0.24307 0.33786 0.06257 0.0
C1628 C 0.23758 0.326 0.11418 0.0
C1629 C 0.25876 0.29887 0.09602 0.0
C1630 C 0.22741 0.31391 0.12461 0.0
C1631 C 0.22095 0.31442 0.15431 0.0
C1632 C 0.22438 0.32714 0.17425 0.0
C1633 C 0.23415 0.33949 0.16326 0.0
C1634 C 0.24065 0.33892 0.13366 0.0
H1635 H 0.26972 0.29243 0.08922 0.0
H1636 H 0.26021 0.30313 0.11996 0.0
H1637 H 0.24878 0.29028 0.0955 0.0
H1638 H 0.22453 0.30398 0.10986 0.0
H1639 H 0.21357 0.30464 0.16183 0.0
H1640 H 0.91476 0.05478 0.22592 0.0
H1641 H 0.91456 0.0396 0.27365 0.0
H1642 H 0.91697 0.99603 0.22201 0.0
H1643 H 0.91762 0.01126 0.17396 0.0
H1644 H 0.89351 0.01656 0.29463 0.0
H1645 H 0.95431 0.99181 0.28201 0.0
H1646 H 0.94719 0.00814 0.259 0.0
H1647 H 0.94113 0.98821 0.25033 0.0
C1648 C 0.91534 0.04198 0.22465 0.0
C1649 C 0.91641 0.03426 0.19611 0.0
C1650 C 0.91514 0.0333 0.252 0.0
C1651 C 0.91605 0.01668 0.25151 0.0
C1652 C 0.91658 0.00886 0.22301 0.0
H1653 H 0.91982 0.94953 0.40589 0.0
H1654 H 0.91902 0.96128 0.35438 0.0
C1655 C 0.91676 0.01758 0.19555 0.0
C1656 C 0.91638 0.00769 0.28095 0.0
H1657 H 0.93964 0.9837 0.32555 0.0
C1658 C 0.90358 0.00934 0.30133 0.0
C1659 C 0.92952 -0.00176 0.28971 0.0
C1660 C 0.9439 0.99654 0.2693 0.0
C1661 C 0.90355 0.00187 0.3302 0.0
C1662 C 0.91682 0.99269 0.33923 0.0
C1663 C 0.92949 0.99074 0.31861 0.0
C1664 C 0.91794 0.98553 0.37042 0.0
C1665 C 0.88926 0.00381 0.35073 0.0
C1666 C 0.91799 0.99526 0.39656 0.0
C1667 C 0.91854 0.98861 0.42598 0.0
C1668 C 0.9191 0.97204 0.43002 0.0
C1669 C 0.91949 0.96233 0.40371 0.0
C1670 C 0.91896 0.96902 0.37423 0.0
H1671 H 0.87857 0.00739 0.33751 0.0
H1672 H 0.88659 0.99264 0.36325 0.0
H1673 H 0.89173 0.01321 0.36791 0.0
H1674 H 0.91761 0.00805 0.39421 0.0
H1675 H 0.91859 0.99649 0.4456 0.0
H1676 H 0.19317 0.69039 0.49369 0.0
H1677 H 0.20756 0.68725 0.54183 0.0
H1678 H 0.25028 0.67626 0.4917 0.0
H1679 H 0.23593 0.67938 0.44312 0.0
H1680 H 0.22351 0.6591 0.56138 0.0
H1681 H 0.26443 0.7108 0.55397 0.0
H1682 H 0.24669 0.70925 0.53089 0.0
H1683 H 0.26396 0.69788 0.52115 0.0
C1684 C 0.20564 0.68739 0.49273 0.0
C1685 C 0.21335 0.68511 0.46439 0.0
C1686 C 0.21386 0.6856 0.52037 0.0
C1687 C 0.23002 0.68165 0.52039 0.0
C1688 C 0.23786 0.67955 0.49221 0.0
H1689 H 0.29546 0.66477 0.67333 0.0
H1690 H 0.28378 0.66846 0.62227 0.0
C1691 C 0.22961 0.68128 0.46446 0.0
C1692 C 0.23837 0.67904 0.55001 0.0
H1693 H 0.2676 0.69368 0.59649 0.0
C1694 C 0.23316 0.66665 0.56906 0.0
C1695 C 0.25103 0.68883 0.55987 0.0
C1696 C 0.25684 0.70253 0.54059 0.0
C1697 C 0.24024 0.66377 0.59771 0.0
C1698 C 0.25265 0.6738 0.60798 0.0
C1699 C 0.25806 0.68603 0.58867 0.0
C1700 C 0.25986 0.67199 0.63899 0.0
C1701 C 0.2345 0.64985 0.61649 0.0
C1702 C 0.25038 0.6731 0.66542 0.0
C1703 C 0.257 0.67097 0.69456 0.0
C1704 C 0.27331 0.66785 0.698 0.0
C1705 C 0.28288 0.66721 0.67153 0.0
C1706 C 0.27621 0.66927 0.64232 0.0
H1707 H 0.22859 0.64078 0.60191 0.0
H1708 H 0.24445 0.64412 0.629 0.0
H1709 H 0.2257 0.65405 0.63359 0.0
H1710 H 0.23782 0.67564 0.66353 0.0
H1711 H 0.24935 0.6719 0.71446 0.0
H1712 H 0.41242 0.00984 0.69827 0.0
H1713 H 0.41102 0.99436 0.65053 0.0
H1714 H 0.4148 0.03748 0.59771 0.0
H1715 H 0.41636 0.05291 0.64487 0.0
H1716 H 0.38999 0.99541 0.60066 0.0
H1717 H 0.45085 0.0108 0.56304 0.0
H1718 H 0.44391 0.01435 0.60163 0.0
H1719 H 0.43908 0.02801 0.57127 0.0
C1720 C 0.41282 0.01602 0.67647 0.0
C1721 C 0.41462 0.03262 0.67546 0.0
C1722 C 0.41208 0.00715 0.6492 0.0
C1723 C 0.41316 0.01472 0.62049 0.0
C1724 C 0.41437 0.03131 0.61952 0.0
H1725 H 0.40755 0.99456 0.42791 0.0
H1726 H 0.40914 0.0056 0.47971 0.0
C1727 C 0.41517 0.04014 0.64661 0.0
C1728 C 0.41301 0.00544 0.59137 0.0
H1729 H 0.43373 -0.00028 0.52477 0.0
C1730 C 0.39964 0.99616 0.58423 0.0
C1731 C 0.42564 0.00635 0.56996 0.0
C1732 C 0.44075 0.01528 0.57695 0.0
C1733 C 0.39826 0.9884 0.55572 0.0
C1734 C 0.41064 0.98983 0.5339 0.0
C1735 C 0.42419 -0.00129 0.54141 0.0
C1736 C 0.40948 0.98283 0.5026 0.0
C1737 C 0.38333 0.97923 0.54861 0.0
C1738 C 0.40928 0.96632 0.49817 0.0
C1739 C 0.40838 0.95994 0.46846 0.0
C1740 C 0.40758 0.96996 0.44261 0.0
C1741 C 0.40787 0.98648 0.44725 0.0
C1742 C 0.40888 0.99283 0.47686 0.0
H1743 H 0.37379 0.98153 0.56566 0.0
H1744 H 0.37886 0.98233 0.52539 0.0
H1745 H 0.386 0.96635 0.54882 0.0
H1746 H 0.40994 0.95837 0.51766 0.0
H1747 H 0.40813 0.94717 0.46574 0.0
H1748 H 0.76402 0.66988 0.16614 0.0
H1749 H 0.75193 0.67167 0.21703 0.0
H1750 H 0.79381 0.65099 0.2573 0.0
H1751 H 0.80619 0.64948 0.20642 0.0
H1752 H 0.74567 0.64649 0.25846 0.0
H1753 H 0.78642 0.69125 0.30942 0.0
H1754 H 0.78519 0.68787 0.26855 0.0
H1755 H 0.79574 0.67416 0.29258 0.0
C1756 C 0.77078 0.6659 0.18583 0.0
C1757 C 0.78614 0.65963 0.18213 0.0
C1758 C 0.76379 0.66684 0.21491 0.0
C1759 C 0.77202 0.66165 0.24106 0.0
C1760 C 0.78732 0.6553 0.23753 0.0
H1761 H 0.74286 0.66334 0.4351 0.0
H1762 H 0.7578 0.65921 0.38739 0.0
C1763 C 0.79432 0.6543 0.20837 0.0
C1764 C 0.76432 0.66255 0.27177 0.0
H1765 H 0.7666 0.68068 0.34186 0.0
C1766 C 0.75027 0.65394 0.27672 0.0
C1767 C 0.77038 0.67218 0.29567 0.0
C1768 C 0.78519 0.68201 0.29139 0.0
C1769 C 0.74208 0.65474 0.3048 0.0
C1770 C 0.74788 0.66472 0.32843 0.0
C1771 C 0.76214 0.67305 0.32376 0.0
C1772 C 0.73892 0.66721 0.35753 0.0
C1773 C 0.72734 0.64478 0.30893 0.0
C1774 C 0.72344 0.67332 0.3567 0.0
C1775 C 0.71487 0.67563 0.38381 0.0
C1776 C 0.72162 0.67207 0.41256 0.0
C1777 C 0.73725 0.66617 0.41342 0.0
C1778 C 0.74583 0.66382 0.38615 0.0
H1779 H 0.72729 0.63442 0.29317 0.0
H1780 H 0.72626 0.64041 0.3329 0.0
H1781 H 0.71674 0.65208 0.30362 0.0
H1782 H 0.71796 0.67638 0.335 0.0
H1783 H 0.7029 0.68018 0.38209 0.0
H1784 H 0.09315 0.98189 0.18348 0.0
H1785 H 0.09446 -0.00273 0.13563 0.0
H1786 H 0.0753 0.95752 0.08568 0.0
H1787 H 0.0742 0.94203 0.1329 0.0
H1788 H 0.11074 0.98778 0.07657 0.0
H1789 H 0.04563 0.99666 0.06554 0.0
H1790 H 0.05505 0.99202 0.10171 0.0
H1791 H 0.05202 0.97673 0.07367 0.0
C1792 C 0.08927 0.97639 0.16231 0.0
C1793 C 0.08343 0.96073 0.16222 0.0
C1794 C 0.09001 0.98521 0.135 0.0
C1795 C 0.08477 0.97861 0.10718 0.0
C1796 C 0.07918 0.96294 0.10695 0.0
H1797 H 0.07311 0.00631 0.91755 0.0
H1798 H 0.07267 0.9938 0.9682 0.0
C1799 C 0.07857 0.95409 0.13408 0.0
C1800 C 0.08524 0.98793 0.0782 0.0
H1801 H 0.06144 0.00396 0.02278 0.0
C1802 C 0.09999 0.99148 0.0649 0.0
C1803 C 0.07119 0.99262 0.06297 0.0
C1804 C 0.05504 0.98946 0.0767 0.0
C1805 C 0.10107 -0.00085 0.03624 0.0
C1806 C 0.087 0.00379 0.02081 0.0
C1807 C 0.07224 0.00044 0.03448 0.0
C1808 C 0.08726 0.01166 0.99009 0.0
C1809 C 0.11728 0.00164 0.02225 0.0
C1810 C 0.09542 0.02602 0.98543 0.0
C1811 C 0.09575 0.03319 0.95636 0.0
C1812 C 0.08771 0.02628 0.93138 0.0
C1813 C 0.07931 0.01205 0.93628 0.0
C1814 C 0.07909 0.00485 0.96526 0.0
H1815 H 0.12629 0.99366 0.03263 0.0
H1816 H 0.11704 -0.00043 0.99708 0.0
H1817 H 0.12113 0.01405 0.02637 0.0
H1818 H 0.10147 0.03177 1.00432 0.0
H1819 H 0.10211 0.04427 0.95356 0.0
H1820 H 0.69101 0.32772 0.71371 0.0
H1821 H 0.70206 0.32795 0.76581 0.0
H1822 H 0.74941 0.32782 0.72829 0.0
H1823 H 0.73853 0.32756 0.67635 0.0
H1824 H 0.72222 0.30692 0.79604 0.0
H1825 H 0.75067 0.36593 0.78553 0.0
H1826 H 0.73615 0.35883 0.75833 0.0
H1827 H 0.75651 0.35255 0.75559 0.0
C1828 C 0.70378 0.32764 0.71654 0.0
C1829 C 0.71387 0.3278 0.69074 0.0
C1830 C 0.71008 0.32783 0.74636 0.0
C1831 C 0.72657 0.32825 0.75102 0.0
C1832 C 0.73665 0.32796 0.72534 0.0
H1833 H 0.79521 0.32211 0.89402 0.0
H1834 H 0.77959 0.32409 0.84709 0.0
C1835 C 0.73039 0.3278 0.69559 0.0
C1836 C 0.73336 0.32886 0.78261 0.0
H1837 H 0.75894 0.34991 0.82794 0.0
C1838 C 0.73007 0.31643 0.8032 0.0
C1839 C 0.74354 0.34132 0.79206 0.0
C1840 C 0.74681 0.3555 0.77184 0.0
C1841 C 0.73728 0.31576 0.83235 0.0
C1842 C 0.74791 0.32792 0.84124 0.0
C1843 C 0.75081 0.34058 0.82105 0.0
C1844 C 0.75712 0.32713 0.87033 0.0
C1845 C 0.73406 0.30171 0.85294 0.0
C1846 C 0.7497 0.32845 0.89915 0.0
C1847 C 0.75867 0.32742 0.92626 0.0
C1848 C 0.77517 0.32495 0.92493 0.0
C1849 C 0.78252 0.32392 0.89596 0.0
C1850 C 0.77361 0.32507 0.86904 0.0
H1851 H 0.72731 0.29222 0.84098 0.0
H1852 H 0.74538 0.29666 0.86158 0.0
H1853 H 0.72704 0.30564 0.87311 0.0
H1854 H 0.737 0.33022 0.90065 0.0
H1855 H 0.75265 0.32815 0.94819 0.0
H1856 H 0.12024 0.33409 0.37195 0.0
H1857 H 0.10488 0.35207 0.33849 0.0
H1858 H 0.14487 0.35538 0.27694 0.0
H1859 H 0.15949 0.33695 0.30875 0.0
H1860 H 0.10858 0.38264 0.31258 0.0
H1861 H 0.11057 0.33668 0.22277 0.0
H1862 H 0.11609 0.33266 0.26203 0.0
H1863 H 0.13028 0.34111 0.23564 0.0
C1864 C 0.12577 0.33894 0.35154 0.0
C1865 C 0.1411 0.33412 0.3428 0.0
C1866 C 0.117 0.34915 0.33246 0.0
C1867 C 0.12362 0.35469 0.30481 0.0
C1868 C 0.13937 0.35092 0.29773 0.0
H1869 H 0.10663 0.43009 0.17945 0.0
H1870 H 0.11276 0.41317 0.22349 0.0
C1871 C 0.14786 0.34052 0.31616 0.0
C1872 C 0.11414 0.36347 0.28177 0.0
H1873 H 0.10694 0.36361 0.20486 0.0
C1874 C 0.10789 0.37841 0.28911 0.0
C1875 C 0.11271 0.35769 0.25139 0.0
C1876 C 0.11761 0.34107 0.24261 0.0
C1877 C 0.10136 0.38823 0.26624 0.0
C1878 C 0.10175 0.38317 0.23519 0.0
C1879 C 0.10693 0.36774 0.22844 0.0
C1880 C 0.09761 0.39375 0.20906 0.0
C1881 C 0.09413 0.40385 0.27567 0.0
C1882 C 0.08781 0.38818 0.18528 0.0
C1883 C 0.08495 0.39753 0.15943 0.0
C1884 C 0.0914 0.41284 0.15725 0.0
C1885 C 0.10139 0.41837 0.1807 0.0
C1886 C 0.10461 0.40883 0.20622 0.0
H1887 H 0.08913 0.40313 0.29925 0.0
H1888 H 0.10348 0.41313 0.27586 0.0
H1889 H 0.08455 0.40756 0.25971 0.0
H1890 H 0.08243 0.37651 0.18659 0.0
H1891 H 0.07752 0.39286 0.14127 0.0
H1892 H 0.93584 0.87287 0.56027 0.0
H1893 H 0.91786 0.86534 0.51873 0.0
H1894 H 0.88404 0.90026 0.54953 0.0
H1895 H 0.90199 0.90775 0.59159 0.0
H1896 H 0.87092 0.86962 0.53537 0.0
H1897 H 0.9093 0.89267 0.44155 0.0
H1898 H 0.91898 0.8795 0.46802 0.0
H1899 H 0.91188 0.8984 0.48118 0.0
C1900 C 0.92454 0.8789 0.5583 0.0
C1901 C 0.92034 0.89101 0.57893 0.0
C1902 C 0.91434 0.87467 0.53442 0.0
C1903 C 0.89977 0.88245 0.53074 0.0
C1904 C 0.89532 0.89422 0.55187 0.0
H1905 H 0.82212 0.8784 0.40316 0.0
H1906 H 0.84157 0.88512 0.44259 0.0
C1907 C 0.90555 0.89849 0.5758 0.0
C1908 C 0.88916 0.87818 0.50494 0.0
H1909 H 0.88662 0.87784 0.42664 0.0
C1910 C 0.87432 0.87145 0.51161 0.0
C1911 C 0.8937 0.88055 0.47398 0.0
C1912 C 0.90927 0.8883 0.46561 0.0
C1913 C 0.86391 0.8669 0.48805 0.0
C1914 C 0.86842 0.86932 0.45713 0.0
C1915 C 0.88329 0.87594 0.45041 0.0
C1916 C 0.85741 0.86577 0.43163 0.0
C1917 C 0.84819 0.85942 0.49631 0.0
C1918 C 0.86019 0.85296 0.41178 0.0
C1919 C 0.84906 0.84907 0.38908 0.0
C1920 C 0.83508 0.858 0.38599 0.0
C1921 C 0.83275 0.87125 0.40505 0.0
C1922 C 0.84379 0.87507 0.4277 0.0
H1923 H 0.84793 0.85527 0.52052 0.0
H1924 H 0.8386 0.86829 0.49322 0.0
H1925 H 0.8456 0.84921 0.481 0.0
H1926 H 0.87072 0.84572 0.41443 0.0
H1927 H 0.85117 0.83885 0.37457 0.0
H1928 H 0.37049 0.67454 0.82176 0.0
H1929 H 0.37645 0.65552 0.781 0.0
H1930 H 0.3425 0.6227 0.81949 0.0
H1931 H 0.33639 0.64181 0.86033 0.0
H1932 H 0.38771 0.62461 0.78512 0.0
H1933 H 0.3283 0.62662 0.72961 0.0
H1934 H 0.33464 0.64116 0.75746 0.0
H1935 H 0.32815 0.62188 0.76983 0.0
C1936 C 0.36435 0.66324 0.82161 0.0
C1937 C 0.35286 0.65967 0.84393 0.0
C1938 C 0.36774 0.65242 0.7983 0.0
C1939 C 0.3597 0.63785 0.79693 0.0
C1940 C 0.34857 0.63404 0.81977 0.0
H1941 H 0.373 0.55803 0.67276 0.0
H1942 H 0.3633 0.57567 0.71341 0.0
C1943 C 0.34516 0.64489 0.84313 0.0
C1944 C 0.3632 0.62667 0.77166 0.0
H1945 H 0.34691 0.60839 0.70913 0.0
C1946 C 0.37879 0.62105 0.76853 0.0
C1947 C 0.35151 0.6221 0.75004 0.0
C1948 C 0.33474 0.62833 0.75162 0.0
C1949 C 0.38303 0.61095 0.74434 0.0
C1950 C 0.37139 0.6065 0.72262 0.0
C1951 C 0.35575 0.61189 0.72591 0.0
C1952 C 0.37549 0.59642 0.6961 0.0
C1953 C 0.39992 0.6051 0.74208 0.0
C1954 C 0.38504 0.60247 0.67246 0.0
C1955 C 0.3905 0.59248 0.64919 0.0
C1956 C 0.38656 0.57629 0.64941 0.0
C1957 C 0.37623 0.57046 0.67212 0.0
C1958 C 0.37072 0.58049 0.69534 0.0
H1959 H 0.40671 0.60729 0.76353 0.0
H1960 H 0.40018 0.5922 0.73692 0.0
H1961 H 0.406 0.61137 0.723 0.0
H1962 H 0.38871 0.6148 0.67262 0.0
H1963 H 0.39836 0.59727 0.6318 0.0
H1964 H 0.68111 0.11654 0.91998 0.0
H1965 H 0.66373 0.10628 0.9603 0.0
H1966 H 0.62808 0.14073 0.93546 0.0
H1967 H 0.64493 0.15009 0.89348 0.0
H1968 H 0.65353 0.11952 1.0095 0.0
H1969 H 0.60082 0.10297 0.94105 0.0
H1970 H 0.61935 0.10847 0.92334 0.0
H1971 H 0.60563 0.12351 0.93605 0.0
C1972 C 0.66941 0.12168 0.92272 0.0
C1973 C 0.6644 0.13422 0.90382 0.0
C1974 C 0.65953 0.1159 0.94594 0.0
C1975 C 0.6445 0.12262 0.95092 0.0
C1976 C 0.63942 0.13504 0.93172 0.0
H1977 H 0.59233 0.1105 0.12432 0.0
H1978 H 0.61093 0.11979 0.08484 0.0
C1979 C 0.64914 0.14053 0.90795 0.0
C1980 C 0.63447 0.117 0.97685 0.0
H1981 H 0.59717 0.10444 0.99518 0.0
C1982 C 0.64124 0.11605 1.00631 0.0
C1983 C 0.61847 0.11233 0.97276 0.0
C1984 C 0.61071 0.1117 0.94153 0.0
C1985 C 0.63252 0.11053 0.03167 0.0
C1986 C 0.61633 0.1065 0.02778 0.0
C1987 C 0.60955 0.10758 0.99835 0.0
C1988 C 0.60621 0.10045 0.05329 0.0
C1989 C 0.64094 0.10863 0.06202 0.0
C1990 C 0.59715 0.08667 0.04871 0.0
C1991 C 0.58616 0.08177 0.07062 0.0
C1992 C 0.58427 0.09018 0.09817 0.0
C1993 C 0.59376 0.10361 0.10352 0.0
C1994 C 0.60448 0.10886 0.08102 0.0
H1995 H 0.65395 0.10729 0.05884 0.0
H1996 H 0.63895 0.11939 0.07617 0.0
H1997 H 0.63645 0.09816 0.07486 0.0
H1998 H 0.59819 0.07995 0.02761 0.0
H1999 H 0.5787 0.0717 0.06535 0.0
H2000 H 0.10211 0.5812 0.6023 0.0
H2001 H 0.12308 0.59233 0.56984 0.0
H2002 H 0.10283 0.63899 0.58092 0.0
H2003 H 0.08205 0.62781 0.614 0.0
H2004 H 0.11539 0.60538 0.51598 0.0
H2005 H 0.14982 0.64912 0.58379 0.0
H2006 H 0.13726 0.63434 0.60153 0.0
H2007 H 0.12876 0.65216 0.58586 0.0
C2008 C 0.10256 0.59391 0.5987 0.0
C2009 C 0.09067 0.60372 0.6107 0.0
C2010 C 0.11448 0.60026 0.58011 0.0
C2011 C 0.11459 0.61651 0.57297 0.0
C2012 C 0.10323 0.62649 0.58661 0.0
H2013 H 0.14738 0.65712 0.40146 0.0
H2014 H 0.13186 0.64694 0.44486 0.0
C2015 C 0.09137 0.62012 0.60552 0.0
C2016 C 0.12496 0.62243 0.54789 0.0
H2017 H 0.15261 0.6505 0.52912 0.0
C2018 C 0.12364 0.61515 0.519 0.0
C2019 C 0.13572 0.63518 0.55178 0.0
C2020 C 0.13811 0.64307 0.58249 0.0
C2021 C 0.13261 0.62035 0.49382 0.0
C2022 C 0.14298 0.6334 0.49744 0.0
C2023 C 0.14454 0.64056 0.5264 0.0
C2024 C 0.15235 0.63969 0.47134 0.0
C2025 C 0.13101 0.61173 0.46361 0.0
C2026 C 0.16898 0.63913 0.47204 0.0
C2027 C 0.17784 0.64493 0.44731 0.0
C2028 C 0.17019 0.65153 0.42165 0.0
C2029 C 0.15354 0.65203 0.42094 0.0
C2030 C 0.14469 0.64622 0.44566 0.0
H2031 H 0.12572 0.59974 0.46661 0.0
H2032 H 0.12312 0.61863 0.4482 0.0
H2033 H 0.14272 0.61047 0.45216 0.0
H2034 H 0.1751 0.63417 0.49168 0.0
H2035 H 0.19067 0.64454 0.44857 0.0
H2036 H 0.58921 0.88493 0.6512 0.0
H2037 H 0.59577 0.86994 0.69792 0.0
H2038 H 0.6142 0.9126 0.73944 0.0
H2039 H 0.60752 0.92758 0.69322 0.0
H2040 H 0.62528 0.86605 0.72476 0.0
H2041 H 0.58394 0.89559 0.8054 0.0
H2042 H 0.58255 0.8978 0.76426 0.0
H2043 H 0.5967 0.9093 0.78564 0.0
C2044 C 0.59467 0.89105 0.67034 0.0
C2045 C 0.59782 0.90737 0.66868 0.0
C2046 C 0.59835 0.88253 0.69699 0.0
C2047 C 0.60515 0.89025 0.72238 0.0
C2048 C 0.60861 0.90649 0.72043 0.0
H2049 H 0.663 0.85075 0.86229 0.0
H2050 H 0.64935 0.86921 0.82805 0.0
C2051 C 0.605 0.91498 0.69382 0.0
C2052 C 0.60951 0.88119 0.75028 0.0
H2053 H 0.60456 0.87967 0.82819 0.0
C2054 C 0.62061 0.86891 0.7473 0.0
C2055 C 0.60335 0.88492 0.77967 0.0
C2056 C 0.59085 0.89753 0.78399 0.0
C2057 C 0.62612 0.8606 0.77302 0.0
C2058 C 0.62046 0.86476 0.80253 0.0
C2059 C 0.60897 0.87667 0.80554 0.0
C2060 C 0.62685 0.85688 0.83018 0.0
C2061 C 0.6382 0.84758 0.76851 0.0
C2062 C 0.61836 0.84454 0.84433 0.0
C2063 C 0.62613 0.83409 0.86434 0.0
C2064 C 0.64241 0.83595 0.87014 0.0
C2065 C 0.65037 0.84928 0.85853 0.0
C2066 C 0.64262 0.85975 0.8388 0.0
H2067 H 0.6388 0.84361 0.74422 0.0
H2068 H 0.65011 0.85208 0.77514 0.0
H2069 H 0.63543 0.83718 0.78324 0.0
H2070 H 0.60619 0.84213 0.83776 0.0
H2071 H 0.61988 0.82365 0.87245 0.0
H2072 H 0.3997 0.39663 0.10262 0.0
H2073 H 0.38212 0.38815 0.06083 0.0
H2074 H 0.41757 0.35488 0.0301 0.0
H2075 H 0.43521 0.36334 0.07169 0.0
H2076 H 0.40517 0.376 0.98362 0.0
H2077 H 0.35767 0.34545 0.04976 0.0
H2078 H 0.36297 0.36493 0.06319 0.0
H2079 H 0.3772 0.34912 0.06538 0.0
C2080 C 0.40363 0.38736 0.08717 0.0
C2081 C 0.41879 0.38064 0.09033 0.0
C2082 C 0.39358 0.3825 0.06341 0.0
C2083 C 0.39852 0.37082 0.04255 0.0
C2084 C 0.41353 0.36388 0.04606 0.0
H2085 H 0.35836 0.33177 0.87421 0.0
H2086 H 0.37613 0.33932 0.91636 0.0
C2087 C 0.42355 0.36867 0.06987 0.0
C2088 C 0.38841 0.36646 1.01608 0.0
H2089 H 0.35293 0.34963 0.99678 0.0
C2090 C 0.39378 0.37016 0.98642 0.0
C2091 C 0.37356 0.3589 0.01991 0.0
C2092 C 0.3675 0.35422 0.05123 0.0
C2093 C 0.38452 0.36679 0.96043 0.0
C2094 C 0.36965 0.35924 0.96425 0.0
C2095 C 0.36433 0.35546 0.99393 0.0
C2096 C 0.35931 0.35525 0.93781 0.0
C2097 C 0.39056 0.37169 0.92921 0.0
C2098 C 0.34397 0.36162 0.93599 0.0
C2099 C 0.3338 0.35725 0.91212 0.0
C2100 C 0.33877 0.3463 0.8898 0.0
C2101 C 0.35426 0.34022 0.89117 0.0
C2102 C 0.36443 0.34458 0.91512 0.0
H2103 H 0.40001 0.38086 0.93091 0.0
H2104 H 0.39565 0.3612 0.91745 0.0
H2105 H 0.38078 0.37641 0.91477 0.0
H2106 H 0.33978 0.36985 0.95329 0.0
H2107 H 0.3219 0.36209 0.91168 0.0
H2108 H 0.86859 0.18175 0.32561 0.0
H2109 H 0.8789 0.16516 0.28389 0.0
H2110 H 0.85445 0.12462 0.32153 0.0
H2111 H 0.84413 0.1411 0.36335 0.0
H2112 H 0.89627 0.13338 0.28455 0.0
H2113 H 0.8361 0.13275 0.2318 0.0
H2114 H 0.84217 0.14761 0.25922 0.0
H2115 H 0.83721 0.12796 0.27201 0.0
C2116 C 0.86572 0.16922 0.3254 0.0
C2117 C 0.85544 0.16272 0.34753 0.0
C2118 C 0.87158 0.15979 0.30152 0.0
C2119 C 0.86722 0.14375 0.29946 0.0
C2120 C 0.85779 0.13702 0.32261 0.0
H2121 H 0.87781 0.06811 0.16808 0.0
H2122 H 0.87035 0.08562 0.21052 0.0
C2123 C 0.85198 0.14642 0.34651 0.0
C2124 C 0.87158 0.13432 0.27208 0.0
H2125 H 0.85564 0.11675 0.20853 0.0
C2126 C 0.88744 0.1298 0.2678 0.0
C2127 C 0.86 0.12975 0.25029 0.0
C2128 C 0.84292 0.13483 0.25326 0.0
C2129 C 0.89196 0.12042 0.24259 0.0
C2130 C 0.88032 0.11572 0.221 0.0
C2131 C 0.86451 0.12039 0.22515 0.0
C2132 C 0.88424 0.10555 0.19437 0.0
C2133 C 0.90902 0.11517 0.23966 0.0
C2134 C 0.89408 0.11118 0.17074 0.0
C2135 C 0.89822 0.10125 0.1463 0.0
C2136 C 0.89267 0.08554 0.14529 0.0
C2137 C 0.88228 0.08016 0.16829 0.0
C2138 C 0.87808 0.09011 0.19262 0.0
H2139 H 0.91585 0.11726 0.26109 0.0
H2140 H 0.90962 0.10237 0.23383 0.0
H2141 H 0.91482 0.12188 0.22081 0.0
H2142 H 0.8987 0.12317 0.17141 0.0
H2143 H 0.90615 0.1057 0.1287 0.0
H2144 H 0.91241 0.60967 0.23854 0.0
H2145 H 0.90442 0.62948 0.20022 0.0
H2146 H 0.86959 0.59682 0.16438 0.0
H2147 H 0.87728 0.57722 0.20282 0.0
H2148 H 0.90674 0.62619 0.13844 0.0
H2149 H 0.84394 0.63703 0.16937 0.0
H2150 H 0.85759 0.62717 0.195 0.0
H2151 H 0.84805 0.61632 0.16455 0.0
C2152 C 0.90282 0.6069 0.22286 0.0
C2153 C 0.89545 0.59195 0.22361 0.0
C2154 C 0.89831 0.61818 0.20096 0.0
C2155 C 0.88627 0.61471 0.17967 0.0
C2156 C 0.87863 0.59992 0.18101 0.0
H2157 H 0.85043 0.65049 1.0093 0.0
H2158 H 0.86012 0.63458 0.05251 0.0
C2159 C 0.88308 0.58869 0.20294 0.0
C2160 C 0.88253 0.62597 0.1545 0.0
H2161 H 0.85183 0.64478 0.11855 0.0
C2162 C 0.89478 0.63046 0.13437 0.0
C2163 C 0.86691 0.63151 0.14918 0.0
C2164 C 0.85341 0.62789 0.17087 0.0
C2165 C 0.89171 0.63988 0.10844 0.0
C2166 C 0.87602 0.64491 0.10262 0.0
C2167 C 0.86384 0.64075 0.12306 0.0
C2168 C 0.87185 0.65421 0.07505 0.0
C2169 C 0.90509 0.64401 0.08684 0.0
C2170 C 0.87556 0.67041 0.07325 0.0
C2171 C 0.86999 0.67953 0.04867 0.0
C2172 C 0.86058 0.67254 0.02571 0.0
C2173 C 0.8576 0.65616 0.0268 0.0
C2174 C 0.86309 0.64708 0.05143 0.0
H2175 H 0.9163 0.63784 0.09294 0.0
H2176 H 0.90179 0.64084 0.06293 0.0
H2177 H 0.90722 0.657 0.08749 0.0
H2178 H 0.88225 0.6761 0.09141 0.0
H2179 H 0.87243 0.69215 0.04837 0.0
H2180 H 0.0954 0.08459 0.74602 0.0
H2181 H 0.11324 0.09537 0.78527 0.0
H2182 H 0.07603 0.12642 0.81685 0.0
H2183 H 0.05817 0.1158 0.77754 0.0
H2184 H 0.10742 0.14056 0.81427 0.0
H2185 H 0.1064 0.08294 0.87674 0.0
H2186 H 0.11094 0.08193 0.83646 0.0
H2187 H 0.0916 0.0883 0.84866 0.0
C2188 C 0.09114 0.09394 0.76093 0.0
C2189 C 0.07537 0.09925 0.75893 0.0
C2190 C 0.10129 0.1 0.78347 0.0
C2191 C 0.09583 0.11143 0.80435 0.0
C2192 C 0.08042 0.11751 0.80109 0.0
H2193 H 0.13438 0.15379 0.97091 0.0
H2194 H 0.11692 0.14477 0.92925 0.0
C2195 C 0.07026 0.11146 0.77855 0.0
C2196 C 0.10588 0.11648 0.8305 0.0
H2197 H 0.12344 0.1028 0.89607 0.0
C2198 C 0.11089 0.13234 0.83221 0.0
C2199 C 0.11026 0.10573 0.85399 0.0
C2200 C 0.10446 0.08879 0.85418 0.0
C2201 C 0.12048 0.13764 0.85653 0.0
C2202 C 0.12502 0.12682 0.87971 0.0
C2203 C 0.11994 0.11101 0.87813 0.0
C2204 C 0.13528 0.13168 0.90558 0.0
C2205 C 0.12607 0.15465 0.85704 0.0
C2206 C 0.1512 0.12689 0.90637 0.0
C2207 C 0.16117 0.13207 0.92997 0.0
C2208 C 0.15533 0.14206 0.95318 0.0
C2209 C 0.13919 0.14622 0.9531 0.0
C2210 C 0.12925 0.14114 0.92934 0.0
H2211 H 0.1229 0.16113 0.83569 0.0
H2212 H 0.12065 0.1609 0.87685 0.0
H2213 H 0.13915 0.15506 0.86005 0.0
H2214 H 0.156 0.11948 0.88831 0.0
H2215 H 0.17356 0.12864 0.92951 0.0
H2216 H 0.61874 0.31192 0.55143 0.0
H2217 H 0.61169 0.33146 0.59056 0.0
H2218 H 0.64721 0.36348 0.55492 0.0
H2219 H 0.6545 0.34379 0.51594 0.0
H2220 H 0.64935 0.3598 0.61697 0.0
H2221 H 0.58706 0.37252 0.58451 0.0
H2222 H 0.59068 0.35173 0.58981 0.0
H2223 H 0.60058 0.36222 0.5593 0.0
C2224 C 0.62486 0.32323 0.55163 0.0
C2225 C 0.63717 0.32638 0.53074 0.0
C2226 C 0.62078 0.33441 0.57392 0.0
C2227 C 0.62878 0.349 0.5754 0.0
C2228 C 0.64084 0.35231 0.55407 0.0
H2229 H 0.61942 0.42952 0.69856 0.0
H2230 H 0.62811 0.41122 0.65823 0.0
C2231 C 0.64497 0.3411 0.53182 0.0
C2232 C 0.62524 0.36035 0.60043 0.0
H2233 H 0.59521 0.38109 0.63439 0.0
C2234 C 0.63755 0.36458 0.62061 0.0
C2235 C 0.60983 0.36656 0.60513 0.0
C2236 C 0.59632 0.36315 0.58335 0.0
C2237 C 0.63475 0.37456 0.6458 0.0
C2238 C 0.61929 0.38044 0.65081 0.0
C2239 C 0.60702 0.37638 0.63052 0.0
C2240 C 0.61555 0.39098 0.67685 0.0
C2241 C 0.64821 0.37852 0.66731 0.0
C2242 C 0.60587 0.38553 0.70083 0.0
C2243 C 0.60102 0.3959 0.72399 0.0
C2244 C 0.60554 0.41193 0.72311 0.0
C2245 C 0.61577 0.41721 0.69976 0.0
C2246 C 0.62072 0.4068 0.67673 0.0
H2247 H 0.65888 0.37113 0.66289 0.0
H2248 H 0.65153 0.39118 0.66437 0.0
H2249 H 0.64444 0.37683 0.69153 0.0
H2250 H 0.60177 0.37334 0.70121 0.0
H2251 H 0.5932 0.39154 0.74188 0.0
H2252 H 0.32794 0.86646 0.45829 0.0
H2253 H 0.34506 0.86896 0.41353 0.0
H2254 H 0.37334 0.82962 0.44546 0.0
H2255 H 0.35658 0.82762 0.49149 0.0
H2256 H 0.39183 0.85085 0.42392 0.0
H2257 H 0.34512 0.84315 0.3374 0.0
H2258 H 0.33936 0.85903 0.36228 0.0
H2259 H 0.34163 0.83925 0.37758 0.0
C2260 C 0.3379 0.85842 0.45599 0.0
C2261 C 0.34079 0.84664 0.4781 0.0
C2262 C 0.3475 0.85966 0.43002 0.0
C2263 C 0.36008 0.84901 0.4253 0.0
C2264 C 0.36349 0.83774 0.44819 0.0
H2265 H 0.41014 0.8711 0.25005 0.0
H2266 H 0.39501 0.85432 0.28643 0.0
C2267 C 0.35398 0.83665 0.47451 0.0
C2268 C 0.3702 0.85056 0.39747 0.0
H2269 H 0.36804 0.85943 0.32103 0.0
C2270 C 0.38664 0.8523 0.40131 0.0
C2271 C 0.36366 0.85182 0.36756 0.0
C2272 C 0.3465 0.848 0.36097 0.0
C2273 C 0.39639 0.85693 0.37681 0.0
C2274 C 0.38943 0.86053 0.34803 0.0
C2275 C 0.37332 0.85712 0.34329 0.0
C2276 C 0.39806 0.87026 0.32499 0.0
C2277 C 0.41398 0.85861 0.38243 0.0
C2278 C 0.4042 0.88492 0.33429 0.0
C2279 C 0.4128 0.89425 0.31399 0.0
C2280 C 0.41517 0.88946 0.28345 0.0
C2281 C 0.40847 0.87508 0.27346 0.0
C2282 C 0.3999 0.86551 0.2942 0.0
H2283 H 0.41813 0.8497 0.39942 0.0
H2284 H 0.42092 0.85718 0.36093 0.0
H2285 H 0.41646 0.87053 0.39213 0.0
H2286 H 0.4025 0.88913 0.35756 0.0
H2287 H 0.41787 0.90517 0.32262 0.0
H2288 H 0.91313 0.41138 0.81059 0.0
H2289 H 0.89386 0.40072 0.84706 0.0
H2290 H 0.87649 0.36848 0.77799 0.0
H2291 H 0.89566 0.37935 0.74089 0.0
H2292 H 0.8569 0.39557 0.83764 0.0
H2293 H 0.89484 0.34234 0.85733 0.0
H2294 H 0.90308 0.3608 0.84347 0.0
H2295 H 0.89109 0.34886 0.81858 0.0
C2296 C 0.90497 0.40229 0.80288 0.0
C2297 C 0.90586 0.39622 0.77288 0.0
C2298 C 0.89402 0.39618 0.82378 0.0
C2299 C 0.88389 0.38379 0.81516 0.0
C2300 C 0.8843 0.37804 0.78495 0.0
H2301 H 0.82583 0.32485 0.93505 0.0
H2302 H 0.8415 0.33513 0.89227 0.0
C2303 C 0.89519 0.38427 0.76384 0.0
C2304 C 0.87365 0.37634 0.83858 0.0
H2305 H 0.87208 0.34498 0.88801 0.0
C2306 C 0.86009 0.38445 0.84854 0.0
C2307 C 0.87792 0.36185 0.85257 0.0
C2308 C 0.89254 0.35288 0.84267 0.0
C2309 C 0.85066 0.37843 0.87246 0.0
C2310 C 0.85526 0.3642 0.8873 0.0
C2311 C 0.86865 0.35594 0.87677 0.0
C2312 C 0.8464 0.35772 0.91391 0.0
C2313 C 0.8358 0.38729 0.88131 0.0
C2314 C 0.84426 0.36683 0.9406 0.0
C2315 C 0.8354 0.36084 0.96517 0.0
C2316 C 0.82895 0.34552 0.96375 0.0
C2317 C 0.83135 0.33632 0.93736 0.0
C2318 C 0.84008 0.34233 0.91268 0.0
H2319 H 0.83148 0.3949 0.86223 0.0
H2320 H 0.82615 0.37899 0.888 0.0
H2321 H 0.83841 0.39512 0.90115 0.0
H2322 H 0.84932 0.37861 0.94232 0.0
H2323 H 0.83348 0.36822 0.98518 0.0
H2324 H 0.32611 0.15702 0.54621 0.0
H2325 H 0.33664 0.14019 0.58673 0.0
H2326 H 0.37943 0.1331 0.53401 0.0
H2327 H 0.3683 0.14913 0.49219 0.0
H2328 H 0.37269 0.10712 0.56404 0.0
H2329 H 0.36829 0.1569 0.64578 0.0
H2330 H 0.34909 0.15222 0.63066 0.0
H2331 H 0.36448 0.15935 0.60535 0.0
C2332 C 0.33753 0.1515 0.54282 0.0
C2333 C 0.34633 0.15435 0.51603 0.0
C2334 C 0.3437 0.14211 0.56627 0.0
C2335 C 0.35909 0.13589 0.56399 0.0
C2336 C 0.36759 0.13795 0.53648 0.0
H2337 H 0.40602 0.10368 0.73272 0.0
H2338 H 0.39842 0.11907 0.68722 0.0
C2339 C 0.36121 0.14705 0.51255 0.0
C2340 C 0.36635 0.12768 0.59071 0.0
H2341 H 0.37197 0.13107 0.66806 0.0
C2342 C 0.37268 0.11242 0.58672 0.0
C2343 C 0.36688 0.13478 0.6202 0.0
C2344 C 0.36199 0.15178 0.62566 0.0
C2345 C 0.37878 0.10379 0.61165 0.0
C2346 C 0.37791 0.11034 0.64156 0.0
C2347 C 0.3723 0.12588 0.64529 0.0
C2348 C 0.38241 0.10118 0.66935 0.0
C2349 C 0.38628 0.08784 0.60554 0.0
C2350 C 0.37554 0.08629 0.67504 0.0
C2351 C 0.38008 0.07742 0.70063 0.0
C2352 C 0.39139 0.08339 0.72131 0.0
C2353 C 0.39751 0.0987 0.71674 0.0
C2354 C 0.39316 0.10748 0.69082 0.0
H2355 H 0.39108 0.08717 0.58181 0.0
H2356 H 0.39607 0.08534 0.6219 0.0
H2357 H 0.37715 0.07842 0.60791 0.0
H2358 H 0.36674 0.08144 0.65955 0.0
H2359 H 0.37498 0.06573 0.70379 0.0
H2360 H 0.58814 0.62094 0.25327 0.0
H2361 H 0.60827 0.62989 0.29 0.0
H2362 H 0.59552 0.59149 0.35091 0.0
H2363 H 0.57454 0.58359 0.31579 0.0
H2364 H 0.59794 0.61594 0.38257 0.0
H2365 H 0.65134 0.61497 0.30881 0.0
H2366 H 0.63646 0.62785 0.29334 0.0
H2367 H 0.63264 0.60684 0.29634 0.0
C2368 C 0.58979 0.61435 0.27438 0.0
C2369 C 0.57996 0.60138 0.28143 0.0
C2370 C 0.60141 0.61937 0.29526 0.0
C2371 C 0.60375 0.61117 0.32306 0.0
C2372 C 0.59408 0.59801 0.32965 0.0
H2373 H 0.68545 0.62784 0.44197 0.0
H2374 H 0.66638 0.61696 0.40515 0.0
C2375 C 0.58219 0.59334 0.30931 0.0
C2376 C 0.61541 0.61679 0.34638 0.0
H2377 H 0.65382 0.62861 0.3567 0.0
C2378 C 0.61021 0.61853 0.37687 0.0
C2379 C 0.6315 0.62 0.33927 0.0
C2380 C 0.63835 0.61715 0.30773 0.0
C2381 C 0.62054 0.62336 0.4003 0.0
C2382 C 0.63638 0.62748 0.39287 0.0
C2383 C 0.64164 0.62565 0.36244 0.0
C2384 C 0.6477 0.63367 0.41622 0.0
C2385 C 0.61438 0.62351 0.43287 0.0
C2386 C 0.64359 0.64661 0.43492 0.0
C2387 C 0.65428 0.65246 0.45666 0.0
C2388 C 0.66956 0.64598 0.45918 0.0
C2389 C 0.67374 0.63309 0.44046 0.0
C2390 C 0.66288 0.62694 0.41927 0.0
H2391 H 0.60451 0.61489 0.43592 0.0
H2392 H 0.62386 0.62059 0.44963 0.0
H2393 H 0.60964 0.63547 0.43824 0.0
H2394 H 0.63217 0.65234 0.43252 0.0
H2395 H 0.65067 0.66226 0.47111 0.0
H2396 H 0.16655 0.85223 1.0054 0.0
H2397 H 0.1537 0.87089 0.0404 0.0
H2398 H 0.11186 0.84142 0.04196 0.0
H2399 H 0.1247 0.82277 1.00651 0.0
H2400 H 0.10709 0.87735 0.0487 0.0
H2401 H 0.15033 0.8492 0.12816 0.0
H2402 H 0.15901 0.85817 0.09472 0.0
H2403 H 0.14612 0.84129 0.09054 0.0
C2404 C 0.15426 0.85025 1.01172 0.0
C2405 C 0.14648 0.83626 1.0029 0.0
C2406 C 0.147 0.86081 0.032 0.0
C2407 C 0.13193 0.8574 0.04406 0.0
C2408 C 0.12347 0.84428 0.03279 0.0
H2409 H 0.0997 0.88865 0.22544 0.0
H2410 H 0.10499 0.87258 0.1794 0.0
C2411 C 0.13074 0.83373 1.0123 0.0
C2412 C 0.12642 0.86578 0.07198 0.0
H2413 H 0.13562 0.87094 0.14768 0.0
C2414 C 0.11326 0.87593 0.07038 0.0
C2415 C 0.1343 0.86361 0.10038 0.0
C2416 C 0.14814 0.85237 0.10376 0.0
C2417 C 0.10817 0.88447 0.09635 0.0
C2418 C 0.11653 0.8828 0.12433 0.0
C2419 C 0.1293 0.87223 0.12612 0.0
C2420 C 0.11277 0.89246 0.15173 0.0
C2421 C 0.09391 0.89522 0.0938 0.0
C2422 C 0.11577 0.90882 0.15152 0.0
C2423 C 0.11305 0.9179 0.1778 0.0
C2424 C 0.10715 0.91078 0.20467 0.0
C2425 C 0.10429 0.89437 0.205 0.0
C2426 C 0.10719 0.88524 0.17874 0.0
H2427 H 0.08669 0.89252 0.07311 0.0
H2428 H 0.08626 0.89415 0.11447 0.0
H2429 H 0.09798 0.90772 0.09221 0.0
H2430 H 0.12035 0.91455 0.13107 0.0
H2431 H 0.11525 0.93055 0.17685 0.0
H2432 H 0.93778 0.52061 0.22142 0.0
H2433 H 0.94651 0.50289 0.18081 0.0
H2434 H 0.99225 0.52602 0.17967 0.0
H2435 H 0.98313 0.54465 0.21885 0.0
H2436 H 0.97832 0.52517 0.1226 0.0
H2437 H 0.97544 0.46561 0.17784 0.0
H2438 H 0.95734 0.47677 0.17889 0.0
H2439 H 0.9744 0.48369 0.1998 0.0
C2440 C 0.94987 0.52165 0.21317 0.0
C2441 C 0.95966 0.53426 0.22269 0.0
C2442 C 0.95482 0.51149 0.18992 0.0
C2443 C 0.96993 0.51331 0.17702 0.0
C2444 C 0.98041 0.52467 0.18907 0.0
H2445 H 0.04022 0.47602 0.09815 0.0
H2446 H 0.01938 0.49584 0.09795 0.0
C2447 C 0.97531 0.53511 0.21182 0.0
C2448 C 0.97459 0.50407 0.14982 0.0
H2449 H 0.98362 0.46669 0.12687 0.0
C2450 C 0.97936 0.51234 0.12334 0.0
C2451 C 0.9753 0.48735 0.15043 0.0
C2452 C 0.97046 0.47781 0.1783 0.0
C2453 C 0.98626 0.50438 0.0985 0.0
C2454 C 0.98842 0.48784 0.10043 0.0
C2455 C 0.98195 0.47943 0.12538 0.0
C2456 C 0.00093 0.47965 0.08293 0.0
C2457 C 0.992 0.51379 0.07126 0.0
C2458 C -0.00214 0.46443 0.07131 0.0
C2459 C 0.00977 0.45298 0.07197 0.0
C2460 C 0.02476 0.45682 0.08401 0.0
C2461 C 0.0286 0.47273 0.08958 0.0
C2462 C 0.01669 0.48416 0.08896 0.0
H2463 H 0.98398 0.52398 0.06671 0.0
H2464 H 0.00396 0.51867 0.07632 0.0
H2465 H 0.99276 0.50633 0.05031 0.0
H2466 H 0.9858 0.46079 0.06626 0.0
H2467 H 0.0067 0.4408 0.06663 0.0
H2468 H 0.77971 0.7741 0.37707 0.0
H2469 H 0.76433 0.76359 0.42002 0.0
H2470 H 0.74661 0.81048 0.43981 0.0
H2471 H 0.76134 0.82098 0.39608 0.0
H2472 H 0.77178 0.77639 0.48124 0.0
H2473 H 0.70764 0.78122 0.45039 0.0
H2474 H 0.72281 0.78123 0.4211 0.0
H2475 H 0.72045 0.79815 0.44561 0.0
C2476 C 0.77198 0.78205 0.38966 0.0
C2477 C 0.7721 0.79841 0.38382 0.0
C2478 C 0.76341 0.77609 0.41446 0.0
C2479 C 0.75478 0.78639 0.43346 0.0
C2480 C 0.75333 0.8024 0.42551 0.0
H2481 H 0.69685 0.73127 0.54738 0.0
H2482 H 0.71312 0.75522 0.54936 0.0
C2483 C 0.76171 0.80833 0.4004 0.0
C2484 C 0.74839 0.7803 0.46257 0.0
H2485 H 0.71429 0.76554 0.49247 0.0
C2486 C 0.75916 0.77429 0.48425 0.0
C2487 C 0.73196 0.77827 0.46705 0.0
C2488 C 0.71996 0.78501 0.4449 0.0
C2489 C 0.75399 0.76443 0.50811 0.0
C2490 C 0.73776 0.76042 0.50979 0.0
C2491 C 0.72681 0.76842 0.49094 0.0
C2492 C 0.73244 0.74519 0.52307 0.0
C2493 C 0.76606 0.75739 0.52968 0.0
C2494 C 0.73864 0.73116 0.51035 0.0
C2495 C 0.72935 0.71747 0.50915 0.0
C2496 C 0.71381 0.71785 0.52046 0.0
C2497 C 0.70872 0.73093 0.53781 0.0
C2498 C 0.71806 0.74457 0.53924 0.0
H2499 H 0.77538 0.76628 0.53527 0.0
H2500 H 0.76049 0.75318 0.55131 0.0
H2501 H 0.77201 0.74723 0.51829 0.0
H2502 H 0.74965 0.73132 0.49751 0.0
H2503 H 0.73358 0.7074 0.49604 0.0
H2504 H 0.54993 0.47249 0.77437 0.0
H2505 H 0.53274 0.49483 0.76224 0.0
H2506 H 0.49374 0.46252 0.74723 0.0
H2507 H 0.51073 0.44025 0.76049 0.0
H2508 H 0.52571 0.48981 0.7019 0.0
H2509 H 0.47055 0.50368 0.76553 0.0
H2510 H 0.48736 0.49409 0.78345 0.0
H2511 H 0.47347 0.48274 0.76099 0.0
C2512 C 0.53747 0.47027 0.77024 0.0
C2513 C 0.53172 0.45474 0.76715 0.0
C2514 C 0.52763 0.48304 0.76351 0.0
C2515 C 0.51212 0.48025 0.7532 0.0
C2516 C 0.50567 0.46493 0.75526 0.0
H2517 H 0.44703 0.51674 0.62311 0.0
H2518 H 0.4644 0.49887 0.65161 0.0
C2519 C 0.51545 0.45216 0.7625 0.0
C2520 C 0.50506 0.49138 0.73117 0.0
H2521 H 0.47045 0.50926 0.71108 0.0
C2522 C 0.51373 0.49438 0.70417 0.0
C2523 C 0.48937 0.49694 0.73398 0.0
C2524 C 0.47971 0.49431 0.7627 0.0
C2525 C 0.50689 0.50227 0.67932 0.0
C2526 C 0.49108 0.50749 0.68184 0.0
C2527 C 0.48254 0.50496 0.70916 0.0
C2528 C 0.4832 0.51617 0.65696 0.0
C2529 C 0.51643 0.50437 0.65026 0.0
C2530 C 0.48871 0.53124 0.64852 0.0
C2531 C 0.47892 0.54136 0.63183 0.0
C2532 C 0.46345 0.53655 0.62429 0.0
C2533 C 0.45886 0.52073 0.62906 0.0
C2534 C 0.46869 0.51058 0.64551 0.0
H2535 H 0.52643 0.49582 0.64912 0.0
H2536 H 0.50889 0.50282 0.62958 0.0
H2537 H 0.5215 0.51653 0.64973 0.0
H2538 H 0.49986 0.53574 0.65729 0.0
H2539 H 0.48279 0.55348 0.62815 0.0
H2540 H 0.72707 0.19384 0.88734 0.0
H2541 H 0.73926 0.21428 0.91922 0.0
H2542 H 0.70506 0.24844 0.88688 0.0
H2543 H 0.69292 0.22815 0.85449 0.0
H2544 H 0.73646 0.26069 0.90321 0.0
H2545 H 0.70803 0.2237 0.99315 0.0
H2546 H 0.72127 0.21283 0.96863 0.0
H2547 H 0.70362 0.22157 0.95279 0.0
C2548 C 0.72263 0.20588 0.88581 0.0
C2549 C 0.70864 0.20931 0.86966 0.0
C2550 C 0.72949 0.21747 0.90427 0.0
C2551 C 0.72247 0.2325 0.90628 0.0
C2552 C 0.7103 0.23671 0.88604 0.0
H2553 H 0.76019 0.30391 0.0254 0.0
H2554 H 0.73625 0.29033 1.00796 0.0
C2555 C 0.70348 0.22513 0.86743 0.0
C2556 C 0.72629 0.24281 0.93233 0.0
H2557 H 0.72691 0.2431 1.01057 0.0
C2558 C 0.73414 0.25711 0.92672 0.0
C2559 C 0.72274 0.23812 0.96278 0.0
C2560 C 0.7133 0.2233 0.96977 0.0
C2561 C 0.73998 0.26622 0.95104 0.0
C2562 C 0.73758 0.26085 0.98163 0.0
C2563 C 0.72861 0.24716 0.98716 0.0
C2564 C 0.74732 0.26722 1.00672 0.0
C2565 C 0.74982 0.28076 0.94361 0.0
C2566 C 0.76051 0.25825 1.01592 0.0
C2567 C 0.77415 0.26594 0.0261 0.0
C2568 C 0.77451 0.28256 0.02666 0.0
C2569 C 0.76024 0.29108 0.02413 0.0
C2570 C 0.74655 0.28336 1.01418 0.0
H2571 H 0.75164 0.28234 0.91852 0.0
H2572 H 0.74377 0.29152 0.95243 0.0
H2573 H 0.76164 0.27997 0.95475 0.0
H2574 H 0.76113 0.24567 1.01092 0.0
H2575 H 0.78492 0.25908 0.02886 0.0
H2576 H 0.97345 0.42421 0.6831 0.0
H2577 H 0.99339 0.43498 0.64855 0.0
H2578 H 0.01037 0.46534 0.72133 0.0
H2579 H 0.9909 0.45404 0.75623 0.0
H2580 H 0.98462 0.46465 0.64069 0.0
H2581 H 0.04843 0.46519 0.66627 0.0
H2582 H 0.0355 0.44957 0.68 0.0
H2583 H 0.0378 0.46774 0.70151 0.0
C2584 C 0.98205 0.4325 0.69217 0.0
C2585 C 0.98041 0.43874 0.72187 0.0
C2586 C 0.99353 0.43856 0.67244 0.0
C2587 C 0.00316 0.45115 0.68217 0.0
C2588 C 0.00316 0.45554 0.71332 0.0
H2589 H 0.02688 0.54384 0.66023 0.0
H2590 H 0.01765 0.51717 0.67299 0.0
C2591 C 0.99183 0.44928 0.7332 0.0
C2592 C 0.00829 0.46309 0.65962 0.0
H2593 H 0.03683 0.49123 0.65073 0.0
C2594 C 0.99625 0.47016 0.64189 0.0
C2595 C 0.0234 0.47023 0.66117 0.0
C2596 C 0.03702 0.46263 0.67807 0.0
C2597 C -0.0017 0.4852 0.62902 0.0
C2598 C 0.01287 0.49305 0.63352 0.0
C2599 C 0.0255 0.48524 0.64814 0.0
C2600 C 0.01495 0.50982 0.62565 0.0
C2601 C 0.98449 0.49311 0.61314 0.0
C2602 C 0.0153 0.51467 0.59495 0.0
C2603 C 0.02025 0.52996 0.58764 0.0
C2604 C 0.02529 0.54032 0.611 0.0
C2605 C 0.02322 0.53601 0.64183 0.0
C2606 C 0.01813 0.52076 0.64911 0.0
H2607 H 0.97328 0.48631 0.61593 0.0
H2608 H 0.98267 0.50528 0.62227 0.0
H2609 H 0.98706 0.49413 0.58824 0.0
H2610 H 0.01284 0.50633 0.57663 0.0
H2611 H 0.0216 0.5331 0.56366 0.0
H2612 H 0.77773 0.67804 0.94343 0.0
H2613 H 0.76634 0.68839 0.89616 0.0
H2614 H 0.78553 0.73469 0.9171 0.0
H2615 H 0.79744 0.72413 0.96398 0.0
H2616 H 0.74425 0.70868 0.89955 0.0
H2617 H 0.78957 0.73528 0.82567 0.0
H2618 H 0.79457 0.72097 0.85504 0.0
H2619 H 0.79342 0.74185 0.864 0.0
C2620 C 0.77977 0.69036 0.93761 0.0
C2621 C 0.78844 0.70038 0.9572 0.0
C2622 C 0.77345 0.69618 0.91039 0.0
C2623 C 0.77538 0.71221 0.90267 0.0
C2624 C 0.7844 0.72213 0.92192 0.0
H2625 H 0.73291 0.79285 0.88188 0.0
H2626 H 0.75054 0.76985 0.87846 0.0
C2627 C 0.79096 0.71621 0.94895 0.0
C2628 C 0.765 0.71944 0.87937 0.0
H2629 H 0.76445 0.75141 0.83175 0.0
C2630 C 0.7486 0.71759 0.88366 0.0
C2631 C 0.77068 0.73077 0.85817 0.0
C2632 C 0.78805 0.73215 0.85027 0.0
C2633 C 0.7379 0.72853 0.87148 0.0
C2634 C 0.74386 0.74135 0.85393 0.0
C2635 C 0.75999 0.74174 0.84578 0.0
C2636 C 0.73446 0.75592 0.85044 0.0
C2637 C 0.72064 0.72735 0.88079 0.0
C2638 C 0.71978 0.75575 0.83537 0.0
C2639 C 0.7095 0.76859 0.83837 0.0
C2640 C 0.71405 0.78192 0.85564 0.0
C2641 C 0.72915 0.78255 0.86888 0.0
C2642 C 0.73926 0.76955 0.86652 0.0
H2643 H 0.71842 0.71748 0.89717 0.0
H2644 H 0.71667 0.73857 0.89168 0.0
H2645 H 0.71322 0.72525 0.86016 0.0
H2646 H 0.71602 0.74545 0.8224 0.0
H2647 H 0.69802 0.76807 0.82723 0.0
H2648 H 0.47591 0.45538 0.06621 0.0
H2649 H 0.48332 0.48285 0.07681 0.0
H2650 H 0.47975 0.47376 0.17405 0.0
H2651 H 0.47194 0.44637 0.16369 0.0
H2652 H 0.45837 0.49813 0.14788 0.0
H2653 H 0.52201 0.50612 0.11568 0.0
H2654 H 0.50894 0.49589 0.08968 0.0
H2655 H 0.51418 0.48683 0.12551 0.0
C2656 C 0.47726 0.45909 0.08988 0.0
C2657 C 0.47297 0.44895 0.11419 0.0
C2658 C 0.48144 0.47477 0.09583 0.0
C2659 C 0.48172 0.48026 0.1261 0.0
C2660 C 0.47933 0.46965 0.15049 0.0
H2661 H 0.49931 0.53824 0.25666 0.0
H2662 H 0.4821 0.52521 0.21968 0.0
C2663 C 0.47504 0.454 0.14458 0.0
C2664 C 0.48273 0.49727 0.13266 0.0
H2665 H 0.50955 0.52693 0.14124 0.0
C2666 C 0.46945 0.50463 0.14591 0.0
C2667 C 0.497 0.50575 0.12893 0.0
C2668 C 0.51141 0.49832 0.11425 0.0
C2669 C 0.47062 0.51981 0.1586 0.0
C2670 C 0.48546 0.52755 0.15824 0.0
C2671 C 0.49815 0.52094 0.14162 0.0
C2672 C 0.48953 0.53973 0.18109 0.0
C2673 C 0.45631 0.52694 0.17409 0.0
C2674 C 0.49858 0.5529 0.17212 0.0
C2675 C 0.50872 0.56007 0.19316 0.0
C2676 C 0.50971 0.55422 0.22332 0.0
C2677 C 0.49887 0.54276 0.23339 0.0
C2678 C 0.48884 0.53548 0.21228 0.0
H2679 H 0.4453 0.52379 0.16144 0.0
H2680 H 0.45521 0.52199 0.19761 0.0
H2681 H 0.45723 0.54006 0.17568 0.0
H2682 H 0.49925 0.55635 0.14818 0.0
H2683 H 0.51686 0.56908 0.18498 0.0
H2684 H 0.7595 0.17843 0.34368 0.0
H2685 H 0.73575 0.19479 0.34211 0.0
H2686 H 0.76337 0.23548 0.3699 0.0
H2687 H 0.78741 0.21916 0.37063 0.0
H2688 H 0.72857 0.20559 0.39828 0.0
H2689 H 0.72847 0.25585 0.31735 0.0
H2690 H 0.73994 0.23801 0.31085 0.0
H2691 H 0.74757 0.25359 0.33502 0.0
C2692 C 0.76059 0.19096 0.34877 0.0
C2693 C 0.77513 0.19754 0.35825 0.0
C2694 C 0.74706 0.20032 0.34728 0.0
C2695 C 0.74783 0.21632 0.35566 0.0
C2696 C 0.7626 0.22321 0.36265 0.0
H2697 H 0.71982 0.28569 0.46493 0.0
H2698 H 0.72767 0.26854 0.42259 0.0
C2699 C 0.77625 0.21386 0.3637 0.0
C2700 C 0.73329 0.22433 0.36593 0.0
H2701 H 0.71635 0.26088 0.36781 0.0
C2702 C 0.72544 0.2175 0.39106 0.0
C2703 C 0.7292 0.23971 0.35609 0.0
C2704 C 0.73665 0.24713 0.3281 0.0
C2705 C 0.71538 0.22649 0.40958 0.0
C2706 C 0.71259 0.24254 0.40167 0.0
C2707 C 0.71872 0.24864 0.37403 0.0
C2708 C 0.70653 0.25384 0.42461 0.0
C2709 C 0.70948 0.21917 0.43918 0.0
C2710 C 0.6921 0.25123 0.43986 0.0
C2711 C 0.68817 0.26039 0.46535 0.0
C2712 C 0.698 0.27294 0.47448 0.0
C2713 C 0.71209 0.27597 0.45845 0.0
C2714 C 0.7164 0.26639 0.43387 0.0
H2715 H 0.71502 0.20746 0.44389 0.0
H2716 H 0.71202 0.22706 0.45898 0.0
H2717 H 0.69647 0.21731 0.43775 0.0
H2718 H 0.68418 0.24181 0.43277 0.0
H2719 H 0.67753 0.2576 0.4781 0.0
H2720 H 0.2719 0.29902 0.84246 0.0
H2721 H 0.24808 0.28571 0.86114 0.0
H2722 H 0.27486 0.24265 0.87411 0.0
H2723 H 0.29867 0.2558 0.85479 0.0
H2724 H 0.24041 0.23894 0.8624 0.0
H2725 H 0.25656 0.2813 0.95586 0.0
H2726 H 0.25219 0.28968 0.91888 0.0
H2727 H 0.2695 0.27754 0.92369 0.0
C2728 C 0.27251 0.2865 0.84773 0.0
C2729 C 0.28714 0.27854 0.84823 0.0
C2730 C 0.25892 0.27894 0.85847 0.0
C2731 C 0.25999 0.26346 0.86989 0.0
C2732 C 0.27396 0.25472 0.86567 0.0
H2733 H 0.21699 0.19919 0.99171 0.0
H2734 H 0.23617 0.21637 0.966 0.0
C2735 C 0.28755 0.26223 0.85464 0.0
C2736 C 0.24826 0.25774 0.89215 0.0
H2737 H 0.23672 0.26255 0.96673 0.0
C2738 C 0.23941 0.24419 0.88505 0.0
C2739 C 0.24722 0.26466 0.92175 0.0
C2740 C 0.25692 0.27903 0.93074 0.0
C2741 C 0.2296 0.23716 0.9071 0.0
C2742 C 0.22904 0.24374 0.93697 0.0
C2743 C 0.23744 0.25758 0.9438 0.0
C2744 C 0.21987 0.23602 0.9613 0.0
C2745 C 0.2201 0.22262 0.89843 0.0
C2746 C 0.20504 0.24214 0.96958 0.0
C2747 C 0.1941 0.23241 0.9845 0.0
C2748 C 0.19799 0.21651 0.99062 0.0
C2749 C 0.21369 0.21134 0.9867 0.0
C2750 C 0.22461 0.22108 0.97192 0.0
H2751 H 0.21863 0.22161 0.87317 0.0
H2752 H 0.22638 0.21186 0.90668 0.0
H2753 H 0.20815 0.22283 0.90919 0.0
H2754 H 0.20137 0.25378 0.96176 0.0
H2755 H 0.18212 0.23674 0.98774 0.0
H2756 H 0.1782 0.74434 0.34786 0.0
H2757 H 0.19234 0.76935 0.35506 0.0
H2758 H 0.23488 0.74347 0.37792 0.0
H2759 H 0.22076 0.71849 0.37133 0.0
H2760 H 0.2009 0.77053 0.41665 0.0
H2761 H 0.25261 0.78572 0.34503 0.0
H2762 H 0.23589 0.7745 0.33048 0.0
H2763 H 0.25165 0.76467 0.35099 0.0
C2764 C 0.19076 0.74399 0.35314 0.0
C2765 C 0.1983 0.72958 0.36031 0.0
C2766 C 0.19884 0.75831 0.35691 0.0
C2767 C 0.21457 0.75825 0.36731 0.0
C2768 C 0.22276 0.74378 0.36962 0.0
H2769 H 0.27727 0.77118 0.4962 0.0
H2770 H 0.25506 0.76544 0.46191 0.0
C2771 C 0.21464 0.72948 0.3662 0.0
C2772 C 0.22065 0.7718 0.38511 0.0
H2773 H 0.25618 0.789 0.40125 0.0
C2774 C 0.21272 0.77522 0.41275 0.0
C2775 C 0.23595 0.778 0.37989 0.0
C2776 C 0.24443 0.77565 0.34978 0.0
C2777 C 0.22066 0.78264 0.43702 0.0
C2778 C 0.23671 0.78678 0.43313 0.0
C2779 C 0.2439 0.7854 0.40418 0.0
C2780 C 0.247 0.78978 0.45962 0.0
C2781 C 0.21251 0.78445 0.46762 0.0
C2782 C 0.24885 0.80511 0.47125 0.0
C2783 C 0.2613 0.80834 0.49137 0.0
C2784 C 0.27225 0.79636 0.49911 0.0
C2785 C 0.26912 0.78065 0.4904 0.0
C2786 C 0.25656 0.7774 0.47059 0.0
H2787 H 0.19953 0.78229 0.46599 0.0
H2788 H 0.21765 0.77586 0.4842 0.0
H2789 H 0.21456 0.79656 0.47685 0.0
H2790 H 0.24144 0.81472 0.4631 0.0
H2791 H 0.26334 0.82054 0.49817 0.0
H2792 H 0.32298 0.22372 0.42641 0.0
H2793 H 0.31425 0.24502 0.39299 0.0
H2794 H 0.28495 0.26325 0.46622 0.0
H2795 H 0.29445 0.24251 0.50013 0.0
H2796 H 0.28467 0.23508 0.38873 0.0
H2797 H 0.28223 0.29944 0.4069 0.0
H2798 H 0.29874 0.28762 0.42036 0.0
H2799 H 0.28114 0.28994 0.4436 0.0
C2800 C 0.31552 0.23289 0.43594 0.0
C2801 C 0.30881 0.23119 0.46524 0.0
C2802 C 0.31067 0.24522 0.4169 0.0
C2803 C 0.29846 0.25531 0.42668 0.0
C2804 C 0.29426 0.2555 0.45794 0.0
H2805 H 0.20405 0.27573 0.41081 0.0
H2806 H 0.23153 0.26898 0.42291 0.0
C2807 C 0.29943 0.24339 0.47725 0.0
C2808 C 0.28586 0.25937 0.40464 0.0
H2809 H 0.25614 0.28626 0.39628 0.0
C2810 C 0.27871 0.24648 0.3894 0.0
C2811 C 0.27807 0.27414 0.40547 0.0
C2812 C 0.28559 0.28857 0.41977 0.0
C2813 C 0.26309 0.24733 0.37891 0.0
C2814 C 0.25475 0.26168 0.38255 0.0
C2815 C 0.26252 0.27513 0.39436 0.0
C2816 C 0.23769 0.26278 0.37615 0.0
C2817 C 0.25529 0.23247 0.36668 0.0
C2818 C 0.23193 0.26031 0.34641 0.0
C2819 C 0.21616 0.26368 0.33967 0.0
C2820 C 0.2062 0.2701 0.36239 0.0
C2821 C 0.21154 0.27093 0.39285 0.0
C2822 C 0.22726 0.26733 0.39966 0.0
H2823 H 0.26196 0.22163 0.37319 0.0
H2824 H 0.24295 0.23126 0.37532 0.0
H2825 H 0.25488 0.23307 0.34125 0.0
H2826 H 0.23983 0.25678 0.32803 0.0
H2827 H 0.21227 0.26279 0.31603 0.0
H2828 H 0.26958 0.70535 0.91848 0.0
H2829 H 0.26213 0.71864 0.966 0.0
H2830 H 0.31158 0.7272 0.98634 0.0
H2831 H 0.31874 0.71505 0.93741 0.0
H2832 H 0.26837 0.71444 0.02716 0.0
H2833 H 0.2959 0.77132 0.98768 0.0
H2834 H 0.29483 0.75475 0.96174 0.0
H2835 H 0.30813 0.75422 0.99406 0.0
C2836 C 0.27882 0.71031 0.93289 0.0
C2837 C 0.29476 0.70961 0.92399 0.0
C2838 C 0.27461 0.71761 0.96031 0.0
C2839 C 0.28631 0.72402 0.97968 0.0
C2840 C 0.30232 0.7227 0.97147 0.0
H2841 H 0.23529 0.80199 0.04794 0.0
H2842 H 0.25618 0.78299 0.05987 0.0
C2843 C 0.30644 0.71588 0.94342 0.0
C2844 C 0.28112 0.73377 1.00591 0.0
H2845 H 0.27323 0.77278 1.0172 0.0
C2846 C 0.26979 0.72723 0.02594 0.0
C2847 C 0.28355 0.75038 1.00557 0.0
C2848 C 0.29624 0.75816 0.9862 0.0
C2849 C 0.25877 0.73697 0.04084 0.0
C2850 C 0.25925 0.75346 0.03526 0.0
C2851 C 0.27253 0.76005 0.02053 0.0
C2852 C 0.24481 0.76336 0.03658 0.0
C2853 C 0.24596 0.72942 0.06007 0.0
C2854 C 0.2312 0.75852 0.02028 0.0
C2855 C 0.21917 0.76936 1.01359 0.0
C2856 C 0.22084 0.78523 0.02235 0.0
C2857 C 0.23399 0.78987 0.0401 0.0
C2858 C 0.2458 0.77898 0.0474 0.0
H2859 H 0.25111 0.71988 0.07458 0.0
H2860 H 0.23994 0.73818 0.07512 0.0
H2861 H 0.23703 0.7238 0.0448 0.0
H2862 H 0.23034 0.74667 1.01086 0.0
H2863 H 0.20899 0.76555 1.00031 0.0
H2864 H 0.48316 0.04828 0.75897 0.0
H2865 H 0.49774 0.02615 0.73661 0.0
H2866 H 0.45623 0.99643 0.74454 0.0
H2867 H 0.44144 0.01861 0.76639 0.0
H2868 H 0.50383 0.99252 0.74433 0.0
H2869 H 0.46082 0.00709 0.65124 0.0
H2870 H 0.46326 0.01943 0.68473 0.0
H2871 H 0.45237 0.00115 0.68733 0.0
C2872 C 0.47735 0.03684 0.7573 0.0
C2873 C 0.46105 0.03522 0.7632 0.0
C2874 C 0.48569 0.02422 0.74448 0.0
C2875 C 0.47778 0.00998 0.73799 0.0
C2876 C 0.46232 0.00754 0.74882 0.0
H2877 H 0.50585 0.93378 0.62109 0.0
H2878 H 0.48905 0.95379 0.64517 0.0
C2879 C 0.45394 0.02017 0.76143 0.0
C2880 C 0.4845 -0.00072 0.71488 0.0
H2881 H 0.4803 0.98795 0.64006 0.0
C2882 C 0.49867 0.9914 0.72161 0.0
C2883 C 0.47771 -0.00187 0.68519 0.0
C2884 C 0.46277 0.00697 0.67646 0.0
C2885 C 0.5063 0.98224 0.69932 0.0
C2886 C 0.49964 0.98131 0.66951 0.0
C2887 C 0.48534 0.98894 0.6629 0.0
C2888 C 0.5073 0.97185 0.64551 0.0
C2889 C 0.52137 0.97359 0.70785 0.0
C2890 C 0.52246 0.97609 0.63516 0.0
C2891 C 0.53211 0.96469 0.6216 0.0
C2892 C 0.52655 0.94908 0.61841 0.0
C2893 C 0.51047 0.9457 0.62382 0.0
C2894 C 0.50086 0.95709 0.63764 0.0
H2895 H 0.52301 0.97287 0.73312 0.0
H2896 H 0.52138 0.96138 0.69832 0.0
H2897 H 0.53172 0.98002 0.69809 0.0
H2898 H 0.52742 0.98762 0.64063 0.0
H2899 H 0.54442 0.9676 0.61711 0.0
H2900 H 0.01764 0.94344 0.25859 0.0
H2901 H 0.00035 0.96342 0.23586 0.0
H2902 H 0.04014 0.99535 0.22695 0.0
H2903 H 0.0576 0.97532 0.24924 0.0
H2904 H 0.99291 -0.00285 0.23862 0.0
H2905 H 0.02967 0.97911 0.13818 0.0
H2906 H 0.03018 0.96863 0.17429 0.0
H2907 H 0.04039 0.98723 0.17017 0.0
C2908 C 0.02258 0.95496 0.25307 0.0
C2909 C 0.03901 0.95768 0.25437 0.0
C2910 C 0.01269 0.96635 0.24007 0.0
C2911 C 0.01921 0.98049 0.22878 0.0
C2912 C 0.03508 0.98427 0.23496 0.0
H2913 H 0.98495 0.05106 0.10715 0.0
H2914 H 0.00204 0.03133 0.13132 0.0
C2915 C 0.045 0.97287 0.24781 0.0
C2916 C 0.01035 0.98955 0.20574 0.0
H2917 H 0.00937 -0.00224 0.12903 0.0
C2918 C 0.99647 -0.00264 0.21468 0.0
C2919 C 0.01505 0.98946 0.1745 0.0
C2920 C 0.02956 0.98056 0.16354 0.0
C2921 C 0.98724 0.00548 0.19315 0.0
C2922 C 0.99194 0.00539 0.16191 0.0
C2923 C 0.00581 -0.00243 0.15297 0.0
C2924 C 0.98308 0.01442 0.13883 0.0
C2925 C 0.97274 0.01438 0.20411 0.0
C2926 C 0.96721 0.01065 0.13265 0.0
C2927 C 0.95742 0.0219 0.11895 0.0
C2928 C 0.96352 0.03693 0.11154 0.0
C2929 C 0.97993 0.03965 0.11326 0.0
C2930 C 0.9897 0.02841 0.12708 0.0
H2931 H 0.97282 0.01609 0.22939 0.0
H2932 H 0.97193 0.0262 0.19294 0.0
H2933 H 0.96192 0.00754 0.19803 0.0
H2934 H 0.96208 -0.00032 0.14106 0.0
H2935 H 0.94482 0.01944 0.11727 0.0
H2936 H 0.4473 0.97985 0.29129 0.0
H2937 H 0.44396 0.00678 0.27342 0.0
H2938 H 0.45476 0.99184 0.18092 0.0
H2939 H 0.45678 0.96428 0.19843 0.0
H2940 H 0.46509 0.02378 0.25437 0.0
H2941 H 0.42155 0.02361 0.16168 0.0
H2942 H 0.42327 0.00712 0.18805 0.0
H2943 H 0.43512 0.00788 0.15348 0.0
C2944 C 0.44897 0.98219 0.26705 0.0
C2945 C 0.45262 0.96994 0.24622 0.0
C2946 C 0.44677 -0.00237 0.25684 0.0
C2947 C 0.4487 0.00134 0.22575 0.0
C2948 C 0.45257 0.98919 0.20487 0.0
H2949 H 0.49891 0.03275 0.11275 0.0
H2950 H 0.47323 0.0296 0.13703 0.0
C2951 C 0.45424 0.97354 0.21496 0.0
C2952 C 0.4498 0.01813 0.21626 0.0
H2953 H 0.44586 0.04066 0.15211 0.0
C2954 C 0.46045 0.02776 0.23247 0.0
C2955 C 0.44304 0.02383 0.18875 0.0
C2956 C 0.42994 0.01508 0.17232 0.0
C2957 C 0.46713 0.04119 0.21886 0.0
C2958 C 0.46303 0.04478 0.188 0.0
C2959 C 0.44962 0.03737 0.17507 0.0
C2960 C 0.47549 0.05034 0.16651 0.0
C2961 C 0.48008 0.04974 0.23632 0.0
C2962 C 0.48501 0.06355 0.17316 0.0
C2963 C 0.50031 0.06447 0.1611 0.0
C2964 C 0.50563 0.05315 0.13997 0.0
C2965 C 0.49516 0.04147 0.12951 0.0
C2966 C 0.4803 0.03989 0.14306 0.0
H2967 H 0.48106 0.04558 0.26046 0.0
H2968 H 0.49176 0.04777 0.22515 0.0
H2969 H 0.47757 0.06264 0.23705 0.0
H2970 H 0.48129 0.07232 0.18976 0.0
H2971 H 0.50816 0.07356 0.16927 0.0
H2972 H 0.98488 0.92996 0.65439 0.0
H2973 H 0.99511 0.93317 0.70651 0.0
H2974 H 0.9659 0.97496 0.71715 0.0
H2975 H 0.95419 0.97026 0.66728 0.0
H2976 H 0.01244 0.95268 0.72431 0.0
H2977 H 0.96356 0.96282 0.80232 0.0
H2978 H 0.96025 0.95308 0.76593 0.0
H2979 H 0.95807 0.97438 0.76969 0.0
C2980 C 0.98018 0.93931 0.66864 0.0
C2981 C 0.9685 0.94954 0.65726 0.0
C2982 C 0.98605 0.94123 0.69835 0.0
C2983 C 0.98092 0.95398 0.71663 0.0
C2984 C 0.9695 0.96448 0.70466 0.0
H2985 H 0.01308 0.03121 0.74297 0.0
H2986 H -0.00319 0.00755 0.75214 0.0
C2987 C 0.96319 0.96214 0.67552 0.0
C2988 C 0.98982 0.9586 0.74463 0.0
H2989 H 0.98478 0.9856 0.80183 0.0
C2990 C 0.00642 0.95918 0.74234 0.0
C2991 C 0.98233 0.96646 0.76941 0.0
C2992 C 0.96507 0.9639 0.77707 0.0
C2993 C 0.01516 0.97013 0.75942 0.0
C2994 C 0.00695 0.98071 0.779 0.0
C2995 C 0.99093 0.9779 0.78582 0.0
C2996 C 0.01343 0.99674 0.78384 0.0
C2997 C 0.03268 0.97189 0.75273 0.0
C2998 C 0.02758 -0.00114 0.80015 0.0
C2999 C 0.03704 0.01207 0.79412 0.0
C3000 C 0.03218 0.02343 0.77243 0.0
C3001 C 0.01707 0.02241 0.7594 0.0
C3002 C 0.00773 0.00903 0.76497 0.0
H3003 H 0.03716 0.96251 0.73704 0.0
H3004 H 0.03505 0.98361 0.742 0.0
H3005 H 0.03954 0.97119 0.77442 0.0
H3006 H 0.03204 0.98959 0.81506 0.0
H3007 H 0.04855 0.01294 0.80509 0.0
H3008 H 0.03015 0.39372 0.05317 0.0
H3009 H 0.01638 0.38751 1.00519 0.0
H3010 H 0.05045 0.41557 0.9549 0.0
H3011 H 0.06401 0.42212 1.00274 0.0
H3012 H 0.02098 0.42532 0.94435 0.0
H3013 H 0.02278 0.36008 0.92999 0.0
H3014 H 0.01565 0.36604 0.96706 0.0
H3015 H 0.03576 0.3705 0.95612 0.0
C3016 C 0.03502 0.39814 0.03178 0.0
C3017 C 0.04815 0.40847 0.03182 0.0
C3018 C 0.02714 0.39454 1.00428 0.0
C3019 C 0.03239 0.40101 0.97629 0.0
C3020 C 0.04614 0.41044 0.97614 0.0
H3021 H 0.98834 0.39321 0.79362 0.0
H3022 H 0.0066 0.38975 0.83715 0.0
C3023 C 0.05391 0.41415 1.00356 0.0
C3024 C 0.02245 0.39987 0.94807 0.0
H3025 H 0.00344 0.37408 0.89974 0.0
C3026 C 0.01733 0.41409 0.93446 0.0
C3027 C 0.01769 0.38524 0.93497 0.0
C3028 C 0.02338 0.36959 0.94759 0.0
C3029 C 0.00731 0.4141 0.90876 0.0
C3030 C 0.00199 0.39951 0.89648 0.0
C3031 C 0.00743 0.38525 0.90939 0.0
C3032 C 0.99031 0.39914 0.87094 0.0
C3033 C 0.00241 0.4298 0.89502 0.0
C3034 C 0.97495 0.405 0.87573 0.0
C3035 C 0.96457 0.40702 0.85107 0.0
C3036 C 0.96928 0.40314 0.82099 0.0
C3037 C 0.98433 0.39629 0.81647 0.0
C3038 C 0.99478 0.39432 0.8413 0.0
H3039 H 0.0104 0.4396 0.90228 0.0
H3040 H 0.00237 0.4292 0.86955 0.0
H3041 H 0.9902 0.43272 0.90274 0.0
H3042 H 0.9712 0.40862 0.89847 0.0
H3043 H 0.95301 0.41216 0.85551 0.0
H3044 H 0.83368 0.7422 0.04766 0.0
H3045 H 0.83409 0.75926 0.09303 0.0
H3046 H 0.82167 0.7193 0.15005 0.0
H3047 H 0.82096 0.70219 0.10482 0.0
H3048 H 0.80353 0.74499 0.1626 0.0
H3049 H 0.86688 0.7627 0.16102 0.0
H3050 H 0.85684 0.76661 0.12548 0.0
H3051 H 0.85928 0.74647 0.1383 0.0
C3052 C 0.83113 0.73699 0.06985 0.0
C3053 C 0.8273 0.72078 0.07247 0.0
C3054 C 0.8315 0.74676 0.09586 0.0
C3055 C 0.82818 0.74054 0.1251 0.0
C3056 C 0.82437 0.72437 0.12779 0.0
H3057 H 0.83928 0.78961 0.3016 0.0
H3058 H 0.84278 0.77195 0.2573 0.0
C3059 C 0.82397 0.71459 0.10182 0.0
C3060 C 0.82783 0.75102 0.15264 0.0
H3061 H 0.84989 0.77736 0.19455 0.0
C3062 C 0.8137 0.75199 0.16965 0.0
C3063 C 0.84117 0.76 0.16218 0.0
C3064 C 0.85695 0.75881 0.146 0.0
C3065 C 0.81241 0.76196 0.19536 0.0
C3066 C 0.82551 0.77149 0.20407 0.0
C3067 C 0.83979 0.77021 0.18764 0.0
C3068 C 0.82441 0.78298 0.22994 0.0
C3069 C 0.79703 0.76209 0.21314 0.0
C3070 C 0.81334 0.79538 0.22887 0.0
C3071 C 0.81131 0.80545 0.25404 0.0
C3072 C 0.82041 0.80345 0.28088 0.0
C3073 C 0.83207 0.7915 0.28135 0.0
C3074 C 0.83406 0.78137 0.25607 0.0
H3075 H 0.78994 0.75117 0.20893 0.0
H3076 H 0.79924 0.76315 0.23819 0.0
H3077 H 0.7898 0.77241 0.20578 0.0
H3078 H 0.80602 0.7971 0.2087 0.0
H3079 H 0.80232 0.8146 0.25265 0.0
H3080 H 0.53417 0.58339 0.36217 0.0
H3081 H 0.51623 0.58578 0.40579 0.0
H3082 H 0.47875 0.6012 0.3455 0.0
H3083 H 0.49679 0.59894 0.30127 0.0
H3084 H 0.48084 0.61755 0.40678 0.0
H3085 H 0.48026 0.55176 0.41341 0.0
H3086 H 0.49972 0.56049 0.4131 0.0
H3087 H 0.48718 0.56234 0.37993 0.0
C3088 C 0.52219 0.58752 0.35807 0.0
C3089 C 0.51687 0.59079 0.32808 0.0
C3090 C 0.51194 0.58888 0.38312 0.0
C3091 C 0.49609 0.59342 0.37887 0.0
C3092 C 0.49094 0.59763 0.34927 0.0
H3093 H 0.42397 0.56587 0.51009 0.0
H3094 H 0.43802 0.57278 0.46297 0.0
C3095 C 0.50126 0.59634 0.32403 0.0
C3096 C 0.48476 0.59234 0.40498 0.0
H3097 H 0.46851 0.56559 0.45479 0.0
C3098 C 0.47802 0.6062 0.41721 0.0
C3099 C 0.48096 0.57751 0.41834 0.0
C3100 C 0.48728 0.56214 0.40542 0.0
C3101 C 0.46788 0.60562 0.44298 0.0
C3102 C 0.46455 0.59081 0.45699 0.0
C3103 C 0.47107 0.57697 0.44423 0.0
C3104 C 0.45434 0.58909 0.4848 0.0
C3105 C 0.4607 0.62082 0.45475 0.0
C3106 C 0.45843 0.59635 0.5128 0.0
C3107 C 0.45024 0.5925 0.53992 0.0
C3108 C 0.43801 0.58113 0.53951 0.0
C3109 C 0.43342 0.57457 0.51121 0.0
C3110 C 0.44146 0.57852 0.48421 0.0
H3111 H 0.46072 0.63023 0.43688 0.0
H3112 H 0.44831 0.6189 0.46269 0.0
H3113 H 0.46779 0.62516 0.4745 0.0
H3114 H 0.46851 0.60431 0.51406 0.0
H3115 H 0.45417 0.59761 0.56143 0.0
H3116 H 0.67935 0.1741 0.75854 0.0
H3117 H 0.67366 0.19073 0.71402 0.0
H3118 H 0.6399 0.2175 0.76725 0.0
H3119 H 0.64541 0.2007 0.81212 0.0
H3120 H 0.63066 0.21218 0.70379 0.0
H3121 H 0.69169 0.23634 0.71459 0.0
H3122 H 0.69088 0.21511 0.71151 0.0
H3123 H 0.68242 0.22474 0.74449 0.0
C3124 C 0.67045 0.1833 0.76071 0.0
C3125 C 0.66294 0.18615 0.78904 0.0
C3126 C 0.66728 0.19286 0.73521 0.0
C3127 C 0.65664 0.2056 0.73747 0.0
C3128 C 0.64824 0.2078 0.76504 0.0
H3129 H 0.66248 0.28708 0.61504 0.0
H3130 H 0.66027 0.26979 0.65981 0.0
C3131 C 0.65135 0.19814 0.79064 0.0
C3132 C 0.65534 0.21725 0.71187 0.0
H3133 H 0.67738 0.24353 0.6699 0.0
C3134 C 0.64083 0.2191 0.69642 0.0
C3135 C 0.66855 0.22649 0.70259 0.0
C3136 C 0.68423 0.22573 0.7193 0.0
C3137 C 0.63932 0.22962 0.6714 0.0
C3138 C 0.65273 0.23837 0.66135 0.0
C3139 C 0.66711 0.23677 0.67736 0.0
C3140 C 0.65232 0.24925 0.63431 0.0
C3141 C 0.62333 0.23142 0.65625 0.0
C3142 C 0.64842 0.24358 0.60491 0.0
C3143 C 0.64962 0.2535 0.57914 0.0
C3144 C 0.65494 0.26927 0.58215 0.0
C3145 C 0.65843 0.27501 0.61173 0.0
C3146 C 0.65716 0.26512 0.63744 0.0
H3147 H 0.61355 0.22767 0.67177 0.0
H3148 H 0.62124 0.24388 0.64905 0.0
H3149 H 0.62289 0.22379 0.6355 0.0
H3150 H 0.64499 0.23131 0.60169 0.0
H3151 H 0.64694 0.24862 0.55675 0.0
H3152 H 0.97573 0.57177 0.0552 0.0
H3153 H 0.98423 0.5714 1.00143 0.0
H3154 H 0.96391 0.61777 0.98795 0.0
H3155 H 0.95518 0.61819 0.04144 0.0
H3156 H 0.96663 0.57392 0.94689 0.0
H3157 H 0.00937 0.62374 0.95689 0.0
H3158 H 0.00118 0.61375 0.98998 0.0
H3159 H 0.98971 0.62845 0.96994 0.0
C3160 C 0.97292 0.58186 0.0408 0.0
C3161 C 0.96484 0.59507 0.05297 0.0
C3162 C 0.97788 0.58165 1.01002 0.0
C3163 C 0.97499 0.59468 0.99068 0.0
C3164 C 0.96666 0.60773 1.00254 0.0
H3165 H 0.99458 0.61926 0.80045 0.0
H3166 H 0.98603 0.61818 0.85405 0.0
C3167 C 0.96167 0.60795 0.03325 0.0
C3168 C 0.98052 0.59457 0.95805 0.0
H3169 H 0.00369 0.61467 0.90649 0.0
C3170 C 0.97481 0.58277 0.9381 0.0
C3171 C 0.9912 0.60611 0.94648 0.0
C3172 C -0.00164 0.61865 0.96696 0.0
C3173 C 0.97914 0.58246 0.90683 0.0
C3174 C 0.98975 0.59407 0.8952 0.0
C3175 C 0.99554 0.60579 0.91525 0.0
C3176 C 0.99482 0.59446 0.86229 0.0
C3177 C 0.97193 0.56995 0.88635 0.0
C3178 C 0.00279 0.58155 0.8489 0.0
C3179 C 0.00761 0.58207 0.81806 0.0
C3180 C 0.00466 0.59557 0.79981 0.0
C3181 C -0.00317 0.60854 0.81346 0.0
C3182 C 0.99202 0.608 0.84427 0.0
H3183 H 0.96101 0.56477 0.89656 0.0
H3184 H 0.96896 0.57491 0.86344 0.0
H3185 H 0.98061 0.5602 0.88308 0.0
H3186 H 0.00541 0.57108 0.86237 0.0
H3187 H 0.01351 0.57181 0.80844 0.0
H3188 H 0.67862 0.70072 0.28871 0.0
H3189 H 0.67837 0.70856 0.23449 0.0
H3190 H 0.64268 0.74373 0.25399 0.0
H3191 H 0.64306 0.73621 0.30823 0.0
H3192 H 0.65216 0.70846 0.1929 0.0
H3193 H 0.67698 0.76905 0.20731 0.0
H3194 H 0.67845 0.75403 0.23677 0.0
H3195 H 0.66017 0.7646 0.23122 0.0
C3196 C 0.67083 0.71024 0.28155 0.0
C3197 C 0.66088 0.71784 0.30298 0.0
C3198 C 0.67064 0.71465 0.25048 0.0
C3199 C 0.66065 0.72688 0.24015 0.0
C3200 C 0.65067 0.73444 0.26142 0.0
H3201 H 0.6429 0.7714 0.06206 0.0
H3202 H 0.64329 0.76397 0.11647 0.0
C3203 C 0.65078 0.72998 0.29243 0.0
C3204 C 0.6604 0.73148 0.20705 0.0
H3205 H 0.66738 0.76238 0.15786 0.0
C3206 C 0.65556 0.72022 0.18521 0.0
C3207 C 0.66473 0.74687 0.19699 0.0
C3208 C 0.67051 0.75933 0.2192 0.0
C3209 C 0.65467 0.72399 0.15375 0.0
C3210 C 0.65914 0.73935 0.1436 0.0
C3211 C 0.66395 0.75062 0.1655 0.0
C3212 C 0.65901 0.74392 0.11041 0.0
C3213 C 0.64853 0.71156 0.13182 0.0
C3214 C 0.66792 0.73535 0.08879 0.0
C3215 C 0.66768 0.73955 0.05766 0.0
C3216 C 0.65867 0.75257 0.04732 0.0
C3217 C 0.65003 0.76136 0.06913 0.0
C3218 C 0.6502 0.75709 0.10029 0.0
H3219 H 0.64127 0.70247 0.14385 0.0
H3220 H 0.64122 0.71698 0.11339 0.0
H3221 H 0.65873 0.70542 0.12098 0.0
H3222 H 0.6752 0.72545 0.09601 0.0
H3223 H 0.67478 0.73271 0.04171 0.0
H3224 H 0.535 0.37455 0.55943 0.0
H3225 H 0.52656 0.37498 0.50582 0.0
H3226 H 0.52444 0.42606 0.50834 0.0
H3227 H 0.53368 0.42581 0.56147 0.0
H3228 H 0.49947 0.38557 0.4807 0.0
H3229 H 0.54968 0.41957 0.43108 0.0
H3230 H 0.5502 0.41159 0.4695 0.0
H3231 H 0.53979 0.42979 0.46171 0.0
C3232 C 0.53307 0.38592 0.54851 0.0
C3233 C 0.53517 0.40015 0.56501 0.0
C3234 C 0.52808 0.38613 0.51781 0.0
C3235 C 0.52508 0.40055 0.50269 0.0
C3236 C 0.52701 0.41477 0.51912 0.0
H3237 H 0.48833 0.42242 0.31893 0.0
H3238 H 0.49749 0.42389 0.37227 0.0
C3239 C 0.53209 0.41459 0.54978 0.0
C3240 C 0.51942 0.4006 0.47014 0.0
H3241 H 0.5277 0.41477 0.39817 0.0
C3242 C 0.5057 0.39191 0.46268 0.0
C3243 C 0.52748 0.40892 0.44648 0.0
C3244 C 0.54268 0.41787 0.45246 0.0
C3245 C 0.49979 0.39139 0.43248 0.0
C3246 C 0.50788 0.39964 0.40885 0.0
C3247 C 0.52148 0.40848 0.41628 0.0
C3248 C 0.50261 0.39884 0.37619 0.0
C3249 C 0.48478 0.38217 0.42616 0.0
C3250 C 0.50271 0.38433 0.36038 0.0
C3251 C 0.49762 0.38347 0.32983 0.0
C3252 C 0.49228 0.3971 0.31419 0.0
C3253 C 0.49245 0.41169 0.32999 0.0
C3254 C 0.49762 0.41255 0.3606 0.0
H3255 H 0.47791 0.3799 0.4475 0.0
H3256 H 0.47709 0.38858 0.40962 0.0
H3257 H 0.48793 0.37053 0.41594 0.0
H3258 H 0.50684 0.37365 0.37166 0.0
H3259 H 0.49806 0.37208 0.31835 0.0
H3260 H 0.84322 0.25142 0.81854 0.0
H3261 H 0.8423 0.24356 0.7646 0.0
H3262 H 0.81393 0.28469 0.74371 0.0
H3263 H 0.81532 0.29302 0.79743 0.0
H3264 H 0.81688 0.23605 0.7285 0.0
H3265 H 0.84834 0.28794 0.67906 0.0
H3266 H 0.84823 0.28378 0.7197 0.0
H3267 H 0.8314 0.29314 0.7019 0.0
C3268 C 0.83702 0.259 0.80245 0.0
C3269 C 0.82948 0.27298 0.81253 0.0
C3270 C 0.83638 0.25438 0.77157 0.0
C3271 C 0.82826 0.26362 0.74984 0.0
C3272 C 0.82057 0.2775 0.7598 0.0
H3273 H 0.8099 0.25401 0.55355 0.0
H3274 H 0.81033 0.26194 0.60753 0.0
C3275 C 0.82122 0.28215 0.79071 0.0
C3276 C 0.82754 0.25851 0.717 0.0
H3277 H 0.83637 0.27018 0.64368 0.0
C3278 C 0.82121 0.2435 0.70998 0.0
C3279 C 0.83317 0.26819 0.6927 0.0
C3280 C 0.84081 0.2841 0.69864 0.0
C3281 C 0.82011 0.23804 0.67948 0.0
C3282 C 0.82573 0.24773 0.65522 0.0
C3283 C 0.83203 0.26275 0.66221 0.0
C3284 C 0.82522 0.24254 0.62244 0.0
C3285 C 0.81262 0.22207 0.67347 0.0
C3286 C 0.83352 0.229 0.61261 0.0
C3287 C 0.83339 0.22446 0.58162 0.0
C3288 C 0.82502 0.2334 0.5596 0.0
C3289 C 0.81666 0.24692 0.56963 0.0
C3290 C 0.81682 0.25145 0.60059 0.0
H3291 H 0.80525 0.21806 0.69315 0.0
H3292 H 0.80509 0.22241 0.65256 0.0
H3293 H 0.82211 0.21316 0.6698 0.0
H3294 H 0.84038 0.22209 0.62883 0.0
H3295 H 0.8402 0.21416 0.57481 0.0
H3296 H 0.04484 0.57795 0.50189 0.0
H3297 H 0.02765 0.58197 0.45786 0.0
H3298 H -0.00337 0.61119 0.51265 0.0
H3299 H 0.01359 0.60669 0.55753 0.0
H3300 H 0.97982 0.59069 0.48257 0.0
H3301 H 0.02108 0.61715 0.39891 0.0
H3302 H 0.02924 0.59897 0.41315 0.0
H3303 H 0.02603 0.61536 0.43906 0.0
C3304 C 0.03455 0.58551 0.5046 0.0
C3305 C 0.03066 0.59204 0.53338 0.0
C3306 C 0.02474 0.58791 0.47917 0.0
C3307 C 0.01095 0.59717 0.48156 0.0
C3308 C 0.00725 0.60408 0.51007 0.0
H3309 H 0.9561 0.60657 0.3092 0.0
H3310 H 0.97125 0.61397 0.35522 0.0
C3311 C 0.01699 0.60153 0.53573 0.0
C3312 C -0.00025 0.59823 0.45511 0.0
H3313 H -0.00154 0.60304 0.37721 0.0
C3314 C 0.98386 0.5937 0.45965 0.0
C3315 C 0.00477 0.6025 0.42515 0.0
C3316 C 0.02117 0.60894 0.41889 0.0
C3317 C 0.97323 0.59232 0.43495 0.0
C3318 C 0.97871 0.59505 0.40464 0.0
C3319 C 0.99428 0.60062 0.4003 0.0
C3320 C 0.96893 0.59103 0.3772 0.0
C3321 C 0.95624 0.58781 0.44168 0.0
C3322 C 0.96273 0.57566 0.37396 0.0
C3323 C 0.954 0.57147 0.34798 0.0
C3324 C 0.95144 0.58245 0.32413 0.0
C3325 C 0.95778 0.59783 0.32715 0.0
C3326 C 0.96645 0.60207 0.35344 0.0
H3327 H 0.95257 0.59202 0.46479 0.0
H3328 H 0.94796 0.5928 0.42437 0.0
H3329 H 0.95512 0.57469 0.44154 0.0
H3330 H 0.96489 0.56673 0.39135 0.0
H3331 H 0.9495 0.55946 0.34644 0.0
H3332 H 0.14523 0.25483 0.30414 0.0
H3333 H 0.14109 0.23765 0.25945 0.0
H3334 H 0.1577 0.27496 0.1998 0.0
H3335 H 0.16201 0.29213 0.24413 0.0
H3336 H 0.12358 0.24077 0.20202 0.0
H3337 H 0.18889 0.23779 0.18541 0.0
H3338 H 0.18 0.24525 0.2202 0.0
H3339 H 0.18091 0.25753 0.18649 0.0
C3340 C 0.14777 0.25948 0.28149 0.0
C3341 C 0.15414 0.27482 0.27784 0.0
C3342 C 0.14538 0.24964 0.25595 0.0
C3343 C 0.14932 0.25493 0.22634 0.0
C3344 C 0.1548 0.27054 0.22248 0.0
H3345 H 0.13732 0.20992 0.04706 0.0
H3346 H 0.13277 0.22589 0.09334 0.0
C3347 C 0.15723 0.28036 0.24792 0.0
C3348 C 0.14893 0.24383 0.19982 0.0
H3349 H 0.17299 0.22579 0.14734 0.0
C3350 C 0.13436 0.23745 0.19004 0.0
C3351 C 0.16303 0.23936 0.18447 0.0
C3352 C 0.17913 0.2452 0.19476 0.0
C3353 C 0.13353 0.22689 0.16499 0.0
C3354 C 0.14763 0.22272 0.14925 0.0
C3355 C 0.16217 0.22901 0.1593 0.0
C3356 C 0.14788 0.21165 0.1226 0.0
C3357 C 0.11766 0.22007 0.15593 0.0
C3358 C 0.15759 0.19814 0.1237 0.0
C3359 C 0.16028 0.18912 0.09733 0.0
C3360 C 0.1533 0.19335 0.06919 0.0
C3361 C 0.14271 0.20623 0.06848 0.0
C3362 C 0.1401 0.21538 0.09495 0.0
H3363 H 0.10878 0.22125 0.17465 0.0
H3364 H 0.11312 0.22655 0.13557 0.0
H3365 H 0.11877 0.20735 0.14972 0.0
H3366 H 0.1637 0.19498 0.14472 0.0
H3367 H 0.16845 0.17923 0.09869 0.0
H3368 H 0.4888 0.38318 0.06744 0.0
H3369 H 0.50663 0.37987 0.02345 0.0
H3370 H 0.47611 0.40971 0.96879 0.0
H3371 H 0.45788 0.41229 1.01202 0.0
H3372 H 0.48713 0.38711 0.93446 0.0
H3373 H 0.53789 0.41261 0.99898 0.0
H3374 H 0.53031 0.39466 1.01554 0.0
H3375 H 0.51807 0.41216 1.01445 0.0
C3376 C 0.48582 0.38886 0.0459 0.0
C3377 C 0.47199 0.39807 0.04328 0.0
C3378 C 0.4961 0.38709 0.02082 0.0
C3379 C 0.49302 0.39493 0.99294 0.0
C3380 C 0.47885 0.40359 0.99 0.0
H3381 H 0.55575 0.43328 0.86102 0.0
H3382 H 0.54003 0.42533 0.90496 0.0
C3383 C 0.4684 0.40506 1.0148 0.0
C3384 C 0.5047 0.39477 0.96713 0.0
H3385 H 0.54286 0.4046 0.94827 0.0
C3386 C 0.49935 0.39087 0.9375 0.0
C3387 C 0.52066 0.39977 0.97097 0.0
C3388 C 0.52706 0.40519 1.00161 0.0
C3389 C 0.50922 0.39242 0.91159 0.0
C3390 C 0.52517 0.39743 0.91546 0.0
C3391 C 0.5307 0.40066 0.94525 0.0
C3392 C 0.53569 0.40141 0.88895 0.0
C3393 C 0.50216 0.38954 0.88023 0.0
C3394 C 0.53896 0.39051 0.86529 0.0
C3395 C 0.54785 0.39515 0.83947 0.0
C3396 C 0.55389 0.41069 0.83717 0.0
C3397 C 0.55129 0.42123 0.86173 0.0
C3398 C 0.54227 0.41668 0.8871 0.0
H3399 H 0.48898 0.38942 0.88085 0.0
H3400 H 0.50605 0.3988 0.8637 0.0
H3401 H 0.50618 0.37784 0.87158 0.0
H3402 H 0.53444 0.3785 0.86651 0.0
H3403 H 0.5497 0.3867 0.82111 0.0
H3404 H 0.34771 0.78713 0.5731 0.0
H3405 H 0.35333 0.77127 0.61907 0.0
H3406 H 0.30927 0.78686 0.65947 0.0
H3407 H 0.30388 0.80306 0.61448 0.0
H3408 H 0.33207 0.787 0.70113 0.0
H3409 H 0.33331 0.72937 0.63941 0.0
H3410 H 0.34776 0.74348 0.62624 0.0
H3411 H 0.32695 0.74749 0.62124 0.0
C3412 C 0.33926 0.78722 0.59185 0.0
C3413 C 0.3253 0.79631 0.58994 0.0
C3414 C 0.34243 0.77805 0.61805 0.0
C3415 C 0.33157 0.77759 0.64258 0.0
C3416 C 0.31784 0.78695 0.64091 0.0
H3417 H 0.31293 0.70669 0.77773 0.0
H3418 H 0.3152 0.72395 0.73318 0.0
C3419 C 0.31476 0.79622 0.61501 0.0
C3420 C 0.33417 0.7673 0.66998 0.0
H3421 H 0.33806 0.72867 0.69264 0.0
C3422 C 0.33348 0.77424 0.69928 0.0
C3423 C 0.33587 0.75062 0.66761 0.0
C3424 C 0.33588 0.74225 0.63698 0.0
C3425 C 0.33393 0.76501 0.72616 0.0
C3426 C 0.33565 0.74834 0.72379 0.0
C3427 C 0.33684 0.74144 0.69451 0.0
C3428 C 0.33485 0.73768 0.7511 0.0
C3429 C 0.33176 0.77316 0.75672 0.0
C3430 C 0.34526 0.73945 0.77611 0.0
C3431 C 0.34384 0.72965 0.80203 0.0
C3432 C 0.33218 0.7177 0.80318 0.0
C3433 C 0.32208 0.71572 0.77774 0.0
C3434 C 0.32337 0.7256 0.75212 0.0
H3435 H 0.32662 0.78522 0.75406 0.0
H3436 H 0.3239 0.76614 0.77204 0.0
H3437 H 0.34348 0.77444 0.76806 0.0
H3438 H 0.35449 0.74839 0.77562 0.0
H3439 H 0.35193 0.73139 0.82106 0.0
H3440 H 0.04606 0.3928 0.31944 0.0
H3441 H 0.03919 0.39091 0.37409 0.0
H3442 H 0.99212 0.40808 0.3543 0.0
H3443 H -0.00114 0.41005 0.29992 0.0
H3444 H 0.02869 0.4135 0.4164 0.0
H3445 H 0.98286 0.36705 0.4003 0.0
H3446 H -0.00311 0.37226 0.37063 0.0
H3447 H 0.97962 0.38434 0.37709 0.0
C3448 C 0.03428 0.39629 0.32673 0.0
C3449 C 0.02296 0.40138 0.30506 0.0
C3450 C 0.03035 0.39514 0.35801 0.0
C3451 C 0.01501 0.399 0.36833 0.0
C3452 C 0.00388 0.40458 0.3469 0.0
H3453 H 0.96359 0.40075 0.54091 0.0
H3454 H 0.97274 0.40292 0.48782 0.0
C3455 C 0.00778 0.40571 0.31571 0.0
C3456 C 0.01057 0.39726 0.40139 0.0
H3457 H 0.98381 0.37936 0.44937 0.0
C3458 C 0.01896 0.40594 0.42365 0.0
C3459 C -0.00213 0.38738 0.41096 0.0
C3460 C 0.98888 0.3771 0.38856 0.0
C3461 C 0.0147 0.4054 0.45495 0.0
C3462 C 0.00185 0.39569 0.46442 0.0
C3463 C 0.9936 0.38686 0.4422 0.0
C3464 C -0.00344 0.39468 0.49714 0.0
C3465 C 0.02369 0.41561 0.47745 0.0
C3466 C 0.00682 0.3892 0.52024 0.0
C3467 C 0.00164 0.38803 0.5508 0.0
C3468 C 0.98603 0.39226 0.55901 0.0
C3469 C 0.97576 0.39764 0.5357 0.0
C3470 C 0.98095 0.39878 0.5052 0.0
H3471 H 0.03034 0.42526 0.46571 0.0
H3472 H 0.01553 0.42099 0.49453 0.0
H3473 H 0.03239 0.40816 0.48998 0.0
H3474 H 0.01883 0.38565 0.51462 0.0
H3475 H 0.00994 0.38394 0.56803 0.0
H3476 H 0.35772 0.2962 0.06504 0.0
H3477 H 0.35916 0.28786 0.11886 0.0
H3478 H 0.33647 0.24361 0.09567 0.0
H3479 H 0.33499 0.25183 0.04192 0.0
H3480 H 0.33612 0.27965 0.16075 0.0
H3481 H 0.37562 0.22818 0.14049 0.0
H3482 H 0.37206 0.24312 0.11162 0.0
H3483 H 0.35776 0.2276 0.1181 0.0
C3484 C 0.35293 0.28473 0.07137 0.0
C3485 C 0.34637 0.27465 0.0489 0.0
C3486 C 0.35383 0.27994 0.10222 0.0
C3487 C 0.34824 0.26494 0.11139 0.0
C3488 C 0.3413 0.25504 0.08917 0.0
H3489 H 0.34253 0.21261 0.28361 0.0
H3490 H 0.34059 0.2221 0.23071 0.0
C3491 C 0.34044 0.25979 0.05835 0.0
C3492 C 0.34954 0.25971 0.14415 0.0
H3493 H 0.36434 0.23034 0.1903 0.0
C3494 C 0.34237 0.26891 0.16721 0.0
C3495 C 0.3577 0.24569 0.15276 0.0
C3496 C 0.36636 0.23564 0.12951 0.0
C3497 C 0.34281 0.26432 0.19834 0.0
C3498 C 0.35088 0.25025 0.2069 0.0
C3499 C 0.35811 0.24109 0.18386 0.0
C3500 C 0.35187 0.24472 0.23951 0.0
C3501 C 0.33423 0.27437 0.22168 0.0
C3502 C 0.359 0.25415 0.26228 0.0
C3503 C 0.36003 0.24878 0.29274 0.0
C3504 C 0.35403 0.23379 0.30124 0.0
C3505 C 0.34704 0.22432 0.27824 0.0
C3506 C 0.34602 0.22969 0.24782 0.0
H3507 H 0.32523 0.28216 0.21074 0.0
H3508 H 0.32823 0.26686 0.23915 0.0
H3509 H 0.34294 0.28208 0.23364 0.0
H3510 H 0.3639 0.26565 0.25647 0.0
H3511 H 0.3654 0.25649 0.3097 0.0
H3512 H 0.51502 0.58196 0.05156 0.0
H3513 H 0.5061 0.58046 0.99823 0.0
H3514 H 0.47309 0.61854 1.01472 0.0
H3515 H 0.48247 0.62068 0.06755 0.0
H3516 H 0.47756 0.5738 0.97333 0.0
H3517 H 0.49464 0.63469 0.93867 0.0
H3518 H 0.5011 0.62596 0.97436 0.0
H3519 H 0.48154 0.63439 0.97112 0.0
C3520 C 0.50604 0.59023 0.04383 0.0
C3521 C 0.49962 0.60154 0.06419 0.0
C3522 C 0.50084 0.58925 1.01324 0.0
C3523 C 0.48909 0.59958 1.00201 0.0
C3524 C 0.48243 0.61067 0.02238 0.0
H3525 H 0.43964 0.61162 0.82718 0.0
H3526 H 0.44882 0.61274 0.88041 0.0
C3527 C 0.48768 0.61171 0.05292 0.0
C3528 C 0.48362 0.59854 0.96926 0.0
H3529 H 0.47853 0.6203 0.90353 0.0
C3530 C 0.47788 0.58397 0.95805 0.0
C3531 C 0.48398 0.61175 0.94907 0.0
C3532 C 0.49079 0.62753 0.95878 0.0
C3533 C 0.47221 0.58234 0.92773 0.0
C3534 C 0.47246 0.59559 0.90766 0.0
C3535 C 0.47824 0.61014 0.91881 0.0
C3536 C 0.46679 0.59464 0.87507 0.0
C3537 C 0.46563 0.56652 0.9177 0.0
C3538 C 0.47387 0.58421 0.85395 0.0
C3539 C 0.46869 0.58359 0.82331 0.0
C3540 C 0.45633 0.59347 0.81283 0.0
C3541 C 0.4493 0.60395 0.83409 0.0
C3542 C 0.4545 0.60456 0.8647 0.0
H3543 H 0.46234 0.55898 0.93765 0.0
H3544 H 0.45501 0.56807 0.90292 0.0
H3545 H 0.47479 0.56011 0.90426 0.0
H3546 H 0.48362 0.57669 0.86102 0.0
H3547 H 0.47464 0.57559 0.80767 0.0
H3548 H 0.13339 0.75288 0.82321 0.0
H3549 H 0.13161 0.74411 0.76965 0.0
H3550 H 0.18266 0.7431 0.76373 0.0
H3551 H 0.18456 0.75163 0.81732 0.0
H3552 H 0.14482 0.75924 0.71587 0.0
H3553 H 0.16884 0.69854 0.73316 0.0
H3554 H 0.16149 0.71051 0.76447 0.0
H3555 H 0.18076 0.71437 0.74846 0.0
C3556 C 0.14425 0.75067 0.81061 0.0
C3557 C 0.15913 0.75293 0.82471 0.0
C3558 C 0.14321 0.74573 0.77993 0.0
C3559 C 0.15699 0.74274 0.76274 0.0
C3560 C 0.17185 0.7451 0.77662 0.0
H3561 H 0.17568 0.71064 0.57561 0.0
H3562 H 0.17741 0.71856 0.62962 0.0
C3563 C 0.17291 0.75014 0.80722 0.0
C3564 C 0.15584 0.73745 0.73014 0.0
H3565 H 0.1645 0.70666 0.68183 0.0
C3566 C 0.14906 0.74772 0.70843 0.0
C3567 C 0.16146 0.72245 0.72038 0.0
C3568 C 0.16844 0.71074 0.7428 0.0
C3569 C 0.14799 0.74354 0.6772 0.0
C3570 C 0.15347 0.72845 0.66743 0.0
C3571 C 0.16028 0.71819 0.6892 0.0
C3572 C 0.15228 0.72313 0.63477 0.0
C3573 C 0.14142 0.75554 0.65486 0.0
C3574 C 0.13753 0.72264 0.61971 0.0
C3575 C 0.13651 0.71815 0.5888 0.0
C3576 C 0.15019 0.71382 0.57223 0.0
C3577 C 0.16488 0.7138 0.58765 0.0
C3578 C 0.1659 0.71839 0.61854 0.0
H3579 H 0.14223 0.76781 0.66408 0.0
H3580 H 0.14781 0.75509 0.63258 0.0
H3581 H 0.1287 0.75291 0.65062 0.0
H3582 H 0.12676 0.72575 0.63187 0.0
H3583 H 0.12497 0.71801 0.57788 0.0
H3584 H 0.48933 0.90592 0.30637 0.0
H3585 H 0.50713 0.90053 0.34968 0.0
H3586 H 0.47256 0.92 0.41213 0.0
H3587 H 0.45477 0.92547 0.36923 0.0
H3588 H 0.50371 0.93214 0.41939 0.0
H3589 H 0.50284 0.86619 0.41806 0.0
H3590 H 0.50711 0.87571 0.38202 0.0
H3591 H 0.48788 0.87803 0.39916 0.0
C3592 C 0.48548 0.909 0.32933 0.0
C3593 C 0.47059 0.91613 0.33425 0.0
C3594 C 0.49563 0.9058 0.35408 0.0
C3595 C 0.49108 0.90967 0.38418 0.0
C3596 C 0.47627 0.91681 0.38912 0.0
H3597 H 0.5304 0.89132 0.56458 0.0
H3598 H 0.51512 0.88944 0.51667 0.0
C3599 C 0.46611 0.91994 0.3645 0.0
C3600 C 0.50201 0.9071 0.41049 0.0
H3601 H 0.52041 0.87847 0.45332 0.0
C3602 C 0.50739 0.92041 0.42676 0.0
C3603 C 0.50666 0.89177 0.42023 0.0
C3604 C 0.50076 0.87705 0.40419 0.0
C3605 C 0.51734 0.91885 0.4524 0.0
C3606 C 0.52225 0.90355 0.46188 0.0
C3607 C 0.51677 0.89018 0.44581 0.0
C3608 C 0.53277 0.90143 0.48894 0.0
C3609 C 0.52229 0.93363 0.46952 0.0
C3610 C 0.5481 0.90792 0.4888 0.0
C3611 C 0.55679 0.90901 0.51602 0.0
C3612 C 0.55038 0.90347 0.54385 0.0
C3613 C 0.5357 0.89554 0.54343 0.0
C3614 C 0.52692 0.89456 0.51611 0.0
H3615 H 0.51467 0.94396 0.46367 0.0
H3616 H 0.52178 0.9317 0.49472 0.0
H3617 H 0.53471 0.93668 0.46333 0.0
H3618 H 0.55296 0.91304 0.46799 0.0
H3619 H 0.56813 0.91508 0.51564 0.0
H3620 H 0.33338 0.19869 0.59712 0.0
H3621 H 0.33708 0.2159 0.64155 0.0
H3622 H 0.35456 0.25313 0.58263 0.0
H3623 H 0.35103 0.23583 0.53771 0.0
H3624 H 0.37071 0.25006 0.64291 0.0
H3625 H 0.305 0.25308 0.65117 0.0
H3626 H 0.31293 0.23331 0.65074 0.0
H3627 H 0.31507 0.24576 0.61748 0.0
C3628 C 0.33828 0.21044 0.59355 0.0
C3629 C 0.34174 0.21595 0.56376 0.0
C3630 C 0.34037 0.22027 0.61903 0.0
C3631 C 0.34582 0.23589 0.61536 0.0
C3632 C 0.35029 0.24112 0.58596 0.0
H3633 H 0.32249 0.30992 0.74492 0.0
H3634 H 0.32829 0.29485 0.69851 0.0
C3635 C 0.34829 0.23121 0.56032 0.0
C3636 C 0.34535 0.24704 0.64179 0.0
H3637 H 0.31957 0.26442 0.692 0.0
C3638 C 0.35955 0.25329 0.65362 0.0
C3639 C 0.33076 0.25139 0.65549 0.0
C3640 C 0.31505 0.24567 0.64297 0.0
C3641 C 0.35953 0.26352 0.67924 0.0
C3642 C 0.34494 0.26746 0.69349 0.0
C3643 C 0.33077 0.26138 0.68123 0.0
C3644 C 0.34381 0.278 0.72089 0.0
C3645 C 0.37508 0.2702 0.69054 0.0
C3646 C 0.35098 0.27387 0.74894 0.0
C3647 C 0.34778 0.28262 0.77568 0.0
C3648 C 0.33717 0.2955 0.77485 0.0
C3649 C 0.33065 0.30002 0.74644 0.0
C3650 C 0.33395 0.2914 0.71982 0.0
H3651 H 0.38445 0.26955 0.67263 0.0
H3652 H 0.37372 0.28274 0.69786 0.0
H3653 H 0.37914 0.2632 0.71064 0.0
H3654 H 0.35838 0.26341 0.75055 0.0
H3655 H 0.35285 0.27873 0.79724 0.0
H3656 H 0.96028 0.10217 0.05769 0.0
H3657 H 0.97861 0.10691 1.0147 0.0
H3658 H 0.95372 0.07206 0.96063 0.0
H3659 H 0.93545 0.0673 1.00302 0.0
H3660 H 0.98887 0.06748 0.9731 0.0
H3661 H 0.9721 0.12598 0.92309 0.0
H3662 H 0.97275 0.12356 0.96424 0.0
H3663 H 0.95771 0.11361 0.94247 0.0
C3664 C 0.95842 0.09587 0.03632 0.0
C3665 C 0.94646 0.08427 0.03386 0.0
C3666 C 0.96894 0.09856 1.01184 0.0
C3667 C 0.96753 0.08977 0.9846 0.0
C3668 C 0.95501 0.07893 0.9815 0.0
H3669 H 0.00506 0.08269 0.80534 0.0
H3670 H 0.99034 0.08823 0.85229 0.0
C3671 C 0.94457 0.07624 1.0058 0.0
C3672 C 0.97988 0.09043 0.96042 0.0
H3673 H 0.99227 0.1116 0.89798 0.0
C3674 C 0.98982 0.07722 0.9569 0.0
C3675 C 0.98096 0.10313 0.93938 0.0
C3676 C 0.97033 0.11742 0.94219 0.0
C3677 C 0.00045 0.07607 0.93218 0.0
C3678 C 0.00132 0.08861 0.9106 0.0
C3679 C 0.99168 0.10207 0.91468 0.0
C3680 C 0.01085 0.08713 0.88205 0.0
C3681 C 0.01004 0.06106 0.9285 0.0
C3682 C 0.0274 0.08509 0.88301 0.0
C3683 C 0.0359 0.08179 0.85609 0.0
C3684 C 0.02799 0.08056 0.82774 0.0
C3685 C 0.01154 0.08342 0.82676 0.0
C3686 C 0.00309 0.08667 0.8536 0.0
H3687 H 0.00573 0.05139 0.94373 0.0
H3688 H 0.00964 0.05682 0.90439 0.0
H3689 H 0.02261 0.06352 0.93443 0.0
H3690 H 0.03368 0.08566 0.90467 0.0
H3691 H 0.04857 0.07978 0.85766 0.0
H3692 H 0.17734 0.79516 0.12307 0.0
H3693 H 0.17242 0.77793 0.16723 0.0
H3694 H 0.14995 0.74358 0.10821 0.0
H3695 H 0.15466 0.76076 0.06389 0.0
H3696 H 0.13398 0.74809 0.16533 0.0
H3697 H 0.19853 0.73724 0.18035 0.0
H3698 H 0.19298 0.75781 0.18047 0.0
H3699 H 0.19044 0.74623 0.14617 0.0
C3700 C 0.17126 0.784 0.11941 0.0
C3701 C 0.16658 0.7793 0.08976 0.0
C3702 C 0.16849 0.77414 0.14473 0.0
C3703 C 0.16104 0.75935 0.14095 0.0
C3704 C 0.15576 0.75491 0.11165 0.0
H3705 H 0.17303 0.682 0.26844 0.0
H3706 H 0.16904 0.69743 0.22162 0.0
C3707 C 0.15852 0.76476 0.0863 0.0
C3708 C 0.15952 0.74818 0.1672 0.0
H3709 H 0.18148 0.72685 0.21844 0.0
C3710 C 0.14434 0.7434 0.17696 0.0
C3711 C 0.17306 0.74189 0.18202 0.0
C3712 C 0.18968 0.74591 0.17162 0.0
C3713 C 0.14236 0.73269 0.20152 0.0
C3714 C 0.15592 0.72673 0.21682 0.0
C3715 C 0.17107 0.73141 0.20676 0.0
C3716 C 0.15496 0.71568 0.24344 0.0
C3717 C 0.12582 0.72766 0.21054 0.0
C3718 C 0.14768 0.72035 0.27106 0.0
C3719 C 0.14976 0.71135 0.29788 0.0
C3720 C 0.15934 0.69771 0.29752 0.0
C3721 C 0.16555 0.69243 0.26937 0.0
C3722 C 0.16335 0.7013 0.24262 0.0
H3723 H 0.11719 0.72971 0.19167 0.0
H3724 H 0.1255 0.71491 0.21701 0.0
H3725 H 0.12194 0.73471 0.23067 0.0
H3726 H 0.1414 0.73152 0.27247 0.0
H3727 H 0.1451 0.71588 0.31933 0.0
H3728 H 0.51266 0.12037 0.32369 0.0
H3729 H 0.50322 0.11818 0.37658 0.0
H3730 H 0.47822 0.07516 0.35357 0.0
H3731 H 0.48756 0.07729 0.30048 0.0
H3732 H 0.47299 0.11784 0.40021 0.0
H3733 H 0.5032 0.06124 0.42855 0.0
H3734 H 0.50795 0.07258 0.3946 0.0
H3735 H 0.49053 0.06024 0.39549 0.0
C3736 C 0.50505 0.11049 0.3297 0.0
C3737 C 0.50094 0.099 0.30757 0.0
C3738 C 0.49971 0.1092 0.36012 0.0
C3739 C 0.49019 0.09636 0.36941 0.0
C3740 C 0.48587 0.08498 0.34733 0.0
H3741 H 0.44919 0.07069 0.54863 0.0
H3742 H 0.45629 0.07182 0.49407 0.0
C3743 C 0.49123 0.08623 0.31686 0.0
C3744 C 0.48461 0.09514 0.40202 0.0
H3745 H 0.48569 0.07155 0.46607 0.0
C3746 C 0.4758 0.10772 0.41458 0.0
C3747 C 0.48817 0.08191 0.42093 0.0
C3748 C 0.4981 0.06827 0.40938 0.0
C3749 C 0.4704 0.10741 0.44521 0.0
C3750 C 0.47415 0.09429 0.46426 0.0
C3751 C 0.48278 0.08161 0.4516 0.0
C3752 C 0.4696 0.09371 0.49752 0.0
C3753 C 0.46047 0.12106 0.4567 0.0
C3754 C 0.47479 0.10553 0.51794 0.0
C3755 C 0.47066 0.10499 0.54912 0.0
C3756 C 0.46131 0.09251 0.56094 0.0
C3757 C 0.4562 0.08061 0.54045 0.0
C3758 C 0.46036 0.08117 0.5092 0.0
H3759 H 0.4547 0.12753 0.43748 0.0
H3760 H 0.45113 0.11691 0.4728 0.0
H3761 H 0.46822 0.12958 0.46904 0.0
H3762 H 0.48219 0.11518 0.50981 0.0
H3763 H 0.47471 0.11448 0.56392 0.0
H3764 H 0.14895 0.27377 0.56153 0.0
H3765 H 0.14899 0.26498 0.6151 0.0
H3766 H 0.14464 0.21639 0.58553 0.0
H3767 H 0.14504 0.22501 0.5319 0.0
H3768 H 0.12549 0.24828 0.64666 0.0
H3769 H 0.18173 0.21408 0.64577 0.0
H3770 H 0.17653 0.22786 0.61567 0.0
H3771 H 0.16783 0.20838 0.61652 0.0
C3772 C 0.14825 0.26118 0.56634 0.0
C3773 C 0.14706 0.25012 0.5422 0.0
C3774 C 0.14816 0.25618 0.59706 0.0
C3775 C 0.14703 0.23999 0.60447 0.0
C3776 C 0.14581 0.22892 0.58049 0.0
H3777 H 0.14244 0.18736 0.77757 0.0
H3778 H 0.14328 0.19539 0.72352 0.0
C3779 C 0.14586 0.23391 0.54976 0.0
C3780 C 0.1466 0.23478 0.63727 0.0
H3781 H 0.16581 0.21191 0.6905 0.0
C3782 C 0.13435 0.24038 0.65627 0.0
C3783 C 0.1581 0.2244 0.64986 0.0
C3784 C 0.17188 0.21841 0.63103 0.0
C3785 C 0.13315 0.23574 0.68725 0.0
C3786 C 0.14472 0.22545 0.69993 0.0
C3787 C 0.15693 0.21979 0.68088 0.0
C3788 C 0.14443 0.22057 0.73294 0.0
C3789 C 0.11925 0.24162 0.70589 0.0
C3790 C 0.1451 0.23198 0.75641 0.0
C3791 C 0.14464 0.22742 0.78735 0.0
C3792 C 0.14365 0.2113 0.79569 0.0
C3793 C 0.14331 0.19986 0.77211 0.0
C3794 C 0.14373 0.20445 0.74113 0.0
H3795 H 0.10926 0.24543 0.69097 0.0
H3796 H 0.11488 0.23231 0.72185 0.0
H3797 H 0.12303 0.25202 0.71968 0.0
H3798 H 0.14609 0.24446 0.75081 0.0
H3799 H 0.14528 0.23656 0.80477 0.0
H3800 H 0.02061 0.88513 0.05914 0.0
H3801 H 0.01182 0.88684 1.00567 0.0
H3802 H 0.04401 0.92582 0.99024 0.0
H3803 H 0.05303 0.92408 0.04369 0.0
H3804 H -0.00169 0.91456 0.97479 0.0
H3805 H 0.05411 0.89339 0.92021 0.0
H3806 H 0.04962 0.88984 0.96019 0.0
H3807 H 0.05599 0.90914 0.94784 0.0
C3808 C 0.02597 0.89396 0.04432 0.0
C3809 C 0.03762 0.9044 0.05575 0.0
C3810 C 0.02085 0.89499 1.01379 0.0
C3811 C 0.02735 0.90635 0.99382 0.0
C3812 C 0.03894 0.91683 1.0051 0.0
H3813 H 0.01213 0.92171 0.79647 0.0
H3814 H 0.02151 0.92359 0.84967 0.0
C3815 C 0.044 0.9159 0.03574 0.0
C3816 C 0.02178 0.90731 0.96139 0.0
H3817 H 0.03338 0.90109 0.88713 0.0
C3818 C 0.00597 0.91164 0.9556 0.0
C3819 C 0.03182 0.90364 0.93634 0.0
C3820 C 0.04881 0.89863 0.94125 0.0
C3821 C -7e-05 0.9124 0.9255 0.0
C3822 C 0.00984 0.90828 0.90042 0.0
C3823 C 0.02574 0.90422 0.90623 0.0
C3824 C 0.00381 0.90757 0.86816 0.0
C3825 C 0.98306 0.91789 0.92091 0.0
C3826 C 0.99082 0.89786 0.8606 0.0
C3827 C 0.98541 0.89682 0.83027 0.0
C3828 C 0.993 0.90529 0.80656 0.0
C3829 C 0.00607 0.91495 0.8141 0.0
C3830 C 0.01142 0.91606 0.84454 0.0
H3831 H 0.97898 0.92539 0.94034 0.0
H3832 H 0.98178 0.92477 0.8993 0.0
H3833 H 0.97512 0.9074 0.91971 0.0
H3834 H 0.98501 0.89081 0.8781 0.0
H3835 H 0.97552 0.88902 0.82526 0.0
H3836 H 0.34327 0.8001 0.30164 0.0
H3837 H 0.34356 0.79283 0.24721 0.0
H3838 H 0.32355 0.74716 0.26955 0.0
H3839 H 0.32281 0.75448 0.32383 0.0
H3840 H 0.35961 0.76805 0.21967 0.0
H3841 H 0.29494 0.76201 0.19962 0.0
H3842 H 0.30298 0.77182 0.23302 0.0
H3843 H 0.30197 0.75052 0.23154 0.0
C3844 C 0.33868 0.78861 0.29495 0.0
C3845 C 0.33298 0.7779 0.31723 0.0
C3846 C 0.33895 0.78443 0.2638 0.0
C3847 C 0.33339 0.76952 0.25415 0.0
C3848 C 0.32764 0.75884 0.27629 0.0
H3849 H 0.35618 0.71833 0.08772 0.0
H3850 H 0.35342 0.72836 0.14005 0.0
C3851 C 0.3274 0.76298 0.30742 0.0
C3852 C 0.33427 0.76485 0.22117 0.0
H3853 H 0.31198 0.75165 0.1607 0.0
C3854 C 0.34918 0.76457 0.20674 0.0
C3855 C 0.32064 0.76049 0.20409 0.0
C3856 C 0.3042 0.76135 0.21772 0.0
C3857 C 0.35089 0.75961 0.17608 0.0
C3858 C 0.33736 0.75458 0.15943 0.0
C3859 C 0.32238 0.75533 0.17353 0.0
C3860 C 0.33858 0.74827 0.12755 0.0
C3861 C 0.36719 0.75991 0.16172 0.0
C3862 C 0.33077 0.75583 0.1031 0.0
C3863 C 0.33221 0.75002 0.07304 0.0
C3864 C 0.34138 0.73643 0.06687 0.0
C3865 C 0.34892 0.72873 0.09158 0.0
C3866 C 0.34751 0.73457 0.12153 0.0
H3867 H 0.37534 0.76802 0.17422 0.0
H3868 H 0.37235 0.74781 0.16255 0.0
H3869 H 0.3666 0.76369 0.13733 0.0
H3870 H 0.3237 0.76634 0.10721 0.0
H3871 H 0.32606 0.75611 0.05467 0.0
H3872 H 0.4268 0.07318 0.86745 0.0
H3873 H 0.44223 0.07855 0.91364 0.0
H3874 H 0.47679 0.10404 0.85963 0.0
H3875 H 0.4611 0.09897 0.81315 0.0
H3876 H 0.47158 0.06655 0.9203 0.0
H3877 H 0.47385 0.13182 0.93611 0.0
H3878 H 0.4594 0.12227 0.91166 0.0
H3879 H 0.47938 0.12524 0.89837 0.0
C3880 C 0.43745 0.08034 0.86548 0.0
C3881 C 0.44275 0.08563 0.83662 0.0
C3882 C 0.44629 0.08337 0.89194 0.0
C3883 C 0.46069 0.09171 0.89024 0.0
C3884 C 0.46558 0.09783 0.86169 0.0
H3885 H 0.5386 0.07483 1.01525 0.0
H3886 H 0.5218 0.07922 0.97047 0.0
C3887 C 0.45661 0.09491 0.8351 0.0
C3888 C 0.47137 0.09206 0.91751 0.0
H3889 H 0.4916 0.11642 0.96674 0.0
C3890 C 0.47587 0.07748 0.93049 0.0
C3891 C 0.47695 0.10631 0.93096 0.0
C3892 C 0.47205 0.12232 0.91878 0.0
C3893 C 0.48583 0.07672 0.95624 0.0
C3894 C 0.49177 0.09092 0.9692 0.0
C3895 C 0.48714 0.10555 0.9566 0.0
C3896 C 0.50285 0.09053 0.99576 0.0
C3897 C 0.48977 0.06066 0.96958 0.0
C3898 C 0.49809 0.09609 0.02474 0.0
C3899 C 0.50775 0.09365 0.05058 0.0
C3900 C 0.52232 0.08561 0.0478 0.0
C3901 C 0.52739 0.0809 0.01838 0.0
C3902 C 0.51779 0.08339 0.99268 0.0
H3903 H 0.48131 0.05137 0.9618 0.0
H3904 H 0.50185 0.05713 0.96204 0.0
H3905 H 0.48967 0.06102 0.99506 0.0
H3906 H 0.48661 0.10166 0.02761 0.0
H3907 H 0.50347 0.09742 0.07286 0.0
H3908 H 0.68194 0.68152 0.60675 0.0
H3909 H 0.67646 0.69786 0.65172 0.0
H3910 H 0.64722 0.7287 0.59663 0.0
H3911 H 0.65241 0.71217 0.55152 0.0
H3912 H 0.68609 0.72831 0.65482 0.0
H3913 H 0.62114 0.72544 0.67499 0.0
H3914 H 0.63147 0.71127 0.65117 0.0
H3915 H 0.62651 0.73054 0.63632 0.0
C3916 C 0.67394 0.6915 0.60435 0.0
C3917 C 0.66761 0.69552 0.57551 0.0
C3918 C 0.67086 0.70088 0.6301 0.0
C3919 C 0.66141 0.71453 0.62767 0.0
C3920 C 0.65431 0.71808 0.59929 0.0
H3921 H 0.67383 0.79587 0.74892 0.0
H3922 H 0.67138 0.77844 0.70436 0.0
C3923 C 0.65729 0.7086 0.57347 0.0
C3924 C 0.66064 0.72588 0.65381 0.0
H3925 H 0.63542 0.74533 0.70246 0.0
C3926 C 0.675 0.73198 0.66527 0.0
C3927 C 0.64619 0.73064 0.66757 0.0
C3928 C 0.63045 0.72404 0.65712 0.0
C3929 C 0.67532 0.74267 0.68995 0.0
C3930 C 0.66086 0.74775 0.70323 0.0
C3931 C 0.64648 0.74158 0.69201 0.0
C3932 C 0.66061 0.75905 0.72945 0.0
C3933 C 0.69121 0.74816 0.70201 0.0
C3934 C 0.65471 0.75424 0.75812 0.0
C3935 C 0.65598 0.76424 0.78368 0.0
C3936 C 0.66317 0.77927 0.78107 0.0
C3937 C 0.66836 0.78434 0.75193 0.0
C3938 C 0.66703 0.77435 0.7264 0.0
H3939 H 0.701 0.74023 0.69453 0.0
H3940 H 0.69374 0.76024 0.69312 0.0
H3941 H 0.69118 0.74868 0.72748 0.0
H3942 H 0.64964 0.74252 0.76099 0.0
H3943 H 0.65181 0.75993 0.80568 0.0
H3944 H 0.07428 0.92465 0.35789 0.0
H3945 H 0.0587 0.92046 0.4044 0.0
H3946 H 0.02572 0.89142 0.35361 0.0
H3947 H 0.04153 0.89533 0.30689 0.0
H3948 H 0.02892 0.93105 0.4102 0.0
H3949 H 0.02972 0.86632 0.43284 0.0
H3950 H 0.04362 0.87581 0.40711 0.0
H3951 H 0.02378 0.8714 0.3945 0.0
C3952 C 0.06395 0.917 0.35673 0.0
C3953 C 0.05915 0.91032 0.32863 0.0
C3954 C 0.05502 0.91465 0.38339 0.0
C3955 C 0.04102 0.9056 0.38267 0.0
C3956 C 0.03662 0.89821 0.35498 0.0
H3957 H 0.96152 0.92133 0.5056 0.0
H3958 H 0.97926 0.91844 0.46172 0.0
C3959 C 0.04567 0.90045 0.32823 0.0
C3960 C 0.03027 0.90553 0.40991 0.0
H3961 H 0.01088 0.88158 0.46118 0.0
C3962 C 0.02506 0.92021 0.42139 0.0
C3963 C 0.02528 0.89142 0.42474 0.0
C3964 C 0.03099 0.87534 0.41439 0.0
C3965 C 0.01493 0.92119 0.44691 0.0
C3966 C 0.00952 0.90709 0.46116 0.0
C3967 C 0.0149 0.89238 0.45008 0.0
C3968 C -0.00173 0.90753 0.48753 0.0
C3969 C 0.01027 0.93738 0.45867 0.0
C3970 C 0.00279 0.90184 0.51655 0.0
C3971 C 0.9926 0.90343 0.54186 0.0
C3972 C 0.97765 0.91071 0.5386 0.0
C3973 C 0.97298 0.91585 0.50919 0.0
C3974 C 0.98314 0.91423 0.48399 0.0
H3975 H 0.01857 0.94674 0.45058 0.0
H3976 H -0.00176 0.94036 0.45011 0.0
H3977 H 0.00998 0.93758 0.48415 0.0
H3978 H 0.01439 0.89656 0.51981 0.0
H3979 H -0.00341 0.89926 0.56408 0.0
H3980 H 0.81085 0.30723 0.11642 0.0
H3981 H 0.81529 0.28944 0.15973 0.0
H3982 H 0.84747 0.26156 0.10495 0.0
H3983 H 0.84317 0.27937 0.06131 0.0
H3984 H 0.80744 0.25689 0.15581 0.0
H3985 H 0.87061 0.26579 0.18866 0.0
H3986 H 0.85963 0.28019 0.16646 0.0
H3987 H 0.86683 0.26243 0.14854 0.0
C3988 C 0.81918 0.29755 0.11367 0.0
C3989 C 0.8266 0.29471 0.08523 0.0
C3990 C 0.82166 0.28735 0.1385 0.0
C3991 C 0.83169 0.27417 0.13559 0.0
C3992 C 0.83982 0.27177 0.10783 0.0
H3993 H 0.82303 0.19103 0.25623 0.0
H3994 H 0.82574 0.20793 0.2107 0.0
C3995 C 0.83734 0.28199 0.08288 0.0
C3996 C 0.83231 0.2622 0.1606 0.0
H3997 H 0.85663 0.24524 0.21409 0.0
C3998 C 0.81821 0.2543 0.16849 0.0
C3999 C 0.84637 0.25887 0.1771 0.0
C4000 C 0.86173 0.26732 0.17003 0.0
C4001 C 0.81771 0.24328 0.19266 0.0
C4002 C 0.83177 0.23991 0.20917 0.0
C4003 C 0.84592 0.24773 0.20117 0.0
C4004 C 0.83164 0.22916 0.2362 0.0
C4005 C 0.80204 0.23572 0.20096 0.0
C4006 C 0.83456 0.23536 0.26552 0.0
C4007 C 0.83303 0.22577 0.29153 0.0
C4008 C 0.82863 0.20972 0.28877 0.0
C4009 C 0.82635 0.20335 0.25923 0.0
C4010 C 0.82784 0.21301 0.23318 0.0
H4011 H 0.79185 0.24189 0.19002 0.0
H4012 H 0.80199 0.2232 0.19311 0.0
H4013 H 0.80026 0.23575 0.22623 0.0
H4014 H 0.83753 0.24779 0.26837 0.0
H4015 H 0.835 0.23106 0.31386 0.0
H4016 H 0.5337 0.92325 0.81985 0.0
H4017 H 0.52634 0.9259 0.87403 0.0
H4018 H 0.51771 0.87555 0.87911 0.0
H4019 H 0.52542 0.87272 0.82529 0.0
H4020 H 0.4973 0.91799 0.90263 0.0
H4021 H 0.5469 0.88344 0.95275 0.0
H4022 H 0.54722 0.8907 0.91375 0.0
H4023 H 0.5362 0.87309 0.92326 0.0
C4024 C 0.53046 0.91268 0.83257 0.0
C4025 C 0.53021 0.89774 0.81805 0.0
C4026 C 0.52614 0.91425 0.86354 0.0
C4027 C 0.52164 0.90091 0.88085 0.0
C4028 C 0.52137 0.886 0.86645 0.0
H4029 H 0.48921 0.88073 0.06558 0.0
H4030 H 0.49771 0.88025 1.01195 0.0
C4031 C 0.52563 0.88442 0.8355 0.0
C4032 C 0.51682 0.90257 0.91369 0.0
H4033 H 0.52557 0.88981 0.98628 0.0
C4034 C 0.50355 0.91193 0.92097 0.0
C4035 C 0.52496 0.89467 0.93767 0.0
C4036 C 0.5397 0.88503 0.9316 0.0
C4037 C 0.4979 0.91319 0.95134 0.0
C4038 C 0.50593 0.90512 0.9753 0.0
C4039 C 0.51935 0.89596 0.96801 0.0
C4040 C 0.50046 0.90569 1.00795 0.0
C4041 C 0.48305 0.9227 0.95727 0.0
C4042 C 0.49922 0.92015 0.02388 0.0
C4043 C 0.49433 0.92046 0.0547 0.0
C4044 C 0.49075 0.9063 0.07046 0.0
C4045 C 0.49205 0.89186 0.05441 0.0
C4046 C 0.49687 0.89156 0.02362 0.0
H4047 H 0.47604 0.92449 0.93596 0.0
H4048 H 0.47539 0.91678 0.97459 0.0
H4049 H 0.48641 0.93456 0.96622 0.0
H4050 H 0.50228 0.9312 1.01264 0.0
H4051 H 0.49371 0.93178 0.06638 0.0
H4052 H 0.81308 0.80057 0.56559 0.0
H4053 H 0.81251 0.7916 0.61901 0.0
H4054 H 0.84313 0.75247 0.59578 0.0
H4055 H 0.84445 0.76177 0.54281 0.0
H4056 H 0.80244 0.76437 0.6459 0.0
H4057 H 0.8669 0.7716 0.66683 0.0
H4058 H 0.85729 0.77939 0.63306 0.0
H4059 H 0.86264 0.75874 0.63508 0.0
C4060 C 0.8199 0.79018 0.57185 0.0
C4061 C 0.82894 0.78203 0.54967 0.0
C4062 C 0.81943 0.78497 0.60244 0.0
C4063 C 0.82801 0.7715 0.6117 0.0
C4064 C 0.83669 0.76309 0.5895 0.0
H4065 H 0.81494 0.72109 0.78697 0.0
H4066 H 0.81417 0.72912 0.73296 0.0
C4067 C 0.83725 0.76834 0.55898 0.0
C4068 C 0.82791 0.76628 0.64453 0.0
H4069 H 0.85221 0.75816 0.70542 0.0
C4070 C 0.81332 0.76305 0.65894 0.0
C4071 C 0.84208 0.76474 0.66181 0.0
C4072 C 0.8581 0.76895 0.64854 0.0
C4073 C 0.81253 0.75819 0.68989 0.0
C4074 C 0.82674 0.75617 0.70685 0.0
C4075 C 0.8413 0.75953 0.69247 0.0
C4076 C 0.82685 0.75119 0.73983 0.0
C4077 C 0.79643 0.75568 0.70429 0.0
C4078 C 0.83457 0.76065 0.76178 0.0
C4079 C 0.8353 0.75594 0.79257 0.0
C4080 C 0.82832 0.74161 0.80239 0.0
C4081 C 0.82056 0.73214 0.78035 0.0
C4082 C 0.81991 0.73683 0.74943 0.0
H4083 H 0.78694 0.76191 0.69132 0.0
H4084 H 0.79359 0.74282 0.70423 0.0
H4085 H 0.79624 0.75991 0.72842 0.0
H4086 H 0.84013 0.77172 0.75505 0.0
H4087 H 0.84167 0.76343 0.80855 0.0
H4088 H 0.0057 0.10271 0.55331 0.0
H4089 H -0.00246 0.10435 0.49949 0.0
H4090 H 0.98939 0.05387 0.49814 0.0
H4091 H -0.00281 0.05215 0.55222 0.0
H4092 H 0.01028 0.08906 0.44737 0.0
H4093 H 0.94728 0.07204 0.46584 0.0
H4094 H 0.96016 0.07799 0.4969 0.0
H4095 H 0.96161 0.05836 0.48107 0.0
C4096 C 0.00205 0.09195 0.54169 0.0
C4097 C 0.00201 0.07731 0.55729 0.0
C4098 C -0.00253 0.09291 0.51081 0.0
C4099 C 0.99261 0.07928 0.49482 0.0
C4100 C 0.99283 0.0646 0.5101 0.0
H4101 H 0.95789 0.06391 0.30796 0.0
H4102 H 0.96644 0.06097 0.36136 0.0
C4103 C -0.00253 0.06361 0.54097 0.0
C4104 C 0.98745 0.08049 0.46214 0.0
H4105 H 0.95569 0.07507 0.41435 0.0
C4106 C -0.00167 0.08603 0.44016 0.0
C4107 C 0.97188 0.07649 0.45266 0.0
C4108 C 0.95948 0.07101 0.47532 0.0
C4109 C 0.99414 0.08751 0.409 0.0
C4110 C 0.97851 0.08368 0.39955 0.0
C4111 C 0.96766 0.07802 0.42151 0.0
C4112 C 0.97314 0.08558 0.36707 0.0
C4113 C 0.00664 0.09283 0.38638 0.0
C4114 C 0.97374 0.10045 0.35252 0.0
C4115 C 0.96882 0.10219 0.32197 0.0
C4116 C 0.96302 0.08911 0.30524 0.0
C4117 C 0.96214 0.07428 0.32011 0.0
C4118 C 0.9671 0.07256 0.35066 0.0
H4119 H 0.01882 0.09086 0.3954 0.0
H4120 H 0.00543 0.08646 0.36419 0.0
H4121 H 0.00524 0.10572 0.38199 0.0
H4122 H 0.97793 0.11078 0.36487 0.0
H4123 H 0.96938 0.11385 0.31157 0.0
H4124 H 0.63862 0.2271 0.05463 0.0
H4125 H 0.63946 0.23583 0.10811 0.0
H4126 H 0.67724 0.20266 0.12633 0.0
H4127 H 0.67664 0.19407 0.07264 0.0
H4128 H 0.6337 0.22014 0.15965 0.0
H4129 H 0.69578 0.2418 0.16405 0.0
H4130 H 0.68607 0.23684 0.12842 0.0
H4131 H 0.69429 0.22146 0.1523 0.0
C4132 C 0.64713 0.22166 0.06999 0.0
C4133 C 0.65758 0.20988 0.05921 0.0
C4134 C 0.64764 0.22671 0.10062 0.0
C4135 C 0.65858 0.22013 0.12139 0.0
C4136 C 0.66898 0.20829 0.11074 0.0
H4137 H 0.6696 0.23063 0.32072 0.0
H4138 H 0.67114 0.22171 0.26713 0.0
C4139 C 0.66858 0.20333 0.07998 0.0
C4140 C 0.6586 0.22528 0.1543 0.0
H4141 H 0.68209 0.24013 0.21176 0.0
C4142 C 0.64429 0.22457 0.17091 0.0
C4143 C 0.6724 0.23107 0.16926 0.0
C4144 C 0.68797 0.233 0.15254 0.0
C4145 C 0.64342 0.22934 0.20183 0.0
C4146 C 0.6572 0.23508 0.21673 0.0
C4147 C 0.67155 0.23567 0.20035 0.0
C4148 C 0.65677 0.2408 0.24912 0.0
C4149 C 0.62778 0.22806 0.21853 0.0
C4150 C 0.6484 0.25464 0.25679 0.0
C4151 C 0.64754 0.2598 0.28734 0.0
C4152 C 0.65499 0.25119 0.31102 0.0
C4153 C 0.66358 0.23745 0.30317 0.0
C4154 C 0.66454 0.23237 0.27252 0.0
H4155 H 0.61914 0.22051 0.20596 0.0
H4156 H 0.62953 0.22308 0.2419 0.0
H4157 H 0.62257 0.24008 0.22106 0.0
H4158 H 0.64242 0.26142 0.23912 0.0
H4159 H 0.64071 0.27034 0.29249 0.0
H4160 H 0.09421 0.5389 0.67705 0.0
H4161 H 0.10009 0.5231 0.72353 0.0
H4162 H 0.05874 0.54249 0.7679 0.0
H4163 H 0.05288 0.5581 0.72272 0.0
H4164 H 0.10264 0.53543 0.7913 0.0
H4165 H 0.0541 0.4922 0.77066 0.0
H4166 H 0.06304 0.50372 0.74018 0.0
H4167 H 0.04871 0.51266 0.76533 0.0
C4168 C 0.08646 0.53986 0.6968 0.0
C4169 C 0.07305 0.54983 0.69583 0.0
C4170 C 0.08982 0.53082 0.72333 0.0
C4171 C 0.07972 0.53147 0.7491 0.0
C4172 C 0.0666 0.54162 0.74827 0.0
H4173 H 0.05965 0.49748 0.92967 0.0
H4174 H 0.06048 0.50844 0.87772 0.0
C4175 C 0.06332 0.55063 0.72218 0.0
C4176 C 0.08242 0.52169 0.77718 0.0
H4177 H 0.06436 0.49346 0.82164 0.0
C4178 C 0.09452 0.526 0.79772 0.0
C4179 C 0.07169 0.50951 0.7857 0.0
C4180 C 0.05871 0.50411 0.76426 0.0
C4181 C 0.09567 0.51902 0.82711 0.0
C4182 C 0.08456 0.50722 0.83607 0.0
C4183 C 0.07285 0.50252 0.81498 0.0
C4184 C 0.08426 0.50028 0.86772 0.0
C4185 C 0.10824 0.52496 0.84893 0.0
C4186 C 0.09726 0.49179 0.87952 0.0
C4187 C 0.09685 0.48554 0.90943 0.0
C4188 C 0.0834 0.48759 0.92832 0.0
C4189 C 0.07031 0.49586 0.91615 0.0
C4190 C 0.07073 0.50207 0.88627 0.0
H4191 H 0.1135 0.53637 0.84115 0.0
H4192 H 0.10327 0.52662 0.87232 0.0
H4193 H 0.11792 0.51608 0.85041 0.0
H4194 H 0.10774 0.48996 0.86558 0.0
H4195 H 0.10721 0.47935 0.91794 0.0
H4196 H 0.687 0.80825 0.97235 0.0
H4197 H 0.69884 0.81748 0.01983 0.0
H4198 H 0.71558 0.85969 0.97416 0.0
H4199 H 0.70373 0.85035 0.92563 0.0
H4200 H 0.739 0.84422 1.01056 0.0
H4201 H 0.68375 0.8527 0.07702 0.0
H4202 H 0.68455 0.83355 0.05916 0.0
H4203 H 0.68389 0.85112 0.03568 0.0
C4204 C 0.69309 0.81958 0.97218 0.0
C4205 C 0.6944 0.82856 0.945 0.0
C4206 C 0.69978 0.82489 0.99958 0.0
C4207 C 0.70793 0.83938 1.00077 0.0
C4208 C 0.70924 0.84851 0.97381 0.0
H4209 H 0.73738 0.87195 0.18332 0.0
H4210 H 0.72626 0.87107 0.13162 0.0
C4211 C 0.70241 0.8432 0.94615 0.0
C4212 C 0.71554 0.84433 0.03012 0.0
H4213 H 0.70764 0.84924 0.10647 0.0
C4214 C 0.73215 0.84559 0.03146 0.0
C4215 C 0.70661 0.84629 0.05739 0.0
C4216 C 0.6887 0.84601 0.05725 0.0
C4217 C 0.74008 0.84797 0.05955 0.0
C4218 C 0.73119 0.84882 0.08714 0.0
C4219 C 0.71453 0.84836 0.0855 0.0
C4220 C 0.73882 0.84983 0.11801 0.0
C4221 C 0.75792 0.84951 0.05935 0.0
C4222 C 0.74957 0.83814 0.12787 0.0
C4223 C 0.75613 0.83871 0.15742 0.0
C4224 C 0.75197 0.8509 0.17802 0.0
C4225 C 0.74114 0.86254 0.16805 0.0
C4226 C 0.73465 0.862 0.13847 0.0
H4227 H 0.76232 0.85372 0.03671 0.0
H4228 H 0.76208 0.85784 0.07737 0.0
H4229 H 0.76328 0.83771 0.06377 0.0
H4230 H 0.7527 0.82839 0.11289 0.0
H4231 H 0.7645 0.82959 0.16407 0.0
H4232 H 0.4018 0.518 0.41609 0.0
H4233 H 0.40238 0.50707 0.36391 0.0
H4234 H 0.42527 0.46489 0.39786 0.0
H4235 H 0.42502 0.47575 0.44978 0.0
H4236 H 0.42798 0.49632 0.32625 0.0
H4237 H 0.38627 0.44731 0.35246 0.0
H4238 H 0.38875 0.46421 0.37745 0.0
H4239 H 0.40288 0.44824 0.37822 0.0
C4240 C 0.40713 0.50647 0.41249 0.0
C4241 C 0.41319 0.49773 0.43752 0.0
C4242 C 0.40737 0.50019 0.38257 0.0
C4243 C 0.41357 0.48499 0.37691 0.0
C4244 C 0.42005 0.47646 0.40163 0.0
H4245 H 0.43353 0.41949 0.23326 0.0
H4246 H 0.42816 0.43431 0.27993 0.0
C4247 C 0.41986 0.48272 0.43145 0.0
C4248 C 0.41329 0.47791 0.34537 0.0
H4249 H 0.40059 0.44534 0.3054 0.0
C4250 C 0.42182 0.48528 0.32154 0.0
C4251 C 0.40519 0.46354 0.33906 0.0
C4252 C 0.39512 0.45542 0.36304 0.0
C4253 C 0.42315 0.47827 0.2922 0.0
C4254 C 0.41548 0.4636 0.28624 0.0
C4255 C 0.4065 0.45655 0.3098 0.0
C4256 C 0.41785 0.45457 0.25694 0.0
C4257 C 0.43338 0.48624 0.26829 0.0
C4258 C 0.41349 0.46075 0.22806 0.0
C4259 C 0.41654 0.45216 0.20089 0.0
C4260 C 0.42403 0.43725 0.20211 0.0
C4261 C 0.42783 0.43095 0.23119 0.0
C4262 C 0.42475 0.43944 0.25809 0.0
H4263 H 0.44092 0.49574 0.27831 0.0
H4264 H 0.44118 0.47746 0.25676 0.0
H4265 H 0.42566 0.49169 0.25056 0.0
H4266 H 0.40786 0.47226 0.22648 0.0
H4267 H 0.4135 0.45742 0.17898 0.0
H4268 H 0.8187 0.1689 0.47957 0.0
H4269 H 0.80517 0.16338 0.52794 0.0
H4270 H 0.77006 0.13577 0.47968 0.0
H4271 H 0.78367 0.14143 0.43069 0.0
H4272 H 0.772 0.17335 0.53489 0.0
H4273 H 0.78151 0.10923 0.55967 0.0
H4274 H 0.79497 0.12046 0.53568 0.0
H4275 H 0.7758 0.11496 0.52137 0.0
C4276 C 0.80832 0.16132 0.4793 0.0
C4277 C 0.80224 0.15562 0.45135 0.0
C4278 C 0.80058 0.1582 0.50699 0.0
C4279 C 0.78657 0.14921 0.5075 0.0
C4280 C 0.78095 0.14261 0.47987 0.0
H4281 H 0.72541 0.13144 0.66797 0.0
H4282 H 0.73691 0.13117 0.61627 0.0
C4283 C 0.78877 0.14575 0.45193 0.0
C4284 C 0.77722 0.14838 0.53651 0.0
H4285 H 0.76673 0.12389 0.59577 0.0
C4286 C 0.77076 0.16251 0.54812 0.0
C4287 C 0.77548 0.13423 0.5536 0.0
C4288 C 0.78233 0.11881 0.5422 0.0
C4289 C 0.76284 0.16295 0.57652 0.0
C4290 C 0.76168 0.14894 0.59436 0.0
C4291 C 0.76771 0.13467 0.58228 0.0
C4292 C 0.7547 0.14901 0.62591 0.0
C4293 C 0.75569 0.17844 0.58696 0.0
C4294 C 0.76096 0.15897 0.6488 0.0
C4295 C 0.75438 0.15919 0.67834 0.0
C4296 C 0.74149 0.14929 0.68592 0.0
C4297 C 0.73538 0.13915 0.66306 0.0
C4298 C 0.74193 0.139 0.63343 0.0
H4299 H 0.75311 0.18638 0.5672 0.0
H4300 H 0.74453 0.17648 0.59999 0.0
H4301 H 0.76426 0.18467 0.60211 0.0
H4302 H 0.77107 0.1665 0.64392 0.0
H4303 H 0.75963 0.16689 0.69546 0.0
H4304 H 0.92919 0.4246 0.6305 0.0
H4305 H 0.92468 0.4396 0.58349 0.0
H4306 H 0.91059 0.48029 0.6368 0.0
H4307 H 0.91527 0.46528 0.68441 0.0
H4308 H 0.89765 0.45471 0.56023 0.0
H4309 H 0.94647 0.49776 0.5816 0.0
H4310 H 0.94427 0.47969 0.60346 0.0
H4311 H 0.93164 0.49635 0.61119 0.0
C4312 C 0.925 0.4367 0.6324 0.0
C4313 C 0.92266 0.44372 0.6614 0.0
C4314 C 0.92242 0.44528 0.60537 0.0
C4315 C 0.91755 0.46118 0.60646 0.0
C4316 C 0.91462 0.46812 0.63531 0.0
H4317 H 0.90689 0.52764 0.4511 0.0
H4318 H 0.90765 0.51599 0.5027 0.0
C4319 C 0.91712 0.45946 0.66254 0.0
C4320 C 0.91586 0.47032 0.57721 0.0
H4321 H 0.932 0.50085 0.53561 0.0
C4322 C 0.9051 0.46486 0.55496 0.0
C4323 C 0.92557 0.48359 0.5702 0.0
C4324 C 0.93775 0.48968 0.59269 0.0
C4325 C 0.90386 0.47216 0.52597 0.0
C4326 C 0.91388 0.48513 0.5186 0.0
C4327 C 0.92435 0.49089 0.54113 0.0
C4328 C 0.91402 0.49245 0.4873 0.0
C4329 C 0.89174 0.46592 0.50351 0.0
C4330 C 0.91777 0.48327 0.4614 0.0
C4331 C 0.91743 0.4899 0.4319 0.0
C4332 C 0.9134 0.50596 0.42742 0.0
C4333 C 0.91013 0.51528 0.45354 0.0
C4334 C 0.91048 0.50861 0.48312 0.0
H4335 H 0.88209 0.45933 0.51537 0.0
H4336 H 0.88639 0.4757 0.48996 0.0
H4337 H 0.89762 0.45761 0.48737 0.0
H4338 H 0.92098 0.4709 0.46399 0.0
H4339 H 0.9204 0.48241 0.41255 0.0
H4340 H 0.25581 0.17833 0.15572 0.0
H4341 H 0.26737 0.17919 0.20709 0.0
H4342 H 0.22804 0.15194 0.24223 0.0
H4343 H 0.21667 0.15047 0.19058 0.0
H4344 H 0.25616 0.19161 0.26024 0.0
H4345 H 0.26522 0.12685 0.27546 0.0
H4346 H 0.26037 0.13554 0.23878 0.0
H4347 H 0.24513 0.13245 0.26707 0.0
C4348 C 0.24967 0.17231 0.17422 0.0
C4349 C 0.23533 0.16418 0.16868 0.0
C4350 C 0.25627 0.17292 0.20374 0.0
C4351 C 0.24878 0.16538 0.22864 0.0
C4352 C 0.23429 0.15755 0.2234 0.0
H4353 H 0.27839 0.16366 0.4241 0.0
H4354 H 0.26307 0.15989 0.3765 0.0
C4355 C 0.22766 0.15691 0.19381 0.0
C4356 C 0.2561 0.16607 0.25996 0.0
H4357 H 0.27142 0.14321 0.31795 0.0
C4358 C 0.25944 0.181 0.27281 0.0
C4359 C 0.26038 0.15225 0.27665 0.0
C4360 C 0.25774 0.13586 0.26375 0.0
C4361 C 0.26701 0.1825 0.30148 0.0
C4362 C 0.27157 0.16872 0.31784 0.0
C4363 C 0.26789 0.15377 0.30548 0.0
C4364 C 0.28111 0.16974 0.34669 0.0
C4365 C 0.27011 0.19888 0.31406 0.0
C4366 C 0.29651 0.17605 0.34573 0.0
C4367 C 0.3053 0.17808 0.37268 0.0
C4368 C 0.29894 0.17391 0.40153 0.0
C4369 C 0.28371 0.167 0.40239 0.0
C4370 C 0.2749 0.16488 0.37519 0.0
H4371 H 0.26224 0.20789 0.30336 0.0
H4372 H 0.26836 0.19914 0.33931 0.0
H4373 H 0.28259 0.20227 0.30917 0.0
H4374 H 0.30169 0.17965 0.32403 0.0
H4375 H 0.31701 0.18328 0.37082 0.0
H4376 H 0.55777 0.49616 0.93592 0.0
H4377 H 0.55641 0.50867 0.98657 0.0
H4378 H 0.60679 0.5021 0.99796 0.0
H4379 H 0.60837 0.49005 0.947 0.0
H4380 H 0.56441 0.49715 0.04461 0.0
H4381 H 0.60138 0.54949 1.01459 0.0
H4382 H 0.5933 0.53632 0.98592 0.0
H4383 H 0.61063 0.53068 1.00733 0.0
C4384 C 0.56861 0.49749 0.94903 0.0
C4385 C 0.5832 0.49214 0.93711 0.0
C4386 C 0.56779 0.50455 0.97814 0.0
C4387 C 0.58153 0.50656 0.996 0.0
C4388 C 0.59606 0.50096 0.98448 0.0
H4389 H 0.57755 0.53468 0.19171 0.0
H4390 H 0.58386 0.5203 0.14418 0.0
C4391 C 0.5969 0.49388 0.95539 0.0
C4392 C 0.58063 0.51456 0.02655 0.0
H4393 H 0.59353 0.54706 0.06648 0.0
C4394 C 0.57084 0.50802 0.04944 0.0
C4395 C 0.5889 0.52884 0.03283 0.0
C4396 C 0.59904 0.53686 1.00884 0.0
C4397 C 0.56905 0.51538 0.07828 0.0
C4398 C 0.57743 0.52958 0.08466 0.0
C4399 C 0.58727 0.53607 0.0618 0.0
C4400 C 0.57506 0.53862 0.1138 0.0
C4401 C 0.55775 0.50817 0.10129 0.0
C4402 C 0.56868 0.55398 0.11264 0.0
C4403 C 0.5652 0.56224 0.13964 0.0
C4404 C 0.56808 0.55542 0.16865 0.0
C4405 C 0.5752 0.54032 0.16984 0.0
C4406 C 0.57865 0.53201 0.14265 0.0
H4407 H 0.54977 0.49926 0.09057 0.0
H4408 H 0.56465 0.50215 0.11957 0.0
H4409 H 0.55037 0.5175 0.11225 0.0
H4410 H 0.56588 0.5594 0.09075 0.0
H4411 H 0.5598 0.57385 0.13769 0.0
H4412 H 0.21273 0.84921 0.94867 0.0
H4413 H 0.22543 0.85758 0.90012 0.0
H4414 H 0.20013 0.82076 0.85187 0.0
H4415 H 0.1875 0.81258 0.89944 0.0
H4416 H 0.24498 0.8384 0.86189 0.0
H4417 H 0.19257 0.85908 0.79703 0.0
H4418 H 0.19237 0.8567 0.83824 0.0
H4419 H 0.18948 0.83982 0.81353 0.0
C4420 C 0.20965 0.84319 0.92754 0.0
C4421 C 0.1991 0.83025 0.92796 0.0
C4422 C 0.21698 0.84789 0.89986 0.0
C4423 C 0.21361 0.83991 0.87218 0.0
C4424 C 0.20274 0.82732 0.87265 0.0
H4425 H 0.24375 0.82731 0.68572 0.0
H4426 H 0.23188 0.8267 0.737 0.0
C4427 C 0.19558 0.82258 0.90005 0.0
C4428 C 0.22203 0.84377 0.84291 0.0
H4429 H 0.21526 0.85143 0.76689 0.0
C4430 C 0.23854 0.84157 0.84123 0.0
C4431 C 0.21365 0.84782 0.81583 0.0
C4432 C 0.19606 0.85115 0.81625 0.0
C4433 C 0.24672 0.84248 0.81302 0.0
C4434 C 0.2382 0.84589 0.78576 0.0
C4435 C 0.2218 0.84867 0.78766 0.0
C4436 C 0.24593 0.8461 0.75488 0.0
C4437 C 0.26429 0.83905 0.81238 0.0
C4438 C 0.25779 0.85722 0.74769 0.0
C4439 C 0.26467 0.85756 0.71834 0.0
C4440 C 0.25982 0.84679 0.69541 0.0
C4441 C 0.24797 0.83563 0.7028 0.0
C4442 C 0.24107 0.83534 0.7321 0.0
H4443 H 0.2684 0.83333 0.83394 0.0
H4444 H 0.26732 0.83121 0.79275 0.0
H4445 H 0.2709 0.85034 0.8095 0.0
H4446 H 0.26161 0.8658 0.76465 0.0
H4447 H 0.27383 0.86625 0.71364 0.0
H4448 H 0.56774 0.0071 0.4617 0.0
H4449 H 0.56563 0.01814 0.40999 0.0
H4450 H 0.58338 0.97438 0.37205 0.0
H4451 H 0.58546 0.9632 0.42385 0.0
H4452 H 0.58917 0.02332 0.36829 0.0
H4453 H 0.54462 0.98196 0.31895 0.0
H4454 H 0.54857 0.98301 0.35962 0.0
H4455 H 0.56188 0.97247 0.33465 0.0
C4456 C 0.5712 -0.00021 0.44239 0.0
C4457 C 0.5768 0.98424 0.44704 0.0
C4458 C 0.56993 0.00612 0.41277 0.0
C4459 C 0.57418 -0.00292 0.38696 0.0
C4460 C 0.57968 0.9815 0.39145 0.0
H4461 H 0.57392 0.02472 0.19119 0.0
H4462 H 0.57912 0.0105 0.23946 0.0
C4463 C 0.58089 0.97512 0.42114 0.0
C4464 C 0.57339 0.00429 0.35567 0.0
H4465 H 0.55589 0.00083 0.28506 0.0
C4466 C 0.5819 0.01836 0.35012 0.0
C4467 C 0.564 -0.00219 0.33176 0.0
C4468 C 0.55413 0.98306 0.3365 0.0
C4469 C 0.58116 0.02617 0.32162 0.0
C4470 C 0.57151 0.01989 0.29797 0.0
C4471 C 0.56333 0.00561 0.30315 0.0
C4472 C 0.56892 0.02859 0.26859 0.0
C4473 C 0.59074 0.04113 0.31704 0.0
C4474 C 0.56142 0.04344 0.26889 0.0
C4475 C 0.55842 0.05155 0.24149 0.0
C4476 C 0.56282 0.04502 0.21297 0.0
C4477 C 0.57048 0.03017 0.21269 0.0
C4478 C 0.5734 0.02199 0.24025 0.0
H4479 H 0.6007 0.04194 0.33367 0.0
H4480 H 0.59563 0.04174 0.29339 0.0
H4481 H 0.58295 0.05157 0.32057 0.0
H4482 H 0.55762 0.04867 0.29037 0.0
H4483 H 0.55244 0.0629 0.24273 0.0
H4484 H 0.1766 0.31272 0.47084 0.0
H4485 H 0.19186 0.31831 0.51727 0.0
H4486 H 0.23103 0.33475 0.4621 0.0
H4487 H 0.21562 0.32934 0.4151 0.0
H4488 H 0.23663 0.30857 0.51197 0.0
H4489 H 0.20705 0.36343 0.55356 0.0
H4490 H 0.19435 0.34792 0.53913 0.0
H4491 H 0.20761 0.35799 0.51342 0.0
C4492 C 0.18835 0.31781 0.46847 0.0
C4493 C 0.19484 0.32067 0.43917 0.0
C4494 C 0.19707 0.32099 0.49512 0.0
C4495 C 0.21258 0.32697 0.49325 0.0
C4496 C 0.21904 0.3302 0.4641 0.0
H4497 H 0.26785 0.35414 0.65651 0.0
H4498 H 0.25627 0.3533 0.60494 0.0
C4499 C 0.21019 0.32722 0.43727 0.0
C4500 C 0.22213 0.32892 0.52187 0.0
H4501 H 0.22402 0.3502 0.58864 0.0
C4502 C 0.23402 0.31778 0.52859 0.0
C4503 C 0.21873 0.34092 0.54356 0.0
C4504 C 0.20632 0.35336 0.53717 0.0
C4505 C 0.24224 0.31805 0.55678 0.0
C4506 C 0.23841 0.3297 0.57904 0.0
C4507 C 0.22691 0.34119 0.57179 0.0
C4508 C 0.24593 0.32996 0.61018 0.0
C4509 C 0.25494 0.30581 0.56254 0.0
C4510 C 0.24394 0.31717 0.63056 0.0
C4511 C 0.25057 0.3176 0.66011 0.0
C4512 C 0.25937 0.33085 0.67013 0.0
C4513 C 0.26137 0.34363 0.64958 0.0
C4514 C 0.25465 0.34322 0.62007 0.0
H4515 H 0.25939 0.30058 0.54076 0.0
H4516 H 0.26511 0.31104 0.57522 0.0
H4517 H 0.24992 0.29606 0.57666 0.0
H4518 H 0.23706 0.3069 0.62377 0.0
H4519 H 0.24884 0.30749 0.6751 0.0
H4520 H 0.92497 0.98278 0.94449 0.0
H4521 H 0.92612 0.97101 0.89331 0.0
H4522 H 0.90329 0.01234 0.85542 0.0
H4523 H 0.90193 0.02418 0.90668 0.0
H4524 H 0.90116 0.96334 0.85492 0.0
H4525 H 0.94116 0.00664 0.79779 0.0
H4526 H 0.93883 0.00577 0.83895 0.0
H4527 H 0.924 0.01526 0.81569 0.0
C4528 C 0.92014 0.98941 0.92536 0.0
C4529 C 0.91331 0.00448 0.92996 0.0
C4530 C 0.92088 0.98266 0.89599 0.0
C4531 C 0.91495 0.9908 0.87031 0.0
C4532 C 0.90826 0.00591 0.87467 0.0
H4533 H 0.91219 0.96043 0.67558 0.0
H4534 H 0.90668 0.9749 0.72358 0.0
C4535 C 0.9075 0.01269 0.9041 0.0
C4536 C 0.91521 0.98312 0.83935 0.0
H4537 H 0.92994 0.98668 0.76636 0.0
C4538 C 0.90745 0.96848 0.83559 0.0
C4539 C 0.92332 0.98982 0.81392 0.0
C4540 C 0.93243 0.00517 0.81671 0.0
C4541 C 0.90768 0.96034 0.80739 0.0
C4542 C 0.91605 0.96686 0.78216 0.0
C4543 C 0.92346 0.9817 0.78561 0.0
C4544 C 0.91837 0.95783 0.75301 0.0
C4545 C 0.89892 0.94477 0.80484 0.0
C4546 C 0.92668 0.94343 0.75351 0.0
C4547 C 0.92982 0.93522 0.72632 0.0
C4548 C 0.92469 0.94112 0.69774 0.0
C4549 C 0.91604 0.9554 0.6972 0.0
C4550 C 0.91303 0.96374 0.72459 0.0
H4551 H 0.88943 0.94375 0.82245 0.0
H4552 H 0.89351 0.94335 0.78175 0.0
H4553 H 0.90739 0.93488 0.80848 0.0
H4554 H 0.9312 0.93873 0.77495 0.0
H4555 H 0.93663 0.92437 0.72768 0.0
H4556 H 0.26549 0.68299 0.20863 0.0
H4557 H 0.27626 0.68033 0.15683 0.0
H4558 H 0.23356 0.65646 0.12787 0.0
H4559 H 0.22273 0.65882 0.17993 0.0
H4560 H 0.28129 0.6509 0.12542 0.0
H4561 H 0.24068 0.69081 0.0607 0.0
H4562 H 0.24297 0.69203 0.10188 0.0
H4563 H 0.2316 0.67622 0.08525 0.0
C4564 C 0.25835 0.67714 0.19134 0.0
C4565 C 0.24325 0.67103 0.19868 0.0
C4566 C 0.26452 0.67571 0.16163 0.0
C4567 C 0.25571 0.66828 0.13836 0.0
C4568 C 0.24049 0.66246 0.1453 0.0
H4569 H 0.2844 0.6554 0.9445 0.0
H4570 H 0.26972 0.65245 0.99308 0.0
C4571 C 0.2343 0.66385 0.17512 0.0
C4572 C 0.26292 0.666 0.10742 0.0
H4573 H 0.26049 0.67767 0.03233 0.0
C4574 C 0.27667 0.65667 0.10503 0.0
C4575 C 0.25682 0.6734 0.08074 0.0
C4576 C 0.24227 0.68378 0.08206 0.0
C4577 C 0.28462 0.65475 0.0769 0.0
C4578 C 0.27889 0.66263 0.05043 0.0
C4579 C 0.26485 0.67157 0.05256 0.0
C4580 C 0.28811 0.66296 0.02121 0.0
C4581 C 0.29917 0.64436 0.07585 0.0
C4582 C 0.30335 0.66965 0.02087 0.0
C4583 C 0.31173 0.67124 0.99338 0.0
C4584 C 0.30507 0.66625 0.96536 0.0
C4585 C 0.28999 0.65908 0.96572 0.0
C4586 C 0.28152 0.65755 0.99342 0.0
H4587 H 0.29904 0.63539 0.09456 0.0
H4588 H 0.30015 0.63811 0.05349 0.0
H4589 H 0.3099 0.65184 0.07891 0.0
H4590 H 0.30859 0.6742 0.0418 0.0
H4591 H 0.32324 0.67694 0.99396 0.0
H4592 H 0.4036 0.96386 0.20042 0.0
H4593 H 0.39732 0.97854 0.15303 0.0
H4594 H 0.41415 0.9391 0.09912 0.0
H4595 H 0.42024 0.92452 0.14595 0.0
H4596 H 0.4191 0.98769 0.10913 0.0
H4597 H 0.37375 0.94985 0.05411 0.0
H4598 H 0.37888 0.94794 0.09418 0.0
H4599 H 0.39087 0.93859 0.06511 0.0
C4600 C 0.40533 0.95811 0.17844 0.0
C4601 C 0.41216 0.9429 0.17697 0.0
C4602 C 0.40193 0.96658 0.15133 0.0
C4603 C 0.40506 0.95989 0.12231 0.0
C4604 C 0.41124 0.94445 0.12102 0.0
H4605 H 0.41527 0.98427 0.93151 0.0
H4606 H 0.41461 0.97255 0.98285 0.0
C4607 C 0.41473 0.93609 0.14792 0.0
C4608 C 0.40331 0.96932 0.09336 0.0
H4609 H 0.38814 0.96745 0.02056 0.0
C4610 C 0.4121 0.98341 0.08993 0.0
C4611 C 0.39423 0.96379 0.06815 0.0
C4612 C 0.38378 0.9493 0.07065 0.0
C4613 C 0.41268 0.99162 0.0617 0.0
C4614 C 0.40407 0.98572 0.03618 0.0
C4615 C 0.39487 0.97193 0.03993 0.0
C4616 C 0.40485 0.99329 1.0051 0.0
C4617 C 0.42307 0.00615 0.05908 0.0
C4618 C 0.39954 0.0089 1.00024 0.0
C4619 C 0.39997 0.0157 0.97079 0.0
C4620 C 0.40571 0.00706 0.94539 0.0
C4621 C 0.41103 0.99143 0.95044 0.0
C4622 C 0.41054 0.98464 0.97983 0.0
H4623 H 0.43157 0.00709 0.07849 0.0
H4624 H 0.42986 0.00602 0.03722 0.0
H4625 H 0.41549 0.0169 0.0592 0.0
H4626 H 0.39485 0.01578 0.01917 0.0
H4627 H 0.39585 0.02778 0.96796 0.0
H4628 H 0.8288 0.6745 0.88354 0.0
H4629 H 0.81504 0.67015 0.835 0.0
H4630 H 0.777 0.64657 0.88314 0.0
H4631 H 0.79107 0.65062 0.93207 0.0
H4632 H 0.783 0.63291 0.82642 0.0
H4633 H 0.77731 0.69794 0.81422 0.0
H4634 H 0.79772 0.69199 0.81585 0.0
H4635 H 0.78505 0.68885 0.84853 0.0
C4636 C 0.81773 0.66795 0.88371 0.0
C4637 C 0.811 0.66293 0.91164 0.0
C4638 C 0.80976 0.66566 0.85595 0.0
C4639 C 0.79471 0.65852 0.85543 0.0
C4640 C 0.78852 0.65228 0.88297 0.0
H4641 H 0.73035 0.6725 0.69876 0.0
H4642 H 0.74223 0.67232 0.75013 0.0
C4643 C 0.79665 0.65442 0.9109 0.0
C4644 C 0.78529 0.65834 0.82638 0.0
H4645 H 0.77118 0.6825 0.76943 0.0
C4646 C 0.78032 0.64376 0.81408 0.0
C4647 C 0.78147 0.67252 0.81043 0.0
C4648 C 0.78552 0.6887 0.8231 0.0
C4649 C 0.77222 0.64293 0.78581 0.0
C4650 C 0.76919 0.65704 0.76907 0.0
C4651 C 0.77363 0.67165 0.78196 0.0
C4652 C 0.76177 0.65691 0.7379 0.0
C4653 C 0.76688 0.62692 0.77427 0.0
C4654 C 0.7689 0.64857 0.71364 0.0
C4655 C 0.76217 0.64871 0.68424 0.0
C4656 C 0.74817 0.65729 0.67817 0.0
C4657 C 0.74117 0.66584 0.70242 0.0
C4658 C 0.74792 0.66568 0.7319 0.0
H4659 H 0.76567 0.61824 0.79334 0.0
H4660 H 0.75534 0.62777 0.76208 0.0
H4661 H 0.77586 0.62224 0.75799 0.0
H4662 H 0.77984 0.64212 0.71732 0.0
H4663 H 0.76814 0.64228 0.66608 0.0
H4664 H 0.11944 0.99616 0.42996 0.0
H4665 H 0.11824 0.00639 0.48241 0.0
H4666 H 0.07012 0.98947 0.49076 0.0
H4667 H 0.07146 0.97853 0.43894 0.0
H4668 H 0.09954 0.02866 0.50762 0.0
H4669 H 0.08911 0.97197 0.56828 0.0
H4670 H 0.09515 0.97275 0.52856 0.0
H4671 H 0.07461 0.97535 0.53889 0.0
C4672 C 0.10868 0.99432 0.44309 0.0
C4673 C 0.09559 0.98635 0.43005 0.0
C4674 C 0.10797 0.00032 0.47309 0.0
C4675 C 0.0942 -0.00153 0.49093 0.0
C4676 C 0.08104 0.99072 0.47787 0.0
H4677 H 0.0511 0.03375 0.65182 0.0
H4678 H 0.05982 0.02149 0.60432 0.0
C4679 C 0.08175 0.98466 0.44794 0.0
C4680 C 0.09335 0.00512 0.52272 0.0
H4681 H 0.08328 0.99572 0.59664 0.0
C4682 C 0.09625 0.0214 0.52717 0.0
C4683 C 0.0892 0.99566 0.54842 0.0
C4684 C 0.08701 0.97794 0.5459 0.0
C4685 C 0.09427 0.02857 0.55614 0.0
C4686 C 0.08937 0.01924 0.58142 0.0
C4687 C 0.08704 0.00288 0.57725 0.0
C4688 C 0.08471 0.02649 0.61129 0.0
C4689 C 0.09666 0.04623 0.55928 0.0
C4690 C 0.09587 0.03327 0.63147 0.0
C4691 C 0.0909 0.04034 0.65918 0.0
C4692 C 0.07468 0.04084 0.66688 0.0
C4693 C 0.06368 0.03378 0.64667 0.0
C4694 C 0.06863 0.02667 0.61941 0.0
H4695 H 0.09908 0.05204 0.53686 0.0
H4696 H 0.08598 0.05176 0.56969 0.0
H4697 H 0.10684 0.04856 0.57482 0.0
H4698 H 0.10838 0.03314 0.62576 0.0
H4699 H 0.09967 0.04564 0.67419 0.0
H4700 H 0.69957 0.33981 0.43824 0.0
H4701 H 0.71347 0.34671 0.39017 0.0
H4702 H 0.69818 0.30255 0.35001 0.0
H4703 H 0.68437 0.29569 0.39691 0.0
H4704 H 0.7379 0.32972 0.35776 0.0
H4705 H 0.68379 0.33523 0.28653 0.0
H4706 H 0.68318 0.33537 0.32797 0.0
H4707 H 0.68456 0.3169 0.30744 0.0
C4708 C 0.69909 0.33166 0.41907 0.0
C4709 C 0.69061 0.3173 0.42152 0.0
C4710 C 0.70707 0.33558 0.39164 0.0
C4711 C 0.70661 0.32528 0.3662 0.0
C4712 C 0.69841 0.31089 0.36893 0.0
H4713 H 0.74225 0.31325 0.18235 0.0
H4714 H 0.73018 0.31119 0.23329 0.0
C4715 C 0.6905 0.30698 0.39604 0.0
C4716 C 0.71481 0.32914 0.33673 0.0
H4717 H 0.70829 0.33204 0.25943 0.0
C4718 C 0.73143 0.33049 0.3363 0.0
C4719 C 0.70638 0.33008 0.30865 0.0
C4720 C 0.68848 0.32947 0.30761 0.0
C4721 C 0.73986 0.33202 0.30846 0.0
C4722 C 0.73143 0.33246 0.28031 0.0
C4723 C 0.71479 0.33157 0.2809 0.0
C4724 C 0.73957 0.33349 0.2499 0.0
C4725 C 0.75776 0.3325 0.30932 0.0
C4726 C 0.74892 0.3467 0.24212 0.0
C4727 C 0.75592 0.34788 0.21298 0.0
C4728 C 0.75371 0.3359 0.19082 0.0
C4729 C 0.74444 0.32261 0.19884 0.0
C4730 C 0.73741 0.32146 0.22795 0.0
H4731 H 0.76249 0.3283 0.33168 0.0
H4732 H 0.76289 0.32511 0.2907 0.0
H4733 H 0.76181 0.3449 0.30584 0.0
H4734 H 0.75057 0.35627 0.25839 0.0
H4735 H 0.76307 0.35823 0.2078 0.0
loop_
_geom_bond_atom_site_label_1
_geom_bond_atom_site_label_2
_geom_bond_distance
_geom_bond_site_symmetry_2
_ccdc_geom_bond_type
Nd0 C2 2.836 . S
Nd0 O20 2.500 . S
Nd0 O21 2.492 . S
Nd0 O22 2.487 . S
Nd0 O23 2.682 . S
Nd0 O24 2.410 . S
Nd0 O29 2.414 . S
Nd0 O31 2.424 . S
Nd1 C11 2.836 . S
Nd1 O23 2.414 . S
Nd1 O25 2.424 . S
Nd1 O26 2.500 . S
Nd1 O27 2.492 . S
Nd1 O28 2.487 . S
Nd1 O29 2.682 . S
Nd1 O30 2.410 . S
C2 Nd0 2.836 . S
C2 C3 1.498 . S
C2 O20 1.258 . S
C2 O21 1.239 . S
C3 C2 1.498 . S
C3 C4 1.366 . S
C3 C8 1.407 . S
C4 C3 1.366 . S
C4 C5 1.392 1_554 S
C4 H32 0.930 . S
C5 C4 1.392 1_556 S
C5 C6 1.398 . S
C5 H33 0.929 . S
C6 C5 1.398 . S
C6 C7 1.352 . S
C7 C6 1.352 . S
C7 C8 1.384 1_556 S
C7 H34 0.930 . S
C8 C3 1.407 . S
C8 C7 1.384 1_554 S
C8 H35 0.929 . S
C9 O22 1.241 . S
C9 O23 1.273 . S
C10 O24 1.251 . S
C10 O25 1.268 . S
C11 Nd1 2.836 . S
C11 C12 1.498 . S
C11 O26 1.258 . S
C11 O27 1.239 . S
C12 C11 1.498 . S
C12 C13 1.366 . S
C12 C17 1.407 . S
C13 C12 1.366 . S
C13 C14 1.392 . S
C13 H36 0.930 . S
C14 C13 1.392 . S
C14 C15 1.398 . S
C14 H37 0.929 . S
C15 C14 1.398 . S
C15 C16 1.352 . S
C16 C15 1.352 . S
C16 C17 1.384 . S
C16 H38 0.930 1_455 S
C17 C12 1.407 . S
C17 C16 1.384 . S
C17 H39 0.929 . S
C18 O28 1.241 . S
C18 O29 1.273 . S
C19 O30 1.251 . S
C19 O31 1.268 . S
O20 Nd0 2.500 . S
O20 C2 1.258 . S
O21 Nd0 2.492 . S
O21 C2 1.239 . S
O22 Nd0 2.487 . S
O22 C9 1.241 . S
O23 Nd0 2.682 . S
O23 Nd1 2.414 . S
O23 C9 1.273 . S
O24 Nd0 2.410 . S
O24 C10 1.251 . S
O25 Nd1 2.424 . S
O25 C10 1.268 . S
O26 Nd1 2.500 . S
O26 C11 1.258 . S
O27 Nd1 2.492 . S
O27 C11 1.239 . S
O28 Nd1 2.487 . S
O28 C18 1.241 . S
O29 Nd0 2.414 . S
O29 Nd1 2.682 . S
O29 C18 1.273 . S
O30 Nd1 2.410 . S
O30 C19 1.251 . S
O31 Nd0 2.424 . S
O31 C19 1.268 . S
H32 C4 0.930 . S
H33 C5 0.929 . S
H34 C7 0.930 . S
H35 C8 0.929 . S
H36 C13 0.930 . S
H37 C14 0.929 . S
H38 C16 0.930 1_655 S
H39 C17 0.929 . S
Nd40 C42 2.836 . S
Nd40 O60 2.500 . S
Nd40 O61 2.492 . S
Nd40 O62 2.487 . S
Nd40 O63 2.682 . S
Nd40 O64 2.410 . S
Nd40 O69 2.414 . S
Nd40 O71 2.424 . S
Nd41 C51 2.836 . S
Nd41 O63 2.414 . S
Nd41 O65 2.424 . S
Nd41 O66 2.500 . S
Nd41 O67 2.492 . S
Nd41 O68 2.487 . S
Nd41 O69 2.682 . S
Nd41 O70 2.410 . S
C42 Nd40 2.836 . S
C42 C43 1.498 . S
C42 O60 1.258 . S
C42 O61 1.239 . S
C43 C42 1.498 . S
C43 C44 1.366 . S
C43 C48 1.407 . S
C44 C43 1.366 . S
C44 C45 1.392 . S
C44 H72 0.930 . S
C45 C44 1.392 . S
C45 C46 1.398 . S
C45 H73 0.929 . S
C46 C45 1.398 . S
C46 C47 1.352 . S
C47 C46 1.352 . S
C47 C48 1.384 . S
C47 H74 0.930 . S
C48 C43 1.407 . S
C48 C47 1.384 . S
C48 H75 0.929 . S
C49 O62 1.241 . S
C49 O63 1.273 . S
C50 O64 1.251 . S
C50 O65 1.268 . S
C51 Nd41 2.836 . S
C51 C52 1.498 . S
C51 O66 1.258 . S
C51 O67 1.239 . S
C52 C51 1.498 . S
C52 C53 1.366 . S
C52 C57 1.407 . S
C53 C52 1.366 . S
C53 C54 1.392 . S
C53 H76 0.930 . S
C54 C53 1.392 . S
C54 C55 1.398 . S
C54 H77 0.929 . S
C55 C54 1.398 . S
C55 C56 1.352 . S
C56 C55 1.352 . S
C56 C57 1.384 . S
C56 H78 0.930 . S
C57 C52 1.407 . S
C57 C56 1.384 . S
C57 H79 0.929 . S
C58 O68 1.241 . S
C58 O69 1.273 . S
C59 O70 1.251 . S
C59 O71 1.268 . S
O60 Nd40 2.500 . S
O60 C42 1.258 . S
O61 Nd40 2.492 . S
O61 C42 1.239 . S
O62 Nd40 2.487 . S
O62 C49 1.241 . S
O63 Nd40 2.682 . S
O63 Nd41 2.414 . S
O63 C49 1.273 . S
O64 Nd40 2.410 . S
O64 C50 1.251 . S
O65 Nd41 2.424 . S
O65 C50 1.268 . S
O66 Nd41 2.500 . S
O66 C51 1.258 . S
O67 Nd41 2.492 . S
O67 C51 1.239 . S
O68 Nd41 2.487 . S
O68 C58 1.241 . S
O69 Nd40 2.414 . S
O69 Nd41 2.682 . S
O69 C58 1.273 . S
O70 Nd41 2.410 . S
O70 C59 1.251 . S
O71 Nd40 2.424 . S
O71 C59 1.268 . S
H72 C44 0.930 . S
H73 C45 0.929 . S
H74 C47 0.930 . S
H75 C48 0.929 . S
H76 C53 0.930 . S
H77 C54 0.929 . S
H78 C56 0.930 . S
H79 C57 0.929 . S
Nd80 C82 2.836 . S
Nd80 O100 2.500 . S
Nd80 O101 2.492 . S
Nd80 O102 2.487 . S
Nd80 O103 2.682 . S
Nd80 O104 2.410 . S
Nd80 O109 2.414 . S
Nd80 O111 2.424 . S
Nd81 C91 2.836 . S
Nd81 O103 2.414 . S
Nd81 O105 2.424 . S
Nd81 O106 2.500 . S
Nd81 O107 2.492 . S
Nd81 O108 2.487 . S
Nd81 O109 2.682 . S
Nd81 O110 2.410 . S
C82 Nd80 2.836 . S
C82 C83 1.498 . S
C82 O100 1.258 . S
C82 O101 1.239 . S
C83 C82 1.498 . S
C83 C84 1.366 . S
C83 C88 1.407 . S
C84 C83 1.366 . S
C84 C85 1.392 . S
C84 H112 0.930 . S
C85 C84 1.392 . S
C85 C86 1.398 . S
C85 H113 0.929 . S
C86 C85 1.398 . S
C86 C87 1.352 . S
C87 C86 1.352 . S
C87 C88 1.384 . S
C87 H114 0.930 . S
C88 C83 1.407 . S
C88 C87 1.384 . S
C88 H115 0.929 . S
C89 O102 1.241 . S
C89 O103 1.273 . S
C90 O104 1.251 . S
C90 O105 1.268 . S
C91 Nd81 2.836 . S
C91 C92 1.498 . S
C91 O106 1.258 . S
C91 O107 1.239 . S
C92 C91 1.498 . S
C92 C93 1.366 . S
C92 C97 1.407 . S
C93 C92 1.366 . S
C93 C94 1.392 . S
C93 H116 0.930 . S
C94 C93 1.392 . S
C94 C95 1.398 . S
C94 H117 0.929 . S
C95 C94 1.398 . S
C95 C96 1.352 . S
C96 C95 1.352 . S
C96 C97 1.384 . S
C96 H118 0.930 . S
C97 C92 1.407 . S
C97 C96 1.384 . S
C97 H119 0.929 . S
C98 O108 1.241 . S
C98 O109 1.273 . S
C99 O110 1.251 . S
C99 O111 1.268 . S
O100 Nd80 2.500 . S
O100 C82 1.258 . S
O101 Nd80 2.492 . S
O101 C82 1.239 . S
O102 Nd80 2.487 . S
O102 C89 1.241 . S
O103 Nd80 2.682 . S
O103 Nd81 2.414 . S
O103 C89 1.273 . S
O104 Nd80 2.410 . S
O104 C90 1.251 . S
O105 Nd81 2.424 . S
O105 C90 1.268 . S
O106 Nd81 2.500 . S
O106 C91 1.258 . S
O107 Nd81 2.492 . S
O107 C91 1.239 . S
O108 Nd81 2.487 . S
O108 C98 1.241 . S
O109 Nd80 2.414 . S
O109 Nd81 2.682 . S
O109 C98 1.273 . S
O110 Nd81 2.410 . S
O110 C99 1.251 . S
O111 Nd80 2.424 . S
O111 C99 1.268 . S
H112 C84 0.930 . S
H113 C85 0.929 . S
H114 C87 0.930 . S
H115 C88 0.929 . S
H116 C93 0.930 . S
H117 C94 0.929 . S
H118 C96 0.930 . S
H119 C97 0.929 . S
Nd120 C122 2.836 . S
Nd120 O140 2.500 . S
Nd120 O141 2.492 . S
Nd120 O142 2.487 . S
Nd120 O143 2.682 . S
Nd120 O144 2.410 . S
Nd120 O149 2.414 . S
Nd120 O151 2.424 . S
Nd121 C131 2.836 . S
Nd121 O143 2.414 . S
Nd121 O145 2.424 . S
Nd121 O146 2.500 . S
Nd121 O147 2.492 . S
Nd121 O148 2.487 . S
Nd121 O149 2.682 . S
Nd121 O150 2.410 . S
C122 Nd120 2.836 . S
C122 C123 1.498 . S
C122 O140 1.258 . S
C122 O141 1.239 . S
C123 C122 1.498 . S
C123 C124 1.366 . S
C123 C128 1.407 . S
C124 C123 1.366 . S
C124 C125 1.392 . S
C124 H152 0.930 . S
C125 C124 1.392 . S
C125 C126 1.398 . S
C125 H153 0.929 . S
C126 C125 1.398 . S
C126 C127 1.352 . S
C127 C126 1.352 . S
C127 C128 1.384 . S
C127 H154 0.930 . S
C128 C123 1.407 . S
C128 C127 1.384 . S
C128 H155 0.929 . S
C129 O142 1.241 . S
C129 O143 1.273 . S
C130 O144 1.251 . S
C130 O145 1.268 . S
C131 Nd121 2.836 . S
C131 C132 1.498 1_556 S
C131 O146 1.258 . S
C131 O147 1.239 . S
C132 C131 1.498 1_554 S
C132 C133 1.366 . S
C132 C137 1.407 . S
C133 C132 1.366 . S
C133 C134 1.392 . S
C133 H156 0.930 . S
C134 C133 1.392 . S
C134 C135 1.398 . S
C134 H157 0.929 . S
C135 C134 1.398 . S
C135 C136 1.352 . S
C136 C135 1.352 . S
C136 C137 1.384 . S
C136 H158 0.930 . S
C137 C132 1.407 . S
C137 C136 1.384 . S
C137 H159 0.929 . S
C138 O148 1.241 . S
C138 O149 1.273 . S
C139 O150 1.251 . S
C139 O151 1.268 . S
O140 Nd120 2.500 . S
O140 C122 1.258 . S
O141 Nd120 2.492 . S
O141 C122 1.239 . S
O142 Nd120 2.487 . S
O142 C129 1.241 . S
O143 Nd120 2.682 . S
O143 Nd121 2.414 . S
O143 C129 1.273 . S
O144 Nd120 2.410 . S
O144 C130 1.251 . S
O145 Nd121 2.424 . S
O145 C130 1.268 . S
O146 Nd121 2.500 . S
O146 C131 1.258 . S
O147 Nd121 2.492 . S
O147 C131 1.239 . S
O148 Nd121 2.487 . S
O148 C138 1.241 . S
O149 Nd120 2.414 . S
O149 Nd121 2.682 . S
O149 C138 1.273 . S
O150 Nd121 2.410 . S
O150 C139 1.251 . S
O151 Nd120 2.424 . S
O151 C139 1.268 . S
H152 C124 0.930 . S
H153 C125 0.929 . S
H154 C127 0.930 . S
H155 C128 0.929 . S
H156 C133 0.930 . S
H157 C134 0.929 . S
H158 C136 0.930 . S
H159 C137 0.929 . S
Nd160 C162 2.836 . S
Nd160 O180 2.500 . S
Nd160 O181 2.492 . S
Nd160 O182 2.487 . S
Nd160 O183 2.682 . S
Nd160 O184 2.410 . S
Nd160 O189 2.414 . S
Nd160 O191 2.424 . S
Nd161 C171 2.836 . S
Nd161 O183 2.414 . S
Nd161 O185 2.424 . S
Nd161 O186 2.500 . S
Nd161 O187 2.492 . S
Nd161 O188 2.487 . S
Nd161 O189 2.682 . S
Nd161 O190 2.410 . S
C162 Nd160 2.836 . S
C162 C163 1.498 . S
C162 O180 1.258 . S
C162 O181 1.239 . S
C163 C162 1.498 . S
C163 C164 1.366 . S
C163 C168 1.407 . S
C164 C163 1.366 . S
C164 C165 1.392 . S
C164 H192 0.930 . S
C165 C164 1.392 . S
C165 C166 1.398 . S
C165 H193 0.929 . S
C166 C165 1.398 . S
C166 C167 1.352 . S
C167 C166 1.352 . S
C167 C168 1.384 . S
C167 H194 0.930 . S
C168 C163 1.407 . S
C168 C167 1.384 . S
C168 H195 0.929 . S
C169 O182 1.241 . S
C169 O183 1.273 . S
C170 O184 1.251 . S
C170 O185 1.268 . S
C171 Nd161 2.836 . S
C171 C172 1.498 . S
C171 O186 1.258 . S
C171 O187 1.239 . S
C172 C171 1.498 . S
C172 C173 1.366 . S
C172 C177 1.407 . S
C173 C172 1.366 . S
C173 C174 1.392 . S
C173 H196 0.930 . S
C174 C173 1.392 . S
C174 C175 1.398 . S
C174 H197 0.929 . S
C175 C174 1.398 . S
C175 C176 1.352 . S
C176 C175 1.352 . S
C176 C177 1.384 . S
C176 H198 0.930 . S
C177 C172 1.407 . S
C177 C176 1.384 . S
C177 H199 0.929 . S
C178 O188 1.241 . S
C178 O189 1.273 . S
C179 O190 1.251 . S
C179 O191 1.268 . S
O180 Nd160 2.500 . S
O180 C162 1.258 . S
O181 Nd160 2.492 . S
O181 C162 1.239 . S
O182 Nd160 2.487 . S
O182 C169 1.241 . S
O183 Nd160 2.682 . S
O183 Nd161 2.414 . S
O183 C169 1.273 . S
O184 Nd160 2.410 . S
O184 C170 1.251 . S
O185 Nd161 2.424 . S
O185 C170 1.268 . S
O186 Nd161 2.500 . S
O186 C171 1.258 . S
O187 Nd161 2.492 . S
O187 C171 1.239 . S
O188 Nd161 2.487 . S
O188 C178 1.241 . S
O189 Nd160 2.414 . S
O189 Nd161 2.682 . S
O189 C178 1.273 . S
O190 Nd161 2.410 . S
O190 C179 1.251 . S
O191 Nd160 2.424 . S
O191 C179 1.268 . S
H192 C164 0.930 . S
H193 C165 0.929 . S
H194 C167 0.930 . S
H195 C168 0.929 . S
H196 C173 0.930 . S
H197 C174 0.929 . S
H198 C176 0.930 . S
H199 C177 0.929 . S
Nd200 C202 2.836 . S
Nd200 O220 2.500 . S
Nd200 O221 2.492 . S
Nd200 O222 2.487 . S
Nd200 O223 2.682 . S
Nd200 O224 2.410 . S
Nd200 O229 2.414 . S
Nd200 O231 2.424 . S
Nd201 C211 2.836 . S
Nd201 O223 2.414 . S
Nd201 O225 2.424 . S
Nd201 O226 2.500 . S
Nd201 O227 2.492 . S
Nd201 O228 2.487 . S
Nd201 O229 2.682 . S
Nd201 O230 2.410 . S
C202 Nd200 2.836 . S
C202 C203 1.498 . S
C202 O220 1.258 . S
C202 O221 1.239 . S
C203 C202 1.498 . S
C203 C204 1.366 . S
C203 C208 1.407 . S
C204 C203 1.366 . S
C204 C205 1.392 . S
C204 H232 0.930 . S
C205 C204 1.392 . S
C205 C206 1.398 . S
C205 H233 0.929 . S
C206 C205 1.398 . S
C206 C207 1.352 . S
C207 C206 1.352 . S
C207 C208 1.384 . S
C207 H234 0.930 . S
C208 C203 1.407 . S
C208 C207 1.384 . S
C208 H235 0.929 . S
C209 O222 1.241 . S
C209 O223 1.273 . S
C210 O224 1.251 . S
C210 O225 1.268 . S
C211 Nd201 2.836 . S
C211 C212 1.498 . S
C211 O226 1.258 . S
C211 O227 1.239 . S
C212 C211 1.498 . S
C212 C213 1.366 . S
C212 C217 1.407 . S
C213 C212 1.366 . S
C213 C214 1.392 1_556 S
C213 H236 0.930 . S
C214 C213 1.392 1_554 S
C214 C215 1.398 . S
C214 H237 0.929 . S
C215 C214 1.398 . S
C215 C216 1.352 1_554 S
C216 C215 1.352 1_556 S
C216 C217 1.384 . S
C216 H238 0.930 . S
C217 C212 1.407 . S
C217 C216 1.384 . S
C217 H239 0.929 . S
C218 O228 1.241 . S
C218 O229 1.273 . S
C219 O230 1.251 . S
C219 O231 1.268 . S
O220 Nd200 2.500 . S
O220 C202 1.258 . S
O221 Nd200 2.492 . S
O221 C202 1.239 . S
O222 Nd200 2.487 . S
O222 C209 1.241 . S
O223 Nd200 2.682 . S
O223 Nd201 2.414 . S
O223 C209 1.273 . S
O224 Nd200 2.410 . S
O224 C210 1.251 . S
O225 Nd201 2.424 . S
O225 C210 1.268 . S
O226 Nd201 2.500 . S
O226 C211 1.258 . S
O227 Nd201 2.492 . S
O227 C211 1.239 . S
O228 Nd201 2.487 . S
O228 C218 1.241 . S
O229 Nd200 2.414 . S
O229 Nd201 2.682 . S
O229 C218 1.273 . S
O230 Nd201 2.410 . S
O230 C219 1.251 . S
O231 Nd200 2.424 . S
O231 C219 1.268 . S
H232 C204 0.930 . S
H233 C205 0.929 . S
H234 C207 0.930 . S
H235 C208 0.929 . S
H236 C213 0.930 . S
H237 C214 0.929 . S
H238 C216 0.930 . S
H239 C217 0.929 . S
Nd240 C242 2.836 . S
Nd240 O260 2.500 . S
Nd240 O261 2.492 . S
Nd240 O262 2.487 . S
Nd240 O263 2.682 . S
Nd240 O264 2.410 . S
Nd240 O269 2.414 . S
Nd240 O271 2.424 . S
Nd241 C251 2.836 . S
Nd241 O263 2.414 . S
Nd241 O265 2.424 . S
Nd241 O266 2.500 . S
Nd241 O267 2.492 . S
Nd241 O268 2.487 . S
Nd241 O269 2.682 . S
Nd241 O270 2.410 . S
C242 Nd240 2.836 . S
C242 C243 1.498 1_554 S
C242 O260 1.258 . S
C242 O261 1.239 . S
C243 C242 1.498 1_556 S
C243 C244 1.366 . S
C243 C248 1.407 . S
C244 C243 1.366 . S
C244 C245 1.392 . S
C244 H272 0.930 . S
C245 C244 1.392 . S
C245 C246 1.398 . S
C245 H273 0.929 . S
C246 C245 1.398 . S
C246 C247 1.352 . S
C247 C246 1.352 . S
C247 C248 1.384 . S
C247 H274 0.930 . S
C248 C243 1.407 . S
C248 C247 1.384 . S
C248 H275 0.929 . S
C249 O262 1.241 . S
C249 O263 1.273 . S
C250 O264 1.251 . S
C250 O265 1.268 . S
C251 Nd241 2.836 . S
C251 C252 1.498 . S
C251 O266 1.258 . S
C251 O267 1.239 . S
C252 C251 1.498 . S
C252 C253 1.366 . S
C252 C257 1.407 . S
C253 C252 1.366 . S
C253 C254 1.392 . S
C253 H276 0.930 . S
C254 C253 1.392 . S
C254 C255 1.398 . S
C254 H277 0.929 . S
C255 C254 1.398 . S
C255 C256 1.352 . S
C256 C255 1.352 . S
C256 C257 1.384 . S
C256 H278 0.930 . S
C257 C252 1.407 . S
C257 C256 1.384 . S
C257 H279 0.929 . S
C258 O268 1.241 . S
C258 O269 1.273 . S
C259 O270 1.251 . S
C259 O271 1.268 . S
O260 Nd240 2.500 . S
O260 C242 1.258 . S
O261 Nd240 2.492 . S
O261 C242 1.239 . S
O262 Nd240 2.487 . S
O262 C249 1.241 . S
O263 Nd240 2.682 . S
O263 Nd241 2.414 . S
O263 C249 1.273 . S
O264 Nd240 2.410 . S
O264 C250 1.251 . S
O265 Nd241 2.424 . S
O265 C250 1.268 . S
O266 Nd241 2.500 . S
O266 C251 1.258 . S
O267 Nd241 2.492 . S
O267 C251 1.239 . S
O268 Nd241 2.487 . S
O268 C258 1.241 . S
O269 Nd240 2.414 . S
O269 Nd241 2.682 . S
O269 C258 1.273 . S
O270 Nd241 2.410 . S
O270 C259 1.251 . S
O271 Nd240 2.424 . S
O271 C259 1.268 . S
H272 C244 0.930 . S
H273 C245 0.929 . S
H274 C247 0.930 . S
H275 C248 0.929 . S
H276 C253 0.930 . S
H277 C254 0.929 . S
H278 C256 0.930 . S
H279 C257 0.929 . S
Nd280 C282 2.836 . S
Nd280 O300 2.500 . S
Nd280 O301 2.492 . S
Nd280 O302 2.487 . S
Nd280 O303 2.682 . S
Nd280 O304 2.410 . S
Nd280 O309 2.414 . S
Nd280 O311 2.424 . S
Nd281 C291 2.836 . S
Nd281 O303 2.414 . S
Nd281 O305 2.424 . S
Nd281 O306 2.500 . S
Nd281 O307 2.492 . S
Nd281 O308 2.487 . S
Nd281 O309 2.682 . S
Nd281 O310 2.410 . S
C282 Nd280 2.836 . S
C282 C283 1.498 . S
C282 O300 1.258 . S
C282 O301 1.239 . S
C283 C282 1.498 . S
C283 C284 1.366 . S
C283 C288 1.407 . S
C284 C283 1.366 . S
C284 C285 1.392 . S
C284 H312 0.930 . S
C285 C284 1.392 . S
C285 C286 1.398 . S
C285 H313 0.929 . S
C286 C285 1.398 . S
C286 C287 1.352 . S
C287 C286 1.352 . S
C287 C288 1.384 . S
C287 H314 0.930 . S
C288 C283 1.407 . S
C288 C287 1.384 . S
C288 H315 0.929 . S
C289 O302 1.241 . S
C289 O303 1.273 . S
C290 O304 1.251 . S
C290 O305 1.268 . S
C291 Nd281 2.836 . S
C291 C292 1.498 . S
C291 O306 1.258 . S
C291 O307 1.239 . S
C292 C291 1.498 . S
C292 C293 1.366 . S
C292 C297 1.407 . S
C293 C292 1.366 . S
C293 C294 1.392 . S
C293 H316 0.930 . S
C294 C293 1.392 . S
C294 C295 1.398 . S
C294 H317 0.929 . S
C295 C294 1.398 . S
C295 C296 1.352 . S
C296 C295 1.352 . S
C296 C297 1.384 . S
C296 H318 0.930 . S
C297 C292 1.407 . S
C297 C296 1.384 . S
C297 H319 0.929 . S
C298 O308 1.241 . S
C298 O309 1.273 . S
C299 O310 1.251 . S
C299 O311 1.268 . S
O300 Nd280 2.500 . S
O300 C282 1.258 . S
O301 Nd280 2.492 . S
O301 C282 1.239 . S
O302 Nd280 2.487 . S
O302 C289 1.241 . S
O303 Nd280 2.682 . S
O303 Nd281 2.414 . S
O303 C289 1.273 . S
O304 Nd280 2.410 . S
O304 C290 1.251 . S
O305 Nd281 2.424 . S
O305 C290 1.268 . S
O306 Nd281 2.500 . S
O306 C291 1.258 . S
O307 Nd281 2.492 . S
O307 C291 1.239 . S
O308 Nd281 2.487 . S
O308 C298 1.241 . S
O309 Nd280 2.414 . S
O309 Nd281 2.682 . S
O309 C298 1.273 . S
O310 Nd281 2.410 . S
O310 C299 1.251 . S
O311 Nd280 2.424 . S
O311 C299 1.268 . S
H312 C284 0.930 . S
H313 C285 0.929 . S
H314 C287 0.930 . S
H315 C288 0.929 . S
H316 C293 0.930 . S
H317 C294 0.929 . S
H318 C296 0.930 . S
H319 C297 0.929 . S
Nd320 C322 2.836 . S
Nd320 O340 2.500 . S
Nd320 O341 2.492 . S
Nd320 O342 2.487 . S
Nd320 O343 2.682 . S
Nd320 O344 2.410 . S
Nd320 O349 2.414 . S
Nd320 O351 2.424 . S
Nd321 C331 2.836 . S
Nd321 O343 2.414 . S
Nd321 O345 2.424 . S
Nd321 O346 2.500 . S
Nd321 O347 2.492 . S
Nd321 O348 2.487 . S
Nd321 O349 2.682 . S
Nd321 O350 2.410 . S
C322 Nd320 2.836 . S
C322 C323 1.498 . S
C322 O340 1.258 . S
C322 O341 1.239 . S
C323 C322 1.498 . S
C323 C324 1.366 . S
C323 C328 1.407 . S
C324 C323 1.366 . S
C324 C325 1.392 . S
C324 H352 0.930 . S
C325 C324 1.392 . S
C325 C326 1.398 . S
C325 H353 0.929 . S
C326 C325 1.398 . S
C326 C327 1.352 . S
C327 C326 1.352 . S
C327 C328 1.384 . S
C327 H354 0.930 1_655 S
C328 C323 1.407 . S
C328 C327 1.384 . S
C328 H355 0.929 . S
C329 O342 1.241 . S
C329 O343 1.273 . S
C330 O344 1.251 . S
C330 O345 1.268 . S
C331 Nd321 2.836 . S
C331 C332 1.498 . S
C331 O346 1.258 . S
C331 O347 1.239 . S
C332 C331 1.498 . S
C332 C333 1.366 . S
C332 C337 1.407 . S
C333 C332 1.366 . S
C333 C334 1.392 . S
C333 H356 0.930 . S
C334 C333 1.392 . S
C334 C335 1.398 . S
C334 H357 0.929 . S
C335 C334 1.398 . S
C335 C336 1.352 . S
C336 C335 1.352 . S
C336 C337 1.384 . S
C336 H358 0.930 . S
C337 C332 1.407 . S
C337 C336 1.384 . S
C337 H359 0.929 . S
C338 O348 1.241 . S
C338 O349 1.273 . S
C339 O350 1.251 . S
C339 O351 1.268 . S
O340 Nd320 2.500 . S
O340 C322 1.258 . S
O341 Nd320 2.492 . S
O341 C322 1.239 . S
O342 Nd320 2.487 . S
O342 C329 1.241 . S
O343 Nd320 2.682 . S
O343 Nd321 2.414 . S
O343 C329 1.273 . S
O344 Nd320 2.410 . S
O344 C330 1.251 . S
O345 Nd321 2.424 . S
O345 C330 1.268 . S
O346 Nd321 2.500 . S
O346 C331 1.258 . S
O347 Nd321 2.492 . S
O347 C331 1.239 . S
O348 Nd321 2.487 . S
O348 C338 1.241 . S
O349 Nd320 2.414 . S
O349 Nd321 2.682 . S
O349 C338 1.273 . S
O350 Nd321 2.410 . S
O350 C339 1.251 . S
O351 Nd320 2.424 . S
O351 C339 1.268 . S
H352 C324 0.930 . S
H353 C325 0.929 . S
H354 C327 0.930 1_455 S
H355 C328 0.929 . S
H356 C333 0.930 . S
H357 C334 0.929 . S
H358 C336 0.930 . S
H359 C337 0.929 . S
Nd360 C362 2.836 . S
Nd360 O380 2.500 . S
Nd360 O381 2.492 . S
Nd360 O382 2.487 . S
Nd360 O383 2.682 . S
Nd360 O384 2.410 . S
Nd360 O389 2.414 . S
Nd360 O391 2.424 . S
Nd361 C371 2.836 1_556 S
Nd361 O383 2.414 . S
Nd361 O385 2.424 . S
Nd361 O386 2.500 1_556 S
Nd361 O387 2.492 1_556 S
Nd361 O388 2.487 . S
Nd361 O389 2.682 . S
Nd361 O390 2.410 . S
C362 Nd360 2.836 . S
C362 C363 1.498 . S
C362 O380 1.258 . S
C362 O381 1.239 . S
C363 C362 1.498 . S
C363 C364 1.366 . S
C363 C368 1.407 . S
C364 C363 1.366 . S
C364 C365 1.392 . S
C364 H392 0.930 . S
C365 C364 1.392 . S
C365 C366 1.398 . S
C365 H393 0.929 . S
C366 C365 1.398 . S
C366 C367 1.352 . S
C367 C366 1.352 . S
C367 C368 1.384 . S
C367 H394 0.930 . S
C368 C363 1.407 . S
C368 C367 1.384 . S
C368 H395 0.929 . S
C369 O382 1.241 . S
C369 O383 1.273 . S
C370 O384 1.251 . S
C370 O385 1.268 . S
C371 Nd361 2.836 1_554 S
C371 C372 1.498 . S
C371 O386 1.258 . S
C371 O387 1.239 . S
C372 C371 1.498 . S
C372 C373 1.366 . S
C372 C377 1.407 . S
C373 C372 1.366 . S
C373 C374 1.392 . S
C373 H396 0.930 . S
C374 C373 1.392 . S
C374 C375 1.398 . S
C374 H397 0.929 . S
C375 C374 1.398 . S
C375 C376 1.352 . S
C376 C375 1.352 . S
C376 C377 1.384 . S
C376 H398 0.930 . S
C377 C372 1.407 . S
C377 C376 1.384 . S
C377 H399 0.929 . S
C378 O388 1.241 . S
C378 O389 1.273 . S
C379 O390 1.251 . S
C379 O391 1.268 . S
O380 Nd360 2.500 . S
O380 C362 1.258 . S
O381 Nd360 2.492 . S
O381 C362 1.239 . S
O382 Nd360 2.487 . S
O382 C369 1.241 . S
O383 Nd360 2.682 . S
O383 Nd361 2.414 . S
O383 C369 1.273 . S
O384 Nd360 2.410 . S
O384 C370 1.251 . S
O385 Nd361 2.424 . S
O385 C370 1.268 . S
O386 Nd361 2.500 1_554 S
O386 C371 1.258 . S
O387 Nd361 2.492 1_554 S
O387 C371 1.239 . S
O388 Nd361 2.487 . S
O388 C378 1.241 . S
O389 Nd360 2.414 . S
O389 Nd361 2.682 . S
O389 C378 1.273 . S
O390 Nd361 2.410 . S
O390 C379 1.251 . S
O391 Nd360 2.424 . S
O391 C379 1.268 . S
H392 C364 0.930 . S
H393 C365 0.929 . S
H394 C367 0.930 . S
H395 C368 0.929 . S
H396 C373 0.930 . S
H397 C374 0.929 . S
H398 C376 0.930 . S
H399 C377 0.929 . S
Nd400 C402 2.836 . S
Nd400 O420 2.500 . S
Nd400 O421 2.492 . S
Nd400 O422 2.487 . S
Nd400 O423 2.682 . S
Nd400 O424 2.410 . S
Nd400 O429 2.414 . S
Nd400 O431 2.424 . S
Nd401 C411 2.836 . S
Nd401 O423 2.414 . S
Nd401 O425 2.424 . S
Nd401 O426 2.500 . S
Nd401 O427 2.492 . S
Nd401 O428 2.487 . S
Nd401 O429 2.682 . S
Nd401 O430 2.410 . S
C402 Nd400 2.836 . S
C402 C403 1.498 . S
C402 O420 1.258 . S
C402 O421 1.239 . S
C403 C402 1.498 . S
C403 C404 1.366 . S
C403 C408 1.407 . S
C404 C403 1.366 . S
C404 C405 1.392 . S
C404 H432 0.930 . S
C405 C404 1.392 . S
C405 C406 1.398 . S
C405 H433 0.929 . S
C406 C405 1.398 . S
C406 C407 1.352 . S
C407 C406 1.352 . S
C407 C408 1.384 . S
C407 H434 0.930 . S
C408 C403 1.407 . S
C408 C407 1.384 . S
C408 H435 0.929 . S
C409 O422 1.241 . S
C409 O423 1.273 . S
C410 O424 1.251 . S
C410 O425 1.268 . S
C411 Nd401 2.836 . S
C411 C412 1.498 . S
C411 O426 1.258 . S
C411 O427 1.239 . S
C412 C411 1.498 . S
C412 C413 1.366 . S
C412 C417 1.407 . S
C413 C412 1.366 . S
C413 C414 1.392 . S
C413 H436 0.930 . S
C414 C413 1.392 . S
C414 C415 1.398 . S
C414 H437 0.929 . S
C415 C414 1.398 . S
C415 C416 1.352 . S
C416 C415 1.352 . S
C416 C417 1.384 . S
C416 H438 0.930 . S
C417 C412 1.407 . S
C417 C416 1.384 . S
C417 H439 0.929 . S
C418 O428 1.241 . S
C418 O429 1.273 . S
C419 O430 1.251 . S
C419 O431 1.268 . S
O420 Nd400 2.500 . S
O420 C402 1.258 . S
O421 Nd400 2.492 . S
O421 C402 1.239 . S
O422 Nd400 2.487 . S
O422 C409 1.241 . S
O423 Nd400 2.682 . S
O423 Nd401 2.414 . S
O423 C409 1.273 . S
O424 Nd400 2.410 . S
O424 C410 1.251 . S
O425 Nd401 2.424 . S
O425 C410 1.268 . S
O426 Nd401 2.500 . S
O426 C411 1.258 . S
O427 Nd401 2.492 . S
O427 C411 1.239 . S
O428 Nd401 2.487 . S
O428 C418 1.241 . S
O429 Nd400 2.414 . S
O429 Nd401 2.682 . S
O429 C418 1.273 . S
O430 Nd401 2.410 . S
O430 C419 1.251 . S
O431 Nd400 2.424 . S
O431 C419 1.268 . S
H432 C404 0.930 . S
H433 C405 0.929 . S
H434 C407 0.930 . S
H435 C408 0.929 . S
H436 C413 0.930 . S
H437 C414 0.929 . S
H438 C416 0.930 . S
H439 C417 0.929 . S
Nd440 C442 2.836 . S
Nd440 O460 2.500 . S
Nd440 O461 2.492 . S
Nd440 O462 2.487 . S
Nd440 O463 2.682 . S
Nd440 O464 2.410 . S
Nd440 O469 2.414 . S
Nd440 O471 2.424 . S
Nd441 C451 2.836 . S
Nd441 O463 2.414 . S
Nd441 O465 2.424 . S
Nd441 O466 2.500 . S
Nd441 O467 2.492 . S
Nd441 O468 2.487 . S
Nd441 O469 2.682 . S
Nd441 O470 2.410 . S
C442 Nd440 2.836 . S
C442 C443 1.498 . S
C442 O460 1.258 . S
C442 O461 1.239 . S
C443 C442 1.498 . S
C443 C444 1.366 . S
C443 C448 1.407 . S
C444 C443 1.366 . S
C444 C445 1.392 . S
C444 H472 0.930 . S
C445 C444 1.392 . S
C445 C446 1.398 . S
C445 H473 0.929 . S
C446 C445 1.398 . S
C446 C447 1.352 . S
C447 C446 1.352 . S
C447 C448 1.384 . S
C447 H474 0.930 . S
C448 C443 1.407 . S
C448 C447 1.384 . S
C448 H475 0.929 . S
C449 O462 1.241 . S
C449 O463 1.273 . S
C450 O464 1.251 . S
C450 O465 1.268 . S
C451 Nd441 2.836 . S
C451 C452 1.498 . S
C451 O466 1.258 . S
C451 O467 1.239 . S
C452 C451 1.498 . S
C452 C453 1.366 . S
C452 C457 1.407 . S
C453 C452 1.366 . S
C453 C454 1.392 . S
C453 H476 0.930 . S
C454 C453 1.392 . S
C454 C455 1.398 . S
C454 H477 0.929 . S
C455 C454 1.398 . S
C455 C456 1.352 . S
C456 C455 1.352 . S
C456 C457 1.384 . S
C456 H478 0.930 . S
C457 C452 1.407 . S
C457 C456 1.384 . S
C457 H479 0.929 . S
C458 O468 1.241 . S
C458 O469 1.273 . S
C459 O470 1.251 . S
C459 O471 1.268 . S
O460 Nd440 2.500 . S
O460 C442 1.258 . S
O461 Nd440 2.492 . S
O461 C442 1.239 . S
O462 Nd440 2.487 . S
O462 C449 1.241 . S
O463 Nd440 2.682 . S
O463 Nd441 2.414 . S
O463 C449 1.273 . S
O464 Nd440 2.410 . S
O464 C450 1.251 . S
O465 Nd441 2.424 . S
O465 C450 1.268 . S
O466 Nd441 2.500 . S
O466 C451 1.258 . S
O467 Nd441 2.492 . S
O467 C451 1.239 . S
O468 Nd441 2.487 . S
O468 C458 1.241 . S
O469 Nd440 2.414 . S
O469 Nd441 2.682 . S
O469 C458 1.273 . S
O470 Nd441 2.410 . S
O470 C459 1.251 . S
O471 Nd440 2.424 . S
O471 C459 1.268 . S
H472 C444 0.930 . S
H473 C445 0.929 . S
H474 C447 0.930 . S
H475 C448 0.929 . S
H476 C453 0.930 . S
H477 C454 0.929 . S
H478 C456 0.930 . S
H479 C457 0.929 . S
Nd480 C482 2.836 . S
Nd480 O500 2.500 . S
Nd480 O501 2.492 . S
Nd480 O502 2.487 . S
Nd480 O503 2.682 . S
Nd480 O504 2.410 . S
Nd480 O509 2.414 . S
Nd480 O511 2.424 . S
Nd481 C491 2.836 . S
Nd481 O503 2.414 . S
Nd481 O505 2.424 . S
Nd481 O506 2.500 . S
Nd481 O507 2.492 . S
Nd481 O508 2.487 . S
Nd481 O509 2.682 . S
Nd481 O510 2.410 . S
C482 Nd480 2.836 . S
C482 C483 1.498 . S
C482 O500 1.258 . S
C482 O501 1.239 . S
C483 C482 1.498 . S
C483 C484 1.366 . S
C483 C488 1.407 . S
C484 C483 1.366 . S
C484 C485 1.392 . S
C484 H512 0.930 . S
C485 C484 1.392 . S
C485 C486 1.398 . S
C485 H513 0.929 . S
C486 C485 1.398 . S
C486 C487 1.352 . S
C487 C486 1.352 . S
C487 C488 1.384 . S
C487 H514 0.930 . S
C488 C483 1.407 . S
C488 C487 1.384 . S
C488 H515 0.929 . S
C489 O502 1.241 . S
C489 O503 1.273 . S
C490 O504 1.251 . S
C490 O505 1.268 . S
C491 Nd481 2.836 . S
C491 C492 1.498 . S
C491 O506 1.258 . S
C491 O507 1.239 . S
C492 C491 1.498 . S
C492 C493 1.366 . S
C492 C497 1.407 . S
C493 C492 1.366 . S
C493 C494 1.392 . S
C493 H516 0.930 . S
C494 C493 1.392 . S
C494 C495 1.398 . S
C494 H517 0.929 . S
C495 C494 1.398 . S
C495 C496 1.352 . S
C496 C495 1.352 . S
C496 C497 1.384 . S
C496 H518 0.930 . S
C497 C492 1.407 . S
C497 C496 1.384 . S
C497 H519 0.929 . S
C498 O508 1.241 . S
C498 O509 1.273 . S
C499 O510 1.251 . S
C499 O511 1.268 . S
O500 Nd480 2.500 . S
O500 C482 1.258 . S
O501 Nd480 2.492 . S
O501 C482 1.239 . S
O502 Nd480 2.487 . S
O502 C489 1.241 . S
O503 Nd480 2.682 . S
O503 Nd481 2.414 . S
O503 C489 1.273 . S
O504 Nd480 2.410 . S
O504 C490 1.251 . S
O505 Nd481 2.424 . S
O505 C490 1.268 . S
O506 Nd481 2.500 . S
O506 C491 1.258 . S
O507 Nd481 2.492 . S
O507 C491 1.239 . S
O508 Nd481 2.487 . S
O508 C498 1.241 . S
O509 Nd480 2.414 . S
O509 Nd481 2.682 . S
O509 C498 1.273 . S
O510 Nd481 2.410 . S
O510 C499 1.251 . S
O511 Nd480 2.424 . S
O511 C499 1.268 . S
H512 C484 0.930 . S
H513 C485 0.929 . S
H514 C487 0.930 . S
H515 C488 0.929 . S
H516 C493 0.930 . S
H517 C494 0.929 . S
H518 C496 0.930 . S
H519 C497 0.929 . S
Nd520 C522 2.836 . S
Nd520 O540 2.500 . S
Nd520 O541 2.492 . S
Nd520 O542 2.487 . S
Nd520 O543 2.682 . S
Nd520 O544 2.410 . S
Nd520 O549 2.414 . S
Nd520 O551 2.424 . S
Nd521 C531 2.836 . S
Nd521 O543 2.414 . S
Nd521 O545 2.424 . S
Nd521 O546 2.500 . S
Nd521 O547 2.492 . S
Nd521 O548 2.487 . S
Nd521 O549 2.682 . S
Nd521 O550 2.410 . S
C522 Nd520 2.836 . S
C522 C523 1.498 . S
C522 O540 1.258 . S
C522 O541 1.239 . S
C523 C522 1.498 . S
C523 C524 1.366 . S
C523 C528 1.407 . S
C524 C523 1.366 . S
C524 C525 1.392 . S
C524 H552 0.930 . S
C525 C524 1.392 . S
C525 C526 1.398 . S
C525 H553 0.929 . S
C526 C525 1.398 . S
C526 C527 1.352 . S
C527 C526 1.352 . S
C527 C528 1.384 . S
C527 H554 0.930 . S
C528 C523 1.407 . S
C528 C527 1.384 . S
C528 H555 0.929 . S
C529 O542 1.241 . S
C529 O543 1.273 . S
C530 O544 1.251 . S
C530 O545 1.268 . S
C531 Nd521 2.836 . S
C531 C532 1.498 . S
C531 O546 1.258 . S
C531 O547 1.239 . S
C532 C531 1.498 . S
C532 C533 1.366 . S
C532 C537 1.407 . S
C533 C532 1.366 . S
C533 C534 1.392 . S
C533 H556 0.930 . S
C534 C533 1.392 . S
C534 C535 1.398 . S
C534 H557 0.929 . S
C535 C534 1.398 . S
C535 C536 1.352 . S
C536 C535 1.352 . S
C536 C537 1.384 . S
C536 H558 0.930 . S
C537 C532 1.407 . S
C537 C536 1.384 . S
C537 H559 0.929 . S
C538 O548 1.241 . S
C538 O549 1.273 . S
C539 O550 1.251 . S
C539 O551 1.268 . S
O540 Nd520 2.500 . S
O540 C522 1.258 . S
O541 Nd520 2.492 . S
O541 C522 1.239 . S
O542 Nd520 2.487 . S
O542 C529 1.241 . S
O543 Nd520 2.682 . S
O543 Nd521 2.414 . S
O543 C529 1.273 . S
O544 Nd520 2.410 . S
O544 C530 1.251 . S
O545 Nd521 2.424 . S
O545 C530 1.268 . S
O546 Nd521 2.500 . S
O546 C531 1.258 . S
O547 Nd521 2.492 . S
O547 C531 1.239 . S
O548 Nd521 2.487 . S
O548 C538 1.241 . S
O549 Nd520 2.414 . S
O549 Nd521 2.682 . S
O549 C538 1.273 . S
O550 Nd521 2.410 . S
O550 C539 1.251 . S
O551 Nd520 2.424 . S
O551 C539 1.268 . S
H552 C524 0.930 . S
H553 C525 0.929 . S
H554 C527 0.930 . S
H555 C528 0.929 . S
H556 C533 0.930 . S
H557 C534 0.929 . S
H558 C536 0.930 . S
H559 C537 0.929 . S
Nd560 C562 2.836 . S
Nd560 O580 2.500 . S
Nd560 O581 2.492 . S
Nd560 O582 2.487 . S
Nd560 O583 2.682 . S
Nd560 O584 2.410 . S
Nd560 O589 2.414 . S
Nd560 O591 2.424 . S
Nd561 C571 2.836 . S
Nd561 O583 2.414 . S
Nd561 O585 2.424 . S
Nd561 O586 2.500 . S
Nd561 O587 2.492 . S
Nd561 O588 2.487 . S
Nd561 O589 2.682 . S
Nd561 O590 2.410 . S
C562 Nd560 2.836 . S
C562 C563 1.498 . S
C562 O580 1.258 . S
C562 O581 1.239 . S
C563 C562 1.498 . S
C563 C564 1.366 . S
C563 C568 1.407 . S
C564 C563 1.366 . S
C564 C565 1.392 . S
C564 H592 0.930 . S
C565 C564 1.392 . S
C565 C566 1.398 . S
C565 H593 0.929 . S
C566 C565 1.398 . S
C566 C567 1.352 . S
C567 C566 1.352 . S
C567 C568 1.384 . S
C567 H594 0.930 . S
C568 C563 1.407 . S
C568 C567 1.384 . S
C568 H595 0.929 . S
C569 O582 1.241 . S
C569 O583 1.273 . S
C570 O584 1.251 . S
C570 O585 1.268 . S
C571 Nd561 2.836 . S
C571 C572 1.498 . S
C571 O586 1.258 . S
C571 O587 1.239 . S
C572 C571 1.498 . S
C572 C573 1.366 . S
C572 C577 1.407 . S
C573 C572 1.366 . S
C573 C574 1.392 . S
C573 H596 0.930 . S
C574 C573 1.392 . S
C574 C575 1.398 . S
C574 H597 0.929 . S
C575 C574 1.398 . S
C575 C576 1.352 . S
C576 C575 1.352 . S
C576 C577 1.384 . S
C576 H598 0.930 . S
C577 C572 1.407 . S
C577 C576 1.384 . S
C577 H599 0.929 . S
C578 O588 1.241 . S
C578 O589 1.273 . S
C579 O590 1.251 . S
C579 O591 1.268 . S
O580 Nd560 2.500 . S
O580 C562 1.258 . S
O581 Nd560 2.492 . S
O581 C562 1.239 . S
O582 Nd560 2.487 . S
O582 C569 1.241 . S
O583 Nd560 2.682 . S
O583 Nd561 2.414 . S
O583 C569 1.273 . S
O584 Nd560 2.410 . S
O584 C570 1.251 . S
O585 Nd561 2.424 . S
O585 C570 1.268 . S
O586 Nd561 2.500 . S
O586 C571 1.258 . S
O587 Nd561 2.492 . S
O587 C571 1.239 . S
O588 Nd561 2.487 . S
O588 C578 1.241 . S
O589 Nd560 2.414 . S
O589 Nd561 2.682 . S
O589 C578 1.273 . S
O590 Nd561 2.410 . S
O590 C579 1.251 . S
O591 Nd560 2.424 . S
O591 C579 1.268 . S
H592 C564 0.930 . S
H593 C565 0.929 . S
H594 C567 0.930 . S
H595 C568 0.929 . S
H596 C573 0.930 . S
H597 C574 0.929 . S
H598 C576 0.930 . S
H599 C577 0.929 . S
Nd600 C602 2.836 . S
Nd600 O620 2.500 . S
Nd600 O621 2.492 . S
Nd600 O622 2.487 . S
Nd600 O623 2.682 1_556 S
Nd600 O624 2.410 . S
Nd600 O629 2.414 . S
Nd600 O631 2.424 1_556 S
Nd601 C611 2.836 . S
Nd601 O623 2.414 . S
Nd601 O625 2.424 1_554 S
Nd601 O626 2.500 . S
Nd601 O627 2.492 . S
Nd601 O628 2.480 1_554 S
Nd601 O629 2.682 1_554 S
Nd601 O630 2.410 . S
C602 Nd600 2.836 . S
C602 C603 1.498 . S
C602 O620 1.258 . S
C602 O621 1.239 . S
C603 C602 1.498 . S
C603 C604 1.366 . S
C603 C608 1.407 . S
C604 C603 1.366 . S
C604 C605 1.392 . S
C604 H632 0.930 . S
C605 C604 1.392 . S
C605 C606 1.398 . S
C605 H633 0.929 . S
C606 C605 1.398 . S
C606 C607 1.352 . S
C607 C606 1.352 . S
C607 C608 1.384 . S
C607 H634 0.930 . S
C608 C603 1.407 . S
C608 C607 1.384 . S
C608 H635 0.929 . S
C609 O622 1.241 1_554 S
C609 O623 1.273 . S
C610 O624 1.251 . S
C610 O625 1.268 . S
C611 Nd601 2.836 . S
C611 C612 1.498 . S
C611 O626 1.258 . S
C611 O627 1.239 . S
C612 C611 1.498 . S
C612 C613 1.366 . S
C612 C617 1.407 . S
C613 C612 1.366 . S
C613 C614 1.392 . S
C613 H636 0.930 . S
C614 C613 1.392 . S
C614 C615 1.398 . S
C614 H637 0.929 . S
C615 C614 1.398 . S
C615 C616 1.352 . S
C616 C615 1.352 . S
C616 C617 1.384 . S
C616 H638 0.930 . S
C617 C612 1.407 . S
C617 C616 1.384 . S
C617 H639 0.929 . S
C618 O628 1.260 . S
C618 O629 1.273 . S
C619 O630 1.251 . S
C619 O631 1.268 . S
O620 Nd600 2.500 . S
O620 C602 1.258 . S
O621 Nd600 2.492 . S
O621 C602 1.239 . S
O622 Nd600 2.487 . S
O622 C609 1.241 1_556 S
O623 Nd600 2.682 1_554 S
O623 Nd601 2.414 . S
O623 C609 1.273 . S
O624 Nd600 2.410 . S
O624 C610 1.251 . S
O625 Nd601 2.424 1_556 S
O625 C610 1.268 . S
O626 Nd601 2.500 . S
O626 C611 1.258 . S
O627 Nd601 2.492 . S
O627 C611 1.239 . S
O628 Nd601 2.480 1_556 S
O628 C618 1.260 . S
O629 Nd600 2.414 . S
O629 Nd601 2.682 1_556 S
O629 C618 1.273 . S
O630 Nd601 2.410 . S
O630 C619 1.251 . S
O631 Nd600 2.424 1_554 S
O631 C619 1.268 . S
H632 C604 0.930 . S
H633 C605 0.929 . S
H634 C607 0.930 . S
H635 C608 0.929 . S
H636 C613 0.930 . S
H637 C614 0.929 . S
H638 C616 0.930 . S
H639 C617 0.929 . S
Nd640 C642 2.836 . S
Nd640 O660 2.500 . S
Nd640 O661 2.492 . S
Nd640 O662 2.487 . S
Nd640 O663 2.682 . S
Nd640 O664 2.410 . S
Nd640 O669 2.414 . S
Nd640 O671 2.424 . S
Nd641 C651 2.836 . S
Nd641 O663 2.414 . S
Nd641 O665 2.424 . S
Nd641 O666 2.500 . S
Nd641 O667 2.492 . S
Nd641 O668 2.487 . S
Nd641 O669 2.682 . S
Nd641 O670 2.410 . S
C642 Nd640 2.836 . S
C642 C643 1.498 . S
C642 O660 1.258 . S
C642 O661 1.239 . S
C643 C642 1.498 . S
C643 C644 1.366 . S
C643 C648 1.407 . S
C644 C643 1.366 . S
C644 C645 1.392 . S
C644 H672 0.930 . S
C645 C644 1.392 . S
C645 C646 1.398 . S
C645 H673 0.929 . S
C646 C645 1.398 . S
C646 C647 1.352 . S
C647 C646 1.352 . S
C647 C648 1.384 . S
C647 H674 0.930 . S
C648 C643 1.407 . S
C648 C647 1.384 . S
C648 H675 0.929 . S
C649 O662 1.241 . S
C649 O663 1.273 . S
C650 O664 1.251 . S
C650 O665 1.268 . S
C651 Nd641 2.836 . S
C651 C652 1.498 . S
C651 O666 1.258 . S
C651 O667 1.239 . S
C652 C651 1.498 . S
C652 C653 1.366 . S
C652 C657 1.407 . S
C653 C652 1.366 . S
C653 C654 1.392 . S
C653 H676 0.930 . S
C654 C653 1.392 . S
C654 C655 1.398 . S
C654 H677 0.929 . S
C655 C654 1.398 . S
C655 C656 1.352 . S
C656 C655 1.352 . S
C656 C657 1.384 . S
C656 H678 0.930 . S
C657 C652 1.407 . S
C657 C656 1.384 . S
C657 H679 0.929 . S
C658 O668 1.241 . S
C658 O669 1.273 . S
C659 O670 1.251 . S
C659 O671 1.268 . S
O660 Nd640 2.500 . S
O660 C642 1.258 . S
O661 Nd640 2.492 . S
O661 C642 1.239 . S
O662 Nd640 2.487 . S
O662 C649 1.241 . S
O663 Nd640 2.682 . S
O663 Nd641 2.414 . S
O663 C649 1.273 . S
O664 Nd640 2.410 . S
O664 C650 1.251 . S
O665 Nd641 2.424 . S
O665 C650 1.268 . S
O666 Nd641 2.500 . S
O666 C651 1.258 . S
O667 Nd641 2.492 . S
O667 C651 1.239 . S
O668 Nd641 2.487 . S
O668 C658 1.241 . S
O669 Nd640 2.414 . S
O669 Nd641 2.682 . S
O669 C658 1.273 . S
O670 Nd641 2.410 . S
O670 C659 1.251 . S
O671 Nd640 2.424 . S
O671 C659 1.268 . S
H672 C644 0.930 . S
H673 C645 0.929 . S
H674 C647 0.930 . S
H675 C648 0.929 . S
H676 C653 0.930 . S
H677 C654 0.929 . S
H678 C656 0.930 . S
H679 C657 0.929 . S
Nd680 C682 2.836 . S
Nd680 O700 2.500 . S
Nd680 O701 2.492 . S
Nd680 O702 2.487 . S
Nd680 O703 2.682 . S
Nd680 O704 2.410 . S
Nd680 O709 2.414 . S
Nd680 O711 2.424 . S
Nd681 C691 2.836 . S
Nd681 O703 2.414 . S
Nd681 O705 2.424 . S
Nd681 O706 2.500 . S
Nd681 O707 2.492 . S
Nd681 O708 2.487 . S
Nd681 O709 2.682 . S
Nd681 O710 2.410 . S
C682 Nd680 2.836 . S
C682 C683 1.498 . S
C682 O700 1.258 . S
C682 O701 1.239 . S
C683 C682 1.498 . S
C683 C684 1.366 . S
C683 C688 1.407 . S
C684 C683 1.366 . S
C684 C685 1.392 . S
C684 H712 0.930 . S
C685 C684 1.392 . S
C685 C686 1.398 . S
C685 H713 0.929 . S
C686 C685 1.398 . S
C686 C687 1.352 . S
C687 C686 1.352 . S
C687 C688 1.384 . S
C687 H714 0.930 . S
C688 C683 1.407 . S
C688 C687 1.384 . S
C688 H715 0.929 . S
C689 O702 1.241 . S
C689 O703 1.273 . S
C690 O704 1.251 . S
C690 O705 1.268 . S
C691 Nd681 2.836 . S
C691 C692 1.498 1_556 S
C691 O706 1.258 . S
C691 O707 1.239 . S
C692 C691 1.498 1_554 S
C692 C693 1.366 . S
C692 C697 1.407 . S
C693 C692 1.366 . S
C693 C694 1.392 . S
C693 H716 0.930 . S
C694 C693 1.392 . S
C694 C695 1.398 . S
C694 H717 0.929 . S
C695 C694 1.398 . S
C695 C696 1.352 . S
C696 C695 1.352 . S
C696 C697 1.384 . S
C696 H718 0.930 . S
C697 C692 1.407 . S
C697 C696 1.384 . S
C697 H719 0.929 . S
C698 O708 1.241 . S
C698 O709 1.273 . S
C699 O710 1.251 . S
C699 O711 1.268 . S
O700 Nd680 2.500 . S
O700 C682 1.258 . S
O701 Nd680 2.492 . S
O701 C682 1.239 . S
O702 Nd680 2.487 . S
O702 C689 1.241 . S
O703 Nd680 2.682 . S
O703 Nd681 2.414 . S
O703 C689 1.273 . S
O704 Nd680 2.410 . S
O704 C690 1.251 . S
O705 Nd681 2.424 . S
O705 C690 1.268 . S
O706 Nd681 2.500 . S
O706 C691 1.258 . S
O707 Nd681 2.492 . S
O707 C691 1.239 . S
O708 Nd681 2.487 . S
O708 C698 1.241 . S
O709 Nd680 2.414 . S
O709 Nd681 2.682 . S
O709 C698 1.273 . S
O710 Nd681 2.410 . S
O710 C699 1.251 . S
O711 Nd680 2.424 . S
O711 C699 1.268 . S
H712 C684 0.930 . S
H713 C685 0.929 . S
H714 C687 0.930 . S
H715 C688 0.929 . S
H716 C693 0.930 . S
H717 C694 0.929 . S
H718 C696 0.930 . S
H719 C697 0.929 . S
Nd720 C722 2.836 . S
Nd720 O740 2.500 . S
Nd720 O741 2.492 . S
Nd720 O742 2.487 . S
Nd720 O743 2.682 . S
Nd720 O744 2.410 . S
Nd720 O749 2.414 . S
Nd720 O751 2.424 . S
Nd721 C731 2.836 . S
Nd721 O743 2.414 . S
Nd721 O745 2.424 . S
Nd721 O746 2.500 . S
Nd721 O747 2.492 . S
Nd721 O748 2.487 . S
Nd721 O749 2.682 . S
Nd721 O750 2.410 . S
C722 Nd720 2.836 . S
C722 C723 1.498 . S
C722 O740 1.258 . S
C722 O741 1.239 . S
C723 C722 1.498 . S
C723 C724 1.366 . S
C723 C728 1.407 . S
C724 C723 1.366 . S
C724 C725 1.392 1_554 S
C724 H752 0.930 . S
C725 C724 1.392 1_556 S
C725 C726 1.398 . S
C725 H753 0.929 . S
C726 C725 1.398 . S
C726 C727 1.352 . S
C727 C726 1.352 . S
C727 C728 1.384 1_556 S
C727 H754 0.930 . S
C728 C723 1.407 . S
C728 C727 1.384 1_554 S
C728 H755 0.929 . S
C729 O742 1.241 . S
C729 O743 1.273 . S
C730 O744 1.251 . S
C730 O745 1.268 . S
C731 Nd721 2.836 . S
C731 C732 1.498 . S
C731 O746 1.258 . S
C731 O747 1.239 . S
C732 C731 1.498 . S
C732 C733 1.366 . S
C732 C737 1.407 . S
C733 C732 1.366 . S
C733 C734 1.392 . S
C733 H756 0.930 . S
C734 C733 1.392 . S
C734 C735 1.398 . S
C734 H757 0.929 . S
C735 C734 1.398 . S
C735 C736 1.352 . S
C736 C735 1.352 . S
C736 C737 1.384 . S
C736 H758 0.930 1_655 S
C737 C732 1.407 . S
C737 C736 1.384 . S
C737 H759 0.929 . S
C738 O748 1.241 . S
C738 O749 1.273 . S
C739 O750 1.251 . S
C739 O751 1.268 . S
O740 Nd720 2.500 . S
O740 C722 1.258 . S
O741 Nd720 2.492 . S
O741 C722 1.239 . S
O742 Nd720 2.487 . S
O742 C729 1.241 . S
O743 Nd720 2.682 . S
O743 Nd721 2.414 . S
O743 C729 1.273 . S
O744 Nd720 2.410 . S
O744 C730 1.251 . S
O745 Nd721 2.424 . S
O745 C730 1.268 . S
O746 Nd721 2.500 . S
O746 C731 1.258 . S
O747 Nd721 2.492 . S
O747 C731 1.239 . S
O748 Nd721 2.487 . S
O748 C738 1.241 . S
O749 Nd720 2.414 . S
O749 Nd721 2.682 . S
O749 C738 1.273 . S
O750 Nd721 2.410 . S
O750 C739 1.251 . S
O751 Nd720 2.424 . S
O751 C739 1.268 . S
H752 C724 0.930 . S
H753 C725 0.929 . S
H754 C727 0.930 . S
H755 C728 0.929 . S
H756 C733 0.930 . S
H757 C734 0.929 . S
H758 C736 0.930 1_455 S
H759 C737 0.929 . S
Nd760 C762 2.836 . S
Nd760 O780 2.500 . S
Nd760 O781 2.492 . S
Nd760 O782 2.487 . S
Nd760 O783 2.682 . S
Nd760 O784 2.410 . S
Nd760 O789 2.414 . S
Nd760 O791 2.424 . S
Nd761 C771 2.836 . S
Nd761 O783 2.414 . S
Nd761 O785 2.424 . S
Nd761 O786 2.500 . S
Nd761 O787 2.492 . S
Nd761 O788 2.487 . S
Nd761 O789 2.682 . S
Nd761 O790 2.410 . S
C762 Nd760 2.836 . S
C762 C763 1.498 . S
C762 O780 1.258 . S
C762 O781 1.239 . S
C763 C762 1.498 . S
C763 C764 1.366 . S
C763 C768 1.407 . S
C764 C763 1.366 . S
C764 C765 1.392 . S
C764 H792 0.930 . S
C765 C764 1.392 . S
C765 C766 1.398 . S
C765 H793 0.929 . S
C766 C765 1.398 . S
C766 C767 1.352 . S
C767 C766 1.352 . S
C767 C768 1.384 . S
C767 H794 0.930 . S
C768 C763 1.407 . S
C768 C767 1.384 . S
C768 H795 0.929 . S
C769 O782 1.241 . S
C769 O783 1.273 . S
C770 O784 1.251 . S
C770 O785 1.268 . S
C771 Nd761 2.836 . S
C771 C772 1.498 . S
C771 O786 1.258 . S
C771 O787 1.239 . S
C772 C771 1.498 . S
C772 C773 1.366 . S
C772 C777 1.407 . S
C773 C772 1.366 . S
C773 C774 1.392 . S
C773 H796 0.930 . S
C774 C773 1.392 . S
C774 C775 1.398 . S
C774 H797 0.929 . S
C775 C774 1.398 . S
C775 C776 1.352 . S
C776 C775 1.352 . S
C776 C777 1.384 . S
C776 H798 0.930 . S
C777 C772 1.407 . S
C777 C776 1.384 . S
C777 H799 0.929 . S
C778 O788 1.241 . S
C778 O789 1.273 . S
C779 O790 1.251 . S
C779 O791 1.268 . S
O780 Nd760 2.500 . S
O780 C762 1.258 . S
O781 Nd760 2.492 . S
O781 C762 1.239 . S
O782 Nd760 2.487 . S
O782 C769 1.241 . S
O783 Nd760 2.682 . S
O783 Nd761 2.414 . S
O783 C769 1.273 . S
O784 Nd760 2.410 . S
O784 C770 1.251 . S
O785 Nd761 2.424 . S
O785 C770 1.268 . S
O786 Nd761 2.500 . S
O786 C771 1.258 . S
O787 Nd761 2.492 . S
O787 C771 1.239 . S
O788 Nd761 2.487 . S
O788 C778 1.241 . S
O789 Nd760 2.414 . S
O789 Nd761 2.682 . S
O789 C778 1.273 . S
O790 Nd761 2.410 . S
O790 C779 1.251 . S
O791 Nd760 2.424 . S
O791 C779 1.268 . S
H792 C764 0.930 . S
H793 C765 0.929 . S
H794 C767 0.930 . S
H795 C768 0.929 . S
H796 C773 0.930 . S
H797 C774 0.929 . S
H798 C776 0.930 . S
H799 C777 0.929 . S
Nd800 C802 2.836 . S
Nd800 O820 2.500 . S
Nd800 O821 2.492 . S
Nd800 O822 2.487 . S
Nd800 O823 2.682 . S
Nd800 O824 2.410 . S
Nd800 O829 2.414 . S
Nd800 O831 2.424 . S
Nd801 C811 2.836 . S
Nd801 O823 2.414 . S
Nd801 O825 2.424 . S
Nd801 O826 2.500 . S
Nd801 O827 2.492 . S
Nd801 O828 2.487 . S
Nd801 O829 2.682 . S
Nd801 O830 2.410 . S
C802 Nd800 2.836 . S
C802 C803 1.498 1_554 S
C802 O820 1.258 . S
C802 O821 1.239 . S
C803 C802 1.498 1_556 S
C803 C804 1.366 . S
C803 C808 1.407 1_545 S
C804 C803 1.366 . S
C804 C805 1.392 . S
C804 H832 0.930 . S
C805 C804 1.392 . S
C805 C806 1.419 . S
C805 H833 0.929 . S
C806 C805 1.419 . S
C806 C807 1.339 1_545 S
C807 C806 1.339 1_565 S
C807 C808 1.384 . S
C807 H834 0.930 . S
C808 C803 1.407 1_565 S
C808 C807 1.384 . S
C808 H835 0.929 . S
C809 O822 1.241 . S
C809 O823 1.273 . S
C810 O824 1.251 . S
C810 O825 1.268 . S
C811 Nd801 2.836 . S
C811 C812 1.498 . S
C811 O826 1.258 . S
C811 O827 1.239 . S
C812 C811 1.498 . S
C812 C813 1.366 . S
C812 C817 1.407 . S
C813 C812 1.366 . S
C813 C814 1.392 . S
C813 H836 0.930 . S
C814 C813 1.392 . S
C814 C815 1.398 . S
C814 H837 0.929 . S
C815 C814 1.398 . S
C815 C816 1.352 . S
C816 C815 1.352 . S
C816 C817 1.384 . S
C816 H838 0.930 . S
C817 C812 1.407 . S
C817 C816 1.384 . S
C817 H839 0.929 . S
C818 O828 1.241 . S
C818 O829 1.273 . S
C819 O830 1.251 . S
C819 O831 1.268 . S
O820 Nd800 2.500 . S
O820 C802 1.258 . S
O821 Nd800 2.492 . S
O821 C802 1.239 . S
O822 Nd800 2.487 . S
O822 C809 1.241 . S
O823 Nd800 2.682 . S
O823 Nd801 2.414 . S
O823 C809 1.273 . S
O824 Nd800 2.410 . S
O824 C810 1.251 . S
O825 Nd801 2.424 . S
O825 C810 1.268 . S
O826 Nd801 2.500 . S
O826 C811 1.258 . S
O827 Nd801 2.492 . S
O827 C811 1.239 . S
O828 Nd801 2.487 . S
O828 C818 1.241 . S
O829 Nd800 2.414 . S
O829 Nd801 2.682 . S
O829 C818 1.273 . S
O830 Nd801 2.410 . S
O830 C819 1.251 . S
O831 Nd800 2.424 . S
O831 C819 1.268 . S
H832 C804 0.930 . S
H833 C805 0.929 . S
H834 C807 0.930 . S
H835 C808 0.929 . S
H836 C813 0.930 . S
H837 C814 0.929 . S
H838 C816 0.930 . S
H839 C817 0.929 . S
Nd840 C842 2.836 . S
Nd840 O860 2.500 . S
Nd840 O861 2.492 . S
Nd840 O862 2.487 . S
Nd840 O863 2.682 . S
Nd840 O864 2.410 . S
Nd840 O869 2.414 . S
Nd840 O871 2.424 . S
Nd841 C851 2.836 . S
Nd841 O863 2.414 . S
Nd841 O865 2.424 . S
Nd841 O866 2.500 . S
Nd841 O867 2.492 . S
Nd841 O868 2.487 . S
Nd841 O869 2.682 . S
Nd841 O870 2.410 . S
C842 Nd840 2.836 . S
C842 C843 1.498 . S
C842 O860 1.258 . S
C842 O861 1.239 . S
C843 C842 1.498 . S
C843 C844 1.366 . S
C843 C848 1.407 . S
C844 C843 1.366 . S
C844 C845 1.392 . S
C844 H872 0.930 . S
C845 C844 1.392 . S
C845 C846 1.398 . S
C845 H873 0.929 . S
C846 C845 1.398 . S
C846 C847 1.352 . S
C847 C846 1.352 . S
C847 C848 1.384 . S
C847 H874 0.930 . S
C848 C843 1.407 . S
C848 C847 1.384 . S
C848 H875 0.929 . S
C849 O862 1.241 . S
C849 O863 1.273 . S
C850 O864 1.251 . S
C850 O865 1.268 . S
C851 Nd841 2.836 . S
C851 C852 1.498 . S
C851 O866 1.258 . S
C851 O867 1.239 . S
C852 C851 1.498 . S
C852 C853 1.366 . S
C852 C857 1.407 . S
C853 C852 1.366 . S
C853 C854 1.392 . S
C853 H876 0.930 . S
C854 C853 1.392 . S
C854 C855 1.398 . S
C854 H877 0.929 . S
C855 C854 1.398 . S
C855 C856 1.352 . S
C856 C855 1.352 . S
C856 C857 1.384 . S
C856 H878 0.930 . S
C857 C852 1.407 . S
C857 C856 1.384 . S
C857 H879 0.929 . S
C858 O868 1.241 . S
C858 O869 1.273 . S
C859 O870 1.251 . S
C859 O871 1.268 . S
O860 Nd840 2.500 . S
O860 C842 1.258 . S
O861 Nd840 2.492 . S
O861 C842 1.239 . S
O862 Nd840 2.487 . S
O862 C849 1.241 . S
O863 Nd840 2.682 . S
O863 Nd841 2.414 . S
O863 C849 1.273 . S
O864 Nd840 2.410 . S
O864 C850 1.251 . S
O865 Nd841 2.424 . S
O865 C850 1.268 . S
O866 Nd841 2.500 . S
O866 C851 1.258 . S
O867 Nd841 2.492 . S
O867 C851 1.239 . S
O868 Nd841 2.487 . S
O868 C858 1.241 . S
O869 Nd840 2.414 . S
O869 Nd841 2.682 . S
O869 C858 1.273 . S
O870 Nd841 2.410 . S
O870 C859 1.251 . S
O871 Nd840 2.424 . S
O871 C859 1.268 . S
H872 C844 0.930 . S
H873 C845 0.929 . S
H874 C847 0.930 . S
H875 C848 0.929 . S
H876 C853 0.930 . S
H877 C854 0.929 . S
H878 C856 0.930 . S
H879 C857 0.929 . S
Nd880 C882 2.836 . S
Nd880 O900 2.500 . S
Nd880 O901 2.492 . S
Nd880 O902 2.487 . S
Nd880 O903 2.682 . S
Nd880 O904 2.410 . S
Nd880 O909 2.414 . S
Nd880 O911 2.424 . S
Nd881 C891 2.836 . S
Nd881 O903 2.414 . S
Nd881 O905 2.424 . S
Nd881 O906 2.500 . S
Nd881 O907 2.492 . S
Nd881 O908 2.487 . S
Nd881 O909 2.682 . S
Nd881 O910 2.410 . S
C882 Nd880 2.836 . S
C882 C883 1.498 . S
C882 O900 1.258 . S
C882 O901 1.239 . S
C883 C882 1.498 . S
C883 C884 1.366 . S
C883 C888 1.407 1_565 S
C884 C883 1.366 . S
C884 C885 1.392 . S
C884 H912 0.930 . S
C885 C884 1.392 . S
C885 C886 1.420 . S
C885 H913 0.929 . S
C886 C885 1.420 . S
C886 C887 1.338 1_565 S
C887 C886 1.338 1_545 S
C887 C888 1.384 . S
C887 H914 0.930 . S
C888 C883 1.407 1_545 S
C888 C887 1.384 . S
C888 H915 0.929 . S
C889 O902 1.241 . S
C889 O903 1.273 . S
C890 O904 1.251 . S
C890 O905 1.268 . S
C891 Nd881 2.836 . S
C891 C892 1.498 . S
C891 O906 1.258 . S
C891 O907 1.239 . S
C892 C891 1.498 . S
C892 C893 1.366 . S
C892 C897 1.407 . S
C893 C892 1.366 . S
C893 C894 1.392 . S
C893 H916 0.930 . S
C894 C893 1.392 . S
C894 C895 1.398 . S
C894 H917 0.929 . S
C895 C894 1.398 . S
C895 C896 1.352 . S
C896 C895 1.352 . S
C896 C897 1.384 . S
C896 H918 0.930 . S
C897 C892 1.407 . S
C897 C896 1.384 . S
C897 H919 0.929 . S
C898 O908 1.241 . S
C898 O909 1.273 . S
C899 O910 1.251 . S
C899 O911 1.268 . S
O900 Nd880 2.500 . S
O900 C882 1.258 . S
O901 Nd880 2.492 . S
O901 C882 1.239 . S
O902 Nd880 2.487 . S
O902 C889 1.241 . S
O903 Nd880 2.682 . S
O903 Nd881 2.414 . S
O903 C889 1.273 . S
O904 Nd880 2.410 . S
O904 C890 1.251 . S
O905 Nd881 2.424 . S
O905 C890 1.268 . S
O906 Nd881 2.500 . S
O906 C891 1.258 . S
O907 Nd881 2.492 . S
O907 C891 1.239 . S
O908 Nd881 2.487 . S
O908 C898 1.241 . S
O909 Nd880 2.414 . S
O909 Nd881 2.682 . S
O909 C898 1.273 . S
O910 Nd881 2.410 . S
O910 C899 1.251 . S
O911 Nd880 2.424 . S
O911 C899 1.268 . S
H912 C884 0.930 . S
H913 C885 0.929 . S
H914 C887 0.930 . S
H915 C888 0.929 . S
H916 C893 0.930 . S
H917 C894 0.929 . S
H918 C896 0.930 . S
H919 C897 0.929 . S
Nd920 C922 2.836 . S
Nd920 O940 2.500 . S
Nd920 O941 2.492 . S
Nd920 O942 2.487 . S
Nd920 O943 2.682 . S
Nd920 O944 2.410 . S
Nd920 O949 2.414 . S
Nd920 O951 2.424 . S
Nd921 C931 2.836 . S
Nd921 O943 2.414 . S
Nd921 O945 2.424 . S
Nd921 O946 2.500 . S
Nd921 O947 2.492 . S
Nd921 O948 2.487 . S
Nd921 O949 2.682 . S
Nd921 O950 2.410 . S
C922 Nd920 2.836 . S
C922 C923 1.498 . S
C922 O940 1.258 . S
C922 O941 1.239 . S
C923 C922 1.498 . S
C923 C924 1.366 . S
C923 C928 1.407 . S
C924 C923 1.366 . S
C924 C925 1.392 . S
C924 H952 0.930 . S
C925 C924 1.392 . S
C925 C926 1.398 . S
C925 H953 0.929 . S
C926 C925 1.398 . S
C926 C927 1.352 . S
C927 C926 1.352 . S
C927 C928 1.384 . S
C927 H954 0.930 . S
C928 C923 1.407 . S
C928 C927 1.384 . S
C928 H955 0.929 . S
C929 O942 1.241 . S
C929 O943 1.273 . S
C930 O944 1.251 . S
C930 O945 1.268 . S
C931 Nd921 2.836 . S
C931 C932 1.498 . S
C931 O946 1.258 . S
C931 O947 1.239 . S
C932 C931 1.498 . S
C932 C933 1.366 . S
C932 C937 1.407 . S
C933 C932 1.366 . S
C933 C934 1.392 1_556 S
C933 H956 0.930 . S
C934 C933 1.392 1_554 S
C934 C935 1.398 . S
C934 H957 0.929 . S
C935 C934 1.398 . S
C935 C936 1.352 1_554 S
C936 C935 1.352 1_556 S
C936 C937 1.384 . S
C936 H958 0.930 . S
C937 C932 1.407 . S
C937 C936 1.384 . S
C937 H959 0.929 . S
C938 O948 1.241 . S
C938 O949 1.273 . S
C939 O950 1.251 . S
C939 O951 1.268 . S
O940 Nd920 2.500 . S
O940 C922 1.258 . S
O941 Nd920 2.492 . S
O941 C922 1.239 . S
O942 Nd920 2.487 . S
O942 C929 1.241 . S
O943 Nd920 2.682 . S
O943 Nd921 2.414 . S
O943 C929 1.273 . S
O944 Nd920 2.410 . S
O944 C930 1.251 . S
O945 Nd921 2.424 . S
O945 C930 1.268 . S
O946 Nd921 2.500 . S
O946 C931 1.258 . S
O947 Nd921 2.492 . S
O947 C931 1.239 . S
O948 Nd921 2.487 . S
O948 C938 1.241 . S
O949 Nd920 2.414 . S
O949 Nd921 2.682 . S
O949 C938 1.273 . S
O950 Nd921 2.410 . S
O950 C939 1.251 . S
O951 Nd920 2.424 . S
O951 C939 1.268 . S
H952 C924 0.930 . S
H953 C925 0.929 . S
H954 C927 0.930 . S
H955 C928 0.929 . S
H956 C933 0.930 . S
H957 C934 0.929 . S
H958 C936 0.930 . S
H959 C937 0.929 . S
Nd960 C962 2.836 . S
Nd960 O980 2.500 . S
Nd960 O981 2.492 . S
Nd960 O982 2.487 . S
Nd960 O983 2.682 . S
Nd960 O984 2.410 . S
Nd960 O989 2.414 . S
Nd960 O991 2.424 . S
Nd961 C971 2.836 . S
Nd961 O983 2.414 . S
Nd961 O985 2.424 . S
Nd961 O986 2.500 . S
Nd961 O987 2.492 . S
Nd961 O988 2.487 . S
Nd961 O989 2.682 . S
Nd961 O990 2.410 . S
C962 Nd960 2.836 . S
C962 C963 1.498 . S
C962 O980 1.258 . S
C962 O981 1.239 . S
C963 C962 1.498 . S
C963 C964 1.366 . S
C963 C968 1.407 . S
C964 C963 1.366 . S
C964 C965 1.392 . S
C964 H992 0.930 . S
C965 C964 1.392 . S
C965 C966 1.398 . S
C965 H993 0.929 . S
C966 C965 1.398 . S
C966 C967 1.352 . S
C967 C966 1.352 . S
C967 C968 1.384 . S
C967 H994 0.930 . S
C968 C963 1.407 . S
C968 C967 1.384 . S
C968 H995 0.929 . S
C969 O982 1.241 . S
C969 O983 1.273 . S
C970 O984 1.251 . S
C970 O985 1.268 . S
C971 Nd961 2.836 . S
C971 C972 1.498 . S
C971 O986 1.258 . S
C971 O987 1.239 . S
C972 C971 1.498 . S
C972 C973 1.366 . S
C972 C977 1.407 . S
C973 C972 1.366 . S
C973 C974 1.392 . S
C973 H996 0.930 . S
C974 C973 1.392 . S
C974 C975 1.398 . S
C974 H997 0.929 . S
C975 C974 1.398 . S
C975 C976 1.352 . S
C976 C975 1.352 . S
C976 C977 1.384 . S
C976 H998 0.930 . S
C977 C972 1.407 . S
C977 C976 1.384 . S
C977 H999 0.929 . S
C978 O988 1.241 . S
C978 O989 1.273 . S
C979 O990 1.251 . S
C979 O991 1.268 . S
O980 Nd960 2.500 . S
O980 C962 1.258 . S
O981 Nd960 2.492 . S
O981 C962 1.239 . S
O982 Nd960 2.487 . S
O982 C969 1.241 . S
O983 Nd960 2.682 . S
O983 Nd961 2.414 . S
O983 C969 1.273 . S
O984 Nd960 2.410 . S
O984 C970 1.251 . S
O985 Nd961 2.424 . S
O985 C970 1.268 . S
O986 Nd961 2.500 . S
O986 C971 1.258 . S
O987 Nd961 2.492 . S
O987 C971 1.239 . S
O988 Nd961 2.487 . S
O988 C978 1.241 . S
O989 Nd960 2.414 . S
O989 Nd961 2.682 . S
O989 C978 1.273 . S
O990 Nd961 2.410 . S
O990 C979 1.251 . S
O991 Nd960 2.424 . S
O991 C979 1.268 . S
H992 C964 0.930 . S
H993 C965 0.929 . S
H994 C967 0.930 . S
H995 C968 0.929 . S
H996 C973 0.930 . S
H997 C974 0.929 . S
H998 C976 0.930 . S
H999 C977 0.929 . S
Nd1000 C1002 2.836 . S
Nd1000 O1020 2.500 . S
Nd1000 O1021 2.492 . S
Nd1000 O1022 2.487 . S
Nd1000 O1023 2.682 . S
Nd1000 O1024 2.410 . S
Nd1000 O1029 2.414 . S
Nd1000 O1031 2.424 . S
Nd1001 C1011 2.836 . S
Nd1001 O1023 2.414 . S
Nd1001 O1025 2.424 . S
Nd1001 O1026 2.500 . S
Nd1001 O1027 2.492 . S
Nd1001 O1028 2.487 . S
Nd1001 O1029 2.682 . S
Nd1001 O1030 2.410 . S
C1002 Nd1000 2.836 . S
C1002 C1003 1.498 . S
C1002 O1020 1.258 . S
C1002 O1021 1.239 . S
C1003 C1002 1.498 . S
C1003 C1004 1.366 . S
C1003 C1008 1.407 . S
C1004 C1003 1.366 . S
C1004 C1005 1.392 . S
C1004 H1032 0.930 . S
C1005 C1004 1.392 . S
C1005 C1006 1.398 . S
C1005 H1033 0.929 . S
C1006 C1005 1.398 . S
C1006 C1007 1.352 . S
C1007 C1006 1.352 . S
C1007 C1008 1.384 . S
C1007 H1034 0.930 . S
C1008 C1003 1.407 . S
C1008 C1007 1.384 . S
C1008 H1035 0.929 . S
C1009 O1022 1.241 . S
C1009 O1023 1.273 . S
C1010 O1024 1.251 . S
C1010 O1025 1.268 . S
C1011 Nd1001 2.836 . S
C1011 C1012 1.498 . S
C1011 O1026 1.258 . S
C1011 O1027 1.239 . S
C1012 C1011 1.498 . S
C1012 C1013 1.366 . S
C1012 C1017 1.407 . S
C1013 C1012 1.366 . S
C1013 C1014 1.392 . S
C1013 H1036 0.930 . S
C1014 C1013 1.392 . S
C1014 C1015 1.398 . S
C1014 H1037 0.929 . S
C1015 C1014 1.398 . S
C1015 C1016 1.352 . S
C1016 C1015 1.352 . S
C1016 C1017 1.384 . S
C1016 H1038 0.930 . S
C1017 C1012 1.407 . S
C1017 C1016 1.384 . S
C1017 H1039 0.929 . S
C1018 O1028 1.241 . S
C1018 O1029 1.273 . S
C1019 O1030 1.251 . S
C1019 O1031 1.268 . S
O1020 Nd1000 2.500 . S
O1020 C1002 1.258 . S
O1021 Nd1000 2.492 . S
O1021 C1002 1.239 . S
O1022 Nd1000 2.487 . S
O1022 C1009 1.241 . S
O1023 Nd1000 2.682 . S
O1023 Nd1001 2.414 . S
O1023 C1009 1.273 . S
O1024 Nd1000 2.410 . S
O1024 C1010 1.251 . S
O1025 Nd1001 2.424 . S
O1025 C1010 1.268 . S
O1026 Nd1001 2.500 . S
O1026 C1011 1.258 . S
O1027 Nd1001 2.492 . S
O1027 C1011 1.239 . S
O1028 Nd1001 2.487 . S
O1028 C1018 1.241 . S
O1029 Nd1000 2.414 . S
O1029 Nd1001 2.682 . S
O1029 C1018 1.273 . S
O1030 Nd1001 2.410 . S
O1030 C1019 1.251 . S
O1031 Nd1000 2.424 . S
O1031 C1019 1.268 . S
H1032 C1004 0.930 . S
H1033 C1005 0.929 . S
H1034 C1007 0.930 . S
H1035 C1008 0.929 . S
H1036 C1013 0.930 . S
H1037 C1014 0.929 . S
H1038 C1016 0.930 . S
H1039 C1017 0.929 . S
Nd1040 C1042 2.836 . S
Nd1040 O1060 2.500 . S
Nd1040 O1061 2.492 . S
Nd1040 O1062 2.487 . S
Nd1040 O1063 2.682 . S
Nd1040 O1064 2.410 . S
Nd1040 O1069 2.414 . S
Nd1040 O1071 2.424 . S
Nd1041 C1051 2.836 . S
Nd1041 O1063 2.414 . S
Nd1041 O1065 2.424 . S
Nd1041 O1066 2.500 . S
Nd1041 O1067 2.492 . S
Nd1041 O1068 2.487 . S
Nd1041 O1069 2.682 . S
Nd1041 O1070 2.410 . S
C1042 Nd1040 2.836 . S
C1042 C1043 1.498 . S
C1042 O1060 1.258 . S
C1042 O1061 1.239 . S
C1043 C1042 1.498 . S
C1043 C1044 1.366 . S
C1043 C1048 1.407 . S
C1044 C1043 1.366 . S
C1044 C1045 1.392 . S
C1044 H1072 0.930 . S
C1045 C1044 1.392 . S
C1045 C1046 1.398 . S
C1045 H1073 0.929 . S
C1046 C1045 1.398 . S
C1046 C1047 1.352 . S
C1047 C1046 1.352 . S
C1047 C1048 1.384 . S
C1047 H1074 0.930 1_455 S
C1048 C1043 1.407 . S
C1048 C1047 1.384 . S
C1048 H1075 0.929 . S
C1049 O1062 1.241 . S
C1049 O1063 1.273 . S
C1050 O1064 1.251 . S
C1050 O1065 1.268 . S
C1051 Nd1041 2.836 . S
C1051 C1052 1.498 . S
C1051 O1066 1.258 . S
C1051 O1067 1.239 . S
C1052 C1051 1.498 . S
C1052 C1053 1.366 . S
C1052 C1057 1.407 . S
C1053 C1052 1.366 . S
C1053 C1054 1.392 . S
C1053 H1076 0.930 . S
C1054 C1053 1.392 . S
C1054 C1055 1.398 . S
C1054 H1077 0.929 . S
C1055 C1054 1.398 . S
C1055 C1056 1.352 . S
C1056 C1055 1.352 . S
C1056 C1057 1.384 . S
C1056 H1078 0.930 . S
C1057 C1052 1.407 . S
C1057 C1056 1.384 . S
C1057 H1079 0.929 . S
C1058 O1068 1.241 . S
C1058 O1069 1.273 . S
C1059 O1070 1.251 . S
C1059 O1071 1.268 . S
O1060 Nd1040 2.500 . S
O1060 C1042 1.258 . S
O1061 Nd1040 2.492 . S
O1061 C1042 1.239 . S
O1062 Nd1040 2.487 . S
O1062 C1049 1.241 . S
O1063 Nd1040 2.682 . S
O1063 Nd1041 2.414 . S
O1063 C1049 1.273 . S
O1064 Nd1040 2.410 . S
O1064 C1050 1.251 . S
O1065 Nd1041 2.424 . S
O1065 C1050 1.268 . S
O1066 Nd1041 2.500 . S
O1066 C1051 1.258 . S
O1067 Nd1041 2.492 . S
O1067 C1051 1.239 . S
O1068 Nd1041 2.487 . S
O1068 C1058 1.241 . S
O1069 Nd1040 2.414 . S
O1069 Nd1041 2.682 . S
O1069 C1058 1.273 . S
O1070 Nd1041 2.410 . S
O1070 C1059 1.251 . S
O1071 Nd1040 2.424 . S
O1071 C1059 1.268 . S
H1072 C1044 0.930 . S
H1073 C1045 0.929 . S
H1074 C1047 0.930 1_655 S
H1075 C1048 0.929 . S
H1076 C1053 0.930 . S
H1077 C1054 0.929 . S
H1078 C1056 0.930 . S
H1079 C1057 0.929 . S
Nd1080 C1082 2.836 . S
Nd1080 O1100 2.500 . S
Nd1080 O1101 2.492 . S
Nd1080 O1102 2.487 . S
Nd1080 O1103 2.682 . S
Nd1080 O1104 2.410 . S
Nd1080 O1109 2.414 . S
Nd1080 O1111 2.424 . S
Nd1081 C1091 2.836 1_556 S
Nd1081 O1103 2.414 . S
Nd1081 O1105 2.424 . S
Nd1081 O1106 2.500 1_556 S
Nd1081 O1107 2.492 1_556 S
Nd1081 O1108 2.487 . S
Nd1081 O1109 2.682 . S
Nd1081 O1110 2.410 . S
C1082 Nd1080 2.836 . S
C1082 C1083 1.498 . S
C1082 O1100 1.258 . S
C1082 O1101 1.239 . S
C1083 C1082 1.498 . S
C1083 C1084 1.366 . S
C1083 C1088 1.407 . S
C1084 C1083 1.366 . S
C1084 C1085 1.392 . S
C1084 H1112 0.930 . S
C1085 C1084 1.392 . S
C1085 C1086 1.398 . S
C1085 H1113 0.929 . S
C1086 C1085 1.398 . S
C1086 C1087 1.352 . S
C1087 C1086 1.352 . S
C1087 C1088 1.384 . S
C1087 H1114 0.930 . S
C1088 C1083 1.407 . S
C1088 C1087 1.384 . S
C1088 H1115 0.929 . S
C1089 O1102 1.241 . S
C1089 O1103 1.273 . S
C1090 O1104 1.251 . S
C1090 O1105 1.268 . S
C1091 Nd1081 2.836 1_554 S
C1091 C1092 1.498 . S
C1091 O1106 1.258 . S
C1091 O1107 1.239 . S
C1092 C1091 1.498 . S
C1092 C1093 1.366 . S
C1092 C1097 1.407 . S
C1093 C1092 1.366 . S
C1093 C1094 1.392 . S
C1093 H1116 0.930 . S
C1094 C1093 1.392 . S
C1094 C1095 1.398 . S
C1094 H1117 0.929 . S
C1095 C1094 1.398 . S
C1095 C1096 1.352 . S
C1096 C1095 1.352 . S
C1096 C1097 1.384 . S
C1096 H1118 0.930 . S
C1097 C1092 1.407 . S
C1097 C1096 1.384 . S
C1097 H1119 0.929 . S
C1098 O1108 1.241 . S
C1098 O1109 1.273 . S
C1099 O1110 1.251 . S
C1099 O1111 1.268 . S
O1100 Nd1080 2.500 . S
O1100 C1082 1.258 . S
O1101 Nd1080 2.492 . S
O1101 C1082 1.239 . S
O1102 Nd1080 2.487 . S
O1102 C1089 1.241 . S
O1103 Nd1080 2.682 . S
O1103 Nd1081 2.414 . S
O1103 C1089 1.273 . S
O1104 Nd1080 2.410 . S
O1104 C1090 1.251 . S
O1105 Nd1081 2.424 . S
O1105 C1090 1.268 . S
O1106 Nd1081 2.500 1_554 S
O1106 C1091 1.258 . S
O1107 Nd1081 2.492 1_554 S
O1107 C1091 1.239 . S
O1108 Nd1081 2.487 . S
O1108 C1098 1.241 . S
O1109 Nd1080 2.414 . S
O1109 Nd1081 2.682 . S
O1109 C1098 1.273 . S
O1110 Nd1081 2.410 . S
O1110 C1099 1.251 . S
O1111 Nd1080 2.424 . S
O1111 C1099 1.268 . S
H1112 C1084 0.930 . S
H1113 C1085 0.929 . S
H1114 C1087 0.930 . S
H1115 C1088 0.929 . S
H1116 C1093 0.930 . S
H1117 C1094 0.929 . S
H1118 C1096 0.930 . S
H1119 C1097 0.929 . S
Nd1120 C1122 2.836 . S
Nd1120 O1140 2.500 . S
Nd1120 O1141 2.492 . S
Nd1120 O1142 2.487 . S
Nd1120 O1143 2.682 . S
Nd1120 O1144 2.410 . S
Nd1120 O1149 2.414 . S
Nd1120 O1151 2.424 . S
Nd1121 C1131 2.836 . S
Nd1121 O1143 2.414 . S
Nd1121 O1145 2.424 . S
Nd1121 O1146 2.500 . S
Nd1121 O1147 2.492 . S
Nd1121 O1148 2.487 . S
Nd1121 O1149 2.682 . S
Nd1121 O1150 2.410 . S
C1122 Nd1120 2.836 . S
C1122 C1123 1.498 . S
C1122 O1140 1.258 . S
C1122 O1141 1.239 . S
C1123 C1122 1.498 . S
C1123 C1124 1.366 . S
C1123 C1128 1.407 . S
C1124 C1123 1.366 . S
C1124 C1125 1.392 . S
C1124 H1152 0.930 . S
C1125 C1124 1.392 . S
C1125 C1126 1.398 . S
C1125 H1153 0.929 . S
C1126 C1125 1.398 . S
C1126 C1127 1.352 . S
C1127 C1126 1.352 . S
C1127 C1128 1.384 . S
C1127 H1154 0.930 . S
C1128 C1123 1.407 . S
C1128 C1127 1.384 . S
C1128 H1155 0.929 . S
C1129 O1142 1.241 . S
C1129 O1143 1.273 . S
C1130 O1144 1.251 . S
C1130 O1145 1.268 . S
C1131 Nd1121 2.836 . S
C1131 C1132 1.498 . S
C1131 O1146 1.258 . S
C1131 O1147 1.239 . S
C1132 C1131 1.498 . S
C1132 C1133 1.366 . S
C1132 C1137 1.407 1_565 S
C1133 C1132 1.366 . S
C1133 C1134 1.392 . S
C1133 H1156 0.930 . S
C1134 C1133 1.392 . S
C1134 C1135 1.417 . S
C1134 H1157 0.929 . S
C1135 C1134 1.417 . S
C1135 C1136 1.340 1_565 S
C1136 C1135 1.340 1_545 S
C1136 C1137 1.384 . S
C1136 H1158 0.930 . S
C1137 C1132 1.407 1_545 S
C1137 C1136 1.384 . S
C1137 H1159 0.929 . S
C1138 O1148 1.241 . S
C1138 O1149 1.273 . S
C1139 O1150 1.251 . S
C1139 O1151 1.268 . S
O1140 Nd1120 2.500 . S
O1140 C1122 1.258 . S
O1141 Nd1120 2.492 . S
O1141 C1122 1.239 . S
O1142 Nd1120 2.487 . S
O1142 C1129 1.241 . S
O1143 Nd1120 2.682 . S
O1143 Nd1121 2.414 . S
O1143 C1129 1.273 . S
O1144 Nd1120 2.410 . S
O1144 C1130 1.251 . S
O1145 Nd1121 2.424 . S
O1145 C1130 1.268 . S
O1146 Nd1121 2.500 . S
O1146 C1131 1.258 . S
O1147 Nd1121 2.492 . S
O1147 C1131 1.239 . S
O1148 Nd1121 2.487 . S
O1148 C1138 1.241 . S
O1149 Nd1120 2.414 . S
O1149 Nd1121 2.682 . S
O1149 C1138 1.273 . S
O1150 Nd1121 2.410 . S
O1150 C1139 1.251 . S
O1151 Nd1120 2.424 . S
O1151 C1139 1.268 . S
H1152 C1124 0.930 . S
H1153 C1125 0.929 . S
H1154 C1127 0.930 . S
H1155 C1128 0.929 . S
H1156 C1133 0.930 . S
H1157 C1134 0.929 . S
H1158 C1136 0.930 . S
H1159 C1137 0.929 . S
Nd1160 C1162 2.836 . S
Nd1160 O1180 2.500 . S
Nd1160 O1181 2.492 . S
Nd1160 O1182 2.487 . S
Nd1160 O1183 2.682 1_556 S
Nd1160 O1184 2.410 . S
Nd1160 O1189 2.414 . S
Nd1160 O1191 2.424 1_556 S
Nd1161 C1171 2.836 . S
Nd1161 O1183 2.414 . S
Nd1161 O1185 2.424 1_554 S
Nd1161 O1186 2.500 . S
Nd1161 O1187 2.492 . S
Nd1161 O1188 2.480 1_554 S
Nd1161 O1189 2.682 1_554 S
Nd1161 O1190 2.410 . S
C1162 Nd1160 2.836 . S
C1162 C1163 1.498 . S
C1162 O1180 1.258 . S
C1162 O1181 1.239 . S
C1163 C1162 1.498 . S
C1163 C1164 1.366 . S
C1163 C1168 1.407 . S
C1164 C1163 1.366 . S
C1164 C1165 1.392 . S
C1164 H1192 0.930 . S
C1165 C1164 1.392 . S
C1165 C1166 1.398 . S
C1165 H1193 0.929 . S
C1166 C1165 1.398 . S
C1166 C1167 1.352 . S
C1167 C1166 1.352 . S
C1167 C1168 1.384 . S
C1167 H1194 0.930 . S
C1168 C1163 1.407 . S
C1168 C1167 1.384 . S
C1168 H1195 0.929 . S
C1169 O1182 1.241 1_554 S
C1169 O1183 1.273 . S
C1170 O1184 1.251 . S
C1170 O1185 1.268 . S
C1171 Nd1161 2.836 . S
C1171 C1172 1.498 . S
C1171 O1186 1.258 . S
C1171 O1187 1.239 . S
C1172 C1171 1.498 . S
C1172 C1173 1.366 . S
C1172 C1177 1.407 . S
C1173 C1172 1.366 . S
C1173 C1174 1.392 . S
C1173 H1196 0.930 . S
C1174 C1173 1.392 . S
C1174 C1175 1.398 . S
C1174 H1197 0.929 . S
C1175 C1174 1.398 . S
C1175 C1176 1.352 . S
C1176 C1175 1.352 . S
C1176 C1177 1.384 . S
C1176 H1198 0.930 . S
C1177 C1172 1.407 . S
C1177 C1176 1.384 . S
C1177 H1199 0.929 . S
C1178 O1188 1.260 . S
C1178 O1189 1.273 . S
C1179 O1190 1.251 . S
C1179 O1191 1.268 . S
O1180 Nd1160 2.500 . S
O1180 C1162 1.258 . S
O1181 Nd1160 2.492 . S
O1181 C1162 1.239 . S
O1182 Nd1160 2.487 . S
O1182 C1169 1.241 1_556 S
O1183 Nd1160 2.682 1_554 S
O1183 Nd1161 2.414 . S
O1183 C1169 1.273 . S
O1184 Nd1160 2.410 . S
O1184 C1170 1.251 . S
O1185 Nd1161 2.424 1_556 S
O1185 C1170 1.268 . S
O1186 Nd1161 2.500 . S
O1186 C1171 1.258 . S
O1187 Nd1161 2.492 . S
O1187 C1171 1.239 . S
O1188 Nd1161 2.480 1_556 S
O1188 C1178 1.260 . S
O1189 Nd1160 2.414 . S
O1189 Nd1161 2.682 1_556 S
O1189 C1178 1.273 . S
O1190 Nd1161 2.410 . S
O1190 C1179 1.251 . S
O1191 Nd1160 2.424 1_554 S
O1191 C1179 1.268 . S
H1192 C1164 0.930 . S
H1193 C1165 0.929 . S
H1194 C1167 0.930 . S
H1195 C1168 0.929 . S
H1196 C1173 0.930 . S
H1197 C1174 0.929 . S
H1198 C1176 0.930 . S
H1199 C1177 0.929 . S
Nd1200 C1202 2.836 . S
Nd1200 O1220 2.500 . S
Nd1200 O1221 2.492 . S
Nd1200 O1222 2.487 . S
Nd1200 O1223 2.682 . S
Nd1200 O1224 2.410 . S
Nd1200 O1229 2.414 . S
Nd1200 O1231 2.424 . S
Nd1201 C1211 2.836 . S
Nd1201 O1223 2.414 . S
Nd1201 O1225 2.424 . S
Nd1201 O1226 2.500 . S
Nd1201 O1227 2.492 . S
Nd1201 O1228 2.487 . S
Nd1201 O1229 2.682 . S
Nd1201 O1230 2.410 . S
C1202 Nd1200 2.836 . S
C1202 C1203 1.498 . S
C1202 O1220 1.258 . S
C1202 O1221 1.239 . S
C1203 C1202 1.498 . S
C1203 C1204 1.366 . S
C1203 C1208 1.407 . S
C1204 C1203 1.366 . S
C1204 C1205 1.392 . S
C1204 H1232 0.930 . S
C1205 C1204 1.392 . S
C1205 C1206 1.398 . S
C1205 H1233 0.929 . S
C1206 C1205 1.398 . S
C1206 C1207 1.352 . S
C1207 C1206 1.352 . S
C1207 C1208 1.384 . S
C1207 H1234 0.930 . S
C1208 C1203 1.407 . S
C1208 C1207 1.384 . S
C1208 H1235 0.929 . S
C1209 O1222 1.241 . S
C1209 O1223 1.273 . S
C1210 O1224 1.251 . S
C1210 O1225 1.268 . S
C1211 Nd1201 2.836 . S
C1211 C1212 1.498 . S
C1211 O1226 1.258 . S
C1211 O1227 1.239 . S
C1212 C1211 1.498 . S
C1212 C1213 1.366 . S
C1212 C1217 1.407 1_545 S
C1213 C1212 1.366 . S
C1213 C1214 1.392 . S
C1213 H1236 0.930 . S
C1214 C1213 1.392 . S
C1214 C1215 1.415 . S
C1214 H1237 0.929 . S
C1215 C1214 1.415 . S
C1215 C1216 1.341 1_545 S
C1216 C1215 1.341 1_565 S
C1216 C1217 1.384 . S
C1216 H1238 0.930 . S
C1217 C1212 1.407 1_565 S
C1217 C1216 1.384 . S
C1217 H1239 0.929 . S
C1218 O1228 1.241 . S
C1218 O1229 1.273 . S
C1219 O1230 1.251 . S
C1219 O1231 1.268 . S
O1220 Nd1200 2.500 . S
O1220 C1202 1.258 . S
O1221 Nd1200 2.492 . S
O1221 C1202 1.239 . S
O1222 Nd1200 2.487 . S
O1222 C1209 1.241 . S
O1223 Nd1200 2.682 . S
O1223 Nd1201 2.414 . S
O1223 C1209 1.273 . S
O1224 Nd1200 2.410 . S
O1224 C1210 1.251 . S
O1225 Nd1201 2.424 . S
O1225 C1210 1.268 . S
O1226 Nd1201 2.500 . S
O1226 C1211 1.258 . S
O1227 Nd1201 2.492 . S
O1227 C1211 1.239 . S
O1228 Nd1201 2.487 . S
O1228 C1218 1.241 . S
O1229 Nd1200 2.414 . S
O1229 Nd1201 2.682 . S
O1229 C1218 1.273 . S
O1230 Nd1201 2.410 . S
O1230 C1219 1.251 . S
O1231 Nd1200 2.424 . S
O1231 C1219 1.268 . S
H1232 C1204 0.930 . S
H1233 C1205 0.929 . S
H1234 C1207 0.930 . S
H1235 C1208 0.929 . S
H1236 C1213 0.930 . S
H1237 C1214 0.929 . S
H1238 C1216 0.930 . S
H1239 C1217 0.929 . S
Nd1240 C1242 2.836 . S
Nd1240 O1260 2.500 . S
Nd1240 O1261 2.492 . S
Nd1240 O1262 2.487 . S
Nd1240 O1263 2.682 . S
Nd1240 O1264 2.410 . S
Nd1240 O1269 2.414 . S
Nd1240 O1271 2.424 . S
Nd1241 C1251 2.836 . S
Nd1241 O1263 2.414 . S
Nd1241 O1265 2.424 . S
Nd1241 O1266 2.500 . S
Nd1241 O1267 2.492 . S
Nd1241 O1268 2.487 . S
Nd1241 O1269 2.682 . S
Nd1241 O1270 2.410 . S
C1242 Nd1240 2.836 . S
C1242 C1243 1.498 . S
C1242 O1260 1.258 . S
C1242 O1261 1.239 . S
C1243 C1242 1.498 . S
C1243 C1244 1.366 . S
C1243 C1248 1.407 . S
C1244 C1243 1.366 . S
C1244 C1245 1.392 . S
C1244 H1272 0.930 . S
C1245 C1244 1.392 . S
C1245 C1246 1.398 . S
C1245 H1273 0.929 . S
C1246 C1245 1.398 . S
C1246 C1247 1.352 . S
C1247 C1246 1.352 . S
C1247 C1248 1.384 . S
C1247 H1274 0.930 . S
C1248 C1243 1.407 . S
C1248 C1247 1.384 . S
C1248 H1275 0.929 . S
C1249 O1262 1.241 . S
C1249 O1263 1.273 . S
C1250 O1264 1.251 . S
C1250 O1265 1.268 . S
C1251 Nd1241 2.836 . S
C1251 C1252 1.498 . S
C1251 O1266 1.258 . S
C1251 O1267 1.239 . S
C1252 C1251 1.498 . S
C1252 C1253 1.366 . S
C1252 C1257 1.407 . S
C1253 C1252 1.366 . S
C1253 C1254 1.392 . S
C1253 H1276 0.930 . S
C1254 C1253 1.392 . S
C1254 C1255 1.398 . S
C1254 H1277 0.929 . S
C1255 C1254 1.398 . S
C1255 C1256 1.352 . S
C1256 C1255 1.352 . S
C1256 C1257 1.384 . S
C1256 H1278 0.930 . S
C1257 C1252 1.407 . S
C1257 C1256 1.384 . S
C1257 H1279 0.929 . S
C1258 O1268 1.241 . S
C1258 O1269 1.273 . S
C1259 O1270 1.251 . S
C1259 O1271 1.268 . S
O1260 Nd1240 2.500 . S
O1260 C1242 1.258 . S
O1261 Nd1240 2.492 . S
O1261 C1242 1.239 . S
O1262 Nd1240 2.487 . S
O1262 C1249 1.241 . S
O1263 Nd1240 2.682 . S
O1263 Nd1241 2.414 . S
O1263 C1249 1.273 . S
O1264 Nd1240 2.410 . S
O1264 C1250 1.251 . S
O1265 Nd1241 2.424 . S
O1265 C1250 1.268 . S
O1266 Nd1241 2.500 . S
O1266 C1251 1.258 . S
O1267 Nd1241 2.492 . S
O1267 C1251 1.239 . S
O1268 Nd1241 2.487 . S
O1268 C1258 1.241 . S
O1269 Nd1240 2.414 . S
O1269 Nd1241 2.682 . S
O1269 C1258 1.273 . S
O1270 Nd1241 2.410 . S
O1270 C1259 1.251 . S
O1271 Nd1240 2.424 . S
O1271 C1259 1.268 . S
H1272 C1244 0.930 . S
H1273 C1245 0.929 . S
H1274 C1247 0.930 . S
H1275 C1248 0.929 . S
H1276 C1253 0.930 . S
H1277 C1254 0.929 . S
H1278 C1256 0.930 . S
H1279 C1257 0.929 . S
H1280 C1288 0.929 . S
H1281 C1290 0.930 . S
H1282 C1292 0.930 . S
H1283 C1295 0.929 . S
H1284 C1298 0.930 . S
H1285 C1300 0.960 . S
H1286 C1300 0.960 . S
H1287 C1300 0.960 . S
C1288 H1280 0.929 . S
C1288 C1289 1.377 . S
C1288 C1290 1.384 . S
C1289 C1288 1.377 . S
C1289 C1295 1.390 . S
C1290 H1281 0.930 . S
C1290 C1288 1.384 . S
C1290 C1291 1.372 . S
C1291 C1290 1.372 . S
C1291 C1292 1.400 . S
C1291 C1296 1.490 . S
C1292 H1282 0.930 . S
C1292 C1291 1.400 . S
C1292 C1295 1.386 . S
H1293 C1309 0.930 . S
H1294 C1310 0.931 . S
C1295 H1283 0.929 . S
C1295 C1289 1.390 . S
C1295 C1292 1.386 . S
C1296 C1291 1.490 . S
C1296 C1298 1.395 . S
C1296 C1299 1.403 . S
H1297 C1303 0.930 . S
C1298 H1284 0.930 . S
C1298 C1296 1.395 . S
C1298 C1301 1.403 . S
C1299 C1296 1.403 . S
C1299 C1300 1.524 . S
C1299 C1303 1.400 . S
C1300 H1285 0.960 . S
C1300 H1286 0.960 . S
C1300 H1287 0.960 . S
C1300 C1299 1.524 . S
C1301 C1298 1.403 . S
C1301 C1302 1.392 . S
C1301 C1305 1.495 . S
C1302 C1301 1.392 . S
C1302 C1303 1.385 . S
C1302 C1304 1.478 . S
C1303 H1297 0.930 . S
C1303 C1299 1.400 . S
C1303 C1302 1.385 . S
C1304 C1302 1.478 . S
C1304 C1306 1.381 . S
C1304 C1310 1.383 . S
C1305 C1301 1.495 . S
C1305 H1311 0.959 . S
C1305 H1312 0.961 . S
C1305 H1313 0.960 . S
C1306 C1304 1.381 . S
C1306 C1307 1.394 . S
C1306 H1314 0.930 . S
C1307 C1306 1.394 . S
C1307 C1308 1.383 . S
C1307 H1315 0.929 . S
C1308 C1307 1.383 . S
C1308 C1309 1.377 . S
C1309 H1293 0.930 . S
C1309 C1308 1.377 . S
C1309 C1310 1.379 . S
C1310 H1294 0.931 . S
C1310 C1304 1.383 . S
C1310 C1309 1.379 . S
H1311 C1305 0.959 . S
H1312 C1305 0.961 . S
H1313 C1305 0.960 . S
H1314 C1306 0.930 . S
H1315 C1307 0.929 . S
H1316 C1324 0.929 . S
H1317 C1326 0.930 . S
H1318 C1328 0.930 . S
H1319 C1331 0.929 . S
H1320 C1334 0.930 . S
H1321 C1336 0.960 . S
H1322 C1336 0.960 . S
H1323 C1336 0.960 . S
C1324 H1316 0.929 . S
C1324 C1325 1.377 . S
C1324 C1326 1.384 . S
C1325 C1324 1.377 . S
C1325 C1331 1.390 . S
C1326 H1317 0.930 . S
C1326 C1324 1.384 . S
C1326 C1327 1.372 . S
C1327 C1326 1.372 . S
C1327 C1328 1.400 . S
C1327 C1332 1.490 . S
C1328 H1318 0.930 . S
C1328 C1327 1.400 . S
C1328 C1331 1.386 . S
H1329 C1345 0.930 . S
H1330 C1346 0.931 . S
C1331 H1319 0.929 . S
C1331 C1325 1.390 . S
C1331 C1328 1.386 . S
C1332 C1327 1.490 . S
C1332 C1334 1.395 . S
C1332 C1335 1.403 . S
H1333 C1339 0.930 . S
C1334 H1320 0.930 . S
C1334 C1332 1.395 . S
C1334 C1337 1.403 . S
C1335 C1332 1.403 . S
C1335 C1336 1.524 . S
C1335 C1339 1.400 . S
C1336 H1321 0.960 . S
C1336 H1322 0.960 . S
C1336 H1323 0.960 . S
C1336 C1335 1.524 . S
C1337 C1334 1.403 . S
C1337 C1338 1.392 . S
C1337 C1341 1.495 . S
C1338 C1337 1.392 . S
C1338 C1339 1.385 . S
C1338 C1340 1.478 . S
C1339 H1333 0.930 . S
C1339 C1335 1.400 . S
C1339 C1338 1.385 . S
C1340 C1338 1.478 . S
C1340 C1342 1.381 . S
C1340 C1346 1.383 . S
C1341 C1337 1.495 . S
C1341 H1347 0.959 . S
C1341 H1348 0.961 . S
C1341 H1349 0.960 . S
C1342 C1340 1.381 . S
C1342 C1343 1.394 . S
C1342 H1350 0.930 . S
C1343 C1342 1.394 . S
C1343 C1344 1.383 . S
C1343 H1351 0.929 . S
C1344 C1343 1.383 . S
C1344 C1345 1.377 . S
C1345 H1329 0.930 . S
C1345 C1344 1.377 . S
C1345 C1346 1.379 . S
C1346 H1330 0.931 . S
C1346 C1340 1.383 . S
C1346 C1345 1.379 . S
H1347 C1341 0.959 . S
H1348 C1341 0.961 . S
H1349 C1341 0.960 . S
H1350 C1342 0.930 . S
H1351 C1343 0.929 . S
H1352 C1360 0.929 . S
H1353 C1362 0.930 . S
H1354 C1364 0.930 . S
H1355 C1367 0.929 . S
H1356 C1370 0.930 . S
H1357 C1372 0.960 . S
H1358 C1372 0.960 . S
H1359 C1372 0.960 . S
C1360 H1352 0.929 . S
C1360 C1361 1.377 . S
C1360 C1362 1.384 . S
C1361 C1360 1.377 . S
C1361 C1367 1.390 . S
C1362 H1353 0.930 . S
C1362 C1360 1.384 . S
C1362 C1363 1.372 . S
C1363 C1362 1.372 . S
C1363 C1364 1.400 . S
C1363 C1368 1.490 . S
C1364 H1354 0.930 . S
C1364 C1363 1.400 . S
C1364 C1367 1.386 . S
H1365 C1381 0.930 . S
H1366 C1382 0.931 . S
C1367 H1355 0.929 . S
C1367 C1361 1.390 . S
C1367 C1364 1.386 . S
C1368 C1363 1.490 . S
C1368 C1370 1.395 . S
C1368 C1371 1.403 . S
H1369 C1375 0.930 . S
C1370 H1356 0.930 . S
C1370 C1368 1.395 . S
C1370 C1373 1.403 . S
C1371 C1368 1.403 . S
C1371 C1372 1.524 . S
C1371 C1375 1.400 . S
C1372 H1357 0.960 . S
C1372 H1358 0.960 . S
C1372 H1359 0.960 . S
C1372 C1371 1.524 . S
C1373 C1370 1.403 . S
C1373 C1374 1.392 . S
C1373 C1377 1.495 . S
C1374 C1373 1.392 . S
C1374 C1375 1.385 . S
C1374 C1376 1.478 . S
C1375 H1369 0.930 . S
C1375 C1371 1.400 . S
C1375 C1374 1.385 . S
C1376 C1374 1.478 . S
C1376 C1378 1.381 . S
C1376 C1382 1.383 . S
C1377 C1373 1.495 . S
C1377 H1383 0.959 . S
C1377 H1384 0.961 . S
C1377 H1385 0.960 . S
C1378 C1376 1.381 . S
C1378 C1379 1.394 . S
C1378 H1386 0.930 . S
C1379 C1378 1.394 . S
C1379 C1380 1.383 . S
C1379 H1387 0.929 . S
C1380 C1379 1.383 . S
C1380 C1381 1.377 . S
C1381 H1365 0.930 . S
C1381 C1380 1.377 . S
C1381 C1382 1.379 . S
C1382 H1366 0.931 . S
C1382 C1376 1.383 . S
C1382 C1381 1.379 . S
H1383 C1377 0.959 . S
H1384 C1377 0.961 . S
H1385 C1377 0.960 . S
H1386 C1378 0.930 . S
H1387 C1379 0.929 . S
H1388 C1396 0.929 . S
H1389 C1398 0.930 . S
H1390 C1400 0.930 . S
H1391 C1403 0.929 . S
H1392 C1406 0.930 . S
H1393 C1408 0.960 . S
H1394 C1408 0.960 . S
H1395 C1408 0.960 . S
C1396 H1388 0.929 . S
C1396 C1397 1.377 . S
C1396 C1398 1.384 . S
C1397 C1396 1.377 . S
C1397 C1403 1.390 . S
C1398 H1389 0.930 . S
C1398 C1396 1.384 . S
C1398 C1399 1.372 . S
C1399 C1398 1.372 . S
C1399 C1400 1.400 . S
C1399 C1404 1.490 . S
C1400 H1390 0.930 . S
C1400 C1399 1.400 . S
C1400 C1403 1.386 . S
H1401 C1417 0.930 . S
H1402 C1418 0.931 . S
C1403 H1391 0.929 . S
C1403 C1397 1.390 . S
C1403 C1400 1.386 . S
C1404 C1399 1.490 . S
C1404 C1406 1.395 . S
C1404 C1407 1.403 . S
H1405 C1411 0.930 . S
C1406 H1392 0.930 . S
C1406 C1404 1.395 . S
C1406 C1409 1.403 . S
C1407 C1404 1.403 . S
C1407 C1408 1.524 . S
C1407 C1411 1.400 . S
C1408 H1393 0.960 . S
C1408 H1394 0.960 . S
C1408 H1395 0.960 . S
C1408 C1407 1.524 . S
C1409 C1406 1.403 . S
C1409 C1410 1.392 . S
C1409 C1413 1.495 . S
C1410 C1409 1.392 . S
C1410 C1411 1.385 . S
C1410 C1412 1.513 . S
C1411 H1405 0.930 . S
C1411 C1407 1.400 . S
C1411 C1410 1.385 . S
C1412 C1410 1.513 . S
C1412 C1414 1.366 1_554 S
C1412 C1418 1.361 1_554 S
C1413 C1409 1.495 . S
C1413 H1419 0.959 . S
C1413 H1420 0.961 . S
C1413 H1421 0.960 . S
C1414 C1412 1.366 1_556 S
C1414 C1415 1.394 . S
C1414 H1422 0.931 . S
C1415 C1414 1.394 . S
C1415 C1416 1.383 . S
C1415 H1423 0.929 . S
C1416 C1415 1.383 . S
C1416 C1417 1.377 . S
C1417 H1401 0.930 . S
C1417 C1416 1.377 . S
C1417 C1418 1.379 . S
C1418 H1402 0.931 . S
C1418 C1412 1.361 1_556 S
C1418 C1417 1.379 . S
H1419 C1413 0.959 . S
H1420 C1413 0.961 . S
H1421 C1413 0.960 . S
H1422 C1414 0.931 . S
H1423 C1415 0.929 . S
H1424 C1432 0.929 . S
H1425 C1434 0.930 . S
H1426 C1436 0.930 . S
H1427 C1439 0.929 . S
H1428 C1442 0.930 . S
H1429 C1444 0.960 . S
H1430 C1444 0.960 . S
H1431 C1444 0.960 . S
C1432 H1424 0.929 . S
C1432 C1433 1.377 . S
C1432 C1434 1.384 . S
C1433 C1432 1.377 . S
C1433 C1439 1.390 . S
C1434 H1425 0.930 . S
C1434 C1432 1.384 . S
C1434 C1435 1.372 . S
C1435 C1434 1.372 . S
C1435 C1436 1.400 . S
C1435 C1440 1.490 . S
C1436 H1426 0.930 . S
C1436 C1435 1.400 . S
C1436 C1439 1.386 . S
H1437 C1453 0.930 . S
H1438 C1454 0.931 . S
C1439 H1427 0.929 . S
C1439 C1433 1.390 . S
C1439 C1436 1.386 . S
C1440 C1435 1.490 . S
C1440 C1442 1.395 . S
C1440 C1443 1.403 . S
H1441 C1447 0.930 . S
C1442 H1428 0.930 . S
C1442 C1440 1.395 . S
C1442 C1445 1.403 . S
C1443 C1440 1.403 . S
C1443 C1444 1.524 . S
C1443 C1447 1.400 . S
C1444 H1429 0.960 . S
C1444 H1430 0.960 . S
C1444 H1431 0.960 . S
C1444 C1443 1.524 . S
C1445 C1442 1.403 . S
C1445 C1446 1.401 . S
C1445 C1449 1.495 . S
C1446 C1445 1.401 . S
C1446 C1447 1.392 . S
C1446 C1448 1.462 1_554 S
C1447 H1441 0.930 . S
C1447 C1443 1.400 . S
C1447 C1446 1.392 . S
C1448 C1446 1.462 1_556 S
C1448 C1450 1.381 . S
C1448 C1454 1.383 . S
C1449 C1445 1.495 . S
C1449 H1455 0.959 . S
C1449 H1456 0.961 1_554 S
C1449 H1457 0.961 . S
C1450 C1448 1.381 . S
C1450 C1451 1.394 . S
C1450 H1458 0.930 . S
C1451 C1450 1.394 . S
C1451 C1452 1.383 . S
C1451 H1459 0.929 . S
C1452 C1451 1.383 . S
C1452 C1453 1.377 . S
C1453 H1437 0.930 . S
C1453 C1452 1.377 . S
C1453 C1454 1.379 . S
C1454 H1438 0.931 . S
C1454 C1448 1.383 . S
C1454 C1453 1.379 . S
H1455 C1449 0.959 . S
H1456 C1449 0.961 1_556 S
H1457 C1449 0.961 . S
H1458 C1450 0.930 . S
H1459 C1451 0.929 . S
H1460 C1468 0.929 . S
H1461 C1470 0.930 . S
H1462 C1472 0.930 . S
H1463 C1475 0.929 . S
H1464 C1478 0.930 . S
H1465 C1480 0.960 . S
H1466 C1480 0.960 . S
H1467 C1480 0.960 . S
C1468 H1460 0.929 . S
C1468 C1469 1.377 . S
C1468 C1470 1.384 . S
C1469 C1468 1.377 . S
C1469 C1475 1.390 . S
C1470 H1461 0.930 . S
C1470 C1468 1.384 . S
C1470 C1471 1.372 . S
C1471 C1470 1.372 . S
C1471 C1472 1.400 . S
C1471 C1476 1.490 . S
C1472 H1462 0.930 . S
C1472 C1471 1.400 . S
C1472 C1475 1.386 . S
H1473 C1489 0.930 . S
H1474 C1490 0.931 . S
C1475 H1463 0.929 . S
C1475 C1469 1.390 . S
C1475 C1472 1.386 . S
C1476 C1471 1.490 . S
C1476 C1478 1.395 . S
C1476 C1479 1.403 . S
H1477 C1483 0.930 . S
C1478 H1464 0.930 . S
C1478 C1476 1.395 . S
C1478 C1481 1.403 . S
C1479 C1476 1.403 . S
C1479 C1480 1.524 . S
C1479 C1483 1.400 . S
C1480 H1465 0.960 . S
C1480 H1466 0.960 . S
C1480 H1467 0.960 . S
C1480 C1479 1.524 . S
C1481 C1478 1.403 . S
C1481 C1482 1.392 . S
C1481 C1485 1.495 . S
C1482 C1481 1.392 . S
C1482 C1483 1.385 . S
C1482 C1484 1.478 . S
C1483 H1477 0.930 . S
C1483 C1479 1.400 . S
C1483 C1482 1.385 . S
C1484 C1482 1.478 . S
C1484 C1486 1.381 . S
C1484 C1490 1.383 . S
C1485 C1481 1.495 . S
C1485 H1491 0.959 . S
C1485 H1492 0.961 . S
C1485 H1493 0.960 . S
C1486 C1484 1.381 . S
C1486 C1487 1.394 . S
C1486 H1494 0.930 . S
C1487 C1486 1.394 . S
C1487 C1488 1.383 . S
C1487 H1495 0.929 . S
C1488 C1487 1.383 . S
C1488 C1489 1.377 . S
C1489 H1473 0.930 . S
C1489 C1488 1.377 . S
C1489 C1490 1.379 . S
C1490 H1474 0.931 . S
C1490 C1484 1.383 . S
C1490 C1489 1.379 . S
H1491 C1485 0.959 . S
H1492 C1485 0.961 . S
H1493 C1485 0.960 . S
H1494 C1486 0.930 . S
H1495 C1487 0.929 . S
H1496 C1504 0.929 . S
H1497 C1506 0.930 . S
H1498 C1508 0.930 . S
H1499 C1511 0.929 . S
H1500 C1514 0.930 . S
H1501 C1516 0.960 . S
H1502 C1516 0.960 . S
H1503 C1516 0.960 . S
C1504 H1496 0.929 . S
C1504 C1505 1.377 . S
C1504 C1506 1.384 . S
C1505 C1504 1.377 . S
C1505 C1511 1.390 . S
C1506 H1497 0.930 . S
C1506 C1504 1.384 . S
C1506 C1507 1.372 . S
C1507 C1506 1.372 . S
C1507 C1508 1.400 . S
C1507 C1512 1.490 . S
C1508 H1498 0.930 . S
C1508 C1507 1.400 . S
C1508 C1511 1.386 . S
H1509 C1525 0.930 . S
H1510 C1526 0.931 . S
C1511 H1499 0.929 . S
C1511 C1505 1.390 . S
C1511 C1508 1.386 . S
C1512 C1507 1.490 . S
C1512 C1514 1.395 . S
C1512 C1515 1.403 . S
H1513 C1519 0.930 . S
C1514 H1500 0.930 . S
C1514 C1512 1.395 . S
C1514 C1517 1.403 . S
C1515 C1512 1.403 . S
C1515 C1516 1.524 . S
C1515 C1519 1.400 . S
C1516 H1501 0.960 . S
C1516 H1502 0.960 . S
C1516 H1503 0.960 . S
C1516 C1515 1.524 . S
C1517 C1514 1.403 . S
C1517 C1518 1.392 . S
C1517 C1521 1.495 . S
C1518 C1517 1.392 . S
C1518 C1519 1.385 . S
C1518 C1520 1.478 . S
C1519 H1513 0.930 . S
C1519 C1515 1.400 . S
C1519 C1518 1.385 . S
C1520 C1518 1.478 . S
C1520 C1522 1.381 . S
C1520 C1526 1.383 . S
C1521 C1517 1.495 . S
C1521 H1527 0.959 . S
C1521 H1528 0.961 . S
C1521 H1529 0.960 . S
C1522 C1520 1.381 . S
C1522 C1523 1.394 . S
C1522 H1530 0.930 . S
C1523 C1522 1.394 . S
C1523 C1524 1.383 . S
C1523 H1531 0.929 . S
C1524 C1523 1.383 . S
C1524 C1525 1.377 . S
C1525 H1509 0.930 . S
C1525 C1524 1.377 . S
C1525 C1526 1.379 . S
C1526 H1510 0.931 . S
C1526 C1520 1.383 . S
C1526 C1525 1.379 . S
H1527 C1521 0.959 . S
H1528 C1521 0.961 . S
H1529 C1521 0.960 . S
H1530 C1522 0.930 . S
H1531 C1523 0.929 . S
H1532 C1540 0.929 . S
H1533 C1542 0.930 . S
H1534 C1544 0.930 . S
H1535 C1547 0.929 . S
H1536 C1550 0.930 . S
H1537 C1552 0.960 . S
H1538 C1552 0.960 . S
H1539 C1552 0.960 . S
C1540 H1532 0.929 . S
C1540 C1541 1.377 . S
C1540 C1542 1.384 . S
C1541 C1540 1.377 . S
C1541 C1547 1.390 . S
C1542 H1533 0.930 . S
C1542 C1540 1.384 . S
C1542 C1543 1.372 . S
C1543 C1542 1.372 . S
C1543 C1544 1.400 . S
C1543 C1548 1.490 . S
C1544 H1534 0.930 . S
C1544 C1543 1.400 . S
C1544 C1547 1.386 . S
H1545 C1561 0.930 . S
H1546 C1562 0.931 . S
C1547 H1535 0.929 . S
C1547 C1541 1.390 . S
C1547 C1544 1.386 . S
C1548 C1543 1.490 . S
C1548 C1550 1.395 . S
C1548 C1551 1.403 . S
H1549 C1555 0.930 . S
C1550 H1536 0.930 . S
C1550 C1548 1.395 . S
C1550 C1553 1.403 . S
C1551 C1548 1.403 . S
C1551 C1552 1.524 . S
C1551 C1555 1.400 . S
C1552 H1537 0.960 . S
C1552 H1538 0.960 . S
C1552 H1539 0.960 . S
C1552 C1551 1.524 . S
C1553 C1550 1.403 . S
C1553 C1554 1.392 . S
C1553 C1557 1.495 . S
C1554 C1553 1.392 . S
C1554 C1555 1.385 . S
C1554 C1556 1.478 . S
C1555 H1549 0.930 . S
C1555 C1551 1.400 . S
C1555 C1554 1.385 . S
C1556 C1554 1.478 . S
C1556 C1558 1.381 . S
C1556 C1562 1.383 . S
C1557 C1553 1.495 . S
C1557 H1563 0.959 . S
C1557 H1564 0.961 . S
C1557 H1565 0.960 . S
C1558 C1556 1.381 . S
C1558 C1559 1.394 . S
C1558 H1566 0.930 . S
C1559 C1558 1.394 . S
C1559 C1560 1.383 . S
C1559 H1567 0.929 . S
C1560 C1559 1.383 . S
C1560 C1561 1.377 . S
C1561 H1545 0.930 . S
C1561 C1560 1.377 . S
C1561 C1562 1.379 . S
C1562 H1546 0.931 . S
C1562 C1556 1.383 . S
C1562 C1561 1.379 . S
H1563 C1557 0.959 . S
H1564 C1557 0.961 . S
H1565 C1557 0.960 . S
H1566 C1558 0.930 . S
H1567 C1559 0.929 . S
H1568 C1576 0.929 . S
H1569 C1578 0.930 . S
H1570 C1580 0.930 . S
H1571 C1583 0.929 . S
H1572 C1586 0.930 . S
H1573 C1588 0.960 . S
H1574 C1588 0.960 . S
H1575 C1588 0.960 . S
C1576 H1568 0.929 . S
C1576 C1577 1.404 . S
C1576 C1578 1.384 . S
C1577 C1576 1.404 . S
C1577 C1583 1.342 1_545 S
C1578 H1569 0.930 . S
C1578 C1576 1.384 . S
C1578 C1579 1.372 1_545 S
C1579 C1578 1.372 1_565 S
C1579 C1580 1.400 . S
C1579 C1584 1.490 . S
C1580 H1570 0.930 . S
C1580 C1579 1.400 . S
C1580 C1583 1.386 . S
H1581 C1597 0.930 . S
H1582 C1598 0.931 . S
C1583 H1571 0.929 . S
C1583 C1577 1.342 1_565 S
C1583 C1580 1.386 . S
C1584 C1579 1.490 . S
C1584 C1586 1.395 . S
C1584 C1587 1.403 . S
H1585 C1591 0.930 . S
C1586 H1572 0.930 . S
C1586 C1584 1.395 . S
C1586 C1589 1.403 . S
C1587 C1584 1.403 . S
C1587 C1588 1.524 . S
C1587 C1591 1.400 . S
C1588 H1573 0.960 . S
C1588 H1574 0.960 . S
C1588 H1575 0.960 . S
C1588 C1587 1.524 . S
C1589 C1586 1.403 . S
C1589 C1590 1.392 . S
C1589 C1593 1.495 . S
C1590 C1589 1.392 . S
C1590 C1591 1.385 . S
C1590 C1592 1.478 . S
C1591 H1585 0.930 . S
C1591 C1587 1.400 . S
C1591 C1590 1.385 . S
C1592 C1590 1.478 . S
C1592 C1594 1.381 . S
C1592 C1598 1.383 . S
C1593 C1589 1.495 . S
C1593 H1599 0.959 . S
C1593 H1600 0.961 . S
C1593 H1601 0.960 . S
C1594 C1592 1.381 . S
C1594 C1595 1.394 . S
C1594 H1602 0.930 . S
C1595 C1594 1.394 . S
C1595 C1596 1.383 . S
C1595 H1603 0.929 . S
C1596 C1595 1.383 . S
C1596 C1597 1.377 . S
C1597 H1581 0.930 . S
C1597 C1596 1.377 . S
C1597 C1598 1.379 . S
C1598 H1582 0.931 . S
C1598 C1592 1.383 . S
C1598 C1597 1.379 . S
H1599 C1593 0.959 . S
H1600 C1593 0.961 . S
H1601 C1593 0.960 . S
H1602 C1594 0.930 . S
H1603 C1595 0.929 . S
H1604 C1612 0.929 . S
H1605 C1614 0.930 . S
H1606 C1616 0.930 1_554 S
H1607 C1619 0.929 . S
H1608 C1622 0.930 . S
H1609 C1624 0.960 . S
H1610 C1624 0.960 . S
H1611 C1624 0.960 . S
C1612 H1604 0.929 . S
C1612 C1613 1.377 . S
C1612 C1614 1.384 . S
C1613 C1612 1.377 . S
C1613 C1619 1.390 . S
C1614 H1605 0.930 . S
C1614 C1612 1.384 . S
C1614 C1615 1.372 . S
C1615 C1614 1.372 . S
C1615 C1616 1.400 . S
C1615 C1620 1.490 1_556 S
C1616 H1606 0.930 1_556 S
C1616 C1615 1.400 . S
C1616 C1619 1.386 . S
H1617 C1633 0.930 . S
H1618 C1634 0.931 . S
C1619 H1607 0.929 . S
C1619 C1613 1.390 . S
C1619 C1616 1.386 . S
C1620 C1615 1.490 1_554 S
C1620 C1622 1.395 . S
C1620 C1623 1.403 . S
H1621 C1627 0.930 . S
C1622 H1608 0.930 . S
C1622 C1620 1.395 . S
C1622 C1625 1.403 . S
C1623 C1620 1.403 . S
C1623 C1624 1.524 . S
C1623 C1627 1.400 . S
C1624 H1609 0.960 . S
C1624 H1610 0.960 . S
C1624 H1611 0.960 . S
C1624 C1623 1.524 . S
C1625 C1622 1.403 . S
C1625 C1626 1.392 . S
C1625 C1629 1.495 . S
C1626 C1625 1.392 . S
C1626 C1627 1.385 . S
C1626 C1628 1.478 . S
C1627 H1621 0.930 . S
C1627 C1623 1.400 . S
C1627 C1626 1.385 . S
C1628 C1626 1.478 . S
C1628 C1630 1.381 . S
C1628 C1634 1.383 . S
C1629 C1625 1.495 . S
C1629 H1635 0.959 . S
C1629 H1636 0.961 . S
C1629 H1637 0.960 . S
C1630 C1628 1.381 . S
C1630 C1631 1.394 . S
C1630 H1638 0.930 . S
C1631 C1630 1.394 . S
C1631 C1632 1.383 . S
C1631 H1639 0.929 . S
C1632 C1631 1.383 . S
C1632 C1633 1.377 . S
C1633 H1617 0.930 . S
C1633 C1632 1.377 . S
C1633 C1634 1.379 . S
C1634 H1618 0.931 . S
C1634 C1628 1.383 . S
C1634 C1633 1.379 . S
H1635 C1629 0.959 . S
H1636 C1629 0.961 . S
H1637 C1629 0.960 . S
H1638 C1630 0.930 . S
H1639 C1631 0.929 . S
H1640 C1648 0.929 . S
H1641 C1650 0.930 . S
H1642 C1652 0.930 . S
H1643 C1655 0.929 . S
H1644 C1658 0.930 . S
H1645 C1660 0.960 . S
H1646 C1660 0.960 . S
H1647 C1660 0.960 . S
C1648 H1640 0.929 . S
C1648 C1649 1.377 . S
C1648 C1650 1.384 . S
C1649 C1648 1.377 . S
C1649 C1655 1.390 . S
C1650 H1641 0.930 . S
C1650 C1648 1.384 . S
C1650 C1651 1.372 . S
C1651 C1650 1.372 . S
C1651 C1652 1.400 . S
C1651 C1656 1.490 . S
C1652 H1642 0.930 . S
C1652 C1651 1.400 . S
C1652 C1655 1.386 . S
H1653 C1669 0.930 . S
H1654 C1670 0.931 . S
C1655 H1643 0.929 . S
C1655 C1649 1.390 . S
C1655 C1652 1.386 . S
C1656 C1651 1.490 . S
C1656 C1658 1.395 . S
C1656 C1659 1.403 . S
H1657 C1663 0.930 . S
C1658 H1644 0.930 . S
C1658 C1656 1.395 . S
C1658 C1661 1.403 . S
C1659 C1656 1.403 . S
C1659 C1660 1.524 . S
C1659 C1663 1.400 . S
C1660 H1645 0.960 . S
C1660 H1646 0.960 . S
C1660 H1647 0.960 . S
C1660 C1659 1.524 . S
C1661 C1658 1.403 . S
C1661 C1662 1.392 . S
C1661 C1665 1.495 . S
C1662 C1661 1.392 . S
C1662 C1663 1.385 . S
C1662 C1664 1.478 . S
C1663 H1657 0.930 . S
C1663 C1659 1.400 . S
C1663 C1662 1.385 . S
C1664 C1662 1.478 . S
C1664 C1666 1.381 . S
C1664 C1670 1.383 . S
C1665 C1661 1.495 . S
C1665 H1671 0.959 . S
C1665 H1672 0.961 . S
C1665 H1673 0.960 . S
C1666 C1664 1.381 . S
C1666 C1667 1.394 . S
C1666 H1674 0.930 . S
C1667 C1666 1.394 . S
C1667 C1668 1.391 . S
C1667 H1675 0.929 . S
C1668 C1667 1.391 . S
C1668 C1669 1.384 . S
C1669 H1653 0.930 . S
C1669 C1668 1.384 . S
C1669 C1670 1.379 . S
C1670 H1654 0.931 . S
C1670 C1664 1.383 . S
C1670 C1669 1.379 . S
H1671 C1665 0.959 . S
H1672 C1665 0.961 . S
H1673 C1665 0.960 . S
H1674 C1666 0.930 . S
H1675 C1667 0.929 . S
H1676 C1684 0.929 . S
H1677 C1686 0.930 . S
H1678 C1688 0.930 . S
H1679 C1691 0.929 . S
H1680 C1694 0.930 . S
H1681 C1696 0.960 . S
H1682 C1696 0.960 . S
H1683 C1696 0.960 . S
C1684 H1676 0.929 . S
C1684 C1685 1.377 . S
C1684 C1686 1.384 . S
C1685 C1684 1.377 . S
C1685 C1691 1.390 . S
C1686 H1677 0.930 . S
C1686 C1684 1.384 . S
C1686 C1687 1.372 . S
C1687 C1686 1.372 . S
C1687 C1688 1.400 . S
C1687 C1692 1.490 . S
C1688 H1678 0.930 . S
C1688 C1687 1.400 . S
C1688 C1691 1.386 . S
H1689 C1705 0.930 . S
H1690 C1706 0.931 . S
C1691 H1679 0.929 . S
C1691 C1685 1.390 . S
C1691 C1688 1.386 . S
C1692 C1687 1.490 . S
C1692 C1694 1.395 . S
C1692 C1695 1.403 . S
H1693 C1699 0.930 . S
C1694 H1680 0.930 . S
C1694 C1692 1.395 . S
C1694 C1697 1.403 . S
C1695 C1692 1.403 . S
C1695 C1696 1.524 . S
C1695 C1699 1.400 . S
C1696 H1681 0.960 . S
C1696 H1682 0.960 . S
C1696 H1683 0.960 . S
C1696 C1695 1.524 . S
C1697 C1694 1.403 . S
C1697 C1698 1.392 . S
C1697 C1701 1.495 . S
C1698 C1697 1.392 . S
C1698 C1699 1.385 . S
C1698 C1700 1.478 . S
C1699 H1693 0.930 . S
C1699 C1695 1.400 . S
C1699 C1698 1.385 . S
C1700 C1698 1.478 . S
C1700 C1702 1.381 . S
C1700 C1706 1.383 . S
C1701 C1697 1.495 . S
C1701 H1707 0.959 . S
C1701 H1708 0.961 . S
C1701 H1709 0.960 . S
C1702 C1700 1.381 . S
C1702 C1703 1.394 . S
C1702 H1710 0.930 . S
C1703 C1702 1.394 . S
C1703 C1704 1.383 . S
C1703 H1711 0.929 . S
C1704 C1703 1.383 . S
C1704 C1705 1.377 . S
C1705 H1689 0.930 . S
C1705 C1704 1.377 . S
C1705 C1706 1.379 . S
C1706 H1690 0.931 . S
C1706 C1700 1.383 . S
C1706 C1705 1.379 . S
H1707 C1701 0.959 . S
H1708 C1701 0.961 . S
H1709 C1701 0.960 . S
H1710 C1702 0.930 . S
H1711 C1703 0.929 . S
H1712 C1720 0.929 . S
H1713 C1722 0.930 . S
H1714 C1724 0.930 . S
H1715 C1727 0.929 . S
H1716 C1730 0.930 . S
H1717 C1732 0.960 . S
H1718 C1732 0.960 . S
H1719 C1732 0.960 . S
C1720 H1712 0.929 . S
C1720 C1721 1.377 . S
C1720 C1722 1.384 . S
C1721 C1720 1.377 . S
C1721 C1727 1.390 . S
C1722 H1713 0.930 . S
C1722 C1720 1.384 . S
C1722 C1723 1.372 . S
C1723 C1722 1.372 . S
C1723 C1724 1.400 . S
C1723 C1728 1.490 . S
C1724 H1714 0.930 . S
C1724 C1723 1.400 . S
C1724 C1727 1.386 . S
H1725 C1741 0.930 . S
H1726 C1742 0.931 . S
C1727 H1715 0.929 . S
C1727 C1721 1.390 . S
C1727 C1724 1.386 . S
C1728 C1723 1.490 . S
C1728 C1730 1.395 . S
C1728 C1731 1.403 . S
H1729 C1735 0.930 . S
C1730 H1716 0.930 . S
C1730 C1728 1.395 . S
C1730 C1733 1.403 . S
C1731 C1728 1.403 . S
C1731 C1732 1.524 . S
C1731 C1735 1.400 . S
C1732 H1717 0.960 . S
C1732 H1718 0.960 . S
C1732 H1719 0.960 . S
C1732 C1731 1.524 . S
C1733 C1730 1.403 . S
C1733 C1734 1.392 . S
C1733 C1737 1.495 . S
C1734 C1733 1.392 . S
C1734 C1735 1.385 . S
C1734 C1736 1.478 . S
C1735 H1729 0.930 . S
C1735 C1731 1.400 . S
C1735 C1734 1.385 . S
C1736 C1734 1.478 . S
C1736 C1738 1.381 . S
C1736 C1742 1.383 . S
C1737 C1733 1.495 . S
C1737 H1743 0.959 . S
C1737 H1744 0.961 . S
C1737 H1745 0.960 . S
C1738 C1736 1.381 . S
C1738 C1739 1.394 . S
C1738 H1746 0.930 . S
C1739 C1738 1.394 . S
C1739 C1740 1.391 . S
C1739 H1747 0.929 . S
C1740 C1739 1.391 . S
C1740 C1741 1.386 . S
C1741 H1725 0.930 . S
C1741 C1740 1.386 . S
C1741 C1742 1.379 . S
C1742 H1726 0.931 . S
C1742 C1736 1.383 . S
C1742 C1741 1.379 . S
H1743 C1737 0.959 . S
H1744 C1737 0.961 . S
H1745 C1737 0.960 . S
H1746 C1738 0.930 . S
H1747 C1739 0.929 . S
H1748 C1756 0.929 . S
H1749 C1758 0.930 . S
H1750 C1760 0.930 . S
H1751 C1763 0.929 . S
H1752 C1766 0.930 . S
H1753 C1768 0.960 . S
H1754 C1768 0.960 . S
H1755 C1768 0.960 . S
C1756 H1748 0.929 . S
C1756 C1757 1.377 . S
C1756 C1758 1.384 . S
C1757 C1756 1.377 . S
C1757 C1763 1.390 . S
C1758 H1749 0.930 . S
C1758 C1756 1.384 . S
C1758 C1759 1.372 . S
C1759 C1758 1.372 . S
C1759 C1760 1.400 . S
C1759 C1764 1.490 . S
C1760 H1750 0.930 . S
C1760 C1759 1.400 . S
C1760 C1763 1.386 . S
H1761 C1777 0.930 . S
H1762 C1778 0.931 . S
C1763 H1751 0.929 . S
C1763 C1757 1.390 . S
C1763 C1760 1.386 . S
C1764 C1759 1.490 . S
C1764 C1766 1.395 . S
C1764 C1767 1.403 . S
H1765 C1771 0.930 . S
C1766 H1752 0.930 . S
C1766 C1764 1.395 . S
C1766 C1769 1.403 . S
C1767 C1764 1.403 . S
C1767 C1768 1.524 . S
C1767 C1771 1.400 . S
C1768 H1753 0.960 . S
C1768 H1754 0.960 . S
C1768 H1755 0.960 . S
C1768 C1767 1.524 . S
C1769 C1766 1.403 . S
C1769 C1770 1.392 . S
C1769 C1773 1.495 . S
C1770 C1769 1.392 . S
C1770 C1771 1.385 . S
C1770 C1772 1.478 . S
C1771 H1765 0.930 . S
C1771 C1767 1.400 . S
C1771 C1770 1.385 . S
C1772 C1770 1.478 . S
C1772 C1774 1.381 . S
C1772 C1778 1.383 . S
C1773 C1769 1.495 . S
C1773 H1779 0.959 . S
C1773 H1780 0.961 . S
C1773 H1781 0.960 . S
C1774 C1772 1.381 . S
C1774 C1775 1.394 . S
C1774 H1782 0.930 . S
C1775 C1774 1.394 . S
C1775 C1776 1.383 . S
C1775 H1783 0.929 . S
C1776 C1775 1.383 . S
C1776 C1777 1.377 . S
C1777 H1761 0.930 . S
C1777 C1776 1.377 . S
C1777 C1778 1.379 . S
C1778 H1762 0.931 . S
C1778 C1772 1.383 . S
C1778 C1777 1.379 . S
H1779 C1773 0.959 . S
H1780 C1773 0.961 . S
H1781 C1773 0.960 . S
H1782 C1774 0.930 . S
H1783 C1775 0.929 . S
H1784 C1792 0.929 . S
H1785 C1794 0.930 . S
H1786 C1796 0.930 . S
H1787 C1799 0.929 . S
H1788 C1802 0.930 . S
H1789 C1804 0.960 . S
H1790 C1804 0.960 . S
H1791 C1804 0.960 . S
C1792 H1784 0.929 . S
C1792 C1793 1.377 . S
C1792 C1794 1.384 . S
C1793 C1792 1.377 . S
C1793 C1799 1.390 . S
C1794 H1785 0.930 . S
C1794 C1792 1.384 . S
C1794 C1795 1.372 . S
C1795 C1794 1.372 . S
C1795 C1796 1.400 . S
C1795 C1800 1.490 . S
C1796 H1786 0.930 . S
C1796 C1795 1.400 . S
C1796 C1799 1.386 . S
H1797 C1813 0.930 . S
H1798 C1814 0.931 . S
C1799 H1787 0.929 . S
C1799 C1793 1.390 . S
C1799 C1796 1.386 . S
C1800 C1795 1.490 . S
C1800 C1802 1.395 . S
C1800 C1803 1.403 . S
H1801 C1807 0.930 1_556 S
C1802 H1788 0.930 . S
C1802 C1800 1.395 . S
C1802 C1805 1.403 . S
C1803 C1800 1.403 . S
C1803 C1804 1.524 . S
C1803 C1807 1.400 . S
C1804 H1789 0.960 . S
C1804 H1790 0.960 . S
C1804 H1791 0.960 . S
C1804 C1803 1.524 . S
C1805 C1802 1.403 . S
C1805 C1806 1.392 . S
C1805 C1809 1.495 . S
C1806 C1805 1.392 . S
C1806 C1807 1.385 . S
C1806 C1808 1.478 1_554 S
C1807 H1801 0.930 1_554 S
C1807 C1803 1.400 . S
C1807 C1806 1.385 . S
C1808 C1806 1.478 1_556 S
C1808 C1810 1.381 1_565 S
C1808 C1814 1.383 . S
C1809 C1805 1.495 . S
C1809 H1815 0.959 . S
C1809 H1816 0.961 . S
C1809 H1817 0.980 . S
C1810 C1808 1.381 1_545 S
C1810 C1811 1.394 . S
C1810 H1818 0.930 . S
C1811 C1810 1.394 . S
C1811 C1812 1.420 . S
C1811 H1819 0.929 . S
C1812 C1811 1.420 . S
C1812 C1813 1.315 1_545 S
C1813 H1797 0.930 . S
C1813 C1812 1.315 1_565 S
C1813 C1814 1.379 . S
C1814 H1798 0.931 . S
C1814 C1808 1.383 . S
C1814 C1813 1.379 . S
H1815 C1809 0.959 . S
H1816 C1809 0.961 . S
H1817 C1809 0.980 . S
H1818 C1810 0.930 . S
H1819 C1811 0.929 . S
H1820 C1828 0.929 . S
H1821 C1830 0.930 . S
H1822 C1832 0.930 . S
H1823 C1835 0.929 . S
H1824 C1838 0.930 . S
H1825 C1840 0.960 . S
H1826 C1840 0.960 . S
H1827 C1840 0.960 . S
C1828 H1820 0.929 . S
C1828 C1829 1.377 . S
C1828 C1830 1.384 . S
C1829 C1828 1.377 . S
C1829 C1835 1.390 . S
C1830 H1821 0.930 . S
C1830 C1828 1.384 . S
C1830 C1831 1.372 . S
C1831 C1830 1.372 . S
C1831 C1832 1.400 . S
C1831 C1836 1.490 . S
C1832 H1822 0.930 . S
C1832 C1831 1.400 . S
C1832 C1835 1.386 . S
H1833 C1849 0.930 . S
H1834 C1850 0.931 . S
C1835 H1823 0.929 . S
C1835 C1829 1.390 . S
C1835 C1832 1.386 . S
C1836 C1831 1.490 . S
C1836 C1838 1.395 . S
C1836 C1839 1.403 . S
H1837 C1843 0.930 . S
C1838 H1824 0.930 . S
C1838 C1836 1.395 . S
C1838 C1841 1.403 . S
C1839 C1836 1.403 . S
C1839 C1840 1.524 . S
C1839 C1843 1.400 . S
C1840 H1825 0.960 . S
C1840 H1826 0.960 . S
C1840 H1827 0.960 . S
C1840 C1839 1.524 . S
C1841 C1838 1.403 . S
C1841 C1842 1.392 . S
C1841 C1845 1.495 . S
C1842 C1841 1.392 . S
C1842 C1843 1.385 . S
C1842 C1844 1.478 . S
C1843 H1837 0.930 . S
C1843 C1839 1.400 . S
C1843 C1842 1.385 . S
C1844 C1842 1.478 . S
C1844 C1846 1.381 . S
C1844 C1850 1.383 . S
C1845 C1841 1.495 . S
C1845 H1851 0.959 . S
C1845 H1852 0.961 . S
C1845 H1853 0.960 . S
C1846 C1844 1.381 . S
C1846 C1847 1.394 . S
C1846 H1854 0.930 . S
C1847 C1846 1.394 . S
C1847 C1848 1.383 . S
C1847 H1855 0.929 . S
C1848 C1847 1.383 . S
C1848 C1849 1.377 . S
C1849 H1833 0.930 . S
C1849 C1848 1.377 . S
C1849 C1850 1.379 . S
C1850 H1834 0.931 . S
C1850 C1844 1.383 . S
C1850 C1849 1.379 . S
H1851 C1845 0.959 . S
H1852 C1845 0.961 . S
H1853 C1845 0.960 . S
H1854 C1846 0.930 . S
H1855 C1847 0.929 . S
H1856 C1864 0.929 . S
H1857 C1866 0.930 . S
H1858 C1868 0.930 . S
H1859 C1871 0.929 . S
H1860 C1874 0.930 . S
H1861 C1876 0.960 . S
H1862 C1876 0.960 . S
H1863 C1876 0.960 . S
C1864 H1856 0.929 . S
C1864 C1865 1.377 . S
C1864 C1866 1.384 . S
C1865 C1864 1.377 . S
C1865 C1871 1.390 . S
C1866 H1857 0.930 . S
C1866 C1864 1.384 . S
C1866 C1867 1.372 . S
C1867 C1866 1.372 . S
C1867 C1868 1.400 . S
C1867 C1872 1.490 . S
C1868 H1858 0.930 . S
C1868 C1867 1.400 . S
C1868 C1871 1.386 . S
H1869 C1885 0.930 . S
H1870 C1886 0.931 . S
C1871 H1859 0.929 . S
C1871 C1865 1.390 . S
C1871 C1868 1.386 . S
C1872 C1867 1.490 . S
C1872 C1874 1.395 . S
C1872 C1875 1.403 . S
H1873 C1879 0.930 . S
C1874 H1860 0.930 . S
C1874 C1872 1.395 . S
C1874 C1877 1.403 . S
C1875 C1872 1.403 . S
C1875 C1876 1.524 . S
C1875 C1879 1.400 . S
C1876 H1861 0.960 . S
C1876 H1862 0.960 . S
C1876 H1863 0.960 . S
C1876 C1875 1.524 . S
C1877 C1874 1.403 . S
C1877 C1878 1.392 . S
C1877 C1881 1.495 . S
C1878 C1877 1.392 . S
C1878 C1879 1.385 . S
C1878 C1880 1.478 . S
C1879 H1873 0.930 . S
C1879 C1875 1.400 . S
C1879 C1878 1.385 . S
C1880 C1878 1.478 . S
C1880 C1882 1.381 . S
C1880 C1886 1.383 . S
C1881 C1877 1.495 . S
C1881 H1887 0.959 . S
C1881 H1888 0.961 . S
C1881 H1889 0.960 . S
C1882 C1880 1.381 . S
C1882 C1883 1.394 . S
C1882 H1890 0.930 . S
C1883 C1882 1.394 . S
C1883 C1884 1.383 . S
C1883 H1891 0.929 . S
C1884 C1883 1.383 . S
C1884 C1885 1.377 . S
C1885 H1869 0.930 . S
C1885 C1884 1.377 . S
C1885 C1886 1.379 . S
C1886 H1870 0.931 . S
C1886 C1880 1.383 . S
C1886 C1885 1.379 . S
H1887 C1881 0.959 . S
H1888 C1881 0.961 . S
H1889 C1881 0.960 . S
H1890 C1882 0.930 . S
H1891 C1883 0.929 . S
H1892 C1900 0.929 . S
H1893 C1902 0.930 . S
H1894 C1904 0.930 . S
H1895 C1907 0.929 . S
H1896 C1910 0.930 . S
H1897 C1912 0.960 . S
H1898 C1912 0.960 . S
H1899 C1912 0.960 . S
C1900 H1892 0.929 . S
C1900 C1901 1.377 . S
C1900 C1902 1.384 . S
C1901 C1900 1.377 . S
C1901 C1907 1.390 . S
C1902 H1893 0.930 . S
C1902 C1900 1.384 . S
C1902 C1903 1.372 . S
C1903 C1902 1.372 . S
C1903 C1904 1.400 . S
C1903 C1908 1.490 . S
C1904 H1894 0.930 . S
C1904 C1903 1.400 . S
C1904 C1907 1.386 . S
H1905 C1921 0.930 . S
H1906 C1922 0.931 . S
C1907 H1895 0.929 . S
C1907 C1901 1.390 . S
C1907 C1904 1.386 . S
C1908 C1903 1.490 . S
C1908 C1910 1.395 . S
C1908 C1911 1.403 . S
H1909 C1915 0.930 . S
C1910 H1896 0.930 . S
C1910 C1908 1.395 . S
C1910 C1913 1.403 . S
C1911 C1908 1.403 . S
C1911 C1912 1.524 . S
C1911 C1915 1.400 . S
C1912 H1897 0.960 . S
C1912 H1898 0.960 . S
C1912 H1899 0.960 . S
C1912 C1911 1.524 . S
C1913 C1910 1.403 . S
C1913 C1914 1.392 . S
C1913 C1917 1.495 . S
C1914 C1913 1.392 . S
C1914 C1915 1.385 . S
C1914 C1916 1.478 . S
C1915 H1909 0.930 . S
C1915 C1911 1.400 . S
C1915 C1914 1.385 . S
C1916 C1914 1.478 . S
C1916 C1918 1.381 . S
C1916 C1922 1.383 . S
C1917 C1913 1.495 . S
C1917 H1923 0.959 . S
C1917 H1924 0.961 . S
C1917 H1925 0.960 . S
C1918 C1916 1.381 . S
C1918 C1919 1.394 . S
C1918 H1926 0.930 . S
C1919 C1918 1.394 . S
C1919 C1920 1.383 . S
C1919 H1927 0.929 . S
C1920 C1919 1.383 . S
C1920 C1921 1.377 . S
C1921 H1905 0.930 . S
C1921 C1920 1.377 . S
C1921 C1922 1.379 . S
C1922 H1906 0.931 . S
C1922 C1916 1.383 . S
C1922 C1921 1.379 . S
H1923 C1917 0.959 . S
H1924 C1917 0.961 . S
H1925 C1917 0.960 . S
H1926 C1918 0.930 . S
H1927 C1919 0.929 . S
H1928 C1936 0.929 . S
H1929 C1938 0.930 . S
H1930 C1940 0.930 . S
H1931 C1943 0.929 . S
H1932 C1946 0.930 . S
H1933 C1948 0.960 . S
H1934 C1948 0.960 . S
H1935 C1948 0.960 . S
C1936 H1928 0.929 . S
C1936 C1937 1.377 . S
C1936 C1938 1.384 . S
C1937 C1936 1.377 . S
C1937 C1943 1.390 . S
C1938 H1929 0.930 . S
C1938 C1936 1.384 . S
C1938 C1939 1.372 . S
C1939 C1938 1.372 . S
C1939 C1940 1.400 . S
C1939 C1944 1.490 . S
C1940 H1930 0.930 . S
C1940 C1939 1.400 . S
C1940 C1943 1.386 . S
H1941 C1957 0.930 . S
H1942 C1958 0.931 . S
C1943 H1931 0.929 . S
C1943 C1937 1.390 . S
C1943 C1940 1.386 . S
C1944 C1939 1.490 . S
C1944 C1946 1.395 . S
C1944 C1947 1.403 . S
H1945 C1951 0.930 . S
C1946 H1932 0.930 . S
C1946 C1944 1.395 . S
C1946 C1949 1.403 . S
C1947 C1944 1.403 . S
C1947 C1948 1.524 . S
C1947 C1951 1.400 . S
C1948 H1933 0.960 . S
C1948 H1934 0.960 . S
C1948 H1935 0.960 . S
C1948 C1947 1.524 . S
C1949 C1946 1.403 . S
C1949 C1950 1.392 . S
C1949 C1953 1.495 . S
C1950 C1949 1.392 . S
C1950 C1951 1.385 . S
C1950 C1952 1.478 . S
C1951 H1945 0.930 . S
C1951 C1947 1.400 . S
C1951 C1950 1.385 . S
C1952 C1950 1.478 . S
C1952 C1954 1.381 . S
C1952 C1958 1.383 . S
C1953 C1949 1.495 . S
C1953 H1959 0.959 . S
C1953 H1960 0.961 . S
C1953 H1961 0.960 . S
C1954 C1952 1.381 . S
C1954 C1955 1.394 . S
C1954 H1962 0.930 . S
C1955 C1954 1.394 . S
C1955 C1956 1.383 . S
C1955 H1963 0.929 . S
C1956 C1955 1.383 . S
C1956 C1957 1.377 . S
C1957 H1941 0.930 . S
C1957 C1956 1.377 . S
C1957 C1958 1.379 . S
C1958 H1942 0.931 . S
C1958 C1952 1.383 . S
C1958 C1957 1.379 . S
H1959 C1953 0.959 . S
H1960 C1953 0.961 . S
H1961 C1953 0.960 . S
H1962 C1954 0.930 . S
H1963 C1955 0.929 . S
H1964 C1972 0.929 . S
H1965 C1974 0.930 . S
H1966 C1976 0.930 . S
H1967 C1979 0.929 . S
H1968 C1982 0.932 . S
H1969 C1984 0.960 . S
H1970 C1984 0.960 . S
H1971 C1984 0.960 . S
C1972 H1964 0.929 . S
C1972 C1973 1.377 . S
C1972 C1974 1.384 . S
C1973 C1972 1.377 . S
C1973 C1979 1.390 . S
C1974 H1965 0.930 . S
C1974 C1972 1.384 . S
C1974 C1975 1.372 . S
C1975 C1974 1.372 . S
C1975 C1976 1.400 . S
C1975 C1980 1.490 . S
C1976 H1966 0.930 . S
C1976 C1975 1.400 . S
C1976 C1979 1.386 . S
H1977 C1993 0.930 . S
H1978 C1994 0.931 . S
C1979 H1967 0.929 . S
C1979 C1973 1.390 . S
C1979 C1976 1.386 . S
C1980 C1975 1.490 . S
C1980 C1982 1.395 . S
C1980 C1983 1.403 . S
H1981 C1987 0.930 . S
C1982 H1968 0.932 . S
C1982 C1980 1.395 . S
C1982 C1985 1.403 1_556 S
C1983 C1980 1.403 . S
C1983 C1984 1.524 . S
C1983 C1987 1.400 . S
C1984 H1969 0.960 . S
C1984 H1970 0.960 . S
C1984 H1971 0.960 . S
C1984 C1983 1.524 . S
C1985 C1982 1.403 1_554 S
C1985 C1986 1.392 . S
C1985 C1989 1.495 . S
C1986 C1985 1.392 . S
C1986 C1987 1.385 1_554 S
C1986 C1988 1.478 . S
C1987 H1981 0.930 . S
C1987 C1983 1.400 . S
C1987 C1986 1.385 1_556 S
C1988 C1986 1.478 . S
C1988 C1990 1.381 . S
C1988 C1994 1.383 . S
C1989 C1985 1.495 . S
C1989 H1995 0.959 . S
C1989 H1996 0.961 . S
C1989 H1997 0.960 . S
C1990 C1988 1.381 . S
C1990 C1991 1.394 . S
C1990 H1998 0.930 . S
C1991 C1990 1.394 . S
C1991 C1992 1.383 . S
C1991 H1999 0.929 . S
C1992 C1991 1.383 . S
C1992 C1993 1.377 . S
C1993 H1977 0.930 . S
C1993 C1992 1.377 . S
C1993 C1994 1.379 . S
C1994 H1978 0.931 . S
C1994 C1988 1.383 . S
C1994 C1993 1.379 . S
H1995 C1989 0.959 . S
H1996 C1989 0.961 . S
H1997 C1989 0.960 . S
H1998 C1990 0.930 . S
H1999 C1991 0.929 . S
H2000 C2008 0.929 . S
H2001 C2010 0.930 . S
H2002 C2012 0.930 . S
H2003 C2015 0.929 . S
H2004 C2018 0.930 . S
H2005 C2020 0.960 . S
H2006 C2020 0.960 . S
H2007 C2020 0.960 . S
C2008 H2000 0.929 . S
C2008 C2009 1.377 . S
C2008 C2010 1.384 . S
C2009 C2008 1.377 . S
C2009 C2015 1.390 . S
C2010 H2001 0.930 . S
C2010 C2008 1.384 . S
C2010 C2011 1.372 . S
C2011 C2010 1.372 . S
C2011 C2012 1.400 . S
C2011 C2016 1.490 . S
C2012 H2002 0.930 . S
C2012 C2011 1.400 . S
C2012 C2015 1.386 . S
H2013 C2029 0.930 . S
H2014 C2030 0.931 . S
C2015 H2003 0.929 . S
C2015 C2009 1.390 . S
C2015 C2012 1.386 . S
C2016 C2011 1.490 . S
C2016 C2018 1.395 . S
C2016 C2019 1.403 . S
H2017 C2023 0.930 . S
C2018 H2004 0.930 . S
C2018 C2016 1.395 . S
C2018 C2021 1.403 . S
C2019 C2016 1.403 . S
C2019 C2020 1.524 . S
C2019 C2023 1.400 . S
C2020 H2005 0.960 . S
C2020 H2006 0.960 . S
C2020 H2007 0.960 . S
C2020 C2019 1.524 . S
C2021 C2018 1.403 . S
C2021 C2022 1.392 . S
C2021 C2025 1.495 . S
C2022 C2021 1.392 . S
C2022 C2023 1.385 . S
C2022 C2024 1.478 . S
C2023 H2017 0.930 . S
C2023 C2019 1.400 . S
C2023 C2022 1.385 . S
C2024 C2022 1.478 . S
C2024 C2026 1.381 . S
C2024 C2030 1.383 . S
C2025 C2021 1.495 . S
C2025 H2031 0.959 . S
C2025 H2032 0.961 . S
C2025 H2033 0.960 . S
C2026 C2024 1.381 . S
C2026 C2027 1.394 . S
C2026 H2034 0.930 . S
C2027 C2026 1.394 . S
C2027 C2028 1.383 . S
C2027 H2035 0.929 . S
C2028 C2027 1.383 . S
C2028 C2029 1.377 . S
C2029 H2013 0.930 . S
C2029 C2028 1.377 . S
C2029 C2030 1.379 . S
C2030 H2014 0.931 . S
C2030 C2024 1.383 . S
C2030 C2029 1.379 . S
H2031 C2025 0.959 . S
H2032 C2025 0.961 . S
H2033 C2025 0.960 . S
H2034 C2026 0.930 . S
H2035 C2027 0.929 . S
H2036 C2044 0.929 . S
H2037 C2046 0.930 . S
H2038 C2048 0.930 . S
H2039 C2051 0.929 . S
H2040 C2054 0.930 . S
H2041 C2056 0.960 . S
H2042 C2056 0.960 . S
H2043 C2056 0.960 . S
C2044 H2036 0.929 . S
C2044 C2045 1.377 . S
C2044 C2046 1.384 . S
C2045 C2044 1.377 . S
C2045 C2051 1.390 . S
C2046 H2037 0.930 . S
C2046 C2044 1.384 . S
C2046 C2047 1.372 . S
C2047 C2046 1.372 . S
C2047 C2048 1.400 . S
C2047 C2052 1.490 . S
C2048 H2038 0.930 . S
C2048 C2047 1.400 . S
C2048 C2051 1.386 . S
H2049 C2065 0.930 . S
H2050 C2066 0.931 . S
C2051 H2039 0.929 . S
C2051 C2045 1.390 . S
C2051 C2048 1.386 . S
C2052 C2047 1.490 . S
C2052 C2054 1.395 . S
C2052 C2055 1.403 . S
H2053 C2059 0.930 . S
C2054 H2040 0.930 . S
C2054 C2052 1.395 . S
C2054 C2057 1.403 . S
C2055 C2052 1.403 . S
C2055 C2056 1.524 . S
C2055 C2059 1.400 . S
C2056 H2041 0.960 . S
C2056 H2042 0.960 . S
C2056 H2043 0.960 . S
C2056 C2055 1.524 . S
C2057 C2054 1.403 . S
C2057 C2058 1.392 . S
C2057 C2061 1.495 . S
C2058 C2057 1.392 . S
C2058 C2059 1.385 . S
C2058 C2060 1.478 . S
C2059 H2053 0.930 . S
C2059 C2055 1.400 . S
C2059 C2058 1.385 . S
C2060 C2058 1.478 . S
C2060 C2062 1.381 . S
C2060 C2066 1.383 . S
C2061 C2057 1.495 . S
C2061 H2067 0.959 . S
C2061 H2068 0.961 . S
C2061 H2069 0.960 . S
C2062 C2060 1.381 . S
C2062 C2063 1.394 . S
C2062 H2070 0.930 . S
C2063 C2062 1.394 . S
C2063 C2064 1.383 . S
C2063 H2071 0.929 . S
C2064 C2063 1.383 . S
C2064 C2065 1.377 . S
C2065 H2049 0.930 . S
C2065 C2064 1.377 . S
C2065 C2066 1.379 . S
C2066 H2050 0.931 . S
C2066 C2060 1.383 . S
C2066 C2065 1.379 . S
H2067 C2061 0.959 . S
H2068 C2061 0.961 . S
H2069 C2061 0.960 . S
H2070 C2062 0.930 . S
H2071 C2063 0.929 . S
H2072 C2080 0.929 . S
H2073 C2082 0.930 1_556 S
H2074 C2084 0.930 . S
H2075 C2087 0.929 . S
H2076 C2090 0.930 . S
H2077 C2092 0.960 . S
H2078 C2092 0.960 . S
H2079 C2092 0.960 . S
C2080 H2072 0.929 . S
C2080 C2081 1.377 . S
C2080 C2082 1.384 . S
C2081 C2080 1.377 . S
C2081 C2087 1.390 . S
C2082 H2073 0.930 1_554 S
C2082 C2080 1.384 . S
C2082 C2083 1.372 . S
C2083 C2082 1.372 . S
C2083 C2084 1.400 . S
C2083 C2088 1.490 . S
C2084 H2074 0.930 . S
C2084 C2083 1.400 . S
C2084 C2087 1.386 . S
H2085 C2101 0.930 . S
H2086 C2102 0.931 . S
C2087 H2075 0.929 . S
C2087 C2081 1.390 . S
C2087 C2084 1.386 . S
C2088 C2083 1.490 . S
C2088 C2090 1.395 1_554 S
C2088 C2091 1.403 . S
H2089 C2095 0.930 . S
C2090 H2076 0.930 . S
C2090 C2088 1.395 1_556 S
C2090 C2093 1.403 . S
C2091 C2088 1.403 . S
C2091 C2092 1.523 . S
C2091 C2095 1.401 1_554 S
C2092 H2077 0.960 . S
C2092 H2078 0.960 . S
C2092 H2079 0.960 . S
C2092 C2091 1.523 . S
C2093 C2090 1.403 . S
C2093 C2094 1.392 . S
C2093 C2097 1.495 . S
C2094 C2093 1.392 . S
C2094 C2095 1.385 . S
C2094 C2096 1.478 . S
C2095 H2089 0.930 . S
C2095 C2091 1.401 1_556 S
C2095 C2094 1.385 . S
C2096 C2094 1.478 . S
C2096 C2098 1.381 . S
C2096 C2102 1.383 . S
C2097 C2093 1.495 . S
C2097 H2103 0.959 . S
C2097 H2104 0.961 . S
C2097 H2105 0.960 . S
C2098 C2096 1.381 . S
C2098 C2099 1.394 . S
C2098 H2106 0.930 . S
C2099 C2098 1.394 . S
C2099 C2100 1.383 . S
C2099 H2107 0.929 . S
C2100 C2099 1.383 . S
C2100 C2101 1.377 . S
C2101 H2085 0.930 . S
C2101 C2100 1.377 . S
C2101 C2102 1.379 . S
C2102 H2086 0.931 . S
C2102 C2096 1.383 . S
C2102 C2101 1.379 . S
H2103 C2097 0.959 . S
H2104 C2097 0.961 . S
H2105 C2097 0.960 . S
H2106 C2098 0.930 . S
H2107 C2099 0.929 . S
H2108 C2116 0.929 . S
H2109 C2118 0.930 . S
H2110 C2120 0.930 . S
H2111 C2123 0.929 . S
H2112 C2126 0.930 . S
H2113 C2128 0.960 . S
H2114 C2128 0.960 . S
H2115 C2128 0.960 . S
C2116 H2108 0.929 . S
C2116 C2117 1.377 . S
C2116 C2118 1.384 . S
C2117 C2116 1.377 . S
C2117 C2123 1.390 . S
C2118 H2109 0.930 . S
C2118 C2116 1.384 . S
C2118 C2119 1.372 . S
C2119 C2118 1.372 . S
C2119 C2120 1.400 . S
C2119 C2124 1.490 . S
C2120 H2110 0.930 . S
C2120 C2119 1.400 . S
C2120 C2123 1.386 . S
H2121 C2137 0.930 . S
H2122 C2138 0.931 . S
C2123 H2111 0.929 . S
C2123 C2117 1.390 . S
C2123 C2120 1.386 . S
C2124 C2119 1.490 . S
C2124 C2126 1.395 . S
C2124 C2127 1.403 . S
H2125 C2131 0.930 . S
C2126 H2112 0.930 . S
C2126 C2124 1.395 . S
C2126 C2129 1.403 . S
C2127 C2124 1.403 . S
C2127 C2128 1.524 . S
C2127 C2131 1.400 . S
C2128 H2113 0.960 . S
C2128 H2114 0.960 . S
C2128 H2115 0.960 . S
C2128 C2127 1.524 . S
C2129 C2126 1.403 . S
C2129 C2130 1.392 . S
C2129 C2133 1.495 . S
C2130 C2129 1.392 . S
C2130 C2131 1.385 . S
C2130 C2132 1.478 . S
C2131 H2125 0.930 . S
C2131 C2127 1.400 . S
C2131 C2130 1.385 . S
C2132 C2130 1.478 . S
C2132 C2134 1.381 . S
C2132 C2138 1.383 . S
C2133 C2129 1.495 . S
C2133 H2139 0.959 . S
C2133 H2140 0.961 . S
C2133 H2141 0.960 . S
C2134 C2132 1.381 . S
C2134 C2135 1.394 . S
C2134 H2142 0.930 . S
C2135 C2134 1.394 . S
C2135 C2136 1.383 . S
C2135 H2143 0.929 . S
C2136 C2135 1.383 . S
C2136 C2137 1.377 . S
C2137 H2121 0.930 . S
C2137 C2136 1.377 . S
C2137 C2138 1.379 . S
C2138 H2122 0.931 . S
C2138 C2132 1.383 . S
C2138 C2137 1.379 . S
H2139 C2133 0.959 . S
H2140 C2133 0.961 . S
H2141 C2133 0.960 . S
H2142 C2134 0.930 . S
H2143 C2135 0.929 . S
H2144 C2152 0.929 . S
H2145 C2154 0.930 . S
H2146 C2156 0.930 . S
H2147 C2159 0.929 . S
H2148 C2162 0.930 . S
H2149 C2164 0.960 . S
H2150 C2164 0.960 . S
H2151 C2164 0.960 . S
C2152 H2144 0.929 . S
C2152 C2153 1.377 . S
C2152 C2154 1.384 . S
C2153 C2152 1.377 . S
C2153 C2159 1.390 . S
C2154 H2145 0.930 . S
C2154 C2152 1.384 . S
C2154 C2155 1.372 . S
C2155 C2154 1.372 . S
C2155 C2156 1.400 . S
C2155 C2160 1.490 . S
C2156 H2146 0.930 . S
C2156 C2155 1.400 . S
C2156 C2159 1.386 . S
H2157 C2173 0.930 1_556 S
H2158 C2174 0.931 . S
C2159 H2147 0.929 . S
C2159 C2153 1.390 . S
C2159 C2156 1.386 . S
C2160 C2155 1.490 . S
C2160 C2162 1.395 . S
C2160 C2163 1.403 . S
H2161 C2167 0.930 . S
C2162 H2148 0.930 . S
C2162 C2160 1.395 . S
C2162 C2165 1.403 . S
C2163 C2160 1.403 . S
C2163 C2164 1.524 . S
C2163 C2167 1.400 . S
C2164 H2149 0.960 . S
C2164 H2150 0.960 . S
C2164 H2151 0.960 . S
C2164 C2163 1.524 . S
C2165 C2162 1.403 . S
C2165 C2166 1.392 . S
C2165 C2169 1.495 . S
C2166 C2165 1.392 . S
C2166 C2167 1.385 . S
C2166 C2168 1.478 . S
C2167 H2161 0.930 . S
C2167 C2163 1.400 . S
C2167 C2166 1.385 . S
C2168 C2166 1.478 . S
C2168 C2170 1.381 . S
C2168 C2174 1.383 . S
C2169 C2165 1.495 . S
C2169 H2175 0.959 . S
C2169 H2176 0.961 . S
C2169 H2177 0.960 . S
C2170 C2168 1.381 . S
C2170 C2171 1.394 . S
C2170 H2178 0.930 . S
C2171 C2170 1.394 . S
C2171 C2172 1.383 . S
C2171 H2179 0.929 . S
C2172 C2171 1.383 . S
C2172 C2173 1.377 . S
C2173 H2157 0.930 1_554 S
C2173 C2172 1.377 . S
C2173 C2174 1.379 . S
C2174 H2158 0.931 . S
C2174 C2168 1.383 . S
C2174 C2173 1.379 . S
H2175 C2169 0.959 . S
H2176 C2169 0.961 . S
H2177 C2169 0.960 . S
H2178 C2170 0.930 . S
H2179 C2171 0.929 . S
H2180 C2188 0.929 . S
H2181 C2190 0.930 . S
H2182 C2192 0.930 . S
H2183 C2195 0.929 . S
H2184 C2198 0.930 . S
H2185 C2200 0.960 . S
H2186 C2200 0.960 . S
H2187 C2200 0.960 . S
C2188 H2180 0.929 . S
C2188 C2189 1.377 . S
C2188 C2190 1.384 . S
C2189 C2188 1.377 . S
C2189 C2195 1.390 . S
C2190 H2181 0.930 . S
C2190 C2188 1.384 . S
C2190 C2191 1.372 . S
C2191 C2190 1.372 . S
C2191 C2192 1.400 . S
C2191 C2196 1.490 . S
C2192 H2182 0.930 . S
C2192 C2191 1.400 . S
C2192 C2195 1.386 . S
H2193 C2209 0.930 . S
H2194 C2210 0.931 . S
C2195 H2183 0.929 . S
C2195 C2189 1.390 . S
C2195 C2192 1.386 . S
C2196 C2191 1.490 . S
C2196 C2198 1.395 . S
C2196 C2199 1.403 . S
H2197 C2203 0.930 . S
C2198 H2184 0.930 . S
C2198 C2196 1.395 . S
C2198 C2201 1.403 . S
C2199 C2196 1.403 . S
C2199 C2200 1.524 . S
C2199 C2203 1.400 . S
C2200 H2185 0.960 . S
C2200 H2186 0.960 . S
C2200 H2187 0.960 . S
C2200 C2199 1.524 . S
C2201 C2198 1.403 . S
C2201 C2202 1.392 . S
C2201 C2205 1.495 . S
C2202 C2201 1.392 . S
C2202 C2203 1.385 . S
C2202 C2204 1.478 . S
C2203 H2197 0.930 . S
C2203 C2199 1.400 . S
C2203 C2202 1.385 . S
C2204 C2202 1.478 . S
C2204 C2206 1.381 . S
C2204 C2210 1.383 . S
C2205 C2201 1.495 . S
C2205 H2211 0.959 . S
C2205 H2212 0.961 . S
C2205 H2213 0.960 . S
C2206 C2204 1.381 . S
C2206 C2207 1.394 . S
C2206 H2214 0.930 . S
C2207 C2206 1.394 . S
C2207 C2208 1.383 . S
C2207 H2215 0.929 . S
C2208 C2207 1.383 . S
C2208 C2209 1.377 . S
C2209 H2193 0.930 . S
C2209 C2208 1.377 . S
C2209 C2210 1.379 . S
C2210 H2194 0.931 . S
C2210 C2204 1.383 . S
C2210 C2209 1.379 . S
H2211 C2205 0.959 . S
H2212 C2205 0.961 . S
H2213 C2205 0.960 . S
H2214 C2206 0.930 . S
H2215 C2207 0.929 . S
H2216 C2224 0.929 . S
H2217 C2226 0.930 . S
H2218 C2228 0.930 . S
H2219 C2231 0.929 . S
H2220 C2234 0.930 . S
H2221 C2236 0.960 . S
H2222 C2236 0.960 . S
H2223 C2236 0.960 . S
C2224 H2216 0.929 . S
C2224 C2225 1.377 . S
C2224 C2226 1.384 . S
C2225 C2224 1.377 . S
C2225 C2231 1.390 . S
C2226 H2217 0.930 . S
C2226 C2224 1.384 . S
C2226 C2227 1.372 . S
C2227 C2226 1.372 . S
C2227 C2228 1.400 . S
C2227 C2232 1.490 . S
C2228 H2218 0.930 . S
C2228 C2227 1.400 . S
C2228 C2231 1.386 . S
H2229 C2245 0.930 . S
H2230 C2246 0.931 . S
C2231 H2219 0.929 . S
C2231 C2225 1.390 . S
C2231 C2228 1.386 . S
C2232 C2227 1.490 . S
C2232 C2234 1.395 . S
C2232 C2235 1.403 . S
H2233 C2239 0.930 . S
C2234 H2220 0.930 . S
C2234 C2232 1.395 . S
C2234 C2237 1.403 . S
C2235 C2232 1.403 . S
C2235 C2236 1.524 . S
C2235 C2239 1.400 . S
C2236 H2221 0.960 . S
C2236 H2222 0.960 . S
C2236 H2223 0.960 . S
C2236 C2235 1.524 . S
C2237 C2234 1.403 . S
C2237 C2238 1.392 . S
C2237 C2241 1.495 . S
C2238 C2237 1.392 . S
C2238 C2239 1.385 . S
C2238 C2240 1.478 . S
C2239 H2233 0.930 . S
C2239 C2235 1.400 . S
C2239 C2238 1.385 . S
C2240 C2238 1.478 . S
C2240 C2242 1.381 . S
C2240 C2246 1.383 . S
C2241 C2237 1.495 . S
C2241 H2247 0.959 . S
C2241 H2248 0.961 . S
C2241 H2249 0.960 . S
C2242 C2240 1.381 . S
C2242 C2243 1.394 . S
C2242 H2250 0.930 . S
C2243 C2242 1.394 . S
C2243 C2244 1.383 . S
C2243 H2251 0.929 . S
C2244 C2243 1.383 . S
C2244 C2245 1.377 . S
C2245 H2229 0.930 . S
C2245 C2244 1.377 . S
C2245 C2246 1.379 . S
C2246 H2230 0.931 . S
C2246 C2240 1.383 . S
C2246 C2245 1.379 . S
H2247 C2241 0.959 . S
H2248 C2241 0.961 . S
H2249 C2241 0.960 . S
H2250 C2242 0.930 . S
H2251 C2243 0.929 . S
H2252 C2260 0.929 . S
H2253 C2262 0.930 . S
H2254 C2264 0.930 . S
H2255 C2267 0.929 . S
H2256 C2270 0.930 . S
H2257 C2272 0.960 . S
H2258 C2272 0.960 . S
H2259 C2272 0.960 . S
C2260 H2252 0.929 . S
C2260 C2261 1.377 . S
C2260 C2262 1.384 . S
C2261 C2260 1.377 . S
C2261 C2267 1.390 . S
C2262 H2253 0.930 . S
C2262 C2260 1.384 . S
C2262 C2263 1.372 . S
C2263 C2262 1.372 . S
C2263 C2264 1.400 . S
C2263 C2268 1.490 . S
C2264 H2254 0.930 . S
C2264 C2263 1.400 . S
C2264 C2267 1.386 . S
H2265 C2281 0.930 . S
H2266 C2282 0.931 . S
C2267 H2255 0.929 . S
C2267 C2261 1.390 . S
C2267 C2264 1.386 . S
C2268 C2263 1.490 . S
C2268 C2270 1.395 . S
C2268 C2271 1.403 . S
H2269 C2275 0.930 . S
C2270 H2256 0.930 . S
C2270 C2268 1.395 . S
C2270 C2273 1.403 . S
C2271 C2268 1.403 . S
C2271 C2272 1.524 . S
C2271 C2275 1.400 . S
C2272 H2257 0.960 . S
C2272 H2258 0.960 . S
C2272 H2259 0.960 . S
C2272 C2271 1.524 . S
C2273 C2270 1.403 . S
C2273 C2274 1.392 . S
C2273 C2277 1.495 . S
C2274 C2273 1.392 . S
C2274 C2275 1.385 . S
C2274 C2276 1.478 . S
C2275 H2269 0.930 . S
C2275 C2271 1.400 . S
C2275 C2274 1.385 . S
C2276 C2274 1.478 . S
C2276 C2278 1.381 . S
C2276 C2282 1.383 . S
C2277 C2273 1.495 . S
C2277 H2283 0.959 . S
C2277 H2284 0.961 . S
C2277 H2285 0.960 . S
C2278 C2276 1.381 . S
C2278 C2279 1.394 . S
C2278 H2286 0.930 . S
C2279 C2278 1.394 . S
C2279 C2280 1.383 . S
C2279 H2287 0.929 . S
C2280 C2279 1.383 . S
C2280 C2281 1.377 . S
C2281 H2265 0.930 . S
C2281 C2280 1.377 . S
C2281 C2282 1.379 . S
C2282 H2266 0.931 . S
C2282 C2276 1.383 . S
C2282 C2281 1.379 . S
H2283 C2277 0.959 . S
H2284 C2277 0.961 . S
H2285 C2277 0.960 . S
H2286 C2278 0.930 . S
H2287 C2279 0.929 . S
H2288 C2296 0.929 . S
H2289 C2298 0.930 . S
H2290 C2300 0.930 . S
H2291 C2303 0.929 . S
H2292 C2306 0.930 . S
H2293 C2308 0.960 . S
H2294 C2308 0.960 . S
H2295 C2308 0.960 . S
C2296 H2288 0.929 . S
C2296 C2297 1.377 . S
C2296 C2298 1.384 . S
C2297 C2296 1.377 . S
C2297 C2303 1.390 . S
C2298 H2289 0.930 . S
C2298 C2296 1.384 . S
C2298 C2299 1.372 . S
C2299 C2298 1.372 . S
C2299 C2300 1.400 . S
C2299 C2304 1.490 . S
C2300 H2290 0.930 . S
C2300 C2299 1.400 . S
C2300 C2303 1.386 . S
H2301 C2317 0.930 . S
H2302 C2318 0.931 . S
C2303 H2291 0.929 . S
C2303 C2297 1.390 . S
C2303 C2300 1.386 . S
C2304 C2299 1.490 . S
C2304 C2306 1.395 . S
C2304 C2307 1.403 . S
H2305 C2311 0.930 . S
C2306 H2292 0.930 . S
C2306 C2304 1.395 . S
C2306 C2309 1.403 . S
C2307 C2304 1.403 . S
C2307 C2308 1.524 . S
C2307 C2311 1.400 . S
C2308 H2293 0.960 . S
C2308 H2294 0.960 . S
C2308 H2295 0.960 . S
C2308 C2307 1.524 . S
C2309 C2306 1.403 . S
C2309 C2310 1.392 . S
C2309 C2313 1.495 . S
C2310 C2309 1.392 . S
C2310 C2311 1.385 . S
C2310 C2312 1.478 . S
C2311 H2305 0.930 . S
C2311 C2307 1.400 . S
C2311 C2310 1.385 . S
C2312 C2310 1.478 . S
C2312 C2314 1.381 . S
C2312 C2318 1.383 . S
C2313 C2309 1.495 . S
C2313 H2319 0.959 . S
C2313 H2320 0.961 . S
C2313 H2321 0.960 . S
C2314 C2312 1.381 . S
C2314 C2315 1.394 . S
C2314 H2322 0.930 . S
C2315 C2314 1.394 . S
C2315 C2316 1.383 . S
C2315 H2323 0.929 . S
C2316 C2315 1.383 . S
C2316 C2317 1.377 . S
C2317 H2301 0.930 . S
C2317 C2316 1.377 . S
C2317 C2318 1.379 . S
C2318 H2302 0.931 . S
C2318 C2312 1.383 . S
C2318 C2317 1.379 . S
H2319 C2313 0.959 . S
H2320 C2313 0.961 . S
H2321 C2313 0.960 . S
H2322 C2314 0.930 . S
H2323 C2315 0.929 . S
H2324 C2332 0.929 . S
H2325 C2334 0.930 . S
H2326 C2336 0.930 . S
H2327 C2339 0.929 . S
H2328 C2342 0.930 . S
H2329 C2344 0.960 . S
H2330 C2344 0.960 . S
H2331 C2344 0.960 . S
C2332 H2324 0.929 . S
C2332 C2333 1.377 . S
C2332 C2334 1.384 . S
C2333 C2332 1.377 . S
C2333 C2339 1.390 . S
C2334 H2325 0.930 . S
C2334 C2332 1.384 . S
C2334 C2335 1.372 . S
C2335 C2334 1.372 . S
C2335 C2336 1.400 . S
C2335 C2340 1.490 . S
C2336 H2326 0.930 . S
C2336 C2335 1.400 . S
C2336 C2339 1.386 . S
H2337 C2353 0.930 . S
H2338 C2354 0.931 . S
C2339 H2327 0.929 . S
C2339 C2333 1.390 . S
C2339 C2336 1.386 . S
C2340 C2335 1.490 . S
C2340 C2342 1.395 . S
C2340 C2343 1.403 . S
H2341 C2347 0.930 . S
C2342 H2328 0.930 . S
C2342 C2340 1.395 . S
C2342 C2345 1.403 . S
C2343 C2340 1.403 . S
C2343 C2344 1.524 . S
C2343 C2347 1.400 . S
C2344 H2329 0.960 . S
C2344 H2330 0.960 . S
C2344 H2331 0.960 . S
C2344 C2343 1.524 . S
C2345 C2342 1.403 . S
C2345 C2346 1.392 . S
C2345 C2349 1.495 . S
C2346 C2345 1.392 . S
C2346 C2347 1.385 . S
C2346 C2348 1.478 . S
C2347 H2341 0.930 . S
C2347 C2343 1.400 . S
C2347 C2346 1.385 . S
C2348 C2346 1.478 . S
C2348 C2350 1.381 . S
C2348 C2354 1.383 . S
C2349 C2345 1.495 . S
C2349 H2355 0.959 . S
C2349 H2356 0.961 . S
C2349 H2357 0.960 . S
C2350 C2348 1.381 . S
C2350 C2351 1.394 . S
C2350 H2358 0.930 . S
C2351 C2350 1.394 . S
C2351 C2352 1.383 . S
C2351 H2359 0.929 . S
C2352 C2351 1.383 . S
C2352 C2353 1.377 . S
C2353 H2337 0.930 . S
C2353 C2352 1.377 . S
C2353 C2354 1.379 . S
C2354 H2338 0.931 . S
C2354 C2348 1.383 . S
C2354 C2353 1.379 . S
H2355 C2349 0.959 . S
H2356 C2349 0.961 . S
H2357 C2349 0.960 . S
H2358 C2350 0.930 . S
H2359 C2351 0.929 . S
H2360 C2368 0.929 . S
H2361 C2370 0.930 . S
H2362 C2372 0.930 . S
H2363 C2375 0.929 . S
H2364 C2378 0.930 . S
H2365 C2380 0.960 . S
H2366 C2380 0.960 . S
H2367 C2380 0.960 . S
C2368 H2360 0.929 . S
C2368 C2369 1.377 . S
C2368 C2370 1.384 . S
C2369 C2368 1.377 . S
C2369 C2375 1.390 . S
C2370 H2361 0.930 . S
C2370 C2368 1.384 . S
C2370 C2371 1.372 . S
C2371 C2370 1.372 . S
C2371 C2372 1.400 . S
C2371 C2376 1.490 . S
C2372 H2362 0.930 . S
C2372 C2371 1.400 . S
C2372 C2375 1.386 . S
H2373 C2389 0.930 . S
H2374 C2390 0.931 . S
C2375 H2363 0.929 . S
C2375 C2369 1.390 . S
C2375 C2372 1.386 . S
C2376 C2371 1.490 . S
C2376 C2378 1.395 . S
C2376 C2379 1.403 . S
H2377 C2383 0.930 . S
C2378 H2364 0.930 . S
C2378 C2376 1.395 . S
C2378 C2381 1.403 . S
C2379 C2376 1.403 . S
C2379 C2380 1.524 . S
C2379 C2383 1.400 . S
C2380 H2365 0.960 . S
C2380 H2366 0.960 . S
C2380 H2367 0.960 . S
C2380 C2379 1.524 . S
C2381 C2378 1.403 . S
C2381 C2382 1.392 . S
C2381 C2385 1.495 . S
C2382 C2381 1.392 . S
C2382 C2383 1.385 . S
C2382 C2384 1.478 . S
C2383 H2377 0.930 . S
C2383 C2379 1.400 . S
C2383 C2382 1.385 . S
C2384 C2382 1.478 . S
C2384 C2386 1.381 . S
C2384 C2390 1.383 . S
C2385 C2381 1.495 . S
C2385 H2391 0.959 . S
C2385 H2392 0.961 . S
C2385 H2393 0.960 . S
C2386 C2384 1.381 . S
C2386 C2387 1.394 . S
C2386 H2394 0.930 . S
C2387 C2386 1.394 . S
C2387 C2388 1.383 . S
C2387 H2395 0.929 . S
C2388 C2387 1.383 . S
C2388 C2389 1.377 . S
C2389 H2373 0.930 . S
C2389 C2388 1.377 . S
C2389 C2390 1.379 . S
C2390 H2374 0.931 . S
C2390 C2384 1.383 . S
C2390 C2389 1.379 . S
H2391 C2385 0.959 . S
H2392 C2385 0.961 . S
H2393 C2385 0.960 . S
H2394 C2386 0.930 . S
H2395 C2387 0.929 . S
H2396 C2404 0.929 . S
H2397 C2406 0.930 . S
H2398 C2408 0.930 . S
H2399 C2411 0.929 . S
H2400 C2414 0.930 . S
H2401 C2416 0.960 . S
H2402 C2416 0.960 . S
H2403 C2416 0.960 . S
C2404 H2396 0.929 . S
C2404 C2405 1.377 . S
C2404 C2406 1.384 . S
C2405 C2404 1.377 . S
C2405 C2411 1.390 . S
C2406 H2397 0.930 . S
C2406 C2404 1.384 . S
C2406 C2407 1.372 . S
C2407 C2406 1.372 . S
C2407 C2408 1.400 . S
C2407 C2412 1.490 . S
C2408 H2398 0.930 . S
C2408 C2407 1.400 . S
C2408 C2411 1.386 . S
H2409 C2425 0.930 . S
H2410 C2426 0.931 . S
C2411 H2399 0.929 . S
C2411 C2405 1.390 . S
C2411 C2408 1.386 . S
C2412 C2407 1.490 . S
C2412 C2414 1.395 . S
C2412 C2415 1.403 . S
H2413 C2419 0.930 . S
C2414 H2400 0.930 . S
C2414 C2412 1.395 . S
C2414 C2417 1.403 . S
C2415 C2412 1.403 . S
C2415 C2416 1.524 . S
C2415 C2419 1.400 . S
C2416 H2401 0.960 . S
C2416 H2402 0.960 . S
C2416 H2403 0.960 . S
C2416 C2415 1.524 . S
C2417 C2414 1.403 . S
C2417 C2418 1.392 . S
C2417 C2421 1.495 . S
C2418 C2417 1.392 . S
C2418 C2419 1.385 . S
C2418 C2420 1.478 . S
C2419 H2413 0.930 . S
C2419 C2415 1.400 . S
C2419 C2418 1.385 . S
C2420 C2418 1.478 . S
C2420 C2422 1.381 . S
C2420 C2426 1.383 . S
C2421 C2417 1.495 . S
C2421 H2427 0.959 . S
C2421 H2428 0.961 . S
C2421 H2429 0.960 . S
C2422 C2420 1.381 . S
C2422 C2423 1.394 . S
C2422 H2430 0.930 . S
C2423 C2422 1.394 . S
C2423 C2424 1.383 . S
C2423 H2431 0.929 . S
C2424 C2423 1.383 . S
C2424 C2425 1.377 . S
C2425 H2409 0.930 . S
C2425 C2424 1.377 . S
C2425 C2426 1.379 . S
C2426 H2410 0.931 . S
C2426 C2420 1.383 . S
C2426 C2425 1.379 . S
H2427 C2421 0.959 . S
H2428 C2421 0.961 . S
H2429 C2421 0.960 . S
H2430 C2422 0.930 . S
H2431 C2423 0.929 . S
H2432 C2440 0.929 . S
H2433 C2442 0.930 . S
H2434 C2444 0.930 . S
H2435 C2447 0.929 . S
H2436 C2450 0.930 . S
H2437 C2452 0.960 . S
H2438 C2452 0.960 . S
H2439 C2452 0.960 . S
C2440 H2432 0.929 . S
C2440 C2441 1.377 . S
C2440 C2442 1.384 . S
C2441 C2440 1.377 . S
C2441 C2447 1.390 . S
C2442 H2433 0.930 . S
C2442 C2440 1.384 . S
C2442 C2443 1.372 . S
C2443 C2442 1.372 . S
C2443 C2444 1.400 . S
C2443 C2448 1.490 . S
C2444 H2434 0.930 . S
C2444 C2443 1.400 . S
C2444 C2447 1.386 . S
H2445 C2461 0.930 . S
H2446 C2462 0.931 . S
C2447 H2435 0.929 . S
C2447 C2441 1.390 . S
C2447 C2444 1.386 . S
C2448 C2443 1.490 . S
C2448 C2450 1.395 . S
C2448 C2451 1.403 . S
H2449 C2455 0.930 . S
C2450 H2436 0.930 . S
C2450 C2448 1.395 . S
C2450 C2453 1.403 1_655 S
C2451 C2448 1.403 . S
C2451 C2452 1.524 . S
C2451 C2455 1.400 1_655 S
C2452 H2437 0.960 . S
C2452 H2438 0.960 . S
C2452 H2439 0.960 . S
C2452 C2451 1.524 . S
C2453 C2450 1.403 1_455 S
C2453 C2454 1.392 . S
C2453 C2457 1.495 . S
C2454 C2453 1.392 . S
C2454 C2455 1.385 . S
C2454 C2456 1.478 . S
C2455 H2449 0.930 . S
C2455 C2451 1.400 1_455 S
C2455 C2454 1.385 . S
C2456 C2454 1.478 . S
C2456 C2458 1.381 . S
C2456 C2462 1.383 . S
C2457 C2453 1.495 . S
C2457 H2463 0.959 . S
C2457 H2464 0.961 . S
C2457 H2465 0.960 . S
C2458 C2456 1.381 . S
C2458 C2459 1.394 . S
C2458 H2466 0.930 . S
C2459 C2458 1.394 . S
C2459 C2460 1.383 . S
C2459 H2467 0.929 . S
C2460 C2459 1.383 . S
C2460 C2461 1.377 . S
C2461 H2445 0.930 . S
C2461 C2460 1.377 . S
C2461 C2462 1.379 . S
C2462 H2446 0.931 . S
C2462 C2456 1.383 . S
C2462 C2461 1.379 . S
H2463 C2457 0.959 . S
H2464 C2457 0.961 . S
H2465 C2457 0.960 . S
H2466 C2458 0.930 . S
H2467 C2459 0.929 . S
H2468 C2476 0.929 . S
H2469 C2478 0.930 . S
H2470 C2480 0.930 . S
H2471 C2483 0.929 . S
H2472 C2486 0.930 . S
H2473 C2488 0.960 . S
H2474 C2488 0.960 . S
H2475 C2488 0.960 . S
C2476 H2468 0.929 . S
C2476 C2477 1.377 . S
C2476 C2478 1.384 . S
C2477 C2476 1.377 . S
C2477 C2483 1.390 . S
C2478 H2469 0.930 . S
C2478 C2476 1.384 . S
C2478 C2479 1.372 . S
C2479 C2478 1.372 . S
C2479 C2480 1.400 . S
C2479 C2484 1.490 . S
C2480 H2470 0.930 . S
C2480 C2479 1.400 . S
C2480 C2483 1.386 . S
H2481 C2497 0.930 . S
H2482 C2498 0.931 . S
C2483 H2471 0.929 . S
C2483 C2477 1.390 . S
C2483 C2480 1.386 . S
C2484 C2479 1.490 . S
C2484 C2486 1.395 . S
C2484 C2487 1.403 . S
H2485 C2491 0.930 . S
C2486 H2472 0.930 . S
C2486 C2484 1.395 . S
C2486 C2489 1.403 . S
C2487 C2484 1.403 . S
C2487 C2488 1.524 . S
C2487 C2491 1.400 . S
C2488 H2473 0.960 . S
C2488 H2474 0.960 . S
C2488 H2475 0.960 . S
C2488 C2487 1.524 . S
C2489 C2486 1.403 . S
C2489 C2490 1.392 . S
C2489 C2493 1.495 . S
C2490 C2489 1.392 . S
C2490 C2491 1.385 . S
C2490 C2492 1.478 . S
C2491 H2485 0.930 . S
C2491 C2487 1.400 . S
C2491 C2490 1.385 . S
C2492 C2490 1.478 . S
C2492 C2494 1.381 . S
C2492 C2498 1.383 . S
C2493 C2489 1.495 . S
C2493 H2499 0.959 . S
C2493 H2500 0.961 . S
C2493 H2501 0.960 . S
C2494 C2492 1.381 . S
C2494 C2495 1.394 . S
C2494 H2502 0.930 . S
C2495 C2494 1.394 . S
C2495 C2496 1.383 . S
C2495 H2503 0.929 . S
C2496 C2495 1.383 . S
C2496 C2497 1.377 . S
C2497 H2481 0.930 . S
C2497 C2496 1.377 . S
C2497 C2498 1.379 . S
C2498 H2482 0.931 . S
C2498 C2492 1.383 . S
C2498 C2497 1.379 . S
H2499 C2493 0.959 . S
H2500 C2493 0.961 . S
H2501 C2493 0.960 . S
H2502 C2494 0.930 . S
H2503 C2495 0.929 . S
H2504 C2512 0.929 . S
H2505 C2514 0.930 . S
H2506 C2516 0.930 . S
H2507 C2519 0.929 . S
H2508 C2522 0.930 . S
H2509 C2524 0.960 . S
H2510 C2524 0.960 . S
H2511 C2524 0.960 . S
C2512 H2504 0.929 . S
C2512 C2513 1.377 . S
C2512 C2514 1.384 . S
C2513 C2512 1.377 . S
C2513 C2519 1.390 . S
C2514 H2505 0.930 . S
C2514 C2512 1.384 . S
C2514 C2515 1.372 . S
C2515 C2514 1.372 . S
C2515 C2516 1.400 . S
C2515 C2520 1.490 . S
C2516 H2506 0.930 . S
C2516 C2515 1.400 . S
C2516 C2519 1.386 . S
H2517 C2533 0.930 . S
H2518 C2534 0.931 . S
C2519 H2507 0.929 . S
C2519 C2513 1.390 . S
C2519 C2516 1.386 . S
C2520 C2515 1.490 . S
C2520 C2522 1.395 . S
C2520 C2523 1.403 . S
H2521 C2527 0.930 . S
C2522 H2508 0.930 . S
C2522 C2520 1.395 . S
C2522 C2525 1.403 . S
C2523 C2520 1.403 . S
C2523 C2524 1.524 . S
C2523 C2527 1.400 . S
C2524 H2509 0.960 . S
C2524 H2510 0.960 . S
C2524 H2511 0.960 . S
C2524 C2523 1.524 . S
C2525 C2522 1.403 . S
C2525 C2526 1.392 . S
C2525 C2529 1.495 . S
C2526 C2525 1.392 . S
C2526 C2527 1.385 . S
C2526 C2528 1.478 . S
C2527 H2521 0.930 . S
C2527 C2523 1.400 . S
C2527 C2526 1.385 . S
C2528 C2526 1.478 . S
C2528 C2530 1.381 . S
C2528 C2534 1.383 . S
C2529 C2525 1.495 . S
C2529 H2535 0.959 . S
C2529 H2536 0.961 . S
C2529 H2537 0.960 . S
C2530 C2528 1.381 . S
C2530 C2531 1.394 . S
C2530 H2538 0.930 . S
C2531 C2530 1.394 . S
C2531 C2532 1.383 . S
C2531 H2539 0.929 . S
C2532 C2531 1.383 . S
C2532 C2533 1.377 . S
C2533 H2517 0.930 . S
C2533 C2532 1.377 . S
C2533 C2534 1.379 . S
C2534 H2518 0.931 . S
C2534 C2528 1.383 . S
C2534 C2533 1.379 . S
H2535 C2529 0.959 . S
H2536 C2529 0.961 . S
H2537 C2529 0.960 . S
H2538 C2530 0.930 . S
H2539 C2531 0.929 . S
H2540 C2548 0.929 . S
H2541 C2550 0.930 . S
H2542 C2552 0.930 . S
H2543 C2555 0.929 . S
H2544 C2558 0.930 . S
H2545 C2560 0.960 . S
H2546 C2560 0.960 . S
H2547 C2560 0.960 . S
C2548 H2540 0.929 . S
C2548 C2549 1.377 . S
C2548 C2550 1.384 . S
C2549 C2548 1.377 . S
C2549 C2555 1.390 . S
C2550 H2541 0.930 . S
C2550 C2548 1.384 . S
C2550 C2551 1.372 . S
C2551 C2550 1.372 . S
C2551 C2552 1.400 . S
C2551 C2556 1.490 . S
C2552 H2542 0.930 . S
C2552 C2551 1.400 . S
C2552 C2555 1.386 . S
H2553 C2569 0.930 . S
H2554 C2570 0.931 . S
C2555 H2543 0.929 . S
C2555 C2549 1.390 . S
C2555 C2552 1.386 . S
C2556 C2551 1.490 . S
C2556 C2558 1.395 . S
C2556 C2559 1.403 . S
H2557 C2563 0.930 . S
C2558 H2544 0.930 . S
C2558 C2556 1.395 . S
C2558 C2561 1.403 . S
C2559 C2556 1.403 . S
C2559 C2560 1.524 . S
C2559 C2563 1.400 . S
C2560 H2545 0.960 . S
C2560 H2546 0.960 . S
C2560 H2547 0.960 . S
C2560 C2559 1.524 . S
C2561 C2558 1.403 . S
C2561 C2562 1.392 . S
C2561 C2565 1.495 . S
C2562 C2561 1.392 . S
C2562 C2563 1.385 . S
C2562 C2564 1.478 . S
C2563 H2557 0.930 . S
C2563 C2559 1.400 . S
C2563 C2562 1.385 . S
C2564 C2562 1.478 . S
C2564 C2566 1.381 . S
C2564 C2570 1.383 . S
C2565 C2561 1.495 . S
C2565 H2571 0.959 . S
C2565 H2572 0.961 . S
C2565 H2573 0.960 . S
C2566 C2564 1.381 . S
C2566 C2567 1.394 . S
C2566 H2574 0.930 . S
C2567 C2566 1.394 . S
C2567 C2568 1.383 . S
C2567 H2575 0.929 1_556 S
C2568 C2567 1.383 . S
C2568 C2569 1.377 . S
C2569 H2553 0.930 . S
C2569 C2568 1.377 . S
C2569 C2570 1.379 . S
C2570 H2554 0.931 . S
C2570 C2564 1.383 . S
C2570 C2569 1.379 . S
H2571 C2565 0.959 . S
H2572 C2565 0.961 . S
H2573 C2565 0.960 . S
H2574 C2566 0.930 . S
H2575 C2567 0.929 1_554 S
H2576 C2584 0.929 . S
H2577 C2586 0.930 . S
H2578 C2588 0.930 . S
H2579 C2591 0.929 . S
H2580 C2594 0.930 . S
H2581 C2596 0.960 1_455 S
H2582 C2596 0.960 . S
H2583 C2596 0.960 . S
C2584 H2576 0.929 . S
C2584 C2585 1.377 . S
C2584 C2586 1.384 . S
C2585 C2584 1.377 . S
C2585 C2591 1.390 . S
C2586 H2577 0.930 . S
C2586 C2584 1.384 . S
C2586 C2587 1.372 . S
C2587 C2586 1.372 . S
C2587 C2588 1.400 . S
C2587 C2592 1.490 . S
C2588 H2578 0.930 . S
C2588 C2587 1.400 . S
C2588 C2591 1.386 . S
H2589 C2605 0.930 . S
H2590 C2606 0.931 . S
C2591 H2579 0.929 . S
C2591 C2585 1.390 . S
C2591 C2588 1.386 . S
C2592 C2587 1.490 . S
C2592 C2594 1.395 . S
C2592 C2595 1.403 . S
H2593 C2599 0.930 . S
C2594 H2580 0.930 . S
C2594 C2592 1.395 . S
C2594 C2597 1.403 1_655 S
C2595 C2592 1.403 . S
C2595 C2596 1.524 . S
C2595 C2599 1.400 1_655 S
C2596 H2581 0.960 1_655 S
C2596 H2582 0.960 . S
C2596 H2583 0.960 . S
C2596 C2595 1.524 . S
C2597 C2594 1.403 1_455 S
C2597 C2598 1.392 . S
C2597 C2601 1.495 . S
C2598 C2597 1.392 . S
C2598 C2599 1.385 . S
C2598 C2600 1.478 . S
C2599 H2593 0.930 . S
C2599 C2595 1.400 1_455 S
C2599 C2598 1.385 . S
C2600 C2598 1.478 . S
C2600 C2602 1.381 . S
C2600 C2606 1.383 . S
C2601 C2597 1.495 . S
C2601 H2607 0.969 . S
C2601 H2608 0.961 . S
C2601 H2609 0.960 . S
C2602 C2600 1.381 . S
C2602 C2603 1.394 . S
C2602 H2610 0.930 . S
C2603 C2602 1.394 . S
C2603 C2604 1.383 . S
C2603 H2611 0.929 . S
C2604 C2603 1.383 . S
C2604 C2605 1.377 . S
C2605 H2589 0.930 . S
C2605 C2604 1.377 . S
C2605 C2606 1.379 . S
C2606 H2590 0.931 . S
C2606 C2600 1.383 . S
C2606 C2605 1.379 . S
H2607 C2601 0.969 . S
H2608 C2601 0.961 . S
H2609 C2601 0.960 . S
H2610 C2602 0.930 . S
H2611 C2603 0.929 . S
H2612 C2620 0.929 . S
H2613 C2622 0.930 . S
H2614 C2624 0.930 . S
H2615 C2627 0.929 1_554 S
H2616 C2630 0.930 . S
H2617 C2632 0.960 . S
H2618 C2632 0.960 . S
H2619 C2632 0.960 . S
C2620 H2612 0.929 . S
C2620 C2621 1.377 . S
C2620 C2622 1.384 . S
C2621 C2620 1.377 . S
C2621 C2627 1.390 . S
C2622 H2613 0.930 . S
C2622 C2620 1.384 . S
C2622 C2623 1.372 . S
C2623 C2622 1.372 . S
C2623 C2624 1.400 . S
C2623 C2628 1.490 . S
C2624 H2614 0.930 . S
C2624 C2623 1.400 . S
C2624 C2627 1.386 . S
H2625 C2641 0.930 . S
H2626 C2642 0.931 . S
C2627 H2615 0.929 1_556 S
C2627 C2621 1.390 . S
C2627 C2624 1.386 . S
C2628 C2623 1.490 . S
C2628 C2630 1.395 . S
C2628 C2631 1.403 . S
H2629 C2635 0.930 . S
C2630 H2616 0.930 . S
C2630 C2628 1.395 . S
C2630 C2633 1.403 . S
C2631 C2628 1.403 . S
C2631 C2632 1.524 . S
C2631 C2635 1.400 . S
C2632 H2617 0.960 . S
C2632 H2618 0.960 . S
C2632 H2619 0.960 . S
C2632 C2631 1.524 . S
C2633 C2630 1.403 . S
C2633 C2634 1.392 . S
C2633 C2637 1.495 . S
C2634 C2633 1.392 . S
C2634 C2635 1.385 . S
C2634 C2636 1.478 . S
C2635 H2629 0.930 . S
C2635 C2631 1.400 . S
C2635 C2634 1.385 . S
C2636 C2634 1.478 . S
C2636 C2638 1.381 . S
C2636 C2642 1.383 . S
C2637 C2633 1.495 . S
C2637 H2643 0.959 . S
C2637 H2644 0.961 . S
C2637 H2645 0.960 . S
C2638 C2636 1.381 . S
C2638 C2639 1.394 . S
C2638 H2646 0.930 . S
C2639 C2638 1.394 . S
C2639 C2640 1.383 . S
C2639 H2647 0.929 . S
C2640 C2639 1.383 . S
C2640 C2641 1.377 . S
C2641 H2625 0.930 . S
C2641 C2640 1.377 . S
C2641 C2642 1.379 . S
C2642 H2626 0.931 . S
C2642 C2636 1.383 . S
C2642 C2641 1.379 . S
H2643 C2637 0.959 . S
H2644 C2637 0.961 . S
H2645 C2637 0.960 . S
H2646 C2638 0.930 . S
H2647 C2639 0.929 . S
H2648 C2656 0.929 . S
H2649 C2658 0.930 . S
H2650 C2660 0.930 . S
H2651 C2663 0.929 . S
H2652 C2666 0.930 . S
H2653 C2668 0.960 . S
H2654 C2668 0.960 . S
H2655 C2668 0.960 . S
C2656 H2648 0.929 . S
C2656 C2657 1.377 . S
C2656 C2658 1.384 . S
C2657 C2656 1.377 . S
C2657 C2663 1.390 . S
C2658 H2649 0.930 . S
C2658 C2656 1.384 . S
C2658 C2659 1.372 . S
C2659 C2658 1.372 . S
C2659 C2660 1.400 . S
C2659 C2664 1.490 . S
C2660 H2650 0.930 . S
C2660 C2659 1.400 . S
C2660 C2663 1.386 . S
H2661 C2677 0.930 . S
H2662 C2678 0.931 . S
C2663 H2651 0.929 . S
C2663 C2657 1.390 . S
C2663 C2660 1.386 . S
C2664 C2659 1.490 . S
C2664 C2666 1.395 . S
C2664 C2667 1.403 . S
H2665 C2671 0.930 . S
C2666 H2652 0.930 . S
C2666 C2664 1.395 . S
C2666 C2669 1.403 . S
C2667 C2664 1.403 . S
C2667 C2668 1.524 . S
C2667 C2671 1.400 . S
C2668 H2653 0.960 . S
C2668 H2654 0.960 . S
C2668 H2655 0.960 . S
C2668 C2667 1.524 . S
C2669 C2666 1.403 . S
C2669 C2670 1.392 . S
C2669 C2673 1.495 . S
C2670 C2669 1.392 . S
C2670 C2671 1.385 . S
C2670 C2672 1.478 . S
C2671 H2665 0.930 . S
C2671 C2667 1.400 . S
C2671 C2670 1.385 . S
C2672 C2670 1.478 . S
C2672 C2674 1.381 . S
C2672 C2678 1.383 . S
C2673 C2669 1.495 . S
C2673 H2679 0.959 . S
C2673 H2680 0.961 . S
C2673 H2681 0.960 . S
C2674 C2672 1.381 . S
C2674 C2675 1.394 . S
C2674 H2682 0.930 . S
C2675 C2674 1.394 . S
C2675 C2676 1.383 . S
C2675 H2683 0.929 . S
C2676 C2675 1.383 . S
C2676 C2677 1.377 . S
C2677 H2661 0.930 . S
C2677 C2676 1.377 . S
C2677 C2678 1.379 . S
C2678 H2662 0.931 . S
C2678 C2672 1.383 . S
C2678 C2677 1.379 . S
H2679 C2673 0.959 . S
H2680 C2673 0.961 . S
H2681 C2673 0.960 . S
H2682 C2674 0.930 . S
H2683 C2675 0.929 . S
H2684 C2692 0.929 . S
H2685 C2694 0.930 . S
H2686 C2696 0.930 . S
H2687 C2699 0.929 . S
H2688 C2702 0.930 . S
H2689 C2704 0.960 . S
H2690 C2704 0.960 . S
H2691 C2704 0.960 . S
C2692 H2684 0.929 . S
C2692 C2693 1.377 . S
C2692 C2694 1.384 . S
C2693 C2692 1.377 . S
C2693 C2699 1.390 . S
C2694 H2685 0.930 . S
C2694 C2692 1.384 . S
C2694 C2695 1.372 . S
C2695 C2694 1.372 . S
C2695 C2696 1.400 . S
C2695 C2700 1.490 . S
C2696 H2686 0.930 . S
C2696 C2695 1.400 . S
C2696 C2699 1.386 . S
H2697 C2713 0.930 . S
H2698 C2714 0.931 . S
C2699 H2687 0.929 . S
C2699 C2693 1.390 . S
C2699 C2696 1.386 . S
C2700 C2695 1.490 . S
C2700 C2702 1.395 . S
C2700 C2703 1.403 . S
H2701 C2707 0.930 . S
C2702 H2688 0.930 . S
C2702 C2700 1.395 . S
C2702 C2705 1.403 . S
C2703 C2700 1.403 . S
C2703 C2704 1.524 . S
C2703 C2707 1.400 . S
C2704 H2689 0.960 . S
C2704 H2690 0.960 . S
C2704 H2691 0.960 . S
C2704 C2703 1.524 . S
C2705 C2702 1.403 . S
C2705 C2706 1.392 . S
C2705 C2709 1.495 . S
C2706 C2705 1.392 . S
C2706 C2707 1.385 . S
C2706 C2708 1.478 . S
C2707 H2701 0.930 . S
C2707 C2703 1.400 . S
C2707 C2706 1.385 . S
C2708 C2706 1.478 . S
C2708 C2710 1.381 . S
C2708 C2714 1.383 . S
C2709 C2705 1.495 . S
C2709 H2715 0.959 . S
C2709 H2716 0.961 . S
C2709 H2717 0.960 . S
C2710 C2708 1.381 . S
C2710 C2711 1.394 . S
C2710 H2718 0.930 . S
C2711 C2710 1.394 . S
C2711 C2712 1.383 . S
C2711 H2719 0.929 . S
C2712 C2711 1.383 . S
C2712 C2713 1.377 . S
C2713 H2697 0.930 . S
C2713 C2712 1.377 . S
C2713 C2714 1.379 . S
C2714 H2698 0.931 . S
C2714 C2708 1.383 . S
C2714 C2713 1.379 . S
H2715 C2709 0.959 . S
H2716 C2709 0.961 . S
H2717 C2709 0.960 . S
H2718 C2710 0.930 . S
H2719 C2711 0.929 . S
H2720 C2728 0.929 . S
H2721 C2730 0.930 . S
H2722 C2732 0.930 . S
H2723 C2735 0.929 . S
H2724 C2738 0.930 . S
H2725 C2740 0.960 . S
H2726 C2740 0.960 . S
H2727 C2740 0.960 . S
C2728 H2720 0.929 . S
C2728 C2729 1.377 . S
C2728 C2730 1.384 . S
C2729 C2728 1.377 . S
C2729 C2735 1.390 . S
C2730 H2721 0.930 . S
C2730 C2728 1.384 . S
C2730 C2731 1.372 . S
C2731 C2730 1.372 . S
C2731 C2732 1.400 . S
C2731 C2736 1.490 . S
C2732 H2722 0.930 . S
C2732 C2731 1.400 . S
C2732 C2735 1.386 . S
H2733 C2749 0.930 . S
H2734 C2750 0.931 . S
C2735 H2723 0.929 . S
C2735 C2729 1.390 . S
C2735 C2732 1.386 . S
C2736 C2731 1.490 . S
C2736 C2738 1.395 . S
C2736 C2739 1.403 . S
H2737 C2743 0.930 . S
C2738 H2724 0.930 . S
C2738 C2736 1.395 . S
C2738 C2741 1.403 . S
C2739 C2736 1.403 . S
C2739 C2740 1.524 . S
C2739 C2743 1.400 . S
C2740 H2725 0.960 . S
C2740 H2726 0.960 . S
C2740 H2727 0.960 . S
C2740 C2739 1.524 . S
C2741 C2738 1.403 . S
C2741 C2742 1.392 . S
C2741 C2745 1.495 . S
C2742 C2741 1.392 . S
C2742 C2743 1.385 . S
C2742 C2744 1.478 . S
C2743 H2737 0.930 . S
C2743 C2739 1.400 . S
C2743 C2742 1.385 . S
C2744 C2742 1.478 . S
C2744 C2746 1.381 . S
C2744 C2750 1.383 . S
C2745 C2741 1.495 . S
C2745 H2751 0.959 . S
C2745 H2752 0.961 . S
C2745 H2753 0.960 . S
C2746 C2744 1.381 . S
C2746 C2747 1.394 . S
C2746 H2754 0.930 . S
C2747 C2746 1.394 . S
C2747 C2748 1.383 . S
C2747 H2755 0.929 . S
C2748 C2747 1.383 . S
C2748 C2749 1.377 . S
C2749 H2733 0.930 . S
C2749 C2748 1.377 . S
C2749 C2750 1.379 . S
C2750 H2734 0.931 . S
C2750 C2744 1.383 . S
C2750 C2749 1.379 . S
H2751 C2745 0.959 . S
H2752 C2745 0.961 . S
H2753 C2745 0.960 . S
H2754 C2746 0.930 . S
H2755 C2747 0.929 . S
H2756 C2764 0.929 . S
H2757 C2766 0.930 . S
H2758 C2768 0.930 . S
H2759 C2771 0.929 . S
H2760 C2774 0.930 . S
H2761 C2776 0.960 . S
H2762 C2776 0.960 . S
H2763 C2776 0.960 . S
C2764 H2756 0.929 . S
C2764 C2765 1.377 . S
C2764 C2766 1.384 . S
C2765 C2764 1.377 . S
C2765 C2771 1.390 . S
C2766 H2757 0.930 . S
C2766 C2764 1.384 . S
C2766 C2767 1.372 . S
C2767 C2766 1.372 . S
C2767 C2768 1.400 . S
C2767 C2772 1.490 . S
C2768 H2758 0.930 . S
C2768 C2767 1.400 . S
C2768 C2771 1.386 . S
H2769 C2785 0.930 . S
H2770 C2786 0.931 . S
C2771 H2759 0.929 . S
C2771 C2765 1.390 . S
C2771 C2768 1.386 . S
C2772 C2767 1.490 . S
C2772 C2774 1.395 . S
C2772 C2775 1.403 . S
H2773 C2779 0.930 . S
C2774 H2760 0.930 . S
C2774 C2772 1.395 . S
C2774 C2777 1.403 . S
C2775 C2772 1.403 . S
C2775 C2776 1.524 . S
C2775 C2779 1.400 . S
C2776 H2761 0.960 . S
C2776 H2762 0.960 . S
C2776 H2763 0.960 . S
C2776 C2775 1.524 . S
C2777 C2774 1.403 . S
C2777 C2778 1.392 . S
C2777 C2781 1.495 . S
C2778 C2777 1.392 . S
C2778 C2779 1.385 . S
C2778 C2780 1.478 . S
C2779 H2773 0.930 . S
C2779 C2775 1.400 . S
C2779 C2778 1.385 . S
C2780 C2778 1.478 . S
C2780 C2782 1.381 . S
C2780 C2786 1.383 . S
C2781 C2777 1.495 . S
C2781 H2787 0.959 . S
C2781 H2788 0.961 . S
C2781 H2789 0.960 . S
C2782 C2780 1.381 . S
C2782 C2783 1.394 . S
C2782 H2790 0.930 . S
C2783 C2782 1.394 . S
C2783 C2784 1.383 . S
C2783 H2791 0.929 . S
C2784 C2783 1.383 . S
C2784 C2785 1.377 . S
C2785 H2769 0.930 . S
C2785 C2784 1.377 . S
C2785 C2786 1.379 . S
C2786 H2770 0.931 . S
C2786 C2780 1.383 . S
C2786 C2785 1.379 . S
H2787 C2781 0.959 . S
H2788 C2781 0.961 . S
H2789 C2781 0.960 . S
H2790 C2782 0.930 . S
H2791 C2783 0.929 . S
H2792 C2800 0.929 . S
H2793 C2802 0.930 . S
H2794 C2804 0.930 . S
H2795 C2807 0.929 . S
H2796 C2810 0.930 . S
H2797 C2812 0.960 . S
H2798 C2812 0.960 . S
H2799 C2812 0.960 . S
C2800 H2792 0.929 . S
C2800 C2801 1.377 . S
C2800 C2802 1.384 . S
C2801 C2800 1.377 . S
C2801 C2807 1.390 . S
C2802 H2793 0.930 . S
C2802 C2800 1.384 . S
C2802 C2803 1.372 . S
C2803 C2802 1.372 . S
C2803 C2804 1.400 . S
C2803 C2808 1.490 . S
C2804 H2794 0.930 . S
C2804 C2803 1.400 . S
C2804 C2807 1.386 . S
H2805 C2821 0.930 . S
H2806 C2822 0.931 . S
C2807 H2795 0.929 . S
C2807 C2801 1.390 . S
C2807 C2804 1.386 . S
C2808 C2803 1.490 . S
C2808 C2810 1.395 . S
C2808 C2811 1.403 . S
H2809 C2815 0.930 . S
C2810 H2796 0.930 . S
C2810 C2808 1.395 . S
C2810 C2813 1.403 . S
C2811 C2808 1.403 . S
C2811 C2812 1.524 . S
C2811 C2815 1.400 . S
C2812 H2797 0.960 . S
C2812 H2798 0.960 . S
C2812 H2799 0.960 . S
C2812 C2811 1.524 . S
C2813 C2810 1.403 . S
C2813 C2814 1.392 . S
C2813 C2817 1.495 . S
C2814 C2813 1.392 . S
C2814 C2815 1.385 . S
C2814 C2816 1.478 . S
C2815 H2809 0.930 . S
C2815 C2811 1.400 . S
C2815 C2814 1.385 . S
C2816 C2814 1.478 . S
C2816 C2818 1.381 . S
C2816 C2822 1.383 . S
C2817 C2813 1.495 . S
C2817 H2823 0.959 . S
C2817 H2824 0.961 . S
C2817 H2825 0.960 . S
C2818 C2816 1.381 . S
C2818 C2819 1.394 . S
C2818 H2826 0.930 . S
C2819 C2818 1.394 . S
C2819 C2820 1.383 . S
C2819 H2827 0.929 . S
C2820 C2819 1.383 . S
C2820 C2821 1.377 . S
C2821 H2805 0.930 . S
C2821 C2820 1.377 . S
C2821 C2822 1.379 . S
C2822 H2806 0.931 . S
C2822 C2816 1.383 . S
C2822 C2821 1.379 . S
H2823 C2817 0.959 . S
H2824 C2817 0.961 . S
H2825 C2817 0.960 . S
H2826 C2818 0.930 . S
H2827 C2819 0.929 . S
H2828 C2836 0.929 . S
H2829 C2838 0.930 . S
H2830 C2840 0.930 . S
H2831 C2843 0.929 . S
H2832 C2846 0.930 . S
H2833 C2848 0.960 . S
H2834 C2848 0.960 . S
H2835 C2848 0.960 . S
C2836 H2828 0.929 . S
C2836 C2837 1.377 . S
C2836 C2838 1.384 . S
C2837 C2836 1.377 . S
C2837 C2843 1.390 . S
C2838 H2829 0.930 . S
C2838 C2836 1.384 . S
C2838 C2839 1.372 . S
C2839 C2838 1.372 . S
C2839 C2840 1.400 . S
C2839 C2844 1.490 . S
C2840 H2830 0.930 . S
C2840 C2839 1.400 . S
C2840 C2843 1.386 . S
H2841 C2857 0.930 . S
H2842 C2858 0.931 . S
C2843 H2831 0.929 . S
C2843 C2837 1.390 . S
C2843 C2840 1.386 . S
C2844 C2839 1.490 . S
C2844 C2846 1.395 . S
C2844 C2847 1.403 . S
H2845 C2851 0.930 . S
C2846 H2832 0.930 . S
C2846 C2844 1.395 . S
C2846 C2849 1.403 . S
C2847 C2844 1.403 . S
C2847 C2848 1.524 . S
C2847 C2851 1.400 . S
C2848 H2833 0.960 . S
C2848 H2834 0.960 . S
C2848 H2835 0.960 . S
C2848 C2847 1.524 . S
C2849 C2846 1.403 . S
C2849 C2850 1.392 . S
C2849 C2853 1.495 . S
C2850 C2849 1.392 . S
C2850 C2851 1.385 . S
C2850 C2852 1.478 . S
C2851 H2845 0.930 . S
C2851 C2847 1.400 . S
C2851 C2850 1.385 . S
C2852 C2850 1.478 . S
C2852 C2854 1.381 . S
C2852 C2858 1.383 . S
C2853 C2849 1.495 . S
C2853 H2859 0.959 . S
C2853 H2860 0.961 . S
C2853 H2861 0.960 . S
C2854 C2852 1.381 . S
C2854 C2855 1.394 . S
C2854 H2862 0.930 . S
C2855 C2854 1.394 . S
C2855 C2856 1.383 . S
C2855 H2863 0.929 . S
C2856 C2855 1.383 . S
C2856 C2857 1.377 1_556 S
C2857 H2841 0.930 . S
C2857 C2856 1.377 1_554 S
C2857 C2858 1.379 1_554 S
C2858 H2842 0.931 . S
C2858 C2852 1.383 . S
C2858 C2857 1.379 1_556 S
H2859 C2853 0.959 . S
H2860 C2853 0.961 . S
H2861 C2853 0.960 . S
H2862 C2854 0.930 . S
H2863 C2855 0.929 . S
H2864 C2872 0.929 . S
H2865 C2874 0.930 . S
H2866 C2876 0.930 . S
H2867 C2879 0.929 . S
H2868 C2882 0.930 . S
H2869 C2884 0.960 . S
H2870 C2884 0.960 . S
H2871 C2884 0.960 . S
C2872 H2864 0.929 . S
C2872 C2873 1.377 . S
C2872 C2874 1.384 . S
C2873 C2872 1.377 . S
C2873 C2879 1.390 . S
C2874 H2865 0.930 . S
C2874 C2872 1.384 . S
C2874 C2875 1.372 . S
C2875 C2874 1.372 . S
C2875 C2876 1.400 . S
C2875 C2880 1.490 . S
C2876 H2866 0.930 . S
C2876 C2875 1.400 . S
C2876 C2879 1.386 . S
H2877 C2893 0.930 . S
H2878 C2894 0.931 . S
C2879 H2867 0.929 . S
C2879 C2873 1.390 . S
C2879 C2876 1.386 . S
C2880 C2875 1.490 . S
C2880 C2882 1.395 1_545 S
C2880 C2883 1.403 . S
H2881 C2887 0.929 1_545 S
C2882 H2868 0.930 . S
C2882 C2880 1.395 1_565 S
C2882 C2885 1.403 . S
C2883 C2880 1.403 . S
C2883 C2884 1.524 . S
C2883 C2887 1.378 1_545 S
C2884 H2869 0.960 . S
C2884 H2870 0.960 . S
C2884 H2871 0.960 . S
C2884 C2883 1.524 . S
C2885 C2882 1.403 . S
C2885 C2886 1.392 . S
C2885 C2889 1.495 . S
C2886 C2885 1.392 . S
C2886 C2887 1.408 . S
C2886 C2888 1.478 . S
C2887 H2881 0.929 1_565 S
C2887 C2883 1.378 1_565 S
C2887 C2886 1.408 . S
C2888 C2886 1.478 . S
C2888 C2890 1.381 . S
C2888 C2894 1.383 . S
C2889 C2885 1.495 . S
C2889 H2895 0.959 . S
C2889 H2896 0.961 . S
C2889 H2897 0.960 . S
C2890 C2888 1.381 . S
C2890 C2891 1.394 . S
C2890 H2898 0.930 . S
C2891 C2890 1.394 . S
C2891 C2892 1.383 . S
C2891 H2899 0.929 . S
C2892 C2891 1.383 . S
C2892 C2893 1.377 . S
C2893 H2877 0.930 . S
C2893 C2892 1.377 . S
C2893 C2894 1.379 . S
C2894 H2878 0.931 . S
C2894 C2888 1.383 . S
C2894 C2893 1.379 . S
H2895 C2889 0.959 . S
H2896 C2889 0.961 . S
H2897 C2889 0.960 . S
H2898 C2890 0.930 . S
H2899 C2891 0.929 . S
H2900 C2908 0.929 . S
H2901 C2910 0.930 1_655 S
H2902 C2912 0.930 . S
H2903 C2915 0.929 . S
H2904 C2918 0.930 . S
H2905 C2920 0.960 . S
H2906 C2920 0.960 . S
H2907 C2920 0.960 . S
C2908 H2900 0.929 . S
C2908 C2909 1.377 . S
C2908 C2910 1.384 . S
C2909 C2908 1.377 . S
C2909 C2915 1.390 . S
C2910 H2901 0.930 1_455 S
C2910 C2908 1.384 . S
C2910 C2911 1.372 . S
C2911 C2910 1.372 . S
C2911 C2912 1.400 . S
C2911 C2916 1.490 . S
C2912 H2902 0.930 . S
C2912 C2911 1.400 . S
C2912 C2915 1.386 . S
H2913 C2929 0.930 . S
H2914 C2930 0.932 1_455 S
C2915 H2903 0.929 . S
C2915 C2909 1.390 . S
C2915 C2912 1.386 . S
C2916 C2911 1.490 . S
C2916 C2918 1.395 1_455 S
C2916 C2919 1.403 . S
H2917 C2923 0.930 . S
C2918 H2904 0.930 . S
C2918 C2916 1.395 1_655 S
C2918 C2921 1.403 1_565 S
C2919 C2916 1.403 . S
C2919 C2920 1.524 . S
C2919 C2923 1.400 1_565 S
C2920 H2905 0.960 . S
C2920 H2906 0.960 . S
C2920 H2907 0.960 . S
C2920 C2919 1.524 . S
C2921 C2918 1.403 1_545 S
C2921 C2922 1.392 . S
C2921 C2925 1.495 . S
C2922 C2921 1.392 . S
C2922 C2923 1.385 1_655 S
C2922 C2924 1.478 . S
C2923 H2917 0.930 . S
C2923 C2919 1.400 1_545 S
C2923 C2922 1.385 1_455 S
C2924 C2922 1.478 . S
C2924 C2926 1.381 . S
C2924 C2930 1.383 . S
C2925 C2921 1.495 . S
C2925 H2931 0.959 . S
C2925 H2932 0.961 . S
C2925 H2933 0.960 . S
C2926 C2924 1.381 . S
C2926 C2927 1.394 . S
C2926 H2934 0.930 . S
C2927 C2926 1.394 . S
C2927 C2928 1.383 . S
C2927 H2935 0.929 . S
C2928 C2927 1.383 . S
C2928 C2929 1.377 . S
C2929 H2913 0.930 . S
C2929 C2928 1.377 . S
C2929 C2930 1.379 . S
C2930 H2914 0.932 1_655 S
C2930 C2924 1.383 . S
C2930 C2929 1.379 . S
H2931 C2925 0.959 . S
H2932 C2925 0.961 . S
H2933 C2925 0.960 . S
H2934 C2926 0.930 . S
H2935 C2927 0.929 . S
H2936 C2944 0.929 . S
H2937 C2946 0.930 1_545 S
H2938 C2948 0.930 . S
H2939 C2951 0.929 . S
H2940 C2954 0.930 . S
H2941 C2956 0.960 . S
H2942 C2956 0.960 . S
H2943 C2956 0.960 . S
C2944 H2936 0.929 . S
C2944 C2945 1.377 . S
C2944 C2946 1.384 . S
C2945 C2944 1.377 . S
C2945 C2951 1.390 . S
C2946 H2937 0.930 1_565 S
C2946 C2944 1.384 . S
C2946 C2947 1.372 . S
C2947 C2946 1.372 . S
C2947 C2948 1.400 . S
C2947 C2952 1.490 . S
C2948 H2938 0.930 . S
C2948 C2947 1.400 . S
C2948 C2951 1.386 . S
H2949 C2965 0.930 . S
H2950 C2966 0.931 1_565 S
C2951 H2939 0.929 . S
C2951 C2945 1.390 . S
C2951 C2948 1.386 . S
C2952 C2947 1.490 . S
C2952 C2954 1.395 1_565 S
C2952 C2955 1.403 . S
H2953 C2959 0.930 . S
C2954 H2940 0.930 . S
C2954 C2952 1.395 1_545 S
C2954 C2957 1.403 . S
C2955 C2952 1.403 . S
C2955 C2956 1.524 . S
C2955 C2959 1.400 . S
C2956 H2941 0.960 . S
C2956 H2942 0.960 . S
C2956 H2943 0.960 . S
C2956 C2955 1.524 . S
C2957 C2954 1.403 . S
C2957 C2958 1.392 . S
C2957 C2961 1.495 . S
C2958 C2957 1.392 . S
C2958 C2959 1.385 1_545 S
C2958 C2960 1.478 . S
C2959 H2953 0.930 . S
C2959 C2955 1.400 . S
C2959 C2958 1.385 1_565 S
C2960 C2958 1.478 . S
C2960 C2962 1.381 . S
C2960 C2966 1.383 . S
C2961 C2957 1.495 . S
C2961 H2967 0.959 . S
C2961 H2968 0.961 . S
C2961 H2969 0.960 . S
C2962 C2960 1.381 . S
C2962 C2963 1.394 . S
C2962 H2970 0.930 . S
C2963 C2962 1.394 . S
C2963 C2964 1.383 . S
C2963 H2971 0.929 . S
C2964 C2963 1.383 . S
C2964 C2965 1.377 . S
C2965 H2949 0.930 . S
C2965 C2964 1.377 . S
C2965 C2966 1.379 . S
C2966 H2950 0.931 1_545 S
C2966 C2960 1.383 . S
C2966 C2965 1.379 . S
H2967 C2961 0.959 . S
H2968 C2961 0.961 . S
H2969 C2961 0.960 . S
H2970 C2962 0.930 . S
H2971 C2963 0.929 . S
H2972 C2980 0.929 . S
H2973 C2982 0.930 . S
H2974 C2984 0.930 1_545 S
H2975 C2987 0.929 . S
H2976 C2990 0.930 . S
H2977 C2992 0.960 . S
H2978 C2992 0.960 . S
H2979 C2992 0.960 . S
C2980 H2972 0.929 . S
C2980 C2981 1.377 . S
C2980 C2982 1.384 . S
C2981 C2980 1.377 . S
C2981 C2987 1.390 . S
C2982 H2973 0.930 . S
C2982 C2980 1.384 . S
C2982 C2983 1.372 . S
C2983 C2982 1.372 . S
C2983 C2984 1.400 . S
C2983 C2988 1.490 . S
C2984 H2974 0.930 1_565 S
C2984 C2983 1.400 . S
C2984 C2987 1.386 . S
H2985 C3001 0.930 . S
H2986 C3002 0.931 . S
C2987 H2975 0.929 . S
C2987 C2981 1.390 . S
C2987 C2984 1.386 . S
C2988 C2983 1.490 . S
C2988 C2990 1.395 1_655 S
C2988 C2991 1.403 1_565 S
H2989 C2995 0.930 1_655 S
C2990 H2976 0.930 . S
C2990 C2988 1.395 1_455 S
C2990 C2993 1.403 . S
C2991 C2988 1.403 1_545 S
C2991 C2992 1.524 . S
C2991 C2995 1.401 1_655 S
C2992 H2977 0.960 . S
C2992 H2978 0.960 . S
C2992 H2979 0.960 . S
C2992 C2991 1.524 . S
C2993 C2990 1.403 . S
C2993 C2994 1.392 1_565 S
C2993 C2997 1.495 . S
C2994 C2993 1.392 1_545 S
C2994 C2995 1.384 . S
C2994 C2996 1.478 . S
C2995 H2989 0.930 1_455 S
C2995 C2991 1.401 1_455 S
C2995 C2994 1.384 . S
C2996 C2994 1.478 . S
C2996 C2998 1.381 . S
C2996 C3002 1.383 . S
C2997 C2993 1.495 . S
C2997 H3003 0.959 . S
C2997 H3004 0.961 . S
C2997 H3005 0.960 . S
C2998 C2996 1.381 . S
C2998 C2999 1.394 . S
C2998 H3006 0.930 1_545 S
C2999 C2998 1.394 . S
C2999 C3000 1.383 . S
C2999 H3007 0.929 . S
C3000 C2999 1.383 . S
C3000 C3001 1.377 . S
C3001 H2985 0.930 . S
C3001 C3000 1.377 . S
C3001 C3002 1.379 . S
C3002 H2986 0.931 . S
C3002 C2996 1.383 . S
C3002 C3001 1.379 . S
H3003 C2997 0.959 . S
H3004 C2997 0.961 . S
H3005 C2997 0.960 . S
H3006 C2998 0.930 1_565 S
H3007 C2999 0.929 . S
H3008 C3016 0.929 . S
H3009 C3018 0.930 1_655 S
H3010 C3020 0.930 . S
H3011 C3023 0.929 . S
H3012 C3026 0.930 . S
H3013 C3028 0.960 . S
H3014 C3028 0.960 . S
H3015 C3028 0.960 . S
C3016 H3008 0.929 . S
C3016 C3017 1.377 . S
C3016 C3018 1.384 . S
C3017 C3016 1.377 . S
C3017 C3023 1.390 . S
C3018 H3009 0.930 1_455 S
C3018 C3016 1.384 . S
C3018 C3019 1.372 1_554 S
C3019 C3018 1.372 1_556 S
C3019 C3020 1.400 . S
C3019 C3024 1.490 . S
C3020 H3010 0.930 . S
C3020 C3019 1.400 . S
C3020 C3023 1.386 1_556 S
H3021 C3037 0.930 . S
H3022 C3038 0.931 . S
C3023 H3011 0.929 . S
C3023 C3017 1.390 . S
C3023 C3020 1.386 1_554 S
C3024 C3019 1.490 . S
C3024 C3026 1.395 1_455 S
C3024 C3027 1.403 . S
H3025 C3031 0.930 1_455 S
C3026 H3012 0.930 . S
C3026 C3024 1.395 1_655 S
C3026 C3029 1.403 . S
C3027 C3024 1.403 . S
C3027 C3028 1.524 . S
C3027 C3031 1.400 1_455 S
C3028 H3013 0.960 . S
C3028 H3014 0.960 . S
C3028 H3015 0.960 . S
C3028 C3027 1.524 . S
C3029 C3026 1.403 . S
C3029 C3030 1.392 . S
C3029 C3033 1.495 . S
C3030 C3029 1.392 . S
C3030 C3031 1.385 . S
C3030 C3032 1.478 . S
C3031 H3025 0.930 1_655 S
C3031 C3027 1.400 1_655 S
C3031 C3030 1.385 . S
C3032 C3030 1.478 . S
C3032 C3034 1.381 . S
C3032 C3038 1.383 . S
C3033 C3029 1.495 . S
C3033 H3039 0.959 . S
C3033 H3040 0.961 . S
C3033 H3041 0.960 . S
C3034 C3032 1.381 . S
C3034 C3035 1.394 . S
C3034 H3042 0.930 . S
C3035 C3034 1.394 . S
C3035 C3036 1.383 . S
C3035 H3043 0.929 . S
C3036 C3035 1.383 . S
C3036 C3037 1.377 . S
C3037 H3021 0.930 . S
C3037 C3036 1.377 . S
C3037 C3038 1.379 . S
C3038 H3022 0.931 . S
C3038 C3032 1.383 . S
C3038 C3037 1.379 . S
H3039 C3033 0.959 . S
H3040 C3033 0.961 . S
H3041 C3033 0.960 . S
H3042 C3034 0.930 . S
H3043 C3035 0.929 . S
H3044 C3052 0.929 . S
H3045 C3054 0.930 . S
H3046 C3056 0.930 . S
H3047 C3059 0.929 . S
H3048 C3062 0.930 . S
H3049 C3064 0.960 . S
H3050 C3064 0.960 . S
H3051 C3064 0.960 . S
C3052 H3044 0.929 . S
C3052 C3053 1.377 . S
C3052 C3054 1.384 . S
C3053 C3052 1.377 . S
C3053 C3059 1.390 . S
C3054 H3045 0.930 . S
C3054 C3052 1.384 . S
C3054 C3055 1.372 . S
C3055 C3054 1.372 . S
C3055 C3056 1.400 . S
C3055 C3060 1.490 . S
C3056 H3046 0.930 . S
C3056 C3055 1.400 . S
C3056 C3059 1.386 . S
H3057 C3073 0.930 . S
H3058 C3074 0.931 . S
C3059 H3047 0.929 . S
C3059 C3053 1.390 . S
C3059 C3056 1.386 . S
C3060 C3055 1.490 . S
C3060 C3062 1.395 . S
C3060 C3063 1.403 . S
H3061 C3067 0.930 . S
C3062 H3048 0.930 . S
C3062 C3060 1.395 . S
C3062 C3065 1.403 . S
C3063 C3060 1.403 . S
C3063 C3064 1.524 . S
C3063 C3067 1.400 . S
C3064 H3049 0.960 . S
C3064 H3050 0.960 . S
C3064 H3051 0.960 . S
C3064 C3063 1.524 . S
C3065 C3062 1.403 . S
C3065 C3066 1.392 . S
C3065 C3069 1.495 . S
C3066 C3065 1.392 . S
C3066 C3067 1.385 . S
C3066 C3068 1.478 . S
C3067 H3061 0.930 . S
C3067 C3063 1.400 . S
C3067 C3066 1.385 . S
C3068 C3066 1.478 . S
C3068 C3070 1.381 . S
C3068 C3074 1.383 . S
C3069 C3065 1.495 . S
C3069 H3075 0.959 . S
C3069 H3076 0.961 . S
C3069 H3077 0.960 . S
C3070 C3068 1.381 . S
C3070 C3071 1.394 . S
C3070 H3078 0.930 . S
C3071 C3070 1.394 . S
C3071 C3072 1.383 . S
C3071 H3079 0.929 . S
C3072 C3071 1.383 . S
C3072 C3073 1.377 . S
C3073 H3057 0.930 . S
C3073 C3072 1.377 . S
C3073 C3074 1.379 . S
C3074 H3058 0.931 . S
C3074 C3068 1.383 . S
C3074 C3073 1.379 . S
H3075 C3069 0.959 . S
H3076 C3069 0.961 . S
H3077 C3069 0.960 . S
H3078 C3070 0.930 . S
H3079 C3071 0.929 . S
H3080 C3088 0.929 . S
H3081 C3090 0.930 . S
H3082 C3092 0.930 . S
H3083 C3095 0.929 . S
H3084 C3098 0.930 . S
H3085 C3100 0.960 . S
H3086 C3100 0.960 . S
H3087 C3100 0.960 . S
C3088 H3080 0.929 . S
C3088 C3089 1.377 . S
C3088 C3090 1.384 . S
C3089 C3088 1.377 . S
C3089 C3095 1.390 . S
C3090 H3081 0.930 . S
C3090 C3088 1.384 . S
C3090 C3091 1.372 . S
C3091 C3090 1.372 . S
C3091 C3092 1.400 . S
C3091 C3096 1.490 . S
C3092 H3082 0.930 . S
C3092 C3091 1.400 . S
C3092 C3095 1.386 . S
H3093 C3109 0.930 . S
H3094 C3110 0.931 . S
C3095 H3083 0.929 . S
C3095 C3089 1.390 . S
C3095 C3092 1.386 . S
C3096 C3091 1.490 . S
C3096 C3098 1.395 . S
C3096 C3099 1.403 . S
H3097 C3103 0.930 . S
C3098 H3084 0.930 . S
C3098 C3096 1.395 . S
C3098 C3101 1.403 . S
C3099 C3096 1.403 . S
C3099 C3100 1.524 . S
C3099 C3103 1.400 . S
C3100 H3085 0.960 . S
C3100 H3086 0.960 . S
C3100 H3087 0.960 . S
C3100 C3099 1.524 . S
C3101 C3098 1.403 . S
C3101 C3102 1.392 . S
C3101 C3105 1.495 . S
C3102 C3101 1.392 . S
C3102 C3103 1.385 . S
C3102 C3104 1.478 . S
C3103 H3097 0.930 . S
C3103 C3099 1.400 . S
C3103 C3102 1.385 . S
C3104 C3102 1.478 . S
C3104 C3106 1.381 . S
C3104 C3110 1.383 . S
C3105 C3101 1.495 . S
C3105 H3111 0.959 . S
C3105 H3112 0.961 . S
C3105 H3113 0.960 . S
C3106 C3104 1.381 . S
C3106 C3107 1.394 . S
C3106 H3114 0.930 . S
C3107 C3106 1.394 . S
C3107 C3108 1.383 . S
C3107 H3115 0.929 . S
C3108 C3107 1.383 . S
C3108 C3109 1.377 . S
C3109 H3093 0.930 . S
C3109 C3108 1.377 . S
C3109 C3110 1.379 . S
C3110 H3094 0.931 . S
C3110 C3104 1.383 . S
C3110 C3109 1.379 . S
H3111 C3105 0.959 . S
H3112 C3105 0.961 . S
H3113 C3105 0.960 . S
H3114 C3106 0.930 . S
H3115 C3107 0.929 . S
H3116 C3124 0.929 . S
H3117 C3126 0.930 . S
H3118 C3128 0.930 . S
H3119 C3131 0.929 . S
H3120 C3134 0.930 . S
H3121 C3136 0.960 . S
H3122 C3136 0.960 . S
H3123 C3136 0.960 . S
C3124 H3116 0.929 . S
C3124 C3125 1.377 . S
C3124 C3126 1.384 . S
C3125 C3124 1.377 . S
C3125 C3131 1.390 . S
C3126 H3117 0.930 . S
C3126 C3124 1.384 . S
C3126 C3127 1.372 . S
C3127 C3126 1.372 . S
C3127 C3128 1.400 . S
C3127 C3132 1.490 . S
C3128 H3118 0.930 . S
C3128 C3127 1.400 . S
C3128 C3131 1.386 . S
H3129 C3145 0.930 . S
H3130 C3146 0.931 . S
C3131 H3119 0.929 . S
C3131 C3125 1.390 . S
C3131 C3128 1.386 . S
C3132 C3127 1.490 . S
C3132 C3134 1.395 . S
C3132 C3135 1.403 . S
H3133 C3139 0.930 . S
C3134 H3120 0.930 . S
C3134 C3132 1.395 . S
C3134 C3137 1.403 . S
C3135 C3132 1.403 . S
C3135 C3136 1.524 . S
C3135 C3139 1.400 . S
C3136 H3121 0.960 . S
C3136 H3122 0.960 . S
C3136 H3123 0.960 . S
C3136 C3135 1.524 . S
C3137 C3134 1.403 . S
C3137 C3138 1.392 . S
C3137 C3141 1.495 . S
C3138 C3137 1.392 . S
C3138 C3139 1.385 . S
C3138 C3140 1.478 . S
C3139 H3133 0.930 . S
C3139 C3135 1.400 . S
C3139 C3138 1.385 . S
C3140 C3138 1.478 . S
C3140 C3142 1.381 . S
C3140 C3146 1.383 . S
C3141 C3137 1.495 . S
C3141 H3147 0.959 . S
C3141 H3148 0.961 . S
C3141 H3149 0.960 . S
C3142 C3140 1.381 . S
C3142 C3143 1.394 . S
C3142 H3150 0.930 . S
C3143 C3142 1.394 . S
C3143 C3144 1.383 . S
C3143 H3151 0.929 . S
C3144 C3143 1.383 . S
C3144 C3145 1.377 . S
C3145 H3129 0.930 . S
C3145 C3144 1.377 . S
C3145 C3146 1.379 . S
C3146 H3130 0.931 . S
C3146 C3140 1.383 . S
C3146 C3145 1.379 . S
H3147 C3141 0.959 . S
H3148 C3141 0.961 . S
H3149 C3141 0.960 . S
H3150 C3142 0.930 . S
H3151 C3143 0.929 . S
H3152 C3160 0.929 . S
H3153 C3162 0.930 . S
H3154 C3164 0.930 . S
H3155 C3167 0.929 1_554 S
H3156 C3170 0.930 . S
H3157 C3172 0.960 . S
H3158 C3172 0.960 . S
H3159 C3172 0.960 . S
C3160 H3152 0.929 . S
C3160 C3161 1.377 1_556 S
C3160 C3162 1.384 . S
C3161 C3160 1.377 1_554 S
C3161 C3167 1.390 1_554 S
C3162 H3153 0.930 . S
C3162 C3160 1.384 . S
C3162 C3163 1.372 . S
C3163 C3162 1.372 . S
C3163 C3164 1.400 1_655 S
C3163 C3168 1.490 1_655 S
C3164 H3154 0.930 . S
C3164 C3163 1.400 1_455 S
C3164 C3167 1.386 1_455 S
H3165 C3181 0.930 . S
H3166 C3182 0.931 . S
C3167 H3155 0.929 1_556 S
C3167 C3161 1.390 1_556 S
C3167 C3164 1.386 1_655 S
C3168 C3163 1.490 1_455 S
C3168 C3170 1.395 1_455 S
C3168 C3171 1.403 . S
H3169 C3175 0.930 . S
C3170 H3156 0.930 . S
C3170 C3168 1.395 1_655 S
C3170 C3173 1.403 1_655 S
C3171 C3168 1.403 . S
C3171 C3172 1.524 . S
C3171 C3175 1.400 . S
C3172 H3157 0.960 . S
C3172 H3158 0.960 . S
C3172 H3159 0.960 . S
C3172 C3171 1.524 . S
C3173 C3170 1.403 1_455 S
C3173 C3174 1.392 . S
C3173 C3177 1.495 1_455 S
C3174 C3173 1.392 . S
C3174 C3175 1.385 . S
C3174 C3176 1.478 . S
C3175 H3169 0.930 . S
C3175 C3171 1.400 . S
C3175 C3174 1.385 . S
C3176 C3174 1.478 . S
C3176 C3178 1.381 . S
C3176 C3182 1.383 . S
C3177 C3173 1.495 1_655 S
C3177 H3183 0.959 . S
C3177 H3184 0.961 . S
C3177 H3185 0.960 . S
C3178 C3176 1.381 . S
C3178 C3179 1.394 . S
C3178 H3186 0.930 . S
C3179 C3178 1.394 . S
C3179 C3180 1.383 . S
C3179 H3187 0.929 . S
C3180 C3179 1.383 . S
C3180 C3181 1.377 . S
C3181 H3165 0.930 . S
C3181 C3180 1.377 . S
C3181 C3182 1.379 . S
C3182 H3166 0.931 . S
C3182 C3176 1.383 . S
C3182 C3181 1.379 . S
H3183 C3177 0.959 . S
H3184 C3177 0.961 . S
H3185 C3177 0.960 . S
H3186 C3178 0.930 . S
H3187 C3179 0.929 . S
H3188 C3196 0.929 . S
H3189 C3198 0.930 . S
H3190 C3200 0.930 . S
H3191 C3203 0.929 . S
H3192 C3206 0.930 . S
H3193 C3208 0.960 . S
H3194 C3208 0.960 . S
H3195 C3208 0.960 . S
C3196 H3188 0.929 . S
C3196 C3197 1.377 . S
C3196 C3198 1.384 . S
C3197 C3196 1.377 . S
C3197 C3203 1.390 . S
C3198 H3189 0.930 . S
C3198 C3196 1.384 . S
C3198 C3199 1.372 . S
C3199 C3198 1.372 . S
C3199 C3200 1.400 . S
C3199 C3204 1.490 . S
C3200 H3190 0.930 . S
C3200 C3199 1.400 . S
C3200 C3203 1.386 . S
H3201 C3217 0.930 . S
H3202 C3218 0.931 . S
C3203 H3191 0.929 . S
C3203 C3197 1.390 . S
C3203 C3200 1.386 . S
C3204 C3199 1.490 . S
C3204 C3206 1.395 . S
C3204 C3207 1.403 . S
H3205 C3211 0.930 . S
C3206 H3192 0.930 . S
C3206 C3204 1.395 . S
C3206 C3209 1.403 . S
C3207 C3204 1.403 . S
C3207 C3208 1.524 . S
C3207 C3211 1.400 . S
C3208 H3193 0.960 . S
C3208 H3194 0.960 . S
C3208 H3195 0.960 . S
C3208 C3207 1.524 . S
C3209 C3206 1.403 . S
C3209 C3210 1.392 . S
C3209 C3213 1.495 . S
C3210 C3209 1.392 . S
C3210 C3211 1.385 . S
C3210 C3212 1.478 . S
C3211 H3205 0.930 . S
C3211 C3207 1.400 . S
C3211 C3210 1.385 . S
C3212 C3210 1.478 . S
C3212 C3214 1.381 . S
C3212 C3218 1.383 . S
C3213 C3209 1.495 . S
C3213 H3219 0.959 . S
C3213 H3220 0.961 . S
C3213 H3221 0.960 . S
C3214 C3212 1.381 . S
C3214 C3215 1.394 . S
C3214 H3222 0.930 . S
C3215 C3214 1.394 . S
C3215 C3216 1.383 . S
C3215 H3223 0.929 . S
C3216 C3215 1.383 . S
C3216 C3217 1.377 . S
C3217 H3201 0.930 . S
C3217 C3216 1.377 . S
C3217 C3218 1.379 . S
C3218 H3202 0.931 . S
C3218 C3212 1.383 . S
C3218 C3217 1.379 . S
H3219 C3213 0.959 . S
H3220 C3213 0.961 . S
H3221 C3213 0.960 . S
H3222 C3214 0.930 . S
H3223 C3215 0.929 . S
H3224 C3232 0.929 . S
H3225 C3234 0.930 . S
H3226 C3236 0.930 . S
H3227 C3239 0.929 . S
H3228 C3242 0.930 . S
H3229 C3244 0.960 . S
H3230 C3244 0.960 . S
H3231 C3244 0.960 . S
C3232 H3224 0.929 . S
C3232 C3233 1.377 . S
C3232 C3234 1.384 . S
C3233 C3232 1.377 . S
C3233 C3239 1.390 . S
C3234 H3225 0.930 . S
C3234 C3232 1.384 . S
C3234 C3235 1.372 . S
C3235 C3234 1.372 . S
C3235 C3236 1.400 . S
C3235 C3240 1.490 . S
C3236 H3226 0.930 . S
C3236 C3235 1.400 . S
C3236 C3239 1.386 . S
H3237 C3253 0.930 . S
H3238 C3254 0.931 . S
C3239 H3227 0.929 . S
C3239 C3233 1.390 . S
C3239 C3236 1.386 . S
C3240 C3235 1.490 . S
C3240 C3242 1.395 . S
C3240 C3243 1.403 . S
H3241 C3247 0.930 . S
C3242 H3228 0.930 . S
C3242 C3240 1.395 . S
C3242 C3245 1.403 . S
C3243 C3240 1.403 . S
C3243 C3244 1.524 . S
C3243 C3247 1.400 . S
C3244 H3229 0.960 . S
C3244 H3230 0.960 . S
C3244 H3231 0.960 . S
C3244 C3243 1.524 . S
C3245 C3242 1.403 . S
C3245 C3246 1.392 . S
C3245 C3249 1.495 . S
C3246 C3245 1.392 . S
C3246 C3247 1.385 . S
C3246 C3248 1.478 . S
C3247 H3241 0.930 . S
C3247 C3243 1.400 . S
C3247 C3246 1.385 . S
C3248 C3246 1.478 . S
C3248 C3250 1.381 . S
C3248 C3254 1.383 . S
C3249 C3245 1.495 . S
C3249 H3255 0.959 . S
C3249 H3256 0.961 . S
C3249 H3257 0.960 . S
C3250 C3248 1.381 . S
C3250 C3251 1.394 . S
C3250 H3258 0.930 . S
C3251 C3250 1.394 . S
C3251 C3252 1.383 . S
C3251 H3259 0.929 . S
C3252 C3251 1.383 . S
C3252 C3253 1.377 . S
C3253 H3237 0.930 . S
C3253 C3252 1.377 . S
C3253 C3254 1.379 . S
C3254 H3238 0.931 . S
C3254 C3248 1.383 . S
C3254 C3253 1.379 . S
H3255 C3249 0.959 . S
H3256 C3249 0.961 . S
H3257 C3249 0.960 . S
H3258 C3250 0.930 . S
H3259 C3251 0.929 . S
H3260 C3268 0.929 . S
H3261 C3270 0.930 . S
H3262 C3272 0.930 . S
H3263 C3275 0.929 . S
H3264 C3278 0.930 . S
H3265 C3280 0.960 . S
H3266 C3280 0.960 . S
H3267 C3280 0.960 . S
C3268 H3260 0.929 . S
C3268 C3269 1.377 . S
C3268 C3270 1.384 . S
C3269 C3268 1.377 . S
C3269 C3275 1.390 . S
C3270 H3261 0.930 . S
C3270 C3268 1.384 . S
C3270 C3271 1.372 . S
C3271 C3270 1.372 . S
C3271 C3272 1.400 . S
C3271 C3276 1.490 . S
C3272 H3262 0.930 . S
C3272 C3271 1.400 . S
C3272 C3275 1.386 . S
H3273 C3289 0.930 . S
H3274 C3290 0.931 . S
C3275 H3263 0.929 . S
C3275 C3269 1.390 . S
C3275 C3272 1.386 . S
C3276 C3271 1.490 . S
C3276 C3278 1.395 . S
C3276 C3279 1.403 . S
H3277 C3283 0.930 . S
C3278 H3264 0.930 . S
C3278 C3276 1.395 . S
C3278 C3281 1.403 . S
C3279 C3276 1.403 . S
C3279 C3280 1.524 . S
C3279 C3283 1.400 . S
C3280 H3265 0.960 . S
C3280 H3266 0.960 . S
C3280 H3267 0.960 . S
C3280 C3279 1.524 . S
C3281 C3278 1.403 . S
C3281 C3282 1.392 . S
C3281 C3285 1.495 . S
C3282 C3281 1.392 . S
C3282 C3283 1.385 . S
C3282 C3284 1.478 . S
C3283 H3277 0.930 . S
C3283 C3279 1.400 . S
C3283 C3282 1.385 . S
C3284 C3282 1.478 . S
C3284 C3286 1.381 . S
C3284 C3290 1.383 . S
C3285 C3281 1.495 . S
C3285 H3291 0.959 . S
C3285 H3292 0.961 . S
C3285 H3293 0.960 . S
C3286 C3284 1.381 . S
C3286 C3287 1.394 . S
C3286 H3294 0.930 . S
C3287 C3286 1.394 . S
C3287 C3288 1.383 . S
C3287 H3295 0.929 . S
C3288 C3287 1.383 . S
C3288 C3289 1.377 . S
C3289 H3273 0.930 . S
C3289 C3288 1.377 . S
C3289 C3290 1.379 . S
C3290 H3274 0.931 . S
C3290 C3284 1.383 . S
C3290 C3289 1.379 . S
H3291 C3285 0.959 . S
H3292 C3285 0.961 . S
H3293 C3285 0.960 . S
H3294 C3286 0.930 . S
H3295 C3287 0.929 . S
H3296 C3304 0.929 . S
H3297 C3306 0.930 . S
H3298 C3308 0.930 . S
H3299 C3311 0.929 . S
H3300 C3314 0.930 1_655 S
H3301 C3316 0.960 . S
H3302 C3316 0.960 . S
H3303 C3316 0.960 . S
C3304 H3296 0.929 . S
C3304 C3305 1.377 . S
C3304 C3306 1.384 . S
C3305 C3304 1.377 . S
C3305 C3311 1.390 . S
C3306 H3297 0.930 . S
C3306 C3304 1.384 . S
C3306 C3307 1.372 . S
C3307 C3306 1.372 . S
C3307 C3308 1.400 . S
C3307 C3312 1.490 . S
C3308 H3298 0.930 . S
C3308 C3307 1.400 . S
C3308 C3311 1.386 . S
H3309 C3325 0.930 . S
H3310 C3326 0.931 . S
C3311 H3299 0.929 . S
C3311 C3305 1.390 . S
C3311 C3308 1.386 . S
C3312 C3307 1.490 . S
C3312 C3314 1.393 . S
C3312 C3315 1.403 . S
H3313 C3319 0.930 . S
C3314 H3300 0.930 1_455 S
C3314 C3312 1.393 . S
C3314 C3317 1.405 1_455 S
C3315 C3312 1.403 . S
C3315 C3316 1.524 . S
C3315 C3319 1.400 . S
C3316 H3301 0.960 . S
C3316 H3302 0.960 . S
C3316 H3303 0.960 . S
C3316 C3315 1.524 . S
C3317 C3314 1.405 1_655 S
C3317 C3318 1.392 . S
C3317 C3321 1.495 . S
C3318 C3317 1.392 . S
C3318 C3319 1.385 1_655 S
C3318 C3320 1.478 . S
C3319 H3313 0.930 . S
C3319 C3315 1.400 . S
C3319 C3318 1.385 1_455 S
C3320 C3318 1.478 . S
C3320 C3322 1.381 . S
C3320 C3326 1.383 . S
C3321 C3317 1.495 . S
C3321 H3327 0.959 . S
C3321 H3328 0.961 . S
C3321 H3329 0.960 . S
C3322 C3320 1.381 . S
C3322 C3323 1.394 . S
C3322 H3330 0.930 . S
C3323 C3322 1.394 . S
C3323 C3324 1.383 . S
C3323 H3331 0.929 . S
C3324 C3323 1.383 . S
C3324 C3325 1.377 . S
C3325 H3309 0.930 . S
C3325 C3324 1.377 . S
C3325 C3326 1.379 . S
C3326 H3310 0.931 . S
C3326 C3320 1.383 . S
C3326 C3325 1.379 . S
H3327 C3321 0.959 . S
H3328 C3321 0.961 . S
H3329 C3321 0.960 . S
H3330 C3322 0.930 . S
H3331 C3323 0.929 . S
H3332 C3340 0.929 . S
H3333 C3342 0.930 . S
H3334 C3344 0.930 . S
H3335 C3347 0.929 . S
H3336 C3350 0.930 . S
H3337 C3352 0.960 . S
H3338 C3352 0.960 . S
H3339 C3352 0.960 . S
C3340 H3332 0.929 . S
C3340 C3341 1.377 . S
C3340 C3342 1.384 . S
C3341 C3340 1.377 . S
C3341 C3347 1.390 . S
C3342 H3333 0.930 . S
C3342 C3340 1.384 . S
C3342 C3343 1.372 . S
C3343 C3342 1.372 . S
C3343 C3344 1.400 . S
C3343 C3348 1.490 . S
C3344 H3334 0.930 . S
C3344 C3343 1.400 . S
C3344 C3347 1.386 . S
H3345 C3361 0.930 . S
H3346 C3362 0.931 . S
C3347 H3335 0.929 . S
C3347 C3341 1.390 . S
C3347 C3344 1.386 . S
C3348 C3343 1.490 . S
C3348 C3350 1.395 . S
C3348 C3351 1.403 . S
H3349 C3355 0.930 . S
C3350 H3336 0.930 . S
C3350 C3348 1.395 . S
C3350 C3353 1.403 . S
C3351 C3348 1.403 . S
C3351 C3352 1.524 . S
C3351 C3355 1.400 . S
C3352 H3337 0.960 . S
C3352 H3338 0.960 . S
C3352 H3339 0.960 . S
C3352 C3351 1.524 . S
C3353 C3350 1.403 . S
C3353 C3354 1.392 . S
C3353 C3357 1.495 . S
C3354 C3353 1.392 . S
C3354 C3355 1.385 . S
C3354 C3356 1.478 . S
C3355 H3349 0.930 . S
C3355 C3351 1.400 . S
C3355 C3354 1.385 . S
C3356 C3354 1.478 . S
C3356 C3358 1.381 . S
C3356 C3362 1.383 . S
C3357 C3353 1.495 . S
C3357 H3363 0.959 . S
C3357 H3364 0.961 . S
C3357 H3365 0.960 . S
C3358 C3356 1.381 . S
C3358 C3359 1.394 . S
C3358 H3366 0.930 . S
C3359 C3358 1.394 . S
C3359 C3360 1.383 . S
C3359 H3367 0.929 . S
C3360 C3359 1.383 . S
C3360 C3361 1.377 . S
C3361 H3345 0.930 . S
C3361 C3360 1.377 . S
C3361 C3362 1.379 . S
C3362 H3346 0.931 . S
C3362 C3356 1.383 . S
C3362 C3361 1.379 . S
H3363 C3357 0.959 . S
H3364 C3357 0.961 . S
H3365 C3357 0.960 . S
H3366 C3358 0.930 . S
H3367 C3359 0.929 . S
H3368 C3376 0.922 1_554 S
H3369 C3378 0.930 . S
H3370 C3380 0.930 . S
H3371 C3383 0.929 . S
H3372 C3386 0.930 . S
H3373 C3388 0.960 . S
H3374 C3388 0.960 . S
H3375 C3388 0.960 . S
C3376 H3368 0.922 1_556 S
C3376 C3377 1.377 . S
C3376 C3378 1.384 . S
C3377 C3376 1.377 . S
C3377 C3383 1.390 . S
C3378 H3369 0.930 . S
C3378 C3376 1.384 . S
C3378 C3379 1.372 . S
C3379 C3378 1.372 . S
C3379 C3380 1.400 . S
C3379 C3384 1.490 . S
C3380 H3370 0.930 . S
C3380 C3379 1.400 . S
C3380 C3383 1.386 . S
H3381 C3397 0.930 . S
H3382 C3398 0.931 . S
C3383 H3371 0.929 . S
C3383 C3377 1.390 . S
C3383 C3380 1.386 . S
C3384 C3379 1.490 . S
C3384 C3386 1.395 . S
C3384 C3387 1.403 . S
H3385 C3391 0.930 . S
C3386 H3372 0.930 . S
C3386 C3384 1.395 . S
C3386 C3389 1.403 . S
C3387 C3384 1.403 . S
C3387 C3388 1.524 . S
C3387 C3391 1.400 . S
C3388 H3373 0.960 . S
C3388 H3374 0.960 . S
C3388 H3375 0.960 . S
C3388 C3387 1.524 . S
C3389 C3386 1.403 . S
C3389 C3390 1.392 . S
C3389 C3393 1.495 . S
C3390 C3389 1.392 . S
C3390 C3391 1.385 . S
C3390 C3392 1.478 . S
C3391 H3385 0.930 . S
C3391 C3387 1.400 . S
C3391 C3390 1.385 . S
C3392 C3390 1.478 . S
C3392 C3394 1.381 . S
C3392 C3398 1.383 . S
C3393 C3389 1.495 . S
C3393 H3399 0.959 . S
C3393 H3400 0.961 . S
C3393 H3401 0.960 . S
C3394 C3392 1.381 . S
C3394 C3395 1.394 . S
C3394 H3402 0.930 . S
C3395 C3394 1.394 . S
C3395 C3396 1.383 . S
C3395 H3403 0.929 . S
C3396 C3395 1.383 . S
C3396 C3397 1.377 . S
C3397 H3381 0.930 . S
C3397 C3396 1.377 . S
C3397 C3398 1.379 . S
C3398 H3382 0.931 . S
C3398 C3392 1.383 . S
C3398 C3397 1.379 . S
H3399 C3393 0.959 . S
H3400 C3393 0.961 . S
H3401 C3393 0.960 . S
H3402 C3394 0.930 . S
H3403 C3395 0.929 . S
H3404 C3412 0.929 . S
H3405 C3414 0.930 . S
H3406 C3416 0.930 . S
H3407 C3419 0.929 . S
H3408 C3422 0.930 . S
H3409 C3424 0.960 . S
H3410 C3424 0.960 . S
H3411 C3424 0.960 . S
C3412 H3404 0.929 . S
C3412 C3413 1.377 . S
C3412 C3414 1.384 . S
C3413 C3412 1.377 . S
C3413 C3419 1.390 . S
C3414 H3405 0.930 . S
C3414 C3412 1.384 . S
C3414 C3415 1.372 . S
C3415 C3414 1.372 . S
C3415 C3416 1.400 . S
C3415 C3420 1.490 . S
C3416 H3406 0.930 . S
C3416 C3415 1.400 . S
C3416 C3419 1.386 . S
H3417 C3433 0.930 . S
H3418 C3434 0.931 . S
C3419 H3407 0.929 . S
C3419 C3413 1.390 . S
C3419 C3416 1.386 . S
C3420 C3415 1.490 . S
C3420 C3422 1.395 . S
C3420 C3423 1.403 . S
H3421 C3427 0.930 . S
C3422 H3408 0.930 . S
C3422 C3420 1.395 . S
C3422 C3425 1.403 . S
C3423 C3420 1.403 . S
C3423 C3424 1.524 . S
C3423 C3427 1.400 . S
C3424 H3409 0.960 . S
C3424 H3410 0.960 . S
C3424 H3411 0.960 . S
C3424 C3423 1.524 . S
C3425 C3422 1.403 . S
C3425 C3426 1.392 . S
C3425 C3429 1.495 . S
C3426 C3425 1.392 . S
C3426 C3427 1.385 . S
C3426 C3428 1.478 . S
C3427 H3421 0.930 . S
C3427 C3423 1.400 . S
C3427 C3426 1.385 . S
C3428 C3426 1.478 . S
C3428 C3430 1.381 . S
C3428 C3434 1.383 . S
C3429 C3425 1.495 . S
C3429 H3435 0.959 . S
C3429 H3436 0.961 . S
C3429 H3437 0.960 . S
C3430 C3428 1.381 . S
C3430 C3431 1.394 . S
C3430 H3438 0.930 . S
C3431 C3430 1.394 . S
C3431 C3432 1.383 . S
C3431 H3439 0.929 . S
C3432 C3431 1.383 . S
C3432 C3433 1.377 . S
C3433 H3417 0.930 . S
C3433 C3432 1.377 . S
C3433 C3434 1.379 . S
C3434 H3418 0.931 . S
C3434 C3428 1.383 . S
C3434 C3433 1.379 . S
H3435 C3429 0.959 . S
H3436 C3429 0.961 . S
H3437 C3429 0.960 . S
H3438 C3430 0.930 . S
H3439 C3431 0.929 . S
H3440 C3448 0.929 . S
H3441 C3450 0.930 . S
H3442 C3452 0.912 1_655 S
H3443 C3455 0.929 . S
H3444 C3458 0.930 . S
H3445 C3460 0.960 . S
H3446 C3460 0.960 . S
H3447 C3460 0.960 . S
C3448 H3440 0.929 . S
C3448 C3449 1.377 . S
C3448 C3450 1.384 . S
C3449 C3448 1.377 . S
C3449 C3455 1.390 . S
C3450 H3441 0.930 . S
C3450 C3448 1.384 . S
C3450 C3451 1.372 . S
C3451 C3450 1.372 . S
C3451 C3452 1.400 . S
C3451 C3456 1.490 1_455 S
C3452 H3442 0.912 1_455 S
C3452 C3451 1.400 . S
C3452 C3455 1.386 . S
H3453 C3469 0.930 . S
H3454 C3470 0.931 . S
C3455 H3443 0.929 . S
C3455 C3449 1.390 . S
C3455 C3452 1.386 . S
C3456 C3451 1.490 1_655 S
C3456 C3458 1.395 1_655 S
C3456 C3459 1.403 . S
H3457 C3463 0.930 . S
C3458 H3444 0.930 . S
C3458 C3456 1.395 1_455 S
C3458 C3461 1.403 1_455 S
C3459 C3456 1.403 . S
C3459 C3460 1.524 . S
C3459 C3463 1.400 . S
C3460 H3445 0.960 . S
C3460 H3446 0.960 . S
C3460 H3447 0.960 . S
C3460 C3459 1.524 . S
C3461 C3458 1.403 1_655 S
C3461 C3462 1.392 . S
C3461 C3465 1.495 1_655 S
C3462 C3461 1.392 . S
C3462 C3463 1.385 . S
C3462 C3464 1.478 . S
C3463 H3457 0.930 . S
C3463 C3459 1.400 . S
C3463 C3462 1.385 . S
C3464 C3462 1.478 . S
C3464 C3466 1.381 . S
C3464 C3470 1.383 . S
C3465 C3461 1.495 1_455 S
C3465 H3471 0.959 . S
C3465 H3472 0.961 . S
C3465 H3473 0.960 . S
C3466 C3464 1.381 . S
C3466 C3467 1.394 . S
C3466 H3474 0.930 . S
C3467 C3466 1.394 . S
C3467 C3468 1.383 . S
C3467 H3475 0.929 . S
C3468 C3467 1.383 . S
C3468 C3469 1.377 . S
C3469 H3453 0.930 . S
C3469 C3468 1.377 . S
C3469 C3470 1.379 . S
C3470 H3454 0.931 . S
C3470 C3464 1.383 . S
C3470 C3469 1.379 . S
H3471 C3465 0.959 . S
H3472 C3465 0.961 . S
H3473 C3465 0.960 . S
H3474 C3466 0.930 . S
H3475 C3467 0.929 . S
H3476 C3484 0.929 . S
H3477 C3486 0.930 . S
H3478 C3488 0.930 . S
H3479 C3491 0.929 . S
H3480 C3494 0.930 . S
H3481 C3496 0.960 . S
H3482 C3496 0.960 . S
H3483 C3496 0.960 . S
C3484 H3476 0.929 . S
C3484 C3485 1.377 . S
C3484 C3486 1.384 . S
C3485 C3484 1.377 . S
C3485 C3491 1.390 . S
C3486 H3477 0.930 . S
C3486 C3484 1.384 . S
C3486 C3487 1.372 . S
C3487 C3486 1.372 . S
C3487 C3488 1.400 . S
C3487 C3492 1.490 . S
C3488 H3478 0.930 . S
C3488 C3487 1.400 . S
C3488 C3491 1.386 . S
H3489 C3505 0.930 . S
H3490 C3506 0.931 . S
C3491 H3479 0.929 . S
C3491 C3485 1.390 . S
C3491 C3488 1.386 . S
C3492 C3487 1.490 . S
C3492 C3494 1.395 . S
C3492 C3495 1.403 . S
H3493 C3499 0.930 . S
C3494 H3480 0.930 . S
C3494 C3492 1.395 . S
C3494 C3497 1.403 . S
C3495 C3492 1.403 . S
C3495 C3496 1.524 . S
C3495 C3499 1.400 . S
C3496 H3481 0.960 . S
C3496 H3482 0.960 . S
C3496 H3483 0.960 . S
C3496 C3495 1.524 . S
C3497 C3494 1.403 . S
C3497 C3498 1.392 . S
C3497 C3501 1.495 . S
C3498 C3497 1.392 . S
C3498 C3499 1.385 . S
C3498 C3500 1.478 . S
C3499 H3493 0.930 . S
C3499 C3495 1.400 . S
C3499 C3498 1.385 . S
C3500 C3498 1.478 . S
C3500 C3502 1.381 . S
C3500 C3506 1.383 . S
C3501 C3497 1.495 . S
C3501 H3507 0.959 . S
C3501 H3508 0.961 . S
C3501 H3509 0.960 . S
C3502 C3500 1.381 . S
C3502 C3503 1.394 . S
C3502 H3510 0.930 . S
C3503 C3502 1.394 . S
C3503 C3504 1.383 . S
C3503 H3511 0.929 . S
C3504 C3503 1.383 . S
C3504 C3505 1.377 . S
C3505 H3489 0.930 . S
C3505 C3504 1.377 . S
C3505 C3506 1.379 . S
C3506 H3490 0.931 . S
C3506 C3500 1.383 . S
C3506 C3505 1.379 . S
H3507 C3501 0.959 . S
H3508 C3501 0.961 . S
H3509 C3501 0.960 . S
H3510 C3502 0.930 . S
H3511 C3503 0.929 . S
H3512 C3520 0.929 . S
H3513 C3522 0.930 1_556 S
H3514 C3524 0.930 . S
H3515 C3527 0.929 . S
H3516 C3530 0.930 . S
H3517 C3532 0.960 . S
H3518 C3532 0.960 . S
H3519 C3532 0.960 . S
C3520 H3512 0.929 . S
C3520 C3521 1.377 . S
C3520 C3522 1.384 . S
C3521 C3520 1.377 . S
C3521 C3527 1.390 . S
C3522 H3513 0.930 1_554 S
C3522 C3520 1.384 . S
C3522 C3523 1.372 1_554 S
C3523 C3522 1.372 1_556 S
C3523 C3524 1.400 1_556 S
C3523 C3528 1.490 . S
C3524 H3514 0.930 . S
C3524 C3523 1.400 1_554 S
C3524 C3527 1.386 . S
H3525 C3541 0.930 . S
H3526 C3542 0.931 . S
C3527 H3515 0.929 . S
C3527 C3521 1.390 . S
C3527 C3524 1.386 . S
C3528 C3523 1.490 . S
C3528 C3530 1.395 . S
C3528 C3531 1.403 . S
H3529 C3535 0.930 . S
C3530 H3516 0.930 . S
C3530 C3528 1.395 . S
C3530 C3533 1.403 . S
C3531 C3528 1.403 . S
C3531 C3532 1.524 . S
C3531 C3535 1.400 . S
C3532 H3517 0.960 . S
C3532 H3518 0.960 . S
C3532 H3519 0.960 . S
C3532 C3531 1.524 . S
C3533 C3530 1.403 . S
C3533 C3534 1.392 . S
C3533 C3537 1.495 . S
C3534 C3533 1.392 . S
C3534 C3535 1.385 . S
C3534 C3536 1.478 . S
C3535 H3529 0.930 . S
C3535 C3531 1.400 . S
C3535 C3534 1.385 . S
C3536 C3534 1.478 . S
C3536 C3538 1.381 . S
C3536 C3542 1.383 . S
C3537 C3533 1.495 . S
C3537 H3543 0.959 . S
C3537 H3544 0.961 . S
C3537 H3545 0.960 . S
C3538 C3536 1.381 . S
C3538 C3539 1.394 . S
C3538 H3546 0.930 . S
C3539 C3538 1.394 . S
C3539 C3540 1.383 . S
C3539 H3547 0.929 . S
C3540 C3539 1.383 . S
C3540 C3541 1.377 . S
C3541 H3525 0.930 . S
C3541 C3540 1.377 . S
C3541 C3542 1.379 . S
C3542 H3526 0.931 . S
C3542 C3536 1.383 . S
C3542 C3541 1.379 . S
H3543 C3537 0.959 . S
H3544 C3537 0.961 . S
H3545 C3537 0.960 . S
H3546 C3538 0.930 . S
H3547 C3539 0.929 . S
H3548 C3556 0.929 . S
H3549 C3558 0.930 . S
H3550 C3560 0.930 . S
H3551 C3563 0.929 . S
H3552 C3566 0.930 . S
H3553 C3568 0.960 . S
H3554 C3568 0.960 . S
H3555 C3568 0.960 . S
C3556 H3548 0.929 . S
C3556 C3557 1.377 . S
C3556 C3558 1.384 . S
C3557 C3556 1.377 . S
C3557 C3563 1.390 . S
C3558 H3549 0.930 . S
C3558 C3556 1.384 . S
C3558 C3559 1.372 . S
C3559 C3558 1.372 . S
C3559 C3560 1.400 . S
C3559 C3564 1.490 . S
C3560 H3550 0.930 . S
C3560 C3559 1.400 . S
C3560 C3563 1.386 . S
H3561 C3577 0.930 . S
H3562 C3578 0.931 . S
C3563 H3551 0.929 . S
C3563 C3557 1.390 . S
C3563 C3560 1.386 . S
C3564 C3559 1.490 . S
C3564 C3566 1.395 . S
C3564 C3567 1.403 . S
H3565 C3571 0.930 . S
C3566 H3552 0.930 . S
C3566 C3564 1.395 . S
C3566 C3569 1.403 . S
C3567 C3564 1.403 . S
C3567 C3568 1.524 . S
C3567 C3571 1.400 . S
C3568 H3553 0.960 . S
C3568 H3554 0.960 . S
C3568 H3555 0.960 . S
C3568 C3567 1.524 . S
C3569 C3566 1.403 . S
C3569 C3570 1.392 . S
C3569 C3573 1.495 . S
C3570 C3569 1.392 . S
C3570 C3571 1.385 . S
C3570 C3572 1.478 . S
C3571 H3565 0.930 . S
C3571 C3567 1.400 . S
C3571 C3570 1.385 . S
C3572 C3570 1.478 . S
C3572 C3574 1.381 . S
C3572 C3578 1.383 . S
C3573 C3569 1.495 . S
C3573 H3579 0.959 . S
C3573 H3580 0.961 . S
C3573 H3581 0.960 . S
C3574 C3572 1.381 . S
C3574 C3575 1.394 . S
C3574 H3582 0.930 . S
C3575 C3574 1.394 . S
C3575 C3576 1.383 . S
C3575 H3583 0.929 . S
C3576 C3575 1.383 . S
C3576 C3577 1.377 . S
C3577 H3561 0.930 . S
C3577 C3576 1.377 . S
C3577 C3578 1.379 . S
C3578 H3562 0.931 . S
C3578 C3572 1.383 . S
C3578 C3577 1.379 . S
H3579 C3573 0.959 . S
H3580 C3573 0.961 . S
H3581 C3573 0.960 . S
H3582 C3574 0.930 . S
H3583 C3575 0.929 . S
H3584 C3592 0.929 . S
H3585 C3594 0.930 . S
H3586 C3596 0.930 . S
H3587 C3599 0.929 . S
H3588 C3602 0.930 . S
H3589 C3604 0.960 . S
H3590 C3604 0.960 . S
H3591 C3604 0.960 . S
C3592 H3584 0.929 . S
C3592 C3593 1.377 . S
C3592 C3594 1.384 . S
C3593 C3592 1.377 . S
C3593 C3599 1.390 . S
C3594 H3585 0.930 . S
C3594 C3592 1.384 . S
C3594 C3595 1.372 . S
C3595 C3594 1.372 . S
C3595 C3596 1.400 . S
C3595 C3600 1.490 . S
C3596 H3586 0.930 . S
C3596 C3595 1.400 . S
C3596 C3599 1.386 . S
H3597 C3613 0.930 . S
H3598 C3614 0.931 . S
C3599 H3587 0.929 . S
C3599 C3593 1.390 . S
C3599 C3596 1.386 . S
C3600 C3595 1.490 . S
C3600 C3602 1.395 . S
C3600 C3603 1.403 . S
H3601 C3607 0.930 . S
C3602 H3588 0.930 . S
C3602 C3600 1.395 . S
C3602 C3605 1.403 . S
C3603 C3600 1.403 . S
C3603 C3604 1.524 . S
C3603 C3607 1.400 . S
C3604 H3589 0.960 . S
C3604 H3590 0.960 . S
C3604 H3591 0.960 . S
C3604 C3603 1.524 . S
C3605 C3602 1.403 . S
C3605 C3606 1.392 . S
C3605 C3609 1.495 . S
C3606 C3605 1.392 . S
C3606 C3607 1.385 . S
C3606 C3608 1.478 . S
C3607 H3601 0.930 . S
C3607 C3603 1.400 . S
C3607 C3606 1.385 . S
C3608 C3606 1.478 . S
C3608 C3610 1.381 . S
C3608 C3614 1.383 . S
C3609 C3605 1.495 . S
C3609 H3615 0.959 . S
C3609 H3616 0.961 . S
C3609 H3617 0.960 . S
C3610 C3608 1.381 . S
C3610 C3611 1.394 . S
C3610 H3618 0.930 . S
C3611 C3610 1.394 . S
C3611 C3612 1.383 . S
C3611 H3619 0.929 . S
C3612 C3611 1.383 . S
C3612 C3613 1.377 . S
C3613 H3597 0.930 . S
C3613 C3612 1.377 . S
C3613 C3614 1.379 . S
C3614 H3598 0.931 . S
C3614 C3608 1.383 . S
C3614 C3613 1.379 . S
H3615 C3609 0.959 . S
H3616 C3609 0.961 . S
H3617 C3609 0.960 . S
H3618 C3610 0.930 . S
H3619 C3611 0.929 . S
H3620 C3628 0.929 . S
H3621 C3630 0.930 . S
H3622 C3632 0.930 . S
H3623 C3635 0.929 . S
H3624 C3638 0.930 . S
H3625 C3640 0.960 . S
H3626 C3640 0.960 . S
H3627 C3640 0.960 . S
C3628 H3620 0.929 . S
C3628 C3629 1.377 . S
C3628 C3630 1.384 . S
C3629 C3628 1.377 . S
C3629 C3635 1.390 . S
C3630 H3621 0.930 . S
C3630 C3628 1.384 . S
C3630 C3631 1.372 . S
C3631 C3630 1.372 . S
C3631 C3632 1.400 . S
C3631 C3636 1.490 . S
C3632 H3622 0.930 . S
C3632 C3631 1.400 . S
C3632 C3635 1.386 . S
H3633 C3649 0.930 . S
H3634 C3650 0.931 . S
C3635 H3623 0.929 . S
C3635 C3629 1.390 . S
C3635 C3632 1.386 . S
C3636 C3631 1.490 . S
C3636 C3638 1.395 . S
C3636 C3639 1.403 . S
H3637 C3643 0.930 . S
C3638 H3624 0.930 . S
C3638 C3636 1.395 . S
C3638 C3641 1.403 . S
C3639 C3636 1.403 . S
C3639 C3640 1.524 . S
C3639 C3643 1.400 . S
C3640 H3625 0.960 . S
C3640 H3626 0.960 . S
C3640 H3627 0.960 . S
C3640 C3639 1.524 . S
C3641 C3638 1.403 . S
C3641 C3642 1.392 . S
C3641 C3645 1.495 . S
C3642 C3641 1.392 . S
C3642 C3643 1.385 . S
C3642 C3644 1.478 . S
C3643 H3637 0.930 . S
C3643 C3639 1.400 . S
C3643 C3642 1.385 . S
C3644 C3642 1.478 . S
C3644 C3646 1.381 . S
C3644 C3650 1.383 . S
C3645 C3641 1.495 . S
C3645 H3651 0.959 . S
C3645 H3652 0.961 . S
C3645 H3653 0.960 . S
C3646 C3644 1.381 . S
C3646 C3647 1.394 . S
C3646 H3654 0.930 . S
C3647 C3646 1.394 . S
C3647 C3648 1.383 . S
C3647 H3655 0.929 . S
C3648 C3647 1.383 . S
C3648 C3649 1.377 . S
C3649 H3633 0.930 . S
C3649 C3648 1.377 . S
C3649 C3650 1.379 . S
C3650 H3634 0.931 . S
C3650 C3644 1.383 . S
C3650 C3649 1.379 . S
H3651 C3645 0.959 . S
H3652 C3645 0.961 . S
H3653 C3645 0.960 . S
H3654 C3646 0.930 . S
H3655 C3647 0.929 . S
H3656 C3664 0.929 . S
H3657 C3666 0.930 1_455 S
H3658 C3668 0.930 . S
H3659 C3671 0.929 . S
H3660 C3674 0.930 . S
H3661 C3676 0.960 . S
H3662 C3676 0.960 . S
H3663 C3676 0.960 . S
C3664 H3656 0.929 . S
C3664 C3665 1.377 . S
C3664 C3666 1.384 . S
C3665 C3664 1.377 . S
C3665 C3671 1.390 . S
C3666 H3657 0.930 1_655 S
C3666 C3664 1.384 . S
C3666 C3667 1.372 1_554 S
C3667 C3666 1.372 1_556 S
C3667 C3668 1.400 . S
C3667 C3672 1.490 . S
C3668 H3658 0.930 . S
C3668 C3667 1.400 . S
C3668 C3671 1.386 1_556 S
H3669 C3685 0.930 . S
H3670 C3686 0.931 . S
C3671 H3659 0.929 . S
C3671 C3665 1.390 . S
C3671 C3668 1.386 1_554 S
C3672 C3667 1.490 . S
C3672 C3674 1.395 1_655 S
C3672 C3675 1.403 . S
H3673 C3679 0.930 1_655 S
C3674 H3660 0.930 . S
C3674 C3672 1.395 1_455 S
C3674 C3677 1.403 . S
C3675 C3672 1.403 . S
C3675 C3676 1.524 . S
C3675 C3679 1.400 1_655 S
C3676 H3661 0.960 . S
C3676 H3662 0.960 . S
C3676 H3663 0.960 . S
C3676 C3675 1.524 . S
C3677 C3674 1.403 . S
C3677 C3678 1.392 . S
C3677 C3681 1.495 . S
C3678 C3677 1.392 . S
C3678 C3679 1.385 . S
C3678 C3680 1.478 . S
C3679 H3673 0.930 1_455 S
C3679 C3675 1.400 1_455 S
C3679 C3678 1.385 . S
C3680 C3678 1.478 . S
C3680 C3682 1.381 . S
C3680 C3686 1.383 . S
C3681 C3677 1.495 . S
C3681 H3687 0.959 . S
C3681 H3688 0.961 . S
C3681 H3689 0.960 . S
C3682 C3680 1.381 . S
C3682 C3683 1.394 . S
C3682 H3690 0.930 . S
C3683 C3682 1.394 . S
C3683 C3684 1.383 . S
C3683 H3691 0.929 . S
C3684 C3683 1.383 . S
C3684 C3685 1.377 . S
C3685 H3669 0.930 . S
C3685 C3684 1.377 . S
C3685 C3686 1.379 . S
C3686 H3670 0.931 . S
C3686 C3680 1.383 . S
C3686 C3685 1.379 . S
H3687 C3681 0.959 . S
H3688 C3681 0.961 . S
H3689 C3681 0.960 . S
H3690 C3682 0.930 . S
H3691 C3683 0.929 . S
H3692 C3700 0.929 . S
H3693 C3702 0.930 . S
H3694 C3704 0.930 . S
H3695 C3707 0.929 . S
H3696 C3710 0.930 . S
H3697 C3712 0.960 . S
H3698 C3712 0.960 . S
H3699 C3712 0.960 . S
C3700 H3692 0.929 . S
C3700 C3701 1.377 . S
C3700 C3702 1.384 . S
C3701 C3700 1.377 . S
C3701 C3707 1.390 . S
C3702 H3693 0.930 . S
C3702 C3700 1.384 . S
C3702 C3703 1.372 . S
C3703 C3702 1.372 . S
C3703 C3704 1.400 . S
C3703 C3708 1.490 . S
C3704 H3694 0.930 . S
C3704 C3703 1.400 . S
C3704 C3707 1.386 . S
H3705 C3721 0.930 . S
H3706 C3722 0.931 . S
C3707 H3695 0.929 . S
C3707 C3701 1.390 . S
C3707 C3704 1.386 . S
C3708 C3703 1.490 . S
C3708 C3710 1.395 . S
C3708 C3711 1.403 . S
H3709 C3715 0.930 . S
C3710 H3696 0.930 . S
C3710 C3708 1.395 . S
C3710 C3713 1.403 . S
C3711 C3708 1.403 . S
C3711 C3712 1.524 . S
C3711 C3715 1.400 . S
C3712 H3697 0.960 . S
C3712 H3698 0.960 . S
C3712 H3699 0.960 . S
C3712 C3711 1.524 . S
C3713 C3710 1.403 . S
C3713 C3714 1.392 . S
C3713 C3717 1.495 . S
C3714 C3713 1.392 . S
C3714 C3715 1.385 . S
C3714 C3716 1.478 . S
C3715 H3709 0.930 . S
C3715 C3711 1.400 . S
C3715 C3714 1.385 . S
C3716 C3714 1.478 . S
C3716 C3718 1.381 . S
C3716 C3722 1.383 . S
C3717 C3713 1.495 . S
C3717 H3723 0.959 . S
C3717 H3724 0.961 . S
C3717 H3725 0.960 . S
C3718 C3716 1.381 . S
C3718 C3719 1.394 . S
C3718 H3726 0.930 . S
C3719 C3718 1.394 . S
C3719 C3720 1.383 . S
C3719 H3727 0.929 . S
C3720 C3719 1.383 . S
C3720 C3721 1.377 . S
C3721 H3705 0.930 . S
C3721 C3720 1.377 . S
C3721 C3722 1.379 . S
C3722 H3706 0.931 . S
C3722 C3716 1.383 . S
C3722 C3721 1.379 . S
H3723 C3717 0.959 . S
H3724 C3717 0.961 . S
H3725 C3717 0.960 . S
H3726 C3718 0.930 . S
H3727 C3719 0.929 . S
H3728 C3736 0.929 . S
H3729 C3738 0.930 . S
H3730 C3740 0.930 . S
H3731 C3743 0.929 . S
H3732 C3746 0.930 . S
H3733 C3748 0.960 . S
H3734 C3748 0.960 . S
H3735 C3748 0.960 . S
C3736 H3728 0.929 . S
C3736 C3737 1.377 . S
C3736 C3738 1.384 . S
C3737 C3736 1.377 . S
C3737 C3743 1.390 . S
C3738 H3729 0.930 . S
C3738 C3736 1.384 . S
C3738 C3739 1.372 . S
C3739 C3738 1.372 . S
C3739 C3740 1.400 . S
C3739 C3744 1.490 . S
C3740 H3730 0.930 . S
C3740 C3739 1.400 . S
C3740 C3743 1.386 . S
H3741 C3757 0.930 . S
H3742 C3758 0.931 . S
C3743 H3731 0.929 . S
C3743 C3737 1.390 . S
C3743 C3740 1.386 . S
C3744 C3739 1.490 . S
C3744 C3746 1.395 . S
C3744 C3747 1.403 . S
H3745 C3751 0.930 . S
C3746 H3732 0.930 . S
C3746 C3744 1.395 . S
C3746 C3749 1.403 . S
C3747 C3744 1.403 . S
C3747 C3748 1.524 . S
C3747 C3751 1.400 . S
C3748 H3733 0.960 . S
C3748 H3734 0.960 . S
C3748 H3735 0.960 . S
C3748 C3747 1.524 . S
C3749 C3746 1.403 . S
C3749 C3750 1.392 . S
C3749 C3753 1.495 . S
C3750 C3749 1.392 . S
C3750 C3751 1.385 . S
C3750 C3752 1.478 . S
C3751 H3745 0.930 . S
C3751 C3747 1.400 . S
C3751 C3750 1.385 . S
C3752 C3750 1.478 . S
C3752 C3754 1.381 . S
C3752 C3758 1.383 . S
C3753 C3749 1.495 . S
C3753 H3759 0.959 . S
C3753 H3760 0.961 . S
C3753 H3761 0.960 . S
C3754 C3752 1.381 . S
C3754 C3755 1.394 . S
C3754 H3762 0.930 . S
C3755 C3754 1.394 . S
C3755 C3756 1.383 . S
C3755 H3763 0.929 . S
C3756 C3755 1.383 . S
C3756 C3757 1.377 . S
C3757 H3741 0.930 . S
C3757 C3756 1.377 . S
C3757 C3758 1.379 . S
C3758 H3742 0.931 . S
C3758 C3752 1.383 . S
C3758 C3757 1.379 . S
H3759 C3753 0.959 . S
H3760 C3753 0.961 . S
H3761 C3753 0.960 . S
H3762 C3754 0.930 . S
H3763 C3755 0.929 . S
H3764 C3772 0.929 . S
H3765 C3774 0.930 . S
H3766 C3776 0.930 . S
H3767 C3779 0.929 . S
H3768 C3782 0.930 . S
H3769 C3784 0.960 . S
H3770 C3784 0.960 . S
H3771 C3784 0.960 . S
C3772 H3764 0.929 . S
C3772 C3773 1.377 . S
C3772 C3774 1.384 . S
C3773 C3772 1.377 . S
C3773 C3779 1.390 . S
C3774 H3765 0.930 . S
C3774 C3772 1.384 . S
C3774 C3775 1.372 . S
C3775 C3774 1.372 . S
C3775 C3776 1.400 . S
C3775 C3780 1.490 . S
C3776 H3766 0.930 . S
C3776 C3775 1.400 . S
C3776 C3779 1.386 . S
H3777 C3793 0.930 . S
H3778 C3794 0.931 . S
C3779 H3767 0.929 . S
C3779 C3773 1.390 . S
C3779 C3776 1.386 . S
C3780 C3775 1.490 . S
C3780 C3782 1.395 . S
C3780 C3783 1.403 . S
H3781 C3787 0.930 . S
C3782 H3768 0.930 . S
C3782 C3780 1.395 . S
C3782 C3785 1.403 . S
C3783 C3780 1.403 . S
C3783 C3784 1.524 . S
C3783 C3787 1.400 . S
C3784 H3769 0.960 . S
C3784 H3770 0.960 . S
C3784 H3771 0.960 . S
C3784 C3783 1.524 . S
C3785 C3782 1.403 . S
C3785 C3786 1.392 . S
C3785 C3789 1.495 . S
C3786 C3785 1.392 . S
C3786 C3787 1.385 . S
C3786 C3788 1.478 . S
C3787 H3781 0.930 . S
C3787 C3783 1.400 . S
C3787 C3786 1.385 . S
C3788 C3786 1.478 . S
C3788 C3790 1.381 . S
C3788 C3794 1.383 . S
C3789 C3785 1.495 . S
C3789 H3795 0.959 . S
C3789 H3796 0.961 . S
C3789 H3797 0.960 . S
C3790 C3788 1.381 . S
C3790 C3791 1.394 . S
C3790 H3798 0.930 . S
C3791 C3790 1.394 . S
C3791 C3792 1.383 . S
C3791 H3799 0.929 . S
C3792 C3791 1.383 . S
C3792 C3793 1.377 . S
C3793 H3777 0.930 . S
C3793 C3792 1.377 . S
C3793 C3794 1.379 . S
C3794 H3778 0.931 . S
C3794 C3788 1.383 . S
C3794 C3793 1.379 . S
H3795 C3789 0.959 . S
H3796 C3789 0.961 . S
H3797 C3789 0.960 . S
H3798 C3790 0.930 . S
H3799 C3791 0.929 . S
H3800 C3808 0.929 . S
H3801 C3810 0.930 . S
H3802 C3812 0.930 . S
H3803 C3815 0.934 . S
H3804 C3818 0.930 . S
H3805 C3820 0.960 . S
H3806 C3820 0.960 . S
H3807 C3820 0.960 . S
C3808 H3800 0.929 . S
C3808 C3809 1.377 1_556 S
C3808 C3810 1.384 . S
C3809 C3808 1.377 1_554 S
C3809 C3815 1.390 1_554 S
C3810 H3801 0.930 . S
C3810 C3808 1.384 . S
C3810 C3811 1.372 . S
C3811 C3810 1.372 . S
C3811 C3812 1.400 . S
C3811 C3816 1.490 1_455 S
C3812 H3802 0.930 . S
C3812 C3811 1.400 . S
C3812 C3815 1.386 . S
H3813 C3829 0.930 . S
H3814 C3830 0.931 . S
C3815 H3803 0.934 . S
C3815 C3809 1.390 1_556 S
C3815 C3812 1.386 . S
C3816 C3811 1.490 1_655 S
C3816 C3818 1.395 . S
C3816 C3819 1.401 . S
H3817 C3823 0.930 . S
C3818 H3804 0.930 . S
C3818 C3816 1.395 . S
C3818 C3821 1.403 . S
C3819 C3816 1.401 . S
C3819 C3820 1.528 1_655 S
C3819 C3823 1.398 . S
C3820 H3805 0.960 . S
C3820 H3806 0.960 . S
C3820 H3807 0.960 . S
C3820 C3819 1.528 1_455 S
C3821 C3818 1.403 . S
C3821 C3822 1.392 . S
C3821 C3825 1.495 . S
C3822 C3821 1.392 . S
C3822 C3823 1.385 . S
C3822 C3824 1.478 . S
C3823 H3817 0.930 . S
C3823 C3819 1.398 . S
C3823 C3822 1.385 . S
C3824 C3822 1.478 . S
C3824 C3826 1.381 . S
C3824 C3830 1.383 . S
C3825 C3821 1.495 . S
C3825 H3831 0.959 . S
C3825 H3832 0.961 . S
C3825 H3833 0.960 . S
C3826 C3824 1.381 . S
C3826 C3827 1.394 . S
C3826 H3834 0.930 . S
C3827 C3826 1.394 . S
C3827 C3828 1.383 . S
C3827 H3835 0.929 . S
C3828 C3827 1.383 . S
C3828 C3829 1.377 . S
C3829 H3813 0.930 . S
C3829 C3828 1.377 . S
C3829 C3830 1.379 . S
C3830 H3814 0.931 . S
C3830 C3824 1.383 . S
C3830 C3829 1.379 . S
H3831 C3825 0.959 . S
H3832 C3825 0.961 . S
H3833 C3825 0.960 . S
H3834 C3826 0.930 . S
H3835 C3827 0.929 . S
H3836 C3844 0.929 . S
H3837 C3846 0.930 . S
H3838 C3848 0.930 . S
H3839 C3851 0.929 . S
H3840 C3854 0.930 . S
H3841 C3856 0.960 . S
H3842 C3856 0.960 . S
H3843 C3856 0.960 . S
C3844 H3836 0.929 . S
C3844 C3845 1.377 . S
C3844 C3846 1.384 . S
C3845 C3844 1.377 . S
C3845 C3851 1.390 . S
C3846 H3837 0.930 . S
C3846 C3844 1.384 . S
C3846 C3847 1.372 . S
C3847 C3846 1.372 . S
C3847 C3848 1.400 . S
C3847 C3852 1.490 . S
C3848 H3838 0.930 . S
C3848 C3847 1.400 . S
C3848 C3851 1.386 . S
H3849 C3865 0.930 . S
H3850 C3866 0.931 . S
C3851 H3839 0.929 . S
C3851 C3845 1.390 . S
C3851 C3848 1.386 . S
C3852 C3847 1.490 . S
C3852 C3854 1.395 . S
C3852 C3855 1.403 . S
H3853 C3859 0.930 . S
C3854 H3840 0.930 . S
C3854 C3852 1.395 . S
C3854 C3857 1.403 . S
C3855 C3852 1.403 . S
C3855 C3856 1.524 . S
C3855 C3859 1.400 . S
C3856 H3841 0.960 . S
C3856 H3842 0.960 . S
C3856 H3843 0.960 . S
C3856 C3855 1.524 . S
C3857 C3854 1.403 . S
C3857 C3858 1.392 . S
C3857 C3861 1.495 . S
C3858 C3857 1.392 . S
C3858 C3859 1.385 . S
C3858 C3860 1.478 . S
C3859 H3853 0.930 . S
C3859 C3855 1.400 . S
C3859 C3858 1.385 . S
C3860 C3858 1.478 . S
C3860 C3862 1.381 . S
C3860 C3866 1.383 . S
C3861 C3857 1.495 . S
C3861 H3867 0.959 . S
C3861 H3868 0.961 . S
C3861 H3869 0.960 . S
C3862 C3860 1.381 . S
C3862 C3863 1.394 . S
C3862 H3870 0.930 . S
C3863 C3862 1.394 . S
C3863 C3864 1.383 . S
C3863 H3871 0.929 . S
C3864 C3863 1.383 . S
C3864 C3865 1.377 . S
C3865 H3849 0.930 . S
C3865 C3864 1.377 . S
C3865 C3866 1.379 . S
C3866 H3850 0.931 . S
C3866 C3860 1.383 . S
C3866 C3865 1.379 . S
H3867 C3861 0.959 . S
H3868 C3861 0.961 . S
H3869 C3861 0.960 . S
H3870 C3862 0.930 . S
H3871 C3863 0.929 . S
H3872 C3880 0.929 . S
H3873 C3882 0.930 . S
H3874 C3884 0.930 . S
H3875 C3887 0.929 . S
H3876 C3890 0.930 . S
H3877 C3892 0.960 . S
H3878 C3892 0.960 . S
H3879 C3892 0.960 . S
C3880 H3872 0.929 . S
C3880 C3881 1.377 . S
C3880 C3882 1.384 . S
C3881 C3880 1.377 . S
C3881 C3887 1.390 . S
C3882 H3873 0.930 . S
C3882 C3880 1.384 . S
C3882 C3883 1.372 . S
C3883 C3882 1.372 . S
C3883 C3884 1.400 . S
C3883 C3888 1.490 . S
C3884 H3874 0.930 . S
C3884 C3883 1.400 . S
C3884 C3887 1.386 . S
H3885 C3901 0.930 . S
H3886 C3902 0.931 . S
C3887 H3875 0.929 . S
C3887 C3881 1.390 . S
C3887 C3884 1.386 . S
C3888 C3883 1.490 . S
C3888 C3890 1.395 . S
C3888 C3891 1.403 . S
H3889 C3895 0.930 . S
C3890 H3876 0.930 . S
C3890 C3888 1.395 . S
C3890 C3893 1.403 . S
C3891 C3888 1.403 . S
C3891 C3892 1.524 . S
C3891 C3895 1.400 . S
C3892 H3877 0.960 . S
C3892 H3878 0.960 . S
C3892 H3879 0.960 . S
C3892 C3891 1.524 . S
C3893 C3890 1.403 . S
C3893 C3894 1.392 . S
C3893 C3897 1.495 . S
C3894 C3893 1.392 . S
C3894 C3895 1.385 . S
C3894 C3896 1.478 . S
C3895 H3889 0.930 . S
C3895 C3891 1.400 . S
C3895 C3894 1.385 . S
C3896 C3894 1.478 . S
C3896 C3898 1.381 . S
C3896 C3902 1.383 . S
C3897 C3893 1.495 . S
C3897 H3903 0.959 . S
C3897 H3904 0.961 . S
C3897 H3905 0.960 . S
C3898 C3896 1.381 . S
C3898 C3899 1.394 . S
C3898 H3906 0.930 . S
C3899 C3898 1.394 . S
C3899 C3900 1.383 . S
C3899 H3907 0.929 1_556 S
C3900 C3899 1.383 . S
C3900 C3901 1.377 . S
C3901 H3885 0.930 . S
C3901 C3900 1.377 . S
C3901 C3902 1.379 . S
C3902 H3886 0.931 . S
C3902 C3896 1.383 . S
C3902 C3901 1.379 . S
H3903 C3897 0.959 . S
H3904 C3897 0.961 . S
H3905 C3897 0.960 . S
H3906 C3898 0.930 . S
H3907 C3899 0.929 1_554 S
H3908 C3916 0.929 . S
H3909 C3918 0.930 . S
H3910 C3920 0.930 . S
H3911 C3923 0.929 . S
H3912 C3926 0.930 . S
H3913 C3928 0.960 . S
H3914 C3928 0.960 . S
H3915 C3928 0.960 . S
C3916 H3908 0.929 . S
C3916 C3917 1.377 . S
C3916 C3918 1.384 . S
C3917 C3916 1.377 . S
C3917 C3923 1.390 . S
C3918 H3909 0.930 . S
C3918 C3916 1.384 . S
C3918 C3919 1.372 . S
C3919 C3918 1.372 . S
C3919 C3920 1.400 . S
C3919 C3924 1.490 . S
C3920 H3910 0.930 . S
C3920 C3919 1.400 . S
C3920 C3923 1.386 . S
H3921 C3937 0.930 . S
H3922 C3938 0.931 . S
C3923 H3911 0.929 . S
C3923 C3917 1.390 . S
C3923 C3920 1.386 . S
C3924 C3919 1.490 . S
C3924 C3926 1.395 . S
C3924 C3927 1.403 . S
H3925 C3931 0.930 . S
C3926 H3912 0.930 . S
C3926 C3924 1.395 . S
C3926 C3929 1.403 . S
C3927 C3924 1.403 . S
C3927 C3928 1.524 . S
C3927 C3931 1.400 . S
C3928 H3913 0.960 . S
C3928 H3914 0.960 . S
C3928 H3915 0.960 . S
C3928 C3927 1.524 . S
C3929 C3926 1.403 . S
C3929 C3930 1.392 . S
C3929 C3933 1.495 . S
C3930 C3929 1.392 . S
C3930 C3931 1.385 . S
C3930 C3932 1.478 . S
C3931 H3925 0.930 . S
C3931 C3927 1.400 . S
C3931 C3930 1.385 . S
C3932 C3930 1.478 . S
C3932 C3934 1.381 . S
C3932 C3938 1.383 . S
C3933 C3929 1.495 . S
C3933 H3939 0.959 . S
C3933 H3940 0.961 . S
C3933 H3941 0.960 . S
C3934 C3932 1.381 . S
C3934 C3935 1.394 . S
C3934 H3942 0.930 . S
C3935 C3934 1.394 . S
C3935 C3936 1.383 . S
C3935 H3943 0.929 . S
C3936 C3935 1.383 . S
C3936 C3937 1.377 . S
C3937 H3921 0.930 . S
C3937 C3936 1.377 . S
C3937 C3938 1.379 . S
C3938 H3922 0.931 . S
C3938 C3932 1.383 . S
C3938 C3937 1.379 . S
H3939 C3933 0.959 . S
H3940 C3933 0.961 . S
H3941 C3933 0.960 . S
H3942 C3934 0.930 . S
H3943 C3935 0.929 . S
H3944 C3952 0.929 . S
H3945 C3954 0.930 . S
H3946 C3956 0.930 1_655 S
H3947 C3959 0.929 . S
H3948 C3962 0.930 . S
H3949 C3964 0.960 . S
H3950 C3964 0.960 1_455 S
H3951 C3964 0.960 . S
C3952 H3944 0.929 . S
C3952 C3953 1.377 . S
C3952 C3954 1.384 . S
C3953 C3952 1.377 . S
C3953 C3959 1.390 . S
C3954 H3945 0.930 . S
C3954 C3952 1.384 . S
C3954 C3955 1.372 . S
C3955 C3954 1.372 . S
C3955 C3956 1.400 . S
C3955 C3960 1.490 . S
C3956 H3946 0.930 1_455 S
C3956 C3955 1.400 . S
C3956 C3959 1.386 . S
H3957 C3973 0.930 . S
H3958 C3974 0.931 . S
C3959 H3947 0.929 . S
C3959 C3953 1.390 . S
C3959 C3956 1.386 . S
C3960 C3955 1.490 . S
C3960 C3962 1.395 . S
C3960 C3963 1.403 1_455 S
H3961 C3967 0.930 . S
C3962 H3948 0.930 . S
C3962 C3960 1.395 . S
C3962 C3965 1.403 1_455 S
C3963 C3960 1.403 1_655 S
C3963 C3964 1.524 . S
C3963 C3967 1.400 . S
C3964 H3949 0.960 . S
C3964 H3950 0.960 1_655 S
C3964 H3951 0.960 . S
C3964 C3963 1.524 . S
C3965 C3962 1.403 1_655 S
C3965 C3966 1.392 . S
C3965 C3969 1.495 . S
C3966 C3965 1.392 . S
C3966 C3967 1.385 . S
C3966 C3968 1.478 . S
C3967 H3961 0.930 . S
C3967 C3963 1.400 . S
C3967 C3966 1.385 . S
C3968 C3966 1.478 . S
C3968 C3970 1.381 . S
C3968 C3974 1.383 . S
C3969 C3965 1.495 . S
C3969 H3975 0.959 1_655 S
C3969 H3976 0.961 . S
C3969 H3977 0.974 . S
C3970 C3968 1.381 . S
C3970 C3971 1.394 . S
C3970 H3978 0.930 . S
C3971 C3970 1.394 . S
C3971 C3972 1.383 . S
C3971 H3979 0.929 . S
C3972 C3971 1.383 . S
C3972 C3973 1.377 . S
C3973 H3957 0.930 . S
C3973 C3972 1.377 . S
C3973 C3974 1.379 . S
C3974 H3958 0.931 . S
C3974 C3968 1.383 . S
C3974 C3973 1.379 . S
H3975 C3969 0.959 1_455 S
H3976 C3969 0.961 . S
H3977 C3969 0.974 . S
H3978 C3970 0.930 . S
H3979 C3971 0.929 . S
H3980 C3988 0.929 . S
H3981 C3990 0.930 . S
H3982 C3992 0.930 . S
H3983 C3995 0.929 . S
H3984 C3998 0.930 . S
H3985 C4000 0.960 . S
H3986 C4000 0.960 . S
H3987 C4000 0.960 . S
C3988 H3980 0.929 . S
C3988 C3989 1.377 . S
C3988 C3990 1.384 . S
C3989 C3988 1.377 . S
C3989 C3995 1.390 . S
C3990 H3981 0.930 . S
C3990 C3988 1.384 . S
C3990 C3991 1.372 . S
C3991 C3990 1.372 . S
C3991 C3992 1.400 . S
C3991 C3996 1.490 . S
C3992 H3982 0.930 . S
C3992 C3991 1.400 . S
C3992 C3995 1.386 . S
H3993 C4009 0.930 . S
H3994 C4010 0.931 . S
C3995 H3983 0.929 . S
C3995 C3989 1.390 . S
C3995 C3992 1.386 . S
C3996 C3991 1.490 . S
C3996 C3998 1.395 . S
C3996 C3999 1.403 . S
H3997 C4003 0.930 . S
C3998 H3984 0.930 . S
C3998 C3996 1.395 . S
C3998 C4001 1.403 . S
C3999 C3996 1.403 . S
C3999 C4000 1.524 . S
C3999 C4003 1.400 . S
C4000 H3985 0.960 . S
C4000 H3986 0.960 . S
C4000 H3987 0.960 . S
C4000 C3999 1.524 . S
C4001 C3998 1.403 . S
C4001 C4002 1.392 . S
C4001 C4005 1.495 . S
C4002 C4001 1.392 . S
C4002 C4003 1.385 . S
C4002 C4004 1.478 . S
C4003 H3997 0.930 . S
C4003 C3999 1.400 . S
C4003 C4002 1.385 . S
C4004 C4002 1.478 . S
C4004 C4006 1.381 . S
C4004 C4010 1.383 . S
C4005 C4001 1.495 . S
C4005 H4011 0.959 . S
C4005 H4012 0.961 . S
C4005 H4013 0.960 . S
C4006 C4004 1.381 . S
C4006 C4007 1.394 . S
C4006 H4014 0.930 . S
C4007 C4006 1.394 . S
C4007 C4008 1.383 . S
C4007 H4015 0.929 . S
C4008 C4007 1.383 . S
C4008 C4009 1.377 . S
C4009 H3993 0.930 . S
C4009 C4008 1.377 . S
C4009 C4010 1.379 . S
C4010 H3994 0.931 . S
C4010 C4004 1.383 . S
C4010 C4009 1.379 . S
H4011 C4005 0.959 . S
H4012 C4005 0.961 . S
H4013 C4005 0.960 . S
H4014 C4006 0.930 . S
H4015 C4007 0.929 . S
H4016 C4024 0.929 . S
H4017 C4026 0.930 . S
H4018 C4028 0.930 . S
H4019 C4031 0.929 . S
H4020 C4034 0.930 . S
H4021 C4036 0.960 . S
H4022 C4036 0.960 . S
H4023 C4036 0.960 . S
C4024 H4016 0.929 . S
C4024 C4025 1.377 . S
C4024 C4026 1.384 . S
C4025 C4024 1.377 . S
C4025 C4031 1.390 . S
C4026 H4017 0.930 . S
C4026 C4024 1.384 . S
C4026 C4027 1.372 . S
C4027 C4026 1.372 . S
C4027 C4028 1.400 . S
C4027 C4032 1.490 . S
C4028 H4018 0.930 . S
C4028 C4027 1.400 . S
C4028 C4031 1.386 . S
H4029 C4045 0.930 . S
H4030 C4046 0.931 1_556 S
C4031 H4019 0.929 . S
C4031 C4025 1.390 . S
C4031 C4028 1.386 . S
C4032 C4027 1.490 . S
C4032 C4034 1.395 . S
C4032 C4035 1.403 . S
H4033 C4039 0.930 . S
C4034 H4020 0.930 . S
C4034 C4032 1.395 . S
C4034 C4037 1.403 . S
C4035 C4032 1.403 . S
C4035 C4036 1.524 . S
C4035 C4039 1.400 . S
C4036 H4021 0.960 . S
C4036 H4022 0.960 . S
C4036 H4023 0.960 . S
C4036 C4035 1.524 . S
C4037 C4034 1.403 . S
C4037 C4038 1.392 . S
C4037 C4041 1.495 . S
C4038 C4037 1.392 . S
C4038 C4039 1.385 . S
C4038 C4040 1.478 . S
C4039 H4033 0.930 . S
C4039 C4035 1.400 . S
C4039 C4038 1.385 . S
C4040 C4038 1.478 . S
C4040 C4042 1.381 1_556 S
C4040 C4046 1.383 1_556 S
C4041 C4037 1.495 . S
C4041 H4047 0.959 . S
C4041 H4048 0.961 . S
C4041 H4049 0.960 . S
C4042 C4040 1.381 1_554 S
C4042 C4043 1.394 . S
C4042 H4050 0.930 . S
C4043 C4042 1.394 . S
C4043 C4044 1.383 . S
C4043 H4051 0.929 . S
C4044 C4043 1.383 . S
C4044 C4045 1.377 . S
C4045 H4029 0.930 . S
C4045 C4044 1.377 . S
C4045 C4046 1.379 . S
C4046 H4030 0.931 1_554 S
C4046 C4040 1.383 1_554 S
C4046 C4045 1.379 . S
H4047 C4041 0.959 . S
H4048 C4041 0.961 . S
H4049 C4041 0.960 . S
H4050 C4042 0.930 . S
H4051 C4043 0.929 . S
H4052 C4060 0.929 . S
H4053 C4062 0.930 . S
H4054 C4064 0.930 . S
H4055 C4067 0.929 . S
H4056 C4070 0.930 . S
H4057 C4072 0.960 . S
H4058 C4072 0.960 . S
H4059 C4072 0.960 . S
C4060 H4052 0.929 . S
C4060 C4061 1.377 . S
C4060 C4062 1.384 . S
C4061 C4060 1.377 . S
C4061 C4067 1.390 . S
C4062 H4053 0.930 . S
C4062 C4060 1.384 . S
C4062 C4063 1.372 . S
C4063 C4062 1.372 . S
C4063 C4064 1.400 . S
C4063 C4068 1.490 . S
C4064 H4054 0.930 . S
C4064 C4063 1.400 . S
C4064 C4067 1.386 . S
H4065 C4081 0.930 . S
H4066 C4082 0.931 . S
C4067 H4055 0.929 . S
C4067 C4061 1.390 . S
C4067 C4064 1.386 . S
C4068 C4063 1.490 . S
C4068 C4070 1.395 . S
C4068 C4071 1.403 . S
H4069 C4075 0.930 . S
C4070 H4056 0.930 . S
C4070 C4068 1.395 . S
C4070 C4073 1.403 . S
C4071 C4068 1.403 . S
C4071 C4072 1.524 . S
C4071 C4075 1.400 . S
C4072 H4057 0.960 . S
C4072 H4058 0.960 . S
C4072 H4059 0.960 . S
C4072 C4071 1.524 . S
C4073 C4070 1.403 . S
C4073 C4074 1.392 . S
C4073 C4077 1.495 . S
C4074 C4073 1.392 . S
C4074 C4075 1.385 . S
C4074 C4076 1.478 . S
C4075 H4069 0.930 . S
C4075 C4071 1.400 . S
C4075 C4074 1.385 . S
C4076 C4074 1.478 . S
C4076 C4078 1.381 . S
C4076 C4082 1.383 . S
C4077 C4073 1.495 . S
C4077 H4083 0.959 . S
C4077 H4084 0.961 . S
C4077 H4085 0.960 . S
C4078 C4076 1.381 . S
C4078 C4079 1.394 . S
C4078 H4086 0.930 . S
C4079 C4078 1.394 . S
C4079 C4080 1.383 . S
C4079 H4087 0.929 . S
C4080 C4079 1.383 . S
C4080 C4081 1.377 . S
C4081 H4065 0.930 . S
C4081 C4080 1.377 . S
C4081 C4082 1.379 . S
C4082 H4066 0.931 . S
C4082 C4076 1.383 . S
C4082 C4081 1.379 . S
H4083 C4077 0.959 . S
H4084 C4077 0.961 . S
H4085 C4077 0.960 . S
H4086 C4078 0.930 . S
H4087 C4079 0.929 . S
H4088 C4096 0.929 . S
H4089 C4098 0.930 . S
H4090 C4100 0.930 . S
H4091 C4103 0.929 . S
H4092 C4106 0.930 . S
H4093 C4108 0.960 . S
H4094 C4108 0.960 1_455 S
H4095 C4108 0.960 . S
C4096 H4088 0.929 . S
C4096 C4097 1.377 . S
C4096 C4098 1.384 . S
C4097 C4096 1.377 . S
C4097 C4103 1.390 . S
C4098 H4089 0.930 . S
C4098 C4096 1.384 . S
C4098 C4099 1.372 . S
C4099 C4098 1.372 . S
C4099 C4100 1.400 . S
C4099 C4104 1.490 . S
C4100 H4090 0.930 . S
C4100 C4099 1.400 . S
C4100 C4103 1.386 . S
H4101 C4117 0.930 . S
H4102 C4118 0.931 . S
C4103 H4091 0.929 . S
C4103 C4097 1.390 . S
C4103 C4100 1.386 . S
C4104 C4099 1.490 . S
C4104 C4106 1.395 . S
C4104 C4107 1.403 . S
H4105 C4111 0.930 1_655 S
C4106 H4092 0.930 . S
C4106 C4104 1.395 . S
C4106 C4109 1.403 . S
C4107 C4104 1.403 . S
C4107 C4108 1.524 1_455 S
C4107 C4111 1.400 . S
C4108 H4093 0.960 . S
C4108 H4094 0.960 1_655 S
C4108 H4095 0.960 . S
C4108 C4107 1.524 1_655 S
C4109 C4106 1.403 . S
C4109 C4110 1.392 . S
C4109 C4113 1.495 . S
C4110 C4109 1.392 . S
C4110 C4111 1.385 . S
C4110 C4112 1.513 . S
C4111 H4105 0.930 1_455 S
C4111 C4107 1.400 . S
C4111 C4110 1.385 . S
C4112 C4110 1.513 . S
C4112 C4114 1.411 . S
C4112 C4118 1.318 1_455 S
C4113 C4109 1.495 . S
C4113 H4119 0.959 . S
C4113 H4120 0.961 . S
C4113 H4121 0.960 . S
C4114 C4112 1.411 . S
C4114 C4115 1.361 1_455 S
C4114 H4122 0.930 . S
C4115 C4114 1.361 1_655 S
C4115 C4116 1.446 . S
C4115 H4123 0.904 1_655 S
C4116 C4115 1.446 . S
C4116 C4117 1.377 . S
C4117 H4101 0.930 . S
C4117 C4116 1.377 . S
C4117 C4118 1.379 . S
C4118 H4102 0.931 . S
C4118 C4112 1.318 1_655 S
C4118 C4117 1.379 . S
H4119 C4113 0.959 . S
H4120 C4113 0.961 . S
H4121 C4113 0.960 . S
H4122 C4114 0.930 . S
H4123 C4115 0.904 1_455 S
H4124 C4132 0.929 . S
H4125 C4134 0.930 . S
H4126 C4136 0.930 . S
H4127 C4139 0.929 . S
H4128 C4142 0.930 . S
H4129 C4144 0.960 . S
H4130 C4144 0.960 . S
H4131 C4144 0.960 . S
C4132 H4124 0.929 . S
C4132 C4133 1.377 . S
C4132 C4134 1.384 . S
C4133 C4132 1.377 . S
C4133 C4139 1.390 . S
C4134 H4125 0.930 . S
C4134 C4132 1.384 . S
C4134 C4135 1.372 . S
C4135 C4134 1.372 . S
C4135 C4136 1.400 . S
C4135 C4140 1.490 . S
C4136 H4126 0.930 . S
C4136 C4135 1.400 . S
C4136 C4139 1.386 . S
H4137 C4153 0.930 . S
H4138 C4154 0.931 . S
C4139 H4127 0.929 . S
C4139 C4133 1.390 . S
C4139 C4136 1.386 . S
C4140 C4135 1.490 . S
C4140 C4142 1.395 . S
C4140 C4143 1.403 . S
H4141 C4147 0.930 . S
C4142 H4128 0.930 . S
C4142 C4140 1.395 . S
C4142 C4145 1.403 . S
C4143 C4140 1.403 . S
C4143 C4144 1.524 . S
C4143 C4147 1.400 . S
C4144 H4129 0.960 . S
C4144 H4130 0.960 . S
C4144 H4131 0.960 . S
C4144 C4143 1.524 . S
C4145 C4142 1.403 . S
C4145 C4146 1.392 . S
C4145 C4149 1.495 . S
C4146 C4145 1.392 . S
C4146 C4147 1.385 . S
C4146 C4148 1.478 . S
C4147 H4141 0.930 . S
C4147 C4143 1.400 . S
C4147 C4146 1.385 . S
C4148 C4146 1.478 . S
C4148 C4150 1.381 . S
C4148 C4154 1.383 . S
C4149 C4145 1.495 . S
C4149 H4155 0.959 . S
C4149 H4156 0.961 . S
C4149 H4157 0.960 . S
C4150 C4148 1.381 . S
C4150 C4151 1.394 . S
C4150 H4158 0.930 . S
C4151 C4150 1.394 . S
C4151 C4152 1.383 . S
C4151 H4159 0.929 . S
C4152 C4151 1.383 . S
C4152 C4153 1.377 . S
C4153 H4137 0.930 . S
C4153 C4152 1.377 . S
C4153 C4154 1.379 . S
C4154 H4138 0.931 . S
C4154 C4148 1.383 . S
C4154 C4153 1.379 . S
H4155 C4149 0.959 . S
H4156 C4149 0.961 . S
H4157 C4149 0.960 . S
H4158 C4150 0.930 . S
H4159 C4151 0.929 . S
H4160 C4168 0.929 . S
H4161 C4170 0.930 . S
H4162 C4172 0.930 . S
H4163 C4175 0.929 . S
H4164 C4178 0.930 . S
H4165 C4180 0.960 . S
H4166 C4180 0.960 . S
H4167 C4180 0.960 . S
C4168 H4160 0.929 . S
C4168 C4169 1.377 . S
C4168 C4170 1.384 . S
C4169 C4168 1.377 . S
C4169 C4175 1.390 . S
C4170 H4161 0.930 . S
C4170 C4168 1.384 . S
C4170 C4171 1.372 . S
C4171 C4170 1.372 . S
C4171 C4172 1.400 . S
C4171 C4176 1.490 . S
C4172 H4162 0.930 . S
C4172 C4171 1.400 . S
C4172 C4175 1.386 . S
H4173 C4189 0.930 . S
H4174 C4190 0.931 . S
C4175 H4163 0.929 . S
C4175 C4169 1.390 . S
C4175 C4172 1.386 . S
C4176 C4171 1.490 . S
C4176 C4178 1.395 . S
C4176 C4179 1.403 . S
H4177 C4183 0.930 . S
C4178 H4164 0.930 . S
C4178 C4176 1.395 . S
C4178 C4181 1.403 . S
C4179 C4176 1.403 . S
C4179 C4180 1.524 . S
C4179 C4183 1.400 . S
C4180 H4165 0.960 . S
C4180 H4166 0.960 . S
C4180 H4167 0.960 . S
C4180 C4179 1.524 . S
C4181 C4178 1.403 . S
C4181 C4182 1.392 . S
C4181 C4185 1.495 . S
C4182 C4181 1.392 . S
C4182 C4183 1.385 . S
C4182 C4184 1.478 . S
C4183 H4177 0.930 . S
C4183 C4179 1.400 . S
C4183 C4182 1.385 . S
C4184 C4182 1.478 . S
C4184 C4186 1.381 . S
C4184 C4190 1.383 . S
C4185 C4181 1.495 . S
C4185 H4191 0.959 . S
C4185 H4192 0.961 . S
C4185 H4193 0.960 . S
C4186 C4184 1.381 . S
C4186 C4187 1.394 . S
C4186 H4194 0.930 . S
C4187 C4186 1.394 . S
C4187 C4188 1.383 . S
C4187 H4195 0.929 . S
C4188 C4187 1.383 . S
C4188 C4189 1.377 . S
C4189 H4173 0.930 . S
C4189 C4188 1.377 . S
C4189 C4190 1.379 . S
C4190 H4174 0.931 . S
C4190 C4184 1.383 . S
C4190 C4189 1.379 . S
H4191 C4185 0.959 . S
H4192 C4185 0.961 . S
H4193 C4185 0.960 . S
H4194 C4186 0.930 . S
H4195 C4187 0.929 . S
H4196 C4204 0.929 . S
H4197 C4206 0.930 . S
H4198 C4208 0.930 . S
H4199 C4211 0.929 . S
H4200 C4214 0.930 . S
H4201 C4216 0.960 . S
H4202 C4216 0.960 . S
H4203 C4216 0.960 . S
C4204 H4196 0.929 . S
C4204 C4205 1.377 . S
C4204 C4206 1.384 . S
C4205 C4204 1.377 . S
C4205 C4211 1.390 . S
C4206 H4197 0.930 . S
C4206 C4204 1.384 . S
C4206 C4207 1.372 . S
C4207 C4206 1.372 . S
C4207 C4208 1.400 . S
C4207 C4212 1.490 1_556 S
C4208 H4198 0.930 . S
C4208 C4207 1.400 . S
C4208 C4211 1.386 . S
H4209 C4225 0.930 . S
H4210 C4226 0.931 . S
C4211 H4199 0.929 . S
C4211 C4205 1.390 . S
C4211 C4208 1.386 . S
C4212 C4207 1.490 1_554 S
C4212 C4214 1.395 . S
C4212 C4215 1.403 . S
H4213 C4219 0.930 . S
C4214 H4200 0.930 . S
C4214 C4212 1.395 . S
C4214 C4217 1.403 . S
C4215 C4212 1.403 . S
C4215 C4216 1.524 . S
C4215 C4219 1.400 . S
C4216 H4201 0.960 . S
C4216 H4202 0.960 . S
C4216 H4203 0.960 . S
C4216 C4215 1.524 . S
C4217 C4214 1.403 . S
C4217 C4218 1.392 . S
C4217 C4221 1.495 . S
C4218 C4217 1.392 . S
C4218 C4219 1.385 . S
C4218 C4220 1.478 . S
C4219 H4213 0.930 . S
C4219 C4215 1.400 . S
C4219 C4218 1.385 . S
C4220 C4218 1.478 . S
C4220 C4222 1.381 . S
C4220 C4226 1.383 . S
C4221 C4217 1.495 . S
C4221 H4227 0.959 . S
C4221 H4228 0.961 . S
C4221 H4229 0.960 . S
C4222 C4220 1.381 . S
C4222 C4223 1.394 . S
C4222 H4230 0.930 . S
C4223 C4222 1.394 . S
C4223 C4224 1.383 . S
C4223 H4231 0.929 . S
C4224 C4223 1.383 . S
C4224 C4225 1.377 . S
C4225 H4209 0.930 . S
C4225 C4224 1.377 . S
C4225 C4226 1.379 . S
C4226 H4210 0.931 . S
C4226 C4220 1.383 . S
C4226 C4225 1.379 . S
H4227 C4221 0.959 . S
H4228 C4221 0.961 . S
H4229 C4221 0.960 . S
H4230 C4222 0.930 . S
H4231 C4223 0.929 . S
H4232 C4240 0.929 . S
H4233 C4242 0.930 . S
H4234 C4244 0.930 . S
H4235 C4247 0.929 . S
H4236 C4250 0.930 . S
H4237 C4252 0.960 . S
H4238 C4252 0.960 . S
H4239 C4252 0.960 . S
C4240 H4232 0.929 . S
C4240 C4241 1.377 . S
C4240 C4242 1.384 . S
C4241 C4240 1.377 . S
C4241 C4247 1.390 . S
C4242 H4233 0.930 . S
C4242 C4240 1.384 . S
C4242 C4243 1.372 . S
C4243 C4242 1.372 . S
C4243 C4244 1.400 . S
C4243 C4248 1.490 . S
C4244 H4234 0.930 . S
C4244 C4243 1.400 . S
C4244 C4247 1.386 . S
H4245 C4261 0.930 . S
H4246 C4262 0.931 . S
C4247 H4235 0.929 . S
C4247 C4241 1.390 . S
C4247 C4244 1.386 . S
C4248 C4243 1.490 . S
C4248 C4250 1.395 . S
C4248 C4251 1.403 . S
H4249 C4255 0.930 . S
C4250 H4236 0.930 . S
C4250 C4248 1.395 . S
C4250 C4253 1.403 . S
C4251 C4248 1.403 . S
C4251 C4252 1.524 . S
C4251 C4255 1.400 . S
C4252 H4237 0.960 . S
C4252 H4238 0.960 . S
C4252 H4239 0.960 . S
C4252 C4251 1.524 . S
C4253 C4250 1.403 . S
C4253 C4254 1.392 . S
C4253 C4257 1.495 . S
C4254 C4253 1.392 . S
C4254 C4255 1.385 . S
C4254 C4256 1.478 . S
C4255 H4249 0.930 . S
C4255 C4251 1.400 . S
C4255 C4254 1.385 . S
C4256 C4254 1.478 . S
C4256 C4258 1.381 . S
C4256 C4262 1.383 . S
C4257 C4253 1.495 . S
C4257 H4263 0.959 . S
C4257 H4264 0.961 . S
C4257 H4265 0.960 . S
C4258 C4256 1.381 . S
C4258 C4259 1.394 . S
C4258 H4266 0.930 . S
C4259 C4258 1.394 . S
C4259 C4260 1.383 . S
C4259 H4267 0.929 . S
C4260 C4259 1.383 . S
C4260 C4261 1.377 . S
C4261 H4245 0.930 . S
C4261 C4260 1.377 . S
C4261 C4262 1.379 . S
C4262 H4246 0.931 . S
C4262 C4256 1.383 . S
C4262 C4261 1.379 . S
H4263 C4257 0.959 . S
H4264 C4257 0.961 . S
H4265 C4257 0.960 . S
H4266 C4258 0.930 . S
H4267 C4259 0.929 . S
H4268 C4276 0.929 . S
H4269 C4278 0.930 . S
H4270 C4280 0.930 . S
H4271 C4283 0.929 . S
H4272 C4286 0.930 . S
H4273 C4288 0.960 . S
H4274 C4288 0.960 . S
H4275 C4288 0.960 . S
C4276 H4268 0.929 . S
C4276 C4277 1.377 . S
C4276 C4278 1.384 . S
C4277 C4276 1.377 . S
C4277 C4283 1.390 . S
C4278 H4269 0.930 . S
C4278 C4276 1.384 . S
C4278 C4279 1.372 . S
C4279 C4278 1.372 . S
C4279 C4280 1.400 . S
C4279 C4284 1.490 . S
C4280 H4270 0.930 . S
C4280 C4279 1.400 . S
C4280 C4283 1.386 . S
H4281 C4297 0.930 . S
H4282 C4298 0.931 . S
C4283 H4271 0.929 . S
C4283 C4277 1.390 . S
C4283 C4280 1.386 . S
C4284 C4279 1.490 . S
C4284 C4286 1.395 . S
C4284 C4287 1.403 . S
H4285 C4291 0.930 . S
C4286 H4272 0.930 . S
C4286 C4284 1.395 . S
C4286 C4289 1.403 . S
C4287 C4284 1.403 . S
C4287 C4288 1.524 . S
C4287 C4291 1.400 . S
C4288 H4273 0.960 . S
C4288 H4274 0.960 . S
C4288 H4275 0.960 . S
C4288 C4287 1.524 . S
C4289 C4286 1.403 . S
C4289 C4290 1.392 . S
C4289 C4293 1.495 . S
C4290 C4289 1.392 . S
C4290 C4291 1.385 . S
C4290 C4292 1.478 . S
C4291 H4285 0.930 . S
C4291 C4287 1.400 . S
C4291 C4290 1.385 . S
C4292 C4290 1.478 . S
C4292 C4294 1.381 . S
C4292 C4298 1.383 . S
C4293 C4289 1.495 . S
C4293 H4299 0.959 . S
C4293 H4300 0.961 . S
C4293 H4301 0.960 . S
C4294 C4292 1.381 . S
C4294 C4295 1.394 . S
C4294 H4302 0.930 . S
C4295 C4294 1.394 . S
C4295 C4296 1.383 . S
C4295 H4303 0.929 . S
C4296 C4295 1.383 . S
C4296 C4297 1.377 . S
C4297 H4281 0.930 . S
C4297 C4296 1.377 . S
C4297 C4298 1.379 . S
C4298 H4282 0.931 . S
C4298 C4292 1.383 . S
C4298 C4297 1.379 . S
H4299 C4293 0.959 . S
H4300 C4293 0.961 . S
H4301 C4293 0.960 . S
H4302 C4294 0.930 . S
H4303 C4295 0.929 . S
H4304 C4312 0.929 . S
H4305 C4314 0.930 . S
H4306 C4316 0.930 . S
H4307 C4319 0.929 . S
H4308 C4322 0.930 . S
H4309 C4324 0.960 . S
H4310 C4324 0.960 . S
H4311 C4324 0.960 . S
C4312 H4304 0.929 . S
C4312 C4313 1.377 . S
C4312 C4314 1.384 . S
C4313 C4312 1.377 . S
C4313 C4319 1.390 . S
C4314 H4305 0.930 . S
C4314 C4312 1.384 . S
C4314 C4315 1.372 . S
C4315 C4314 1.372 . S
C4315 C4316 1.400 . S
C4315 C4320 1.490 . S
C4316 H4306 0.930 . S
C4316 C4315 1.400 . S
C4316 C4319 1.386 . S
H4317 C4333 0.930 . S
H4318 C4334 0.931 . S
C4319 H4307 0.929 . S
C4319 C4313 1.390 . S
C4319 C4316 1.386 . S
C4320 C4315 1.490 . S
C4320 C4322 1.395 . S
C4320 C4323 1.403 . S
H4321 C4327 0.930 . S
C4322 H4308 0.930 . S
C4322 C4320 1.395 . S
C4322 C4325 1.403 . S
C4323 C4320 1.403 . S
C4323 C4324 1.524 . S
C4323 C4327 1.400 . S
C4324 H4309 0.960 . S
C4324 H4310 0.960 . S
C4324 H4311 0.960 . S
C4324 C4323 1.524 . S
C4325 C4322 1.403 . S
C4325 C4326 1.392 . S
C4325 C4329 1.495 . S
C4326 C4325 1.392 . S
C4326 C4327 1.385 . S
C4326 C4328 1.478 . S
C4327 H4321 0.930 . S
C4327 C4323 1.400 . S
C4327 C4326 1.385 . S
C4328 C4326 1.478 . S
C4328 C4330 1.381 . S
C4328 C4334 1.383 . S
C4329 C4325 1.495 . S
C4329 H4335 0.959 . S
C4329 H4336 0.961 . S
C4329 H4337 0.960 . S
C4330 C4328 1.381 . S
C4330 C4331 1.394 . S
C4330 H4338 0.930 . S
C4331 C4330 1.394 . S
C4331 C4332 1.383 . S
C4331 H4339 0.929 . S
C4332 C4331 1.383 . S
C4332 C4333 1.377 . S
C4333 H4317 0.930 . S
C4333 C4332 1.377 . S
C4333 C4334 1.379 . S
C4334 H4318 0.931 . S
C4334 C4328 1.383 . S
C4334 C4333 1.379 . S
H4335 C4329 0.959 . S
H4336 C4329 0.961 . S
H4337 C4329 0.960 . S
H4338 C4330 0.930 . S
H4339 C4331 0.929 . S
H4340 C4348 0.929 . S
H4341 C4350 0.930 . S
H4342 C4352 0.930 . S
H4343 C4355 0.929 . S
H4344 C4358 0.930 . S
H4345 C4360 0.960 . S
H4346 C4360 0.960 . S
H4347 C4360 0.960 . S
C4348 H4340 0.929 . S
C4348 C4349 1.377 . S
C4348 C4350 1.384 . S
C4349 C4348 1.377 . S
C4349 C4355 1.390 . S
C4350 H4341 0.930 . S
C4350 C4348 1.384 . S
C4350 C4351 1.372 . S
C4351 C4350 1.372 . S
C4351 C4352 1.400 . S
C4351 C4356 1.490 . S
C4352 H4342 0.930 . S
C4352 C4351 1.400 . S
C4352 C4355 1.386 . S
H4353 C4369 0.930 . S
H4354 C4370 0.931 . S
C4355 H4343 0.929 . S
C4355 C4349 1.390 . S
C4355 C4352 1.386 . S
C4356 C4351 1.490 . S
C4356 C4358 1.395 . S
C4356 C4359 1.403 . S
H4357 C4363 0.930 . S
C4358 H4344 0.930 . S
C4358 C4356 1.395 . S
C4358 C4361 1.403 . S
C4359 C4356 1.403 . S
C4359 C4360 1.524 . S
C4359 C4363 1.400 . S
C4360 H4345 0.960 . S
C4360 H4346 0.960 . S
C4360 H4347 0.960 . S
C4360 C4359 1.524 . S
C4361 C4358 1.403 . S
C4361 C4362 1.392 . S
C4361 C4365 1.495 . S
C4362 C4361 1.392 . S
C4362 C4363 1.385 . S
C4362 C4364 1.478 . S
C4363 H4357 0.930 . S
C4363 C4359 1.400 . S
C4363 C4362 1.385 . S
C4364 C4362 1.478 . S
C4364 C4366 1.381 . S
C4364 C4370 1.383 . S
C4365 C4361 1.495 . S
C4365 H4371 0.959 . S
C4365 H4372 0.961 . S
C4365 H4373 0.960 . S
C4366 C4364 1.381 . S
C4366 C4367 1.394 . S
C4366 H4374 0.930 . S
C4367 C4366 1.394 . S
C4367 C4368 1.383 . S
C4367 H4375 0.929 . S
C4368 C4367 1.383 . S
C4368 C4369 1.377 . S
C4369 H4353 0.930 . S
C4369 C4368 1.377 . S
C4369 C4370 1.379 . S
C4370 H4354 0.931 . S
C4370 C4364 1.383 . S
C4370 C4369 1.379 . S
H4371 C4365 0.959 . S
H4372 C4365 0.961 . S
H4373 C4365 0.960 . S
H4374 C4366 0.930 . S
H4375 C4367 0.929 . S
H4376 C4384 0.929 . S
H4377 C4386 0.930 . S
H4378 C4388 0.930 . S
H4379 C4391 0.929 . S
H4380 C4394 0.930 . S
H4381 C4396 0.960 . S
H4382 C4396 0.960 . S
H4383 C4396 0.960 . S
C4384 H4376 0.929 . S
C4384 C4385 1.377 . S
C4384 C4386 1.384 . S
C4385 C4384 1.377 . S
C4385 C4391 1.390 . S
C4386 H4377 0.930 . S
C4386 C4384 1.384 . S
C4386 C4387 1.372 . S
C4387 C4386 1.372 . S
C4387 C4388 1.400 . S
C4387 C4392 1.490 1_556 S
C4388 H4378 0.930 . S
C4388 C4387 1.400 . S
C4388 C4391 1.386 . S
H4389 C4405 0.930 . S
H4390 C4406 0.931 . S
C4391 H4379 0.929 . S
C4391 C4385 1.390 . S
C4391 C4388 1.386 . S
C4392 C4387 1.490 1_554 S
C4392 C4394 1.395 . S
C4392 C4395 1.403 . S
H4393 C4399 0.930 . S
C4394 H4380 0.930 . S
C4394 C4392 1.395 . S
C4394 C4397 1.403 . S
C4395 C4392 1.403 . S
C4395 C4396 1.524 1_554 S
C4395 C4399 1.400 . S
C4396 H4381 0.960 . S
C4396 H4382 0.960 . S
C4396 H4383 0.960 . S
C4396 C4395 1.524 1_556 S
C4397 C4394 1.403 . S
C4397 C4398 1.392 . S
C4397 C4401 1.495 . S
C4398 C4397 1.392 . S
C4398 C4399 1.385 . S
C4398 C4400 1.478 . S
C4399 H4393 0.930 . S
C4399 C4395 1.400 . S
C4399 C4398 1.385 . S
C4400 C4398 1.478 . S
C4400 C4402 1.381 . S
C4400 C4406 1.383 . S
C4401 C4397 1.495 . S
C4401 H4407 0.959 . S
C4401 H4408 0.961 . S
C4401 H4409 0.960 . S
C4402 C4400 1.381 . S
C4402 C4403 1.394 . S
C4402 H4410 0.930 . S
C4403 C4402 1.394 . S
C4403 C4404 1.383 . S
C4403 H4411 0.929 . S
C4404 C4403 1.383 . S
C4404 C4405 1.377 . S
C4405 H4389 0.930 . S
C4405 C4404 1.377 . S
C4405 C4406 1.379 . S
C4406 H4390 0.931 . S
C4406 C4400 1.383 . S
C4406 C4405 1.379 . S
H4407 C4401 0.959 . S
H4408 C4401 0.961 . S
H4409 C4401 0.960 . S
H4410 C4402 0.930 . S
H4411 C4403 0.929 . S
H4412 C4420 0.929 . S
H4413 C4422 0.930 . S
H4414 C4424 0.930 . S
H4415 C4427 0.929 . S
H4416 C4430 0.930 . S
H4417 C4432 0.960 . S
H4418 C4432 0.960 . S
H4419 C4432 0.960 . S
C4420 H4412 0.929 . S
C4420 C4421 1.377 . S
C4420 C4422 1.384 . S
C4421 C4420 1.377 . S
C4421 C4427 1.390 . S
C4422 H4413 0.930 . S
C4422 C4420 1.384 . S
C4422 C4423 1.372 . S
C4423 C4422 1.372 . S
C4423 C4424 1.400 . S
C4423 C4428 1.490 . S
C4424 H4414 0.930 . S
C4424 C4423 1.400 . S
C4424 C4427 1.386 . S
H4425 C4441 0.930 . S
H4426 C4442 0.931 . S
C4427 H4415 0.929 . S
C4427 C4421 1.390 . S
C4427 C4424 1.386 . S
C4428 C4423 1.490 . S
C4428 C4430 1.395 . S
C4428 C4431 1.403 . S
H4429 C4435 0.930 . S
C4430 H4416 0.930 . S
C4430 C4428 1.395 . S
C4430 C4433 1.403 . S
C4431 C4428 1.403 . S
C4431 C4432 1.524 . S
C4431 C4435 1.400 . S
C4432 H4417 0.960 . S
C4432 H4418 0.960 . S
C4432 H4419 0.960 . S
C4432 C4431 1.524 . S
C4433 C4430 1.403 . S
C4433 C4434 1.392 . S
C4433 C4437 1.495 . S
C4434 C4433 1.392 . S
C4434 C4435 1.385 . S
C4434 C4436 1.478 . S
C4435 H4429 0.930 . S
C4435 C4431 1.400 . S
C4435 C4434 1.385 . S
C4436 C4434 1.478 . S
C4436 C4438 1.381 . S
C4436 C4442 1.383 . S
C4437 C4433 1.495 . S
C4437 H4443 0.959 . S
C4437 H4444 0.961 . S
C4437 H4445 0.960 . S
C4438 C4436 1.381 . S
C4438 C4439 1.394 . S
C4438 H4446 0.930 . S
C4439 C4438 1.394 . S
C4439 C4440 1.383 . S
C4439 H4447 0.929 . S
C4440 C4439 1.383 . S
C4440 C4441 1.377 . S
C4441 H4425 0.930 . S
C4441 C4440 1.377 . S
C4441 C4442 1.379 . S
C4442 H4426 0.931 . S
C4442 C4436 1.383 . S
C4442 C4441 1.379 . S
H4443 C4437 0.959 . S
H4444 C4437 0.961 . S
H4445 C4437 0.960 . S
H4446 C4438 0.930 . S
H4447 C4439 0.929 . S
H4448 C4456 0.929 . S
H4449 C4458 0.930 . S
H4450 C4460 0.930 . S
H4451 C4463 0.929 . S
H4452 C4466 0.932 . S
H4453 C4468 0.960 . S
H4454 C4468 0.960 . S
H4455 C4468 0.960 . S
C4456 H4448 0.929 . S
C4456 C4457 1.377 . S
C4456 C4458 1.384 . S
C4457 C4456 1.377 . S
C4457 C4463 1.390 . S
C4458 H4449 0.930 . S
C4458 C4456 1.384 . S
C4458 C4459 1.372 . S
C4459 C4458 1.372 . S
C4459 C4460 1.400 . S
C4459 C4464 1.490 . S
C4460 H4450 0.930 . S
C4460 C4459 1.400 . S
C4460 C4463 1.386 . S
H4461 C4477 0.930 . S
H4462 C4478 0.931 . S
C4463 H4451 0.929 . S
C4463 C4457 1.390 . S
C4463 C4460 1.386 . S
C4464 C4459 1.490 . S
C4464 C4466 1.389 1_565 S
C4464 C4467 1.403 . S
H4465 C4471 0.930 . S
C4466 H4452 0.932 . S
C4466 C4464 1.389 1_545 S
C4466 C4469 1.407 . S
C4467 C4464 1.403 . S
C4467 C4468 1.524 . S
C4467 C4471 1.400 . S
C4468 H4453 0.960 . S
C4468 H4454 0.960 . S
C4468 H4455 0.960 . S
C4468 C4467 1.524 . S
C4469 C4466 1.407 . S
C4469 C4470 1.392 . S
C4469 C4473 1.495 . S
C4470 C4469 1.392 . S
C4470 C4471 1.385 1_545 S
C4470 C4472 1.478 . S
C4471 H4465 0.930 . S
C4471 C4467 1.400 . S
C4471 C4470 1.385 1_565 S
C4472 C4470 1.478 . S
C4472 C4474 1.381 . S
C4472 C4478 1.383 . S
C4473 C4469 1.495 . S
C4473 H4479 0.959 . S
C4473 H4480 0.961 . S
C4473 H4481 0.960 . S
C4474 C4472 1.381 . S
C4474 C4475 1.394 . S
C4474 H4482 0.930 . S
C4475 C4474 1.394 . S
C4475 C4476 1.383 . S
C4475 H4483 0.929 . S
C4476 C4475 1.383 . S
C4476 C4477 1.377 . S
C4477 H4461 0.930 . S
C4477 C4476 1.377 . S
C4477 C4478 1.379 . S
C4478 H4462 0.931 . S
C4478 C4472 1.383 . S
C4478 C4477 1.379 . S
H4479 C4473 0.959 . S
H4480 C4473 0.961 . S
H4481 C4473 0.960 . S
H4482 C4474 0.930 . S
H4483 C4475 0.929 . S
H4484 C4492 0.929 . S
H4485 C4494 0.930 . S
H4486 C4496 0.930 . S
H4487 C4499 0.929 . S
H4488 C4502 0.930 . S
H4489 C4504 0.960 . S
H4490 C4504 0.960 . S
H4491 C4504 0.960 . S
C4492 H4484 0.929 . S
C4492 C4493 1.377 . S
C4492 C4494 1.384 . S
C4493 C4492 1.377 . S
C4493 C4499 1.390 . S
C4494 H4485 0.930 . S
C4494 C4492 1.384 . S
C4494 C4495 1.372 . S
C4495 C4494 1.372 . S
C4495 C4496 1.400 . S
C4495 C4500 1.490 . S
C4496 H4486 0.930 . S
C4496 C4495 1.400 . S
C4496 C4499 1.386 . S
H4497 C4513 0.930 . S
H4498 C4514 0.931 . S
C4499 H4487 0.929 . S
C4499 C4493 1.390 . S
C4499 C4496 1.386 . S
C4500 C4495 1.490 . S
C4500 C4502 1.395 . S
C4500 C4503 1.403 . S
H4501 C4507 0.930 . S
C4502 H4488 0.930 . S
C4502 C4500 1.395 . S
C4502 C4505 1.403 . S
C4503 C4500 1.403 . S
C4503 C4504 1.524 . S
C4503 C4507 1.400 . S
C4504 H4489 0.960 . S
C4504 H4490 0.960 . S
C4504 H4491 0.960 . S
C4504 C4503 1.524 . S
C4505 C4502 1.403 . S
C4505 C4506 1.392 . S
C4505 C4509 1.495 . S
C4506 C4505 1.392 . S
C4506 C4507 1.385 . S
C4506 C4508 1.478 . S
C4507 H4501 0.930 . S
C4507 C4503 1.400 . S
C4507 C4506 1.385 . S
C4508 C4506 1.478 . S
C4508 C4510 1.381 . S
C4508 C4514 1.383 . S
C4509 C4505 1.495 . S
C4509 H4515 0.959 . S
C4509 H4516 0.961 . S
C4509 H4517 0.960 . S
C4510 C4508 1.381 . S
C4510 C4511 1.394 . S
C4510 H4518 0.930 . S
C4511 C4510 1.394 . S
C4511 C4512 1.383 . S
C4511 H4519 0.929 . S
C4512 C4511 1.383 . S
C4512 C4513 1.377 . S
C4513 H4497 0.930 . S
C4513 C4512 1.377 . S
C4513 C4514 1.379 . S
C4514 H4498 0.931 . S
C4514 C4508 1.383 . S
C4514 C4513 1.379 . S
H4515 C4509 0.959 . S
H4516 C4509 0.961 . S
H4517 C4509 0.960 . S
H4518 C4510 0.930 . S
H4519 C4511 0.929 . S
H4520 C4528 0.929 . S
H4521 C4530 0.930 . S
H4522 C4532 0.930 . S
H4523 C4535 0.929 . S
H4524 C4538 0.930 . S
H4525 C4540 0.960 . S
H4526 C4540 0.960 . S
H4527 C4540 0.960 . S
C4528 H4520 0.929 . S
C4528 C4529 1.377 . S
C4528 C4530 1.384 . S
C4529 C4528 1.377 . S
C4529 C4535 1.390 . S
C4530 H4521 0.930 . S
C4530 C4528 1.384 . S
C4530 C4531 1.372 . S
C4531 C4530 1.372 . S
C4531 C4532 1.400 . S
C4531 C4536 1.490 . S
C4532 H4522 0.930 . S
C4532 C4531 1.400 . S
C4532 C4535 1.386 . S
H4533 C4549 0.930 . S
H4534 C4550 0.931 . S
C4535 H4523 0.929 . S
C4535 C4529 1.390 . S
C4535 C4532 1.386 . S
C4536 C4531 1.490 . S
C4536 C4538 1.395 1_545 S
C4536 C4539 1.403 . S
H4537 C4543 0.930 . S
C4538 H4524 0.930 . S
C4538 C4536 1.395 1_565 S
C4538 C4541 1.403 . S
C4539 C4536 1.403 . S
C4539 C4540 1.524 . S
C4539 C4543 1.400 . S
C4540 H4525 0.960 . S
C4540 H4526 0.960 . S
C4540 H4527 0.960 . S
C4540 C4539 1.524 . S
C4541 C4538 1.403 . S
C4541 C4542 1.392 . S
C4541 C4545 1.495 . S
C4542 C4541 1.392 . S
C4542 C4543 1.385 1_565 S
C4542 C4544 1.478 . S
C4543 H4537 0.930 . S
C4543 C4539 1.400 . S
C4543 C4542 1.385 1_545 S
C4544 C4542 1.478 . S
C4544 C4546 1.381 . S
C4544 C4550 1.383 . S
C4545 C4541 1.495 . S
C4545 H4551 0.959 . S
C4545 H4552 0.961 . S
C4545 H4553 0.960 . S
C4546 C4544 1.381 . S
C4546 C4547 1.394 . S
C4546 H4554 0.930 . S
C4547 C4546 1.394 . S
C4547 C4548 1.383 . S
C4547 H4555 0.929 . S
C4548 C4547 1.383 . S
C4548 C4549 1.377 . S
C4549 H4533 0.930 . S
C4549 C4548 1.377 . S
C4549 C4550 1.379 . S
C4550 H4534 0.931 . S
C4550 C4544 1.383 . S
C4550 C4549 1.379 . S
H4551 C4545 0.959 . S
H4552 C4545 0.961 . S
H4553 C4545 0.960 . S
H4554 C4546 0.930 . S
H4555 C4547 0.929 . S
H4556 C4564 0.929 . S
H4557 C4566 0.930 . S
H4558 C4568 0.930 . S
H4559 C4571 0.929 . S
H4560 C4574 0.930 . S
H4561 C4576 0.960 . S
H4562 C4576 0.960 . S
H4563 C4576 0.960 . S
C4564 H4556 0.929 . S
C4564 C4565 1.377 . S
C4564 C4566 1.384 . S
C4565 C4564 1.377 . S
C4565 C4571 1.390 . S
C4566 H4557 0.930 . S
C4566 C4564 1.384 . S
C4566 C4567 1.372 . S
C4567 C4566 1.372 . S
C4567 C4568 1.400 . S
C4567 C4572 1.490 . S
C4568 H4558 0.930 . S
C4568 C4567 1.400 . S
C4568 C4571 1.386 . S
H4569 C4585 0.930 . S
H4570 C4586 0.931 . S
C4571 H4559 0.929 . S
C4571 C4565 1.390 . S
C4571 C4568 1.386 . S
C4572 C4567 1.490 . S
C4572 C4574 1.395 . S
C4572 C4575 1.403 . S
H4573 C4579 0.930 . S
C4574 H4560 0.930 . S
C4574 C4572 1.395 . S
C4574 C4577 1.403 . S
C4575 C4572 1.403 . S
C4575 C4576 1.524 . S
C4575 C4579 1.400 . S
C4576 H4561 0.960 . S
C4576 H4562 0.960 . S
C4576 H4563 0.960 . S
C4576 C4575 1.524 . S
C4577 C4574 1.403 . S
C4577 C4578 1.392 . S
C4577 C4581 1.495 . S
C4578 C4577 1.392 . S
C4578 C4579 1.385 . S
C4578 C4580 1.478 1_554 S
C4579 H4573 0.930 . S
C4579 C4575 1.400 . S
C4579 C4578 1.385 . S
C4580 C4578 1.478 1_556 S
C4580 C4582 1.381 . S
C4580 C4586 1.383 . S
C4581 C4577 1.495 . S
C4581 H4587 0.959 . S
C4581 H4588 0.961 . S
C4581 H4589 0.960 . S
C4582 C4580 1.381 . S
C4582 C4583 1.394 . S
C4582 H4590 0.930 . S
C4583 C4582 1.394 . S
C4583 C4584 1.383 . S
C4583 H4591 0.929 . S
C4584 C4583 1.383 . S
C4584 C4585 1.377 . S
C4585 H4569 0.930 . S
C4585 C4584 1.377 . S
C4585 C4586 1.379 . S
C4586 H4570 0.931 . S
C4586 C4580 1.383 . S
C4586 C4585 1.379 . S
H4587 C4581 0.959 . S
H4588 C4581 0.961 . S
H4589 C4581 0.960 . S
H4590 C4582 0.930 . S
H4591 C4583 0.929 . S
H4592 C4600 0.929 . S
H4593 C4602 0.930 1_545 S
H4594 C4604 0.930 . S
H4595 C4607 0.929 . S
H4596 C4610 0.930 . S
H4597 C4612 0.960 . S
H4598 C4612 0.960 . S
H4599 C4612 0.960 . S
C4600 H4592 0.929 . S
C4600 C4601 1.377 . S
C4600 C4602 1.384 . S
C4601 C4600 1.377 . S
C4601 C4607 1.390 . S
C4602 H4593 0.930 1_565 S
C4602 C4600 1.384 . S
C4602 C4603 1.372 . S
C4603 C4602 1.372 . S
C4603 C4604 1.400 . S
C4603 C4608 1.490 . S
C4604 H4594 0.930 . S
C4604 C4603 1.400 . S
C4604 C4607 1.386 . S
H4605 C4621 0.930 . S
H4606 C4622 0.931 . S
C4607 H4595 0.929 . S
C4607 C4601 1.390 . S
C4607 C4604 1.386 . S
C4608 C4603 1.490 . S
C4608 C4610 1.395 1_565 S
C4608 C4611 1.403 . S
H4609 C4615 0.911 1_566 S
C4610 H4596 0.930 . S
C4610 C4608 1.395 1_545 S
C4610 C4613 1.403 . S
C4611 C4608 1.403 . S
C4611 C4612 1.524 . S
C4611 C4615 1.374 1_565 S
C4612 H4597 0.960 . S
C4612 H4598 0.960 . S
C4612 H4599 0.960 . S
C4612 C4611 1.524 . S
C4613 C4610 1.403 . S
C4613 C4614 1.392 . S
C4613 C4617 1.495 . S
C4614 C4613 1.392 . S
C4614 C4615 1.432 . S
C4614 C4616 1.478 1_554 S
C4615 H4609 0.911 1_544 S
C4615 C4611 1.374 1_545 S
C4615 C4614 1.432 . S
C4616 C4614 1.478 1_556 S
C4616 C4618 1.381 . S
C4616 C4622 1.383 . S
C4617 C4613 1.495 . S
C4617 H4623 0.959 . S
C4617 H4624 0.961 . S
C4617 H4625 0.960 . S
C4618 C4616 1.381 . S
C4618 C4619 1.394 . S
C4618 H4626 0.930 . S
C4619 C4618 1.394 . S
C4619 C4620 1.383 . S
C4619 H4627 0.929 . S
C4620 C4619 1.383 . S
C4620 C4621 1.377 . S
C4621 H4605 0.930 . S
C4621 C4620 1.377 . S
C4621 C4622 1.379 . S
C4622 H4606 0.931 . S
C4622 C4616 1.383 . S
C4622 C4621 1.379 . S
H4623 C4617 0.959 . S
H4624 C4617 0.961 . S
H4625 C4617 0.960 . S
H4626 C4618 0.930 . S
H4627 C4619 0.929 . S
H4628 C4636 0.929 . S
H4629 C4638 0.930 . S
H4630 C4640 0.930 . S
H4631 C4643 0.929 . S
H4632 C4646 0.930 . S
H4633 C4648 0.960 . S
H4634 C4648 0.960 . S
H4635 C4648 0.960 . S
C4636 H4628 0.929 . S
C4636 C4637 1.377 . S
C4636 C4638 1.384 . S
C4637 C4636 1.377 . S
C4637 C4643 1.390 . S
C4638 H4629 0.930 . S
C4638 C4636 1.384 . S
C4638 C4639 1.372 . S
C4639 C4638 1.372 . S
C4639 C4640 1.400 . S
C4639 C4644 1.490 . S
C4640 H4630 0.930 . S
C4640 C4639 1.400 . S
C4640 C4643 1.386 . S
H4641 C4657 0.930 . S
H4642 C4658 0.931 . S
C4643 H4631 0.929 . S
C4643 C4637 1.390 . S
C4643 C4640 1.386 . S
C4644 C4639 1.490 . S
C4644 C4646 1.395 . S
C4644 C4647 1.403 . S
H4645 C4651 0.930 . S
C4646 H4632 0.930 . S
C4646 C4644 1.395 . S
C4646 C4649 1.403 . S
C4647 C4644 1.403 . S
C4647 C4648 1.524 . S
C4647 C4651 1.400 . S
C4648 H4633 0.960 . S
C4648 H4634 0.960 . S
C4648 H4635 0.960 . S
C4648 C4647 1.524 . S
C4649 C4646 1.403 . S
C4649 C4650 1.392 . S
C4649 C4653 1.495 . S
C4650 C4649 1.392 . S
C4650 C4651 1.385 . S
C4650 C4652 1.478 . S
C4651 H4645 0.930 . S
C4651 C4647 1.400 . S
C4651 C4650 1.385 . S
C4652 C4650 1.478 . S
C4652 C4654 1.381 . S
C4652 C4658 1.383 . S
C4653 C4649 1.495 . S
C4653 H4659 0.959 . S
C4653 H4660 0.961 . S
C4653 H4661 0.960 . S
C4654 C4652 1.381 . S
C4654 C4655 1.394 . S
C4654 H4662 0.930 . S
C4655 C4654 1.394 . S
C4655 C4656 1.383 . S
C4655 H4663 0.929 . S
C4656 C4655 1.383 . S
C4656 C4657 1.377 . S
C4657 H4641 0.930 . S
C4657 C4656 1.377 . S
C4657 C4658 1.379 . S
C4658 H4642 0.931 . S
C4658 C4652 1.383 . S
C4658 C4657 1.379 . S
H4659 C4653 0.959 . S
H4660 C4653 0.961 . S
H4661 C4653 0.960 . S
H4662 C4654 0.930 . S
H4663 C4655 0.929 . S
H4664 C4672 0.929 . S
H4665 C4674 0.930 . S
H4666 C4676 0.930 . S
H4667 C4679 0.929 . S
H4668 C4682 0.932 . S
H4669 C4684 0.960 . S
H4670 C4684 0.960 . S
H4671 C4684 0.960 . S
C4672 H4664 0.929 . S
C4672 C4673 1.377 . S
C4672 C4674 1.384 . S
C4673 C4672 1.377 . S
C4673 C4679 1.390 . S
C4674 H4665 0.930 . S
C4674 C4672 1.384 . S
C4674 C4675 1.372 . S
C4675 C4674 1.372 . S
C4675 C4676 1.400 . S
C4675 C4680 1.490 . S
C4676 H4666 0.930 . S
C4676 C4675 1.400 . S
C4676 C4679 1.386 . S
H4677 C4693 0.930 . S
H4678 C4694 0.931 . S
C4679 H4667 0.929 . S
C4679 C4673 1.390 . S
C4679 C4676 1.386 . S
C4680 C4675 1.490 . S
C4680 C4682 1.388 1_565 S
C4680 C4683 1.403 . S
H4681 C4687 0.930 . S
C4682 H4668 0.932 . S
C4682 C4680 1.388 1_545 S
C4682 C4685 1.408 . S
C4683 C4680 1.403 . S
C4683 C4684 1.524 . S
C4683 C4687 1.400 . S
C4684 H4669 0.960 . S
C4684 H4670 0.960 . S
C4684 H4671 0.960 . S
C4684 C4683 1.524 . S
C4685 C4682 1.408 . S
C4685 C4686 1.392 . S
C4685 C4689 1.495 . S
C4686 C4685 1.392 . S
C4686 C4687 1.385 1_545 S
C4686 C4688 1.478 . S
C4687 H4681 0.930 . S
C4687 C4683 1.400 . S
C4687 C4686 1.385 1_565 S
C4688 C4686 1.478 . S
C4688 C4690 1.381 . S
C4688 C4694 1.383 . S
C4689 C4685 1.495 . S
C4689 H4695 0.959 . S
C4689 H4696 0.961 . S
C4689 H4697 0.960 . S
C4690 C4688 1.381 . S
C4690 C4691 1.394 . S
C4690 H4698 0.930 . S
C4691 C4690 1.394 . S
C4691 C4692 1.383 . S
C4691 H4699 0.929 . S
C4692 C4691 1.383 . S
C4692 C4693 1.377 . S
C4693 H4677 0.930 . S
C4693 C4692 1.377 . S
C4693 C4694 1.379 . S
C4694 H4678 0.931 . S
C4694 C4688 1.383 . S
C4694 C4693 1.379 . S
H4695 C4689 0.959 . S
H4696 C4689 0.961 . S
H4697 C4689 0.960 . S
H4698 C4690 0.930 . S
H4699 C4691 0.929 . S
H4700 C4708 0.929 . S
H4701 C4710 0.930 . S
H4702 C4712 0.930 . S
H4703 C4715 0.929 . S
H4704 C4718 0.930 . S
H4705 C4720 0.960 . S
H4706 C4720 0.960 . S
H4707 C4720 0.960 . S
C4708 H4700 0.929 . S
C4708 C4709 1.377 . S
C4708 C4710 1.384 . S
C4709 C4708 1.377 . S
C4709 C4715 1.390 . S
C4710 H4701 0.930 . S
C4710 C4708 1.384 . S
C4710 C4711 1.372 . S
C4711 C4710 1.372 . S
C4711 C4712 1.400 . S
C4711 C4716 1.490 . S
C4712 H4702 0.930 . S
C4712 C4711 1.400 . S
C4712 C4715 1.386 . S
H4713 C4729 0.930 . S
H4714 C4730 0.931 . S
C4715 H4703 0.929 . S
C4715 C4709 1.390 . S
C4715 C4712 1.386 . S
C4716 C4711 1.490 . S
C4716 C4718 1.395 . S
C4716 C4719 1.403 . S
H4717 C4723 0.930 . S
C4718 H4704 0.930 . S
C4718 C4716 1.395 . S
C4718 C4721 1.403 . S
C4719 C4716 1.403 . S
C4719 C4720 1.524 . S
C4719 C4723 1.400 . S
C4720 H4705 0.960 . S
C4720 H4706 0.960 . S
C4720 H4707 0.960 . S
C4720 C4719 1.524 . S
C4721 C4718 1.403 . S
C4721 C4722 1.392 . S
C4721 C4725 1.495 . S
C4722 C4721 1.392 . S
C4722 C4723 1.385 . S
C4722 C4724 1.478 . S
C4723 H4717 0.930 . S
C4723 C4719 1.400 . S
C4723 C4722 1.385 . S
C4724 C4722 1.478 . S
C4724 C4726 1.381 . S
C4724 C4730 1.383 . S
C4725 C4721 1.495 . S
C4725 H4731 0.959 . S
C4725 H4732 0.961 . S
C4725 H4733 0.960 . S
C4726 C4724 1.381 . S
C4726 C4727 1.394 . S
C4726 H4734 0.930 . S
C4727 C4726 1.394 . S
C4727 C4728 1.383 . S
C4727 H4735 0.929 . S
C4728 C4727 1.383 . S
C4728 C4729 1.377 . S
C4729 H4713 0.930 . S
C4729 C4728 1.377 . S
C4729 C4730 1.379 . S
C4730 H4714 0.931 . S
C4730 C4724 1.383 . S
C4730 C4729 1.379 . S
H4731 C4725 0.959 . S
H4732 C4725 0.961 . S
H4733 C4725 0.960 . S
H4734 C4726 0.930 . S
H4735 C4727 0.929 . S
C1289 C19 0.312 . S
C1308 C166 0.188 . S
C1325 C206 0.275 . S
C1344 C59 0.288 . S
C1361 C99 0.340 . S
C1380 C246 0.355 . S
C1397 C286 0.287 . S
C1416 C139 0.387 . S
C1433 C330 0.305 . S
C1452 C495 0.338 . S
C1469 C370 0.305 . S
C1488 C535 0.354 . S
C1505 C575 0.271 . S
C1524 C410 0.312 . S
C1541 C450 0.339 . S
C1560 C615 0.188 . S
C1577 C806 0.260 . S
C1596 C659 0.355 . S
C1613 C699 0.311 . S
C1632 C846 0.187 . S
C1649 C739 0.302 . S
C1668 C886 0.220 1_545 S
C1685 C779 0.312 . S
C1704 C926 0.306 . S
C1721 C970 0.318 . S
C1740 C1135 0.274 1_545 S
C1757 C1175 0.252 . S
C1776 C1010 0.405 . S
C1793 C1050 0.302 . S
C1812 C1215 0.356 . S
C1829 C1255 0.285 . S
C1848 C1090 0.234 . S
C1865 C858 1.226 . S
C1884 C9 1.197 . S
C1901 C898 1.230 . S
C1920 C49 1.189 . S
C1937 C938 1.231 . S
C1956 C89 1.247 . S
C1973 C129 1.227 . S
C1992 C818 1.243 . S
C2009 C178 1.235 . S
C2028 C769 1.199 . S
C2045 C649 1.231 . S
C2064 C218 1.205 . S
C2081 C258 1.243 . S
C2100 C689 1.268 . S
C2117 C298 1.238 . S
C2136 C729 1.266 . S
C2153 C338 1.226 . S
C2172 C1169 1.201 . S
C2189 C1209 1.244 . S
C2208 C378 1.242 . S
C2225 C1249 1.229 . S
C2244 C418 1.192 . S
C2261 C458 1.223 . S
C2280 C1129 1.220 . S
C2297 C489 1.231 . S
C2316 C1098 1.191 . S
C2333 C529 1.230 . S
C2352 C978 1.190 . S
C2369 C569 1.234 . S
C2388 C1018 1.265 . S
C2405 C609 1.237 . S
C2424 C1058 1.196 . S
C2441 C329 0.818 . S
C2460 C18 0.889 . S
C2477 C58 0.828 . S
C2496 C1009 0.868 . S
C2513 C409 0.821 . S
C2532 C98 0.785 . S
C2549 C138 0.800 . S
C2568 C1089 0.822 . S
C2585 C498 0.624 . S
C2604 C169 0.631 . S
C2621 C1178 0.620 . S
C2640 C209 0.655 . S
C2657 C249 0.622 . S
C2676 C578 0.658 . S
C2693 C289 0.626 . S
C2712 C1258 0.660 . S
C2729 C698 0.803 . S
C2748 C369 0.755 . S
C2765 C778 0.827 . S
C2784 C449 0.837 . S
C2801 C538 0.626 . S
C2820 C849 0.633 . S
C2837 C929 0.626 . S
C2856 C618 0.655 . S
C2873 C969 0.822 . S
C2892 C658 0.789 . S
C2909 C1049 0.801 . S
C2928 C738 0.770 . S
C2945 C1138 0.614 . S
C2964 C809 0.623 . S
C2981 C889 0.616 . S
C3000 C1218 0.608 . S
C3017 C10 2.035 . S
C3036 C499 2.035 . S
C3053 C1179 2.031 . S
C3072 C50 2.026 . S
C3089 C579 2.029 . S
C3108 C90 2.028 . S
C3125 C130 2.035 . S
C3144 C1259 2.039 . S
C3161 C326 0.863 . S
C3180 C175 0.845 . S
C3197 C1006 0.864 . S
C3216 C215 0.839 . S
C3233 C406 0.875 . S
C3252 C255 0.901 . S
C3269 C1086 0.876 . S
C3288 C295 0.898 . S
C3305 C170 2.033 . S
C3324 C339 2.026 . S
C3341 C850 2.029 . S
C3360 C379 2.040 1_554 S
C3377 C250 2.030 1_556 S
C3396 C419 2.029 . S
C3413 C459 2.033 . S
C3432 C930 2.017 . S
C3449 C15 0.871 . S
C3468 C486 0.849 . S
C3485 C695 0.871 . S
C3504 C526 0.849 . S
C3521 C566 0.875 . S
C3540 C95 0.840 . S
C3557 C606 0.875 . S
C3576 C775 0.838 . S
C3593 C1139 2.031 . S
C3612 C650 2.025 . S
C3629 C539 2.031 . S
C3648 C690 2.037 . S
C3665 C730 2.035 . S
C3684 C1219 2.035 . S
C3701 C619 2.029 . S
C3720 C770 2.025 . S
C3737 C815 0.873 . S
C3756 C966 0.899 . S
C3773 C855 0.863 . S
C3792 C366 0.862 . S
C3809 C1046 0.876 . S
C3828 C895 0.899 . S
C3845 C446 0.876 . S
C3864 C935 0.899 . S
C3881 C979 2.035 . S
C3900 C810 2.015 1_556 S
C3917 C1019 2.035 . S
C3936 C210 2.023 . S
C3953 C1059 2.036 . S
C3972 C890 2.021 . S
C3989 C1099 2.036 1_554 S
C4008 C290 2.015 . S
C4025 C655 0.873 . S
C4044 C1126 0.862 . S
C4061 C55 0.876 . S
C4080 C1166 0.844 . S
C4097 C1206 0.873 . S
C4116 C735 0.839 . S
C4133 C135 0.870 . S
C4152 C1246 0.855 . S
C4169 C179 2.341 . S
C4188 C6 2.313 . S
C4205 C219 2.342 . S
C4224 C46 2.320 . S
C4241 C86 2.322 . S
C4260 C259 2.334 . S
C4277 C299 2.343 . S
C4296 C126 2.306 . S
C4313 C490 2.340 . S
C4332 C335 2.306 . S
C4349 C375 2.323 . S
C4368 C530 2.339 . S
C4385 C415 2.319 . S
C4404 C570 2.331 . S
C4421 C610 2.342 . S
C4440 C455 2.315 . S
C4457 C646 2.322 . S
C4476 C819 2.337 . S
C4493 C859 2.341 . S
C4512 C686 2.321 . S
C4529 C726 2.320 . S
C4548 C899 2.340 . S
C4565 C766 2.321 . S
C4584 C939 2.340 . S
C4601 C1130 2.342 . S
C4620 C975 2.316 . S
C4637 C1170 2.342 . S
C4656 C1015 2.328 . S
C4673 C1055 2.323 . S
C4692 C1210 2.344 . S
C4709 C1250 2.343 . S
C4728 C1095 2.323 . S
