# Generated by pormake.
# Topology utb, (3)-cn, num edge types: 1
# Building blocks:
#     Node 0, Type 0, BuildingBlock: OLANEW_clean_sbu_2, # of connection points: 3
#     Node 1, Type 0, BuildingBlock: OLANEW_clean_sbu_2, # of connection points: 3
#     Node 2, Type 0, BuildingBlock: OLANEW_clean_sbu_2, # of connection points: 3
#     Node 3, Type 0, BuildingBlock: OLANEW_clean_sbu_2, # of connection points: 3
#     Node 4, Type 0, BuildingBlock: OLANEW_clean_sbu_2, # of connection points: 3
#     Node 5, Type 0, BuildingBlock: OLANEW_clean_sbu_2, # of connection points: 3
#     Node 6, Type 0, BuildingBlock: OLANEW_clean_sbu_2, # of connection points: 3
#     Node 7, Type 0, BuildingBlock: OLANEW_clean_sbu_2, # of connection points: 3
#     Node 8, Type 0, BuildingBlock: OLANEW_clean_sbu_2, # of connection points: 3
#     Node 9, Type 0, BuildingBlock: OLANEW_clean_sbu_2, # of connection points: 3
#     Node 10, Type 0, BuildingBlock: OLANEW_clean_sbu_2, # of connection points: 3
#     Node 11, Type 0, BuildingBlock: OLANEW_clean_sbu_2, # of connection points: 3
#     Node 12, Type 0, BuildingBlock: OLANEW_clean_sbu_2, # of connection points: 3
#     Node 13, Type 0, BuildingBlock: OLANEW_clean_sbu_2, # of connection points: 3
#     Node 14, Type 0, BuildingBlock: OLANEW_clean_sbu_2, # of connection points: 3
#     Node 15, Type 0, BuildingBlock: OLANEW_clean_sbu_2, # of connection points: 3
#     Node 16, Type 0, BuildingBlock: OLANEW_clean_sbu_2, # of connection points: 3
#     Node 17, Type 0, BuildingBlock: OLANEW_clean_sbu_2, # of connection points: 3
#     Node 18, Type 0, BuildingBlock: OLANEW_clean_sbu_2, # of connection points: 3
#     Node 19, Type 0, BuildingBlock: OLANEW_clean_sbu_2, # of connection points: 3
#     Node 20, Type 0, BuildingBlock: OLANEW_clean_sbu_2, # of connection points: 3
#     Node 21, Type 0, BuildingBlock: OLANEW_clean_sbu_2, # of connection points: 3
#     Node 22, Type 0, BuildingBlock: OLANEW_clean_sbu_2, # of connection points: 3
#     Node 23, Type 0, BuildingBlock: OLANEW_clean_sbu_2, # of connection points: 3
#     Edge 24, Type (0, 0), BuildingBlock: ZUJKAS_clean_linker_0, # of connection points: 2
#     Edge 25, Type (0, 0), BuildingBlock: ZUJKAS_clean_linker_0, # of connection points: 2
#     Edge 26, Type (0, 0), BuildingBlock: ZUJKAS_clean_linker_0, # of connection points: 2
#     Edge 27, Type (0, 0), BuildingBlock: ZUJKAS_clean_linker_0, # of connection points: 2
#     Edge 28, Type (0, 0), BuildingBlock: ZUJKAS_clean_linker_0, # of connection points: 2
#     Edge 29, Type (0, 0), BuildingBlock: ZUJKAS_clean_linker_0, # of connection points: 2
#     Edge 30, Type (0, 0), BuildingBlock: ZUJKAS_clean_linker_0, # of connection points: 2
#     Edge 31, Type (0, 0), BuildingBlock: ZUJKAS_clean_linker_0, # of connection points: 2
#     Edge 32, Type (0, 0), BuildingBlock: ZUJKAS_clean_linker_0, # of connection points: 2
#     Edge 33, Type (0, 0), BuildingBlock: ZUJKAS_clean_linker_0, # of connection points: 2
#     Edge 34, Type (0, 0), BuildingBlock: ZUJKAS_clean_linker_0, # of connection points: 2
#     Edge 35, Type (0, 0), BuildingBlock: ZUJKAS_clean_linker_0, # of connection points: 2
#     Edge 36, Type (0, 0), BuildingBlock: ZUJKAS_clean_linker_0, # of connection points: 2
#     Edge 37, Type (0, 0), BuildingBlock: ZUJKAS_clean_linker_0, # of connection points: 2
#     Edge 38, Type (0, 0), BuildingBlock: ZUJKAS_clean_linker_0, # of connection points: 2
#     Edge 39, Type (0, 0), BuildingBlock: ZUJKAS_clean_linker_0, # of connection points: 2
#     Edge 40, Type (0, 0), BuildingBlock: ZUJKAS_clean_linker_0, # of connection points: 2
#     Edge 41, Type (0, 0), BuildingBlock: ZUJKAS_clean_linker_0, # of connection points: 2
#     Edge 42, Type (0, 0), BuildingBlock: ZUJKAS_clean_linker_0, # of connection points: 2
#     Edge 43, Type (0, 0), BuildingBlock: ZUJKAS_clean_linker_0, # of connection points: 2
#     Edge 44, Type (0, 0), BuildingBlock: ZUJKAS_clean_linker_0, # of connection points: 2
#     Edge 45, Type (0, 0), BuildingBlock: ZUJKAS_clean_linker_0, # of connection points: 2
#     Edge 46, Type (0, 0), BuildingBlock: ZUJKAS_clean_linker_0, # of connection points: 2
#     Edge 47, Type (0, 0), BuildingBlock: ZUJKAS_clean_linker_0, # of connection points: 2
#     Edge 48, Type (0, 0), BuildingBlock: ZUJKAS_clean_linker_0, # of connection points: 2
#     Edge 49, Type (0, 0), BuildingBlock: ZUJKAS_clean_linker_0, # of connection points: 2
#     Edge 50, Type (0, 0), BuildingBlock: ZUJKAS_clean_linker_0, # of connection points: 2
#     Edge 51, Type (0, 0), BuildingBlock: ZUJKAS_clean_linker_0, # of connection points: 2
#     Edge 52, Type (0, 0), BuildingBlock: ZUJKAS_clean_linker_0, # of connection points: 2
#     Edge 53, Type (0, 0), BuildingBlock: ZUJKAS_clean_linker_0, # of connection points: 2
#     Edge 54, Type (0, 0), BuildingBlock: ZUJKAS_clean_linker_0, # of connection points: 2
#     Edge 55, Type (0, 0), BuildingBlock: ZUJKAS_clean_linker_0, # of connection points: 2
#     Edge 56, Type (0, 0), BuildingBlock: ZUJKAS_clean_linker_0, # of connection points: 2
#     Edge 57, Type (0, 0), BuildingBlock: ZUJKAS_clean_linker_0, # of connection points: 2
#     Edge 58, Type (0, 0), BuildingBlock: ZUJKAS_clean_linker_0, # of connection points: 2
#     Edge 59, Type (0, 0), BuildingBlock: ZUJKAS_clean_linker_0, # of connection points: 2
# Relax obj value: 0.077
# Max RMSD: 0.147
# Mean RMSD: 0.059
data_MOF--net-utb--node1-OLANEW_clean_sbu_2--edge1-ZUJKAS_clean_linker_0
_symmetry_space_group_name_H-M    P1
_symmetry_Int_Tables_number       1
_symmetry_cell_setting            triclinic
loop_
_symmetry_equiv_pos_as_xyz
'x, y, z'
_cell_length_a     81.594529
_cell_length_b     55.823045
_cell_length_c     66.817428
_cell_angle_alpha  90.48114
_cell_angle_beta   90.525892
_cell_angle_gamma 89.666826
loop_
_atom_site_label
_atom_site_type_symbol
_atom_site_fract_x
_atom_site_fract_y
_atom_site_fract_z
_atom_type_partial_charge
O0 O 0.94968 0.54855 0.13827 0.0
Cd1 Cd 0.94252 0.50808 0.12735 0.0
O2 O 0.96724 0.54951 0.11378 0.0
Cd3 Cd 0.98517 0.5651 0.0936 0.0
O4 O 0.00547 0.57588 0.07473 0.0
C5 C 0.01513 0.59229 0.08065 0.0
O6 O 0.0124 0.60295 0.09792 0.0
C7 C 0.96061 0.55974 0.12877 0.0
C8 C 0.94115 0.47678 0.15953 0.0
O9 O 0.95457 0.48003 0.15014 0.0
O10 O 0.92838 0.48831 0.15365 0.0
O11 O 0.60332 0.00214 0.15239 0.0
Cd12 Cd 0.61651 0.0412 0.15042 0.0
O13 O 0.61094 0.00027 0.18383 0.0
Cd14 Cd 0.61183 0.98584 0.21419 0.0
O15 O 0.61546 0.9733 0.24479 0.0
C16 C 0.62909 0.96367 0.24954 0.0
O17 O 0.64041 0.96126 0.2358 0.0
C18 C 0.60367 0.99084 0.16881 0.0
C19 C 0.59366 0.07851 0.15231 0.0
O20 O 0.59789 0.0693 0.13548 0.0
O21 O 0.60026 0.07007 0.16826 0.0
O22 O 0.9503 0.81153 0.18162 0.0
Cd23 Cd 0.93789 0.85148 0.18369 0.0
O24 O 0.97098 0.82147 0.16262 0.0
Cd25 Cd 0.95749 0.85395 0.15484 0.0
O26 O 0.93503 0.85207 0.13688 0.0
C27 C 0.93466 0.83315 0.12615 0.0
O28 O 0.94753 0.81888 0.12637 0.0
C29 C 0.96364 0.80592 0.17301 0.0
C30 C 0.94599 0.87344 0.22007 0.0
O31 O 0.93372 0.8593 0.21855 0.0
O32 O 0.95437 0.87742 0.20432 0.0
O33 O 0.49825 0.77533 0.19821 0.0
Cd34 Cd 0.47604 0.74706 0.20413 0.0
O35 O 0.48566 0.7914 0.17231 0.0
Cd36 Cd 0.46202 0.77584 0.17948 0.0
O37 O 0.43864 0.78629 0.19253 0.0
C38 C 0.43874 0.79179 0.21103 0.0
O39 O 0.45231 0.78849 0.22143 0.0
C40 C 0.49828 0.78967 0.18352 0.0
C41 C 0.47799 0.70877 0.17709 0.0
O42 O 0.46934 0.7274 0.17311 0.0
O43 O 0.48554 0.7081 0.19398 0.0
O44 O 0.08389 0.47795 0.69873 0.0
Cd45 Cd 0.09518 0.51821 0.70224 0.0
O46 O 0.0876 0.47532 0.73108 0.0
Cd47 Cd 0.08848 0.45856 0.76059 0.0
O48 O 0.09379 0.44923 0.79169 0.0
C49 C 0.1015 0.43007 0.79601 0.0
O50 O 0.10578 0.41537 0.78149 0.0
C51 C 0.08261 0.46597 0.71471 0.0
C52 C 0.07072 0.55319 0.69993 0.0
O53 O 0.07923 0.54753 0.68455 0.0
O54 O 0.07379 0.54235 0.71638 0.0
O55 O 0.44258 0.22582 0.69088 0.0
Cd56 Cd 0.42087 0.25412 0.68172 0.0
O57 O 0.45158 0.22068 0.66023 0.0
Cd58 Cd 0.42951 0.23754 0.64814 0.0
O59 O 0.40432 0.22703 0.64159 0.0
C60 C 0.39792 0.21392 0.65483 0.0
O61 O 0.40631 0.20957 0.6713 0.0
C62 C 0.45297 0.21677 0.67889 0.0
C63 C 0.42156 0.29241 0.70862 0.0
O64 O 0.41288 0.27384 0.71199 0.0
O65 O 0.42963 0.29308 0.69227 0.0
O66 O 0.98152 0.24368 0.69109 0.0
Cd67 Cd 0.96173 0.21095 0.68971 0.0
O68 O 0.98677 0.23987 0.72328 0.0
Cd69 Cd 0.96585 0.21712 0.72979 0.0
O70 O 0.9457 0.21691 0.75113 0.0
C71 C 0.94989 0.21944 0.7694 0.0
O72 O 0.96559 0.22003 0.77394 0.0
C73 C 0.98976 0.2496 0.70658 0.0
C74 C 0.96622 0.18387 0.65476 0.0
O75 O 0.95623 0.20167 0.65515 0.0
O76 O 0.97392 0.17868 0.67097 0.0
O77 O 0.56782 0.01687 0.73787 0.0
Cd78 Cd 0.58575 0.98178 0.74108 0.0
O79 O 0.55224 0.99949 0.71503 0.0
Cd80 Cd 0.5706 0.97264 0.70723 0.0
O81 O 0.58691 0.96963 0.68177 0.0
C82 C 0.59914 0.98359 0.68156 0.0
O83 O 0.6024 0.9965 0.69763 0.0
C84 C 0.55501 0.01697 0.72688 0.0
C85 C 0.56875 0.94459 0.75918 0.0
O86 O 0.57656 0.96009 0.76977 0.0
O87 O 0.56926 0.94643 0.74011 0.0
O88 O 0.31937 0.01688 0.33937 0.0
Cd89 Cd 0.32506 0.02254 0.30398 0.0
O90 O 0.29475 0.00536 0.33039 0.0
Cd91 Cd 0.26956 0.99523 0.33698 0.0
O92 O 0.24459 0.9872 0.34589 0.0
C93 C 0.23816 0.99818 0.36062 0.0
O94 O 0.24682 0.01423 0.3705 0.0
C95 C 0.30535 0.00913 0.34411 0.0
C96 C 0.34042 0.98195 0.28825 0.0
O97 O 0.34877 0.99935 0.29561 0.0
O98 O 0.32475 0.98385 0.28816 0.0
O99 O 0.93378 0.24616 0.35435 0.0
Cd100 Cd 0.91544 0.28098 0.35261 0.0
O101 O 0.92108 0.22601 0.33046 0.0
Cd102 Cd 0.90077 0.25135 0.32882 0.0
O103 O 0.87582 0.26221 0.33601 0.0
C104 C 0.8722 0.26297 0.35445 0.0
O105 O 0.88382 0.25898 0.36779 0.0
C106 C 0.93273 0.22768 0.34314 0.0
C107 C 0.92275 0.31181 0.32128 0.0
O108 O 0.92963 0.31431 0.33849 0.0
O109 O 0.91251 0.29469 0.31889 0.0
O110 O 0.695 0.89996 0.55171 0.0
Cd111 Cd 0.69019 0.86053 0.56618 0.0
O112 O 0.68112 0.88829 0.52521 0.0
Cd113 Cd 0.66861 0.8932 0.49637 0.0
O114 O 0.6601 0.90115 0.46605 0.0
C115 C 0.67031 0.89969 0.45183 0.0
O116 O 0.68549 0.89325 0.45589 0.0
C117 C 0.68926 0.90445 0.53439 0.0
C118 C 0.71832 0.84166 0.58422 0.0
O119 O 0.71516 0.83783 0.56564 0.0
O120 O 0.70815 0.85441 0.59429 0.0
O121 O 0.99272 0.95911 0.47758 0.0
Cd122 Cd 0.00606 0.98079 0.45078 0.0
O123 O 0.00552 0.97876 0.50165 0.0
Cd124 Cd 0.02138 0.99779 0.48107 0.0
O125 O 0.04548 0.00653 0.46936 0.0
C126 C 0.05319 0.99093 0.45908 0.0
O127 O 0.04585 0.97071 0.45445 0.0
C128 C 0.99517 0.96304 0.49613 0.0
C129 C 0.99513 0.96459 0.41348 0.0
O130 O 0.00691 0.95402 0.42273 0.0
O131 O 0.98847 0.98287 0.42189 0.0
O132 O 0.28136 0.97413 0.56391 0.0
Cd133 Cd 0.27761 0.97822 0.59993 0.0
O134 O 0.25927 0.99631 0.56078 0.0
Cd135 Cd 0.23965 0.01229 0.54282 0.0
O136 O 0.21936 0.01806 0.522 0.0
C137 C 0.21855 0.00504 0.50633 0.0
O138 O 0.23021 0.98921 0.503 0.0
C139 C 0.27116 0.98509 0.55276 0.0
C140 C 0.29206 0.02107 0.612 0.0
O141 O 0.30011 0.00128 0.6123 0.0
O142 O 0.27698 0.02048 0.60651 0.0
O143 O 0.01899 0.99466 0.3816 0.0
Cd144 Cd 0.03227 0.95784 0.39237 0.0
O145 O 0.02176 0.00624 0.4128 0.0
Cd146 Cd 0.01752 0.02835 0.43952 0.0
O147 O 0.01249 0.04672 0.46785 0.0
C148 C 0.00117 0.06239 0.46898 0.0
O149 O 0.99267 0.06765 0.45279 0.0
C150 C 0.01703 0.01068 0.39499 0.0
C151 C 0.06588 0.96338 0.38887 0.0
O152 O 0.05766 0.95213 0.37538 0.0
O153 O 0.05824 0.97159 0.40415 0.0
O154 O 0.68592 0.14468 0.43291 0.0
Cd155 Cd 0.67986 0.18332 0.41747 0.0
O156 O 0.66124 0.14508 0.44562 0.0
Cd157 Cd 0.64317 0.13038 0.46597 0.0
O158 O 0.63413 0.10921 0.4907 0.0
C159 C 0.64225 0.11041 0.50699 0.0
O160 O 0.65499 0.12467 0.50805 0.0
C161 C 0.67502 0.13468 0.44333 0.0
C162 C 0.70873 0.20569 0.40624 0.0
O163 O 0.70247 0.2097 0.42348 0.0
O164 O 0.7012 0.19136 0.39426 0.0
O165 O 0.93276 0.80047 0.657 0.0
Cd166 Cd 0.92288 0.77277 0.68226 0.0
O167 O 0.92577 0.77716 0.63169 0.0
Cd168 Cd 0.90939 0.75577 0.64978 0.0
O169 O 0.88286 0.7546 0.65307 0.0
C170 C 0.87613 0.77399 0.65892 0.0
O171 O 0.88556 0.79192 0.66446 0.0
C172 C 0.93284 0.79588 0.63834 0.0
C173 C 0.94572 0.73583 0.68721 0.0
O174 O 0.9331 0.73301 0.6759 0.0
O175 O 0.94738 0.7559 0.69643 0.0
O176 O 0.46914 0.34257 0.12732 0.0
Cd177 Cd 0.46135 0.3184 0.15602 0.0
O178 O 0.46214 0.37707 0.14095 0.0
Cd179 Cd 0.44889 0.35915 0.16468 0.0
O180 O 0.42429 0.34585 0.17031 0.0
C181 C 0.41788 0.33418 0.15585 0.0
O182 O 0.42682 0.32965 0.13998 0.0
C183 C 0.46846 0.36531 0.12656 0.0
C184 C 0.48144 0.27792 0.15824 0.0
O185 O 0.46784 0.27743 0.1485 0.0
O186 O 0.4854 0.29748 0.16719 0.0
O187 O 0.45711 0.696 0.86635 0.0
Cd188 Cd 0.44253 0.73345 0.85963 0.0
O189 O 0.43607 0.67413 0.8567 0.0
Cd190 Cd 0.4195 0.7044 0.85215 0.0
O191 O 0.39712 0.72202 0.8622 0.0
C192 C 0.38348 0.71282 0.85714 0.0
O193 O 0.38342 0.69462 0.84453 0.0
C194 C 0.45072 0.67557 0.86325 0.0
C195 C 0.46328 0.76789 0.84409 0.0
O196 O 0.46123 0.76611 0.86301 0.0
O197 O 0.45546 0.75339 0.83254 0.0
O198 O 0.2204 0.39321 0.07718 0.0
Cd199 Cd 0.21898 0.35207 0.08933 0.0
O200 O 0.19884 0.38872 0.05763 0.0
Cd201 Cd 0.1822 0.40051 0.03375 0.0
O202 O 0.16843 0.40693 0.00606 0.0
C203 C 0.16917 0.39111 0.9923 0.0
O204 O 0.17797 0.37168 0.9954 0.0
C205 C 0.2103 0.40182 0.06453 0.0
C206 C 0.24897 0.33909 0.1066 0.0
O207 O 0.24596 0.33499 0.08803 0.0
O208 O 0.23769 0.34897 0.11709 0.0
O209 O 0.45826 0.47728 0.92711 0.0
Cd210 Cd 0.45159 0.4986 0.89636 0.0
O211 O 0.48327 0.49204 0.92955 0.0
Cd212 Cd 0.52346 0.51582 0.9384 0.0
O213 O 0.54983 0.52067 0.94166 0.0
C214 C 0.55873 0.50323 0.94744 0.0
O215 O 0.55175 0.48275 0.95163 0.0
C216 C 0.47182 0.4789 0.93652 0.0
C217 C 0.44615 0.4674 0.86431 0.0
O218 O 0.43427 0.47468 0.87526 0.0
O219 O 0.4606 0.47489 0.86855 0.0
O220 O 0.81892 0.37179 0.95221 0.0
Cd221 Cd 0.821 0.32803 0.95036 0.0
O222 O 0.79483 0.36571 0.96512 0.0
Cd223 Cd 0.771 0.37311 0.97892 0.0
O224 O 0.74566 0.38398 0.98455 0.0
C225 C 0.73797 0.39522 0.97088 0.0
O226 O 0.74556 0.39996 0.95412 0.0
C227 C 0.80576 0.38035 0.95946 0.0
C228 C 0.84126 0.31057 0.92006 0.0
O229 O 0.82597 0.31449 0.91678 0.0
O230 O 0.84698 0.31524 0.93758 0.0
O231 O 0.51774 0.44219 0.94831 0.0
Cd232 Cd 0.52941 0.40965 0.96791 0.0
O233 O 0.51789 0.46291 0.97615 0.0
Cd234 Cd 0.51612 0.49299 0.99723 0.0
O235 O 0.51326 0.52059 0.02027 0.0
C236 C 0.49922 0.52435 0.02779 0.0
O237 O 0.48673 0.51163 0.02131 0.0
C238 C 0.51486 0.46178 0.95743 0.0
C239 C 0.56342 0.41381 0.96979 0.0
O240 O 0.55636 0.40179 0.95577 0.0
O241 O 0.55436 0.42382 0.98306 0.0
O242 O 0.23914 0.66542 0.0443 0.0
Cd243 Cd 0.24221 0.7086 0.04021 0.0
O244 O 0.22382 0.6651 0.01716 0.0
Cd245 Cd 0.20553 0.6475 0.99819 0.0
O246 O 0.18057 0.63431 0.99509 0.0
C247 C 0.16912 0.64981 0.9959 0.0
O248 O 0.17301 0.67261 0.99692 0.0
C249 C 0.23053 0.65391 0.03159 0.0
C250 C 0.26265 0.71808 0.00814 0.0
O251 O 0.26843 0.71558 0.0259 0.0
O252 O 0.24711 0.7164 0.00557 0.0
O253 O 0.78352 0.63666 0.02642 0.0
Cd254 Cd 0.77263 0.67508 0.03843 0.0
O255 O 0.76271 0.63541 0.00545 0.0
Cd256 Cd 0.74686 0.61526 0.98496 0.0
O257 O 0.72607 0.59504 0.97312 0.0
C258 C 0.72414 0.57315 0.97761 0.0
O259 O 0.73531 0.56242 0.9887 0.0
C260 C 0.7756 0.62583 0.01266 0.0
C261 C 0.7968 0.70749 0.05023 0.0
O262 O 0.79139 0.6918 0.06237 0.0
O263 O 0.79086 0.70776 0.03241 0.0
H264 H 0.94101 0.59249 0.14716 0.0
H265 H 0.94773 0.63366 0.15693 0.0
H266 H 0.99669 0.62398 0.13447 0.0
H267 H 0.99025 0.58241 0.12533 0.0
H268 H 0.97822 0.64969 0.1828 0.0
H269 H 0.97358 0.68481 0.10502 0.0
H270 H 0.96281 0.6581 0.11227 0.0
H271 H 0.98465 0.65734 0.10972 0.0
C272 C 0.95323 0.59908 0.14434 0.0
C273 C 0.96495 0.58446 0.13485 0.0
C274 C 0.95704 0.62256 0.14994 0.0
C275 C 0.97263 0.63183 0.14618 0.0
C276 C 0.98451 0.61717 0.13719 0.0
H277 H 0.99017 0.78626 0.15375 0.0
H278 H 0.99641 0.74358 0.14936 0.0
C279 C 0.98073 0.59358 0.13167 0.0
C280 C 0.97614 0.65707 0.15132 0.0
H281 H 0.97654 0.71288 0.13106 0.0
C282 C 0.97811 0.66354 0.17151 0.0
C283 C 0.9762 0.67494 0.1365 0.0
C284 C 0.97417 0.66866 0.11461 0.0
C285 C 0.97953 0.68766 0.17736 0.0
C286 C 0.97845 0.70572 0.16265 0.0
C287 C 0.97734 0.69907 0.14235 0.0
C288 C 0.97656 0.73147 0.16795 0.0
C289 C 0.98197 0.69351 0.19926 0.0
C290 C 0.96356 0.73888 0.18017 0.0
C291 C 0.96005 0.76318 0.18283 0.0
C292 C 0.96931 0.78065 0.17305 0.0
C293 C 0.9828 0.77327 0.16152 0.0
C294 C 0.98636 0.74888 0.15895 0.0
H295 H 0.98872 0.67887 0.20701 0.0
H296 H 0.98882 0.71047 0.20145 0.0
H297 H 0.96984 0.69538 0.20649 0.0
H298 H 0.95553 0.72585 0.18685 0.0
H299 H 0.94954 0.76817 0.19176 0.0
H300 H 0.57678 0.97633 0.14787 0.0
H301 H 0.56222 0.93829 0.15051 0.0
H302 H 0.59699 0.91457 0.19521 0.0
H303 H 0.61185 0.95236 0.1923 0.0
H304 H 0.57484 0.89011 0.14509 0.0
H305 H 0.55135 0.9073 0.22192 0.0
H306 H 0.55907 0.93095 0.2064 0.0
H307 H 0.57304 0.91055 0.21838 0.0
C308 C 0.58133 0.96301 0.15827 0.0
C309 C 0.59516 0.96764 0.17036 0.0
C310 C 0.57301 0.94132 0.15974 0.0
C311 C 0.57838 0.92384 0.1733 0.0
C312 C 0.59244 0.92809 0.18501 0.0
H313 H 0.52666 0.79292 0.2057 0.0
H314 H 0.54832 0.82279 0.20259 0.0
C315 C 0.6008 0.94981 0.1835 0.0
C316 C 0.56911 0.90128 0.17515 0.0
H317 H 0.54387 0.87101 0.20641 0.0
C318 C 0.56816 0.8858 0.15853 0.0
C319 C 0.56052 0.89568 0.19276 0.0
C320 C 0.56089 0.912 0.21089 0.0
C321 C 0.55859 0.86499 0.15895 0.0
C322 C 0.54947 0.85988 0.17629 0.0
C323 C 0.55088 0.87496 0.19314 0.0
C324 C 0.53743 0.84011 0.17681 0.0
C325 C 0.55833 0.84874 0.1408 0.0
C326 C 0.52419 0.83983 0.16326 0.0
C327 C 0.51185 0.82278 0.16494 0.0
C328 C 0.51237 0.8058 0.18037 0.0
C329 C 0.52588 0.80571 0.19362 0.0
C330 C 0.53826 0.82278 0.19189 0.0
H331 H 0.5697 0.85052 0.13193 0.0
H332 H 0.55692 0.82969 0.14509 0.0
H333 H 0.54783 0.85379 0.13099 0.0
H334 H 0.52308 0.85337 0.1518 0.0
H335 H 0.5016 0.82347 0.15453 0.0
H336 H 0.06435 0.44435 0.74343 0.0
H337 H 0.05103 0.40524 0.74139 0.0
H338 H 0.06997 0.39466 0.68192 0.0
H339 H 0.0836 0.43365 0.684 0.0
H340 H 0.02731 0.39266 0.71019 0.0
H341 H 0.08115 0.33105 0.71273 0.0
H342 H 0.08199 0.36154 0.72199 0.0
H343 H 0.08222 0.35565 0.69556 0.0
C344 C 0.06612 0.4334 0.73018 0.0
C345 C 0.07533 0.44181 0.71405 0.0
C346 C 0.05834 0.41119 0.72894 0.0
C347 C 0.05972 0.39698 0.71162 0.0
C348 C 0.069 0.40522 0.69554 0.0
H349 H 0.99568 0.2798 0.67538 0.0
H350 H 0.0136 0.31487 0.67554 0.0
C351 C 0.07669 0.42751 0.69671 0.0
C352 C 0.05056 0.37426 0.7099 0.0
H353 H 0.05519 0.3135 0.70666 0.0
C354 C 0.03339 0.37535 0.70939 0.0
C355 C 0.05857 0.35177 0.70895 0.0
C356 C 0.077 0.34974 0.70997 0.0
C357 C 0.02397 0.35447 0.70786 0.0
C358 C 0.03197 0.33198 0.7067 0.0
C359 C 0.04915 0.33084 0.70735 0.0
C360 C 0.02255 0.30946 0.70573 0.0
C361 C 0.00552 0.35652 0.70786 0.0
C362 C 0.02208 0.29451 0.72245 0.0
C363 C 0.01184 0.27454 0.72246 0.0
C364 C 0.00197 0.26908 0.70566 0.0
C365 C 0.00309 0.28351 0.68857 0.0
C366 C 0.01327 0.30358 0.68863 0.0
H367 H 0.00129 0.3748 0.71214 0.0
H368 H 0.00071 0.35236 0.69264 0.0
H369 H 0.00018 0.34343 0.71835 0.0
H370 H 0.0292 0.29878 0.73576 0.0
H371 H 0.01135 0.26374 0.73583 0.0
H372 H 0.47476 0.19 0.65712 0.0
H373 H 0.49311 0.15855 0.66943 0.0
H374 H 0.47847 0.17419 0.73002 0.0
H375 H 0.45986 0.20544 0.71785 0.0
H376 H 0.51923 0.15811 0.69698 0.0
H377 H 0.46693 0.10322 0.72271 0.0
H378 H 0.46421 0.12884 0.70672 0.0
H379 H 0.46788 0.13298 0.73307 0.0
C380 C 0.47556 0.18697 0.67309 0.0
C381 C 0.46569 0.20004 0.68648 0.0
C382 C 0.48607 0.16899 0.6801 0.0
C383 C 0.48689 0.16376 0.70058 0.0
C384 C 0.47774 0.17763 0.7141 0.0
H385 H 0.55844 0.05943 0.74746 0.0
H386 H 0.54187 0.09587 0.74355 0.0
C387 C 0.46718 0.19556 0.70711 0.0
C388 C 0.49673 0.14303 0.70757 0.0
H389 H 0.49344 0.08761 0.72835 0.0
C390 C 0.51365 0.14276 0.704 0.0
C391 C 0.48933 0.12295 0.71649 0.0
C392 C 0.47108 0.12179 0.71985 0.0
C393 C 0.52335 0.12276 0.70887 0.0
C394 C 0.51595 0.10271 0.71784 0.0
C395 C 0.49908 0.10314 0.72167 0.0
C396 C 0.52522 0.08032 0.72173 0.0
C397 C 0.54131 0.12286 0.70363 0.0
C398 C 0.52091 0.05929 0.7114 0.0
C399 C 0.53023 0.03845 0.7137 0.0
C400 C 0.54405 0.03821 0.72643 0.0
C401 C 0.54792 0.05904 0.73746 0.0
C402 C 0.53855 0.07992 0.73515 0.0
H403 H 0.54432 0.13755 0.69319 0.0
H404 H 0.54871 0.12538 0.71749 0.0
H405 H 0.54499 0.10554 0.69666 0.0
H406 H 0.5106 0.0592 0.70106 0.0
H407 H 0.52684 0.02272 0.70504 0.0
H408 H 0.31572 0.03485 0.37654 0.0
H409 H 0.30922 0.02794 0.41176 0.0
H410 H 0.28011 0.96671 0.39466 0.0
H411 H 0.28675 0.97335 0.35952 0.0
H412 H 0.26445 0.99694 0.42185 0.0
H413 H 0.32758 0.97459 0.4472 0.0
H414 H 0.32608 0.00276 0.43453 0.0
H415 H 0.32174 0.97544 0.42109 0.0
C416 C 0.30796 0.01991 0.38034 0.0
C417 C 0.30142 0.00497 0.3653 0.0
C418 C 0.30431 0.01592 0.40043 0.0
C419 C 0.29428 0.9967 0.4058 0.0
C420 C 0.2878 0.98171 0.3908 0.0
H421 H 0.28336 0.94903 0.52933 0.0
H422 H 0.28787 0.94973 0.49305 0.0
C423 C 0.29143 0.9857 0.37072 0.0
C424 C 0.29038 0.99244 0.42706 0.0
H425 H 0.30789 0.98183 0.47274 0.0
C426 C 0.27393 0.99348 0.43298 0.0
C427 C 0.30274 0.98748 0.44145 0.0
C428 C 0.32051 0.98475 0.43576 0.0
C429 C 0.26956 0.99053 0.45307 0.0
C430 C 0.28201 0.98677 0.46759 0.0
C431 C 0.29839 0.98492 0.46157 0.0
C432 C 0.27839 0.9857 0.48923 0.0
C433 C 0.25167 0.99123 0.45859 0.0
C434 C 0.27181 0.0058 0.49906 0.0
C435 C 0.2693 0.00546 0.51969 0.0
C436 C 0.27324 0.98497 0.53084 0.0
C437 C 0.28002 0.96493 0.52102 0.0
C438 C 0.28256 0.96529 0.50035 0.0
H439 H 0.24357 0.98848 0.44532 0.0
H440 H 0.24894 0.97727 0.4698 0.0
H441 H 0.24867 0.00896 0.46528 0.0
H442 H 0.26904 0.02201 0.49087 0.0
H443 H 0.26485 0.02157 0.52698 0.0
H444 H 0.99491 0.01851 0.36506 0.0
H445 H 0.98212 0.05654 0.35551 0.0
H446 H 0.00814 0.09252 0.40343 0.0
H447 H 0.02146 0.05476 0.41253 0.0
H448 H 0.96231 0.08666 0.37861 0.0
H449 H 0.0187 0.13324 0.35456 0.0
H450 H 0.018 0.10128 0.35834 0.0
H451 H 0.01968 0.12132 0.37943 0.0
C452 C 0.99791 0.03453 0.37356 0.0
C453 C 0.00893 0.03356 0.38982 0.0
C454 C 0.99059 0.05621 0.3681 0.0
C455 C 0.99431 0.07735 0.37864 0.0
C456 C 0.00525 0.07644 0.39494 0.0
H457 H 0.95706 0.22294 0.37142 0.0
H458 H 0.97277 0.1867 0.37934 0.0
C459 C 0.0126 0.05475 0.4004 0.0
C460 C 0.98643 0.10022 0.37278 0.0
H461 H 0.9943 0.15655 0.35588 0.0
C462 C 0.96929 0.10191 0.37357 0.0
C463 C 0.9956 0.12008 0.36625 0.0
C464 C 0.014 0.11893 0.3644 0.0
C465 C 0.96106 0.12305 0.36822 0.0
C466 C 0.97021 0.14287 0.3616 0.0
C467 C 0.98735 0.14127 0.36092 0.0
C468 C 0.96207 0.16542 0.35544 0.0
C469 C 0.94264 0.12416 0.37006 0.0
C470 C 0.95135 0.16563 0.33893 0.0
C471 C 0.94236 0.18626 0.33436 0.0
C472 C 0.94399 0.20709 0.34619 0.0
C473 C 0.95545 0.20719 0.36206 0.0
C474 C 0.96444 0.18651 0.36662 0.0
H475 H 0.93792 0.10972 0.37975 0.0
H476 H 0.93864 0.14173 0.37629 0.0
H477 H 0.93698 0.12198 0.355 0.0
H478 H 0.94961 0.14963 0.32989 0.0
H479 H 0.93375 0.1856 0.32193 0.0
H480 H 0.69211 0.91635 0.49483 0.0
H481 H 0.69241 0.95643 0.48063 0.0
H482 H 0.6938 0.98708 0.54015 0.0
H483 H 0.69208 0.94694 0.55438 0.0
H484 H 0.6718 0.00896 0.51911 0.0
H485 H 0.72772 0.00398 0.47339 0.0
H486 H 0.71384 0.98052 0.46648 0.0
H487 H 0.7227 0.98122 0.4913 0.0
C488 C 0.69205 0.93162 0.50488 0.0
C489 C 0.69135 0.92852 0.52569 0.0
C490 C 0.69273 0.95457 0.49675 0.0
C491 C 0.69331 0.97487 0.50929 0.0
C492 C 0.69336 0.97172 0.53014 0.0
H493 H 0.70366 0.11989 0.46079 0.0
H494 H 0.70903 0.08176 0.4778 0.0
C495 C 0.69242 0.94877 0.53826 0.0
C496 C 0.69244 0.99934 0.50073 0.0
H497 H 0.70852 0.03552 0.46496 0.0
C498 C 0.67999 0.01481 0.50744 0.0
C499 C 0.70326 0.00728 0.48574 0.0
C500 C 0.71773 0.99245 0.47899 0.0
C501 C 0.67769 0.03755 0.49911 0.0
C502 C 0.68772 0.0448 0.48313 0.0
C503 C 0.70061 0.02978 0.47694 0.0
C504 C 0.68472 0.06765 0.47244 0.0
C505 C 0.66463 0.0537 0.50768 0.0
C506 C 0.66942 0.07213 0.46338 0.0
C507 C 0.66632 0.09388 0.45385 0.0
C508 C 0.67849 0.1115 0.45306 0.0
C509 C 0.69402 0.10667 0.4614 0.0
C510 C 0.69709 0.08493 0.4711 0.0
H511 H 0.66164 0.04876 0.52328 0.0
H512 H 0.66859 0.07269 0.50758 0.0
H513 H 0.65327 0.05201 0.49854 0.0
H514 H 0.65987 0.05875 0.46361 0.0
H515 H 0.65446 0.09674 0.44684 0.0
H516 H 0.94956 0.8371 0.64725 0.0
H517 H 0.96017 0.86646 0.62376 0.0
H518 H 0.94318 0.82306 0.57416 0.0
H519 H 0.9328 0.7934 0.59745 0.0
H520 H 0.97444 0.84026 0.56887 0.0
H521 H 0.93217 0.91362 0.59185 0.0
H522 H 0.94415 0.90122 0.61195 0.0
H523 H 0.92924 0.88292 0.59919 0.0
C524 C 0.94814 0.83373 0.63134 0.0
C525 C 0.94024 0.81295 0.62423 0.0
C526 C 0.9541 0.85063 0.61795 0.0
C527 C 0.95214 0.84717 0.59724 0.0
C528 C 0.94469 0.82615 0.5901 0.0
H529 H 0.9748 0.92499 0.48949 0.0
H530 H 0.96395 0.8975 0.51433 0.0
C531 C 0.93879 0.80921 0.60345 0.0
C532 C 0.95793 0.86533 0.58293 0.0
H533 H 0.95283 0.92355 0.56865 0.0
C534 C 0.96969 0.85845 0.56878 0.0
C535 C 0.95168 0.88904 0.58287 0.0
C536 C 0.9385 0.89716 0.59715 0.0
C537 C 0.9755 0.87472 0.55467 0.0
C538 C 0.96923 0.89838 0.55457 0.0
C539 C 0.95757 0.90536 0.5688 0.0
C540 C 0.97468 0.91608 0.53974 0.0
C541 C 0.98849 0.86659 0.54013 0.0
C542 C 0.98377 0.93609 0.54593 0.0
C543 C 0.98997 0.95188 0.53179 0.0
C544 C 0.98708 0.94799 0.51122 0.0
C545 C 0.97732 0.92847 0.50519 0.0
C546 C 0.97118 0.91267 0.51934 0.0
H547 H 0.99456 0.8497 0.54497 0.0
H548 H 0.98274 0.86335 0.52525 0.0
H549 H 0.99798 0.88058 0.53841 0.0
H550 H 0.98648 0.93907 0.56165 0.0
H551 H 0.99737 0.96678 0.53696 0.0
H552 H 0.48151 0.43312 0.94321 0.0
H553 H 0.48411 0.41307 0.97573 0.0
H554 H 0.4668 0.47723 0.00537 0.0
H555 H 0.46481 0.49748 0.97294 0.0
H556 H 0.49452 0.45704 0.02386 0.0
H557 H 0.44617 0.38921 0.00935 0.0
H558 H 0.46211 0.3897 0.99101 0.0
H559 H 0.4487 0.41516 0.99378 0.0
C560 C 0.47837 0.44284 0.95675 0.0
C561 C 0.47335 0.46686 0.95586 0.0
C562 C 0.47976 0.43142 0.97524 0.0
C563 C 0.47564 0.44371 0.99294 0.0
C564 C 0.47025 0.46759 0.99191 0.0
H565 H 0.46564 0.4131 0.11815 0.0
H566 H 0.46984 0.4323 0.08591 0.0
C567 C 0.46903 0.47906 0.97347 0.0
C568 C 0.4768 0.43172 0.01257 0.0
H569 H 0.46118 0.38568 0.03953 0.0
C570 C 0.48726 0.4414 0.02732 0.0
C571 C 0.46731 0.41137 0.01699 0.0
C572 C 0.45532 0.40083 0.00204 0.0
C573 C 0.48851 0.43118 0.04641 0.0
C574 C 0.47891 0.41094 0.05086 0.0
C575 C 0.46862 0.40111 0.03602 0.0
C576 C 0.47864 0.40017 0.07105 0.0
C577 C 0.50018 0.44201 0.06156 0.0
C578 C 0.48227 0.37577 0.07344 0.0
C579 C 0.47977 0.36468 0.09182 0.0
C580 C 0.47347 0.37778 0.10813 0.0
C581 C 0.47054 0.40249 0.10593 0.0
C582 C 0.47303 0.41355 0.08752 0.0
H583 H 0.50988 0.45262 0.05423 0.0
H584 H 0.49326 0.45425 0.07162 0.0
H585 H 0.50608 0.42795 0.07087 0.0
H586 H 0.48655 0.36512 0.06088 0.0
H587 H 0.48218 0.34564 0.09299 0.0
H588 H 0.499 0.50402 0.97184 0.0
H589 H 0.49102 0.54039 0.95191 0.0
H590 H 0.51 0.50501 0.89648 0.0
H591 H 0.51716 0.46816 0.91628 0.0
H592 H 0.50477 0.57129 0.93365 0.0
H593 H 0.4707 0.52643 0.87196 0.0
H594 H 0.47957 0.50947 0.89204 0.0
H595 H 0.49199 0.51871 0.87136 0.0
C596 C 0.50137 0.50393 0.95602 0.0
C597 C 0.50887 0.48265 0.94595 0.0
C598 C 0.49671 0.52539 0.94426 0.0
C599 C 0.49953 0.52606 0.9222 0.0
C600 C 0.50706 0.50475 0.91221 0.0
H601 H 0.48374 0.66979 0.86999 0.0
H602 H 0.49787 0.63372 0.88199 0.0
C603 C 0.51144 0.48317 0.9239 0.0
C604 C 0.49483 0.54793 0.91074 0.0
H605 H 0.47488 0.56801 0.86884 0.0
C606 C 0.49807 0.57041 0.91958 0.0
C607 C 0.4864 0.54714 0.89204 0.0
C608 C 0.48186 0.52413 0.88143 0.0
C609 C 0.49232 0.5918 0.91104 0.0
C610 C 0.4838 0.59089 0.89251 0.0
C611 C 0.48136 0.56864 0.88309 0.0
C612 C 0.47586 0.61234 0.88358 0.0
C613 C 0.49474 0.61494 0.92251 0.0
C614 C 0.45896 0.61195 0.87941 0.0
C615 C 0.45098 0.63223 0.87204 0.0
C616 C 0.45968 0.6535 0.8689 0.0
C617 C 0.47669 0.65372 0.87247 0.0
C618 C 0.48475 0.63319 0.8795 0.0
H619 H 0.49774 0.61174 0.93853 0.0
H620 H 0.50508 0.62492 0.91595 0.0
H621 H 0.48359 0.6264 0.92172 0.0
H622 H 0.45182 0.59608 0.88236 0.0
H623 H 0.43787 0.63146 0.8695 0.0
H624 H 0.18615 0.43514 0.05935 0.0
H625 H 0.18945 0.47765 0.05187 0.0
H626 H 0.24176 0.46717 0.04732 0.0
H627 H 0.2385 0.42498 0.05599 0.0
H628 H 0.23666 0.50431 0.06821 0.0
H629 H 0.19642 0.51247 0.00169 0.0
H630 H 0.18523 0.50135 0.02256 0.0
H631 H 0.20179 0.48382 0.0122 0.0
C632 C 0.1983 0.44189 0.05638 0.0
C633 C 0.21206 0.42683 0.05802 0.0
C634 C 0.20018 0.46618 0.05199 0.0
C635 C 0.21583 0.47566 0.04857 0.0
C636 C 0.22955 0.46036 0.04983 0.0
H637 H 0.23054 0.61963 0.00243 0.0
H638 H 0.22743 0.57635 0.00646 0.0
C639 C 0.2277 0.43626 0.05473 0.0
C640 C 0.21809 0.50175 0.04514 0.0
H641 H 0.204 0.54929 0.01798 0.0
C642 C 0.22963 0.51405 0.05705 0.0
C643 C 0.20913 0.51454 0.0304 0.0
C644 C 0.1976 0.50228 0.01585 0.0
C645 C 0.23232 0.53868 0.05484 0.0
C646 C 0.22262 0.55175 0.04099 0.0
C647 C 0.21126 0.53942 0.02885 0.0
C648 C 0.22425 0.57811 0.0386 0.0
C649 C 0.24586 0.55017 0.06704 0.0
C650 C 0.22328 0.59363 0.05524 0.0
C651 C 0.22541 0.6183 0.05299 0.0
C652 C 0.22794 0.62797 0.03396 0.0
C653 C 0.2284 0.6126 0.01724 0.0
C654 C 0.22665 0.58789 0.01955 0.0
H655 H 0.25539 0.53684 0.07139 0.0
H656 H 0.25186 0.56476 0.05868 0.0
H657 H 0.24067 0.55777 0.08102 0.0
H658 H 0.22087 0.5867 0.07 0.0
H659 H 0.22487 0.62985 0.06608 0.0
H660 H 0.7772 0.40652 0.96272 0.0
H661 H 0.77422 0.44872 0.97041 0.0
H662 H 0.82651 0.4576 0.96506 0.0
H663 H 0.82968 0.4144 0.96006 0.0
H664 H 0.81781 0.48208 0.99452 0.0
H665 H 0.77298 0.50373 0.93536 0.0
H666 H 0.76446 0.48113 0.95089 0.0
H667 H 0.78271 0.47473 0.93664 0.0
C668 C 0.78813 0.4171 0.96401 0.0
C669 C 0.8037 0.40668 0.96177 0.0
C670 C 0.78637 0.44162 0.96766 0.0
C671 C 0.80009 0.45667 0.96799 0.0
C672 C 0.81568 0.44647 0.96494 0.0
H673 H 0.77961 0.61067 0.97436 0.0
H674 H 0.78774 0.57064 0.96278 0.0
C675 C 0.81747 0.42175 0.96195 0.0
C676 C 0.79823 0.4827 0.97263 0.0
H677 H 0.77393 0.5314 0.96344 0.0
C678 C 0.80839 0.49295 0.98743 0.0
C679 C 0.78624 0.49727 0.96314 0.0
C680 C 0.77615 0.48865 0.94547 0.0
C681 C 0.80654 0.51696 0.99349 0.0
C682 C 0.79351 0.53081 0.98535 0.0
C683 C 0.78373 0.5208 0.97005 0.0
C684 C 0.78965 0.55554 0.99252 0.0
C685 C 0.81881 0.52716 0.00824 0.0
C686 C 0.78802 0.56059 0.01308 0.0
C687 C 0.78397 0.5837 0.01968 0.0
C688 C 0.78076 0.60187 0.00582 0.0
C689 C 0.78204 0.59684 0.9853 0.0
C690 C 0.78663 0.57397 0.97871 0.0
H691 H 0.83088 0.51801 0.00689 0.0
H692 H 0.82062 0.54665 0.00603 0.0
H693 H 0.81442 0.5242 0.02369 0.0
H694 H 0.78957 0.54661 0.02406 0.0
H695 H 0.78279 0.58716 0.03559 0.0
H696 H 0.15721 0.60415 0.99813 0.0
H697 H 0.12954 0.5922 0.00749 0.0
H698 H 0.1147 0.66643 0.01007 0.0
H699 H 0.14219 0.67853 0.00046 0.0
H700 H 0.11587 0.60499 0.04333 0.0
H701 H 0.07608 0.63558 0.98086 0.0
H702 H 0.09802 0.63229 0.97851 0.0
H703 H 0.08945 0.65858 0.99025 0.0
C704 C 0.14797 0.61792 0.00026 0.0
C705 C 0.15193 0.64231 0.99865 0.0
C706 C 0.13217 0.61105 0.00562 0.0
C707 C 0.12004 0.62841 0.00931 0.0
C708 C 0.12377 0.65271 0.0069 0.0
H709 H 0.03935 0.62396 0.09053 0.0
H710 H 0.06445 0.63192 0.07211 0.0
C711 C 0.13955 0.6596 0.00154 0.0
C712 C 0.10411 0.6214 0.01787 0.0
H713 H 0.06266 0.62714 0.01185 0.0
C714 C 0.10424 0.60958 0.03632 0.0
C715 C 0.08895 0.62727 0.00864 0.0
C716 C 0.08807 0.63892 0.98837 0.0
C717 C 0.08963 0.6042 0.04615 0.0
C718 C 0.07452 0.61113 0.03741 0.0
C719 C 0.07431 0.62215 0.01861 0.0
C720 C 0.05885 0.60735 0.04783 0.0
C721 C 0.09049 0.59122 0.06586 0.0
C722 C 0.04719 0.59144 0.03993 0.0
C723 C 0.03281 0.58684 0.05041 0.0
C724 C 0.02982 0.59824 0.0689 0.0
C725 C 0.04131 0.61478 0.07641 0.0
C726 C 0.05569 0.61929 0.06595 0.0
H727 H 0.10249 0.58205 0.06804 0.0
H728 H 0.08889 0.60434 0.07826 0.0
H729 H 0.08059 0.57773 0.06685 0.0
H730 H 0.04941 0.58216 0.0259 0.0
H731 H 0.02417 0.57409 0.04416 0.0
H732 H 0.51156 0.2741 0.17627 0.0
H733 H 0.5302 0.23962 0.17577 0.0
H734 H 0.49504 0.19953 0.14071 0.0
H735 H 0.47624 0.23385 0.14123 0.0
H736 H 0.50934 0.17371 0.17312 0.0
H737 H 0.55607 0.21739 0.12595 0.0
H738 H 0.55034 0.23406 0.14795 0.0
H739 H 0.53547 0.22894 0.12841 0.0
C740 C 0.50776 0.25793 0.16849 0.0
C741 C 0.49245 0.25676 0.15869 0.0
C742 C 0.51846 0.2383 0.16815 0.0
C743 C 0.51408 0.21719 0.15795 0.0
C744 C 0.49867 0.21573 0.14857 0.0
H745 H 0.57813 0.10078 0.1211 0.0
H746 H 0.55834 0.13381 0.12274 0.0
C747 C 0.48796 0.23537 0.14887 0.0
C748 C 0.52561 0.19664 0.15697 0.0
H749 H 0.56313 0.17958 0.13951 0.0
C750 C 0.5211 0.17494 0.16576 0.0
C751 C 0.54083 0.19827 0.14713 0.0
C752 C 0.54597 0.22083 0.13665 0.0
C753 C 0.53156 0.15487 0.16525 0.0
C754 C 0.54697 0.15671 0.15587 0.0
C755 C 0.55136 0.17831 0.14682 0.0
C756 C 0.55867 0.13635 0.15507 0.0
C757 C 0.52593 0.13178 0.17444 0.0
C758 C 0.5655 0.12699 0.17271 0.0
C759 C 0.57682 0.10812 0.17183 0.0
C760 C 0.58157 0.09835 0.15328 0.0
C761 C 0.57472 0.10785 0.13563 0.0
C762 C 0.56342 0.12674 0.13653 0.0
H763 H 0.51244 0.13162 0.17661 0.0
H764 H 0.52941 0.11616 0.16497 0.0
H765 H 0.5319 0.12964 0.18931 0.0
H766 H 0.56222 0.13446 0.18715 0.0
H767 H 0.58191 0.10128 0.1857 0.0
H768 H 0.92998 0.79196 0.10496 0.0
H769 H 0.90487 0.77782 0.08915 0.0
H770 H 0.88021 0.8434 0.10602 0.0
H771 H 0.9054 0.85755 0.12253 0.0
H772 H 0.86236 0.80542 0.11533 0.0
H773 H 0.88269 0.79417 0.03738 0.0
H774 H 0.89643 0.77874 0.05397 0.0
H775 H 0.89444 0.81088 0.05571 0.0
C776 C 0.91931 0.8036 0.10511 0.0
C777 C 0.91971 0.82592 0.11501 0.0
C778 C 0.90497 0.79554 0.09588 0.0
C779 C 0.89073 0.80973 0.09601 0.0
C780 C 0.89111 0.83224 0.10558 0.0
H781 H 0.80718 0.74731 0.03047 0.0
H782 H 0.82826 0.77579 0.04129 0.0
C783 C 0.9055 0.8403 0.11498 0.0
C784 C 0.87523 0.79992 0.08763 0.0
H785 H 0.85985 0.76932 0.04729 0.0
C786 C 0.86169 0.79794 0.10031 0.0
C787 C 0.87417 0.7906 0.0679 0.0
C788 C 0.88767 0.79396 0.05291 0.0
C789 C 0.84756 0.78551 0.09425 0.0
C790 C 0.84717 0.77418 0.07521 0.0
C791 C 0.86025 0.77756 0.06205 0.0
C792 C 0.83379 0.75768 0.06909 0.0
C793 C 0.83329 0.7845 0.10842 0.0
C794 C 0.83001 0.73788 0.08098 0.0
C795 C 0.81789 0.72174 0.07494 0.0
C796 C 0.80951 0.7248 0.05667 0.0
C797 C 0.81343 0.74446 0.04463 0.0
C798 C 0.82545 0.76077 0.0508 0.0
H799 H 0.83302 0.80048 0.11844 0.0
H800 H 0.82143 0.7834 0.10021 0.0
H801 H 0.83461 0.76846 0.11801 0.0
H802 H 0.83664 0.73464 0.09482 0.0
H803 H 0.81527 0.70665 0.08446 0.0
H804 H 0.49646 0.66791 0.18042 0.0
H805 H 0.49995 0.6361 0.15536 0.0
H806 H 0.46638 0.67265 0.11567 0.0
H807 H 0.46298 0.7047 0.14047 0.0
H808 H 0.47703 0.60571 0.13734 0.0
H809 H 0.50718 0.66305 0.08123 0.0
H810 H 0.50452 0.67231 0.10695 0.0
H811 H 0.48768 0.67423 0.08948 0.0
C812 C 0.4898 0.66918 0.16636 0.0
C813 C 0.47953 0.68893 0.16237 0.0
C814 C 0.4918 0.65098 0.15208 0.0
C815 C 0.48364 0.65224 0.13354 0.0
C816 C 0.47306 0.6716 0.12972 0.0
H817 H 0.4707 0.53767 0.04609 0.0
H818 H 0.467 0.56822 0.07211 0.0
C819 C 0.47107 0.68983 0.14396 0.0
C820 C 0.48622 0.63331 0.1182 0.0
H821 H 0.49979 0.62387 0.07059 0.0
C822 C 0.48205 0.60963 0.12275 0.0
C823 C 0.49298 0.63846 0.0993 0.0
C824 C 0.49851 0.66334 0.09396 0.0
C825 C 0.48419 0.59099 0.10876 0.0
C826 C 0.49045 0.59629 0.08963 0.0
C827 C 0.49486 0.6199 0.08521 0.0
C828 C 0.49267 0.57757 0.07401 0.0
C829 C 0.48001 0.56575 0.11471 0.0
C830 C 0.50827 0.5731 0.06609 0.0
C831 C 0.51042 0.5558 0.0511 0.0
C832 C 0.49697 0.5427 0.04367 0.0
C833 C 0.48133 0.54734 0.05155 0.0
C834 C 0.4792 0.56469 0.06652 0.0
H835 H 0.47961 0.56381 0.13124 0.0
H836 H 0.46775 0.56111 0.10857 0.0
H837 H 0.48905 0.55271 0.10864 0.0
H838 H 0.51882 0.58295 0.0716 0.0
H839 H 0.52262 0.55269 0.04534 0.0
H840 H 0.15008 0.42924 0.98078 0.0
H841 H 0.13653 0.43524 0.94835 0.0
H842 H 0.15561 0.36742 0.92741 0.0
H843 H 0.16899 0.36109 0.95979 0.0
H844 H 0.15125 0.43785 0.91125 0.0
H845 H 0.10714 0.36268 0.91258 0.0
H846 H 0.1178 0.37316 0.93475 0.0
H847 H 0.12798 0.35366 0.9172 0.0
C848 C 0.15128 0.4155 0.96933 0.0
C849 C 0.16058 0.39464 0.9729 0.0
C850 C 0.14353 0.41897 0.95081 0.0
C851 C 0.14484 0.40161 0.93559 0.0
C852 C 0.15412 0.3808 0.9391 0.0
H853 H 0.11859 0.39139 0.81028 0.0
H854 H 0.12839 0.38483 0.84454 0.0
C855 C 0.16185 0.37729 0.9576 0.0
C856 C 0.13724 0.40579 0.91567 0.0
H857 H 0.11059 0.38205 0.88123 0.0
C858 C 0.14224 0.42579 0.90475 0.0
C859 C 0.12553 0.38997 0.90723 0.0
C860 C 0.11916 0.36878 0.9186 0.0
C861 C 0.13617 0.43006 0.88538 0.0
C862 C 0.1246 0.41411 0.87686 0.0
C863 C 0.11948 0.39422 0.88782 0.0
C864 C 0.1179 0.4176 0.85641 0.0
C865 C 0.14254 0.45124 0.87397 0.0
C866 C 0.10844 0.43794 0.85186 0.0
C867 C 0.10283 0.44176 0.83232 0.0
C868 C 0.10652 0.42525 0.81696 0.0
C869 C 0.11558 0.40452 0.82172 0.0
C870 C 0.12118 0.40071 0.84128 0.0
H871 H 0.154 0.45844 0.88075 0.0
H872 H 0.14493 0.44627 0.85814 0.0
H873 H 0.13318 0.46575 0.8741 0.0
H874 H 0.10553 0.45097 0.86341 0.0
H875 H 0.09579 0.45784 0.82921 0.0
H876 H 0.43824 0.33455 0.70542 0.0
H877 H 0.44188 0.36555 0.73121 0.0
H878 H 0.41148 0.32565 0.77133 0.0
H879 H 0.40779 0.29453 0.74572 0.0
H880 H 0.41728 0.39336 0.75304 0.0
H881 H 0.45603 0.33535 0.8017 0.0
H882 H 0.45221 0.32859 0.77559 0.0
H883 H 0.43676 0.32274 0.79386 0.0
C884 C 0.43224 0.33243 0.71969 0.0
C885 C 0.42281 0.312 0.72358 0.0
C886 C 0.43432 0.35016 0.73437 0.0
C887 C 0.42712 0.34766 0.7532 0.0
C888 C 0.41731 0.32768 0.75695 0.0
H889 H 0.41682 0.45033 0.85031 0.0
H890 H 0.41224 0.4221 0.82264 0.0
C891 C 0.41517 0.30999 0.74227 0.0
C892 C 0.43016 0.36569 0.7691 0.0
H893 H 0.4483 0.37318 0.81494 0.0
C894 C 0.42407 0.38902 0.76658 0.0
C895 C 0.43921 0.35994 0.78658 0.0
C896 C 0.44658 0.33537 0.78962 0.0
C897 C 0.42654 0.40673 0.78132 0.0
C898 C 0.43521 0.4008 0.79903 0.0
C899 C 0.44155 0.37758 0.80138 0.0
C900 C 0.43792 0.41844 0.81534 0.0
C901 C 0.42003 0.4317 0.77778 0.0
C902 C 0.45389 0.42543 0.82054 0.0
C903 C 0.45656 0.44151 0.83635 0.0
C904 C 0.44329 0.45071 0.84735 0.0
C905 C 0.4273 0.44362 0.84211 0.0
C906 C 0.42464 0.4276 0.82624 0.0
H907 H 0.41698 0.4347 0.76175 0.0
H908 H 0.4087 0.43444 0.78659 0.0
H909 H 0.42909 0.44533 0.78274 0.0
H910 H 0.46429 0.41841 0.81235 0.0
H911 H 0.46903 0.44657 0.84003 0.0
H912 H 0.95529 0.22601 0.8094 0.0
H913 H 0.93563 0.23912 0.83459 0.0
H914 H 0.89704 0.23859 0.79006 0.0
H915 H 0.91664 0.22523 0.76469 0.0
H916 H 0.91779 0.28221 0.83206 0.0
H917 H 0.87642 0.20385 0.83778 0.0
H918 H 0.89655 0.20173 0.82685 0.0
H919 H 0.8798 0.21446 0.81284 0.0
C920 C 0.94258 0.22831 0.80498 0.0
C921 C 0.93755 0.22464 0.785 0.0
C922 C 0.93136 0.23583 0.81941 0.0
C923 C 0.91487 0.2397 0.81422 0.0
C924 C 0.90967 0.23535 0.79445 0.0
H925 H 0.83279 0.29893 0.88145 0.0
H926 H 0.8505 0.28214 0.8554 0.0
C927 C 0.9209 0.2278 0.77996 0.0
C928 C 0.90351 0.25003 0.82921 0.0
H929 H 0.8686 0.23911 0.85533 0.0
C930 C 0.90706 0.27277 0.8372 0.0
C931 C 0.88946 0.23774 0.83573 0.0
C932 C 0.88533 0.21301 0.82801 0.0
C933 C 0.8969 0.28362 0.85151 0.0
C934 C 0.88298 0.27119 0.85829 0.0
C935 C 0.8793 0.24856 0.85012 0.0
C936 C 0.87227 0.28125 0.87411 0.0
C937 C 0.90102 0.30847 0.859 0.0
C938 C 0.87861 0.28607 0.8933 0.0
C939 C 0.86857 0.29573 0.90818 0.0
C940 C 0.85193 0.3006 0.90419 0.0
C941 C 0.84557 0.29549 0.88499 0.0
C942 C 0.85564 0.28584 0.8701 0.0
H943 H 0.90921 0.31795 0.84853 0.0
H944 H 0.88975 0.31941 0.86115 0.0
H945 H 0.90748 0.30712 0.87364 0.0
H946 H 0.89134 0.28222 0.89682 0.0
H947 H 0.87383 0.29927 0.92284 0.0
H948 H 0.48153 0.80104 0.86466 0.0
H949 H 0.49971 0.8313 0.8508 0.0
H950 H 0.4885 0.80599 0.79111 0.0
H951 H 0.47017 0.77588 0.80477 0.0
H952 H 0.52746 0.82443 0.82644 0.0
H953 H 0.47938 0.87831 0.78807 0.0
H954 H 0.47469 0.85647 0.80692 0.0
H955 H 0.4791 0.84698 0.78176 0.0
C956 C 0.48288 0.80196 0.84857 0.0
C957 C 0.47434 0.78614 0.8358 0.0
C958 C 0.49329 0.81923 0.8407 0.0
C959 C 0.49525 0.82108 0.81994 0.0
C960 C 0.48689 0.80515 0.80716 0.0
H961 H 0.55108 0.90943 0.74049 0.0
H962 H 0.53396 0.87908 0.75594 0.0
C963 C 0.47649 0.78788 0.81501 0.0
C964 C 0.50626 0.83939 0.81163 0.0
H965 H 0.50701 0.88772 0.78072 0.0
C966 C 0.52301 0.83838 0.81654 0.0
C967 C 0.50036 0.85753 0.79875 0.0
C968 C 0.48238 0.86011 0.79368 0.0
C969 C 0.53412 0.85471 0.80847 0.0
C970 C 0.52824 0.8727 0.79542 0.0
C971 C 0.51147 0.87383 0.79067 0.0
C972 C 0.53928 0.89044 0.78633 0.0
C973 C 0.55211 0.8522 0.81355 0.0
C974 C 0.54793 0.90689 0.79833 0.0
C975 C 0.55777 0.92425 0.78955 0.0
C976 C 0.55902 0.92553 0.76861 0.0
C977 C 0.55041 0.90891 0.75666 0.0
C978 C 0.5406 0.89157 0.76545 0.0
H979 H 0.55507 0.83425 0.81971 0.0
H980 H 0.55975 0.85518 0.80014 0.0
H981 H 0.55548 0.86585 0.82501 0.0
H982 H 0.54682 0.90659 0.81447 0.0
H983 H 0.56417 0.93688 0.79916 0.0
H984 H 0.08441 0.99853 0.40606 0.0
H985 H 0.11393 0.00478 0.40243 0.0
H986 H 0.11688 0.94318 0.36332 0.0
H987 H 0.08735 0.93689 0.36669 0.0
H988 H 0.14003 0.97384 0.41174 0.0
H989 H 0.13832 0.99643 0.33105 0.0
H990 H 0.12016 0.99603 0.34626 0.0
H991 H 0.12869 0.96849 0.33671 0.0
C992 C 0.09138 0.98624 0.39678 0.0
C993 C 0.08365 0.96713 0.38676 0.0
C994 C 0.10819 0.98988 0.39472 0.0
C995 C 0.11751 0.9746 0.38252 0.0
C996 C 0.10984 0.95541 0.37256 0.0
H997 H 0.2179 0.96365 0.34544 0.0
H998 H 0.18893 0.95778 0.35259 0.0
C999 C 0.093 0.95181 0.37454 0.0
C1000 C 0.13528 0.97866 0.38027 0.0
H1001 H 0.16458 0.98976 0.34556 0.0
C1002 C 0.14544 0.97739 0.3973 0.0
C1003 C 0.14222 0.98355 0.36145 0.0
C1004 C 0.13178 0.98646 0.34284 0.0
C1005 C 0.1625 0.97994 0.39586 0.0
C1006 C 0.16948 0.98434 0.37694 0.0
C1007 C 0.15923 0.98613 0.36001 0.0
C1008 C 0.18738 0.9869 0.3741 0.0
C1009 C 0.17287 0.97719 0.4145 0.0
C1010 C 0.19617 0.00513 0.38392 0.0
C1011 C 0.21281 0.00844 0.37995 0.0
C1012 C 0.22086 0.99377 0.36588 0.0
C1013 C 0.21206 0.97532 0.3563 0.0
C1014 C 0.1955 0.97193 0.36037 0.0
H1015 H 0.16629 0.96717 0.42624 0.0
H1016 H 0.18456 0.96773 0.41123 0.0
H1017 H 0.17581 0.99521 0.42063 0.0
H1018 H 0.19008 0.01721 0.39425 0.0
H1019 H 0.21922 0.02287 0.38753 0.0
H1020 H 0.84494 0.26873 0.33069 0.0
H1021 H 0.8163 0.26534 0.34075 0.0
H1022 H 0.83161 0.25727 0.40227 0.0
H1023 H 0.86025 0.26055 0.3924 0.0
H1024 H 0.81188 0.21977 0.3868 0.0
H1025 H 0.7841 0.30911 0.37226 0.0
H1026 H 0.79606 0.29686 0.35212 0.0
H1027 H 0.80593 0.30463 0.37539 0.0
C1028 C 0.84221 0.26674 0.34641 0.0
C1029 C 0.85489 0.26471 0.36073 0.0
C1030 C 0.82583 0.26494 0.35214 0.0
C1031 C 0.82187 0.2612 0.37226 0.0
C1032 C 0.83444 0.26026 0.38668 0.0
H1033 H 0.72698 0.23826 0.42755 0.0
H1034 H 0.75416 0.25356 0.41925 0.0
C1035 C 0.8508 0.26213 0.38099 0.0
C1036 C 0.80487 0.2554 0.3779 0.0
H1037 H 0.76563 0.27708 0.3785 0.0
C1038 C 0.80179 0.23236 0.38514 0.0
C1039 C 0.79178 0.27191 0.37572 0.0
C1040 C 0.79458 0.2971 0.36861 0.0
C1041 C 0.78588 0.22517 0.38985 0.0
C1042 C 0.77274 0.24142 0.38717 0.0
C1043 C 0.7758 0.26466 0.38037 0.0
C1044 C 0.75573 0.23418 0.39119 0.0
C1045 C 0.78315 0.20019 0.39756 0.0
C1046 C 0.74761 0.2186 0.37793 0.0
C1047 C 0.73212 0.20986 0.38257 0.0
C1048 C 0.72453 0.2165 0.40061 0.0
C1049 C 0.73252 0.23274 0.41357 0.0
C1050 C 0.74801 0.24156 0.40885 0.0
H1051 H 0.79485 0.19106 0.4016 0.0
H1052 H 0.77515 0.20073 0.41091 0.0
H1053 H 0.77686 0.18936 0.38583 0.0
H1054 H 0.75345 0.21277 0.36421 0.0
H1055 H 0.72628 0.19744 0.37224 0.0
H1056 H 0.74282 0.81592 0.56635 0.0
H1057 H 0.76826 0.8013 0.58167 0.0
H1058 H 0.7536 0.83102 0.63857 0.0
H1059 H 0.72804 0.84561 0.62342 0.0
H1060 H 0.79194 0.83048 0.60042 0.0
H1061 H 0.76818 0.76188 0.6523 0.0
H1062 H 0.75625 0.77339 0.63155 0.0
H1063 H 0.75849 0.79082 0.65412 0.0
C1064 C 0.74492 0.81917 0.58217 0.0
C1065 C 0.73341 0.83195 0.59367 0.0
C1066 C 0.75945 0.81078 0.59089 0.0
C1067 C 0.7627 0.81482 0.61129 0.0
C1068 C 0.75118 0.82732 0.62288 0.0
H1069 H 0.85843 0.81425 0.66791 0.0
H1070 H 0.83016 0.82319 0.65804 0.0
C1071 C 0.73664 0.83579 0.61416 0.0
C1072 C 0.77864 0.80738 0.62006 0.0
H1073 H 0.79642 0.77168 0.65554 0.0
C1074 C 0.79293 0.81759 0.61244 0.0
C1075 C 0.77986 0.79043 0.63563 0.0
C1076 C 0.76491 0.77829 0.64382 0.0
C1077 C 0.80842 0.81155 0.62015 0.0
C1078 C 0.80963 0.79506 0.63605 0.0
C1079 C 0.79538 0.78452 0.6435 0.0
C1080 C 0.82573 0.78836 0.64472 0.0
C1081 C 0.82342 0.82264 0.61106 0.0
C1082 C 0.8323 0.76544 0.64128 0.0
C1083 C 0.84847 0.76022 0.64692 0.0
C1084 C 0.85829 0.77788 0.65612 0.0
C1085 C 0.85127 0.80031 0.6607 0.0
C1086 C 0.83512 0.80549 0.65505 0.0
H1087 H 0.82065 0.83105 0.5964 0.0
H1088 H 0.82823 0.83672 0.62133 0.0
H1089 H 0.83323 0.80899 0.60895 0.0
H1090 H 0.82517 0.75197 0.63339 0.0
H1091 H 0.85349 0.74274 0.64326 0.0
H1092 H 0.19221 0.03526 0.5093 0.0
H1093 H 0.16625 0.03266 0.491 0.0
H1094 H 0.1853 0.97384 0.45584 0.0
H1095 H 0.21136 0.97629 0.47406 0.0
H1096 H 0.1569 0.03371 0.44937 0.0
H1097 H 0.14573 0.9453 0.48482 0.0
H1098 H 0.16193 0.96485 0.49331 0.0
H1099 H 0.16404 0.94829 0.47032 0.0
C1100 C 0.19099 0.02199 0.49747 0.0
C1101 C 0.20375 0.00571 0.49337 0.0
C1102 C 0.17616 0.02061 0.48696 0.0
C1103 C 0.17378 0.00289 0.47222 0.0
C1104 C 0.18682 0.98751 0.46726 0.0
H1105 H 0.0741 0.9591 0.44102 0.0
H1106 H 0.10383 0.9621 0.43832 0.0
C1107 C 0.2017 0.98894 0.47772 0.0
C1108 C 0.15715 0.99932 0.46369 0.0
H1109 H 0.12402 0.9628 0.46737 0.0
C1110 C 0.14974 0.01805 0.45299 0.0
C1111 C 0.14791 0.97875 0.46825 0.0
C1112 C 0.1552 0.95815 0.47989 0.0
C1113 C 0.13307 0.01732 0.44759 0.0
C1114 C 0.12351 0.99748 0.45342 0.0
C1115 C 0.13126 0.97806 0.46293 0.0
C1116 C 0.10531 0.99735 0.45197 0.0
C1117 C 0.12596 0.03818 0.43616 0.0
C1118 C 0.09613 0.01626 0.4603 0.0
C1119 C 0.07909 0.01471 0.46165 0.0
C1120 C 0.07087 0.99399 0.45505 0.0
C1121 C 0.08001 0.97534 0.44621 0.0
C1122 C 0.09705 0.977 0.44472 0.0
H1123 H 0.13483 0.04451 0.42487 0.0
H1124 H 0.11429 0.0337 0.42842 0.0
H1125 H 0.1237 0.05327 0.44672 0.0
H1126 H 0.10217 0.03182 0.46663 0.0
H1127 H 0.07245 0.02934 0.46866 0.0
H1128 H 0.62457 0.01423 0.67544 0.0
H1129 H 0.63364 0.02992 0.64337 0.0
H1130 H 0.60077 0.98199 0.61221 0.0
H1131 H 0.59155 0.96615 0.64419 0.0
H1132 H 0.64567 0.00691 0.60497 0.0
H1133 H 0.58497 0.0529 0.60009 0.0
H1134 H 0.59293 0.04097 0.62327 0.0
H1135 H 0.58495 0.02112 0.60435 0.0
C1136 C 0.61952 0.00661 0.66178 0.0
C1137 C 0.60714 0.98922 0.66239 0.0
C1138 C 0.62475 0.01558 0.64347 0.0
C1139 C 0.61766 0.00735 0.62553 0.0
C1140 C 0.60623 0.98871 0.62597 0.0
H1141 H 0.61865 0.07582 0.50854 0.0
H1142 H 0.61323 0.04848 0.53612 0.0
C1143 C 0.60102 0.97966 0.64426 0.0
C1144 C 0.62089 0.0201 0.60671 0.0
H1145 H 0.60361 0.06011 0.57434 0.0
C1146 C 0.63648 0.01843 0.59814 0.0
C1147 C 0.60882 0.03504 0.59792 0.0
C1148 C 0.59198 0.03785 0.60686 0.0
C1149 C 0.64035 0.03149 0.58096 0.0
C1150 C 0.62842 0.04702 0.57253 0.0
C1151 C 0.61272 0.04822 0.58087 0.0
C1152 C 0.6321 0.063 0.5556 0.0
C1153 C 0.65709 0.02839 0.57186 0.0
C1154 C 0.64426 0.08054 0.5576 0.0
C1155 C 0.64735 0.09622 0.54193 0.0
C1156 C 0.63824 0.09476 0.52399 0.0
C1157 C 0.62584 0.07745 0.52217 0.0
C1158 C 0.6228 0.06173 0.53786 0.0
H1159 H 0.66308 0.01146 0.57673 0.0
H1160 H 0.65628 0.02837 0.55527 0.0
H1161 H 0.66503 0.04349 0.57666 0.0
H1162 H 0.65126 0.08227 0.57138 0.0
H1163 H 0.65694 0.10938 0.54384 0.0
H1164 H 0.97735 0.74044 0.70008 0.0
H1165 H 0.99847 0.70928 0.70179 0.0
H1166 H 0.96331 0.65676 0.68148 0.0
H1167 H 0.94235 0.68811 0.67879 0.0
H1168 H 0.00165 0.67083 0.72297 0.0
H1169 H -0.00072 0.64317 0.64327 0.0
H1170 H 0.98866 0.66939 0.65246 0.0
H1171 H 0.97978 0.64011 0.65509 0.0
C1172 C 0.97414 0.72225 0.69593 0.0
C1173 C 0.95824 0.71673 0.68914 0.0
C1174 C 0.98622 0.70445 0.69691 0.0
C1175 C 0.98261 0.68072 0.69135 0.0
C1176 C 0.96657 0.67505 0.68521 0.0
H1177 H 0.04507 0.5601 0.7253 0.0
H1178 H 0.02357 0.59068 0.72323 0.0
C1179 C 0.95456 0.69294 0.68384 0.0
C1180 C 0.99559 0.66196 0.69236 0.0
H1181 H 0.01442 0.61777 0.66524 0.0
C1182 C 0.0045 0.65932 0.7103 0.0
C1183 C -0.00046 0.64718 0.67573 0.0
C1184 C 0.99143 0.65026 0.6555 0.0
C1185 C 0.01712 0.64226 0.71214 0.0
C1186 C 0.02051 0.62669 0.69583 0.0
C1187 C 0.0117 0.62947 0.67783 0.0
C1188 C 0.03335 0.60772 0.69693 0.0
C1189 C 0.02695 0.64164 0.73139 0.0
C1190 C 0.04562 0.60639 0.68234 0.0
C1191 C 0.05767 0.58852 0.68319 0.0
C1192 C 0.05778 0.57178 0.69877 0.0
C1193 C 0.04543 0.57298 0.71327 0.0
C1194 C 0.0332 0.59057 0.71219 0.0
H1195 H 0.02645 0.65914 0.73941 0.0
H1196 H 0.02175 0.62795 0.74141 0.0
H1197 H 0.03999 0.63705 0.72859 0.0
H1198 H 0.04596 0.61933 0.67036 0.0
H1199 H 0.06703 0.58804 0.6718 0.0
H1200 H 0.37909 0.2144 0.6206 0.0
H1201 H 0.35616 0.18789 0.61229 0.0
H1202 H 0.3596 0.15665 0.67101 0.0
H1203 H 0.38216 0.18328 0.67956 0.0
H1204 H 0.35928 0.14021 0.61037 0.0
H1205 H 0.31064 0.16252 0.66443 0.0
H1206 H 0.32763 0.18228 0.65984 0.0
H1207 H 0.32989 0.15768 0.67695 0.0
C1208 C 0.37468 0.2023 0.63191 0.0
C1209 C 0.38252 0.20083 0.65069 0.0
C1210 C 0.36159 0.18717 0.62713 0.0
C1211 C 0.35604 0.17045 0.6411 0.0
C1212 C 0.36337 0.16976 0.66015 0.0
H1213 H 0.32362 0.0277 0.62458 0.0
H1214 H 0.33764 0.06564 0.63057 0.0
C1215 C 0.37641 0.18489 0.66495 0.0
C1216 C 0.34422 0.15162 0.63505 0.0
H1217 H 0.31005 0.12222 0.65047 0.0
C1218 C 0.34834 0.13657 0.61891 0.0
C1219 C 0.32984 0.14699 0.64603 0.0
C1220 C 0.32415 0.16341 0.66264 0.0
C1221 C 0.33903 0.11626 0.61419 0.0
C1222 C 0.32542 0.11059 0.62617 0.0
C1223 C 0.32068 0.12638 0.64154 0.0
C1224 C 0.31652 0.08774 0.62353 0.0
C1225 C 0.34401 0.10081 0.5966 0.0
C1226 C 0.29983 0.08762 0.61834 0.0
C1227 C 0.29172 0.06591 0.61502 0.0
C1228 C 0.30019 0.044 0.61696 0.0
C1229 C 0.31678 0.04425 0.62282 0.0
C1230 C 0.32484 0.06591 0.62614 0.0
H1231 H 0.35131 0.11107 0.58567 0.0
H1232 H 0.35173 0.08573 0.60202 0.0
H1233 H 0.33313 0.09325 0.58876 0.0
H1234 H 0.29318 0.10431 0.61642 0.0
H1235 H 0.27893 0.06632 0.61058 0.0
H1236 H 0.97857 0.09772 0.47625 0.0
H1237 H 0.97264 0.11757 0.50818 0.0
H1238 H 0.0092 0.07375 0.53745 0.0
H1239 H 0.01538 0.05402 0.50557 0.0
H1240 H 0.96192 0.09763 0.54393 0.0
H1241 H 0.0223 0.14161 0.55433 0.0
H1242 H 0.01578 0.12882 0.53069 0.0
H1243 H 0.02344 0.1098 0.55028 0.0
C1244 C 0.9854 0.09236 0.48945 0.0
C1245 C 0.99753 0.0744 0.48832 0.0
C1246 C 0.98198 0.1037 0.50769 0.0
C1247 C 0.99064 0.09739 0.52512 0.0
C1248 C 0.0026 0.07926 0.5241 0.0
H1249 H 0.98745 0.14639 0.64889 0.0
H1250 H 0.99276 0.12457 0.61767 0.0
C1251 C 0.00606 0.06792 0.50587 0.0
C1252 C 0.98697 0.10953 0.54441 0.0
H1253 H 0.00394 0.14397 0.58157 0.0
C1254 C 0.97108 0.10783 0.55214 0.0
C1255 C 0.99896 0.1228 0.5551 0.0
C1256 C 0.01604 0.1261 0.54713 0.0
C1257 C 0.96691 0.11878 0.57042 0.0
C1258 C 0.97889 0.13207 0.58107 0.0
C1259 C 0.9948 0.1337 0.57339 0.0
C1260 C 0.97516 0.14474 0.6001 0.0
C1261 C 0.94981 0.11566 0.57835 0.0
C1262 C 0.96356 0.16339 0.60055 0.0
C1263 C 0.9605 0.1759 0.61836 0.0
C1264 C 0.96904 0.17006 0.63605 0.0
C1265 C 0.98062 0.1513 0.63556 0.0
C1266 C 0.98369 0.13883 0.61773 0.0
H1267 H 0.94352 0.10015 0.57121 0.0
H1268 H 0.95003 0.1131 0.59481 0.0
H1269 H 0.94247 0.132 0.57509 0.0
H1270 H 0.95706 0.16854 0.58703 0.0
H1271 H 0.95156 0.19032 0.61819 0.0
H1272 H 0.64034 0.91556 0.43851 0.0
H1273 H 0.63224 0.9251 0.4041 0.0
H1274 H 0.68072 0.90648 0.38384 0.0
H1275 H 0.68892 0.89675 0.4181 0.0
H1276 H 0.64667 0.95933 0.3786 0.0
H1277 H 0.65032 0.86743 0.34649 0.0
H1278 H 0.64957 0.87318 0.37311 0.0
H1279 H 0.66843 0.87683 0.35982 0.0
C1280 C 0.64926 0.91337 0.42672 0.0
C1281 C 0.66526 0.90529 0.43104 0.0
C1282 C 0.64461 0.91885 0.40709 0.0
C1283 C 0.65581 0.91616 0.39142 0.0
C1284 C 0.6718 0.90823 0.39568 0.0
H1285 H 0.65726 0.94395 0.26468 0.0
H1286 H 0.66304 0.93255 0.29929 0.0
C1287 C 0.67648 0.90281 0.41529 0.0
C1288 C 0.65097 0.92239 0.37068 0.0
H1289 H 0.64716 0.89932 0.3234 0.0
C1290 C 0.64664 0.9462 0.36653 0.0
C1291 C 0.65099 0.9052 0.35502 0.0
C1292 C 0.65493 0.87917 0.35879 0.0
C1293 C 0.64275 0.95346 0.34698 0.0
C1294 C 0.64291 0.9363 0.33127 0.0
C1295 C 0.64707 0.91242 0.33548 0.0
C1296 C 0.63914 0.94287 0.31028 0.0
C1297 C 0.63901 0.97955 0.34321 0.0
C1298 C 0.62369 0.95209 0.30494 0.0
C1299 C 0.62035 0.95868 0.28518 0.0
C1300 C 0.63238 0.95602 0.27036 0.0
C1301 C 0.64774 0.94631 0.27571 0.0
C1302 C 0.65106 0.93976 0.29548 0.0
H1303 H 0.6433 0.99118 0.35575 0.0
H1304 H 0.64482 0.98562 0.32918 0.0
H1305 H 0.62556 0.98201 0.34161 0.0
H1306 H 0.6142 0.95417 0.31607 0.0
H1307 H 0.60836 0.96595 0.28153 0.0
H1308 H 0.97586 0.98842 0.38644 0.0
H1309 H 0.96745 0.97481 0.35302 0.0
H1310 H 0.99336 0.90812 0.36211 0.0
H1311 H 0.00239 0.92205 0.39515 0.0
H1312 H -0.00093 0.92462 0.32609 0.0
H1313 H 0.9321 0.92805 0.33904 0.0
H1314 H 0.94185 0.95639 0.34319 0.0
H1315 H 0.94688 0.93145 0.35907 0.0
C1316 C 0.97968 0.9708 0.38134 0.0
C1317 C 0.98967 0.95621 0.39347 0.0
C1318 C 0.97478 0.96298 0.36228 0.0
C1319 C 0.97945 0.94021 0.3552 0.0
C1320 C 0.98952 0.92571 0.36728 0.0
H1321 H 0.9354 0.86085 0.25713 0.0
H1322 H 0.94384 0.87771 0.28945 0.0
C1323 C 0.99464 0.93367 0.38618 0.0
C1324 C 0.97419 0.93154 0.33507 0.0
H1325 H 0.94056 0.92078 0.30563 0.0
C1326 C 0.98627 0.92372 0.32163 0.0
C1327 C 0.95748 0.9301 0.32934 0.0
C1328 C 0.94382 0.93671 0.34348 0.0
C1329 C 0.98212 0.91444 0.30268 0.0
C1330 C 0.96544 0.91372 0.2967 0.0
C1331 C 0.95336 0.92158 0.31013 0.0
C1332 C 0.96017 0.90397 0.27692 0.0
C1333 C 0.99565 0.9048 0.28957 0.0
C1334 C 0.96633 0.91335 0.25907 0.0
C1335 C 0.96171 0.90348 0.24057 0.0
C1336 C 0.95056 0.88439 0.23956 0.0
C1337 C 0.94402 0.87554 0.2574 0.0
C1338 C 0.94882 0.88518 0.27589 0.0
H1339 H 0.0068 0.90024 0.29846 0.0
H1340 H 0.99167 0.88855 0.28121 0.0
H1341 H -0.00091 0.91867 0.2786 0.0
H1342 H 0.97472 0.9283 0.25943 0.0
H1343 H 0.96682 0.91086 0.22707 0.0
H1344 H 0.41036 0.80646 0.19247 0.0
H1345 H 0.39014 0.83507 0.20541 0.0
H1346 H 0.41593 0.83753 0.26198 0.0
H1347 H 0.43609 0.80878 0.24932 0.0
H1348 H 0.38078 0.83834 0.26502 0.0
H1349 H 0.40489 0.9057 0.21203 0.0
H1350 H 0.39786 0.8781 0.20099 0.0
H1351 H 0.41551 0.87798 0.21725 0.0
C1352 C 0.41157 0.81273 0.20779 0.0
C1353 C 0.42498 0.80562 0.21977 0.0
C1354 C 0.40004 0.82914 0.21512 0.0
C1355 C 0.40176 0.83872 0.23449 0.0
C1356 C 0.41446 0.83042 0.24694 0.0
H1357 H 0.3733 0.97345 0.28552 0.0
H1358 H 0.38695 0.93766 0.27236 0.0
C1359 C 0.42599 0.81402 0.23965 0.0
C1360 C 0.39128 0.85887 0.24128 0.0
H1361 H 0.38358 0.9182 0.23321 0.0
C1362 C 0.38124 0.85576 0.258 0.0
C1363 C 0.39215 0.88163 0.23221 0.0
C1364 C 0.40326 0.88625 0.21472 0.0
C1365 C 0.37211 0.87494 0.26598 0.0
C1366 C 0.37299 0.89767 0.25687 0.0
C1367 C 0.38289 0.90068 0.24005 0.0
C1368 C 0.36448 0.91896 0.26517 0.0
C1369 C 0.36203 0.87098 0.28446 0.0
C1370 C 0.34731 0.92034 0.26534 0.0
C1371 C 0.33945 0.94082 0.27283 0.0
C1372 C 0.34865 0.96027 0.28023 0.0
C1373 C 0.36585 0.9588 0.27996 0.0
C1374 C 0.37368 0.93837 0.27244 0.0
H1375 H 0.36513 0.85376 0.29183 0.0
H1376 H 0.36387 0.88582 0.29542 0.0
H1377 H 0.34885 0.87066 0.28024 0.0
H1378 H 0.34 0.90569 0.25949 0.0
H1379 H 0.32618 0.94142 0.27279 0.0
H1380 H 0.91435 0.46521 0.18162 0.0
H1381 H 0.9131 0.43756 0.20972 0.0
H1382 H 0.96488 0.42329 0.20443 0.0
H1383 H 0.96623 0.45068 0.17609 0.0
H1384 H 0.94648 0.38214 0.20817 0.0
H1385 H 0.93 0.44874 0.26673 0.0
H1386 H 0.91649 0.44928 0.24538 0.0
H1387 H 0.93767 0.45726 0.24257 0.0
C1388 C 0.92549 0.45627 0.18647 0.0
C1389 C 0.9404 0.4602 0.17666 0.0
C1390 C 0.92477 0.44059 0.20262 0.0
C1391 C 0.93895 0.4287 0.20936 0.0
C1392 C 0.95382 0.43242 0.19952 0.0
H1393 H 0.94394 0.34966 0.32151 0.0
H1394 H 0.94921 0.37751 0.29422 0.0
C1395 C 0.95456 0.44808 0.18334 0.0
C1396 C 0.93812 0.4118 0.22629 0.0
H1397 H 0.92711 0.40757 0.27528 0.0
C1398 C 0.94237 0.38771 0.2229 0.0
C1399 C 0.93299 0.41919 0.24555 0.0
C1400 C 0.92918 0.44507 0.25038 0.0
C1401 C 0.94112 0.37065 0.2381 0.0
C1402 C 0.93521 0.37784 0.25708 0.0
C1403 C 0.93147 0.40206 0.26065 0.0
C1404 C 0.93247 0.36044 0.27331 0.0
C1405 C 0.94621 0.34512 0.23374 0.0
C1406 C 0.92123 0.34174 0.27063 0.0
C1407 C 0.91822 0.3258 0.28615 0.0
C1408 C 0.9263 0.32837 0.30471 0.0
C1409 C 0.93754 0.34716 0.30738 0.0
C1410 C 0.94056 0.36309 0.29182 0.0
H1411 H 0.95473 0.34401 0.22088 0.0
H1412 H 0.95226 0.33689 0.24698 0.0
H1413 H 0.93518 0.33445 0.22987 0.0
H1414 H 0.91459 0.33969 0.25662 0.0
H1415 H 0.90942 0.31161 0.28364 0.0
H1416 H 0.5856 0.39458 0.94381 0.0
H1417 H 0.61547 0.39567 0.94636 0.0
H1418 H 0.61215 0.43816 0.00035 0.0
H1419 H 0.58215 0.43726 0.99793 0.0
H1420 H 0.63687 0.45341 0.97112 0.0
H1421 H 0.64056 0.35697 0.99053 0.0
H1422 H 0.62863 0.3634 0.96846 0.0
H1423 H 0.62182 0.37418 0.99241 0.0
C1424 C 0.59118 0.40424 0.95621 0.0
C1425 C 0.5815 0.41559 0.97081 0.0
C1426 C 0.60825 0.40483 0.95763 0.0
C1427 C 0.61596 0.41671 0.97368 0.0
C1428 C 0.60639 0.42878 0.98792 0.0
H1429 H 0.7184 0.38761 0.00328 0.0
H1430 H 0.68902 0.39584 0.00602 0.0
C1431 C 0.58927 0.42816 0.98654 0.0
C1432 C 0.63399 0.41557 0.97592 0.0
H1433 H 0.66555 0.37602 0.98249 0.0
C1434 C 0.64316 0.43656 0.97377 0.0
C1435 C 0.64213 0.39364 0.97971 0.0
C1436 C 0.63281 0.37077 0.9831 0.0
C1437 C 0.66038 0.43599 0.97458 0.0
C1438 C 0.66854 0.41379 0.97738 0.0
C1439 C 0.65929 0.393 0.98024 0.0
C1440 C 0.68662 0.41134 0.97655 0.0
C1441 C 0.66963 0.45913 0.97247 0.0
C1442 C 0.69503 0.41744 0.95912 0.0
C1443 C 0.71181 0.41278 0.95751 0.0
C1444 C 0.72047 0.40172 0.97324 0.0
C1445 C 0.71209 0.3961 0.99087 0.0
C1446 C 0.6953 0.40081 0.99248 0.0
H1447 H 0.66203 0.47467 0.97723 0.0
H1448 H 0.68113 0.45903 0.98147 0.0
H1449 H 0.67281 0.46167 0.95652 0.0
H1450 H 0.68852 0.42508 0.94648 0.0
H1451 H 0.71788 0.41731 0.94371 0.0
H1452 H 0.37995 0.74669 0.88668 0.0
H1453 H 0.35663 0.75167 0.9091 0.0
H1454 H 0.32967 0.69872 0.87519 0.0
H1455 H 0.35294 0.69345 0.85273 0.0
H1456 H 0.32102 0.76111 0.90352 0.0
H1457 H 0.33672 0.67062 0.93275 0.0
H1458 H 0.35062 0.68748 0.91753 0.0
H1459 H 0.33338 0.67265 0.90618 0.0
C1460 C 0.36894 0.73645 0.88371 0.0
C1461 C 0.36841 0.71935 0.86813 0.0
C1462 C 0.35562 0.73938 0.89651 0.0
C1463 C 0.34159 0.72528 0.89394 0.0
C1464 C 0.34051 0.70955 0.87751 0.0
H1465 H 0.25421 0.7245 0.96875 0.0
H1466 H 0.27273 0.72808 0.94028 0.0
C1467 C 0.35381 0.7066 0.8647 0.0
C1468 C 0.32898 0.72507 0.90967 0.0
H1469 H 0.31426 0.6905 0.94727 0.0
C1470 C 0.31942 0.74566 0.91302 0.0
C1471 C 0.32715 0.70495 0.92217 0.0
C1472 C 0.33756 0.68269 0.91967 0.0
C1473 C 0.30799 0.74661 0.92864 0.0
C1474 C 0.30616 0.72645 0.94107 0.0
C1475 C 0.31569 0.70588 0.93763 0.0
C1476 C 0.29488 0.72643 0.95825 0.0
C1477 C 0.29827 0.7693 0.9321 0.0
C1478 C 0.30125 0.72426 0.97772 0.0
C1479 C 0.29075 0.72216 0.99398 0.0
C1480 C 0.27367 0.72198 0.99103 0.0
C1481 C 0.26731 0.7246 0.97152 0.0
C1482 C 0.27785 0.72679 0.95525 0.0
H1483 H 0.30315 0.78457 0.92347 0.0
H1484 H 0.28535 0.76635 0.92739 0.0
H1485 H 0.2983 0.77417 0.94825 0.0
H1486 H 0.31438 0.72384 0.98029 0.0
H1487 H 0.29605 0.72017 0.00879 0.0
H1488 H 0.40037 0.31265 0.12584 0.0
H1489 H 0.37066 0.30908 0.123 0.0
H1490 H 0.36535 0.33959 0.18211 0.0
H1491 H 0.39516 0.34373 0.18495 0.0
H1492 H 0.34652 0.28666 0.14534 0.0
H1493 H 0.33929 0.38587 0.14685 0.0
H1494 H 0.35897 0.37143 0.14408 0.0
H1495 H 0.3495 0.37317 0.16823 0.0
C1496 C 0.39293 0.31838 0.13836 0.0
C1497 C 0.40013 0.32882 0.1555 0.0
C1498 C 0.37593 0.31626 0.13672 0.0
C1499 C 0.3658 0.32451 0.15217 0.0
C1500 C 0.37296 0.33359 0.16983 0.0
H1501 H 0.25979 0.34855 0.14472 0.0
H1502 H 0.28743 0.34238 0.15834 0.0
C1503 C 0.38999 0.33582 0.17147 0.0
C1504 C 0.34779 0.32497 0.14906 0.0
H1505 H 0.31538 0.36317 0.14263 0.0
C1506 C 0.33966 0.30335 0.14493 0.0
C1507 C 0.33889 0.3468 0.14849 0.0
C1508 C 0.34707 0.37068 0.15198 0.0
C1509 C 0.32291 0.30303 0.13993 0.0
C1510 C 0.31415 0.32491 0.13879 0.0
C1511 C 0.32214 0.34642 0.14358 0.0
C1512 C 0.29702 0.32623 0.13131 0.0
C1513 C 0.31475 0.2793 0.13579 0.0
C1514 C 0.29326 0.31913 0.11161 0.0
C1515 C 0.27751 0.32269 0.10376 0.0
C1516 C 0.26524 0.33354 0.11544 0.0
C1517 C 0.26895 0.34012 0.13533 0.0
C1518 C 0.28473 0.3366 0.14316 0.0
H1519 H 0.32155 0.2643 0.14295 0.0
H1520 H 0.30193 0.27935 0.14121 0.0
H1521 H 0.31451 0.27591 0.1194 0.0
H1522 H 0.30266 0.31157 0.10206 0.0
H1523 H 0.27508 0.31747 0.08837 0.0
H1524 H 0.69808 0.59114 0.95653 0.0
H1525 H 0.67168 0.57211 0.95015 0.0
H1526 H 0.6888 0.508 0.97942 0.0
H1527 H 0.71529 0.52705 0.98616 0.0
H1528 H 0.66326 0.5293 0.92977 0.0
H1529 H 0.64726 0.52629 0.01059 0.0
H1530 H 0.66409 0.54389 0.00154 0.0
H1531 H 0.66613 0.51195 0.00347 0.0
C1532 C 0.69632 0.57293 0.96151 0.0
C1533 C 0.70875 0.56071 0.97205 0.0
C1534 C 0.68121 0.56207 0.95782 0.0
C1535 C 0.67821 0.53881 0.96459 0.0
C1536 C 0.69078 0.52614 0.9744 0.0
H1537 H 0.58101 0.47076 0.96199 0.0
H1538 H 0.61075 0.47562 0.96531 0.0
C1539 C 0.70593 0.53702 0.97814 0.0
C1540 C 0.66165 0.52845 0.96191 0.0
H1541 H 0.62724 0.51332 0.98753 0.0
C1542 C 0.65543 0.52556 0.94239 0.0
C1543 C 0.6515 0.5235 0.97842 0.0
C1544 C 0.65747 0.52667 0.99971 0.0
C1545 C 0.63915 0.51861 0.93895 0.0
C1546 C 0.62881 0.51475 0.95544 0.0
C1547 C 0.63523 0.51643 0.97494 0.0
C1548 C 0.61096 0.51122 0.95282 0.0
C1549 C 0.63303 0.51591 0.91769 0.0
C1550 C 0.60125 0.52976 0.94494 0.0
C1551 C 0.5843 0.52715 0.94317 0.0
C1552 C 0.57672 0.50591 0.94927 0.0
C1553 C 0.58649 0.48732 0.95714 0.0
C1554 C 0.60347 0.49003 0.95903 0.0
H1555 H 0.64328 0.51288 0.90711 0.0
H1556 H 0.62429 0.5008 0.91628 0.0
H1557 H 0.62653 0.53258 0.91321 0.0
H1558 H 0.60679 0.54643 0.94041 0.0
H1559 H 0.57714 0.54182 0.93708 0.0
loop_
_geom_bond_atom_site_label_1
_geom_bond_atom_site_label_2
_geom_bond_distance
_geom_bond_site_symmetry_2
_ccdc_geom_bond_type
O0 Cd1 2.300 . S
O0 C7 1.275 . S
Cd1 O0 2.300 . S
Cd1 O9 2.381 . S
Cd1 O10 2.378 . S
O2 Cd3 2.385 1_655 S
O2 C7 1.255 . S
Cd3 O2 2.385 1_455 S
Cd3 O4 2.317 . S
O4 Cd3 2.317 . S
O4 C5 1.232 . S
C5 O4 1.232 . S
C5 O6 1.218 . S
O6 C5 1.218 . S
C7 O0 1.275 . S
C7 O2 1.255 . S
C8 O9 1.258 . S
C8 O10 1.256 . S
O9 Cd1 2.381 . S
O9 C8 1.258 . S
O10 Cd1 2.378 . S
O10 C8 1.256 . S
O11 Cd12 2.300 1_565 S
O11 C18 1.275 . S
Cd12 O11 2.300 1_545 S
Cd12 O20 2.381 . S
Cd12 O21 2.378 . S
O13 Cd14 2.385 . S
O13 C18 1.255 . S
Cd14 O13 2.385 . S
Cd14 O15 2.317 . S
O15 Cd14 2.317 . S
O15 C16 1.232 . S
C16 O15 1.232 . S
C16 O17 1.218 . S
O17 C16 1.218 . S
C18 O11 1.275 . S
C18 O13 1.255 . S
C19 O20 1.258 . S
C19 O21 1.256 . S
O20 Cd12 2.381 . S
O20 C19 1.258 . S
O21 Cd12 2.378 . S
O21 C19 1.256 . S
O22 Cd23 2.300 . S
O22 C29 1.275 . S
Cd23 O22 2.300 . S
Cd23 O31 2.381 . S
Cd23 O32 2.378 . S
O24 Cd25 2.385 . S
O24 C29 1.255 . S
Cd25 O24 2.385 . S
Cd25 O26 2.317 . S
O26 Cd25 2.317 . S
O26 C27 1.232 . S
C27 O26 1.232 . S
C27 O28 1.218 . S
O28 C27 1.218 . S
C29 O22 1.275 . S
C29 O24 1.255 . S
C30 O31 1.258 . S
C30 O32 1.256 . S
O31 Cd23 2.381 . S
O31 C30 1.258 . S
O32 Cd23 2.378 . S
O32 C30 1.256 . S
O33 Cd34 2.300 . S
O33 C40 1.275 . S
Cd34 O33 2.300 . S
Cd34 O42 2.381 . S
Cd34 O43 2.378 . S
O35 Cd36 2.385 . S
O35 C40 1.255 . S
Cd36 O35 2.385 . S
Cd36 O37 2.317 . S
O37 Cd36 2.317 . S
O37 C38 1.232 . S
C38 O37 1.232 . S
C38 O39 1.218 . S
O39 C38 1.218 . S
C40 O33 1.275 . S
C40 O35 1.255 . S
C41 O42 1.258 . S
C41 O43 1.256 . S
O42 Cd34 2.381 . S
O42 C41 1.258 . S
O43 Cd34 2.378 . S
O43 C41 1.256 . S
O44 Cd45 2.300 . S
O44 C51 1.275 . S
Cd45 O44 2.300 . S
Cd45 O53 2.381 . S
Cd45 O54 2.378 . S
O46 Cd47 2.385 . S
O46 C51 1.255 . S
Cd47 O46 2.385 . S
Cd47 O48 2.317 . S
O48 Cd47 2.317 . S
O48 C49 1.232 . S
C49 O48 1.232 . S
C49 O50 1.218 . S
O50 C49 1.218 . S
C51 O44 1.275 . S
C51 O46 1.255 . S
C52 O53 1.258 . S
C52 O54 1.256 . S
O53 Cd45 2.381 . S
O53 C52 1.258 . S
O54 Cd45 2.378 . S
O54 C52 1.256 . S
O55 Cd56 2.300 . S
O55 C62 1.275 . S
Cd56 O55 2.300 . S
Cd56 O64 2.381 . S
Cd56 O65 2.378 . S
O57 Cd58 2.385 . S
O57 C62 1.255 . S
Cd58 O57 2.385 . S
Cd58 O59 2.317 . S
O59 Cd58 2.317 . S
O59 C60 1.232 . S
C60 O59 1.232 . S
C60 O61 1.218 . S
O61 C60 1.218 . S
C62 O55 1.275 . S
C62 O57 1.255 . S
C63 O64 1.258 . S
C63 O65 1.256 . S
O64 Cd56 2.381 . S
O64 C63 1.258 . S
O65 Cd56 2.378 . S
O65 C63 1.256 . S
O66 Cd67 2.300 . S
O66 C73 1.275 . S
Cd67 O66 2.300 . S
Cd67 O75 2.381 . S
Cd67 O76 2.378 . S
O68 Cd69 2.385 . S
O68 C73 1.255 . S
Cd69 O68 2.385 . S
Cd69 O70 2.317 . S
O70 Cd69 2.317 . S
O70 C71 1.232 . S
C71 O70 1.232 . S
C71 O72 1.218 . S
O72 C71 1.218 . S
C73 O66 1.275 . S
C73 O68 1.255 . S
C74 O75 1.258 . S
C74 O76 1.256 . S
O75 Cd67 2.381 . S
O75 C74 1.258 . S
O76 Cd67 2.378 . S
O76 C74 1.256 . S
O77 Cd78 2.300 1_545 S
O77 C84 1.275 . S
Cd78 O77 2.300 1_565 S
Cd78 O86 2.381 . S
Cd78 O87 2.378 . S
O79 Cd80 2.385 . S
O79 C84 1.255 . S
Cd80 O79 2.385 . S
Cd80 O81 2.317 . S
O81 Cd80 2.317 . S
O81 C82 1.232 . S
C82 O81 1.232 . S
C82 O83 1.218 . S
O83 C82 1.218 . S
C84 O77 1.275 . S
C84 O79 1.255 . S
C85 O86 1.258 . S
C85 O87 1.256 . S
O86 Cd78 2.381 . S
O86 C85 1.258 . S
O87 Cd78 2.378 . S
O87 C85 1.256 . S
O88 Cd89 2.300 1_545 S
O88 C95 1.275 . S
Cd89 O88 2.300 1_565 S
Cd89 O97 2.381 . S
Cd89 O98 2.378 . S
O90 Cd91 2.385 . S
O90 C95 1.255 1_565 S
Cd91 O90 2.385 . S
Cd91 O92 2.317 . S
O92 Cd91 2.317 . S
O92 C93 1.232 1_565 S
C93 O92 1.232 1_545 S
C93 O94 1.218 . S
O94 C93 1.218 . S
C95 O88 1.275 . S
C95 O90 1.255 1_545 S
C96 O97 1.258 . S
C96 O98 1.256 . S
O97 Cd89 2.381 . S
O97 C96 1.258 . S
O98 Cd89 2.378 . S
O98 C96 1.256 . S
O99 Cd100 2.300 . S
O99 C106 1.275 . S
Cd100 O99 2.300 . S
Cd100 O108 2.381 . S
Cd100 O109 2.378 . S
O101 Cd102 2.385 . S
O101 C106 1.255 . S
Cd102 O101 2.385 . S
Cd102 O103 2.317 . S
O103 Cd102 2.317 . S
O103 C104 1.232 . S
C104 O103 1.232 . S
C104 O105 1.218 . S
O105 C104 1.218 . S
C106 O99 1.275 . S
C106 O101 1.255 . S
C107 O108 1.258 . S
C107 O109 1.256 . S
O108 Cd100 2.381 . S
O108 C107 1.258 . S
O109 Cd100 2.378 . S
O109 C107 1.256 . S
O110 Cd111 2.300 . S
O110 C117 1.275 . S
Cd111 O110 2.300 . S
Cd111 O119 2.381 . S
Cd111 O120 2.378 . S
O112 Cd113 2.385 . S
O112 C117 1.255 . S
Cd113 O112 2.385 . S
Cd113 O114 2.317 . S
O114 Cd113 2.317 . S
O114 C115 1.232 . S
C115 O114 1.232 . S
C115 O116 1.218 . S
O116 C115 1.218 . S
C117 O110 1.275 . S
C117 O112 1.255 . S
C118 O119 1.258 . S
C118 O120 1.256 . S
O119 Cd111 2.381 . S
O119 C118 1.258 . S
O120 Cd111 2.378 . S
O120 C118 1.256 . S
O121 Cd122 2.300 . S
O121 C128 1.275 . S
Cd122 O121 2.300 . S
Cd122 O130 2.381 . S
Cd122 O131 2.378 . S
O123 Cd124 2.385 1_565 S
O123 C128 1.255 . S
Cd124 O123 2.385 1_545 S
Cd124 O125 2.317 1_545 S
O125 Cd124 2.317 1_565 S
O125 C126 1.232 . S
C126 O125 1.232 . S
C126 O127 1.209 1_565 S
O127 C126 1.209 1_545 S
C128 O121 1.275 . S
C128 O123 1.255 . S
C129 O130 1.258 . S
C129 O131 1.256 . S
O130 Cd122 2.381 . S
O130 C129 1.258 . S
O131 Cd122 2.378 . S
O131 C129 1.256 . S
O132 Cd133 2.300 1_565 S
O132 C139 1.275 . S
Cd133 O132 2.300 1_545 S
Cd133 O141 2.381 . S
Cd133 O142 2.378 . S
O134 Cd135 2.385 . S
O134 C139 1.255 1_545 S
Cd135 O134 2.385 . S
Cd135 O136 2.317 . S
O136 Cd135 2.317 . S
O136 C137 1.232 1_545 S
C137 O136 1.232 1_565 S
C137 O138 1.218 . S
O138 C137 1.218 . S
C139 O132 1.275 . S
C139 O134 1.255 1_565 S
C140 O141 1.258 . S
C140 O142 1.256 . S
O141 Cd133 2.381 . S
O141 C140 1.258 . S
O142 Cd133 2.378 . S
O142 C140 1.256 . S
O143 Cd144 2.300 . S
O143 C150 1.275 . S
Cd144 O143 2.300 . S
Cd144 O152 2.381 . S
Cd144 O153 2.378 . S
O145 Cd146 2.385 . S
O145 C150 1.255 . S
Cd146 O145 2.385 . S
Cd146 O147 2.317 . S
O147 Cd146 2.317 . S
O147 C148 1.232 . S
C148 O147 1.232 . S
C148 O149 1.218 . S
O149 C148 1.218 . S
C150 O143 1.275 . S
C150 O145 1.255 . S
C151 O152 1.258 . S
C151 O153 1.256 . S
O152 Cd144 2.381 . S
O152 C151 1.258 . S
O153 Cd144 2.378 . S
O153 C151 1.256 . S
O154 Cd155 2.300 . S
O154 C161 1.275 . S
Cd155 O154 2.300 . S
Cd155 O163 2.381 . S
Cd155 O164 2.378 . S
O156 Cd157 2.385 . S
O156 C161 1.255 . S
Cd157 O156 2.385 . S
Cd157 O158 2.317 . S
O158 Cd157 2.317 . S
O158 C159 1.232 . S
C159 O158 1.232 . S
C159 O160 1.218 . S
O160 C159 1.218 . S
C161 O154 1.275 . S
C161 O156 1.255 . S
C162 O163 1.258 . S
C162 O164 1.256 . S
O163 Cd155 2.381 . S
O163 C162 1.258 . S
O164 Cd155 2.378 . S
O164 C162 1.256 . S
O165 Cd166 2.300 . S
O165 C172 1.275 . S
Cd166 O165 2.300 . S
Cd166 O174 2.381 . S
Cd166 O175 2.378 . S
O167 Cd168 2.385 . S
O167 C172 1.255 . S
Cd168 O167 2.385 . S
Cd168 O169 2.317 . S
O169 Cd168 2.317 . S
O169 C170 1.232 . S
C170 O169 1.232 . S
C170 O171 1.218 . S
O171 C170 1.218 . S
C172 O165 1.275 . S
C172 O167 1.255 . S
C173 O174 1.258 . S
C173 O175 1.256 . S
O174 Cd166 2.381 . S
O174 C173 1.258 . S
O175 Cd166 2.378 . S
O175 C173 1.256 . S
O176 Cd177 2.300 . S
O176 C183 1.275 . S
Cd177 O176 2.300 . S
Cd177 O185 2.381 . S
Cd177 O186 2.378 . S
O178 Cd179 2.385 . S
O178 C183 1.255 . S
Cd179 O178 2.385 . S
Cd179 O180 2.317 . S
O180 Cd179 2.317 . S
O180 C181 1.232 . S
C181 O180 1.232 . S
C181 O182 1.218 . S
O182 C181 1.218 . S
C183 O176 1.275 . S
C183 O178 1.255 . S
C184 O185 1.258 . S
C184 O186 1.256 . S
O185 Cd177 2.381 . S
O185 C184 1.258 . S
O186 Cd177 2.378 . S
O186 C184 1.256 . S
O187 Cd188 2.300 . S
O187 C194 1.275 . S
Cd188 O187 2.300 . S
Cd188 O196 2.381 . S
Cd188 O197 2.378 . S
O189 Cd190 2.385 . S
O189 C194 1.255 . S
Cd190 O189 2.385 . S
Cd190 O191 2.317 . S
O191 Cd190 2.317 . S
O191 C192 1.232 . S
C192 O191 1.232 . S
C192 O193 1.218 . S
O193 C192 1.218 . S
C194 O187 1.275 . S
C194 O189 1.255 . S
C195 O196 1.258 . S
C195 O197 1.256 . S
O196 Cd188 2.381 . S
O196 C195 1.258 . S
O197 Cd188 2.378 . S
O197 C195 1.256 . S
O198 Cd199 2.300 . S
O198 C205 1.275 . S
Cd199 O198 2.300 . S
Cd199 O207 2.381 . S
Cd199 O208 2.378 . S
O200 Cd201 2.385 . S
O200 C205 1.255 . S
Cd201 O200 2.385 . S
Cd201 O202 2.317 1_554 S
O202 Cd201 2.317 1_556 S
O202 C203 1.232 . S
C203 O202 1.232 . S
C203 O204 1.218 . S
O204 C203 1.218 . S
C205 O198 1.275 . S
C205 O200 1.255 . S
C206 O207 1.258 . S
C206 O208 1.256 . S
O207 Cd199 2.381 . S
O207 C206 1.258 . S
O208 Cd199 2.378 . S
O208 C206 1.256 . S
O209 Cd210 2.300 . S
O209 C216 1.275 . S
Cd210 O209 2.300 . S
Cd210 O218 2.381 . S
Cd210 O219 2.378 . S
O211 Cd212 2.385 . S
O211 C216 1.255 . S
Cd212 O211 2.385 . S
Cd212 O213 2.317 . S
O213 Cd212 2.317 . S
O213 C214 1.232 . S
C214 O213 1.232 . S
C214 O215 1.218 . S
O215 C214 1.218 . S
C216 O209 1.275 . S
C216 O211 1.255 . S
C217 O218 1.258 . S
C217 O219 1.256 . S
O218 Cd210 2.381 . S
O218 C217 1.258 . S
O219 Cd210 2.378 . S
O219 C217 1.256 . S
O220 Cd221 2.300 . S
O220 C227 1.275 . S
Cd221 O220 2.300 . S
Cd221 O229 2.381 . S
Cd221 O230 2.378 . S
O222 Cd223 2.385 . S
O222 C227 1.255 . S
Cd223 O222 2.385 . S
Cd223 O224 2.317 . S
O224 Cd223 2.317 . S
O224 C225 1.232 . S
C225 O224 1.232 . S
C225 O226 1.218 . S
O226 C225 1.218 . S
C227 O220 1.275 . S
C227 O222 1.255 . S
C228 O229 1.258 . S
C228 O230 1.256 . S
O229 Cd221 2.381 . S
O229 C228 1.258 . S
O230 Cd221 2.378 . S
O230 C228 1.256 . S
O231 Cd232 2.300 . S
O231 C238 1.275 . S
Cd232 O231 2.300 . S
Cd232 O240 2.381 . S
Cd232 O241 2.378 . S
O233 Cd234 2.385 1_556 S
O233 C238 1.255 . S
Cd234 O233 2.385 1_554 S
Cd234 O235 2.317 . S
O235 Cd234 2.317 . S
O235 C236 1.232 . S
C236 O235 1.232 . S
C236 O237 1.218 . S
O237 C236 1.218 . S
C238 O231 1.275 . S
C238 O233 1.255 . S
C239 O240 1.258 . S
C239 O241 1.256 . S
O240 Cd232 2.381 . S
O240 C239 1.258 . S
O241 Cd232 2.378 . S
O241 C239 1.256 . S
O242 Cd243 2.300 . S
O242 C249 1.275 . S
Cd243 O242 2.300 . S
Cd243 O251 2.381 . S
Cd243 O252 2.378 . S
O244 Cd245 2.385 . S
O244 C249 1.255 . S
Cd245 O244 2.385 . S
Cd245 O246 2.317 1_556 S
O246 Cd245 2.317 1_554 S
O246 C247 1.232 . S
C247 O246 1.232 . S
C247 O248 1.218 . S
O248 C247 1.218 . S
C249 O242 1.275 . S
C249 O244 1.255 . S
C250 O251 1.258 . S
C250 O252 1.256 . S
O251 Cd243 2.381 . S
O251 C250 1.258 . S
O252 Cd243 2.378 . S
O252 C250 1.256 . S
O253 Cd254 2.300 1_554 S
O253 C260 1.275 1_554 S
Cd254 O253 2.300 1_556 S
Cd254 O262 2.381 1_556 S
Cd254 O263 2.378 1_556 S
O255 Cd256 2.385 . S
O255 C260 1.255 . S
Cd256 O255 2.385 . S
Cd256 O257 2.317 . S
O257 Cd256 2.317 . S
O257 C258 1.232 . S
C258 O257 1.232 . S
C258 O259 1.218 . S
O259 C258 1.218 . S
C260 O253 1.275 1_556 S
C260 O255 1.255 . S
C261 O262 1.258 . S
C261 O263 1.256 . S
O262 Cd254 2.381 1_554 S
O262 C261 1.258 . S
O263 Cd254 2.378 1_554 S
O263 C261 1.256 . S
H264 C272 0.929 . S
H265 C274 0.930 . S
H266 C276 0.930 . S
H267 C279 0.960 . S
H268 C282 0.930 . S
H269 C284 0.960 . S
H270 C284 0.960 . S
H271 C284 0.960 . S
C272 H264 0.929 . S
C272 C273 1.377 . S
C272 C274 1.384 . S
C273 C272 1.377 . S
C273 C279 1.375 1_655 S
C274 H265 0.930 . S
C274 C272 1.384 . S
C274 C275 1.372 . S
C275 C274 1.372 . S
C275 C276 1.400 . S
C275 C280 1.490 . S
C276 H266 0.930 . S
C276 C275 1.400 . S
C276 C279 1.372 1_655 S
H277 C293 0.930 . S
H278 C294 0.931 . S
C279 H267 0.960 . S
C279 C273 1.375 1_455 S
C279 C276 1.372 1_455 S
C280 C275 1.490 . S
C280 C282 1.395 . S
C280 C283 1.403 . S
H281 C287 0.930 . S
C282 H268 0.930 . S
C282 C280 1.395 . S
C282 C285 1.403 . S
C283 C280 1.403 . S
C283 C284 1.524 . S
C283 C287 1.400 . S
C284 H269 0.960 . S
C284 H270 0.960 . S
C284 H271 0.960 . S
C284 C283 1.524 . S
C285 C282 1.403 . S
C285 C286 1.392 . S
C285 C289 1.495 . S
C286 C285 1.392 . S
C286 C287 1.385 . S
C286 C288 1.478 . S
C287 H281 0.930 . S
C287 C283 1.400 . S
C287 C286 1.385 . S
C288 C286 1.478 . S
C288 C290 1.381 . S
C288 C294 1.383 . S
C289 C285 1.495 . S
C289 H295 0.959 . S
C289 H296 0.961 . S
C289 H297 0.960 . S
C290 C288 1.381 . S
C290 C291 1.394 . S
C290 H298 0.930 . S
C291 C290 1.394 . S
C291 C292 1.383 . S
C291 H299 0.929 . S
C292 C291 1.383 . S
C292 C293 1.377 . S
C293 H277 0.930 . S
C293 C292 1.377 . S
C293 C294 1.379 . S
C294 H278 0.931 . S
C294 C288 1.383 . S
C294 C293 1.379 . S
H295 C289 0.959 . S
H296 C289 0.961 . S
H297 C289 0.960 . S
H298 C290 0.930 . S
H299 C291 0.929 . S
H300 C308 0.929 . S
H301 C310 0.930 . S
H302 C312 0.930 . S
H303 C315 0.929 . S
H304 C318 0.930 . S
H305 C320 0.960 . S
H306 C320 0.960 . S
H307 C320 0.960 . S
C308 H300 0.929 . S
C308 C309 1.377 . S
C308 C310 1.384 . S
C309 C308 1.377 . S
C309 C315 1.390 . S
C310 H301 0.930 . S
C310 C308 1.384 . S
C310 C311 1.372 . S
C311 C310 1.372 . S
C311 C312 1.400 . S
C311 C316 1.490 . S
C312 H302 0.930 . S
C312 C311 1.400 . S
C312 C315 1.386 . S
H313 C329 0.930 . S
H314 C330 0.931 . S
C315 H303 0.929 . S
C315 C309 1.390 . S
C315 C312 1.386 . S
C316 C311 1.490 . S
C316 C318 1.395 . S
C316 C319 1.403 . S
H317 C323 0.930 . S
C318 H304 0.930 . S
C318 C316 1.395 . S
C318 C321 1.403 . S
C319 C316 1.403 . S
C319 C320 1.524 . S
C319 C323 1.400 . S
C320 H305 0.960 . S
C320 H306 0.960 . S
C320 H307 0.960 . S
C320 C319 1.524 . S
C321 C318 1.403 . S
C321 C322 1.392 . S
C321 C325 1.495 . S
C322 C321 1.392 . S
C322 C323 1.385 . S
C322 C324 1.478 . S
C323 H317 0.930 . S
C323 C319 1.400 . S
C323 C322 1.385 . S
C324 C322 1.478 . S
C324 C326 1.381 . S
C324 C330 1.383 . S
C325 C321 1.495 . S
C325 H331 0.959 . S
C325 H332 0.961 . S
C325 H333 0.960 . S
C326 C324 1.381 . S
C326 C327 1.394 . S
C326 H334 0.930 . S
C327 C326 1.394 . S
C327 C328 1.383 . S
C327 H335 0.929 . S
C328 C327 1.383 . S
C328 C329 1.377 . S
C329 H313 0.930 . S
C329 C328 1.377 . S
C329 C330 1.379 . S
C330 H314 0.931 . S
C330 C324 1.383 . S
C330 C329 1.379 . S
H331 C325 0.959 . S
H332 C325 0.961 . S
H333 C325 0.960 . S
H334 C326 0.930 . S
H335 C327 0.929 . S
H336 C344 0.929 . S
H337 C346 0.930 . S
H338 C348 0.930 . S
H339 C351 0.929 . S
H340 C354 0.930 . S
H341 C356 0.960 . S
H342 C356 0.960 . S
H343 C356 0.960 . S
C344 H336 0.929 . S
C344 C345 1.377 . S
C344 C346 1.384 . S
C345 C344 1.377 . S
C345 C351 1.390 . S
C346 H337 0.930 . S
C346 C344 1.384 . S
C346 C347 1.372 . S
C347 C346 1.372 . S
C347 C348 1.400 . S
C347 C352 1.490 . S
C348 H338 0.930 . S
C348 C347 1.400 . S
C348 C351 1.386 . S
H349 C365 0.944 . S
H350 C366 0.931 . S
C351 H339 0.929 . S
C351 C345 1.390 . S
C351 C348 1.386 . S
C352 C347 1.490 . S
C352 C354 1.395 . S
C352 C355 1.403 . S
H353 C359 0.930 . S
C354 H340 0.930 . S
C354 C352 1.395 . S
C354 C357 1.391 1_455 S
C355 C352 1.403 . S
C355 C356 1.524 . S
C355 C359 1.400 . S
C356 H341 0.960 . S
C356 H342 0.960 . S
C356 H343 0.960 . S
C356 C355 1.524 . S
C357 C354 1.391 1_655 S
C357 C358 1.386 1_655 S
C357 C361 1.514 . S
C358 C357 1.386 1_455 S
C358 C359 1.385 . S
C358 C360 1.478 1_455 S
C359 H353 0.930 . S
C359 C355 1.400 . S
C359 C358 1.385 . S
C360 C358 1.478 1_655 S
C360 C362 1.381 . S
C360 C366 1.383 1_655 S
C361 C357 1.514 . S
C361 H367 0.959 . S
C361 H368 0.961 . S
C361 H369 0.960 . S
C362 C360 1.381 . S
C362 C363 1.394 . S
C362 H370 0.930 . S
C363 C362 1.394 . S
C363 C364 1.383 . S
C363 H371 0.929 . S
C364 C363 1.383 . S
C364 C365 1.377 . S
C365 H349 0.944 . S
C365 C364 1.377 . S
C365 C366 1.379 1_655 S
C366 H350 0.931 . S
C366 C360 1.383 1_455 S
C366 C365 1.379 1_455 S
H367 C361 0.959 . S
H368 C361 0.961 . S
H369 C361 0.960 . S
H370 C362 0.930 . S
H371 C363 0.929 . S
H372 C380 0.929 . S
H373 C382 0.930 . S
H374 C384 0.930 . S
H375 C387 0.929 . S
H376 C390 0.930 . S
H377 C392 0.960 . S
H378 C392 0.960 . S
H379 C392 0.960 . S
C380 H372 0.929 . S
C380 C381 1.377 . S
C380 C382 1.384 . S
C381 C380 1.377 . S
C381 C387 1.390 . S
C382 H373 0.930 . S
C382 C380 1.384 . S
C382 C383 1.372 . S
C383 C382 1.372 . S
C383 C384 1.400 . S
C383 C388 1.490 . S
C384 H374 0.930 . S
C384 C383 1.400 . S
C384 C387 1.386 . S
H385 C401 0.930 . S
H386 C402 0.931 . S
C387 H375 0.929 . S
C387 C381 1.390 . S
C387 C384 1.386 . S
C388 C383 1.490 . S
C388 C390 1.395 . S
C388 C391 1.403 . S
H389 C395 0.930 . S
C390 H376 0.930 . S
C390 C388 1.395 . S
C390 C393 1.403 . S
C391 C388 1.403 . S
C391 C392 1.524 . S
C391 C395 1.400 . S
C392 H377 0.960 . S
C392 H378 0.960 . S
C392 H379 0.960 . S
C392 C391 1.524 . S
C393 C390 1.403 . S
C393 C394 1.392 . S
C393 C397 1.495 . S
C394 C393 1.392 . S
C394 C395 1.385 . S
C394 C396 1.478 . S
C395 H389 0.930 . S
C395 C391 1.400 . S
C395 C394 1.385 . S
C396 C394 1.478 . S
C396 C398 1.381 . S
C396 C402 1.383 . S
C397 C393 1.495 . S
C397 H403 0.959 . S
C397 H404 0.961 . S
C397 H405 0.960 . S
C398 C396 1.381 . S
C398 C399 1.394 . S
C398 H406 0.930 . S
C399 C398 1.394 . S
C399 C400 1.383 . S
C399 H407 0.929 . S
C400 C399 1.383 . S
C400 C401 1.377 . S
C401 H385 0.930 . S
C401 C400 1.377 . S
C401 C402 1.379 . S
C402 H386 0.931 . S
C402 C396 1.383 . S
C402 C401 1.379 . S
H403 C397 0.959 . S
H404 C397 0.961 . S
H405 C397 0.960 . S
H406 C398 0.930 . S
H407 C399 0.929 . S
H408 C416 0.929 . S
H409 C418 0.930 . S
H410 C420 0.930 . S
H411 C423 0.929 . S
H412 C426 0.930 . S
H413 C428 0.966 . S
H414 C428 0.960 . S
H415 C428 0.960 1_565 S
C416 H408 0.929 . S
C416 C417 1.377 . S
C416 C418 1.384 . S
C417 C416 1.377 . S
C417 C423 1.390 1_545 S
C418 H409 0.930 . S
C418 C416 1.384 . S
C418 C419 1.372 . S
C419 C418 1.372 . S
C419 C420 1.400 1_545 S
C419 C424 1.490 . S
C420 H410 0.930 . S
C420 C419 1.400 1_565 S
C420 C423 1.386 . S
H421 C437 0.930 . S
H422 C438 0.931 . S
C423 H411 0.929 . S
C423 C417 1.390 1_565 S
C423 C420 1.386 . S
C424 C419 1.490 . S
C424 C426 1.395 . S
C424 C427 1.403 . S
H425 C431 0.930 . S
C426 H412 0.930 . S
C426 C424 1.395 . S
C426 C429 1.399 1_545 S
C427 C424 1.403 . S
C427 C428 1.524 . S
C427 C431 1.400 1_545 S
C428 H413 0.966 . S
C428 H414 0.960 . S
C428 H415 0.960 1_545 S
C428 C427 1.524 . S
C429 C426 1.399 1_565 S
C429 C430 1.396 . S
C429 C433 1.497 . S
C430 C429 1.396 . S
C430 C431 1.385 . S
C430 C432 1.478 . S
C431 H425 0.930 . S
C431 C427 1.400 1_565 S
C431 C430 1.385 . S
C432 C430 1.478 . S
C432 C434 1.381 1_565 S
C432 C438 1.383 . S
C433 C429 1.497 . S
C433 H439 0.959 1_565 S
C433 H440 0.961 . S
C433 H441 0.960 1_565 S
C434 C432 1.381 1_545 S
C434 C435 1.394 . S
C434 H442 0.930 . S
C435 C434 1.394 . S
C435 C436 1.383 1_545 S
C435 H443 0.929 . S
C436 C435 1.383 1_565 S
C436 C437 1.377 . S
C437 H421 0.930 . S
C437 C436 1.377 . S
C437 C438 1.379 . S
C438 H422 0.931 . S
C438 C432 1.383 . S
C438 C437 1.379 . S
H439 C433 0.959 1_545 S
H440 C433 0.961 . S
H441 C433 0.960 1_545 S
H442 C434 0.930 . S
H443 C435 0.929 . S
H444 C452 0.929 . S
H445 C454 0.930 . S
H446 C456 0.930 . S
H447 C459 0.929 1_455 S
H448 C462 0.930 . S
H449 C464 0.960 . S
H450 C464 0.960 1_455 S
H451 C464 0.960 . S
C452 H444 0.929 . S
C452 C453 1.377 . S
C452 C454 1.384 . S
C453 C452 1.377 . S
C453 C459 1.390 . S
C454 H445 0.930 . S
C454 C452 1.384 . S
C454 C455 1.372 . S
C455 C454 1.372 . S
C455 C456 1.400 . S
C455 C460 1.490 . S
C456 H446 0.930 . S
C456 C455 1.400 . S
C456 C459 1.386 . S
H457 C473 0.930 . S
H458 C474 0.931 . S
C459 H447 0.929 1_655 S
C459 C453 1.390 . S
C459 C456 1.386 . S
C460 C455 1.490 . S
C460 C462 1.395 . S
C460 C463 1.403 . S
H461 C467 0.930 . S
C462 H448 0.930 . S
C462 C460 1.395 . S
C462 C465 1.403 . S
C463 C460 1.403 . S
C463 C464 1.524 . S
C463 C467 1.400 . S
C464 H449 0.960 . S
C464 H450 0.960 1_655 S
C464 H451 0.960 . S
C464 C463 1.524 . S
C465 C462 1.403 . S
C465 C466 1.392 . S
C465 C469 1.495 . S
C466 C465 1.392 . S
C466 C467 1.385 . S
C466 C468 1.478 . S
C467 H461 0.930 . S
C467 C463 1.400 . S
C467 C466 1.385 . S
C468 C466 1.478 . S
C468 C470 1.381 . S
C468 C474 1.383 . S
C469 C465 1.495 . S
C469 H475 0.959 . S
C469 H476 0.961 . S
C469 H477 0.960 . S
C470 C468 1.381 . S
C470 C471 1.394 . S
C470 H478 0.930 . S
C471 C470 1.394 . S
C471 C472 1.383 . S
C471 H479 0.929 . S
C472 C471 1.383 . S
C472 C473 1.377 . S
C473 H457 0.930 . S
C473 C472 1.377 . S
C473 C474 1.379 . S
C474 H458 0.931 . S
C474 C468 1.383 . S
C474 C473 1.379 . S
H475 C469 0.959 . S
H476 C469 0.961 . S
H477 C469 0.960 . S
H478 C470 0.930 . S
H479 C471 0.929 . S
H480 C488 0.929 . S
H481 C490 0.930 . S
H482 C492 0.930 . S
H483 C495 0.929 . S
H484 C498 0.930 . S
H485 C500 0.960 . S
H486 C500 0.960 . S
H487 C500 0.960 . S
C488 H480 0.929 . S
C488 C489 1.377 . S
C488 C490 1.384 . S
C489 C488 1.377 . S
C489 C495 1.390 . S
C490 H481 0.930 . S
C490 C488 1.384 . S
C490 C491 1.372 . S
C491 C490 1.372 . S
C491 C492 1.400 . S
C491 C496 1.490 . S
C492 H482 0.930 . S
C492 C491 1.400 . S
C492 C495 1.386 . S
H493 C509 0.930 . S
H494 C510 0.931 . S
C495 H483 0.929 . S
C495 C489 1.390 . S
C495 C492 1.386 . S
C496 C491 1.490 . S
C496 C498 1.395 . S
C496 C499 1.403 . S
H497 C503 0.930 . S
C498 H484 0.930 . S
C498 C496 1.395 . S
C498 C501 1.403 1_565 S
C499 C496 1.403 . S
C499 C500 1.524 . S
C499 C503 1.400 1_565 S
C500 H485 0.960 . S
C500 H486 0.960 . S
C500 H487 0.960 . S
C500 C499 1.524 . S
C501 C498 1.403 1_545 S
C501 C502 1.392 . S
C501 C505 1.495 . S
C502 C501 1.392 . S
C502 C503 1.385 . S
C502 C504 1.478 . S
C503 H497 0.930 . S
C503 C499 1.400 1_545 S
C503 C502 1.385 . S
C504 C502 1.478 . S
C504 C506 1.381 . S
C504 C510 1.383 . S
C505 C501 1.495 . S
C505 H511 0.959 . S
C505 H512 0.961 . S
C505 H513 0.960 . S
C506 C504 1.381 . S
C506 C507 1.394 . S
C506 H514 0.930 . S
C507 C506 1.394 . S
C507 C508 1.383 . S
C507 H515 0.929 . S
C508 C507 1.383 . S
C508 C509 1.377 . S
C509 H493 0.930 . S
C509 C508 1.377 . S
C509 C510 1.379 . S
C510 H494 0.931 . S
C510 C504 1.383 . S
C510 C509 1.379 . S
H511 C505 0.959 . S
H512 C505 0.961 . S
H513 C505 0.960 . S
H514 C506 0.930 . S
H515 C507 0.929 . S
H516 C524 0.929 . S
H517 C526 0.930 . S
H518 C528 0.930 . S
H519 C531 0.929 . S
H520 C534 0.930 . S
H521 C536 0.960 . S
H522 C536 0.960 . S
H523 C536 0.960 . S
C524 H516 0.929 . S
C524 C525 1.377 . S
C524 C526 1.384 . S
C525 C524 1.377 . S
C525 C531 1.390 . S
C526 H517 0.930 . S
C526 C524 1.384 . S
C526 C527 1.372 . S
C527 C526 1.372 . S
C527 C528 1.400 . S
C527 C532 1.490 . S
C528 H518 0.930 . S
C528 C527 1.400 . S
C528 C531 1.386 . S
H529 C545 0.930 . S
H530 C546 0.931 . S
C531 H519 0.929 . S
C531 C525 1.390 . S
C531 C528 1.386 . S
C532 C527 1.490 . S
C532 C534 1.395 . S
C532 C535 1.403 . S
H533 C539 0.930 . S
C534 H520 0.930 . S
C534 C532 1.395 . S
C534 C537 1.435 . S
C535 C532 1.403 . S
C535 C536 1.524 . S
C535 C539 1.400 . S
C536 H521 0.960 . S
C536 H522 0.960 . S
C536 H523 0.960 . S
C536 C535 1.524 . S
C537 C534 1.435 . S
C537 C538 1.427 . S
C537 C541 1.434 1_655 S
C538 C537 1.427 . S
C538 C539 1.385 . S
C538 C540 1.478 . S
C539 H533 0.930 . S
C539 C535 1.400 . S
C539 C538 1.385 . S
C540 C538 1.478 . S
C540 C542 1.381 1_655 S
C540 C546 1.383 . S
C541 C537 1.434 1_455 S
C541 H547 0.959 . S
C541 H548 0.961 . S
C541 H549 0.960 . S
C542 C540 1.381 1_455 S
C542 C543 1.394 . S
C542 H550 0.930 . S
C543 C542 1.394 . S
C543 C544 1.383 . S
C543 H551 0.929 . S
C544 C543 1.383 . S
C544 C545 1.377 1_455 S
C545 H529 0.930 . S
C545 C544 1.377 1_655 S
C545 C546 1.379 . S
C546 H530 0.931 . S
C546 C540 1.383 . S
C546 C545 1.379 . S
H547 C541 0.959 . S
H548 C541 0.961 . S
H549 C541 0.960 . S
H550 C542 0.930 . S
H551 C543 0.929 . S
H552 C560 0.929 . S
H553 C562 0.930 . S
H554 C564 0.930 1_554 S
H555 C567 0.929 . S
H556 C570 0.930 . S
H557 C572 0.960 . S
H558 C572 0.960 1_556 S
H559 C572 0.960 . S
C560 H552 0.929 . S
C560 C561 1.377 . S
C560 C562 1.384 . S
C561 C560 1.377 . S
C561 C567 1.390 . S
C562 H553 0.930 . S
C562 C560 1.384 . S
C562 C563 1.372 1_556 S
C563 C562 1.372 1_554 S
C563 C564 1.400 1_554 S
C563 C568 1.490 . S
C564 H554 0.930 1_556 S
C564 C563 1.400 1_556 S
C564 C567 1.386 . S
H565 C581 0.930 . S
H566 C582 0.931 . S
C567 H555 0.929 . S
C567 C561 1.390 . S
C567 C564 1.386 . S
C568 C563 1.490 . S
C568 C570 1.395 . S
C568 C571 1.403 . S
H569 C575 0.930 . S
C570 H556 0.930 . S
C570 C568 1.395 . S
C570 C573 1.403 . S
C571 C568 1.403 . S
C571 C572 1.524 . S
C571 C575 1.400 . S
C572 H557 0.960 . S
C572 H558 0.960 1_554 S
C572 H559 0.960 . S
C572 C571 1.524 . S
C573 C570 1.403 . S
C573 C574 1.392 . S
C573 C577 1.495 . S
C574 C573 1.392 . S
C574 C575 1.385 . S
C574 C576 1.478 . S
C575 H569 0.930 . S
C575 C571 1.400 . S
C575 C574 1.385 . S
C576 C574 1.478 . S
C576 C578 1.381 . S
C576 C582 1.383 . S
C577 C573 1.495 . S
C577 H583 0.959 . S
C577 H584 0.961 . S
C577 H585 0.960 . S
C578 C576 1.381 . S
C578 C579 1.394 . S
C578 H586 0.930 . S
C579 C578 1.394 . S
C579 C580 1.383 . S
C579 H587 0.929 . S
C580 C579 1.383 . S
C580 C581 1.377 . S
C581 H565 0.930 . S
C581 C580 1.377 . S
C581 C582 1.379 . S
C582 H566 0.931 . S
C582 C576 1.383 . S
C582 C581 1.379 . S
H583 C577 0.959 . S
H584 C577 0.961 . S
H585 C577 0.960 . S
H586 C578 0.930 . S
H587 C579 0.929 . S
H588 C596 0.929 . S
H589 C598 0.930 . S
H590 C600 0.930 . S
H591 C603 0.929 . S
H592 C606 0.930 . S
H593 C608 0.960 . S
H594 C608 0.960 . S
H595 C608 0.960 . S
C596 H588 0.929 . S
C596 C597 1.377 . S
C596 C598 1.384 . S
C597 C596 1.377 . S
C597 C603 1.390 . S
C598 H589 0.930 . S
C598 C596 1.384 . S
C598 C599 1.372 . S
C599 C598 1.372 . S
C599 C600 1.400 . S
C599 C604 1.490 . S
C600 H590 0.930 . S
C600 C599 1.400 . S
C600 C603 1.386 . S
H601 C617 0.930 . S
H602 C618 0.931 . S
C603 H591 0.929 . S
C603 C597 1.390 . S
C603 C600 1.386 . S
C604 C599 1.490 . S
C604 C606 1.395 . S
C604 C607 1.403 . S
H605 C611 0.930 . S
C606 H592 0.930 . S
C606 C604 1.395 . S
C606 C609 1.403 . S
C607 C604 1.403 . S
C607 C608 1.524 . S
C607 C611 1.400 . S
C608 H593 0.960 . S
C608 H594 0.960 . S
C608 H595 0.960 . S
C608 C607 1.524 . S
C609 C606 1.403 . S
C609 C610 1.392 . S
C609 C613 1.495 . S
C610 C609 1.392 . S
C610 C611 1.385 . S
C610 C612 1.478 . S
C611 H605 0.930 . S
C611 C607 1.400 . S
C611 C610 1.385 . S
C612 C610 1.478 . S
C612 C614 1.381 . S
C612 C618 1.383 . S
C613 C609 1.495 . S
C613 H619 0.959 . S
C613 H620 0.961 . S
C613 H621 0.960 . S
C614 C612 1.381 . S
C614 C615 1.394 . S
C614 H622 0.930 . S
C615 C614 1.394 . S
C615 C616 1.383 . S
C615 H623 0.929 . S
C616 C615 1.383 . S
C616 C617 1.377 . S
C617 H601 0.930 . S
C617 C616 1.377 . S
C617 C618 1.379 . S
C618 H602 0.931 . S
C618 C612 1.383 . S
C618 C617 1.379 . S
H619 C613 0.959 . S
H620 C613 0.961 . S
H621 C613 0.960 . S
H622 C614 0.930 . S
H623 C615 0.929 . S
H624 C632 0.929 . S
H625 C634 0.930 . S
H626 C636 0.930 . S
H627 C639 0.929 . S
H628 C642 0.930 . S
H629 C644 0.952 1_556 S
H630 C644 1.000 . S
H631 C644 0.924 1_556 S
C632 H624 0.929 . S
C632 C633 1.377 . S
C632 C634 1.384 . S
C633 C632 1.377 . S
C633 C639 1.390 1_554 S
C634 H625 0.930 . S
C634 C632 1.384 . S
C634 C635 1.372 . S
C635 C634 1.372 . S
C635 C636 1.400 1_554 S
C635 C640 1.490 . S
C636 H626 0.930 . S
C636 C635 1.400 1_556 S
C636 C639 1.386 . S
H637 C653 0.930 . S
H638 C654 0.931 . S
C639 H627 0.929 . S
C639 C633 1.390 1_556 S
C639 C636 1.386 . S
C640 C635 1.490 . S
C640 C642 1.395 . S
C640 C643 1.403 . S
H641 C647 0.933 . S
C642 H628 0.930 . S
C642 C640 1.395 . S
C642 C645 1.403 . S
C643 C640 1.403 . S
C643 C644 1.531 . S
C643 C647 1.400 . S
C644 H629 0.952 1_554 S
C644 H630 1.000 . S
C644 H631 0.924 1_554 S
C644 C643 1.531 . S
C645 C642 1.403 . S
C645 C646 1.392 . S
C645 C649 1.495 . S
C646 C645 1.392 . S
C646 C647 1.385 . S
C646 C648 1.478 . S
C647 H641 0.933 . S
C647 C643 1.400 . S
C647 C646 1.385 . S
C648 C646 1.478 . S
C648 C650 1.381 . S
C648 C654 1.383 1_554 S
C649 C645 1.495 . S
C649 H655 0.959 . S
C649 H656 0.961 . S
C649 H657 0.960 . S
C650 C648 1.381 . S
C650 C651 1.394 . S
C650 H658 0.930 . S
C651 C650 1.394 . S
C651 C652 1.383 . S
C651 H659 0.929 . S
C652 C651 1.383 . S
C652 C653 1.377 1_554 S
C653 H637 0.930 . S
C653 C652 1.377 1_556 S
C653 C654 1.379 . S
C654 H638 0.931 . S
C654 C648 1.383 1_556 S
C654 C653 1.379 . S
H655 C649 0.959 . S
H656 C649 0.961 . S
H657 C649 0.960 . S
H658 C650 0.930 . S
H659 C651 0.929 . S
H660 C668 0.929 . S
H661 C670 0.930 . S
H662 C672 0.930 . S
H663 C675 0.929 . S
H664 C678 0.930 . S
H665 C680 0.960 . S
H666 C680 0.960 . S
H667 C680 0.960 . S
C668 H660 0.929 . S
C668 C669 1.377 . S
C668 C670 1.384 . S
C669 C668 1.377 . S
C669 C675 1.390 . S
C670 H661 0.930 . S
C670 C668 1.384 . S
C670 C671 1.372 . S
C671 C670 1.372 . S
C671 C672 1.400 . S
C671 C676 1.490 . S
C672 H662 0.930 . S
C672 C671 1.400 . S
C672 C675 1.386 . S
H673 C689 0.930 . S
H674 C690 0.931 . S
C675 H663 0.929 . S
C675 C669 1.390 . S
C675 C672 1.386 . S
C676 C671 1.490 . S
C676 C678 1.395 . S
C676 C679 1.403 . S
H677 C683 0.930 . S
C678 H664 0.930 . S
C678 C676 1.395 . S
C678 C681 1.403 . S
C679 C676 1.403 . S
C679 C680 1.524 . S
C679 C683 1.400 . S
C680 H665 0.960 . S
C680 H666 0.960 . S
C680 H667 0.960 . S
C680 C679 1.524 . S
C681 C678 1.403 . S
C681 C682 1.392 . S
C681 C685 1.495 1_556 S
C682 C681 1.392 . S
C682 C683 1.385 . S
C682 C684 1.478 . S
C683 H677 0.930 . S
C683 C679 1.400 . S
C683 C682 1.385 . S
C684 C682 1.478 . S
C684 C686 1.381 . S
C684 C690 1.383 . S
C685 C681 1.495 1_554 S
C685 H691 0.959 . S
C685 H692 0.961 . S
C685 H693 0.960 . S
C686 C684 1.381 . S
C686 C687 1.394 . S
C686 H694 0.930 . S
C687 C686 1.394 . S
C687 C688 1.383 . S
C687 H695 0.955 . S
C688 C687 1.383 . S
C688 C689 1.377 . S
C689 H673 0.930 . S
C689 C688 1.377 . S
C689 C690 1.379 . S
C690 H674 0.931 . S
C690 C684 1.383 . S
C690 C689 1.379 . S
H691 C685 0.959 . S
H692 C685 0.961 . S
H693 C685 0.960 . S
H694 C686 0.930 . S
H695 C687 0.955 . S
H696 C704 0.929 . S
H697 C706 0.930 . S
H698 C708 0.930 . S
H699 C711 0.929 . S
H700 C714 0.930 . S
H701 C716 0.960 . S
H702 C716 0.960 . S
H703 C716 0.960 . S
C704 H696 0.929 . S
C704 C705 1.377 . S
C704 C706 1.384 . S
C705 C704 1.377 . S
C705 C711 1.390 . S
C706 H697 0.930 . S
C706 C704 1.384 . S
C706 C707 1.372 . S
C707 C706 1.372 . S
C707 C708 1.400 . S
C707 C712 1.490 . S
C708 H698 0.930 . S
C708 C707 1.400 . S
C708 C711 1.386 . S
H709 C725 0.930 . S
H710 C726 0.931 . S
C711 H699 0.929 . S
C711 C705 1.390 . S
C711 C708 1.386 . S
C712 C707 1.490 . S
C712 C714 1.395 . S
C712 C715 1.403 . S
H713 C719 0.930 . S
C714 H700 0.930 . S
C714 C712 1.395 . S
C714 C717 1.403 . S
C715 C712 1.403 . S
C715 C716 1.524 . S
C715 C719 1.400 . S
C716 H701 0.960 . S
C716 H702 0.960 . S
C716 H703 0.960 . S
C716 C715 1.524 . S
C717 C714 1.403 . S
C717 C718 1.392 . S
C717 C721 1.495 . S
C718 C717 1.392 . S
C718 C719 1.385 . S
C718 C720 1.478 . S
C719 H713 0.930 . S
C719 C715 1.400 . S
C719 C718 1.385 . S
C720 C718 1.478 . S
C720 C722 1.381 . S
C720 C726 1.383 . S
C721 C717 1.495 . S
C721 H727 0.959 . S
C721 H728 0.961 . S
C721 H729 0.960 . S
C722 C720 1.381 . S
C722 C723 1.394 . S
C722 H730 0.930 . S
C723 C722 1.394 . S
C723 C724 1.383 . S
C723 H731 0.929 . S
C724 C723 1.383 . S
C724 C725 1.377 . S
C725 H709 0.930 . S
C725 C724 1.377 . S
C725 C726 1.379 . S
C726 H710 0.931 . S
C726 C720 1.383 . S
C726 C725 1.379 . S
H727 C721 0.959 . S
H728 C721 0.961 . S
H729 C721 0.960 . S
H730 C722 0.930 . S
H731 C723 0.929 . S
H732 C740 0.929 . S
H733 C742 0.930 . S
H734 C744 0.930 . S
H735 C747 0.929 . S
H736 C750 0.930 . S
H737 C752 0.960 . S
H738 C752 0.960 . S
H739 C752 0.960 . S
C740 H732 0.929 . S
C740 C741 1.377 . S
C740 C742 1.384 . S
C741 C740 1.377 . S
C741 C747 1.390 . S
C742 H733 0.930 . S
C742 C740 1.384 . S
C742 C743 1.372 . S
C743 C742 1.372 . S
C743 C744 1.400 . S
C743 C748 1.490 . S
C744 H734 0.930 . S
C744 C743 1.400 . S
C744 C747 1.386 . S
H745 C761 0.930 . S
H746 C762 0.931 . S
C747 H735 0.929 . S
C747 C741 1.390 . S
C747 C744 1.386 . S
C748 C743 1.490 . S
C748 C750 1.395 . S
C748 C751 1.403 . S
H749 C755 0.930 . S
C750 H736 0.930 . S
C750 C748 1.395 . S
C750 C753 1.403 . S
C751 C748 1.403 . S
C751 C752 1.524 . S
C751 C755 1.400 . S
C752 H737 0.960 . S
C752 H738 0.960 . S
C752 H739 0.960 . S
C752 C751 1.524 . S
C753 C750 1.403 . S
C753 C754 1.392 . S
C753 C757 1.495 . S
C754 C753 1.392 . S
C754 C755 1.385 . S
C754 C756 1.478 . S
C755 H749 0.930 . S
C755 C751 1.400 . S
C755 C754 1.385 . S
C756 C754 1.478 . S
C756 C758 1.381 . S
C756 C762 1.383 . S
C757 C753 1.495 . S
C757 H763 0.959 . S
C757 H764 0.961 . S
C757 H765 0.960 . S
C758 C756 1.381 . S
C758 C759 1.394 . S
C758 H766 0.930 . S
C759 C758 1.394 . S
C759 C760 1.383 . S
C759 H767 0.929 . S
C760 C759 1.383 . S
C760 C761 1.377 . S
C761 H745 0.930 . S
C761 C760 1.377 . S
C761 C762 1.379 . S
C762 H746 0.931 . S
C762 C756 1.383 . S
C762 C761 1.379 . S
H763 C757 0.959 . S
H764 C757 0.961 . S
H765 C757 0.960 . S
H766 C758 0.930 . S
H767 C759 0.929 . S
H768 C776 0.929 . S
H769 C778 0.930 . S
H770 C780 0.930 . S
H771 C783 0.929 . S
H772 C786 0.930 . S
H773 C788 0.960 . S
H774 C788 0.960 . S
H775 C788 0.960 . S
C776 H768 0.929 . S
C776 C777 1.377 . S
C776 C778 1.384 . S
C777 C776 1.377 . S
C777 C783 1.390 . S
C778 H769 0.930 . S
C778 C776 1.384 . S
C778 C779 1.372 . S
C779 C778 1.372 . S
C779 C780 1.400 . S
C779 C784 1.490 . S
C780 H770 0.930 . S
C780 C779 1.400 . S
C780 C783 1.386 . S
H781 C797 0.930 . S
H782 C798 0.931 . S
C783 H771 0.929 . S
C783 C777 1.390 . S
C783 C780 1.386 . S
C784 C779 1.490 . S
C784 C786 1.395 . S
C784 C787 1.403 . S
H785 C791 0.930 . S
C786 H772 0.930 . S
C786 C784 1.395 . S
C786 C789 1.403 . S
C787 C784 1.403 . S
C787 C788 1.524 . S
C787 C791 1.400 . S
C788 H773 0.960 . S
C788 H774 0.960 . S
C788 H775 0.960 . S
C788 C787 1.524 . S
C789 C786 1.403 . S
C789 C790 1.392 . S
C789 C793 1.495 . S
C790 C789 1.392 . S
C790 C791 1.385 . S
C790 C792 1.478 . S
C791 H785 0.930 . S
C791 C787 1.400 . S
C791 C790 1.385 . S
C792 C790 1.478 . S
C792 C794 1.381 . S
C792 C798 1.383 . S
C793 C789 1.495 . S
C793 H799 0.959 . S
C793 H800 0.961 . S
C793 H801 0.960 . S
C794 C792 1.381 . S
C794 C795 1.394 . S
C794 H802 0.930 . S
C795 C794 1.394 . S
C795 C796 1.383 . S
C795 H803 0.929 . S
C796 C795 1.383 . S
C796 C797 1.377 . S
C797 H781 0.930 . S
C797 C796 1.377 . S
C797 C798 1.379 . S
C798 H782 0.931 . S
C798 C792 1.383 . S
C798 C797 1.379 . S
H799 C793 0.959 . S
H800 C793 0.961 . S
H801 C793 0.960 . S
H802 C794 0.930 . S
H803 C795 0.929 . S
H804 C812 0.929 . S
H805 C814 0.930 . S
H806 C816 0.930 . S
H807 C819 0.929 . S
H808 C822 0.930 . S
H809 C824 0.960 . S
H810 C824 0.960 . S
H811 C824 0.960 . S
C812 H804 0.929 . S
C812 C813 1.377 . S
C812 C814 1.384 . S
C813 C812 1.377 . S
C813 C819 1.390 . S
C814 H805 0.930 . S
C814 C812 1.384 . S
C814 C815 1.372 . S
C815 C814 1.372 . S
C815 C816 1.400 . S
C815 C820 1.490 . S
C816 H806 0.930 . S
C816 C815 1.400 . S
C816 C819 1.386 . S
H817 C833 0.930 . S
H818 C834 0.931 . S
C819 H807 0.929 . S
C819 C813 1.390 . S
C819 C816 1.386 . S
C820 C815 1.490 . S
C820 C822 1.395 . S
C820 C823 1.403 . S
H821 C827 0.930 . S
C822 H808 0.930 . S
C822 C820 1.395 . S
C822 C825 1.403 . S
C823 C820 1.403 . S
C823 C824 1.524 . S
C823 C827 1.400 . S
C824 H809 0.960 . S
C824 H810 0.960 . S
C824 H811 0.960 . S
C824 C823 1.524 . S
C825 C822 1.403 . S
C825 C826 1.392 . S
C825 C829 1.495 . S
C826 C825 1.392 . S
C826 C827 1.385 . S
C826 C828 1.478 . S
C827 H821 0.930 . S
C827 C823 1.400 . S
C827 C826 1.385 . S
C828 C826 1.478 . S
C828 C830 1.381 . S
C828 C834 1.383 . S
C829 C825 1.495 . S
C829 H835 0.959 . S
C829 H836 0.961 . S
C829 H837 0.960 . S
C830 C828 1.381 . S
C830 C831 1.394 . S
C830 H838 0.930 . S
C831 C830 1.394 . S
C831 C832 1.383 . S
C831 H839 0.929 . S
C832 C831 1.383 . S
C832 C833 1.377 . S
C833 H817 0.930 . S
C833 C832 1.377 . S
C833 C834 1.379 . S
C834 H818 0.931 . S
C834 C828 1.383 . S
C834 C833 1.379 . S
H835 C829 0.959 . S
H836 C829 0.961 . S
H837 C829 0.960 . S
H838 C830 0.930 . S
H839 C831 0.929 . S
H840 C848 0.929 . S
H841 C850 0.930 . S
H842 C852 0.930 . S
H843 C855 0.929 . S
H844 C858 0.930 . S
H845 C860 0.960 . S
H846 C860 0.960 . S
H847 C860 0.960 . S
C848 H840 0.929 . S
C848 C849 1.377 . S
C848 C850 1.384 . S
C849 C848 1.377 . S
C849 C855 1.390 . S
C850 H841 0.930 . S
C850 C848 1.384 . S
C850 C851 1.372 . S
C851 C850 1.372 . S
C851 C852 1.400 . S
C851 C856 1.490 . S
C852 H842 0.930 . S
C852 C851 1.400 . S
C852 C855 1.386 . S
H853 C869 0.930 . S
H854 C870 0.931 . S
C855 H843 0.929 . S
C855 C849 1.390 . S
C855 C852 1.386 . S
C856 C851 1.490 . S
C856 C858 1.395 . S
C856 C859 1.403 . S
H857 C863 0.930 . S
C858 H844 0.930 . S
C858 C856 1.395 . S
C858 C861 1.403 . S
C859 C856 1.403 . S
C859 C860 1.524 . S
C859 C863 1.400 . S
C860 H845 0.960 . S
C860 H846 0.960 . S
C860 H847 0.960 . S
C860 C859 1.524 . S
C861 C858 1.403 . S
C861 C862 1.392 . S
C861 C865 1.495 . S
C862 C861 1.392 . S
C862 C863 1.385 . S
C862 C864 1.478 . S
C863 H857 0.930 . S
C863 C859 1.400 . S
C863 C862 1.385 . S
C864 C862 1.478 . S
C864 C866 1.381 . S
C864 C870 1.383 . S
C865 C861 1.495 . S
C865 H871 0.959 . S
C865 H872 0.961 . S
C865 H873 0.960 . S
C866 C864 1.381 . S
C866 C867 1.394 . S
C866 H874 0.930 . S
C867 C866 1.394 . S
C867 C868 1.383 . S
C867 H875 0.929 . S
C868 C867 1.383 . S
C868 C869 1.377 . S
C869 H853 0.930 . S
C869 C868 1.377 . S
C869 C870 1.379 . S
C870 H854 0.931 . S
C870 C864 1.383 . S
C870 C869 1.379 . S
H871 C865 0.959 . S
H872 C865 0.961 . S
H873 C865 0.960 . S
H874 C866 0.930 . S
H875 C867 0.929 . S
H876 C884 0.929 . S
H877 C886 0.930 . S
H878 C888 0.930 . S
H879 C891 0.929 . S
H880 C894 0.930 . S
H881 C896 0.960 . S
H882 C896 0.960 . S
H883 C896 0.960 . S
C884 H876 0.929 . S
C884 C885 1.377 . S
C884 C886 1.384 . S
C885 C884 1.377 . S
C885 C891 1.390 . S
C886 H877 0.930 . S
C886 C884 1.384 . S
C886 C887 1.372 . S
C887 C886 1.372 . S
C887 C888 1.400 . S
C887 C892 1.490 . S
C888 H878 0.930 . S
C888 C887 1.400 . S
C888 C891 1.386 . S
H889 C905 0.930 . S
H890 C906 0.931 . S
C891 H879 0.929 . S
C891 C885 1.390 . S
C891 C888 1.386 . S
C892 C887 1.490 . S
C892 C894 1.395 . S
C892 C895 1.403 . S
H893 C899 0.930 . S
C894 H880 0.930 . S
C894 C892 1.395 . S
C894 C897 1.403 . S
C895 C892 1.403 . S
C895 C896 1.524 . S
C895 C899 1.400 . S
C896 H881 0.960 . S
C896 H882 0.960 . S
C896 H883 0.960 . S
C896 C895 1.524 . S
C897 C894 1.403 . S
C897 C898 1.392 . S
C897 C901 1.495 . S
C898 C897 1.392 . S
C898 C899 1.385 . S
C898 C900 1.478 . S
C899 H893 0.930 . S
C899 C895 1.400 . S
C899 C898 1.385 . S
C900 C898 1.478 . S
C900 C902 1.381 . S
C900 C906 1.383 . S
C901 C897 1.495 . S
C901 H907 0.959 . S
C901 H908 0.961 . S
C901 H909 0.960 . S
C902 C900 1.381 . S
C902 C903 1.394 . S
C902 H910 0.930 . S
C903 C902 1.394 . S
C903 C904 1.383 . S
C903 H911 0.929 . S
C904 C903 1.383 . S
C904 C905 1.377 . S
C905 H889 0.930 . S
C905 C904 1.377 . S
C905 C906 1.379 . S
C906 H890 0.931 . S
C906 C900 1.383 . S
C906 C905 1.379 . S
H907 C901 0.959 . S
H908 C901 0.961 . S
H909 C901 0.960 . S
H910 C902 0.930 . S
H911 C903 0.929 . S
H912 C920 0.929 . S
H913 C922 0.930 . S
H914 C924 0.930 . S
H915 C927 0.929 . S
H916 C930 0.930 . S
H917 C932 0.960 . S
H918 C932 0.960 . S
H919 C932 0.960 . S
C920 H912 0.929 . S
C920 C921 1.377 . S
C920 C922 1.384 . S
C921 C920 1.377 . S
C921 C927 1.390 . S
C922 H913 0.930 . S
C922 C920 1.384 . S
C922 C923 1.372 . S
C923 C922 1.372 . S
C923 C924 1.400 . S
C923 C928 1.490 . S
C924 H914 0.930 . S
C924 C923 1.400 . S
C924 C927 1.386 . S
H925 C941 0.930 . S
H926 C942 0.931 . S
C927 H915 0.929 . S
C927 C921 1.390 . S
C927 C924 1.386 . S
C928 C923 1.490 . S
C928 C930 1.395 . S
C928 C931 1.403 . S
H929 C935 0.930 . S
C930 H916 0.930 . S
C930 C928 1.395 . S
C930 C933 1.403 . S
C931 C928 1.403 . S
C931 C932 1.524 . S
C931 C935 1.400 . S
C932 H917 0.960 . S
C932 H918 0.960 . S
C932 H919 0.960 . S
C932 C931 1.524 . S
C933 C930 1.403 . S
C933 C934 1.392 . S
C933 C937 1.495 . S
C934 C933 1.392 . S
C934 C935 1.385 . S
C934 C936 1.478 . S
C935 H929 0.930 . S
C935 C931 1.400 . S
C935 C934 1.385 . S
C936 C934 1.478 . S
C936 C938 1.381 . S
C936 C942 1.383 . S
C937 C933 1.495 . S
C937 H943 0.959 . S
C937 H944 0.961 . S
C937 H945 0.960 . S
C938 C936 1.381 . S
C938 C939 1.394 . S
C938 H946 0.930 . S
C939 C938 1.394 . S
C939 C940 1.383 . S
C939 H947 0.929 . S
C940 C939 1.383 . S
C940 C941 1.377 . S
C941 H925 0.930 . S
C941 C940 1.377 . S
C941 C942 1.379 . S
C942 H926 0.931 . S
C942 C936 1.383 . S
C942 C941 1.379 . S
H943 C937 0.959 . S
H944 C937 0.961 . S
H945 C937 0.960 . S
H946 C938 0.930 . S
H947 C939 0.929 . S
H948 C956 0.929 . S
H949 C958 0.930 . S
H950 C960 0.930 . S
H951 C963 0.929 . S
H952 C966 0.930 . S
H953 C968 0.960 . S
H954 C968 0.960 . S
H955 C968 0.960 . S
C956 H948 0.929 . S
C956 C957 1.377 . S
C956 C958 1.384 . S
C957 C956 1.377 . S
C957 C963 1.390 . S
C958 H949 0.930 . S
C958 C956 1.384 . S
C958 C959 1.372 . S
C959 C958 1.372 . S
C959 C960 1.400 . S
C959 C964 1.490 . S
C960 H950 0.930 . S
C960 C959 1.400 . S
C960 C963 1.386 . S
H961 C977 0.930 . S
H962 C978 0.931 . S
C963 H951 0.929 . S
C963 C957 1.390 . S
C963 C960 1.386 . S
C964 C959 1.490 . S
C964 C966 1.395 . S
C964 C967 1.403 . S
H965 C971 0.930 . S
C966 H952 0.930 . S
C966 C964 1.395 . S
C966 C969 1.403 . S
C967 C964 1.403 . S
C967 C968 1.524 . S
C967 C971 1.400 . S
C968 H953 0.960 . S
C968 H954 0.960 . S
C968 H955 0.960 . S
C968 C967 1.524 . S
C969 C966 1.403 . S
C969 C970 1.392 . S
C969 C973 1.495 . S
C970 C969 1.392 . S
C970 C971 1.385 . S
C970 C972 1.478 . S
C971 H965 0.930 . S
C971 C967 1.400 . S
C971 C970 1.385 . S
C972 C970 1.478 . S
C972 C974 1.381 . S
C972 C978 1.383 . S
C973 C969 1.495 . S
C973 H979 0.959 . S
C973 H980 0.961 . S
C973 H981 0.960 . S
C974 C972 1.381 . S
C974 C975 1.394 . S
C974 H982 0.930 . S
C975 C974 1.394 . S
C975 C976 1.383 . S
C975 H983 0.929 . S
C976 C975 1.383 . S
C976 C977 1.377 . S
C977 H961 0.930 . S
C977 C976 1.377 . S
C977 C978 1.379 . S
C978 H962 0.931 . S
C978 C972 1.383 . S
C978 C977 1.379 . S
H979 C973 0.959 . S
H980 C973 0.961 . S
H981 C973 0.960 . S
H982 C974 0.930 . S
H983 C975 0.929 . S
H984 C992 0.929 . S
H985 C994 0.930 . S
H986 C996 0.930 1_565 S
H987 C999 0.929 1_565 S
H988 C1002 0.930 . S
H989 C1004 0.960 . S
H990 C1004 0.960 . S
H991 C1004 0.960 . S
C992 H984 0.929 . S
C992 C993 1.377 . S
C992 C994 1.384 . S
C993 C992 1.377 . S
C993 C999 1.390 . S
C994 H985 0.930 . S
C994 C992 1.384 . S
C994 C995 1.372 . S
C995 C994 1.372 . S
C995 C996 1.400 . S
C995 C1000 1.490 . S
C996 H986 0.930 1_545 S
C996 C995 1.400 . S
C996 C999 1.386 . S
H997 C1013 0.930 1_565 S
H998 C1014 0.931 1_565 S
C999 H987 0.929 1_545 S
C999 C993 1.390 . S
C999 C996 1.386 . S
C1000 C995 1.490 . S
C1000 C1002 1.395 . S
C1000 C1003 1.403 . S
H1001 C1007 0.930 . S
C1002 H988 0.930 . S
C1002 C1000 1.395 . S
C1002 C1005 1.403 . S
C1003 C1000 1.403 . S
C1003 C1004 1.524 . S
C1003 C1007 1.400 . S
C1004 H989 0.960 . S
C1004 H990 0.960 . S
C1004 H991 0.960 . S
C1004 C1003 1.524 . S
C1005 C1002 1.403 . S
C1005 C1006 1.392 . S
C1005 C1009 1.495 . S
C1006 C1005 1.392 . S
C1006 C1007 1.385 . S
C1006 C1008 1.478 . S
C1007 H1001 0.930 . S
C1007 C1003 1.400 . S
C1007 C1006 1.385 . S
C1008 C1006 1.478 . S
C1008 C1010 1.381 . S
C1008 C1014 1.383 . S
C1009 C1005 1.495 . S
C1009 H1015 0.959 . S
C1009 H1016 0.961 . S
C1009 H1017 0.960 . S
C1010 C1008 1.381 . S
C1010 C1011 1.394 . S
C1010 H1018 0.930 . S
C1011 C1010 1.394 . S
C1011 C1012 1.383 . S
C1011 H1019 0.929 . S
C1012 C1011 1.383 . S
C1012 C1013 1.377 . S
C1013 H997 0.930 1_545 S
C1013 C1012 1.377 . S
C1013 C1014 1.379 . S
C1014 H998 0.931 1_545 S
C1014 C1008 1.383 . S
C1014 C1013 1.379 . S
H1015 C1009 0.959 . S
H1016 C1009 0.961 . S
H1017 C1009 0.960 . S
H1018 C1010 0.930 . S
H1019 C1011 0.929 . S
H1020 C1028 0.929 . S
H1021 C1030 0.930 . S
H1022 C1032 0.930 . S
H1023 C1035 0.929 . S
H1024 C1038 0.930 . S
H1025 C1040 0.960 . S
H1026 C1040 0.960 . S
H1027 C1040 0.960 . S
C1028 H1020 0.929 . S
C1028 C1029 1.377 . S
C1028 C1030 1.384 . S
C1029 C1028 1.377 . S
C1029 C1035 1.390 . S
C1030 H1021 0.930 . S
C1030 C1028 1.384 . S
C1030 C1031 1.372 . S
C1031 C1030 1.372 . S
C1031 C1032 1.400 . S
C1031 C1036 1.490 . S
C1032 H1022 0.930 . S
C1032 C1031 1.400 . S
C1032 C1035 1.386 . S
H1033 C1049 0.930 . S
H1034 C1050 0.931 . S
C1035 H1023 0.929 . S
C1035 C1029 1.390 . S
C1035 C1032 1.386 . S
C1036 C1031 1.490 . S
C1036 C1038 1.395 . S
C1036 C1039 1.403 . S
H1037 C1043 0.930 . S
C1038 H1024 0.930 . S
C1038 C1036 1.395 . S
C1038 C1041 1.403 . S
C1039 C1036 1.403 . S
C1039 C1040 1.524 . S
C1039 C1043 1.400 . S
C1040 H1025 0.960 . S
C1040 H1026 0.960 . S
C1040 H1027 0.960 . S
C1040 C1039 1.524 . S
C1041 C1038 1.403 . S
C1041 C1042 1.392 . S
C1041 C1045 1.495 . S
C1042 C1041 1.392 . S
C1042 C1043 1.385 . S
C1042 C1044 1.478 . S
C1043 H1037 0.930 . S
C1043 C1039 1.400 . S
C1043 C1042 1.385 . S
C1044 C1042 1.478 . S
C1044 C1046 1.381 . S
C1044 C1050 1.383 . S
C1045 C1041 1.495 . S
C1045 H1051 0.959 . S
C1045 H1052 0.961 . S
C1045 H1053 0.960 . S
C1046 C1044 1.381 . S
C1046 C1047 1.394 . S
C1046 H1054 0.930 . S
C1047 C1046 1.394 . S
C1047 C1048 1.383 . S
C1047 H1055 0.929 . S
C1048 C1047 1.383 . S
C1048 C1049 1.377 . S
C1049 H1033 0.930 . S
C1049 C1048 1.377 . S
C1049 C1050 1.379 . S
C1050 H1034 0.931 . S
C1050 C1044 1.383 . S
C1050 C1049 1.379 . S
H1051 C1045 0.959 . S
H1052 C1045 0.961 . S
H1053 C1045 0.960 . S
H1054 C1046 0.930 . S
H1055 C1047 0.929 . S
H1056 C1064 0.929 . S
H1057 C1066 0.930 . S
H1058 C1068 0.930 . S
H1059 C1071 0.929 . S
H1060 C1074 0.930 . S
H1061 C1076 0.960 . S
H1062 C1076 0.960 . S
H1063 C1076 0.960 . S
C1064 H1056 0.929 . S
C1064 C1065 1.377 . S
C1064 C1066 1.384 . S
C1065 C1064 1.377 . S
C1065 C1071 1.390 . S
C1066 H1057 0.930 . S
C1066 C1064 1.384 . S
C1066 C1067 1.372 . S
C1067 C1066 1.372 . S
C1067 C1068 1.400 . S
C1067 C1072 1.490 . S
C1068 H1058 0.930 . S
C1068 C1067 1.400 . S
C1068 C1071 1.386 . S
H1069 C1085 0.930 . S
H1070 C1086 0.931 . S
C1071 H1059 0.929 . S
C1071 C1065 1.390 . S
C1071 C1068 1.386 . S
C1072 C1067 1.490 . S
C1072 C1074 1.395 . S
C1072 C1075 1.403 . S
H1073 C1079 0.930 . S
C1074 H1060 0.930 . S
C1074 C1072 1.395 . S
C1074 C1077 1.403 . S
C1075 C1072 1.403 . S
C1075 C1076 1.524 . S
C1075 C1079 1.400 . S
C1076 H1061 0.960 . S
C1076 H1062 0.960 . S
C1076 H1063 0.960 . S
C1076 C1075 1.524 . S
C1077 C1074 1.403 . S
C1077 C1078 1.392 . S
C1077 C1081 1.495 . S
C1078 C1077 1.392 . S
C1078 C1079 1.385 . S
C1078 C1080 1.478 . S
C1079 H1073 0.930 . S
C1079 C1075 1.400 . S
C1079 C1078 1.385 . S
C1080 C1078 1.478 . S
C1080 C1082 1.381 . S
C1080 C1086 1.383 . S
C1081 C1077 1.495 . S
C1081 H1087 0.959 . S
C1081 H1088 0.961 . S
C1081 H1089 0.960 . S
C1082 C1080 1.381 . S
C1082 C1083 1.394 . S
C1082 H1090 0.930 . S
C1083 C1082 1.394 . S
C1083 C1084 1.383 . S
C1083 H1091 0.929 . S
C1084 C1083 1.383 . S
C1084 C1085 1.377 . S
C1085 H1069 0.930 . S
C1085 C1084 1.377 . S
C1085 C1086 1.379 . S
C1086 H1070 0.931 . S
C1086 C1080 1.383 . S
C1086 C1085 1.379 . S
H1087 C1081 0.959 . S
H1088 C1081 0.961 . S
H1089 C1081 0.960 . S
H1090 C1082 0.930 . S
H1091 C1083 0.929 . S
H1092 C1100 0.927 . S
H1093 C1102 0.930 . S
H1094 C1104 0.930 . S
H1095 C1107 0.929 . S
H1096 C1110 0.930 . S
H1097 C1112 0.960 . S
H1098 C1112 0.960 . S
H1099 C1112 0.960 . S
C1100 H1092 0.927 . S
C1100 C1101 1.380 1_545 S
C1100 C1102 1.384 . S
C1101 C1100 1.380 1_565 S
C1101 C1107 1.390 . S
C1102 H1093 0.930 . S
C1102 C1100 1.384 . S
C1102 C1103 1.372 1_545 S
C1103 C1102 1.372 1_565 S
C1103 C1104 1.400 . S
C1103 C1108 1.490 . S
C1104 H1094 0.930 . S
C1104 C1103 1.400 . S
C1104 C1107 1.386 . S
H1105 C1121 0.930 . S
H1106 C1122 0.931 . S
C1107 H1095 0.929 . S
C1107 C1101 1.390 . S
C1107 C1104 1.386 . S
C1108 C1103 1.490 . S
C1108 C1110 1.395 . S
C1108 C1111 1.403 . S
H1109 C1115 0.930 . S
C1110 H1096 0.930 . S
C1110 C1108 1.395 . S
C1110 C1113 1.403 . S
C1111 C1108 1.403 . S
C1111 C1112 1.524 . S
C1111 C1115 1.400 . S
C1112 H1097 0.960 . S
C1112 H1098 0.960 . S
C1112 H1099 0.960 . S
C1112 C1111 1.524 . S
C1113 C1110 1.403 . S
C1113 C1114 1.392 . S
C1113 C1117 1.495 . S
C1114 C1113 1.392 . S
C1114 C1115 1.385 . S
C1114 C1116 1.478 . S
C1115 H1109 0.930 . S
C1115 C1111 1.400 . S
C1115 C1114 1.385 . S
C1116 C1114 1.478 . S
C1116 C1118 1.381 1_565 S
C1116 C1122 1.383 . S
C1117 C1113 1.495 . S
C1117 H1123 0.959 . S
C1117 H1124 0.961 . S
C1117 H1125 0.960 1_565 S
C1118 C1116 1.381 1_545 S
C1118 C1119 1.394 . S
C1118 H1126 0.930 . S
C1119 C1118 1.394 . S
C1119 C1120 1.383 1_545 S
C1119 H1127 0.929 . S
C1120 C1119 1.383 1_565 S
C1120 C1121 1.377 . S
C1121 H1105 0.930 . S
C1121 C1120 1.377 . S
C1121 C1122 1.379 . S
C1122 H1106 0.931 . S
C1122 C1116 1.383 . S
C1122 C1121 1.379 . S
H1123 C1117 0.959 . S
H1124 C1117 0.961 . S
H1125 C1117 0.960 1_545 S
H1126 C1118 0.930 . S
H1127 C1119 0.929 . S
H1128 C1136 0.929 . S
H1129 C1138 0.930 . S
H1130 C1140 0.930 . S
H1131 C1143 0.929 . S
H1132 C1146 0.930 . S
H1133 C1148 0.960 . S
H1134 C1148 0.960 . S
H1135 C1148 0.960 . S
C1136 H1128 0.929 . S
C1136 C1137 1.377 . S
C1136 C1138 1.384 . S
C1137 C1136 1.377 . S
C1137 C1143 1.390 . S
C1138 H1129 0.930 . S
C1138 C1136 1.384 . S
C1138 C1139 1.372 . S
C1139 C1138 1.372 . S
C1139 C1140 1.400 . S
C1139 C1144 1.490 . S
C1140 H1130 0.930 . S
C1140 C1139 1.400 . S
C1140 C1143 1.386 . S
H1141 C1157 0.930 . S
H1142 C1158 0.931 . S
C1143 H1131 0.929 . S
C1143 C1137 1.390 . S
C1143 C1140 1.386 . S
C1144 C1139 1.490 . S
C1144 C1146 1.395 . S
C1144 C1147 1.403 . S
H1145 C1151 0.930 . S
C1146 H1132 0.930 . S
C1146 C1144 1.395 . S
C1146 C1149 1.403 . S
C1147 C1144 1.403 . S
C1147 C1148 1.524 . S
C1147 C1151 1.400 . S
C1148 H1133 0.960 . S
C1148 H1134 0.960 . S
C1148 H1135 0.960 . S
C1148 C1147 1.524 . S
C1149 C1146 1.403 . S
C1149 C1150 1.392 . S
C1149 C1153 1.495 . S
C1150 C1149 1.392 . S
C1150 C1151 1.385 . S
C1150 C1152 1.478 . S
C1151 H1145 0.930 . S
C1151 C1147 1.400 . S
C1151 C1150 1.385 . S
C1152 C1150 1.478 . S
C1152 C1154 1.381 . S
C1152 C1158 1.383 . S
C1153 C1149 1.495 . S
C1153 H1159 0.959 . S
C1153 H1160 0.961 . S
C1153 H1161 0.960 . S
C1154 C1152 1.381 . S
C1154 C1155 1.394 . S
C1154 H1162 0.930 . S
C1155 C1154 1.394 . S
C1155 C1156 1.383 . S
C1155 H1163 0.929 . S
C1156 C1155 1.383 . S
C1156 C1157 1.377 . S
C1157 H1141 0.930 . S
C1157 C1156 1.377 . S
C1157 C1158 1.379 . S
C1158 H1142 0.931 . S
C1158 C1152 1.383 . S
C1158 C1157 1.379 . S
H1159 C1153 0.959 . S
H1160 C1153 0.961 . S
H1161 C1153 0.960 . S
H1162 C1154 0.930 . S
H1163 C1155 0.929 . S
H1164 C1172 0.929 . S
H1165 C1174 0.930 1_455 S
H1166 C1176 0.930 . S
H1167 C1179 0.929 . S
H1168 C1182 0.930 . S
H1169 C1184 0.960 . S
H1170 C1184 0.960 . S
H1171 C1184 0.960 . S
C1172 H1164 0.929 . S
C1172 C1173 1.377 . S
C1172 C1174 1.384 . S
C1173 C1172 1.377 . S
C1173 C1179 1.390 . S
C1174 H1165 0.930 1_655 S
C1174 C1172 1.384 . S
C1174 C1175 1.372 . S
C1175 C1174 1.372 . S
C1175 C1176 1.400 . S
C1175 C1180 1.490 . S
C1176 H1166 0.930 . S
C1176 C1175 1.400 . S
C1176 C1179 1.386 . S
H1177 C1193 0.930 . S
H1178 C1194 0.931 . S
C1179 H1167 0.929 . S
C1179 C1173 1.390 . S
C1179 C1176 1.386 . S
C1180 C1175 1.490 . S
C1180 C1182 1.395 1_655 S
C1180 C1183 1.406 . S
H1181 C1187 0.930 . S
C1182 H1168 0.930 . S
C1182 C1180 1.395 1_455 S
C1182 C1185 1.403 . S
C1183 C1180 1.406 . S
C1183 C1184 1.534 . S
C1183 C1187 1.386 1_655 S
C1184 H1169 0.960 . S
C1184 H1170 0.960 . S
C1184 H1171 0.960 . S
C1184 C1183 1.534 . S
C1185 C1182 1.403 . S
C1185 C1186 1.392 . S
C1185 C1189 1.495 . S
C1186 C1185 1.392 . S
C1186 C1187 1.385 . S
C1186 C1188 1.478 . S
C1187 H1181 0.930 . S
C1187 C1183 1.386 1_455 S
C1187 C1186 1.385 . S
C1188 C1186 1.478 . S
C1188 C1190 1.381 . S
C1188 C1194 1.383 . S
C1189 C1185 1.495 . S
C1189 H1195 0.959 . S
C1189 H1196 0.961 . S
C1189 H1197 0.960 . S
C1190 C1188 1.381 . S
C1190 C1191 1.394 . S
C1190 H1198 0.930 . S
C1191 C1190 1.394 . S
C1191 C1192 1.383 . S
C1191 H1199 0.929 . S
C1192 C1191 1.383 . S
C1192 C1193 1.377 . S
C1193 H1177 0.930 . S
C1193 C1192 1.377 . S
C1193 C1194 1.379 . S
C1194 H1178 0.931 . S
C1194 C1188 1.383 . S
C1194 C1193 1.379 . S
H1195 C1189 0.959 . S
H1196 C1189 0.961 . S
H1197 C1189 0.960 . S
H1198 C1190 0.930 . S
H1199 C1191 0.929 . S
H1200 C1208 0.929 . S
H1201 C1210 0.930 . S
H1202 C1212 0.930 . S
H1203 C1215 0.929 . S
H1204 C1218 0.930 . S
H1205 C1220 0.960 . S
H1206 C1220 0.960 . S
H1207 C1220 0.960 . S
C1208 H1200 0.929 . S
C1208 C1209 1.377 . S
C1208 C1210 1.384 . S
C1209 C1208 1.377 . S
C1209 C1215 1.390 . S
C1210 H1201 0.930 . S
C1210 C1208 1.384 . S
C1210 C1211 1.372 . S
C1211 C1210 1.372 . S
C1211 C1212 1.400 . S
C1211 C1216 1.490 . S
C1212 H1202 0.930 . S
C1212 C1211 1.400 . S
C1212 C1215 1.386 . S
H1213 C1229 0.930 . S
H1214 C1230 0.931 . S
C1215 H1203 0.929 . S
C1215 C1209 1.390 . S
C1215 C1212 1.386 . S
C1216 C1211 1.490 . S
C1216 C1218 1.395 . S
C1216 C1219 1.403 . S
H1217 C1223 0.930 . S
C1218 H1204 0.930 . S
C1218 C1216 1.395 . S
C1218 C1221 1.403 . S
C1219 C1216 1.403 . S
C1219 C1220 1.524 . S
C1219 C1223 1.400 . S
C1220 H1205 0.960 . S
C1220 H1206 0.960 . S
C1220 H1207 0.960 . S
C1220 C1219 1.524 . S
C1221 C1218 1.403 . S
C1221 C1222 1.392 . S
C1221 C1225 1.495 . S
C1222 C1221 1.392 . S
C1222 C1223 1.385 . S
C1222 C1224 1.478 . S
C1223 H1217 0.930 . S
C1223 C1219 1.400 . S
C1223 C1222 1.385 . S
C1224 C1222 1.478 . S
C1224 C1226 1.381 . S
C1224 C1230 1.383 . S
C1225 C1221 1.495 . S
C1225 H1231 0.959 . S
C1225 H1232 0.961 . S
C1225 H1233 0.960 . S
C1226 C1224 1.381 . S
C1226 C1227 1.394 . S
C1226 H1234 0.930 . S
C1227 C1226 1.394 . S
C1227 C1228 1.383 . S
C1227 H1235 0.929 . S
C1228 C1227 1.383 . S
C1228 C1229 1.377 . S
C1229 H1213 0.930 . S
C1229 C1228 1.377 . S
C1229 C1230 1.379 . S
C1230 H1214 0.931 . S
C1230 C1224 1.383 . S
C1230 C1229 1.379 . S
H1231 C1225 0.959 . S
H1232 C1225 0.961 . S
H1233 C1225 0.960 . S
H1234 C1226 0.930 . S
H1235 C1227 0.929 . S
H1236 C1244 0.929 . S
H1237 C1246 0.930 . S
H1238 C1248 0.930 . S
H1239 C1251 0.929 . S
H1240 C1254 0.930 . S
H1241 C1256 0.960 . S
H1242 C1256 0.960 . S
H1243 C1256 0.960 . S
C1244 H1236 0.929 . S
C1244 C1245 1.377 1_655 S
C1244 C1246 1.384 . S
C1245 C1244 1.377 1_455 S
C1245 C1251 1.390 . S
C1246 H1237 0.930 . S
C1246 C1244 1.384 . S
C1246 C1247 1.372 . S
C1247 C1246 1.372 . S
C1247 C1248 1.400 1_655 S
C1247 C1252 1.490 . S
C1248 H1238 0.930 . S
C1248 C1247 1.400 1_455 S
C1248 C1251 1.386 . S
H1249 C1265 0.930 . S
H1250 C1266 0.931 . S
C1251 H1239 0.929 . S
C1251 C1245 1.390 . S
C1251 C1248 1.386 . S
C1252 C1247 1.490 . S
C1252 C1254 1.395 . S
C1252 C1255 1.403 1_655 S
H1253 C1259 0.930 1_455 S
C1254 H1240 0.930 . S
C1254 C1252 1.395 . S
C1254 C1257 1.403 . S
C1255 C1252 1.403 1_455 S
C1255 C1256 1.524 . S
C1255 C1259 1.400 1_455 S
C1256 H1241 0.960 . S
C1256 H1242 0.960 . S
C1256 H1243 0.960 . S
C1256 C1255 1.524 . S
C1257 C1254 1.403 . S
C1257 C1258 1.392 . S
C1257 C1261 1.495 . S
C1258 C1257 1.392 . S
C1258 C1259 1.385 . S
C1258 C1260 1.478 . S
C1259 H1253 0.930 1_655 S
C1259 C1255 1.400 1_655 S
C1259 C1258 1.385 . S
C1260 C1258 1.478 . S
C1260 C1262 1.381 . S
C1260 C1266 1.383 . S
C1261 C1257 1.495 . S
C1261 H1267 0.959 . S
C1261 H1268 0.961 . S
C1261 H1269 0.960 . S
C1262 C1260 1.381 . S
C1262 C1263 1.394 . S
C1262 H1270 0.930 . S
C1263 C1262 1.394 . S
C1263 C1264 1.383 . S
C1263 H1271 0.929 . S
C1264 C1263 1.383 . S
C1264 C1265 1.377 . S
C1265 H1249 0.930 . S
C1265 C1264 1.377 . S
C1265 C1266 1.379 . S
C1266 H1250 0.931 . S
C1266 C1260 1.383 . S
C1266 C1265 1.379 . S
H1267 C1261 0.959 . S
H1268 C1261 0.961 . S
H1269 C1261 0.960 . S
H1270 C1262 0.930 . S
H1271 C1263 0.929 . S
H1272 C1280 0.929 . S
H1273 C1282 0.930 . S
H1274 C1284 0.930 . S
H1275 C1287 0.929 . S
H1276 C1290 0.930 . S
H1277 C1292 0.960 . S
H1278 C1292 0.960 . S
H1279 C1292 0.960 . S
C1280 H1272 0.929 . S
C1280 C1281 1.377 . S
C1280 C1282 1.384 . S
C1281 C1280 1.377 . S
C1281 C1287 1.390 . S
C1282 H1273 0.930 . S
C1282 C1280 1.384 . S
C1282 C1283 1.372 . S
C1283 C1282 1.372 . S
C1283 C1284 1.400 . S
C1283 C1288 1.490 . S
C1284 H1274 0.930 . S
C1284 C1283 1.400 . S
C1284 C1287 1.386 . S
H1285 C1301 0.930 . S
H1286 C1302 0.931 . S
C1287 H1275 0.929 . S
C1287 C1281 1.390 . S
C1287 C1284 1.386 . S
C1288 C1283 1.490 . S
C1288 C1290 1.395 . S
C1288 C1291 1.403 . S
H1289 C1295 0.930 . S
C1290 H1276 0.930 . S
C1290 C1288 1.395 . S
C1290 C1293 1.403 . S
C1291 C1288 1.403 . S
C1291 C1292 1.524 . S
C1291 C1295 1.400 . S
C1292 H1277 0.960 . S
C1292 H1278 0.960 . S
C1292 H1279 0.960 . S
C1292 C1291 1.524 . S
C1293 C1290 1.403 . S
C1293 C1294 1.392 . S
C1293 C1297 1.495 . S
C1294 C1293 1.392 . S
C1294 C1295 1.385 . S
C1294 C1296 1.478 . S
C1295 H1289 0.930 . S
C1295 C1291 1.400 . S
C1295 C1294 1.385 . S
C1296 C1294 1.478 . S
C1296 C1298 1.381 . S
C1296 C1302 1.383 . S
C1297 C1293 1.495 . S
C1297 H1303 0.959 . S
C1297 H1304 0.961 . S
C1297 H1305 0.960 . S
C1298 C1296 1.381 . S
C1298 C1299 1.394 . S
C1298 H1306 0.930 . S
C1299 C1298 1.394 . S
C1299 C1300 1.383 . S
C1299 H1307 0.929 . S
C1300 C1299 1.383 . S
C1300 C1301 1.377 . S
C1301 H1285 0.930 . S
C1301 C1300 1.377 . S
C1301 C1302 1.379 . S
C1302 H1286 0.931 . S
C1302 C1296 1.383 . S
C1302 C1301 1.379 . S
H1303 C1297 0.959 . S
H1304 C1297 0.961 . S
H1305 C1297 0.960 . S
H1306 C1298 0.930 . S
H1307 C1299 0.929 . S
H1308 C1316 0.929 . S
H1309 C1318 0.930 . S
H1310 C1320 0.930 . S
H1311 C1323 0.939 . S
H1312 C1326 0.930 . S
H1313 C1328 0.960 . S
H1314 C1328 0.960 . S
H1315 C1328 0.960 . S
C1316 H1308 0.929 . S
C1316 C1317 1.377 . S
C1316 C1318 1.384 . S
C1317 C1316 1.377 . S
C1317 C1323 1.386 1_655 S
C1318 H1309 0.930 . S
C1318 C1316 1.384 . S
C1318 C1319 1.372 . S
C1319 C1318 1.372 . S
C1319 C1320 1.400 . S
C1319 C1324 1.490 . S
C1320 H1310 0.930 . S
C1320 C1319 1.400 . S
C1320 C1323 1.380 1_655 S
H1321 C1337 0.930 . S
H1322 C1338 0.931 . S
C1323 H1311 0.939 . S
C1323 C1317 1.386 1_455 S
C1323 C1320 1.380 1_455 S
C1324 C1319 1.490 . S
C1324 C1326 1.395 . S
C1324 C1327 1.403 . S
H1325 C1331 0.930 . S
C1326 H1312 0.930 . S
C1326 C1324 1.395 . S
C1326 C1329 1.403 . S
C1327 C1324 1.403 . S
C1327 C1328 1.524 . S
C1327 C1331 1.400 . S
C1328 H1313 0.960 . S
C1328 H1314 0.960 . S
C1328 H1315 0.960 . S
C1328 C1327 1.524 . S
C1329 C1326 1.403 . S
C1329 C1330 1.392 . S
C1329 C1333 1.495 . S
C1330 C1329 1.392 . S
C1330 C1331 1.385 . S
C1330 C1332 1.478 . S
C1331 H1325 0.930 . S
C1331 C1327 1.400 . S
C1331 C1330 1.385 . S
C1332 C1330 1.478 . S
C1332 C1334 1.381 . S
C1332 C1338 1.383 . S
C1333 C1329 1.495 . S
C1333 H1339 0.959 . S
C1333 H1340 0.961 . S
C1333 H1341 0.960 . S
C1334 C1332 1.381 . S
C1334 C1335 1.394 . S
C1334 H1342 0.930 . S
C1335 C1334 1.394 . S
C1335 C1336 1.383 . S
C1335 H1343 0.929 . S
C1336 C1335 1.383 . S
C1336 C1337 1.377 . S
C1337 H1321 0.930 . S
C1337 C1336 1.377 . S
C1337 C1338 1.379 . S
C1338 H1322 0.931 . S
C1338 C1332 1.383 . S
C1338 C1337 1.379 . S
H1339 C1333 0.959 . S
H1340 C1333 0.961 . S
H1341 C1333 0.960 . S
H1342 C1334 0.930 . S
H1343 C1335 0.929 . S
H1344 C1352 0.929 . S
H1345 C1354 0.930 . S
H1346 C1356 0.930 . S
H1347 C1359 0.929 . S
H1348 C1362 0.930 . S
H1349 C1364 0.960 . S
H1350 C1364 0.960 . S
H1351 C1364 0.960 . S
C1352 H1344 0.929 . S
C1352 C1353 1.377 . S
C1352 C1354 1.384 . S
C1353 C1352 1.377 . S
C1353 C1359 1.390 . S
C1354 H1345 0.930 . S
C1354 C1352 1.384 . S
C1354 C1355 1.372 . S
C1355 C1354 1.372 . S
C1355 C1356 1.400 . S
C1355 C1360 1.490 . S
C1356 H1346 0.930 . S
C1356 C1355 1.400 . S
C1356 C1359 1.386 . S
H1357 C1373 0.930 . S
H1358 C1374 0.931 . S
C1359 H1347 0.929 . S
C1359 C1353 1.390 . S
C1359 C1356 1.386 . S
C1360 C1355 1.490 . S
C1360 C1362 1.395 . S
C1360 C1363 1.403 . S
H1361 C1367 0.930 . S
C1362 H1348 0.930 . S
C1362 C1360 1.395 . S
C1362 C1365 1.403 . S
C1363 C1360 1.403 . S
C1363 C1364 1.524 . S
C1363 C1367 1.400 . S
C1364 H1349 0.960 . S
C1364 H1350 0.960 . S
C1364 H1351 0.960 . S
C1364 C1363 1.524 . S
C1365 C1362 1.403 . S
C1365 C1366 1.392 . S
C1365 C1369 1.495 . S
C1366 C1365 1.392 . S
C1366 C1367 1.385 . S
C1366 C1368 1.478 . S
C1367 H1361 0.930 . S
C1367 C1363 1.400 . S
C1367 C1366 1.385 . S
C1368 C1366 1.478 . S
C1368 C1370 1.381 . S
C1368 C1374 1.383 . S
C1369 C1365 1.495 . S
C1369 H1375 0.959 . S
C1369 H1376 0.961 . S
C1369 H1377 0.960 . S
C1370 C1368 1.381 . S
C1370 C1371 1.394 . S
C1370 H1378 0.930 . S
C1371 C1370 1.394 . S
C1371 C1372 1.383 . S
C1371 H1379 0.929 . S
C1372 C1371 1.383 . S
C1372 C1373 1.377 . S
C1373 H1357 0.930 . S
C1373 C1372 1.377 . S
C1373 C1374 1.379 . S
C1374 H1358 0.931 . S
C1374 C1368 1.383 . S
C1374 C1373 1.379 . S
H1375 C1369 0.959 . S
H1376 C1369 0.961 . S
H1377 C1369 0.960 . S
H1378 C1370 0.930 . S
H1379 C1371 0.929 . S
H1380 C1388 0.929 . S
H1381 C1390 0.930 . S
H1382 C1392 0.930 . S
H1383 C1395 0.929 . S
H1384 C1398 0.930 . S
H1385 C1400 0.960 . S
H1386 C1400 0.960 . S
H1387 C1400 0.960 . S
C1388 H1380 0.929 . S
C1388 C1389 1.377 . S
C1388 C1390 1.384 . S
C1389 C1388 1.377 . S
C1389 C1395 1.390 . S
C1390 H1381 0.930 . S
C1390 C1388 1.384 . S
C1390 C1391 1.372 . S
C1391 C1390 1.372 . S
C1391 C1392 1.400 . S
C1391 C1396 1.490 . S
C1392 H1382 0.930 . S
C1392 C1391 1.400 . S
C1392 C1395 1.386 . S
H1393 C1409 0.930 . S
H1394 C1410 0.931 . S
C1395 H1383 0.929 . S
C1395 C1389 1.390 . S
C1395 C1392 1.386 . S
C1396 C1391 1.490 . S
C1396 C1398 1.395 . S
C1396 C1399 1.403 . S
H1397 C1403 0.930 . S
C1398 H1384 0.930 . S
C1398 C1396 1.395 . S
C1398 C1401 1.403 . S
C1399 C1396 1.403 . S
C1399 C1400 1.524 . S
C1399 C1403 1.400 . S
C1400 H1385 0.960 . S
C1400 H1386 0.960 . S
C1400 H1387 0.960 . S
C1400 C1399 1.524 . S
C1401 C1398 1.403 . S
C1401 C1402 1.392 . S
C1401 C1405 1.495 . S
C1402 C1401 1.392 . S
C1402 C1403 1.385 . S
C1402 C1404 1.478 . S
C1403 H1397 0.930 . S
C1403 C1399 1.400 . S
C1403 C1402 1.385 . S
C1404 C1402 1.478 . S
C1404 C1406 1.381 . S
C1404 C1410 1.383 . S
C1405 C1401 1.495 . S
C1405 H1411 0.959 . S
C1405 H1412 0.961 . S
C1405 H1413 0.960 . S
C1406 C1404 1.381 . S
C1406 C1407 1.394 . S
C1406 H1414 0.930 . S
C1407 C1406 1.394 . S
C1407 C1408 1.383 . S
C1407 H1415 0.929 . S
C1408 C1407 1.383 . S
C1408 C1409 1.377 . S
C1409 H1393 0.930 . S
C1409 C1408 1.377 . S
C1409 C1410 1.379 . S
C1410 H1394 0.931 . S
C1410 C1404 1.383 . S
C1410 C1409 1.379 . S
H1411 C1405 0.959 . S
H1412 C1405 0.961 . S
H1413 C1405 0.960 . S
H1414 C1406 0.930 . S
H1415 C1407 0.929 . S
H1416 C1424 0.929 . S
H1417 C1426 0.930 . S
H1418 C1428 0.929 1_554 S
H1419 C1431 0.929 1_554 S
H1420 C1434 0.930 . S
H1421 C1436 0.960 . S
H1422 C1436 0.960 . S
H1423 C1436 0.960 . S
C1424 H1416 0.929 . S
C1424 C1425 1.377 . S
C1424 C1426 1.384 . S
C1425 C1424 1.377 . S
C1425 C1431 1.390 . S
C1426 H1417 0.930 . S
C1426 C1424 1.384 . S
C1426 C1427 1.372 . S
C1427 C1426 1.372 . S
C1427 C1428 1.400 . S
C1427 C1432 1.490 . S
C1428 H1418 0.929 1_556 S
C1428 C1427 1.400 . S
C1428 C1431 1.386 . S
H1429 C1445 0.930 . S
H1430 C1446 0.931 . S
C1431 H1419 0.929 1_556 S
C1431 C1425 1.390 . S
C1431 C1428 1.386 . S
C1432 C1427 1.490 . S
C1432 C1434 1.395 . S
C1432 C1435 1.403 . S
H1433 C1439 0.930 . S
C1434 H1420 0.930 . S
C1434 C1432 1.395 . S
C1434 C1437 1.403 . S
C1435 C1432 1.403 . S
C1435 C1436 1.524 . S
C1435 C1439 1.400 . S
C1436 H1421 0.960 . S
C1436 H1422 0.960 . S
C1436 H1423 0.960 . S
C1436 C1435 1.524 . S
C1437 C1434 1.403 . S
C1437 C1438 1.392 . S
C1437 C1441 1.495 . S
C1438 C1437 1.392 . S
C1438 C1439 1.385 . S
C1438 C1440 1.478 . S
C1439 H1433 0.930 . S
C1439 C1435 1.400 . S
C1439 C1438 1.385 . S
C1440 C1438 1.478 . S
C1440 C1442 1.381 . S
C1440 C1446 1.383 . S
C1441 C1437 1.495 . S
C1441 H1447 0.959 . S
C1441 H1448 0.961 . S
C1441 H1449 0.960 . S
C1442 C1440 1.381 . S
C1442 C1443 1.394 . S
C1442 H1450 0.930 . S
C1443 C1442 1.394 . S
C1443 C1444 1.383 . S
C1443 H1451 0.929 . S
C1444 C1443 1.383 . S
C1444 C1445 1.377 . S
C1445 H1429 0.930 . S
C1445 C1444 1.377 . S
C1445 C1446 1.379 . S
C1446 H1430 0.931 . S
C1446 C1440 1.383 . S
C1446 C1445 1.379 . S
H1447 C1441 0.959 . S
H1448 C1441 0.961 . S
H1449 C1441 0.960 . S
H1450 C1442 0.930 . S
H1451 C1443 0.929 . S
H1452 C1460 0.929 . S
H1453 C1462 0.930 . S
H1454 C1464 0.930 . S
H1455 C1467 0.929 . S
H1456 C1470 0.930 . S
H1457 C1472 0.960 . S
H1458 C1472 0.960 . S
H1459 C1472 0.960 . S
C1460 H1452 0.929 . S
C1460 C1461 1.377 . S
C1460 C1462 1.384 . S
C1461 C1460 1.377 . S
C1461 C1467 1.390 . S
C1462 H1453 0.930 . S
C1462 C1460 1.384 . S
C1462 C1463 1.372 . S
C1463 C1462 1.372 . S
C1463 C1464 1.400 . S
C1463 C1468 1.490 . S
C1464 H1454 0.930 . S
C1464 C1463 1.400 . S
C1464 C1467 1.386 . S
H1465 C1481 0.930 . S
H1466 C1482 0.931 . S
C1467 H1455 0.929 . S
C1467 C1461 1.390 . S
C1467 C1464 1.386 . S
C1468 C1463 1.490 . S
C1468 C1470 1.395 . S
C1468 C1471 1.403 . S
H1469 C1475 0.930 . S
C1470 H1456 0.930 . S
C1470 C1468 1.395 . S
C1470 C1473 1.403 . S
C1471 C1468 1.403 . S
C1471 C1472 1.524 . S
C1471 C1475 1.400 . S
C1472 H1457 0.960 . S
C1472 H1458 0.960 . S
C1472 H1459 0.960 . S
C1472 C1471 1.524 . S
C1473 C1470 1.403 . S
C1473 C1474 1.392 . S
C1473 C1477 1.495 . S
C1474 C1473 1.392 . S
C1474 C1475 1.385 . S
C1474 C1476 1.478 . S
C1475 H1469 0.930 . S
C1475 C1471 1.400 . S
C1475 C1474 1.385 . S
C1476 C1474 1.478 . S
C1476 C1478 1.381 . S
C1476 C1482 1.383 . S
C1477 C1473 1.495 . S
C1477 H1483 0.959 . S
C1477 H1484 0.961 . S
C1477 H1485 0.960 . S
C1478 C1476 1.381 . S
C1478 C1479 1.394 . S
C1478 H1486 0.930 . S
C1479 C1478 1.394 . S
C1479 C1480 1.383 . S
C1479 H1487 0.929 . S
C1480 C1479 1.383 . S
C1480 C1481 1.377 . S
C1481 H1465 0.930 . S
C1481 C1480 1.377 . S
C1481 C1482 1.379 . S
C1482 H1466 0.931 . S
C1482 C1476 1.383 . S
C1482 C1481 1.379 . S
H1483 C1477 0.959 . S
H1484 C1477 0.961 . S
H1485 C1477 0.960 . S
H1486 C1478 0.930 . S
H1487 C1479 0.929 . S
H1488 C1496 0.929 . S
H1489 C1498 0.930 . S
H1490 C1500 0.930 . S
H1491 C1503 0.929 . S
H1492 C1506 0.930 . S
H1493 C1508 0.960 . S
H1494 C1508 0.960 . S
H1495 C1508 0.960 . S
C1496 H1488 0.929 . S
C1496 C1497 1.377 . S
C1496 C1498 1.384 . S
C1497 C1496 1.377 . S
C1497 C1503 1.390 . S
C1498 H1489 0.930 . S
C1498 C1496 1.384 . S
C1498 C1499 1.372 . S
C1499 C1498 1.372 . S
C1499 C1500 1.400 . S
C1499 C1504 1.490 . S
C1500 H1490 0.930 . S
C1500 C1499 1.400 . S
C1500 C1503 1.386 . S
H1501 C1517 0.930 . S
H1502 C1518 0.931 . S
C1503 H1491 0.929 . S
C1503 C1497 1.390 . S
C1503 C1500 1.386 . S
C1504 C1499 1.490 . S
C1504 C1506 1.395 . S
C1504 C1507 1.403 . S
H1505 C1511 0.930 . S
C1506 H1492 0.930 . S
C1506 C1504 1.395 . S
C1506 C1509 1.403 . S
C1507 C1504 1.403 . S
C1507 C1508 1.524 . S
C1507 C1511 1.400 . S
C1508 H1493 0.960 . S
C1508 H1494 0.960 . S
C1508 H1495 0.960 . S
C1508 C1507 1.524 . S
C1509 C1506 1.403 . S
C1509 C1510 1.392 . S
C1509 C1513 1.495 . S
C1510 C1509 1.392 . S
C1510 C1511 1.385 . S
C1510 C1512 1.478 . S
C1511 H1505 0.930 . S
C1511 C1507 1.400 . S
C1511 C1510 1.385 . S
C1512 C1510 1.478 . S
C1512 C1514 1.381 . S
C1512 C1518 1.383 . S
C1513 C1509 1.495 . S
C1513 H1519 0.959 . S
C1513 H1520 0.961 . S
C1513 H1521 0.960 . S
C1514 C1512 1.381 . S
C1514 C1515 1.394 . S
C1514 H1522 0.930 . S
C1515 C1514 1.394 . S
C1515 C1516 1.383 . S
C1515 H1523 0.929 . S
C1516 C1515 1.383 . S
C1516 C1517 1.377 . S
C1517 H1501 0.930 . S
C1517 C1516 1.377 . S
C1517 C1518 1.379 . S
C1518 H1502 0.931 . S
C1518 C1512 1.383 . S
C1518 C1517 1.379 . S
H1519 C1513 0.959 . S
H1520 C1513 0.961 . S
H1521 C1513 0.960 . S
H1522 C1514 0.930 . S
H1523 C1515 0.929 . S
H1524 C1532 0.929 . S
H1525 C1534 0.930 . S
H1526 C1536 0.930 . S
H1527 C1539 0.929 1_554 S
H1528 C1542 0.930 . S
H1529 C1544 0.943 1_554 S
H1530 C1544 0.964 . S
H1531 C1544 0.940 1_554 S
C1532 H1524 0.929 . S
C1532 C1533 1.377 . S
C1532 C1534 1.384 . S
C1533 C1532 1.377 . S
C1533 C1539 1.390 . S
C1534 H1525 0.930 . S
C1534 C1532 1.384 . S
C1534 C1535 1.372 . S
C1535 C1534 1.372 . S
C1535 C1536 1.400 . S
C1535 C1540 1.490 . S
C1536 H1526 0.930 . S
C1536 C1535 1.400 . S
C1536 C1539 1.386 . S
H1537 C1553 0.930 . S
H1538 C1554 0.931 . S
C1539 H1527 0.929 1_556 S
C1539 C1533 1.390 . S
C1539 C1536 1.386 . S
C1540 C1535 1.490 . S
C1540 C1542 1.395 . S
C1540 C1543 1.403 . S
H1541 C1547 0.930 . S
C1542 H1528 0.930 . S
C1542 C1540 1.395 . S
C1542 C1545 1.403 . S
C1543 C1540 1.403 . S
C1543 C1544 1.559 . S
C1543 C1547 1.400 . S
C1544 H1529 0.943 1_556 S
C1544 H1530 0.964 . S
C1544 H1531 0.940 1_556 S
C1544 C1543 1.559 . S
C1545 C1542 1.403 . S
C1545 C1546 1.392 . S
C1545 C1549 1.495 . S
C1546 C1545 1.392 . S
C1546 C1547 1.385 . S
C1546 C1548 1.478 . S
C1547 H1541 0.930 . S
C1547 C1543 1.400 . S
C1547 C1546 1.385 . S
C1548 C1546 1.478 . S
C1548 C1550 1.381 . S
C1548 C1554 1.383 . S
C1549 C1545 1.495 . S
C1549 H1555 0.959 . S
C1549 H1556 0.961 . S
C1549 H1557 0.960 . S
C1550 C1548 1.381 . S
C1550 C1551 1.394 . S
C1550 H1558 0.930 . S
C1551 C1550 1.394 . S
C1551 C1552 1.383 . S
C1551 H1559 0.929 . S
C1552 C1551 1.383 . S
C1552 C1553 1.377 . S
C1553 H1537 0.930 . S
C1553 C1552 1.377 . S
C1553 C1554 1.379 . S
C1554 H1538 0.931 . S
C1554 C1548 1.383 . S
C1554 C1553 1.379 . S
H1555 C1549 0.959 . S
H1556 C1549 0.961 . S
H1557 C1549 0.960 . S
H1558 C1550 0.930 . S
H1559 C1551 0.929 . S
C273 C7 0.947 . S
C292 C29 0.935 . S
C309 C18 1.428 . S
C328 C40 1.525 . S
C345 C51 1.255 . S
C364 C73 1.301 . S
C381 C62 1.254 . S
C400 C84 1.247 . S
C417 C95 0.855 . S
C436 C139 0.839 . S
C453 C150 1.264 1_655 S
C472 C106 1.340 . S
C489 C117 0.513 . S
C508 C161 0.524 . S
C525 C172 1.332 . S
C544 C128 1.319 . S
C561 C216 1.548 . S
C580 C183 1.581 . S
C597 C238 1.534 . S
C616 C194 1.646 . S
C633 C205 0.473 . S
C652 C249 0.497 1_554 S
C669 C227 0.885 . S
C688 C260 0.886 . S
C705 C247 1.052 . S
C724 C5 1.276 . S
C741 C184 1.927 . S
C760 C19 1.833 . S
C777 C27 1.373 . S
C796 C261 1.545 . S
C813 C41 1.797 . S
C832 C236 1.463 . S
C849 C203 1.441 . S
C868 C49 1.349 . S
C885 C63 1.708 . S
C904 C217 1.719 . S
C921 C71 1.564 . S
C940 C228 1.749 . S
C957 C195 1.637 . S
C976 C85 1.602 . S
C993 C151 1.796 . S
C1012 C93 1.302 . S
C1029 C104 1.338 . S
C1048 C162 1.433 . S
C1065 C118 1.711 . S
C1084 C170 1.643 . S
C1101 C137 1.336 . S
C1120 C126 1.760 . S
C1137 C82 1.070 . S
C1156 C159 1.226 . S
C1173 C173 1.682 . S
C1192 C52 1.636 . S
C1209 C60 1.734 . S
C1228 C140 1.758 . S
C1245 C148 1.600 . S
C1264 C74 1.957 . S
C1281 C115 1.577 . S
C1300 C16 1.323 . S
C1317 C129 1.902 1_655 S
C1336 C30 1.881 . S
C1353 C38 1.810 . S
C1372 C96 1.828 . S
C1389 C8 1.487 . S
C1408 C107 1.470 . S
C1425 C239 1.660 . S
C1444 C225 1.483 . S
C1461 C192 1.646 . S
C1480 C250 1.639 . S
C1497 C181 1.846 . S
C1516 C206 1.889 . S
C1533 C258 1.491 . S
C1552 C214 1.621 . S
