# Generated by pormake.
# Topology wne, (6)-cn, num edge types: 1
# Building blocks:
#     Node 0, Type 0, BuildingBlock: KUMBOL_clean_sbu_1, # of connection points: 6
#     Node 1, Type 0, BuildingBlock: KUMBOL_clean_sbu_1, # of connection points: 6
#     Node 2, Type 0, BuildingBlock: KUMBOL_clean_sbu_1, # of connection points: 6
#     Node 3, Type 0, BuildingBlock: KUMBOL_clean_sbu_1, # of connection points: 6
#     Node 4, Type 0, BuildingBlock: KUMBOL_clean_sbu_1, # of connection points: 6
#     Node 5, Type 0, BuildingBlock: KUMBOL_clean_sbu_1, # of connection points: 6
#     Node 6, Type 0, BuildingBlock: KUMBOL_clean_sbu_1, # of connection points: 6
#     Node 7, Type 0, BuildingBlock: KUMBOL_clean_sbu_1, # of connection points: 6
#     Node 8, Type 0, BuildingBlock: KUMBOL_clean_sbu_1, # of connection points: 6
#     Node 9, Type 0, BuildingBlock: KUMBOL_clean_sbu_1, # of connection points: 6
#     Node 10, Type 0, BuildingBlock: KUMBOL_clean_sbu_1, # of connection points: 6
#     Node 11, Type 0, BuildingBlock: KUMBOL_clean_sbu_1, # of connection points: 6
#     Node 12, Type 0, BuildingBlock: KUMBOL_clean_sbu_1, # of connection points: 6
#     Node 13, Type 0, BuildingBlock: KUMBOL_clean_sbu_1, # of connection points: 6
#     Node 14, Type 0, BuildingBlock: KUMBOL_clean_sbu_1, # of connection points: 6
#     Node 15, Type 0, BuildingBlock: KUMBOL_clean_sbu_1, # of connection points: 6
#     Node 16, Type 0, BuildingBlock: KUMBOL_clean_sbu_1, # of connection points: 6
#     Node 17, Type 0, BuildingBlock: KUMBOL_clean_sbu_1, # of connection points: 6
#     Node 18, Type 0, BuildingBlock: KUMBOL_clean_sbu_1, # of connection points: 6
#     Node 19, Type 0, BuildingBlock: KUMBOL_clean_sbu_1, # of connection points: 6
#     Node 20, Type 0, BuildingBlock: KUMBOL_clean_sbu_1, # of connection points: 6
#     Node 21, Type 0, BuildingBlock: KUMBOL_clean_sbu_1, # of connection points: 6
#     Node 22, Type 0, BuildingBlock: KUMBOL_clean_sbu_1, # of connection points: 6
#     Node 23, Type 0, BuildingBlock: KUMBOL_clean_sbu_1, # of connection points: 6
#     Node 24, Type 0, BuildingBlock: KUMBOL_clean_sbu_1, # of connection points: 6
#     Node 25, Type 0, BuildingBlock: KUMBOL_clean_sbu_1, # of connection points: 6
#     Node 26, Type 0, BuildingBlock: KUMBOL_clean_sbu_1, # of connection points: 6
#     Node 27, Type 0, BuildingBlock: KUMBOL_clean_sbu_1, # of connection points: 6
#     Node 28, Type 0, BuildingBlock: KUMBOL_clean_sbu_1, # of connection points: 6
#     Node 29, Type 0, BuildingBlock: KUMBOL_clean_sbu_1, # of connection points: 6
#     Node 30, Type 0, BuildingBlock: KUMBOL_clean_sbu_1, # of connection points: 6
#     Node 31, Type 0, BuildingBlock: KUMBOL_clean_sbu_1, # of connection points: 6
#     Node 32, Type 0, BuildingBlock: KUMBOL_clean_sbu_1, # of connection points: 6
#     Node 33, Type 0, BuildingBlock: KUMBOL_clean_sbu_1, # of connection points: 6
#     Node 34, Type 0, BuildingBlock: KUMBOL_clean_sbu_1, # of connection points: 6
#     Node 35, Type 0, BuildingBlock: KUMBOL_clean_sbu_1, # of connection points: 6
#     Edge 36, Type (0, 0), BuildingBlock: KIFKEQ_clean_linker_1, # of connection points: 2
#     Edge 37, Type (0, 0), BuildingBlock: KIFKEQ_clean_linker_1, # of connection points: 2
#     Edge 38, Type (0, 0), BuildingBlock: KIFKEQ_clean_linker_1, # of connection points: 2
#     Edge 39, Type (0, 0), BuildingBlock: KIFKEQ_clean_linker_1, # of connection points: 2
#     Edge 40, Type (0, 0), BuildingBlock: KIFKEQ_clean_linker_1, # of connection points: 2
#     Edge 41, Type (0, 0), BuildingBlock: KIFKEQ_clean_linker_1, # of connection points: 2
#     Edge 42, Type (0, 0), BuildingBlock: KIFKEQ_clean_linker_1, # of connection points: 2
#     Edge 43, Type (0, 0), BuildingBlock: KIFKEQ_clean_linker_1, # of connection points: 2
#     Edge 44, Type (0, 0), BuildingBlock: KIFKEQ_clean_linker_1, # of connection points: 2
#     Edge 45, Type (0, 0), BuildingBlock: KIFKEQ_clean_linker_1, # of connection points: 2
#     Edge 46, Type (0, 0), BuildingBlock: KIFKEQ_clean_linker_1, # of connection points: 2
#     Edge 47, Type (0, 0), BuildingBlock: KIFKEQ_clean_linker_1, # of connection points: 2
#     Edge 48, Type (0, 0), BuildingBlock: KIFKEQ_clean_linker_1, # of connection points: 2
#     Edge 49, Type (0, 0), BuildingBlock: KIFKEQ_clean_linker_1, # of connection points: 2
#     Edge 50, Type (0, 0), BuildingBlock: KIFKEQ_clean_linker_1, # of connection points: 2
#     Edge 51, Type (0, 0), BuildingBlock: KIFKEQ_clean_linker_1, # of connection points: 2
#     Edge 52, Type (0, 0), BuildingBlock: KIFKEQ_clean_linker_1, # of connection points: 2
#     Edge 53, Type (0, 0), BuildingBlock: KIFKEQ_clean_linker_1, # of connection points: 2
#     Edge 54, Type (0, 0), BuildingBlock: KIFKEQ_clean_linker_1, # of connection points: 2
#     Edge 55, Type (0, 0), BuildingBlock: KIFKEQ_clean_linker_1, # of connection points: 2
#     Edge 56, Type (0, 0), BuildingBlock: KIFKEQ_clean_linker_1, # of connection points: 2
#     Edge 57, Type (0, 0), BuildingBlock: KIFKEQ_clean_linker_1, # of connection points: 2
#     Edge 58, Type (0, 0), BuildingBlock: KIFKEQ_clean_linker_1, # of connection points: 2
#     Edge 59, Type (0, 0), BuildingBlock: KIFKEQ_clean_linker_1, # of connection points: 2
#     Edge 60, Type (0, 0), BuildingBlock: KIFKEQ_clean_linker_1, # of connection points: 2
#     Edge 61, Type (0, 0), BuildingBlock: KIFKEQ_clean_linker_1, # of connection points: 2
#     Edge 62, Type (0, 0), BuildingBlock: KIFKEQ_clean_linker_1, # of connection points: 2
#     Edge 63, Type (0, 0), BuildingBlock: KIFKEQ_clean_linker_1, # of connection points: 2
#     Edge 64, Type (0, 0), BuildingBlock: KIFKEQ_clean_linker_1, # of connection points: 2
#     Edge 65, Type (0, 0), BuildingBlock: KIFKEQ_clean_linker_1, # of connection points: 2
#     Edge 66, Type (0, 0), BuildingBlock: KIFKEQ_clean_linker_1, # of connection points: 2
#     Edge 67, Type (0, 0), BuildingBlock: KIFKEQ_clean_linker_1, # of connection points: 2
#     Edge 68, Type (0, 0), BuildingBlock: KIFKEQ_clean_linker_1, # of connection points: 2
#     Edge 69, Type (0, 0), BuildingBlock: KIFKEQ_clean_linker_1, # of connection points: 2
#     Edge 70, Type (0, 0), BuildingBlock: KIFKEQ_clean_linker_1, # of connection points: 2
#     Edge 71, Type (0, 0), BuildingBlock: KIFKEQ_clean_linker_1, # of connection points: 2
#     Edge 72, Type (0, 0), BuildingBlock: KIFKEQ_clean_linker_1, # of connection points: 2
#     Edge 73, Type (0, 0), BuildingBlock: KIFKEQ_clean_linker_1, # of connection points: 2
#     Edge 74, Type (0, 0), BuildingBlock: KIFKEQ_clean_linker_1, # of connection points: 2
#     Edge 75, Type (0, 0), BuildingBlock: KIFKEQ_clean_linker_1, # of connection points: 2
#     Edge 76, Type (0, 0), BuildingBlock: KIFKEQ_clean_linker_1, # of connection points: 2
#     Edge 77, Type (0, 0), BuildingBlock: KIFKEQ_clean_linker_1, # of connection points: 2
#     Edge 78, Type (0, 0), BuildingBlock: KIFKEQ_clean_linker_1, # of connection points: 2
#     Edge 79, Type (0, 0), BuildingBlock: KIFKEQ_clean_linker_1, # of connection points: 2
#     Edge 80, Type (0, 0), BuildingBlock: KIFKEQ_clean_linker_1, # of connection points: 2
#     Edge 81, Type (0, 0), BuildingBlock: KIFKEQ_clean_linker_1, # of connection points: 2
#     Edge 82, Type (0, 0), BuildingBlock: KIFKEQ_clean_linker_1, # of connection points: 2
#     Edge 83, Type (0, 0), BuildingBlock: KIFKEQ_clean_linker_1, # of connection points: 2
#     Edge 84, Type (0, 0), BuildingBlock: KIFKEQ_clean_linker_1, # of connection points: 2
#     Edge 85, Type (0, 0), BuildingBlock: KIFKEQ_clean_linker_1, # of connection points: 2
#     Edge 86, Type (0, 0), BuildingBlock: KIFKEQ_clean_linker_1, # of connection points: 2
#     Edge 87, Type (0, 0), BuildingBlock: KIFKEQ_clean_linker_1, # of connection points: 2
#     Edge 88, Type (0, 0), BuildingBlock: KIFKEQ_clean_linker_1, # of connection points: 2
#     Edge 89, Type (0, 0), BuildingBlock: KIFKEQ_clean_linker_1, # of connection points: 2
#     Edge 90, Type (0, 0), BuildingBlock: KIFKEQ_clean_linker_1, # of connection points: 2
#     Edge 91, Type (0, 0), BuildingBlock: KIFKEQ_clean_linker_1, # of connection points: 2
#     Edge 92, Type (0, 0), BuildingBlock: KIFKEQ_clean_linker_1, # of connection points: 2
#     Edge 93, Type (0, 0), BuildingBlock: KIFKEQ_clean_linker_1, # of connection points: 2
#     Edge 94, Type (0, 0), BuildingBlock: KIFKEQ_clean_linker_1, # of connection points: 2
#     Edge 95, Type (0, 0), BuildingBlock: KIFKEQ_clean_linker_1, # of connection points: 2
#     Edge 96, Type (0, 0), BuildingBlock: KIFKEQ_clean_linker_1, # of connection points: 2
#     Edge 97, Type (0, 0), BuildingBlock: KIFKEQ_clean_linker_1, # of connection points: 2
#     Edge 98, Type (0, 0), BuildingBlock: KIFKEQ_clean_linker_1, # of connection points: 2
#     Edge 99, Type (0, 0), BuildingBlock: KIFKEQ_clean_linker_1, # of connection points: 2
#     Edge 100, Type (0, 0), BuildingBlock: KIFKEQ_clean_linker_1, # of connection points: 2
#     Edge 101, Type (0, 0), BuildingBlock: KIFKEQ_clean_linker_1, # of connection points: 2
#     Edge 102, Type (0, 0), BuildingBlock: KIFKEQ_clean_linker_1, # of connection points: 2
#     Edge 103, Type (0, 0), BuildingBlock: KIFKEQ_clean_linker_1, # of connection points: 2
#     Edge 104, Type (0, 0), BuildingBlock: KIFKEQ_clean_linker_1, # of connection points: 2
#     Edge 105, Type (0, 0), BuildingBlock: KIFKEQ_clean_linker_1, # of connection points: 2
#     Edge 106, Type (0, 0), BuildingBlock: KIFKEQ_clean_linker_1, # of connection points: 2
#     Edge 107, Type (0, 0), BuildingBlock: KIFKEQ_clean_linker_1, # of connection points: 2
#     Edge 108, Type (0, 0), BuildingBlock: KIFKEQ_clean_linker_1, # of connection points: 2
#     Edge 109, Type (0, 0), BuildingBlock: KIFKEQ_clean_linker_1, # of connection points: 2
#     Edge 110, Type (0, 0), BuildingBlock: KIFKEQ_clean_linker_1, # of connection points: 2
#     Edge 111, Type (0, 0), BuildingBlock: KIFKEQ_clean_linker_1, # of connection points: 2
#     Edge 112, Type (0, 0), BuildingBlock: KIFKEQ_clean_linker_1, # of connection points: 2
#     Edge 113, Type (0, 0), BuildingBlock: KIFKEQ_clean_linker_1, # of connection points: 2
#     Edge 114, Type (0, 0), BuildingBlock: KIFKEQ_clean_linker_1, # of connection points: 2
#     Edge 115, Type (0, 0), BuildingBlock: KIFKEQ_clean_linker_1, # of connection points: 2
#     Edge 116, Type (0, 0), BuildingBlock: KIFKEQ_clean_linker_1, # of connection points: 2
#     Edge 117, Type (0, 0), BuildingBlock: KIFKEQ_clean_linker_1, # of connection points: 2
#     Edge 118, Type (0, 0), BuildingBlock: KIFKEQ_clean_linker_1, # of connection points: 2
#     Edge 119, Type (0, 0), BuildingBlock: KIFKEQ_clean_linker_1, # of connection points: 2
#     Edge 120, Type (0, 0), BuildingBlock: KIFKEQ_clean_linker_1, # of connection points: 2
#     Edge 121, Type (0, 0), BuildingBlock: KIFKEQ_clean_linker_1, # of connection points: 2
#     Edge 122, Type (0, 0), BuildingBlock: KIFKEQ_clean_linker_1, # of connection points: 2
#     Edge 123, Type (0, 0), BuildingBlock: KIFKEQ_clean_linker_1, # of connection points: 2
#     Edge 124, Type (0, 0), BuildingBlock: KIFKEQ_clean_linker_1, # of connection points: 2
#     Edge 125, Type (0, 0), BuildingBlock: KIFKEQ_clean_linker_1, # of connection points: 2
#     Edge 126, Type (0, 0), BuildingBlock: KIFKEQ_clean_linker_1, # of connection points: 2
#     Edge 127, Type (0, 0), BuildingBlock: KIFKEQ_clean_linker_1, # of connection points: 2
#     Edge 128, Type (0, 0), BuildingBlock: KIFKEQ_clean_linker_1, # of connection points: 2
#     Edge 129, Type (0, 0), BuildingBlock: KIFKEQ_clean_linker_1, # of connection points: 2
#     Edge 130, Type (0, 0), BuildingBlock: KIFKEQ_clean_linker_1, # of connection points: 2
#     Edge 131, Type (0, 0), BuildingBlock: KIFKEQ_clean_linker_1, # of connection points: 2
#     Edge 132, Type (0, 0), BuildingBlock: KIFKEQ_clean_linker_1, # of connection points: 2
#     Edge 133, Type (0, 0), BuildingBlock: KIFKEQ_clean_linker_1, # of connection points: 2
#     Edge 134, Type (0, 0), BuildingBlock: KIFKEQ_clean_linker_1, # of connection points: 2
#     Edge 135, Type (0, 0), BuildingBlock: KIFKEQ_clean_linker_1, # of connection points: 2
#     Edge 136, Type (0, 0), BuildingBlock: KIFKEQ_clean_linker_1, # of connection points: 2
#     Edge 137, Type (0, 0), BuildingBlock: KIFKEQ_clean_linker_1, # of connection points: 2
#     Edge 138, Type (0, 0), BuildingBlock: KIFKEQ_clean_linker_1, # of connection points: 2
#     Edge 139, Type (0, 0), BuildingBlock: KIFKEQ_clean_linker_1, # of connection points: 2
#     Edge 140, Type (0, 0), BuildingBlock: KIFKEQ_clean_linker_1, # of connection points: 2
#     Edge 141, Type (0, 0), BuildingBlock: KIFKEQ_clean_linker_1, # of connection points: 2
#     Edge 142, Type (0, 0), BuildingBlock: KIFKEQ_clean_linker_1, # of connection points: 2
#     Edge 143, Type (0, 0), BuildingBlock: KIFKEQ_clean_linker_1, # of connection points: 2
# Relax obj value: 0.297
# Max RMSD: 0.236
# Mean RMSD: 0.235
data_MOF--net-wne--node1-KUMBOL_clean_sbu_1--edge1-KIFKEQ_clean_linker_1
_symmetry_space_group_name_H-M    P1
_symmetry_Int_Tables_number       1
_symmetry_cell_setting            triclinic
loop_
_symmetry_equiv_pos_as_xyz
'x, y, z'
_cell_length_a     83.791191
_cell_length_b     83.770526
_cell_length_c     37.536302
_cell_angle_alpha  90.155624
_cell_angle_beta   89.893053
_cell_angle_gamma 119.99757
loop_
_atom_site_label
_atom_site_type_symbol
_atom_site_fract_x
_atom_site_fract_y
_atom_site_fract_z
_atom_type_partial_charge
C0 C 0.23505 0.16691 0.08616 0.0
C1 C 0.22968 0.16929 0.02333 0.0
C2 C 0.24189 0.17345 0.05222 0.0
C3 C 0.21061 0.15827 0.02884 0.0
C4 C 0.21589 0.15592 0.09177 0.0
C5 C 0.20374 0.15158 0.06293 0.0
N6 N 0.24707 0.17139 0.11372 0.0
C7 C 0.24091 0.16513 0.14736 0.0
C8 C 0.20947 0.14961 0.12624 0.0
C9 C 0.22203 0.15424 0.15414 0.0
Gd10 Gd 0.3115 0.24134 0.1094 0.0
Gd11 Gd 0.27837 0.18871 0.09885 0.0
N12 N 0.26043 0.18439 0.04773 0.0
C13 C 0.23697 0.17642 0.98973 0.0
C14 C 0.26761 0.19102 1.01483 0.0
C15 C 0.25601 0.1873 0.98548 0.0
H16 H 0.28221 0.1991 1.01086 0.0
H17 H 0.26178 0.19274 0.95952 0.0
H18 H 0.30472 0.22969 0.19724 0.0
H19 H 0.25055 0.16804 0.16886 0.0
H20 H 0.32327 0.2325 0.24962 0.0
H21 H 0.22803 0.17357 0.9669 0.0
H22 H 0.20105 0.1549 1.00692 0.0
H23 H 0.34158 0.2594 0.04143 0.0
H24 H 0.19486 0.14109 0.13156 0.0
H25 H 0.2172 0.14923 0.18078 0.0
H26 H 0.3854 0.2634 0.2065 0.0
H27 H 0.18899 0.14312 0.06674 0.0
H28 H 0.39565 0.27792 0.08238 0.0
H29 H 0.37501 0.2734 0.03164 0.0
N30 N 0.3431 0.25523 0.09694 0.0
C31 C 0.35422 0.25785 0.12537 0.0
C32 C 0.35037 0.26087 0.06367 0.0
C33 C 0.38094 0.27162 0.08683 0.0
C34 C 0.36934 0.26904 0.05809 0.0
C35 C 0.37346 0.26604 0.12096 0.0
H36 H 0.39939 0.27437 0.14757 0.0
N37 N 0.32754 0.24284 0.16199 0.0
C38 C 0.34627 0.25168 0.15884 0.0
C39 C 0.34904 0.24653 0.22132 0.0
C40 C 0.35746 0.25353 0.1884 0.0
C41 C 0.31935 0.23629 0.19424 0.0
C42 C 0.32991 0.23792 0.22424 0.0
O43 O 0.26454 0.20594 0.08882 0.0
O44 O 0.28801 0.23391 0.0697 0.0
O45 O 0.30816 0.26179 0.13867 0.0
O46 O 0.32379 0.26924 0.08928 0.0
O47 O 0.30474 0.20329 0.06036 0.0
O48 O 0.31004 0.23261 0.05184 0.0
O49 O 0.32358 0.222 0.11737 0.0
O50 O 0.29958 0.19675 0.14215 0.0
O51 O 0.27943 0.16726 0.06626 0.0
O52 O 0.27285 0.16236 0.1216 0.0
O53 O 0.28631 0.23158 0.14579 0.0
O54 O 0.27317 0.20008 0.15385 0.0
C55 C 0.27024 0.2221 0.07371 0.0
C56 C 0.31312 0.21929 0.04226 0.0
C57 C 0.33098 0.29292 0.13159 0.0
C58 C 0.33503 0.32294 0.14727 0.0
C59 C 0.36166 0.31855 0.1415 0.0
C60 C 0.35009 0.30014 0.13211 0.0
C61 C 0.35429 0.33003 0.14816 0.0
C62 C 0.32359 0.30393 0.14166 0.0
C63 C 0.31825 0.27488 0.11641 0.0
C64 C 0.37663 0.2619 0.18408 0.0
C65 C 0.3846 0.26813 0.1505 0.0
H66 H 0.35716 0.24762 0.24459 0.0
C67 C 0.31725 0.2066 0.13578 0.0
C68 C 0.27479 0.21644 0.16312 0.0
C69 C 0.26056 0.13522 0.08401 0.0
C70 C 0.2512 0.10379 0.06009 0.0
C71 C 0.2292 0.10966 0.09167 0.0
C72 C 0.24252 0.12805 0.09686 0.0
C73 C 0.23343 0.09774 0.07354 0.0
C74 C 0.26496 0.12278 0.06564 0.0
C75 C 0.27456 0.15525 0.09186 0.0
H76 H 0.37644 0.32423 0.1415 0.0
H77 H 0.35606 0.29184 0.12431 0.0
H78 H 0.36386 0.34456 0.15185 0.0
H79 H 0.30874 0.29774 0.14227 0.0
H80 H 0.21543 0.10456 0.10202 0.0
H81 H 0.2386 0.13655 0.11158 0.0
H82 H 0.22265 0.08351 0.07022 0.0
H83 H 0.2788 0.1278 0.05568 0.0
C84 C 0.87643 0.07429 0.09069 0.0
C85 C 0.87833 0.06718 0.02863 0.0
C86 C 0.87278 0.07541 0.05504 0.0
C87 C 0.88672 0.05698 0.03874 0.0
C88 C 0.88586 0.06499 0.10073 0.0
C89 C 0.89047 0.05588 0.07472 0.0
N90 N 0.87257 0.08395 0.11499 0.0
C91 C 0.87903 0.08601 0.14913 0.0
C92 C 0.89128 0.06595 0.13628 0.0
C93 C 0.88809 0.07674 0.16046 0.0
Gd94 Gd 0.80582 0.08452 0.11037 0.0
Gd95 Gd 0.8573 0.09909 0.09306 0.0
N96 N 0.86502 0.08569 0.04598 0.0
C97 C 0.87595 0.07006 0.99275 0.0
C98 C 0.86359 0.0894 1.01103 0.0
C99 C 0.86877 0.08141 0.98393 0.0
H100 H 0.85811 0.09824 1.00419 0.0
H101 H 0.86727 0.08405 0.95628 0.0
H102 H 0.82775 0.0909 0.19359 0.0
H103 H 0.87689 0.09464 0.16779 0.0
H104 H 0.8269 0.10288 0.25151 0.0
H105 H 0.88007 0.06399 0.9717 0.0
H106 H 0.89092 0.05042 1.01886 0.0
H107 H 0.7931 0.10666 0.05417 0.0
H108 H 0.89858 0.05902 0.145 0.0
H109 H 0.89278 0.07808 0.18772 0.0
H110 H 0.79396 0.13492 0.23321 0.0
H111 H 0.89758 0.04855 0.08199 0.0
H112 H 0.7782 0.1408 0.11365 0.0
H113 H 0.78151 0.12851 0.05584 0.0
N114 N 0.7966 0.10674 0.11004 0.0
C115 C 0.79506 0.11342 0.14202 0.0
C116 C 0.79193 0.1121 0.07936 0.0
C117 C 0.78332 0.13122 0.11297 0.0
C118 C 0.78525 0.12439 0.0803 0.0
C119 C 0.7884 0.12591 0.14431 0.0
H120 H 0.78232 0.14261 0.17982 0.0
N121 N 0.80936 0.0981 0.16835 0.0
C122 C 0.80154 0.10892 0.17211 0.0
C123 C 0.81013 0.11413 0.23439 0.0
C124 C 0.80163 0.11708 0.20524 0.0
C125 C 0.81913 0.09678 0.19633 0.0
C126 C 0.81928 0.1043 0.22966 0.0
O127 O 0.83703 0.07347 0.06135 0.0
O128 O 0.81037 0.06051 0.09443 0.0
O129 O 0.77864 0.06557 0.13204 0.0
O130 O 0.78169 0.07415 0.0771 0.0
O131 O 0.84384 0.11094 0.05243 0.0
O132 O 0.81354 0.08846 0.05177 0.0
O133 O 0.82705 0.11517 0.10761 0.0
O134 O 0.85007 0.11385 0.13572 0.0
O135 O 0.87777 0.12242 0.0607 0.0
O136 O 0.88455 0.11953 0.11383 0.0
O137 O 0.81267 0.06757 0.148 0.0
O138 O 0.84405 0.0778 0.14315 0.0
C139 C 0.82166 0.05886 0.07204 0.0
C140 C 0.82708 0.10337 0.03733 0.0
C141 C 0.76214 0.04275 0.08838 0.0
C142 C 0.74228 1.00996 0.10044 0.0
C143 C 0.75738 0.02012 0.04281 0.0
C144 C 0.76537 0.03839 0.0538 0.0
C145 C 0.74585 1.00599 0.06577 0.0
C146 C 0.75087 0.02846 0.11171 0.0
C147 C 0.77115 0.06209 0.1005 0.0
C148 C 0.79412 0.12873 0.20793 0.0
C149 C 0.78754 0.13314 0.17753 0.0
H150 H 0.81055 0.12021 0.26014 0.0
C151 C 0.84178 0.12318 0.12775 0.0
C152 C 0.8273 0.06665 0.15835 0.0
C153 C 0.91024 0.13438 0.07285 0.0
C154 C 0.94245 0.157 0.05286 0.0
C155 C 0.9333 0.125 0.06547 0.0
C156 C 0.91552 0.12094 0.0744 0.0
C157 C 0.94655 0.1427 0.055 0.0
C158 C 0.92396 0.1527 0.0617 0.0
C159 C 0.89075 0.12896 0.08452 0.0
H160 H 0.7598 1.01691 1.01608 0.0
H161 H 0.77412 0.04904 0.03511 0.0
H162 H 0.73903 0.99204 0.05554 0.0
H163 H 0.74849 0.03183 0.13838 0.0
H164 H 0.93694 0.11431 0.06708 0.0
H165 H 0.90593 0.10718 0.08313 0.0
H166 H 0.96026 0.14529 0.04863 0.0
H167 H 0.92043 0.16348 0.06066 0.0
C168 C 0.97613 0.81442 0.08487 0.0
C169 C 0.98236 0.82107 0.02174 0.0
C170 C 0.9742 0.8083 0.04978 0.0
C171 C 0.99343 0.8399 0.02954 0.0
C172 C 0.98655 0.83346 0.09254 0.0
C173 C 0.99558 0.84607 0.06484 0.0
N174 N 0.96665 0.802 0.11102 0.0
C175 C 0.96584 0.80792 0.14467 0.0
C176 C 0.98692 0.83938 0.12759 0.0
C177 C 0.97631 0.82658 0.15364 0.0
Gd178 Gd 0.96396 0.73388 0.11012 0.0
Gd179 Gd 0.9497 0.77098 0.09235 0.0
N180 N 0.96344 0.78998 0.04284 0.0
C181 C 0.97864 0.8146 0.98657 0.0
C182 C 0.95877 0.78375 1.0086 0.0
C183 C 0.96658 0.7959 0.97999 0.0
H184 H 0.94922 0.76936 1.00347 0.0
H185 H 0.9632 0.79086 0.9529 0.0
H186 H 0.96051 0.74475 0.19792 0.0
H187 H 0.95705 0.7982 0.16467 0.0
H188 H 0.94394 0.7287 0.25136 0.0
H189 H 0.98459 0.82399 0.96433 0.0
H190 H 0.99997 0.84987 1.00836 0.0
H191 H 0.94729 0.70202 0.04585 0.0
H192 H 0.99477 0.85387 0.1345 0.0
H193 H 0.97594 0.8311 0.18051 0.0
H194 H 0.90685 0.66585 0.21505 0.0
H195 H 1.00372 0.86071 0.07032 0.0
H196 H 0.90808 0.65065 0.09257 0.0
H197 H 0.92501 0.66884 0.03971 0.0
N198 N 0.94216 0.70288 0.1011 0.0
C199 C 0.93348 0.69309 0.13077 0.0
C200 C 0.93953 0.69437 0.06886 0.0
C201 C 0.9177 0.66528 0.09534 0.0
C202 C 0.92714 0.67551 0.0654 0.0
C203 C 0.9208 0.67401 0.12852 0.0
H204 H 0.90166 0.64963 0.15793 0.0
N205 N 0.94865 0.72088 0.16461 0.0
C206 C 0.93667 0.70232 0.16328 0.0
C207 C 0.92961 0.70218 0.22584 0.0
C208 C 0.92687 0.69254 0.19391 0.0
C209 C 0.95128 0.73025 0.19593 0.0
C210 C 0.9418 0.7211 0.22678 0.0
O211 O 0.97501 0.77496 0.06102 0.0
O212 O 0.98824 0.76245 0.09628 0.0
O213 O 0.97943 0.72365 0.13909 0.0
O214 O 0.97836 0.7226 0.08037 0.0
O215 O 0.93726 0.74493 0.05367 0.0
O216 O 0.95948 0.73661 0.05124 0.0
O217 O 0.93342 0.7259 0.1111 0.0
O218 O 0.93431 0.75082 0.13709 0.0
O219 O 0.92256 0.76192 0.06795 0.0
O220 O 0.93535 0.78681 0.09806 0.0
O221 O 0.98052 0.75803 0.1471 0.0
O222 O 0.96763 0.77696 0.14657 0.0
C223 C 0.98981 0.77502 0.07319 0.0
C224 C 0.94442 0.7355 0.03802 0.0
C225 C 0.99535 0.71014 0.10946 0.0
C226 C 1.02466 0.71198 0.12119 0.0
C227 C 0.99864 0.68345 0.09901 0.0
C228 C 0.98786 0.69183 0.09826 0.0
C229 C 1.01693 0.69343 0.11035 0.0
C230 C 1.01364 0.72018 0.12106 0.0
C231 C 0.98398 0.7187 0.10968 0.0
C232 C 0.91441 0.67352 0.19173 0.0
C233 C 0.91143 0.66428 0.15919 0.0
H234 H 0.92228 0.69517 0.24984 0.0
C235 C 0.92555 0.73294 0.13124 0.0
C236 C 0.97981 0.77235 0.16004 0.0
C237 C 0.90294 0.7742 0.08583 0.0
C238 C 0.87608 0.77835 0.07115 0.0
C239 C 0.87689 0.76327 0.12625 0.0
C240 C 0.89412 0.76556 0.11759 0.0
C241 C 0.86798 0.76946 0.1034 0.0
C242 C 0.89388 0.78084 0.06255 0.0
C243 C 0.92154 0.77634 0.07756 0.0
H244 H 0.99291 0.66931 0.09026 0.0
H245 H 0.9737 0.68402 0.08924 0.0
H246 H 1.02522 0.68684 0.1092 0.0
H247 H 1.01937 0.73445 0.12918 0.0
H248 H 0.87032 0.75656 0.15097 0.0
H249 H 0.90064 0.76059 0.13584 0.0
H250 H 0.85459 0.76734 0.11114 0.0
H251 H 0.90048 0.7876 0.03787 0.0
C252 C 0.27331 0.34159 0.467 0.0
C253 C 0.28649 0.33584 0.51943 0.0
C254 C 0.27611 0.32947 0.48771 0.0
C255 C 0.29371 0.35429 0.53005 0.0
C256 C 0.28112 0.36028 0.47687 0.0
C257 C 0.2912 0.36652 0.50865 0.0
N258 N 0.26271 0.33504 0.43734 0.0
C259 C 0.2603 0.34649 0.41511 0.0
C260 C 0.27832 0.37208 0.45469 0.0
C261 C 0.26798 0.36518 0.42352 0.0
Gd262 Gd 0.19894 0.26865 0.44464 0.0
Gd263 Gd 0.25062 0.3039 0.42423 0.0
N264 N 0.26913 0.31169 0.47642 0.0
C265 C 0.28964 0.32361 0.53927 0.0
C266 C 0.27364 0.30028 0.49434 0.0
C267 C 0.28346 0.30587 0.52634 0.0
H268 H 0.27028 0.28696 0.48423 0.0
H269 H 0.28654 0.29655 0.54073 0.0
H270 H 0.18849 0.28202 0.36761 0.0
H271 H 0.25253 0.34121 0.39077 0.0
H272 H 0.17299 0.2681 0.31098 0.0
H273 H 0.29739 0.32792 0.56392 0.0
H274 H 0.30156 0.35932 0.55448 0.0
H275 H 0.19026 0.23309 0.49825 0.0
H276 H 0.28413 0.38654 0.46131 0.0
H277 H 0.26594 0.37423 0.40598 0.0
H278 H 0.15177 0.2037 0.32536 0.0
H279 H 0.29707 0.38075 0.51696 0.0
H280 H 0.16168 0.1833 0.43779 0.0
H281 H 0.17593 0.19931 0.49427 0.0
N282 N 0.18606 0.23646 0.44362 0.0
C283 C 0.17755 0.22787 0.41276 0.0
C284 C 0.18508 0.22639 0.47292 0.0
C285 C 0.16849 0.19821 0.43907 0.0
C286 C 0.17657 0.20719 0.47097 0.0
C287 C 0.16863 0.20849 0.40964 0.0
H288 H 0.15274 0.18508 0.37492 0.0
N289 N 0.18493 0.25697 0.38902 0.0
C290 C 0.17667 0.23834 0.38493 0.0
C291 C 0.16634 0.24067 0.32608 0.0
C292 C 0.16732 0.22974 0.35315 0.0
C293 C 0.18309 0.26752 0.36346 0.0
C294 C 0.1741 0.25961 0.33141 0.0
O295 O 0.23644 0.314 0.46266 0.0
O296 O 0.2164 0.28804 0.49271 0.0
O297 O 0.17459 0.27232 0.44562 0.0
O298 O 0.17731 0.25568 0.48518 0.0
O299 O 0.24535 0.27606 0.44721 0.0
O300 O 0.21757 0.26182 0.47783 0.0
O301 O 0.21242 0.26411 0.39039 0.0
O302 O 0.24305 0.27579 0.40219 0.0
O303 O 0.27926 0.31896 0.40933 0.0
O304 O 0.25837 0.3087 0.3681 0.0
O305 O 0.2049 0.29725 0.4299 0.0
O306 O 0.2289 0.30643 0.39113 0.0
C307 C 0.22823 0.30623 0.49272 0.0
C308 C 0.23347 0.26308 0.46919 0.0
C309 C 0.14626 0.24863 0.47258 0.0
C310 C 0.11353 0.2398 0.48575 0.0
C311 C 0.12112 0.2177 0.45964 0.0
C312 C 0.13984 0.23073 0.45966 0.0
C313 C 0.10818 0.22215 0.47234 0.0
C314 C 0.13288 0.25315 0.48611 0.0
C315 C 0.16686 0.26187 0.4732 0.0
C316 C 0.15899 0.21053 0.34959 0.0
C317 C 0.1596 0.19994 0.37779 0.0
H318 H 0.15929 0.23457 0.30128 0.0
C319 C 0.22876 0.26539 0.38198 0.0
C320 C 0.21495 0.30786 0.40374 0.0
C321 C 0.28546 0.30721 0.35823 0.0
C322 C 0.30307 0.29142 0.36686 0.0
C323 C 0.30463 0.30689 0.31055 0.0
C324 C 0.29273 0.31254 0.32402 0.0
C325 C 0.31019 0.2969 0.33198 0.0
C326 C 0.28945 0.29547 0.37812 0.0
C327 C 0.27581 0.3157 0.37548 0.0
H328 H 0.11657 0.20395 0.44968 0.0
H329 H 0.14936 0.22664 0.44985 0.0
H330 H 0.09376 0.21159 0.47182 0.0
H331 H 0.13744 0.26684 0.49643 0.0
H332 H 0.31047 0.31122 0.2842 0.0
H333 H 0.28966 0.32149 0.30825 0.0
H334 H 0.32079 0.29449 0.32137 0.0
H335 H 0.28274 0.29073 0.4036 0.0
C336 C 0.7088 0.94028 0.48016 0.0
C337 C 0.71684 0.96334 0.52621 0.0
C338 C 0.72121 0.95735 0.49438 0.0
C339 C 0.7003 0.95161 0.54411 0.0
C340 C 0.69176 0.92885 0.49699 0.0
C341 C 0.68774 0.93445 0.52943 0.0
N342 N 0.71329 0.93497 0.44934 0.0
C343 C 0.70079 0.91933 0.43209 0.0
C344 C 0.6792 0.91225 0.48041 0.0
C345 C 0.68363 0.90761 0.44752 0.0
Gd346 Gd 0.78028 0.94112 0.44207 0.0
Gd347 Gd 0.74251 0.95478 0.42567 0.0
N348 N 0.73698 0.96848 0.47604 0.0
C349 C 0.72894 0.98116 0.5385 0.0
C350 C 0.74776 0.98649 0.48612 0.0
C351 C 0.74424 0.99291 0.51794 0.0
H352 H 0.75898 0.99617 0.46966 0.0
H353 H 0.75318 1.00703 0.52627 0.0
H354 H 0.76582 0.91504 0.36698 0.0
H355 H 0.7042 0.91588 0.4066 0.0
H356 H 0.77889 0.91237 0.31045 0.0
H357 H 0.72616 0.98623 0.56295 0.0
H358 H 0.69686 0.9559 0.56884 0.0
H359 H 0.81636 0.97316 0.48967 0.0
H360 H 0.66593 0.90312 0.49242 0.0
H361 H 0.67386 0.89504 0.43406 0.0
H362 H 0.84276 0.95811 0.31815 0.0
H363 H 0.67485 0.92573 0.54311 0.0
H364 H 0.86443 0.99422 0.42446 0.0
H365 H 0.84953 0.99448 0.48116 0.0
N366 N 0.81186 0.96275 0.43678 0.0
C367 C 0.81989 0.96193 0.40571 0.0
C368 C 0.82236 0.97397 0.46391 0.0
C369 C 0.84968 0.98538 0.42754 0.0
C370 C 0.84131 0.98564 0.45952 0.0
C371 C 0.83905 0.97326 0.40037 0.0
H372 H 0.86181 0.98041 0.36414 0.0
N373 N 0.7906 0.93828 0.38529 0.0
C374 C 0.8091 0.94917 0.37962 0.0
C375 C 0.80616 0.93455 0.32243 0.0
C376 C 0.81727 0.94769 0.34779 0.0
C377 C 0.77998 0.92474 0.36144 0.0
C378 C 0.78748 0.92294 0.32944 0.0
O379 O 0.73531 0.93069 0.46313 0.0
O380 O 0.76202 0.93911 0.49246 0.0
O381 O 0.77442 0.91258 0.45333 0.0
O382 O 0.80046 0.9356 0.46708 0.0
O383 O 0.77056 0.97811 0.44627 0.0
O384 O 0.78469 0.96503 0.47824 0.0
O385 O 0.78279 0.95812 0.38792 0.0
O386 O 0.76974 0.97589 0.4005 0.0
O387 O 0.72455 0.96522 0.41101 0.0
O388 O 0.7354 0.95517 0.36995 0.0
O389 O 0.75246 0.91729 0.42627 0.0
O390 O 0.74025 0.93105 0.39175 0.0
C391 C 0.74367 0.93188 0.49332 0.0
C392 C 0.78333 0.97955 0.46912 0.0
C393 C 0.79353 0.90732 0.49609 0.0
C394 C 0.7985 0.88213 0.51932 0.0
C395 C 0.80362 0.90799 0.55717 0.0
C396 C 0.79852 0.91574 0.52976 0.0
C397 C 0.80359 0.89149 0.55209 0.0
C398 C 0.79366 0.89033 0.49083 0.0
C399 C 0.79073 0.91775 0.46614 0.0
C400 C 0.83627 0.95913 0.34238 0.0
C401 C 0.84711 0.97186 0.36856 0.0
H402 H 0.81194 0.93299 0.29771 0.0
C403 C 0.78051 0.97257 0.37977 0.0
C404 C 0.74055 0.91621 0.40233 0.0
C405 C 0.73453 0.98231 0.35805 0.0
C406 C 0.74883 1.01578 0.36071 0.0
C407 C 0.74278 1.00016 0.30347 0.0
C408 C 0.73534 0.98312 0.32073 0.0
C409 C 0.7494 1.01645 0.32329 0.0
C410 C 0.74138 0.99869 0.37765 0.0
C411 C 0.72736 0.96468 0.37703 0.0
H412 H 0.80776 0.91494 0.58268 0.0
H413 H 0.79897 0.9287 0.53472 0.0
H414 H 0.80768 0.88598 0.57411 0.0
H415 H 0.79013 0.88368 0.46499 0.0
H416 H 0.74335 1.00075 0.27466 0.0
H417 H 0.73029 0.97064 0.30507 0.0
H418 H 0.75487 0.02948 0.30947 0.0
H419 H 0.74054 0.99814 0.40647 0.0
C420 C 0.10829 0.77701 0.47637 0.0
C421 C 0.08803 0.76423 0.5273 0.0
C422 C 0.09241 0.77366 0.49443 0.0
C423 C 0.1 0.7588 0.54199 0.0
C424 C 0.12007 0.77112 0.49051 0.0
C425 C 0.11595 0.7622 0.52361 0.0
N426 N 0.11238 0.78631 0.44505 0.0
C427 C 0.12705 0.78884 0.42505 0.0
C428 C 0.13566 0.77441 0.4709 0.0
C429 C 0.13904 0.78311 0.4378 0.0
Gd430 Gd 0.10627 0.84791 0.44475 0.0
Gd431 Gd 0.09219 0.79608 0.42561 0.0
N432 N 0.08106 0.77914 0.4795 0.0
C433 C 0.07159 0.76022 0.54423 0.0
C434 C 0.06423 0.77369 0.49459 0.0
C435 C 0.0595 0.76467 0.52748 0.0
H436 H 0.05396 0.77563 0.4814 0.0
H437 H 0.04633 0.76084 0.53959 0.0
H438 H 0.12879 0.85507 0.36487 0.0
H439 H 0.12947 0.79531 0.39932 0.0
H440 H 0.13147 0.87066 0.30864 0.0
H441 H 0.0678 0.75312 0.56959 0.0
H442 H 0.09689 0.7517 0.56733 0.0
H443 H 0.07709 0.85524 0.49427 0.0
H444 H 0.14502 0.77006 0.48083 0.0
H445 H 0.15084 0.78538 0.42211 0.0
H446 H 0.0935 0.89788 0.32393 0.0
H447 H 0.12494 0.75777 0.53513 0.0
H448 H 0.06135 0.88838 0.4342 0.0
H449 H 0.05956 0.87153 0.48939 0.0
N450 N 0.08769 0.86157 0.44162 0.0
C451 C 0.08933 0.87123 0.41141 0.0
C452 C 0.07727 0.86174 0.46946 0.0
C453 C 0.06878 0.88091 0.43595 0.0
C454 C 0.06764 0.87132 0.46705 0.0
C455 C 0.07972 0.88098 0.40767 0.0
H456 H 0.07409 0.89815 0.37277 0.0
N457 N 0.10974 0.86181 0.38824 0.0
C458 C 0.10069 0.87145 0.38407 0.0
C459 C 0.11321 0.88046 0.32465 0.0
C460 C 0.10214 0.88092 0.35207 0.0
C461 C 0.12099 0.86186 0.36175 0.0
C462 C 0.12269 0.87093 0.32957 0.0
O463 O 0.11661 0.81234 0.46282 0.0
O464 O 0.1083 0.83058 0.49268 0.0
O465 O 0.13325 0.87477 0.44956 0.0
O466 O 0.11137 0.8666 0.48813 0.0
O467 O 0.06828 0.80056 0.44374 0.0
O468 O 0.08063 0.82791 0.47568 0.0
O469 O 0.08573 0.83488 0.39434 0.0
O470 O 0.07411 0.8033 0.39195 0.0
O471 O 0.07773 0.76679 0.41487 0.0
O472 O 0.09295 0.78584 0.37258 0.0
O473 O 0.12998 0.84364 0.42832 0.0
O474 O 0.1163 0.81785 0.39274 0.0
C475 C 0.1159 0.81985 0.49295 0.0
C476 C 0.06638 0.81212 0.46538 0.0
C477 C 0.13819 0.89644 0.50134 0.0
C478 C 0.1643 0.92754 0.51764 0.0
C479 C 0.1373 0.91213 0.55571 0.0
C480 C 0.12927 0.89709 0.53275 0.0
C481 C 0.15453 0.92711 0.54831 0.0
C482 C 0.15607 0.912 0.49372 0.0
C483 C 0.12772 0.87924 0.47845 0.0
C484 C 0.09247 0.89049 0.34827 0.0
C485 C 0.08138 0.8906 0.37605 0.0
H486 H 0.11461 0.8875 0.29966 0.0
C487 C 0.07451 0.81824 0.37942 0.0
C488 C 0.13116 0.83282 0.4042 0.0
C489 C 0.06411 0.76029 0.35784 0.0
C490 C 0.03061 0.74553 0.35199 0.0
C491 C 0.04988 0.75247 0.29931 0.0
C492 C 0.06568 0.75987 0.32068 0.0
C493 C 0.03241 0.74522 0.31482 0.0
C494 C 0.04657 0.75319 0.37312 0.0
C495 C 0.08065 0.76898 0.38068 0.0
H496 H 0.13004 0.91217 0.57956 0.0
H497 H 0.11579 0.88584 0.53995 0.0
H498 H 0.1603 0.9386 0.56683 0.0
H499 H 0.16333 0.91209 0.46978 0.0
H500 H 0.05117 0.75223 0.27065 0.0
H501 H 0.07908 0.76545 0.30823 0.0
H502 H 1.02034 0.73918 0.29786 0.0
H503 H 0.04527 0.75308 0.40185 0.0
C504 C 0.70268 0.78986 0.90072 0.0
C505 C 0.70472 0.79413 0.83678 0.0
C506 C 0.71274 0.79345 0.86944 0.0
C507 C 0.68681 0.79155 0.83628 0.0
C508 C 0.68456 0.78691 0.90026 0.0
C509 C 0.67674 0.78789 0.86792 0.0
N510 N 0.71091 0.78994 0.93191 0.0
C511 C 0.70136 0.78587 0.96317 0.0
C512 C 0.67491 0.78332 0.93245 0.0
C513 C 0.68331 0.78262 0.96402 0.0
Gd514 Gd 0.77804 0.8492 0.94497 0.0
Gd515 Gd 0.74163 0.79652 0.92946 0.0
N516 N 0.73025 0.79624 0.8709 0.0
C517 C 0.71483 0.79723 0.80544 0.0
C518 C 0.73948 0.79788 0.83973 0.0
C519 C 0.73214 0.79879 0.8069 0.0
H520 H 0.75227 0.79798 0.83906 0.0
H521 H 0.73979 0.80045 0.78259 0.0
H522 H 0.77848 0.8483 0.03378 0.0
H523 H 0.70767 0.78505 0.98744 0.0
H524 H 0.80126 0.85821 0.08265 0.0
H525 H 0.70919 0.79791 0.7799 0.0
H526 H 0.68056 0.79218 0.81147 0.0
H527 H 0.8026 0.86905 0.87082 0.0
H528 H 0.66097 0.78097 0.93318 0.0
H529 H 0.6759 0.7796 0.98901 0.0
H530 H 0.85969 0.88669 0.02278 0.0
H531 H 0.66291 0.78584 0.86709 0.0
H532 H 0.8599 0.89401 0.89638 0.0
H533 H 0.83522 0.88639 0.85227 0.0
N534 N 0.8087 0.86541 0.92424 0.0
C535 C 0.82206 0.87013 0.94919 0.0
C536 C 0.81327 0.87173 0.89006 0.0
C537 C 0.8456 0.88597 0.90448 0.0
C538 C 0.83172 0.88172 0.87951 0.0
C539 C 0.84089 0.88055 0.93997 0.0
H540 H 0.86889 0.89397 0.96002 0.0
N541 N 0.79868 0.85717 0.99281 0.0
C542 C 0.81691 0.86619 0.98462 0.0
C543 C 0.82462 0.86912 0.04724 0.0
C544 C 0.83039 0.87235 1.01165 0.0
C545 C 0.79298 0.85479 0.02753 0.0
C546 C 0.80583 0.86044 0.05521 0.0
O547 O 0.73302 0.8185 0.93054 0.0
O548 O 0.75696 0.84081 0.90064 0.0
O549 O 0.77425 0.8694 0.97666 0.0
O550 O 0.78391 0.87595 0.92343 0.0
O551 O 0.76648 0.80486 0.89361 0.0
O552 O 0.78525 0.83674 0.89299 0.0
O553 O 0.78551 0.82981 0.9744 0.0
O554 O 0.77054 0.802 0.94434 0.0
O555 O 0.73303 0.76906 0.90894 0.0
O556 O 0.72872 0.77286 0.96429 0.0
O557 O 0.75264 0.83514 0.98564 0.0
O558 O 0.74591 0.80512 0.98766 0.0
C559 C 0.73939 0.83238 0.90833 0.0
C560 C 0.78059 0.81984 0.87997 0.0
C561 C 0.79433 0.90192 0.96345 0.0
C562 C 0.80327 0.93392 0.9838 0.0
C563 C 0.8266 0.92609 0.96668 0.0
C564 C 0.81314 0.90804 0.95888 0.0
C565 C 0.82177 0.93882 0.97886 0.0
C566 C 0.78937 0.91515 0.9762 0.0
C567 C 0.7805 0.88221 0.95251 0.0
C568 C 0.84914 0.88194 1.0024 0.0
C569 C 0.85438 0.88604 0.96664 0.0
H570 H 0.83456 0.87363 0.06875 0.0
C571 C 0.78404 0.81389 0.96514 0.0
C572 C 0.744 0.81852 1.00147 0.0
C573 C 0.7418 0.75432 0.95194 0.0
C574 C 0.75848 0.73803 0.93689 0.0
C575 C 0.76093 0.75107 0.99638 0.0
C576 C 0.74887 0.75713 0.98676 0.0
C577 C 0.76566 0.7416 0.97198 0.0
C578 C 0.74702 0.74522 0.92703 0.0
C579 C 0.73025 0.76222 0.94096 0.0
H580 H 0.84099 0.93035 0.96272 0.0
H581 H 0.81757 0.89894 0.94844 0.0
H582 H 0.83268 0.9528 0.98419 0.0
H583 H 0.77497 0.91103 0.97935 0.0
H584 H 0.76638 0.7534 0.02321 0.0
H585 H 0.74537 0.7643 1.00658 0.0
H586 H 0.77428 0.73643 0.98191 0.0
H587 H 0.74176 0.74361 0.90024 0.0
C588 C 0.25546 0.92139 0.89881 0.0
C589 C 0.25019 0.91852 0.8351 0.0
C590 C 0.25151 0.92763 0.86765 0.0
C591 C 0.25271 0.90315 0.83449 0.0
C592 C 0.25826 0.90611 0.8982 0.0
C593 C 0.25681 0.89702 0.86591 0.0
N594 N 0.2559 0.92985 0.93 0.0
C595 C 0.26028 0.92453 0.96104 0.0
C596 C 0.26221 0.90026 0.93019 0.0
C597 C 0.26338 0.90962 0.96173 0.0
Gd598 Gd 0.19866 0.93991 0.94586 0.0
Gd599 Gd 0.25058 0.95481 0.92728 0.0
N600 N 0.24882 0.94242 0.86917 0.0
C601 C 0.24646 0.92514 0.80398 0.0
C602 C 0.24642 0.94955 0.83822 0.0
C603 C 0.24483 0.94086 0.80551 0.0
H604 H 0.24625 0.96219 0.8377 0.0
H605 H 0.24262 0.94651 0.78133 0.0
H606 H 0.2034 0.94251 0.03516 0.0
H607 H 0.26172 0.93201 0.98518 0.0
H608 H 0.19602 0.95657 0.08563 0.0
H609 H 0.24527 0.91849 0.77853 0.0
H610 H 0.25163 0.89598 0.80975 0.0
H611 H 0.17857 0.94665 0.87363 0.0
H612 H 0.26449 0.88862 0.93079 0.0
H613 H 0.26672 0.90543 0.98655 0.0
H614 H 0.16601 0.98639 0.03179 0.0
H615 H 0.25877 0.88518 0.86498 0.0
H616 H 0.15543 0.97979 0.90604 0.0
H617 H 0.16203 0.96324 0.85891 0.0
N618 N 0.18265 0.95501 0.92809 0.0
C619 C 0.17855 0.96345 0.95471 0.0
C620 C 0.17639 0.95443 0.8942 0.0
C621 C 0.16304 0.97286 0.91256 0.0
C622 C 0.16677 0.96357 0.88585 0.0
C623 C 0.16868 0.97267 0.94755 0.0
H624 H 0.15694 0.98829 0.97043 0.0
N625 N 0.19319 0.95341 0.99588 0.0
C626 C 0.18367 0.96237 0.98954 0.0
C627 C 0.18386 0.96862 0.05254 0.0
C628 C 0.17905 0.97049 1.01774 0.0
C629 C 0.1969 0.95058 0.03002 0.0
C630 C 0.19264 0.95845 0.05872 0.0
O631 O 0.2273 0.92459 0.92859 0.0
O632 O 0.20427 0.92573 0.89999 0.0
O633 O 0.18111 0.91271 0.97071 0.0
O634 O 0.1686 0.92454 0.939 0.0
O635 O 0.24245 0.97219 0.89374 0.0
O636 O 0.2105 0.95776 0.89167 0.0
O637 O 0.21828 0.96737 0.97225 0.0
O638 O 0.24717 0.97913 0.94646 0.0
O639 O 0.27718 0.97273 0.90238 0.0
O640 O 0.27575 0.96448 0.9572 0.0
O641 O 0.21306 0.92901 0.9866 0.0
O642 O 0.24371 0.9511 0.98633 0.0
C643 C 0.2134 0.9171 0.90616 0.0
C644 C 0.22734 0.97081 0.87971 0.0
C645 C 0.14917 0.89235 0.95315 0.0
C646 C 0.11775 0.86629 0.96814 0.0
C647 C 0.13396 0.86549 0.9146 0.0
C648 C 0.1491 0.88275 0.92253 0.0
C649 C 0.11858 0.85737 0.93706 0.0
C650 C 0.13325 0.88406 0.97605 0.0
C651 C 0.16555 0.91116 0.96035 0.0
C652 C 0.1696 0.98001 1.01047 0.0
C653 C 0.16445 0.98111 0.9755 0.0
H654 H 0.18055 0.97467 0.07487 0.0
C655 C 0.23483 0.98123 0.96491 0.0
C656 C 0.22997 0.93642 1.0012 0.0
C657 C 0.29646 0.9955 0.9437 0.0
C658 C 0.31728 0.02787 0.92956 0.0
C659 C 0.30349 0.01908 0.98851 0.0
C660 C 0.29447 1.00064 0.97846 0.0
C661 C 0.31465 0.03261 0.9643 0.0
C662 C 0.30794 1.0092 0.91934 0.0
C663 C 0.28587 0.97601 0.9326 0.0
H664 H 0.13415 0.85829 0.89075 0.0
H665 H 0.1608 0.88866 0.90456 0.0
H666 H 0.10716 0.84394 0.93 0.0
H667 H 0.13299 0.8913 0.9998 0.0
H668 H 0.30185 0.0229 1.01527 0.0
H669 H 0.28571 0.99049 0.99792 0.0
H670 H 0.32205 0.04673 0.97365 0.0
H671 H 0.30987 1.00531 0.89279 0.0
C672 C 0.12112 0.34722 0.90769 0.0
C673 C 0.12627 0.34785 0.844 0.0
C674 C 0.11732 0.33798 0.87523 0.0
C675 C 0.13838 0.36695 0.84567 0.0
C676 C 0.13369 0.36637 0.90953 0.0
C677 C 0.14207 0.37618 0.87832 0.0
N678 N 0.11359 0.33732 0.93781 0.0
C679 C 0.11764 0.34569 0.9704 0.0
C680 C 0.13797 0.375 0.94291 0.0
C681 C 0.12992 0.3646 0.97348 0.0
Gd682 Gd 0.10896 0.26989 0.94319 0.0
Gd683 Gd 0.09258 0.30583 0.93075 0.0
N684 N 0.10597 0.31928 0.87458 0.0
C685 C 0.12331 0.33821 0.81206 0.0
C686 C 0.10362 0.30991 0.84327 0.0
C687 C 0.11206 0.31916 0.8118 0.0
H688 H 0.09566 0.29528 0.84152 0.0
H689 H 0.11002 0.3115 0.78733 0.0
H690 H 0.10897 0.27011 0.03229 0.0
H691 H 0.11122 0.33783 0.99412 0.0
H692 H 0.09623 0.24764 0.08167 0.0
H693 H 0.12999 0.34528 0.78763 0.0
H694 H 0.14529 0.37466 0.82192 0.0
H695 H 0.10267 0.24461 0.86893 0.0
H696 H 0.1476 0.38964 0.94539 0.0
H697 H 0.13315 0.37113 0.99943 0.0
H698 H 0.06416 0.18893 0.02299 0.0
H699 H 0.15174 0.39087 0.87926 0.0
H700 H 0.06953 0.18764 0.89627 0.0
H701 H 0.08642 0.21183 0.85122 0.0
N702 N 0.0937 0.23912 0.92294 0.0
C703 C 0.08531 0.22601 0.94845 0.0
C704 C 0.09481 0.23418 0.88863 0.0
C705 C 0.07627 0.20202 0.90407 0.0
C706 C 0.08579 0.21562 0.87856 0.0
C707 C 0.07628 0.20708 0.93963 0.0
H708 H 0.06121 0.17924 0.96032 0.0
N709 N 0.09674 0.24972 0.99178 0.0
C710 C 0.08709 0.23144 0.9839 0.0
C711 C 0.08284 0.22411 0.04673 0.0
C712 C 0.07975 0.21814 1.01123 0.0
C713 C 0.10061 0.25559 0.02637 0.0
C714 C 0.09347 0.24292 0.05432 0.0
O715 O 0.12363 0.31628 0.92867 0.0
O716 O 0.12292 0.29202 0.90072 0.0
O717 O 0.13228 0.27186 0.97419 0.0
O718 O 0.12936 0.26387 0.91965 0.0
O719 O 0.07676 0.2824 0.89139 0.0
O720 O 0.08837 0.26231 0.89271 0.0
O721 O 0.08274 0.26303 0.97485 0.0
O722 O 0.06919 0.27658 0.94339 0.0
O723 O 0.0735 0.31403 0.91004 0.0
O724 O 0.07979 0.31641 0.96636 0.0
O725 O 0.12173 0.29579 0.9822 0.0
O726 O 0.098 0.30154 0.98832 0.0
C727 C 0.13185 0.30969 0.90847 0.0
C728 C 0.07684 0.26764 0.87878 0.0
C729 C 0.14391 0.25157 0.95754 0.0
C730 C 0.16534 0.24132 0.98079 0.0
C731 C 0.13583 0.21932 0.95431 0.0
C732 C 0.13171 0.23321 0.94779 0.0
C733 C 0.15231 0.22327 0.97063 0.0
C734 C 0.16107 0.25566 0.97398 0.0
C735 C 0.13866 0.26605 0.9488 0.0
C736 C 0.07001 0.19933 1.00237 0.0
C737 C 0.06828 0.19382 0.96666 0.0
H738 H 0.07742 0.21431 0.06844 0.0
C739 C 0.06789 0.26356 0.96496 0.0
C740 C 0.11385 0.30398 0.99987 0.0
C741 C 0.0487 0.30378 0.95052 0.0
C742 C 1.01639 0.29171 0.93478 0.0
C743 C 1.02453 0.28159 0.98914 0.0
C744 C 0.04315 0.29303 0.9817 0.0
C745 C 1.01123 0.28101 0.96613 0.0
C746 C 0.03529 0.30259 0.92673 0.0
C747 C 0.0684 0.31565 0.94205 0.0
H748 H 0.12614 0.20529 0.94643 0.0
H749 H 0.11894 0.22948 0.93452 0.0
H750 H 0.15499 0.21204 0.9751 0.0
H751 H 0.17087 0.26971 0.9815 0.0
H752 H 1.02038 0.27343 1.01326 0.0
H753 H 0.05313 0.2933 1.00035 0.0
H754 H 0.99696 0.27283 0.9741 0.0
H755 H 0.03972 0.31056 0.90239 0.0
C756 C 0.88173 0.81068 0.62392 0.0
C757 C 0.8909 0.80906 0.68457 0.0
C758 C 0.88139 0.80025 0.65302 0.0
C759 C 0.90081 0.82838 0.6864 0.0
C760 C 0.89186 0.83011 0.62561 0.0
C761 C 0.90132 0.83887 0.65699 0.0
N762 N 0.87252 0.80188 0.59377 0.0
C763 C 0.87362 0.81162 0.56393 0.0
C764 C 0.89241 0.84018 0.59548 0.0
C765 C 0.88334 0.83089 0.56444 0.0
Gd766 Gd 0.80519 0.73218 0.61196 0.0
Gd767 Gd 0.85757 0.76965 0.59493 0.0
N768 N 0.87149 0.7815 0.65067 0.0
C769 C 0.89023 0.79818 0.71338 0.0
C770 C 0.8713 0.77088 0.6784 0.0
C771 C 0.88046 0.77903 0.7102 0.0
H772 H 0.86415 0.75616 0.67641 0.0
H773 H 0.88005 0.7705 0.7322 0.0
H774 H 0.79064 0.75072 0.54525 0.0
H775 H 0.86772 0.80449 0.53922 0.0
H776 H 0.77655 0.74169 0.48678 0.0
H777 H 0.89733 0.80443 0.73806 0.0
H778 H 0.90821 0.83536 0.7104 0.0
H779 H 0.80369 0.69468 0.64459 0.0
H780 H 0.9001 0.85512 0.59569 0.0
H781 H 0.88416 0.83855 0.54066 0.0
H782 H 0.76202 0.6791 0.47341 0.0
H783 H 0.90916 0.85378 0.65873 0.0
H784 H 0.778 0.65136 0.56767 0.0
H785 H 0.79311 0.66259 0.6262 0.0
N786 N 0.79562 0.70172 0.59636 0.0
C787 C 0.78664 0.69569 0.56478 0.0
C788 C 0.79756 0.69002 0.61872 0.0
C789 C 0.78277 0.66549 0.57554 0.0
C790 C 0.79137 0.67179 0.60852 0.0
C791 C 0.78019 0.67742 0.55332 0.0
H792 H 0.76643 0.65764 0.5109 0.0
N793 N 0.79071 0.72564 0.55523 0.0
C794 C 0.78429 0.70799 0.54352 0.0
C795 C 0.77294 0.71445 0.48942 0.0
C796 C 0.77533 0.70202 0.51026 0.0
C797 C 0.78738 0.73741 0.53559 0.0
C798 C 0.77884 0.73214 0.50229 0.0
O799 O 0.84436 0.77753 0.64485 0.0
O800 O 0.81322 0.75609 0.64998 0.0
O801 O 0.77567 0.72039 0.61611 0.0
O802 O 0.79094 0.71917 0.66127 0.0
O803 O 0.85214 0.74161 0.61342 0.0
O804 O 0.82581 0.72913 0.64757 0.0
O805 O 0.82199 0.72396 0.57643 0.0
O806 O 0.84002 0.75055 0.54687 0.0
O807 O 0.88356 0.76868 0.59561 0.0
O808 O 0.87666 0.77903 0.54981 0.0
O809 O 0.81015 0.76078 0.59398 0.0
O810 O 0.83861 0.7774 0.56569 0.0
C811 C 0.82784 0.77133 0.66108 0.0
C812 C 0.84139 0.72992 0.63786 0.0
C813 C 0.76627 0.72454 0.67318 0.0
C814 C 0.75018 0.74207 0.68036 0.0
C815 C 0.7586 0.73045 0.73227 0.0
C816 C 0.76608 0.72241 0.71025 0.0
C817 C 0.75091 0.7404 0.71758 0.0
C818 C 0.7581 0.73419 0.65848 0.0
C819 C 0.7753 0.71706 0.65003 0.0
C820 C 0.76897 0.68385 0.49878 0.0
C821 C 0.77141 0.6716 0.52019 0.0
H822 H 0.76626 0.71042 0.46365 0.0
C823 C 0.82975 0.73219 0.54653 0.0
C824 C 0.82225 0.77502 0.57448 0.0
C825 C 0.90905 0.78916 0.55649 0.0
C826 C 0.9411 0.79699 0.53947 0.0
C827 C 0.93256 0.82079 0.54288 0.0
C828 C 0.91468 0.80792 0.55313 0.0
C829 C 0.94555 0.81544 0.53618 0.0
C830 C 0.92254 0.78365 0.54943 0.0
C831 C 0.88884 0.77562 0.5639 0.0
H832 H 0.75874 0.72898 0.76089 0.0
H833 H 0.77203 0.71482 0.72221 0.0
H834 H 0.74528 0.74648 0.73548 0.0
H835 H 0.75738 0.73498 0.62981 0.0
H836 H 0.93637 0.83513 0.54001 0.0
H837 H 0.90517 0.81276 0.5578 0.0
H838 H 0.95933 0.8259 0.52833 0.0
H839 H 0.91865 0.76927 0.55159 0.0
C840 C 0.23602 0.07967 0.62201 0.0
C841 C 0.23692 0.09037 0.68266 0.0
C842 C 0.24608 0.0899 0.65145 0.0
C843 C 0.21759 0.08038 0.68403 0.0
C844 C 0.21657 0.07017 0.62298 0.0
C845 C 0.20746 0.07037 0.65426 0.0
N846 N 0.24514 0.07986 0.5918 0.0
C847 C 0.23571 0.07195 0.56112 0.0
C848 C 0.20683 0.06124 0.59208 0.0
C849 C 0.21644 0.06234 0.56091 0.0
Gd850 Gd 0.31415 0.08219 0.61249 0.0
Gd851 Gd 0.27734 0.09747 0.59467 0.0
N852 N 0.26484 0.09946 0.64951 0.0
C853 C 0.24744 0.10111 0.71145 0.0
C854 C 0.2751 0.11067 0.67689 0.0
C855 C 0.26659 0.11141 0.70841 0.0
H856 H 0.28981 0.11897 0.67471 0.0
H857 H 0.27481 0.12006 0.73027 0.0
H858 H 0.29454 0.05457 0.53662 0.0
H859 H 0.24306 0.07294 0.53676 0.0
H860 H 0.30464 0.04929 0.47997 0.0
H861 H 0.2409 0.1018 0.73587 0.0
H862 H 0.21034 0.08057 0.70781 0.0
H863 H 0.35159 0.11649 0.64799 0.0
H864 H 0.1919 0.05387 0.59175 0.0
H865 H 0.20901 0.05584 0.53668 0.0
H866 H 0.36967 0.0903 0.47887 0.0
H867 H 0.19254 0.06307 0.65549 0.0
H868 H 0.39716 0.1309 0.57806 0.0
H869 H 0.38474 0.13585 0.63425 0.0
N870 N 0.34532 0.1014 0.59975 0.0
C871 C 0.35185 0.09805 0.56924 0.0
C872 C 0.35686 0.11455 0.62319 0.0
C873 C 0.38261 0.12244 0.58399 0.0
C874 C 0.37564 0.12535 0.61562 0.0
C875 C 0.37071 0.10868 0.56032 0.0
H876 H 0.39144 0.11369 0.52049 0.0
N877 N 0.32124 0.07483 0.5551 0.0
C878 C 0.33949 0.08458 0.54606 0.0
C879 C 0.33317 0.06893 0.48916 0.0
C880 C 0.34586 0.08183 0.51295 0.0
C881 C 0.3089 0.06232 0.53136 0.0
C882 C 0.31463 0.05921 0.49838 0.0
O883 O 0.27106 0.07832 0.64728 0.0
O884 O 0.28825 0.06367 0.64435 0.0
O885 O 0.32674 0.06546 0.62137 0.0
O886 O 0.3253 0.08188 0.66455 0.0
O887 O 0.3055 0.12003 0.61192 0.0
O888 O 0.31634 0.10558 0.64792 0.0
O889 O 0.32323 0.10707 0.57645 0.0
O890 O 0.29689 0.09971 0.54652 0.0
O891 O 0.27897 0.12462 0.59625 0.0
O892 O 0.26728 0.10735 0.55074 0.0
O893 O 0.2861 0.05809 0.59362 0.0
O894 O 0.26825 0.06955 0.5687 0.0
C895 C 0.27517 0.06565 0.65984 0.0
C896 C 0.31643 0.12067 0.63753 0.0
C897 C 0.32105 0.05269 0.67936 0.0
C898 C 0.30298 0.01931 0.6874 0.0
C899 C 0.31502 0.03957 0.73886 0.0
C900 C 0.32303 0.05496 0.71646 0.0
C901 C 0.30514 0.0218 0.72447 0.0
C902 C 0.31104 0.03486 0.66519 0.0
C903 C 0.3287 0.06884 0.65552 0.0
C904 C 0.36463 0.09228 0.50417 0.0
C905 C 0.37703 0.1056 0.52785 0.0
H906 H 0.33751 0.06652 0.46346 0.0
C907 C 0.31526 0.1072 0.5465 0.0
C908 C 0.27111 0.05575 0.57654 0.0
C909 C 0.25731 0.12954 0.5616 0.0
C910 C 0.24834 0.15318 0.54695 0.0
C911 C 0.22513 0.12177 0.56265 0.0
C912 C 0.2386 0.11686 0.56714 0.0
C913 C 0.2299 0.13961 0.55278 0.0
C914 C 0.2622 0.14798 0.5511 0.0
C915 C 0.27119 0.12301 0.56544 0.0
H916 H 0.31658 0.04141 0.76744 0.0
H917 H 0.33062 0.06862 0.72808 0.0
H918 H 0.29937 1.01004 0.74219 0.0
H919 H 0.30995 0.03301 0.63655 0.0
H920 H 0.21079 0.1116 0.56691 0.0
H921 H 0.23418 0.10293 0.57469 0.0
H922 H 0.21897 0.14286 0.54966 0.0
H923 H 0.27653 0.15813 0.54658 0.0
C924 C 0.97147 0.16997 0.63161 0.0
C925 C 0.95679 0.15796 0.68888 0.0
C926 C 0.95824 0.16744 0.65693 0.0
C927 C 0.96863 0.15093 0.69493 0.0
C928 C 0.98323 0.16269 0.63753 0.0
C929 C 0.98177 0.15324 0.6693 0.0
N930 N 0.9727 0.17928 0.6011 0.0
C931 C 0.98465 0.18082 0.57475 0.0
C932 C 0.99599 0.16491 0.61112 0.0
C933 C 0.99659 0.17389 0.57949 0.0
Gd934 Gd 0.96446 0.24033 0.61444 0.0
Gd935 Gd 0.95091 0.18901 0.59489 0.0
N936 N 0.94718 0.17478 0.65077 0.0
C937 C 0.94347 0.15583 0.71389 0.0
C938 C 0.93359 0.17192 0.67439 0.0
C939 C 0.93174 0.16272 0.70648 0.0
H940 H 0.92391 0.17639 0.66862 0.0
H941 H 0.92111 0.16076 0.72531 0.0
H942 H 1.00629 0.26484 0.5706 0.0
H943 H 0.98442 0.18661 0.54933 0.0
H944 H 1.01782 0.28276 0.51605 0.0
H945 H 0.94196 0.14868 0.73877 0.0
H946 H 0.96769 0.14361 0.71931 0.0
H947 H 0.92491 0.23891 0.63176 0.0
H948 H 1.00517 0.15942 0.6146 0.0
H949 H 1.00601 0.17517 0.55845 0.0
H950 H 0.96763 0.28947 0.47391 0.0
H951 H 0.99071 0.14759 0.67425 0.0
H952 H 0.91347 0.2657 0.54656 0.0
H953 H 0.90438 0.24861 0.60356 0.0
N954 N 0.9449 0.24998 0.59052 0.0
C955 C 0.9507 0.26028 0.56039 0.0
C956 C 0.92887 0.24637 0.60688 0.0
C957 C 0.92249 0.26153 0.55886 0.0
C958 C 0.91729 0.25185 0.59102 0.0
C959 C 0.93946 0.26607 0.54337 0.0
H960 H 0.93702 0.28064 0.498 0.0
N961 N 0.9788 0.25998 0.56482 0.0
C962 C 0.96798 0.26516 0.54684 0.0
C963 C 0.99233 0.28193 0.50406 0.0
C964 C 0.97441 0.2761 0.51582 0.0
C965 C 0.99679 0.26695 0.55479 0.0
C966 C 1.00366 0.27762 0.52402 0.0
O967 O 0.9686 0.20289 0.6489 0.0
O968 O 0.9855 0.23412 0.63933 0.0
O969 O 0.97317 0.2683 0.6302 0.0
O970 O 0.96591 0.24762 0.67073 0.0
O971 O 0.92678 0.19287 0.6096 0.0
O972 O 0.9406 0.21793 0.64672 0.0
O973 O 0.94057 0.22412 0.5762 0.0
O974 O 0.94882 0.20588 0.54622 0.0
O975 O 0.92332 0.1631 0.58722 0.0
O976 O 0.94748 0.16785 0.55793 0.0
O977 O 0.9881 0.23597 0.59408 0.0
O978 O 0.9749 0.20936 0.56033 0.0
C979 C 0.98249 0.21971 0.6586 0.0
C980 C 0.92565 0.2034 0.63437 0.0
C981 C 0.99212 0.27679 0.67974 0.0
C982 C 1.02521 0.2953 0.66894 0.0
C983 C 1.01195 0.29747 0.72554 0.0
C984 C 0.9943 0.28465 0.71352 0.0
C985 C 1.02727 0.30312 0.70318 0.0
C986 C 1.00765 0.28127 0.65886 0.0
C987 C 0.97392 0.26516 0.66384 0.0
C988 C 0.96298 0.28128 0.498 0.0
C989 C 0.94556 0.2763 0.51176 0.0
H990 H 0.99776 0.29033 0.48038 0.0
C991 C 0.9417 0.21702 0.5459 0.0
C992 C 0.98951 0.22485 0.5706 0.0
C993 C 0.92024 0.13831 0.54373 0.0
C994 C 0.89375 0.10734 0.52697 0.0
C995 C 0.92369 0.11906 0.49875 0.0
C996 C 0.93097 0.13518 0.51875 0.0
C997 C 0.90542 0.1054 0.50274 0.0
C998 C 0.90125 0.12404 0.54791 0.0
C999 C 0.93015 0.15656 0.56399 0.0
H1000 H 1.01368 0.30371 0.75157 0.0
H1001 H 0.98243 0.28119 0.73015 0.0
H1002 H 0.04043 0.31417 0.71231 0.0
H1003 H 1.00573 0.2741 0.63384 0.0
H1004 H 0.93236 0.11715 0.47982 0.0
H1005 H 0.94533 0.1453 0.51438 0.0
H1006 H 0.9003 0.09305 0.48656 0.0
H1007 H 0.89252 0.12589 0.56679 0.0
C1008 C 0.90145 0.50039 0.41977 0.0
C1009 C 0.89619 0.50276 0.35688 0.0
C1010 C 0.90836 0.50685 0.38583 0.0
C1011 C 0.8771 0.49192 0.36236 0.0
C1012 C 0.88227 0.48947 0.42529 0.0
C1013 C 0.87017 0.48528 0.39643 0.0
N1014 N 0.91346 0.50456 0.44728 0.0
C1015 C 0.90725 0.49796 0.48073 0.0
C1016 C 0.87582 0.48292 0.45964 0.0
C1017 C 0.88836 0.48716 0.48743 0.0
Gd1018 Gd 0.9781 0.57441 0.44404 0.0
Gd1019 Gd 0.94479 0.52173 0.43257 0.0
N1020 N 0.92693 0.51759 0.38138 0.0
C1021 C 0.90355 0.50975 0.32326 0.0
C1022 C 0.93416 0.52406 0.34845 0.0
C1023 C 0.92261 0.52041 0.31904 0.0
H1024 H 0.94878 0.53193 0.34447 0.0
H1025 H 0.92844 0.52572 0.29305 0.0
H1026 H 0.97076 0.56218 0.53167 0.0
H1027 H 0.91688 0.50065 0.50215 0.0
H1028 H 0.989 0.56464 0.58431 0.0
H1029 H 0.89466 0.50694 0.30038 0.0
H1030 H 0.86757 0.48861 0.3404 0.0
H1031 H 1.00852 0.59254 0.37668 0.0
H1032 H 0.8612 0.47444 0.46489 0.0
H1033 H 0.88351 0.48192 0.51395 0.0
H1034 H 0.05136 0.59564 0.54249 0.0
H1035 H 0.85541 0.47688 0.40018 0.0
H1036 H 0.06234 0.61081 0.41872 0.0
H1037 H 0.042 0.60656 0.36759 0.0
N1038 N 1.00973 0.58814 0.43219 0.0
C1039 C 1.02067 0.59062 0.46083 0.0
C1040 C 1.01717 0.59391 0.39909 0.0
C1041 C 0.04761 0.60453 0.42287 0.0
C1042 C 0.03618 0.60209 0.39391 0.0
C1043 C 0.03993 0.59879 0.45682 0.0
H1044 H 0.0657 0.60692 0.48392 0.0
N1045 N 0.99377 0.57545 0.49687 0.0
C1046 C 1.01252 0.58428 0.49411 0.0
C1047 C 1.01492 0.57877 0.55655 0.0
C1048 C 1.02353 0.58593 0.52385 0.0
C1049 C 0.98539 0.56874 0.52892 0.0
C1050 C 0.99579 0.57018 0.55909 0.0
O1051 O 0.93109 0.5391 0.42217 0.0
O1052 O 0.95462 0.56745 0.40466 0.0
O1053 O 0.97558 0.59517 0.47407 0.0
O1054 O 0.99026 0.60223 0.4236 0.0
O1055 O 0.97109 0.53647 0.39402 0.0
O1056 O 0.97669 0.56598 0.38631 0.0
O1057 O 0.99012 0.55497 0.45113 0.0
O1058 O 0.96621 0.52945 0.47558 0.0
O1059 O 0.94675 0.50082 0.39988 0.0
O1060 O 0.93826 0.49479 0.45415 0.0
O1061 O 0.95267 0.56452 0.47966 0.0
O1062 O 0.93972 0.53304 0.48786 0.0
C1063 C 0.93684 0.55547 0.4079 0.0
C1064 C 0.97954 0.55258 0.37625 0.0
C1065 C 0.99828 0.62627 0.46544 0.0
C1066 C 1.00279 0.65658 0.48012 0.0
C1067 C 0.02918 0.65186 0.47341 0.0
C1068 C 1.01737 0.63336 0.46504 0.0
C1069 C 1.02204 0.66353 0.48005 0.0
C1070 C 0.99115 0.63753 0.47537 0.0
C1071 C 0.98526 0.60808 0.4512 0.0
C1072 C 0.04272 0.59429 0.51993 0.0
C1073 C 0.05089 0.6007 0.48655 0.0
H1074 H 1.02291 0.57972 0.57995 0.0
C1075 C 0.9839 0.53949 0.4693 0.0
C1076 C 0.9412 0.54938 0.497 0.0
C1077 C 0.92715 0.46845 0.41451 0.0
C1078 C 0.91865 0.43684 0.39281 0.0
C1079 C 0.89513 0.44357 0.41384 0.0
C1080 C 0.90839 0.46174 0.42138 0.0
C1081 C 0.90015 0.43131 0.39983 0.0
C1082 C 0.9323 0.45571 0.39999 0.0
C1083 C 0.94096 0.48826 0.42458 0.0
H1084 H 0.04394 0.65743 0.47267 0.0
H1085 H 1.02314 0.62487 0.45726 0.0
H1086 H 0.03174 0.67809 0.48297 0.0
H1087 H 0.97633 0.63149 0.47658 0.0
H1088 H 0.88077 0.43885 0.41946 0.0
H1089 H 0.90384 0.47042 0.43334 0.0
H1090 H 0.88944 0.41721 0.39481 0.0
H1091 H 0.94669 0.46029 0.3951 0.0
C1092 C 0.54006 0.40315 0.41806 0.0
C1093 C 0.54086 0.39772 0.35456 0.0
C1094 C 0.53625 0.40569 0.38306 0.0
C1095 C 0.54818 0.38622 0.36171 0.0
C1096 C 0.54832 0.39236 0.42506 0.0
C1097 C 0.55183 0.38349 0.39686 0.0
N1098 N 0.53732 0.41258 0.44476 0.0
C1099 C 0.54389 0.41296 0.47828 0.0
C1100 C 0.55368 0.39153 0.45999 0.0
C1101 C 0.55172 0.4021 0.48658 0.0
Gd1102 Gd 0.47245 0.41669 0.44385 0.0
Gd1103 Gd 0.52402 0.43028 0.42712 0.0
N1104 N 0.52921 0.41696 0.37669 0.0
C1105 C 0.53865 0.40211 0.31961 0.0
C1106 C 0.52823 0.42228 0.34273 0.0
C1107 C 0.53257 0.41466 0.3137 0.0
H1108 H 0.52392 0.43226 0.33801 0.0
H1109 H 0.53137 0.41858 0.28682 0.0
H1110 H 0.48202 0.41509 0.53392 0.0
H1111 H 0.54308 0.42168 0.49867 0.0
H1112 H 0.48267 0.43053 0.58864 0.0
H1113 H 0.54212 0.39633 0.29705 0.0
H1114 H 0.55161 0.37983 0.34015 0.0
H1115 H 0.46205 0.43847 0.38179 0.0
H1116 H 0.56006 0.38339 0.4664 0.0
H1117 H 0.55649 0.40212 0.51335 0.0
H1118 H 0.46426 0.4739 0.55532 0.0
H1119 H 0.55805 0.37506 0.40182 0.0
H1120 H 0.45309 0.47903 0.43226 0.0
H1121 H 0.45436 0.46311 0.37768 0.0
N1122 N 0.46626 0.44097 0.43784 0.0
C1123 C 0.4651 0.44913 0.46826 0.0
C1124 C 0.46221 0.44568 0.40568 0.0
C1125 C 0.45673 0.46833 0.43416 0.0
C1126 C 0.45752 0.45947 0.4033 0.0
C1127 C 0.46055 0.46324 0.46713 0.0
H1128 H 0.45656 0.48275 0.49838 0.0
N1129 N 0.47362 0.43022 0.50067 0.0
C1130 C 0.46908 0.44378 0.50048 0.0
C1131 C 0.474 0.44806 0.56412 0.0
C1132 C 0.46907 0.45293 0.5322 0.0
C1133 C 0.47839 0.42553 0.53219 0.0
C1134 C 0.47875 0.43436 0.56404 0.0
O1135 O 0.50234 0.40592 0.39442 0.0
O1136 O 0.47669 0.39235 0.4299 0.0
O1137 O 0.44457 0.39915 0.46472 0.0
O1138 O 0.44909 0.40718 0.40944 0.0
O1139 O 0.5113 0.44309 0.38751 0.0
O1140 O 0.48067 0.42122 0.38521 0.0
O1141 O 0.4959 0.44665 0.44494 0.0
O1142 O 0.51874 0.44478 0.47323 0.0
O1143 O 0.54269 0.45932 0.41102 0.0
O1144 O 0.55413 0.44283 0.42729 0.0
O1145 O 0.47926 0.39921 0.48082 0.0
O1146 O 0.51117 0.41164 0.48051 0.0
C1147 C 0.48775 0.39097 0.40656 0.0
C1148 C 0.49476 0.43616 0.37192 0.0
C1149 C 0.42368 0.37839 0.42077 0.0
C1150 C 0.40352 0.34549 0.43001 0.0
C1151 C 0.40573 0.35876 0.37147 0.0
C1152 C 0.41809 0.37611 0.38485 0.0
C1153 C 0.39856 0.34352 0.39378 0.0
C1154 C 0.41608 0.36301 0.44356 0.0
C1155 C 0.43712 0.39704 0.43331 0.0
C1156 C 0.46442 0.46686 0.53117 0.0
C1157 C 0.46007 0.47193 0.49876 0.0
H1158 H 0.47428 0.45485 0.58892 0.0
C1159 C 0.50975 0.45369 0.46749 0.0
C1160 C 0.49421 0.39968 0.49401 0.0
C1161 C 0.57592 0.47541 0.42306 0.0
C1162 C 0.60758 0.50127 0.40774 0.0
C1163 C 0.59645 0.49557 0.46924 0.0
C1164 C 0.57953 0.48066 0.45889 0.0
C1165 C 0.61018 0.50574 0.44417 0.0
C1166 C 0.59021 0.48575 0.39725 0.0
C1167 C 0.55778 0.45848 0.41353 0.0
H1168 H 0.40144 0.35718 0.34389 0.0
H1169 H 0.42328 0.3878 0.36698 0.0
H1170 H 0.38835 0.33027 0.3831 0.0
H1171 H 0.41959 0.36463 0.47162 0.0
H1172 H 0.59899 0.49932 0.49713 0.0
H1173 H 0.56925 0.47304 0.47909 0.0
H1174 H 0.62308 0.51721 0.45344 0.0
H1175 H 0.58781 0.48182 0.36942 0.0
C1176 C 0.63914 0.14709 0.41612 0.0
C1177 C 0.64373 0.15254 0.35233 0.0
C1178 C 0.63706 0.14029 0.38149 0.0
C1179 C 0.65279 0.17163 0.35839 0.0
C1180 C 0.64793 0.16629 0.4221 0.0
C1181 C 0.65491 0.17848 0.39315 0.0
N1182 N 0.63179 0.13499 0.44369 0.0
C1183 C 0.63199 0.14127 0.47752 0.0
C1184 C 0.649 0.17273 0.45694 0.0
C1185 C 0.64087 0.16016 0.4847 0.0
Gd1186 Gd 0.63204 0.06764 0.44639 0.0
Gd1187 Gd 0.61611 0.10359 0.42736 0.0
N1188 N 0.62849 0.12172 0.37621 0.0
C1189 C 0.64102 0.14525 0.31783 0.0
C1190 C 0.62494 0.11456 0.34248 0.0
C1191 C 0.63148 0.12619 0.3129 0.0
H1192 H 0.61716 0.09988 0.33827 0.0
H1193 H 0.62897 0.12043 0.28628 0.0
H1194 H 0.63247 0.07964 0.53535 0.0
H1195 H 0.62482 0.13171 0.49894 0.0
H1196 H 0.61655 0.06533 0.59007 0.0
H1197 H 0.64598 0.15422 0.2948 0.0
H1198 H 0.65805 0.18122 0.33632 0.0
H1199 H 0.61285 0.03411 0.38593 0.0
H1200 H 0.65562 0.18737 0.46255 0.0
H1201 H 0.6411 0.16502 0.51155 0.0
H1202 H 0.57655 1.00221 0.55908 0.0
H1203 H 0.66171 0.19325 0.39732 0.0
H1204 H 0.57412 0.98419 0.4374 0.0
H1205 H 0.58987 1.00108 0.3826 0.0
N1206 N 0.60962 0.03633 0.44132 0.0
C1207 C 0.60144 0.02726 0.47187 0.0
C1208 C 0.60569 0.02709 0.40968 0.0
C1209 C 0.58408 0.99879 0.43885 0.0
C1210 C 0.59286 1.00828 0.40786 0.0
C1211 C 0.58827 1.00825 0.47135 0.0
H1212 H 0.56946 0.98472 0.50314 0.0
N1213 N 0.61836 0.05558 0.50309 0.0
C1214 C 0.60574 0.03717 0.50352 0.0
C1215 C 0.60043 0.03851 0.56657 0.0
C1216 C 0.59655 0.0282 0.53528 0.0
C1217 C 0.62234 0.06547 0.53409 0.0
C1218 C 0.61335 0.05722 0.56591 0.0
O1219 O 0.64337 0.11108 0.39936 0.0
O1220 O 0.65589 0.09626 0.43051 0.0
O1221 O 0.65051 0.05957 0.47081 0.0
O1222 O 0.64377 0.05451 0.41485 0.0
O1223 O 0.60455 0.07761 0.38827 0.0
O1224 O 0.62756 0.07045 0.3874 0.0
O1225 O 0.60132 0.05894 0.44659 0.0
O1226 O 0.60169 0.08351 0.47271 0.0
O1227 O 0.58905 0.09471 0.40214 0.0
O1228 O 0.6008 0.11819 0.43632 0.0
O1229 O 0.64903 0.09272 0.48191 0.0
O1230 O 0.6339 0.1097 0.48178 0.0
C1231 C 0.65777 0.1098 0.4096 0.0
C1232 C 0.61235 0.0686 0.37321 0.0
C1233 C 0.67471 0.06626 0.43046 0.0
C1234 C 0.70692 0.07771 0.44582 0.0
C1235 C 0.69886 0.08563 0.38877 0.0
C1236 C 0.68028 0.07531 0.39737 0.0
C1237 C 0.71209 0.08685 0.41264 0.0
C1238 C 0.68809 0.06775 0.45477 0.0
C1239 C 0.65502 0.05582 0.43994 0.0
C1240 C 0.5836 1.00927 0.53488 0.0
C1241 C 0.57954 0.9993 0.50304 0.0
H1242 H 0.59357 0.03216 0.59136 0.0
C1243 C 0.59333 0.06563 0.46724 0.0
C1244 C 0.64713 0.10641 0.49473 0.0
C1245 C 0.56884 0.10644 0.42104 0.0
C1246 C 0.54264 0.11162 0.40552 0.0
C1247 C 0.54281 0.09662 0.4612 0.0
C1248 C 0.55978 0.09817 0.45288 0.0
C1249 C 0.53436 0.10314 0.43793 0.0
C1250 C 0.56022 0.11339 0.39726 0.0
C1251 C 0.58759 0.10857 0.41401 0.0
H1252 H 0.70302 0.09249 0.36323 0.0
H1253 H 0.67035 0.07461 0.3781 0.0
H1254 H 0.7263 0.09415 0.40395 0.0
H1255 H 0.68376 0.06072 0.48015 0.0
H1256 H 0.53609 0.09025 0.48605 0.0
H1257 H 0.56595 0.09301 0.47159 0.0
H1258 H 0.52116 0.10159 0.44545 0.0
H1259 H 0.56704 0.11995 0.37259 0.0
C1260 C 0.93973 0.67501 0.8023 0.0
C1261 C 0.95198 0.66938 0.85625 0.0
C1262 C 0.9421 0.66291 0.82402 0.0
C1263 C 0.95928 0.68792 0.86624 0.0
C1264 C 0.94744 0.69373 0.81181 0.0
C1265 C 0.95716 0.70009 0.84394 0.0
N1266 N 0.92949 0.66836 0.77223 0.0
C1267 C 0.92728 0.67973 0.74939 0.0
C1268 C 0.94486 0.70545 0.78896 0.0
C1269 C 0.93484 0.69843 0.75749 0.0
Gd1270 Gd 0.86564 0.60176 0.77842 0.0
Gd1271 Gd 0.9179 0.63726 0.75946 0.0
N1272 N 0.93496 0.645 0.81348 0.0
C1273 C 0.95449 0.65711 0.87737 0.0
C1274 C 0.93863 0.63342 0.833 0.0
C1275 C 0.948 0.63914 0.86544 0.0
H1276 H 0.93494 0.61987 0.82389 0.0
H1277 H 0.95049 0.62974 0.88098 0.0
H1278 H 0.85553 0.61547 0.70141 0.0
H1279 H 0.91981 0.67438 0.72478 0.0
H1280 H 0.84025 0.60179 0.6445 0.0
H1281 H 0.96188 0.6615 0.90241 0.0
H1282 H 0.96679 0.69303 0.891 0.0
H1283 H 0.85595 0.566 0.832 0.0
H1284 H 0.95059 0.71992 0.7953 0.0
H1285 H 0.93296 0.70741 0.73946 0.0
H1286 H 0.81869 0.53728 0.65818 0.0
H1287 H 0.96299 0.71438 0.85191 0.0
H1288 H 0.82761 0.51638 0.77091 0.0
H1289 H 0.84139 0.53217 0.82782 0.0
N1290 N 0.85245 0.56955 0.77714 0.0
C1291 C 0.84414 0.56108 0.74606 0.0
C1292 C 0.85101 0.55935 0.80653 0.0
C1293 C 0.83455 0.53129 0.7723 0.0
C1294 C 0.84236 0.54015 0.80444 0.0
C1295 C 0.83506 0.54171 0.74279 0.0
H1296 H 0.81921 0.51843 0.70775 0.0
N1297 N 0.85181 0.59031 0.72257 0.0
C1298 C 0.84351 0.57169 0.71824 0.0
C1299 C 0.83345 0.57427 0.65929 0.0
C1300 C 0.83426 0.56322 0.68629 0.0
C1301 C 0.85012 0.60098 0.69707 0.0
C1302 C 0.84125 0.5932 0.66486 0.0
O1303 O 0.90323 0.64708 0.79715 0.0
O1304 O 0.8829 0.62106 0.82679 0.0
O1305 O 0.84131 0.60548 0.77893 0.0
O1306 O 0.84388 0.58896 0.81887 0.0
O1307 O 0.91225 0.60915 0.78139 0.0
O1308 O 0.88409 0.5944 0.81094 0.0
O1309 O 0.8793 0.59735 0.72439 0.0
O1310 O 0.91015 0.60946 0.73545 0.0
O1311 O 0.94703 0.65074 0.74824 0.0
O1312 O 0.92778 0.64477 0.70494 0.0
O1313 O 0.87207 0.63045 0.76353 0.0
O1314 O 0.89638 0.6397 0.72531 0.0
C1315 C 0.89477 0.63924 0.82698 0.0
C1316 C 0.90012 0.59586 0.80258 0.0
C1317 C 0.81283 0.58189 0.80571 0.0
C1318 C 0.78002 0.57282 0.81909 0.0
C1319 C 0.7877 0.55121 0.79097 0.0
C1320 C 0.80643 0.56422 0.79153 0.0
C1321 C 0.77472 0.55543 0.80439 0.0
C1322 C 0.7994 0.58616 0.81998 0.0
C1323 C 0.83347 0.59512 0.80657 0.0
C1324 C 0.82583 0.54401 0.68255 0.0
C1325 C 0.82618 0.53328 0.71074 0.0
H1326 H 0.82647 0.56828 0.63437 0.0
C1327 C 0.89572 0.59891 0.71562 0.0
C1328 C 0.88229 0.64107 0.73751 0.0
C1329 C 0.95385 0.64159 0.69352 0.0
C1330 C 0.97087 0.62477 0.6921 0.0
C1331 C 0.96373 0.63541 0.63707 0.0
C1332 C 0.95518 0.6433 0.6564 0.0
C1333 C 0.97131 0.62604 0.65458 0.0
C1334 C 0.96165 0.63231 0.71111 0.0
C1335 C 0.94472 0.64987 0.71386 0.0
H1336 H 0.78317 0.53765 0.77999 0.0
H1337 H 0.81596 0.5603 0.78109 0.0
H1338 H 0.76029 0.5449 0.80337 0.0
H1339 H 0.80393 0.59966 0.83127 0.0
H1340 H 0.96469 0.63675 0.60836 0.0
H1341 H 0.94959 0.65071 0.64241 0.0
H1342 H 0.9778 0.62016 0.6385 0.0
H1343 H 0.96127 0.63182 0.73989 0.0
C1344 C 0.37213 0.27224 0.8051 0.0
C1345 C 0.37773 0.28913 0.86052 0.0
C1346 C 0.38425 0.28624 0.82772 0.0
C1347 C 0.35906 0.27816 0.86967 0.0
C1348 C 0.35331 0.26134 0.81405 0.0
C1349 C 0.34686 0.26443 0.84637 0.0
N1350 N 0.37883 0.26885 0.77481 0.0
C1351 C 0.36748 0.25554 0.75142 0.0
C1352 C 0.3416 0.24741 0.79048 0.0
C1353 C 0.3487 0.24455 0.75895 0.0
Gd1354 Gd 0.44622 0.27292 0.77934 0.0
Gd1355 Gd 0.40992 0.28836 0.76226 0.0
N1356 N 0.40234 0.29676 0.81802 0.0
C1357 C 0.39014 0.30292 0.88335 0.0
C1358 C 0.41423 0.31076 0.84 0.0
C1359 C 0.40841 0.31381 0.87294 0.0
H1360 H 0.42821 0.32004 0.83299 0.0
H1361 H 0.41807 0.32476 0.8902 0.0
H1362 H 0.43254 0.25048 0.70036 0.0
H1363 H 0.3729 0.25355 0.72674 0.0
H1364 H 0.44644 0.24937 0.6434 0.0
H1365 H 0.3857 0.30542 0.90887 0.0
H1366 H 0.3539 0.28022 0.89476 0.0
H1367 H 0.4817 0.29689 0.83496 0.0
H1368 H 0.32706 0.23879 0.79637 0.0
H1369 H 0.33973 0.23394 0.7404 0.0
H1370 H 0.51113 0.29028 0.6603 0.0
H1371 H 0.33249 0.25611 0.85382 0.0
H1372 H 0.53174 0.3172 0.77556 0.0
H1373 H 0.51568 0.31463 0.83238 0.0
N1374 N 0.47851 0.29077 0.77956 0.0
C1375 C 0.48707 0.2912 0.74842 0.0
C1376 C 0.48856 0.29851 0.80969 0.0
C1377 C 0.51682 0.30975 0.77633 0.0
C1378 C 0.50781 0.30835 0.80845 0.0
C1379 C 0.50649 0.30086 0.74596 0.0
H1380 H 0.5299 0.30814 0.71144 0.0
N1381 N 0.4578 0.27089 0.72328 0.0
C1382 C 0.47648 0.28077 0.7197 0.0
C1383 C 0.47404 0.2691 0.65977 0.0
C1384 C 0.48506 0.28024 0.68768 0.0
C1385 C 0.44712 0.25918 0.69682 0.0
C1386 C 0.45502 0.25839 0.66451 0.0
O1387 O 0.40066 0.26384 0.7993 0.0
O1388 O 0.42713 0.27098 0.82843 0.0
O1389 O 0.44335 0.24525 0.77766 0.0
O1390 O 0.45755 0.26312 0.82113 0.0
O1391 O 0.43796 0.31179 0.78308 0.0
O1392 O 0.45526 0.30002 0.80878 0.0
O1393 O 0.45093 0.29143 0.72586 0.0
O1394 O 0.43686 0.30863 0.73552 0.0
O1395 O 0.39534 0.30292 0.75165 0.0
O1396 O 0.40165 0.29002 0.70801 0.0
O1397 O 0.41768 0.25023 0.76461 0.0
O1398 O 0.40793 0.26496 0.72719 0.0
C1399 C 0.40879 0.26387 0.82911 0.0
C1400 C 0.45247 0.31393 0.80174 0.0
C1401 C 0.46586 0.23996 0.8079 0.0
C1402 C 0.47464 0.21612 0.82167 0.0
C1403 C 0.49714 0.2461 0.7977 0.0
C1404 C 0.48402 0.25165 0.79661 0.0
C1405 C 0.49254 0.22862 0.80992 0.0
C1406 C 0.46117 0.22196 0.82087 0.0
C1407 C 0.45239 0.24707 0.80697 0.0
C1408 C 0.50433 0.29049 0.68473 0.0
C1409 C 0.51501 0.30072 0.71381 0.0
H1410 H 0.48012 0.26835 0.63476 0.0
C1411 C 0.44811 0.30543 0.71615 0.0
C1412 C 0.40688 0.24963 0.73886 0.0
C1413 C 0.40387 0.31885 0.69711 0.0
C1414 C 0.41845 0.35238 0.6975 0.0
C1415 C 0.41242 0.33579 0.64139 0.0
C1416 C 0.40477 0.31904 0.65977 0.0
C1417 C 0.41914 0.35242 0.6601 0.0
C1418 C 0.41076 0.33556 0.71557 0.0
C1419 C 0.39607 0.30146 0.7172 0.0
H1420 H 0.51108 0.25547 0.78894 0.0
H1421 H 0.48824 0.26528 0.7871 0.0
H1422 H 0.50316 0.22483 0.81025 0.0
H1423 H 0.44726 0.21262 0.82985 0.0
H1424 H 0.41304 0.33589 0.61259 0.0
H1425 H 0.39958 0.3063 0.64491 0.0
H1426 H 0.42475 0.36522 0.64542 0.0
H1427 H 0.40965 0.3355 0.74434 0.0
C1428 C 0.77361 0.11076 0.80815 0.0
C1429 C 0.75085 0.09432 0.85387 0.0
C1430 C 0.75649 0.10534 0.82292 0.0
C1431 C 0.76311 0.08995 0.87084 0.0
C1432 C 0.78561 0.1056 0.82397 0.0
C1433 C 0.78046 0.09557 0.85591 0.0
N1434 N 0.77845 0.12091 0.77782 0.0
C1435 C 0.79411 0.12466 0.75986 0.0
C1436 C 0.80232 0.1105 0.80695 0.0
C1437 C 0.80643 0.11978 0.77439 0.0
Gd1438 Gd 0.77396 0.18279 0.77654 0.0
Gd1439 Gd 0.75828 0.13078 0.75767 0.0
N1440 N 0.74499 0.10993 0.80592 0.0
C1441 C 0.73286 0.08755 0.86624 0.0
C1442 C 0.72698 0.10204 0.81634 0.0
C1443 C 0.72075 0.09104 0.84686 0.0
H1444 H 0.71719 0.10404 0.80129 0.0
H1445 H 0.70656 0.08519 0.85532 0.0
H1446 H 0.79627 0.19264 0.69775 0.0
H1447 H 0.79719 0.13169 0.73469 0.0
H1448 H 0.79678 0.20773 0.6413 0.0
H1449 H 0.72798 0.07902 0.88986 0.0
H1450 H 0.75913 0.08181 0.89501 0.0
H1451 H 0.74898 0.19279 0.8336 0.0
H1452 H 0.81193 0.10682 0.81828 0.0
H1453 H 0.81908 0.12321 0.76052 0.0
H1454 H 0.75453 0.22976 0.66036 0.0
H1455 H 0.78963 0.09178 0.86888 0.0
H1456 H 0.72774 0.22213 0.77611 0.0
H1457 H 0.73066 0.20838 0.83215 0.0
N1458 N 0.75551 0.19664 0.77823 0.0
C1459 C 0.75472 0.20479 0.74749 0.0
C1460 C 0.74746 0.19832 0.80867 0.0
C1461 C 0.73556 0.21502 0.77638 0.0
C1462 C 0.73719 0.2073 0.80807 0.0
C1463 C 0.7446 0.21409 0.74573 0.0
H1464 H 0.73658 0.22989 0.71209 0.0
N1465 N 0.77545 0.19666 0.7213 0.0
C1466 C 0.76512 0.205 0.71838 0.0
C1467 C 0.7765 0.21473 0.6585 0.0
C1468 C 0.76527 0.21412 0.68673 0.0
C1469 C 0.78725 0.19819 0.69461 0.0
C1470 C 0.78769 0.2069 0.66263 0.0
O1471 O 0.7828 0.1467 0.79469 0.0
O1472 O 0.77483 0.16506 0.82485 0.0
O1473 O 0.8017 0.20751 0.7755 0.0
O1474 O 0.78376 0.20362 0.81896 0.0
O1475 O 0.73569 0.1351 0.7849 0.0
O1476 O 0.7472 0.16506 0.80624 0.0
O1477 O 0.75595 0.16864 0.723 0.0
O1478 O 0.73734 0.13807 0.73633 0.0
O1479 O 0.74841 0.10297 0.73886 0.0
O1480 O 0.75485 0.12461 0.70071 0.0
O1481 O 0.7967 0.17721 0.76035 0.0
O1482 O 0.7822 0.15213 0.72364 0.0
C1483 C 0.78195 0.15392 0.82507 0.0
C1484 C 0.73375 0.14785 0.80271 0.0
C1485 C 0.80687 0.23507 0.80673 0.0
C1486 C 0.83064 0.2676 0.8214 0.0
C1487 C 0.8004 0.26011 0.79876 0.0
C1488 C 0.79498 0.24148 0.79658 0.0
C1489 C 0.81793 0.27296 0.81087 0.0
C1490 C 0.82492 0.24834 0.81958 0.0
C1491 C 0.79985 0.21455 0.80509 0.0
C1492 C 0.75461 0.22273 0.68449 0.0
C1493 C 0.74435 0.22276 0.71393 0.0
H1494 H 0.77698 0.22159 0.63377 0.0
C1495 C 0.741 0.1521 0.71543 0.0
C1496 C 0.79728 0.16706 0.73428 0.0
C1497 C 0.72692 0.09674 0.69355 0.0
C1498 C 0.6944 0.0779 0.70889 0.0
C1499 C 0.704 0.08355 0.64678 0.0
C1500 C 0.7225 0.09398 0.65726 0.0
C1501 C 0.68999 0.07523 0.67243 0.0
C1502 C 0.71271 0.08963 0.71868 0.0
C1503 C 0.74606 0.10693 0.70646 0.0
H1504 H 0.79088 0.26465 0.79094 0.0
H1505 H 0.78129 0.23205 0.78719 0.0
H1506 H 0.82159 0.28733 0.81208 0.0
H1507 H 0.83439 0.24378 0.82766 0.0
H1508 H 0.70056 0.08134 0.61875 0.0
H1509 H 0.73326 0.09975 0.63726 0.0
H1510 H 0.67596 0.06615 0.66378 0.0
H1511 H 0.71602 0.09239 0.74653 0.0
C1512 C 0.36749 0.11931 0.24046 0.0
C1513 C 0.36731 0.12345 0.17661 0.0
C1514 C 0.37687 0.12415 0.20816 0.0
C1515 C 0.34836 0.11728 0.17784 0.0
C1516 C 0.3485 0.1135 0.24184 0.0
C1517 C 0.33898 0.11228 0.21034 0.0
N1518 N 0.37711 0.12129 0.27082 0.0
C1519 C 0.36853 0.11721 0.30318 0.0
C1520 C 0.33968 0.10945 0.27499 0.0
C1521 C 0.34976 0.11133 0.3058 0.0
Gd1522 Gd 0.44487 0.18266 0.27714 0.0
Gd1523 Gd 0.40838 0.13041 0.26464 0.0
N1524 N 0.39541 0.13054 0.20787 0.0
C1525 C 0.37712 0.12947 0.14474 0.0
C1526 C 0.40494 0.13682 0.1765 0.0
C1527 C 0.39601 0.1363 0.14479 0.0
H1528 H 0.41945 0.1426 0.17478 0.0
H1529 H 0.40381 0.14135 0.12034 0.0
H1530 H 0.44495 0.18271 0.36609 0.0
H1531 H 0.3761 0.11821 0.32708 0.0
H1532 H 0.46758 0.19291 0.41529 0.0
H1533 H 0.37029 0.12924 0.12008 0.0
H1534 H 0.34089 0.11662 0.15383 0.0
H1535 H 0.46975 0.20134 0.20267 0.0
H1536 H 0.32514 0.10497 0.2771 0.0
H1537 H 0.34307 0.10819 0.33158 0.0
H1538 H 0.52614 0.21993 0.3561 0.0
H1539 H 0.3244 0.10781 0.21091 0.0
H1540 H 0.52689 0.22589 0.22931 0.0
H1541 H 0.50246 0.2181 0.18454 0.0
N1542 N 0.47555 0.19827 0.25662 0.0
C1543 C 0.48878 0.20309 0.28193 0.0
C1544 C 0.48031 0.20414 0.22224 0.0
C1545 C 0.51255 0.21812 0.23727 0.0
C1546 C 0.49881 0.21378 0.21193 0.0
C1547 C 0.50766 0.21315 0.27289 0.0
H1548 H 0.53558 0.2264 0.29331 0.0
N1549 N 0.46524 0.19084 0.32545 0.0
C1550 C 0.48349 0.19958 0.31741 0.0
C1551 C 0.49102 0.20311 0.38017 0.0
C1552 C 0.49689 0.20586 0.34462 0.0
C1553 C 0.45946 0.18895 0.36007 0.0
C1554 C 0.47223 0.19475 0.3879 0.0
O1555 O 0.39888 0.15171 0.26278 0.0
O1556 O 0.42323 0.17427 0.23369 0.0
O1557 O 0.44132 0.20327 0.30766 0.0
O1558 O 0.45172 0.20952 0.25472 0.0
O1559 O 0.43199 0.13754 0.22601 0.0
O1560 O 0.45206 0.16928 0.2266 0.0
O1561 O 0.45207 0.1635 0.30835 0.0
O1562 O 0.43737 0.13581 0.27836 0.0
O1563 O 0.39985 0.10289 0.24452 0.0
O1564 O 0.39661 0.10715 0.30028 0.0
O1565 O 0.41911 0.16973 0.31647 0.0
O1566 O 0.413 0.14014 0.32223 0.0
C1567 C 0.40563 0.16606 0.24156 0.0
C1568 C 0.44672 0.15228 0.21315 0.0
C1569 C 0.46208 0.23554 0.29459 0.0
C1570 C 0.47104 0.26726 0.31612 0.0
C1571 C 0.49438 0.25951 0.29879 0.0
C1572 C 0.48089 0.24158 0.29019 0.0
C1573 C 0.48956 0.27216 0.31149 0.0
C1574 C 0.45714 0.24865 0.30781 0.0
C1575 C 0.44815 0.21599 0.28336 0.0
C1576 C 0.51566 0.2151 0.33557 0.0
C1577 C 0.52103 0.21874 0.2998 0.0
H1578 H 0.50089 0.20773 0.4018 0.0
C1579 C 0.45082 0.14767 0.29918 0.0
C1580 C 0.41077 0.15367 0.33399 0.0
C1581 C 0.40849 0.08774 0.28696 0.0
C1582 C 0.42162 0.06827 0.27222 0.0
C1583 C 0.42755 0.08339 0.33013 0.0
C1584 C 0.41674 0.09104 0.32087 0.0
C1585 C 0.42989 0.07199 0.30622 0.0
C1586 C 0.41143 0.0768 0.26252 0.0
C1587 C 0.39739 0.09619 0.27668 0.0
H1588 H 0.50877 0.26373 0.29505 0.0
H1589 H 0.4853 0.23253 0.27934 0.0
H1590 H 0.50046 0.28606 0.31743 0.0
H1591 H 0.44274 0.24456 0.31084 0.0
H1592 H 0.43374 0.08592 0.35633 0.0
H1593 H 0.41494 0.09959 0.34033 0.0
H1594 H 0.43737 0.06535 0.31536 0.0
H1595 H 0.40531 0.07455 0.23628 0.0
C1596 C 0.92671 0.25722 0.23309 0.0
C1597 C 0.92072 0.25322 0.16969 0.0
C1598 C 0.92081 0.26181 0.20224 0.0
C1599 C 0.92759 0.241 0.16831 0.0
C1600 C 0.93314 0.24452 0.23197 0.0
C1601 C 0.93388 0.23674 0.19933 0.0
N1602 N 0.92516 0.26432 0.26456 0.0
C1603 C 0.93015 0.25966 0.29567 0.0
C1604 C 0.93827 0.23969 0.26384 0.0
C1605 C 0.9367 0.24726 0.29587 0.0
Gd1606 Gd 0.86714 0.27493 0.28233 0.0
Gd1607 Gd 0.91774 0.28777 0.26159 0.0
N1608 N 0.91409 0.27365 0.20447 0.0
C1609 C 0.91319 0.25667 0.13958 0.0
C1610 C 0.90606 0.27634 0.1751 0.0
C1611 C 0.90557 0.26804 0.14248 0.0
H1612 H 0.89953 0.2844 0.17591 0.0
H1613 H 0.89919 0.27036 0.11954 0.0
H1614 H 0.86745 0.27373 0.37143 0.0
H1615 H 0.92977 0.26602 0.32023 0.0
H1616 H 0.8606 0.28825 0.42204 0.0
H1617 H 0.91273 0.25023 0.11423 0.0
H1618 H 0.92777 0.23448 0.14345 0.0
H1619 H 0.84673 0.28191 0.21103 0.0
H1620 H 0.94334 0.23006 0.26402 0.0
H1621 H 0.94076 0.24374 0.32067 0.0
H1622 H 0.84103 0.32717 0.36698 0.0
H1623 H 0.93887 0.22706 0.19795 0.0
H1624 H 0.83086 0.32136 0.24122 0.0
H1625 H 0.8333 0.3014 0.19547 0.0
N1626 N 0.85354 0.29225 0.26402 0.0
C1627 C 0.85135 0.3023 0.29019 0.0
C1628 C 0.8463 0.2911 0.23085 0.0
C1629 C 0.83721 0.31323 0.24796 0.0
C1630 C 0.83852 0.30195 0.22206 0.0
C1631 C 0.84313 0.31309 0.28275 0.0
H1632 H 0.83398 0.33103 0.30518 0.0
N1633 N 0.86227 0.28883 0.33214 0.0
C1634 C 0.85551 0.30028 0.32526 0.0
C1635 C 0.8536 0.3047 0.38853 0.0
C1636 C 0.85129 0.30877 0.3534 0.0
C1637 C 0.86334 0.28383 0.36631 0.0
C1638 C 0.85935 0.29194 0.39499 0.0
O1639 O 0.89453 0.25766 0.26302 0.0
O1640 O 0.87119 0.25941 0.23662 0.0
O1641 O 0.84874 0.24569 0.29703 0.0
O1642 O 0.83711 0.26265 0.286 0.0
O1643 O 0.91116 0.30571 0.22609 0.0
O1644 O 0.87939 0.29382 0.22884 0.0
O1645 O 0.88947 0.299 0.31436 0.0
O1646 O 0.91441 0.31255 0.27718 0.0
O1647 O 0.94495 0.30335 0.23712 0.0
O1648 O 0.94206 0.29839 0.29416 0.0
O1649 O 0.88044 0.26288 0.32278 0.0
O1650 O 0.91139 0.28373 0.32084 0.0
C1651 C 0.87988 0.25021 0.24233 0.0
C1652 C 0.8962 0.30572 0.21459 0.0
C1653 C 0.8155 0.23004 0.28673 0.0
C1654 C 0.78373 0.20423 0.30093 0.0
C1655 C 0.79525 0.21038 0.23973 0.0
C1656 C 0.81214 0.22515 0.2507 0.0
C1657 C 0.78133 0.20006 0.26437 0.0
C1658 C 0.80104 0.21956 0.31204 0.0
C1659 C 0.83366 0.24662 0.29723 0.0
C1660 C 0.84414 0.32036 0.34573 0.0
C1661 C 0.84014 0.32257 0.3105 0.0
H1662 H 0.8504 0.31086 0.41083 0.0
C1663 C 0.90368 0.31397 0.30131 0.0
C1664 C 0.89744 0.2695 0.33629 0.0
C1665 C 0.97079 0.32206 0.2749 0.0
C1666 C 0.99359 0.35422 0.26626 0.0
C1667 C 0.99954 0.3356 0.30778 0.0
C1668 C 0.98249 0.32048 0.29962 0.0
C1669 C 1.00508 0.35238 0.29121 0.0
C1670 C 0.97629 0.33903 0.25809 0.0
C1671 C 0.95332 0.30535 0.26744 0.0
H1672 H 0.7929 0.20689 0.21171 0.0
H1673 H 0.8226 0.2329 0.23088 0.0
H1674 H 0.76845 0.1887 0.25469 0.0
H1675 H 0.80328 0.22322 0.34 0.0
H1676 H 1.0085 0.33428 0.32681 0.0
H1677 H 0.97841 0.30744 0.31258 0.0
H1678 H 1.01848 0.36403 0.29771 0.0
H1679 H 0.9674 0.34037 0.23887 0.0
C1680 C 0.78999 0.67942 0.23389 0.0
C1681 C 0.79509 0.67763 0.17079 0.0
C1682 C 0.78572 0.66906 0.20271 0.0
C1683 C 0.80811 0.69653 0.17046 0.0
C1684 C 0.80339 0.69836 0.23371 0.0
C1685 C 0.81221 0.70687 0.2018 0.0
N1686 N 0.78188 0.67076 0.26484 0.0
C1687 C 0.78615 0.6803 0.29616 0.0
C1688 C 0.80785 0.70816 0.26585 0.0
C1689 C 0.79919 0.69907 0.29722 0.0
Gd1690 Gd 0.7754 0.60323 0.27644 0.0
Gd1691 Gd 0.75935 0.63948 0.26114 0.0
N1692 N 0.77334 0.65056 0.20398 0.0
C1693 C 0.79151 0.66692 0.14015 0.0
C1694 C 0.77007 0.6402 0.1737 0.0
C1695 C 0.77902 0.64814 0.14171 0.0
H1696 H 0.76081 0.62577 0.17301 0.0
H1697 H 0.77629 0.63967 0.11816 0.0
H1698 H 0.77086 0.60419 0.36542 0.0
H1699 H 0.77919 0.6735 0.32021 0.0
H1700 H 0.75851 0.58205 0.41508 0.0
H1701 H 0.79849 0.67297 0.11528 0.0
H1702 H 0.81531 0.70324 0.14615 0.0
H1703 H 0.76961 0.57803 0.2024 0.0
H1704 H 0.81804 0.72271 0.26674 0.0
H1705 H 0.80247 0.70652 0.32222 0.0
H1706 H 0.736 0.52309 0.35914 0.0
H1707 H 0.82249 0.7214 0.20119 0.0
H1708 H 0.74254 0.52121 0.23273 0.0
H1709 H 0.7562 0.5452 0.18618 0.0
N1710 N 0.76229 0.57253 0.25719 0.0
C1711 C 0.75529 0.5596 0.28337 0.0
C1712 C 0.76302 0.56759 0.22273 0.0
C1713 C 0.74803 0.53555 0.2399 0.0
C1714 C 0.75568 0.54905 0.21352 0.0
C1715 C 0.74791 0.54073 0.27534 0.0
H1716 H 0.7352 0.51313 0.29719 0.0
N1717 N 0.76321 0.58351 0.3256 0.0
C1718 C 0.75594 0.56524 0.31851 0.0
C1719 C 0.7498 0.5583 0.38124 0.0
C1720 C 0.74898 0.55213 0.34623 0.0
C1721 C 0.76459 0.58966 0.35984 0.0
C1722 C 0.75767 0.57715 0.38806 0.0
O1723 O 0.79018 0.64913 0.26345 0.0
O1724 O 0.78908 0.62526 0.23391 0.0
O1725 O 0.7979 0.60401 0.3086 0.0
O1726 O 0.79718 0.59949 0.2525 0.0
O1727 O 0.74281 0.61488 0.22521 0.0
O1728 O 0.75477 0.59509 0.22609 0.0
O1729 O 0.74663 0.59226 0.29987 0.0
O1730 O 0.73574 0.61164 0.28222 0.0
O1731 O 0.74063 0.64682 0.2354 0.0
O1732 O 0.74801 0.65368 0.29065 0.0
O1733 O 0.78631 0.62828 0.31771 0.0
O1734 O 0.76348 0.63574 0.31961 0.0
C1735 C 0.79834 0.64274 0.24275 0.0
C1736 C 0.74274 0.60001 0.21315 0.0
C1737 C 0.81191 0.58627 0.28771 0.0
C1738 C 0.83375 0.57635 0.31036 0.0
C1739 C 0.80758 0.55594 0.27316 0.0
C1740 C 0.80214 0.5691 0.27058 0.0
C1741 C 0.82308 0.55946 0.29278 0.0
C1742 C 0.8281 0.58995 0.30766 0.0
C1743 C 0.80559 0.60026 0.28223 0.0
C1744 C 0.74142 0.53335 0.3382 0.0
C1745 C 0.74092 0.52767 0.30289 0.0
H1746 H 0.7445 0.54865 0.40321 0.0
C1747 C 0.7332 0.59608 0.29684 0.0
C1748 C 0.77854 0.63715 0.33352 0.0
C1749 C 0.71693 0.64158 0.27563 0.0
C1750 C 0.68469 0.63053 0.26125 0.0
C1751 C 0.69295 0.62217 0.31757 0.0
C1752 C 0.71149 0.63234 0.30853 0.0
C1753 C 0.67965 0.6212 0.29422 0.0
C1754 C 0.70347 0.64047 0.25194 0.0
C1755 C 0.73652 0.65165 0.2655 0.0
H1756 H 0.79975 0.54287 0.25951 0.0
H1757 H 0.79031 0.5658 0.25442 0.0
H1758 H 0.82689 0.54886 0.29397 0.0
H1759 H 0.83615 0.60314 0.32081 0.0
H1760 H 0.68889 0.61514 0.34296 0.0
H1761 H 0.7215 0.63272 0.32726 0.0
H1762 H 0.66545 0.61392 0.3031 0.0
H1763 H 0.70767 0.64771 0.22673 0.0
C1764 C 0.54331 0.14504 0.96435 0.0
C1765 C 0.55437 0.14364 0.02349 0.0
C1766 C 0.54539 0.13492 0.9915 0.0
C1767 C 0.56103 0.16257 0.02805 0.0
C1768 C 0.55025 0.16414 0.96878 0.0
C1769 C 0.55896 0.17278 1.00081 0.0
N1770 N 0.535 0.1364 0.93336 0.0
C1771 C 0.53417 0.14626 0.90523 0.0
C1772 C 0.54854 0.17409 0.9406 0.0
C1773 C 0.54061 0.16513 0.9086 0.0
Gd1774 Gd 0.47443 0.06685 0.94802 0.0
Gd1775 Gd 0.52554 0.10485 0.93042 0.0
N1776 N 0.53828 0.11642 0.98688 0.0
C1777 C 0.55643 0.13307 0.04997 0.0
C1778 C 0.54119 0.1063 1.01184 0.0
C1779 C 0.54997 0.11437 0.04396 0.0
H1780 H 0.53687 0.09205 1.00708 0.0
H1781 H 0.55192 0.10621 0.06392 0.0
H1782 H 0.44861 0.08248 0.90561 0.0
H1783 H 0.52924 0.13976 0.87969 0.0
H1784 H 0.43086 0.07581 0.85027 0.0
H1785 H 0.56325 0.13928 0.0749 0.0
H1786 H 0.56791 0.16948 0.05249 0.0
H1787 H 0.47709 0.02941 0.96587 0.0
H1788 H 0.55372 0.18877 0.94297 0.0
H1789 H 0.53979 0.17283 0.88625 0.0
H1790 H 0.42688 0.02008 0.80677 0.0
H1791 H 0.56433 0.18742 1.00464 0.0
H1792 H 0.45167 0.99092 0.88015 0.0
H1793 H 0.46844 0.99937 0.93759 0.0
N1794 N 0.4658 0.03779 0.92425 0.0
C1795 C 0.45556 0.03296 0.89399 0.0
C1796 C 0.46981 0.02573 0.94078 0.0
C1797 C 0.45538 1.00403 0.8925 0.0
C1798 C 0.46489 1.00876 0.9249 0.0
C1799 C 0.4504 1.01608 0.87685 0.0
H1800 H 0.43652 0.99895 0.83102 0.0
N1801 N 0.45462 0.06071 0.89874 0.0
C1802 C 0.45016 0.04495 0.88044 0.0
C1803 C 0.43301 0.05187 0.83758 0.0
C1804 C 0.4394 0.04021 0.84918 0.0
C1805 C 0.44695 0.07115 0.88925 0.0
C1806 C 0.43647 0.06718 0.85813 0.0
O1807 O 0.51085 0.10766 0.98422 0.0
O1808 O 0.47996 0.09404 0.97234 0.0
O1809 O 0.44618 0.04838 0.96322 0.0
O1810 O 0.46714 0.05984 1.0039 0.0
O1811 O 0.52145 0.07684 0.94499 0.0
O1812 O 0.49659 0.06606 0.98207 0.0
O1813 O 0.4911 0.05976 0.9093 0.0
O1814 O 0.50957 0.08648 0.88016 0.0
O1815 O 0.54944 0.10067 0.9268 0.0
O1816 O 0.5502 0.12331 0.89948 0.0
O1817 O 0.47869 0.09466 0.92697 0.0
O1818 O 0.50563 0.10826 0.89412 0.0
C1819 C 0.49405 0.10512 0.99264 0.0
C1820 C 0.51111 0.06556 0.97016 0.0
C1821 C 0.43895 0.05868 1.01575 0.0
C1822 C 0.42016 0.07342 1.01216 0.0
C1823 C 0.43 0.06817 0.06976 0.0
C1824 C 0.43928 0.06021 0.05297 0.0
C1825 C 0.42044 0.07472 0.04954 0.0
C1826 C 0.42929 0.06521 0.99577 0.0
C1827 C 0.44955 0.05151 0.9971 0.0
C1828 C 0.43492 0.02378 0.83108 0.0
C1829 C 0.44036 1.01172 0.84494 0.0
H1830 H 0.42478 0.04877 0.81361 0.0
C1831 C 0.49829 0.06818 0.87915 0.0
C1832 C 0.48996 0.10722 0.90376 0.0
C1833 C 0.57081 0.1133 0.87766 0.0
C1834 C 0.60036 0.11715 0.85343 0.0
C1835 C 0.57282 0.10517 0.81627 0.0
C1836 C 0.56264 0.10654 0.84438 0.0
C1837 C 0.59133 0.1103 0.82073 0.0
C1838 C 0.58994 0.1188 0.8821 0.0
C1839 C 0.55937 0.11498 0.9069 0.0
H1840 H 0.43028 0.06934 0.0985 0.0
H1841 H 0.44682 0.05543 0.06893 0.0
H1842 H 0.41337 0.08084 0.06307 0.0
H1843 H 0.42865 0.06368 0.96707 0.0
H1844 H 0.56627 0.10001 0.7907 0.0
H1845 H 0.5483 0.10238 0.84002 0.0
H1846 H 0.59871 0.10897 0.79825 0.0
H1847 H 0.59654 0.12409 0.9076 0.0
C1848 C 0.90375 0.41221 0.95827 0.0
C1849 C 0.90528 0.42428 1.0179 0.0
C1850 C 0.91404 0.42369 0.98618 0.0
C1851 C 0.8861 0.41312 0.02127 0.0
C1852 C 0.88442 0.40135 0.9613 0.0
C1853 C 0.87569 0.40173 0.99303 0.0
N1854 N 0.91254 0.41202 0.9279 0.0
C1855 C 0.9027 0.4023 0.89882 0.0
C1856 C 0.87436 0.39066 0.93209 0.0
C1857 C 0.88353 0.39131 0.90058 0.0
Gd1858 Gd 0.98147 0.41652 0.94701 0.0
Gd1859 Gd 0.94468 0.43133 0.92748 0.0
N1860 N 0.93267 0.4341 0.98247 0.0
C1861 C 0.91605 0.43613 0.04528 0.0
C1862 C 0.94309 0.44632 1.00847 0.0
C1863 C 0.935 0.44733 0.04037 0.0
H1864 H 0.9576 0.45537 1.00486 0.0
H1865 H 0.94339 0.45683 0.06109 0.0
H1866 H 0.96361 0.37772 0.89175 0.0
H1867 H 0.90956 0.40352 0.8738 0.0
H1868 H 0.97097 0.36981 0.83404 0.0
H1869 H 0.90983 0.43695 0.07005 0.0
H1870 H 0.87916 0.41334 0.0455 0.0
H1871 H 1.01977 0.45292 0.97448 0.0
H1872 H 0.85948 0.38221 0.93331 0.0
H1873 H 0.87582 0.38356 0.87747 0.0
H1874 H 0.0315 0.41929 0.80785 0.0
H1875 H 0.86087 0.3934 0.99586 0.0
H1876 H 0.0618 0.46645 0.89604 0.0
H1877 H 0.05183 0.47299 0.95371 0.0
N1878 N 1.0118 0.43584 0.92869 0.0
C1879 C 1.01715 0.43141 0.89783 0.0
C1880 C 1.02404 0.45022 0.94917 0.0
C1881 C 0.04778 0.45765 0.90511 0.0
C1882 C 0.04218 0.46145 0.93759 0.0
C1883 C 0.03526 0.44243 0.88487 0.0
H1884 H 0.05398 0.44653 0.84144 0.0
N1885 N 0.98741 0.40476 0.89383 0.0
C1886 C 1.00445 0.41579 0.87933 0.0
C1887 C 0.99709 0.39481 0.82969 0.0
C1888 C 1.00965 0.41114 0.84682 0.0
C1889 C 0.97596 0.3879 0.87876 0.0
C1890 C 0.98036 0.38297 0.84613 0.0
O1891 O 0.93929 0.41279 0.98094 0.0
O1892 O 0.95445 0.39641 0.97396 0.0
O1893 O 0.99886 0.40511 0.95919 0.0
O1894 O 0.98779 0.41376 1.00229 0.0
O1895 O 0.97264 0.45456 0.94429 0.0
O1896 O 0.98421 0.44075 0.9805 0.0
O1897 O 0.9904 0.44119 0.91021 0.0
O1898 O 0.9642 0.43335 0.8798 0.0
O1899 O 0.94444 0.45777 0.92664 0.0
O1900 O 0.93454 0.43959 0.88187 0.0
O1901 O 0.95331 0.39296 0.92695 0.0
O1902 O 0.93828 0.40555 0.89614 0.0
C1903 C 0.94264 0.39936 0.99207 0.0
C1904 C 0.98388 0.45558 0.96968 0.0
C1905 C 0.98822 0.38598 1.00841 0.0
C1906 C 0.97172 0.35279 0.99728 0.0
C1907 C 0.98759 0.36538 0.05389 0.0
C1908 C 0.99353 0.38327 0.04207 0.0
C1909 C 0.97718 0.35028 0.03147 0.0
C1910 C 0.9764 0.37074 0.9874 0.0
C1911 C 0.99581 0.40445 0.99323 0.0
C1912 C 1.0274 0.42258 0.83295 0.0
C1913 C 0.04023 0.43806 0.85211 0.0
H1914 H 1.00052 0.39082 0.8046 0.0
C1915 C 0.98249 0.44082 0.87988 0.0
C1916 C 0.93994 0.39127 0.90542 0.0
C1917 C 0.9235 0.46113 0.88565 0.0
C1918 C 0.91518 0.48489 0.86852 0.0
C1919 C 0.8929 0.45214 0.86287 0.0
C1920 C 0.90556 0.44749 0.87612 0.0
C1921 C 0.89761 0.47053 0.85913 0.0
C1922 C 0.92832 0.4801 0.88167 0.0
C1923 C 0.93737 0.45521 0.89488 0.0
H1924 H 0.99183 0.36324 0.07982 0.0
H1925 H 1.00246 0.39492 0.05877 0.0
H1926 H 0.97433 0.33688 0.04061 0.0
H1927 H 0.9715 0.37318 0.96251 0.0
H1928 H 0.87928 0.44135 0.85514 0.0
H1929 H 0.90135 0.43305 0.87795 0.0
H1930 H 0.88739 0.47359 0.84867 0.0
H1931 H 0.94211 0.49094 0.88829 0.0
C1932 C 0.64044 0.50402 0.95995 0.0
C1933 C 0.62969 0.4932 0.02011 0.0
C1934 C 0.62916 0.50222 0.98881 0.0
C1935 C 0.64177 0.48619 0.02222 0.0
C1936 C 0.65238 0.49671 0.96193 0.0
C1937 C 0.65308 0.48795 0.99325 0.0
N1938 N 0.63926 0.51225 0.92959 0.0
C1939 C 0.64894 0.51275 0.89987 0.0
C1940 C 0.663 0.49805 0.93206 0.0
C1941 C 0.66116 0.50598 0.90082 0.0
Gd1942 Gd 0.63142 0.57411 0.94533 0.0
Gd1943 Gd 0.61749 0.52217 0.9307 0.0
N1944 N 0.61781 0.50948 0.98642 0.0
C1945 C 0.618 0.49142 0.04839 0.0
C1946 C 0.60572 0.50693 1.01331 0.0
C1947 C 0.6059 0.49821 0.04487 0.0
H1948 H 0.59613 0.51186 1.01081 0.0
H1949 H 0.5966 0.49662 0.0664 0.0
H1950 H 0.67377 0.59684 0.90223 0.0
H1951 H 0.64667 0.51765 0.87492 0.0
H1952 H 0.68523 0.61054 0.84351 0.0
H1953 H 0.61806 0.48462 0.07288 0.0
H1954 H 0.64237 0.47926 0.04608 0.0
H1955 H 0.59722 0.58132 0.96361 0.0
H1956 H 0.67229 0.49258 0.93254 0.0
H1957 H 0.66886 0.50652 0.87722 0.0
H1958 H 0.63615 0.61711 0.79419 0.0
H1959 H 0.66217 0.48228 0.99518 0.0
H1960 H 0.58538 0.60376 0.8716 0.0
H1961 H 0.57777 0.59178 0.93328 0.0
N1962 N 0.61435 0.58604 0.91902 0.0
C1963 C 0.61959 0.59378 0.88643 0.0
C1964 C 0.60004 0.58593 0.93646 0.0
C1965 C 0.59368 0.59894 0.88476 0.0
C1966 C 0.5893 0.59213 0.91949 0.0
C1967 C 0.60923 0.60019 0.86804 0.0
H1968 H 0.60709 0.6128 0.81931 0.0
N1969 N 0.64634 0.59157 0.89324 0.0
C1970 C 0.63597 0.5963 0.87271 0.0
C1971 C 0.65997 0.60946 0.82824 0.0
C1972 C 0.64241 0.60524 0.83963 0.0
C1973 C 0.66437 0.59792 0.88414 0.0
C1974 C 0.67119 0.60625 0.85106 0.0
O1975 O 0.63517 0.53683 0.98388 0.0
O1976 O 0.65196 0.56797 0.97312 0.0
O1977 O 0.64115 0.60243 0.95971 0.0
O1978 O 0.63327 0.58201 1.00126 0.0
O1979 O 0.59378 0.5249 0.95249 0.0
O1980 O 0.6054 0.55415 0.97649 0.0
O1981 O 0.60618 0.55617 0.91126 0.0
O1982 O 0.61462 0.53812 0.88106 0.0
O1983 O 0.58869 0.50006 0.92309 0.0
O1984 O 0.61047 0.49611 0.90436 0.0
O1985 O 0.65438 0.56822 0.92736 0.0
O1986 O 0.64036 0.54191 0.89329 0.0
C1987 C 0.64899 0.55373 0.99292 0.0
C1988 C 0.59197 0.53689 0.97226 0.0
C1989 C 0.66027 0.61069 1.0099 0.0
C1990 C 0.69306 0.63191 1.0022 0.0
C1991 C 0.68034 0.62247 0.06152 0.0
C1992 C 0.66269 0.61163 0.04699 0.0
C1993 C 0.69552 0.63279 0.03922 0.0
C1994 C 0.67565 0.62042 0.98787 0.0
C1995 C 0.64201 0.59951 0.99351 0.0
C1996 C 0.63155 0.6105 0.81989 0.0
C1997 C 0.61502 0.60809 0.83419 0.0
H1998 H 0.66539 0.61619 0.8029 0.0
C1999 C 0.60696 0.54884 0.88087 0.0
C2000 C 0.6554 0.55693 0.90383 0.0
C2001 C 0.58114 0.47729 0.87676 0.0
C2002 C 0.55601 0.44816 0.85008 0.0
C2003 C 0.57589 0.47476 0.8129 0.0
C2004 C 0.58557 0.485 0.84262 0.0
C2005 C 0.5614 0.45669 0.8165 0.0
C2006 C 0.5663 0.45861 0.88048 0.0
C2007 C 0.59273 0.4886 0.90764 0.0
H2008 H 0.68218 0.62325 0.09014 0.0
H2009 H 0.65102 0.60403 0.06454 0.0
H2010 H 0.70889 0.64196 0.05078 0.0
H2011 H 0.6741 0.6199 0.95913 0.0
H2012 H 0.57968 0.48089 0.78668 0.0
H2013 H 0.59678 0.49899 0.83887 0.0
H2014 H 0.55437 0.44926 0.79257 0.0
H2015 H 0.56269 0.45242 0.90668 0.0
C2016 C 0.56866 0.83367 0.75599 0.0
C2017 C 0.56075 0.83302 0.69357 0.0
C2018 C 0.57406 0.83853 0.7208 0.0
C2019 C 0.54195 0.82261 0.70221 0.0
C2020 C 0.5498 0.82278 0.76459 0.0
C2021 C 0.5365 0.81748 0.73759 0.0
N2022 N 0.58184 0.83863 0.78147 0.0
C2023 C 0.57714 0.83238 0.81563 0.0
C2024 C 0.54488 0.81706 0.79989 0.0
C2025 C 0.55862 0.82175 0.82545 0.0
Gd2026 Gd 0.64919 0.90804 0.77851 0.0
Gd2027 Gd 0.61245 0.85577 0.76161 0.0
N2028 N 0.59235 0.84875 0.71321 0.0
C2029 C 0.56673 0.83807 0.65841 0.0
C2030 C 0.5983 0.85314 0.67882 0.0
C2031 C 0.58559 0.84809 0.65101 0.0
H2032 H 0.61285 0.86073 0.67292 0.0
H2033 H 0.59033 0.85186 0.62385 0.0
H2034 H 0.63505 0.8947 0.86721 0.0
H2035 H 0.58774 0.83558 0.83532 0.0
H2036 H 0.64846 0.89355 0.92287 0.0
H2037 H 0.55692 0.83415 0.63677 0.0
H2038 H 0.53153 0.81829 0.68165 0.0
H2039 H 0.68322 0.91953 0.72014 0.0
H2040 H 0.53055 0.80864 0.80751 0.0
H2041 H 0.55496 0.81702 0.85262 0.0
H2042 H 0.71174 0.91563 0.89649 0.0
H2043 H 0.52196 0.80917 0.74373 0.0
H2044 H 0.73175 0.92956 0.77572 0.0
H2045 H 0.71591 0.92809 0.71928 0.0
N2046 N 0.68024 0.91563 0.77593 0.0
C2047 C 0.68869 0.91654 0.80732 0.0
C2048 C 0.68984 0.91975 0.74468 0.0
C2049 C 0.71735 0.92576 0.77614 0.0
C2050 C 0.70845 0.92484 0.74423 0.0
C2051 C 0.70749 0.92149 0.80815 0.0
H2052 H 0.73011 0.92516 0.84163 0.0
N2053 N 0.65983 0.90558 0.83647 0.0
C2054 C 0.67821 0.91119 0.83833 0.0
C2055 C 0.67566 0.90433 0.90141 0.0
C2056 C 0.6865 0.91064 0.8708 0.0
C2057 C 0.64936 0.89933 0.86679 0.0
C2058 C 0.65703 0.8986 0.89931 0.0
O2059 O 0.60225 0.87423 0.73862 0.0
O2060 O 0.62213 0.90459 0.75537 0.0
O2061 O 0.65523 0.93434 0.80208 0.0
O2062 O 0.66561 0.93345 0.75006 0.0
O2063 O 0.63779 0.87008 0.72069 0.0
O2064 O 0.64553 0.90044 0.71977 0.0
O2065 O 0.65799 0.88617 0.77706 0.0
O2066 O 0.63363 0.86337 0.80538 0.0
O2067 O 0.61465 0.83509 0.72839 0.0
O2068 O 0.60711 0.82914 0.78297 0.0
O2069 O 0.62427 0.90016 0.81386 0.0
O2070 O 0.60443 0.86838 0.81243 0.0
C2071 C 0.6065 0.89165 0.74099 0.0
C2072 C 0.64689 0.88683 0.70536 0.0
C2073 C 0.65295 0.95265 0.75641 0.0
C2074 C 0.63737 0.97063 0.76289 0.0
C2075 C 0.64135 0.96056 0.70411 0.0
C2076 C 0.65046 0.95225 0.71926 0.0
C2077 C 0.63497 0.96975 0.72551 0.0
C2078 C 0.64608 0.96157 0.7781 0.0
C2079 C 0.662 0.94308 0.77227 0.0
C2080 C 0.70526 0.91597 0.87176 0.0
C2081 C 0.71573 0.92141 0.84055 0.0
H2082 H 0.6815 0.90364 0.9267 0.0
C2083 C 0.65119 0.87154 0.79753 0.0
C2084 C 0.60931 0.88534 0.82567 0.0
C2085 C 0.59566 0.80261 0.74361 0.0
C2086 C 0.58688 0.7707 0.72269 0.0
C2087 C 0.56366 0.77769 0.74463 0.0
C2088 C 0.577 0.79592 0.75138 0.0
C2089 C 0.56849 0.76529 0.73058 0.0
C2090 C 0.60063 0.7897 0.72901 0.0
C2091 C 0.60948 0.8226 0.7531 0.0
H2092 H 0.63957 0.9602 0.67551 0.0
H2093 H 0.65542 0.9454 0.70167 0.0
H2094 H 0.629 0.97691 0.71207 0.0
H2095 H 0.64782 0.96161 0.80666 0.0
H2096 H 0.54938 0.77301 0.75096 0.0
H2097 H 0.57259 0.80468 0.76354 0.0
H2098 H 0.55769 0.75115 0.72625 0.0
H2099 H 0.61496 0.79424 0.72351 0.0
C2100 C 0.21047 0.7408 0.75196 0.0
C2101 C 0.21204 0.73603 0.68844 0.0
C2102 C 0.20644 0.74308 0.71706 0.0
C2103 C 0.22147 0.72646 0.69538 0.0
C2104 C 0.22044 0.73165 0.75886 0.0
C2105 C 0.22568 0.7243 0.73047 0.0
N2106 N 0.20546 0.74824 0.77897 0.0
C2107 C 0.21117 0.74815 0.81308 0.0
C2108 C 0.22536 0.73061 0.79402 0.0
C2109 C 0.22087 0.73907 0.82118 0.0
Gd2110 Gd 0.13952 0.7512 0.77942 0.0
Gd2111 Gd 0.19038 0.76434 0.76163 0.0
N2112 N 0.19732 0.75244 0.71097 0.0
C2113 C 0.20817 0.73898 0.65361 0.0
C2114 C 0.19411 0.75593 0.67695 0.0
C2115 C 0.19925 0.74905 0.64786 0.0
H2116 H 0.18752 0.76394 0.67212 0.0
H2117 H 0.19645 0.75163 0.62099 0.0
H2118 H 0.16112 0.7566 0.86268 0.0
H2119 H 0.20834 0.75523 0.83415 0.0
H2120 H 0.16244 0.77086 0.91932 0.0
H2121 H 0.21221 0.73375 0.63097 0.0
H2122 H 0.22581 0.72091 0.67374 0.0
H2123 H 0.1267 0.7727 0.722 0.0
H2124 H 0.23305 0.72374 0.80034 0.0
H2125 H 0.22508 0.73881 0.84831 0.0
H2126 H 0.13362 0.80672 0.89836 0.0
H2127 H 0.23328 0.71718 0.73532 0.0
H2128 H 0.11576 0.81034 0.77922 0.0
H2129 H 0.11664 0.79578 0.7224 0.0
N2130 N 0.13217 0.7747 0.77734 0.0
C2131 C 0.13153 0.78226 0.80896 0.0
C2132 C 0.12681 0.7793 0.74661 0.0
C2133 C 0.12026 0.80026 0.77906 0.0
C2134 C 0.12087 0.79219 0.74691 0.0
C2135 C 0.12572 0.79544 0.81055 0.0
H2136 H 0.12165 0.81393 0.84487 0.0
N2137 N 0.14482 0.76606 0.8363 0.0
C2138 C 0.13812 0.77793 0.83926 0.0
C2139 C 0.1476 0.784 0.90098 0.0
C2140 C 0.1393 0.7871 0.87168 0.0
C2141 C 0.15399 0.76409 0.86459 0.0
C2142 C 0.15525 0.77271 0.8972 0.0
O2143 O 0.17029 0.73755 0.73335 0.0
O2144 O 0.14207 0.72609 0.76178 0.0
O2145 O 0.11264 0.73662 0.80487 0.0
O2146 O 0.11473 0.74012 0.7474 0.0
O2147 O 0.17756 0.7769 0.72101 0.0
O2148 O 0.14707 0.75475 0.72063 0.0
O2149 O 0.16136 0.78176 0.77521 0.0
O2150 O 0.18438 0.78049 0.80309 0.0
O2151 O 0.21423 0.78719 0.73152 0.0
O2152 O 0.21624 0.78248 0.78746 0.0
O2153 O 0.14544 0.73343 0.8168 0.0
O2154 O 0.17665 0.74287 0.81109 0.0
C2155 C 0.15386 0.72371 0.74185 0.0
C2156 C 0.16077 0.76951 0.70595 0.0
C2157 C 0.08551 0.71847 0.77041 0.0
C2158 C 0.06211 0.68652 0.77935 0.0
C2159 C 0.05446 0.70745 0.74903 0.0
C2160 C 0.07251 0.72166 0.75327 0.0
C2161 C 0.04926 0.68999 0.76202 0.0
C2162 C 0.08043 0.70078 0.78322 0.0
C2163 C 0.10392 0.73432 0.77496 0.0
C2164 C 0.13289 0.7997 0.8736 0.0
C2165 C 0.1261 0.80383 0.84314 0.0
H2166 H 0.14883 0.79084 0.92623 0.0
C2167 C 0.17642 0.79 0.79446 0.0
C2168 C 0.15991 0.73206 0.82658 0.0
C2169 C 0.245 0.80738 0.7624 0.0
C2170 C 0.27587 0.83227 0.74039 0.0
C2171 C 0.27116 0.82344 0.80292 0.0
C2172 C 0.25284 0.81036 0.79667 0.0
C2173 C 0.28247 0.83418 0.77536 0.0
C2174 C 0.25684 0.81855 0.73367 0.0
C2175 C 0.2249 0.79195 0.75939 0.0
H2176 H 0.04449 0.70997 0.73571 0.0
H2177 H 0.07634 0.73525 0.74332 0.0
H2178 H 0.03515 0.67905 0.75816 0.0
H2179 H 0.09048 0.69822 0.79621 0.0
H2180 H 0.2767 0.82527 0.82961 0.0
H2181 H 0.24478 0.80241 0.81931 0.0
H2182 H 0.29667 0.84421 0.78154 0.0
H2183 H 0.2514 0.81668 0.70691 0.0
C2184 C 0.31058 0.48007 0.7522 0.0
C2185 C 0.31704 0.48652 0.68907 0.0
C2186 C 0.30838 0.47389 0.71713 0.0
C2187 C 0.32893 0.50522 0.69687 0.0
C2188 C 0.32172 0.49904 0.75984 0.0
C2189 C 0.33131 0.51145 0.73217 0.0
N2190 N 0.3006 0.46785 0.77831 0.0
C2191 C 0.29987 0.474 0.81175 0.0
C2192 C 0.32222 0.50512 0.7948 0.0
C2193 C 0.31099 0.49259 0.82071 0.0
Gd2194 Gd 0.29865 0.40079 0.7774 0.0
Gd2195 Gd 0.28287 0.43686 0.75991 0.0
N2196 N 0.29693 0.45568 0.71024 0.0
C2197 C 0.31301 0.48007 0.65391 0.0
C2198 C 0.29195 0.44954 0.67604 0.0
C2199 C 0.30019 0.46156 0.64739 0.0
H2200 H 0.28186 0.43529 0.67096 0.0
H2201 H 0.29658 0.45657 0.62031 0.0
H2202 H 0.30624 0.409 0.86746 0.0
H2203 H 0.29061 0.46456 0.83161 0.0
H2204 H 0.29044 0.39472 0.92301 0.0
H2205 H 0.31934 0.48936 0.63166 0.0
H2206 H 0.3359 0.51508 0.67569 0.0
H2207 H 0.27881 0.36805 0.71537 0.0
H2208 H 0.33061 0.51956 0.8017 0.0
H2209 H 0.31067 0.49729 0.84744 0.0
H2210 H 0.24033 0.33601 0.88742 0.0
H2211 H 0.34006 0.52603 0.73764 0.0
H2212 H 0.23503 0.3198 0.76377 0.0
H2213 H 0.25283 0.33624 0.71013 0.0
N2214 N 0.27518 0.37 0.77091 0.0
C2215 C 0.26631 0.36089 0.80098 0.0
C2216 C 0.27091 0.36119 0.73878 0.0
C2217 C 0.24639 0.33381 0.76616 0.0
C2218 C 0.25634 0.34306 0.73581 0.0
C2219 C 0.25142 0.34265 0.79933 0.0
H2220 H 0.23039 0.31991 0.82988 0.0
N2221 N 0.28658 0.38762 0.83398 0.0
C2222 C 0.272 0.37004 0.83338 0.0
C2223 C 0.26923 0.37029 0.89744 0.0
C2224 C 0.2628 0.36104 0.86502 0.0
C2225 C 0.29363 0.39608 0.86592 0.0
C2226 C 0.2849 0.38774 0.89791 0.0
O2227 O 0.30803 0.44046 0.72823 0.0
O2228 O 0.32198 0.43018 0.7664 0.0
O2229 O 0.31643 0.39123 0.79912 0.0
O2230 O 0.31156 0.39009 0.74229 0.0
O2231 O 0.27049 0.4109 0.72123 0.0
O2232 O 0.29321 0.40327 0.71863 0.0
O2233 O 0.26814 0.39295 0.77921 0.0
O2234 O 0.2687 0.41738 0.80622 0.0
O2235 O 0.25459 0.42651 0.74005 0.0
O2236 O 0.26944 0.45368 0.76153 0.0
O2237 O 0.315 0.42564 0.81414 0.0
O2238 O 0.29869 0.44137 0.81622 0.0
C2239 C 0.3232 0.44173 0.74144 0.0
C2240 C 0.27789 0.40169 0.7056 0.0
C2241 C 0.3422 0.40245 0.7613 0.0
C2242 C 0.37408 0.41451 0.78038 0.0
C2243 C 0.36714 0.42695 0.72769 0.0
C2244 C 0.34844 0.41474 0.73234 0.0
C2245 C 0.37987 0.42682 0.75123 0.0
C2246 C 0.35501 0.40281 0.78574 0.0
C2247 C 0.32232 0.39028 0.76747 0.0
C2248 C 0.24764 0.34304 0.86341 0.0
C2249 C 0.242 0.33385 0.83066 0.0
H2250 H 0.26254 0.36386 0.92231 0.0
C2251 C 0.26057 0.39947 0.80134 0.0
C2252 C 0.31197 0.4382 0.82916 0.0
C2253 C 0.2367 0.44131 0.75427 0.0
C2254 C 0.21076 0.44692 0.73968 0.0
C2255 C 0.21243 0.4344 0.79736 0.0
C2256 C 0.22878 0.43487 0.78781 0.0
C2257 C 0.20354 0.44026 0.77369 0.0
C2258 C 0.22762 0.44749 0.73005 0.0
C2259 C 0.25452 0.44187 0.74514 0.0
H2260 H 0.37182 0.43631 0.70525 0.0
H2261 H 0.33892 0.41513 0.71338 0.0
H2262 H 0.39428 0.43576 0.74504 0.0
H2263 H 0.35 0.39363 0.80842 0.0
H2264 H 0.20654 0.42941 0.82346 0.0
H2265 H 0.23532 0.43021 0.80677 0.0
H2266 H 0.19086 0.43963 0.78212 0.0
H2267 H 0.23354 0.45258 0.704 0.0
C2268 C 0.60422 1.00684 0.14295 0.0
C2269 C 0.62003 1.00008 0.1893 0.0
C2270 C 0.60902 0.99475 0.15829 0.0
C2271 C 0.62534 1.0172 0.20533 0.0
C2272 C 0.61009 0.02432 0.1582 0.0
C2273 C 0.62038 0.02928 0.18983 0.0
N2274 N 0.59387 1.00154 0.11282 0.0
C2275 C 0.59041 1.01358 0.09469 0.0
C2276 C 0.60563 0.03637 0.1409 0.0
C2277 C 0.59599 0.03107 0.1087 0.0
Gd2278 Gd 0.53246 0.93507 0.11171 0.0
Gd2279 Gd 0.58408 0.97169 0.09194 0.0
N2280 N 0.60363 0.97821 0.14211 0.0
C2281 C 0.62575 0.98824 0.20288 0.0
C2282 C 0.61041 0.96733 0.15397 0.0
C2283 C 0.6212 0.97197 0.18475 0.0
H2284 H 0.60802 0.95519 0.13967 0.0
H2285 H 0.62624 0.9631 0.19417 0.0
H2286 H 0.52242 0.94839 0.03388 0.0
H2287 H 0.58321 1.00957 0.06962 0.0
H2288 H 0.50659 0.93435 0.97775 0.0
H2289 H 0.63421 0.99183 0.22661 0.0
H2290 H 0.63357 0.02137 0.2294 0.0
H2291 H 0.52405 0.89976 0.1654 0.0
H2292 H 0.6099 0.04991 0.15176 0.0
H2293 H 0.59288 0.04046 0.09465 0.0
H2294 H 0.48384 0.86978 0.99388 0.0
H2295 H 0.62481 0.04254 0.20222 0.0
H2296 H 0.4941 0.84966 0.10632 0.0
H2297 H 0.50917 0.8659 0.16215 0.0
N2298 N 0.5193 0.90288 0.11099 0.0
C2299 C 0.51044 0.89419 0.08046 0.0
C2300 C 0.51852 0.89292 0.14032 0.0
C2301 C 0.50115 0.86458 0.10727 0.0
C2302 C 0.50969 0.87369 0.13879 0.0
C2303 C 0.5012 0.87478 0.07777 0.0
H2304 H 0.48469 0.85125 0.04373 0.0
N2305 N 0.51829 0.92329 0.05616 0.0
C2306 C 0.50966 0.90462 0.05249 0.0
C2307 C 0.49926 0.90683 0.99361 0.0
C2308 C 0.50004 0.89593 0.02096 0.0
C2309 C 0.5167 0.93384 0.03024 0.0
C2310 C 0.5075 0.92585 0.99841 0.0
O2311 O 0.56843 0.98023 0.13017 0.0
O2312 O 0.55018 0.95386 0.16013 0.0
O2313 O 0.50795 0.9385 0.11316 0.0
O2314 O 0.51136 0.9225 0.1532 0.0
O2315 O 0.57945 0.94381 0.11391 0.0
O2316 O 0.55153 0.92853 0.14398 0.0
O2317 O 0.54584 0.93003 0.05803 0.0
O2318 O 0.57711 0.94408 0.06723 0.0
O2319 O 0.61244 0.98966 0.07694 0.0
O2320 O 0.59182 0.97714 0.03583 0.0
O2321 O 0.53772 0.96335 0.09594 0.0
O2322 O 0.56244 0.97379 0.05844 0.0
C2323 C 0.56131 0.97213 0.16054 0.0
C2324 C 0.56771 0.93042 0.13541 0.0
C2325 C 0.48006 0.91492 0.14181 0.0
C2326 C 0.44738 0.90612 0.15524 0.0
C2327 C 0.45514 0.88334 0.13362 0.0
C2328 C 0.47377 0.89656 0.13195 0.0
C2329 C 0.44217 0.88801 0.14498 0.0
C2330 C 0.46665 0.91969 0.15392 0.0
C2331 C 0.50063 0.92834 0.14126 0.0
C2332 C 0.4913 0.87668 1.01789 0.0
C2333 C 0.49183 0.86613 0.04624 0.0
H2334 H 0.49203 0.90068 0.96899 0.0
C2335 C 0.56257 0.93273 0.04812 0.0
C2336 C 0.54787 0.97429 0.07015 0.0
C2337 C 0.62028 0.97836 0.0275 0.0
C2338 C 0.63799 0.9629 0.0383 0.0
C2339 C 0.63985 0.97764 0.98104 0.0
C2340 C 0.62768 0.98326 0.99327 0.0
C2341 C 0.64536 0.96796 1.00355 0.0
C2342 C 0.62452 0.96724 0.04868 0.0
C2343 C 0.60934 0.98581 0.04323 0.0
H2344 H 0.4507 0.86924 0.1261 0.0
H2345 H 0.48332 0.89226 0.12337 0.0
H2346 H 0.42782 0.87727 0.14588 0.0
H2347 H 0.47111 0.93373 0.16191 0.0
H2348 H 0.64575 0.98157 0.95464 0.0
H2349 H 0.62435 0.99167 0.97642 0.0
H2350 H 0.65598 0.96531 0.99395 0.0
H2351 H 0.61757 0.96256 0.07399 0.0
C2352 C 0.03917 0.6078 0.14045 0.0
C2353 C 0.04575 0.62587 0.19454 0.0
C2354 C 0.0516 0.62239 0.16157 0.0
C2355 C 1.02744 0.61457 0.20577 0.0
C2356 C 1.02067 0.59667 0.15125 0.0
C2357 C 1.0149 0.60013 0.18405 0.0
N2358 N 0.04533 0.60407 0.10982 0.0
C2359 C 0.03364 0.59021 0.0877 0.0
C2360 C 1.00863 0.58214 0.12908 0.0
C2361 C 1.01513 0.57897 0.09706 0.0
Gd2362 Gd 0.11196 0.60703 0.11326 0.0
Gd2363 Gd 0.0762 0.62358 0.09511 0.0
N2364 N 0.0693 0.63314 0.14991 0.0
C2365 C 0.0584 0.64072 0.21517 0.0
C2366 C 0.08122 0.64846 0.169 0.0
C2367 C 0.07611 0.65219 0.20211 0.0
H2368 H 0.09457 0.65831 0.15904 0.0
H2369 H 0.08579 0.66413 0.21731 0.0
H2370 H 0.09855 0.58278 0.03662 0.0
H2371 H 0.03861 0.58788 0.06276 0.0
H2372 H 0.11242 0.58097 0.97999 0.0
H2373 H 0.05448 0.64374 0.24075 0.0
H2374 H 1.02279 0.61699 0.23111 0.0
H2375 H 0.14748 0.63429 0.16658 0.0
H2376 H 0.99433 0.57329 0.13645 0.0
H2377 H 1.0059 0.56787 0.07961 0.0
H2378 H 0.17677 0.62455 0.99391 0.0
H2379 H 1.00081 0.59159 0.19302 0.0
H2380 H 0.1972 0.65558 0.10599 0.0
H2381 H 0.18123 0.65395 0.16248 0.0
N2382 N 0.14409 0.62653 0.11202 0.0
C2383 C 0.15266 0.62654 0.08116 0.0
C2384 C 0.15417 0.63578 0.14125 0.0
C2385 C 0.1823 0.64741 0.10732 0.0
C2386 C 0.17335 0.64658 0.13922 0.0
C2387 C 0.17202 0.63708 0.07797 0.0
H2388 H 0.19539 0.64452 0.04323 0.0
N2389 N 0.12359 0.60449 0.05772 0.0
C2390 C 0.1422 0.61495 0.05351 0.0
C2391 C 0.13984 0.60194 0.99486 0.0
C2392 C 0.15077 0.61406 0.02178 0.0
C2393 C 0.11303 0.59191 0.03233 0.0
C2394 C 0.12092 0.59071 1.00031 0.0
O2395 O 0.06672 0.5991 0.13278 0.0
O2396 O 0.0929 0.60509 0.16205 0.0
O2397 O 0.10794 0.57886 0.11453 0.0
O2398 O 0.1253 0.59849 0.15315 0.0
O2399 O 0.10474 0.64632 0.11481 0.0
O2400 O 0.11847 0.63254 0.14615 0.0
O2401 O 0.11633 0.62471 0.05885 0.0
O2402 O 0.1036 0.64302 0.06902 0.0
O2403 O 0.0637 0.64021 0.08421 0.0
O2404 O 0.06661 0.62435 0.04167 0.0
O2405 O 0.08331 0.58485 0.09785 0.0
O2406 O 0.07397 0.59998 0.06019 0.0
C2407 C 0.0747 0.59866 0.16255 0.0
C2408 C 0.11778 0.64735 0.13643 0.0
C2409 C 0.13197 0.57426 0.13988 0.0
C2410 C 0.14126 0.55066 0.15276 0.0
C2411 C 0.16241 0.57969 0.12351 0.0
C2412 C 0.1494 0.58538 0.12473 0.0
C2413 C 0.15843 0.56264 0.13718 0.0
C2414 C 0.12793 0.55669 0.15439 0.0
C2415 C 0.11881 0.58172 0.14149 0.0
C2416 C 0.16996 0.62504 1.01811 0.0
C2417 C 0.18055 0.63647 0.04616 0.0
H2418 H 0.14591 0.60089 0.97009 0.0
C2419 C 0.11416 0.63909 0.04919 0.0
C2420 C 0.07274 0.58454 0.07184 0.0
C2421 C 0.07157 0.65394 0.0271 0.0
C2422 C 0.08853 0.68752 0.02095 0.0
C2423 C 0.08002 0.66792 0.96842 0.0
C2424 C 0.07162 0.65221 0.9899 0.0
C2425 C 0.08835 0.6855 0.98376 0.0
C2426 C 0.08002 0.67164 0.04232 0.0
C2427 C 0.06304 0.63737 0.04995 0.0
H2428 H 0.1758 0.58864 0.11182 0.0
H2429 H 0.15314 0.59872 0.11408 0.0
H2430 H 0.16899 0.5588 0.13566 0.0
H2431 H 0.1146 0.54782 0.16639 0.0
H2432 H 0.07998 0.66648 0.93976 0.0
H2433 H 0.06519 0.63872 0.97748 0.0
H2434 H 0.09458 0.69747 0.9666 0.0
H2435 H 0.07957 0.67311 0.07093 0.0
C2436 C 0.43391 0.43852 0.14445 0.0
C2437 C 0.41367 0.42853 0.19565 0.0
C2438 C 0.41893 0.43742 0.16226 0.0
C2439 C 0.42408 0.42143 0.21114 0.0
C2440 C 0.44373 0.43042 0.15879 0.0
C2441 C 0.43894 0.42216 0.19254 0.0
N2442 N 0.43881 0.44742 0.11277 0.0
C2443 C 0.45256 0.44776 0.09276 0.0
C2444 C 0.45818 0.43106 0.13884 0.0
C2445 C 0.46248 0.4396 0.10548 0.0
Gd2446 Gd 0.43951 0.5137 0.11235 0.0
Gd2447 Gd 0.42229 0.46134 0.09292 0.0
N2448 N 0.40893 0.44411 0.14603 0.0
C2449 C 0.39771 0.42641 0.21187 0.0
C2450 C 0.39215 0.4399 0.15994 0.0
C2451 C 0.38666 0.43169 0.19348 0.0
H2452 H 0.38253 0.44233 0.14537 0.0
H2453 H 0.37368 0.42907 0.2048 0.0
H2454 H 0.46272 0.52468 0.03481 0.0
H2455 H 0.45585 0.45441 0.06707 0.0
H2456 H 0.46429 0.54115 0.97944 0.0
H2457 H 0.39329 0.41983 0.23764 0.0
H2458 H 0.42038 0.4148 0.23697 0.0
H2459 H 0.41157 0.52032 0.16762 0.0
H2460 H 0.46603 0.42496 0.14887 0.0
H2461 H 0.47349 0.44 0.08968 0.0
H2462 H 0.42122 0.56224 0.99819 0.0
H2463 H 0.44655 0.4162 0.20436 0.0
H2464 H 0.39038 0.54982 0.11074 0.0
H2465 H 0.39186 0.53435 0.1656 0.0
N2466 N 0.41968 0.52596 0.11325 0.0
C2467 C 0.41969 0.53507 0.08328 0.0
C2468 C 0.41027 0.52609 0.14288 0.0
C2469 C 0.39864 0.54318 0.11111 0.0
C2470 C 0.39939 0.53441 0.14209 0.0
C2471 C 0.40906 0.54385 0.08139 0.0
H2472 H 0.40147 0.56023 0.0485 0.0
N2473 N 0.4415 0.52825 0.0578 0.0
C2474 C 0.43109 0.5365 0.055 0.0
C2475 C 0.44366 0.54772 0.99639 0.0
C2476 C 0.43179 0.54632 0.02403 0.0
C2477 C 0.45377 0.53034 0.03167 0.0
C2478 C 0.45479 0.53981 1.00036 0.0
O2479 O 0.44744 0.47604 0.12918 0.0
O2480 O 0.44213 0.49645 0.1597 0.0
O2481 O 0.46734 0.53853 0.11306 0.0
O2482 O 0.44819 0.53477 0.15401 0.0
O2483 O 0.40026 0.46829 0.11206 0.0
O2484 O 0.41478 0.49453 0.14655 0.0
O2485 O 0.42146 0.50051 0.05788 0.0
O2486 O 0.40277 0.46951 0.06783 0.0
O2487 O 0.40744 0.43271 0.07698 0.0
O2488 O 0.42213 0.45382 0.03734 0.0
O2489 O 0.46186 0.50783 0.09503 0.0
O2490 O 0.4473 0.48191 0.05995 0.0
C2491 C 0.44845 0.48461 0.1592 0.0
C2492 C 0.39962 0.47986 0.13544 0.0
C2493 C 0.47165 0.56626 0.1431 0.0
C2494 C 0.49537 0.59903 0.15728 0.0
C2495 C 0.46433 0.59088 0.13828 0.0
C2496 C 0.45923 0.57235 0.13518 0.0
C2497 C 0.48205 0.60397 0.14905 0.0
C2498 C 0.48995 0.57982 0.15461 0.0
C2499 C 0.46466 0.54568 0.14167 0.0
C2500 C 0.42085 0.55464 0.02177 0.0
C2501 C 0.40957 0.55344 0.0504 0.0
H2502 H 0.44457 0.55513 0.97216 0.0
C2503 C 0.40686 0.48405 0.04813 0.0
C2504 C 0.46233 0.49715 0.06988 0.0
C2505 C 0.39257 0.4297 0.02193 0.0
C2506 C 0.359 0.41479 0.01997 0.0
C2507 C 0.37687 0.42579 0.96547 0.0
C2508 C 0.39321 0.43209 0.98486 0.0
C2509 C 0.35979 0.41694 0.98283 0.0
C2510 C 0.37544 0.42126 0.03914 0.0
C2511 C 0.40961 0.43672 0.04312 0.0
H2512 H 0.45438 0.59514 0.13233 0.0
H2513 H 0.44529 0.56269 0.12712 0.0
H2514 H 0.48538 0.61822 0.15108 0.0
H2515 H 0.49981 0.57552 0.16112 0.0
H2516 H 0.37744 0.42758 0.93686 0.0
H2517 H 0.4063 0.43881 0.97099 0.0
H2518 H 0.34725 0.41167 0.96736 0.0
H2519 H 0.37479 0.41909 0.06769 0.0
C2520 C 0.03566 0.45177 0.571 0.0
C2521 C 0.03592 0.45663 0.50734 0.0
C2522 C 0.04533 0.45738 0.5391 0.0
C2523 C 1.01679 0.44954 0.50792 0.0
C2524 C 1.01646 0.44495 0.57173 0.0
C2525 C 1.00707 0.44364 0.53999 0.0
N2526 N 0.04509 0.45367 0.60156 0.0
C2527 C 0.03617 0.44869 0.63356 0.0
C2528 C 1.00726 0.43986 0.60448 0.0
C2529 C 1.01718 0.44178 0.63554 0.0
Gd2530 Gd 0.11246 0.51585 0.61194 0.0
Gd2531 Gd 0.07664 0.46403 0.59612 0.0
N2532 N 0.06395 0.46431 0.53936 0.0
C2533 C 0.046 0.46337 0.47591 0.0
C2534 C 0.07372 0.47099 0.5084 0.0
C2535 C 0.06498 0.4707 0.47656 0.0
H2536 H 0.08824 0.47675 0.50719 0.0
H2537 H 0.07297 0.47616 0.45241 0.0
H2538 H 0.10963 0.51478 0.70089 0.0
H2539 H 0.04363 0.44974 0.65766 0.0
H2540 H 0.13061 0.5237 0.75254 0.0
H2541 H 0.0393 0.46318 0.45112 0.0
H2542 H 1.0094 0.44877 0.48371 0.0
H2543 H 0.14026 0.53458 0.53988 0.0
H2544 H 0.99253 0.43453 0.60609 0.0
H2545 H 1.0102 0.43787 0.66101 0.0
H2546 H 0.19066 0.54879 0.70048 0.0
H2547 H 0.99234 0.43835 0.54004 0.0
H2548 H 0.1959 0.55577 0.57399 0.0
H2549 H 0.17339 0.5496 0.526 0.0
N2550 N 0.14368 0.5302 0.59464 0.0
C2551 C 0.15591 0.53422 0.62176 0.0
C2552 C 0.14984 0.53626 0.56081 0.0
C2553 C 0.18131 0.54859 0.5801 0.0
C2554 C 0.16864 0.54511 0.55292 0.0
C2555 C 0.17507 0.54356 0.61512 0.0
H2556 H 0.20219 0.55543 0.63898 0.0
N2557 N 0.13092 0.52194 0.66265 0.0
C2558 C 0.1494 0.53034 0.65667 0.0
C2559 C 0.15495 0.5331 0.72025 0.0
C2560 C 0.16189 0.53591 0.68545 0.0
C2561 C 0.12418 0.52028 0.6965 0.0
C2562 C 0.13604 0.52544 0.72576 0.0
O2563 O 0.06737 0.48555 0.59327 0.0
O2564 O 0.09199 0.50972 0.56695 0.0
O2565 O 0.10309 0.53423 0.63442 0.0
O2566 O 0.12812 0.54583 0.60473 0.0
O2567 O 0.10128 0.47152 0.5598 0.0
O2568 O 0.11828 0.50355 0.55783 0.0
O2569 O 0.11765 0.49557 0.64424 0.0
O2570 O 0.10574 0.46982 0.60921 0.0
O2571 O 0.06823 0.43677 0.57475 0.0
O2572 O 0.0658 0.44057 0.63124 0.0
O2573 O 0.08632 0.5027 0.65007 0.0
O2574 O 0.07914 0.47263 0.65439 0.0
C2575 C 0.0741 0.50023 0.57267 0.0
C2576 C 0.11491 0.4868 0.54595 0.0
C2577 C 0.11649 0.56645 0.61674 0.0
C2578 C 0.12122 0.59753 0.63302 0.0
C2579 C 0.1106 0.5845 0.57367 0.0
C2580 C 0.11099 0.56853 0.58269 0.0
C2581 C 0.11556 0.59872 0.59842 0.0
C2582 C 0.1218 0.5812 0.64206 0.0
C2583 C 0.11769 0.54946 0.62475 0.0
C2584 C 0.18089 0.54455 0.67871 0.0
C2585 C 0.18745 0.54831 0.64366 0.0
H2586 H 0.16412 0.53723 0.743 0.0
C2587 C 0.118 0.48088 0.63263 0.0
C2588 C 0.07728 0.48635 0.66644 0.0
C2589 C 0.07832 0.42206 0.61505 0.0
C2590 C 0.08965 0.40113 0.59981 0.0
C2591 C 0.10061 0.42011 0.65335 0.0
C2592 C 0.08936 0.4275 0.64588 0.0
C2593 C 0.10066 0.40692 0.63079 0.0
C2594 C 0.07907 0.40944 0.59159 0.0
C2595 C 0.06653 0.42998 0.60668 0.0
H2596 H 0.10643 0.5859 0.54713 0.0
H2597 H 0.10713 0.55781 0.56282 0.0
H2598 H 0.11506 0.61087 0.59034 0.0
H2599 H 0.12626 0.57994 0.66844 0.0
H2600 H 0.10899 0.4243 0.6772 0.0
H2601 H 0.08945 0.43754 0.66424 0.0
H2602 H 0.10866 0.40066 0.63892 0.0
H2603 H 0.07091 0.40578 0.56746 0.0
C2604 C 0.59165 0.58817 0.56483 0.0
C2605 C 0.58338 0.58276 0.50237 0.0
C2606 C 0.58489 0.59228 0.5345 0.0
C2607 C 0.58944 0.56988 0.50083 0.0
C2608 C 0.59728 0.57484 0.56357 0.0
C2609 C 0.59639 0.56596 0.53132 0.0
N2610 N 0.59156 0.59626 0.59615 0.0
C2611 C 0.59755 0.59225 0.62675 0.0
C2612 C 0.60316 0.57046 0.59504 0.0
C2613 C 0.60329 0.57921 0.62679 0.0
Gd2614 Gd 0.53325 0.60624 0.6133 0.0
Gd2615 Gd 0.58411 0.61963 0.59369 0.0
N2616 N 0.5786 0.6045 0.53705 0.0
C2617 C 0.57523 0.58592 0.47289 0.0
C2618 C 0.56986 0.60681 0.50841 0.0
C2619 C 0.56825 0.59781 0.47611 0.0
H2620 H 0.56347 0.61502 0.50962 0.0
H2621 H 0.56137 0.5999 0.45373 0.0
H2622 H 0.53347 0.60824 0.70205 0.0
H2623 H 0.59832 0.59946 0.65094 0.0
H2624 H 0.5246 0.62279 0.74972 0.0
H2625 H 0.57377 0.57884 0.44786 0.0
H2626 H 0.58842 0.56257 0.47632 0.0
H2627 H 0.51325 0.61003 0.53873 0.0
H2628 H 0.60754 0.56028 0.59514 0.0
H2629 H 0.60795 0.57604 0.65124 0.0
H2630 H 0.49968 0.65515 0.68668 0.0
H2631 H 0.60067 0.55572 0.52986 0.0
H2632 H 0.49099 0.64522 0.56092 0.0
H2633 H 0.49683 0.62604 0.51859 0.0
N2634 N 0.51781 0.62116 0.59118 0.0
C2635 C 0.51393 0.63088 0.61528 0.0
C2636 C 0.5111 0.61873 0.55718 0.0
C2637 C 0.49851 0.63854 0.56971 0.0
C2638 C 0.50174 0.62768 0.54575 0.0
C2639 C 0.50423 0.63989 0.60515 0.0
H2640 H 0.49234 0.65622 0.62364 0.0
N2641 N 0.52589 0.6201 0.66004 0.0
C2642 C 0.51793 0.63017 0.65086 0.0
C2643 C 0.51532 0.63618 0.71303 0.0
C2644 C 0.51252 0.63859 0.67714 0.0
C2645 C 0.52778 0.61689 0.69506 0.0
C2646 C 0.52277 0.62508 0.72203 0.0
O2647 O 0.56214 0.58917 0.59871 0.0
O2648 O 0.53921 0.59054 0.57083 0.0
O2649 O 0.51249 0.58382 0.64697 0.0
O2650 O 0.50628 0.58519 0.5926 0.0
O2651 O 0.57754 0.63717 0.557 0.0
O2652 O 0.54627 0.62737 0.56303 0.0
O2653 O 0.55442 0.63174 0.64406 0.0
O2654 O 0.58096 0.64451 0.61031 0.0
O2655 O 0.61045 0.63334 0.56645 0.0
O2656 O 0.60951 0.63227 0.62441 0.0
O2657 O 0.54681 0.59453 0.65422 0.0
O2658 O 0.57773 0.61574 0.65308 0.0
C2659 C 0.5471 0.58096 0.5794 0.0
C2660 C 0.56292 0.63827 0.54723 0.0
C2661 C 0.48014 0.57096 0.63255 0.0
C2662 C 0.44796 0.54822 0.65217 0.0
C2663 C 0.4563 0.57951 0.6352 0.0
C2664 C 0.47437 0.58392 0.62798 0.0
C2665 C 0.4433 0.56197 0.64699 0.0
C2666 C 0.46668 0.55284 0.64497 0.0
C2667 C 0.49984 0.57651 0.62259 0.0
C2668 C 0.50382 0.64848 0.6669 0.0
C2669 C 0.49967 0.64912 0.63099 0.0
H2670 H 0.51131 0.64239 0.73398 0.0
C2671 C 0.56966 0.6463 0.63264 0.0
C2672 C 0.56374 0.60146 0.6685 0.0
C2673 C 0.63851 0.65218 0.59738 0.0
C2674 C 0.66177 0.68419 0.58832 0.0
C2675 C 0.67062 0.66198 0.6077 0.0
C2676 C 0.65224 0.64817 0.60724 0.0
C2677 C 0.67539 0.67986 0.59824 0.0
C2678 C 0.64316 0.67027 0.58829 0.0
C2679 C 0.61971 0.63677 0.59596 0.0
H2680 H 0.45226 0.5898 0.63127 0.0
H2681 H 0.4838 0.59752 0.61823 0.0
H2682 H 0.42936 0.55907 0.65203 0.0
H2683 H 0.47062 0.54245 0.6484 0.0
H2684 H 0.68118 0.65884 0.61549 0.0
H2685 H 0.64872 0.63425 0.61439 0.0
H2686 H 0.68979 0.69047 0.59948 0.0
H2687 H 0.6325 0.67342 0.58114 0.0
C2688 C 0.45016 1.01261 0.57379 0.0
C2689 C 0.45859 1.01345 0.51161 0.0
C2690 C 0.44899 1.00335 0.54213 0.0
C2691 C 0.46888 0.03277 0.51306 0.0
C2692 C 0.4608 0.03202 0.57542 0.0
C2693 C 0.46997 0.04203 0.54484 0.0
N2694 N 0.44161 1.00263 0.60337 0.0
C2695 C 0.44288 1.01116 0.63508 0.0
C2696 C 0.4622 0.04083 0.60796 0.0
C2697 C 0.4532 0.03034 0.63793 0.0
Gd2698 Gd 0.44241 0.93661 0.60999 0.0
Gd2699 Gd 0.42412 0.97062 0.59575 0.0
N2700 N 0.4395 0.98454 0.54182 0.0
C2701 C 0.45801 1.00384 0.4807 0.0
C2702 C 0.43906 0.9752 0.51159 0.0
C2703 C 0.44826 0.98465 0.48077 0.0
H2704 H 0.43208 0.9605 0.51079 0.0
H2705 H 0.44792 0.97709 0.45708 0.0
H2706 H 0.43368 0.9399 0.69721 0.0
H2707 H 0.43538 1.00319 0.65788 0.0
H2708 H 0.41963 0.91917 0.74816 0.0
H2709 H 0.46527 1.0111 0.45682 0.0
H2710 H 0.4763 0.04069 0.48985 0.0
H2711 H 0.43701 0.90923 0.53976 0.0
H2712 H 0.47024 0.0557 0.61025 0.0
H2713 H 0.45408 0.03701 0.66316 0.0
H2714 H 0.40006 0.85898 0.70079 0.0
H2715 H 0.47818 0.05693 0.54562 0.0
H2716 H 0.40944 0.85345 0.57661 0.0
H2717 H 0.42348 0.87597 0.52763 0.0
N2718 N 0.42965 0.90547 0.5947 0.0
C2719 C 0.42214 0.89335 0.62211 0.0
C2720 C 0.43028 0.89947 0.56111 0.0
C2721 C 0.41506 0.86801 0.582 0.0
C2722 C 0.42289 0.88066 0.55423 0.0
C2723 C 0.41461 0.87426 0.61641 0.0
H2724 H 0.40101 0.8473 0.64117 0.0
N2725 N 0.42855 0.91844 0.66061 0.0
C2726 C 0.4217 0.9 0.65599 0.0
C2727 C 0.41287 0.89467 0.71808 0.0
C2728 C 0.4136 0.88763 0.68465 0.0
C2729 C 0.42804 0.92537 0.69327 0.0
C2730 C 0.42011 0.91361 0.72237 0.0
O2731 O 0.45564 0.98267 0.59281 0.0
O2732 O 0.45664 0.95855 0.56794 0.0
O2733 O 0.46376 0.93603 0.64374 0.0
O2734 O 0.46462 0.93311 0.58734 0.0
O2735 O 0.40925 0.94584 0.55926 0.0
O2736 O 0.424 0.9288 0.55631 0.0
O2737 O 0.41135 0.92278 0.61962 0.0
O2738 O 0.40633 0.94667 0.63387 0.0
O2739 O 0.40131 0.96802 0.56444 0.0
O2740 O 0.40816 0.98282 0.61481 0.0
O2741 O 0.45314 0.96241 0.65047 0.0
O2742 O 0.43036 0.97004 0.65416 0.0
C2743 C 0.46488 0.9762 0.57529 0.0
C2744 C 0.41078 0.93235 0.54468 0.0
C2745 C 0.47939 0.9198 0.62259 0.0
C2746 C 0.50187 0.9106 0.64518 0.0
C2747 C 0.47641 0.8902 0.60643 0.0
C2748 C 0.47032 0.90288 0.6045 0.0
C2749 C 0.49186 0.89395 0.62643 0.0
C2750 C 0.49558 0.92375 0.643 0.0
C2751 C 0.47237 0.93331 0.61763 0.0
C2752 C 0.40629 0.86866 0.67904 0.0
C2753 C 0.40681 0.862 0.64507 0.0
H2754 H 0.40671 0.88561 0.7407 0.0
C2755 C 0.40054 0.9288 0.63185 0.0
C2756 C 0.44579 0.9717 0.66666 0.0
C2757 C 0.39157 0.98973 0.57233 0.0
C2758 C 0.3648 0.99271 0.55861 0.0
C2759 C 0.39554 0.01996 0.56222 0.0
C2760 C 0.40303 1.00888 0.57098 0.0
C2761 C 0.37652 1.01204 0.55696 0.0
C2762 C 0.37294 0.98177 0.56363 0.0
C2763 C 0.39752 0.97746 0.58696 0.0
H2764 H 0.46909 0.8773 0.59199 0.0
H2765 H 0.45857 0.89941 0.58806 0.0
H2766 H 0.49612 0.88369 0.62701 0.0
H2767 H 0.50307 0.93676 0.657 0.0
H2768 H 0.40431 0.03479 0.56156 0.0
H2769 H 0.41749 1.01525 0.57759 0.0
H2770 H 0.3711 0.02125 0.55367 0.0
H2771 H 0.36461 0.96688 0.56359 0.0
C2772 C 0.21105 0.47756 0.29233 0.0
C2773 C 0.2233 0.47656 0.35046 0.0
C2774 C 0.21326 0.46755 0.31952 0.0
C2775 C 0.23103 0.49571 0.35383 0.0
C2776 C 0.21922 0.49688 0.29536 0.0
C2777 C 0.22903 0.50584 0.32634 0.0
N2778 N 0.20184 0.46859 0.26223 0.0
C2779 C 0.20105 0.47828 0.23369 0.0
C2780 C 0.21776 0.50673 0.26673 0.0
C2781 C 0.20876 0.4974 0.2357 0.0
Gd2782 Gd 0.13912 0.4012 0.2817 0.0
Gd2783 Gd 0.1908 0.43666 0.26109 0.0
N2784 N 0.20564 0.44899 0.31561 0.0
C2785 C 0.22556 0.46608 0.37687 0.0
C2786 C 0.20866 0.43889 0.34042 0.0
C2787 C 0.21834 0.4472 0.37168 0.0
H2788 H 0.20369 0.42446 0.3362 0.0
H2789 H 0.2204 0.43907 0.39156 0.0
H2790 H 0.1197 0.41935 0.2244 0.0
H2791 H 0.19494 0.47143 0.20886 0.0
H2792 H 0.10428 0.41139 0.16677 0.0
H2793 H 0.23317 0.4725 0.40102 0.0
H2794 H 0.2388 0.50286 0.37739 0.0
H2795 H 0.1361 0.36291 0.31209 0.0
H2796 H 0.22394 0.52158 0.26798 0.0
H2797 H 0.20802 0.50497 0.21305 0.0
H2798 H 0.09014 0.34928 0.14596 0.0
H2799 H 0.23538 0.52066 0.32908 0.0
H2800 H 0.10593 0.31953 0.2369 0.0
H2801 H 0.12299 0.33031 0.29381 0.0
N2802 N 0.12702 0.37037 0.26572 0.0
C2803 C 0.11699 0.36463 0.23528 0.0
C2804 C 0.12888 0.35829 0.2871 0.0
C2805 C 0.11164 0.3338 0.24488 0.0
C2806 C 0.12134 0.33984 0.27694 0.0
C2807 C 0.1093 0.34621 0.22365 0.0
H2808 H 0.09406 0.32685 0.18145 0.0
N2809 N 0.12131 0.39472 0.22883 0.0
C2810 C 0.11456 0.3773 0.2157 0.0
C2811 C 0.1016 0.38449 0.16497 0.0
C2812 C 0.10463 0.37178 0.18338 0.0
C2813 C 0.11674 0.40647 0.21249 0.0
C2814 C 0.10737 0.40178 0.17995 0.0
O2815 O 0.17773 0.44044 0.31653 0.0
O2816 O 0.14696 0.42905 0.30612 0.0
O2817 O 0.11027 0.38633 0.29518 0.0
O2818 O 0.13061 0.39474 0.33722 0.0
O2819 O 0.18546 0.40848 0.27747 0.0
O2820 O 0.16047 0.39786 0.31465 0.0
O2821 O 0.15387 0.3914 0.24373 0.0
O2822 O 0.17354 0.41728 0.21315 0.0
O2823 O 0.21455 0.43217 0.25683 0.0
O2824 O 0.213 0.45149 0.22237 0.0
O2825 O 0.14487 0.42965 0.26147 0.0
O2826 O 0.17104 0.44124 0.22672 0.0
C2827 C 0.16153 0.43922 0.32593 0.0
C2828 C 0.17532 0.39761 0.30336 0.0
C2829 C 0.10353 0.39607 0.34865 0.0
C2830 C 0.08605 0.41241 0.34564 0.0
C2831 C 0.08583 0.39579 0.39958 0.0
C2832 C 0.09716 0.39022 0.3832 0.0
C2833 C 0.08006 0.40646 0.38099 0.0
C2834 C 0.09892 0.40799 0.33102 0.0
C2835 C 0.1133 0.38825 0.32933 0.0
C2836 C 0.09762 0.35365 0.1709 0.0
C2837 C 0.09979 0.34085 0.19115 0.0
H2838 H 0.09416 0.38085 0.13995 0.0
C2839 C 0.16192 0.39908 0.21344 0.0
C2840 C 0.15634 0.44168 0.23782 0.0
C2841 C 0.24352 0.4569 0.23435 0.0
C2842 C 0.27622 0.46571 0.22129 0.0
C2843 C 0.2689 0.48652 0.25372 0.0
C2844 C 0.25009 0.47392 0.25155 0.0
C2845 C 0.28175 0.48247 0.23895 0.0
C2846 C 0.25681 0.45283 0.21876 0.0
C2847 C 0.2229 0.44419 0.23168 0.0
H2848 H 0.08076 0.3911 0.42628 0.0
H2849 H 0.10062 0.38104 0.39713 0.0
H2850 H 0.07031 0.40918 0.39452 0.0
H2851 H 0.10469 0.41268 0.3049 0.0
H2852 H 0.27358 0.4996 0.26699 0.0
H2853 H 0.24062 0.47767 0.2631 0.0
H2854 H 0.29625 0.49265 0.24126 0.0
H2855 H 0.25213 0.43982 0.20516 0.0
C2856 C 0.57007 0.74552 0.29502 0.0
C2857 C 0.57277 0.75796 0.35469 0.0
C2858 C 0.58091 0.75713 0.32231 0.0
C2859 C 0.55367 0.74685 0.35943 0.0
C2860 C 0.5508 0.73473 0.29941 0.0
C2861 C 0.54272 0.73529 0.33186 0.0
N2862 N 0.57825 0.74515 0.26391 0.0
C2863 C 0.56783 0.73537 0.23541 0.0
C2864 C 0.54016 0.72393 0.2708 0.0
C2865 C 0.5487 0.72444 0.23853 0.0
Gd2866 Gd 0.64707 0.74917 0.28237 0.0
Gd2867 Gd 0.61041 0.76403 0.26153 0.0
N2868 N 0.59947 0.76746 0.3173 0.0
C2869 C 0.58405 0.77005 0.38131 0.0
C2870 C 0.61035 0.77996 0.34252 0.0
C2871 C 0.60289 0.78124 0.37501 0.0
H2872 H 0.62475 0.7891 0.33781 0.0
H2873 H 0.61166 0.79097 0.39508 0.0
H2874 H 0.63175 0.70644 0.24591 0.0
H2875 H 0.57421 0.73635 0.2099 0.0
H2876 H 0.63863 0.69337 0.19342 0.0
H2877 H 0.57832 0.77108 0.40653 0.0
H2878 H 0.54721 0.74724 0.3842 0.0
H2879 H 0.68531 0.78911 0.29905 0.0
H2880 H 0.52532 0.71551 0.27309 0.0
H2881 H 0.54053 0.71658 0.21591 0.0
H2882 H 0.69402 0.74382 0.14564 0.0
H2883 H 0.52796 0.727 0.33575 0.0
H2884 H 0.72348 0.79977 0.21379 0.0
H2885 H 0.7154 0.80952 0.27011 0.0
N2886 N 0.67653 0.76854 0.25884 0.0
C2887 C 0.68124 0.76231 0.22948 0.0
C2888 C 0.68886 0.78484 0.27453 0.0
C2889 C 0.71036 0.79079 0.22645 0.0
C2890 C 0.70584 0.79636 0.25823 0.0
C2891 C 0.69814 0.77345 0.21199 0.0
H2892 H 0.71517 0.7753 0.16691 0.0
N2893 N 0.65346 0.7339 0.23624 0.0
C2894 C 0.6692 0.74458 0.21748 0.0
C2895 C 0.6624 0.71905 0.17824 0.0
C2896 C 0.67394 0.73752 0.18766 0.0
C2897 C 0.64311 0.71547 0.22898 0.0
C2898 C 0.64717 0.70788 0.1995 0.0
O2899 O 0.6057 0.74568 0.31519 0.0
O2900 O 0.61937 0.72817 0.30518 0.0
O2901 O 0.66547 0.74003 0.30142 0.0
O2902 O 0.65215 0.74895 0.33932 0.0
O2903 O 0.63884 0.7873 0.27563 0.0
O2904 O 0.64832 0.77295 0.31456 0.0
O2905 O 0.65565 0.77281 0.243 0.0
O2906 O 0.62918 0.76483 0.21348 0.0
O2907 O 0.61033 0.7906 0.2606 0.0
O2908 O 0.60015 0.77229 0.21607 0.0
O2909 O 0.61952 0.72572 0.25852 0.0
O2910 O 0.60281 0.73764 0.23118 0.0
C2911 C 0.60823 0.73148 0.32466 0.0
C2912 C 0.64973 0.78814 0.30146 0.0
C2913 C 0.65384 0.72248 0.3534 0.0
C2914 C 0.63952 0.68902 0.34981 0.0
C2915 C 0.64477 0.70418 0.40742 0.0
C2916 C 0.65245 0.72138 0.39064 0.0
C2917 C 0.63843 0.68805 0.38718 0.0
C2918 C 0.64734 0.70628 0.33342 0.0
C2919 C 0.66116 0.74018 0.33466 0.0
C2920 C 0.69032 0.74891 0.16897 0.0
C2921 C 0.7024 0.76683 0.18112 0.0
H2922 H 0.66556 0.71311 0.15551 0.0
C2923 C 0.64741 0.77185 0.21289 0.0
C2924 C 0.60559 0.72377 0.23815 0.0
C2925 C 0.58984 0.79452 0.21893 0.0
C2926 C 0.58236 0.81891 0.20134 0.0
C2927 C 0.55983 0.78632 0.19396 0.0
C2928 C 0.572 0.78122 0.20808 0.0
C2929 C 0.5649 0.80483 0.19063 0.0
C2930 C 0.59503 0.81366 0.21543 0.0
C2931 C 0.60327 0.78805 0.22883 0.0
H2932 H 0.64376 0.70336 0.43618 0.0
H2933 H 0.6572 0.73373 0.40659 0.0
H2934 H 0.6327 0.67489 0.40063 0.0
H2935 H 0.64868 0.70709 0.30469 0.0
H2936 H 0.5463 0.77576 0.1852 0.0
H2937 H 0.56752 0.76669 0.20951 0.0
H2938 H 0.55503 0.8082 0.17945 0.0
H2939 H 0.60875 0.82426 0.22305 0.0
C2940 C 0.30338 0.83479 0.28977 0.0
C2941 C 0.29152 0.82403 0.34933 0.0
C2942 C 0.2921 0.83362 0.31806 0.0
C2943 C 0.30238 0.81565 0.35178 0.0
C2944 C 0.31395 0.82597 0.29187 0.0
C2945 C 0.31352 0.81656 0.32309 0.0
N2946 N 0.30336 0.84379 0.25964 0.0
C2947 C 0.31281 0.84361 0.23014 0.0
C2948 C 0.32429 0.82645 0.26215 0.0
C2949 C 0.32358 0.83516 0.23105 0.0
Gd2950 Gd 0.29832 0.90776 0.28064 0.0
Gd2951 Gd 0.28379 0.85632 0.26 0.0
N2952 N 0.28182 0.84202 0.31508 0.0
C2953 C 0.27988 0.82299 0.37712 0.0
C2954 C 0.26977 0.84023 0.34146 0.0
C2955 C 0.26886 0.831 0.37303 0.0
H2956 H 0.2608 0.84582 0.33837 0.0
H2957 H 0.25952 0.82991 0.39407 0.0
H2958 H 0.33836 0.93129 0.23106 0.0
H2959 H 0.31149 0.84935 0.2054 0.0
H2960 H 0.34781 0.94839 0.17522 0.0
H2961 H 0.27908 0.81578 0.40158 0.0
H2962 H 0.3021 0.80822 0.37559 0.0
H2963 H 0.25941 0.90646 0.30388 0.0
H2964 H 0.33248 0.81973 0.26264 0.0
H2965 H 0.33105 0.8351 0.20756 0.0
H2966 H 0.29636 0.955 0.14145 0.0
H2967 H 0.32158 0.80975 0.32516 0.0
H2968 H 0.2451 0.93247 0.22168 0.0
H2969 H 0.23798 0.9159 0.2792 0.0
N2970 N 0.27793 0.9171 0.2602 0.0
C2971 C 0.28272 0.92716 0.2297 0.0
C2972 C 0.26249 0.91362 0.27871 0.0
C2973 C 0.25453 0.92841 0.23244 0.0
C2974 C 0.25043 0.91901 0.26488 0.0
C2975 C 0.27092 0.93278 0.21461 0.0
H2976 H 0.26682 0.94674 0.17007 0.0
N2977 N 0.3108 0.92656 0.22944 0.0
C2978 C 0.29942 0.9317 0.21353 0.0
C2979 C 0.32201 0.94762 0.16734 0.0
C2980 C 0.30466 0.94215 0.18184 0.0
C2981 C 0.32834 0.93326 0.21683 0.0
C2982 C 0.33402 0.94347 0.18532 0.0
O2983 O 0.30262 0.86956 0.31308 0.0
O2984 O 0.31893 0.90112 0.30628 0.0
O2985 O 0.30879 0.93637 0.29382 0.0
O2986 O 0.30092 0.9165 0.33623 0.0
O2987 O 0.26063 0.86123 0.2771 0.0
O2988 O 0.27494 0.88596 0.31476 0.0
O2989 O 0.27395 0.89172 0.24301 0.0
O2990 O 0.28237 0.87394 0.21206 0.0
O2991 O 0.25597 0.83165 0.25836 0.0
O2992 O 0.27559 0.83536 0.21832 0.0
O2993 O 0.32174 0.90327 0.25927 0.0
O2994 O 0.30877 0.87603 0.227 0.0
C2995 C 0.31614 0.88635 0.32403 0.0
C2996 C 0.25986 0.8714 0.303 0.0
C2997 C 0.32842 0.94496 0.34245 0.0
C2998 C 0.36152 0.96241 0.33059 0.0
C2999 C 0.34919 0.96426 0.38862 0.0
C3000 C 0.33126 0.95228 0.37684 0.0
C3001 C 0.36416 0.96968 0.3655 0.0
C3002 C 0.34361 0.94903 0.32065 0.0
C3003 C 0.30985 0.93387 0.32765 0.0
C3004 C 0.29264 0.9472 0.16603 0.0
C3005 C 0.27583 0.94255 0.18239 0.0
H3006 H 0.32652 0.95562 0.14303 0.0
C3007 C 0.27491 0.88478 0.21233 0.0
C3008 C 0.32324 0.89178 0.23681 0.0
C3009 C 0.25212 0.80399 0.22937 0.0
C3010 C 0.2284 0.77128 0.21602 0.0
C3011 C 0.25923 0.7793 0.23593 0.0
C3012 C 0.26444 0.79788 0.23813 0.0
C3013 C 0.24152 0.76622 0.22515 0.0
C3014 C 0.23389 0.79047 0.21785 0.0
C3015 C 0.25902 0.82448 0.23019 0.0
H3016 H 0.35142 0.97006 0.41516 0.0
H3017 H 0.31969 0.94898 0.39425 0.0
H3018 H 0.37756 0.98021 0.37473 0.0
H3019 H 0.34117 0.94223 0.29509 0.0
H3020 H 0.26907 0.77499 0.24257 0.0
H3021 H 0.27836 0.80754 0.2462 0.0
H3022 H 0.23805 0.75191 0.22378 0.0
H3023 H 0.22412 0.79481 0.21068 0.0
H3024 H 0.27334 0.08874 0.07715 0.0
H3025 H 0.23363 0.08485 0.99998 0.0
H3026 H 0.27079 0.06009 0.05351 0.0
H3027 H 0.23117 0.05664 0.97613 0.0
H3028 H 0.21161 0.99547 0.96997 0.0
H3029 H 0.21762 0.02535 0.99106 0.0
H3030 H 0.2748 0.04176 1.00692 0.0
H3031 H 0.26816 1.01104 0.98683 0.0
C3032 C 0.26456 0.08218 0.05433 0.0
C3033 C 0.25392 0.08946 0.04029 0.0
C3034 C 0.26293 0.06554 0.04084 0.0
C3035 C 0.25044 0.05547 1.01307 0.0
C3036 C 0.2406 0.06342 0.998 0.0
C3037 C 0.24226 0.07993 1.01134 0.0
C3038 C 0.22538 1.00516 0.97865 0.0
C3039 C 0.23927 1.00036 0.97724 0.0
C3040 C 0.22901 0.02271 0.9902 0.0
C3041 C 0.24684 0.03649 1.00082 0.0
C3042 C 0.26084 0.03175 0.99937 0.0
C3043 C 0.25711 1.01408 0.98751 0.0
H3044 H 0.03314 0.2561 0.94275 0.0
H3045 H 0.05882 0.23751 1.01838 0.0
H3046 H 1.00274 0.23286 0.96451 0.0
H3047 H 0.02866 0.21373 0.03898 0.0
H3048 H 0.97315 0.17974 0.09194 0.0
H3049 H 1.00233 0.20561 0.0718 0.0
H3050 H 0.97882 0.20177 0.96778 0.0
H3051 H 0.94939 0.17601 0.9887 0.0
C3052 C 0.03242 0.24705 0.96401 0.0
C3053 C 0.04887 0.24899 0.97856 0.0
C3054 C 1.01476 0.23343 0.97643 0.0
C3055 C 1.01265 0.221 1.004 0.0
C3056 C 0.02918 0.22296 1.01833 0.0
C3057 C 0.04678 0.23662 1.00602 0.0
C3058 C 0.97397 0.18479 0.06508 0.0
C3059 C 0.95845 0.17588 0.04251 0.0
C3060 C 0.99101 0.19954 0.05308 0.0
C3061 C 0.99358 0.20606 1.0176 0.0
C3062 C 0.97779 0.19759 0.99532 0.0
C3063 C 0.96065 0.18277 1.00745 0.0
H3064 H 0.78814 0.78394 0.94739 0.0
H3065 H 0.81294 0.83267 1.01303 0.0
H3066 H 0.81102 0.77617 0.96792 0.0
H3067 H 0.83596 0.82509 0.0335 0.0
H3068 H 0.88372 0.81354 0.05096 0.0
H3069 H 0.86261 0.82246 0.02387 0.0
H3070 H 0.82108 0.76504 1.01457 0.0
H3071 H 0.84221 0.75639 0.04104 0.0
C3072 C 0.79842 0.79308 0.96632 0.0
C3073 C 0.79837 0.80906 0.9783 0.0
C3074 C 0.81171 0.78856 0.97832 0.0
C3075 C 0.82575 0.79988 1.00276 0.0
C3076 C 0.82579 0.81598 1.01441 0.0
C3077 C 0.81239 0.82039 1.0026 0.0
C3078 C 0.87027 0.80282 0.04218 0.0
C3079 C 0.86497 0.78416 0.04782 0.0
C3080 C 0.85791 0.80793 0.02708 0.0
C3081 C 0.83972 0.79459 1.01683 0.0
C3082 C 0.8348 0.77593 0.02138 0.0
C3083 C 0.84706 0.77088 0.03668 0.0
H3084 H 0.99888 0.21198 0.51053 0.0
H3085 H 1.02387 0.24845 0.59993 0.0
H3086 H 0.02894 0.21726 0.49181 0.0
H3087 H 0.05431 0.25469 0.58011 0.0
H3088 H 0.10538 0.24752 0.55365 0.0
H3089 H 0.07635 0.24514 0.57394 0.0
H3090 H 0.0568 0.23592 0.46534 0.0
H3091 H 0.08537 0.23776 0.44582 0.0
C3092 C 1.01079 0.22122 0.52628 0.0
C3093 C 1.00855 0.22949 0.5572 0.0
C3094 C 1.02833 0.22455 0.51515 0.0
C3095 C 0.04464 0.23659 0.53402 0.0
C3096 C 0.0424 0.24515 0.56471 0.0
C3097 C 1.02477 0.2417 0.57599 0.0
C3098 C 0.09507 0.24549 0.53403 0.0
C3099 C 0.09806 0.24312 0.49786 0.0
C3100 C 0.07819 0.24397 0.5457 0.0
C3101 C 0.06358 0.23994 0.52166 0.0
C3102 C 0.06711 0.23848 0.4853 0.0
C3103 C 0.08383 0.23991 0.4738 0.0
H3104 H 0.82114 0.8728 0.48068 0.0
H3105 H 0.77701 0.85076 0.55708 0.0
H3106 H 0.82546 0.84633 0.48977 0.0
H3107 H 0.78165 0.8249 0.568 0.0
H3108 H 0.78958 0.77579 0.58406 0.0
H3109 H 0.78186 0.79878 0.56483 0.0
H3110 H 0.83619 0.83077 0.51872 0.0
H3111 H 0.84267 0.80677 0.53421 0.0
C3112 C 0.812 0.86204 0.49881 0.0
C3113 C 0.79845 0.86395 0.51755 0.0
C3114 C 0.81473 0.84683 0.5049 0.0
C3115 C 0.80423 0.83296 0.53048 0.0
C3116 C 0.79016 0.83468 0.54789 0.0
C3117 C 0.78737 0.84973 0.54156 0.0
C3118 C 0.79986 0.78764 0.5695 0.0
C3119 C 0.8171 0.78924 0.56173 0.0
C3120 C 0.79549 0.80123 0.5586 0.0
C3121 C 0.80834 0.81746 0.5402 0.0
C3122 C 0.82549 0.81882 0.53224 0.0
C3123 C 0.82956 0.80496 0.54213 0.0
H3124 H 0.17129 0.96023 0.48822 0.0
H3125 H 0.19825 0.93499 0.5421 0.0
H3126 H 0.19781 0.99071 0.49975 0.0
H3127 H 0.22482 0.96547 0.55446 0.0
H3128 H 0.27496 0.02503 0.56116 0.0
H3129 H 0.25141 0.99443 0.54033 0.0
H3130 H 0.21041 1.01107 0.54804 0.0
H3131 H 0.23375 0.04106 0.56887 0.0
C3132 C 0.18325 0.96113 0.50121 0.0
C3133 C 0.18272 0.94492 0.513 0.0
C3134 C 0.19841 0.97875 0.50873 0.0
C3135 C 0.21368 0.98097 0.5288 0.0
C3136 C 0.21361 0.96467 0.53878 0.0
C3137 C 0.19837 0.94701 0.53128 0.0
C3138 C 0.26099 0.02232 0.55782 0.0
C3139 C 0.25672 0.03637 0.56477 0.0
C3140 C 0.24732 1.00455 0.546 0.0
C3141 C 0.22875 1.00002 0.54112 0.0
C3142 C 0.22449 1.01389 0.54953 0.0
C3143 C 0.2381 0.03149 0.56124 0.0
H3144 H 0.83725 0.04948 1.01647 0.0
H3145 H 0.7949 0.02425 0.09627 0.0
H3146 H 0.83074 0.0192 0.99611 0.0
H3147 H 0.78792 0.99367 0.07531 0.0
H3148 H 0.79426 0.9415 0.05065 0.0
H3149 H 0.79757 0.97083 0.07178 0.0
H3150 H 0.81044 0.99218 0.96473 0.0
H3151 H 0.80733 0.96307 0.94417 0.0
C3152 C 0.82653 0.03752 0.02986 0.0
C3153 C 0.81684 0.03975 0.05842 0.0
C3154 C 0.82255 0.01988 1.01777 0.0
C3155 C 0.80862 1.00347 0.03362 0.0
C3156 C 0.79885 1.00568 0.06226 0.0
C3157 C 0.80281 0.0234 0.07424 0.0
C3158 C 0.79711 0.95221 0.0314 0.0
C3159 C 0.79992 0.94946 0.99531 0.0
C3160 C 0.79923 0.96926 0.04361 0.0
C3161 C 0.80456 0.98441 0.02033 0.0
C3162 C 0.80669 0.9813 0.98403 0.0
C3163 C 0.80452 0.96431 0.97191 0.0
H3164 H 0.08759 0.87148 0.97377 0.0
H3165 H 0.1079 0.83653 1.01153 0.0
H3166 H 0.05736 0.85069 1.00045 0.0
H3167 H 0.07786 0.81562 0.03781 0.0
H3168 H 1.02405 0.78454 0.10114 0.0
H3169 H 0.05468 0.80776 0.08064 0.0
H3170 H 0.03005 0.82168 0.99412 0.0
H3171 H 0.99954 0.79832 1.01462 0.0
C3172 C 0.0858 0.85963 0.98865 0.0
C3173 C 0.10056 0.8561 0.99114 0.0
C3174 C 0.06823 0.8474 1.00355 0.0
C3175 C 0.06465 0.83106 0.02151 0.0
C3176 C 0.0797 0.82796 0.02488 0.0
C3177 C 0.09715 0.8401 1.00981 0.0
C3178 C 1.02509 0.79248 0.07765 0.0
C3179 C 1.00892 0.78939 0.05994 0.0
C3180 C 0.04286 0.80594 0.06567 0.0
C3181 C 0.04537 0.81701 0.03537 0.0
C3182 C 0.02913 0.81394 1.01783 0.0
C3183 C 1.01138 0.8004 0.02973 0.0
H3184 H 0.27488 0.25357 0.03878 0.0
H3185 H 0.23234 0.20091 0.07756 0.0
H3186 H 0.25122 0.26063 1.01875 0.0
H3187 H 0.20891 0.20755 0.05668 0.0
H3188 H 0.16814 0.22701 0.04416 0.0
H3189 H 0.19357 0.22369 0.0666 0.0
H3190 H 0.22722 0.25567 0.97808 0.0
H3191 H 0.20156 0.25929 0.9562 0.0
C3192 C 0.26052 0.24338 0.04285 0.0
C3193 C 0.25581 0.22656 0.0599 0.0
C3194 C 0.24681 0.24742 0.03114 0.0
C3195 C 0.22778 0.23485 0.03608 0.0
C3196 C 0.22319 0.21797 0.05281 0.0
C3197 C 0.23683 0.21398 0.06453 0.0
C3198 C 0.18115 0.23384 0.03 0.0
C3199 C 0.18271 0.24376 0.99863 0.0
C3200 C 0.19579 0.23162 0.04254 0.0
C3201 C 0.21274 0.23901 0.02408 0.0
C3202 C 0.21463 0.24973 0.9935 0.0
C3203 C 0.19987 0.25199 0.98095 0.0
H3204 H 0.05664 0.82864 0.51859 0.0
H3205 H 0.03196 0.78418 0.44281 0.0
H3206 H 1.02658 0.82341 0.53538 0.0
H3207 H 1.0013 0.77735 0.4624 0.0
H3208 H 0.94772 0.78073 0.48087 0.0
H3209 H 0.97704 0.78298 0.46376 0.0
H3210 H 1.00013 0.80836 0.56534 0.0
H3211 H 0.97122 0.80671 0.58113 0.0
C3212 C 0.04481 0.81771 0.50522 0.0
C3213 C 0.04719 0.80729 0.47835 0.0
C3214 C 1.02717 0.81428 0.5157 0.0
C3215 C 1.0108 0.79973 0.50082 0.0
C3216 C 1.01317 0.7889 0.47453 0.0
C3217 C 0.03095 0.79268 0.46342 0.0
C3218 C 0.95892 0.78626 0.49993 0.0
C3219 C 0.95675 0.79312 0.53286 0.0
C3220 C 0.976 0.78774 0.49 0.0
C3221 C 0.99169 0.79627 0.51253 0.0
C3222 C 0.98901 0.80221 0.54624 0.0
C3223 C 0.97208 0.80085 0.55592 0.0
H3224 H 0.26107 0.1731 0.48372 0.0
H3225 H 0.24132 0.17582 0.58813 0.0
H3226 H 0.25854 0.19989 0.46532 0.0
H3227 H 0.23923 0.20265 0.57064 0.0
H3228 H 0.21675 0.23713 0.52301 0.0
H3229 H 0.22191 0.21216 0.54021 0.0
H3230 H 0.26656 0.23115 0.4645 0.0
H3231 H 0.26039 0.25545 0.44554 0.0
C3232 C 0.25682 0.1798 0.50321 0.0
C3233 C 0.25176 0.17231 0.53776 0.0
C3234 C 0.25519 0.19521 0.49257 0.0
C3235 C 0.24829 0.20368 0.51603 0.0
C3236 C 0.2441 0.19658 0.55104 0.0
C3237 C 0.24568 0.18125 0.56151 0.0
C3238 C 0.22746 0.2359 0.50943 0.0
C3239 C 0.23781 0.24842 0.48223 0.0
C3240 C 0.23076 0.22159 0.51991 0.0
C3241 C 0.24485 0.21925 0.50422 0.0
C3242 C 0.25542 0.232 0.47728 0.0
C3243 C 0.25197 0.24622 0.46654 0.0
H3244 H 0.87772 0.0778 0.57325 0.0
H3245 H 0.86638 0.09907 0.47864 0.0
H3246 H 0.85042 0.04796 0.56289 0.0
H3247 H 0.83975 0.06937 0.4665 0.0
H3248 H 0.79096 1.01345 0.44301 0.0
H3249 H 0.81404 0.04399 0.46129 0.0
H3250 H 0.83278 0.02035 0.54211 0.0
H3251 H 0.80823 0.98992 0.52571 0.0
C3252 C 0.86896 0.0763 0.55081 0.0
C3253 C 0.87409 0.09131 0.52766 0.0
C3254 C 0.85329 0.05876 0.54401 0.0
C3255 C 0.84219 0.05519 0.5131 0.0
C3256 C 0.84713 0.07066 0.49083 0.0
C3257 C 0.86261 0.08817 0.49797 0.0
C3258 C 0.79981 1.01472 0.46511 0.0
C3259 C 0.7976 0.99875 0.48221 0.0
C3260 C 0.8136 0.03262 0.47556 0.0
C3261 C 0.82632 0.03565 0.50331 0.0
C3262 C 0.82377 0.01949 0.52078 0.0
C3263 C 0.80963 1.00159 0.51083 0.0
H3264 H 0.92456 0.42898 0.3239 0.0
H3265 H 0.91861 0.40921 0.4314 0.0
H3266 H 0.92191 0.40015 0.30171 0.0
H3267 H 0.91638 0.38065 0.40986 0.0
H3268 H 0.89154 0.32289 0.36268 0.0
H3269 H 0.89672 0.35267 0.38309 0.0
H3270 H 0.93227 0.37877 0.29278 0.0
H3271 H 0.92605 0.34852 0.27139 0.0
C3272 C 0.92344 0.4188 0.34298 0.0
C3273 C 0.92242 0.42187 0.37968 0.0
C3274 C 0.92173 0.40202 0.33022 0.0
C3275 C 0.91866 0.3875 0.35363 0.0
C3276 C 0.91833 0.391 0.39045 0.0
C3277 C 0.92003 0.4077 0.40309 0.0
C3278 C 0.90022 0.33486 0.34675 0.0
C3279 C 0.90805 0.33289 0.31495 0.0
C3280 C 0.90355 0.35226 0.35891 0.0
C3281 C 0.91514 0.36869 0.34008 0.0
C3282 C 0.92313 0.36673 0.30826 0.0
C3283 C 0.91969 0.34923 0.29603 0.0
H3284 H 0.69971 0.59538 0.29044 0.0
H3285 H 0.72199 0.56268 0.33116 0.0
H3286 H 0.66916 0.5726 0.3126 0.0
H3287 H 0.69154 0.53956 0.35202 0.0
H3288 H 0.63114 0.49339 0.36831 0.0
H3289 H 0.66044 0.51532 0.33947 0.0
H3290 H 0.65047 0.55982 0.36483 0.0
H3291 H 0.62142 0.53794 0.39337 0.0
C3292 C 0.69829 0.58355 0.30468 0.0
C3293 C 0.71392 0.5816 0.30983 0.0
C3294 C 0.68054 0.5702 0.31721 0.0
C3295 C 0.6774 0.5539 0.33472 0.0
C3296 C 0.69294 0.55165 0.33875 0.0
C3297 C 0.71071 0.56518 0.32681 0.0
C3298 C 0.63493 0.50777 0.36681 0.0
C3299 C 0.62342 0.51363 0.38272 0.0
C3300 C 0.65202 0.52054 0.35068 0.0
C3301 C 0.65834 0.53974 0.34958 0.0
C3302 C 0.6464 0.54536 0.36437 0.0
C3303 C 0.62951 0.53267 0.38079 0.0
H3304 H 0.45513 0.11787 0.28123 0.0
H3305 H 0.47954 0.16629 0.34769 0.0
H3306 H 0.47807 0.11018 0.30153 0.0
H3307 H 0.50257 0.15871 0.36823 0.0
H3308 H 0.5501 0.14708 0.38783 0.0
H3309 H 0.52913 0.15617 0.36076 0.0
H3310 H 0.48849 0.09879 0.34612 0.0
H3311 H 0.50955 0.09001 0.3724 0.0
C3312 C 0.46535 0.12697 0.3003 0.0
C3313 C 0.46518 0.14287 0.31247 0.0
C3314 C 0.47868 0.12248 0.31224 0.0
C3315 C 0.49263 0.13367 0.33697 0.0
C3316 C 0.49251 0.14967 0.3489 0.0
C3317 C 0.4791 0.1541 0.33705 0.0
C3318 C 0.53691 0.13643 0.37779 0.0
C3319 C 0.53188 0.11773 0.38178 0.0
C3320 C 0.52459 0.14163 0.36272 0.0
C3321 C 0.50665 0.12835 0.35099 0.0
C3322 C 0.50202 0.10969 0.35401 0.0
C3323 C 0.51425 0.10454 0.36917 0.0
H3324 H 0.75259 0.5726 0.7795 0.0
H3325 H 0.77083 0.57783 0.88812 0.0
H3326 H 0.7237 0.57002 0.79933 0.0
H3327 H 0.74153 0.57477 0.90858 0.0
H3328 H 0.68937 0.57843 0.93579 0.0
H3329 H 0.71984 0.58465 0.91642 0.0
H3330 H 0.69522 0.55039 0.82381 0.0
H3331 H 0.66502 0.54499 0.84245 0.0
C3332 C 0.75061 0.57364 0.80777 0.0
C3333 C 0.76447 0.57586 0.83194 0.0
C3334 C 0.73371 0.57177 0.81938 0.0
C3335 C 0.72961 0.57177 0.85593 0.0
C3336 C 0.74382 0.57476 0.88021 0.0
C3337 C 0.76087 0.5767 0.86845 0.0
C3338 C 0.69042 0.57231 0.91108 0.0
C3339 C 0.67436 0.56099 0.89102 0.0
C3340 C 0.70807 0.57577 0.90002 0.0
C3341 C 0.71055 0.56815 0.86821 0.0
C3342 C 0.6944 0.55691 0.84812 0.0
C3343 C 0.67679 0.5535 0.85916 0.0
H3344 H 0.50284 0.12957 0.84395 0.0
H3345 H 0.46645 0.1179 0.93351 0.0
H3346 H 0.49738 0.15431 0.82568 0.0
H3347 H 0.46015 0.1421 0.91431 0.0
H3348 H 0.46765 0.20052 0.88941 0.0
H3349 H 0.47023 0.17392 0.90897 0.0
H3350 H 0.47806 0.16311 0.79971 0.0
H3351 H 0.47597 0.18981 0.78083 0.0
C3352 C 0.49361 0.13221 0.85984 0.0
C3353 C 0.48536 0.12163 0.89061 0.0
C3354 C 0.4902 0.14639 0.84899 0.0
C3355 C 0.47816 0.15058 0.86815 0.0
C3356 C 0.46967 0.13976 0.89873 0.0
C3357 C 0.47316 0.12559 0.90963 0.0
C3358 C 0.46935 0.19211 0.86949 0.0
C3359 C 0.4712 0.19728 0.83331 0.0
C3360 C 0.471 0.1768 0.88074 0.0
C3361 C 0.4747 0.16612 0.85624 0.0
C3362 C 0.47571 0.17094 0.81992 0.0
C3363 C 0.47412 0.18618 0.80882 0.0
H3364 H 0.84801 0.27465 0.88772 0.0
H3365 H 0.85558 0.29658 0.78161 0.0
H3366 H 0.87488 0.30358 0.908 0.0
H3367 H 0.88243 0.32504 0.80107 0.0
H3368 H 0.91552 0.38203 0.8493 0.0
H3369 H 0.89073 0.35203 0.83105 0.0
H3370 H 0.90701 0.32616 0.91127 0.0
H3371 H 0.93133 0.35667 0.93108 0.0
C3372 C 0.85575 0.28537 0.86839 0.0
C3373 C 0.84958 0.28298 0.83276 0.0
C3374 C 0.8712 0.30217 0.88008 0.0
C3375 C 0.88101 0.31725 0.8566 0.0
C3376 C 0.87526 0.31431 0.82064 0.0
C3377 C 0.8599 0.29768 0.80912 0.0
C3378 C 0.91375 0.37008 0.86361 0.0
C3379 C 0.92551 0.3722 0.89228 0.0
C3380 C 0.89955 0.35256 0.85257 0.0
C3381 C 0.89652 0.33613 0.8692 0.0
C3382 C 0.90848 0.3382 0.89769 0.0
C3383 C 0.92268 0.35585 0.90893 0.0
H3384 H 0.47374 0.29593 0.27682 0.0
H3385 H 0.46312 0.27477 0.38372 0.0
H3386 H 0.47637 0.32474 0.29781 0.0
H3387 H 0.46619 0.30384 0.40542 0.0
H3388 H 0.46355 0.35634 0.43407 0.0
H3389 H 0.45688 0.32601 0.41244 0.0
H3390 H 0.49558 0.35217 0.32642 0.0
H3391 H 0.50121 0.3821 0.34691 0.0
C3392 C 0.47139 0.29721 0.30481 0.0
C3393 C 0.46758 0.28258 0.32821 0.0
C3394 C 0.47332 0.31404 0.31718 0.0
C3395 C 0.47181 0.31721 0.35376 0.0
C3396 C 0.46732 0.30225 0.37707 0.0
C3397 C 0.46537 0.28535 0.36457 0.0
C3398 C 0.47056 0.35564 0.41035 0.0
C3399 C 0.48323 0.37205 0.39271 0.0
C3400 C 0.46683 0.33808 0.39798 0.0
C3401 C 0.47557 0.33611 0.3673 0.0
C3402 C 0.48817 0.3526 0.34969 0.0
C3403 C 0.49177 0.37007 0.36195 0.0
H3404 H 0.66874 0.14149 0.36931 0.0
H3405 H 0.69159 0.11193 0.42188 0.0
H3406 H 0.69934 0.16477 0.34969 0.0
H3407 H 0.72231 0.13461 0.40009 0.0
H3408 H 0.77007 0.16766 0.31618 0.0
H3409 H 0.74091 0.14582 0.34475 0.0
H3410 H 0.73031 0.1902 0.36691 0.0
H3411 H 0.75977 0.2121 0.33851 0.0
C3412 C 0.68016 0.13977 0.37674 0.0
C3413 C 0.6771 0.1243 0.39701 0.0
C3414 C 0.698 0.15333 0.36535 0.0
C3415 C 0.71373 0.15186 0.3728 0.0
C3416 C 0.71076 0.1364 0.39317 0.0
C3417 C 0.69293 0.12314 0.40552 0.0
C3418 C 0.76183 0.17291 0.32813 0.0
C3419 C 0.76776 0.1919 0.32555 0.0
C3420 C 0.74491 0.16027 0.34449 0.0
C3421 C 0.73282 0.16592 0.35833 0.0
C3422 C 0.73894 0.18504 0.35648 0.0
C3423 C 0.75608 0.19777 0.34057 0.0
H3424 H 0.83379 0.55823 0.37072 0.0
H3425 H 0.87101 0.59708 0.29397 0.0
H3426 H 0.85863 0.55446 0.39501 0.0
H3427 H 0.89606 0.59299 0.31735 0.0
H3428 H 0.9417 0.58811 0.37807 0.0
H3429 H 0.91828 0.59549 0.35833 0.0
H3430 H 0.87568 0.54046 0.38616 0.0
H3431 H 0.89887 0.53362 0.40743 0.0
C3432 C 0.84748 0.56643 0.35961 0.0
C3433 C 0.85029 0.57837 0.33085 0.0
C3434 C 0.86183 0.56394 0.37308 0.0
C3435 C 0.87972 0.57304 0.35806 0.0
C3436 C 0.88274 0.58567 0.33022 0.0
C3437 C 0.86831 0.58821 0.31682 0.0
C3438 C 0.92733 0.57755 0.37999 0.0
C3439 C 0.92249 0.56011 0.39427 0.0
C3440 C 0.91373 0.58179 0.36841 0.0
C3441 C 0.89465 0.56874 0.37048 0.0
C3442 C 0.88995 0.55126 0.38453 0.0
C3443 C 0.90348 0.54714 0.39637 0.0
H3444 H 0.71605 0.16724 0.78895 0.0
H3445 H 0.70735 0.1183 0.84288 0.0
H3446 H 0.68535 0.16082 0.80649 0.0
H3447 H 0.67624 0.11127 0.85929 0.0
H3448 H 0.61418 0.09383 0.84684 0.0
H3449 H 0.646 0.10125 0.83741 0.0
H3450 H 0.66427 0.15897 0.8521 0.0
H3451 H 0.63213 0.15133 0.86137 0.0
C3452 C 0.70777 0.15525 0.80521 0.0
C3453 C 0.71461 0.14347 0.8146 0.0
C3454 C 0.6899 0.15143 0.81515 0.0
C3455 C 0.67785 0.13543 0.83459 0.0
C3456 C 0.68472 0.12361 0.84397 0.0
C3457 C 0.70271 0.12758 0.83427 0.0
C3458 C 0.62502 0.10808 0.84907 0.0
C3459 C 0.62038 0.12187 0.85569 0.0
C3460 C 0.64344 0.11241 0.8435 0.0
C3461 C 0.65816 0.13081 0.84369 0.0
C3462 C 0.65356 0.14463 0.85125 0.0
C3463 C 0.63505 0.14024 0.85721 0.0
H3464 H 0.92881 0.59022 0.78243 0.0
H3465 H 0.88195 0.56809 0.85282 0.0
H3466 H 0.93521 0.56608 0.80067 0.0
H3467 H 0.88708 0.543 0.86847 0.0
H3468 H 0.9035 0.50333 0.91161 0.0
H3469 H 0.90152 0.53071 0.89827 0.0
H3470 H 0.92959 0.53644 0.79833 0.0
H3471 H 0.93214 0.50935 0.81303 0.0
C3472 C 0.91967 0.58013 0.8016 0.0
C3473 C 0.90452 0.58122 0.81541 0.0
C3474 C 0.92324 0.56595 0.8119 0.0
C3475 C 0.91172 0.552 0.83622 0.0
C3476 C 0.89668 0.55329 0.8502 0.0
C3477 C 0.89336 0.56767 0.84045 0.0
C3478 C 0.90987 0.51086 0.88739 0.0
C3479 C 0.91851 0.5043 0.86408 0.0
C3480 C 0.90835 0.52649 0.87911 0.0
C3481 C 0.91505 0.53615 0.84661 0.0
C3482 C 0.92431 0.52988 0.8238 0.0
C3483 C 0.92594 0.51426 0.83232 0.0
H3484 H 0.55187 0.41632 0.88327 0.0
H3485 H 0.52259 0.43524 0.81774 0.0
H3486 H 0.52674 0.38452 0.87585 0.0
H3487 H 0.49831 0.404 0.80817 0.0
H3488 H 0.45095 0.34625 0.79808 0.0
H3489 H 0.47366 0.37721 0.81564 0.0
H3490 H 0.51054 0.35773 0.84748 0.0
H3491 H 0.4868 0.32664 0.83389 0.0
C3492 C 0.53996 0.41377 0.86765 0.0
C3493 C 0.53949 0.42864 0.85119 0.0
C3494 C 0.52548 0.39529 0.86266 0.0
C3495 C 0.50994 0.39086 0.84078 0.0
C3496 C 0.50942 0.40603 0.82557 0.0
C3497 C 0.52369 0.42433 0.83085 0.0
C3498 C 0.46379 0.34843 0.8093 0.0
C3499 C 0.46672 0.33338 0.81391 0.0
C3500 C 0.47726 0.3666 0.81905 0.0
C3501 C 0.49475 0.37088 0.83276 0.0
C3502 C 0.49755 0.35571 0.83758 0.0
C3503 C 0.48379 0.33747 0.82896 0.0
H3504 H 0.58513 0.74225 0.76133 0.0
H3505 H 0.59381 0.76287 0.65411 0.0
H3506 H 0.5822 0.71335 0.73996 0.0
H3507 H 0.59071 0.73373 0.63219 0.0
H3508 H 0.59467 0.68099 0.60549 0.0
H3509 H 0.60124 0.71152 0.62624 0.0
H3510 H 0.56134 0.68581 0.71042 0.0
H3511 H 0.5552 0.65565 0.69017 0.0
C3512 C 0.58702 0.74087 0.73317 0.0
C3513 C 0.59035 0.75541 0.70983 0.0
C3514 C 0.58495 0.72398 0.72063 0.0
C3515 C 0.58593 0.72064 0.68395 0.0
C3516 C 0.58998 0.73549 0.66061 0.0
C3517 C 0.59198 0.75244 0.67326 0.0
C3518 C 0.58738 0.68181 0.62864 0.0
C3519 C 0.57433 0.66544 0.64597 0.0
C3520 C 0.59106 0.69949 0.64049 0.0
C3521 C 0.58202 0.70164 0.6705 0.0
C3522 C 0.569 0.6852 0.68771 0.0
C3523 C 0.56525 0.66762 0.67572 0.0
H3524 H 0.29025 0.86948 0.73609 0.0
H3525 H 0.29553 0.82573 0.6881 0.0
H3526 H 0.31923 0.89218 0.70979 0.0
H3527 H 0.32432 0.84843 0.65964 0.0
H3528 H 0.38513 0.89097 0.64023 0.0
H3529 H 0.35478 0.86826 0.6613 0.0
H3530 H 0.34043 0.91097 0.67125 0.0
H3531 H 0.37139 0.9338 0.65246 0.0
C3532 C 0.29719 0.86468 0.71836 0.0
C3533 C 0.28992 0.84555 0.71363 0.0
C3534 C 0.3142 0.87789 0.70317 0.0
C3535 C 0.32498 0.87273 0.68221 0.0
C3536 C 0.31715 0.85349 0.67596 0.0
C3537 C 0.30015 0.84024 0.69161 0.0
C3538 C 0.37567 0.89567 0.64743 0.0
C3539 C 0.38129 0.91462 0.64506 0.0
C3540 C 0.3578 0.88237 0.65919 0.0
C3541 C 0.34434 0.88718 0.66855 0.0
C3542 C 0.34997 0.90618 0.66547 0.0
C3543 C 0.36799 0.91954 0.65431 0.0
H3544 H 0.14305 0.49661 0.68844 0.0
H3545 H 0.12617 0.45458 0.60786 0.0
H3546 H 0.16659 0.48969 0.70896 0.0
H3547 H 0.14924 0.44714 0.62901 0.0
H3548 H 0.17872 0.42492 0.70314 0.0
H3549 H 0.15735 0.4333 0.67618 0.0
H3550 H 0.19552 0.4906 0.69843 0.0
H3551 H 0.21685 0.482 0.72552 0.0
C3552 C 0.14443 0.48605 0.67466 0.0
C3553 C 0.13254 0.47642 0.64604 0.0
C3554 C 0.15804 0.48195 0.68661 0.0
C3555 C 0.16019 0.46776 0.67093 0.0
C3556 C 0.1482 0.45806 0.64235 0.0
C3557 C 0.13482 0.46238 0.63006 0.0
C3558 C 0.18284 0.43938 0.70129 0.0
C3559 C 0.1999 0.45275 0.71582 0.0
C3560 C 0.17044 0.44425 0.68589 0.0
C3561 C 0.17434 0.46274 0.68494 0.0
C3562 C 0.19166 0.47619 0.69877 0.0
C3563 C 0.20415 0.47129 0.71388 0.0
H3564 H 0.33256 0.87665 0.18037 0.0
H3565 H 0.35776 0.91762 0.26289 0.0
H3566 H 0.36258 0.88171 0.16261 0.0
H3567 H 0.38826 0.92378 0.24346 0.0
H3568 H 0.4401 0.91709 0.22082 0.0
H3569 H 0.41104 0.91494 0.24032 0.0
H3570 H 0.3897 0.89963 0.13345 0.0
H3571 H 0.41828 0.90129 0.11483 0.0
C3572 C 0.34449 0.88677 0.19492 0.0
C3573 C 0.3423 0.89637 0.22368 0.0
C3574 C 0.36203 0.89002 0.18416 0.0
C3575 C 0.37843 0.90336 0.20112 0.0
C3576 C 0.37627 0.91323 0.22963 0.0
C3577 C 0.35861 0.90981 0.24064 0.0
C3578 C 0.42937 0.91376 0.20133 0.0
C3579 C 0.43185 0.90961 0.16598 0.0
C3580 C 0.41248 0.91237 0.21257 0.0
C3581 C 0.39738 0.90668 0.18892 0.0
C3582 C 0.40041 0.9035 0.1532 0.0
C3583 C 0.41712 0.9048 0.14214 0.0
H3584 H 0.13457 0.53568 0.2214 0.0
H3585 H 0.14348 0.52434 0.11366 0.0
H3586 H 0.13707 0.50921 0.24214 0.0
H3587 H 0.14673 0.49863 0.13382 0.0
H3588 H 0.14377 0.4459 0.17254 0.0
H3589 H 0.13711 0.46983 0.15344 0.0
H3590 H 0.1554 0.49669 0.25573 0.0
H3591 H 0.16114 0.47209 0.27486 0.0
C3592 C 0.13658 0.52728 0.20193 0.0
C3593 C 0.13842 0.53214 0.16558 0.0
C3594 C 0.13843 0.51217 0.21391 0.0
C3595 C 0.1423 0.50133 0.19004 0.0
C3596 C 0.14349 0.506 0.15358 0.0
C3597 C 0.14159 0.52095 0.14175 0.0
C3598 C 0.14636 0.45693 0.19091 0.0
C3599 C 0.15294 0.45691 0.22534 0.0
C3600 C 0.14263 0.47091 0.17991 0.0
C3601 C 0.14564 0.48574 0.20265 0.0
C3602 C 0.1524 0.48563 0.23718 0.0
C3603 C 0.15585 0.47147 0.24829 0.0
H3604 H 0.57975 0.71443 0.18464 0.0
H3605 H 0.5981 0.689 0.26147 0.0
H3606 H 0.55487 0.68441 0.16688 0.0
H3607 H 0.57373 0.65848 0.24191 0.0
H3608 H 0.51527 0.60586 0.22096 0.0
H3609 H 0.54227 0.63496 0.24016 0.0
H3610 H 0.54522 0.65779 0.13579 0.0
H3611 H 0.51827 0.62918 0.11753 0.0
C3612 C 0.57862 0.70244 0.1978 0.0
C3613 C 0.59122 0.7046 0.22486 0.0
C3614 C 0.56431 0.68488 0.18704 0.0
C3615 C 0.5619 0.66838 0.20233 0.0
C3616 C 0.57467 0.67051 0.22927 0.0
C3617 C 0.58898 0.68821 0.24027 0.0
C3618 C 0.522 0.61694 0.20186 0.0
C3619 C 0.51447 0.61481 0.16735 0.0
C3620 C 0.53756 0.63387 0.21297 0.0
C3621 C 0.54618 0.64941 0.19007 0.0
C3622 C 0.53905 0.64676 0.15508 0.0
C3623 C 0.5236 0.63001 0.14417 0.0
H3624 H 0.17277 0.71343 0.69513 0.0
H3625 H 0.12315 0.68959 0.75803 0.0
H3626 H 0.16561 0.68299 0.67503 0.0
H3627 H 0.11578 0.65882 0.73775 0.0
H3628 H 0.09801 0.60819 0.66214 0.0
H3629 H 0.10562 0.63751 0.69015 0.0
H3630 H 0.16335 0.65415 0.68601 0.0
H3631 H 0.1555 0.62467 0.6575 0.0
C3632 C 0.16037 0.70174 0.70509 0.0
C3633 C 0.14871 0.70444 0.72859 0.0
C3634 C 0.15621 0.68398 0.69349 0.0
C3635 C 0.14004 0.66791 0.7045 0.0
C3636 C 0.12829 0.67058 0.72799 0.0
C3637 C 0.13255 0.68841 0.73982 0.0
C3638 C 0.11231 0.61788 0.66814 0.0
C3639 C 0.12603 0.61366 0.65802 0.0
C3640 C 0.11677 0.63491 0.68424 0.0
C3641 C 0.13523 0.64876 0.69047 0.0
C3642 C 0.14896 0.64425 0.68142 0.0
C3643 C 0.14446 0.62708 0.66552 0.0
H3644 H 0.41973 0.52159 0.61231 0.0
H3645 H 0.43938 0.53361 0.72019 0.0
H3646 H 0.39068 0.49559 0.63281 0.0
H3647 H 0.4101 0.50795 0.74137 0.0
H3648 H 0.35755 0.45402 0.77189 0.0
H3649 H 0.38792 0.47733 0.75053 0.0
H3650 H 0.36256 0.48631 0.65854 0.0
H3651 H 0.33251 0.46221 0.67909 0.0
C3652 C 0.41807 0.51834 0.64047 0.0
C3653 C 0.4324 0.52952 0.66427 0.0
C3654 C 0.40107 0.50353 0.65255 0.0
C3655 C 0.39737 0.49932 0.68922 0.0
C3656 C 0.41202 0.51021 0.71295 0.0
C3657 C 0.42909 0.52502 0.70075 0.0
C3658 C 0.3584 0.46094 0.74705 0.0
C3659 C 0.34215 0.45623 0.72777 0.0
C3660 C 0.37603 0.47458 0.73472 0.0
C3661 C 0.37831 0.48425 0.70247 0.0
C3662 C 0.36196 0.47936 0.68317 0.0
C3663 C 0.34439 0.46562 0.6954 0.0
H3664 H 0.6097 0.9262 0.72908 0.0
H3665 H 0.56991 0.86829 0.72465 0.0
H3666 H 0.5859 0.93326 0.70932 0.0
H3667 H 0.54652 0.87506 0.70468 0.0
H3668 H 0.50158 0.88909 0.6999 0.0
H3669 H 0.52694 0.88606 0.72374 0.0
H3670 H 0.56537 0.93236 0.66041 0.0
H3671 H 0.5396 0.93538 0.63655 0.0
C3672 C 0.59601 0.91491 0.72361 0.0
C3673 C 0.59215 0.89654 0.72809 0.0
C3674 C 0.58222 0.91897 0.71214 0.0
C3675 C 0.56388 0.90483 0.70532 0.0
C3676 C 0.56016 0.88654 0.70994 0.0
C3677 C 0.57388 0.88255 0.72102 0.0
C3678 C 0.51548 0.89903 0.69174 0.0
C3679 C 0.5183 0.91269 0.66654 0.0
C3680 C 0.53016 0.89708 0.70503 0.0
C3681 C 0.54854 0.90866 0.69375 0.0
C3682 C 0.55159 0.92308 0.67006 0.0
C3683 C 0.53674 0.92498 0.65652 0.0
H3684 H 0.30239 0.46295 0.25954 0.0
H3685 H 0.28609 0.46363 0.1512 0.0
H3686 H 0.33117 0.46545 0.2389 0.0
H3687 H 0.31523 0.46647 0.13008 0.0
H3688 H 0.36582 0.45956 0.10246 0.0
H3689 H 0.33555 0.45409 0.12138 0.0
H3690 H 0.36023 0.487 0.21546 0.0
H3691 H 0.39035 0.49205 0.19679 0.0
C3692 C 0.30475 0.46318 0.23112 0.0
C3693 C 0.29152 0.46267 0.2072 0.0
C3694 C 0.32155 0.46498 0.21915 0.0
C3695 C 0.32608 0.46652 0.18258 0.0
C3696 C 0.31249 0.46523 0.15842 0.0
C3697 C 0.29557 0.46343 0.17052 0.0
C3698 C 0.36484 0.4656 0.12729 0.0
C3699 C 0.38085 0.47639 0.14784 0.0
C3700 C 0.34733 0.46256 0.13812 0.0
C3701 C 0.34499 0.46996 0.17028 0.0
C3702 C 0.36106 0.48072 0.19082 0.0
C3703 C 0.37857 0.48386 0.17985 0.0
H3704 H 0.59949 0.84347 0.14596 0.0
H3705 H 0.5711 0.83772 0.24469 0.0
H3706 H 0.59724 0.87071 0.13136 0.0
H3707 H 0.56943 0.86527 0.23151 0.0
H3708 H 0.55069 0.90361 0.18756 0.0
H3709 H 0.55577 0.87855 0.20344 0.0
H3710 H 0.60227 0.89996 0.13158 0.0
H3711 H 0.59577 0.92401 0.1131 0.0
C3712 C 0.59342 0.84847 0.16534 0.0
C3713 C 0.586 0.8385 0.19713 0.0
C3714 C 0.59195 0.86421 0.15685 0.0
C3715 C 0.58284 0.87065 0.17969 0.0
C3716 C 0.57615 0.86098 0.21223 0.0
C3717 C 0.57751 0.84522 0.22048 0.0
C3718 C 0.56176 0.90285 0.17442 0.0
C3719 C 0.57242 0.91596 0.14825 0.0
C3720 C 0.56506 0.88846 0.18427 0.0
C3721 C 0.57961 0.88664 0.16926 0.0
C3722 C 0.59068 0.90018 0.14376 0.0
C3723 C 0.58709 0.91438 0.13335 0.0
H3724 H 0.20952 0.76416 0.1514 0.0
H3725 H 0.20473 0.74198 0.25663 0.0
H3726 H 0.18255 0.73508 0.13228 0.0
H3727 H 0.17771 0.71338 0.23845 0.0
H3728 H 0.14297 0.65642 0.19148 0.0
H3729 H 0.16821 0.68638 0.20875 0.0
H3730 H 0.1511 0.71229 0.1301 0.0
H3731 H 0.12656 0.68189 0.111 0.0
C3732 C 0.20238 0.75333 0.17083 0.0
C3733 C 0.20936 0.7557 0.20581 0.0
C3734 C 0.18685 0.73644 0.15981 0.0
C3735 C 0.17775 0.72124 0.18335 0.0
C3736 C 0.18431 0.72417 0.21878 0.0
C3737 C 0.19977 0.74088 0.2296 0.0
C3738 C 0.14471 0.66837 0.17722 0.0
C3739 C 0.13267 0.6663 0.14916 0.0
C3740 C 0.15916 0.68589 0.18775 0.0
C3741 C 0.16207 0.70234 0.17131 0.0
C3742 C 0.14979 0.70027 0.14349 0.0
C3743 C 0.13544 0.68266 0.13267 0.0
H3744 H 0.35544 0.22439 0.1319 0.0
H3745 H 0.30902 0.17491 0.17275 0.0
H3746 H 0.37638 0.21542 0.15765 0.0
H3747 H 0.32974 0.16506 0.19618 0.0
H3748 H 0.37032 0.15633 0.26183 0.0
H3749 H 0.34974 0.16603 0.23722 0.0
H3750 H 0.39106 0.19893 0.1589 0.0
H3751 H 0.41191 0.18976 0.18501 0.0
C3752 C 0.34961 0.21156 0.14645 0.0
C3753 C 0.33035 0.2007 0.1507 0.0
C3754 C 0.36175 0.20615 0.16094 0.0
C3755 C 0.35518 0.18935 0.17967 0.0
C3756 C 0.3358 0.17831 0.18309 0.0
C3757 C 0.32371 0.18392 0.16919 0.0
C3758 C 0.37507 0.16566 0.23933 0.0
C3759 C 0.39296 0.17219 0.22564 0.0
C3760 C 0.36307 0.17121 0.22477 0.0
C3761 C 0.36829 0.18342 0.19546 0.0
C3762 C 0.38626 0.18985 0.1817 0.0
C3763 C 0.39835 0.18446 0.19662 0.0
H3764 H 0.83139 0.14841 0.10874 0.0
H3765 H 0.86438 0.13998 0.18589 0.0
H3766 H 0.84002 0.17807 0.13512 0.0
H3767 H 0.87222 0.16904 0.21421 0.0
H3768 H 0.89415 0.22728 0.25242 0.0
H3769 H 0.88627 0.19853 0.224 0.0
H3770 H 0.84063 0.19904 0.17124 0.0
H3771 H 0.85033 0.22928 0.19682 0.0
C3772 C 0.84045 0.15284 0.13166 0.0
C3773 C 0.84726 0.14164 0.14478 0.0
C3774 C 0.84537 0.17006 0.14735 0.0
C3775 C 0.8571 0.1768 0.17747 0.0
C3776 C 0.86363 0.16524 0.19079 0.0
C3777 C 0.85898 0.1482 0.17458 0.0
C3778 C 0.88278 0.22162 0.23387 0.0
C3779 C 0.87344 0.23129 0.22621 0.0
C3780 C 0.8778 0.20451 0.21788 0.0
C3781 C 0.86256 0.19561 0.19453 0.0
C3782 C 0.85274 0.20508 0.18794 0.0
C3783 C 0.85819 0.2226 0.20312 0.0
H3784 H 0.81455 0.63825 0.18219 0.0
H3785 H 0.82434 0.67744 0.26562 0.0
H3786 H 0.84373 0.65983 0.15471 0.0
H3787 H 0.85411 0.69877 0.2399 0.0
H3788 H 0.90494 0.74078 0.17914 0.0
H3789 H 0.87462 0.72 0.20391 0.0
H3790 H 0.87358 0.67466 0.14631 0.0
H3791 H 0.90253 0.6959 0.11872 0.0
C3792 C 0.8231 0.65143 0.19506 0.0
C3793 C 0.81688 0.65589 0.22635 0.0
C3794 C 0.84018 0.66401 0.17933 0.0
C3795 C 0.85212 0.68156 0.1946 0.0
C3796 C 0.84575 0.68584 0.22621 0.0
C3797 C 0.8285 0.67338 0.24148 0.0
C3798 C 0.89809 0.72641 0.1714 0.0
C3799 C 0.90664 0.72021 0.14706 0.0
C3800 C 0.88056 0.71418 0.18619 0.0
C3801 C 0.87094 0.69506 0.178 0.0
C3802 C 0.87972 0.68903 0.15356 0.0
C3803 C 0.89689 0.70134 0.138 0.0
H3804 H 0.20533 0.39421 0.28562 0.0
H3805 H 0.15889 0.37146 0.35734 0.0
H3806 H 0.21512 0.37364 0.30934 0.0
H3807 H 0.16795 0.34983 0.37969 0.0
H3808 H 0.19531 0.32186 0.43624 0.0
H3809 H 0.18626 0.34324 0.41349 0.0
H3810 H 0.21292 0.3456 0.31336 0.0
H3811 H 0.22285 0.32486 0.33736 0.0
C3812 C 0.19699 0.38466 0.3063 0.0
C3813 C 0.18109 0.38461 0.31911 0.0
C3814 C 0.20258 0.37255 0.31983 0.0
C3815 C 0.19244 0.35959 0.34663 0.0
C3816 C 0.17651 0.35958 0.35953 0.0
C3817 C 0.17106 0.37194 0.3463 0.0
C3818 C 0.19933 0.32697 0.40933 0.0
C3819 C 0.20989 0.32149 0.38878 0.0
C3820 C 0.19393 0.33925 0.39596 0.0
C3821 C 0.19855 0.34643 0.36109 0.0
C3822 C 0.20918 0.34089 0.3405 0.0
C3823 C 0.21487 0.3288 0.3542 0.0
H3824 H 0.66751 0.79675 0.3666 0.0
H3825 H 0.66279 0.82185 0.2701 0.0
H3826 H 0.6887 0.82721 0.39091 0.0
H3827 H 0.68466 0.85215 0.29314 0.0
H3828 H 0.71305 0.90681 0.35209 0.0
H3829 H 0.69104 0.87631 0.3296 0.0
H3830 H 0.71731 0.85276 0.39245 0.0
H3831 H 0.73834 0.88301 0.41665 0.0
C3832 C 0.67114 0.80877 0.35038 0.0
C3833 C 0.66327 0.80672 0.31642 0.0
C3834 C 0.68349 0.82639 0.36423 0.0
C3835 C 0.68867 0.84259 0.34431 0.0
C3836 C 0.6809 0.84036 0.31005 0.0
C3837 C 0.66836 0.8228 0.29654 0.0
C3838 C 0.71403 0.89511 0.3614 0.0
C3839 C 0.72747 0.89758 0.38667 0.0
C3840 C 0.70144 0.87746 0.34809 0.0
C3841 C 0.70208 0.86161 0.35892 0.0
C3842 C 0.71582 0.86425 0.38374 0.0
C3843 C 0.72815 0.88182 0.39748 0.0
H3844 H 0.22625 0.85181 0.27065 0.0
H3845 H 0.25101 0.87926 0.36946 0.0
H3846 H 0.19591 0.84316 0.29368 0.0
H3847 H 0.22047 0.86968 0.39379 0.0
H3848 H 0.16459 0.86288 0.42189 0.0
H3849 H 0.19492 0.87247 0.39773 0.0
H3850 H 0.17123 0.82496 0.32803 0.0
H3851 H 0.14068 0.81622 0.35054 0.0
C3852 C 0.22521 0.85583 0.29762 0.0
C3853 C 0.24124 0.86625 0.31812 0.0
C3854 C 0.20761 0.85069 0.31113 0.0
C3855 C 0.2052 0.85543 0.34607 0.0
C3856 C 0.22136 0.86588 0.36661 0.0
C3857 C 0.23905 0.87135 0.35274 0.0
C3858 C 0.16576 0.85447 0.40123 0.0
C3859 C 0.14992 0.83857 0.38862 0.0
C3860 C 0.18341 0.85992 0.38748 0.0
C3861 C 0.18607 0.84959 0.36074 0.0
C3862 C 0.17014 0.83366 0.34809 0.0
C3863 C 0.15242 0.82839 0.36146 0.0
H3864 H 0.70672 0.82771 0.93496 0.0
H3865 H 0.74273 0.84995 0.84434 0.0
H3866 H 0.68587 0.83682 0.90916 0.0
H3867 H 0.72147 0.85812 0.81701 0.0
H3868 H 0.68772 0.88393 0.78236 0.0
H3869 H 0.70869 0.87562 0.80969 0.0
H3870 H 0.6637 0.83421 0.87234 0.0
H3871 H 0.64324 0.84408 0.84721 0.0
C3872 C 0.71014 0.83446 0.90925 0.0
C3873 C 0.72659 0.83817 0.89201 0.0
C3874 C 0.69797 0.8396 0.89401 0.0
C3875 C 0.70154 0.84842 0.86043 0.0
C3876 C 0.71802 0.85188 0.84312 0.0
C3877 C 0.73036 0.84705 0.85877 0.0
C3878 C 0.68235 0.87335 0.80261 0.0
C3879 C 0.66374 0.86515 0.81306 0.0
C3880 C 0.69444 0.86819 0.81803 0.0
C3881 C 0.68836 0.85405 0.84386 0.0
C3882 C 0.66948 0.84545 0.85347 0.0
C3883 C 0.65749 0.85098 0.83861 0.0
H3884 H 0.2039 0.81008 0.84412 0.0
H3885 H 0.1632 0.81349 0.77988 0.0
H3886 H 0.213 0.84023 0.86974 0.0
H3887 H 0.17078 0.84253 0.80762 0.0
H3888 H 0.19529 0.90227 0.84267 0.0
H3889 H 0.18755 0.87288 0.81527 0.0
H3890 H 0.20981 0.85947 0.90689 0.0
H3891 H 0.21837 0.88932 0.93285 0.0
C3892 C 0.19667 0.81712 0.83571 0.0
C3893 C 0.18251 0.80891 0.81015 0.0
C3894 C 0.20175 0.83453 0.85086 0.0
C3895 C 0.19269 0.84441 0.84154 0.0
C3896 C 0.17857 0.83606 0.81572 0.0
C3897 C 0.17385 0.81894 0.80002 0.0
C3898 C 0.19846 0.89299 0.857 0.0
C3899 C 0.20752 0.89837 0.89008 0.0
C3900 C 0.1939 0.87585 0.84129 0.0
C3901 C 0.19784 0.86311 0.85835 0.0
C3902 C 0.2067 0.86857 0.89189 0.0
C3903 C 0.21152 0.88583 0.90721 0.0
H3904 H 0.15336 0.30197 0.86296 0.0
H3905 H 0.15415 0.34713 0.91949 0.0
H3906 H 0.18379 0.32292 0.83868 0.0
H3907 H 0.18363 0.36841 0.89304 0.0
H3908 H 0.24405 0.40401 0.86159 0.0
H3909 H 0.21421 0.38268 0.88773 0.0
H3910 H 0.2037 0.34445 0.80123 0.0
H3911 H 0.23387 0.3655 0.77659 0.0
C3912 C 0.15986 0.31645 0.86987 0.0
C3913 C 0.15081 0.32267 0.89298 0.0
C3914 C 0.17748 0.32872 0.85549 0.0
C3915 C 0.18681 0.34789 0.8631 0.0
C3916 C 0.1776 0.35398 0.88634 0.0
C3917 C 0.16022 0.34165 0.90126 0.0
C3918 C 0.23535 0.39104 0.84817 0.0
C3919 C 0.24168 0.38662 0.81695 0.0
C3920 C 0.21793 0.37863 0.86312 0.0
C3921 C 0.20583 0.36133 0.84714 0.0
C3922 C 0.21225 0.35716 0.81548 0.0
C3923 C 0.22976 0.36944 0.80092 0.0
H3924 H 0.82523 0.70364 0.6918 0.0
H3925 H 0.87176 0.72713 0.62028 0.0
H3926 H 0.83472 0.6823 0.71396 0.0
H3927 H 0.88195 0.70684 0.64383 0.0
H3928 H 0.88999 0.65804 0.671 0.0
H3929 H 0.87981 0.67866 0.64724 0.0
H3930 H 0.85362 0.6764 0.74789 0.0
H3931 H 0.86295 0.65522 0.77045 0.0
C3932 C 0.83749 0.70433 0.68072 0.0
C3933 C 0.84741 0.7171 0.65362 0.0
C3934 C 0.84319 0.69215 0.69386 0.0
C3935 C 0.85927 0.69246 0.68094 0.0
C3936 C 0.86931 0.70554 0.65429 0.0
C3937 C 0.86349 0.71749 0.64088 0.0
C3938 C 0.88209 0.662 0.68801 0.0
C3939 C 0.8773 0.65477 0.72267 0.0
C3940 C 0.87624 0.674 0.67445 0.0
C3941 C 0.86563 0.67948 0.69526 0.0
C3942 C 0.86124 0.67242 0.73022 0.0
C3943 C 0.86682 0.66026 0.74346 0.0
H3944 H 0.3427 0.13011 0.69109 0.0
H3945 H 0.31947 0.15402 0.62143 0.0
H3946 H 0.36478 0.16063 0.71295 0.0
H3947 H 0.34012 0.18423 0.64548 0.0
H3948 H 0.38775 0.24083 0.67472 0.0
H3949 H 0.36689 0.21033 0.65038 0.0
H3950 H 0.37357 0.18554 0.74606 0.0
H3951 H 0.39517 0.21582 0.76866 0.0
C3952 C 0.34224 0.14184 0.68035 0.0
C3953 C 0.32941 0.13932 0.65366 0.0
C3954 C 0.35483 0.1596 0.69347 0.0
C3955 C 0.35472 0.17558 0.68133 0.0
C3956 C 0.34142 0.17282 0.65531 0.0
C3957 C 0.3292 0.15517 0.64162 0.0
C3958 C 0.38476 0.22882 0.69043 0.0
C3959 C 0.39332 0.23099 0.72369 0.0
C3960 C 0.37255 0.21109 0.67658 0.0
C3961 C 0.36811 0.19481 0.69582 0.0
C3962 C 0.37661 0.19723 0.72941 0.0
C3963 C 0.38904 0.21487 0.74279 0.0
H3964 H 0.89195 0.18192 0.60297 0.0
H3965 H 0.91667 0.21345 0.69823 0.0
H3966 H 0.86158 0.17389 0.62488 0.0
H3967 H 0.88622 0.20449 0.72168 0.0
H3968 H 0.8307 0.19775 0.74875 0.0
H3969 H 0.86077 0.20682 0.72429 0.0
H3970 H 0.83664 0.15758 0.65911 0.0
H3971 H 0.80626 0.14946 0.68159 0.0
C3972 C 0.89089 0.18698 0.62895 0.0
C3973 C 0.90692 0.19836 0.64875 0.0
C3974 C 0.87327 0.18221 0.64186 0.0
C3975 C 0.87087 0.18832 0.67552 0.0
C3976 C 0.88705 0.19966 0.69538 0.0
C3977 C 0.90472 0.20474 0.68206 0.0
C3978 C 0.83171 0.18885 0.729 0.0
C3979 C 0.8158 0.17263 0.71776 0.0
C3980 C 0.84923 0.19399 0.71509 0.0
C3981 C 0.85176 0.18296 0.6897 0.0
C3982 C 0.83571 0.16679 0.67815 0.0
C3983 C 0.81808 0.16189 0.69151 0.0
H3984 H 0.97616 0.50767 0.50557 0.0
H3985 H 1.0221 0.55772 0.46553 0.0
H3986 H 0.99721 0.49814 0.52837 0.0
H3987 H 0.04337 0.54923 0.491 0.0
H3988 H 0.08057 0.52578 0.51946 0.0
H3989 H 0.05938 0.5346 0.49399 0.0
H3990 H 1.017 0.49769 0.567 0.0
H3991 H 0.03795 0.48833 0.59065 0.0
C3992 C 0.99082 0.51689 0.50211 0.0
C3993 C 0.99719 0.53374 0.48401 0.0
C3994 C 1.00314 0.51147 0.5157 0.0
C3995 C 1.02253 0.52279 0.51246 0.0
C3996 C 0.0288 0.53968 0.49418 0.0
C3997 C 1.01644 0.54486 0.47987 0.0
C3998 C 0.06669 0.5195 0.52998 0.0
C3999 C 0.06117 0.5062 0.55718 0.0
C4000 C 0.05435 0.5247 0.51546 0.0
C4001 C 0.03595 0.51707 0.52787 0.0
C4002 C 0.03063 0.50385 0.55547 0.0
C4003 C 0.04287 0.49848 0.56953 0.0
H4004 H 0.5197 0.56093 0.5296 0.0
H4005 H 0.56005 0.55731 0.59451 0.0
H4006 H 0.51045 0.53075 0.50433 0.0
H4007 H 0.55248 0.52829 0.56695 0.0
H4008 H 0.52937 0.46907 0.52971 0.0
H4009 H 0.53717 0.4984 0.55734 0.0
H4010 H 0.51205 0.51061 0.46873 0.0
H4011 H 0.5034 0.48085 0.4429 0.0
C4012 C 0.52683 0.55383 0.53821 0.0
C4013 C 0.54093 0.56201 0.56386 0.0
C4014 C 0.52168 0.53637 0.52321 0.0
C4015 C 0.53065 0.5264 0.53268 0.0
C4016 C 0.54473 0.53475 0.55862 0.0
C4017 C 0.54946 0.5519 0.57425 0.0
C4018 C 0.52557 0.47807 0.51616 0.0
C4019 C 0.51571 0.47236 0.48395 0.0
C4020 C 0.53016 0.49521 0.53198 0.0
C4021 C 0.52547 0.50765 0.51586 0.0
C4022 C 0.51579 0.50182 0.48318 0.0
C4023 C 0.51089 0.48457 0.46785 0.0
H4024 H 0.5751 0.07209 0.52224 0.0
H4025 H 0.56845 0.02971 0.44853 0.0
H4026 H 0.54528 0.05102 0.54878 0.0
H4027 H 0.53836 1.00882 0.47361 0.0
H4028 H 0.48869 0.96813 0.53866 0.0
H4029 H 0.51909 0.98906 0.51445 0.0
H4030 H 0.51438 0.03548 0.55126 0.0
H4031 H 0.48479 1.0144 0.57791 0.0
C4032 C 0.56722 0.05829 0.5114 0.0
C4033 C 0.57451 0.05277 0.48319 0.0
C4034 C 0.54982 0.04604 0.52657 0.0
C4035 C 0.53875 0.02774 0.51389 0.0
C4036 C 0.54613 0.0224 0.48529 0.0
C4037 C 0.5636 0.03458 0.47047 0.0
C4038 C 0.49415 0.98281 0.54173 0.0
C4039 C 0.48383 0.98934 0.56006 0.0
C4040 C 0.51175 0.99504 0.52735 0.0
C4041 C 0.51979 1.01444 0.53007 0.0
C4042 C 0.50933 0.02087 0.54855 0.0
C4043 C 0.49194 1.00863 0.5636 0.0
H4044 H 0.56405 0.99926 1.01482 0.0
H4045 H 0.51906 0.97928 0.08975 0.0
H4046 H 0.55576 0.02137 0.99208 0.0
H4047 H 0.51 1.0004 0.06578 0.0
H4048 H 0.505 0.05052 0.03756 0.0
H4049 H 0.51432 0.02934 0.06149 0.0
H4050 H 0.53707 0.02787 0.95882 0.0
H4051 H 0.52878 0.04991 0.93608 0.0
C4052 C 0.55231 0.99947 0.02636 0.0
C4053 C 0.54243 0.98746 0.05451 0.0
C4054 C 0.54734 1.01212 1.013 0.0
C4055 C 0.53209 1.01303 0.02683 0.0
C4056 C 0.52206 1.00072 0.0546 0.0
C4057 C 0.52719 0.9883 0.06825 0.0
C4058 C 0.51202 0.04566 0.0202 0.0
C4059 C 0.51619 0.05206 0.98494 0.0
C4060 C 0.51731 0.03332 0.03383 0.0
C4061 C 0.52659 0.02656 1.0124 0.0
C4062 C 0.53044 0.03286 0.97685 0.0
C4063 C 0.52552 0.0455 0.96355 0.0
H4064 H 1.01086 0.46561 0.02175 0.0
H4065 H 0.98586 0.48857 0.95414 0.0
H4066 H 0.03229 0.49633 0.04419 0.0
H4067 H 1.00625 0.51901 0.97824 0.0
H4068 H 0.05502 0.57584 1.00609 0.0
H4069 H 0.03431 0.54522 0.98144 0.0
H4070 H 0.03817 0.52052 0.07965 0.0
H4071 H 0.05944 0.55083 0.10297 0.0
C4072 C 1.00984 0.47716 1.01166 0.0
C4073 C 0.99665 0.47435 0.98554 0.0
C4074 C 1.02208 0.49497 0.02498 0.0
C4075 C 1.02134 0.51068 1.01335 0.0
C4076 C 1.00785 0.50769 0.98766 0.0
C4077 C 0.99587 0.48997 0.97395 0.0
C4078 C 0.05142 0.56383 0.02233 0.0
C4079 C 0.05911 0.56599 0.05651 0.0
C4080 C 0.03936 0.5461 1.00828 0.0
C4081 C 0.03432 0.52988 0.02815 0.0
C4082 C 0.04183 0.53226 0.06266 0.0
C4083 C 0.05405 0.54987 0.07636 0.0
H4084 H 0.4951 0.52894 0.08103 0.0
H4085 H 0.47222 0.47784 0.02234 0.0
H4086 H 0.52549 0.53771 0.05905 0.0
H4087 H 0.50296 0.48686 0.99929 0.0
H4088 H 0.5637 0.50153 0.98642 0.0
H4089 H 0.53277 0.49161 1.00912 0.0
H4090 H 0.54585 0.54842 1.01299 0.0
H4091 H 0.57694 0.55814 0.99393 0.0
C4092 C 0.49646 0.5195 0.06322 0.0
C4093 C 0.48092 0.50251 0.05391 0.0
C4094 C 0.51411 0.52468 0.05016 0.0
C4095 C 0.51712 0.51316 0.02696 0.0
C4096 C 0.50153 0.49615 1.01736 0.0
C4097 C 0.48373 0.49095 0.03049 0.0
C4098 C 0.56005 0.51194 0.99248 0.0
C4099 C 0.57314 0.5308 0.98792 0.0
C4100 C 0.54209 0.5062 1.00521 0.0
C4101 C 0.53637 0.51907 1.01312 0.0
C4102 C 0.54949 0.53789 1.00824 0.0
C4103 C 0.56753 0.5436 0.9966 0.0
H4104 H 0.31297 0.23213 0.97413 0.0
H4105 H 0.34573 0.21721 0.03877 0.0
H4106 H 0.33588 0.24179 0.92611 0.0
H4107 H 0.36922 0.22766 0.99108 0.0
H4108 H 0.41635 0.26866 0.90437 0.0
H4109 H 0.3942 0.25712 0.95471 0.0
H4110 H 0.34944 0.22934 0.88064 0.0
H4111 H 0.37127 0.2397 0.83139 0.0
C4112 C 0.32494 0.23062 0.97818 0.0
C4113 C 0.32676 0.22318 1.01081 0.0
C4114 C 0.33835 0.23635 0.95029 0.0
C4115 C 0.35493 0.23575 0.95363 0.0
C4116 C 0.35694 0.22856 0.98657 0.0
C4117 C 0.34316 0.22223 1.01413 0.0
C4118 C 0.40184 0.25984 0.89864 0.0
C4119 C 0.39607 0.25565 0.86257 0.0
C4120 C 0.38892 0.25319 0.9279 0.0
C4121 C 0.36948 0.24228 0.92274 0.0
C4122 C 0.36394 0.23784 0.88679 0.0
C4123 C 0.37676 0.244 0.85797 0.0
H4124 H 0.84831 0.13696 0.99863 0.0
H4125 H 0.79404 0.0891 1.00034 0.0
H4126 H 0.83847 0.14988 0.94977 0.0
H4127 H 0.78415 0.10227 0.95334 0.0
H4128 H 0.76559 0.13935 0.89169 0.0
H4129 H 0.77685 0.12787 0.94042 0.0
H4130 H 0.8275 0.14545 0.88331 0.0
H4131 H 0.8159 0.15618 0.83416 0.0
C4132 C 0.83431 0.12906 0.98891 0.0
C4133 C 0.82217 0.11177 1.0048 0.0
C4134 C 0.82854 0.13658 0.96055 0.0
C4135 C 0.81018 0.1275 0.94701 0.0
C4136 C 0.79823 0.11018 0.96265 0.0
C4137 C 0.8041 0.10248 0.99003 0.0
C4138 C 0.77931 0.14121 0.88967 0.0
C4139 C 0.78984 0.14938 0.85855 0.0
C4140 C 0.7858 0.13433 0.91779 0.0
C4141 C 0.80341 0.13562 0.91694 0.0
C4142 C 0.81406 0.14421 0.88613 0.0
C4143 C 0.80734 0.15054 0.8576 0.0
H4144 H 0.89084 0.63207 0.90212 0.0
H4145 H 0.90848 0.67681 0.82789 0.0
H4146 H 0.90112 0.65453 0.95198 0.0
H4147 H 0.91978 0.69896 0.87675 0.0
H4148 H 0.95893 0.7345 0.97202 0.0
H4149 H 0.94584 0.71141 0.92413 0.0
H4150 H 0.89605 0.68072 0.98501 0.0
H4151 H 0.90892 0.70445 0.03233 0.0
C4152 C 0.89684 0.64658 0.89604 0.0
C4153 C 0.89902 0.6522 0.85985 0.0
C4154 C 0.9029 0.65965 0.92497 0.0
C4155 C 0.91179 0.67905 0.91927 0.0
C4156 C 0.91346 0.68446 0.88319 0.0
C4157 C 0.90698 0.67149 0.85466 0.0
C4158 C 0.945 0.7231 0.97508 0.0
C4159 C 0.93502 0.72204 1.00637 0.0
C4160 C 0.93743 0.7096 0.94736 0.0
C4161 C 0.91966 0.69371 0.94978 0.0
C4162 C 0.90972 0.69247 0.98137 0.0
C4163 C 0.91708 0.70638 1.00862 0.0
H4164 H 0.22355 0.29882 0.56777 0.0
H4165 H 0.24296 0.344 0.49416 0.0
H4166 H 0.23381 0.32108 0.61798 0.0
H4167 H 0.25443 0.36594 0.54345 0.0
H4168 H 0.29365 0.39915 0.64217 0.0
H4169 H 0.28059 0.37633 0.59379 0.0
H4170 H 0.22858 0.34891 0.64868 0.0
H4171 H 0.24146 0.37246 0.69637 0.0
C4172 C 0.23 0.31338 0.56188 0.0
C4173 C 0.23269 0.31917 0.52574 0.0
C4174 C 0.23604 0.32634 0.59103 0.0
C4175 C 0.24546 0.34578 0.58565 0.0
C4176 C 0.24767 0.35138 0.54963 0.0
C4177 C 0.24115 0.33853 0.52086 0.0
C4178 C 0.27928 0.38854 0.64383 0.0
C4179 C 0.26873 0.38837 0.67357 0.0
C4180 C 0.27172 0.37519 0.61583 0.0
C4181 C 0.25332 0.36027 0.61646 0.0
C4182 C 0.24276 0.35989 0.64648 0.0
C4183 C 0.25016 0.37372 0.67394 0.0
H4184 H 0.65988 0.86571 0.66769 0.0
H4185 H 0.66511 0.91949 0.6666 0.0
H4186 H 0.68284 0.87542 0.61905 0.0
H4187 H 0.68855 0.92934 0.62007 0.0
H4188 H 0.74561 0.94777 0.56102 0.0
H4189 H 0.72256 0.93652 0.60943 0.0
H4190 H 0.68907 0.88651 0.55081 0.0
H4191 H 0.71167 0.89809 0.50199 0.0
C4192 C 0.66576 0.87958 0.65743 0.0
C4193 C 0.66021 0.89162 0.67258 0.0
C4194 C 0.67921 0.8853 0.6292 0.0
C4195 C 0.68833 0.90354 0.61504 0.0
C4196 C 0.68251 0.91536 0.62983 0.0
C4197 C 0.66871 0.9095 0.65695 0.0
C4198 C 0.73362 0.93416 0.55859 0.0
C4199 C 0.73126 0.92383 0.52706 0.0
C4200 C 0.72005 0.92768 0.58656 0.0
C4201 C 0.70348 0.91027 0.58522 0.0
C4202 C 0.70143 0.89978 0.55407 0.0
C4203 C 0.71468 0.9065 0.52572 0.0
H4204 H 0.14895 0.82003 0.50028 0.0
H4205 H 0.10096 0.80814 0.56183 0.0
H4206 H 0.16062 0.80953 0.54969 0.0
H4207 H 0.11223 0.79676 0.61082 0.0
H4208 H 0.12779 0.75552 0.66879 0.0
H4209 H 0.11809 0.76896 0.62196 0.0
H4210 H 0.1727 0.81605 0.61799 0.0
H4211 H 0.18232 0.80299 0.66703 0.0
C4212 C 0.14093 0.81553 0.52461 0.0
C4213 C 0.12403 0.81562 0.5265 0.0
C4214 C 0.1477 0.80934 0.55329 0.0
C4215 C 0.13766 0.80212 0.5853 0.0
C4216 C 0.12069 0.80216 0.58722 0.0
C4217 C 0.11421 0.80896 0.55891 0.0
C4218 C 0.13795 0.76885 0.65849 0.0
C4219 C 0.15602 0.77798 0.6733 0.0
C4220 C 0.1322 0.77669 0.63116 0.0
C4221 C 0.14429 0.79393 0.61544 0.0
C4222 C 0.16266 0.80283 0.6289 0.0
C4223 C 0.1683 0.79521 0.65733 0.0
H4224 H 0.67613 0.80741 0.19995 0.0
H4225 H 0.64852 0.75407 0.15013 0.0
H4226 H 0.6987 0.81937 0.15098 0.0
H4227 H 0.67149 0.76575 0.10177 0.0
H4228 H 0.72792 0.78665 0.04238 0.0
H4229 H 0.70468 0.7763 0.08926 0.0
H4230 H 0.7056 0.82805 0.08452 0.0
H4231 H 0.72868 0.83832 0.03605 0.0
C4232 C 0.67452 0.79821 0.17817 0.0
C4233 C 0.65969 0.77974 0.17919 0.0
C4234 C 0.68772 0.80514 0.14978 0.0
C4235 C 0.68741 0.79382 0.12127 0.0
C4236 C 0.67262 0.77526 0.12251 0.0
C4237 C 0.65908 0.76848 0.15038 0.0
C4238 C 0.72334 0.79606 0.05095 0.0
C4239 C 0.73064 0.81353 0.03404 0.0
C4240 C 0.70964 0.7899 0.07822 0.0
C4241 C 0.70255 0.80096 0.09148 0.0
C4242 C 0.71032 0.81879 0.07572 0.0
C4243 C 0.72382 0.82483 0.04759 0.0
H4244 H 0.26267 0.95078 0.03962 0.0
H4245 H 0.20872 0.90246 0.03881 0.0
H4246 H 0.27244 0.93725 0.08623 0.0
H4247 H 0.21839 0.88922 0.08737 0.0
H4248 H 0.24118 0.8832 0.20425 0.0
H4249 H 0.22952 0.89413 0.15548 0.0
H4250 H 0.27946 0.91053 0.0967 0.0
H4251 H 0.29074 0.89878 0.14496 0.0
C4252 C 0.25264 0.93726 0.04937 0.0
C4253 C 0.23471 0.92795 0.03394 0.0
C4254 C 0.25844 0.92934 0.0765 0.0
C4255 C 0.24654 0.91178 0.09132 0.0
C4256 C 0.22829 0.90269 0.07723 0.0
C4257 C 0.22261 0.91043 0.04907 0.0
C4258 C 0.24956 0.88862 0.18053 0.0
C4259 C 0.2669 0.8894 0.17904 0.0
C4260 C 0.2428 0.89507 0.15221 0.0
C4261 C 0.25326 0.90342 0.12107 0.0
C4262 C 0.27066 0.90427 0.11961 0.0
C4263 C 0.27717 0.89724 0.14749 0.0
H4264 H 0.16586 0.4065 0.13856 0.0
H4265 H 0.14831 0.36143 0.21189 0.0
H4266 H 0.15603 0.38438 0.08823 0.0
H4267 H 0.13737 0.33953 0.16245 0.0
H4268 H 0.09868 0.30483 0.06514 0.0
H4269 H 0.11131 0.32752 0.11372 0.0
H4270 H 0.16191 0.3583 0.05529 0.0
H4271 H 0.14949 0.33493 1.00722 0.0
C4272 C 0.15994 0.39197 0.14435 0.0
C4273 C 0.15765 0.38616 0.18045 0.0
C4274 C 0.15415 0.37909 0.11512 0.0
C4275 C 0.14542 0.35967 0.12035 0.0
C4276 C 0.14361 0.35406 0.15635 0.0
C4277 C 0.14985 0.36687 0.18522 0.0
C4278 C 0.11269 0.31616 0.06272 0.0
C4279 C 0.123 0.31733 0.03186 0.0
C4280 C 0.12 0.32944 0.09088 0.0
C4281 C 0.13786 0.34524 0.08939 0.0
C4282 C 0.14816 0.34661 0.05823 0.0
C4283 C 0.14105 0.3329 0.03052 0.0
H4284 H 0.82795 0.69842 0.54013 0.0
H4285 H 0.82008 0.73652 0.47651 0.0
H4286 H 0.81729 0.67628 0.49051 0.0
H4287 H 0.80846 0.71389 0.42722 0.0
H4288 H 0.76429 0.65539 0.37277 0.0
H4289 H 0.77824 0.6789 0.41908 0.0
H4290 H 0.82596 0.67239 0.41948 0.0
H4291 H 0.81256 0.64967 0.37039 0.0
C4292 C 0.8243 0.70236 0.51533 0.0
C4293 C 0.8255 0.71985 0.51293 0.0
C4294 C 0.81802 0.68943 0.48655 0.0
C4295 C 0.81187 0.69289 0.45391 0.0
C4296 C 0.81306 0.7104 0.45139 0.0
C4297 C 0.81997 0.72364 0.47985 0.0
C4298 C 0.77788 0.65891 0.38209 0.0
C4299 C 0.78714 0.65035 0.36617 0.0
C4300 C 0.78597 0.67264 0.40919 0.0
C4301 C 0.80351 0.67811 0.42376 0.0
C4302 C 0.81251 0.66894 0.40936 0.0
C4303 C 0.80469 0.65565 0.38097 0.0
H4304 H 0.35288 0.13087 0.54496 0.0
H4305 H 0.30778 0.10351 0.47136 0.0
H4306 H 0.37476 0.14169 0.49572 0.0
H4307 H 0.32999 0.11564 0.42117 0.0
H4308 H 0.3801 0.15886 0.34119 0.0
H4309 H 0.3565 0.1479 0.38877 0.0
H4310 H 0.38657 0.1273 0.44709 0.0
H4311 H 0.40946 0.13734 0.39895 0.0
C4312 C 0.3474 0.12704 0.51826 0.0
C4313 C 0.32808 0.11568 0.51337 0.0
C4314 C 0.36023 0.13349 0.48951 0.0
C4315 C 0.35466 0.12969 0.45349 0.0
C4316 C 0.33524 0.11907 0.4481 0.0
C4317 C 0.3223 0.11208 0.47725 0.0
C4318 C 0.38193 0.15227 0.36438 0.0
C4319 C 0.39736 0.14956 0.3658 0.0
C4320 C 0.36808 0.14566 0.39178 0.0
C4321 C 0.36918 0.1365 0.42273 0.0
C4322 C 0.38485 0.13423 0.42436 0.0
C4323 C 0.39825 0.1402 0.39647 0.0
H4324 H 0.90716 0.2132 0.53574 0.0
H4325 H 0.95867 0.23318 0.48071 0.0
H4326 H 0.89565 0.22444 0.48728 0.0
H4327 H 0.94748 0.24514 0.43276 0.0
H4328 H 0.92976 0.28393 0.3756 0.0
H4329 H 0.93941 0.2702 0.42195 0.0
H4330 H 0.8857 0.22165 0.42062 0.0
H4331 H 0.87612 0.23522 0.37256 0.0
C4332 C 0.91599 0.21961 0.51292 0.0
C4333 C 0.93381 0.22151 0.51242 0.0
C4334 C 0.90933 0.22625 0.48483 0.0
C4335 C 0.92036 0.2359 0.45505 0.0
C4336 C 0.93824 0.23785 0.4546 0.0
C4337 C 0.9447 0.23069 0.48222 0.0
C4338 C 0.91978 0.27027 0.38481 0.0
C4339 C 0.90198 0.26092 0.36894 0.0
C4340 C 0.92551 0.26223 0.41175 0.0
C4341 C 0.91368 0.24445 0.42571 0.0
C4342 C 0.89553 0.2353 0.41115 0.0
C4343 C 0.8899 0.24322 0.38331 0.0
H4344 H 0.08217 0.60349 0.23756 0.0
H4345 H 0.03732 0.57372 0.16454 0.0
H4346 H 0.0601 0.59154 0.28789 0.0
H4347 H 1.01547 0.56277 0.21389 0.0
H4348 H 0.97821 0.56392 0.30734 0.0
H4349 H 1.00095 0.57385 0.25896 0.0
H4350 H 0.03623 0.56281 0.32501 0.0
H4351 H 1.01295 0.55212 0.37309 0.0
C4352 C 0.06771 0.59438 0.23185 0.0
C4353 C 0.06196 0.59009 0.1958 0.0
C4354 C 0.05483 0.58748 0.2611 0.0
C4355 C 0.03544 0.57616 0.25598 0.0
C4356 C 0.02993 0.57159 0.22002 0.0
C4357 C 0.04273 0.57807 0.19116 0.0
C4358 C 0.99058 0.56313 0.31153 0.0
C4359 C 0.99303 0.55648 0.34459 0.0
C4360 C 1.00389 0.56901 0.28344 0.0
C4361 C 1.02095 0.56936 0.28696 0.0
C4362 C 1.02356 0.56295 0.32032 0.0
C4363 C 1.00991 0.55648 0.34811 0.0
H4364 H 0.50087 0.47219 0.36359 0.0
H4365 H 0.47852 0.42082 0.30685 0.0
H4366 H 0.49024 0.48484 0.31564 0.0
H4367 H 0.46888 0.4337 0.25818 0.0
H4368 H 0.47196 0.47039 0.1598 0.0
H4369 H 0.4831 0.45951 0.20889 0.0
H4370 H 0.45825 0.47941 0.284 0.0
H4371 H 0.44587 0.48929 0.23412 0.0
C4372 C 0.4942 0.46367 0.34051 0.0
C4373 C 0.49108 0.44538 0.33954 0.0
C4374 C 0.48778 0.47092 0.31289 0.0
C4375 C 0.47848 0.46051 0.2821 0.0
C4376 C 0.47591 0.44245 0.28081 0.0
C4377 C 0.48165 0.43499 0.30897 0.0
C4378 C 0.46848 0.4723 0.18663 0.0
C4379 C 0.45731 0.48045 0.19183 0.0
C4380 C 0.4751 0.46606 0.21526 0.0
C4381 C 0.47167 0.46817 0.25137 0.0
C4382 C 0.46135 0.47727 0.257 0.0
C4383 C 0.45421 0.48309 0.22803 0.0
H4384 H 0.62803 0.05252 0.33124 0.0
H4385 H 0.57729 0.0535 0.33892 0.0
H4386 H 0.61485 0.02921 0.28426 0.0
H4387 H 0.56431 0.03059 0.29014 0.0
H4388 H 0.55657 1.00231 0.17249 0.0
H4389 H 0.56743 0.02479 0.2217 0.0
H4390 H 0.5904 0.99504 0.27324 0.0
H4391 H 0.57868 0.97204 0.22474 0.0
C4392 C 0.61402 0.04796 0.32299 0.0
C4393 C 0.60396 0.05528 0.34044 0.0
C4394 C 0.60632 0.03426 0.29562 0.0
C4395 C 0.58817 0.0273 0.28261 0.0
C4396 C 0.57826 0.03518 0.29877 0.0
C4397 C 0.58584 0.04859 0.32709 0.0
C4398 C 0.56343 1.00012 0.19478 0.0
C4399 C 0.56596 0.98456 0.19429 0.0
C4400 C 0.56986 1.01328 0.22333 0.0
C4401 C 0.57999 1.01223 0.2526 0.0
C4402 C 0.58269 0.99674 0.25192 0.0
C4403 C 0.57568 0.9832 0.22393 0.0
H4404 H 0.48155 0.987 0.69893 0.0
H4405 H 0.43074 0.98753 0.71092 0.0
H4406 H 0.49518 1.01 0.74757 0.0
H4407 H 0.4447 1.01128 0.75679 0.0
H4408 H 0.48287 0.06954 0.81318 0.0
H4409 H 0.47112 0.04664 0.76444 0.0
H4410 H 0.49077 1.01473 0.81893 0.0
H4411 H 0.50169 0.03714 0.86828 0.0
C4412 C 0.47315 0.99191 0.71145 0.0
C4413 C 0.45482 0.98512 0.69917 0.0
C4414 C 0.48111 1.00539 0.73966 0.0
C4415 C 0.47142 1.01329 0.75663 0.0
C4416 C 0.45309 1.00625 0.7447 0.0
C4417 C 0.445 0.99241 0.71766 0.0
C4418 C 0.48518 0.05794 0.8146 0.0
C4419 C 0.49396 0.05594 0.84515 0.0
C4420 C 0.47815 0.04447 0.78644 0.0
C4421 C 0.4799 0.02841 0.78654 0.0
C4422 C 0.48916 0.02673 0.81666 0.0
C4423 C 0.49562 0.03985 0.8453 0.0
H4424 H 0.07893 0.47549 0.73567 0.0
H4425 H 0.04387 0.48658 0.66936 0.0
H4426 H 0.05623 0.46576 0.78419 0.0
H4427 H 1.02058 0.4759 0.71738 0.0
H4428 H 0.9752 0.4341 0.80532 0.0
H4429 H 0.99724 0.44597 0.75494 0.0
H4430 H 0.04133 0.47817 0.82808 0.0
H4431 H 1.01942 0.46727 0.87747 0.0
C4432 C 0.06648 0.47611 0.73135 0.0
C4433 C 0.06387 0.48246 0.69812 0.0
C4434 C 0.0532 0.47034 0.75948 0.0
C4435 C 0.03606 0.46977 0.75568 0.0
C4436 C 0.03332 0.47592 0.72219 0.0
C4437 C 0.04695 0.48236 0.69445 0.0
C4438 C 0.98951 0.44395 0.8108 0.0
C4439 C 0.99515 0.44924 0.84661 0.0
C4440 C 1.00236 0.4508 0.78155 0.0
C4441 C 1.02159 0.46305 0.78654 0.0
C4442 C 1.02697 0.46864 0.82221 0.0
C4443 C 1.01417 0.46221 0.85104 0.0
H4444 H 0.54152 0.56833 0.70803 0.0
H4445 H 0.59687 0.61441 0.70498 0.0
H4446 H 0.55068 0.55466 0.75669 0.0
H4447 H 0.60612 0.60025 0.75119 0.0
H4448 H 0.62161 0.55981 0.81141 0.0
H4449 H 0.61072 0.57161 0.7625 0.0
H4450 H 0.5632 0.56084 0.82461 0.0
H4451 H 0.57449 0.54988 0.87388 0.0
C4452 C 0.55564 0.57568 0.71733 0.0
C4453 C 0.56828 0.5927 0.70106 0.0
C4454 C 0.56101 0.56768 0.74555 0.0
C4455 C 0.57946 0.57594 0.75849 0.0
C4456 C 0.59192 0.59298 0.74243 0.0
C4457 C 0.58644 0.60122 0.71538 0.0
C4458 C 0.60862 0.55951 0.81459 0.0
C4459 C 0.59896 0.55331 0.8473 0.0
C4460 C 0.60235 0.56656 0.78629 0.0
C4461 C 0.58577 0.56734 0.7885 0.0
C4462 C 0.57583 0.5605 0.82076 0.0
C4463 C 0.58239 0.55404 0.84939 0.0
H4464 H 0.21014 0.25066 0.31467 0.0
H4465 H 0.25699 0.25743 0.3739 0.0
H4466 H 0.21937 0.23793 0.26422 0.0
H4467 H 0.26606 0.24485 0.32443 0.0
H4468 H 0.27521 0.21 0.23762 0.0
H4469 H 0.26346 0.22022 0.28773 0.0
H4470 H 0.23994 0.24188 0.21379 0.0
H4471 H 0.25215 0.23208 0.16399 0.0
C4472 C 0.22228 0.24935 0.31759 0.0
C4473 C 0.23252 0.25539 0.3499 0.0
C4474 C 0.22783 0.24203 0.28796 0.0
C4475 C 0.24378 0.23991 0.28872 0.0
C4476 C 0.25365 0.24567 0.32135 0.0
C4477 C 0.24833 0.25318 0.35044 0.0
C4478 C 0.26719 0.21654 0.23167 0.0
C4479 C 0.26451 0.21949 0.1954 0.0
C4480 C 0.26051 0.2228 0.26101 0.0
C4481 C 0.25037 0.23225 0.25641 0.0
C4482 C 0.24732 0.23471 0.22002 0.0
C4483 C 0.2544 0.22888 0.1908 0.0
H4484 H 0.79611 0.04987 0.20067 0.0
H4485 H 0.84795 0.05108 0.19279 0.0
H4486 H 0.78683 0.02837 0.24923 0.0
H4487 H 0.8384 0.02899 0.24325 0.0
H4488 H 0.80668 0.97581 0.32487 0.0
H4489 H 0.81926 0.99767 0.27421 0.0
H4490 H 0.78789 0.02276 0.3087 0.0
H4491 H 0.77586 1.00159 0.35821 0.0
C4492 C 0.80589 0.04577 0.20907 0.0
C4493 C 0.82317 0.0531 0.19107 0.0
C4494 C 0.80039 0.03311 0.23814 0.0
C4495 C 0.81155 0.02631 0.25227 0.0
C4496 C 0.82892 0.03337 0.2343 0.0
C4497 C 0.83461 0.04642 0.20488 0.0
C4498 C 0.80234 0.98591 0.3218 0.0
C4499 C 0.78958 0.98605 0.3469 0.0
C4500 C 0.80975 0.99878 0.29219 0.0
C4501 C 0.80471 1.01251 0.28528 0.0
C4502 C 0.79221 1.01261 0.31085 0.0
C4503 C 0.78511 1.00009 0.34024 0.0
H4504 H 0.98578 0.80178 0.21045 0.0
H4505 H 1.00693 0.7657 0.18474 0.0
H4506 H 1.00787 0.81432 0.261 0.0
H4507 H 1.02842 0.77805 0.23292 0.0
H4508 H 0.05591 0.78694 0.33896 0.0
H4509 H 0.03424 0.77814 0.29093 0.0
H4510 H 0.03878 0.83157 0.29382 0.0
H4511 H 0.06094 0.84042 0.34418 0.0
C4512 C 0.99494 0.79637 0.21499 0.0
C4513 C 0.99366 0.78212 0.19213 0.0
C4514 C 1.00792 0.80373 0.24453 0.0
C4515 C 1.0204 0.79728 0.25326 0.0
C4516 C 1.01921 0.78347 0.22962 0.0
C4517 C 1.0065 0.77626 0.20071 0.0
C4518 C 0.05257 0.7971 0.33 0.0
C4519 C 0.06093 0.81457 0.34713 0.0
C4520 C 0.03987 0.79197 0.30118 0.0
C4521 C 0.03418 0.80385 0.28624 0.0
C4522 C 0.0423 0.82154 0.30336 0.0
C4523 C 0.05535 0.82679 0.33271 0.0
H4524 H 0.84941 0.80713 0.69671 0.0
H4525 H 0.79623 0.7581 0.7015 0.0
H4526 H 0.84019 0.82018 0.74704 0.0
H4527 H 0.78721 0.77072 0.74998 0.0
H4528 H 0.77561 0.78609 0.85796 0.0
H4529 H 0.78794 0.77685 0.80936 0.0
H4530 H 0.82183 0.83349 0.77801 0.0
H4531 H 0.80908 0.84307 0.82823 0.0
C4532 C 0.8358 0.7989 0.70808 0.0
C4533 C 0.82384 0.78104 0.69354 0.0
C4534 C 0.83033 0.80656 0.73744 0.0
C4535 C 0.81267 0.79679 0.75455 0.0
C4536 C 0.80101 0.7791 0.73961 0.0
C4537 C 0.80632 0.77167 0.71064 0.0
C4538 C 0.78563 0.79698 0.84113 0.0
C4539 C 0.7907 0.81565 0.84853 0.0
C4540 C 0.79284 0.79144 0.81211 0.0
C4541 C 0.80601 0.804 0.78751 0.0
C4542 C 0.81177 0.8229 0.79526 0.0
C4543 C 0.80431 0.82854 0.82467 0.0
H4544 H 0.20369 0.9771 0.8306 0.0
H4545 H 0.26106 0.998 0.85393 0.0
H4546 H 0.2129 0.99936 0.78043 0.0
H4547 H 0.26989 0.01937 0.80523 0.0
H4548 H 0.2858 0.04366 0.69467 0.0
H4549 H 0.27315 0.02231 0.74361 0.0
H4550 H 0.22833 0.03317 0.75182 0.0
H4551 H 0.24155 0.05533 0.70142 0.0
C4552 C 0.21822 0.98622 0.82562 0.0
C4553 C 0.23131 0.98483 0.84781 0.0
C4554 C 0.22364 0.99931 0.79629 0.0
C4555 C 0.2425 1.01171 0.78683 0.0
C4556 C 0.25528 1.01034 0.80957 0.0
C4557 C 0.24998 0.99768 0.8386 0.0
C4558 C 0.27336 0.04195 0.70651 0.0
C4559 C 0.26541 0.05217 0.69257 0.0
C4560 C 0.26591 0.02936 0.73561 0.0
C4561 C 0.24949 0.02544 0.75374 0.0
C4562 C 0.24097 0.03529 0.7397 0.0
C4563 C 0.24875 0.04836 0.71031 0.0
H4564 H 0.98779 0.19637 0.70967 0.0
H4565 H 1.00948 0.25338 0.6838 0.0
H4566 H 1.00976 0.20579 0.76033 0.0
H4567 H 0.03048 0.26269 0.73324 0.0
H4568 H 0.05653 0.28002 0.8421 0.0
H4569 H 0.03485 0.26738 0.79379 0.0
H4570 H 0.04216 0.2201 0.78969 0.0
H4571 H 0.06444 0.23306 0.8398 0.0
C4572 C 0.99695 0.21092 0.71442 0.0
C4573 C 0.99593 0.22394 0.69142 0.0
C4574 C 1.00988 0.21647 0.74398 0.0
C4575 C 1.02239 0.23537 0.75289 0.0
C4576 C 1.0213 0.24806 0.72947 0.0
C4577 C 1.00883 0.24256 0.70012 0.0
C4578 C 0.0539 0.2669 0.83145 0.0
C4579 C 0.06314 0.25809 0.84641 0.0
C4580 C 0.04112 0.2595 0.80261 0.0
C4581 C 0.03618 0.24244 0.7858 0.0
C4582 C 0.04509 0.23322 0.80086 0.0
C4583 C 0.05823 0.24084 0.83004 0.0
H4584 H 0.87734 0.58467 0.64807 0.0
H4585 H 0.9236 0.59036 0.70796 0.0
H4586 H 0.88646 0.57183 0.59762 0.0
H4587 H 0.93238 0.57737 0.6586 0.0
H4588 H 0.93987 0.54121 0.57127 0.0
H4589 H 0.92825 0.55159 0.62149 0.0
H4590 H 0.90824 0.57678 0.54785 0.0
H4591 H 0.92034 0.56688 0.49806 0.0
C4592 C 0.88928 0.58302 0.65118 0.0
C4593 C 0.89937 0.58877 0.68367 0.0
C4594 C 0.89475 0.57564 0.62156 0.0
C4595 C 0.91044 0.57309 0.62258 0.0
C4596 C 0.92017 0.57854 0.6554 0.0
C4597 C 0.91499 0.58622 0.68441 0.0
C4598 C 0.93264 0.54858 0.56538 0.0
C4599 C 0.93092 0.5525 0.5292 0.0
C4600 C 0.92605 0.55491 0.59478 0.0
C4601 C 0.91693 0.56537 0.59026 0.0
C4602 C 0.9148 0.56879 0.55395 0.0
C4603 C 0.92182 0.56291 0.52474 0.0
H4604 H 0.46213 0.38088 0.53404 0.0
H4605 H 0.51574 0.38583 0.5309 0.0
H4606 H 0.45328 0.3596 0.58325 0.0
H4607 H 0.50647 0.36364 0.58107 0.0
H4608 H 0.47451 0.30885 0.66096 0.0
H4609 H 0.48689 0.33073 0.61014 0.0
H4610 H 0.45537 0.35557 0.64471 0.0
H4611 H 0.44363 0.33455 0.69452 0.0
C4612 C 0.47239 0.37769 0.54361 0.0
C4613 C 0.49009 0.38613 0.52694 0.0
C4614 C 0.4671 0.36508 0.57288 0.0
C4615 C 0.47883 0.35923 0.58815 0.0
C4616 C 0.49656 0.36727 0.57127 0.0
C4617 C 0.50207 0.38039 0.54198 0.0
C4618 C 0.47012 0.31892 0.65798 0.0
C4619 C 0.45738 0.319 0.68326 0.0
C4620 C 0.4774 0.3318 0.62824 0.0
C4621 C 0.47223 0.34545 0.62128 0.0
C4622 C 0.45977 0.34548 0.64696 0.0
C4623 C 0.45284 0.33302 0.6765 0.0
H4624 H 0.68564 0.12746 0.49595 0.0
H4625 H 0.6402 0.10825 0.56879 0.0
H4626 H 0.70743 0.1394 0.5461 0.0
H4627 H 0.66193 0.11941 0.61922 0.0
H4628 H 0.70512 0.12296 0.70566 0.0
H4629 H 0.68372 0.11423 0.65564 0.0
H4630 H 0.7236 0.16169 0.59745 0.0
H4631 H 0.74509 0.1708 0.64853 0.0
C4632 C 0.68008 0.12607 0.52256 0.0
C4633 C 0.66055 0.11714 0.52675 0.0
C4634 C 0.69286 0.13292 0.55201 0.0
C4635 C 0.68716 0.1307 0.58831 0.0
C4636 C 0.66759 0.12171 0.59255 0.0
C4637 C 0.65481 0.11537 0.56297 0.0
C4638 C 0.70955 0.13191 0.6826 0.0
C4639 C 0.72742 0.14798 0.68287 0.0
C4640 C 0.69691 0.12676 0.6532 0.0
C4641 C 0.70117 0.13698 0.62095 0.0
C4642 C 0.71915 0.15303 0.62089 0.0
C4643 C 0.73172 0.15847 0.65088 0.0
H4644 H 0.4818 0.17367 0.17564 0.0
H4645 H 0.43322 0.11989 0.17448 0.0
H4646 H 0.49444 0.16403 0.12537 0.0
H4647 H 0.44549 0.11061 0.12558 0.0
H4648 H 0.46031 0.10015 1.01445 0.0
H4649 H 0.4511 0.11223 0.06414 0.0
H4650 H 0.50762 0.1444 0.09732 0.0
H4651 H 0.51696 0.13171 0.04679 0.0
C4652 C 0.47359 0.15987 0.16503 0.0
C4653 C 0.45601 0.14792 0.18054 0.0
C4654 C 0.48102 0.15416 0.13576 0.0
C4655 C 0.47124 0.13626 0.11963 0.0
C4656 C 0.45382 0.12455 0.13542 0.0
C4657 C 0.44663 0.13007 0.16453 0.0
C4658 C 0.47105 0.10958 0.0322 0.0
C4659 C 0.4896 0.11426 0.02532 0.0
C4660 C 0.46559 0.1167 0.06158 0.0
C4661 C 0.47822 0.12944 0.08671 0.0
C4662 C 0.49701 0.1347 0.07956 0.0
C4663 C 0.5025 0.12724 0.05005 0.0
H4664 H 0.92927 0.3277 0.17995 0.0
H4665 H 0.87328 0.31629 0.1725 0.0
H4666 H 0.93818 0.34905 0.13149 0.0
H4667 H 0.88248 0.33823 0.12185 0.0
H4668 H 0.911 0.39113 0.03827 0.0
H4669 H 0.89845 0.36933 0.08924 0.0
H4670 H 0.94046 0.35482 0.07262 0.0
H4671 H 0.95254 0.37608 0.02393 0.0
C4672 C 0.91848 0.32945 0.16813 0.0
C4673 C 0.90018 0.31935 0.18196 0.0
C4674 C 0.9238 0.34207 0.13901 0.0
C4675 C 0.9114 0.34598 0.12043 0.0
C4676 C 0.89296 0.33617 0.13428 0.0
C4677 C 0.8875 0.32322 0.16389 0.0
C4678 C 0.91772 0.38343 0.04552 0.0
C4679 C 0.93338 0.38616 0.02536 0.0
C4680 C 0.91032 0.37055 0.07527 0.0
C4681 C 0.9182 0.35972 0.08724 0.0
C4682 C 0.93365 0.36258 0.06664 0.0
C4683 C 0.94078 0.3751 0.03738 0.0
H4684 H 0.73177 0.56654 0.17119 0.0
H4685 H 0.72106 0.61164 0.17938 0.0
H4686 H 0.70973 0.55407 0.12055 0.0
H4687 H 0.69985 0.59957 0.13032 0.0
H4688 H 0.67603 0.5876 1.01825 0.0
H4689 H 0.6971 0.59647 0.06803 0.0
H4690 H 0.67637 0.53937 0.09325 0.0
H4691 H 0.6544 0.53037 0.04287 0.0
C4692 C 0.72496 0.57397 0.16271 0.0
C4693 C 0.72899 0.59055 0.18089 0.0
C4694 C 0.71201 0.56667 0.1332 0.0
C4695 C 0.70253 0.57563 0.11961 0.0
C4696 C 0.7066 0.59199 0.13814 0.0
C4697 C 0.71911 0.59903 0.16737 0.0
C4698 C 0.67544 0.57665 0.03431 0.0
C4699 C 0.66253 0.55803 0.02541 0.0
C4700 C 0.68791 0.58189 0.06367 0.0
C4701 C 0.68896 0.56896 0.08655 0.0
C4702 C 0.67648 0.55016 0.07727 0.0
C4703 C 0.66356 0.54487 0.04789 0.0
H4704 H 0.57424 0.86358 0.86386 0.0
H4705 H 0.62211 0.91786 0.86386 0.0
H4706 H 0.5615 0.87308 0.91433 0.0
H4707 H 0.60982 0.92693 0.91293 0.0
H4708 H 0.59586 0.93719 0.02484 0.0
H4709 H 0.60478 0.92537 0.97464 0.0
H4710 H 0.54797 0.89276 0.94352 0.0
H4711 H 0.53898 0.90558 0.99458 0.0
C4712 C 0.58227 0.87747 0.87417 0.0
C4713 C 0.59972 0.88958 0.85819 0.0
C4714 C 0.57479 0.88309 0.90363 0.0
C4715 C 0.58437 0.90108 0.9196 0.0
C4716 C 0.60162 0.91293 0.9033 0.0
C4717 C 0.60883 0.90751 0.87402 0.0
C4718 C 0.585 0.92782 1.00744 0.0
C4719 C 0.56653 0.9232 1.01518 0.0
C4720 C 0.59027 0.92073 0.97772 0.0
C4721 C 0.57749 0.90787 0.95295 0.0
C4722 C 0.55872 0.90255 0.96092 0.0
C4723 C 0.55343 0.91008 0.99079 0.0
H4724 H 0.11259 0.67013 0.03028 0.0
H4725 H 0.13805 0.63994 0.99117 0.0
H4726 H 0.12452 0.69092 0.98019 0.0
H4727 H 0.15046 0.66144 0.93978 0.0
H4728 H 0.18044 0.71599 0.85916 0.0
H4729 H 0.17132 0.694 0.90969 0.0
H4730 H 0.12039 0.69442 0.91939 0.0
H4731 H 0.12919 0.71576 0.87036 0.0
C4732 C 0.12057 0.66753 1.01091 0.0
C4733 C 0.12356 0.65238 1.01617 0.0
C4734 C 0.12756 0.67981 0.98121 0.0
C4735 C 0.13842 0.67833 0.95378 0.0
C4736 C 0.14216 0.66357 0.95926 0.0
C4737 C 0.13488 0.65094 0.9893 0.0
C4738 C 0.1673 0.71154 0.87199 0.0
C4739 C 0.15588 0.71845 0.85911 0.0
C4740 C 0.16188 0.69856 0.90144 0.0
C4741 C 0.14485 0.69186 0.92043 0.0
C4742 C 0.13369 0.69887 0.90727 0.0
C4743 C 0.1389 0.71144 0.87805 0.0
H4744 H 0.41038 0.50357 0.9819 0.0
H4745 H 0.37107 0.45525 0.03867 0.0
H4746 H 0.38846 0.49454 0.93152 0.0
H4747 H 0.34946 0.4465 0.98962 0.0
H4748 H 0.30521 0.43546 0.90379 0.0
H4749 H 0.32709 0.44721 0.95368 0.0
H4750 H 0.37187 0.47588 0.87987 0.0
H4751 H 0.34987 0.4638 0.83014 0.0
C4752 C 0.3971 0.49115 0.98435 0.0
C4753 C 0.39314 0.48047 1.01604 0.0
C4754 C 0.38426 0.48571 0.95471 0.0
C4755 C 0.36638 0.46942 0.95481 0.0
C4756 C 0.3625 0.45915 0.98689 0.0
C4757 C 0.37532 0.46434 1.01587 0.0
C4758 C 0.31963 0.44466 0.89784 0.0
C4759 C 0.32507 0.44883 0.86157 0.0
C4760 C 0.33258 0.45135 0.92708 0.0
C4761 C 0.35207 0.46289 0.92254 0.0
C4762 C 0.3574 0.46738 0.8862 0.0
C4763 C 0.34447 0.46039 0.85697 0.0
H4764 H 0.12367 0.45908 0.53931 0.0
H4765 H 0.12918 0.50488 0.47826 0.0
H4766 H 0.1361 0.44964 0.48973 0.0
H4767 H 0.14124 0.49502 0.42763 0.0
H4768 H 0.14214 0.45823 0.32888 0.0
H4769 H 0.13346 0.47106 0.37915 0.0
H4770 H 0.16243 0.45431 0.45049 0.0
H4771 H 0.17196 0.44226 0.39946 0.0
C4772 C 0.12775 0.4675 0.51552 0.0
C4773 C 0.12539 0.48324 0.51454 0.0
C4774 C 0.13502 0.4619 0.48638 0.0
C4775 C 0.14004 0.47122 0.45313 0.0
C4776 C 0.13771 0.48704 0.45192 0.0
C4777 C 0.13085 0.49297 0.48167 0.0
C4778 C 0.14727 0.45766 0.35501 0.0
C4779 C 0.1585 0.44939 0.3585 0.0
C4780 C 0.14206 0.46509 0.38455 0.0
C4781 C 0.14697 0.46415 0.42042 0.0
C4782 C 0.15808 0.45568 0.42411 0.0
C4783 C 0.16385 0.44879 0.39422 0.0
H4784 H 0.61195 0.70186 0.34552 0.0
H4785 H 0.58267 0.729 0.38058 0.0
H4786 H 0.60025 0.68105 0.39556 0.0
H4787 H 0.57038 0.7074 0.43181 0.0
H4788 H 0.54171 0.65327 0.51303 0.0
H4789 H 0.55075 0.67521 0.46238 0.0
H4790 H 0.60285 0.67697 0.45602 0.0
H4791 H 0.59411 0.65568 0.50494 0.0
C4792 C 0.60311 0.70375 0.36395 0.0
C4793 C 0.59898 0.71806 0.35758 0.0
C4794 C 0.59622 0.69143 0.39364 0.0
C4795 C 0.58427 0.692 0.41987 0.0
C4796 C 0.57948 0.70595 0.41328 0.0
C4797 C 0.5867 0.71864 0.38332 0.0
C4798 C 0.55509 0.65819 0.5009 0.0
C4799 C 0.56684 0.65188 0.51468 0.0
C4800 C 0.56046 0.67114 0.47136 0.0
C4801 C 0.5778 0.67843 0.45321 0.0
C4802 C 0.5893 0.67203 0.46734 0.0
C4803 C 0.58411 0.65948 0.49657 0.0
H4804 H 0.3857 0.94113 0.51617 0.0
H4805 H 0.40318 0.90155 0.49635 0.0
H4806 H 0.36426 0.92897 0.46787 0.0
H4807 H 0.38101 0.88906 0.44585 0.0
H4808 H 0.32677 0.86334 0.36498 0.0
H4809 H 0.349 0.87237 0.41518 0.0
H4810 H 0.35893 0.92788 0.40835 0.0
H4811 H 0.33725 0.91892 0.36011 0.0
C4812 C 0.38532 0.92979 0.50161 0.0
C4813 C 0.39716 0.92292 0.51193 0.0
C4814 C 0.37261 0.92267 0.47262 0.0
C4815 C 0.3703 0.90783 0.4507 0.0
C4816 C 0.38181 0.90045 0.46101 0.0
C4817 C 0.39488 0.9078 0.49049 0.0
C4818 C 0.33354 0.87747 0.37425 0.0
C4819 C 0.32946 0.8902 0.35698 0.0
C4820 C 0.34667 0.88283 0.40349 0.0
C4821 C 0.35638 0.90117 0.41784 0.0
C4822 C 0.35212 0.91358 0.40024 0.0
C4823 C 0.33938 0.90833 0.37133 0.0
H4824 H 0.34901 0.35839 0.17405 0.0
H4825 H 0.30258 0.31642 0.1145 0.0
H4826 H 0.3433 0.38152 0.14854 0.0
H4827 H 0.29584 0.33919 0.0929 0.0
H4828 H 0.33216 0.38047 1.00186 0.0
H4829 H 0.3148 0.35699 0.04529 0.0
H4830 H 0.32955 0.39878 0.12653 0.0
H4831 H 0.34704 0.42246 0.08223 0.0
C4832 C 0.33726 0.35388 0.15659 0.0
C4833 C 0.32719 0.33551 0.14469 0.0
C4834 C 0.33365 0.3672 0.14258 0.0
C4835 C 0.31958 0.36226 0.11716 0.0
C4836 C 0.30723 0.34351 0.1113 0.0
C4837 C 0.31116 0.3303 0.12423 0.0
C4838 C 0.33072 0.38475 0.02836 0.0
C4839 C 0.34153 0.40314 0.0391 0.0
C4840 C 0.32074 0.37122 0.05364 0.0
C4841 C 0.32151 0.37597 0.08994 0.0
C4842 C 0.32922 0.39466 0.09904 0.0
C4843 C 0.33913 0.40823 0.07361 0.0
H4844 H 0.63717 0.96492 0.11237 0.0
H4845 H 0.65788 0.94478 0.02798 0.0
H4846 H 0.65777 0.96319 0.15345 0.0
H4847 H 0.68086 0.94625 0.06836 0.0
H4848 H 0.73259 0.97332 0.10664 0.0
H4849 H 0.70082 0.94867 0.11416 0.0
H4850 H 0.68636 0.98874 0.15127 0.0
H4851 H 0.71728 1.01282 0.14306 0.0
C4852 C 0.64555 0.95954 0.10217 0.0
C4853 C 0.64632 0.95609 0.06548 0.0
C4854 C 0.65777 0.95881 0.12625 0.0
C4855 C 0.67208 0.95621 0.11379 0.0
C4856 C 0.6706 0.94922 0.07897 0.0
C4857 C 0.65765 0.94894 0.05519 0.0
C4858 C 0.72265 0.97668 0.11753 0.0
C4859 C 0.72712 0.99517 0.12156 0.0
C4860 C 0.70445 0.96253 0.12207 0.0
C4861 C 0.69068 0.96685 0.13037 0.0
C4862 C 0.69626 0.98473 0.14319 0.0
C4863 C 0.71432 0.99884 0.13839 0.0
H4864 H 0.04629 0.70309 0.16114 0.0
H4865 H 0.04868 0.74635 0.09527 0.0
H4866 H 0.07775 0.71263 0.14597 0.0
H4867 H 0.08068 0.7566 0.08116 0.0
H4868 H 0.08284 0.71511 0.9983 0.0
H4869 H 0.08084 0.73694 0.03676 0.0
H4870 H 0.10708 0.72351 0.12141 0.0
H4871 H 0.10904 0.70134 0.08211 0.0
C4872 C 0.0539 0.71526 0.14478 0.0
C4873 C 0.04476 0.72313 0.12731 0.0
C4874 C 0.07217 0.72099 0.13627 0.0
C4875 C 0.08124 0.73439 0.1096 0.0
C4876 C 0.07363 0.74542 0.09998 0.0
C4877 C 0.05523 0.73955 0.10813 0.0
C4878 C 0.08908 0.71745 0.02444 0.0
C4879 C 0.09511 0.70578 0.03788 0.0
C4880 C 0.08803 0.73017 0.04686 0.0
C4881 C 0.09264 0.7311 0.08325 0.0
C4882 C 0.10252 0.72244 0.09408 0.0
C4883 C 0.10355 0.70965 0.07162 0.0
H4884 H 0.40081 0.31155 0.42883 0.0
H4885 H 0.38078 0.34342 0.48307 0.0
H4886 H 0.37085 0.28392 0.43564 0.0
H4887 H 0.35082 0.31656 0.48822 0.0
H4888 H 0.3008 0.29023 0.44184 0.0
H4889 H 0.32329 0.29108 0.48164 0.0
H4890 H 0.34981 0.27996 0.39391 0.0
H4891 H 0.32584 0.27646 0.35468 0.0
C4892 C 0.39025 0.31241 0.44403 0.0
C4893 C 0.39258 0.32966 0.45354 0.0
C4894 C 0.37292 0.29663 0.44738 0.0
C4895 C 0.35781 0.29833 0.45886 0.0
C4896 C 0.36167 0.31464 0.47717 0.0
C4897 C 0.37908 0.33029 0.47449 0.0
C4898 C 0.31082 0.2872 0.43048 0.0
C4899 C 0.3122 0.28504 0.39336 0.0
C4900 C 0.32406 0.28788 0.45394 0.0
C4901 C 0.33951 0.2874 0.44081 0.0
C4902 C 0.33876 0.28143 0.40535 0.0
C4903 C 0.32508 0.27995 0.38213 0.0
H4904 H 0.73953 0.04202 0.34894 0.0
H4905 H 0.76808 0.02588 0.42361 0.0
H4906 H 0.73889 0.0629 0.39319 0.0
H4907 H 0.76638 0.04617 0.46886 0.0
H4908 H 0.74382 0.10287 0.4563 0.0
H4909 H 0.76611 0.09252 0.44991 0.0
H4910 H 0.72458 0.03761 0.47974 0.0
H4911 H 0.70195 0.04728 0.48308 0.0
C4912 C 0.74645 0.04357 0.37414 0.0
C4913 C 0.75372 0.03223 0.38287 0.0
C4914 C 0.74604 0.05548 0.39955 0.0
C4915 C 0.75275 0.05615 0.43417 0.0
C4916 C 0.76137 0.04599 0.4422 0.0
C4917 C 0.76219 0.03435 0.41639 0.0
C4918 C 0.7396 0.08875 0.46316 0.0
C4919 C 0.7208 0.0755 0.46658 0.0
C4920 C 0.75253 0.08295 0.46017 0.0
C4921 C 0.74662 0.0641 0.46224 0.0
C4922 C 0.72924 0.05217 0.47691 0.0
C4923 C 0.71614 0.05778 0.47859 0.0
H4924 H 1.01795 0.75548 0.41092 0.0
H4925 H 1.00228 0.71161 0.33443 0.0
H4926 H 0.99875 0.73307 0.45584 0.0
H4927 H 0.98292 0.6895 0.37814 0.0
H4928 H 0.97009 0.65012 0.44861 0.0
H4929 H 0.96358 0.673 0.42655 0.0
H4930 H 1.01179 0.71539 0.48026 0.0
H4931 H 1.01731 0.69222 0.50617 0.0
C4932 C 1.00963 0.74117 0.40316 0.0
C4933 C 1.01249 0.73509 0.36999 0.0
C4934 C 0.99862 0.72833 0.4289 0.0
C4935 C 0.99015 0.70941 0.42127 0.0
C4936 C 0.98958 0.70393 0.38551 0.0
C4937 C 1.00077 0.71671 0.36003 0.0
C4938 C 0.97888 0.66407 0.45786 0.0
C4939 C 0.99508 0.66927 0.47773 0.0
C4940 C 0.97505 0.67732 0.44474 0.0
C4941 C 0.98774 0.69607 0.44971 0.0
C4942 C 1.00191 0.70105 0.4749 0.0
C4943 C 1.00542 0.68771 0.48911 0.0
H4944 H 0.69086 0.6585 0.9684 0.0
H4945 H 0.72597 0.63493 0.98068 0.0
H4946 H 0.71183 0.68023 0.9258 0.0
H4947 H 0.74775 0.6572 0.93698 0.0
H4948 H 0.78258 0.7237 0.94186 0.0
H4949 H 0.7689 0.69061 0.93929 0.0
H4950 H 0.7274 0.68741 0.8676 0.0
H4951 H 0.73916 0.71987 0.87401 0.0
C4952 C 0.70319 0.65801 0.96156 0.0
C4953 C 0.70709 0.64542 0.97808 0.0
C4954 C 0.71509 0.67019 0.9364 0.0
C4955 C 0.73143 0.67026 0.92708 0.0
C4956 C 0.73521 0.65735 0.94328 0.0
C4957 C 0.72302 0.6449 0.96862 0.0
C4958 C 0.77036 0.71604 0.92579 0.0
C4959 C 0.75988 0.72398 0.91401 0.0
C4960 C 0.76291 0.69698 0.92318 0.0
C4961 C 0.74566 0.68635 0.90697 0.0
C4962 C 0.73981 0.69532 0.88321 0.0
C4963 C 0.74652 0.71417 0.88754 0.0
H4964 H 0.34346 0.02447 0.89224 0.0
H4965 H 0.32633 0.06388 0.91824 0.0
H4966 H 0.37533 0.04863 0.89527 0.0
H4967 H 0.35847 0.08788 0.92357 0.0
H4968 H 0.42899 0.0902 0.94653 0.0
H4969 H 0.40665 0.08775 0.9018 0.0
H4970 H 0.3642 0.06711 0.98233 0.0
H4971 H 0.38588 0.06799 0.02608 0.0
C4972 C 0.34637 0.03849 0.89619 0.0
C4973 C 0.33255 0.04212 0.90785 0.0
C4974 C 0.36477 0.05245 0.89782 0.0
C4975 C 0.36917 0.06974 0.9118 0.0
C4976 C 0.35532 0.07445 0.91369 0.0
C4977 C 0.33689 0.06061 0.91102 0.0
C4978 C 0.41495 0.08554 0.95483 0.0
C4979 C 0.40902 0.0787 0.9896 0.0
C4980 C 0.40232 0.08443 0.9293 0.0
C4981 C 0.38385 0.07741 0.93878 0.0
C4982 C 0.37853 0.07297 0.97461 0.0
C4983 C 0.39096 0.07347 0.99977 0.0
H4984 H 0.95272 0.31481 1.00712 0.0
H4985 H 0.97313 0.35572 0.92305 0.0
H4986 H 0.95414 0.29319 0.96662 0.0
H4987 H 0.97215 0.33341 0.88221 0.0
H4988 H 1.02136 0.32236 0.89848 0.0
H4989 H 0.99844 0.33071 0.89041 0.0
H4990 H 0.95589 0.2755 0.91786 0.0
H4991 H 0.9793 0.26655 0.92409 0.0
C4992 C 0.95696 0.31917 0.97997 0.0
C4993 C 0.96437 0.33771 0.96987 0.0
C4994 C 0.95722 0.30646 0.95617 0.0
C4995 C 0.96453 0.31202 0.92167 0.0
C4996 C 0.96738 0.32901 0.90919 0.0
C4997 C 0.96786 0.34195 0.9332 0.0
C4998 C 1.00716 0.31149 0.90095 0.0
C4999 C 1.00239 0.29405 0.91464 0.0
C5000 C 0.99372 0.31637 0.89615 0.0
C5001 C 0.97533 0.30408 0.90592 0.0
C5002 C 0.97009 0.28554 0.91189 0.0
C5003 C 0.98358 0.28051 0.91598 0.0
H5004 H 0.75568 0.76083 0.61642 0.0
H5005 H 0.71919 0.7411 0.70736 0.0
H5006 H 0.73155 0.76129 0.58161 0.0
H5007 H 0.69563 0.74183 0.67369 0.0
H5008 H 0.65128 0.70611 0.62361 0.0
H5009 H 0.6735 0.73812 0.63704 0.0
H5010 H 0.70879 0.73777 0.55317 0.0
H5011 H 0.68595 0.7067 0.53825 0.0
C5012 C 0.74263 0.75684 0.62926 0.0
C5013 C 0.73896 0.74949 0.66398 0.0
C5014 C 0.72871 0.75717 0.60924 0.0
C5015 C 0.71077 0.74977 0.62337 0.0
C5016 C 0.7087 0.74661 0.66046 0.0
C5017 C 0.7225 0.74619 0.68035 0.0
C5018 C 0.6633 0.71335 0.60668 0.0
C5019 C 0.66767 0.70371 0.58159 0.0
C5020 C 0.67632 0.73165 0.61481 0.0
C5021 C 0.69415 0.73965 0.59976 0.0
C5022 C 0.69598 0.73175 0.56785 0.0
C5023 C 0.68275 0.71373 0.55893 0.0
H5024 H 0.34002 0.96025 0.59301 0.0
H5025 H 0.34213 1.00539 0.53287 0.0
H5026 H 0.31056 0.95285 0.61627 0.0
H5027 H 0.31339 0.99908 0.55997 0.0
H5028 H 0.27975 1.00519 0.62974 0.0
H5029 H 0.2831 0.98557 0.58584 0.0
H5030 H 0.31267 0.9723 0.66365 0.0
H5031 H 0.30963 0.99192 0.70648 0.0
C5032 C 0.33419 0.96839 0.58347 0.0
C5033 C 0.34436 0.98432 0.56237 0.0
C5034 C 0.31706 0.96405 0.59732 0.0
C5035 C 0.31013 0.97599 0.59189 0.0
C5036 C 0.31852 0.98979 0.56572 0.0
C5037 C 0.3354 0.99377 0.55079 0.0
C5038 C 0.28614 0.99728 0.63786 0.0
C5039 C 0.29546 1.00091 0.67067 0.0
C5040 C 0.28806 0.98605 0.61267 0.0
C5041 C 0.29912 0.97827 0.62045 0.0
C5042 C 0.30446 0.97843 0.65613 0.0
C5043 C 0.3027 0.98977 0.6811 0.0
H5044 H 0.1136 0.38754 0.59025 0.0
H5045 H 0.0584 0.37571 0.56437 0.0
H5046 H 0.10315 0.35471 0.58703 0.0
H5047 H 0.04864 0.34402 0.55901 0.0
H5048 H 1.02178 0.29531 0.59581 0.0
H5049 H 0.04437 0.31461 0.55357 0.0
H5050 H 0.08514 0.33683 0.63721 0.0
H5051 H 0.06316 0.31468 0.67874 0.0
C5052 C 0.09945 0.37816 0.58271 0.0
C5053 C 0.08653 0.38421 0.58059 0.0
C5054 C 0.09356 0.35936 0.58035 0.0
C5055 C 0.0748 0.34658 0.57515 0.0
C5056 C 0.06312 0.35324 0.5643 0.0
C5057 C 0.06884 0.37184 0.56748 0.0
C5058 C 0.03576 0.30293 0.60519 0.0
C5059 C 0.04023 0.30355 0.64163 0.0
C5060 C 0.04884 0.31444 0.58057 0.0
C5061 C 0.06618 0.32818 0.59237 0.0
C5062 C 0.07167 0.32681 0.62719 0.0
C5063 C 0.05882 0.31442 0.65152 0.0
H5064 H 0.96581 0.60954 0.76026 0.0
H5065 H 1.00198 0.62432 0.66887 0.0
H5066 H 0.99028 0.61164 0.79778 0.0
H5067 H 1.0256 0.62559 0.70519 0.0
H5068 H 0.07116 0.66189 0.75175 0.0
H5069 H 0.04747 0.62985 0.7432 0.0
H5070 H 1.01359 0.63681 0.82181 0.0
H5071 H 0.03789 0.66788 0.83222 0.0
C5072 C 0.97884 0.61307 0.74787 0.0
C5073 C 0.98228 0.61842 0.71178 0.0
C5074 C 0.99293 0.6141 0.76952 0.0
C5075 C 1.01074 0.62053 0.75551 0.0
C5076 C 1.01261 0.6216 0.7181 0.0
C5077 C 0.99871 0.62085 0.69664 0.0
C5078 C 0.05914 0.65606 0.76888 0.0
C5079 C 0.0557 0.66749 0.79103 0.0
C5080 C 0.04526 0.63777 0.76345 0.0
C5081 C 1.02758 0.63147 0.77819 0.0
C5082 C 1.02637 0.64136 0.8076 0.0
C5083 C 0.04047 0.65937 0.81396 0.0
H5084 H 0.43745 0.36342 0.76053 0.0
H5085 H 0.40932 0.3785 0.68283 0.0
H5086 H 0.4347 0.38362 0.80451 0.0
H5087 H 0.40774 0.39939 0.72584 0.0
H5088 H 0.3689 0.38261 0.8132 0.0
H5089 H 0.39168 0.37333 0.80982 0.0
H5090 H 0.43355 0.42906 0.78625 0.0
H5091 H 0.41112 0.43917 0.7938 0.0
C5092 C 0.43149 0.3717 0.75236 0.0
C5093 C 0.4233 0.36919 0.71845 0.0
C5094 C 0.43008 0.3833 0.77744 0.0
C5095 C 0.4212 0.39306 0.76825 0.0
C5096 C 0.41504 0.39224 0.73311 0.0
C5097 C 0.41599 0.38032 0.70842 0.0
C5098 C 0.38307 0.39336 0.80986 0.0
C5099 C 0.38783 0.41142 0.79986 0.0
C5100 C 0.39628 0.38793 0.80825 0.0
C5101 C 0.41396 0.40033 0.79551 0.0
C5102 C 0.41975 0.41915 0.79493 0.0
C5103 C 0.4067 0.42479 0.79828 0.0
H5104 H 0.65743 0.06707 0.71551 0.0
H5105 H 0.7013 0.06277 0.76651 0.0
H5106 H 0.63531 0.04381 0.75612 0.0
H5107 H 0.6801 0.04015 0.80577 0.0
H5108 H 0.65343 0.98878 0.8268 0.0
H5109 H 0.65904 0.01922 0.84035 0.0
H5110 H 0.61993 1.0135 0.75953 0.0
H5111 H 0.61171 0.98187 0.75094 0.0
C5112 C 0.66236 0.06133 0.73559 0.0
C5113 C 0.68104 0.06643 0.73694 0.0
C5114 C 0.6497 0.04796 0.75906 0.0
C5115 C 0.65543 0.03901 0.78352 0.0
C5116 C 0.67453 0.04607 0.78752 0.0
C5117 C 0.68703 0.05931 0.76441 0.0
C5118 C 0.64525 0.99349 0.81296 0.0
C5119 C 0.63375 0.98363 0.78416 0.0
C5120 C 0.64877 1.01131 0.82036 0.0
C5121 C 0.64236 0.0199 0.79666 0.0
C5122 C 0.62684 1.00821 0.77587 0.0
C5123 C 0.62232 0.98995 0.77026 0.0
H5124 H 0.39342 0.04425 0.22862 0.0
H5125 H 0.44749 0.05701 0.26493 0.0
H5126 H 0.38535 1.01316 0.21903 0.0
H5127 H 0.43902 0.02493 0.25604 0.0
H5128 H 0.3995 0.98103 0.3396 0.0
H5129 H 0.42121 1.00436 0.30001 0.0
H5130 H 0.38043 0.98413 0.21617 0.0
H5131 H 0.358 0.963 0.25692 0.0
C5132 C 0.40403 0.04073 0.23317 0.0
C5133 C 0.42061 0.0529 0.25047 0.0
C5134 C 0.39933 0.0225 0.22753 0.0
C5135 C 0.41095 1.01603 0.23993 0.0
C5136 C 0.42922 0.02919 0.24865 0.0
C5137 C 0.43404 0.04759 0.254 0.0
C5138 C 0.39503 0.98151 0.31281 0.0
C5139 C 0.37641 0.97085 0.30295 0.0
C5140 C 0.40777 0.99469 0.28943 0.0
C5141 C 0.4022 0.99711 0.2554 0.0
C5142 C 0.3849 0.98348 0.24292 0.0
C5143 C 0.37192 0.97096 0.26669 0.0
H5144 H 1.01648 0.36742 0.2097 0.0
H5145 H 0.98774 0.38222 0.28603 0.0
H5146 H 0.04294 0.39766 0.21384 0.0
H5147 H 1.01381 0.41338 0.28865 0.0
H5148 H 0.06012 0.42313 0.36375 0.0
H5149 H 0.03665 0.42077 0.32539 0.0
H5150 H 0.06819 0.42126 0.23378 0.0
H5151 H 0.09105 0.42194 0.27213 0.0
C5152 C 1.01541 0.37768 0.22556 0.0
C5153 C 1.00071 0.3723 0.2493 0.0
C5154 C 0.03084 0.39524 0.22851 0.0
C5155 C 0.03156 0.40742 0.25544 0.0
C5156 C 1.0146 0.40372 0.27059 0.0
C5157 C 0.99932 0.38595 0.26838 0.0
C5158 C 0.06214 0.42222 0.33561 0.0
C5159 C 0.07657 0.41987 0.32222 0.0
C5160 C 0.04854 0.42133 0.31291 0.0
C5161 C 0.04918 0.4185 0.27599 0.0
C5162 C 0.06602 0.42132 0.26218 0.0
C5163 C 0.0794 0.42168 0.28489 0.0
H5164 H 0.6478 0.662 0.36155 0.0
H5165 H 0.62123 0.67994 0.28594 0.0
H5166 H 0.64938 0.642 0.31638 0.0
H5167 H 0.62422 0.66087 0.23968 0.0
H5168 H 0.64818 0.60495 0.24925 0.0
H5169 H 0.62506 0.61418 0.25643 0.0
H5170 H 0.66579 0.67025 0.23193 0.0
H5171 H 0.68917 0.66154 0.22753 0.0
C5172 C 0.64152 0.66104 0.33585 0.0
C5173 C 0.63469 0.67275 0.32711 0.0
C5174 C 0.64247 0.64964 0.3099 0.0
C5175 C 0.63683 0.64994 0.27474 0.0
C5176 C 0.62844 0.66032 0.26669 0.0
C5177 C 0.62694 0.6713 0.29305 0.0
C5178 C 0.65203 0.6191 0.24356 0.0
C5179 C 0.67072 0.63281 0.24112 0.0
C5180 C 0.63866 0.62429 0.24711 0.0
C5181 C 0.64403 0.64303 0.24666 0.0
C5182 C 0.66151 0.65573 0.23335 0.0
C5183 C 0.67502 0.65068 0.231 0.0
loop_
_geom_bond_atom_site_label_1
_geom_bond_atom_site_label_2
_geom_bond_distance
_geom_bond_site_symmetry_2
_ccdc_geom_bond_type
C0 C2 1.422 . S
C0 C4 1.415 . S
C0 N6 1.369 . S
C1 C2 1.424 . S
C1 C3 1.418 . S
C1 C13 1.419 1_554 S
C2 C0 1.422 . S
C2 C1 1.424 . S
C2 N12 1.359 . S
C3 C1 1.418 . S
C3 C5 1.329 . S
C3 H22 0.930 1_554 S
C4 C0 1.415 . S
C4 C5 1.437 . S
C4 C8 1.413 . S
C5 C3 1.329 . S
C5 C4 1.437 . S
C5 H27 0.929 . S
N6 C0 1.369 . S
N6 C7 1.338 . S
N6 Gd11 2.622 . S
C7 N6 1.338 . S
C7 C9 1.378 . S
C7 H19 0.929 . S
C8 C4 1.413 . S
C8 C9 1.348 . S
C8 H24 0.931 . S
C9 C7 1.378 . S
C9 C8 1.348 . S
C9 H25 0.930 . S
Gd10 N30 2.622 . S
Gd10 N37 2.570 . S
Gd10 O44 2.353 . S
Gd10 O45 2.468 . S
Gd10 O46 2.427 . S
Gd10 O48 2.388 . S
Gd10 O49 2.386 . S
Gd10 O53 2.307 . S
Gd10 C63 2.805 . S
Gd11 N6 2.622 . S
Gd11 N12 2.570 . S
Gd11 O43 2.386 . S
Gd11 O47 2.307 . S
Gd11 O50 2.353 . S
Gd11 O51 2.468 . S
Gd11 O52 2.427 . S
Gd11 O54 2.388 . S
Gd11 C75 2.805 . S
N12 C2 1.359 . S
N12 Gd11 2.570 . S
N12 C14 1.343 1_554 S
C13 C1 1.419 1_556 S
C13 C15 1.321 . S
C13 H21 0.931 . S
C14 N12 1.343 1_556 S
C14 C15 1.390 . S
C14 H16 0.931 . S
C15 C13 1.321 . S
C15 C14 1.390 . S
C15 H17 0.930 . S
H16 C14 0.931 . S
H17 C15 0.930 . S
H18 C41 0.931 . S
H19 C7 0.929 . S
H20 C42 0.930 . S
H21 C13 0.931 . S
H22 C3 0.930 1_556 S
H23 C32 0.929 . S
H24 C8 0.931 . S
H25 C9 0.930 . S
H26 C64 0.930 . S
H27 C5 0.929 . S
H28 C33 0.931 . S
H29 C34 0.930 . S
N30 Gd10 2.622 . S
N30 C31 1.369 . S
N30 C32 1.338 . S
C31 N30 1.369 . S
C31 C35 1.415 . S
C31 C38 1.422 . S
C32 H23 0.929 . S
C32 N30 1.338 . S
C32 C34 1.378 . S
C33 H28 0.931 . S
C33 C34 1.348 . S
C33 C35 1.413 . S
C34 H29 0.930 . S
C34 C32 1.378 . S
C34 C33 1.348 . S
C35 C31 1.415 . S
C35 C33 1.413 . S
C35 C65 1.437 . S
H36 C65 0.929 . S
N37 Gd10 2.570 . S
N37 C38 1.359 . S
N37 C41 1.343 . S
C38 C31 1.422 . S
C38 N37 1.359 . S
C38 C40 1.421 . S
C39 C40 1.422 . S
C39 C42 1.321 . S
C39 H66 0.931 . S
C40 C38 1.421 . S
C40 C39 1.422 . S
C40 C64 1.417 . S
C41 H18 0.931 . S
C41 N37 1.343 . S
C41 C42 1.390 . S
C42 H20 0.930 . S
C42 C39 1.321 . S
C42 C41 1.390 . S
O43 Gd11 2.386 . S
O43 C55 1.265 . S
O44 Gd10 2.353 . S
O44 C55 1.242 . S
O45 Gd10 2.468 . S
O45 C63 1.263 . S
O46 Gd10 2.427 . S
O46 C63 1.252 . S
O47 Gd11 2.307 . S
O47 C56 1.261 . S
O48 Gd10 2.388 . S
O48 C56 1.252 . S
O49 Gd10 2.386 . S
O49 C67 1.265 . S
O50 Gd11 2.353 . S
O50 C67 1.242 . S
O51 Gd11 2.468 . S
O51 C75 1.263 . S
O52 Gd11 2.427 . S
O52 C75 1.252 . S
O53 Gd10 2.307 . S
O53 C68 1.261 . S
O54 Gd11 2.388 . S
O54 C68 1.252 . S
C55 O43 1.265 . S
C55 O44 1.242 . S
C56 O47 1.261 . S
C56 O48 1.252 . S
C57 C60 1.394 . S
C57 C62 1.370 . S
C57 C63 1.500 . S
C58 C61 1.383 . S
C58 C62 1.395 . S
C59 C60 1.396 . S
C59 C61 1.365 . S
C59 H76 0.929 . S
C60 C57 1.394 . S
C60 C59 1.396 . S
C60 H77 0.930 . S
C61 C58 1.383 . S
C61 C59 1.365 . S
C61 H78 0.931 . S
C62 C57 1.370 . S
C62 C58 1.395 . S
C62 H79 0.930 . S
C63 Gd10 2.805 . S
C63 O45 1.263 . S
C63 O46 1.252 . S
C63 C57 1.500 . S
C64 H26 0.930 . S
C64 C40 1.417 . S
C64 C65 1.329 . S
C65 C35 1.437 . S
C65 H36 0.929 . S
C65 C64 1.329 . S
H66 C39 0.931 . S
C67 O49 1.265 . S
C67 O50 1.242 . S
C68 O53 1.261 . S
C68 O54 1.252 . S
C69 C72 1.394 . S
C69 C74 1.370 . S
C69 C75 1.500 . S
C70 C73 1.383 . S
C70 C74 1.395 . S
C71 C72 1.396 . S
C71 C73 1.365 . S
C71 H80 0.929 . S
C72 C69 1.394 . S
C72 C71 1.396 . S
C72 H81 0.930 . S
C73 C70 1.383 . S
C73 C71 1.365 . S
C73 H82 0.931 . S
C74 C69 1.370 . S
C74 C70 1.395 . S
C74 H83 0.930 . S
C75 Gd11 2.805 . S
C75 O51 1.263 . S
C75 O52 1.252 . S
C75 C69 1.500 . S
H76 C59 0.929 . S
H77 C60 0.930 . S
H78 C61 0.931 . S
H79 C62 0.930 . S
H80 C71 0.929 . S
H81 C72 0.930 . S
H82 C73 0.931 . S
H83 C74 0.930 . S
C84 C86 1.422 . S
C84 C88 1.415 . S
C84 N90 1.369 . S
C85 C86 1.424 . S
C85 C87 1.418 . S
C85 C97 1.419 1_554 S
C86 C84 1.422 . S
C86 C85 1.424 . S
C86 N96 1.359 . S
C87 C85 1.418 . S
C87 C89 1.329 . S
C87 H106 0.930 1_554 S
C88 C84 1.415 . S
C88 C89 1.437 . S
C88 C92 1.413 . S
C89 C87 1.329 . S
C89 C88 1.437 . S
C89 H111 0.929 . S
N90 C84 1.369 . S
N90 C91 1.338 . S
N90 Gd95 2.622 . S
C91 N90 1.338 . S
C91 C93 1.378 . S
C91 H103 0.929 . S
C92 C88 1.413 . S
C92 C93 1.348 . S
C92 H108 0.931 . S
C93 C91 1.378 . S
C93 C92 1.348 . S
C93 H109 0.930 . S
Gd94 N114 2.622 . S
Gd94 N121 2.570 . S
Gd94 O128 2.353 . S
Gd94 O129 2.468 . S
Gd94 O130 2.427 . S
Gd94 O132 2.388 . S
Gd94 O133 2.386 . S
Gd94 O137 2.307 . S
Gd94 C147 2.805 . S
Gd95 N90 2.622 . S
Gd95 N96 2.570 . S
Gd95 O127 2.386 . S
Gd95 O131 2.307 . S
Gd95 O134 2.353 . S
Gd95 O135 2.468 . S
Gd95 O136 2.427 . S
Gd95 O138 2.388 . S
Gd95 C159 2.805 . S
N96 C86 1.359 . S
N96 Gd95 2.570 . S
N96 C98 1.343 1_554 S
C97 C85 1.419 1_556 S
C97 C99 1.321 . S
C97 H105 0.931 . S
C98 N96 1.343 1_556 S
C98 C99 1.390 . S
C98 H100 0.931 . S
C99 C97 1.321 . S
C99 C98 1.390 . S
C99 H101 0.930 . S
H100 C98 0.931 . S
H101 C99 0.930 . S
H102 C125 0.931 . S
H103 C91 0.929 . S
H104 C126 0.930 . S
H105 C97 0.931 . S
H106 C87 0.930 1_556 S
H107 C116 0.929 . S
H108 C92 0.931 . S
H109 C93 0.930 . S
H110 C148 0.930 . S
H111 C89 0.929 . S
H112 C117 0.931 . S
H113 C118 0.930 . S
N114 Gd94 2.622 . S
N114 C115 1.369 . S
N114 C116 1.338 . S
C115 N114 1.369 . S
C115 C119 1.415 . S
C115 C122 1.422 . S
C116 H107 0.929 . S
C116 N114 1.338 . S
C116 C118 1.378 . S
C117 H112 0.931 . S
C117 C118 1.348 . S
C117 C119 1.413 . S
C118 H113 0.930 . S
C118 C116 1.378 . S
C118 C117 1.348 . S
C119 C115 1.415 . S
C119 C117 1.413 . S
C119 C149 1.437 . S
H120 C149 0.929 . S
N121 Gd94 2.570 . S
N121 C122 1.359 . S
N121 C125 1.343 . S
C122 C115 1.422 . S
C122 N121 1.359 . S
C122 C124 1.421 . S
C123 C124 1.422 . S
C123 C126 1.321 . S
C123 H150 0.931 . S
C124 C122 1.421 . S
C124 C123 1.422 . S
C124 C148 1.417 . S
C125 H102 0.931 . S
C125 N121 1.343 . S
C125 C126 1.390 . S
C126 H104 0.930 . S
C126 C123 1.321 . S
C126 C125 1.390 . S
O127 Gd95 2.386 . S
O127 C139 1.265 . S
O128 Gd94 2.353 . S
O128 C139 1.242 . S
O129 Gd94 2.468 . S
O129 C147 1.263 . S
O130 Gd94 2.427 . S
O130 C147 1.252 . S
O131 Gd95 2.307 . S
O131 C140 1.261 . S
O132 Gd94 2.388 . S
O132 C140 1.252 . S
O133 Gd94 2.386 . S
O133 C151 1.265 . S
O134 Gd95 2.353 . S
O134 C151 1.242 . S
O135 Gd95 2.468 . S
O135 C159 1.263 . S
O136 Gd95 2.427 . S
O136 C159 1.252 . S
O137 Gd94 2.307 . S
O137 C152 1.261 . S
O138 Gd95 2.388 . S
O138 C152 1.252 . S
C139 O127 1.265 . S
C139 O128 1.242 . S
C140 O131 1.261 . S
C140 O132 1.252 . S
C141 C144 1.394 . S
C141 C146 1.370 . S
C141 C147 1.500 . S
C142 C145 1.383 . S
C142 C146 1.395 . S
C143 C144 1.396 . S
C143 C145 1.365 . S
C143 H160 0.929 . S
C144 C141 1.394 . S
C144 C143 1.396 . S
C144 H161 0.930 . S
C145 C142 1.383 . S
C145 C143 1.365 . S
C145 H162 0.931 1_545 S
C146 C141 1.370 . S
C146 C142 1.395 . S
C146 H163 0.930 . S
C147 Gd94 2.805 . S
C147 O129 1.263 . S
C147 O130 1.252 . S
C147 C141 1.500 . S
C148 H110 0.930 . S
C148 C124 1.417 . S
C148 C149 1.329 . S
C149 C119 1.437 . S
C149 H120 0.929 . S
C149 C148 1.329 . S
H150 C123 0.931 . S
C151 O133 1.265 . S
C151 O134 1.242 . S
C152 O137 1.261 . S
C152 O138 1.252 . S
C153 C156 1.394 . S
C153 C158 1.370 . S
C153 C159 1.500 . S
C154 C157 1.383 . S
C154 C158 1.395 . S
C155 C156 1.396 . S
C155 C157 1.365 . S
C155 H164 0.929 . S
C156 C153 1.394 . S
C156 C155 1.396 . S
C156 H165 0.930 . S
C157 C154 1.383 . S
C157 C155 1.365 . S
C157 H166 0.931 . S
C158 C153 1.370 . S
C158 C154 1.395 . S
C158 H167 0.930 . S
C159 Gd95 2.805 . S
C159 O135 1.263 . S
C159 O136 1.252 . S
C159 C153 1.500 . S
H160 C143 0.929 . S
H161 C144 0.930 . S
H162 C145 0.931 1_565 S
H163 C146 0.930 . S
H164 C155 0.929 . S
H165 C156 0.930 . S
H166 C157 0.931 . S
H167 C158 0.930 . S
C168 C170 1.422 . S
C168 C172 1.415 . S
C168 N174 1.369 . S
C169 C170 1.424 . S
C169 C171 1.418 . S
C169 C181 1.418 1_554 S
C170 C168 1.422 . S
C170 C169 1.424 . S
C170 N180 1.359 . S
C171 C169 1.418 . S
C171 C173 1.329 . S
C171 H190 0.930 1_554 S
C172 C168 1.415 . S
C172 C173 1.437 . S
C172 C176 1.413 . S
C173 C171 1.329 . S
C173 C172 1.437 . S
C173 H195 0.929 . S
N174 C168 1.369 . S
N174 C175 1.338 . S
N174 Gd179 2.622 . S
C175 N174 1.338 . S
C175 C177 1.378 . S
C175 H187 0.929 . S
C176 C172 1.413 . S
C176 C177 1.348 . S
C176 H192 0.931 . S
C177 C175 1.378 . S
C177 C176 1.348 . S
C177 H193 0.930 . S
Gd178 N198 2.622 . S
Gd178 N205 2.570 . S
Gd178 O212 2.353 . S
Gd178 O213 2.468 . S
Gd178 O214 2.427 . S
Gd178 O216 2.388 . S
Gd178 O217 2.386 . S
Gd178 O221 2.307 . S
Gd178 C231 2.805 . S
Gd179 N174 2.622 . S
Gd179 N180 2.570 . S
Gd179 O211 2.386 . S
Gd179 O215 2.307 . S
Gd179 O218 2.353 . S
Gd179 O219 2.468 . S
Gd179 O220 2.427 . S
Gd179 O222 2.388 . S
Gd179 C243 2.805 . S
N180 C170 1.359 . S
N180 Gd179 2.570 . S
N180 C182 1.343 1_554 S
C181 C169 1.418 1_556 S
C181 C183 1.321 . S
C181 H189 0.931 . S
C182 N180 1.343 1_556 S
C182 C183 1.390 . S
C182 H184 0.931 . S
C183 C181 1.321 . S
C183 C182 1.390 . S
C183 H185 0.930 . S
H184 C182 0.931 . S
H185 C183 0.930 . S
H186 C209 0.931 . S
H187 C175 0.929 . S
H188 C210 0.930 . S
H189 C181 0.931 . S
H190 C171 0.930 1_556 S
H191 C200 0.929 . S
H192 C176 0.931 . S
H193 C177 0.930 . S
H194 C232 0.930 . S
H195 C173 0.929 . S
H196 C201 0.931 . S
H197 C202 0.930 . S
N198 Gd178 2.622 . S
N198 C199 1.369 . S
N198 C200 1.338 . S
C199 N198 1.369 . S
C199 C203 1.415 . S
C199 C206 1.422 . S
C200 H191 0.929 . S
C200 N198 1.338 . S
C200 C202 1.378 . S
C201 H196 0.931 . S
C201 C202 1.348 . S
C201 C203 1.413 . S
C202 H197 0.930 . S
C202 C200 1.378 . S
C202 C201 1.348 . S
C203 C199 1.415 . S
C203 C201 1.413 . S
C203 C233 1.437 . S
H204 C233 0.929 . S
N205 Gd178 2.570 . S
N205 C206 1.359 . S
N205 C209 1.343 . S
C206 C199 1.422 . S
C206 N205 1.359 . S
C206 C208 1.421 . S
C207 C208 1.422 . S
C207 C210 1.321 . S
C207 H234 0.931 . S
C208 C206 1.421 . S
C208 C207 1.422 . S
C208 C232 1.417 . S
C209 H186 0.931 . S
C209 N205 1.343 . S
C209 C210 1.390 . S
C210 H188 0.930 . S
C210 C207 1.321 . S
C210 C209 1.390 . S
O211 Gd179 2.386 . S
O211 C223 1.265 . S
O212 Gd178 2.353 . S
O212 C223 1.242 . S
O213 Gd178 2.468 . S
O213 C231 1.263 . S
O214 Gd178 2.427 . S
O214 C231 1.252 . S
O215 Gd179 2.307 . S
O215 C224 1.261 . S
O216 Gd178 2.388 . S
O216 C224 1.252 . S
O217 Gd178 2.386 . S
O217 C235 1.265 . S
O218 Gd179 2.353 . S
O218 C235 1.242 . S
O219 Gd179 2.468 . S
O219 C243 1.263 . S
O220 Gd179 2.427 . S
O220 C243 1.252 . S
O221 Gd178 2.307 . S
O221 C236 1.261 . S
O222 Gd179 2.388 . S
O222 C236 1.252 . S
C223 O211 1.265 . S
C223 O212 1.242 . S
C224 O215 1.261 . S
C224 O216 1.252 . S
C225 C228 1.394 . S
C225 C230 1.370 . S
C225 C231 1.500 . S
C226 C229 1.383 . S
C226 C230 1.395 . S
C227 C228 1.396 . S
C227 C229 1.365 . S
C227 H244 0.929 . S
C228 C225 1.394 . S
C228 C227 1.396 . S
C228 H245 0.930 . S
C229 C226 1.383 . S
C229 C227 1.365 . S
C229 H246 0.931 1_655 S
C230 C225 1.370 . S
C230 C226 1.395 . S
C230 H247 0.930 . S
C231 Gd178 2.805 . S
C231 O213 1.263 . S
C231 O214 1.252 . S
C231 C225 1.500 . S
C232 H194 0.930 . S
C232 C208 1.417 . S
C232 C233 1.329 . S
C233 C203 1.437 . S
C233 H204 0.929 . S
C233 C232 1.329 . S
H234 C207 0.931 . S
C235 O217 1.265 . S
C235 O218 1.242 . S
C236 O221 1.261 . S
C236 O222 1.252 . S
C237 C240 1.394 . S
C237 C242 1.370 . S
C237 C243 1.500 . S
C238 C241 1.383 . S
C238 C242 1.395 . S
C239 C240 1.396 . S
C239 C241 1.365 . S
C239 H248 0.929 . S
C240 C237 1.394 . S
C240 C239 1.396 . S
C240 H249 0.930 . S
C241 C238 1.383 . S
C241 C239 1.365 . S
C241 H250 0.931 . S
C242 C237 1.370 . S
C242 C238 1.395 . S
C242 H251 0.930 . S
C243 Gd179 2.805 . S
C243 O219 1.263 . S
C243 O220 1.252 . S
C243 C237 1.500 . S
H244 C227 0.929 . S
H245 C228 0.930 . S
H246 C229 0.931 1_455 S
H247 C230 0.930 . S
H248 C239 0.929 . S
H249 C240 0.930 . S
H250 C241 0.931 . S
H251 C242 0.930 . S
C252 C254 1.422 . S
C252 C256 1.415 . S
C252 N258 1.369 . S
C253 C254 1.421 . S
C253 C255 1.417 . S
C253 C265 1.422 . S
C254 C252 1.422 . S
C254 C253 1.421 . S
C254 N264 1.359 . S
C255 C253 1.417 . S
C255 C257 1.329 . S
C255 H274 0.930 . S
C256 C252 1.415 . S
C256 C257 1.437 . S
C256 C260 1.413 . S
C257 C255 1.329 . S
C257 C256 1.437 . S
C257 H279 0.929 . S
N258 C252 1.369 . S
N258 C259 1.338 . S
N258 Gd263 2.622 . S
C259 N258 1.338 . S
C259 C261 1.378 . S
C259 H271 0.929 . S
C260 C256 1.413 . S
C260 C261 1.348 . S
C260 H276 0.931 . S
C261 C259 1.378 . S
C261 C260 1.348 . S
C261 H277 0.930 . S
Gd262 N282 2.622 . S
Gd262 N289 2.570 . S
Gd262 O296 2.353 . S
Gd262 O297 2.468 . S
Gd262 O298 2.427 . S
Gd262 O300 2.388 . S
Gd262 O301 2.386 . S
Gd262 O305 2.307 . S
Gd262 C315 2.805 . S
Gd263 N258 2.622 . S
Gd263 N264 2.570 . S
Gd263 O295 2.386 . S
Gd263 O299 2.307 . S
Gd263 O302 2.353 . S
Gd263 O303 2.468 . S
Gd263 O304 2.427 . S
Gd263 O306 2.388 . S
Gd263 C327 2.805 . S
N264 C254 1.359 . S
N264 Gd263 2.570 . S
N264 C266 1.343 . S
C265 C253 1.422 . S
C265 C267 1.321 . S
C265 H273 0.931 . S
C266 N264 1.343 . S
C266 C267 1.390 . S
C266 H268 0.931 . S
C267 C265 1.321 . S
C267 C266 1.390 . S
C267 H269 0.930 . S
H268 C266 0.931 . S
H269 C267 0.930 . S
H270 C293 0.931 . S
H271 C259 0.929 . S
H272 C294 0.930 . S
H273 C265 0.931 . S
H274 C255 0.930 . S
H275 C284 0.929 . S
H276 C260 0.931 . S
H277 C261 0.930 . S
H278 C316 0.930 . S
H279 C257 0.929 . S
H280 C285 0.931 . S
H281 C286 0.930 . S
N282 Gd262 2.622 . S
N282 C283 1.369 . S
N282 C284 1.338 . S
C283 N282 1.369 . S
C283 C287 1.415 . S
C283 C290 1.422 . S
C284 H275 0.929 . S
C284 N282 1.338 . S
C284 C286 1.378 . S
C285 H280 0.931 . S
C285 C286 1.348 . S
C285 C287 1.413 . S
C286 H281 0.930 . S
C286 C284 1.378 . S
C286 C285 1.348 . S
C287 C283 1.415 . S
C287 C285 1.413 . S
C287 C317 1.437 . S
H288 C317 0.929 . S
N289 Gd262 2.570 . S
N289 C290 1.359 . S
N289 C293 1.343 . S
C290 C283 1.422 . S
C290 N289 1.359 . S
C290 C292 1.421 . S
C291 C292 1.422 . S
C291 C294 1.321 . S
C291 H318 0.931 . S
C292 C290 1.421 . S
C292 C291 1.422 . S
C292 C316 1.417 . S
C293 H270 0.931 . S
C293 N289 1.343 . S
C293 C294 1.390 . S
C294 H272 0.930 . S
C294 C291 1.321 . S
C294 C293 1.390 . S
O295 Gd263 2.386 . S
O295 C307 1.265 . S
O296 Gd262 2.353 . S
O296 C307 1.242 . S
O297 Gd262 2.468 . S
O297 C315 1.263 . S
O298 Gd262 2.427 . S
O298 C315 1.252 . S
O299 Gd263 2.307 . S
O299 C308 1.261 . S
O300 Gd262 2.388 . S
O300 C308 1.252 . S
O301 Gd262 2.386 . S
O301 C319 1.265 . S
O302 Gd263 2.353 . S
O302 C319 1.242 . S
O303 Gd263 2.468 . S
O303 C327 1.263 . S
O304 Gd263 2.427 . S
O304 C327 1.252 . S
O305 Gd262 2.307 . S
O305 C320 1.261 . S
O306 Gd263 2.388 . S
O306 C320 1.252 . S
C307 O295 1.265 . S
C307 O296 1.242 . S
C308 O299 1.261 . S
C308 O300 1.252 . S
C309 C312 1.394 . S
C309 C314 1.370 . S
C309 C315 1.500 . S
C310 C313 1.383 . S
C310 C314 1.395 . S
C311 C312 1.396 . S
C311 C313 1.365 . S
C311 H328 0.929 . S
C312 C309 1.394 . S
C312 C311 1.396 . S
C312 H329 0.930 . S
C313 C310 1.383 . S
C313 C311 1.365 . S
C313 H330 0.931 . S
C314 C309 1.370 . S
C314 C310 1.395 . S
C314 H331 0.930 . S
C315 Gd262 2.805 . S
C315 O297 1.263 . S
C315 O298 1.252 . S
C315 C309 1.500 . S
C316 H278 0.930 . S
C316 C292 1.417 . S
C316 C317 1.329 . S
C317 C287 1.437 . S
C317 H288 0.929 . S
C317 C316 1.329 . S
H318 C291 0.931 . S
C319 O301 1.265 . S
C319 O302 1.242 . S
C320 O305 1.261 . S
C320 O306 1.252 . S
C321 C324 1.394 . S
C321 C326 1.370 . S
C321 C327 1.500 . S
C322 C325 1.383 . S
C322 C326 1.395 . S
C323 C324 1.396 . S
C323 C325 1.365 . S
C323 H332 0.929 . S
C324 C321 1.394 . S
C324 C323 1.396 . S
C324 H333 0.930 . S
C325 C322 1.383 . S
C325 C323 1.365 . S
C325 H334 0.931 . S
C326 C321 1.370 . S
C326 C322 1.395 . S
C326 H335 0.930 . S
C327 Gd263 2.805 . S
C327 O303 1.263 . S
C327 O304 1.252 . S
C327 C321 1.500 . S
H328 C311 0.929 . S
H329 C312 0.930 . S
H330 C313 0.931 . S
H331 C314 0.930 . S
H332 C323 0.929 . S
H333 C324 0.930 . S
H334 C325 0.931 . S
H335 C326 0.930 . S
C336 C338 1.422 . S
C336 C340 1.415 . S
C336 N342 1.369 . S
C337 C338 1.421 . S
C337 C339 1.417 . S
C337 C349 1.422 . S
C338 C336 1.422 . S
C338 C337 1.421 . S
C338 N348 1.359 . S
C339 C337 1.417 . S
C339 C341 1.329 . S
C339 H358 0.930 . S
C340 C336 1.415 . S
C340 C341 1.437 . S
C340 C344 1.413 . S
C341 C339 1.329 . S
C341 C340 1.437 . S
C341 H363 0.929 . S
N342 C336 1.369 . S
N342 C343 1.338 . S
N342 Gd347 2.622 . S
C343 N342 1.338 . S
C343 C345 1.378 . S
C343 H355 0.929 . S
C344 C340 1.413 . S
C344 C345 1.348 . S
C344 H360 0.931 . S
C345 C343 1.378 . S
C345 C344 1.348 . S
C345 H361 0.930 . S
Gd346 N366 2.622 . S
Gd346 N373 2.570 . S
Gd346 O380 2.353 . S
Gd346 O381 2.468 . S
Gd346 O382 2.427 . S
Gd346 O384 2.388 . S
Gd346 O385 2.386 . S
Gd346 O389 2.307 . S
Gd346 C399 2.805 . S
Gd347 N342 2.622 . S
Gd347 N348 2.570 . S
Gd347 O379 2.386 . S
Gd347 O383 2.307 . S
Gd347 O386 2.353 . S
Gd347 O387 2.468 . S
Gd347 O388 2.427 . S
Gd347 O390 2.388 . S
Gd347 C411 2.805 . S
N348 C338 1.359 . S
N348 Gd347 2.570 . S
N348 C350 1.343 . S
C349 C337 1.422 . S
C349 C351 1.321 . S
C349 H357 0.931 . S
C350 N348 1.343 . S
C350 C351 1.390 . S
C350 H352 0.931 . S
C351 C349 1.321 . S
C351 C350 1.390 . S
C351 H353 0.930 . S
H352 C350 0.931 . S
H353 C351 0.930 . S
H354 C377 0.931 . S
H355 C343 0.929 . S
H356 C378 0.930 . S
H357 C349 0.931 . S
H358 C339 0.930 . S
H359 C368 0.929 . S
H360 C344 0.931 . S
H361 C345 0.930 . S
H362 C400 0.930 . S
H363 C341 0.929 . S
H364 C369 0.931 . S
H365 C370 0.930 . S
N366 Gd346 2.622 . S
N366 C367 1.369 . S
N366 C368 1.338 . S
C367 N366 1.369 . S
C367 C371 1.415 . S
C367 C374 1.422 . S
C368 H359 0.929 . S
C368 N366 1.338 . S
C368 C370 1.378 . S
C369 H364 0.931 . S
C369 C370 1.348 . S
C369 C371 1.413 . S
C370 H365 0.930 . S
C370 C368 1.378 . S
C370 C369 1.348 . S
C371 C367 1.415 . S
C371 C369 1.413 . S
C371 C401 1.437 . S
H372 C401 0.929 . S
N373 Gd346 2.570 . S
N373 C374 1.359 . S
N373 C377 1.343 . S
C374 C367 1.422 . S
C374 N373 1.359 . S
C374 C376 1.421 . S
C375 C376 1.422 . S
C375 C378 1.321 . S
C375 H402 0.931 . S
C376 C374 1.421 . S
C376 C375 1.422 . S
C376 C400 1.417 . S
C377 H354 0.931 . S
C377 N373 1.343 . S
C377 C378 1.390 . S
C378 H356 0.930 . S
C378 C375 1.321 . S
C378 C377 1.390 . S
O379 Gd347 2.386 . S
O379 C391 1.265 . S
O380 Gd346 2.353 . S
O380 C391 1.242 . S
O381 Gd346 2.468 . S
O381 C399 1.263 . S
O382 Gd346 2.427 . S
O382 C399 1.252 . S
O383 Gd347 2.307 . S
O383 C392 1.261 . S
O384 Gd346 2.388 . S
O384 C392 1.252 . S
O385 Gd346 2.386 . S
O385 C403 1.265 . S
O386 Gd347 2.353 . S
O386 C403 1.242 . S
O387 Gd347 2.468 . S
O387 C411 1.263 . S
O388 Gd347 2.427 . S
O388 C411 1.252 . S
O389 Gd346 2.307 . S
O389 C404 1.261 . S
O390 Gd347 2.388 . S
O390 C404 1.252 . S
C391 O379 1.265 . S
C391 O380 1.242 . S
C392 O383 1.261 . S
C392 O384 1.252 . S
C393 C396 1.394 . S
C393 C398 1.370 . S
C393 C399 1.500 . S
C394 C397 1.383 . S
C394 C398 1.395 . S
C395 C396 1.396 . S
C395 C397 1.365 . S
C395 H412 0.929 . S
C396 C393 1.394 . S
C396 C395 1.396 . S
C396 H413 0.930 . S
C397 C394 1.383 . S
C397 C395 1.365 . S
C397 H414 0.931 . S
C398 C393 1.370 . S
C398 C394 1.395 . S
C398 H415 0.930 . S
C399 Gd346 2.805 . S
C399 O381 1.263 . S
C399 O382 1.252 . S
C399 C393 1.500 . S
C400 H362 0.930 . S
C400 C376 1.417 . S
C400 C401 1.329 . S
C401 C371 1.437 . S
C401 H372 0.929 . S
C401 C400 1.329 . S
H402 C375 0.931 . S
C403 O385 1.265 . S
C403 O386 1.242 . S
C404 O389 1.261 . S
C404 O390 1.252 . S
C405 C408 1.394 . S
C405 C410 1.370 . S
C405 C411 1.500 . S
C406 C409 1.383 . S
C406 C410 1.395 . S
C407 C408 1.396 . S
C407 C409 1.365 . S
C407 H416 0.929 . S
C408 C405 1.394 . S
C408 C407 1.396 . S
C408 H417 0.930 . S
C409 C406 1.383 . S
C409 C407 1.365 . S
C409 H418 0.931 . S
C410 C405 1.370 . S
C410 C406 1.395 . S
C410 H419 0.930 . S
C411 Gd347 2.805 . S
C411 O387 1.263 . S
C411 O388 1.252 . S
C411 C405 1.500 . S
H412 C395 0.929 . S
H413 C396 0.930 . S
H414 C397 0.931 . S
H415 C398 0.930 . S
H416 C407 0.929 . S
H417 C408 0.930 . S
H418 C409 0.931 . S
H419 C410 0.930 . S
C420 C422 1.422 . S
C420 C424 1.415 . S
C420 N426 1.369 . S
C421 C422 1.421 . S
C421 C423 1.417 . S
C421 C433 1.422 . S
C422 C420 1.422 . S
C422 C421 1.421 . S
C422 N432 1.359 . S
C423 C421 1.417 . S
C423 C425 1.329 . S
C423 H442 0.930 . S
C424 C420 1.415 . S
C424 C425 1.437 . S
C424 C428 1.413 . S
C425 C423 1.329 . S
C425 C424 1.437 . S
C425 H447 0.929 . S
N426 C420 1.369 . S
N426 C427 1.338 . S
N426 Gd431 2.622 . S
C427 N426 1.338 . S
C427 C429 1.378 . S
C427 H439 0.929 . S
C428 C424 1.413 . S
C428 C429 1.348 . S
C428 H444 0.931 . S
C429 C427 1.378 . S
C429 C428 1.348 . S
C429 H445 0.930 . S
Gd430 N450 2.622 . S
Gd430 N457 2.570 . S
Gd430 O464 2.353 . S
Gd430 O465 2.468 . S
Gd430 O466 2.427 . S
Gd430 O468 2.388 . S
Gd430 O469 2.386 . S
Gd430 O473 2.307 . S
Gd430 C483 2.805 . S
Gd431 N426 2.622 . S
Gd431 N432 2.570 . S
Gd431 O463 2.386 . S
Gd431 O467 2.307 . S
Gd431 O470 2.353 . S
Gd431 O471 2.468 . S
Gd431 O472 2.427 . S
Gd431 O474 2.388 . S
Gd431 C495 2.805 . S
N432 C422 1.359 . S
N432 Gd431 2.570 . S
N432 C434 1.343 . S
C433 C421 1.422 . S
C433 C435 1.321 . S
C433 H441 0.931 . S
C434 N432 1.343 . S
C434 C435 1.390 . S
C434 H436 0.931 . S
C435 C433 1.321 . S
C435 C434 1.390 . S
C435 H437 0.930 . S
H436 C434 0.931 . S
H437 C435 0.930 . S
H438 C461 0.931 . S
H439 C427 0.929 . S
H440 C462 0.930 . S
H441 C433 0.931 . S
H442 C423 0.930 . S
H443 C452 0.929 . S
H444 C428 0.931 . S
H445 C429 0.930 . S
H446 C484 0.930 . S
H447 C425 0.929 . S
H448 C453 0.931 . S
H449 C454 0.930 . S
N450 Gd430 2.622 . S
N450 C451 1.369 . S
N450 C452 1.338 . S
C451 N450 1.369 . S
C451 C455 1.415 . S
C451 C458 1.422 . S
C452 H443 0.929 . S
C452 N450 1.338 . S
C452 C454 1.378 . S
C453 H448 0.931 . S
C453 C454 1.348 . S
C453 C455 1.413 . S
C454 H449 0.930 . S
C454 C452 1.378 . S
C454 C453 1.348 . S
C455 C451 1.415 . S
C455 C453 1.413 . S
C455 C485 1.437 . S
H456 C485 0.929 . S
N457 Gd430 2.570 . S
N457 C458 1.359 . S
N457 C461 1.343 . S
C458 C451 1.422 . S
C458 N457 1.359 . S
C458 C460 1.421 . S
C459 C460 1.422 . S
C459 C462 1.321 . S
C459 H486 0.931 . S
C460 C458 1.421 . S
C460 C459 1.422 . S
C460 C484 1.417 . S
C461 H438 0.931 . S
C461 N457 1.343 . S
C461 C462 1.390 . S
C462 H440 0.930 . S
C462 C459 1.321 . S
C462 C461 1.390 . S
O463 Gd431 2.386 . S
O463 C475 1.265 . S
O464 Gd430 2.353 . S
O464 C475 1.242 . S
O465 Gd430 2.468 . S
O465 C483 1.263 . S
O466 Gd430 2.427 . S
O466 C483 1.252 . S
O467 Gd431 2.307 . S
O467 C476 1.261 . S
O468 Gd430 2.388 . S
O468 C476 1.252 . S
O469 Gd430 2.386 . S
O469 C487 1.265 . S
O470 Gd431 2.353 . S
O470 C487 1.242 . S
O471 Gd431 2.468 . S
O471 C495 1.263 . S
O472 Gd431 2.427 . S
O472 C495 1.252 . S
O473 Gd430 2.307 . S
O473 C488 1.261 . S
O474 Gd431 2.388 . S
O474 C488 1.252 . S
C475 O463 1.265 . S
C475 O464 1.242 . S
C476 O467 1.261 . S
C476 O468 1.252 . S
C477 C480 1.394 . S
C477 C482 1.370 . S
C477 C483 1.500 . S
C478 C481 1.383 . S
C478 C482 1.395 . S
C479 C480 1.396 . S
C479 C481 1.365 . S
C479 H496 0.929 . S
C480 C477 1.394 . S
C480 C479 1.396 . S
C480 H497 0.930 . S
C481 C478 1.383 . S
C481 C479 1.365 . S
C481 H498 0.931 . S
C482 C477 1.370 . S
C482 C478 1.395 . S
C482 H499 0.930 . S
C483 Gd430 2.805 . S
C483 O465 1.263 . S
C483 O466 1.252 . S
C483 C477 1.500 . S
C484 H446 0.930 . S
C484 C460 1.417 . S
C484 C485 1.329 . S
C485 C455 1.437 . S
C485 H456 0.929 . S
C485 C484 1.329 . S
H486 C459 0.931 . S
C487 O469 1.265 . S
C487 O470 1.242 . S
C488 O473 1.261 . S
C488 O474 1.252 . S
C489 C492 1.394 . S
C489 C494 1.370 . S
C489 C495 1.500 . S
C490 C493 1.383 . S
C490 C494 1.395 . S
C491 C492 1.396 . S
C491 C493 1.365 . S
C491 H500 0.929 . S
C492 C489 1.394 . S
C492 C491 1.396 . S
C492 H501 0.930 . S
C493 C490 1.383 . S
C493 C491 1.365 . S
C493 H502 0.931 . S
C494 C489 1.370 . S
C494 C490 1.395 . S
C494 H503 0.930 . S
C495 Gd431 2.805 . S
C495 O471 1.263 . S
C495 O472 1.252 . S
C495 C489 1.500 . S
H496 C479 0.929 . S
H497 C480 0.930 . S
H498 C481 0.931 . S
H499 C482 0.930 . S
H500 C491 0.929 . S
H501 C492 0.930 . S
H502 C493 0.931 . S
H503 C494 0.930 . S
C504 C506 1.422 . S
C504 C508 1.415 . S
C504 N510 1.369 . S
C505 C506 1.421 . S
C505 C507 1.417 . S
C505 C517 1.422 . S
C506 C504 1.422 . S
C506 C505 1.421 . S
C506 N516 1.359 . S
C507 C505 1.417 . S
C507 C509 1.329 . S
C507 H526 0.930 . S
C508 C504 1.415 . S
C508 C509 1.437 . S
C508 C512 1.413 . S
C509 C507 1.329 . S
C509 C508 1.437 . S
C509 H531 0.929 . S
N510 C504 1.369 . S
N510 C511 1.338 . S
N510 Gd515 2.622 . S
C511 N510 1.338 . S
C511 C513 1.378 . S
C511 H523 0.929 . S
C512 C508 1.413 . S
C512 C513 1.348 . S
C512 H528 0.931 . S
C513 C511 1.378 . S
C513 C512 1.348 . S
C513 H529 0.930 . S
Gd514 N534 2.622 . S
Gd514 N541 2.570 . S
Gd514 O548 2.353 . S
Gd514 O549 2.468 . S
Gd514 O550 2.427 . S
Gd514 O552 2.388 . S
Gd514 O553 2.386 . S
Gd514 O557 2.307 . S
Gd514 C567 2.805 . S
Gd515 N510 2.622 . S
Gd515 N516 2.570 . S
Gd515 O547 2.386 . S
Gd515 O551 2.307 . S
Gd515 O554 2.353 . S
Gd515 O555 2.468 . S
Gd515 O556 2.427 . S
Gd515 O558 2.388 . S
Gd515 C579 2.805 . S
N516 C506 1.359 . S
N516 Gd515 2.570 . S
N516 C518 1.343 . S
C517 C505 1.422 . S
C517 C519 1.321 . S
C517 H525 0.931 . S
C518 N516 1.343 . S
C518 C519 1.390 . S
C518 H520 0.931 . S
C519 C517 1.321 . S
C519 C518 1.390 . S
C519 H521 0.930 . S
H520 C518 0.931 . S
H521 C519 0.930 . S
H522 C545 0.931 . S
H523 C511 0.929 . S
H524 C546 0.930 . S
H525 C517 0.931 . S
H526 C507 0.930 . S
H527 C536 0.929 . S
H528 C512 0.931 . S
H529 C513 0.930 . S
H530 C568 0.930 1_554 S
H531 C509 0.929 . S
H532 C537 0.931 . S
H533 C538 0.930 . S
N534 Gd514 2.622 . S
N534 C535 1.369 . S
N534 C536 1.338 . S
C535 N534 1.369 . S
C535 C539 1.415 . S
C535 C542 1.422 . S
C536 H527 0.929 . S
C536 N534 1.338 . S
C536 C538 1.378 . S
C537 H532 0.931 . S
C537 C538 1.348 . S
C537 C539 1.413 . S
C538 H533 0.930 . S
C538 C536 1.378 . S
C538 C537 1.348 . S
C539 C535 1.415 . S
C539 C537 1.413 . S
C539 C569 1.437 . S
H540 C569 0.929 . S
N541 Gd514 2.570 . S
N541 C542 1.359 . S
N541 C545 1.343 1_556 S
C542 C535 1.422 . S
C542 N541 1.359 . S
C542 C544 1.424 . S
C543 C544 1.419 1_554 S
C543 C546 1.321 . S
C543 H570 0.931 . S
C544 C542 1.424 . S
C544 C543 1.419 1_556 S
C544 C568 1.418 . S
C545 H522 0.931 . S
C545 N541 1.343 1_554 S
C545 C546 1.390 . S
C546 H524 0.930 . S
C546 C543 1.321 . S
C546 C545 1.390 . S
O547 Gd515 2.386 . S
O547 C559 1.265 . S
O548 Gd514 2.353 . S
O548 C559 1.242 . S
O549 Gd514 2.468 . S
O549 C567 1.263 . S
O550 Gd514 2.427 . S
O550 C567 1.252 . S
O551 Gd515 2.307 . S
O551 C560 1.261 . S
O552 Gd514 2.388 . S
O552 C560 1.252 . S
O553 Gd514 2.386 . S
O553 C571 1.265 . S
O554 Gd515 2.353 . S
O554 C571 1.242 . S
O555 Gd515 2.468 . S
O555 C579 1.263 . S
O556 Gd515 2.427 . S
O556 C579 1.252 . S
O557 Gd514 2.307 . S
O557 C572 1.261 . S
O558 Gd515 2.388 . S
O558 C572 1.252 . S
C559 O547 1.265 . S
C559 O548 1.242 . S
C560 O551 1.261 . S
C560 O552 1.252 . S
C561 C564 1.394 . S
C561 C566 1.370 . S
C561 C567 1.500 . S
C562 C565 1.383 . S
C562 C566 1.395 . S
C563 C564 1.396 . S
C563 C565 1.365 . S
C563 H580 0.929 . S
C564 C561 1.394 . S
C564 C563 1.396 . S
C564 H581 0.930 . S
C565 C562 1.383 . S
C565 C563 1.365 . S
C565 H582 0.931 . S
C566 C561 1.370 . S
C566 C562 1.395 . S
C566 H583 0.930 . S
C567 Gd514 2.805 . S
C567 O549 1.263 . S
C567 O550 1.252 . S
C567 C561 1.500 . S
C568 H530 0.930 1_556 S
C568 C544 1.418 . S
C568 C569 1.329 . S
C569 C539 1.437 . S
C569 H540 0.929 . S
C569 C568 1.329 . S
H570 C543 0.931 . S
C571 O553 1.265 . S
C571 O554 1.242 . S
C572 O557 1.261 . S
C572 O558 1.252 . S
C573 C576 1.394 . S
C573 C578 1.370 . S
C573 C579 1.500 . S
C574 C577 1.383 . S
C574 C578 1.395 . S
C575 C576 1.396 . S
C575 C577 1.365 . S
C575 H584 0.929 . S
C576 C573 1.394 . S
C576 C575 1.396 . S
C576 H585 0.930 . S
C577 C574 1.383 . S
C577 C575 1.365 . S
C577 H586 0.931 . S
C578 C573 1.370 . S
C578 C574 1.395 . S
C578 H587 0.930 . S
C579 Gd515 2.805 . S
C579 O555 1.263 . S
C579 O556 1.252 . S
C579 C573 1.500 . S
H580 C563 0.929 . S
H581 C564 0.930 . S
H582 C565 0.931 . S
H583 C566 0.930 . S
H584 C575 0.929 . S
H585 C576 0.930 . S
H586 C577 0.931 . S
H587 C578 0.930 . S
C588 C590 1.422 . S
C588 C592 1.415 . S
C588 N594 1.369 . S
C589 C590 1.421 . S
C589 C591 1.417 . S
C589 C601 1.422 . S
C590 C588 1.422 . S
C590 C589 1.421 . S
C590 N600 1.359 . S
C591 C589 1.417 . S
C591 C593 1.329 . S
C591 H610 0.930 . S
C592 C588 1.415 . S
C592 C593 1.437 . S
C592 C596 1.413 . S
C593 C591 1.329 . S
C593 C592 1.437 . S
C593 H615 0.929 . S
N594 C588 1.369 . S
N594 C595 1.338 . S
N594 Gd599 2.622 . S
C595 N594 1.338 . S
C595 C597 1.378 . S
C595 H607 0.929 . S
C596 C592 1.413 . S
C596 C597 1.348 . S
C596 H612 0.931 . S
C597 C595 1.378 . S
C597 C596 1.348 . S
C597 H613 0.930 . S
Gd598 N618 2.622 . S
Gd598 N625 2.570 . S
Gd598 O632 2.353 . S
Gd598 O633 2.468 . S
Gd598 O634 2.427 . S
Gd598 O636 2.388 . S
Gd598 O637 2.386 . S
Gd598 O641 2.307 . S
Gd598 C651 2.805 . S
Gd599 N594 2.622 . S
Gd599 N600 2.570 . S
Gd599 O631 2.386 . S
Gd599 O635 2.307 . S
Gd599 O638 2.353 . S
Gd599 O639 2.468 . S
Gd599 O640 2.427 . S
Gd599 O642 2.388 . S
Gd599 C663 2.805 . S
N600 C590 1.359 . S
N600 Gd599 2.570 . S
N600 C602 1.343 . S
C601 C589 1.422 . S
C601 C603 1.321 . S
C601 H609 0.931 . S
C602 N600 1.343 . S
C602 C603 1.390 . S
C602 H604 0.931 . S
C603 C601 1.321 . S
C603 C602 1.390 . S
C603 H605 0.930 . S
H604 C602 0.931 . S
H605 C603 0.930 . S
H606 C629 0.931 . S
H607 C595 0.929 . S
H608 C630 0.930 . S
H609 C601 0.931 . S
H610 C591 0.930 . S
H611 C620 0.929 . S
H612 C596 0.931 . S
H613 C597 0.930 . S
H614 C652 0.930 1_554 S
H615 C593 0.929 . S
H616 C621 0.931 . S
H617 C622 0.930 . S
N618 Gd598 2.622 . S
N618 C619 1.369 . S
N618 C620 1.338 . S
C619 N618 1.369 . S
C619 C623 1.415 . S
C619 C626 1.422 . S
C620 H611 0.929 . S
C620 N618 1.338 . S
C620 C622 1.378 . S
C621 H616 0.931 . S
C621 C622 1.348 . S
C621 C623 1.413 . S
C622 H617 0.930 . S
C622 C620 1.378 . S
C622 C621 1.348 . S
C623 C619 1.415 . S
C623 C621 1.413 . S
C623 C653 1.437 . S
H624 C653 0.929 . S
N625 Gd598 2.570 . S
N625 C626 1.359 . S
N625 C629 1.343 1_556 S
C626 C619 1.422 . S
C626 N625 1.359 . S
C626 C628 1.424 . S
C627 C628 1.419 1_554 S
C627 C630 1.321 . S
C627 H654 0.931 . S
C628 C626 1.424 . S
C628 C627 1.419 1_556 S
C628 C652 1.418 . S
C629 H606 0.931 . S
C629 N625 1.343 1_554 S
C629 C630 1.390 . S
C630 H608 0.930 . S
C630 C627 1.321 . S
C630 C629 1.390 . S
O631 Gd599 2.386 . S
O631 C643 1.265 . S
O632 Gd598 2.353 . S
O632 C643 1.242 . S
O633 Gd598 2.468 . S
O633 C651 1.263 . S
O634 Gd598 2.427 . S
O634 C651 1.252 . S
O635 Gd599 2.307 . S
O635 C644 1.261 . S
O636 Gd598 2.388 . S
O636 C644 1.252 . S
O637 Gd598 2.386 . S
O637 C655 1.265 . S
O638 Gd599 2.353 . S
O638 C655 1.242 . S
O639 Gd599 2.468 . S
O639 C663 1.263 . S
O640 Gd599 2.427 . S
O640 C663 1.252 . S
O641 Gd598 2.307 . S
O641 C656 1.261 . S
O642 Gd599 2.388 . S
O642 C656 1.252 . S
C643 O631 1.265 . S
C643 O632 1.242 . S
C644 O635 1.261 . S
C644 O636 1.252 . S
C645 C648 1.394 . S
C645 C650 1.370 . S
C645 C651 1.500 . S
C646 C649 1.383 . S
C646 C650 1.395 . S
C647 C648 1.396 . S
C647 C649 1.365 . S
C647 H664 0.929 . S
C648 C645 1.394 . S
C648 C647 1.396 . S
C648 H665 0.930 . S
C649 C646 1.383 . S
C649 C647 1.365 . S
C649 H666 0.931 . S
C650 C645 1.370 . S
C650 C646 1.395 . S
C650 H667 0.930 . S
C651 Gd598 2.805 . S
C651 O633 1.263 . S
C651 O634 1.252 . S
C651 C645 1.500 . S
C652 H614 0.930 1_556 S
C652 C628 1.418 . S
C652 C653 1.329 . S
C653 C623 1.437 . S
C653 H624 0.929 . S
C653 C652 1.329 . S
H654 C627 0.931 . S
C655 O637 1.265 . S
C655 O638 1.242 . S
C656 O641 1.261 . S
C656 O642 1.252 . S
C657 C660 1.394 . S
C657 C662 1.370 . S
C657 C663 1.500 . S
C658 C661 1.383 . S
C658 C662 1.395 . S
C659 C660 1.396 . S
C659 C661 1.365 . S
C659 H668 0.929 . S
C660 C657 1.394 . S
C660 C659 1.396 . S
C660 H669 0.930 . S
C661 C658 1.383 . S
C661 C659 1.365 . S
C661 H670 0.931 1_565 S
C662 C657 1.370 . S
C662 C658 1.395 . S
C662 H671 0.930 . S
C663 Gd599 2.805 . S
C663 O639 1.263 . S
C663 O640 1.252 . S
C663 C657 1.500 . S
H664 C647 0.929 . S
H665 C648 0.930 . S
H666 C649 0.931 . S
H667 C650 0.930 . S
H668 C659 0.929 . S
H669 C660 0.930 . S
H670 C661 0.931 1_545 S
H671 C662 0.930 . S
C672 C674 1.422 . S
C672 C676 1.415 . S
C672 N678 1.369 . S
C673 C674 1.421 . S
C673 C675 1.417 . S
C673 C685 1.422 . S
C674 C672 1.422 . S
C674 C673 1.421 . S
C674 N684 1.359 . S
C675 C673 1.417 . S
C675 C677 1.329 . S
C675 H694 0.930 . S
C676 C672 1.415 . S
C676 C677 1.437 . S
C676 C680 1.413 . S
C677 C675 1.329 . S
C677 C676 1.437 . S
C677 H699 0.929 . S
N678 C672 1.369 . S
N678 C679 1.338 . S
N678 Gd683 2.622 . S
C679 N678 1.338 . S
C679 C681 1.378 . S
C679 H691 0.929 . S
C680 C676 1.413 . S
C680 C681 1.348 . S
C680 H696 0.931 . S
C681 C679 1.378 . S
C681 C680 1.348 . S
C681 H697 0.930 . S
Gd682 N702 2.622 . S
Gd682 N709 2.570 . S
Gd682 O716 2.353 . S
Gd682 O717 2.468 . S
Gd682 O718 2.427 . S
Gd682 O720 2.388 . S
Gd682 O721 2.386 . S
Gd682 O725 2.307 . S
Gd682 C735 2.805 . S
Gd683 N678 2.622 . S
Gd683 N684 2.570 . S
Gd683 O715 2.386 . S
Gd683 O719 2.307 . S
Gd683 O722 2.353 . S
Gd683 O723 2.468 . S
Gd683 O724 2.427 . S
Gd683 O726 2.388 . S
Gd683 C747 2.805 . S
N684 C674 1.359 . S
N684 Gd683 2.570 . S
N684 C686 1.343 . S
C685 C673 1.422 . S
C685 C687 1.321 . S
C685 H693 0.931 . S
C686 N684 1.343 . S
C686 C687 1.390 . S
C686 H688 0.931 . S
C687 C685 1.321 . S
C687 C686 1.390 . S
C687 H689 0.930 . S
H688 C686 0.931 . S
H689 C687 0.930 . S
H690 C713 0.931 . S
H691 C679 0.929 . S
H692 C714 0.930 . S
H693 C685 0.931 . S
H694 C675 0.930 . S
H695 C704 0.929 . S
H696 C680 0.931 . S
H697 C681 0.930 . S
H698 C736 0.930 1_554 S
H699 C677 0.929 . S
H700 C705 0.931 . S
H701 C706 0.930 . S
N702 Gd682 2.622 . S
N702 C703 1.369 . S
N702 C704 1.338 . S
C703 N702 1.369 . S
C703 C707 1.415 . S
C703 C710 1.422 . S
C704 H695 0.929 . S
C704 N702 1.338 . S
C704 C706 1.378 . S
C705 H700 0.931 . S
C705 C706 1.348 . S
C705 C707 1.413 . S
C706 H701 0.930 . S
C706 C704 1.378 . S
C706 C705 1.348 . S
C707 C703 1.415 . S
C707 C705 1.413 . S
C707 C737 1.437 . S
H708 C737 0.929 . S
N709 Gd682 2.570 . S
N709 C710 1.359 . S
N709 C713 1.343 1_556 S
C710 C703 1.422 . S
C710 N709 1.359 . S
C710 C712 1.424 . S
C711 C712 1.418 1_554 S
C711 C714 1.321 . S
C711 H738 0.931 . S
C712 C710 1.424 . S
C712 C711 1.418 1_556 S
C712 C736 1.418 . S
C713 H690 0.931 . S
C713 N709 1.343 1_554 S
C713 C714 1.390 . S
C714 H692 0.930 . S
C714 C711 1.321 . S
C714 C713 1.390 . S
O715 Gd683 2.386 . S
O715 C727 1.265 . S
O716 Gd682 2.353 . S
O716 C727 1.242 . S
O717 Gd682 2.468 . S
O717 C735 1.263 . S
O718 Gd682 2.427 . S
O718 C735 1.252 . S
O719 Gd683 2.307 . S
O719 C728 1.261 . S
O720 Gd682 2.388 . S
O720 C728 1.252 . S
O721 Gd682 2.386 . S
O721 C739 1.265 . S
O722 Gd683 2.353 . S
O722 C739 1.242 . S
O723 Gd683 2.468 . S
O723 C747 1.263 . S
O724 Gd683 2.427 . S
O724 C747 1.252 . S
O725 Gd682 2.307 . S
O725 C740 1.261 . S
O726 Gd683 2.388 . S
O726 C740 1.252 . S
C727 O715 1.265 . S
C727 O716 1.242 . S
C728 O719 1.261 . S
C728 O720 1.252 . S
C729 C732 1.394 . S
C729 C734 1.370 . S
C729 C735 1.500 . S
C730 C733 1.383 . S
C730 C734 1.395 . S
C731 C732 1.396 . S
C731 C733 1.365 . S
C731 H748 0.929 . S
C732 C729 1.394 . S
C732 C731 1.396 . S
C732 H749 0.930 . S
C733 C730 1.383 . S
C733 C731 1.365 . S
C733 H750 0.931 . S
C734 C729 1.370 . S
C734 C730 1.395 . S
C734 H751 0.930 . S
C735 Gd682 2.805 . S
C735 O717 1.263 . S
C735 O718 1.252 . S
C735 C729 1.500 . S
C736 H698 0.930 1_556 S
C736 C712 1.418 . S
C736 C737 1.329 . S
C737 C707 1.437 . S
C737 H708 0.929 . S
C737 C736 1.329 . S
H738 C711 0.931 . S
C739 O721 1.265 . S
C739 O722 1.242 . S
C740 O725 1.261 . S
C740 O726 1.252 . S
C741 C744 1.394 . S
C741 C746 1.370 . S
C741 C747 1.500 . S
C742 C745 1.383 . S
C742 C746 1.395 . S
C743 C744 1.396 . S
C743 C745 1.365 . S
C743 H752 0.929 . S
C744 C741 1.394 . S
C744 C743 1.396 . S
C744 H753 0.930 . S
C745 C742 1.383 . S
C745 C743 1.365 . S
C745 H754 0.931 1_455 S
C746 C741 1.370 . S
C746 C742 1.395 . S
C746 H755 0.930 . S
C747 Gd683 2.805 . S
C747 O723 1.263 . S
C747 O724 1.252 . S
C747 C741 1.500 . S
H748 C731 0.929 . S
H749 C732 0.930 . S
H750 C733 0.931 . S
H751 C734 0.930 . S
H752 C743 0.929 . S
H753 C744 0.930 . S
H754 C745 0.931 1_655 S
H755 C746 0.930 . S
C756 C758 1.422 . S
C756 C760 1.415 . S
C756 N762 1.369 . S
C757 C758 1.421 . S
C757 C759 1.417 . S
C757 C769 1.422 . S
C758 C756 1.422 . S
C758 C757 1.421 . S
C758 N768 1.359 . S
C759 C757 1.417 . S
C759 C761 1.329 . S
C759 H778 0.930 . S
C760 C756 1.415 . S
C760 C761 1.437 . S
C760 C764 1.413 . S
C761 C759 1.329 . S
C761 C760 1.437 . S
C761 H783 0.929 . S
N762 C756 1.369 . S
N762 C763 1.338 . S
N762 Gd767 2.622 . S
C763 N762 1.338 . S
C763 C765 1.378 . S
C763 H775 0.929 . S
C764 C760 1.413 . S
C764 C765 1.348 . S
C764 H780 0.931 . S
C765 C763 1.378 . S
C765 C764 1.348 . S
C765 H781 0.930 . S
Gd766 N786 2.622 . S
Gd766 N793 2.570 . S
Gd766 O800 2.353 . S
Gd766 O801 2.468 . S
Gd766 O802 2.427 . S
Gd766 O804 2.388 . S
Gd766 O805 2.386 . S
Gd766 O809 2.307 . S
Gd766 C819 2.805 . S
Gd767 N762 2.622 . S
Gd767 N768 2.570 . S
Gd767 O799 2.386 . S
Gd767 O803 2.307 . S
Gd767 O806 2.353 . S
Gd767 O807 2.468 . S
Gd767 O808 2.427 . S
Gd767 O810 2.388 . S
Gd767 C831 2.805 . S
N768 C758 1.359 . S
N768 Gd767 2.570 . S
N768 C770 1.343 . S
C769 C757 1.422 . S
C769 C771 1.321 . S
C769 H777 0.931 . S
C770 N768 1.343 . S
C770 C771 1.390 . S
C770 H772 0.931 . S
C771 C769 1.321 . S
C771 C770 1.390 . S
C771 H773 0.930 . S
H772 C770 0.931 . S
H773 C771 0.930 . S
H774 C797 0.931 . S
H775 C763 0.929 . S
H776 C798 0.930 . S
H777 C769 0.931 . S
H778 C759 0.930 . S
H779 C788 0.929 . S
H780 C764 0.931 . S
H781 C765 0.930 . S
H782 C820 0.930 . S
H783 C761 0.929 . S
H784 C789 0.931 . S
H785 C790 0.930 . S
N786 Gd766 2.622 . S
N786 C787 1.369 . S
N786 C788 1.338 . S
C787 N786 1.369 . S
C787 C791 1.415 . S
C787 C794 1.422 . S
C788 H779 0.929 . S
C788 N786 1.338 . S
C788 C790 1.378 . S
C789 H784 0.931 . S
C789 C790 1.348 . S
C789 C791 1.413 . S
C790 H785 0.930 . S
C790 C788 1.378 . S
C790 C789 1.348 . S
C791 C787 1.415 . S
C791 C789 1.413 . S
C791 C821 1.437 . S
H792 C821 0.929 . S
N793 Gd766 2.570 . S
N793 C794 1.359 . S
N793 C797 1.343 . S
C794 C787 1.422 . S
C794 N793 1.359 . S
C794 C796 1.421 . S
C795 C796 1.422 . S
C795 C798 1.321 . S
C795 H822 0.931 . S
C796 C794 1.421 . S
C796 C795 1.422 . S
C796 C820 1.417 . S
C797 H774 0.931 . S
C797 N793 1.343 . S
C797 C798 1.390 . S
C798 H776 0.930 . S
C798 C795 1.321 . S
C798 C797 1.390 . S
O799 Gd767 2.386 . S
O799 C811 1.265 . S
O800 Gd766 2.353 . S
O800 C811 1.242 . S
O801 Gd766 2.468 . S
O801 C819 1.263 . S
O802 Gd766 2.427 . S
O802 C819 1.252 . S
O803 Gd767 2.307 . S
O803 C812 1.261 . S
O804 Gd766 2.388 . S
O804 C812 1.252 . S
O805 Gd766 2.386 . S
O805 C823 1.265 . S
O806 Gd767 2.353 . S
O806 C823 1.242 . S
O807 Gd767 2.468 . S
O807 C831 1.263 . S
O808 Gd767 2.427 . S
O808 C831 1.252 . S
O809 Gd766 2.307 . S
O809 C824 1.261 . S
O810 Gd767 2.388 . S
O810 C824 1.252 . S
C811 O799 1.265 . S
C811 O800 1.242 . S
C812 O803 1.261 . S
C812 O804 1.252 . S
C813 C816 1.394 . S
C813 C818 1.370 . S
C813 C819 1.500 . S
C814 C817 1.383 . S
C814 C818 1.395 . S
C815 C816 1.396 . S
C815 C817 1.365 . S
C815 H832 0.929 . S
C816 C813 1.394 . S
C816 C815 1.396 . S
C816 H833 0.930 . S
C817 C814 1.383 . S
C817 C815 1.365 . S
C817 H834 0.931 . S
C818 C813 1.370 . S
C818 C814 1.395 . S
C818 H835 0.930 . S
C819 Gd766 2.805 . S
C819 O801 1.263 . S
C819 O802 1.252 . S
C819 C813 1.500 . S
C820 H782 0.930 . S
C820 C796 1.417 . S
C820 C821 1.329 . S
C821 C791 1.437 . S
C821 H792 0.929 . S
C821 C820 1.329 . S
H822 C795 0.931 . S
C823 O805 1.265 . S
C823 O806 1.242 . S
C824 O809 1.261 . S
C824 O810 1.252 . S
C825 C828 1.394 . S
C825 C830 1.370 . S
C825 C831 1.500 . S
C826 C829 1.383 . S
C826 C830 1.395 . S
C827 C828 1.396 . S
C827 C829 1.365 . S
C827 H836 0.929 . S
C828 C825 1.394 . S
C828 C827 1.396 . S
C828 H837 0.930 . S
C829 C826 1.383 . S
C829 C827 1.365 . S
C829 H838 0.931 . S
C830 C825 1.370 . S
C830 C826 1.395 . S
C830 H839 0.930 . S
C831 Gd767 2.805 . S
C831 O807 1.263 . S
C831 O808 1.252 . S
C831 C825 1.500 . S
H832 C815 0.929 . S
H833 C816 0.930 . S
H834 C817 0.931 . S
H835 C818 0.930 . S
H836 C827 0.929 . S
H837 C828 0.930 . S
H838 C829 0.931 . S
H839 C830 0.930 . S
C840 C842 1.422 . S
C840 C844 1.415 . S
C840 N846 1.369 . S
C841 C842 1.421 . S
C841 C843 1.417 . S
C841 C853 1.422 . S
C842 C840 1.422 . S
C842 C841 1.421 . S
C842 N852 1.359 . S
C843 C841 1.417 . S
C843 C845 1.329 . S
C843 H862 0.930 . S
C844 C840 1.415 . S
C844 C845 1.437 . S
C844 C848 1.413 . S
C845 C843 1.329 . S
C845 C844 1.437 . S
C845 H867 0.929 . S
N846 C840 1.369 . S
N846 C847 1.338 . S
N846 Gd851 2.622 . S
C847 N846 1.338 . S
C847 C849 1.378 . S
C847 H859 0.929 . S
C848 C844 1.413 . S
C848 C849 1.348 . S
C848 H864 0.931 . S
C849 C847 1.378 . S
C849 C848 1.348 . S
C849 H865 0.930 . S
Gd850 N870 2.622 . S
Gd850 N877 2.570 . S
Gd850 O884 2.353 . S
Gd850 O885 2.468 . S
Gd850 O886 2.427 . S
Gd850 O888 2.388 . S
Gd850 O889 2.386 . S
Gd850 O893 2.307 . S
Gd850 C903 2.805 . S
Gd851 N846 2.622 . S
Gd851 N852 2.570 . S
Gd851 O883 2.386 . S
Gd851 O887 2.307 . S
Gd851 O890 2.353 . S
Gd851 O891 2.468 . S
Gd851 O892 2.427 . S
Gd851 O894 2.388 . S
Gd851 C915 2.805 . S
N852 C842 1.359 . S
N852 Gd851 2.570 . S
N852 C854 1.343 . S
C853 C841 1.422 . S
C853 C855 1.321 . S
C853 H861 0.931 . S
C854 N852 1.343 . S
C854 C855 1.390 . S
C854 H856 0.931 . S
C855 C853 1.321 . S
C855 C854 1.390 . S
C855 H857 0.930 . S
H856 C854 0.931 . S
H857 C855 0.930 . S
H858 C881 0.931 . S
H859 C847 0.929 . S
H860 C882 0.930 . S
H861 C853 0.931 . S
H862 C843 0.930 . S
H863 C872 0.929 . S
H864 C848 0.931 . S
H865 C849 0.930 . S
H866 C904 0.930 . S
H867 C845 0.929 . S
H868 C873 0.931 . S
H869 C874 0.930 . S
N870 Gd850 2.622 . S
N870 C871 1.369 . S
N870 C872 1.338 . S
C871 N870 1.369 . S
C871 C875 1.415 . S
C871 C878 1.422 . S
C872 H863 0.929 . S
C872 N870 1.338 . S
C872 C874 1.378 . S
C873 H868 0.931 . S
C873 C874 1.348 . S
C873 C875 1.413 . S
C874 H869 0.930 . S
C874 C872 1.378 . S
C874 C873 1.348 . S
C875 C871 1.415 . S
C875 C873 1.413 . S
C875 C905 1.437 . S
H876 C905 0.929 . S
N877 Gd850 2.570 . S
N877 C878 1.359 . S
N877 C881 1.343 . S
C878 C871 1.422 . S
C878 N877 1.359 . S
C878 C880 1.421 . S
C879 C880 1.422 . S
C879 C882 1.321 . S
C879 H906 0.931 . S
C880 C878 1.421 . S
C880 C879 1.422 . S
C880 C904 1.417 . S
C881 H858 0.931 . S
C881 N877 1.343 . S
C881 C882 1.390 . S
C882 H860 0.930 . S
C882 C879 1.321 . S
C882 C881 1.390 . S
O883 Gd851 2.386 . S
O883 C895 1.265 . S
O884 Gd850 2.353 . S
O884 C895 1.242 . S
O885 Gd850 2.468 . S
O885 C903 1.263 . S
O886 Gd850 2.427 . S
O886 C903 1.252 . S
O887 Gd851 2.307 . S
O887 C896 1.261 . S
O888 Gd850 2.388 . S
O888 C896 1.252 . S
O889 Gd850 2.386 . S
O889 C907 1.265 . S
O890 Gd851 2.353 . S
O890 C907 1.242 . S
O891 Gd851 2.468 . S
O891 C915 1.263 . S
O892 Gd851 2.427 . S
O892 C915 1.252 . S
O893 Gd850 2.307 . S
O893 C908 1.261 . S
O894 Gd851 2.388 . S
O894 C908 1.252 . S
C895 O883 1.265 . S
C895 O884 1.242 . S
C896 O887 1.261 . S
C896 O888 1.252 . S
C897 C900 1.394 . S
C897 C902 1.370 . S
C897 C903 1.500 . S
C898 C901 1.383 . S
C898 C902 1.395 . S
C899 C900 1.396 . S
C899 C901 1.365 . S
C899 H916 0.929 . S
C900 C897 1.394 . S
C900 C899 1.396 . S
C900 H917 0.930 . S
C901 C898 1.383 . S
C901 C899 1.365 . S
C901 H918 0.931 . S
C902 C897 1.370 . S
C902 C898 1.395 . S
C902 H919 0.930 . S
C903 Gd850 2.805 . S
C903 O885 1.263 . S
C903 O886 1.252 . S
C903 C897 1.500 . S
C904 H866 0.930 . S
C904 C880 1.417 . S
C904 C905 1.329 . S
C905 C875 1.437 . S
C905 H876 0.929 . S
C905 C904 1.329 . S
H906 C879 0.931 . S
C907 O889 1.265 . S
C907 O890 1.242 . S
C908 O893 1.261 . S
C908 O894 1.252 . S
C909 C912 1.394 . S
C909 C914 1.370 . S
C909 C915 1.500 . S
C910 C913 1.383 . S
C910 C914 1.395 . S
C911 C912 1.396 . S
C911 C913 1.365 . S
C911 H920 0.929 . S
C912 C909 1.394 . S
C912 C911 1.396 . S
C912 H921 0.930 . S
C913 C910 1.383 . S
C913 C911 1.365 . S
C913 H922 0.931 . S
C914 C909 1.370 . S
C914 C910 1.395 . S
C914 H923 0.930 . S
C915 Gd851 2.805 . S
C915 O891 1.263 . S
C915 O892 1.252 . S
C915 C909 1.500 . S
H916 C899 0.929 . S
H917 C900 0.930 . S
H918 C901 0.931 . S
H919 C902 0.930 . S
H920 C911 0.929 . S
H921 C912 0.930 . S
H922 C913 0.931 . S
H923 C914 0.930 . S
C924 C926 1.422 . S
C924 C928 1.415 . S
C924 N930 1.369 . S
C925 C926 1.421 . S
C925 C927 1.417 . S
C925 C937 1.422 . S
C926 C924 1.422 . S
C926 C925 1.421 . S
C926 N936 1.359 . S
C927 C925 1.417 . S
C927 C929 1.329 . S
C927 H946 0.930 . S
C928 C924 1.415 . S
C928 C929 1.437 . S
C928 C932 1.413 . S
C929 C927 1.329 . S
C929 C928 1.437 . S
C929 H951 0.929 . S
N930 C924 1.369 . S
N930 C931 1.338 . S
N930 Gd935 2.622 . S
C931 N930 1.338 . S
C931 C933 1.378 . S
C931 H943 0.929 . S
C932 C928 1.413 . S
C932 C933 1.348 . S
C932 H948 0.931 . S
C933 C931 1.378 . S
C933 C932 1.348 . S
C933 H949 0.930 . S
Gd934 N954 2.622 . S
Gd934 N961 2.570 . S
Gd934 O968 2.353 . S
Gd934 O969 2.468 . S
Gd934 O970 2.427 . S
Gd934 O972 2.388 . S
Gd934 O973 2.386 . S
Gd934 O977 2.307 . S
Gd934 C987 2.805 . S
Gd935 N930 2.622 . S
Gd935 N936 2.570 . S
Gd935 O967 2.386 . S
Gd935 O971 2.307 . S
Gd935 O974 2.353 . S
Gd935 O975 2.468 . S
Gd935 O976 2.427 . S
Gd935 O978 2.388 . S
Gd935 C999 2.805 . S
N936 C926 1.359 . S
N936 Gd935 2.570 . S
N936 C938 1.343 . S
C937 C925 1.422 . S
C937 C939 1.321 . S
C937 H945 0.931 . S
C938 N936 1.343 . S
C938 C939 1.390 . S
C938 H940 0.931 . S
C939 C937 1.321 . S
C939 C938 1.390 . S
C939 H941 0.930 . S
H940 C938 0.931 . S
H941 C939 0.930 . S
H942 C965 0.931 . S
H943 C931 0.929 . S
H944 C966 0.930 . S
H945 C937 0.931 . S
H946 C927 0.930 . S
H947 C956 0.929 . S
H948 C932 0.931 . S
H949 C933 0.930 . S
H950 C988 0.930 . S
H951 C929 0.929 . S
H952 C957 0.931 . S
H953 C958 0.930 . S
N954 Gd934 2.622 . S
N954 C955 1.369 . S
N954 C956 1.338 . S
C955 N954 1.369 . S
C955 C959 1.415 . S
C955 C962 1.422 . S
C956 H947 0.929 . S
C956 N954 1.338 . S
C956 C958 1.378 . S
C957 H952 0.931 . S
C957 C958 1.348 . S
C957 C959 1.413 . S
C958 H953 0.930 . S
C958 C956 1.378 . S
C958 C957 1.348 . S
C959 C955 1.415 . S
C959 C957 1.413 . S
C959 C989 1.437 . S
H960 C989 0.929 . S
N961 Gd934 2.570 . S
N961 C962 1.359 . S
N961 C965 1.343 . S
C962 C955 1.422 . S
C962 N961 1.359 . S
C962 C964 1.421 . S
C963 C964 1.422 . S
C963 C966 1.321 . S
C963 H990 0.931 . S
C964 C962 1.421 . S
C964 C963 1.422 . S
C964 C988 1.417 . S
C965 H942 0.931 . S
C965 N961 1.343 . S
C965 C966 1.390 . S
C966 H944 0.930 . S
C966 C963 1.321 . S
C966 C965 1.390 . S
O967 Gd935 2.386 . S
O967 C979 1.265 . S
O968 Gd934 2.353 . S
O968 C979 1.242 . S
O969 Gd934 2.468 . S
O969 C987 1.263 . S
O970 Gd934 2.427 . S
O970 C987 1.252 . S
O971 Gd935 2.307 . S
O971 C980 1.261 . S
O972 Gd934 2.388 . S
O972 C980 1.252 . S
O973 Gd934 2.386 . S
O973 C991 1.265 . S
O974 Gd935 2.353 . S
O974 C991 1.242 . S
O975 Gd935 2.468 . S
O975 C999 1.263 . S
O976 Gd935 2.427 . S
O976 C999 1.252 . S
O977 Gd934 2.307 . S
O977 C992 1.261 . S
O978 Gd935 2.388 . S
O978 C992 1.252 . S
C979 O967 1.265 . S
C979 O968 1.242 . S
C980 O971 1.261 . S
C980 O972 1.252 . S
C981 C984 1.394 . S
C981 C986 1.370 . S
C981 C987 1.500 . S
C982 C985 1.383 . S
C982 C986 1.395 . S
C983 C984 1.396 . S
C983 C985 1.365 . S
C983 H1000 0.929 . S
C984 C981 1.394 . S
C984 C983 1.396 . S
C984 H1001 0.930 . S
C985 C982 1.383 . S
C985 C983 1.365 . S
C985 H1002 0.931 . S
C986 C981 1.370 . S
C986 C982 1.395 . S
C986 H1003 0.930 . S
C987 Gd934 2.805 . S
C987 O969 1.263 . S
C987 O970 1.252 . S
C987 C981 1.500 . S
C988 H950 0.930 . S
C988 C964 1.417 . S
C988 C989 1.329 . S
C989 C959 1.437 . S
C989 H960 0.929 . S
C989 C988 1.329 . S
H990 C963 0.931 . S
C991 O973 1.265 . S
C991 O974 1.242 . S
C992 O977 1.261 . S
C992 O978 1.252 . S
C993 C996 1.394 . S
C993 C998 1.370 . S
C993 C999 1.500 . S
C994 C997 1.383 . S
C994 C998 1.395 . S
C995 C996 1.396 . S
C995 C997 1.365 . S
C995 H1004 0.929 . S
C996 C993 1.394 . S
C996 C995 1.396 . S
C996 H1005 0.930 . S
C997 C994 1.383 . S
C997 C995 1.365 . S
C997 H1006 0.931 . S
C998 C993 1.370 . S
C998 C994 1.395 . S
C998 H1007 0.930 . S
C999 Gd935 2.805 . S
C999 O975 1.263 . S
C999 O976 1.252 . S
C999 C993 1.500 . S
H1000 C983 0.929 . S
H1001 C984 0.930 . S
H1002 C985 0.931 . S
H1003 C986 0.930 . S
H1004 C995 0.929 . S
H1005 C996 0.930 . S
H1006 C997 0.931 . S
H1007 C998 0.930 . S
C1008 C1010 1.422 . S
C1008 C1012 1.415 . S
C1008 N1014 1.369 . S
C1009 C1010 1.421 . S
C1009 C1011 1.417 . S
C1009 C1021 1.422 . S
C1010 C1008 1.422 . S
C1010 C1009 1.421 . S
C1010 N1020 1.359 . S
C1011 C1009 1.417 . S
C1011 C1013 1.329 . S
C1011 H1030 0.930 . S
C1012 C1008 1.415 . S
C1012 C1013 1.437 . S
C1012 C1016 1.413 . S
C1013 C1011 1.329 . S
C1013 C1012 1.437 . S
C1013 H1035 0.929 . S
N1014 C1008 1.369 . S
N1014 C1015 1.338 . S
N1014 Gd1019 2.622 . S
C1015 N1014 1.338 . S
C1015 C1017 1.378 . S
C1015 H1027 0.929 . S
C1016 C1012 1.413 . S
C1016 C1017 1.348 . S
C1016 H1032 0.931 . S
C1017 C1015 1.378 . S
C1017 C1016 1.348 . S
C1017 H1033 0.930 . S
Gd1018 N1038 2.622 . S
Gd1018 N1045 2.570 . S
Gd1018 O1052 2.353 . S
Gd1018 O1053 2.468 . S
Gd1018 O1054 2.427 . S
Gd1018 O1056 2.388 . S
Gd1018 O1057 2.386 . S
Gd1018 O1061 2.307 . S
Gd1018 C1071 2.805 . S
Gd1019 N1014 2.622 . S
Gd1019 N1020 2.570 . S
Gd1019 O1051 2.386 . S
Gd1019 O1055 2.307 . S
Gd1019 O1058 2.353 . S
Gd1019 O1059 2.468 . S
Gd1019 O1060 2.427 . S
Gd1019 O1062 2.388 . S
Gd1019 C1083 2.805 . S
N1020 C1010 1.359 . S
N1020 Gd1019 2.570 . S
N1020 C1022 1.343 . S
C1021 C1009 1.422 . S
C1021 C1023 1.321 . S
C1021 H1029 0.931 . S
C1022 N1020 1.343 . S
C1022 C1023 1.390 . S
C1022 H1024 0.931 . S
C1023 C1021 1.321 . S
C1023 C1022 1.390 . S
C1023 H1025 0.930 . S
H1024 C1022 0.931 . S
H1025 C1023 0.930 . S
H1026 C1049 0.931 . S
H1027 C1015 0.929 . S
H1028 C1050 0.930 . S
H1029 C1021 0.931 . S
H1030 C1011 0.930 . S
H1031 C1040 0.929 . S
H1032 C1016 0.931 . S
H1033 C1017 0.930 . S
H1034 C1072 0.930 . S
H1035 C1013 0.929 . S
H1036 C1041 0.931 . S
H1037 C1042 0.930 . S
N1038 Gd1018 2.622 . S
N1038 C1039 1.369 . S
N1038 C1040 1.338 . S
C1039 N1038 1.369 . S
C1039 C1043 1.415 1_655 S
C1039 C1046 1.422 . S
C1040 H1031 0.929 . S
C1040 N1038 1.338 . S
C1040 C1042 1.378 1_655 S
C1041 H1036 0.931 . S
C1041 C1042 1.348 . S
C1041 C1043 1.413 . S
C1042 H1037 0.930 . S
C1042 C1040 1.378 1_455 S
C1042 C1041 1.348 . S
C1043 C1039 1.415 1_455 S
C1043 C1041 1.413 . S
C1043 C1073 1.437 . S
H1044 C1073 0.929 . S
N1045 Gd1018 2.570 . S
N1045 C1046 1.359 . S
N1045 C1049 1.343 . S
C1046 C1039 1.422 . S
C1046 N1045 1.359 . S
C1046 C1048 1.421 1_655 S
C1047 C1048 1.422 1_655 S
C1047 C1050 1.321 . S
C1047 H1074 0.931 1_655 S
C1048 C1046 1.421 1_455 S
C1048 C1047 1.422 1_455 S
C1048 C1072 1.417 . S
C1049 H1026 0.931 . S
C1049 N1045 1.343 . S
C1049 C1050 1.390 . S
C1050 H1028 0.930 . S
C1050 C1047 1.321 . S
C1050 C1049 1.390 . S
O1051 Gd1019 2.386 . S
O1051 C1063 1.265 . S
O1052 Gd1018 2.353 . S
O1052 C1063 1.242 . S
O1053 Gd1018 2.468 . S
O1053 C1071 1.263 . S
O1054 Gd1018 2.427 . S
O1054 C1071 1.252 . S
O1055 Gd1019 2.307 . S
O1055 C1064 1.261 . S
O1056 Gd1018 2.388 . S
O1056 C1064 1.252 . S
O1057 Gd1018 2.386 . S
O1057 C1075 1.265 . S
O1058 Gd1019 2.353 . S
O1058 C1075 1.242 . S
O1059 Gd1019 2.468 . S
O1059 C1083 1.263 . S
O1060 Gd1019 2.427 . S
O1060 C1083 1.252 . S
O1061 Gd1018 2.307 . S
O1061 C1076 1.261 . S
O1062 Gd1019 2.388 . S
O1062 C1076 1.252 . S
C1063 O1051 1.265 . S
C1063 O1052 1.242 . S
C1064 O1055 1.261 . S
C1064 O1056 1.252 . S
C1065 C1068 1.394 . S
C1065 C1070 1.370 . S
C1065 C1071 1.500 . S
C1066 C1069 1.383 . S
C1066 C1070 1.395 . S
C1067 C1068 1.396 . S
C1067 C1069 1.365 . S
C1067 H1084 0.929 . S
C1068 C1065 1.394 . S
C1068 C1067 1.396 . S
C1068 H1085 0.930 . S
C1069 C1066 1.383 . S
C1069 C1067 1.365 . S
C1069 H1086 0.931 . S
C1070 C1065 1.370 . S
C1070 C1066 1.395 . S
C1070 H1087 0.930 . S
C1071 Gd1018 2.805 . S
C1071 O1053 1.263 . S
C1071 O1054 1.252 . S
C1071 C1065 1.500 . S
C1072 H1034 0.930 . S
C1072 C1048 1.417 . S
C1072 C1073 1.329 . S
C1073 C1043 1.437 . S
C1073 H1044 0.929 . S
C1073 C1072 1.329 . S
H1074 C1047 0.931 1_455 S
C1075 O1057 1.265 . S
C1075 O1058 1.242 . S
C1076 O1061 1.261 . S
C1076 O1062 1.252 . S
C1077 C1080 1.394 . S
C1077 C1082 1.370 . S
C1077 C1083 1.500 . S
C1078 C1081 1.383 . S
C1078 C1082 1.395 . S
C1079 C1080 1.396 . S
C1079 C1081 1.365 . S
C1079 H1088 0.929 . S
C1080 C1077 1.394 . S
C1080 C1079 1.396 . S
C1080 H1089 0.930 . S
C1081 C1078 1.383 . S
C1081 C1079 1.365 . S
C1081 H1090 0.931 . S
C1082 C1077 1.370 . S
C1082 C1078 1.395 . S
C1082 H1091 0.930 . S
C1083 Gd1019 2.805 . S
C1083 O1059 1.263 . S
C1083 O1060 1.252 . S
C1083 C1077 1.500 . S
H1084 C1067 0.929 . S
H1085 C1068 0.930 . S
H1086 C1069 0.931 . S
H1087 C1070 0.930 . S
H1088 C1079 0.929 . S
H1089 C1080 0.930 . S
H1090 C1081 0.931 . S
H1091 C1082 0.930 . S
C1092 C1094 1.422 . S
C1092 C1096 1.415 . S
C1092 N1098 1.369 . S
C1093 C1094 1.421 . S
C1093 C1095 1.417 . S
C1093 C1105 1.422 . S
C1094 C1092 1.422 . S
C1094 C1093 1.421 . S
C1094 N1104 1.359 . S
C1095 C1093 1.417 . S
C1095 C1097 1.329 . S
C1095 H1114 0.930 . S
C1096 C1092 1.415 . S
C1096 C1097 1.437 . S
C1096 C1100 1.413 . S
C1097 C1095 1.329 . S
C1097 C1096 1.437 . S
C1097 H1119 0.929 . S
N1098 C1092 1.369 . S
N1098 C1099 1.338 . S
N1098 Gd1103 2.622 . S
C1099 N1098 1.338 . S
C1099 C1101 1.378 . S
C1099 H1111 0.929 . S
C1100 C1096 1.413 . S
C1100 C1101 1.348 . S
C1100 H1116 0.931 . S
C1101 C1099 1.378 . S
C1101 C1100 1.348 . S
C1101 H1117 0.930 . S
Gd1102 N1122 2.622 . S
Gd1102 N1129 2.570 . S
Gd1102 O1136 2.353 . S
Gd1102 O1137 2.468 . S
Gd1102 O1138 2.427 . S
Gd1102 O1140 2.388 . S
Gd1102 O1141 2.386 . S
Gd1102 O1145 2.307 . S
Gd1102 C1155 2.805 . S
Gd1103 N1098 2.622 . S
Gd1103 N1104 2.570 . S
Gd1103 O1135 2.386 . S
Gd1103 O1139 2.307 . S
Gd1103 O1142 2.353 . S
Gd1103 O1143 2.468 . S
Gd1103 O1144 2.427 . S
Gd1103 O1146 2.388 . S
Gd1103 C1167 2.805 . S
N1104 C1094 1.359 . S
N1104 Gd1103 2.570 . S
N1104 C1106 1.343 . S
C1105 C1093 1.422 . S
C1105 C1107 1.321 . S
C1105 H1113 0.931 . S
C1106 N1104 1.343 . S
C1106 C1107 1.390 . S
C1106 H1108 0.931 . S
C1107 C1105 1.321 . S
C1107 C1106 1.390 . S
C1107 H1109 0.930 . S
H1108 C1106 0.931 . S
H1109 C1107 0.930 . S
H1110 C1133 0.931 . S
H1111 C1099 0.929 . S
H1112 C1134 0.930 . S
H1113 C1105 0.931 . S
H1114 C1095 0.930 . S
H1115 C1124 0.929 . S
H1116 C1100 0.931 . S
H1117 C1101 0.930 . S
H1118 C1156 0.930 . S
H1119 C1097 0.929 . S
H1120 C1125 0.931 . S
H1121 C1126 0.930 . S
N1122 Gd1102 2.622 . S
N1122 C1123 1.369 . S
N1122 C1124 1.338 . S
C1123 N1122 1.369 . S
C1123 C1127 1.415 . S
C1123 C1130 1.422 . S
C1124 H1115 0.929 . S
C1124 N1122 1.338 . S
C1124 C1126 1.378 . S
C1125 H1120 0.931 . S
C1125 C1126 1.348 . S
C1125 C1127 1.413 . S
C1126 H1121 0.930 . S
C1126 C1124 1.378 . S
C1126 C1125 1.348 . S
C1127 C1123 1.415 . S
C1127 C1125 1.413 . S
C1127 C1157 1.437 . S
H1128 C1157 0.929 . S
N1129 Gd1102 2.570 . S
N1129 C1130 1.359 . S
N1129 C1133 1.343 . S
C1130 C1123 1.422 . S
C1130 N1129 1.359 . S
C1130 C1132 1.421 . S
C1131 C1132 1.422 . S
C1131 C1134 1.321 . S
C1131 H1158 0.931 . S
C1132 C1130 1.421 . S
C1132 C1131 1.422 . S
C1132 C1156 1.417 . S
C1133 H1110 0.931 . S
C1133 N1129 1.343 . S
C1133 C1134 1.390 . S
C1134 H1112 0.930 . S
C1134 C1131 1.321 . S
C1134 C1133 1.390 . S
O1135 Gd1103 2.386 . S
O1135 C1147 1.265 . S
O1136 Gd1102 2.353 . S
O1136 C1147 1.242 . S
O1137 Gd1102 2.468 . S
O1137 C1155 1.263 . S
O1138 Gd1102 2.427 . S
O1138 C1155 1.252 . S
O1139 Gd1103 2.307 . S
O1139 C1148 1.261 . S
O1140 Gd1102 2.388 . S
O1140 C1148 1.252 . S
O1141 Gd1102 2.386 . S
O1141 C1159 1.265 . S
O1142 Gd1103 2.353 . S
O1142 C1159 1.242 . S
O1143 Gd1103 2.468 . S
O1143 C1167 1.263 . S
O1144 Gd1103 2.427 . S
O1144 C1167 1.252 . S
O1145 Gd1102 2.307 . S
O1145 C1160 1.261 . S
O1146 Gd1103 2.388 . S
O1146 C1160 1.252 . S
C1147 O1135 1.265 . S
C1147 O1136 1.242 . S
C1148 O1139 1.261 . S
C1148 O1140 1.252 . S
C1149 C1152 1.394 . S
C1149 C1154 1.370 . S
C1149 C1155 1.500 . S
C1150 C1153 1.383 . S
C1150 C1154 1.395 . S
C1151 C1152 1.396 . S
C1151 C1153 1.365 . S
C1151 H1168 0.929 . S
C1152 C1149 1.394 . S
C1152 C1151 1.396 . S
C1152 H1169 0.930 . S
C1153 C1150 1.383 . S
C1153 C1151 1.365 . S
C1153 H1170 0.931 . S
C1154 C1149 1.370 . S
C1154 C1150 1.395 . S
C1154 H1171 0.930 . S
C1155 Gd1102 2.805 . S
C1155 O1137 1.263 . S
C1155 O1138 1.252 . S
C1155 C1149 1.500 . S
C1156 H1118 0.930 . S
C1156 C1132 1.417 . S
C1156 C1157 1.329 . S
C1157 C1127 1.437 . S
C1157 H1128 0.929 . S
C1157 C1156 1.329 . S
H1158 C1131 0.931 . S
C1159 O1141 1.265 . S
C1159 O1142 1.242 . S
C1160 O1145 1.261 . S
C1160 O1146 1.252 . S
C1161 C1164 1.394 . S
C1161 C1166 1.370 . S
C1161 C1167 1.500 . S
C1162 C1165 1.383 . S
C1162 C1166 1.395 . S
C1163 C1164 1.396 . S
C1163 C1165 1.365 . S
C1163 H1172 0.929 . S
C1164 C1161 1.394 . S
C1164 C1163 1.396 . S
C1164 H1173 0.930 . S
C1165 C1162 1.383 . S
C1165 C1163 1.365 . S
C1165 H1174 0.931 . S
C1166 C1161 1.370 . S
C1166 C1162 1.395 . S
C1166 H1175 0.930 . S
C1167 Gd1103 2.805 . S
C1167 O1143 1.263 . S
C1167 O1144 1.252 . S
C1167 C1161 1.500 . S
H1168 C1151 0.929 . S
H1169 C1152 0.930 . S
H1170 C1153 0.931 . S
H1171 C1154 0.930 . S
H1172 C1163 0.929 . S
H1173 C1164 0.930 . S
H1174 C1165 0.931 . S
H1175 C1166 0.930 . S
C1176 C1178 1.422 . S
C1176 C1180 1.415 . S
C1176 N1182 1.369 . S
C1177 C1178 1.421 . S
C1177 C1179 1.417 . S
C1177 C1189 1.422 . S
C1178 C1176 1.422 . S
C1178 C1177 1.421 . S
C1178 N1188 1.359 . S
C1179 C1177 1.417 . S
C1179 C1181 1.329 . S
C1179 H1198 0.930 . S
C1180 C1176 1.415 . S
C1180 C1181 1.437 . S
C1180 C1184 1.413 . S
C1181 C1179 1.329 . S
C1181 C1180 1.437 . S
C1181 H1203 0.929 . S
N1182 C1176 1.369 . S
N1182 C1183 1.338 . S
N1182 Gd1187 2.622 . S
C1183 N1182 1.338 . S
C1183 C1185 1.378 . S
C1183 H1195 0.929 . S
C1184 C1180 1.413 . S
C1184 C1185 1.348 . S
C1184 H1200 0.931 . S
C1185 C1183 1.378 . S
C1185 C1184 1.348 . S
C1185 H1201 0.930 . S
Gd1186 N1206 2.622 . S
Gd1186 N1213 2.570 . S
Gd1186 O1220 2.353 . S
Gd1186 O1221 2.468 . S
Gd1186 O1222 2.427 . S
Gd1186 O1224 2.388 . S
Gd1186 O1225 2.386 . S
Gd1186 O1229 2.307 . S
Gd1186 C1239 2.805 . S
Gd1187 N1182 2.622 . S
Gd1187 N1188 2.570 . S
Gd1187 O1219 2.386 . S
Gd1187 O1223 2.307 . S
Gd1187 O1226 2.353 . S
Gd1187 O1227 2.468 . S
Gd1187 O1228 2.427 . S
Gd1187 O1230 2.388 . S
Gd1187 C1251 2.805 . S
N1188 C1178 1.359 . S
N1188 Gd1187 2.570 . S
N1188 C1190 1.343 . S
C1189 C1177 1.422 . S
C1189 C1191 1.321 . S
C1189 H1197 0.931 . S
C1190 N1188 1.343 . S
C1190 C1191 1.390 . S
C1190 H1192 0.931 . S
C1191 C1189 1.321 . S
C1191 C1190 1.390 . S
C1191 H1193 0.930 . S
H1192 C1190 0.931 . S
H1193 C1191 0.930 . S
H1194 C1217 0.931 . S
H1195 C1183 0.929 . S
H1196 C1218 0.930 . S
H1197 C1189 0.931 . S
H1198 C1179 0.930 . S
H1199 C1208 0.929 . S
H1200 C1184 0.931 . S
H1201 C1185 0.930 . S
H1202 C1240 0.930 . S
H1203 C1181 0.929 . S
H1204 C1209 0.931 . S
H1205 C1210 0.930 . S
N1206 Gd1186 2.622 . S
N1206 C1207 1.369 . S
N1206 C1208 1.338 . S
C1207 N1206 1.369 . S
C1207 C1211 1.415 1_545 S
C1207 C1214 1.422 . S
C1208 H1199 0.929 . S
C1208 N1206 1.338 . S
C1208 C1210 1.378 1_545 S
C1209 H1204 0.931 . S
C1209 C1210 1.348 . S
C1209 C1211 1.413 . S
C1210 H1205 0.930 . S
C1210 C1208 1.378 1_565 S
C1210 C1209 1.348 . S
C1211 C1207 1.415 1_565 S
C1211 C1209 1.413 . S
C1211 C1241 1.437 . S
H1212 C1241 0.929 . S
N1213 Gd1186 2.570 . S
N1213 C1214 1.359 . S
N1213 C1217 1.343 . S
C1214 C1207 1.422 . S
C1214 N1213 1.359 . S
C1214 C1216 1.421 1_545 S
C1215 C1216 1.422 1_545 S
C1215 C1218 1.321 . S
C1215 H1242 0.931 1_545 S
C1216 C1214 1.421 1_565 S
C1216 C1215 1.422 1_565 S
C1216 C1240 1.417 . S
C1217 H1194 0.931 . S
C1217 N1213 1.343 . S
C1217 C1218 1.390 . S
C1218 H1196 0.930 . S
C1218 C1215 1.321 . S
C1218 C1217 1.390 . S
O1219 Gd1187 2.386 . S
O1219 C1231 1.265 . S
O1220 Gd1186 2.353 . S
O1220 C1231 1.242 . S
O1221 Gd1186 2.468 . S
O1221 C1239 1.263 . S
O1222 Gd1186 2.427 . S
O1222 C1239 1.252 . S
O1223 Gd1187 2.307 . S
O1223 C1232 1.261 . S
O1224 Gd1186 2.388 . S
O1224 C1232 1.252 . S
O1225 Gd1186 2.386 . S
O1225 C1243 1.265 . S
O1226 Gd1187 2.353 . S
O1226 C1243 1.242 . S
O1227 Gd1187 2.468 . S
O1227 C1251 1.263 . S
O1228 Gd1187 2.427 . S
O1228 C1251 1.252 . S
O1229 Gd1186 2.307 . S
O1229 C1244 1.261 . S
O1230 Gd1187 2.388 . S
O1230 C1244 1.252 . S
C1231 O1219 1.265 . S
C1231 O1220 1.242 . S
C1232 O1223 1.261 . S
C1232 O1224 1.252 . S
C1233 C1236 1.394 . S
C1233 C1238 1.370 . S
C1233 C1239 1.500 . S
C1234 C1237 1.383 . S
C1234 C1238 1.395 . S
C1235 C1236 1.396 . S
C1235 C1237 1.365 . S
C1235 H1252 0.929 . S
C1236 C1233 1.394 . S
C1236 C1235 1.396 . S
C1236 H1253 0.930 . S
C1237 C1234 1.383 . S
C1237 C1235 1.365 . S
C1237 H1254 0.931 . S
C1238 C1233 1.370 . S
C1238 C1234 1.395 . S
C1238 H1255 0.930 . S
C1239 Gd1186 2.805 . S
C1239 O1221 1.263 . S
C1239 O1222 1.252 . S
C1239 C1233 1.500 . S
C1240 H1202 0.930 . S
C1240 C1216 1.417 . S
C1240 C1241 1.329 . S
C1241 C1211 1.437 . S
C1241 H1212 0.929 . S
C1241 C1240 1.329 . S
H1242 C1215 0.931 1_565 S
C1243 O1225 1.265 . S
C1243 O1226 1.242 . S
C1244 O1229 1.261 . S
C1244 O1230 1.252 . S
C1245 C1248 1.394 . S
C1245 C1250 1.370 . S
C1245 C1251 1.500 . S
C1246 C1249 1.383 . S
C1246 C1250 1.395 . S
C1247 C1248 1.396 . S
C1247 C1249 1.365 . S
C1247 H1256 0.929 . S
C1248 C1245 1.394 . S
C1248 C1247 1.396 . S
C1248 H1257 0.930 . S
C1249 C1246 1.383 . S
C1249 C1247 1.365 . S
C1249 H1258 0.931 . S
C1250 C1245 1.370 . S
C1250 C1246 1.395 . S
C1250 H1259 0.930 . S
C1251 Gd1187 2.805 . S
C1251 O1227 1.263 . S
C1251 O1228 1.252 . S
C1251 C1245 1.500 . S
H1252 C1235 0.929 . S
H1253 C1236 0.930 . S
H1254 C1237 0.931 . S
H1255 C1238 0.930 . S
H1256 C1247 0.929 . S
H1257 C1248 0.930 . S
H1258 C1249 0.931 . S
H1259 C1250 0.930 . S
C1260 C1262 1.422 . S
C1260 C1264 1.415 . S
C1260 N1266 1.369 . S
C1261 C1262 1.421 . S
C1261 C1263 1.417 . S
C1261 C1273 1.422 . S
C1262 C1260 1.422 . S
C1262 C1261 1.421 . S
C1262 N1272 1.359 . S
C1263 C1261 1.417 . S
C1263 C1265 1.329 . S
C1263 H1282 0.930 . S
C1264 C1260 1.415 . S
C1264 C1265 1.437 . S
C1264 C1268 1.413 . S
C1265 C1263 1.329 . S
C1265 C1264 1.437 . S
C1265 H1287 0.929 . S
N1266 C1260 1.369 . S
N1266 C1267 1.338 . S
N1266 Gd1271 2.622 . S
C1267 N1266 1.338 . S
C1267 C1269 1.378 . S
C1267 H1279 0.929 . S
C1268 C1264 1.413 . S
C1268 C1269 1.348 . S
C1268 H1284 0.931 . S
C1269 C1267 1.378 . S
C1269 C1268 1.348 . S
C1269 H1285 0.930 . S
Gd1270 N1290 2.622 . S
Gd1270 N1297 2.570 . S
Gd1270 O1304 2.353 . S
Gd1270 O1305 2.468 . S
Gd1270 O1306 2.427 . S
Gd1270 O1308 2.388 . S
Gd1270 O1309 2.386 . S
Gd1270 O1313 2.307 . S
Gd1270 C1323 2.805 . S
Gd1271 N1266 2.622 . S
Gd1271 N1272 2.570 . S
Gd1271 O1303 2.386 . S
Gd1271 O1307 2.307 . S
Gd1271 O1310 2.353 . S
Gd1271 O1311 2.468 . S
Gd1271 O1312 2.427 . S
Gd1271 O1314 2.388 . S
Gd1271 C1335 2.805 . S
N1272 C1262 1.359 . S
N1272 Gd1271 2.570 . S
N1272 C1274 1.343 . S
C1273 C1261 1.422 . S
C1273 C1275 1.321 . S
C1273 H1281 0.931 . S
C1274 N1272 1.343 . S
C1274 C1275 1.390 . S
C1274 H1276 0.931 . S
C1275 C1273 1.321 . S
C1275 C1274 1.390 . S
C1275 H1277 0.930 . S
H1276 C1274 0.931 . S
H1277 C1275 0.930 . S
H1278 C1301 0.931 . S
H1279 C1267 0.929 . S
H1280 C1302 0.930 . S
H1281 C1273 0.931 . S
H1282 C1263 0.930 . S
H1283 C1292 0.929 . S
H1284 C1268 0.931 . S
H1285 C1269 0.930 . S
H1286 C1324 0.930 . S
H1287 C1265 0.929 . S
H1288 C1293 0.931 . S
H1289 C1294 0.930 . S
N1290 Gd1270 2.622 . S
N1290 C1291 1.369 . S
N1290 C1292 1.338 . S
C1291 N1290 1.369 . S
C1291 C1295 1.415 . S
C1291 C1298 1.422 . S
C1292 H1283 0.929 . S
C1292 N1290 1.338 . S
C1292 C1294 1.378 . S
C1293 H1288 0.931 . S
C1293 C1294 1.348 . S
C1293 C1295 1.413 . S
C1294 H1289 0.930 . S
C1294 C1292 1.378 . S
C1294 C1293 1.348 . S
C1295 C1291 1.415 . S
C1295 C1293 1.413 . S
C1295 C1325 1.437 . S
H1296 C1325 0.929 . S
N1297 Gd1270 2.570 . S
N1297 C1298 1.359 . S
N1297 C1301 1.343 . S
C1298 C1291 1.422 . S
C1298 N1297 1.359 . S
C1298 C1300 1.421 . S
C1299 C1300 1.422 . S
C1299 C1302 1.321 . S
C1299 H1326 0.931 . S
C1300 C1298 1.421 . S
C1300 C1299 1.422 . S
C1300 C1324 1.417 . S
C1301 H1278 0.931 . S
C1301 N1297 1.343 . S
C1301 C1302 1.390 . S
C1302 H1280 0.930 . S
C1302 C1299 1.321 . S
C1302 C1301 1.390 . S
O1303 Gd1271 2.386 . S
O1303 C1315 1.265 . S
O1304 Gd1270 2.353 . S
O1304 C1315 1.242 . S
O1305 Gd1270 2.468 . S
O1305 C1323 1.263 . S
O1306 Gd1270 2.427 . S
O1306 C1323 1.252 . S
O1307 Gd1271 2.307 . S
O1307 C1316 1.261 . S
O1308 Gd1270 2.388 . S
O1308 C1316 1.252 . S
O1309 Gd1270 2.386 . S
O1309 C1327 1.265 . S
O1310 Gd1271 2.353 . S
O1310 C1327 1.242 . S
O1311 Gd1271 2.468 . S
O1311 C1335 1.263 . S
O1312 Gd1271 2.427 . S
O1312 C1335 1.252 . S
O1313 Gd1270 2.307 . S
O1313 C1328 1.261 . S
O1314 Gd1271 2.388 . S
O1314 C1328 1.252 . S
C1315 O1303 1.265 . S
C1315 O1304 1.242 . S
C1316 O1307 1.261 . S
C1316 O1308 1.252 . S
C1317 C1320 1.394 . S
C1317 C1322 1.370 . S
C1317 C1323 1.500 . S
C1318 C1321 1.383 . S
C1318 C1322 1.395 . S
C1319 C1320 1.396 . S
C1319 C1321 1.365 . S
C1319 H1336 0.929 . S
C1320 C1317 1.394 . S
C1320 C1319 1.396 . S
C1320 H1337 0.930 . S
C1321 C1318 1.383 . S
C1321 C1319 1.365 . S
C1321 H1338 0.931 . S
C1322 C1317 1.370 . S
C1322 C1318 1.395 . S
C1322 H1339 0.930 . S
C1323 Gd1270 2.805 . S
C1323 O1305 1.263 . S
C1323 O1306 1.252 . S
C1323 C1317 1.500 . S
C1324 H1286 0.930 . S
C1324 C1300 1.417 . S
C1324 C1325 1.329 . S
C1325 C1295 1.437 . S
C1325 H1296 0.929 . S
C1325 C1324 1.329 . S
H1326 C1299 0.931 . S
C1327 O1309 1.265 . S
C1327 O1310 1.242 . S
C1328 O1313 1.261 . S
C1328 O1314 1.252 . S
C1329 C1332 1.394 . S
C1329 C1334 1.370 . S
C1329 C1335 1.500 . S
C1330 C1333 1.383 . S
C1330 C1334 1.395 . S
C1331 C1332 1.396 . S
C1331 C1333 1.365 . S
C1331 H1340 0.929 . S
C1332 C1329 1.394 . S
C1332 C1331 1.396 . S
C1332 H1341 0.930 . S
C1333 C1330 1.383 . S
C1333 C1331 1.365 . S
C1333 H1342 0.931 . S
C1334 C1329 1.370 . S
C1334 C1330 1.395 . S
C1334 H1343 0.930 . S
C1335 Gd1271 2.805 . S
C1335 O1311 1.263 . S
C1335 O1312 1.252 . S
C1335 C1329 1.500 . S
H1336 C1319 0.929 . S
H1337 C1320 0.930 . S
H1338 C1321 0.931 . S
H1339 C1322 0.930 . S
H1340 C1331 0.929 . S
H1341 C1332 0.930 . S
H1342 C1333 0.931 . S
H1343 C1334 0.930 . S
C1344 C1346 1.422 . S
C1344 C1348 1.415 . S
C1344 N1350 1.369 . S
C1345 C1346 1.421 . S
C1345 C1347 1.417 . S
C1345 C1357 1.422 . S
C1346 C1344 1.422 . S
C1346 C1345 1.421 . S
C1346 N1356 1.359 . S
C1347 C1345 1.417 . S
C1347 C1349 1.329 . S
C1347 H1366 0.930 . S
C1348 C1344 1.415 . S
C1348 C1349 1.437 . S
C1348 C1352 1.413 . S
C1349 C1347 1.329 . S
C1349 C1348 1.437 . S
C1349 H1371 0.929 . S
N1350 C1344 1.369 . S
N1350 C1351 1.338 . S
N1350 Gd1355 2.622 . S
C1351 N1350 1.338 . S
C1351 C1353 1.378 . S
C1351 H1363 0.929 . S
C1352 C1348 1.413 . S
C1352 C1353 1.348 . S
C1352 H1368 0.931 . S
C1353 C1351 1.378 . S
C1353 C1352 1.348 . S
C1353 H1369 0.930 . S
Gd1354 N1374 2.622 . S
Gd1354 N1381 2.570 . S
Gd1354 O1388 2.353 . S
Gd1354 O1389 2.468 . S
Gd1354 O1390 2.427 . S
Gd1354 O1392 2.388 . S
Gd1354 O1393 2.386 . S
Gd1354 O1397 2.307 . S
Gd1354 C1407 2.805 . S
Gd1355 N1350 2.622 . S
Gd1355 N1356 2.570 . S
Gd1355 O1387 2.386 . S
Gd1355 O1391 2.307 . S
Gd1355 O1394 2.353 . S
Gd1355 O1395 2.468 . S
Gd1355 O1396 2.427 . S
Gd1355 O1398 2.388 . S
Gd1355 C1419 2.805 . S
N1356 C1346 1.359 . S
N1356 Gd1355 2.570 . S
N1356 C1358 1.343 . S
C1357 C1345 1.422 . S
C1357 C1359 1.321 . S
C1357 H1365 0.931 . S
C1358 N1356 1.343 . S
C1358 C1359 1.390 . S
C1358 H1360 0.931 . S
C1359 C1357 1.321 . S
C1359 C1358 1.390 . S
C1359 H1361 0.930 . S
H1360 C1358 0.931 . S
H1361 C1359 0.930 . S
H1362 C1385 0.931 . S
H1363 C1351 0.929 . S
H1364 C1386 0.930 . S
H1365 C1357 0.931 . S
H1366 C1347 0.930 . S
H1367 C1376 0.929 . S
H1368 C1352 0.931 . S
H1369 C1353 0.930 . S
H1370 C1408 0.930 . S
H1371 C1349 0.929 . S
H1372 C1377 0.931 . S
H1373 C1378 0.930 . S
N1374 Gd1354 2.622 . S
N1374 C1375 1.369 . S
N1374 C1376 1.338 . S
C1375 N1374 1.369 . S
C1375 C1379 1.415 . S
C1375 C1382 1.422 . S
C1376 H1367 0.929 . S
C1376 N1374 1.338 . S
C1376 C1378 1.378 . S
C1377 H1372 0.931 . S
C1377 C1378 1.348 . S
C1377 C1379 1.413 . S
C1378 H1373 0.930 . S
C1378 C1376 1.378 . S
C1378 C1377 1.348 . S
C1379 C1375 1.415 . S
C1379 C1377 1.413 . S
C1379 C1409 1.437 . S
H1380 C1409 0.929 . S
N1381 Gd1354 2.570 . S
N1381 C1382 1.359 . S
N1381 C1385 1.343 . S
C1382 C1375 1.422 . S
C1382 N1381 1.359 . S
C1382 C1384 1.421 . S
C1383 C1384 1.422 . S
C1383 C1386 1.321 . S
C1383 H1410 0.931 . S
C1384 C1382 1.421 . S
C1384 C1383 1.422 . S
C1384 C1408 1.417 . S
C1385 H1362 0.931 . S
C1385 N1381 1.343 . S
C1385 C1386 1.390 . S
C1386 H1364 0.930 . S
C1386 C1383 1.321 . S
C1386 C1385 1.390 . S
O1387 Gd1355 2.386 . S
O1387 C1399 1.265 . S
O1388 Gd1354 2.353 . S
O1388 C1399 1.242 . S
O1389 Gd1354 2.468 . S
O1389 C1407 1.263 . S
O1390 Gd1354 2.427 . S
O1390 C1407 1.252 . S
O1391 Gd1355 2.307 . S
O1391 C1400 1.261 . S
O1392 Gd1354 2.388 . S
O1392 C1400 1.252 . S
O1393 Gd1354 2.386 . S
O1393 C1411 1.265 . S
O1394 Gd1355 2.353 . S
O1394 C1411 1.242 . S
O1395 Gd1355 2.468 . S
O1395 C1419 1.263 . S
O1396 Gd1355 2.427 . S
O1396 C1419 1.252 . S
O1397 Gd1354 2.307 . S
O1397 C1412 1.261 . S
O1398 Gd1355 2.388 . S
O1398 C1412 1.252 . S
C1399 O1387 1.265 . S
C1399 O1388 1.242 . S
C1400 O1391 1.261 . S
C1400 O1392 1.252 . S
C1401 C1404 1.394 . S
C1401 C1406 1.370 . S
C1401 C1407 1.500 . S
C1402 C1405 1.383 . S
C1402 C1406 1.395 . S
C1403 C1404 1.396 . S
C1403 C1405 1.365 . S
C1403 H1420 0.929 . S
C1404 C1401 1.394 . S
C1404 C1403 1.396 . S
C1404 H1421 0.930 . S
C1405 C1402 1.383 . S
C1405 C1403 1.365 . S
C1405 H1422 0.931 . S
C1406 C1401 1.370 . S
C1406 C1402 1.395 . S
C1406 H1423 0.930 . S
C1407 Gd1354 2.805 . S
C1407 O1389 1.263 . S
C1407 O1390 1.252 . S
C1407 C1401 1.500 . S
C1408 H1370 0.930 . S
C1408 C1384 1.417 . S
C1408 C1409 1.329 . S
C1409 C1379 1.437 . S
C1409 H1380 0.929 . S
C1409 C1408 1.329 . S
H1410 C1383 0.931 . S
C1411 O1393 1.265 . S
C1411 O1394 1.242 . S
C1412 O1397 1.261 . S
C1412 O1398 1.252 . S
C1413 C1416 1.394 . S
C1413 C1418 1.370 . S
C1413 C1419 1.500 . S
C1414 C1417 1.383 . S
C1414 C1418 1.395 . S
C1415 C1416 1.396 . S
C1415 C1417 1.365 . S
C1415 H1424 0.929 . S
C1416 C1413 1.394 . S
C1416 C1415 1.396 . S
C1416 H1425 0.930 . S
C1417 C1414 1.383 . S
C1417 C1415 1.365 . S
C1417 H1426 0.931 . S
C1418 C1413 1.370 . S
C1418 C1414 1.395 . S
C1418 H1427 0.930 . S
C1419 Gd1355 2.805 . S
C1419 O1395 1.263 . S
C1419 O1396 1.252 . S
C1419 C1413 1.500 . S
H1420 C1403 0.929 . S
H1421 C1404 0.930 . S
H1422 C1405 0.931 . S
H1423 C1406 0.930 . S
H1424 C1415 0.929 . S
H1425 C1416 0.930 . S
H1426 C1417 0.931 . S
H1427 C1418 0.930 . S
C1428 C1430 1.422 . S
C1428 C1432 1.415 . S
C1428 N1434 1.369 . S
C1429 C1430 1.421 . S
C1429 C1431 1.417 . S
C1429 C1441 1.422 . S
C1430 C1428 1.422 . S
C1430 C1429 1.421 . S
C1430 N1440 1.359 . S
C1431 C1429 1.417 . S
C1431 C1433 1.329 . S
C1431 H1450 0.930 . S
C1432 C1428 1.415 . S
C1432 C1433 1.437 . S
C1432 C1436 1.413 . S
C1433 C1431 1.329 . S
C1433 C1432 1.437 . S
C1433 H1455 0.929 . S
N1434 C1428 1.369 . S
N1434 C1435 1.338 . S
N1434 Gd1439 2.622 . S
C1435 N1434 1.338 . S
C1435 C1437 1.378 . S
C1435 H1447 0.929 . S
C1436 C1432 1.413 . S
C1436 C1437 1.348 . S
C1436 H1452 0.931 . S
C1437 C1435 1.378 . S
C1437 C1436 1.348 . S
C1437 H1453 0.930 . S
Gd1438 N1458 2.622 . S
Gd1438 N1465 2.570 . S
Gd1438 O1472 2.353 . S
Gd1438 O1473 2.468 . S
Gd1438 O1474 2.427 . S
Gd1438 O1476 2.388 . S
Gd1438 O1477 2.386 . S
Gd1438 O1481 2.307 . S
Gd1438 C1491 2.805 . S
Gd1439 N1434 2.622 . S
Gd1439 N1440 2.570 . S
Gd1439 O1471 2.386 . S
Gd1439 O1475 2.307 . S
Gd1439 O1478 2.353 . S
Gd1439 O1479 2.468 . S
Gd1439 O1480 2.427 . S
Gd1439 O1482 2.388 . S
Gd1439 C1503 2.805 . S
N1440 C1430 1.359 . S
N1440 Gd1439 2.570 . S
N1440 C1442 1.343 . S
C1441 C1429 1.422 . S
C1441 C1443 1.321 . S
C1441 H1449 0.931 . S
C1442 N1440 1.343 . S
C1442 C1443 1.390 . S
C1442 H1444 0.931 . S
C1443 C1441 1.321 . S
C1443 C1442 1.390 . S
C1443 H1445 0.930 . S
H1444 C1442 0.931 . S
H1445 C1443 0.930 . S
H1446 C1469 0.931 . S
H1447 C1435 0.929 . S
H1448 C1470 0.930 . S
H1449 C1441 0.931 . S
H1450 C1431 0.930 . S
H1451 C1460 0.929 . S
H1452 C1436 0.931 . S
H1453 C1437 0.930 . S
H1454 C1492 0.930 . S
H1455 C1433 0.929 . S
H1456 C1461 0.931 . S
H1457 C1462 0.930 . S
N1458 Gd1438 2.622 . S
N1458 C1459 1.369 . S
N1458 C1460 1.338 . S
C1459 N1458 1.369 . S
C1459 C1463 1.415 . S
C1459 C1466 1.422 . S
C1460 H1451 0.929 . S
C1460 N1458 1.338 . S
C1460 C1462 1.378 . S
C1461 H1456 0.931 . S
C1461 C1462 1.348 . S
C1461 C1463 1.413 . S
C1462 H1457 0.930 . S
C1462 C1460 1.378 . S
C1462 C1461 1.348 . S
C1463 C1459 1.415 . S
C1463 C1461 1.413 . S
C1463 C1493 1.437 . S
H1464 C1493 0.929 . S
N1465 Gd1438 2.570 . S
N1465 C1466 1.359 . S
N1465 C1469 1.343 . S
C1466 C1459 1.422 . S
C1466 N1465 1.359 . S
C1466 C1468 1.421 . S
C1467 C1468 1.422 . S
C1467 C1470 1.321 . S
C1467 H1494 0.931 . S
C1468 C1466 1.421 . S
C1468 C1467 1.422 . S
C1468 C1492 1.417 . S
C1469 H1446 0.931 . S
C1469 N1465 1.343 . S
C1469 C1470 1.390 . S
C1470 H1448 0.930 . S
C1470 C1467 1.321 . S
C1470 C1469 1.390 . S
O1471 Gd1439 2.386 . S
O1471 C1483 1.265 . S
O1472 Gd1438 2.353 . S
O1472 C1483 1.242 . S
O1473 Gd1438 2.468 . S
O1473 C1491 1.263 . S
O1474 Gd1438 2.427 . S
O1474 C1491 1.252 . S
O1475 Gd1439 2.307 . S
O1475 C1484 1.261 . S
O1476 Gd1438 2.388 . S
O1476 C1484 1.252 . S
O1477 Gd1438 2.386 . S
O1477 C1495 1.265 . S
O1478 Gd1439 2.353 . S
O1478 C1495 1.242 . S
O1479 Gd1439 2.468 . S
O1479 C1503 1.263 . S
O1480 Gd1439 2.427 . S
O1480 C1503 1.252 . S
O1481 Gd1438 2.307 . S
O1481 C1496 1.261 . S
O1482 Gd1439 2.388 . S
O1482 C1496 1.252 . S
C1483 O1471 1.265 . S
C1483 O1472 1.242 . S
C1484 O1475 1.261 . S
C1484 O1476 1.252 . S
C1485 C1488 1.394 . S
C1485 C1490 1.370 . S
C1485 C1491 1.500 . S
C1486 C1489 1.383 . S
C1486 C1490 1.395 . S
C1487 C1488 1.396 . S
C1487 C1489 1.365 . S
C1487 H1504 0.929 . S
C1488 C1485 1.394 . S
C1488 C1487 1.396 . S
C1488 H1505 0.930 . S
C1489 C1486 1.383 . S
C1489 C1487 1.365 . S
C1489 H1506 0.931 . S
C1490 C1485 1.370 . S
C1490 C1486 1.395 . S
C1490 H1507 0.930 . S
C1491 Gd1438 2.805 . S
C1491 O1473 1.263 . S
C1491 O1474 1.252 . S
C1491 C1485 1.500 . S
C1492 H1454 0.930 . S
C1492 C1468 1.417 . S
C1492 C1493 1.329 . S
C1493 C1463 1.437 . S
C1493 H1464 0.929 . S
C1493 C1492 1.329 . S
H1494 C1467 0.931 . S
C1495 O1477 1.265 . S
C1495 O1478 1.242 . S
C1496 O1481 1.261 . S
C1496 O1482 1.252 . S
C1497 C1500 1.394 . S
C1497 C1502 1.370 . S
C1497 C1503 1.500 . S
C1498 C1501 1.383 . S
C1498 C1502 1.395 . S
C1499 C1500 1.396 . S
C1499 C1501 1.365 . S
C1499 H1508 0.929 . S
C1500 C1497 1.394 . S
C1500 C1499 1.396 . S
C1500 H1509 0.930 . S
C1501 C1498 1.383 . S
C1501 C1499 1.365 . S
C1501 H1510 0.931 . S
C1502 C1497 1.370 . S
C1502 C1498 1.395 . S
C1502 H1511 0.930 . S
C1503 Gd1439 2.805 . S
C1503 O1479 1.263 . S
C1503 O1480 1.252 . S
C1503 C1497 1.500 . S
H1504 C1487 0.929 . S
H1505 C1488 0.930 . S
H1506 C1489 0.931 . S
H1507 C1490 0.930 . S
H1508 C1499 0.929 . S
H1509 C1500 0.930 . S
H1510 C1501 0.931 . S
H1511 C1502 0.930 . S
C1512 C1514 1.422 . S
C1512 C1516 1.415 . S
C1512 N1518 1.369 . S
C1513 C1514 1.421 . S
C1513 C1515 1.417 . S
C1513 C1525 1.422 . S
C1514 C1512 1.422 . S
C1514 C1513 1.421 . S
C1514 N1524 1.359 . S
C1515 C1513 1.417 . S
C1515 C1517 1.329 . S
C1515 H1534 0.930 . S
C1516 C1512 1.415 . S
C1516 C1517 1.437 . S
C1516 C1520 1.413 . S
C1517 C1515 1.329 . S
C1517 C1516 1.437 . S
C1517 H1539 0.929 . S
N1518 C1512 1.369 . S
N1518 C1519 1.338 . S
N1518 Gd1523 2.622 . S
C1519 N1518 1.338 . S
C1519 C1521 1.378 . S
C1519 H1531 0.929 . S
C1520 C1516 1.413 . S
C1520 C1521 1.348 . S
C1520 H1536 0.931 . S
C1521 C1519 1.378 . S
C1521 C1520 1.348 . S
C1521 H1537 0.930 . S
Gd1522 N1542 2.622 . S
Gd1522 N1549 2.570 . S
Gd1522 O1556 2.353 . S
Gd1522 O1557 2.468 . S
Gd1522 O1558 2.427 . S
Gd1522 O1560 2.388 . S
Gd1522 O1561 2.386 . S
Gd1522 O1565 2.307 . S
Gd1522 C1575 2.805 . S
Gd1523 N1518 2.622 . S
Gd1523 N1524 2.570 . S
Gd1523 O1555 2.386 . S
Gd1523 O1559 2.307 . S
Gd1523 O1562 2.353 . S
Gd1523 O1563 2.468 . S
Gd1523 O1564 2.427 . S
Gd1523 O1566 2.388 . S
Gd1523 C1587 2.805 . S
N1524 C1514 1.359 . S
N1524 Gd1523 2.570 . S
N1524 C1526 1.343 . S
C1525 C1513 1.422 . S
C1525 C1527 1.321 . S
C1525 H1533 0.931 . S
C1526 N1524 1.343 . S
C1526 C1527 1.390 . S
C1526 H1528 0.931 . S
C1527 C1525 1.321 . S
C1527 C1526 1.390 . S
C1527 H1529 0.930 . S
H1528 C1526 0.931 . S
H1529 C1527 0.930 . S
H1530 C1553 0.931 . S
H1531 C1519 0.929 . S
H1532 C1554 0.930 . S
H1533 C1525 0.931 . S
H1534 C1515 0.930 . S
H1535 C1544 0.929 . S
H1536 C1520 0.931 . S
H1537 C1521 0.930 . S
H1538 C1576 0.930 . S
H1539 C1517 0.929 . S
H1540 C1545 0.931 . S
H1541 C1546 0.930 . S
N1542 Gd1522 2.622 . S
N1542 C1543 1.369 . S
N1542 C1544 1.338 . S
C1543 N1542 1.369 . S
C1543 C1547 1.415 . S
C1543 C1550 1.422 . S
C1544 H1535 0.929 . S
C1544 N1542 1.338 . S
C1544 C1546 1.378 . S
C1545 H1540 0.931 . S
C1545 C1546 1.348 . S
C1545 C1547 1.413 . S
C1546 H1541 0.930 . S
C1546 C1544 1.378 . S
C1546 C1545 1.348 . S
C1547 C1543 1.415 . S
C1547 C1545 1.413 . S
C1547 C1577 1.437 . S
H1548 C1577 0.929 . S
N1549 Gd1522 2.570 . S
N1549 C1550 1.359 . S
N1549 C1553 1.343 . S
C1550 C1543 1.422 . S
C1550 N1549 1.359 . S
C1550 C1552 1.421 . S
C1551 C1552 1.422 . S
C1551 C1554 1.321 . S
C1551 H1578 0.931 . S
C1552 C1550 1.421 . S
C1552 C1551 1.422 . S
C1552 C1576 1.417 . S
C1553 H1530 0.931 . S
C1553 N1549 1.343 . S
C1553 C1554 1.390 . S
C1554 H1532 0.930 . S
C1554 C1551 1.321 . S
C1554 C1553 1.390 . S
O1555 Gd1523 2.386 . S
O1555 C1567 1.265 . S
O1556 Gd1522 2.353 . S
O1556 C1567 1.242 . S
O1557 Gd1522 2.468 . S
O1557 C1575 1.263 . S
O1558 Gd1522 2.427 . S
O1558 C1575 1.252 . S
O1559 Gd1523 2.307 . S
O1559 C1568 1.261 . S
O1560 Gd1522 2.388 . S
O1560 C1568 1.252 . S
O1561 Gd1522 2.386 . S
O1561 C1579 1.265 . S
O1562 Gd1523 2.353 . S
O1562 C1579 1.242 . S
O1563 Gd1523 2.468 . S
O1563 C1587 1.263 . S
O1564 Gd1523 2.427 . S
O1564 C1587 1.252 . S
O1565 Gd1522 2.307 . S
O1565 C1580 1.261 . S
O1566 Gd1523 2.388 . S
O1566 C1580 1.252 . S
C1567 O1555 1.265 . S
C1567 O1556 1.242 . S
C1568 O1559 1.261 . S
C1568 O1560 1.252 . S
C1569 C1572 1.394 . S
C1569 C1574 1.370 . S
C1569 C1575 1.500 . S
C1570 C1573 1.383 . S
C1570 C1574 1.395 . S
C1571 C1572 1.396 . S
C1571 C1573 1.365 . S
C1571 H1588 0.929 . S
C1572 C1569 1.394 . S
C1572 C1571 1.396 . S
C1572 H1589 0.930 . S
C1573 C1570 1.383 . S
C1573 C1571 1.365 . S
C1573 H1590 0.931 . S
C1574 C1569 1.370 . S
C1574 C1570 1.395 . S
C1574 H1591 0.930 . S
C1575 Gd1522 2.805 . S
C1575 O1557 1.263 . S
C1575 O1558 1.252 . S
C1575 C1569 1.500 . S
C1576 H1538 0.930 . S
C1576 C1552 1.417 . S
C1576 C1577 1.329 . S
C1577 C1547 1.437 . S
C1577 H1548 0.929 . S
C1577 C1576 1.329 . S
H1578 C1551 0.931 . S
C1579 O1561 1.265 . S
C1579 O1562 1.242 . S
C1580 O1565 1.261 . S
C1580 O1566 1.252 . S
C1581 C1584 1.394 . S
C1581 C1586 1.370 . S
C1581 C1587 1.500 . S
C1582 C1585 1.383 . S
C1582 C1586 1.395 . S
C1583 C1584 1.396 . S
C1583 C1585 1.365 . S
C1583 H1592 0.929 . S
C1584 C1581 1.394 . S
C1584 C1583 1.396 . S
C1584 H1593 0.930 . S
C1585 C1582 1.383 . S
C1585 C1583 1.365 . S
C1585 H1594 0.931 . S
C1586 C1581 1.370 . S
C1586 C1582 1.395 . S
C1586 H1595 0.930 . S
C1587 Gd1523 2.805 . S
C1587 O1563 1.263 . S
C1587 O1564 1.252 . S
C1587 C1581 1.500 . S
H1588 C1571 0.929 . S
H1589 C1572 0.930 . S
H1590 C1573 0.931 . S
H1591 C1574 0.930 . S
H1592 C1583 0.929 . S
H1593 C1584 0.930 . S
H1594 C1585 0.931 . S
H1595 C1586 0.930 . S
C1596 C1598 1.422 . S
C1596 C1600 1.415 . S
C1596 N1602 1.369 . S
C1597 C1598 1.421 . S
C1597 C1599 1.417 . S
C1597 C1609 1.422 . S
C1598 C1596 1.422 . S
C1598 C1597 1.421 . S
C1598 N1608 1.359 . S
C1599 C1597 1.417 . S
C1599 C1601 1.329 . S
C1599 H1618 0.930 . S
C1600 C1596 1.415 . S
C1600 C1601 1.437 . S
C1600 C1604 1.413 . S
C1601 C1599 1.329 . S
C1601 C1600 1.437 . S
C1601 H1623 0.929 . S
N1602 C1596 1.369 . S
N1602 C1603 1.338 . S
N1602 Gd1607 2.622 . S
C1603 N1602 1.338 . S
C1603 C1605 1.378 . S
C1603 H1615 0.929 . S
C1604 C1600 1.413 . S
C1604 C1605 1.348 . S
C1604 H1620 0.931 . S
C1605 C1603 1.378 . S
C1605 C1604 1.348 . S
C1605 H1621 0.930 . S
Gd1606 N1626 2.622 . S
Gd1606 N1633 2.570 . S
Gd1606 O1640 2.353 . S
Gd1606 O1641 2.468 . S
Gd1606 O1642 2.427 . S
Gd1606 O1644 2.388 . S
Gd1606 O1645 2.386 . S
Gd1606 O1649 2.307 . S
Gd1606 C1659 2.805 . S
Gd1607 N1602 2.622 . S
Gd1607 N1608 2.570 . S
Gd1607 O1639 2.386 . S
Gd1607 O1643 2.307 . S
Gd1607 O1646 2.353 . S
Gd1607 O1647 2.468 . S
Gd1607 O1648 2.427 . S
Gd1607 O1650 2.388 . S
Gd1607 C1671 2.805 . S
N1608 C1598 1.359 . S
N1608 Gd1607 2.570 . S
N1608 C1610 1.343 . S
C1609 C1597 1.422 . S
C1609 C1611 1.321 . S
C1609 H1617 0.931 . S
C1610 N1608 1.343 . S
C1610 C1611 1.390 . S
C1610 H1612 0.931 . S
C1611 C1609 1.321 . S
C1611 C1610 1.390 . S
C1611 H1613 0.930 . S
H1612 C1610 0.931 . S
H1613 C1611 0.930 . S
H1614 C1637 0.931 . S
H1615 C1603 0.929 . S
H1616 C1638 0.930 . S
H1617 C1609 0.931 . S
H1618 C1599 0.930 . S
H1619 C1628 0.929 . S
H1620 C1604 0.931 . S
H1621 C1605 0.930 . S
H1622 C1660 0.930 . S
H1623 C1601 0.929 . S
H1624 C1629 0.931 . S
H1625 C1630 0.930 . S
N1626 Gd1606 2.622 . S
N1626 C1627 1.369 . S
N1626 C1628 1.338 . S
C1627 N1626 1.369 . S
C1627 C1631 1.415 . S
C1627 C1634 1.422 . S
C1628 H1619 0.929 . S
C1628 N1626 1.338 . S
C1628 C1630 1.378 . S
C1629 H1624 0.931 . S
C1629 C1630 1.348 . S
C1629 C1631 1.413 . S
C1630 H1625 0.930 . S
C1630 C1628 1.378 . S
C1630 C1629 1.348 . S
C1631 C1627 1.415 . S
C1631 C1629 1.413 . S
C1631 C1661 1.437 . S
H1632 C1661 0.929 . S
N1633 Gd1606 2.570 . S
N1633 C1634 1.359 . S
N1633 C1637 1.343 . S
C1634 C1627 1.422 . S
C1634 N1633 1.359 . S
C1634 C1636 1.421 . S
C1635 C1636 1.422 . S
C1635 C1638 1.321 . S
C1635 H1662 0.931 . S
C1636 C1634 1.421 . S
C1636 C1635 1.422 . S
C1636 C1660 1.417 . S
C1637 H1614 0.931 . S
C1637 N1633 1.343 . S
C1637 C1638 1.390 . S
C1638 H1616 0.930 . S
C1638 C1635 1.321 . S
C1638 C1637 1.390 . S
O1639 Gd1607 2.386 . S
O1639 C1651 1.265 . S
O1640 Gd1606 2.353 . S
O1640 C1651 1.242 . S
O1641 Gd1606 2.468 . S
O1641 C1659 1.263 . S
O1642 Gd1606 2.427 . S
O1642 C1659 1.252 . S
O1643 Gd1607 2.307 . S
O1643 C1652 1.261 . S
O1644 Gd1606 2.388 . S
O1644 C1652 1.252 . S
O1645 Gd1606 2.386 . S
O1645 C1663 1.265 . S
O1646 Gd1607 2.353 . S
O1646 C1663 1.242 . S
O1647 Gd1607 2.468 . S
O1647 C1671 1.263 . S
O1648 Gd1607 2.427 . S
O1648 C1671 1.252 . S
O1649 Gd1606 2.307 . S
O1649 C1664 1.261 . S
O1650 Gd1607 2.388 . S
O1650 C1664 1.252 . S
C1651 O1639 1.265 . S
C1651 O1640 1.242 . S
C1652 O1643 1.261 . S
C1652 O1644 1.252 . S
C1653 C1656 1.394 . S
C1653 C1658 1.370 . S
C1653 C1659 1.500 . S
C1654 C1657 1.383 . S
C1654 C1658 1.395 . S
C1655 C1656 1.396 . S
C1655 C1657 1.365 . S
C1655 H1672 0.929 . S
C1656 C1653 1.394 . S
C1656 C1655 1.396 . S
C1656 H1673 0.930 . S
C1657 C1654 1.383 . S
C1657 C1655 1.365 . S
C1657 H1674 0.931 . S
C1658 C1653 1.370 . S
C1658 C1654 1.395 . S
C1658 H1675 0.930 . S
C1659 Gd1606 2.805 . S
C1659 O1641 1.263 . S
C1659 O1642 1.252 . S
C1659 C1653 1.500 . S
C1660 H1622 0.930 . S
C1660 C1636 1.417 . S
C1660 C1661 1.329 . S
C1661 C1631 1.437 . S
C1661 H1632 0.929 . S
C1661 C1660 1.329 . S
H1662 C1635 0.931 . S
C1663 O1645 1.265 . S
C1663 O1646 1.242 . S
C1664 O1649 1.261 . S
C1664 O1650 1.252 . S
C1665 C1668 1.394 . S
C1665 C1670 1.370 . S
C1665 C1671 1.500 . S
C1666 C1669 1.383 . S
C1666 C1670 1.395 . S
C1667 C1668 1.396 . S
C1667 C1669 1.365 . S
C1667 H1676 0.929 . S
C1668 C1665 1.394 . S
C1668 C1667 1.396 . S
C1668 H1677 0.930 . S
C1669 C1666 1.383 . S
C1669 C1667 1.365 . S
C1669 H1678 0.931 . S
C1670 C1665 1.370 . S
C1670 C1666 1.395 . S
C1670 H1679 0.930 . S
C1671 Gd1607 2.805 . S
C1671 O1647 1.263 . S
C1671 O1648 1.252 . S
C1671 C1665 1.500 . S
H1672 C1655 0.929 . S
H1673 C1656 0.930 . S
H1674 C1657 0.931 . S
H1675 C1658 0.930 . S
H1676 C1667 0.929 . S
H1677 C1668 0.930 . S
H1678 C1669 0.931 . S
H1679 C1670 0.930 . S
C1680 C1682 1.422 . S
C1680 C1684 1.415 . S
C1680 N1686 1.369 . S
C1681 C1682 1.421 . S
C1681 C1683 1.417 . S
C1681 C1693 1.422 . S
C1682 C1680 1.422 . S
C1682 C1681 1.421 . S
C1682 N1692 1.359 . S
C1683 C1681 1.417 . S
C1683 C1685 1.329 . S
C1683 H1702 0.930 . S
C1684 C1680 1.415 . S
C1684 C1685 1.437 . S
C1684 C1688 1.413 . S
C1685 C1683 1.329 . S
C1685 C1684 1.437 . S
C1685 H1707 0.929 . S
N1686 C1680 1.369 . S
N1686 C1687 1.338 . S
N1686 Gd1691 2.622 . S
C1687 N1686 1.338 . S
C1687 C1689 1.378 . S
C1687 H1699 0.929 . S
C1688 C1684 1.413 . S
C1688 C1689 1.348 . S
C1688 H1704 0.931 . S
C1689 C1687 1.378 . S
C1689 C1688 1.348 . S
C1689 H1705 0.930 . S
Gd1690 N1710 2.622 . S
Gd1690 N1717 2.570 . S
Gd1690 O1724 2.353 . S
Gd1690 O1725 2.468 . S
Gd1690 O1726 2.427 . S
Gd1690 O1728 2.388 . S
Gd1690 O1729 2.386 . S
Gd1690 O1733 2.307 . S
Gd1690 C1743 2.805 . S
Gd1691 N1686 2.622 . S
Gd1691 N1692 2.570 . S
Gd1691 O1723 2.386 . S
Gd1691 O1727 2.307 . S
Gd1691 O1730 2.353 . S
Gd1691 O1731 2.468 . S
Gd1691 O1732 2.427 . S
Gd1691 O1734 2.388 . S
Gd1691 C1755 2.805 . S
N1692 C1682 1.359 . S
N1692 Gd1691 2.570 . S
N1692 C1694 1.343 . S
C1693 C1681 1.422 . S
C1693 C1695 1.321 . S
C1693 H1701 0.931 . S
C1694 N1692 1.343 . S
C1694 C1695 1.390 . S
C1694 H1696 0.931 . S
C1695 C1693 1.321 . S
C1695 C1694 1.390 . S
C1695 H1697 0.930 . S
H1696 C1694 0.931 . S
H1697 C1695 0.930 . S
H1698 C1721 0.931 . S
H1699 C1687 0.929 . S
H1700 C1722 0.930 . S
H1701 C1693 0.931 . S
H1702 C1683 0.930 . S
H1703 C1712 0.929 . S
H1704 C1688 0.931 . S
H1705 C1689 0.930 . S
H1706 C1744 0.930 . S
H1707 C1685 0.929 . S
H1708 C1713 0.931 . S
H1709 C1714 0.930 . S
N1710 Gd1690 2.622 . S
N1710 C1711 1.369 . S
N1710 C1712 1.338 . S
C1711 N1710 1.369 . S
C1711 C1715 1.415 . S
C1711 C1718 1.422 . S
C1712 H1703 0.929 . S
C1712 N1710 1.338 . S
C1712 C1714 1.378 . S
C1713 H1708 0.931 . S
C1713 C1714 1.348 . S
C1713 C1715 1.413 . S
C1714 H1709 0.930 . S
C1714 C1712 1.378 . S
C1714 C1713 1.348 . S
C1715 C1711 1.415 . S
C1715 C1713 1.413 . S
C1715 C1745 1.437 . S
H1716 C1745 0.929 . S
N1717 Gd1690 2.570 . S
N1717 C1718 1.359 . S
N1717 C1721 1.343 . S
C1718 C1711 1.422 . S
C1718 N1717 1.359 . S
C1718 C1720 1.421 . S
C1719 C1720 1.422 . S
C1719 C1722 1.321 . S
C1719 H1746 0.931 . S
C1720 C1718 1.421 . S
C1720 C1719 1.422 . S
C1720 C1744 1.417 . S
C1721 H1698 0.931 . S
C1721 N1717 1.343 . S
C1721 C1722 1.390 . S
C1722 H1700 0.930 . S
C1722 C1719 1.321 . S
C1722 C1721 1.390 . S
O1723 Gd1691 2.386 . S
O1723 C1735 1.265 . S
O1724 Gd1690 2.353 . S
O1724 C1735 1.242 . S
O1725 Gd1690 2.468 . S
O1725 C1743 1.263 . S
O1726 Gd1690 2.427 . S
O1726 C1743 1.252 . S
O1727 Gd1691 2.307 . S
O1727 C1736 1.261 . S
O1728 Gd1690 2.388 . S
O1728 C1736 1.252 . S
O1729 Gd1690 2.386 . S
O1729 C1747 1.265 . S
O1730 Gd1691 2.353 . S
O1730 C1747 1.242 . S
O1731 Gd1691 2.468 . S
O1731 C1755 1.263 . S
O1732 Gd1691 2.427 . S
O1732 C1755 1.252 . S
O1733 Gd1690 2.307 . S
O1733 C1748 1.261 . S
O1734 Gd1691 2.388 . S
O1734 C1748 1.252 . S
C1735 O1723 1.265 . S
C1735 O1724 1.242 . S
C1736 O1727 1.261 . S
C1736 O1728 1.252 . S
C1737 C1740 1.394 . S
C1737 C1742 1.370 . S
C1737 C1743 1.500 . S
C1738 C1741 1.383 . S
C1738 C1742 1.395 . S
C1739 C1740 1.396 . S
C1739 C1741 1.365 . S
C1739 H1756 0.929 . S
C1740 C1737 1.394 . S
C1740 C1739 1.396 . S
C1740 H1757 0.930 . S
C1741 C1738 1.383 . S
C1741 C1739 1.365 . S
C1741 H1758 0.931 . S
C1742 C1737 1.370 . S
C1742 C1738 1.395 . S
C1742 H1759 0.930 . S
C1743 Gd1690 2.805 . S
C1743 O1725 1.263 . S
C1743 O1726 1.252 . S
C1743 C1737 1.500 . S
C1744 H1706 0.930 . S
C1744 C1720 1.417 . S
C1744 C1745 1.329 . S
C1745 C1715 1.437 . S
C1745 H1716 0.929 . S
C1745 C1744 1.329 . S
H1746 C1719 0.931 . S
C1747 O1729 1.265 . S
C1747 O1730 1.242 . S
C1748 O1733 1.261 . S
C1748 O1734 1.252 . S
C1749 C1752 1.394 . S
C1749 C1754 1.370 . S
C1749 C1755 1.500 . S
C1750 C1753 1.383 . S
C1750 C1754 1.395 . S
C1751 C1752 1.396 . S
C1751 C1753 1.365 . S
C1751 H1760 0.929 . S
C1752 C1749 1.394 . S
C1752 C1751 1.396 . S
C1752 H1761 0.930 . S
C1753 C1750 1.383 . S
C1753 C1751 1.365 . S
C1753 H1762 0.931 . S
C1754 C1749 1.370 . S
C1754 C1750 1.395 . S
C1754 H1763 0.930 . S
C1755 Gd1691 2.805 . S
C1755 O1731 1.263 . S
C1755 O1732 1.252 . S
C1755 C1749 1.500 . S
H1756 C1739 0.929 . S
H1757 C1740 0.930 . S
H1758 C1741 0.931 . S
H1759 C1742 0.930 . S
H1760 C1751 0.929 . S
H1761 C1752 0.930 . S
H1762 C1753 0.931 . S
H1763 C1754 0.930 . S
C1764 C1766 1.422 . S
C1764 C1768 1.415 . S
C1764 N1770 1.369 . S
C1765 C1766 1.421 1_554 S
C1765 C1767 1.417 . S
C1765 C1777 1.422 . S
C1766 C1764 1.422 . S
C1766 C1765 1.421 1_556 S
C1766 N1776 1.359 . S
C1767 C1765 1.417 . S
C1767 C1769 1.329 1_554 S
C1767 H1786 0.930 . S
C1768 C1764 1.415 . S
C1768 C1769 1.437 . S
C1768 C1772 1.413 . S
C1769 C1767 1.329 1_556 S
C1769 C1768 1.437 . S
C1769 H1791 0.929 . S
N1770 C1764 1.369 . S
N1770 C1771 1.338 . S
N1770 Gd1775 2.622 . S
C1771 N1770 1.338 . S
C1771 C1773 1.378 . S
C1771 H1783 0.929 . S
C1772 C1768 1.413 . S
C1772 C1773 1.348 . S
C1772 H1788 0.931 . S
C1773 C1771 1.378 . S
C1773 C1772 1.348 . S
C1773 H1789 0.930 . S
Gd1774 N1794 2.622 . S
Gd1774 N1801 2.570 . S
Gd1774 O1808 2.353 . S
Gd1774 O1809 2.468 . S
Gd1774 O1810 2.427 . S
Gd1774 O1812 2.388 . S
Gd1774 O1813 2.386 . S
Gd1774 O1817 2.307 . S
Gd1774 C1827 2.805 . S
Gd1775 N1770 2.622 . S
Gd1775 N1776 2.570 . S
Gd1775 O1807 2.386 . S
Gd1775 O1811 2.307 . S
Gd1775 O1814 2.353 . S
Gd1775 O1815 2.468 . S
Gd1775 O1816 2.427 . S
Gd1775 O1818 2.388 . S
Gd1775 C1839 2.805 . S
N1776 C1766 1.359 . S
N1776 Gd1775 2.570 . S
N1776 C1778 1.343 . S
C1777 C1765 1.422 . S
C1777 C1779 1.321 . S
C1777 H1785 0.931 . S
C1778 N1776 1.343 . S
C1778 C1779 1.390 1_556 S
C1778 H1780 0.931 . S
C1779 C1777 1.321 . S
C1779 C1778 1.390 1_554 S
C1779 H1781 0.930 . S
H1780 C1778 0.931 . S
H1781 C1779 0.930 . S
H1782 C1805 0.931 . S
H1783 C1771 0.929 . S
H1784 C1806 0.930 . S
H1785 C1777 0.931 . S
H1786 C1767 0.930 . S
H1787 C1796 0.929 . S
H1788 C1772 0.931 . S
H1789 C1773 0.930 . S
H1790 C1828 0.930 . S
H1791 C1769 0.929 . S
H1792 C1797 0.931 . S
H1793 C1798 0.930 . S
N1794 Gd1774 2.622 . S
N1794 C1795 1.369 . S
N1794 C1796 1.338 . S
C1795 N1794 1.369 . S
C1795 C1799 1.415 1_545 S
C1795 C1802 1.422 . S
C1796 H1787 0.929 . S
C1796 N1794 1.338 . S
C1796 C1798 1.378 1_545 S
C1797 H1792 0.931 . S
C1797 C1798 1.348 . S
C1797 C1799 1.413 . S
C1798 H1793 0.930 . S
C1798 C1796 1.378 1_565 S
C1798 C1797 1.348 . S
C1799 C1795 1.415 1_565 S
C1799 C1797 1.413 . S
C1799 C1829 1.437 . S
H1800 C1829 0.929 . S
N1801 Gd1774 2.570 . S
N1801 C1802 1.359 . S
N1801 C1805 1.343 . S
C1802 C1795 1.422 . S
C1802 N1801 1.359 . S
C1802 C1804 1.421 . S
C1803 C1804 1.422 . S
C1803 C1806 1.321 . S
C1803 H1830 0.931 . S
C1804 C1802 1.421 . S
C1804 C1803 1.422 . S
C1804 C1828 1.417 1_545 S
C1805 H1782 0.931 . S
C1805 N1801 1.343 . S
C1805 C1806 1.390 . S
C1806 H1784 0.930 . S
C1806 C1803 1.321 . S
C1806 C1805 1.390 . S
O1807 Gd1775 2.386 . S
O1807 C1819 1.265 . S
O1808 Gd1774 2.353 . S
O1808 C1819 1.242 . S
O1809 Gd1774 2.468 . S
O1809 C1827 1.263 . S
O1810 Gd1774 2.427 . S
O1810 C1827 1.252 . S
O1811 Gd1775 2.307 . S
O1811 C1820 1.261 . S
O1812 Gd1774 2.388 . S
O1812 C1820 1.252 . S
O1813 Gd1774 2.386 . S
O1813 C1831 1.265 . S
O1814 Gd1775 2.353 . S
O1814 C1831 1.242 . S
O1815 Gd1775 2.468 . S
O1815 C1839 1.263 . S
O1816 Gd1775 2.427 . S
O1816 C1839 1.252 . S
O1817 Gd1774 2.307 . S
O1817 C1832 1.261 . S
O1818 Gd1775 2.388 . S
O1818 C1832 1.252 . S
C1819 O1807 1.265 . S
C1819 O1808 1.242 . S
C1820 O1811 1.261 . S
C1820 O1812 1.252 . S
C1821 C1824 1.394 . S
C1821 C1826 1.370 . S
C1821 C1827 1.500 . S
C1822 C1825 1.383 . S
C1822 C1826 1.395 . S
C1823 C1824 1.396 . S
C1823 C1825 1.365 . S
C1823 H1840 0.929 1_556 S
C1824 C1821 1.394 . S
C1824 C1823 1.396 . S
C1824 H1841 0.930 . S
C1825 C1822 1.383 . S
C1825 C1823 1.365 . S
C1825 H1842 0.931 . S
C1826 C1821 1.370 . S
C1826 C1822 1.395 . S
C1826 H1843 0.930 . S
C1827 Gd1774 2.805 . S
C1827 O1809 1.263 . S
C1827 O1810 1.252 . S
C1827 C1821 1.500 . S
C1828 H1790 0.930 . S
C1828 C1804 1.417 1_565 S
C1828 C1829 1.329 . S
C1829 C1799 1.437 . S
C1829 H1800 0.929 . S
C1829 C1828 1.329 . S
H1830 C1803 0.931 . S
C1831 O1813 1.265 . S
C1831 O1814 1.242 . S
C1832 O1817 1.261 . S
C1832 O1818 1.252 . S
C1833 C1836 1.394 . S
C1833 C1838 1.370 . S
C1833 C1839 1.500 . S
C1834 C1837 1.383 . S
C1834 C1838 1.395 . S
C1835 C1836 1.396 . S
C1835 C1837 1.365 . S
C1835 H1844 0.929 . S
C1836 C1833 1.394 . S
C1836 C1835 1.396 . S
C1836 H1845 0.930 . S
C1837 C1834 1.383 . S
C1837 C1835 1.365 . S
C1837 H1846 0.931 . S
C1838 C1833 1.370 . S
C1838 C1834 1.395 . S
C1838 H1847 0.930 . S
C1839 Gd1775 2.805 . S
C1839 O1815 1.263 . S
C1839 O1816 1.252 . S
C1839 C1833 1.500 . S
H1840 C1823 0.929 1_554 S
H1841 C1824 0.930 . S
H1842 C1825 0.931 . S
H1843 C1826 0.930 . S
H1844 C1835 0.929 . S
H1845 C1836 0.930 . S
H1846 C1837 0.931 . S
H1847 C1838 0.930 . S
C1848 C1850 1.422 . S
C1848 C1852 1.415 . S
C1848 N1854 1.369 . S
C1849 C1850 1.421 1_554 S
C1849 C1851 1.417 . S
C1849 C1861 1.422 . S
C1850 C1848 1.422 . S
C1850 C1849 1.421 1_556 S
C1850 N1860 1.359 . S
C1851 C1849 1.417 . S
C1851 C1853 1.329 1_554 S
C1851 H1870 0.930 . S
C1852 C1848 1.415 . S
C1852 C1853 1.437 . S
C1852 C1856 1.413 . S
C1853 C1851 1.329 1_556 S
C1853 C1852 1.437 . S
C1853 H1875 0.929 . S
N1854 C1848 1.369 . S
N1854 C1855 1.338 . S
N1854 Gd1859 2.622 . S
C1855 N1854 1.338 . S
C1855 C1857 1.378 . S
C1855 H1867 0.929 . S
C1856 C1852 1.413 . S
C1856 C1857 1.348 . S
C1856 H1872 0.931 . S
C1857 C1855 1.378 . S
C1857 C1856 1.348 . S
C1857 H1873 0.930 . S
Gd1858 N1878 2.622 . S
Gd1858 N1885 2.570 . S
Gd1858 O1892 2.353 . S
Gd1858 O1893 2.468 . S
Gd1858 O1894 2.427 . S
Gd1858 O1896 2.388 . S
Gd1858 O1897 2.386 . S
Gd1858 O1901 2.307 . S
Gd1858 C1911 2.805 . S
Gd1859 N1854 2.622 . S
Gd1859 N1860 2.570 . S
Gd1859 O1891 2.386 . S
Gd1859 O1895 2.307 . S
Gd1859 O1898 2.353 . S
Gd1859 O1899 2.468 . S
Gd1859 O1900 2.427 . S
Gd1859 O1902 2.388 . S
Gd1859 C1923 2.805 . S
N1860 C1850 1.359 . S
N1860 Gd1859 2.570 . S
N1860 C1862 1.343 . S
C1861 C1849 1.422 . S
C1861 C1863 1.321 . S
C1861 H1869 0.931 . S
C1862 N1860 1.343 . S
C1862 C1863 1.390 1_556 S
C1862 H1864 0.931 . S
C1863 C1861 1.321 . S
C1863 C1862 1.390 1_554 S
C1863 H1865 0.930 . S
H1864 C1862 0.931 . S
H1865 C1863 0.930 . S
H1866 C1889 0.931 . S
H1867 C1855 0.929 . S
H1868 C1890 0.930 . S
H1869 C1861 0.931 . S
H1870 C1851 0.930 . S
H1871 C1880 0.929 . S
H1872 C1856 0.931 . S
H1873 C1857 0.930 . S
H1874 C1912 0.930 . S
H1875 C1853 0.929 . S
H1876 C1881 0.931 . S
H1877 C1882 0.930 . S
N1878 Gd1858 2.622 . S
N1878 C1879 1.369 . S
N1878 C1880 1.338 . S
C1879 N1878 1.369 . S
C1879 C1883 1.415 1_655 S
C1879 C1886 1.422 . S
C1880 H1871 0.929 . S
C1880 N1878 1.338 . S
C1880 C1882 1.378 1_655 S
C1881 H1876 0.931 . S
C1881 C1882 1.348 . S
C1881 C1883 1.413 . S
C1882 H1877 0.930 . S
C1882 C1880 1.378 1_455 S
C1882 C1881 1.348 . S
C1883 C1879 1.415 1_455 S
C1883 C1881 1.413 . S
C1883 C1913 1.437 . S
H1884 C1913 0.929 . S
N1885 Gd1858 2.570 . S
N1885 C1886 1.359 . S
N1885 C1889 1.343 . S
C1886 C1879 1.422 . S
C1886 N1885 1.359 . S
C1886 C1888 1.421 . S
C1887 C1888 1.422 . S
C1887 C1890 1.321 . S
C1887 H1914 0.931 . S
C1888 C1886 1.421 . S
C1888 C1887 1.422 . S
C1888 C1912 1.417 1_655 S
C1889 H1866 0.931 . S
C1889 N1885 1.343 . S
C1889 C1890 1.390 . S
C1890 H1868 0.930 . S
C1890 C1887 1.321 . S
C1890 C1889 1.390 . S
O1891 Gd1859 2.386 . S
O1891 C1903 1.265 . S
O1892 Gd1858 2.353 . S
O1892 C1903 1.242 . S
O1893 Gd1858 2.468 . S
O1893 C1911 1.263 . S
O1894 Gd1858 2.427 . S
O1894 C1911 1.252 . S
O1895 Gd1859 2.307 . S
O1895 C1904 1.261 . S
O1896 Gd1858 2.388 . S
O1896 C1904 1.252 . S
O1897 Gd1858 2.386 . S
O1897 C1915 1.265 . S
O1898 Gd1859 2.353 . S
O1898 C1915 1.242 . S
O1899 Gd1859 2.468 . S
O1899 C1923 1.263 . S
O1900 Gd1859 2.427 . S
O1900 C1923 1.252 . S
O1901 Gd1858 2.307 . S
O1901 C1916 1.261 . S
O1902 Gd1859 2.388 . S
O1902 C1916 1.252 . S
C1903 O1891 1.265 . S
C1903 O1892 1.242 . S
C1904 O1895 1.261 . S
C1904 O1896 1.252 . S
C1905 C1908 1.394 . S
C1905 C1910 1.370 . S
C1905 C1911 1.500 . S
C1906 C1909 1.383 . S
C1906 C1910 1.395 . S
C1907 C1908 1.396 . S
C1907 C1909 1.365 . S
C1907 H1924 0.929 1_556 S
C1908 C1905 1.394 . S
C1908 C1907 1.396 . S
C1908 H1925 0.930 . S
C1909 C1906 1.383 . S
C1909 C1907 1.365 . S
C1909 H1926 0.931 . S
C1910 C1905 1.370 . S
C1910 C1906 1.395 . S
C1910 H1927 0.930 . S
C1911 Gd1858 2.805 . S
C1911 O1893 1.263 . S
C1911 O1894 1.252 . S
C1911 C1905 1.500 . S
C1912 H1874 0.930 . S
C1912 C1888 1.417 1_455 S
C1912 C1913 1.329 . S
C1913 C1883 1.437 . S
C1913 H1884 0.929 . S
C1913 C1912 1.329 . S
H1914 C1887 0.931 . S
C1915 O1897 1.265 . S
C1915 O1898 1.242 . S
C1916 O1901 1.261 . S
C1916 O1902 1.252 . S
C1917 C1920 1.394 . S
C1917 C1922 1.370 . S
C1917 C1923 1.500 . S
C1918 C1921 1.383 . S
C1918 C1922 1.395 . S
C1919 C1920 1.396 . S
C1919 C1921 1.365 . S
C1919 H1928 0.929 . S
C1920 C1917 1.394 . S
C1920 C1919 1.396 . S
C1920 H1929 0.930 . S
C1921 C1918 1.383 . S
C1921 C1919 1.365 . S
C1921 H1930 0.931 . S
C1922 C1917 1.370 . S
C1922 C1918 1.395 . S
C1922 H1931 0.930 . S
C1923 Gd1859 2.805 . S
C1923 O1899 1.263 . S
C1923 O1900 1.252 . S
C1923 C1917 1.500 . S
H1924 C1907 0.929 1_554 S
H1925 C1908 0.930 . S
H1926 C1909 0.931 . S
H1927 C1910 0.930 . S
H1928 C1919 0.929 . S
H1929 C1920 0.930 . S
H1930 C1921 0.931 . S
H1931 C1922 0.930 . S
C1932 C1934 1.422 . S
C1932 C1936 1.415 . S
C1932 N1938 1.369 . S
C1933 C1934 1.421 1_554 S
C1933 C1935 1.417 . S
C1933 C1945 1.422 . S
C1934 C1932 1.422 . S
C1934 C1933 1.421 1_556 S
C1934 N1944 1.359 . S
C1935 C1933 1.417 . S
C1935 C1937 1.329 1_554 S
C1935 H1954 0.930 . S
C1936 C1932 1.415 . S
C1936 C1937 1.437 . S
C1936 C1940 1.413 . S
C1937 C1935 1.329 1_556 S
C1937 C1936 1.437 . S
C1937 H1959 0.929 . S
N1938 C1932 1.369 . S
N1938 C1939 1.338 . S
N1938 Gd1943 2.622 . S
C1939 N1938 1.338 . S
C1939 C1941 1.378 . S
C1939 H1951 0.929 . S
C1940 C1936 1.413 . S
C1940 C1941 1.348 . S
C1940 H1956 0.931 . S
C1941 C1939 1.378 . S
C1941 C1940 1.348 . S
C1941 H1957 0.930 . S
Gd1942 N1962 2.622 . S
Gd1942 N1969 2.570 . S
Gd1942 O1976 2.353 . S
Gd1942 O1977 2.468 . S
Gd1942 O1978 2.427 . S
Gd1942 O1980 2.388 . S
Gd1942 O1981 2.386 . S
Gd1942 O1985 2.307 . S
Gd1942 C1995 2.805 . S
Gd1943 N1938 2.622 . S
Gd1943 N1944 2.570 . S
Gd1943 O1975 2.386 . S
Gd1943 O1979 2.307 . S
Gd1943 O1982 2.353 . S
Gd1943 O1983 2.468 . S
Gd1943 O1984 2.427 . S
Gd1943 O1986 2.388 . S
Gd1943 C2007 2.805 . S
N1944 C1934 1.359 . S
N1944 Gd1943 2.570 . S
N1944 C1946 1.343 . S
C1945 C1933 1.422 . S
C1945 C1947 1.321 . S
C1945 H1953 0.931 . S
C1946 N1944 1.343 . S
C1946 C1947 1.390 1_556 S
C1946 H1948 0.931 . S
C1947 C1945 1.321 . S
C1947 C1946 1.390 1_554 S
C1947 H1949 0.930 . S
H1948 C1946 0.931 . S
H1949 C1947 0.930 . S
H1950 C1973 0.931 . S
H1951 C1939 0.929 . S
H1952 C1974 0.930 . S
H1953 C1945 0.931 . S
H1954 C1935 0.930 . S
H1955 C1964 0.929 . S
H1956 C1940 0.931 . S
H1957 C1941 0.930 . S
H1958 C1996 0.930 . S
H1959 C1937 0.929 . S
H1960 C1965 0.931 . S
H1961 C1966 0.930 . S
N1962 Gd1942 2.622 . S
N1962 C1963 1.369 . S
N1962 C1964 1.338 . S
C1963 N1962 1.369 . S
C1963 C1967 1.415 . S
C1963 C1970 1.422 . S
C1964 H1955 0.929 . S
C1964 N1962 1.338 . S
C1964 C1966 1.378 . S
C1965 H1960 0.931 . S
C1965 C1966 1.348 . S
C1965 C1967 1.413 . S
C1966 H1961 0.930 . S
C1966 C1964 1.378 . S
C1966 C1965 1.348 . S
C1967 C1963 1.415 . S
C1967 C1965 1.413 . S
C1967 C1997 1.437 . S
H1968 C1997 0.929 . S
N1969 Gd1942 2.570 . S
N1969 C1970 1.359 . S
N1969 C1973 1.343 . S
C1970 C1963 1.422 . S
C1970 N1969 1.359 . S
C1970 C1972 1.421 . S
C1971 C1972 1.422 . S
C1971 C1974 1.321 . S
C1971 H1998 0.931 . S
C1972 C1970 1.421 . S
C1972 C1971 1.422 . S
C1972 C1996 1.417 . S
C1973 H1950 0.931 . S
C1973 N1969 1.343 . S
C1973 C1974 1.390 . S
C1974 H1952 0.930 . S
C1974 C1971 1.321 . S
C1974 C1973 1.390 . S
O1975 Gd1943 2.386 . S
O1975 C1987 1.265 . S
O1976 Gd1942 2.353 . S
O1976 C1987 1.242 . S
O1977 Gd1942 2.468 . S
O1977 C1995 1.263 . S
O1978 Gd1942 2.427 . S
O1978 C1995 1.252 . S
O1979 Gd1943 2.307 . S
O1979 C1988 1.261 . S
O1980 Gd1942 2.388 . S
O1980 C1988 1.252 . S
O1981 Gd1942 2.386 . S
O1981 C1999 1.265 . S
O1982 Gd1943 2.353 . S
O1982 C1999 1.242 . S
O1983 Gd1943 2.468 . S
O1983 C2007 1.263 . S
O1984 Gd1943 2.427 . S
O1984 C2007 1.252 . S
O1985 Gd1942 2.307 . S
O1985 C2000 1.261 . S
O1986 Gd1943 2.388 . S
O1986 C2000 1.252 . S
C1987 O1975 1.265 . S
C1987 O1976 1.242 . S
C1988 O1979 1.261 . S
C1988 O1980 1.252 . S
C1989 C1992 1.394 . S
C1989 C1994 1.370 . S
C1989 C1995 1.500 . S
C1990 C1993 1.383 . S
C1990 C1994 1.395 . S
C1991 C1992 1.396 . S
C1991 C1993 1.365 . S
C1991 H2008 0.929 1_556 S
C1992 C1989 1.394 . S
C1992 C1991 1.396 . S
C1992 H2009 0.930 . S
C1993 C1990 1.383 . S
C1993 C1991 1.365 . S
C1993 H2010 0.931 . S
C1994 C1989 1.370 . S
C1994 C1990 1.395 . S
C1994 H2011 0.930 . S
C1995 Gd1942 2.805 . S
C1995 O1977 1.263 . S
C1995 O1978 1.252 . S
C1995 C1989 1.500 . S
C1996 H1958 0.930 . S
C1996 C1972 1.417 . S
C1996 C1997 1.329 . S
C1997 C1967 1.437 . S
C1997 H1968 0.929 . S
C1997 C1996 1.329 . S
H1998 C1971 0.931 . S
C1999 O1981 1.265 . S
C1999 O1982 1.242 . S
C2000 O1985 1.261 . S
C2000 O1986 1.252 . S
C2001 C2004 1.394 . S
C2001 C2006 1.370 . S
C2001 C2007 1.500 . S
C2002 C2005 1.383 . S
C2002 C2006 1.395 . S
C2003 C2004 1.396 . S
C2003 C2005 1.365 . S
C2003 H2012 0.929 . S
C2004 C2001 1.394 . S
C2004 C2003 1.396 . S
C2004 H2013 0.930 . S
C2005 C2002 1.383 . S
C2005 C2003 1.365 . S
C2005 H2014 0.931 . S
C2006 C2001 1.370 . S
C2006 C2002 1.395 . S
C2006 H2015 0.930 . S
C2007 Gd1943 2.805 . S
C2007 O1983 1.263 . S
C2007 O1984 1.252 . S
C2007 C2001 1.500 . S
H2008 C1991 0.929 1_554 S
H2009 C1992 0.930 . S
H2010 C1993 0.931 . S
H2011 C1994 0.930 . S
H2012 C2003 0.929 . S
H2013 C2004 0.930 . S
H2014 C2005 0.931 . S
H2015 C2006 0.930 . S
C2016 C2018 1.422 . S
C2016 C2020 1.415 . S
C2016 N2022 1.369 . S
C2017 C2018 1.421 . S
C2017 C2019 1.417 . S
C2017 C2029 1.422 . S
C2018 C2016 1.422 . S
C2018 C2017 1.421 . S
C2018 N2028 1.359 . S
C2019 C2017 1.417 . S
C2019 C2021 1.329 . S
C2019 H2038 0.930 . S
C2020 C2016 1.415 . S
C2020 C2021 1.437 . S
C2020 C2024 1.413 . S
C2021 C2019 1.329 . S
C2021 C2020 1.437 . S
C2021 H2043 0.929 . S
N2022 C2016 1.369 . S
N2022 C2023 1.338 . S
N2022 Gd2027 2.622 . S
C2023 N2022 1.338 . S
C2023 C2025 1.378 . S
C2023 H2035 0.929 . S
C2024 C2020 1.413 . S
C2024 C2025 1.348 . S
C2024 H2040 0.931 . S
C2025 C2023 1.378 . S
C2025 C2024 1.348 . S
C2025 H2041 0.930 . S
Gd2026 N2046 2.622 . S
Gd2026 N2053 2.570 . S
Gd2026 O2060 2.353 . S
Gd2026 O2061 2.468 . S
Gd2026 O2062 2.427 . S
Gd2026 O2064 2.388 . S
Gd2026 O2065 2.386 . S
Gd2026 O2069 2.307 . S
Gd2026 C2079 2.805 . S
Gd2027 N2022 2.622 . S
Gd2027 N2028 2.570 . S
Gd2027 O2059 2.386 . S
Gd2027 O2063 2.307 . S
Gd2027 O2066 2.353 . S
Gd2027 O2067 2.468 . S
Gd2027 O2068 2.427 . S
Gd2027 O2070 2.388 . S
Gd2027 C2091 2.805 . S
N2028 C2018 1.359 . S
N2028 Gd2027 2.570 . S
N2028 C2030 1.343 . S
C2029 C2017 1.422 . S
C2029 C2031 1.321 . S
C2029 H2037 0.931 . S
C2030 N2028 1.343 . S
C2030 C2031 1.390 . S
C2030 H2032 0.931 . S
C2031 C2029 1.321 . S
C2031 C2030 1.390 . S
C2031 H2033 0.930 . S
H2032 C2030 0.931 . S
H2033 C2031 0.930 . S
H2034 C2057 0.931 . S
H2035 C2023 0.929 . S
H2036 C2058 0.930 . S
H2037 C2029 0.931 . S
H2038 C2019 0.930 . S
H2039 C2048 0.929 . S
H2040 C2024 0.931 . S
H2041 C2025 0.930 . S
H2042 C2080 0.930 . S
H2043 C2021 0.929 . S
H2044 C2049 0.931 . S
H2045 C2050 0.930 . S
N2046 Gd2026 2.622 . S
N2046 C2047 1.369 . S
N2046 C2048 1.338 . S
C2047 N2046 1.369 . S
C2047 C2051 1.415 . S
C2047 C2054 1.422 . S
C2048 H2039 0.929 . S
C2048 N2046 1.338 . S
C2048 C2050 1.378 . S
C2049 H2044 0.931 . S
C2049 C2050 1.348 . S
C2049 C2051 1.413 . S
C2050 H2045 0.930 . S
C2050 C2048 1.378 . S
C2050 C2049 1.348 . S
C2051 C2047 1.415 . S
C2051 C2049 1.413 . S
C2051 C2081 1.437 . S
H2052 C2081 0.929 . S
N2053 Gd2026 2.570 . S
N2053 C2054 1.359 . S
N2053 C2057 1.343 . S
C2054 C2047 1.422 . S
C2054 N2053 1.359 . S
C2054 C2056 1.421 . S
C2055 C2056 1.422 . S
C2055 C2058 1.321 . S
C2055 H2082 0.931 . S
C2056 C2054 1.421 . S
C2056 C2055 1.422 . S
C2056 C2080 1.417 . S
C2057 H2034 0.931 . S
C2057 N2053 1.343 . S
C2057 C2058 1.390 . S
C2058 H2036 0.930 . S
C2058 C2055 1.321 . S
C2058 C2057 1.390 . S
O2059 Gd2027 2.386 . S
O2059 C2071 1.265 . S
O2060 Gd2026 2.353 . S
O2060 C2071 1.242 . S
O2061 Gd2026 2.468 . S
O2061 C2079 1.263 . S
O2062 Gd2026 2.427 . S
O2062 C2079 1.252 . S
O2063 Gd2027 2.307 . S
O2063 C2072 1.261 . S
O2064 Gd2026 2.388 . S
O2064 C2072 1.252 . S
O2065 Gd2026 2.386 . S
O2065 C2083 1.265 . S
O2066 Gd2027 2.353 . S
O2066 C2083 1.242 . S
O2067 Gd2027 2.468 . S
O2067 C2091 1.263 . S
O2068 Gd2027 2.427 . S
O2068 C2091 1.252 . S
O2069 Gd2026 2.307 . S
O2069 C2084 1.261 . S
O2070 Gd2027 2.388 . S
O2070 C2084 1.252 . S
C2071 O2059 1.265 . S
C2071 O2060 1.242 . S
C2072 O2063 1.261 . S
C2072 O2064 1.252 . S
C2073 C2076 1.394 . S
C2073 C2078 1.370 . S
C2073 C2079 1.500 . S
C2074 C2077 1.383 . S
C2074 C2078 1.395 . S
C2075 C2076 1.396 . S
C2075 C2077 1.365 . S
C2075 H2092 0.929 . S
C2076 C2073 1.394 . S
C2076 C2075 1.396 . S
C2076 H2093 0.930 . S
C2077 C2074 1.383 . S
C2077 C2075 1.365 . S
C2077 H2094 0.931 . S
C2078 C2073 1.370 . S
C2078 C2074 1.395 . S
C2078 H2095 0.930 . S
C2079 Gd2026 2.805 . S
C2079 O2061 1.263 . S
C2079 O2062 1.252 . S
C2079 C2073 1.500 . S
C2080 H2042 0.930 . S
C2080 C2056 1.417 . S
C2080 C2081 1.329 . S
C2081 C2051 1.437 . S
C2081 H2052 0.929 . S
C2081 C2080 1.329 . S
H2082 C2055 0.931 . S
C2083 O2065 1.265 . S
C2083 O2066 1.242 . S
C2084 O2069 1.261 . S
C2084 O2070 1.252 . S
C2085 C2088 1.394 . S
C2085 C2090 1.370 . S
C2085 C2091 1.500 . S
C2086 C2089 1.383 . S
C2086 C2090 1.395 . S
C2087 C2088 1.396 . S
C2087 C2089 1.365 . S
C2087 H2096 0.929 . S
C2088 C2085 1.394 . S
C2088 C2087 1.396 . S
C2088 H2097 0.930 . S
C2089 C2086 1.383 . S
C2089 C2087 1.365 . S
C2089 H2098 0.931 . S
C2090 C2085 1.370 . S
C2090 C2086 1.395 . S
C2090 H2099 0.930 . S
C2091 Gd2027 2.805 . S
C2091 O2067 1.263 . S
C2091 O2068 1.252 . S
C2091 C2085 1.500 . S
H2092 C2075 0.929 . S
H2093 C2076 0.930 . S
H2094 C2077 0.931 . S
H2095 C2078 0.930 . S
H2096 C2087 0.929 . S
H2097 C2088 0.930 . S
H2098 C2089 0.931 . S
H2099 C2090 0.930 . S
C2100 C2102 1.422 . S
C2100 C2104 1.415 . S
C2100 N2106 1.369 . S
C2101 C2102 1.421 . S
C2101 C2103 1.417 . S
C2101 C2113 1.422 . S
C2102 C2100 1.422 . S
C2102 C2101 1.421 . S
C2102 N2112 1.359 . S
C2103 C2101 1.417 . S
C2103 C2105 1.329 . S
C2103 H2122 0.930 . S
C2104 C2100 1.415 . S
C2104 C2105 1.437 . S
C2104 C2108 1.413 . S
C2105 C2103 1.329 . S
C2105 C2104 1.437 . S
C2105 H2127 0.929 . S
N2106 C2100 1.369 . S
N2106 C2107 1.338 . S
N2106 Gd2111 2.622 . S
C2107 N2106 1.338 . S
C2107 C2109 1.378 . S
C2107 H2119 0.929 . S
C2108 C2104 1.413 . S
C2108 C2109 1.348 . S
C2108 H2124 0.931 . S
C2109 C2107 1.378 . S
C2109 C2108 1.348 . S
C2109 H2125 0.930 . S
Gd2110 N2130 2.622 . S
Gd2110 N2137 2.570 . S
Gd2110 O2144 2.353 . S
Gd2110 O2145 2.468 . S
Gd2110 O2146 2.427 . S
Gd2110 O2148 2.388 . S
Gd2110 O2149 2.386 . S
Gd2110 O2153 2.307 . S
Gd2110 C2163 2.805 . S
Gd2111 N2106 2.622 . S
Gd2111 N2112 2.570 . S
Gd2111 O2143 2.386 . S
Gd2111 O2147 2.307 . S
Gd2111 O2150 2.353 . S
Gd2111 O2151 2.468 . S
Gd2111 O2152 2.427 . S
Gd2111 O2154 2.388 . S
Gd2111 C2175 2.805 . S
N2112 C2102 1.359 . S
N2112 Gd2111 2.570 . S
N2112 C2114 1.343 . S
C2113 C2101 1.422 . S
C2113 C2115 1.321 . S
C2113 H2121 0.931 . S
C2114 N2112 1.343 . S
C2114 C2115 1.390 . S
C2114 H2116 0.931 . S
C2115 C2113 1.321 . S
C2115 C2114 1.390 . S
C2115 H2117 0.930 . S
H2116 C2114 0.931 . S
H2117 C2115 0.930 . S
H2118 C2141 0.931 . S
H2119 C2107 0.929 . S
H2120 C2142 0.930 . S
H2121 C2113 0.931 . S
H2122 C2103 0.930 . S
H2123 C2132 0.929 . S
H2124 C2108 0.931 . S
H2125 C2109 0.930 . S
H2126 C2164 0.930 . S
H2127 C2105 0.929 . S
H2128 C2133 0.931 . S
H2129 C2134 0.930 . S
N2130 Gd2110 2.622 . S
N2130 C2131 1.369 . S
N2130 C2132 1.338 . S
C2131 N2130 1.369 . S
C2131 C2135 1.415 . S
C2131 C2138 1.422 . S
C2132 H2123 0.929 . S
C2132 N2130 1.338 . S
C2132 C2134 1.378 . S
C2133 H2128 0.931 . S
C2133 C2134 1.348 . S
C2133 C2135 1.413 . S
C2134 H2129 0.930 . S
C2134 C2132 1.378 . S
C2134 C2133 1.348 . S
C2135 C2131 1.415 . S
C2135 C2133 1.413 . S
C2135 C2165 1.437 . S
H2136 C2165 0.929 . S
N2137 Gd2110 2.570 . S
N2137 C2138 1.359 . S
N2137 C2141 1.343 . S
C2138 C2131 1.422 . S
C2138 N2137 1.359 . S
C2138 C2140 1.421 . S
C2139 C2140 1.422 . S
C2139 C2142 1.321 . S
C2139 H2166 0.931 . S
C2140 C2138 1.421 . S
C2140 C2139 1.422 . S
C2140 C2164 1.417 . S
C2141 H2118 0.931 . S
C2141 N2137 1.343 . S
C2141 C2142 1.390 . S
C2142 H2120 0.930 . S
C2142 C2139 1.321 . S
C2142 C2141 1.390 . S
O2143 Gd2111 2.386 . S
O2143 C2155 1.265 . S
O2144 Gd2110 2.353 . S
O2144 C2155 1.242 . S
O2145 Gd2110 2.468 . S
O2145 C2163 1.263 . S
O2146 Gd2110 2.427 . S
O2146 C2163 1.252 . S
O2147 Gd2111 2.307 . S
O2147 C2156 1.261 . S
O2148 Gd2110 2.388 . S
O2148 C2156 1.252 . S
O2149 Gd2110 2.386 . S
O2149 C2167 1.265 . S
O2150 Gd2111 2.353 . S
O2150 C2167 1.242 . S
O2151 Gd2111 2.468 . S
O2151 C2175 1.263 . S
O2152 Gd2111 2.427 . S
O2152 C2175 1.252 . S
O2153 Gd2110 2.307 . S
O2153 C2168 1.261 . S
O2154 Gd2111 2.388 . S
O2154 C2168 1.252 . S
C2155 O2143 1.265 . S
C2155 O2144 1.242 . S
C2156 O2147 1.261 . S
C2156 O2148 1.252 . S
C2157 C2160 1.394 . S
C2157 C2162 1.370 . S
C2157 C2163 1.500 . S
C2158 C2161 1.383 . S
C2158 C2162 1.395 . S
C2159 C2160 1.396 . S
C2159 C2161 1.365 . S
C2159 H2176 0.929 . S
C2160 C2157 1.394 . S
C2160 C2159 1.396 . S
C2160 H2177 0.930 . S
C2161 C2158 1.383 . S
C2161 C2159 1.365 . S
C2161 H2178 0.931 . S
C2162 C2157 1.370 . S
C2162 C2158 1.395 . S
C2162 H2179 0.930 . S
C2163 Gd2110 2.805 . S
C2163 O2145 1.263 . S
C2163 O2146 1.252 . S
C2163 C2157 1.500 . S
C2164 H2126 0.930 . S
C2164 C2140 1.417 . S
C2164 C2165 1.329 . S
C2165 C2135 1.437 . S
C2165 H2136 0.929 . S
C2165 C2164 1.329 . S
H2166 C2139 0.931 . S
C2167 O2149 1.265 . S
C2167 O2150 1.242 . S
C2168 O2153 1.261 . S
C2168 O2154 1.252 . S
C2169 C2172 1.394 . S
C2169 C2174 1.370 . S
C2169 C2175 1.500 . S
C2170 C2173 1.383 . S
C2170 C2174 1.395 . S
C2171 C2172 1.396 . S
C2171 C2173 1.365 . S
C2171 H2180 0.929 . S
C2172 C2169 1.394 . S
C2172 C2171 1.396 . S
C2172 H2181 0.930 . S
C2173 C2170 1.383 . S
C2173 C2171 1.365 . S
C2173 H2182 0.931 . S
C2174 C2169 1.370 . S
C2174 C2170 1.395 . S
C2174 H2183 0.930 . S
C2175 Gd2111 2.805 . S
C2175 O2151 1.263 . S
C2175 O2152 1.252 . S
C2175 C2169 1.500 . S
H2176 C2159 0.929 . S
H2177 C2160 0.930 . S
H2178 C2161 0.931 . S
H2179 C2162 0.930 . S
H2180 C2171 0.929 . S
H2181 C2172 0.930 . S
H2182 C2173 0.931 . S
H2183 C2174 0.930 . S
C2184 C2186 1.422 . S
C2184 C2188 1.415 . S
C2184 N2190 1.369 . S
C2185 C2186 1.421 . S
C2185 C2187 1.417 . S
C2185 C2197 1.422 . S
C2186 C2184 1.422 . S
C2186 C2185 1.421 . S
C2186 N2196 1.359 . S
C2187 C2185 1.417 . S
C2187 C2189 1.329 . S
C2187 H2206 0.930 . S
C2188 C2184 1.415 . S
C2188 C2189 1.437 . S
C2188 C2192 1.413 . S
C2189 C2187 1.329 . S
C2189 C2188 1.437 . S
C2189 H2211 0.929 . S
N2190 C2184 1.369 . S
N2190 C2191 1.338 . S
N2190 Gd2195 2.622 . S
C2191 N2190 1.338 . S
C2191 C2193 1.378 . S
C2191 H2203 0.929 . S
C2192 C2188 1.413 . S
C2192 C2193 1.348 . S
C2192 H2208 0.931 . S
C2193 C2191 1.378 . S
C2193 C2192 1.348 . S
C2193 H2209 0.930 . S
Gd2194 N2214 2.622 . S
Gd2194 N2221 2.570 . S
Gd2194 O2228 2.353 . S
Gd2194 O2229 2.468 . S
Gd2194 O2230 2.427 . S
Gd2194 O2232 2.388 . S
Gd2194 O2233 2.386 . S
Gd2194 O2237 2.307 . S
Gd2194 C2247 2.805 . S
Gd2195 N2190 2.622 . S
Gd2195 N2196 2.570 . S
Gd2195 O2227 2.386 . S
Gd2195 O2231 2.307 . S
Gd2195 O2234 2.353 . S
Gd2195 O2235 2.468 . S
Gd2195 O2236 2.427 . S
Gd2195 O2238 2.388 . S
Gd2195 C2259 2.805 . S
N2196 C2186 1.359 . S
N2196 Gd2195 2.570 . S
N2196 C2198 1.343 . S
C2197 C2185 1.422 . S
C2197 C2199 1.321 . S
C2197 H2205 0.931 . S
C2198 N2196 1.343 . S
C2198 C2199 1.390 . S
C2198 H2200 0.931 . S
C2199 C2197 1.321 . S
C2199 C2198 1.390 . S
C2199 H2201 0.930 . S
H2200 C2198 0.931 . S
H2201 C2199 0.930 . S
H2202 C2225 0.931 . S
H2203 C2191 0.929 . S
H2204 C2226 0.930 . S
H2205 C2197 0.931 . S
H2206 C2187 0.930 . S
H2207 C2216 0.929 . S
H2208 C2192 0.931 . S
H2209 C2193 0.930 . S
H2210 C2248 0.930 . S
H2211 C2189 0.929 . S
H2212 C2217 0.931 . S
H2213 C2218 0.930 . S
N2214 Gd2194 2.622 . S
N2214 C2215 1.369 . S
N2214 C2216 1.338 . S
C2215 N2214 1.369 . S
C2215 C2219 1.415 . S
C2215 C2222 1.422 . S
C2216 H2207 0.929 . S
C2216 N2214 1.338 . S
C2216 C2218 1.378 . S
C2217 H2212 0.931 . S
C2217 C2218 1.348 . S
C2217 C2219 1.413 . S
C2218 H2213 0.930 . S
C2218 C2216 1.378 . S
C2218 C2217 1.348 . S
C2219 C2215 1.415 . S
C2219 C2217 1.413 . S
C2219 C2249 1.437 . S
H2220 C2249 0.929 . S
N2221 Gd2194 2.570 . S
N2221 C2222 1.359 . S
N2221 C2225 1.343 . S
C2222 C2215 1.422 . S
C2222 N2221 1.359 . S
C2222 C2224 1.421 . S
C2223 C2224 1.422 . S
C2223 C2226 1.321 . S
C2223 H2250 0.931 . S
C2224 C2222 1.421 . S
C2224 C2223 1.422 . S
C2224 C2248 1.417 . S
C2225 H2202 0.931 . S
C2225 N2221 1.343 . S
C2225 C2226 1.390 . S
C2226 H2204 0.930 . S
C2226 C2223 1.321 . S
C2226 C2225 1.390 . S
O2227 Gd2195 2.386 . S
O2227 C2239 1.265 . S
O2228 Gd2194 2.353 . S
O2228 C2239 1.242 . S
O2229 Gd2194 2.468 . S
O2229 C2247 1.263 . S
O2230 Gd2194 2.427 . S
O2230 C2247 1.252 . S
O2231 Gd2195 2.307 . S
O2231 C2240 1.261 . S
O2232 Gd2194 2.388 . S
O2232 C2240 1.252 . S
O2233 Gd2194 2.386 . S
O2233 C2251 1.265 . S
O2234 Gd2195 2.353 . S
O2234 C2251 1.242 . S
O2235 Gd2195 2.468 . S
O2235 C2259 1.263 . S
O2236 Gd2195 2.427 . S
O2236 C2259 1.252 . S
O2237 Gd2194 2.307 . S
O2237 C2252 1.261 . S
O2238 Gd2195 2.388 . S
O2238 C2252 1.252 . S
C2239 O2227 1.265 . S
C2239 O2228 1.242 . S
C2240 O2231 1.261 . S
C2240 O2232 1.252 . S
C2241 C2244 1.394 . S
C2241 C2246 1.370 . S
C2241 C2247 1.500 . S
C2242 C2245 1.383 . S
C2242 C2246 1.395 . S
C2243 C2244 1.396 . S
C2243 C2245 1.365 . S
C2243 H2260 0.929 . S
C2244 C2241 1.394 . S
C2244 C2243 1.396 . S
C2244 H2261 0.930 . S
C2245 C2242 1.383 . S
C2245 C2243 1.365 . S
C2245 H2262 0.931 . S
C2246 C2241 1.370 . S
C2246 C2242 1.395 . S
C2246 H2263 0.930 . S
C2247 Gd2194 2.805 . S
C2247 O2229 1.263 . S
C2247 O2230 1.252 . S
C2247 C2241 1.500 . S
C2248 H2210 0.930 . S
C2248 C2224 1.417 . S
C2248 C2249 1.329 . S
C2249 C2219 1.437 . S
C2249 H2220 0.929 . S
C2249 C2248 1.329 . S
H2250 C2223 0.931 . S
C2251 O2233 1.265 . S
C2251 O2234 1.242 . S
C2252 O2237 1.261 . S
C2252 O2238 1.252 . S
C2253 C2256 1.394 . S
C2253 C2258 1.370 . S
C2253 C2259 1.500 . S
C2254 C2257 1.383 . S
C2254 C2258 1.395 . S
C2255 C2256 1.396 . S
C2255 C2257 1.365 . S
C2255 H2264 0.929 . S
C2256 C2253 1.394 . S
C2256 C2255 1.396 . S
C2256 H2265 0.930 . S
C2257 C2254 1.383 . S
C2257 C2255 1.365 . S
C2257 H2266 0.931 . S
C2258 C2253 1.370 . S
C2258 C2254 1.395 . S
C2258 H2267 0.930 . S
C2259 Gd2195 2.805 . S
C2259 O2235 1.263 . S
C2259 O2236 1.252 . S
C2259 C2253 1.500 . S
H2260 C2243 0.929 . S
H2261 C2244 0.930 . S
H2262 C2245 0.931 . S
H2263 C2246 0.930 . S
H2264 C2255 0.929 . S
H2265 C2256 0.930 . S
H2266 C2257 0.931 . S
H2267 C2258 0.930 . S
C2268 C2270 1.422 . S
C2268 C2272 1.415 1_565 S
C2268 N2274 1.369 . S
C2269 C2270 1.421 . S
C2269 C2271 1.417 1_565 S
C2269 C2281 1.422 . S
C2270 C2268 1.422 . S
C2270 C2269 1.421 . S
C2270 N2280 1.359 . S
C2271 C2269 1.417 1_545 S
C2271 C2273 1.329 . S
C2271 H2290 0.930 . S
C2272 C2268 1.415 1_545 S
C2272 C2273 1.437 . S
C2272 C2276 1.413 . S
C2273 C2271 1.329 . S
C2273 C2272 1.437 . S
C2273 H2295 0.929 . S
N2274 C2268 1.369 . S
N2274 C2275 1.338 . S
N2274 Gd2279 2.622 . S
C2275 N2274 1.338 . S
C2275 C2277 1.378 1_565 S
C2275 H2287 0.929 . S
C2276 C2272 1.413 . S
C2276 C2277 1.348 . S
C2276 H2292 0.931 . S
C2277 C2275 1.378 1_545 S
C2277 C2276 1.348 . S
C2277 H2293 0.930 . S
Gd2278 N2298 2.622 . S
Gd2278 N2305 2.570 . S
Gd2278 O2312 2.353 . S
Gd2278 O2313 2.468 . S
Gd2278 O2314 2.427 . S
Gd2278 O2316 2.388 . S
Gd2278 O2317 2.386 . S
Gd2278 O2321 2.307 . S
Gd2278 C2331 2.805 . S
Gd2279 N2274 2.622 . S
Gd2279 N2280 2.570 . S
Gd2279 O2311 2.386 . S
Gd2279 O2315 2.307 . S
Gd2279 O2318 2.353 . S
Gd2279 O2319 2.468 . S
Gd2279 O2320 2.427 . S
Gd2279 O2322 2.388 . S
Gd2279 C2343 2.805 . S
N2280 C2270 1.359 . S
N2280 Gd2279 2.570 . S
N2280 C2282 1.343 . S
C2281 C2269 1.422 . S
C2281 C2283 1.321 . S
C2281 H2289 0.931 . S
C2282 N2280 1.343 . S
C2282 C2283 1.390 . S
C2282 H2284 0.931 . S
C2283 C2281 1.321 . S
C2283 C2282 1.390 . S
C2283 H2285 0.930 . S
H2284 C2282 0.931 . S
H2285 C2283 0.930 . S
H2286 C2309 0.931 . S
H2287 C2275 0.929 . S
H2288 C2310 0.930 . S
H2289 C2281 0.931 . S
H2290 C2271 0.930 . S
H2291 C2300 0.929 . S
H2292 C2276 0.931 . S
H2293 C2277 0.930 . S
H2294 C2332 0.930 . S
H2295 C2273 0.929 . S
H2296 C2301 0.931 . S
H2297 C2302 0.930 . S
N2298 Gd2278 2.622 . S
N2298 C2299 1.369 . S
N2298 C2300 1.338 . S
C2299 N2298 1.369 . S
C2299 C2303 1.415 . S
C2299 C2306 1.422 . S
C2300 H2291 0.929 . S
C2300 N2298 1.338 . S
C2300 C2302 1.378 . S
C2301 H2296 0.931 . S
C2301 C2302 1.348 . S
C2301 C2303 1.413 . S
C2302 H2297 0.930 . S
C2302 C2300 1.378 . S
C2302 C2301 1.348 . S
C2303 C2299 1.415 . S
C2303 C2301 1.413 . S
C2303 C2333 1.437 . S
H2304 C2333 0.929 . S
N2305 Gd2278 2.570 . S
N2305 C2306 1.359 . S
N2305 C2309 1.343 . S
C2306 C2299 1.422 . S
C2306 N2305 1.359 . S
C2306 C2308 1.421 1_554 S
C2307 C2308 1.422 . S
C2307 C2310 1.321 . S
C2307 H2334 0.931 . S
C2308 C2306 1.421 1_556 S
C2308 C2307 1.422 . S
C2308 C2332 1.417 . S
C2309 H2286 0.931 . S
C2309 N2305 1.343 . S
C2309 C2310 1.390 1_554 S
C2310 H2288 0.930 . S
C2310 C2307 1.321 . S
C2310 C2309 1.390 1_556 S
O2311 Gd2279 2.386 . S
O2311 C2323 1.265 . S
O2312 Gd2278 2.353 . S
O2312 C2323 1.242 . S
O2313 Gd2278 2.468 . S
O2313 C2331 1.263 . S
O2314 Gd2278 2.427 . S
O2314 C2331 1.252 . S
O2315 Gd2279 2.307 . S
O2315 C2324 1.261 . S
O2316 Gd2278 2.388 . S
O2316 C2324 1.252 . S
O2317 Gd2278 2.386 . S
O2317 C2335 1.265 . S
O2318 Gd2279 2.353 . S
O2318 C2335 1.242 . S
O2319 Gd2279 2.468 . S
O2319 C2343 1.263 . S
O2320 Gd2279 2.427 . S
O2320 C2343 1.252 . S
O2321 Gd2278 2.307 . S
O2321 C2336 1.261 . S
O2322 Gd2279 2.388 . S
O2322 C2336 1.252 . S
C2323 O2311 1.265 . S
C2323 O2312 1.242 . S
C2324 O2315 1.261 . S
C2324 O2316 1.252 . S
C2325 C2328 1.394 . S
C2325 C2330 1.370 . S
C2325 C2331 1.500 . S
C2326 C2329 1.383 . S
C2326 C2330 1.395 . S
C2327 C2328 1.396 . S
C2327 C2329 1.365 . S
C2327 H2344 0.929 . S
C2328 C2325 1.394 . S
C2328 C2327 1.396 . S
C2328 H2345 0.930 . S
C2329 C2326 1.383 . S
C2329 C2327 1.365 . S
C2329 H2346 0.931 . S
C2330 C2325 1.370 . S
C2330 C2326 1.395 . S
C2330 H2347 0.930 . S
C2331 Gd2278 2.805 . S
C2331 O2313 1.263 . S
C2331 O2314 1.252 . S
C2331 C2325 1.500 . S
C2332 H2294 0.930 . S
C2332 C2308 1.417 . S
C2332 C2333 1.329 1_556 S
C2333 C2303 1.437 . S
C2333 H2304 0.929 . S
C2333 C2332 1.329 1_554 S
H2334 C2307 0.931 . S
C2335 O2317 1.265 . S
C2335 O2318 1.242 . S
C2336 O2321 1.261 . S
C2336 O2322 1.252 . S
C2337 C2340 1.394 . S
C2337 C2342 1.370 . S
C2337 C2343 1.500 . S
C2338 C2341 1.383 . S
C2338 C2342 1.395 . S
C2339 C2340 1.396 . S
C2339 C2341 1.365 . S
C2339 H2348 0.929 1_554 S
C2340 C2337 1.394 . S
C2340 C2339 1.396 . S
C2340 H2349 0.930 . S
C2341 C2338 1.383 . S
C2341 C2339 1.365 . S
C2341 H2350 0.931 . S
C2342 C2337 1.370 . S
C2342 C2338 1.395 . S
C2342 H2351 0.930 . S
C2343 Gd2279 2.805 . S
C2343 O2319 1.263 . S
C2343 O2320 1.252 . S
C2343 C2337 1.500 . S
H2344 C2327 0.929 . S
H2345 C2328 0.930 . S
H2346 C2329 0.931 . S
H2347 C2330 0.930 . S
H2348 C2339 0.929 1_556 S
H2349 C2340 0.930 . S
H2350 C2341 0.931 . S
H2351 C2342 0.930 . S
C2352 C2354 1.422 . S
C2352 C2356 1.415 1_455 S
C2352 N2358 1.369 . S
C2353 C2354 1.421 . S
C2353 C2355 1.417 1_455 S
C2353 C2365 1.422 . S
C2354 C2352 1.422 . S
C2354 C2353 1.421 . S
C2354 N2364 1.359 . S
C2355 C2353 1.417 1_655 S
C2355 C2357 1.329 . S
C2355 H2374 0.930 . S
C2356 C2352 1.415 1_655 S
C2356 C2357 1.437 . S
C2356 C2360 1.413 . S
C2357 C2355 1.329 . S
C2357 C2356 1.437 . S
C2357 H2379 0.929 . S
N2358 C2352 1.369 . S
N2358 C2359 1.338 . S
N2358 Gd2363 2.622 . S
C2359 N2358 1.338 . S
C2359 C2361 1.378 1_455 S
C2359 H2371 0.929 . S
C2360 C2356 1.413 . S
C2360 C2361 1.348 . S
C2360 H2376 0.931 . S
C2361 C2359 1.378 1_655 S
C2361 C2360 1.348 . S
C2361 H2377 0.930 . S
Gd2362 N2382 2.622 . S
Gd2362 N2389 2.570 . S
Gd2362 O2396 2.353 . S
Gd2362 O2397 2.468 . S
Gd2362 O2398 2.427 . S
Gd2362 O2400 2.388 . S
Gd2362 O2401 2.386 . S
Gd2362 O2405 2.307 . S
Gd2362 C2415 2.805 . S
Gd2363 N2358 2.622 . S
Gd2363 N2364 2.570 . S
Gd2363 O2395 2.386 . S
Gd2363 O2399 2.307 . S
Gd2363 O2402 2.353 . S
Gd2363 O2403 2.468 . S
Gd2363 O2404 2.427 . S
Gd2363 O2406 2.388 . S
Gd2363 C2427 2.805 . S
N2364 C2354 1.359 . S
N2364 Gd2363 2.570 . S
N2364 C2366 1.343 . S
C2365 C2353 1.422 . S
C2365 C2367 1.321 . S
C2365 H2373 0.931 . S
C2366 N2364 1.343 . S
C2366 C2367 1.390 . S
C2366 H2368 0.931 . S
C2367 C2365 1.321 . S
C2367 C2366 1.390 . S
C2367 H2369 0.930 . S
H2368 C2366 0.931 . S
H2369 C2367 0.930 . S
H2370 C2393 0.931 . S
H2371 C2359 0.929 . S
H2372 C2394 0.930 . S
H2373 C2365 0.931 . S
H2374 C2355 0.930 . S
H2375 C2384 0.929 . S
H2376 C2360 0.931 . S
H2377 C2361 0.930 . S
H2378 C2416 0.930 . S
H2379 C2357 0.929 . S
H2380 C2385 0.931 . S
H2381 C2386 0.930 . S
N2382 Gd2362 2.622 . S
N2382 C2383 1.369 . S
N2382 C2384 1.338 . S
C2383 N2382 1.369 . S
C2383 C2387 1.415 . S
C2383 C2390 1.422 . S
C2384 H2375 0.929 . S
C2384 N2382 1.338 . S
C2384 C2386 1.378 . S
C2385 H2380 0.931 . S
C2385 C2386 1.348 . S
C2385 C2387 1.413 . S
C2386 H2381 0.930 . S
C2386 C2384 1.378 . S
C2386 C2385 1.348 . S
C2387 C2383 1.415 . S
C2387 C2385 1.413 . S
C2387 C2417 1.437 . S
H2388 C2417 0.929 . S
N2389 Gd2362 2.570 . S
N2389 C2390 1.359 . S
N2389 C2393 1.343 . S
C2390 C2383 1.422 . S
C2390 N2389 1.359 . S
C2390 C2392 1.421 1_554 S
C2391 C2392 1.422 . S
C2391 C2394 1.321 . S
C2391 H2418 0.931 . S
C2392 C2390 1.421 1_556 S
C2392 C2391 1.422 . S
C2392 C2416 1.417 . S
C2393 H2370 0.931 . S
C2393 N2389 1.343 . S
C2393 C2394 1.390 1_554 S
C2394 H2372 0.930 . S
C2394 C2391 1.321 . S
C2394 C2393 1.390 1_556 S
O2395 Gd2363 2.386 . S
O2395 C2407 1.265 . S
O2396 Gd2362 2.353 . S
O2396 C2407 1.242 . S
O2397 Gd2362 2.468 . S
O2397 C2415 1.263 . S
O2398 Gd2362 2.427 . S
O2398 C2415 1.252 . S
O2399 Gd2363 2.307 . S
O2399 C2408 1.261 . S
O2400 Gd2362 2.388 . S
O2400 C2408 1.252 . S
O2401 Gd2362 2.386 . S
O2401 C2419 1.265 . S
O2402 Gd2363 2.353 . S
O2402 C2419 1.242 . S
O2403 Gd2363 2.468 . S
O2403 C2427 1.263 . S
O2404 Gd2363 2.427 . S
O2404 C2427 1.252 . S
O2405 Gd2362 2.307 . S
O2405 C2420 1.261 . S
O2406 Gd2363 2.388 . S
O2406 C2420 1.252 . S
C2407 O2395 1.265 . S
C2407 O2396 1.242 . S
C2408 O2399 1.261 . S
C2408 O2400 1.252 . S
C2409 C2412 1.394 . S
C2409 C2414 1.370 . S
C2409 C2415 1.500 . S
C2410 C2413 1.383 . S
C2410 C2414 1.395 . S
C2411 C2412 1.396 . S
C2411 C2413 1.365 . S
C2411 H2428 0.929 . S
C2412 C2409 1.394 . S
C2412 C2411 1.396 . S
C2412 H2429 0.930 . S
C2413 C2410 1.383 . S
C2413 C2411 1.365 . S
C2413 H2430 0.931 . S
C2414 C2409 1.370 . S
C2414 C2410 1.395 . S
C2414 H2431 0.930 . S
C2415 Gd2362 2.805 . S
C2415 O2397 1.263 . S
C2415 O2398 1.252 . S
C2415 C2409 1.500 . S
C2416 H2378 0.930 . S
C2416 C2392 1.417 . S
C2416 C2417 1.329 1_556 S
C2417 C2387 1.437 . S
C2417 H2388 0.929 . S
C2417 C2416 1.329 1_554 S
H2418 C2391 0.931 . S
C2419 O2401 1.265 . S
C2419 O2402 1.242 . S
C2420 O2405 1.261 . S
C2420 O2406 1.252 . S
C2421 C2424 1.394 . S
C2421 C2426 1.370 . S
C2421 C2427 1.500 . S
C2422 C2425 1.383 . S
C2422 C2426 1.395 . S
C2423 C2424 1.396 . S
C2423 C2425 1.365 . S
C2423 H2432 0.929 1_554 S
C2424 C2421 1.394 . S
C2424 C2423 1.396 . S
C2424 H2433 0.930 . S
C2425 C2422 1.383 . S
C2425 C2423 1.365 . S
C2425 H2434 0.931 . S
C2426 C2421 1.370 . S
C2426 C2422 1.395 . S
C2426 H2435 0.930 . S
C2427 Gd2363 2.805 . S
C2427 O2403 1.263 . S
C2427 O2404 1.252 . S
C2427 C2421 1.500 . S
H2428 C2411 0.929 . S
H2429 C2412 0.930 . S
H2430 C2413 0.931 . S
H2431 C2414 0.930 . S
H2432 C2423 0.929 1_556 S
H2433 C2424 0.930 . S
H2434 C2425 0.931 . S
H2435 C2426 0.930 . S
C2436 C2438 1.422 . S
C2436 C2440 1.415 . S
C2436 N2442 1.369 . S
C2437 C2438 1.421 . S
C2437 C2439 1.417 . S
C2437 C2449 1.422 . S
C2438 C2436 1.422 . S
C2438 C2437 1.421 . S
C2438 N2448 1.359 . S
C2439 C2437 1.417 . S
C2439 C2441 1.329 . S
C2439 H2458 0.930 . S
C2440 C2436 1.415 . S
C2440 C2441 1.437 . S
C2440 C2444 1.413 . S
C2441 C2439 1.329 . S
C2441 C2440 1.437 . S
C2441 H2463 0.929 . S
N2442 C2436 1.369 . S
N2442 C2443 1.338 . S
N2442 Gd2447 2.622 . S
C2443 N2442 1.338 . S
C2443 C2445 1.378 . S
C2443 H2455 0.929 . S
C2444 C2440 1.413 . S
C2444 C2445 1.348 . S
C2444 H2460 0.931 . S
C2445 C2443 1.378 . S
C2445 C2444 1.348 . S
C2445 H2461 0.930 . S
Gd2446 N2466 2.622 . S
Gd2446 N2473 2.570 . S
Gd2446 O2480 2.353 . S
Gd2446 O2481 2.468 . S
Gd2446 O2482 2.427 . S
Gd2446 O2484 2.388 . S
Gd2446 O2485 2.386 . S
Gd2446 O2489 2.307 . S
Gd2446 C2499 2.805 . S
Gd2447 N2442 2.622 . S
Gd2447 N2448 2.570 . S
Gd2447 O2479 2.386 . S
Gd2447 O2483 2.307 . S
Gd2447 O2486 2.353 . S
Gd2447 O2487 2.468 . S
Gd2447 O2488 2.427 . S
Gd2447 O2490 2.388 . S
Gd2447 C2511 2.805 . S
N2448 C2438 1.359 . S
N2448 Gd2447 2.570 . S
N2448 C2450 1.343 . S
C2449 C2437 1.422 . S
C2449 C2451 1.321 . S
C2449 H2457 0.931 . S
C2450 N2448 1.343 . S
C2450 C2451 1.390 . S
C2450 H2452 0.931 . S
C2451 C2449 1.321 . S
C2451 C2450 1.390 . S
C2451 H2453 0.930 . S
H2452 C2450 0.931 . S
H2453 C2451 0.930 . S
H2454 C2477 0.931 . S
H2455 C2443 0.929 . S
H2456 C2478 0.930 . S
H2457 C2449 0.931 . S
H2458 C2439 0.930 . S
H2459 C2468 0.929 . S
H2460 C2444 0.931 . S
H2461 C2445 0.930 . S
H2462 C2500 0.930 . S
H2463 C2441 0.929 . S
H2464 C2469 0.931 . S
H2465 C2470 0.930 . S
N2466 Gd2446 2.622 . S
N2466 C2467 1.369 . S
N2466 C2468 1.338 . S
C2467 N2466 1.369 . S
C2467 C2471 1.415 . S
C2467 C2474 1.422 . S
C2468 H2459 0.929 . S
C2468 N2466 1.338 . S
C2468 C2470 1.378 . S
C2469 H2464 0.931 . S
C2469 C2470 1.348 . S
C2469 C2471 1.413 . S
C2470 H2465 0.930 . S
C2470 C2468 1.378 . S
C2470 C2469 1.348 . S
C2471 C2467 1.415 . S
C2471 C2469 1.413 . S
C2471 C2501 1.437 . S
H2472 C2501 0.929 . S
N2473 Gd2446 2.570 . S
N2473 C2474 1.359 . S
N2473 C2477 1.343 . S
C2474 C2467 1.422 . S
C2474 N2473 1.359 . S
C2474 C2476 1.421 1_554 S
C2475 C2476 1.422 . S
C2475 C2478 1.321 . S
C2475 H2502 0.931 . S
C2476 C2474 1.421 1_556 S
C2476 C2475 1.422 . S
C2476 C2500 1.417 . S
C2477 H2454 0.931 . S
C2477 N2473 1.343 . S
C2477 C2478 1.390 1_554 S
C2478 H2456 0.930 . S
C2478 C2475 1.321 . S
C2478 C2477 1.390 1_556 S
O2479 Gd2447 2.386 . S
O2479 C2491 1.265 . S
O2480 Gd2446 2.353 . S
O2480 C2491 1.242 . S
O2481 Gd2446 2.468 . S
O2481 C2499 1.263 . S
O2482 Gd2446 2.427 . S
O2482 C2499 1.252 . S
O2483 Gd2447 2.307 . S
O2483 C2492 1.261 . S
O2484 Gd2446 2.388 . S
O2484 C2492 1.252 . S
O2485 Gd2446 2.386 . S
O2485 C2503 1.265 . S
O2486 Gd2447 2.353 . S
O2486 C2503 1.242 . S
O2487 Gd2447 2.468 . S
O2487 C2511 1.263 . S
O2488 Gd2447 2.427 . S
O2488 C2511 1.252 . S
O2489 Gd2446 2.307 . S
O2489 C2504 1.261 . S
O2490 Gd2447 2.388 . S
O2490 C2504 1.252 . S
C2491 O2479 1.265 . S
C2491 O2480 1.242 . S
C2492 O2483 1.261 . S
C2492 O2484 1.252 . S
C2493 C2496 1.394 . S
C2493 C2498 1.370 . S
C2493 C2499 1.500 . S
C2494 C2497 1.383 . S
C2494 C2498 1.395 . S
C2495 C2496 1.396 . S
C2495 C2497 1.365 . S
C2495 H2512 0.929 . S
C2496 C2493 1.394 . S
C2496 C2495 1.396 . S
C2496 H2513 0.930 . S
C2497 C2494 1.383 . S
C2497 C2495 1.365 . S
C2497 H2514 0.931 . S
C2498 C2493 1.370 . S
C2498 C2494 1.395 . S
C2498 H2515 0.930 . S
C2499 Gd2446 2.805 . S
C2499 O2481 1.263 . S
C2499 O2482 1.252 . S
C2499 C2493 1.500 . S
C2500 H2462 0.930 . S
C2500 C2476 1.417 . S
C2500 C2501 1.329 1_556 S
C2501 C2471 1.437 . S
C2501 H2472 0.929 . S
C2501 C2500 1.329 1_554 S
H2502 C2475 0.931 . S
C2503 O2485 1.265 . S
C2503 O2486 1.242 . S
C2504 O2489 1.261 . S
C2504 O2490 1.252 . S
C2505 C2508 1.394 . S
C2505 C2510 1.370 . S
C2505 C2511 1.500 . S
C2506 C2509 1.383 . S
C2506 C2510 1.395 . S
C2507 C2508 1.396 . S
C2507 C2509 1.365 . S
C2507 H2516 0.929 1_554 S
C2508 C2505 1.394 . S
C2508 C2507 1.396 . S
C2508 H2517 0.930 . S
C2509 C2506 1.383 . S
C2509 C2507 1.365 . S
C2509 H2518 0.931 . S
C2510 C2505 1.370 . S
C2510 C2506 1.395 . S
C2510 H2519 0.930 . S
C2511 Gd2447 2.805 . S
C2511 O2487 1.263 . S
C2511 O2488 1.252 . S
C2511 C2505 1.500 . S
H2512 C2495 0.929 . S
H2513 C2496 0.930 . S
H2514 C2497 0.931 . S
H2515 C2498 0.930 . S
H2516 C2507 0.929 1_556 S
H2517 C2508 0.930 . S
H2518 C2509 0.931 . S
H2519 C2510 0.930 . S
C2520 C2522 1.422 . S
C2520 C2524 1.415 1_455 S
C2520 N2526 1.369 . S
C2521 C2522 1.421 1_655 S
C2521 C2523 1.417 . S
C2521 C2533 1.422 1_655 S
C2522 C2520 1.422 . S
C2522 C2521 1.421 1_455 S
C2522 N2532 1.359 . S
C2523 C2521 1.417 . S
C2523 C2525 1.329 . S
C2523 H2542 0.930 . S
C2524 C2520 1.415 1_655 S
C2524 C2525 1.437 . S
C2524 C2528 1.413 . S
C2525 C2523 1.329 . S
C2525 C2524 1.437 . S
C2525 H2547 0.929 . S
N2526 C2520 1.369 . S
N2526 C2527 1.338 . S
N2526 Gd2531 2.622 . S
C2527 N2526 1.338 . S
C2527 C2529 1.378 1_455 S
C2527 H2539 0.929 . S
C2528 C2524 1.413 . S
C2528 C2529 1.348 . S
C2528 H2544 0.931 . S
C2529 C2527 1.378 1_655 S
C2529 C2528 1.348 . S
C2529 H2545 0.930 . S
Gd2530 N2550 2.622 . S
Gd2530 N2557 2.570 . S
Gd2530 O2564 2.353 . S
Gd2530 O2565 2.468 . S
Gd2530 O2566 2.427 . S
Gd2530 O2568 2.388 . S
Gd2530 O2569 2.386 . S
Gd2530 O2573 2.307 . S
Gd2530 C2583 2.805 . S
Gd2531 N2526 2.622 . S
Gd2531 N2532 2.570 . S
Gd2531 O2563 2.386 . S
Gd2531 O2567 2.307 . S
Gd2531 O2570 2.353 . S
Gd2531 O2571 2.468 . S
Gd2531 O2572 2.427 . S
Gd2531 O2574 2.388 . S
Gd2531 C2595 2.805 . S
N2532 C2522 1.359 . S
N2532 Gd2531 2.570 . S
N2532 C2534 1.343 . S
C2533 C2521 1.422 1_455 S
C2533 C2535 1.321 . S
C2533 H2541 0.931 1_455 S
C2534 N2532 1.343 . S
C2534 C2535 1.390 . S
C2534 H2536 0.931 . S
C2535 C2533 1.321 . S
C2535 C2534 1.390 . S
C2535 H2537 0.930 . S
H2536 C2534 0.931 . S
H2537 C2535 0.930 . S
H2538 C2561 0.931 . S
H2539 C2527 0.929 . S
H2540 C2562 0.930 . S
H2541 C2533 0.931 1_655 S
H2542 C2523 0.930 . S
H2543 C2552 0.929 . S
H2544 C2528 0.931 . S
H2545 C2529 0.930 . S
H2546 C2584 0.930 . S
H2547 C2525 0.929 . S
H2548 C2553 0.931 . S
H2549 C2554 0.930 . S
N2550 Gd2530 2.622 . S
N2550 C2551 1.369 . S
N2550 C2552 1.338 . S
C2551 N2550 1.369 . S
C2551 C2555 1.415 . S
C2551 C2558 1.422 . S
C2552 H2543 0.929 . S
C2552 N2550 1.338 . S
C2552 C2554 1.378 . S
C2553 H2548 0.931 . S
C2553 C2554 1.348 . S
C2553 C2555 1.413 . S
C2554 H2549 0.930 . S
C2554 C2552 1.378 . S
C2554 C2553 1.348 . S
C2555 C2551 1.415 . S
C2555 C2553 1.413 . S
C2555 C2585 1.437 . S
H2556 C2585 0.929 . S
N2557 Gd2530 2.570 . S
N2557 C2558 1.359 . S
N2557 C2561 1.343 . S
C2558 C2551 1.422 . S
C2558 N2557 1.359 . S
C2558 C2560 1.421 . S
C2559 C2560 1.422 . S
C2559 C2562 1.321 . S
C2559 H2586 0.931 . S
C2560 C2558 1.421 . S
C2560 C2559 1.422 . S
C2560 C2584 1.417 . S
C2561 H2538 0.931 . S
C2561 N2557 1.343 . S
C2561 C2562 1.390 . S
C2562 H2540 0.930 . S
C2562 C2559 1.321 . S
C2562 C2561 1.390 . S
O2563 Gd2531 2.386 . S
O2563 C2575 1.265 . S
O2564 Gd2530 2.353 . S
O2564 C2575 1.242 . S
O2565 Gd2530 2.468 . S
O2565 C2583 1.263 . S
O2566 Gd2530 2.427 . S
O2566 C2583 1.252 . S
O2567 Gd2531 2.307 . S
O2567 C2576 1.261 . S
O2568 Gd2530 2.388 . S
O2568 C2576 1.252 . S
O2569 Gd2530 2.386 . S
O2569 C2587 1.265 . S
O2570 Gd2531 2.353 . S
O2570 C2587 1.242 . S
O2571 Gd2531 2.468 . S
O2571 C2595 1.263 . S
O2572 Gd2531 2.427 . S
O2572 C2595 1.252 . S
O2573 Gd2530 2.307 . S
O2573 C2588 1.261 . S
O2574 Gd2531 2.388 . S
O2574 C2588 1.252 . S
C2575 O2563 1.265 . S
C2575 O2564 1.242 . S
C2576 O2567 1.261 . S
C2576 O2568 1.252 . S
C2577 C2580 1.394 . S
C2577 C2582 1.370 . S
C2577 C2583 1.500 . S
C2578 C2581 1.383 . S
C2578 C2582 1.395 . S
C2579 C2580 1.396 . S
C2579 C2581 1.365 . S
C2579 H2596 0.929 . S
C2580 C2577 1.394 . S
C2580 C2579 1.396 . S
C2580 H2597 0.930 . S
C2581 C2578 1.383 . S
C2581 C2579 1.365 . S
C2581 H2598 0.931 . S
C2582 C2577 1.370 . S
C2582 C2578 1.395 . S
C2582 H2599 0.930 . S
C2583 Gd2530 2.805 . S
C2583 O2565 1.263 . S
C2583 O2566 1.252 . S
C2583 C2577 1.500 . S
C2584 H2546 0.930 . S
C2584 C2560 1.417 . S
C2584 C2585 1.329 . S
C2585 C2555 1.437 . S
C2585 H2556 0.929 . S
C2585 C2584 1.329 . S
H2586 C2559 0.931 . S
C2587 O2569 1.265 . S
C2587 O2570 1.242 . S
C2588 O2573 1.261 . S
C2588 O2574 1.252 . S
C2589 C2592 1.394 . S
C2589 C2594 1.370 . S
C2589 C2595 1.500 . S
C2590 C2593 1.383 . S
C2590 C2594 1.395 . S
C2591 C2592 1.396 . S
C2591 C2593 1.365 . S
C2591 H2600 0.929 . S
C2592 C2589 1.394 . S
C2592 C2591 1.396 . S
C2592 H2601 0.930 . S
C2593 C2590 1.383 . S
C2593 C2591 1.365 . S
C2593 H2602 0.931 . S
C2594 C2589 1.370 . S
C2594 C2590 1.395 . S
C2594 H2603 0.930 . S
C2595 Gd2531 2.805 . S
C2595 O2571 1.263 . S
C2595 O2572 1.252 . S
C2595 C2589 1.500 . S
H2596 C2579 0.929 . S
H2597 C2580 0.930 . S
H2598 C2581 0.931 . S
H2599 C2582 0.930 . S
H2600 C2591 0.929 . S
H2601 C2592 0.930 . S
H2602 C2593 0.931 . S
H2603 C2594 0.930 . S
C2604 C2606 1.422 . S
C2604 C2608 1.415 . S
C2604 N2610 1.369 . S
C2605 C2606 1.421 . S
C2605 C2607 1.417 . S
C2605 C2617 1.422 . S
C2606 C2604 1.422 . S
C2606 C2605 1.421 . S
C2606 N2616 1.359 . S
C2607 C2605 1.417 . S
C2607 C2609 1.329 . S
C2607 H2626 0.930 . S
C2608 C2604 1.415 . S
C2608 C2609 1.437 . S
C2608 C2612 1.413 . S
C2609 C2607 1.329 . S
C2609 C2608 1.437 . S
C2609 H2631 0.929 . S
N2610 C2604 1.369 . S
N2610 C2611 1.338 . S
N2610 Gd2615 2.622 . S
C2611 N2610 1.338 . S
C2611 C2613 1.378 . S
C2611 H2623 0.929 . S
C2612 C2608 1.413 . S
C2612 C2613 1.348 . S
C2612 H2628 0.931 . S
C2613 C2611 1.378 . S
C2613 C2612 1.348 . S
C2613 H2629 0.930 . S
Gd2614 N2634 2.622 . S
Gd2614 N2641 2.570 . S
Gd2614 O2648 2.353 . S
Gd2614 O2649 2.468 . S
Gd2614 O2650 2.427 . S
Gd2614 O2652 2.388 . S
Gd2614 O2653 2.386 . S
Gd2614 O2657 2.307 . S
Gd2614 C2667 2.805 . S
Gd2615 N2610 2.622 . S
Gd2615 N2616 2.570 . S
Gd2615 O2647 2.386 . S
Gd2615 O2651 2.307 . S
Gd2615 O2654 2.353 . S
Gd2615 O2655 2.468 . S
Gd2615 O2656 2.427 . S
Gd2615 O2658 2.388 . S
Gd2615 C2679 2.805 . S
N2616 C2606 1.359 . S
N2616 Gd2615 2.570 . S
N2616 C2618 1.343 . S
C2617 C2605 1.422 . S
C2617 C2619 1.321 . S
C2617 H2625 0.931 . S
C2618 N2616 1.343 . S
C2618 C2619 1.390 . S
C2618 H2620 0.931 . S
C2619 C2617 1.321 . S
C2619 C2618 1.390 . S
C2619 H2621 0.930 . S
H2620 C2618 0.931 . S
H2621 C2619 0.930 . S
H2622 C2645 0.931 . S
H2623 C2611 0.929 . S
H2624 C2646 0.930 . S
H2625 C2617 0.931 . S
H2626 C2607 0.930 . S
H2627 C2636 0.929 . S
H2628 C2612 0.931 . S
H2629 C2613 0.930 . S
H2630 C2668 0.930 . S
H2631 C2609 0.929 . S
H2632 C2637 0.931 . S
H2633 C2638 0.930 . S
N2634 Gd2614 2.622 . S
N2634 C2635 1.369 . S
N2634 C2636 1.338 . S
C2635 N2634 1.369 . S
C2635 C2639 1.415 . S
C2635 C2642 1.422 . S
C2636 H2627 0.929 . S
C2636 N2634 1.338 . S
C2636 C2638 1.378 . S
C2637 H2632 0.931 . S
C2637 C2638 1.348 . S
C2637 C2639 1.413 . S
C2638 H2633 0.930 . S
C2638 C2636 1.378 . S
C2638 C2637 1.348 . S
C2639 C2635 1.415 . S
C2639 C2637 1.413 . S
C2639 C2669 1.437 . S
H2640 C2669 0.929 . S
N2641 Gd2614 2.570 . S
N2641 C2642 1.359 . S
N2641 C2645 1.343 . S
C2642 C2635 1.422 . S
C2642 N2641 1.359 . S
C2642 C2644 1.421 . S
C2643 C2644 1.422 . S
C2643 C2646 1.321 . S
C2643 H2670 0.931 . S
C2644 C2642 1.421 . S
C2644 C2643 1.422 . S
C2644 C2668 1.417 . S
C2645 H2622 0.931 . S
C2645 N2641 1.343 . S
C2645 C2646 1.390 . S
C2646 H2624 0.930 . S
C2646 C2643 1.321 . S
C2646 C2645 1.390 . S
O2647 Gd2615 2.386 . S
O2647 C2659 1.265 . S
O2648 Gd2614 2.353 . S
O2648 C2659 1.242 . S
O2649 Gd2614 2.468 . S
O2649 C2667 1.263 . S
O2650 Gd2614 2.427 . S
O2650 C2667 1.252 . S
O2651 Gd2615 2.307 . S
O2651 C2660 1.261 . S
O2652 Gd2614 2.388 . S
O2652 C2660 1.252 . S
O2653 Gd2614 2.386 . S
O2653 C2671 1.265 . S
O2654 Gd2615 2.353 . S
O2654 C2671 1.242 . S
O2655 Gd2615 2.468 . S
O2655 C2679 1.263 . S
O2656 Gd2615 2.427 . S
O2656 C2679 1.252 . S
O2657 Gd2614 2.307 . S
O2657 C2672 1.261 . S
O2658 Gd2615 2.388 . S
O2658 C2672 1.252 . S
C2659 O2647 1.265 . S
C2659 O2648 1.242 . S
C2660 O2651 1.261 . S
C2660 O2652 1.252 . S
C2661 C2664 1.394 . S
C2661 C2666 1.370 . S
C2661 C2667 1.500 . S
C2662 C2665 1.383 . S
C2662 C2666 1.395 . S
C2663 C2664 1.396 . S
C2663 C2665 1.365 . S
C2663 H2680 0.929 . S
C2664 C2661 1.394 . S
C2664 C2663 1.396 . S
C2664 H2681 0.930 . S
C2665 C2662 1.383 . S
C2665 C2663 1.365 . S
C2665 H2682 0.931 . S
C2666 C2661 1.370 . S
C2666 C2662 1.395 . S
C2666 H2683 0.930 . S
C2667 Gd2614 2.805 . S
C2667 O2649 1.263 . S
C2667 O2650 1.252 . S
C2667 C2661 1.500 . S
C2668 H2630 0.930 . S
C2668 C2644 1.417 . S
C2668 C2669 1.329 . S
C2669 C2639 1.437 . S
C2669 H2640 0.929 . S
C2669 C2668 1.329 . S
H2670 C2643 0.931 . S
C2671 O2653 1.265 . S
C2671 O2654 1.242 . S
C2672 O2657 1.261 . S
C2672 O2658 1.252 . S
C2673 C2676 1.394 . S
C2673 C2678 1.370 . S
C2673 C2679 1.500 . S
C2674 C2677 1.383 . S
C2674 C2678 1.395 . S
C2675 C2676 1.396 . S
C2675 C2677 1.365 . S
C2675 H2684 0.929 . S
C2676 C2673 1.394 . S
C2676 C2675 1.396 . S
C2676 H2685 0.930 . S
C2677 C2674 1.383 . S
C2677 C2675 1.365 . S
C2677 H2686 0.931 . S
C2678 C2673 1.370 . S
C2678 C2674 1.395 . S
C2678 H2687 0.930 . S
C2679 Gd2615 2.805 . S
C2679 O2655 1.263 . S
C2679 O2656 1.252 . S
C2679 C2673 1.500 . S
H2680 C2663 0.929 . S
H2681 C2664 0.930 . S
H2682 C2665 0.931 . S
H2683 C2666 0.930 . S
H2684 C2675 0.929 . S
H2685 C2676 0.930 . S
H2686 C2677 0.931 . S
H2687 C2678 0.930 . S
C2688 C2690 1.422 . S
C2688 C2692 1.415 1_565 S
C2688 N2694 1.369 . S
C2689 C2690 1.421 1_545 S
C2689 C2691 1.417 . S
C2689 C2701 1.422 1_545 S
C2690 C2688 1.422 . S
C2690 C2689 1.421 1_565 S
C2690 N2700 1.359 . S
C2691 C2689 1.417 . S
C2691 C2693 1.329 . S
C2691 H2710 0.930 . S
C2692 C2688 1.415 1_545 S
C2692 C2693 1.437 . S
C2692 C2696 1.413 . S
C2693 C2691 1.329 . S
C2693 C2692 1.437 . S
C2693 H2715 0.929 . S
N2694 C2688 1.369 . S
N2694 C2695 1.338 . S
N2694 Gd2699 2.622 . S
C2695 N2694 1.338 . S
C2695 C2697 1.378 1_565 S
C2695 H2707 0.929 . S
C2696 C2692 1.413 . S
C2696 C2697 1.348 . S
C2696 H2712 0.931 . S
C2697 C2695 1.378 1_545 S
C2697 C2696 1.348 . S
C2697 H2713 0.930 . S
Gd2698 N2718 2.622 . S
Gd2698 N2725 2.570 . S
Gd2698 O2732 2.353 . S
Gd2698 O2733 2.468 . S
Gd2698 O2734 2.427 . S
Gd2698 O2736 2.388 . S
Gd2698 O2737 2.386 . S
Gd2698 O2741 2.307 . S
Gd2698 C2751 2.805 . S
Gd2699 N2694 2.622 . S
Gd2699 N2700 2.570 . S
Gd2699 O2731 2.386 . S
Gd2699 O2735 2.307 . S
Gd2699 O2738 2.353 . S
Gd2699 O2739 2.468 . S
Gd2699 O2740 2.427 . S
Gd2699 O2742 2.388 . S
Gd2699 C2763 2.805 . S
N2700 C2690 1.359 . S
N2700 Gd2699 2.570 . S
N2700 C2702 1.343 . S
C2701 C2689 1.422 1_565 S
C2701 C2703 1.321 . S
C2701 H2709 0.931 1_565 S
C2702 N2700 1.343 . S
C2702 C2703 1.390 . S
C2702 H2704 0.931 . S
C2703 C2701 1.321 . S
C2703 C2702 1.390 . S
C2703 H2705 0.930 . S
H2704 C2702 0.931 . S
H2705 C2703 0.930 . S
H2706 C2729 0.931 . S
H2707 C2695 0.929 . S
H2708 C2730 0.930 . S
H2709 C2701 0.931 1_545 S
H2710 C2691 0.930 . S
H2711 C2720 0.929 . S
H2712 C2696 0.931 . S
H2713 C2697 0.930 . S
H2714 C2752 0.930 . S
H2715 C2693 0.929 . S
H2716 C2721 0.931 . S
H2717 C2722 0.930 . S
N2718 Gd2698 2.622 . S
N2718 C2719 1.369 . S
N2718 C2720 1.338 . S
C2719 N2718 1.369 . S
C2719 C2723 1.415 . S
C2719 C2726 1.422 . S
C2720 H2711 0.929 . S
C2720 N2718 1.338 . S
C2720 C2722 1.378 . S
C2721 H2716 0.931 . S
C2721 C2722 1.348 . S
C2721 C2723 1.413 . S
C2722 H2717 0.930 . S
C2722 C2720 1.378 . S
C2722 C2721 1.348 . S
C2723 C2719 1.415 . S
C2723 C2721 1.413 . S
C2723 C2753 1.437 . S
H2724 C2753 0.929 . S
N2725 Gd2698 2.570 . S
N2725 C2726 1.359 . S
N2725 C2729 1.343 . S
C2726 C2719 1.422 . S
C2726 N2725 1.359 . S
C2726 C2728 1.421 . S
C2727 C2728 1.422 . S
C2727 C2730 1.321 . S
C2727 H2754 0.931 . S
C2728 C2726 1.421 . S
C2728 C2727 1.422 . S
C2728 C2752 1.417 . S
C2729 H2706 0.931 . S
C2729 N2725 1.343 . S
C2729 C2730 1.390 . S
C2730 H2708 0.930 . S
C2730 C2727 1.321 . S
C2730 C2729 1.390 . S
O2731 Gd2699 2.386 . S
O2731 C2743 1.265 . S
O2732 Gd2698 2.353 . S
O2732 C2743 1.242 . S
O2733 Gd2698 2.468 . S
O2733 C2751 1.263 . S
O2734 Gd2698 2.427 . S
O2734 C2751 1.252 . S
O2735 Gd2699 2.307 . S
O2735 C2744 1.261 . S
O2736 Gd2698 2.388 . S
O2736 C2744 1.252 . S
O2737 Gd2698 2.386 . S
O2737 C2755 1.265 . S
O2738 Gd2699 2.353 . S
O2738 C2755 1.242 . S
O2739 Gd2699 2.468 . S
O2739 C2763 1.263 . S
O2740 Gd2699 2.427 . S
O2740 C2763 1.252 . S
O2741 Gd2698 2.307 . S
O2741 C2756 1.261 . S
O2742 Gd2699 2.388 . S
O2742 C2756 1.252 . S
C2743 O2731 1.265 . S
C2743 O2732 1.242 . S
C2744 O2735 1.261 . S
C2744 O2736 1.252 . S
C2745 C2748 1.394 . S
C2745 C2750 1.370 . S
C2745 C2751 1.500 . S
C2746 C2749 1.383 . S
C2746 C2750 1.395 . S
C2747 C2748 1.396 . S
C2747 C2749 1.365 . S
C2747 H2764 0.929 . S
C2748 C2745 1.394 . S
C2748 C2747 1.396 . S
C2748 H2765 0.930 . S
C2749 C2746 1.383 . S
C2749 C2747 1.365 . S
C2749 H2766 0.931 . S
C2750 C2745 1.370 . S
C2750 C2746 1.395 . S
C2750 H2767 0.930 . S
C2751 Gd2698 2.805 . S
C2751 O2733 1.263 . S
C2751 O2734 1.252 . S
C2751 C2745 1.500 . S
C2752 H2714 0.930 . S
C2752 C2728 1.417 . S
C2752 C2753 1.329 . S
C2753 C2723 1.437 . S
C2753 H2724 0.929 . S
C2753 C2752 1.329 . S
H2754 C2727 0.931 . S
C2755 O2737 1.265 . S
C2755 O2738 1.242 . S
C2756 O2741 1.261 . S
C2756 O2742 1.252 . S
C2757 C2760 1.394 . S
C2757 C2762 1.370 . S
C2757 C2763 1.500 . S
C2758 C2761 1.383 . S
C2758 C2762 1.395 . S
C2759 C2760 1.396 . S
C2759 C2761 1.365 . S
C2759 H2768 0.929 . S
C2760 C2757 1.394 . S
C2760 C2759 1.396 . S
C2760 H2769 0.930 . S
C2761 C2758 1.383 . S
C2761 C2759 1.365 . S
C2761 H2770 0.931 . S
C2762 C2757 1.370 . S
C2762 C2758 1.395 . S
C2762 H2771 0.930 . S
C2763 Gd2699 2.805 . S
C2763 O2739 1.263 . S
C2763 O2740 1.252 . S
C2763 C2757 1.500 . S
H2764 C2747 0.929 . S
H2765 C2748 0.930 . S
H2766 C2749 0.931 . S
H2767 C2750 0.930 . S
H2768 C2759 0.929 . S
H2769 C2760 0.930 . S
H2770 C2761 0.931 . S
H2771 C2762 0.930 . S
C2772 C2774 1.422 . S
C2772 C2776 1.415 . S
C2772 N2778 1.369 . S
C2773 C2774 1.421 . S
C2773 C2775 1.417 . S
C2773 C2785 1.422 . S
C2774 C2772 1.422 . S
C2774 C2773 1.421 . S
C2774 N2784 1.359 . S
C2775 C2773 1.417 . S
C2775 C2777 1.329 . S
C2775 H2794 0.930 . S
C2776 C2772 1.415 . S
C2776 C2777 1.437 . S
C2776 C2780 1.413 . S
C2777 C2775 1.329 . S
C2777 C2776 1.437 . S
C2777 H2799 0.929 . S
N2778 C2772 1.369 . S
N2778 C2779 1.338 . S
N2778 Gd2783 2.622 . S
C2779 N2778 1.338 . S
C2779 C2781 1.378 . S
C2779 H2791 0.929 . S
C2780 C2776 1.413 . S
C2780 C2781 1.348 . S
C2780 H2796 0.931 . S
C2781 C2779 1.378 . S
C2781 C2780 1.348 . S
C2781 H2797 0.930 . S
Gd2782 N2802 2.622 . S
Gd2782 N2809 2.570 . S
Gd2782 O2816 2.353 . S
Gd2782 O2817 2.468 . S
Gd2782 O2818 2.427 . S
Gd2782 O2820 2.388 . S
Gd2782 O2821 2.386 . S
Gd2782 O2825 2.307 . S
Gd2782 C2835 2.805 . S
Gd2783 N2778 2.622 . S
Gd2783 N2784 2.570 . S
Gd2783 O2815 2.386 . S
Gd2783 O2819 2.307 . S
Gd2783 O2822 2.353 . S
Gd2783 O2823 2.468 . S
Gd2783 O2824 2.427 . S
Gd2783 O2826 2.388 . S
Gd2783 C2847 2.805 . S
N2784 C2774 1.359 . S
N2784 Gd2783 2.570 . S
N2784 C2786 1.343 . S
C2785 C2773 1.422 . S
C2785 C2787 1.321 . S
C2785 H2793 0.931 . S
C2786 N2784 1.343 . S
C2786 C2787 1.390 . S
C2786 H2788 0.931 . S
C2787 C2785 1.321 . S
C2787 C2786 1.390 . S
C2787 H2789 0.930 . S
H2788 C2786 0.931 . S
H2789 C2787 0.930 . S
H2790 C2813 0.931 . S
H2791 C2779 0.929 . S
H2792 C2814 0.930 . S
H2793 C2785 0.931 . S
H2794 C2775 0.930 . S
H2795 C2804 0.929 . S
H2796 C2780 0.931 . S
H2797 C2781 0.930 . S
H2798 C2836 0.930 . S
H2799 C2777 0.929 . S
H2800 C2805 0.931 . S
H2801 C2806 0.930 . S
N2802 Gd2782 2.622 . S
N2802 C2803 1.369 . S
N2802 C2804 1.338 . S
C2803 N2802 1.369 . S
C2803 C2807 1.415 . S
C2803 C2810 1.422 . S
C2804 H2795 0.929 . S
C2804 N2802 1.338 . S
C2804 C2806 1.378 . S
C2805 H2800 0.931 . S
C2805 C2806 1.348 . S
C2805 C2807 1.413 . S
C2806 H2801 0.930 . S
C2806 C2804 1.378 . S
C2806 C2805 1.348 . S
C2807 C2803 1.415 . S
C2807 C2805 1.413 . S
C2807 C2837 1.437 . S
H2808 C2837 0.929 . S
N2809 Gd2782 2.570 . S
N2809 C2810 1.359 . S
N2809 C2813 1.343 . S
C2810 C2803 1.422 . S
C2810 N2809 1.359 . S
C2810 C2812 1.421 . S
C2811 C2812 1.422 . S
C2811 C2814 1.321 . S
C2811 H2838 0.931 . S
C2812 C2810 1.421 . S
C2812 C2811 1.422 . S
C2812 C2836 1.417 . S
C2813 H2790 0.931 . S
C2813 N2809 1.343 . S
C2813 C2814 1.390 . S
C2814 H2792 0.930 . S
C2814 C2811 1.321 . S
C2814 C2813 1.390 . S
O2815 Gd2783 2.386 . S
O2815 C2827 1.265 . S
O2816 Gd2782 2.353 . S
O2816 C2827 1.242 . S
O2817 Gd2782 2.468 . S
O2817 C2835 1.263 . S
O2818 Gd2782 2.427 . S
O2818 C2835 1.252 . S
O2819 Gd2783 2.307 . S
O2819 C2828 1.261 . S
O2820 Gd2782 2.388 . S
O2820 C2828 1.252 . S
O2821 Gd2782 2.386 . S
O2821 C2839 1.265 . S
O2822 Gd2783 2.353 . S
O2822 C2839 1.242 . S
O2823 Gd2783 2.468 . S
O2823 C2847 1.263 . S
O2824 Gd2783 2.427 . S
O2824 C2847 1.252 . S
O2825 Gd2782 2.307 . S
O2825 C2840 1.261 . S
O2826 Gd2783 2.388 . S
O2826 C2840 1.252 . S
C2827 O2815 1.265 . S
C2827 O2816 1.242 . S
C2828 O2819 1.261 . S
C2828 O2820 1.252 . S
C2829 C2832 1.394 . S
C2829 C2834 1.370 . S
C2829 C2835 1.500 . S
C2830 C2833 1.383 . S
C2830 C2834 1.395 . S
C2831 C2832 1.396 . S
C2831 C2833 1.365 . S
C2831 H2848 0.929 . S
C2832 C2829 1.394 . S
C2832 C2831 1.396 . S
C2832 H2849 0.930 . S
C2833 C2830 1.383 . S
C2833 C2831 1.365 . S
C2833 H2850 0.931 . S
C2834 C2829 1.370 . S
C2834 C2830 1.395 . S
C2834 H2851 0.930 . S
C2835 Gd2782 2.805 . S
C2835 O2817 1.263 . S
C2835 O2818 1.252 . S
C2835 C2829 1.500 . S
C2836 H2798 0.930 . S
C2836 C2812 1.417 . S
C2836 C2837 1.329 . S
C2837 C2807 1.437 . S
C2837 H2808 0.929 . S
C2837 C2836 1.329 . S
H2838 C2811 0.931 . S
C2839 O2821 1.265 . S
C2839 O2822 1.242 . S
C2840 O2825 1.261 . S
C2840 O2826 1.252 . S
C2841 C2844 1.394 . S
C2841 C2846 1.370 . S
C2841 C2847 1.500 . S
C2842 C2845 1.383 . S
C2842 C2846 1.395 . S
C2843 C2844 1.396 . S
C2843 C2845 1.365 . S
C2843 H2852 0.929 . S
C2844 C2841 1.394 . S
C2844 C2843 1.396 . S
C2844 H2853 0.930 . S
C2845 C2842 1.383 . S
C2845 C2843 1.365 . S
C2845 H2854 0.931 . S
C2846 C2841 1.370 . S
C2846 C2842 1.395 . S
C2846 H2855 0.930 . S
C2847 Gd2783 2.805 . S
C2847 O2823 1.263 . S
C2847 O2824 1.252 . S
C2847 C2841 1.500 . S
H2848 C2831 0.929 . S
H2849 C2832 0.930 . S
H2850 C2833 0.931 . S
H2851 C2834 0.930 . S
H2852 C2843 0.929 . S
H2853 C2844 0.930 . S
H2854 C2845 0.931 . S
H2855 C2846 0.930 . S
C2856 C2858 1.422 . S
C2856 C2860 1.415 . S
C2856 N2862 1.369 . S
C2857 C2858 1.421 . S
C2857 C2859 1.417 . S
C2857 C2869 1.422 . S
C2858 C2856 1.422 . S
C2858 C2857 1.421 . S
C2858 N2868 1.359 . S
C2859 C2857 1.417 . S
C2859 C2861 1.329 . S
C2859 H2878 0.930 . S
C2860 C2856 1.415 . S
C2860 C2861 1.437 . S
C2860 C2864 1.413 . S
C2861 C2859 1.329 . S
C2861 C2860 1.437 . S
C2861 H2883 0.929 . S
N2862 C2856 1.369 . S
N2862 C2863 1.338 . S
N2862 Gd2867 2.622 . S
C2863 N2862 1.338 . S
C2863 C2865 1.378 . S
C2863 H2875 0.929 . S
C2864 C2860 1.413 . S
C2864 C2865 1.348 . S
C2864 H2880 0.931 . S
C2865 C2863 1.378 . S
C2865 C2864 1.348 . S
C2865 H2881 0.930 . S
Gd2866 N2886 2.622 . S
Gd2866 N2893 2.570 . S
Gd2866 O2900 2.353 . S
Gd2866 O2901 2.468 . S
Gd2866 O2902 2.427 . S
Gd2866 O2904 2.388 . S
Gd2866 O2905 2.386 . S
Gd2866 O2909 2.307 . S
Gd2866 C2919 2.805 . S
Gd2867 N2862 2.622 . S
Gd2867 N2868 2.570 . S
Gd2867 O2899 2.386 . S
Gd2867 O2903 2.307 . S
Gd2867 O2906 2.353 . S
Gd2867 O2907 2.468 . S
Gd2867 O2908 2.427 . S
Gd2867 O2910 2.388 . S
Gd2867 C2931 2.805 . S
N2868 C2858 1.359 . S
N2868 Gd2867 2.570 . S
N2868 C2870 1.343 . S
C2869 C2857 1.422 . S
C2869 C2871 1.321 . S
C2869 H2877 0.931 . S
C2870 N2868 1.343 . S
C2870 C2871 1.390 . S
C2870 H2872 0.931 . S
C2871 C2869 1.321 . S
C2871 C2870 1.390 . S
C2871 H2873 0.930 . S
H2872 C2870 0.931 . S
H2873 C2871 0.930 . S
H2874 C2897 0.931 . S
H2875 C2863 0.929 . S
H2876 C2898 0.930 . S
H2877 C2869 0.931 . S
H2878 C2859 0.930 . S
H2879 C2888 0.929 . S
H2880 C2864 0.931 . S
H2881 C2865 0.930 . S
H2882 C2920 0.930 . S
H2883 C2861 0.929 . S
H2884 C2889 0.931 . S
H2885 C2890 0.930 . S
N2886 Gd2866 2.622 . S
N2886 C2887 1.369 . S
N2886 C2888 1.338 . S
C2887 N2886 1.369 . S
C2887 C2891 1.415 . S
C2887 C2894 1.422 . S
C2888 H2879 0.929 . S
C2888 N2886 1.338 . S
C2888 C2890 1.378 . S
C2889 H2884 0.931 . S
C2889 C2890 1.348 . S
C2889 C2891 1.413 . S
C2890 H2885 0.930 . S
C2890 C2888 1.378 . S
C2890 C2889 1.348 . S
C2891 C2887 1.415 . S
C2891 C2889 1.413 . S
C2891 C2921 1.437 . S
H2892 C2921 0.929 . S
N2893 Gd2866 2.570 . S
N2893 C2894 1.359 . S
N2893 C2897 1.343 . S
C2894 C2887 1.422 . S
C2894 N2893 1.359 . S
C2894 C2896 1.421 . S
C2895 C2896 1.422 . S
C2895 C2898 1.321 . S
C2895 H2922 0.931 . S
C2896 C2894 1.421 . S
C2896 C2895 1.422 . S
C2896 C2920 1.417 . S
C2897 H2874 0.931 . S
C2897 N2893 1.343 . S
C2897 C2898 1.390 . S
C2898 H2876 0.930 . S
C2898 C2895 1.321 . S
C2898 C2897 1.390 . S
O2899 Gd2867 2.386 . S
O2899 C2911 1.265 . S
O2900 Gd2866 2.353 . S
O2900 C2911 1.242 . S
O2901 Gd2866 2.468 . S
O2901 C2919 1.263 . S
O2902 Gd2866 2.427 . S
O2902 C2919 1.252 . S
O2903 Gd2867 2.307 . S
O2903 C2912 1.261 . S
O2904 Gd2866 2.388 . S
O2904 C2912 1.252 . S
O2905 Gd2866 2.386 . S
O2905 C2923 1.265 . S
O2906 Gd2867 2.353 . S
O2906 C2923 1.242 . S
O2907 Gd2867 2.468 . S
O2907 C2931 1.263 . S
O2908 Gd2867 2.427 . S
O2908 C2931 1.252 . S
O2909 Gd2866 2.307 . S
O2909 C2924 1.261 . S
O2910 Gd2867 2.388 . S
O2910 C2924 1.252 . S
C2911 O2899 1.265 . S
C2911 O2900 1.242 . S
C2912 O2903 1.261 . S
C2912 O2904 1.252 . S
C2913 C2916 1.394 . S
C2913 C2918 1.370 . S
C2913 C2919 1.500 . S
C2914 C2917 1.383 . S
C2914 C2918 1.395 . S
C2915 C2916 1.396 . S
C2915 C2917 1.365 . S
C2915 H2932 0.929 . S
C2916 C2913 1.394 . S
C2916 C2915 1.396 . S
C2916 H2933 0.930 . S
C2917 C2914 1.383 . S
C2917 C2915 1.365 . S
C2917 H2934 0.931 . S
C2918 C2913 1.370 . S
C2918 C2914 1.395 . S
C2918 H2935 0.930 . S
C2919 Gd2866 2.805 . S
C2919 O2901 1.263 . S
C2919 O2902 1.252 . S
C2919 C2913 1.500 . S
C2920 H2882 0.930 . S
C2920 C2896 1.417 . S
C2920 C2921 1.329 . S
C2921 C2891 1.437 . S
C2921 H2892 0.929 . S
C2921 C2920 1.329 . S
H2922 C2895 0.931 . S
C2923 O2905 1.265 . S
C2923 O2906 1.242 . S
C2924 O2909 1.261 . S
C2924 O2910 1.252 . S
C2925 C2928 1.394 . S
C2925 C2930 1.370 . S
C2925 C2931 1.500 . S
C2926 C2929 1.383 . S
C2926 C2930 1.395 . S
C2927 C2928 1.396 . S
C2927 C2929 1.365 . S
C2927 H2936 0.929 . S
C2928 C2925 1.394 . S
C2928 C2927 1.396 . S
C2928 H2937 0.930 . S
C2929 C2926 1.383 . S
C2929 C2927 1.365 . S
C2929 H2938 0.931 . S
C2930 C2925 1.370 . S
C2930 C2926 1.395 . S
C2930 H2939 0.930 . S
C2931 Gd2867 2.805 . S
C2931 O2907 1.263 . S
C2931 O2908 1.252 . S
C2931 C2925 1.500 . S
H2932 C2915 0.929 . S
H2933 C2916 0.930 . S
H2934 C2917 0.931 . S
H2935 C2918 0.930 . S
H2936 C2927 0.929 . S
H2937 C2928 0.930 . S
H2938 C2929 0.931 . S
H2939 C2930 0.930 . S
C2940 C2942 1.422 . S
C2940 C2944 1.415 . S
C2940 N2946 1.369 . S
C2941 C2942 1.421 . S
C2941 C2943 1.417 . S
C2941 C2953 1.422 . S
C2942 C2940 1.422 . S
C2942 C2941 1.421 . S
C2942 N2952 1.359 . S
C2943 C2941 1.417 . S
C2943 C2945 1.329 . S
C2943 H2962 0.930 . S
C2944 C2940 1.415 . S
C2944 C2945 1.437 . S
C2944 C2948 1.413 . S
C2945 C2943 1.329 . S
C2945 C2944 1.437 . S
C2945 H2967 0.929 . S
N2946 C2940 1.369 . S
N2946 C2947 1.338 . S
N2946 Gd2951 2.622 . S
C2947 N2946 1.338 . S
C2947 C2949 1.378 . S
C2947 H2959 0.929 . S
C2948 C2944 1.413 . S
C2948 C2949 1.348 . S
C2948 H2964 0.931 . S
C2949 C2947 1.378 . S
C2949 C2948 1.348 . S
C2949 H2965 0.930 . S
Gd2950 N2970 2.622 . S
Gd2950 N2977 2.570 . S
Gd2950 O2984 2.353 . S
Gd2950 O2985 2.468 . S
Gd2950 O2986 2.427 . S
Gd2950 O2988 2.388 . S
Gd2950 O2989 2.386 . S
Gd2950 O2993 2.307 . S
Gd2950 C3003 2.805 . S
Gd2951 N2946 2.622 . S
Gd2951 N2952 2.570 . S
Gd2951 O2983 2.386 . S
Gd2951 O2987 2.307 . S
Gd2951 O2990 2.353 . S
Gd2951 O2991 2.468 . S
Gd2951 O2992 2.427 . S
Gd2951 O2994 2.388 . S
Gd2951 C3015 2.805 . S
N2952 C2942 1.359 . S
N2952 Gd2951 2.570 . S
N2952 C2954 1.343 . S
C2953 C2941 1.422 . S
C2953 C2955 1.321 . S
C2953 H2961 0.931 . S
C2954 N2952 1.343 . S
C2954 C2955 1.390 . S
C2954 H2956 0.931 . S
C2955 C2953 1.321 . S
C2955 C2954 1.390 . S
C2955 H2957 0.930 . S
H2956 C2954 0.931 . S
H2957 C2955 0.930 . S
H2958 C2981 0.931 . S
H2959 C2947 0.929 . S
H2960 C2982 0.930 . S
H2961 C2953 0.931 . S
H2962 C2943 0.930 . S
H2963 C2972 0.929 . S
H2964 C2948 0.931 . S
H2965 C2949 0.930 . S
H2966 C3004 0.930 . S
H2967 C2945 0.929 . S
H2968 C2973 0.931 . S
H2969 C2974 0.930 . S
N2970 Gd2950 2.622 . S
N2970 C2971 1.369 . S
N2970 C2972 1.338 . S
C2971 N2970 1.369 . S
C2971 C2975 1.415 . S
C2971 C2978 1.422 . S
C2972 H2963 0.929 . S
C2972 N2970 1.338 . S
C2972 C2974 1.378 . S
C2973 H2968 0.931 . S
C2973 C2974 1.348 . S
C2973 C2975 1.413 . S
C2974 H2969 0.930 . S
C2974 C2972 1.378 . S
C2974 C2973 1.348 . S
C2975 C2971 1.415 . S
C2975 C2973 1.413 . S
C2975 C3005 1.437 . S
H2976 C3005 0.929 . S
N2977 Gd2950 2.570 . S
N2977 C2978 1.359 . S
N2977 C2981 1.343 . S
C2978 C2971 1.422 . S
C2978 N2977 1.359 . S
C2978 C2980 1.421 . S
C2979 C2980 1.422 . S
C2979 C2982 1.321 . S
C2979 H3006 0.931 . S
C2980 C2978 1.421 . S
C2980 C2979 1.422 . S
C2980 C3004 1.417 . S
C2981 H2958 0.931 . S
C2981 N2977 1.343 . S
C2981 C2982 1.390 . S
C2982 H2960 0.930 . S
C2982 C2979 1.321 . S
C2982 C2981 1.390 . S
O2983 Gd2951 2.386 . S
O2983 C2995 1.265 . S
O2984 Gd2950 2.353 . S
O2984 C2995 1.242 . S
O2985 Gd2950 2.468 . S
O2985 C3003 1.263 . S
O2986 Gd2950 2.427 . S
O2986 C3003 1.252 . S
O2987 Gd2951 2.307 . S
O2987 C2996 1.261 . S
O2988 Gd2950 2.388 . S
O2988 C2996 1.252 . S
O2989 Gd2950 2.386 . S
O2989 C3007 1.265 . S
O2990 Gd2951 2.353 . S
O2990 C3007 1.242 . S
O2991 Gd2951 2.468 . S
O2991 C3015 1.263 . S
O2992 Gd2951 2.427 . S
O2992 C3015 1.252 . S
O2993 Gd2950 2.307 . S
O2993 C3008 1.261 . S
O2994 Gd2951 2.388 . S
O2994 C3008 1.252 . S
C2995 O2983 1.265 . S
C2995 O2984 1.242 . S
C2996 O2987 1.261 . S
C2996 O2988 1.252 . S
C2997 C3000 1.394 . S
C2997 C3002 1.370 . S
C2997 C3003 1.500 . S
C2998 C3001 1.383 . S
C2998 C3002 1.395 . S
C2999 C3000 1.396 . S
C2999 C3001 1.365 . S
C2999 H3016 0.929 . S
C3000 C2997 1.394 . S
C3000 C2999 1.396 . S
C3000 H3017 0.930 . S
C3001 C2998 1.383 . S
C3001 C2999 1.365 . S
C3001 H3018 0.931 . S
C3002 C2997 1.370 . S
C3002 C2998 1.395 . S
C3002 H3019 0.930 . S
C3003 Gd2950 2.805 . S
C3003 O2985 1.263 . S
C3003 O2986 1.252 . S
C3003 C2997 1.500 . S
C3004 H2966 0.930 . S
C3004 C2980 1.417 . S
C3004 C3005 1.329 . S
C3005 C2975 1.437 . S
C3005 H2976 0.929 . S
C3005 C3004 1.329 . S
H3006 C2979 0.931 . S
C3007 O2989 1.265 . S
C3007 O2990 1.242 . S
C3008 O2993 1.261 . S
C3008 O2994 1.252 . S
C3009 C3012 1.394 . S
C3009 C3014 1.370 . S
C3009 C3015 1.500 . S
C3010 C3013 1.383 . S
C3010 C3014 1.395 . S
C3011 C3012 1.396 . S
C3011 C3013 1.365 . S
C3011 H3020 0.929 . S
C3012 C3009 1.394 . S
C3012 C3011 1.396 . S
C3012 H3021 0.930 . S
C3013 C3010 1.383 . S
C3013 C3011 1.365 . S
C3013 H3022 0.931 . S
C3014 C3009 1.370 . S
C3014 C3010 1.395 . S
C3014 H3023 0.930 . S
C3015 Gd2951 2.805 . S
C3015 O2991 1.263 . S
C3015 O2992 1.252 . S
C3015 C3009 1.500 . S
H3016 C2999 0.929 . S
H3017 C3000 0.930 . S
H3018 C3001 0.931 . S
H3019 C3002 0.930 . S
H3020 C3011 0.929 . S
H3021 C3012 0.930 . S
H3022 C3013 0.931 . S
H3023 C3014 0.930 . S
H3024 C3032 0.950 . S
H3025 C3037 0.950 . S
H3026 C3034 0.950 . S
H3027 C3036 0.950 . S
H3028 C3038 0.950 . S
H3029 C3040 0.950 . S
H3030 C3042 0.954 . S
H3031 C3043 0.950 1_554 S
C3032 H3024 0.950 . S
C3032 C3033 1.386 . S
C3032 C3034 1.391 . S
C3033 C3032 1.386 . S
C3033 C3037 1.393 1_554 S
C3034 H3026 0.950 . S
C3034 C3032 1.391 . S
C3034 C3035 1.400 . S
C3035 C3034 1.400 . S
C3035 C3036 1.398 1_554 S
C3035 C3041 1.491 1_554 S
C3036 H3027 0.950 . S
C3036 C3035 1.398 1_556 S
C3036 C3037 1.391 . S
C3037 H3025 0.950 . S
C3037 C3033 1.393 1_556 S
C3037 C3036 1.391 . S
C3038 H3028 0.950 . S
C3038 C3039 1.386 . S
C3038 C3040 1.391 1_565 S
C3039 C3038 1.386 . S
C3039 C3043 1.393 . S
C3040 H3029 0.950 . S
C3040 C3038 1.391 1_545 S
C3040 C3041 1.400 . S
C3041 C3035 1.491 1_556 S
C3041 C3040 1.400 . S
C3041 C3042 1.428 1_556 S
C3042 H3030 0.954 . S
C3042 C3041 1.428 1_554 S
C3042 C3043 1.357 1_544 S
C3043 H3031 0.950 1_556 S
C3043 C3039 1.393 . S
C3043 C3042 1.357 1_566 S
H3044 C3052 0.950 . S
H3045 C3057 0.950 . S
H3046 C3054 0.950 . S
H3047 C3056 0.950 . S
H3048 C3058 0.950 . S
H3049 C3060 0.950 . S
H3050 C3062 0.950 . S
H3051 C3063 0.950 . S
C3052 H3044 0.950 . S
C3052 C3053 1.386 . S
C3052 C3054 1.391 1_455 S
C3053 C3052 1.386 . S
C3053 C3057 1.393 1_556 S
C3054 H3046 0.950 . S
C3054 C3052 1.391 1_655 S
C3054 C3055 1.400 . S
C3055 C3054 1.400 . S
C3055 C3056 1.398 1_656 S
C3055 C3061 1.491 1_556 S
C3056 H3047 0.950 . S
C3056 C3055 1.398 1_454 S
C3056 C3057 1.391 . S
C3057 H3045 0.950 . S
C3057 C3053 1.393 1_554 S
C3057 C3056 1.391 . S
C3058 H3048 0.950 . S
C3058 C3059 1.386 . S
C3058 C3060 1.391 . S
C3059 C3058 1.386 . S
C3059 C3063 1.393 1_554 S
C3060 H3049 0.950 . S
C3060 C3058 1.391 . S
C3060 C3061 1.400 . S
C3061 C3055 1.491 1_554 S
C3061 C3060 1.400 . S
C3061 C3062 1.398 1_554 S
C3062 H3050 0.950 . S
C3062 C3061 1.398 1_556 S
C3062 C3063 1.391 . S
C3063 H3051 0.950 . S
C3063 C3059 1.393 1_556 S
C3063 C3062 1.391 . S
H3064 C3072 0.950 . S
H3065 C3077 0.950 1_554 S
H3066 C3074 0.950 . S
H3067 C3076 0.950 . S
H3068 C3078 0.950 . S
H3069 C3080 0.950 . S
H3070 C3082 0.950 . S
H3071 C3083 0.949 1_556 S
C3072 H3064 0.950 . S
C3072 C3073 1.386 . S
C3072 C3074 1.391 . S
C3073 C3072 1.386 . S
C3073 C3077 1.393 . S
C3074 H3066 0.950 . S
C3074 C3072 1.391 . S
C3074 C3075 1.400 . S
C3075 C3074 1.400 . S
C3075 C3076 1.398 1_556 S
C3075 C3081 1.491 1_556 S
C3076 H3067 0.950 . S
C3076 C3075 1.398 1_554 S
C3076 C3077 1.391 1_554 S
C3077 H3065 0.950 1_556 S
C3077 C3073 1.393 . S
C3077 C3076 1.391 1_556 S
C3078 H3068 0.950 . S
C3078 C3079 1.386 . S
C3078 C3080 1.391 . S
C3079 C3078 1.386 . S
C3079 C3083 1.395 . S
C3080 H3069 0.950 . S
C3080 C3078 1.391 . S
C3080 C3081 1.400 . S
C3081 C3075 1.491 1_554 S
C3081 C3080 1.400 . S
C3081 C3082 1.398 1_554 S
C3082 H3070 0.950 . S
C3082 C3081 1.398 1_556 S
C3082 C3083 1.390 1_556 S
C3083 H3071 0.949 1_554 S
C3083 C3079 1.395 . S
C3083 C3082 1.390 1_554 S
H3084 C3092 0.950 . S
H3085 C3097 0.950 . S
H3086 C3094 0.948 1_455 S
H3087 C3096 0.950 . S
H3088 C3098 0.950 . S
H3089 C3100 0.950 . S
H3090 C3102 0.950 . S
H3091 C3103 0.950 . S
C3092 H3084 0.950 . S
C3092 C3093 1.386 . S
C3092 C3094 1.391 . S
C3093 C3092 1.386 . S
C3093 C3097 1.393 . S
C3094 H3086 0.948 1_655 S
C3094 C3092 1.391 . S
C3094 C3095 1.400 1_655 S
C3095 C3094 1.400 1_455 S
C3095 C3096 1.398 . S
C3095 C3101 1.491 . S
C3096 H3087 0.950 . S
C3096 C3095 1.398 . S
C3096 C3097 1.391 1_455 S
C3097 H3085 0.950 . S
C3097 C3093 1.393 . S
C3097 C3096 1.391 1_655 S
C3098 H3088 0.950 . S
C3098 C3099 1.386 . S
C3098 C3100 1.391 . S
C3099 C3098 1.386 . S
C3099 C3103 1.393 . S
C3100 H3089 0.950 . S
C3100 C3098 1.391 . S
C3100 C3101 1.400 . S
C3101 C3095 1.491 . S
C3101 C3100 1.400 . S
C3101 C3102 1.398 . S
C3102 H3090 0.950 . S
C3102 C3101 1.398 . S
C3102 C3103 1.391 . S
C3103 H3091 0.950 . S
C3103 C3099 1.393 . S
C3103 C3102 1.391 . S
H3104 C3112 0.950 . S
H3105 C3117 0.950 . S
H3106 C3114 0.950 . S
H3107 C3116 0.950 . S
H3108 C3118 0.950 . S
H3109 C3120 0.950 . S
H3110 C3122 0.950 . S
H3111 C3123 0.950 . S
C3112 H3104 0.950 . S
C3112 C3113 1.386 . S
C3112 C3114 1.391 . S
C3113 C3112 1.386 . S
C3113 C3117 1.393 . S
C3114 H3106 0.950 . S
C3114 C3112 1.391 . S
C3114 C3115 1.400 . S
C3115 C3114 1.400 . S
C3115 C3116 1.398 . S
C3115 C3121 1.491 . S
C3116 H3107 0.950 . S
C3116 C3115 1.398 . S
C3116 C3117 1.391 . S
C3117 H3105 0.950 . S
C3117 C3113 1.393 . S
C3117 C3116 1.391 . S
C3118 H3108 0.950 . S
C3118 C3119 1.386 . S
C3118 C3120 1.391 . S
C3119 C3118 1.386 . S
C3119 C3123 1.393 . S
C3120 H3109 0.950 . S
C3120 C3118 1.391 . S
C3120 C3121 1.400 . S
C3121 C3115 1.491 . S
C3121 C3120 1.400 . S
C3121 C3122 1.398 . S
C3122 H3110 0.950 . S
C3122 C3121 1.398 . S
C3122 C3123 1.391 . S
C3123 H3111 0.950 . S
C3123 C3119 1.393 . S
C3123 C3122 1.391 . S
H3124 C3132 0.950 . S
H3125 C3137 0.950 . S
H3126 C3134 0.950 . S
H3127 C3136 0.950 . S
H3128 C3138 0.950 . S
H3129 C3140 0.972 . S
H3130 C3142 0.954 1_565 S
H3131 C3143 0.950 . S
C3132 H3124 0.950 . S
C3132 C3133 1.386 . S
C3132 C3134 1.391 . S
C3133 C3132 1.386 . S
C3133 C3137 1.393 . S
C3134 H3126 0.950 . S
C3134 C3132 1.391 . S
C3134 C3135 1.400 . S
C3135 C3134 1.400 . S
C3135 C3136 1.398 . S
C3135 C3141 1.491 . S
C3136 H3127 0.950 . S
C3136 C3135 1.398 . S
C3136 C3137 1.391 . S
C3137 H3125 0.950 . S
C3137 C3133 1.393 . S
C3137 C3136 1.391 . S
C3138 H3128 0.950 . S
C3138 C3139 1.386 . S
C3138 C3140 1.370 1_545 S
C3139 C3138 1.386 . S
C3139 C3143 1.393 . S
C3140 H3129 0.972 . S
C3140 C3138 1.370 1_565 S
C3140 C3141 1.400 . S
C3141 C3135 1.491 . S
C3141 C3140 1.400 . S
C3141 C3142 1.363 1_565 S
C3142 H3130 0.954 1_545 S
C3142 C3141 1.363 1_545 S
C3142 C3143 1.424 . S
C3143 H3131 0.950 . S
C3143 C3139 1.393 . S
C3143 C3142 1.424 . S
H3144 C3152 0.950 . S
H3145 C3157 0.950 . S
H3146 C3154 0.951 1_565 S
H3147 C3156 0.950 . S
H3148 C3158 0.950 . S
H3149 C3160 0.950 . S
H3150 C3162 0.950 . S
H3151 C3163 0.950 . S
C3152 H3144 0.950 . S
C3152 C3153 1.386 1_556 S
C3152 C3154 1.391 . S
C3153 C3152 1.386 1_554 S
C3153 C3157 1.393 . S
C3154 H3146 0.951 1_545 S
C3154 C3152 1.391 . S
C3154 C3155 1.400 1_546 S
C3155 C3154 1.400 1_564 S
C3155 C3156 1.398 . S
C3155 C3161 1.491 1_554 S
C3156 H3147 0.950 . S
C3156 C3155 1.398 . S
C3156 C3157 1.391 1_565 S
C3157 H3145 0.950 . S
C3157 C3153 1.393 . S
C3157 C3156 1.391 1_545 S
C3158 H3148 0.950 . S
C3158 C3159 1.386 1_554 S
C3158 C3160 1.391 . S
C3159 C3158 1.386 1_556 S
C3159 C3163 1.393 . S
C3160 H3149 0.950 . S
C3160 C3158 1.391 . S
C3160 C3161 1.400 1_554 S
C3161 C3155 1.491 1_556 S
C3161 C3160 1.400 1_556 S
C3161 C3162 1.398 . S
C3162 H3150 0.950 . S
C3162 C3161 1.398 . S
C3162 C3163 1.391 . S
C3163 H3151 0.950 . S
C3163 C3159 1.393 . S
C3163 C3162 1.391 . S
H3164 C3172 0.950 . S
H3165 C3177 0.950 1_554 S
H3166 C3174 0.950 . S
H3167 C3176 0.950 . S
H3168 C3178 0.950 . S
H3169 C3180 0.950 . S
H3170 C3182 0.950 . S
H3171 C3183 0.950 1_556 S
C3172 H3164 0.950 . S
C3172 C3173 1.386 . S
C3172 C3174 1.391 . S
C3173 C3172 1.386 . S
C3173 C3177 1.393 . S
C3174 H3166 0.950 . S
C3174 C3172 1.391 . S
C3174 C3175 1.400 . S
C3175 C3174 1.400 . S
C3175 C3176 1.398 1_556 S
C3175 C3181 1.491 1_556 S
C3176 H3167 0.950 . S
C3176 C3175 1.398 1_554 S
C3176 C3177 1.391 1_554 S
C3177 H3165 0.950 1_556 S
C3177 C3173 1.393 . S
C3177 C3176 1.391 1_556 S
C3178 H3168 0.950 . S
C3178 C3179 1.386 . S
C3178 C3180 1.391 1_655 S
C3179 C3178 1.386 . S
C3179 C3183 1.393 . S
C3180 H3169 0.950 . S
C3180 C3178 1.391 1_455 S
C3180 C3181 1.400 . S
C3181 C3175 1.491 1_554 S
C3181 C3180 1.400 . S
C3181 C3182 1.398 1_454 S
C3182 H3170 0.950 . S
C3182 C3181 1.398 1_656 S
C3182 C3183 1.391 1_556 S
C3183 H3171 0.950 1_554 S
C3183 C3179 1.393 . S
C3183 C3182 1.391 1_554 S
H3184 C3192 0.950 . S
H3185 C3197 0.950 . S
H3186 C3194 0.950 . S
H3187 C3196 0.950 . S
H3188 C3198 0.950 . S
H3189 C3200 0.950 . S
H3190 C3202 0.950 . S
H3191 C3203 0.950 . S
C3192 H3184 0.950 . S
C3192 C3193 1.386 1_556 S
C3192 C3194 1.391 . S
C3193 C3192 1.386 1_554 S
C3193 C3197 1.393 . S
C3194 H3186 0.950 . S
C3194 C3192 1.391 . S
C3194 C3195 1.400 1_556 S
C3195 C3194 1.400 1_554 S
C3195 C3196 1.398 . S
C3195 C3201 1.491 1_554 S
C3196 H3187 0.950 . S
C3196 C3195 1.398 . S
C3196 C3197 1.391 . S
C3197 H3185 0.950 . S
C3197 C3193 1.393 . S
C3197 C3196 1.391 . S
C3198 H3188 0.950 . S
C3198 C3199 1.386 1_554 S
C3198 C3200 1.391 . S
C3199 C3198 1.386 1_556 S
C3199 C3203 1.393 . S
C3200 H3189 0.950 . S
C3200 C3198 1.391 . S
C3200 C3201 1.400 1_554 S
C3201 C3195 1.491 1_556 S
C3201 C3200 1.400 1_556 S
C3201 C3202 1.398 . S
C3202 H3190 0.950 . S
C3202 C3201 1.398 . S
C3202 C3203 1.391 . S
C3203 H3191 0.950 . S
C3203 C3199 1.393 . S
C3203 C3202 1.391 . S
H3204 C3212 0.950 . S
H3205 C3217 0.950 . S
H3206 C3214 0.950 1_655 S
H3207 C3216 0.950 . S
H3208 C3218 0.950 . S
H3209 C3220 0.950 . S
H3210 C3222 0.950 . S
H3211 C3223 0.950 . S
C3212 H3204 0.950 . S
C3212 C3213 1.386 . S
C3212 C3214 1.391 . S
C3213 C3212 1.386 . S
C3213 C3217 1.393 . S
C3214 H3206 0.950 1_455 S
C3214 C3212 1.391 . S
C3214 C3215 1.400 1_455 S
C3215 C3214 1.400 1_655 S
C3215 C3216 1.398 . S
C3215 C3221 1.491 . S
C3216 H3207 0.950 . S
C3216 C3215 1.398 . S
C3216 C3217 1.391 1_655 S
C3217 H3205 0.950 . S
C3217 C3213 1.393 . S
C3217 C3216 1.391 1_455 S
C3218 H3208 0.950 . S
C3218 C3219 1.386 . S
C3218 C3220 1.391 . S
C3219 C3218 1.386 . S
C3219 C3223 1.393 . S
C3220 H3209 0.950 . S
C3220 C3218 1.391 . S
C3220 C3221 1.400 . S
C3221 C3215 1.491 . S
C3221 C3220 1.400 . S
C3221 C3222 1.398 . S
C3222 H3210 0.950 . S
C3222 C3221 1.398 . S
C3222 C3223 1.391 . S
C3223 H3211 0.950 . S
C3223 C3219 1.393 . S
C3223 C3222 1.391 . S
H3224 C3232 0.950 . S
H3225 C3237 0.950 . S
H3226 C3234 0.950 . S
H3227 C3236 0.950 . S
H3228 C3238 0.950 . S
H3229 C3240 0.950 . S
H3230 C3242 0.950 . S
H3231 C3243 0.950 . S
C3232 H3224 0.950 . S
C3232 C3233 1.386 . S
C3232 C3234 1.391 . S
C3233 C3232 1.386 . S
C3233 C3237 1.393 . S
C3234 H3226 0.950 . S
C3234 C3232 1.391 . S
C3234 C3235 1.400 . S
C3235 C3234 1.400 . S
C3235 C3236 1.398 . S
C3235 C3241 1.491 . S
C3236 H3227 0.950 . S
C3236 C3235 1.398 . S
C3236 C3237 1.391 . S
C3237 H3225 0.950 . S
C3237 C3233 1.393 . S
C3237 C3236 1.391 . S
C3238 H3228 0.950 . S
C3238 C3239 1.386 . S
C3238 C3240 1.391 . S
C3239 C3238 1.386 . S
C3239 C3243 1.393 . S
C3240 H3229 0.950 . S
C3240 C3238 1.391 . S
C3240 C3241 1.400 . S
C3241 C3235 1.491 . S
C3241 C3240 1.400 . S
C3241 C3242 1.398 . S
C3242 H3230 0.950 . S
C3242 C3241 1.398 . S
C3242 C3243 1.391 . S
C3243 H3231 0.950 . S
C3243 C3239 1.393 . S
C3243 C3242 1.391 . S
H3244 C3252 0.950 . S
H3245 C3257 0.950 . S
H3246 C3254 0.950 . S
H3247 C3256 0.950 . S
H3248 C3258 0.950 . S
H3249 C3260 0.950 . S
H3250 C3262 0.959 1_545 S
H3251 C3263 0.950 . S
C3252 H3244 0.950 . S
C3252 C3253 1.386 . S
C3252 C3254 1.391 . S
C3253 C3252 1.386 . S
C3253 C3257 1.393 . S
C3254 H3246 0.950 . S
C3254 C3252 1.391 . S
C3254 C3255 1.400 . S
C3255 C3254 1.400 . S
C3255 C3256 1.398 . S
C3255 C3261 1.491 . S
C3256 H3247 0.950 . S
C3256 C3255 1.398 . S
C3256 C3257 1.391 . S
C3257 H3245 0.950 . S
C3257 C3253 1.393 . S
C3257 C3256 1.391 . S
C3258 H3248 0.950 . S
C3258 C3259 1.386 . S
C3258 C3260 1.391 1_565 S
C3259 C3258 1.386 . S
C3259 C3263 1.393 . S
C3260 H3249 0.950 . S
C3260 C3258 1.391 1_545 S
C3260 C3261 1.400 . S
C3261 C3255 1.491 . S
C3261 C3260 1.400 . S
C3261 C3262 1.398 1_545 S
C3262 H3250 0.959 1_565 S
C3262 C3261 1.398 1_565 S
C3262 C3263 1.391 . S
C3263 H3251 0.950 . S
C3263 C3259 1.393 . S
C3263 C3262 1.391 . S
H3264 C3272 0.950 . S
H3265 C3277 0.950 . S
H3266 C3274 0.950 . S
H3267 C3276 0.950 . S
H3268 C3278 0.950 . S
H3269 C3280 0.950 . S
H3270 C3282 0.950 . S
H3271 C3283 0.950 . S
C3272 H3264 0.950 . S
C3272 C3273 1.386 . S
C3272 C3274 1.391 . S
C3273 C3272 1.386 . S
C3273 C3277 1.393 . S
C3274 H3266 0.950 . S
C3274 C3272 1.391 . S
C3274 C3275 1.400 . S
C3275 C3274 1.400 . S
C3275 C3276 1.398 . S
C3275 C3281 1.491 . S
C3276 H3267 0.950 . S
C3276 C3275 1.398 . S
C3276 C3277 1.391 . S
C3277 H3265 0.950 . S
C3277 C3273 1.393 . S
C3277 C3276 1.391 . S
C3278 H3268 0.950 . S
C3278 C3279 1.386 . S
C3278 C3280 1.391 . S
C3279 C3278 1.386 . S
C3279 C3283 1.393 . S
C3280 H3269 0.950 . S
C3280 C3278 1.391 . S
C3280 C3281 1.400 . S
C3281 C3275 1.491 . S
C3281 C3280 1.400 . S
C3281 C3282 1.398 . S
C3282 H3270 0.950 . S
C3282 C3281 1.398 . S
C3282 C3283 1.391 . S
C3283 H3271 0.950 . S
C3283 C3279 1.393 . S
C3283 C3282 1.391 . S
H3284 C3292 0.950 . S
H3285 C3297 0.950 . S
H3286 C3294 0.950 . S
H3287 C3296 0.950 . S
H3288 C3298 0.950 . S
H3289 C3300 0.950 . S
H3290 C3302 0.950 . S
H3291 C3303 0.950 . S
C3292 H3284 0.950 . S
C3292 C3293 1.386 . S
C3292 C3294 1.391 . S
C3293 C3292 1.386 . S
C3293 C3297 1.393 . S
C3294 H3286 0.950 . S
C3294 C3292 1.391 . S
C3294 C3295 1.400 . S
C3295 C3294 1.400 . S
C3295 C3296 1.398 . S
C3295 C3301 1.491 . S
C3296 H3287 0.950 . S
C3296 C3295 1.398 . S
C3296 C3297 1.391 . S
C3297 H3285 0.950 . S
C3297 C3293 1.393 . S
C3297 C3296 1.391 . S
C3298 H3288 0.950 . S
C3298 C3299 1.386 . S
C3298 C3300 1.391 . S
C3299 C3298 1.386 . S
C3299 C3303 1.393 . S
C3300 H3289 0.950 . S
C3300 C3298 1.391 . S
C3300 C3301 1.400 . S
C3301 C3295 1.491 . S
C3301 C3300 1.400 . S
C3301 C3302 1.398 . S
C3302 H3290 0.950 . S
C3302 C3301 1.398 . S
C3302 C3303 1.391 . S
C3303 H3291 0.950 . S
C3303 C3299 1.393 . S
C3303 C3302 1.391 . S
H3304 C3312 0.950 . S
H3305 C3317 0.950 . S
H3306 C3314 0.950 . S
H3307 C3316 0.950 . S
H3308 C3318 0.950 . S
H3309 C3320 0.950 . S
H3310 C3322 0.950 . S
H3311 C3323 0.950 . S
C3312 H3304 0.950 . S
C3312 C3313 1.386 . S
C3312 C3314 1.391 . S
C3313 C3312 1.386 . S
C3313 C3317 1.393 . S
C3314 H3306 0.950 . S
C3314 C3312 1.391 . S
C3314 C3315 1.400 . S
C3315 C3314 1.400 . S
C3315 C3316 1.398 . S
C3315 C3321 1.491 . S
C3316 H3307 0.950 . S
C3316 C3315 1.398 . S
C3316 C3317 1.391 . S
C3317 H3305 0.950 . S
C3317 C3313 1.393 . S
C3317 C3316 1.391 . S
C3318 H3308 0.950 . S
C3318 C3319 1.386 . S
C3318 C3320 1.391 . S
C3319 C3318 1.386 . S
C3319 C3323 1.393 . S
C3320 H3309 0.950 . S
C3320 C3318 1.391 . S
C3320 C3321 1.400 . S
C3321 C3315 1.491 . S
C3321 C3320 1.400 . S
C3321 C3322 1.398 . S
C3322 H3310 0.950 . S
C3322 C3321 1.398 . S
C3322 C3323 1.391 . S
C3323 H3311 0.950 . S
C3323 C3319 1.393 . S
C3323 C3322 1.391 . S
H3324 C3332 0.950 . S
H3325 C3337 0.950 . S
H3326 C3334 0.950 . S
H3327 C3336 0.950 . S
H3328 C3338 0.950 . S
H3329 C3340 0.950 . S
H3330 C3342 0.950 . S
H3331 C3343 0.950 . S
C3332 H3324 0.950 . S
C3332 C3333 1.386 . S
C3332 C3334 1.391 . S
C3333 C3332 1.386 . S
C3333 C3337 1.393 . S
C3334 H3326 0.950 . S
C3334 C3332 1.391 . S
C3334 C3335 1.400 . S
C3335 C3334 1.400 . S
C3335 C3336 1.398 . S
C3335 C3341 1.491 . S
C3336 H3327 0.950 . S
C3336 C3335 1.398 . S
C3336 C3337 1.391 . S
C3337 H3325 0.950 . S
C3337 C3333 1.393 . S
C3337 C3336 1.391 . S
C3338 H3328 0.950 . S
C3338 C3339 1.386 . S
C3338 C3340 1.391 . S
C3339 C3338 1.386 . S
C3339 C3343 1.393 . S
C3340 H3329 0.950 . S
C3340 C3338 1.391 . S
C3340 C3341 1.400 . S
C3341 C3335 1.491 . S
C3341 C3340 1.400 . S
C3341 C3342 1.398 . S
C3342 H3330 0.950 . S
C3342 C3341 1.398 . S
C3342 C3343 1.391 . S
C3343 H3331 0.950 . S
C3343 C3339 1.393 . S
C3343 C3342 1.391 . S
H3344 C3352 0.950 . S
H3345 C3357 0.950 . S
H3346 C3354 0.950 . S
H3347 C3356 0.950 . S
H3348 C3358 0.950 . S
H3349 C3360 0.950 . S
H3350 C3362 0.950 . S
H3351 C3363 0.950 . S
C3352 H3344 0.950 . S
C3352 C3353 1.386 . S
C3352 C3354 1.391 . S
C3353 C3352 1.386 . S
C3353 C3357 1.393 . S
C3354 H3346 0.950 . S
C3354 C3352 1.391 . S
C3354 C3355 1.400 . S
C3355 C3354 1.400 . S
C3355 C3356 1.398 . S
C3355 C3361 1.491 . S
C3356 H3347 0.950 . S
C3356 C3355 1.398 . S
C3356 C3357 1.391 . S
C3357 H3345 0.950 . S
C3357 C3353 1.393 . S
C3357 C3356 1.391 . S
C3358 H3348 0.950 . S
C3358 C3359 1.386 . S
C3358 C3360 1.391 . S
C3359 C3358 1.386 . S
C3359 C3363 1.393 . S
C3360 H3349 0.950 . S
C3360 C3358 1.391 . S
C3360 C3361 1.400 . S
C3361 C3355 1.491 . S
C3361 C3360 1.400 . S
C3361 C3362 1.398 . S
C3362 H3350 0.950 . S
C3362 C3361 1.398 . S
C3362 C3363 1.391 . S
C3363 H3351 0.950 . S
C3363 C3359 1.393 . S
C3363 C3362 1.391 . S
H3364 C3372 0.950 . S
H3365 C3377 0.950 . S
H3366 C3374 0.950 . S
H3367 C3376 0.950 . S
H3368 C3378 0.950 . S
H3369 C3380 0.950 . S
H3370 C3382 0.950 . S
H3371 C3383 0.950 . S
C3372 H3364 0.950 . S
C3372 C3373 1.386 . S
C3372 C3374 1.391 . S
C3373 C3372 1.386 . S
C3373 C3377 1.393 . S
C3374 H3366 0.950 . S
C3374 C3372 1.391 . S
C3374 C3375 1.400 . S
C3375 C3374 1.400 . S
C3375 C3376 1.398 . S
C3375 C3381 1.491 . S
C3376 H3367 0.950 . S
C3376 C3375 1.398 . S
C3376 C3377 1.391 . S
C3377 H3365 0.950 . S
C3377 C3373 1.393 . S
C3377 C3376 1.391 . S
C3378 H3368 0.950 . S
C3378 C3379 1.386 . S
C3378 C3380 1.391 . S
C3379 C3378 1.386 . S
C3379 C3383 1.393 . S
C3380 H3369 0.950 . S
C3380 C3378 1.391 . S
C3380 C3381 1.400 . S
C3381 C3375 1.491 . S
C3381 C3380 1.400 . S
C3381 C3382 1.398 . S
C3382 H3370 0.950 . S
C3382 C3381 1.398 . S
C3382 C3383 1.391 . S
C3383 H3371 0.950 . S
C3383 C3379 1.393 . S
C3383 C3382 1.391 . S
H3384 C3392 0.950 . S
H3385 C3397 0.950 . S
H3386 C3394 0.950 . S
H3387 C3396 0.950 . S
H3388 C3398 0.950 . S
H3389 C3400 0.950 . S
H3390 C3402 0.950 . S
H3391 C3403 0.950 . S
C3392 H3384 0.950 . S
C3392 C3393 1.386 . S
C3392 C3394 1.391 . S
C3393 C3392 1.386 . S
C3393 C3397 1.393 . S
C3394 H3386 0.950 . S
C3394 C3392 1.391 . S
C3394 C3395 1.400 . S
C3395 C3394 1.400 . S
C3395 C3396 1.398 . S
C3395 C3401 1.491 . S
C3396 H3387 0.950 . S
C3396 C3395 1.398 . S
C3396 C3397 1.391 . S
C3397 H3385 0.950 . S
C3397 C3393 1.393 . S
C3397 C3396 1.391 . S
C3398 H3388 0.950 . S
C3398 C3399 1.386 . S
C3398 C3400 1.391 . S
C3399 C3398 1.386 . S
C3399 C3403 1.393 . S
C3400 H3389 0.950 . S
C3400 C3398 1.391 . S
C3400 C3401 1.400 . S
C3401 C3395 1.491 . S
C3401 C3400 1.400 . S
C3401 C3402 1.398 . S
C3402 H3390 0.950 . S
C3402 C3401 1.398 . S
C3402 C3403 1.391 . S
C3403 H3391 0.950 . S
C3403 C3399 1.393 . S
C3403 C3402 1.391 . S
H3404 C3412 0.950 . S
H3405 C3417 0.950 . S
H3406 C3414 0.950 . S
H3407 C3416 0.950 . S
H3408 C3418 0.950 . S
H3409 C3420 0.950 . S
H3410 C3422 0.950 . S
H3411 C3423 0.950 . S
C3412 H3404 0.950 . S
C3412 C3413 1.386 . S
C3412 C3414 1.391 . S
C3413 C3412 1.386 . S
C3413 C3417 1.393 . S
C3414 H3406 0.950 . S
C3414 C3412 1.391 . S
C3414 C3415 1.400 . S
C3415 C3414 1.400 . S
C3415 C3416 1.398 . S
C3415 C3421 1.491 . S
C3416 H3407 0.950 . S
C3416 C3415 1.398 . S
C3416 C3417 1.391 . S
C3417 H3405 0.950 . S
C3417 C3413 1.393 . S
C3417 C3416 1.391 . S
C3418 H3408 0.950 . S
C3418 C3419 1.386 . S
C3418 C3420 1.391 . S
C3419 C3418 1.386 . S
C3419 C3423 1.393 . S
C3420 H3409 0.950 . S
C3420 C3418 1.391 . S
C3420 C3421 1.400 . S
C3421 C3415 1.491 . S
C3421 C3420 1.400 . S
C3421 C3422 1.398 . S
C3422 H3410 0.950 . S
C3422 C3421 1.398 . S
C3422 C3423 1.391 . S
C3423 H3411 0.950 . S
C3423 C3419 1.393 . S
C3423 C3422 1.391 . S
H3424 C3432 0.950 . S
H3425 C3437 0.950 . S
H3426 C3434 0.950 . S
H3427 C3436 0.950 . S
H3428 C3438 0.950 . S
H3429 C3440 0.950 . S
H3430 C3442 0.950 . S
H3431 C3443 0.950 . S
C3432 H3424 0.950 . S
C3432 C3433 1.386 . S
C3432 C3434 1.391 . S
C3433 C3432 1.386 . S
C3433 C3437 1.393 . S
C3434 H3426 0.950 . S
C3434 C3432 1.391 . S
C3434 C3435 1.400 . S
C3435 C3434 1.400 . S
C3435 C3436 1.398 . S
C3435 C3441 1.491 . S
C3436 H3427 0.950 . S
C3436 C3435 1.398 . S
C3436 C3437 1.391 . S
C3437 H3425 0.950 . S
C3437 C3433 1.393 . S
C3437 C3436 1.391 . S
C3438 H3428 0.950 . S
C3438 C3439 1.386 . S
C3438 C3440 1.391 . S
C3439 C3438 1.386 . S
C3439 C3443 1.393 . S
C3440 H3429 0.950 . S
C3440 C3438 1.391 . S
C3440 C3441 1.400 . S
C3441 C3435 1.491 . S
C3441 C3440 1.400 . S
C3441 C3442 1.398 . S
C3442 H3430 0.950 . S
C3442 C3441 1.398 . S
C3442 C3443 1.391 . S
C3443 H3431 0.950 . S
C3443 C3439 1.393 . S
C3443 C3442 1.391 . S
H3444 C3452 0.950 . S
H3445 C3457 0.950 . S
H3446 C3454 0.950 . S
H3447 C3456 0.950 . S
H3448 C3458 0.950 . S
H3449 C3460 0.950 . S
H3450 C3462 0.950 . S
H3451 C3463 0.950 . S
C3452 H3444 0.950 . S
C3452 C3453 1.386 . S
C3452 C3454 1.391 . S
C3453 C3452 1.386 . S
C3453 C3457 1.393 . S
C3454 H3446 0.950 . S
C3454 C3452 1.391 . S
C3454 C3455 1.400 . S
C3455 C3454 1.400 . S
C3455 C3456 1.398 . S
C3455 C3461 1.491 . S
C3456 H3447 0.950 . S
C3456 C3455 1.398 . S
C3456 C3457 1.391 . S
C3457 H3445 0.950 . S
C3457 C3453 1.393 . S
C3457 C3456 1.391 . S
C3458 H3448 0.950 . S
C3458 C3459 1.386 . S
C3458 C3460 1.391 . S
C3459 C3458 1.386 . S
C3459 C3463 1.393 . S
C3460 H3449 0.950 . S
C3460 C3458 1.391 . S
C3460 C3461 1.400 . S
C3461 C3455 1.491 . S
C3461 C3460 1.400 . S
C3461 C3462 1.398 . S
C3462 H3450 0.950 . S
C3462 C3461 1.398 . S
C3462 C3463 1.391 . S
C3463 H3451 0.950 . S
C3463 C3459 1.393 . S
C3463 C3462 1.391 . S
H3464 C3472 0.950 . S
H3465 C3477 0.950 . S
H3466 C3474 0.950 . S
H3467 C3476 0.950 . S
H3468 C3478 0.950 . S
H3469 C3480 0.950 . S
H3470 C3482 0.950 . S
H3471 C3483 0.950 . S
C3472 H3464 0.950 . S
C3472 C3473 1.386 . S
C3472 C3474 1.391 . S
C3473 C3472 1.386 . S
C3473 C3477 1.393 . S
C3474 H3466 0.950 . S
C3474 C3472 1.391 . S
C3474 C3475 1.400 . S
C3475 C3474 1.400 . S
C3475 C3476 1.398 . S
C3475 C3481 1.491 . S
C3476 H3467 0.950 . S
C3476 C3475 1.398 . S
C3476 C3477 1.391 . S
C3477 H3465 0.950 . S
C3477 C3473 1.393 . S
C3477 C3476 1.391 . S
C3478 H3468 0.950 . S
C3478 C3479 1.386 . S
C3478 C3480 1.391 . S
C3479 C3478 1.386 . S
C3479 C3483 1.393 . S
C3480 H3469 0.950 . S
C3480 C3478 1.391 . S
C3480 C3481 1.400 . S
C3481 C3475 1.491 . S
C3481 C3480 1.400 . S
C3481 C3482 1.398 . S
C3482 H3470 0.950 . S
C3482 C3481 1.398 . S
C3482 C3483 1.391 . S
C3483 H3471 0.950 . S
C3483 C3479 1.393 . S
C3483 C3482 1.391 . S
H3484 C3492 0.950 . S
H3485 C3497 0.950 . S
H3486 C3494 0.950 . S
H3487 C3496 0.950 . S
H3488 C3498 0.950 . S
H3489 C3500 0.950 . S
H3490 C3502 0.950 . S
H3491 C3503 0.950 . S
C3492 H3484 0.950 . S
C3492 C3493 1.386 . S
C3492 C3494 1.391 . S
C3493 C3492 1.386 . S
C3493 C3497 1.393 . S
C3494 H3486 0.950 . S
C3494 C3492 1.391 . S
C3494 C3495 1.400 . S
C3495 C3494 1.400 . S
C3495 C3496 1.398 . S
C3495 C3501 1.491 . S
C3496 H3487 0.950 . S
C3496 C3495 1.398 . S
C3496 C3497 1.391 . S
C3497 H3485 0.950 . S
C3497 C3493 1.393 . S
C3497 C3496 1.391 . S
C3498 H3488 0.950 . S
C3498 C3499 1.386 . S
C3498 C3500 1.391 . S
C3499 C3498 1.386 . S
C3499 C3503 1.393 . S
C3500 H3489 0.950 . S
C3500 C3498 1.391 . S
C3500 C3501 1.400 . S
C3501 C3495 1.491 . S
C3501 C3500 1.400 . S
C3501 C3502 1.398 . S
C3502 H3490 0.950 . S
C3502 C3501 1.398 . S
C3502 C3503 1.391 . S
C3503 H3491 0.950 . S
C3503 C3499 1.393 . S
C3503 C3502 1.391 . S
H3504 C3512 0.950 . S
H3505 C3517 0.950 . S
H3506 C3514 0.950 . S
H3507 C3516 0.950 . S
H3508 C3518 0.950 . S
H3509 C3520 0.950 . S
H3510 C3522 0.950 . S
H3511 C3523 0.950 . S
C3512 H3504 0.950 . S
C3512 C3513 1.386 . S
C3512 C3514 1.391 . S
C3513 C3512 1.386 . S
C3513 C3517 1.393 . S
C3514 H3506 0.950 . S
C3514 C3512 1.391 . S
C3514 C3515 1.400 . S
C3515 C3514 1.400 . S
C3515 C3516 1.398 . S
C3515 C3521 1.491 . S
C3516 H3507 0.950 . S
C3516 C3515 1.398 . S
C3516 C3517 1.391 . S
C3517 H3505 0.950 . S
C3517 C3513 1.393 . S
C3517 C3516 1.391 . S
C3518 H3508 0.950 . S
C3518 C3519 1.386 . S
C3518 C3520 1.391 . S
C3519 C3518 1.386 . S
C3519 C3523 1.393 . S
C3520 H3509 0.950 . S
C3520 C3518 1.391 . S
C3520 C3521 1.400 . S
C3521 C3515 1.491 . S
C3521 C3520 1.400 . S
C3521 C3522 1.398 . S
C3522 H3510 0.950 . S
C3522 C3521 1.398 . S
C3522 C3523 1.391 . S
C3523 H3511 0.950 . S
C3523 C3519 1.393 . S
C3523 C3522 1.391 . S
H3524 C3532 0.950 . S
H3525 C3537 0.950 . S
H3526 C3534 0.950 . S
H3527 C3536 0.950 . S
H3528 C3538 0.950 . S
H3529 C3540 0.950 . S
H3530 C3542 0.950 . S
H3531 C3543 0.950 . S
C3532 H3524 0.950 . S
C3532 C3533 1.386 . S
C3532 C3534 1.391 . S
C3533 C3532 1.386 . S
C3533 C3537 1.393 . S
C3534 H3526 0.950 . S
C3534 C3532 1.391 . S
C3534 C3535 1.400 . S
C3535 C3534 1.400 . S
C3535 C3536 1.398 . S
C3535 C3541 1.491 . S
C3536 H3527 0.950 . S
C3536 C3535 1.398 . S
C3536 C3537 1.391 . S
C3537 H3525 0.950 . S
C3537 C3533 1.393 . S
C3537 C3536 1.391 . S
C3538 H3528 0.950 . S
C3538 C3539 1.386 . S
C3538 C3540 1.391 . S
C3539 C3538 1.386 . S
C3539 C3543 1.393 . S
C3540 H3529 0.950 . S
C3540 C3538 1.391 . S
C3540 C3541 1.400 . S
C3541 C3535 1.491 . S
C3541 C3540 1.400 . S
C3541 C3542 1.398 . S
C3542 H3530 0.950 . S
C3542 C3541 1.398 . S
C3542 C3543 1.391 . S
C3543 H3531 0.950 . S
C3543 C3539 1.393 . S
C3543 C3542 1.391 . S
H3544 C3552 0.950 . S
H3545 C3557 0.950 . S
H3546 C3554 0.950 . S
H3547 C3556 0.950 . S
H3548 C3558 0.950 . S
H3549 C3560 0.950 . S
H3550 C3562 0.950 . S
H3551 C3563 0.950 . S
C3552 H3544 0.950 . S
C3552 C3553 1.386 . S
C3552 C3554 1.391 . S
C3553 C3552 1.386 . S
C3553 C3557 1.393 . S
C3554 H3546 0.950 . S
C3554 C3552 1.391 . S
C3554 C3555 1.400 . S
C3555 C3554 1.400 . S
C3555 C3556 1.398 . S
C3555 C3561 1.491 . S
C3556 H3547 0.950 . S
C3556 C3555 1.398 . S
C3556 C3557 1.391 . S
C3557 H3545 0.950 . S
C3557 C3553 1.393 . S
C3557 C3556 1.391 . S
C3558 H3548 0.950 . S
C3558 C3559 1.386 . S
C3558 C3560 1.391 . S
C3559 C3558 1.386 . S
C3559 C3563 1.393 . S
C3560 H3549 0.950 . S
C3560 C3558 1.391 . S
C3560 C3561 1.400 . S
C3561 C3555 1.491 . S
C3561 C3560 1.400 . S
C3561 C3562 1.398 . S
C3562 H3550 0.950 . S
C3562 C3561 1.398 . S
C3562 C3563 1.391 . S
C3563 H3551 0.950 . S
C3563 C3559 1.393 . S
C3563 C3562 1.391 . S
H3564 C3572 0.950 . S
H3565 C3577 0.950 . S
H3566 C3574 0.950 . S
H3567 C3576 0.950 . S
H3568 C3578 0.950 . S
H3569 C3580 0.950 . S
H3570 C3582 0.950 . S
H3571 C3583 0.950 . S
C3572 H3564 0.950 . S
C3572 C3573 1.386 . S
C3572 C3574 1.391 . S
C3573 C3572 1.386 . S
C3573 C3577 1.393 . S
C3574 H3566 0.950 . S
C3574 C3572 1.391 . S
C3574 C3575 1.400 . S
C3575 C3574 1.400 . S
C3575 C3576 1.398 . S
C3575 C3581 1.491 . S
C3576 H3567 0.950 . S
C3576 C3575 1.398 . S
C3576 C3577 1.391 . S
C3577 H3565 0.950 . S
C3577 C3573 1.393 . S
C3577 C3576 1.391 . S
C3578 H3568 0.950 . S
C3578 C3579 1.386 . S
C3578 C3580 1.391 . S
C3579 C3578 1.386 . S
C3579 C3583 1.393 . S
C3580 H3569 0.950 . S
C3580 C3578 1.391 . S
C3580 C3581 1.400 . S
C3581 C3575 1.491 . S
C3581 C3580 1.400 . S
C3581 C3582 1.398 . S
C3582 H3570 0.950 . S
C3582 C3581 1.398 . S
C3582 C3583 1.391 . S
C3583 H3571 0.950 . S
C3583 C3579 1.393 . S
C3583 C3582 1.391 . S
H3584 C3592 0.950 . S
H3585 C3597 0.950 . S
H3586 C3594 0.950 . S
H3587 C3596 0.950 . S
H3588 C3598 0.950 . S
H3589 C3600 0.950 . S
H3590 C3602 0.950 . S
H3591 C3603 0.950 . S
C3592 H3584 0.950 . S
C3592 C3593 1.386 . S
C3592 C3594 1.391 . S
C3593 C3592 1.386 . S
C3593 C3597 1.393 . S
C3594 H3586 0.950 . S
C3594 C3592 1.391 . S
C3594 C3595 1.400 . S
C3595 C3594 1.400 . S
C3595 C3596 1.398 . S
C3595 C3601 1.491 . S
C3596 H3587 0.950 . S
C3596 C3595 1.398 . S
C3596 C3597 1.391 . S
C3597 H3585 0.950 . S
C3597 C3593 1.393 . S
C3597 C3596 1.391 . S
C3598 H3588 0.950 . S
C3598 C3599 1.386 . S
C3598 C3600 1.391 . S
C3599 C3598 1.386 . S
C3599 C3603 1.393 . S
C3600 H3589 0.950 . S
C3600 C3598 1.391 . S
C3600 C3601 1.400 . S
C3601 C3595 1.491 . S
C3601 C3600 1.400 . S
C3601 C3602 1.398 . S
C3602 H3590 0.950 . S
C3602 C3601 1.398 . S
C3602 C3603 1.391 . S
C3603 H3591 0.950 . S
C3603 C3599 1.393 . S
C3603 C3602 1.391 . S
H3604 C3612 0.950 . S
H3605 C3617 0.950 . S
H3606 C3614 0.950 . S
H3607 C3616 0.950 . S
H3608 C3618 0.950 . S
H3609 C3620 0.950 . S
H3610 C3622 0.950 . S
H3611 C3623 0.950 . S
C3612 H3604 0.950 . S
C3612 C3613 1.386 . S
C3612 C3614 1.391 . S
C3613 C3612 1.386 . S
C3613 C3617 1.393 . S
C3614 H3606 0.950 . S
C3614 C3612 1.391 . S
C3614 C3615 1.400 . S
C3615 C3614 1.400 . S
C3615 C3616 1.398 . S
C3615 C3621 1.491 . S
C3616 H3607 0.950 . S
C3616 C3615 1.398 . S
C3616 C3617 1.391 . S
C3617 H3605 0.950 . S
C3617 C3613 1.393 . S
C3617 C3616 1.391 . S
C3618 H3608 0.950 . S
C3618 C3619 1.386 . S
C3618 C3620 1.391 . S
C3619 C3618 1.386 . S
C3619 C3623 1.393 . S
C3620 H3609 0.950 . S
C3620 C3618 1.391 . S
C3620 C3621 1.400 . S
C3621 C3615 1.491 . S
C3621 C3620 1.400 . S
C3621 C3622 1.398 . S
C3622 H3610 0.950 . S
C3622 C3621 1.398 . S
C3622 C3623 1.391 . S
C3623 H3611 0.950 . S
C3623 C3619 1.393 . S
C3623 C3622 1.391 . S
H3624 C3632 0.950 . S
H3625 C3637 0.950 . S
H3626 C3634 0.950 . S
H3627 C3636 0.950 . S
H3628 C3638 0.950 . S
H3629 C3640 0.950 . S
H3630 C3642 0.950 . S
H3631 C3643 0.950 . S
C3632 H3624 0.950 . S
C3632 C3633 1.386 . S
C3632 C3634 1.391 . S
C3633 C3632 1.386 . S
C3633 C3637 1.393 . S
C3634 H3626 0.950 . S
C3634 C3632 1.391 . S
C3634 C3635 1.400 . S
C3635 C3634 1.400 . S
C3635 C3636 1.398 . S
C3635 C3641 1.491 . S
C3636 H3627 0.950 . S
C3636 C3635 1.398 . S
C3636 C3637 1.391 . S
C3637 H3625 0.950 . S
C3637 C3633 1.393 . S
C3637 C3636 1.391 . S
C3638 H3628 0.950 . S
C3638 C3639 1.386 . S
C3638 C3640 1.391 . S
C3639 C3638 1.386 . S
C3639 C3643 1.393 . S
C3640 H3629 0.950 . S
C3640 C3638 1.391 . S
C3640 C3641 1.400 . S
C3641 C3635 1.491 . S
C3641 C3640 1.400 . S
C3641 C3642 1.398 . S
C3642 H3630 0.950 . S
C3642 C3641 1.398 . S
C3642 C3643 1.391 . S
C3643 H3631 0.950 . S
C3643 C3639 1.393 . S
C3643 C3642 1.391 . S
H3644 C3652 0.950 . S
H3645 C3657 0.950 . S
H3646 C3654 0.950 . S
H3647 C3656 0.950 . S
H3648 C3658 0.950 . S
H3649 C3660 0.950 . S
H3650 C3662 0.950 . S
H3651 C3663 0.950 . S
C3652 H3644 0.950 . S
C3652 C3653 1.386 . S
C3652 C3654 1.391 . S
C3653 C3652 1.386 . S
C3653 C3657 1.393 . S
C3654 H3646 0.950 . S
C3654 C3652 1.391 . S
C3654 C3655 1.400 . S
C3655 C3654 1.400 . S
C3655 C3656 1.398 . S
C3655 C3661 1.491 . S
C3656 H3647 0.950 . S
C3656 C3655 1.398 . S
C3656 C3657 1.391 . S
C3657 H3645 0.950 . S
C3657 C3653 1.393 . S
C3657 C3656 1.391 . S
C3658 H3648 0.950 . S
C3658 C3659 1.386 . S
C3658 C3660 1.391 . S
C3659 C3658 1.386 . S
C3659 C3663 1.393 . S
C3660 H3649 0.950 . S
C3660 C3658 1.391 . S
C3660 C3661 1.400 . S
C3661 C3655 1.491 . S
C3661 C3660 1.400 . S
C3661 C3662 1.398 . S
C3662 H3650 0.950 . S
C3662 C3661 1.398 . S
C3662 C3663 1.391 . S
C3663 H3651 0.950 . S
C3663 C3659 1.393 . S
C3663 C3662 1.391 . S
H3664 C3672 0.950 . S
H3665 C3677 0.950 . S
H3666 C3674 0.950 . S
H3667 C3676 0.950 . S
H3668 C3678 0.950 . S
H3669 C3680 0.950 . S
H3670 C3682 0.950 . S
H3671 C3683 0.950 . S
C3672 H3664 0.950 . S
C3672 C3673 1.386 . S
C3672 C3674 1.391 . S
C3673 C3672 1.386 . S
C3673 C3677 1.393 . S
C3674 H3666 0.950 . S
C3674 C3672 1.391 . S
C3674 C3675 1.400 . S
C3675 C3674 1.400 . S
C3675 C3676 1.398 . S
C3675 C3681 1.491 . S
C3676 H3667 0.950 . S
C3676 C3675 1.398 . S
C3676 C3677 1.391 . S
C3677 H3665 0.950 . S
C3677 C3673 1.393 . S
C3677 C3676 1.391 . S
C3678 H3668 0.950 . S
C3678 C3679 1.386 . S
C3678 C3680 1.391 . S
C3679 C3678 1.386 . S
C3679 C3683 1.393 . S
C3680 H3669 0.950 . S
C3680 C3678 1.391 . S
C3680 C3681 1.400 . S
C3681 C3675 1.491 . S
C3681 C3680 1.400 . S
C3681 C3682 1.398 . S
C3682 H3670 0.950 . S
C3682 C3681 1.398 . S
C3682 C3683 1.391 . S
C3683 H3671 0.950 . S
C3683 C3679 1.393 . S
C3683 C3682 1.391 . S
H3684 C3692 0.950 . S
H3685 C3697 0.950 . S
H3686 C3694 0.950 . S
H3687 C3696 0.950 . S
H3688 C3698 0.950 . S
H3689 C3700 0.950 . S
H3690 C3702 0.950 . S
H3691 C3703 0.950 . S
C3692 H3684 0.950 . S
C3692 C3693 1.386 . S
C3692 C3694 1.391 . S
C3693 C3692 1.386 . S
C3693 C3697 1.393 . S
C3694 H3686 0.950 . S
C3694 C3692 1.391 . S
C3694 C3695 1.400 . S
C3695 C3694 1.400 . S
C3695 C3696 1.398 . S
C3695 C3701 1.491 . S
C3696 H3687 0.950 . S
C3696 C3695 1.398 . S
C3696 C3697 1.391 . S
C3697 H3685 0.950 . S
C3697 C3693 1.393 . S
C3697 C3696 1.391 . S
C3698 H3688 0.950 . S
C3698 C3699 1.386 . S
C3698 C3700 1.391 . S
C3699 C3698 1.386 . S
C3699 C3703 1.393 . S
C3700 H3689 0.950 . S
C3700 C3698 1.391 . S
C3700 C3701 1.400 . S
C3701 C3695 1.491 . S
C3701 C3700 1.400 . S
C3701 C3702 1.398 . S
C3702 H3690 0.950 . S
C3702 C3701 1.398 . S
C3702 C3703 1.391 . S
C3703 H3691 0.950 . S
C3703 C3699 1.393 . S
C3703 C3702 1.391 . S
H3704 C3712 0.950 . S
H3705 C3717 0.950 . S
H3706 C3714 0.950 . S
H3707 C3716 0.950 . S
H3708 C3718 0.950 . S
H3709 C3720 0.950 . S
H3710 C3722 0.950 . S
H3711 C3723 0.950 . S
C3712 H3704 0.950 . S
C3712 C3713 1.386 . S
C3712 C3714 1.391 . S
C3713 C3712 1.386 . S
C3713 C3717 1.393 . S
C3714 H3706 0.950 . S
C3714 C3712 1.391 . S
C3714 C3715 1.400 . S
C3715 C3714 1.400 . S
C3715 C3716 1.398 . S
C3715 C3721 1.491 . S
C3716 H3707 0.950 . S
C3716 C3715 1.398 . S
C3716 C3717 1.391 . S
C3717 H3705 0.950 . S
C3717 C3713 1.393 . S
C3717 C3716 1.391 . S
C3718 H3708 0.950 . S
C3718 C3719 1.386 . S
C3718 C3720 1.391 . S
C3719 C3718 1.386 . S
C3719 C3723 1.393 . S
C3720 H3709 0.950 . S
C3720 C3718 1.391 . S
C3720 C3721 1.400 . S
C3721 C3715 1.491 . S
C3721 C3720 1.400 . S
C3721 C3722 1.398 . S
C3722 H3710 0.950 . S
C3722 C3721 1.398 . S
C3722 C3723 1.391 . S
C3723 H3711 0.950 . S
C3723 C3719 1.393 . S
C3723 C3722 1.391 . S
H3724 C3732 0.950 . S
H3725 C3737 0.950 . S
H3726 C3734 0.950 . S
H3727 C3736 0.950 . S
H3728 C3738 0.950 . S
H3729 C3740 0.950 . S
H3730 C3742 0.950 . S
H3731 C3743 0.950 . S
C3732 H3724 0.950 . S
C3732 C3733 1.386 . S
C3732 C3734 1.391 . S
C3733 C3732 1.386 . S
C3733 C3737 1.393 . S
C3734 H3726 0.950 . S
C3734 C3732 1.391 . S
C3734 C3735 1.400 . S
C3735 C3734 1.400 . S
C3735 C3736 1.398 . S
C3735 C3741 1.491 . S
C3736 H3727 0.950 . S
C3736 C3735 1.398 . S
C3736 C3737 1.391 . S
C3737 H3725 0.950 . S
C3737 C3733 1.393 . S
C3737 C3736 1.391 . S
C3738 H3728 0.950 . S
C3738 C3739 1.386 . S
C3738 C3740 1.391 . S
C3739 C3738 1.386 . S
C3739 C3743 1.393 . S
C3740 H3729 0.950 . S
C3740 C3738 1.391 . S
C3740 C3741 1.400 . S
C3741 C3735 1.491 . S
C3741 C3740 1.400 . S
C3741 C3742 1.398 . S
C3742 H3730 0.950 . S
C3742 C3741 1.398 . S
C3742 C3743 1.391 . S
C3743 H3731 0.950 . S
C3743 C3739 1.393 . S
C3743 C3742 1.391 . S
H3744 C3752 0.950 . S
H3745 C3757 0.950 . S
H3746 C3754 0.950 . S
H3747 C3756 0.950 . S
H3748 C3758 0.950 . S
H3749 C3760 0.950 . S
H3750 C3762 0.950 . S
H3751 C3763 0.950 . S
C3752 H3744 0.950 . S
C3752 C3753 1.386 . S
C3752 C3754 1.391 . S
C3753 C3752 1.386 . S
C3753 C3757 1.393 . S
C3754 H3746 0.950 . S
C3754 C3752 1.391 . S
C3754 C3755 1.400 . S
C3755 C3754 1.400 . S
C3755 C3756 1.398 . S
C3755 C3761 1.491 . S
C3756 H3747 0.950 . S
C3756 C3755 1.398 . S
C3756 C3757 1.391 . S
C3757 H3745 0.950 . S
C3757 C3753 1.393 . S
C3757 C3756 1.391 . S
C3758 H3748 0.950 . S
C3758 C3759 1.386 . S
C3758 C3760 1.391 . S
C3759 C3758 1.386 . S
C3759 C3763 1.393 . S
C3760 H3749 0.950 . S
C3760 C3758 1.391 . S
C3760 C3761 1.400 . S
C3761 C3755 1.491 . S
C3761 C3760 1.400 . S
C3761 C3762 1.398 . S
C3762 H3750 0.950 . S
C3762 C3761 1.398 . S
C3762 C3763 1.391 . S
C3763 H3751 0.950 . S
C3763 C3759 1.393 . S
C3763 C3762 1.391 . S
H3764 C3772 0.950 . S
H3765 C3777 0.950 . S
H3766 C3774 0.950 . S
H3767 C3776 0.950 . S
H3768 C3778 0.950 . S
H3769 C3780 0.950 . S
H3770 C3782 0.950 . S
H3771 C3783 0.950 . S
C3772 H3764 0.950 . S
C3772 C3773 1.386 . S
C3772 C3774 1.391 . S
C3773 C3772 1.386 . S
C3773 C3777 1.393 . S
C3774 H3766 0.950 . S
C3774 C3772 1.391 . S
C3774 C3775 1.400 . S
C3775 C3774 1.400 . S
C3775 C3776 1.398 . S
C3775 C3781 1.491 . S
C3776 H3767 0.950 . S
C3776 C3775 1.398 . S
C3776 C3777 1.391 . S
C3777 H3765 0.950 . S
C3777 C3773 1.393 . S
C3777 C3776 1.391 . S
C3778 H3768 0.950 . S
C3778 C3779 1.386 . S
C3778 C3780 1.391 . S
C3779 C3778 1.386 . S
C3779 C3783 1.393 . S
C3780 H3769 0.950 . S
C3780 C3778 1.391 . S
C3780 C3781 1.400 . S
C3781 C3775 1.491 . S
C3781 C3780 1.400 . S
C3781 C3782 1.398 . S
C3782 H3770 0.950 . S
C3782 C3781 1.398 . S
C3782 C3783 1.391 . S
C3783 H3771 0.950 . S
C3783 C3779 1.393 . S
C3783 C3782 1.391 . S
H3784 C3792 0.950 . S
H3785 C3797 0.950 . S
H3786 C3794 0.950 . S
H3787 C3796 0.950 . S
H3788 C3798 0.950 . S
H3789 C3800 0.950 . S
H3790 C3802 0.950 . S
H3791 C3803 0.950 . S
C3792 H3784 0.950 . S
C3792 C3793 1.386 . S
C3792 C3794 1.391 . S
C3793 C3792 1.386 . S
C3793 C3797 1.393 . S
C3794 H3786 0.950 . S
C3794 C3792 1.391 . S
C3794 C3795 1.400 . S
C3795 C3794 1.400 . S
C3795 C3796 1.398 . S
C3795 C3801 1.491 . S
C3796 H3787 0.950 . S
C3796 C3795 1.398 . S
C3796 C3797 1.391 . S
C3797 H3785 0.950 . S
C3797 C3793 1.393 . S
C3797 C3796 1.391 . S
C3798 H3788 0.950 . S
C3798 C3799 1.386 . S
C3798 C3800 1.391 . S
C3799 C3798 1.386 . S
C3799 C3803 1.393 . S
C3800 H3789 0.950 . S
C3800 C3798 1.391 . S
C3800 C3801 1.400 . S
C3801 C3795 1.491 . S
C3801 C3800 1.400 . S
C3801 C3802 1.398 . S
C3802 H3790 0.950 . S
C3802 C3801 1.398 . S
C3802 C3803 1.391 . S
C3803 H3791 0.950 . S
C3803 C3799 1.393 . S
C3803 C3802 1.391 . S
H3804 C3812 0.950 . S
H3805 C3817 0.950 . S
H3806 C3814 0.950 . S
H3807 C3816 0.950 . S
H3808 C3818 0.950 . S
H3809 C3820 0.950 . S
H3810 C3822 0.950 . S
H3811 C3823 0.950 . S
C3812 H3804 0.950 . S
C3812 C3813 1.386 . S
C3812 C3814 1.391 . S
C3813 C3812 1.386 . S
C3813 C3817 1.393 . S
C3814 H3806 0.950 . S
C3814 C3812 1.391 . S
C3814 C3815 1.400 . S
C3815 C3814 1.400 . S
C3815 C3816 1.398 . S
C3815 C3821 1.491 . S
C3816 H3807 0.950 . S
C3816 C3815 1.398 . S
C3816 C3817 1.391 . S
C3817 H3805 0.950 . S
C3817 C3813 1.393 . S
C3817 C3816 1.391 . S
C3818 H3808 0.950 . S
C3818 C3819 1.386 . S
C3818 C3820 1.391 . S
C3819 C3818 1.386 . S
C3819 C3823 1.393 . S
C3820 H3809 0.950 . S
C3820 C3818 1.391 . S
C3820 C3821 1.400 . S
C3821 C3815 1.491 . S
C3821 C3820 1.400 . S
C3821 C3822 1.398 . S
C3822 H3810 0.950 . S
C3822 C3821 1.398 . S
C3822 C3823 1.391 . S
C3823 H3811 0.950 . S
C3823 C3819 1.393 . S
C3823 C3822 1.391 . S
H3824 C3832 0.950 . S
H3825 C3837 0.950 . S
H3826 C3834 0.950 . S
H3827 C3836 0.950 . S
H3828 C3838 0.950 . S
H3829 C3840 0.950 . S
H3830 C3842 0.950 . S
H3831 C3843 0.950 . S
C3832 H3824 0.950 . S
C3832 C3833 1.386 . S
C3832 C3834 1.391 . S
C3833 C3832 1.386 . S
C3833 C3837 1.393 . S
C3834 H3826 0.950 . S
C3834 C3832 1.391 . S
C3834 C3835 1.400 . S
C3835 C3834 1.400 . S
C3835 C3836 1.398 . S
C3835 C3841 1.491 . S
C3836 H3827 0.950 . S
C3836 C3835 1.398 . S
C3836 C3837 1.391 . S
C3837 H3825 0.950 . S
C3837 C3833 1.393 . S
C3837 C3836 1.391 . S
C3838 H3828 0.950 . S
C3838 C3839 1.386 . S
C3838 C3840 1.391 . S
C3839 C3838 1.386 . S
C3839 C3843 1.393 . S
C3840 H3829 0.950 . S
C3840 C3838 1.391 . S
C3840 C3841 1.400 . S
C3841 C3835 1.491 . S
C3841 C3840 1.400 . S
C3841 C3842 1.398 . S
C3842 H3830 0.950 . S
C3842 C3841 1.398 . S
C3842 C3843 1.391 . S
C3843 H3831 0.950 . S
C3843 C3839 1.393 . S
C3843 C3842 1.391 . S
H3844 C3852 0.950 . S
H3845 C3857 0.950 . S
H3846 C3854 0.950 . S
H3847 C3856 0.950 . S
H3848 C3858 0.950 . S
H3849 C3860 0.950 . S
H3850 C3862 0.950 . S
H3851 C3863 0.950 . S
C3852 H3844 0.950 . S
C3852 C3853 1.386 . S
C3852 C3854 1.391 . S
C3853 C3852 1.386 . S
C3853 C3857 1.393 . S
C3854 H3846 0.950 . S
C3854 C3852 1.391 . S
C3854 C3855 1.400 . S
C3855 C3854 1.400 . S
C3855 C3856 1.398 . S
C3855 C3861 1.491 . S
C3856 H3847 0.950 . S
C3856 C3855 1.398 . S
C3856 C3857 1.391 . S
C3857 H3845 0.950 . S
C3857 C3853 1.393 . S
C3857 C3856 1.391 . S
C3858 H3848 0.950 . S
C3858 C3859 1.386 . S
C3858 C3860 1.391 . S
C3859 C3858 1.386 . S
C3859 C3863 1.393 . S
C3860 H3849 0.950 . S
C3860 C3858 1.391 . S
C3860 C3861 1.400 . S
C3861 C3855 1.491 . S
C3861 C3860 1.400 . S
C3861 C3862 1.398 . S
C3862 H3850 0.950 . S
C3862 C3861 1.398 . S
C3862 C3863 1.391 . S
C3863 H3851 0.950 . S
C3863 C3859 1.393 . S
C3863 C3862 1.391 . S
H3864 C3872 0.950 . S
H3865 C3877 0.950 . S
H3866 C3874 0.950 . S
H3867 C3876 0.950 . S
H3868 C3878 0.950 . S
H3869 C3880 0.950 . S
H3870 C3882 0.950 . S
H3871 C3883 0.950 . S
C3872 H3864 0.950 . S
C3872 C3873 1.386 . S
C3872 C3874 1.391 . S
C3873 C3872 1.386 . S
C3873 C3877 1.393 . S
C3874 H3866 0.950 . S
C3874 C3872 1.391 . S
C3874 C3875 1.400 . S
C3875 C3874 1.400 . S
C3875 C3876 1.398 . S
C3875 C3881 1.491 . S
C3876 H3867 0.950 . S
C3876 C3875 1.398 . S
C3876 C3877 1.391 . S
C3877 H3865 0.950 . S
C3877 C3873 1.393 . S
C3877 C3876 1.391 . S
C3878 H3868 0.950 . S
C3878 C3879 1.386 . S
C3878 C3880 1.391 . S
C3879 C3878 1.386 . S
C3879 C3883 1.393 . S
C3880 H3869 0.950 . S
C3880 C3878 1.391 . S
C3880 C3881 1.400 . S
C3881 C3875 1.491 . S
C3881 C3880 1.400 . S
C3881 C3882 1.398 . S
C3882 H3870 0.950 . S
C3882 C3881 1.398 . S
C3882 C3883 1.391 . S
C3883 H3871 0.950 . S
C3883 C3879 1.393 . S
C3883 C3882 1.391 . S
H3884 C3892 0.950 . S
H3885 C3897 0.950 . S
H3886 C3894 0.950 . S
H3887 C3896 0.950 . S
H3888 C3898 0.950 . S
H3889 C3900 0.950 . S
H3890 C3902 0.950 . S
H3891 C3903 0.950 . S
C3892 H3884 0.950 . S
C3892 C3893 1.386 . S
C3892 C3894 1.391 . S
C3893 C3892 1.386 . S
C3893 C3897 1.393 . S
C3894 H3886 0.950 . S
C3894 C3892 1.391 . S
C3894 C3895 1.400 . S
C3895 C3894 1.400 . S
C3895 C3896 1.398 . S
C3895 C3901 1.491 . S
C3896 H3887 0.950 . S
C3896 C3895 1.398 . S
C3896 C3897 1.391 . S
C3897 H3885 0.950 . S
C3897 C3893 1.393 . S
C3897 C3896 1.391 . S
C3898 H3888 0.950 . S
C3898 C3899 1.386 . S
C3898 C3900 1.391 . S
C3899 C3898 1.386 . S
C3899 C3903 1.393 . S
C3900 H3889 0.950 . S
C3900 C3898 1.391 . S
C3900 C3901 1.400 . S
C3901 C3895 1.491 . S
C3901 C3900 1.400 . S
C3901 C3902 1.398 . S
C3902 H3890 0.950 . S
C3902 C3901 1.398 . S
C3902 C3903 1.391 . S
C3903 H3891 0.950 . S
C3903 C3899 1.393 . S
C3903 C3902 1.391 . S
H3904 C3912 0.950 . S
H3905 C3917 0.950 . S
H3906 C3914 0.950 . S
H3907 C3916 0.950 . S
H3908 C3918 0.950 . S
H3909 C3920 0.950 . S
H3910 C3922 0.950 . S
H3911 C3923 0.950 . S
C3912 H3904 0.950 . S
C3912 C3913 1.386 . S
C3912 C3914 1.391 . S
C3913 C3912 1.386 . S
C3913 C3917 1.393 . S
C3914 H3906 0.950 . S
C3914 C3912 1.391 . S
C3914 C3915 1.400 . S
C3915 C3914 1.400 . S
C3915 C3916 1.398 . S
C3915 C3921 1.491 . S
C3916 H3907 0.950 . S
C3916 C3915 1.398 . S
C3916 C3917 1.391 . S
C3917 H3905 0.950 . S
C3917 C3913 1.393 . S
C3917 C3916 1.391 . S
C3918 H3908 0.950 . S
C3918 C3919 1.386 . S
C3918 C3920 1.391 . S
C3919 C3918 1.386 . S
C3919 C3923 1.393 . S
C3920 H3909 0.950 . S
C3920 C3918 1.391 . S
C3920 C3921 1.400 . S
C3921 C3915 1.491 . S
C3921 C3920 1.400 . S
C3921 C3922 1.398 . S
C3922 H3910 0.950 . S
C3922 C3921 1.398 . S
C3922 C3923 1.391 . S
C3923 H3911 0.950 . S
C3923 C3919 1.393 . S
C3923 C3922 1.391 . S
H3924 C3932 0.950 . S
H3925 C3937 0.950 . S
H3926 C3934 0.950 . S
H3927 C3936 0.950 . S
H3928 C3938 0.950 . S
H3929 C3940 0.950 . S
H3930 C3942 0.950 . S
H3931 C3943 0.950 . S
C3932 H3924 0.950 . S
C3932 C3933 1.386 . S
C3932 C3934 1.391 . S
C3933 C3932 1.386 . S
C3933 C3937 1.393 . S
C3934 H3926 0.950 . S
C3934 C3932 1.391 . S
C3934 C3935 1.400 . S
C3935 C3934 1.400 . S
C3935 C3936 1.398 . S
C3935 C3941 1.491 . S
C3936 H3927 0.950 . S
C3936 C3935 1.398 . S
C3936 C3937 1.391 . S
C3937 H3925 0.950 . S
C3937 C3933 1.393 . S
C3937 C3936 1.391 . S
C3938 H3928 0.950 . S
C3938 C3939 1.386 . S
C3938 C3940 1.391 . S
C3939 C3938 1.386 . S
C3939 C3943 1.393 . S
C3940 H3929 0.950 . S
C3940 C3938 1.391 . S
C3940 C3941 1.400 . S
C3941 C3935 1.491 . S
C3941 C3940 1.400 . S
C3941 C3942 1.398 . S
C3942 H3930 0.950 . S
C3942 C3941 1.398 . S
C3942 C3943 1.391 . S
C3943 H3931 0.950 . S
C3943 C3939 1.393 . S
C3943 C3942 1.391 . S
H3944 C3952 0.950 . S
H3945 C3957 0.950 . S
H3946 C3954 0.950 . S
H3947 C3956 0.950 . S
H3948 C3958 0.950 . S
H3949 C3960 0.950 . S
H3950 C3962 0.950 . S
H3951 C3963 0.950 . S
C3952 H3944 0.950 . S
C3952 C3953 1.386 . S
C3952 C3954 1.391 . S
C3953 C3952 1.386 . S
C3953 C3957 1.393 . S
C3954 H3946 0.950 . S
C3954 C3952 1.391 . S
C3954 C3955 1.400 . S
C3955 C3954 1.400 . S
C3955 C3956 1.398 . S
C3955 C3961 1.491 . S
C3956 H3947 0.950 . S
C3956 C3955 1.398 . S
C3956 C3957 1.391 . S
C3957 H3945 0.950 . S
C3957 C3953 1.393 . S
C3957 C3956 1.391 . S
C3958 H3948 0.950 . S
C3958 C3959 1.386 . S
C3958 C3960 1.391 . S
C3959 C3958 1.386 . S
C3959 C3963 1.393 . S
C3960 H3949 0.950 . S
C3960 C3958 1.391 . S
C3960 C3961 1.400 . S
C3961 C3955 1.491 . S
C3961 C3960 1.400 . S
C3961 C3962 1.398 . S
C3962 H3950 0.950 . S
C3962 C3961 1.398 . S
C3962 C3963 1.391 . S
C3963 H3951 0.950 . S
C3963 C3959 1.393 . S
C3963 C3962 1.391 . S
H3964 C3972 0.950 . S
H3965 C3977 0.950 . S
H3966 C3974 0.950 . S
H3967 C3976 0.950 . S
H3968 C3978 0.950 . S
H3969 C3980 0.950 . S
H3970 C3982 0.950 . S
H3971 C3983 0.950 . S
C3972 H3964 0.950 . S
C3972 C3973 1.386 . S
C3972 C3974 1.391 . S
C3973 C3972 1.386 . S
C3973 C3977 1.393 . S
C3974 H3966 0.950 . S
C3974 C3972 1.391 . S
C3974 C3975 1.400 . S
C3975 C3974 1.400 . S
C3975 C3976 1.398 . S
C3975 C3981 1.491 . S
C3976 H3967 0.950 . S
C3976 C3975 1.398 . S
C3976 C3977 1.391 . S
C3977 H3965 0.950 . S
C3977 C3973 1.393 . S
C3977 C3976 1.391 . S
C3978 H3968 0.950 . S
C3978 C3979 1.386 . S
C3978 C3980 1.391 . S
C3979 C3978 1.386 . S
C3979 C3983 1.393 . S
C3980 H3969 0.950 . S
C3980 C3978 1.391 . S
C3980 C3981 1.400 . S
C3981 C3975 1.491 . S
C3981 C3980 1.400 . S
C3981 C3982 1.398 . S
C3982 H3970 0.950 . S
C3982 C3981 1.398 . S
C3982 C3983 1.391 . S
C3983 H3971 0.950 . S
C3983 C3979 1.393 . S
C3983 C3982 1.391 . S
H3984 C3992 0.950 . S
H3985 C3997 0.950 . S
H3986 C3994 0.950 . S
H3987 C3996 0.950 1_455 S
H3988 C3998 0.950 . S
H3989 C4000 0.950 . S
H3990 C4002 0.950 1_655 S
H3991 C4003 0.950 . S
C3992 H3984 0.950 . S
C3992 C3993 1.386 . S
C3992 C3994 1.391 . S
C3993 C3992 1.386 . S
C3993 C3997 1.393 . S
C3994 H3986 0.950 . S
C3994 C3992 1.391 . S
C3994 C3995 1.400 . S
C3995 C3994 1.400 . S
C3995 C3996 1.398 . S
C3995 C4001 1.491 1_655 S
C3996 H3987 0.950 1_655 S
C3996 C3995 1.398 . S
C3996 C3997 1.391 . S
C3997 H3985 0.950 . S
C3997 C3993 1.393 . S
C3997 C3996 1.391 . S
C3998 H3988 0.950 . S
C3998 C3999 1.386 . S
C3998 C4000 1.391 . S
C3999 C3998 1.386 . S
C3999 C4003 1.393 . S
C4000 H3989 0.950 . S
C4000 C3998 1.391 . S
C4000 C4001 1.400 . S
C4001 C3995 1.491 1_455 S
C4001 C4000 1.400 . S
C4001 C4002 1.398 . S
C4002 H3990 0.950 1_455 S
C4002 C4001 1.398 . S
C4002 C4003 1.391 . S
C4003 H3991 0.950 . S
C4003 C3999 1.393 . S
C4003 C4002 1.391 . S
H4004 C4012 0.950 . S
H4005 C4017 0.950 . S
H4006 C4014 0.950 . S
H4007 C4016 0.950 . S
H4008 C4018 0.950 . S
H4009 C4020 0.950 . S
H4010 C4022 0.950 . S
H4011 C4023 0.950 . S
C4012 H4004 0.950 . S
C4012 C4013 1.386 . S
C4012 C4014 1.391 . S
C4013 C4012 1.386 . S
C4013 C4017 1.393 . S
C4014 H4006 0.950 . S
C4014 C4012 1.391 . S
C4014 C4015 1.400 . S
C4015 C4014 1.400 . S
C4015 C4016 1.398 . S
C4015 C4021 1.491 . S
C4016 H4007 0.950 . S
C4016 C4015 1.398 . S
C4016 C4017 1.391 . S
C4017 H4005 0.950 . S
C4017 C4013 1.393 . S
C4017 C4016 1.391 . S
C4018 H4008 0.950 . S
C4018 C4019 1.386 . S
C4018 C4020 1.391 . S
C4019 C4018 1.386 . S
C4019 C4023 1.393 . S
C4020 H4009 0.950 . S
C4020 C4018 1.391 . S
C4020 C4021 1.400 . S
C4021 C4015 1.491 . S
C4021 C4020 1.400 . S
C4021 C4022 1.398 . S
C4022 H4010 0.950 . S
C4022 C4021 1.398 . S
C4022 C4023 1.391 . S
C4023 H4011 0.950 . S
C4023 C4019 1.393 . S
C4023 C4022 1.391 . S
H4024 C4032 0.950 . S
H4025 C4037 0.950 . S
H4026 C4034 0.950 . S
H4027 C4036 0.950 1_565 S
H4028 C4038 0.950 . S
H4029 C4040 0.950 . S
H4030 C4042 0.950 1_545 S
H4031 C4043 0.950 . S
C4032 H4024 0.950 . S
C4032 C4033 1.386 . S
C4032 C4034 1.391 . S
C4033 C4032 1.386 . S
C4033 C4037 1.393 . S
C4034 H4026 0.950 . S
C4034 C4032 1.391 . S
C4034 C4035 1.400 . S
C4035 C4034 1.400 . S
C4035 C4036 1.398 . S
C4035 C4041 1.491 1_545 S
C4036 H4027 0.950 1_545 S
C4036 C4035 1.398 . S
C4036 C4037 1.391 . S
C4037 H4025 0.950 . S
C4037 C4033 1.393 . S
C4037 C4036 1.391 . S
C4038 H4028 0.950 . S
C4038 C4039 1.386 . S
C4038 C4040 1.391 . S
C4039 C4038 1.386 . S
C4039 C4043 1.393 . S
C4040 H4029 0.950 . S
C4040 C4038 1.391 . S
C4040 C4041 1.400 . S
C4041 C4035 1.491 1_565 S
C4041 C4040 1.400 . S
C4041 C4042 1.398 . S
C4042 H4030 0.950 1_565 S
C4042 C4041 1.398 . S
C4042 C4043 1.391 . S
C4043 H4031 0.950 . S
C4043 C4039 1.393 . S
C4043 C4042 1.391 . S
H4044 C4052 0.950 . S
H4045 C4057 0.950 . S
H4046 C4054 0.950 1_556 S
H4047 C4056 0.950 1_545 S
H4048 C4058 0.950 . S
H4049 C4060 0.950 1_554 S
H4050 C4062 0.950 1_565 S
H4051 C4063 0.950 . S
C4052 H4044 0.950 . S
C4052 C4053 1.386 . S
C4052 C4054 1.391 . S
C4053 C4052 1.386 . S
C4053 C4057 1.393 . S
C4054 H4046 0.950 1_554 S
C4054 C4052 1.391 . S
C4054 C4055 1.400 . S
C4055 C4054 1.400 . S
C4055 C4056 1.398 . S
C4055 C4061 1.491 1_564 S
C4056 H4047 0.950 1_565 S
C4056 C4055 1.398 . S
C4056 C4057 1.391 . S
C4057 H4045 0.950 . S
C4057 C4053 1.393 . S
C4057 C4056 1.391 . S
C4058 H4048 0.950 . S
C4058 C4059 1.386 . S
C4058 C4060 1.391 . S
C4059 C4058 1.386 . S
C4059 C4063 1.393 . S
C4060 H4049 0.950 1_556 S
C4060 C4058 1.391 . S
C4060 C4061 1.400 . S
C4061 C4055 1.491 1_546 S
C4061 C4060 1.400 . S
C4061 C4062 1.398 . S
C4062 H4050 0.950 1_545 S
C4062 C4061 1.398 . S
C4062 C4063 1.391 . S
C4063 H4051 0.950 . S
C4063 C4059 1.393 . S
C4063 C4062 1.391 . S
H4064 C4072 0.950 1_554 S
H4065 C4077 0.950 . S
H4066 C4074 0.950 . S
H4067 C4076 0.950 1_455 S
H4068 C4078 0.950 1_556 S
H4069 C4080 0.950 . S
H4070 C4082 0.950 1_655 S
H4071 C4083 0.950 . S
C4072 H4064 0.950 1_556 S
C4072 C4073 1.386 . S
C4072 C4074 1.391 1_556 S
C4073 C4072 1.386 . S
C4073 C4077 1.393 . S
C4074 H4066 0.950 . S
C4074 C4072 1.391 1_554 S
C4074 C4075 1.400 1_554 S
C4075 C4074 1.400 1_556 S
C4075 C4076 1.398 . S
C4075 C4081 1.491 1_656 S
C4076 H4067 0.950 1_655 S
C4076 C4075 1.398 . S
C4076 C4077 1.391 . S
C4077 H4065 0.950 . S
C4077 C4073 1.393 . S
C4077 C4076 1.391 . S
C4078 H4068 0.950 1_554 S
C4078 C4079 1.386 . S
C4078 C4080 1.391 1_554 S
C4079 C4078 1.386 . S
C4079 C4083 1.393 . S
C4080 H4069 0.950 . S
C4080 C4078 1.391 1_556 S
C4080 C4081 1.400 1_556 S
C4081 C4075 1.491 1_454 S
C4081 C4080 1.400 1_554 S
C4081 C4082 1.398 . S
C4082 H4070 0.950 1_455 S
C4082 C4081 1.398 . S
C4082 C4083 1.391 . S
C4083 H4071 0.950 . S
C4083 C4079 1.393 . S
C4083 C4082 1.391 . S
H4084 C4092 0.950 . S
H4085 C4097 0.950 . S
H4086 C4094 0.950 . S
H4087 C4096 0.950 . S
H4088 C4098 0.950 . S
H4089 C4100 0.950 . S
H4090 C4102 0.950 . S
H4091 C4103 0.950 . S
C4092 H4084 0.950 . S
C4092 C4093 1.386 . S
C4092 C4094 1.391 . S
C4093 C4092 1.386 . S
C4093 C4097 1.393 . S
C4094 H4086 0.950 . S
C4094 C4092 1.391 . S
C4094 C4095 1.400 . S
C4095 C4094 1.400 . S
C4095 C4096 1.398 . S
C4095 C4101 1.491 1_554 S
C4096 H4087 0.950 . S
C4096 C4095 1.398 . S
C4096 C4097 1.391 . S
C4097 H4085 0.950 . S
C4097 C4093 1.393 . S
C4097 C4096 1.391 . S
C4098 H4088 0.950 . S
C4098 C4099 1.386 . S
C4098 C4100 1.391 . S
C4099 C4098 1.386 . S
C4099 C4103 1.393 . S
C4100 H4089 0.950 . S
C4100 C4098 1.391 . S
C4100 C4101 1.400 . S
C4101 C4095 1.491 1_556 S
C4101 C4100 1.400 . S
C4101 C4102 1.398 . S
C4102 H4090 0.950 . S
C4102 C4101 1.398 . S
C4102 C4103 1.391 . S
C4103 H4091 0.950 . S
C4103 C4099 1.393 . S
C4103 C4102 1.391 . S
H4104 C4112 0.950 . S
H4105 C4117 0.950 1_554 S
H4106 C4114 0.950 . S
H4107 C4116 0.950 . S
H4108 C4118 0.950 . S
H4109 C4120 0.950 . S
H4110 C4122 0.950 . S
H4111 C4123 0.950 . S
C4112 H4104 0.950 . S
C4112 C4113 1.386 . S
C4112 C4114 1.391 . S
C4113 C4112 1.386 . S
C4113 C4117 1.393 . S
C4114 H4106 0.950 . S
C4114 C4112 1.391 . S
C4114 C4115 1.400 . S
C4115 C4114 1.400 . S
C4115 C4116 1.398 . S
C4115 C4121 1.491 . S
C4116 H4107 0.950 . S
C4116 C4115 1.398 . S
C4116 C4117 1.391 . S
C4117 H4105 0.950 1_556 S
C4117 C4113 1.393 . S
C4117 C4116 1.391 . S
C4118 H4108 0.950 . S
C4118 C4119 1.386 . S
C4118 C4120 1.391 . S
C4119 C4118 1.386 . S
C4119 C4123 1.393 . S
C4120 H4109 0.950 . S
C4120 C4118 1.391 . S
C4120 C4121 1.400 . S
C4121 C4115 1.491 . S
C4121 C4120 1.400 . S
C4121 C4122 1.398 . S
C4122 H4110 0.950 . S
C4122 C4121 1.398 . S
C4122 C4123 1.391 . S
C4123 H4111 0.950 . S
C4123 C4119 1.393 . S
C4123 C4122 1.391 . S
H4124 C4132 0.950 . S
H4125 C4137 0.950 . S
H4126 C4134 0.950 . S
H4127 C4136 0.950 . S
H4128 C4138 0.950 . S
H4129 C4140 0.950 . S
H4130 C4142 0.950 . S
H4131 C4143 0.950 . S
C4132 H4124 0.950 . S
C4132 C4133 1.386 . S
C4132 C4134 1.391 . S
C4133 C4132 1.386 . S
C4133 C4137 1.393 . S
C4134 H4126 0.950 . S
C4134 C4132 1.391 . S
C4134 C4135 1.400 . S
C4135 C4134 1.400 . S
C4135 C4136 1.398 . S
C4135 C4141 1.491 . S
C4136 H4127 0.950 . S
C4136 C4135 1.398 . S
C4136 C4137 1.391 . S
C4137 H4125 0.950 . S
C4137 C4133 1.393 . S
C4137 C4136 1.391 . S
C4138 H4128 0.950 . S
C4138 C4139 1.386 . S
C4138 C4140 1.391 . S
C4139 C4138 1.386 . S
C4139 C4143 1.393 . S
C4140 H4129 0.950 . S
C4140 C4138 1.391 . S
C4140 C4141 1.400 . S
C4141 C4135 1.491 . S
C4141 C4140 1.400 . S
C4141 C4142 1.398 . S
C4142 H4130 0.950 . S
C4142 C4141 1.398 . S
C4142 C4143 1.391 . S
C4143 H4131 0.950 . S
C4143 C4139 1.393 . S
C4143 C4142 1.391 . S
H4144 C4152 0.950 . S
H4145 C4157 0.950 . S
H4146 C4154 0.950 . S
H4147 C4156 0.950 . S
H4148 C4158 0.950 . S
H4149 C4160 0.950 . S
H4150 C4162 0.950 . S
H4151 C4163 0.950 1_554 S
C4152 H4144 0.950 . S
C4152 C4153 1.386 . S
C4152 C4154 1.391 . S
C4153 C4152 1.386 . S
C4153 C4157 1.393 . S
C4154 H4146 0.950 . S
C4154 C4152 1.391 . S
C4154 C4155 1.400 . S
C4155 C4154 1.400 . S
C4155 C4156 1.398 . S
C4155 C4161 1.491 . S
C4156 H4147 0.950 . S
C4156 C4155 1.398 . S
C4156 C4157 1.391 . S
C4157 H4145 0.950 . S
C4157 C4153 1.393 . S
C4157 C4156 1.391 . S
C4158 H4148 0.950 . S
C4158 C4159 1.386 . S
C4158 C4160 1.391 . S
C4159 C4158 1.386 . S
C4159 C4163 1.393 . S
C4160 H4149 0.950 . S
C4160 C4158 1.391 . S
C4160 C4161 1.400 . S
C4161 C4155 1.491 . S
C4161 C4160 1.400 . S
C4161 C4162 1.398 . S
C4162 H4150 0.950 . S
C4162 C4161 1.398 . S
C4162 C4163 1.391 . S
C4163 H4151 0.950 1_556 S
C4163 C4159 1.393 . S
C4163 C4162 1.391 . S
H4164 C4172 0.950 . S
H4165 C4177 0.950 . S
H4166 C4174 0.950 . S
H4167 C4176 0.950 . S
H4168 C4178 0.950 . S
H4169 C4180 0.950 . S
H4170 C4182 0.950 . S
H4171 C4183 0.950 . S
C4172 H4164 0.950 . S
C4172 C4173 1.386 . S
C4172 C4174 1.391 . S
C4173 C4172 1.386 . S
C4173 C4177 1.393 . S
C4174 H4166 0.950 . S
C4174 C4172 1.391 . S
C4174 C4175 1.400 . S
C4175 C4174 1.400 . S
C4175 C4176 1.398 . S
C4175 C4181 1.491 . S
C4176 H4167 0.950 . S
C4176 C4175 1.398 . S
C4176 C4177 1.391 . S
C4177 H4165 0.950 . S
C4177 C4173 1.393 . S
C4177 C4176 1.391 . S
C4178 H4168 0.950 . S
C4178 C4179 1.386 . S
C4178 C4180 1.391 . S
C4179 C4178 1.386 . S
C4179 C4183 1.393 . S
C4180 H4169 0.950 . S
C4180 C4178 1.391 . S
C4180 C4181 1.400 . S
C4181 C4175 1.491 . S
C4181 C4180 1.400 . S
C4181 C4182 1.398 . S
C4182 H4170 0.950 . S
C4182 C4181 1.398 . S
C4182 C4183 1.391 . S
C4183 H4171 0.950 . S
C4183 C4179 1.393 . S
C4183 C4182 1.391 . S
H4184 C4192 0.950 . S
H4185 C4197 0.950 . S
H4186 C4194 0.950 . S
H4187 C4196 0.950 . S
H4188 C4198 0.950 . S
H4189 C4200 0.950 . S
H4190 C4202 0.950 . S
H4191 C4203 0.950 . S
C4192 H4184 0.950 . S
C4192 C4193 1.386 . S
C4192 C4194 1.391 . S
C4193 C4192 1.386 . S
C4193 C4197 1.393 . S
C4194 H4186 0.950 . S
C4194 C4192 1.391 . S
C4194 C4195 1.400 . S
C4195 C4194 1.400 . S
C4195 C4196 1.398 . S
C4195 C4201 1.491 . S
C4196 H4187 0.950 . S
C4196 C4195 1.398 . S
C4196 C4197 1.391 . S
C4197 H4185 0.950 . S
C4197 C4193 1.393 . S
C4197 C4196 1.391 . S
C4198 H4188 0.950 . S
C4198 C4199 1.386 . S
C4198 C4200 1.391 . S
C4199 C4198 1.386 . S
C4199 C4203 1.393 . S
C4200 H4189 0.950 . S
C4200 C4198 1.391 . S
C4200 C4201 1.400 . S
C4201 C4195 1.491 . S
C4201 C4200 1.400 . S
C4201 C4202 1.398 . S
C4202 H4190 0.950 . S
C4202 C4201 1.398 . S
C4202 C4203 1.391 . S
C4203 H4191 0.950 . S
C4203 C4199 1.393 . S
C4203 C4202 1.391 . S
H4204 C4212 0.950 . S
H4205 C4217 0.950 . S
H4206 C4214 0.950 . S
H4207 C4216 0.950 . S
H4208 C4218 0.950 . S
H4209 C4220 0.950 . S
H4210 C4222 0.950 . S
H4211 C4223 0.950 . S
C4212 H4204 0.950 . S
C4212 C4213 1.386 . S
C4212 C4214 1.391 . S
C4213 C4212 1.386 . S
C4213 C4217 1.393 . S
C4214 H4206 0.950 . S
C4214 C4212 1.391 . S
C4214 C4215 1.400 . S
C4215 C4214 1.400 . S
C4215 C4216 1.398 . S
C4215 C4221 1.491 . S
C4216 H4207 0.950 . S
C4216 C4215 1.398 . S
C4216 C4217 1.391 . S
C4217 H4205 0.950 . S
C4217 C4213 1.393 . S
C4217 C4216 1.391 . S
C4218 H4208 0.950 . S
C4218 C4219 1.386 . S
C4218 C4220 1.391 . S
C4219 C4218 1.386 . S
C4219 C4223 1.393 . S
C4220 H4209 0.950 . S
C4220 C4218 1.391 . S
C4220 C4221 1.400 . S
C4221 C4215 1.491 . S
C4221 C4220 1.400 . S
C4221 C4222 1.398 . S
C4222 H4210 0.950 . S
C4222 C4221 1.398 . S
C4222 C4223 1.391 . S
C4223 H4211 0.950 . S
C4223 C4219 1.393 . S
C4223 C4222 1.391 . S
H4224 C4232 0.950 . S
H4225 C4237 0.950 . S
H4226 C4234 0.950 . S
H4227 C4236 0.950 . S
H4228 C4238 0.950 . S
H4229 C4240 0.950 . S
H4230 C4242 0.950 . S
H4231 C4243 0.950 . S
C4232 H4224 0.950 . S
C4232 C4233 1.386 . S
C4232 C4234 1.391 . S
C4233 C4232 1.386 . S
C4233 C4237 1.393 . S
C4234 H4226 0.950 . S
C4234 C4232 1.391 . S
C4234 C4235 1.400 . S
C4235 C4234 1.400 . S
C4235 C4236 1.398 . S
C4235 C4241 1.491 . S
C4236 H4227 0.950 . S
C4236 C4235 1.398 . S
C4236 C4237 1.391 . S
C4237 H4225 0.950 . S
C4237 C4233 1.393 . S
C4237 C4236 1.391 . S
C4238 H4228 0.950 . S
C4238 C4239 1.386 . S
C4238 C4240 1.391 . S
C4239 C4238 1.386 . S
C4239 C4243 1.393 . S
C4240 H4229 0.950 . S
C4240 C4238 1.391 . S
C4240 C4241 1.400 . S
C4241 C4235 1.491 . S
C4241 C4240 1.400 . S
C4241 C4242 1.398 . S
C4242 H4230 0.950 . S
C4242 C4241 1.398 . S
C4242 C4243 1.391 . S
C4243 H4231 0.950 . S
C4243 C4239 1.393 . S
C4243 C4242 1.391 . S
H4244 C4252 0.950 . S
H4245 C4257 0.950 . S
H4246 C4254 0.950 . S
H4247 C4256 0.950 . S
H4248 C4258 0.950 . S
H4249 C4260 0.950 . S
H4250 C4262 0.950 . S
H4251 C4263 0.950 . S
C4252 H4244 0.950 . S
C4252 C4253 1.386 . S
C4252 C4254 1.391 . S
C4253 C4252 1.386 . S
C4253 C4257 1.393 . S
C4254 H4246 0.950 . S
C4254 C4252 1.391 . S
C4254 C4255 1.400 . S
C4255 C4254 1.400 . S
C4255 C4256 1.398 . S
C4255 C4261 1.491 . S
C4256 H4247 0.950 . S
C4256 C4255 1.398 . S
C4256 C4257 1.391 . S
C4257 H4245 0.950 . S
C4257 C4253 1.393 . S
C4257 C4256 1.391 . S
C4258 H4248 0.950 . S
C4258 C4259 1.386 . S
C4258 C4260 1.391 . S
C4259 C4258 1.386 . S
C4259 C4263 1.393 . S
C4260 H4249 0.950 . S
C4260 C4258 1.391 . S
C4260 C4261 1.400 . S
C4261 C4255 1.491 . S
C4261 C4260 1.400 . S
C4261 C4262 1.398 . S
C4262 H4250 0.950 . S
C4262 C4261 1.398 . S
C4262 C4263 1.391 . S
C4263 H4251 0.950 . S
C4263 C4259 1.393 . S
C4263 C4262 1.391 . S
H4264 C4272 0.950 . S
H4265 C4277 0.950 . S
H4266 C4274 0.950 . S
H4267 C4276 0.950 . S
H4268 C4278 0.950 . S
H4269 C4280 0.950 . S
H4270 C4282 0.950 . S
H4271 C4283 0.950 1_556 S
C4272 H4264 0.950 . S
C4272 C4273 1.386 . S
C4272 C4274 1.391 . S
C4273 C4272 1.386 . S
C4273 C4277 1.393 . S
C4274 H4266 0.950 . S
C4274 C4272 1.391 . S
C4274 C4275 1.400 . S
C4275 C4274 1.400 . S
C4275 C4276 1.398 . S
C4275 C4281 1.491 . S
C4276 H4267 0.950 . S
C4276 C4275 1.398 . S
C4276 C4277 1.391 . S
C4277 H4265 0.950 . S
C4277 C4273 1.393 . S
C4277 C4276 1.391 . S
C4278 H4268 0.950 . S
C4278 C4279 1.386 . S
C4278 C4280 1.391 . S
C4279 C4278 1.386 . S
C4279 C4283 1.393 . S
C4280 H4269 0.950 . S
C4280 C4278 1.391 . S
C4280 C4281 1.400 . S
C4281 C4275 1.491 . S
C4281 C4280 1.400 . S
C4281 C4282 1.398 . S
C4282 H4270 0.950 . S
C4282 C4281 1.398 . S
C4282 C4283 1.391 . S
C4283 H4271 0.950 1_554 S
C4283 C4279 1.393 . S
C4283 C4282 1.391 . S
H4284 C4292 0.950 . S
H4285 C4297 0.950 . S
H4286 C4294 0.950 . S
H4287 C4296 0.950 . S
H4288 C4298 0.950 . S
H4289 C4300 0.950 . S
H4290 C4302 0.950 . S
H4291 C4303 0.950 . S
C4292 H4284 0.950 . S
C4292 C4293 1.386 . S
C4292 C4294 1.391 . S
C4293 C4292 1.386 . S
C4293 C4297 1.393 . S
C4294 H4286 0.950 . S
C4294 C4292 1.391 . S
C4294 C4295 1.400 . S
C4295 C4294 1.400 . S
C4295 C4296 1.398 . S
C4295 C4301 1.491 . S
C4296 H4287 0.950 . S
C4296 C4295 1.398 . S
C4296 C4297 1.391 . S
C4297 H4285 0.950 . S
C4297 C4293 1.393 . S
C4297 C4296 1.391 . S
C4298 H4288 0.950 . S
C4298 C4299 1.386 . S
C4298 C4300 1.391 . S
C4299 C4298 1.386 . S
C4299 C4303 1.393 . S
C4300 H4289 0.950 . S
C4300 C4298 1.391 . S
C4300 C4301 1.400 . S
C4301 C4295 1.491 . S
C4301 C4300 1.400 . S
C4301 C4302 1.398 . S
C4302 H4290 0.950 . S
C4302 C4301 1.398 . S
C4302 C4303 1.391 . S
C4303 H4291 0.950 . S
C4303 C4299 1.393 . S
C4303 C4302 1.391 . S
H4304 C4312 0.950 . S
H4305 C4317 0.950 . S
H4306 C4314 0.950 . S
H4307 C4316 0.950 . S
H4308 C4318 0.950 . S
H4309 C4320 0.950 . S
H4310 C4322 0.950 . S
H4311 C4323 0.950 . S
C4312 H4304 0.950 . S
C4312 C4313 1.386 . S
C4312 C4314 1.391 . S
C4313 C4312 1.386 . S
C4313 C4317 1.393 . S
C4314 H4306 0.950 . S
C4314 C4312 1.391 . S
C4314 C4315 1.400 . S
C4315 C4314 1.400 . S
C4315 C4316 1.398 . S
C4315 C4321 1.491 . S
C4316 H4307 0.950 . S
C4316 C4315 1.398 . S
C4316 C4317 1.391 . S
C4317 H4305 0.950 . S
C4317 C4313 1.393 . S
C4317 C4316 1.391 . S
C4318 H4308 0.950 . S
C4318 C4319 1.386 . S
C4318 C4320 1.391 . S
C4319 C4318 1.386 . S
C4319 C4323 1.393 . S
C4320 H4309 0.950 . S
C4320 C4318 1.391 . S
C4320 C4321 1.400 . S
C4321 C4315 1.491 . S
C4321 C4320 1.400 . S
C4321 C4322 1.398 . S
C4322 H4310 0.950 . S
C4322 C4321 1.398 . S
C4322 C4323 1.391 . S
C4323 H4311 0.950 . S
C4323 C4319 1.393 . S
C4323 C4322 1.391 . S
H4324 C4332 0.950 . S
H4325 C4337 0.950 . S
H4326 C4334 0.950 . S
H4327 C4336 0.950 . S
H4328 C4338 0.950 . S
H4329 C4340 0.950 . S
H4330 C4342 0.950 . S
H4331 C4343 0.950 . S
C4332 H4324 0.950 . S
C4332 C4333 1.386 . S
C4332 C4334 1.391 . S
C4333 C4332 1.386 . S
C4333 C4337 1.393 . S
C4334 H4326 0.950 . S
C4334 C4332 1.391 . S
C4334 C4335 1.400 . S
C4335 C4334 1.400 . S
C4335 C4336 1.398 . S
C4335 C4341 1.491 . S
C4336 H4327 0.950 . S
C4336 C4335 1.398 . S
C4336 C4337 1.391 . S
C4337 H4325 0.950 . S
C4337 C4333 1.393 . S
C4337 C4336 1.391 . S
C4338 H4328 0.950 . S
C4338 C4339 1.386 . S
C4338 C4340 1.391 . S
C4339 C4338 1.386 . S
C4339 C4343 1.393 . S
C4340 H4329 0.950 . S
C4340 C4338 1.391 . S
C4340 C4341 1.400 . S
C4341 C4335 1.491 . S
C4341 C4340 1.400 . S
C4341 C4342 1.398 . S
C4342 H4330 0.950 . S
C4342 C4341 1.398 . S
C4342 C4343 1.391 . S
C4343 H4331 0.950 . S
C4343 C4339 1.393 . S
C4343 C4342 1.391 . S
H4344 C4352 0.950 . S
H4345 C4357 0.950 . S
H4346 C4354 0.950 . S
H4347 C4356 0.950 1_655 S
H4348 C4358 0.950 . S
H4349 C4360 0.950 . S
H4350 C4362 0.950 1_455 S
H4351 C4363 0.950 . S
C4352 H4344 0.950 . S
C4352 C4353 1.386 . S
C4352 C4354 1.391 . S
C4353 C4352 1.386 . S
C4353 C4357 1.393 . S
C4354 H4346 0.950 . S
C4354 C4352 1.391 . S
C4354 C4355 1.400 . S
C4355 C4354 1.400 . S
C4355 C4356 1.398 . S
C4355 C4361 1.491 1_455 S
C4356 H4347 0.950 1_455 S
C4356 C4355 1.398 . S
C4356 C4357 1.391 . S
C4357 H4345 0.950 . S
C4357 C4353 1.393 . S
C4357 C4356 1.391 . S
C4358 H4348 0.950 . S
C4358 C4359 1.386 . S
C4358 C4360 1.391 . S
C4359 C4358 1.386 . S
C4359 C4363 1.393 . S
C4360 H4349 0.950 . S
C4360 C4358 1.391 . S
C4360 C4361 1.400 . S
C4361 C4355 1.491 1_655 S
C4361 C4360 1.400 . S
C4361 C4362 1.398 . S
C4362 H4350 0.950 1_655 S
C4362 C4361 1.398 . S
C4362 C4363 1.391 . S
C4363 H4351 0.950 . S
C4363 C4359 1.393 . S
C4363 C4362 1.391 . S
H4364 C4372 0.950 . S
H4365 C4377 0.950 . S
H4366 C4374 0.950 . S
H4367 C4376 0.950 . S
H4368 C4378 0.950 . S
H4369 C4380 0.950 . S
H4370 C4382 0.950 . S
H4371 C4383 0.950 . S
C4372 H4364 0.950 . S
C4372 C4373 1.386 . S
C4372 C4374 1.391 . S
C4373 C4372 1.386 . S
C4373 C4377 1.393 . S
C4374 H4366 0.950 . S
C4374 C4372 1.391 . S
C4374 C4375 1.400 . S
C4375 C4374 1.400 . S
C4375 C4376 1.398 . S
C4375 C4381 1.491 . S
C4376 H4367 0.950 . S
C4376 C4375 1.398 . S
C4376 C4377 1.391 . S
C4377 H4365 0.950 . S
C4377 C4373 1.393 . S
C4377 C4376 1.391 . S
C4378 H4368 0.950 . S
C4378 C4379 1.386 . S
C4378 C4380 1.391 . S
C4379 C4378 1.386 . S
C4379 C4383 1.393 . S
C4380 H4369 0.950 . S
C4380 C4378 1.391 . S
C4380 C4381 1.400 . S
C4381 C4375 1.491 . S
C4381 C4380 1.400 . S
C4381 C4382 1.398 . S
C4382 H4370 0.950 . S
C4382 C4381 1.398 . S
C4382 C4383 1.391 . S
C4383 H4371 0.950 . S
C4383 C4379 1.393 . S
C4383 C4382 1.391 . S
H4384 C4392 0.950 . S
H4385 C4397 0.950 . S
H4386 C4394 0.950 . S
H4387 C4396 0.963 . S
H4388 C4398 0.950 . S
H4389 C4400 0.950 . S
H4390 C4402 0.950 . S
H4391 C4403 0.950 . S
C4392 H4384 0.950 . S
C4392 C4393 1.386 . S
C4392 C4394 1.391 . S
C4393 C4392 1.386 . S
C4393 C4397 1.393 . S
C4394 H4386 0.950 . S
C4394 C4392 1.391 . S
C4394 C4395 1.400 . S
C4395 C4394 1.400 . S
C4395 C4396 1.398 . S
C4395 C4401 1.491 1_545 S
C4396 H4387 0.963 . S
C4396 C4395 1.398 . S
C4396 C4397 1.391 . S
C4397 H4385 0.950 . S
C4397 C4393 1.393 . S
C4397 C4396 1.391 . S
C4398 H4388 0.950 . S
C4398 C4399 1.386 . S
C4398 C4400 1.391 . S
C4399 C4398 1.386 . S
C4399 C4403 1.393 . S
C4400 H4389 0.950 . S
C4400 C4398 1.391 . S
C4400 C4401 1.400 . S
C4401 C4395 1.491 1_565 S
C4401 C4400 1.400 . S
C4401 C4402 1.398 . S
C4402 H4390 0.950 . S
C4402 C4401 1.398 . S
C4402 C4403 1.391 . S
C4403 H4391 0.950 . S
C4403 C4399 1.393 . S
C4403 C4402 1.391 . S
H4404 C4412 0.950 . S
H4405 C4417 0.950 . S
H4406 C4414 0.950 . S
H4407 C4416 0.950 . S
H4408 C4418 0.950 . S
H4409 C4420 0.950 . S
H4410 C4422 0.950 . S
H4411 C4423 0.950 . S
C4412 H4404 0.950 . S
C4412 C4413 1.386 . S
C4412 C4414 1.391 . S
C4413 C4412 1.386 . S
C4413 C4417 1.393 . S
C4414 H4406 0.950 . S
C4414 C4412 1.391 . S
C4414 C4415 1.400 . S
C4415 C4414 1.400 . S
C4415 C4416 1.398 . S
C4415 C4421 1.491 1_565 S
C4416 H4407 0.950 . S
C4416 C4415 1.398 . S
C4416 C4417 1.391 . S
C4417 H4405 0.950 . S
C4417 C4413 1.393 . S
C4417 C4416 1.391 . S
C4418 H4408 0.950 . S
C4418 C4419 1.386 . S
C4418 C4420 1.391 . S
C4419 C4418 1.386 . S
C4419 C4423 1.393 . S
C4420 H4409 0.950 . S
C4420 C4418 1.391 . S
C4420 C4421 1.400 . S
C4421 C4415 1.491 1_545 S
C4421 C4420 1.400 . S
C4421 C4422 1.398 . S
C4422 H4410 0.950 . S
C4422 C4421 1.398 . S
C4422 C4423 1.391 . S
C4423 H4411 0.950 . S
C4423 C4419 1.393 . S
C4423 C4422 1.391 . S
H4424 C4432 0.950 . S
H4425 C4437 0.950 . S
H4426 C4434 0.950 . S
H4427 C4436 0.950 1_655 S
H4428 C4438 0.950 . S
H4429 C4440 0.950 . S
H4430 C4442 0.950 1_455 S
H4431 C4443 0.950 . S
C4432 H4424 0.950 . S
C4432 C4433 1.386 . S
C4432 C4434 1.391 . S
C4433 C4432 1.386 . S
C4433 C4437 1.393 . S
C4434 H4426 0.950 . S
C4434 C4432 1.391 . S
C4434 C4435 1.400 . S
C4435 C4434 1.400 . S
C4435 C4436 1.398 . S
C4435 C4441 1.491 1_455 S
C4436 H4427 0.950 1_455 S
C4436 C4435 1.398 . S
C4436 C4437 1.391 . S
C4437 H4425 0.950 . S
C4437 C4433 1.393 . S
C4437 C4436 1.391 . S
C4438 H4428 0.950 . S
C4438 C4439 1.386 . S
C4438 C4440 1.391 . S
C4439 C4438 1.386 . S
C4439 C4443 1.393 . S
C4440 H4429 0.950 . S
C4440 C4438 1.391 . S
C4440 C4441 1.400 . S
C4441 C4435 1.491 1_655 S
C4441 C4440 1.400 . S
C4441 C4442 1.398 . S
C4442 H4430 0.950 1_655 S
C4442 C4441 1.398 . S
C4442 C4443 1.391 . S
C4443 H4431 0.950 . S
C4443 C4439 1.393 . S
C4443 C4442 1.391 . S
H4444 C4452 0.950 . S
H4445 C4457 0.950 . S
H4446 C4454 0.950 . S
H4447 C4456 0.950 . S
H4448 C4458 0.950 . S
H4449 C4460 0.950 . S
H4450 C4462 0.950 . S
H4451 C4463 0.950 . S
C4452 H4444 0.950 . S
C4452 C4453 1.386 . S
C4452 C4454 1.391 . S
C4453 C4452 1.386 . S
C4453 C4457 1.393 . S
C4454 H4446 0.950 . S
C4454 C4452 1.391 . S
C4454 C4455 1.400 . S
C4455 C4454 1.400 . S
C4455 C4456 1.398 . S
C4455 C4461 1.491 . S
C4456 H4447 0.950 . S
C4456 C4455 1.398 . S
C4456 C4457 1.391 . S
C4457 H4445 0.950 . S
C4457 C4453 1.393 . S
C4457 C4456 1.391 . S
C4458 H4448 0.950 . S
C4458 C4459 1.386 . S
C4458 C4460 1.391 . S
C4459 C4458 1.386 . S
C4459 C4463 1.393 . S
C4460 H4449 0.950 . S
C4460 C4458 1.391 . S
C4460 C4461 1.400 . S
C4461 C4455 1.491 . S
C4461 C4460 1.400 . S
C4461 C4462 1.398 . S
C4462 H4450 0.950 . S
C4462 C4461 1.398 . S
C4462 C4463 1.391 . S
C4463 H4451 0.950 . S
C4463 C4459 1.393 . S
C4463 C4462 1.391 . S
H4464 C4472 0.950 . S
H4465 C4477 0.950 . S
H4466 C4474 0.950 . S
H4467 C4476 0.950 . S
H4468 C4478 0.950 . S
H4469 C4480 0.950 . S
H4470 C4482 0.950 . S
H4471 C4483 0.950 . S
C4472 H4464 0.950 . S
C4472 C4473 1.386 . S
C4472 C4474 1.391 . S
C4473 C4472 1.386 . S
C4473 C4477 1.393 . S
C4474 H4466 0.950 . S
C4474 C4472 1.391 . S
C4474 C4475 1.400 . S
C4475 C4474 1.400 . S
C4475 C4476 1.398 . S
C4475 C4481 1.491 . S
C4476 H4467 0.950 . S
C4476 C4475 1.398 . S
C4476 C4477 1.391 . S
C4477 H4465 0.950 . S
C4477 C4473 1.393 . S
C4477 C4476 1.391 . S
C4478 H4468 0.950 . S
C4478 C4479 1.386 . S
C4478 C4480 1.391 . S
C4479 C4478 1.386 . S
C4479 C4483 1.393 . S
C4480 H4469 0.950 . S
C4480 C4478 1.391 . S
C4480 C4481 1.400 . S
C4481 C4475 1.491 . S
C4481 C4480 1.400 . S
C4481 C4482 1.398 . S
C4482 H4470 0.950 . S
C4482 C4481 1.398 . S
C4482 C4483 1.391 . S
C4483 H4471 0.950 . S
C4483 C4479 1.393 . S
C4483 C4482 1.391 . S
H4484 C4492 0.950 . S
H4485 C4497 0.950 . S
H4486 C4494 0.950 . S
H4487 C4496 0.930 1_565 S
H4488 C4498 0.950 . S
H4489 C4500 0.950 . S
H4490 C4502 0.950 1_545 S
H4491 C4503 0.950 . S
C4492 H4484 0.950 . S
C4492 C4493 1.386 . S
C4492 C4494 1.391 . S
C4493 C4492 1.386 . S
C4493 C4497 1.393 . S
C4494 H4486 0.950 . S
C4494 C4492 1.391 . S
C4494 C4495 1.400 . S
C4495 C4494 1.400 . S
C4495 C4496 1.398 . S
C4495 C4501 1.491 1_545 S
C4496 H4487 0.930 1_545 S
C4496 C4495 1.398 . S
C4496 C4497 1.391 . S
C4497 H4485 0.950 . S
C4497 C4493 1.393 . S
C4497 C4496 1.391 . S
C4498 H4488 0.950 . S
C4498 C4499 1.386 . S
C4498 C4500 1.391 . S
C4499 C4498 1.386 . S
C4499 C4503 1.393 . S
C4500 H4489 0.950 . S
C4500 C4498 1.391 . S
C4500 C4501 1.400 . S
C4501 C4495 1.491 1_565 S
C4501 C4500 1.400 . S
C4501 C4502 1.398 . S
C4502 H4490 0.950 1_565 S
C4502 C4501 1.398 . S
C4502 C4503 1.391 . S
C4503 H4491 0.950 . S
C4503 C4499 1.393 . S
C4503 C4502 1.391 . S
H4504 C4512 0.950 . S
H4505 C4517 0.950 . S
H4506 C4514 0.950 . S
H4507 C4516 0.950 1_455 S
H4508 C4518 0.950 . S
H4509 C4520 0.950 . S
H4510 C4522 0.950 1_655 S
H4511 C4523 0.950 . S
C4512 H4504 0.950 . S
C4512 C4513 1.386 . S
C4512 C4514 1.391 . S
C4513 C4512 1.386 . S
C4513 C4517 1.393 . S
C4514 H4506 0.950 . S
C4514 C4512 1.391 . S
C4514 C4515 1.400 . S
C4515 C4514 1.400 . S
C4515 C4516 1.398 . S
C4515 C4521 1.491 1_655 S
C4516 H4507 0.950 1_655 S
C4516 C4515 1.398 . S
C4516 C4517 1.391 . S
C4517 H4505 0.950 . S
C4517 C4513 1.393 . S
C4517 C4516 1.391 . S
C4518 H4508 0.950 . S
C4518 C4519 1.386 . S
C4518 C4520 1.391 . S
C4519 C4518 1.386 . S
C4519 C4523 1.393 . S
C4520 H4509 0.950 . S
C4520 C4518 1.391 . S
C4520 C4521 1.400 . S
C4521 C4515 1.491 1_455 S
C4521 C4520 1.400 . S
C4521 C4522 1.398 . S
C4522 H4510 0.950 1_455 S
C4522 C4521 1.398 . S
C4522 C4523 1.391 . S
C4523 H4511 0.950 . S
C4523 C4519 1.393 . S
C4523 C4522 1.391 . S
H4524 C4532 0.950 . S
H4525 C4537 0.950 . S
H4526 C4534 0.950 . S
H4527 C4536 0.950 . S
H4528 C4538 0.950 . S
H4529 C4540 0.950 . S
H4530 C4542 0.950 . S
H4531 C4543 0.950 . S
C4532 H4524 0.950 . S
C4532 C4533 1.386 . S
C4532 C4534 1.391 . S
C4533 C4532 1.386 . S
C4533 C4537 1.393 . S
C4534 H4526 0.950 . S
C4534 C4532 1.391 . S
C4534 C4535 1.400 . S
C4535 C4534 1.400 . S
C4535 C4536 1.398 . S
C4535 C4541 1.491 . S
C4536 H4527 0.950 . S
C4536 C4535 1.398 . S
C4536 C4537 1.391 . S
C4537 H4525 0.950 . S
C4537 C4533 1.393 . S
C4537 C4536 1.391 . S
C4538 H4528 0.950 . S
C4538 C4539 1.386 . S
C4538 C4540 1.391 . S
C4539 C4538 1.386 . S
C4539 C4543 1.393 . S
C4540 H4529 0.950 . S
C4540 C4538 1.391 . S
C4540 C4541 1.400 . S
C4541 C4535 1.491 . S
C4541 C4540 1.400 . S
C4541 C4542 1.398 . S
C4542 H4530 0.950 . S
C4542 C4541 1.398 . S
C4542 C4543 1.391 . S
C4543 H4531 0.950 . S
C4543 C4539 1.393 . S
C4543 C4542 1.391 . S
H4544 C4552 0.950 . S
H4545 C4557 0.950 . S
H4546 C4554 0.950 . S
H4547 C4556 0.950 . S
H4548 C4558 0.950 . S
H4549 C4560 0.950 . S
H4550 C4562 0.950 . S
H4551 C4563 0.950 . S
C4552 H4544 0.950 . S
C4552 C4553 1.386 . S
C4552 C4554 1.391 . S
C4553 C4552 1.386 . S
C4553 C4557 1.393 . S
C4554 H4546 0.950 . S
C4554 C4552 1.391 . S
C4554 C4555 1.400 . S
C4555 C4554 1.400 . S
C4555 C4556 1.398 . S
C4555 C4561 1.491 1_565 S
C4556 H4547 0.950 . S
C4556 C4555 1.398 . S
C4556 C4557 1.391 . S
C4557 H4545 0.950 . S
C4557 C4553 1.393 . S
C4557 C4556 1.391 . S
C4558 H4548 0.950 . S
C4558 C4559 1.386 . S
C4558 C4560 1.391 . S
C4559 C4558 1.386 . S
C4559 C4563 1.393 . S
C4560 H4549 0.950 . S
C4560 C4558 1.391 . S
C4560 C4561 1.400 . S
C4561 C4555 1.491 1_545 S
C4561 C4560 1.400 . S
C4561 C4562 1.398 . S
C4562 H4550 0.950 . S
C4562 C4561 1.398 . S
C4562 C4563 1.391 . S
C4563 H4551 0.950 . S
C4563 C4559 1.393 . S
C4563 C4562 1.391 . S
H4564 C4572 0.950 . S
H4565 C4577 0.950 . S
H4566 C4574 0.950 . S
H4567 C4576 0.950 . S
H4568 C4578 0.950 . S
H4569 C4580 0.950 . S
H4570 C4582 0.950 . S
H4571 C4583 0.950 . S
C4572 H4564 0.950 . S
C4572 C4573 1.386 . S
C4572 C4574 1.391 . S
C4573 C4572 1.386 . S
C4573 C4577 1.393 . S
C4574 H4566 0.950 . S
C4574 C4572 1.391 . S
C4574 C4575 1.400 . S
C4575 C4574 1.400 . S
C4575 C4576 1.398 . S
C4575 C4581 1.491 1_655 S
C4576 H4567 0.950 . S
C4576 C4575 1.398 . S
C4576 C4577 1.391 . S
C4577 H4565 0.950 . S
C4577 C4573 1.393 . S
C4577 C4576 1.391 . S
C4578 H4568 0.950 . S
C4578 C4579 1.386 . S
C4578 C4580 1.391 . S
C4579 C4578 1.386 . S
C4579 C4583 1.393 . S
C4580 H4569 0.950 . S
C4580 C4578 1.391 . S
C4580 C4581 1.400 . S
C4581 C4575 1.491 1_455 S
C4581 C4580 1.400 . S
C4581 C4582 1.398 . S
C4582 H4570 0.950 . S
C4582 C4581 1.398 . S
C4582 C4583 1.391 . S
C4583 H4571 0.950 . S
C4583 C4579 1.393 . S
C4583 C4582 1.391 . S
H4584 C4592 0.950 . S
H4585 C4597 0.950 . S
H4586 C4594 0.950 . S
H4587 C4596 0.950 . S
H4588 C4598 0.950 . S
H4589 C4600 0.950 . S
H4590 C4602 0.950 . S
H4591 C4603 0.950 . S
C4592 H4584 0.950 . S
C4592 C4593 1.386 . S
C4592 C4594 1.391 . S
C4593 C4592 1.386 . S
C4593 C4597 1.393 . S
C4594 H4586 0.950 . S
C4594 C4592 1.391 . S
C4594 C4595 1.400 . S
C4595 C4594 1.400 . S
C4595 C4596 1.398 . S
C4595 C4601 1.491 . S
C4596 H4587 0.950 . S
C4596 C4595 1.398 . S
C4596 C4597 1.391 . S
C4597 H4585 0.950 . S
C4597 C4593 1.393 . S
C4597 C4596 1.391 . S
C4598 H4588 0.950 . S
C4598 C4599 1.386 . S
C4598 C4600 1.391 . S
C4599 C4598 1.386 . S
C4599 C4603 1.393 . S
C4600 H4589 0.950 . S
C4600 C4598 1.391 . S
C4600 C4601 1.400 . S
C4601 C4595 1.491 . S
C4601 C4600 1.400 . S
C4601 C4602 1.398 . S
C4602 H4590 0.950 . S
C4602 C4601 1.398 . S
C4602 C4603 1.391 . S
C4603 H4591 0.950 . S
C4603 C4599 1.393 . S
C4603 C4602 1.391 . S
H4604 C4612 0.950 . S
H4605 C4617 0.950 . S
H4606 C4614 0.950 . S
H4607 C4616 0.950 . S
H4608 C4618 0.950 . S
H4609 C4620 0.950 . S
H4610 C4622 0.950 . S
H4611 C4623 0.950 . S
C4612 H4604 0.950 . S
C4612 C4613 1.386 . S
C4612 C4614 1.391 . S
C4613 C4612 1.386 . S
C4613 C4617 1.393 . S
C4614 H4606 0.950 . S
C4614 C4612 1.391 . S
C4614 C4615 1.400 . S
C4615 C4614 1.400 . S
C4615 C4616 1.398 . S
C4615 C4621 1.491 . S
C4616 H4607 0.950 . S
C4616 C4615 1.398 . S
C4616 C4617 1.391 . S
C4617 H4605 0.950 . S
C4617 C4613 1.393 . S
C4617 C4616 1.391 . S
C4618 H4608 0.950 . S
C4618 C4619 1.386 . S
C4618 C4620 1.391 . S
C4619 C4618 1.386 . S
C4619 C4623 1.393 . S
C4620 H4609 0.950 . S
C4620 C4618 1.391 . S
C4620 C4621 1.400 . S
C4621 C4615 1.491 . S
C4621 C4620 1.400 . S
C4621 C4622 1.398 . S
C4622 H4610 0.950 . S
C4622 C4621 1.398 . S
C4622 C4623 1.391 . S
C4623 H4611 0.950 . S
C4623 C4619 1.393 . S
C4623 C4622 1.391 . S
H4624 C4632 0.950 . S
H4625 C4637 0.950 . S
H4626 C4634 0.950 . S
H4627 C4636 0.950 . S
H4628 C4638 0.950 . S
H4629 C4640 0.950 . S
H4630 C4642 0.950 . S
H4631 C4643 0.950 . S
C4632 H4624 0.950 . S
C4632 C4633 1.386 . S
C4632 C4634 1.391 . S
C4633 C4632 1.386 . S
C4633 C4637 1.393 . S
C4634 H4626 0.950 . S
C4634 C4632 1.391 . S
C4634 C4635 1.400 . S
C4635 C4634 1.400 . S
C4635 C4636 1.398 . S
C4635 C4641 1.491 . S
C4636 H4627 0.950 . S
C4636 C4635 1.398 . S
C4636 C4637 1.391 . S
C4637 H4625 0.950 . S
C4637 C4633 1.393 . S
C4637 C4636 1.391 . S
C4638 H4628 0.950 . S
C4638 C4639 1.386 . S
C4638 C4640 1.391 . S
C4639 C4638 1.386 . S
C4639 C4643 1.393 . S
C4640 H4629 0.950 . S
C4640 C4638 1.391 . S
C4640 C4641 1.400 . S
C4641 C4635 1.491 . S
C4641 C4640 1.400 . S
C4641 C4642 1.398 . S
C4642 H4630 0.950 . S
C4642 C4641 1.398 . S
C4642 C4643 1.391 . S
C4643 H4631 0.950 . S
C4643 C4639 1.393 . S
C4643 C4642 1.391 . S
H4644 C4652 0.950 . S
H4645 C4657 0.950 . S
H4646 C4654 0.950 . S
H4647 C4656 0.950 . S
H4648 C4658 0.950 . S
H4649 C4660 0.950 . S
H4650 C4662 0.950 . S
H4651 C4663 0.950 . S
C4652 H4644 0.950 . S
C4652 C4653 1.386 . S
C4652 C4654 1.391 . S
C4653 C4652 1.386 . S
C4653 C4657 1.393 . S
C4654 H4646 0.950 . S
C4654 C4652 1.391 . S
C4654 C4655 1.400 . S
C4655 C4654 1.400 . S
C4655 C4656 1.398 . S
C4655 C4661 1.491 . S
C4656 H4647 0.950 . S
C4656 C4655 1.398 . S
C4656 C4657 1.391 . S
C4657 H4645 0.950 . S
C4657 C4653 1.393 . S
C4657 C4656 1.391 . S
C4658 H4648 0.950 . S
C4658 C4659 1.386 . S
C4658 C4660 1.391 . S
C4659 C4658 1.386 . S
C4659 C4663 1.393 . S
C4660 H4649 0.950 . S
C4660 C4658 1.391 . S
C4660 C4661 1.400 . S
C4661 C4655 1.491 . S
C4661 C4660 1.400 . S
C4661 C4662 1.398 . S
C4662 H4650 0.950 . S
C4662 C4661 1.398 . S
C4662 C4663 1.391 . S
C4663 H4651 0.950 . S
C4663 C4659 1.393 . S
C4663 C4662 1.391 . S
H4664 C4672 0.950 . S
H4665 C4677 0.950 . S
H4666 C4674 0.950 . S
H4667 C4676 0.950 . S
H4668 C4678 0.950 . S
H4669 C4680 0.950 . S
H4670 C4682 0.950 . S
H4671 C4683 0.950 . S
C4672 H4664 0.950 . S
C4672 C4673 1.386 . S
C4672 C4674 1.391 . S
C4673 C4672 1.386 . S
C4673 C4677 1.393 . S
C4674 H4666 0.950 . S
C4674 C4672 1.391 . S
C4674 C4675 1.400 . S
C4675 C4674 1.400 . S
C4675 C4676 1.398 . S
C4675 C4681 1.491 . S
C4676 H4667 0.950 . S
C4676 C4675 1.398 . S
C4676 C4677 1.391 . S
C4677 H4665 0.950 . S
C4677 C4673 1.393 . S
C4677 C4676 1.391 . S
C4678 H4668 0.950 . S
C4678 C4679 1.386 . S
C4678 C4680 1.391 . S
C4679 C4678 1.386 . S
C4679 C4683 1.393 . S
C4680 H4669 0.950 . S
C4680 C4678 1.391 . S
C4680 C4681 1.400 . S
C4681 C4675 1.491 . S
C4681 C4680 1.400 . S
C4681 C4682 1.398 . S
C4682 H4670 0.950 . S
C4682 C4681 1.398 . S
C4682 C4683 1.391 . S
C4683 H4671 0.950 . S
C4683 C4679 1.393 . S
C4683 C4682 1.391 . S
H4684 C4692 0.950 . S
H4685 C4697 0.950 . S
H4686 C4694 0.950 . S
H4687 C4696 0.950 . S
H4688 C4698 0.950 . S
H4689 C4700 0.950 . S
H4690 C4702 0.950 . S
H4691 C4703 0.950 . S
C4692 H4684 0.950 . S
C4692 C4693 1.386 . S
C4692 C4694 1.391 . S
C4693 C4692 1.386 . S
C4693 C4697 1.393 . S
C4694 H4686 0.950 . S
C4694 C4692 1.391 . S
C4694 C4695 1.400 . S
C4695 C4694 1.400 . S
C4695 C4696 1.398 . S
C4695 C4701 1.491 . S
C4696 H4687 0.950 . S
C4696 C4695 1.398 . S
C4696 C4697 1.391 . S
C4697 H4685 0.950 . S
C4697 C4693 1.393 . S
C4697 C4696 1.391 . S
C4698 H4688 0.950 . S
C4698 C4699 1.386 . S
C4698 C4700 1.391 . S
C4699 C4698 1.386 . S
C4699 C4703 1.393 . S
C4700 H4689 0.950 . S
C4700 C4698 1.391 . S
C4700 C4701 1.400 . S
C4701 C4695 1.491 . S
C4701 C4700 1.400 . S
C4701 C4702 1.398 . S
C4702 H4690 0.950 . S
C4702 C4701 1.398 . S
C4702 C4703 1.391 . S
C4703 H4691 0.950 . S
C4703 C4699 1.393 . S
C4703 C4702 1.391 . S
H4704 C4712 0.950 . S
H4705 C4717 0.950 . S
H4706 C4714 0.950 . S
H4707 C4716 0.950 . S
H4708 C4718 0.950 . S
H4709 C4720 0.950 . S
H4710 C4722 0.950 . S
H4711 C4723 0.950 . S
C4712 H4704 0.950 . S
C4712 C4713 1.386 . S
C4712 C4714 1.391 . S
C4713 C4712 1.386 . S
C4713 C4717 1.393 . S
C4714 H4706 0.950 . S
C4714 C4712 1.391 . S
C4714 C4715 1.400 . S
C4715 C4714 1.400 . S
C4715 C4716 1.398 . S
C4715 C4721 1.491 . S
C4716 H4707 0.950 . S
C4716 C4715 1.398 . S
C4716 C4717 1.391 . S
C4717 H4705 0.950 . S
C4717 C4713 1.393 . S
C4717 C4716 1.391 . S
C4718 H4708 0.950 . S
C4718 C4719 1.386 . S
C4718 C4720 1.391 . S
C4719 C4718 1.386 . S
C4719 C4723 1.393 . S
C4720 H4709 0.950 . S
C4720 C4718 1.391 . S
C4720 C4721 1.400 . S
C4721 C4715 1.491 . S
C4721 C4720 1.400 . S
C4721 C4722 1.398 . S
C4722 H4710 0.950 . S
C4722 C4721 1.398 . S
C4722 C4723 1.391 . S
C4723 H4711 0.950 . S
C4723 C4719 1.393 . S
C4723 C4722 1.391 . S
H4724 C4732 0.950 1_554 S
H4725 C4737 0.950 . S
H4726 C4734 0.950 . S
H4727 C4736 0.950 . S
H4728 C4738 0.950 . S
H4729 C4740 0.950 . S
H4730 C4742 0.950 . S
H4731 C4743 0.950 . S
C4732 H4724 0.950 1_556 S
C4732 C4733 1.386 . S
C4732 C4734 1.391 . S
C4733 C4732 1.386 . S
C4733 C4737 1.393 . S
C4734 H4726 0.950 . S
C4734 C4732 1.391 . S
C4734 C4735 1.400 . S
C4735 C4734 1.400 . S
C4735 C4736 1.398 . S
C4735 C4741 1.491 . S
C4736 H4727 0.950 . S
C4736 C4735 1.398 . S
C4736 C4737 1.391 . S
C4737 H4725 0.950 . S
C4737 C4733 1.393 . S
C4737 C4736 1.391 . S
C4738 H4728 0.950 . S
C4738 C4739 1.386 . S
C4738 C4740 1.391 . S
C4739 C4738 1.386 . S
C4739 C4743 1.393 . S
C4740 H4729 0.950 . S
C4740 C4738 1.391 . S
C4740 C4741 1.400 . S
C4741 C4735 1.491 . S
C4741 C4740 1.400 . S
C4741 C4742 1.398 . S
C4742 H4730 0.950 . S
C4742 C4741 1.398 . S
C4742 C4743 1.391 . S
C4743 H4731 0.950 . S
C4743 C4739 1.393 . S
C4743 C4742 1.391 . S
H4744 C4752 0.950 . S
H4745 C4757 0.950 1_554 S
H4746 C4754 0.950 . S
H4747 C4756 0.950 . S
H4748 C4758 0.950 . S
H4749 C4760 0.950 . S
H4750 C4762 0.950 . S
H4751 C4763 0.950 . S
C4752 H4744 0.950 . S
C4752 C4753 1.386 . S
C4752 C4754 1.391 . S
C4753 C4752 1.386 . S
C4753 C4757 1.393 . S
C4754 H4746 0.950 . S
C4754 C4752 1.391 . S
C4754 C4755 1.400 . S
C4755 C4754 1.400 . S
C4755 C4756 1.398 . S
C4755 C4761 1.491 . S
C4756 H4747 0.950 . S
C4756 C4755 1.398 . S
C4756 C4757 1.391 . S
C4757 H4745 0.950 1_556 S
C4757 C4753 1.393 . S
C4757 C4756 1.391 . S
C4758 H4748 0.950 . S
C4758 C4759 1.386 . S
C4758 C4760 1.391 . S
C4759 C4758 1.386 . S
C4759 C4763 1.393 . S
C4760 H4749 0.950 . S
C4760 C4758 1.391 . S
C4760 C4761 1.400 . S
C4761 C4755 1.491 . S
C4761 C4760 1.400 . S
C4761 C4762 1.398 . S
C4762 H4750 0.950 . S
C4762 C4761 1.398 . S
C4762 C4763 1.391 . S
C4763 H4751 0.950 . S
C4763 C4759 1.393 . S
C4763 C4762 1.391 . S
H4764 C4772 0.950 . S
H4765 C4777 0.950 . S
H4766 C4774 0.950 . S
H4767 C4776 0.950 . S
H4768 C4778 0.950 . S
H4769 C4780 0.950 . S
H4770 C4782 0.950 . S
H4771 C4783 0.950 . S
C4772 H4764 0.950 . S
C4772 C4773 1.386 . S
C4772 C4774 1.391 . S
C4773 C4772 1.386 . S
C4773 C4777 1.393 . S
C4774 H4766 0.950 . S
C4774 C4772 1.391 . S
C4774 C4775 1.400 . S
C4775 C4774 1.400 . S
C4775 C4776 1.398 . S
C4775 C4781 1.491 . S
C4776 H4767 0.950 . S
C4776 C4775 1.398 . S
C4776 C4777 1.391 . S
C4777 H4765 0.950 . S
C4777 C4773 1.393 . S
C4777 C4776 1.391 . S
C4778 H4768 0.950 . S
C4778 C4779 1.386 . S
C4778 C4780 1.391 . S
C4779 C4778 1.386 . S
C4779 C4783 1.393 . S
C4780 H4769 0.950 . S
C4780 C4778 1.391 . S
C4780 C4781 1.400 . S
C4781 C4775 1.491 . S
C4781 C4780 1.400 . S
C4781 C4782 1.398 . S
C4782 H4770 0.950 . S
C4782 C4781 1.398 . S
C4782 C4783 1.391 . S
C4783 H4771 0.950 . S
C4783 C4779 1.393 . S
C4783 C4782 1.391 . S
H4784 C4792 0.950 . S
H4785 C4797 0.950 . S
H4786 C4794 0.950 . S
H4787 C4796 0.950 . S
H4788 C4798 0.950 . S
H4789 C4800 0.950 . S
H4790 C4802 0.950 . S
H4791 C4803 0.950 . S
C4792 H4784 0.950 . S
C4792 C4793 1.386 . S
C4792 C4794 1.391 . S
C4793 C4792 1.386 . S
C4793 C4797 1.393 . S
C4794 H4786 0.950 . S
C4794 C4792 1.391 . S
C4794 C4795 1.400 . S
C4795 C4794 1.400 . S
C4795 C4796 1.398 . S
C4795 C4801 1.491 . S
C4796 H4787 0.950 . S
C4796 C4795 1.398 . S
C4796 C4797 1.391 . S
C4797 H4785 0.950 . S
C4797 C4793 1.393 . S
C4797 C4796 1.391 . S
C4798 H4788 0.950 . S
C4798 C4799 1.386 . S
C4798 C4800 1.391 . S
C4799 C4798 1.386 . S
C4799 C4803 1.393 . S
C4800 H4789 0.950 . S
C4800 C4798 1.391 . S
C4800 C4801 1.400 . S
C4801 C4795 1.491 . S
C4801 C4800 1.400 . S
C4801 C4802 1.398 . S
C4802 H4790 0.950 . S
C4802 C4801 1.398 . S
C4802 C4803 1.391 . S
C4803 H4791 0.950 . S
C4803 C4799 1.393 . S
C4803 C4802 1.391 . S
H4804 C4812 0.950 . S
H4805 C4817 0.950 . S
H4806 C4814 0.950 . S
H4807 C4816 0.950 . S
H4808 C4818 0.950 . S
H4809 C4820 0.950 . S
H4810 C4822 0.950 . S
H4811 C4823 0.950 . S
C4812 H4804 0.950 . S
C4812 C4813 1.386 . S
C4812 C4814 1.391 . S
C4813 C4812 1.386 . S
C4813 C4817 1.393 . S
C4814 H4806 0.950 . S
C4814 C4812 1.391 . S
C4814 C4815 1.400 . S
C4815 C4814 1.400 . S
C4815 C4816 1.398 . S
C4815 C4821 1.491 . S
C4816 H4807 0.950 . S
C4816 C4815 1.398 . S
C4816 C4817 1.391 . S
C4817 H4805 0.950 . S
C4817 C4813 1.393 . S
C4817 C4816 1.391 . S
C4818 H4808 0.950 . S
C4818 C4819 1.386 . S
C4818 C4820 1.391 . S
C4819 C4818 1.386 . S
C4819 C4823 1.393 . S
C4820 H4809 0.950 . S
C4820 C4818 1.391 . S
C4820 C4821 1.400 . S
C4821 C4815 1.491 . S
C4821 C4820 1.400 . S
C4821 C4822 1.398 . S
C4822 H4810 0.950 . S
C4822 C4821 1.398 . S
C4822 C4823 1.391 . S
C4823 H4811 0.950 . S
C4823 C4819 1.393 . S
C4823 C4822 1.391 . S
H4824 C4832 0.950 . S
H4825 C4837 0.950 . S
H4826 C4834 0.950 . S
H4827 C4836 0.950 . S
H4828 C4838 0.950 1_556 S
H4829 C4840 0.950 . S
H4830 C4842 0.950 . S
H4831 C4843 0.950 . S
C4832 H4824 0.950 . S
C4832 C4833 1.386 . S
C4832 C4834 1.391 . S
C4833 C4832 1.386 . S
C4833 C4837 1.393 . S
C4834 H4826 0.950 . S
C4834 C4832 1.391 . S
C4834 C4835 1.400 . S
C4835 C4834 1.400 . S
C4835 C4836 1.398 . S
C4835 C4841 1.491 . S
C4836 H4827 0.950 . S
C4836 C4835 1.398 . S
C4836 C4837 1.391 . S
C4837 H4825 0.950 . S
C4837 C4833 1.393 . S
C4837 C4836 1.391 . S
C4838 H4828 0.950 1_554 S
C4838 C4839 1.386 . S
C4838 C4840 1.391 . S
C4839 C4838 1.386 . S
C4839 C4843 1.393 . S
C4840 H4829 0.950 . S
C4840 C4838 1.391 . S
C4840 C4841 1.400 . S
C4841 C4835 1.491 . S
C4841 C4840 1.400 . S
C4841 C4842 1.398 . S
C4842 H4830 0.950 . S
C4842 C4841 1.398 . S
C4842 C4843 1.391 . S
C4843 H4831 0.950 . S
C4843 C4839 1.393 . S
C4843 C4842 1.391 . S
H4844 C4852 0.950 . S
H4845 C4857 0.950 . S
H4846 C4854 0.950 . S
H4847 C4856 0.950 . S
H4848 C4858 0.950 . S
H4849 C4860 0.950 . S
H4850 C4862 0.950 . S
H4851 C4863 0.950 . S
C4852 H4844 0.950 . S
C4852 C4853 1.386 . S
C4852 C4854 1.391 . S
C4853 C4852 1.386 . S
C4853 C4857 1.393 . S
C4854 H4846 0.950 . S
C4854 C4852 1.391 . S
C4854 C4855 1.400 . S
C4855 C4854 1.400 . S
C4855 C4856 1.398 . S
C4855 C4861 1.491 . S
C4856 H4847 0.950 . S
C4856 C4855 1.398 . S
C4856 C4857 1.391 . S
C4857 H4845 0.950 . S
C4857 C4853 1.393 . S
C4857 C4856 1.391 . S
C4858 H4848 0.950 . S
C4858 C4859 1.386 . S
C4858 C4860 1.391 . S
C4859 C4858 1.386 . S
C4859 C4863 1.393 1_565 S
C4860 H4849 0.950 . S
C4860 C4858 1.391 . S
C4860 C4861 1.400 . S
C4861 C4855 1.491 . S
C4861 C4860 1.400 . S
C4861 C4862 1.398 . S
C4862 H4850 0.950 . S
C4862 C4861 1.398 . S
C4862 C4863 1.391 1_565 S
C4863 H4851 0.950 . S
C4863 C4859 1.393 1_545 S
C4863 C4862 1.391 1_545 S
H4864 C4872 0.950 . S
H4865 C4877 0.950 1_655 S
H4866 C4874 0.950 . S
H4867 C4876 0.950 . S
H4868 C4878 0.950 1_556 S
H4869 C4880 0.950 . S
H4870 C4882 0.950 . S
H4871 C4883 0.950 . S
C4872 H4864 0.950 . S
C4872 C4873 1.386 . S
C4872 C4874 1.391 . S
C4873 C4872 1.386 . S
C4873 C4877 1.393 . S
C4874 H4866 0.950 . S
C4874 C4872 1.391 . S
C4874 C4875 1.400 . S
C4875 C4874 1.400 . S
C4875 C4876 1.398 . S
C4875 C4881 1.491 . S
C4876 H4867 0.950 . S
C4876 C4875 1.398 . S
C4876 C4877 1.391 . S
C4877 H4865 0.950 1_455 S
C4877 C4873 1.393 . S
C4877 C4876 1.391 . S
C4878 H4868 0.950 1_554 S
C4878 C4879 1.386 . S
C4878 C4880 1.391 . S
C4879 C4878 1.386 . S
C4879 C4883 1.393 . S
C4880 H4869 0.950 . S
C4880 C4878 1.391 . S
C4880 C4881 1.400 . S
C4881 C4875 1.491 . S
C4881 C4880 1.400 . S
C4881 C4882 1.398 . S
C4882 H4870 0.950 . S
C4882 C4881 1.398 . S
C4882 C4883 1.391 . S
C4883 H4871 0.950 . S
C4883 C4879 1.393 . S
C4883 C4882 1.391 . S
H4884 C4892 0.950 . S
H4885 C4897 0.950 . S
H4886 C4894 0.950 . S
H4887 C4896 0.950 . S
H4888 C4898 0.950 . S
H4889 C4900 0.950 . S
H4890 C4902 0.950 . S
H4891 C4903 0.950 . S
C4892 H4884 0.950 . S
C4892 C4893 1.386 . S
C4892 C4894 1.391 . S
C4893 C4892 1.386 . S
C4893 C4897 1.393 . S
C4894 H4886 0.950 . S
C4894 C4892 1.391 . S
C4894 C4895 1.400 . S
C4895 C4894 1.400 . S
C4895 C4896 1.398 . S
C4895 C4901 1.491 . S
C4896 H4887 0.950 . S
C4896 C4895 1.398 . S
C4896 C4897 1.391 . S
C4897 H4885 0.950 . S
C4897 C4893 1.393 . S
C4897 C4896 1.391 . S
C4898 H4888 0.950 . S
C4898 C4899 1.386 . S
C4898 C4900 1.391 . S
C4899 C4898 1.386 . S
C4899 C4903 1.393 . S
C4900 H4889 0.950 . S
C4900 C4898 1.391 . S
C4900 C4901 1.400 . S
C4901 C4895 1.491 . S
C4901 C4900 1.400 . S
C4901 C4902 1.398 . S
C4902 H4890 0.950 . S
C4902 C4901 1.398 . S
C4902 C4903 1.391 . S
C4903 H4891 0.950 . S
C4903 C4899 1.393 . S
C4903 C4902 1.391 . S
H4904 C4912 0.950 . S
H4905 C4917 0.950 . S
H4906 C4914 0.950 1_565 S
H4907 C4916 0.950 . S
H4908 C4918 0.950 . S
H4909 C4920 0.950 . S
H4910 C4922 0.950 . S
H4911 C4923 0.950 . S
C4912 H4904 0.950 . S
C4912 C4913 1.386 1_565 S
C4912 C4914 1.391 1_565 S
C4913 C4912 1.386 1_545 S
C4913 C4917 1.393 . S
C4914 H4906 0.950 1_545 S
C4914 C4912 1.391 1_545 S
C4914 C4915 1.400 . S
C4915 C4914 1.400 . S
C4915 C4916 1.398 . S
C4915 C4921 1.491 . S
C4916 H4907 0.950 . S
C4916 C4915 1.398 . S
C4916 C4917 1.391 . S
C4917 H4905 0.950 . S
C4917 C4913 1.393 . S
C4917 C4916 1.391 . S
C4918 H4908 0.950 . S
C4918 C4919 1.386 . S
C4918 C4920 1.391 . S
C4919 C4918 1.386 . S
C4919 C4923 1.393 . S
C4920 H4909 0.950 . S
C4920 C4918 1.391 . S
C4920 C4921 1.400 . S
C4921 C4915 1.491 . S
C4921 C4920 1.400 . S
C4921 C4922 1.398 . S
C4922 H4910 0.950 . S
C4922 C4921 1.398 . S
C4922 C4923 1.391 . S
C4923 H4911 0.950 . S
C4923 C4919 1.393 . S
C4923 C4922 1.391 . S
H4924 C4932 0.948 1_455 S
H4925 C4937 0.950 . S
H4926 C4934 0.950 . S
H4927 C4936 0.950 . S
H4928 C4938 0.950 . S
H4929 C4940 0.950 . S
H4930 C4942 0.950 . S
H4931 C4943 0.950 . S
C4932 H4924 0.948 1_655 S
C4932 C4933 1.387 . S
C4932 C4934 1.391 . S
C4933 C4932 1.387 . S
C4933 C4937 1.393 . S
C4934 H4926 0.950 . S
C4934 C4932 1.391 . S
C4934 C4935 1.400 . S
C4935 C4934 1.400 . S
C4935 C4936 1.398 . S
C4935 C4941 1.491 . S
C4936 H4927 0.950 . S
C4936 C4935 1.398 . S
C4936 C4937 1.391 . S
C4937 H4925 0.950 . S
C4937 C4933 1.393 . S
C4937 C4936 1.391 . S
C4938 H4928 0.950 . S
C4938 C4939 1.386 . S
C4938 C4940 1.391 . S
C4939 C4938 1.386 . S
C4939 C4943 1.393 . S
C4940 H4929 0.950 . S
C4940 C4938 1.391 . S
C4940 C4941 1.400 . S
C4941 C4935 1.491 . S
C4941 C4940 1.400 . S
C4941 C4942 1.398 . S
C4942 H4930 0.950 . S
C4942 C4941 1.398 . S
C4942 C4943 1.391 . S
C4943 H4931 0.950 . S
C4943 C4939 1.393 . S
C4943 C4942 1.391 . S
H4944 C4952 0.950 . S
H4945 C4957 0.950 . S
H4946 C4954 0.950 . S
H4947 C4956 0.950 . S
H4948 C4958 0.950 . S
H4949 C4960 0.950 . S
H4950 C4962 0.950 . S
H4951 C4963 0.950 . S
C4952 H4944 0.950 . S
C4952 C4953 1.386 . S
C4952 C4954 1.391 . S
C4953 C4952 1.386 . S
C4953 C4957 1.393 . S
C4954 H4946 0.950 . S
C4954 C4952 1.391 . S
C4954 C4955 1.400 . S
C4955 C4954 1.400 . S
C4955 C4956 1.398 . S
C4955 C4961 1.491 . S
C4956 H4947 0.950 . S
C4956 C4955 1.398 . S
C4956 C4957 1.391 . S
C4957 H4945 0.950 . S
C4957 C4953 1.393 . S
C4957 C4956 1.391 . S
C4958 H4948 0.950 . S
C4958 C4959 1.386 . S
C4958 C4960 1.391 . S
C4959 C4958 1.386 . S
C4959 C4963 1.393 . S
C4960 H4949 0.950 . S
C4960 C4958 1.391 . S
C4960 C4961 1.400 . S
C4961 C4955 1.491 . S
C4961 C4960 1.400 . S
C4961 C4962 1.398 . S
C4962 H4950 0.950 . S
C4962 C4961 1.398 . S
C4962 C4963 1.391 . S
C4963 H4951 0.950 . S
C4963 C4959 1.393 . S
C4963 C4962 1.391 . S
H4964 C4972 0.950 . S
H4965 C4977 0.950 . S
H4966 C4974 0.896 1_565 S
H4967 C4976 0.950 . S
H4968 C4978 0.950 . S
H4969 C4980 0.950 . S
H4970 C4982 0.950 . S
H4971 C4983 0.950 . S
C4972 H4964 0.950 . S
C4972 C4973 1.386 1_565 S
C4972 C4974 1.392 1_565 S
C4973 C4972 1.386 1_545 S
C4973 C4977 1.393 . S
C4974 H4966 0.896 1_545 S
C4974 C4972 1.392 1_545 S
C4974 C4975 1.456 . S
C4975 C4974 1.456 . S
C4975 C4976 1.398 . S
C4975 C4981 1.491 . S
C4976 H4967 0.950 . S
C4976 C4975 1.398 . S
C4976 C4977 1.391 . S
C4977 H4965 0.950 . S
C4977 C4973 1.393 . S
C4977 C4976 1.391 . S
C4978 H4968 0.950 . S
C4978 C4979 1.386 . S
C4978 C4980 1.391 . S
C4979 C4978 1.386 . S
C4979 C4983 1.393 . S
C4980 H4969 0.950 . S
C4980 C4978 1.391 . S
C4980 C4981 1.400 . S
C4981 C4975 1.491 . S
C4981 C4980 1.400 . S
C4981 C4982 1.398 . S
C4982 H4970 0.950 . S
C4982 C4981 1.398 . S
C4982 C4983 1.391 . S
C4983 H4971 0.950 . S
C4983 C4979 1.393 . S
C4983 C4982 1.391 . S
H4984 C4992 0.950 . S
H4985 C4997 0.950 . S
H4986 C4994 0.950 . S
H4987 C4996 0.950 . S
H4988 C4998 0.950 . S
H4989 C5000 0.950 1_455 S
H4990 C5002 0.950 . S
H4991 C5003 0.950 . S
C4992 H4984 0.950 . S
C4992 C4993 1.386 . S
C4992 C4994 1.391 . S
C4993 C4992 1.386 . S
C4993 C4997 1.393 . S
C4994 H4986 0.950 . S
C4994 C4992 1.391 . S
C4994 C4995 1.400 . S
C4995 C4994 1.400 . S
C4995 C4996 1.398 . S
C4995 C5001 1.491 . S
C4996 H4987 0.950 . S
C4996 C4995 1.398 . S
C4996 C4997 1.391 . S
C4997 H4985 0.950 . S
C4997 C4993 1.393 . S
C4997 C4996 1.391 . S
C4998 H4988 0.950 . S
C4998 C4999 1.386 1_455 S
C4998 C5000 1.391 1_455 S
C4999 C4998 1.386 1_655 S
C4999 C5003 1.393 . S
C5000 H4989 0.950 1_655 S
C5000 C4998 1.391 1_655 S
C5000 C5001 1.400 . S
C5001 C4995 1.491 . S
C5001 C5000 1.400 . S
C5001 C5002 1.398 . S
C5002 H4990 0.950 . S
C5002 C5001 1.398 . S
C5002 C5003 1.391 . S
C5003 H4991 0.950 . S
C5003 C4999 1.393 . S
C5003 C5002 1.391 . S
H5004 C5012 0.950 . S
H5005 C5017 0.950 . S
H5006 C5014 0.950 . S
H5007 C5016 0.950 . S
H5008 C5018 0.950 . S
H5009 C5020 0.950 . S
H5010 C5022 0.950 . S
H5011 C5023 0.950 . S
C5012 H5004 0.950 . S
C5012 C5013 1.386 . S
C5012 C5014 1.391 . S
C5013 C5012 1.386 . S
C5013 C5017 1.393 . S
C5014 H5006 0.950 . S
C5014 C5012 1.391 . S
C5014 C5015 1.400 . S
C5015 C5014 1.400 . S
C5015 C5016 1.398 . S
C5015 C5021 1.491 . S
C5016 H5007 0.950 . S
C5016 C5015 1.398 . S
C5016 C5017 1.391 . S
C5017 H5005 0.950 . S
C5017 C5013 1.393 . S
C5017 C5016 1.391 . S
C5018 H5008 0.950 . S
C5018 C5019 1.386 . S
C5018 C5020 1.391 . S
C5019 C5018 1.386 . S
C5019 C5023 1.393 . S
C5020 H5009 0.950 . S
C5020 C5018 1.391 . S
C5020 C5021 1.400 . S
C5021 C5015 1.491 . S
C5021 C5020 1.400 . S
C5021 C5022 1.398 . S
C5022 H5010 0.950 . S
C5022 C5021 1.398 . S
C5022 C5023 1.391 . S
C5023 H5011 0.950 . S
C5023 C5019 1.393 . S
C5023 C5022 1.391 . S
H5024 C5032 0.950 . S
H5025 C5037 0.950 . S
H5026 C5034 0.950 . S
H5027 C5036 0.950 . S
H5028 C5038 0.950 . S
H5029 C5040 0.950 . S
H5030 C5042 0.950 . S
H5031 C5043 0.950 . S
C5032 H5024 0.950 . S
C5032 C5033 1.386 . S
C5032 C5034 1.391 . S
C5033 C5032 1.386 . S
C5033 C5037 1.393 . S
C5034 H5026 0.950 . S
C5034 C5032 1.391 . S
C5034 C5035 1.400 . S
C5035 C5034 1.400 . S
C5035 C5036 1.398 . S
C5035 C5041 1.491 . S
C5036 H5027 0.950 . S
C5036 C5035 1.398 . S
C5036 C5037 1.391 . S
C5037 H5025 0.950 . S
C5037 C5033 1.393 . S
C5037 C5036 1.391 . S
C5038 H5028 0.950 . S
C5038 C5039 1.386 . S
C5038 C5040 1.391 . S
C5039 C5038 1.386 . S
C5039 C5043 1.393 . S
C5040 H5029 0.950 . S
C5040 C5038 1.391 . S
C5040 C5041 1.400 . S
C5041 C5035 1.491 . S
C5041 C5040 1.400 . S
C5041 C5042 1.398 . S
C5042 H5030 0.950 . S
C5042 C5041 1.398 . S
C5042 C5043 1.391 . S
C5043 H5031 0.950 . S
C5043 C5039 1.393 . S
C5043 C5042 1.391 . S
H5044 C5052 0.950 . S
H5045 C5057 0.950 . S
H5046 C5054 0.950 . S
H5047 C5056 0.950 . S
H5048 C5058 0.950 . S
H5049 C5060 0.957 1_655 S
H5050 C5062 0.950 . S
H5051 C5063 0.950 . S
C5052 H5044 0.950 . S
C5052 C5053 1.386 . S
C5052 C5054 1.391 . S
C5053 C5052 1.386 . S
C5053 C5057 1.393 . S
C5054 H5046 0.950 . S
C5054 C5052 1.391 . S
C5054 C5055 1.400 . S
C5055 C5054 1.400 . S
C5055 C5056 1.398 . S
C5055 C5061 1.491 . S
C5056 H5047 0.950 . S
C5056 C5055 1.398 . S
C5056 C5057 1.391 . S
C5057 H5045 0.950 . S
C5057 C5053 1.393 . S
C5057 C5056 1.391 . S
C5058 H5048 0.950 . S
C5058 C5059 1.386 1_655 S
C5058 C5060 1.391 1_655 S
C5059 C5058 1.386 1_455 S
C5059 C5063 1.393 . S
C5060 H5049 0.957 1_455 S
C5060 C5058 1.391 1_455 S
C5060 C5061 1.393 . S
C5061 C5055 1.491 . S
C5061 C5060 1.393 . S
C5061 C5062 1.398 . S
C5062 H5050 0.950 . S
C5062 C5061 1.398 . S
C5062 C5063 1.391 . S
C5063 H5051 0.950 . S
C5063 C5059 1.393 . S
C5063 C5062 1.391 . S
H5064 C5072 0.950 . S
H5065 C5077 0.950 . S
H5066 C5074 0.950 . S
H5067 C5076 0.964 . S
H5068 C5078 0.950 . S
H5069 C5080 0.950 . S
H5070 C5082 0.950 1_655 S
H5071 C5083 0.950 . S
C5072 H5064 0.950 . S
C5072 C5073 1.386 . S
C5072 C5074 1.391 . S
C5073 C5072 1.386 . S
C5073 C5077 1.393 . S
C5074 H5066 0.950 . S
C5074 C5072 1.391 . S
C5074 C5075 1.400 . S
C5075 C5074 1.400 . S
C5075 C5076 1.398 . S
C5075 C5081 1.491 1_655 S
C5076 H5067 0.964 . S
C5076 C5075 1.398 . S
C5076 C5077 1.391 . S
C5077 H5065 0.950 . S
C5077 C5073 1.393 . S
C5077 C5076 1.391 . S
C5078 H5068 0.950 . S
C5078 C5079 1.386 . S
C5078 C5080 1.391 . S
C5079 C5078 1.386 . S
C5079 C5083 1.393 . S
C5080 H5069 0.950 . S
C5080 C5078 1.391 . S
C5080 C5081 1.400 . S
C5081 C5075 1.491 1_455 S
C5081 C5080 1.400 . S
C5081 C5082 1.398 . S
C5082 H5070 0.950 1_455 S
C5082 C5081 1.398 . S
C5082 C5083 1.391 . S
C5083 H5071 0.950 . S
C5083 C5079 1.393 . S
C5083 C5082 1.391 . S
H5084 C5092 0.950 . S
H5085 C5097 0.950 . S
H5086 C5094 0.950 . S
H5087 C5096 0.950 . S
H5088 C5098 0.950 . S
H5089 C5100 0.950 . S
H5090 C5102 0.950 . S
H5091 C5103 0.950 . S
C5092 H5084 0.950 . S
C5092 C5093 1.386 . S
C5092 C5094 1.391 . S
C5093 C5092 1.386 . S
C5093 C5097 1.393 . S
C5094 H5086 0.950 . S
C5094 C5092 1.391 . S
C5094 C5095 1.400 . S
C5095 C5094 1.400 . S
C5095 C5096 1.398 . S
C5095 C5101 1.491 . S
C5096 H5087 0.950 . S
C5096 C5095 1.398 . S
C5096 C5097 1.391 . S
C5097 H5085 0.950 . S
C5097 C5093 1.393 . S
C5097 C5096 1.391 . S
C5098 H5088 0.950 . S
C5098 C5099 1.386 . S
C5098 C5100 1.391 . S
C5099 C5098 1.386 . S
C5099 C5103 1.393 . S
C5100 H5089 0.950 . S
C5100 C5098 1.391 . S
C5100 C5101 1.400 . S
C5101 C5095 1.491 . S
C5101 C5100 1.400 . S
C5101 C5102 1.398 . S
C5102 H5090 0.950 . S
C5102 C5101 1.398 . S
C5102 C5103 1.391 . S
C5103 H5091 0.950 . S
C5103 C5099 1.393 . S
C5103 C5102 1.391 . S
H5104 C5112 0.950 . S
H5105 C5117 0.950 . S
H5106 C5114 0.950 . S
H5107 C5116 0.950 . S
H5108 C5118 0.950 . S
H5109 C5120 0.950 . S
H5110 C5122 0.950 . S
H5111 C5123 0.950 . S
C5112 H5104 0.950 . S
C5112 C5113 1.386 . S
C5112 C5114 1.391 . S
C5113 C5112 1.386 . S
C5113 C5117 1.393 . S
C5114 H5106 0.950 . S
C5114 C5112 1.391 . S
C5114 C5115 1.400 . S
C5115 C5114 1.400 . S
C5115 C5116 1.398 . S
C5115 C5121 1.491 1_545 S
C5116 H5107 0.950 . S
C5116 C5115 1.398 . S
C5116 C5117 1.391 . S
C5117 H5105 0.950 . S
C5117 C5113 1.393 . S
C5117 C5116 1.391 . S
C5118 H5108 0.950 . S
C5118 C5119 1.386 . S
C5118 C5120 1.391 . S
C5119 C5118 1.386 . S
C5119 C5123 1.393 . S
C5120 H5109 0.950 . S
C5120 C5118 1.391 . S
C5120 C5121 1.400 . S
C5121 C5115 1.491 1_565 S
C5121 C5120 1.400 . S
C5121 C5122 1.398 . S
C5122 H5110 0.950 . S
C5122 C5121 1.398 . S
C5122 C5123 1.391 . S
C5123 H5111 0.950 . S
C5123 C5119 1.393 . S
C5123 C5122 1.391 . S
H5124 C5132 0.950 . S
H5125 C5137 0.950 . S
H5126 C5134 0.950 . S
H5127 C5136 0.950 . S
H5128 C5138 0.950 . S
H5129 C5140 0.950 . S
H5130 C5142 0.950 . S
H5131 C5143 0.950 . S
C5132 H5124 0.950 . S
C5132 C5133 1.386 . S
C5132 C5134 1.391 . S
C5133 C5132 1.386 . S
C5133 C5137 1.393 . S
C5134 H5126 0.950 . S
C5134 C5132 1.391 . S
C5134 C5135 1.400 . S
C5135 C5134 1.400 . S
C5135 C5136 1.398 . S
C5135 C5141 1.491 1_545 S
C5136 H5127 0.950 . S
C5136 C5135 1.398 . S
C5136 C5137 1.391 . S
C5137 H5125 0.950 . S
C5137 C5133 1.393 . S
C5137 C5136 1.391 . S
C5138 H5128 0.950 . S
C5138 C5139 1.386 . S
C5138 C5140 1.391 . S
C5139 C5138 1.386 . S
C5139 C5143 1.393 . S
C5140 H5129 0.950 . S
C5140 C5138 1.391 . S
C5140 C5141 1.400 . S
C5141 C5135 1.491 1_565 S
C5141 C5140 1.400 . S
C5141 C5142 1.398 . S
C5142 H5130 0.950 . S
C5142 C5141 1.398 . S
C5142 C5143 1.391 . S
C5143 H5131 0.950 . S
C5143 C5139 1.393 . S
C5143 C5142 1.391 . S
H5144 C5152 0.950 . S
H5145 C5157 0.950 . S
H5146 C5154 0.950 1_455 S
H5147 C5156 0.950 . S
H5148 C5158 0.950 . S
H5149 C5160 1.012 . S
H5150 C5162 0.950 . S
H5151 C5163 0.950 . S
C5152 H5144 0.950 . S
C5152 C5153 1.386 . S
C5152 C5154 1.391 . S
C5153 C5152 1.386 . S
C5153 C5157 1.393 . S
C5154 H5146 0.950 1_655 S
C5154 C5152 1.391 . S
C5154 C5155 1.400 . S
C5155 C5154 1.400 . S
C5155 C5156 1.398 . S
C5155 C5161 1.491 1_655 S
C5156 H5147 0.950 . S
C5156 C5155 1.398 . S
C5156 C5157 1.391 . S
C5157 H5145 0.950 . S
C5157 C5153 1.393 . S
C5157 C5156 1.391 . S
C5158 H5148 0.950 . S
C5158 C5159 1.386 . S
C5158 C5160 1.391 . S
C5159 C5158 1.386 . S
C5159 C5163 1.393 . S
C5160 H5149 1.012 . S
C5160 C5158 1.391 . S
C5160 C5161 1.400 . S
C5161 C5155 1.491 1_455 S
C5161 C5160 1.400 . S
C5161 C5162 1.398 . S
C5162 H5150 0.950 . S
C5162 C5161 1.398 . S
C5162 C5163 1.391 . S
C5163 H5151 0.950 . S
C5163 C5159 1.393 . S
C5163 C5162 1.391 . S
H5164 C5172 0.950 . S
H5165 C5177 0.950 . S
H5166 C5174 0.950 . S
H5167 C5176 0.950 . S
H5168 C5178 0.950 . S
H5169 C5180 0.950 . S
H5170 C5182 0.950 . S
H5171 C5183 0.950 . S
C5172 H5164 0.950 . S
C5172 C5173 1.386 . S
C5172 C5174 1.391 . S
C5173 C5172 1.386 . S
C5173 C5177 1.393 . S
C5174 H5166 0.950 . S
C5174 C5172 1.391 . S
C5174 C5175 1.400 . S
C5175 C5174 1.400 . S
C5175 C5176 1.398 . S
C5175 C5181 1.491 . S
C5176 H5167 0.950 . S
C5176 C5175 1.398 . S
C5176 C5177 1.391 . S
C5177 H5165 0.950 . S
C5177 C5173 1.393 . S
C5177 C5176 1.391 . S
C5178 H5168 0.950 . S
C5178 C5179 1.386 . S
C5178 C5180 1.391 . S
C5179 C5178 1.386 . S
C5179 C5183 1.393 . S
C5180 H5169 0.950 . S
C5180 C5178 1.391 . S
C5180 C5181 1.400 . S
C5181 C5175 1.491 . S
C5181 C5180 1.400 . S
C5181 C5182 1.398 . S
C5182 H5170 0.950 . S
C5182 C5181 1.398 . S
C5182 C5183 1.391 . S
C5183 H5171 0.950 . S
C5183 C5179 1.393 . S
C5183 C5182 1.391 . S
C3033 C70 1.656 . S
C3039 C655 1.807 . S
C3053 C739 1.807 . S
C3059 C154 1.682 . S
C3073 C571 1.804 . S
C3079 C238 1.672 . S
C3093 C992 1.816 . S
C3099 C310 1.612 . S
C3113 C394 1.624 . S
C3119 C824 1.808 . S
C3133 C478 1.626 . S
C3139 C908 1.807 . S
C3153 C139 1.808 . S
C3159 C562 1.683 . S
C3173 C646 1.671 . S
C3179 C223 1.804 . S
C3193 C55 1.811 . S
C3199 C730 1.688 . S
C3213 C476 1.813 . S
C3219 C826 1.627 . S
C3233 C910 1.606 . S
C3239 C308 1.814 . S
C3253 C994 1.635 . S
C3259 C392 1.811 . S
C3273 C1078 1.683 . S
C3279 C1663 1.808 . S
C3293 C1747 1.803 . S
C3299 C1162 1.658 . S
C3313 C1579 1.805 . S
C3319 C1246 1.675 . S
C3333 C1318 1.612 . S
C3339 C2000 1.816 . S
C3353 C1832 1.816 . S
C3359 C1402 1.614 . S
C3373 C1486 1.642 . S
C3379 C1916 1.806 . S
C3393 C1570 1.683 . S
C3399 C1147 1.808 . S
C3413 C1231 1.805 . S
C3419 C1654 1.656 . S
C3433 C1738 1.658 . S
C3439 C1063 1.803 . S
C3453 C1484 1.815 . S
C3459 C1834 1.623 . S
C3473 C1316 1.809 . S
C3479 C1918 1.616 . S
C3493 C2002 1.629 . S
C3499 C1400 1.813 . S
C3513 C2086 1.660 . S
C3519 C2671 1.810 . S
C3533 C2170 1.657 . S
C3539 C2755 1.804 . S
C3553 C2587 1.817 . S
C3559 C2254 1.678 . S
C3573 C3008 1.815 . S
C3579 C2326 1.605 . S
C3593 C2410 1.632 . S
C3599 C2840 1.806 . S
C3613 C2924 1.814 . S
C3619 C2494 1.605 . S
C3633 C2155 1.803 . S
C3639 C2578 1.664 . S
C3653 C2662 1.686 . S
C3659 C2239 1.810 . S
C3673 C2071 1.816 . S
C3679 C2746 1.689 . S
C3693 C2842 1.625 . S
C3699 C2492 1.807 . S
C3713 C2926 1.614 . S
C3719 C2324 1.810 . S
C3733 C3010 1.605 . S
C3739 C2408 1.815 . S
C3753 C67 1.675 . S
C3759 C1567 1.675 . S
C3773 C151 1.680 . S
C3779 C1651 1.680 . S
C3793 C1735 1.673 . S
C3799 C235 1.673 . S
C3813 C2828 1.787 . S
C3819 C320 1.787 . S
C3833 C2912 1.778 . S
C3839 C404 1.778 . S
C3853 C2996 1.787 . S
C3859 C488 1.787 . S
C3873 C559 1.682 . S
C3879 C2083 1.682 . S
C3893 C2167 1.682 . S
C3899 C643 1.682 . S
C3913 C727 1.667 . S
C3919 C2251 1.667 . S
C3933 C812 1.766 . S
C3939 C1328 1.766 . S
C3953 C896 1.773 . S
C3959 C1412 1.773 . S
C3973 C980 1.776 . S
C3979 C1496 1.776 . S
C3993 C1075 1.671 . S
C3999 C2575 1.671 . S
C4013 C2659 1.668 . S
C4019 C1159 1.668 . S
C4033 C1243 1.669 . S
C4039 C2743 1.669 . S
C4053 C2336 1.781 . S
C4059 C1820 1.781 . S
C4073 C1904 1.766 . S
C4079 C2420 1.766 . S
C4093 C2504 1.780 . S
C4099 C1988 1.780 . S
C4113 C56 2.351 1_556 S
C4119 C1399 2.415 . S
C4133 C140 2.362 1_556 S
C4139 C1483 2.426 . S
C4153 C1315 2.414 . S
C4159 C224 2.373 1_556 S
C4173 C307 2.417 . S
C4179 C2240 2.374 . S
C4193 C2072 2.362 . S
C4199 C391 2.425 . S
C4213 C475 2.425 . S
C4219 C2156 2.370 . S
C4233 C2923 2.408 . S
C4239 C572 2.356 1_554 S
C4253 C656 2.370 1_554 S
C4259 C3007 2.425 . S
C4273 C2839 2.419 . S
C4279 C740 2.353 1_554 S
C4293 C823 2.407 . S
C4299 C1748 2.365 . S
C4313 C907 2.412 . S
C4319 C1580 2.372 . S
C4333 C991 2.408 . S
C4339 C1664 2.356 . S
C4353 C2407 2.413 . S
C4359 C1064 2.373 . S
C4373 C1148 2.369 . S
C4379 C2491 2.409 . S
C4393 C1232 2.354 . S
C4399 C2323 2.409 . S
C4413 C2756 2.359 . S
C4419 C1831 2.407 . S
C4433 C2588 2.365 . S
C4439 C1915 2.407 . S
C4453 C2672 2.362 . S
C4459 C1999 2.407 . S
C4473 C319 2.835 . S
C4479 C68 2.906 . S
C4493 C152 2.906 . S
C4499 C403 2.831 . S
C4513 C236 2.908 . S
C4519 C487 2.840 . S
C4533 C811 2.831 . S
C4539 C560 2.905 . S
C4553 C644 2.905 . S
C4559 C895 2.829 . S
C4573 C979 2.830 . S
C4579 C728 2.905 . S
C4593 C1327 2.834 . S
C4599 C1076 2.906 . S
C4613 C1160 2.906 . S
C4619 C1411 2.830 . S
C4633 C1244 2.906 . S
C4639 C1495 2.836 . S
C4653 C1568 2.906 . S
C4659 C1819 2.830 1_554 S
C4673 C1652 2.908 . S
C4679 C1903 2.842 1_554 S
C4693 C1736 2.905 . S
C4699 C1987 2.830 1_554 S
C4713 C2084 2.907 . S
C4719 C2335 2.840 1_556 S
C4733 C2419 2.834 1_556 S
C4739 C2168 2.907 . S
C4753 C2503 2.835 1_556 S
C4759 C2252 2.906 . S
C4773 C2576 2.908 . S
C4779 C2827 2.839 . S
C4793 C2911 2.842 . S
C4799 C2660 2.908 . S
C4813 C2744 2.908 . S
C4819 C2995 2.842 . S
C4833 C58 0.713 . S
C4839 C2506 0.805 . S
C4853 C2338 0.797 . S
C4859 C142 0.702 1_565 S
C4873 C226 0.717 1_455 S
C4879 C2422 0.806 . S
C4893 C1150 0.797 . S
C4899 C322 0.736 . S
C4913 C406 0.762 1_545 S
C4919 C1234 0.714 . S
C4933 C490 0.806 1_655 S
C4939 C1066 0.718 . S
C4953 C1990 0.771 . S
C4959 C574 0.788 . S
C4973 C658 0.777 1_545 S
C4979 C1822 0.783 . S
C4993 C1906 0.772 . S
C4999 C742 0.707 1_655 S
C5013 C814 0.726 . S
C5019 C2674 0.776 . S
C5033 C2758 0.738 . S
C5039 C898 0.804 1_565 S
C5053 C2590 0.701 . S
C5059 C982 0.785 1_455 S
C5073 C1330 0.806 . S
C5079 C2158 0.727 . S
C5093 C1414 0.772 . S
C5099 C2242 0.787 . S
C5113 C1498 0.750 . S
C5119 C2074 0.798 . S
C5133 C1582 0.798 . S
C5139 C2998 0.749 . S
C5153 C1666 0.786 . S
C5159 C2830 0.726 . S
C5173 C2914 0.787 . S
C5179 C1750 0.772 . S
