# Generated by pormake.
# Topology snx, (6)-cn, num edge types: 1
# Building blocks:
#     Node 0, Type 0, BuildingBlock: IZENUY_clean_sbu_0, # of connection points: 6
#     Node 1, Type 0, BuildingBlock: IZENUY_clean_sbu_0, # of connection points: 6
#     Node 2, Type 0, BuildingBlock: IZENUY_clean_sbu_0, # of connection points: 6
#     Node 3, Type 0, BuildingBlock: IZENUY_clean_sbu_0, # of connection points: 6
#     Node 4, Type 0, BuildingBlock: IZENUY_clean_sbu_0, # of connection points: 6
#     Node 5, Type 0, BuildingBlock: IZENUY_clean_sbu_0, # of connection points: 6
#     Edge 6, Type (0, 0), BuildingBlock: MIFKUJ_clean_linker_0, # of connection points: 2
#     Edge 7, Type (0, 0), BuildingBlock: MIFKUJ_clean_linker_0, # of connection points: 2
#     Edge 8, Type (0, 0), BuildingBlock: MIFKUJ_clean_linker_0, # of connection points: 2
#     Edge 9, Type (0, 0), BuildingBlock: MIFKUJ_clean_linker_0, # of connection points: 2
#     Edge 10, Type (0, 0), BuildingBlock: MIFKUJ_clean_linker_0, # of connection points: 2
#     Edge 11, Type (0, 0), BuildingBlock: MIFKUJ_clean_linker_0, # of connection points: 2
#     Edge 12, Type (0, 0), BuildingBlock: MIFKUJ_clean_linker_0, # of connection points: 2
#     Edge 13, Type (0, 0), BuildingBlock: MIFKUJ_clean_linker_0, # of connection points: 2
#     Edge 14, Type (0, 0), BuildingBlock: MIFKUJ_clean_linker_0, # of connection points: 2
#     Edge 15, Type (0, 0), BuildingBlock: MIFKUJ_clean_linker_0, # of connection points: 2
#     Edge 16, Type (0, 0), BuildingBlock: MIFKUJ_clean_linker_0, # of connection points: 2
#     Edge 17, Type (0, 0), BuildingBlock: MIFKUJ_clean_linker_0, # of connection points: 2
#     Edge 18, Type (0, 0), BuildingBlock: MIFKUJ_clean_linker_0, # of connection points: 2
#     Edge 19, Type (0, 0), BuildingBlock: MIFKUJ_clean_linker_0, # of connection points: 2
#     Edge 20, Type (0, 0), BuildingBlock: MIFKUJ_clean_linker_0, # of connection points: 2
#     Edge 21, Type (0, 0), BuildingBlock: MIFKUJ_clean_linker_0, # of connection points: 2
#     Edge 22, Type (0, 0), BuildingBlock: MIFKUJ_clean_linker_0, # of connection points: 2
#     Edge 23, Type (0, 0), BuildingBlock: MIFKUJ_clean_linker_0, # of connection points: 2
# Relax obj value: 0.026
# Max RMSD: 0.068
# Mean RMSD: 0.067
data_MOF--net-snx--node1-IZENUY_clean_sbu_0--edge1-MIFKUJ_clean_linker_0
_symmetry_space_group_name_H-M    P1
_symmetry_Int_Tables_number       1
_symmetry_cell_setting            triclinic
loop_
_symmetry_equiv_pos_as_xyz
'x, y, z'
_cell_length_a     46.164207
_cell_length_b     46.13381
_cell_length_c     27.676193
_cell_angle_alpha  90.073092
_cell_angle_beta   89.875233
_cell_angle_gamma 120.22789
loop_
_atom_site_label
_atom_site_type_symbol
_atom_site_fract_x
_atom_site_fract_y
_atom_site_fract_z
_atom_type_partial_charge
Fe0 Fe 0.17736 0.33735 0.26478 0.0
Fe1 Fe 0.20735 0.40464 0.31903 0.0
O2 O 0.19936 0.38199 0.26416 0.0
Fe3 Fe 0.21338 0.40403 0.20881 0.0
O4 O 0.17096 0.38407 0.18546 0.0
O5 O 0.15682 0.33256 0.20597 0.0
O6 O 0.14082 0.33543 0.29292 0.0
C7 C 0.14149 0.34973 0.33217 0.0
C8 C 0.22572 0.34996 0.19712 0.0
O9 O 0.16881 0.37311 0.34897 0.0
C10 C 0.26721 0.44395 0.26558 0.0
O11 O 0.19387 0.33408 0.3238 0.0
O12 O 0.2312 0.38621 0.34244 0.0
O13 O 0.22166 0.3731 0.17996 0.0
O14 O 0.21219 0.33584 0.23657 0.0
C15 C 0.19066 0.44193 0.2612 0.0
O16 O 0.24717 0.44055 0.29924 0.0
O17 O 0.25689 0.42574 0.22837 0.0
C18 C 0.21956 0.35508 0.34709 0.0
O19 O 0.18421 0.42473 0.29931 0.0
O20 O 0.20766 0.43904 0.22751 0.0
C21 C 0.15162 0.35282 0.18186 0.0
Fe22 Fe 0.81497 0.20889 0.71065 0.0
Fe23 Fe 0.81679 0.21063 0.82156 0.0
O24 O 0.82681 0.19859 0.76601 0.0
Fe25 Fe 0.84869 0.17609 0.76562 0.0
O26 O 0.87051 0.19374 0.70808 0.0
O27 O 0.85838 0.23285 0.69071 0.0
O28 O 0.81922 0.24852 0.73222 0.0
C29 C 0.83407 0.26691 0.76833 0.0
C30 C 0.80271 0.14278 0.69475 0.0
O31 O 0.83964 0.25472 0.80549 0.0
C32 C 0.80513 0.14838 0.8462 0.0
O33 O 0.77085 0.18579 0.72668 0.0
O34 O 0.77684 0.20583 0.80042 0.0
O35 O 0.81425 0.14068 0.73511 0.0
O36 O 0.80819 0.1709 0.67898 0.0
C37 C 0.88286 0.2223 0.83614 0.0
O38 O 0.79303 0.16738 0.84203 0.0
O39 O 0.83123 0.15429 0.82314 0.0
C40 C 0.75849 0.19081 0.76429 0.0
O41 O 0.85517 0.21783 0.85236 0.0
O42 O 0.88443 0.20996 0.79614 0.0
C43 C 0.87714 0.22045 0.6861 0.0
Fe44 Fe 0.68437 0.84604 0.26609 0.0
Fe45 Fe 0.61784 0.81654 0.21013 0.0
O46 O 0.63983 0.82495 0.2657 0.0
Fe47 Fe 0.61704 0.81188 0.32074 0.0
O48 O 0.63725 0.85441 0.34362 0.0
O49 O 0.68884 0.86834 0.32327 0.0
O50 O 0.68773 0.8824 0.23538 0.0
C51 C 0.67397 0.88151 0.19566 0.0
C52 C 0.67005 0.79875 0.33646 0.0
O53 O 0.6501 0.85428 0.17949 0.0
C54 C 0.57747 0.75751 0.26445 0.0
O55 O 0.6878 0.82763 0.20886 0.0
O56 O 0.63568 0.79167 0.18853 0.0
O57 O 0.64702 0.80358 0.35181 0.0
O58 O 0.68466 0.81133 0.29691 0.0
C59 C 0.58083 0.83504 0.26556 0.0
O60 O 0.58126 0.77729 0.23027 0.0
O61 O 0.59522 0.76817 0.30199 0.0
C62 C 0.66668 0.80205 0.18537 0.0
O63 O 0.59836 0.8407 0.2279 0.0
O64 O 0.58279 0.81802 0.29997 0.0
C65 C 0.66852 0.87369 0.34716 0.0
Fe66 Fe 0.84858 0.68221 0.76344 0.0
Fe67 Fe 0.8128 0.61575 0.81916 0.0
O68 O 0.8258 0.63775 0.76369 0.0
Fe69 Fe 0.81609 0.61539 0.70841 0.0
O70 O 0.86015 0.63403 0.693 0.0
O71 O 0.87329 0.68589 0.70898 0.0
O72 O 0.88227 0.68333 0.79895 0.0
C73 C 0.87809 0.66972 0.83991 0.0
C74 C 0.80673 0.67022 0.68706 0.0
O75 O 0.84926 0.64701 0.85352 0.0
C76 C 0.75723 0.57745 0.75718 0.0
O77 O 0.82816 0.68685 0.8178 0.0
O78 O 0.78847 0.63546 0.83463 0.0
O79 O 0.8122 0.64716 0.67357 0.0
O80 O 0.81627 0.68385 0.72798 0.0
C81 C 0.83186 0.57639 0.77073 0.0
O82 O 0.77407 0.58059 0.7949 0.0
O83 O 0.77124 0.59491 0.72007 0.0
C84 C 0.80056 0.66673 0.83805 0.0
O85 O 0.83606 0.59426 0.80755 0.0
O86 O 0.81827 0.57969 0.73306 0.0
C87 C 0.87995 0.66518 0.68893 0.0
Fe88 Fe 0.17787 0.84303 0.26205 0.0
Fe89 Fe 0.21327 0.81218 0.20599 0.0
O90 O 0.20052 0.82133 0.26169 0.0
Fe91 Fe 0.21037 0.80892 0.31699 0.0
O92 O 0.16644 0.78384 0.33348 0.0
O93 O 0.15346 0.8224 0.31681 0.0
O94 O 0.14394 0.81007 0.2271 0.0
C95 C 0.14781 0.8005 0.18605 0.0
C96 C 0.22075 0.87387 0.33759 0.0
O97 O 0.17651 0.80651 0.17214 0.0
C98 C 0.26901 0.82987 0.26735 0.0
O99 O 0.19794 0.86782 0.20729 0.0
O100 O 0.23753 0.85634 0.1902 0.0
O101 O 0.21543 0.84536 0.35122 0.0
O102 O 0.21037 0.87737 0.29703 0.0
C103 C 0.1937 0.75355 0.25486 0.0
O104 O 0.2522 0.81617 0.22958 0.0
O105 O 0.25506 0.83292 0.30472 0.0
C106 C 0.22534 0.87531 0.18659 0.0
O107 O 0.19018 0.76734 0.21772 0.0
O108 O 0.20714 0.77038 0.29276 0.0
C109 C 0.14678 0.79521 0.3374 0.0
Fe110 Fe 0.40744 0.2082 0.70551 0.0
Fe111 Fe 0.40924 0.20789 0.81669 0.0
O112 O 0.38616 0.19654 0.76191 0.0
Fe113 Fe 0.34153 0.17361 0.76342 0.0
O114 O 0.33672 0.15094 0.70643 0.0
O115 O 0.38811 0.1648 0.68628 0.0
O116 O 0.44338 0.20451 0.72548 0.0
C117 C 0.44794 0.19073 0.76193 0.0
C118 C 0.35237 0.21875 0.69164 0.0
O119 O 0.4314 0.18613 0.80031 0.0
C120 C 0.35799 0.21835 0.84274 0.0
O121 O 0.42857 0.25251 0.72037 0.0
O122 O 0.44351 0.24798 0.79408 0.0
O123 O 0.33912 0.20695 0.73222 0.0
O124 O 0.37542 0.21418 0.67515 0.0
C125 C 0.35578 0.14134 0.83422 0.0
O126 O 0.38918 0.23088 0.83757 0.0
O127 O 0.33768 0.19173 0.82067 0.0
C128 C 0.44622 0.26563 0.75747 0.0
O129 O 0.37915 0.16951 0.84902 0.0
O130 O 0.34084 0.13878 0.79489 0.0
C131 C 0.35694 0.14517 0.68312 0.0
H132 H 0.19149 0.47669 0.18112 0.0
H133 H 0.18533 0.52615 0.17739 0.0
H134 H 0.16719 0.51971 0.33105 0.0
H135 H 0.17249 0.46954 0.33489 0.0
H136 H 0.12846 0.53883 0.28612 0.0
H137 H 0.24487 0.57266 0.28422 0.0
H138 H 0.29564 0.57294 0.25554 0.0
H139 H 0.28546 0.60801 0.1165 0.0
H140 H 0.23427 0.60736 0.14407 0.0
H141 H 0.18369 0.71174 0.33053 0.0
H142 H 0.17638 0.65548 0.32788 0.0
H143 H 0.17999 0.6594 0.17221 0.0
H144 H 0.18696 0.71574 0.17448 0.0
H145 H 0.22441 0.64111 0.21561 0.0
H146 H 0.10823 0.60968 0.22259 0.0
H147 H 0.05906 0.61057 0.25567 0.0
H148 H 0.07151 0.57309 0.3913 0.0
H149 H 0.1211 0.57245 0.35925 0.0
C150 C 0.18583 0.48555 0.21409 0.0
C151 C 0.18292 0.46941 0.25842 0.0
C152 C 0.18241 0.51392 0.21191 0.0
C153 C 0.17657 0.52714 0.25411 0.0
C154 C 0.1719 0.51009 0.29805 0.0
C155 C 0.17497 0.48143 0.30019 0.0
C156 C 0.1771 0.55963 0.25268 0.0
C157 C 0.14958 0.56125 0.27111 0.0
C158 C 0.2045 0.58888 0.2326 0.0
C159 C 0.23552 0.58963 0.21607 0.0
C160 C 0.25331 0.5802 0.24741 0.0
C161 C 0.28218 0.58044 0.23137 0.0
C162 C 0.29372 0.59042 0.18419 0.0
C163 C 0.27646 0.60024 0.15301 0.0
C164 C 0.24752 0.59994 0.16882 0.0
C165 C 0.18256 0.70052 0.29567 0.0
C166 C 0.18601 0.71826 0.2527 0.0
C167 C 0.17828 0.66832 0.29424 0.0
C168 C 0.17761 0.65327 0.24986 0.0
C169 C 0.18043 0.67061 0.20683 0.0
C170 C 0.18425 0.7027 0.20819 0.0
C171 C 0.17574 0.62021 0.24876 0.0
C172 C 0.20317 0.61858 0.23017 0.0
C173 C 0.14853 0.59117 0.26937 0.0
C174 C 0.11857 0.5913 0.28864 0.0
C175 C 0.10066 0.60189 0.2596 0.0
C176 C 0.07268 0.6023 0.27814 0.0
C177 C 0.06221 0.59197 0.32559 0.0
C178 C 0.07967 0.58112 0.35456 0.0
C179 C 0.10769 0.58069 0.33621 0.0
H180 H 0.04055 0.59232 0.33989 0.0
H181 H 0.31608 0.59064 0.17182 0.0
H182 H 0.72411 0.20061 0.83712 0.0
H183 H 0.66782 0.19281 0.83423 0.0
H184 H 0.65609 0.15582 0.6882 0.0
H185 H 0.7127 0.16395 0.69049 0.0
H186 H 0.63835 0.20269 0.69552 0.0
H187 H 0.61274 0.10297 0.78152 0.0
H188 H 0.6194 0.06943 0.84516 0.0
H189 H 0.59886 0.12311 0.95397 0.0
H190 H 0.59255 0.15733 0.89103 0.0
H191 H 0.47176 0.17194 0.68496 0.0
H192 H 0.5202 0.16381 0.68286 0.0
H193 H 0.53728 0.18838 0.83461 0.0
H194 H 0.48759 0.19432 0.83734 0.0
H195 H 0.55011 0.142 0.81901 0.0
H196 H 0.58382 0.24656 0.73447 0.0
H197 H 0.57959 0.28224 0.6714 0.0
H198 H 0.58665 0.22063 0.56103 0.0
H199 H 0.59065 0.18457 0.62333 0.0
C200 C 0.7095 0.19046 0.80449 0.0
C201 C 0.72309 0.18306 0.76396 0.0
C202 C 0.67717 0.18585 0.803 0.0
C203 C 0.65756 0.17348 0.76112 0.0
C204 C 0.67074 0.16538 0.72092 0.0
C205 C 0.70311 0.16997 0.72237 0.0
C206 C 0.6242 0.17104 0.75845 0.0
C207 C 0.6188 0.1889 0.72202 0.0
C208 C 0.59893 0.15364 0.79356 0.0
C209 C 0.60241 0.13289 0.83152 0.0
C210 C 0.60987 0.10779 0.81903 0.0
C211 C 0.61355 0.08863 0.85499 0.0
C212 C 0.60962 0.09418 0.90358 0.0
C213 C 0.60191 0.11885 0.91632 0.0
C214 C 0.59824 0.13811 0.88051 0.0
C215 C 0.48574 0.1753 0.71791 0.0
C216 C 0.47598 0.18385 0.76127 0.0
C217 C 0.51364 0.17094 0.71664 0.0
C218 C 0.53314 0.17631 0.7583 0.0
C219 C 0.52284 0.18411 0.80188 0.0
C220 C 0.49441 0.18754 0.80346 0.0
C221 C 0.56447 0.17436 0.75668 0.0
C222 C 0.56951 0.15559 0.79226 0.0
C223 C 0.58956 0.19111 0.72092 0.0
C224 C 0.5871 0.21272 0.6835 0.0
C225 C 0.5842 0.24057 0.69672 0.0
C226 C 0.5819 0.26085 0.66118 0.0
C227 C 0.58271 0.25361 0.61232 0.0
C228 C 0.58595 0.22617 0.59889 0.0
C229 C 0.58827 0.20584 0.63428 0.0
H230 H 0.58092 0.26932 0.58487 0.0
H231 H 0.61249 0.07933 0.93137 0.0
H232 H 0.28893 0.50158 0.31647 0.0
H233 H 0.34426 0.55152 0.31546 0.0
H234 H 0.37933 0.50247 0.21816 0.0
H235 H 0.32305 0.45264 0.21721 0.0
H236 H 0.40229 0.56697 0.34238 0.0
H237 H 0.43969 0.55962 0.14432 0.0
H238 H 0.41246 0.53733 0.06555 0.0
H239 H 0.32708 0.5441 0.11122 0.0
H240 H 0.35395 0.5667 0.19 0.0
H241 H 0.56858 0.70269 0.31555 0.0
H242 H 0.51946 0.64599 0.31445 0.0
H243 H 0.47164 0.6783 0.21102 0.0
H244 H 0.52097 0.73417 0.21031 0.0
H245 H 0.45762 0.61975 0.18728 0.0
H246 H 0.45365 0.67071 0.33536 0.0
H247 H 0.47427 0.69947 0.41359 0.0
H248 H 0.48167 0.61608 0.467 0.0
H249 H 0.46147 0.587 0.3888 0.0
C250 C 0.30843 0.50127 0.29503 0.0
C251 C 0.30162 0.47318 0.2668 0.0
C252 C 0.34017 0.52989 0.29461 0.0
C253 C 0.36606 0.531 0.26652 0.0
C254 C 0.35965 0.50252 0.23946 0.0
C255 C 0.32755 0.47401 0.23906 0.0
C256 C 0.39923 0.56246 0.26476 0.0
C257 C 0.41448 0.57836 0.30842 0.0
C258 C 0.4149 0.57787 0.22056 0.0
C259 C 0.39866 0.56445 0.17319 0.0
C260 C 0.41513 0.5564 0.13747 0.0
C261 C 0.39976 0.5437 0.09284 0.0
C262 C 0.368 0.53918 0.08345 0.0
C263 C 0.3516 0.54747 0.11859 0.0
C264 C 0.36688 0.56018 0.16324 0.0
C265 C 0.54764 0.69752 0.29235 0.0
C266 C 0.54862 0.72286 0.26308 0.0
C267 C 0.51954 0.66518 0.29185 0.0
C268 C 0.49158 0.65788 0.26306 0.0
C269 C 0.49288 0.68312 0.2333 0.0
C270 C 0.52112 0.71515 0.23306 0.0
C271 C 0.46043 0.62446 0.26488 0.0
C272 C 0.44567 0.60812 0.22125 0.0
C273 C 0.44428 0.60952 0.30904 0.0
C274 C 0.45643 0.62688 0.35609 0.0
C275 C 0.4599 0.65863 0.36369 0.0
C276 C 0.47148 0.67496 0.40803 0.0
C277 C 0.47937 0.65965 0.44519 0.0
C278 C 0.47562 0.62793 0.43814 0.0
C279 C 0.46409 0.61151 0.39383 0.0
H280 H 0.48832 0.67233 0.4795 0.0
H281 H 0.35615 0.52933 0.04889 0.0
H282 H 0.82149 0.53109 0.69989 0.0
H283 H 0.82609 0.48096 0.70563 0.0
H284 H 0.86073 0.50608 0.85256 0.0
H285 H 0.85612 0.55676 0.84732 0.0
H286 H 0.89608 0.48182 0.797 0.0
H287 H 0.78342 0.44972 0.83748 0.0
H288 H 0.72854 0.44598 0.82794 0.0
H289 H 0.71304 0.39309 0.69405 0.0
H290 H 0.76812 0.39705 0.70229 0.0
H291 H 0.86146 0.31305 0.84183 0.0
H292 H 0.86566 0.36804 0.84659 0.0
H293 H 0.82452 0.35443 0.7031 0.0
H294 H 0.82002 0.29954 0.69805 0.0
H295 H 0.79226 0.37311 0.76676 0.0
H296 H 0.90679 0.40879 0.72413 0.0
H297 H 0.96164 0.41255 0.73403 0.0
H298 H 0.9731 0.45807 0.8734 0.0
H299 H 0.91805 0.45416 0.8646 0.0
C300 C 0.83034 0.52626 0.73345 0.0
C301 C 0.83808 0.54785 0.77337 0.0
C302 C 0.83289 0.49748 0.73663 0.0
C303 C 0.84324 0.48956 0.77973 0.0
C304 C 0.85252 0.51172 0.81904 0.0
C305 C 0.84982 0.54061 0.81599 0.0
C306 C 0.84299 0.45739 0.78361 0.0
C307 C 0.87332 0.45796 0.79126 0.0
C308 C 0.8133 0.42636 0.77549 0.0
C309 C 0.7801 0.42395 0.77031 0.0
C310 C 0.76847 0.43757 0.80575 0.0
C311 C 0.73729 0.43537 0.80062 0.0
C312 C 0.71734 0.41936 0.76038 0.0
C313 C 0.72853 0.40551 0.72519 0.0
C314 C 0.75973 0.40771 0.73008 0.0
C315 C 0.85367 0.32191 0.81104 0.0
C316 C 0.84021 0.30173 0.76965 0.0
C317 C 0.85615 0.3534 0.81382 0.0
C318 C 0.84536 0.36532 0.77521 0.0
C319 C 0.83283 0.34565 0.73341 0.0
C320 C 0.83041 0.31429 0.73054 0.0
C321 C 0.84551 0.39751 0.77891 0.0
C322 C 0.81503 0.39691 0.77287 0.0
C323 C 0.87502 0.4284 0.78867 0.0
C324 C 0.90812 0.43083 0.79395 0.0
C325 C 0.92086 0.41933 0.75708 0.0
C326 C 0.95202 0.42154 0.76245 0.0
C327 C 0.9708 0.43544 0.80438 0.0
C328 C 0.95849 0.44725 0.84098 0.0
C329 C 0.92733 0.44507 0.8358 0.0
H330 H 0.99492 0.43714 0.80847 0.0
H331 H 0.69319 0.41762 0.75651 0.0
H332 H 0.547 0.83752 0.34468 0.0
H333 H 0.49789 0.84426 0.34666 0.0
H334 H 0.5037 0.85756 0.19198 0.0
H335 H 0.55357 0.85166 0.18984 0.0
H336 H 0.48428 0.8976 0.23428 0.0
H337 H 0.45149 0.78144 0.24181 0.0
H338 H 0.4517 0.73151 0.27311 0.0
H339 H 0.41702 0.74456 0.41104 0.0
H340 H 0.41716 0.79493 0.38083 0.0
H341 H 0.31059 0.83954 0.19129 0.0
H342 H 0.3673 0.84809 0.19376 0.0
H343 H 0.36434 0.84716 0.3495 0.0
H344 H 0.30757 0.83889 0.34743 0.0
H345 H 0.38285 0.80266 0.30828 0.0
H346 H 0.413 0.91831 0.29584 0.0
H347 H 0.41119 0.96634 0.26027 0.0
H348 H 0.44859 0.95152 0.12587 0.0
H349 H 0.45014 0.90305 0.16042 0.0
C350 C 0.53811 0.84229 0.31109 0.0
C351 C 0.5539 0.84357 0.267 0.0
C352 C 0.50997 0.84606 0.31229 0.0
C353 C 0.49663 0.85062 0.26934 0.0
C354 C 0.51344 0.85386 0.22554 0.0
C355 C 0.54192 0.85044 0.22437 0.0
C356 C 0.46402 0.84978 0.26998 0.0
C357 C 0.46204 0.87671 0.25005 0.0
C358 C 0.43502 0.82265 0.29102 0.0
C359 C 0.43465 0.79218 0.30919 0.0
C360 C 0.44415 0.77382 0.27893 0.0
C361 C 0.44418 0.74542 0.29646 0.0
C362 C 0.43444 0.73492 0.34405 0.0
C363 C 0.4246 0.75276 0.37419 0.0
C364 C 0.42461 0.78123 0.35689 0.0
C365 C 0.32212 0.84153 0.22611 0.0
C366 C 0.30451 0.83839 0.26918 0.0
C367 C 0.35458 0.84655 0.22743 0.0
C368 C 0.37001 0.8483 0.2718 0.0
C369 C 0.35283 0.84589 0.3149 0.0
C370 C 0.32048 0.84131 0.31363 0.0
C371 C 0.4032 0.85056 0.27298 0.0
C372 C 0.40519 0.8237 0.29295 0.0
C373 C 0.43197 0.87747 0.25134 0.0
C374 C 0.4314 0.90684 0.23062 0.0
C375 C 0.42059 0.92512 0.25858 0.0
C376 C 0.41965 0.95246 0.23862 0.0
C377 C 0.42969 0.96193 0.1908 0.0
C378 C 0.44079 0.94414 0.1629 0.0
C379 C 0.44174 0.91675 0.18267 0.0
H380 H 0.42893 0.98309 0.1754 0.0
H381 H 0.4344 0.7129 0.35755 0.0
H382 H 0.7158 0.55263 0.67781 0.0
H383 H 0.66001 0.50225 0.67438 0.0
H384 H 0.66345 0.48865 0.828 0.0
H385 H 0.71894 0.53841 0.83172 0.0
H386 H 0.64661 0.43218 0.78066 0.0
H387 H 0.61291 0.51549 0.77875 0.0
H388 H 0.61213 0.56518 0.74776 0.0
H389 H 0.57479 0.51596 0.61138 0.0
H390 H 0.57579 0.46612 0.64136 0.0
H391 H 0.48378 0.30429 0.83305 0.0
H392 H 0.53331 0.36022 0.82969 0.0
H393 H 0.52111 0.36329 0.67567 0.0
H394 H 0.47094 0.30747 0.67882 0.0
H395 H 0.54268 0.42454 0.71668 0.0
H396 H 0.57154 0.33861 0.72313 0.0
H397 H 0.56995 0.28863 0.75738 0.0
H398 H 0.61856 0.34351 0.88597 0.0
H399 H 0.61862 0.39336 0.85388 0.0
C400 C 0.70446 0.53916 0.71095 0.0
C401 C 0.72199 0.54946 0.75498 0.0
C402 C 0.67255 0.51038 0.70893 0.0
C403 C 0.65755 0.49163 0.75095 0.0
C404 C 0.67459 0.50257 0.79507 0.0
C405 C 0.70635 0.53113 0.79711 0.0
C406 C 0.62499 0.45959 0.74916 0.0
C407 C 0.6238 0.43059 0.76719 0.0
C408 C 0.59547 0.45732 0.73015 0.0
C409 C 0.59479 0.48723 0.71212 0.0
C410 C 0.60482 0.51537 0.74201 0.0
C411 C 0.60428 0.54354 0.72465 0.0
C412 C 0.59352 0.54377 0.67758 0.0
C413 C 0.58318 0.51578 0.64781 0.0
C414 C 0.5837 0.48755 0.66497 0.0
C415 C 0.49134 0.31697 0.79849 0.0
C416 C 0.47366 0.30115 0.75608 0.0
C417 C 0.51971 0.34896 0.79664 0.0
C418 C 0.53136 0.36563 0.75227 0.0
C419 C 0.51269 0.3508 0.71025 0.0
C420 C 0.48406 0.31884 0.71213 0.0
C421 C 0.56418 0.39736 0.74946 0.0
C422 C 0.5655 0.42614 0.73012 0.0
C423 C 0.59394 0.3995 0.7674 0.0
C424 C 0.59473 0.36971 0.78624 0.0
C425 C 0.5816 0.34 0.75892 0.0
C426 C 0.58099 0.31165 0.77795 0.0
C427 C 0.59435 0.31292 0.82363 0.0
C428 C 0.6082 0.34254 0.85056 0.0
C429 C 0.60835 0.37081 0.83209 0.0
H430 H 0.59393 0.29094 0.83817 0.0
H431 H 0.59311 0.5656 0.66421 0.0
H432 H 0.389 0.28231 0.87894 0.0
H433 H 0.36789 0.305 0.94074 0.0
H434 H 0.27743 0.20856 0.95299 0.0
H435 H 0.29769 0.18639 0.88953 0.0
H436 H 0.26037 0.25242 0.95836 0.0
H437 H 0.34547 0.24058 0.03833 0.0
H438 H 0.40167 0.24797 0.05098 0.0
H439 H 0.44408 0.35478 0.058 0.0
H440 H 0.38817 0.34805 0.04476 0.0
H441 H 0.21277 0.28525 0.19071 0.0
H442 H 0.23715 0.26296 0.13287 0.0
H443 H 0.3022 0.36269 0.07799 0.0
H444 H 0.27727 0.38498 0.13455 0.0
H445 H 0.33186 0.31674 0.0972 0.0
H446 H 0.24323 0.32507 0.01442 0.0
H447 H 0.18526 0.3141 1.00837 0.0
H448 H 0.14776 0.20802 1.01373 0.0
H449 H 0.20554 0.21842 0.02074 0.0
C450 C 0.36457 0.26601 0.89475 0.0
C451 C 0.34508 0.23253 0.8794 0.0
C452 C 0.35258 0.27892 0.93039 0.0
C453 C 0.32127 0.25837 0.95254 0.0
C454 C 0.30165 0.22503 0.93669 0.0
C455 C 0.3133 0.21233 0.90036 0.0
C456 C 0.30881 0.27152 0.99193 0.0
C457 C 0.27601 0.26608 0.98891 0.0
C458 C 0.32904 0.28967 0.03198 0.0
C459 C 0.36268 0.29382 0.04008 0.0
C460 C 0.36682 0.26566 0.04224 0.0
C461 C 0.39861 0.26973 0.04956 0.0
C462 C 0.42644 0.30183 0.05516 0.0
C463 C 0.42251 0.32993 0.05359 0.0
C464 C 0.39077 0.32601 0.04622 0.0
C465 C 0.23262 0.30246 0.16682 0.0
C466 C 0.24307 0.33682 0.16697 0.0
C467 C 0.24644 0.2897 0.13378 0.0
C468 C 0.2714 0.31122 0.10119 0.0
C469 C 0.28301 0.34573 0.10293 0.0
C470 C 0.26868 0.35837 0.1351 0.0
C471 C 0.28383 0.29754 0.06313 0.0
C472 C 0.31647 0.30294 0.06652 0.0
C473 C 0.26331 0.27881 0.02398 0.0
C474 C 0.22866 0.27253 0.01867 0.0
C475 C 0.2226 0.29942 0.01475 0.0
C476 C 0.18979 0.29331 1.01108 0.0
C477 C 0.16283 0.26039 1.01082 0.0
C478 C 0.16866 0.23351 0.01403 0.0
C479 C 0.20143 0.2395 0.01783 0.0
H480 H 0.13745 0.25571 1.00803 0.0
H481 H 0.45103 0.30493 0.06082 0.0
H482 H 0.91415 0.28533 0.65452 0.0
H483 H 0.95831 0.30749 0.59295 0.0
H484 H 0.94361 0.20825 0.57124 0.0
H485 H 0.90109 0.18659 0.6347 0.0
H486 H 1.0054 0.24817 0.56656 0.0
H487 H 0.91235 0.24847 0.49134 0.0
H488 H 0.86693 0.26148 0.48271 0.0
H489 H 0.93907 0.36691 0.48406 0.0
H490 H 0.9849 0.35452 0.49331 0.0
H491 H 0.08825 0.28543 0.33642 0.0
H492 H 0.04128 0.26313 0.39393 0.0
H493 H 0.0791 0.36215 0.45342 0.0
H494 H 0.12642 0.38442 0.397 0.0
H495 H 1.0053 0.32159 0.43578 0.0
H496 H 0.09818 0.31747 0.51145 0.0
H497 H 0.1415 0.30114 0.51249 0.0
H498 H 0.06528 0.1973 0.50251 0.0
H499 H 0.02151 0.21308 0.50041 0.0
C500 C 0.9205 0.26834 0.63665 0.0
C501 C 0.90415 0.23425 0.64935 0.0
C502 C 0.94557 0.28094 0.60116 0.0
C503 C 0.95396 0.25947 0.57643 0.0
C504 C 0.93777 0.22544 0.58958 0.0
C505 C 0.91336 0.21304 0.62588 0.0
C506 C 0.97961 0.2723 0.53705 0.0
C507 C 1.00494 0.26382 0.53771 0.0
C508 C 0.9795 0.29302 0.49926 0.0
C509 C 0.95202 0.30056 0.49348 0.0
C510 C 0.9185 0.27443 0.49011 0.0
C511 C 0.89269 0.28169 0.48506 0.0
C512 C 0.90011 0.315 0.48296 0.0
C513 C 0.93336 0.34112 0.48576 0.0
C514 C 0.95927 0.334 0.49085 0.0
C515 C 0.08625 0.30248 0.3613 0.0
C516 C 0.11104 0.33661 0.36246 0.0
C517 C 0.05951 0.28972 0.39415 0.0
C518 C 0.0569 0.31103 0.42794 0.0
C519 C 0.08072 0.34536 0.42757 0.0
C520 C 0.10776 0.35798 0.39549 0.0
C521 C 0.03057 0.29734 0.46573 0.0
C522 C 1.00535 0.30576 0.46469 0.0
C523 C 0.03034 0.27602 0.50252 0.0
C524 C 0.05659 0.26648 0.50526 0.0
C525 C 0.09066 0.29117 0.50912 0.0
C526 C 0.1153 0.28202 0.50993 0.0
C527 C 0.10615 0.24821 0.50744 0.0
C528 C 0.07233 0.22349 0.50436 0.0
C529 C 0.0476 0.23252 0.50337 0.0
H530 H 0.12527 0.24118 0.50799 0.0
H531 H 0.88009 0.32057 0.47907 0.0
H532 H 0.8395 0.12594 0.89899 0.0
H533 H 0.81784 0.08292 0.9616 0.0
H534 H 0.71817 0.0665 0.93867 0.0
H535 H 0.74032 0.11118 0.8778 0.0
H536 H 0.72556 0.06346 0.02867 0.0
H537 H 0.74663 0.01172 0.89447 0.0
H538 H 0.77899 1.00566 0.8282 0.0
H539 H 0.84979 1.00764 0.93046 0.0
H540 H 0.81809 0.01418 0.99732 0.0
H541 H 0.64083 0.89615 0.12767 0.0
H542 H 0.66405 0.9441 0.07239 0.0
H543 H 0.76154 0.9824 0.13689 0.0
H544 H 0.73829 0.93482 0.19332 0.0
H545 H 0.75539 0.97407 0.028 0.0
H546 H 0.72863 0.02346 0.1627 0.0
H547 H 0.69098 0.02476 0.2249 0.0
H548 H 0.62393 0.02098 0.11454 0.0
H549 H 0.66095 0.01914 0.05168 0.0
C550 C 0.81293 0.11304 0.90715 0.0
C551 C 0.79149 0.12163 0.88318 0.0
C552 C 0.80051 0.08829 0.94286 0.0
C553 C 0.76615 0.07072 0.95426 0.0
C554 C 0.74474 0.07953 0.93055 0.0
C555 C 0.75735 0.10496 0.89563 0.0
C556 C 0.75271 0.04345 0.99115 0.0
C557 C 0.73184 0.04374 0.028 0.0
C558 C 0.76103 0.01773 0.99097 0.0
C559 C 0.78016 0.01378 0.95086 0.0
C560 C 0.76924 0.01111 0.90279 0.0
C561 C 0.78744 1.00755 0.86513 0.0
C562 C 0.81648 1.00635 0.8751 0.0
C563 C 0.82732 1.00862 0.92278 0.0
C564 C 0.80923 0.01223 0.96058 0.0
C565 C 0.66716 0.91494 0.13038 0.0
C566 C 0.68778 0.91174 0.16476 0.0
C567 C 0.68033 0.94231 0.09888 0.0
C568 C 0.71445 0.96668 0.10064 0.0
C569 C 0.73511 0.96378 0.13511 0.0
C570 C 0.72179 0.93673 0.16739 0.0
C571 C 0.72863 0.99442 0.06508 0.0
C572 C 0.74942 0.99401 0.02847 0.0
C573 C 0.71954 0.01945 0.06477 0.0
C574 C 0.69741 0.02083 0.10252 0.0
C575 C 0.70571 0.02259 0.15171 0.0
C576 C 0.68451 0.02349 0.18708 0.0
C577 C 0.65504 0.02286 0.17369 0.0
C578 C 0.64675 0.02143 0.12487 0.0
C579 C 0.66785 0.02049 0.08936 0.0
H580 H 0.63865 0.02356 0.20113 0.0
H581 H 0.83053 1.00359 0.8459 0.0
H582 H 0.64134 0.76534 0.42014 0.0
H583 H 0.66355 0.74149 0.47759 0.0
H584 H 0.74832 0.76875 0.38415 0.0
H585 H 0.7261 0.79265 0.32585 0.0
H586 H 0.72129 0.70426 0.42723 0.0
H587 H 0.75243 0.81755 0.47381 0.0
H588 H 0.73771 0.86054 0.49409 0.0
H589 H 0.6832 0.80398 0.61869 0.0
H590 H 0.69567 0.75948 0.59748 0.0
H591 H 0.825 0.6851 0.59333 0.0
H592 H 0.80216 0.70686 0.5333 0.0
H593 H 0.73354 0.70636 0.64015 0.0
H594 H 0.75846 0.68702 0.70128 0.0
H595 H 0.75129 0.75705 0.58951 0.0
H596 H 0.71112 0.6432 0.54573 0.0
H597 H 0.71437 0.59281 0.52563 0.0
H598 H 0.77551 0.64304 0.40198 0.0
H599 H 0.77298 0.6939 0.4217 0.0
C600 C 0.66461 0.76611 0.41144 0.0
C601 C 0.6822 0.78139 0.36859 0.0
C602 C 0.67724 0.75242 0.44442 0.0
C603 C 0.70785 0.75388 0.43554 0.0
C604 C 0.72471 0.76755 0.39177 0.0
C605 C 0.71202 0.78126 0.35856 0.0
C606 C 0.72304 0.74274 0.47309 0.0
C607 C 0.7283 0.71603 0.46253 0.0
C608 C 0.73085 0.75731 0.51981 0.0
C609 C 0.72477 0.78495 0.53374 0.0
C610 C 0.73709 0.8141 0.50534 0.0
C611 C 0.72914 0.83877 0.517 0.0
C612 C 0.70982 0.83518 0.55787 0.0
C613 C 0.69821 0.80677 0.58705 0.0
C614 C 0.70554 0.78169 0.57505 0.0
C615 C 0.80512 0.68981 0.60393 0.0
C616 C 0.79323 0.68419 0.65168 0.0
C617 C 0.79183 0.70197 0.5695 0.0
C618 C 0.76529 0.70735 0.58151 0.0
C619 C 0.75385 0.7023 0.62968 0.0
C620 C 0.76798 0.69119 0.6646 0.0
C621 C 0.74966 0.71831 0.54391 0.0
C622 C 0.74434 0.74511 0.55433 0.0
C623 C 0.74066 0.70305 0.49759 0.0
C624 C 0.74211 0.67246 0.48546 0.0
C625 C 0.72543 0.64357 0.51442 0.0
C626 C 0.72712 0.61492 0.50308 0.0
C627 C 0.7452 0.61476 0.46262 0.0
C628 C 0.76155 0.64322 0.43334 0.0
C629 C 0.75997 0.67195 0.44455 0.0
H630 H 0.74649 0.59255 0.45391 0.0
H631 H 0.70379 0.85439 0.56686 0.0
H632 H 0.87425 0.66075 0.93763 0.0
H633 H 0.92017 0.68265 0.9958 0.0
H634 H 0.99162 0.72952 0.88018 0.0
H635 H 0.9456 0.70798 0.82138 0.0
H636 H 1.0072 0.69196 0.95034 0.0
H637 H 0.97642 0.77772 0.94414 0.0
H638 H 0.93634 0.79816 0.94792 0.0
H639 H 0.91025 0.76179 0.09339 0.0
H640 H 0.94984 0.74067 0.09022 0.0
H641 H 0.15108 0.7952 0.08826 0.0
H642 H 0.10516 0.7724 0.03043 0.0
H643 H 0.03431 0.7485 0.14685 0.0
H644 H 0.08056 0.77263 0.20503 0.0
H645 H 0.01728 0.7732 0.07629 0.0
H646 H 0.04544 0.68736 0.0864 0.0
H647 H 0.082 0.66269 0.08566 0.0
H648 H 0.10879 0.69326 0.93808 0.0
H649 H 0.07276 0.71857 0.93814 0.0
C650 C 0.89971 0.67565 0.92439 0.0
C651 C 0.90625 0.6827 0.87479 0.0
C652 C 0.92591 0.68822 0.95778 0.0
C653 C 0.95924 0.70782 0.94231 0.0
C654 C 0.96602 0.71445 0.89279 0.0
C655 C 0.93972 0.70226 0.85932 0.0
C656 C 0.98686 0.72157 0.97812 0.0
C657 C 1.00981 0.71012 0.97748 0.0
C658 C 0.98933 0.74422 0.01458 0.0
C659 C 0.96587 0.75734 0.01676 0.0
C660 C 0.96195 0.77385 0.9768 0.0
C661 C 0.93935 0.7856 0.97886 0.0
C662 C 0.92069 0.7812 0.02082 0.0
C663 C 0.92469 0.76514 0.06089 0.0
C664 C 0.94723 0.75331 0.05899 0.0
C665 C 0.12573 0.78495 0.10171 0.0
C666 C 0.1195 0.7856 0.15137 0.0
C667 C 0.0994 0.77173 0.06852 0.0
C668 C 0.06608 0.75809 0.08418 0.0
C669 C 0.05976 0.75879 0.13378 0.0
C670 C 0.08621 0.77251 0.16704 0.0
C671 C 0.03806 0.74381 0.04859 0.0
C672 C 0.01489 0.75507 0.04926 0.0
C673 C 0.03499 0.72044 1.01271 0.0
C674 C 0.05663 0.70515 1.01243 0.0
C675 C 0.05932 0.68905 0.0539 0.0
C676 C 0.07992 0.67492 0.05359 0.0
C677 C 0.09777 0.67648 1.01189 0.0
C678 C 0.09499 0.69211 0.97038 0.0
C679 C 0.07445 0.70633 0.97051 0.0
H680 H 0.11371 0.66552 1.01172 0.0
H681 H 0.90319 0.79029 0.02233 0.0
H682 H 0.29347 0.10991 0.64635 0.0
H683 H 0.2721 0.06518 0.58616 0.0
H684 H 0.36881 0.07216 0.57942 0.0
H685 H 0.39073 0.11787 0.63849 0.0
H686 H 0.34463 0.06396 0.49207 0.0
H687 H 0.30158 0.00985 0.64404 0.0
H688 H 0.27236 1.00073 0.72196 0.0
H689 H 0.18095 0.97534 0.64785 0.0
H690 H 0.2099 0.98521 0.56938 0.0
H691 H 0.23993 0.87328 0.43076 0.0
H692 H 0.26457 0.91966 0.48814 0.0
H693 H 0.26158 0.98568 0.38062 0.0
H694 H 0.23704 0.93932 0.32254 0.0
H695 H 0.2405 0.95631 0.52625 0.0
H696 H 0.32914 0.0642 0.39789 0.0
H697 H 0.36215 0.07207 0.32375 0.0
H698 H 0.36829 0.98457 0.35804 0.0
H699 H 0.33568 0.97642 0.43257 0.0
C700 C 0.3102 0.10189 0.63221 0.0
C701 C 0.34377 0.11732 0.64754 0.0
C702 C 0.29792 0.07624 0.59776 0.0
C703 C 0.31867 0.06487 0.57864 0.0
C704 C 0.35229 0.08046 0.59355 0.0
C705 C 0.36474 0.10648 0.62754 0.0
C706 C 0.30513 0.03638 0.54377 0.0
C707 C 0.32183 0.04047 0.49957 0.0
C708 C 0.27571 1.00538 0.55373 0.0
C709 C 0.258 0.99857 0.60083 0.0
C710 C 0.27529 1.00249 0.64435 0.0
C711 C 0.25877 0.99719 0.68863 0.0
C712 C 0.2248 0.98745 0.6899 0.0
C713 C 0.20727 0.98292 0.64683 0.0
C714 C 0.22374 0.98839 0.60242 0.0
C715 C 0.24456 0.89766 0.41908 0.0
C716 C 0.23642 0.9025 0.37191 0.0
C717 C 0.25856 0.92415 0.45211 0.0
C718 C 0.26504 0.95619 0.43873 0.0
C719 C 0.25711 0.96124 0.39163 0.0
C720 C 0.24297 0.93467 0.35851 0.0
C721 C 0.27973 0.9841 0.4744 0.0
C722 C 0.26323 0.97988 0.51872 0.0
C723 C 0.30976 0.01459 0.46507 0.0
C724 C 0.32969 0.01955 0.42055 0.0
C725 C 0.33763 0.04672 0.38966 0.0
C726 C 0.35625 0.05121 0.34756 0.0
C727 C 0.36724 0.02879 0.33616 0.0
C728 C 0.35967 1.00186 0.36683 0.0
C729 C 0.34107 0.99726 0.40895 0.0
H730 H 0.38173 0.03233 0.30365 0.0
H731 H 0.21206 0.98341 0.72423 0.0
H732 H 0.73092 0.82617 0.1535 0.0
H733 H 0.75081 0.80157 0.09309 0.0
H734 H 0.65044 0.71782 0.07662 0.0
H735 H 0.63013 0.74237 0.13702 0.0
H736 H 0.7007 0.69946 0.08373 0.0
H737 H 0.67864 0.77547 0.99351 0.0
H738 H 0.68326 0.83009 0.97641 0.0
H739 H 0.78999 0.87558 0.96142 0.0
H740 H 0.78607 0.82131 0.97916 0.0
H741 H 0.73666 0.63382 0.87466 0.0
H742 H 0.7114 0.65544 0.93146 0.0
H743 H 0.80358 0.75083 0.93442 0.0
H744 H 0.82846 0.7298 0.87635 0.0
H745 H 0.75439 0.76198 0.93314 0.0
H746 H 0.77922 0.69 0.02711 0.0
H747 H 0.77789 0.63744 0.0483 0.0
H748 H 0.67064 0.58677 0.06081 0.0
H749 H 0.6713 0.63897 0.03906 0.0
C750 C 0.71301 0.80245 0.13724 0.0
C751 C 0.67886 0.78634 0.15 0.0
C752 C 0.72445 0.78849 0.10256 0.0
C753 C 0.70206 0.75803 0.08005 0.0
C754 C 0.66811 0.7414 0.09348 0.0
C755 C 0.65655 0.75553 0.12788 0.0
C756 C 0.71419 0.74387 0.04213 0.0
C757 C 0.71196 0.71282 0.05041 0.0
C758 C 0.72972 0.7618 0.99935 0.0
C759 C 0.73208 0.79437 0.98808 0.0
C760 C 0.70313 0.79717 0.98692 0.0
C761 C 0.70561 0.82806 0.97706 0.0
C762 C 0.73691 0.85631 0.96795 0.0
C763 C 0.76577 0.85369 0.96853 0.0
C764 C 0.76343 0.82286 0.97844 0.0
C765 C 0.75149 0.65945 0.88729 0.0
C766 C 0.78463 0.68003 0.87109 0.0
C767 C 0.73708 0.67175 0.92001 0.0
C768 C 0.75573 0.70464 0.93806 0.0
C769 C 0.78861 0.72538 0.92117 0.0
C770 C 0.80285 0.71328 0.88794 0.0
C771 C 0.74123 0.71752 0.97471 0.0
C772 C 0.74299 0.7484 0.96625 0.0
C773 C 0.72576 0.69967 0.01773 0.0
C774 C 0.72529 0.66829 0.03095 0.0
C775 C 0.75534 0.66758 0.03403 0.0
C776 C 0.75471 0.63787 0.0462 0.0
C777 C 0.72419 0.60876 0.05576 0.0
C778 C 0.69425 0.60933 0.05331 0.0
C779 C 0.69474 0.63897 0.0411 0.0
H780 H 0.72376 0.58578 0.06517 0.0
H781 H 0.73878 0.8802 0.96035 0.0
H782 H 0.90974 0.63116 0.65282 0.0
H783 H 0.955 0.65101 0.59291 0.0
H784 H 0.95928 0.74645 0.58663 0.0
H785 H 0.91447 0.72708 0.64684 0.0
H786 H 0.95612 0.71686 0.49454 0.0
H787 H 0.01823 0.74336 0.64391 0.0
H788 H 0.03196 0.73027 0.72404 0.0
H789 H 0.05336 0.65832 0.65974 0.0
H790 H 0.03924 0.67063 0.57925 0.0
H791 H 0.10595 0.81882 0.36725 0.0
H792 H 0.0604 0.79385 0.42589 0.0
H793 H 0.07592 0.7097 0.44279 0.0
H794 H 0.12233 0.73504 0.38484 0.0
H795 H 0.06738 0.72934 0.52813 0.0
H796 H 1.00822 0.70311 0.37919 0.0
H797 H 0.99342 0.71378 0.29823 0.0
H798 H 0.96449 0.78106 0.35942 0.0
H799 H 0.97961 0.77121 0.44071 0.0
C800 C 0.92047 0.65645 0.63891 0.0
C801 C 0.90852 0.67755 0.65469 0.0
C802 C 0.94634 0.66775 0.60474 0.0
C803 C 0.96046 0.70019 0.58535 0.0
C804 C 0.94867 0.72131 0.6011 0.0
C805 C 0.92319 0.71024 0.63574 0.0
C806 C 0.98719 0.71205 0.54804 0.0
C807 C 0.9806 0.71995 0.50194 0.0
C808 C 0.01866 0.71494 0.55732 0.0
C809 C 0.0273 0.70764 0.60564 0.0
C810 C 0.02556 0.72452 0.64691 0.0
C811 C 0.03347 0.71729 0.69238 0.0
C812 C 0.04343 0.69341 0.697 0.0
C813 C 0.04558 0.67677 0.65612 0.0
C814 C 0.03765 0.68388 0.61056 0.0
C815 C 0.09961 0.79488 0.38311 0.0
C816 C 0.11784 0.77894 0.37117 0.0
C817 C 0.07339 0.78054 0.41661 0.0
C818 C 0.06433 0.74962 0.43842 0.0
C819 C 0.08238 0.73354 0.42646 0.0
C820 C 0.10885 0.74802 0.39317 0.0
C821 C 0.03657 0.73466 0.47449 0.0
C822 C 0.04289 0.72609 0.52041 0.0
C823 C 1.00464 0.73074 0.46485 0.0
C824 C 0.99533 0.73663 0.41603 0.0
C825 C 0.99894 0.72038 0.37536 0.0
C826 C 0.99046 0.72626 0.3294 0.0
C827 C 0.97809 0.74814 0.32367 0.0
C828 C 0.9741 0.76414 0.36391 0.0
C829 C 0.9826 0.75839 0.40995 0.0
H830 H 0.97154 0.75266 0.28806 0.0
H831 H 0.04956 0.68785 0.73223 0.0
H832 H 0.28956 0.90813 0.15104 0.0
H833 H 0.31341 0.95343 0.09097 0.0
H834 H 0.21916 0.95142 0.08324 0.0
H835 H 0.19535 0.90675 0.14379 0.0
H836 H 0.24891 0.94838 0.99068 0.0
H837 H 0.27698 0.01243 0.13993 0.0
H838 H 0.3028 0.02904 0.22065 0.0
H839 H 0.39919 0.05778 0.1597 0.0
H840 H 0.37386 0.04089 0.0787 0.0
H841 H 0.29101 0.09174 0.8488 0.0
H842 H 0.27023 0.04628 0.90787 0.0
H843 H 0.37203 0.07829 0.95011 0.0
H844 H 0.39253 0.12528 0.89352 0.0
H845 H 0.33981 0.06441 0.02557 0.0
H846 H 0.31673 1.0022 0.87897 0.0
H847 H 0.29433 0.98161 0.7974 0.0
H848 H 0.19418 0.94552 0.84929 0.0
H849 H 0.21599 0.96614 0.9311 0.0
C850 C 0.274 0.91752 0.13679 0.0
C851 C 0.24057 0.90386 0.15224 0.0
C852 C 0.28767 0.94339 0.10255 0.0
C853 C 0.268 0.9557 0.08269 0.0
C854 C 0.23471 0.94222 0.09813 0.0
C855 C 0.22122 0.91681 0.13292 0.0
C856 C 0.2818 0.98217 0.04501 0.0
C857 C 0.26856 0.9739 0.99821 0.0
C858 C 0.3083 0.01498 0.05461 0.0
C859 C 0.32347 0.0251 0.10333 0.0
C860 C 0.30362 0.02199 0.14381 0.0
C861 C 0.31818 0.03152 0.18959 0.0
C862 C 0.3526 0.04442 0.19528 0.0
C863 C 0.37253 0.04778 0.15523 0.0
C864 C 0.35809 0.03826 0.10938 0.0
C865 C 0.3089 0.0888 0.87042 0.0
C866 C 0.34337 0.11193 0.86654 0.0
C867 C 0.29704 0.06261 0.90404 0.0
C868 C 0.31948 0.05818 0.93322 0.0
C869 C 0.35405 0.081 0.92839 0.0
C870 C 0.36581 0.10779 0.89585 0.0
C871 C 0.30694 0.03092 0.97036 0.0
C872 C 0.32035 0.03895 0.01736 0.0
C873 C 0.28117 0.99755 0.96054 0.0
C874 C 0.26804 0.98596 0.91109 0.0
C875 C 0.28996 0.99016 0.87288 0.0
C876 C 0.27736 0.97841 0.82664 0.0
C877 C 0.24286 0.96227 0.81819 0.0
C878 C 0.22089 0.958 0.85591 0.0
C879 C 0.23336 0.96967 0.90223 0.0
H880 H 0.23311 0.95293 0.78248 0.0
H881 H 0.36385 0.05196 0.23067 0.0
H882 H 0.38069 0.25617 0.6105 0.0
H883 H 0.35731 0.28122 0.55687 0.0
H884 H 0.26964 0.24342 0.64761 0.0
H885 H 0.29295 0.21833 0.70182 0.0
H886 H 0.25498 0.23035 0.54837 0.0
H887 H 0.32454 0.32396 0.65119 0.0
H888 H 0.37716 0.3638 0.69222 0.0
H889 H 0.42621 0.3981 0.55494 0.0
H890 H 0.374 0.3581 0.51307 0.0
H891 H 0.18484 0.31241 0.42008 0.0
H892 H 0.20661 0.29214 0.48404 0.0
H893 H 0.30584 0.34842 0.42198 0.0
H894 H 0.2843 0.37093 0.36045 0.0
H895 H 0.31322 0.35207 0.5114 0.0
H896 H 0.24798 0.25665 0.40787 0.0
H897 H 0.19714 0.21598 0.36381 0.0
H898 H 0.14242 0.18401 0.49737 0.0
H899 H 0.19291 0.22465 0.54218 0.0
C900 C 0.35648 0.25327 0.61926 0.0
C901 C 0.33868 0.23518 0.66048 0.0
C902 C 0.34322 0.26773 0.58862 0.0
C903 C 0.3118 0.26432 0.59836 0.0
C904 C 0.29394 0.24637 0.63948 0.0
C905 C 0.30737 0.23217 0.67051 0.0
C906 C 0.29735 0.27881 0.56479 0.0
C907 C 0.26741 0.25702 0.54075 0.0
C908 C 0.31408 0.31347 0.55391 0.0
C909 C 0.34541 0.33782 0.57901 0.0
C910 C 0.34661 0.33982 0.62975 0.0
C911 C 0.37636 0.36246 0.65316 0.0
C912 C 0.40503 0.38341 0.62621 0.0
C913 C 0.40399 0.38184 0.57578 0.0
C914 C 0.37431 0.35921 0.55219 0.0
C915 C 0.21131 0.32042 0.42033 0.0
C916 C 0.23293 0.34289 0.38528 0.0
C917 C 0.22375 0.30863 0.45665 0.0
C918 C 0.25781 0.31781 0.4573 0.0
C919 C 0.27947 0.34074 0.42242 0.0
C920 C 0.2672 0.3535 0.38711 0.0
C921 C 0.2709 0.30357 0.49406 0.0
C922 C 0.30063 0.32538 0.51886 0.0
C923 C 0.25427 0.26879 0.50504 0.0
C924 C 0.22413 0.24383 0.47829 0.0
C925 C 0.22508 0.24098 0.4278 0.0
C926 C 0.19634 0.21794 0.40271 0.0
C927 C 0.16656 0.19747 0.42777 0.0
C928 C 0.16551 0.19988 0.47801 0.0
C929 C 0.19419 0.22285 0.50328 0.0
H930 H 0.14431 0.1797 0.40827 0.0
H931 H 0.42804 0.40091 0.6444 0.0
H932 H 0.93566 0.21115 0.83811 0.0
H933 H 0.98277 0.23467 0.89499 0.0
H934 H 0.94516 0.29388 0.96117 0.0
H935 H 0.89741 0.26973 0.90539 0.0
H936 H 0.02192 0.32678 0.93516 0.0
H937 H 0.92742 0.23505 0.02067 0.0
H938 H 0.88131 0.17634 0.02593 0.0
H939 H 0.95163 0.14194 1.00959 0.0
H940 H 0.9981 0.2005 1.0033 0.0
H941 H 0.11735 0.38265 0.14885 0.0
H942 H 0.07265 0.36117 0.0886 0.0
H943 H 0.08116 0.27274 0.07074 0.0
H944 H 0.12457 0.29337 0.13301 0.0
H945 H 0.01952 0.25392 0.06875 0.0
H946 H 0.11392 0.34093 0.98657 0.0
H947 H 0.16235 0.39755 0.97313 0.0
H948 H 0.09718 0.43881 0.97382 0.0
H949 H 0.04838 0.38246 0.98792 0.0
C950 C 0.93762 0.22943 0.86445 0.0
C951 C 0.91282 0.23854 0.86748 0.0
C952 C 0.96446 0.24277 0.89689 0.0
C953 C 0.96729 0.26591 0.93215 0.0
C954 C 0.94334 0.27606 0.93408 0.0
C955 C 0.91607 0.26216 0.9024 0.0
C956 C 0.99434 0.27826 0.96859 0.0
C957 C 0.02135 0.31112 0.96479 0.0
C958 C 0.99398 0.25726 1.00596 0.0
C959 C 0.96616 0.22212 1.01096 0.0
C960 C 0.933 0.21496 0.01777 0.0
C961 C 0.90681 0.18171 0.021 0.0
C962 C 0.91351 0.15542 0.01794 0.0
C963 C 0.94646 0.16233 1.01186 0.0
C964 C 0.97273 0.19554 1.00848 0.0
C965 C 0.10961 0.35861 0.13207 0.0
C966 C 0.12446 0.33972 0.14554 0.0
C967 C 0.0842 0.34642 0.09735 0.0
C968 C 0.07386 0.31557 0.07417 0.0
C969 C 0.08859 0.29658 0.08795 0.0
C970 C 0.11345 0.30841 0.12352 0.0
C971 C 0.04746 0.30297 0.03607 0.0
C972 C 0.02043 0.26986 0.03931 0.0
C973 C 0.04827 0.32357 0.99743 0.0
C974 C 0.07753 0.3575 0.98876 0.0
C975 C 0.10994 0.36211 0.9842 0.0
C976 C 0.13746 0.39415 0.97641 0.0
C977 C 0.13286 0.42177 0.97275 0.0
C978 C 0.10071 0.41739 0.97673 0.0
C979 C 0.07311 0.3854 0.98457 0.0
H980 H 0.15419 0.44656 0.96673 0.0
H981 H 0.8932 0.1297 0.02039 0.0
H982 H 0.72808 0.93289 0.34558 0.0
H983 H 0.74993 0.97736 0.4065 0.0
H984 H 0.66146 0.91892 0.49363 0.0
H985 H 0.63875 0.8755 0.43141 0.0
H986 H 0.67459 0.97855 0.49708 0.0
H987 H 0.74625 0.9296 0.51869 0.0
H988 H 0.78702 0.91257 0.49368 0.0
H989 H 0.85526 0.01274 0.4457 0.0
H990 H 0.81528 0.03056 0.4708 0.0
H991 H 0.7959 0.08066 0.7084 0.0
H992 H 0.77136 0.03295 0.65261 0.0
H993 H 0.74843 0.09007 0.55239 0.0
H994 H 0.77259 0.13767 0.60781 0.0
H995 H 0.79042 0.02908 0.56057 0.0
H996 H 0.67598 0.03681 0.49347 0.0
H997 H 0.63689 0.05437 0.52393 0.0
H998 H 0.65307 0.03336 0.66931 0.0
H999 H 0.69185 0.01521 0.63968 0.0
C1000 C 0.71334 0.92963 0.37775 0.0
C1001 C 0.68172 0.90076 0.38373 0.0
C1002 C 0.72598 0.95492 0.41286 0.0
C1003 C 0.70776 0.95133 0.45544 0.0
C1004 C 0.67611 0.92243 0.46125 0.0
C1005 C 0.6631 0.89758 0.42563 0.0
C1006 C 0.72098 0.97795 0.49335 0.0
C1007 C 0.6999 0.98941 0.51098 0.0
C1008 C 0.754 0.99232 0.51195 0.0
C1009 C 0.77767 0.98133 0.49624 0.0
C1010 C 0.76986 0.94792 0.50253 0.0
C1011 C 0.79281 0.93814 0.48842 0.0
C1012 C 0.82349 0.96144 0.46782 0.0
C1013 C 0.83145 0.99468 0.46155 0.0
C1014 C 0.80874 1.00468 0.47589 0.0
C1015 C 0.7854 0.08299 0.67467 0.0
C1016 C 0.78628 0.11305 0.66259 0.0
C1017 C 0.77152 0.05575 0.64275 0.0
C1018 C 0.75792 0.0579 0.59846 0.0
C1019 C 0.75843 0.0877 0.58659 0.0
C1020 C 0.77238 0.11495 0.61832 0.0
C1021 C 0.74401 0.02937 0.56396 0.0
C1022 C 0.76502 0.01784 0.54684 0.0
C1023 C 0.71087 0.0147 0.5462 0.0
C1024 C 0.68706 0.02494 0.56434 0.0
C1025 C 0.67106 0.03578 0.53191 0.0
C1026 C 0.64898 0.04587 0.54904 0.0
C1027 C 0.64258 0.04508 0.59853 0.0
C1028 C 0.65814 0.03407 0.63099 0.0
C1029 C 0.6802 0.02392 0.61405 0.0
H1030 H 0.62552 0.05295 0.61172 0.0
H1031 H 0.84116 0.95376 0.45691 0.0
loop_
_geom_bond_atom_site_label_1
_geom_bond_atom_site_label_2
_geom_bond_distance
_geom_bond_site_symmetry_2
_ccdc_geom_bond_type
Fe0 O2 1.918 . S
Fe0 O5 1.997 . S
Fe0 O6 2.002 . S
Fe0 O11 1.976 . S
Fe0 O14 1.996 . S
Fe1 O2 1.918 . S
Fe1 O9 1.997 . S
Fe1 O12 1.996 . S
Fe1 O16 1.976 . S
Fe1 O19 2.002 . S
O2 Fe0 1.918 . S
O2 Fe1 1.918 . S
O2 Fe3 1.918 . S
Fe3 O2 1.918 . S
Fe3 O4 2.002 . S
Fe3 O13 1.976 . S
Fe3 O17 1.996 . S
Fe3 O20 1.997 . S
O4 Fe3 2.002 . S
O4 C21 1.295 . S
O5 Fe0 1.997 . S
O5 C21 1.235 . S
O6 Fe0 2.002 . S
O6 C7 1.295 . S
C7 O6 1.295 . S
C7 O9 1.235 . S
C8 O13 1.287 . S
C8 O14 1.255 . S
O9 Fe1 1.997 . S
O9 C7 1.235 . S
C10 O16 1.287 . S
C10 O17 1.255 . S
O11 Fe0 1.976 . S
O11 C18 1.287 . S
O12 Fe1 1.996 . S
O12 C18 1.255 . S
O13 Fe3 1.976 . S
O13 C8 1.287 . S
O14 Fe0 1.996 . S
O14 C8 1.255 . S
C15 O19 1.295 . S
C15 O20 1.235 . S
O16 Fe1 1.976 . S
O16 C10 1.287 . S
O17 Fe3 1.996 . S
O17 C10 1.255 . S
C18 O11 1.287 . S
C18 O12 1.255 . S
O19 Fe1 2.002 . S
O19 C15 1.295 . S
O20 Fe3 1.997 . S
O20 C15 1.235 . S
C21 O4 1.295 . S
C21 O5 1.235 . S
Fe22 O24 1.918 . S
Fe22 O27 1.997 . S
Fe22 O28 2.002 . S
Fe22 O33 1.976 . S
Fe22 O36 1.996 . S
Fe23 O24 1.918 . S
Fe23 O31 1.997 . S
Fe23 O34 1.996 . S
Fe23 O38 1.976 . S
Fe23 O41 2.002 . S
O24 Fe22 1.918 . S
O24 Fe23 1.918 . S
O24 Fe25 1.918 . S
Fe25 O24 1.918 . S
Fe25 O26 2.002 . S
Fe25 O35 1.976 . S
Fe25 O39 1.996 . S
Fe25 O42 1.997 . S
O26 Fe25 2.002 . S
O26 C43 1.295 . S
O27 Fe22 1.997 . S
O27 C43 1.235 . S
O28 Fe22 2.002 . S
O28 C29 1.295 . S
C29 O28 1.295 . S
C29 O31 1.235 . S
C30 O35 1.287 . S
C30 O36 1.255 . S
O31 Fe23 1.997 . S
O31 C29 1.235 . S
C32 O38 1.287 . S
C32 O39 1.255 . S
O33 Fe22 1.976 . S
O33 C40 1.287 . S
O34 Fe23 1.996 . S
O34 C40 1.255 . S
O35 Fe25 1.976 . S
O35 C30 1.287 . S
O36 Fe22 1.996 . S
O36 C30 1.255 . S
C37 O41 1.295 . S
C37 O42 1.235 . S
O38 Fe23 1.976 . S
O38 C32 1.287 . S
O39 Fe25 1.996 . S
O39 C32 1.255 . S
C40 O33 1.287 . S
C40 O34 1.255 . S
O41 Fe23 2.002 . S
O41 C37 1.295 . S
O42 Fe25 1.997 . S
O42 C37 1.235 . S
C43 O26 1.295 . S
C43 O27 1.235 . S
Fe44 O46 1.918 . S
Fe44 O49 1.997 . S
Fe44 O50 2.002 . S
Fe44 O55 1.976 . S
Fe44 O58 1.996 . S
Fe45 O46 1.918 . S
Fe45 O53 1.997 . S
Fe45 O56 1.996 . S
Fe45 O60 1.976 . S
Fe45 O63 2.002 . S
O46 Fe44 1.918 . S
O46 Fe45 1.918 . S
O46 Fe47 1.918 . S
Fe47 O46 1.918 . S
Fe47 O48 2.002 . S
Fe47 O57 1.976 . S
Fe47 O61 1.996 . S
Fe47 O64 1.997 . S
O48 Fe47 2.002 . S
O48 C65 1.295 . S
O49 Fe44 1.997 . S
O49 C65 1.235 . S
O50 Fe44 2.002 . S
O50 C51 1.295 . S
C51 O50 1.295 . S
C51 O53 1.235 . S
C52 O57 1.287 . S
C52 O58 1.255 . S
O53 Fe45 1.997 . S
O53 C51 1.235 . S
C54 O60 1.287 . S
C54 O61 1.255 . S
O55 Fe44 1.976 . S
O55 C62 1.287 . S
O56 Fe45 1.996 . S
O56 C62 1.255 . S
O57 Fe47 1.976 . S
O57 C52 1.287 . S
O58 Fe44 1.996 . S
O58 C52 1.255 . S
C59 O63 1.295 . S
C59 O64 1.235 . S
O60 Fe45 1.976 . S
O60 C54 1.287 . S
O61 Fe47 1.996 . S
O61 C54 1.255 . S
C62 O55 1.287 . S
C62 O56 1.255 . S
O63 Fe45 2.002 . S
O63 C59 1.295 . S
O64 Fe47 1.997 . S
O64 C59 1.235 . S
C65 O48 1.295 . S
C65 O49 1.235 . S
Fe66 O68 1.918 . S
Fe66 O71 1.997 . S
Fe66 O72 2.002 . S
Fe66 O77 1.976 . S
Fe66 O80 1.996 . S
Fe67 O68 1.918 . S
Fe67 O75 1.997 . S
Fe67 O78 1.996 . S
Fe67 O82 1.976 . S
Fe67 O85 2.002 . S
O68 Fe66 1.918 . S
O68 Fe67 1.918 . S
O68 Fe69 1.918 . S
Fe69 O68 1.918 . S
Fe69 O70 2.002 . S
Fe69 O79 1.976 . S
Fe69 O83 1.996 . S
Fe69 O86 1.997 . S
O70 Fe69 2.002 . S
O70 C87 1.295 . S
O71 Fe66 1.997 . S
O71 C87 1.235 . S
O72 Fe66 2.002 . S
O72 C73 1.295 . S
C73 O72 1.295 . S
C73 O75 1.235 . S
C74 O79 1.287 . S
C74 O80 1.255 . S
O75 Fe67 1.997 . S
O75 C73 1.235 . S
C76 O82 1.287 . S
C76 O83 1.255 . S
O77 Fe66 1.976 . S
O77 C84 1.287 . S
O78 Fe67 1.996 . S
O78 C84 1.255 . S
O79 Fe69 1.976 . S
O79 C74 1.287 . S
O80 Fe66 1.996 . S
O80 C74 1.255 . S
C81 O85 1.295 . S
C81 O86 1.235 . S
O82 Fe67 1.976 . S
O82 C76 1.287 . S
O83 Fe69 1.996 . S
O83 C76 1.255 . S
C84 O77 1.287 . S
C84 O78 1.255 . S
O85 Fe67 2.002 . S
O85 C81 1.295 . S
O86 Fe69 1.997 . S
O86 C81 1.235 . S
C87 O70 1.295 . S
C87 O71 1.235 . S
Fe88 O90 1.918 . S
Fe88 O93 1.997 . S
Fe88 O94 2.002 . S
Fe88 O99 1.976 . S
Fe88 O102 1.996 . S
Fe89 O90 1.918 . S
Fe89 O97 1.997 . S
Fe89 O100 1.996 . S
Fe89 O104 1.976 . S
Fe89 O107 2.002 . S
O90 Fe88 1.918 . S
O90 Fe89 1.918 . S
O90 Fe91 1.918 . S
Fe91 O90 1.918 . S
Fe91 O92 2.002 . S
Fe91 O101 1.976 . S
Fe91 O105 1.996 . S
Fe91 O108 1.997 . S
O92 Fe91 2.002 . S
O92 C109 1.295 . S
O93 Fe88 1.997 . S
O93 C109 1.235 . S
O94 Fe88 2.002 . S
O94 C95 1.295 . S
C95 O94 1.295 . S
C95 O97 1.235 . S
C96 O101 1.287 . S
C96 O102 1.255 . S
O97 Fe89 1.997 . S
O97 C95 1.235 . S
C98 O104 1.287 . S
C98 O105 1.255 . S
O99 Fe88 1.976 . S
O99 C106 1.287 . S
O100 Fe89 1.996 . S
O100 C106 1.255 . S
O101 Fe91 1.976 . S
O101 C96 1.287 . S
O102 Fe88 1.996 . S
O102 C96 1.255 . S
C103 O107 1.295 . S
C103 O108 1.235 . S
O104 Fe89 1.976 . S
O104 C98 1.287 . S
O105 Fe91 1.996 . S
O105 C98 1.255 . S
C106 O99 1.287 . S
C106 O100 1.255 . S
O107 Fe89 2.002 . S
O107 C103 1.295 . S
O108 Fe91 1.997 . S
O108 C103 1.235 . S
C109 O92 1.295 . S
C109 O93 1.235 . S
Fe110 O112 1.918 . S
Fe110 O115 1.997 . S
Fe110 O116 2.002 . S
Fe110 O121 1.976 . S
Fe110 O124 1.996 . S
Fe111 O112 1.918 . S
Fe111 O119 1.997 . S
Fe111 O122 1.996 . S
Fe111 O126 1.976 . S
Fe111 O129 2.002 . S
O112 Fe110 1.918 . S
O112 Fe111 1.918 . S
O112 Fe113 1.918 . S
Fe113 O112 1.918 . S
Fe113 O114 2.002 . S
Fe113 O123 1.976 . S
Fe113 O127 1.996 . S
Fe113 O130 1.997 . S
O114 Fe113 2.002 . S
O114 C131 1.295 . S
O115 Fe110 1.997 . S
O115 C131 1.235 . S
O116 Fe110 2.002 . S
O116 C117 1.295 . S
C117 O116 1.295 . S
C117 O119 1.235 . S
C118 O123 1.287 . S
C118 O124 1.255 . S
O119 Fe111 1.997 . S
O119 C117 1.235 . S
C120 O126 1.287 . S
C120 O127 1.255 . S
O121 Fe110 1.976 . S
O121 C128 1.287 . S
O122 Fe111 1.996 . S
O122 C128 1.255 . S
O123 Fe113 1.976 . S
O123 C118 1.287 . S
O124 Fe110 1.996 . S
O124 C118 1.255 . S
C125 O129 1.295 . S
C125 O130 1.235 . S
O126 Fe111 1.976 . S
O126 C120 1.287 . S
O127 Fe113 1.996 . S
O127 C120 1.255 . S
C128 O121 1.287 . S
C128 O122 1.255 . S
O129 Fe111 2.002 . S
O129 C125 1.295 . S
O130 Fe113 1.997 . S
O130 C125 1.235 . S
C131 O114 1.295 . S
C131 O115 1.235 . S
H132 C150 0.951 . S
H133 C152 0.951 . S
H134 C154 0.950 . S
H135 C155 0.950 . S
H136 C157 0.950 . S
H137 C160 0.950 . S
H138 C161 0.950 . S
H139 C163 0.950 . S
H140 C164 0.950 . S
H141 C165 0.951 . S
H142 C167 0.951 . S
H143 C169 0.950 . S
H144 C170 0.950 . S
H145 C172 0.950 . S
H146 C175 0.950 . S
H147 C176 0.950 . S
H148 C178 0.950 . S
H149 C179 0.950 . S
C150 H132 0.951 . S
C150 C151 1.366 . S
C150 C152 1.388 . S
C151 C150 1.366 . S
C151 C155 1.385 . S
C152 H133 0.951 . S
C152 C150 1.388 . S
C152 C153 1.366 . S
C153 C152 1.366 . S
C153 C154 1.414 . S
C153 C156 1.499 . S
C154 H134 0.950 . S
C154 C153 1.414 . S
C154 C155 1.374 . S
C155 H135 0.950 . S
C155 C151 1.385 . S
C155 C154 1.374 . S
C156 C153 1.499 . S
C156 C157 1.373 . S
C156 C158 1.389 . S
C157 H136 0.950 . S
C157 C156 1.373 . S
C157 C173 1.377 . S
C158 C156 1.389 . S
C158 C159 1.524 . S
C158 C172 1.377 . S
C159 C158 1.524 . S
C159 C160 1.397 . S
C159 C164 1.363 . S
C160 H137 0.950 . S
C160 C159 1.397 . S
C160 C161 1.334 . S
C161 H138 0.950 . S
C161 C160 1.334 . S
C161 C162 1.287 . S
C162 C161 1.287 . S
C162 C163 1.524 . S
C162 H181 0.913 . S
C163 H139 0.950 . S
C163 C162 1.524 . S
C163 C164 1.415 . S
C164 H140 0.950 . S
C164 C159 1.363 . S
C164 C163 1.415 . S
C165 H141 0.951 . S
C165 C166 1.366 . S
C165 C167 1.388 . S
C166 C165 1.366 . S
C166 C170 1.385 . S
C167 H142 0.951 . S
C167 C165 1.388 . S
C167 C168 1.366 . S
C168 C167 1.366 . S
C168 C169 1.414 . S
C168 C171 1.499 . S
C169 H143 0.950 . S
C169 C168 1.414 . S
C169 C170 1.374 . S
C170 H144 0.950 . S
C170 C166 1.385 . S
C170 C169 1.374 . S
C171 C168 1.499 . S
C171 C172 1.373 . S
C171 C173 1.389 . S
C172 H145 0.950 . S
C172 C158 1.377 . S
C172 C171 1.373 . S
C173 C157 1.377 . S
C173 C171 1.389 . S
C173 C174 1.524 . S
C174 C173 1.524 . S
C174 C175 1.397 . S
C174 C179 1.363 . S
C175 H146 0.950 . S
C175 C174 1.397 . S
C175 C176 1.334 . S
C176 H147 0.950 . S
C176 C175 1.334 . S
C176 C177 1.287 . S
C177 C176 1.287 . S
C177 C178 1.524 . S
C177 H180 0.999 . S
C178 H148 0.950 . S
C178 C177 1.524 . S
C178 C179 1.415 . S
C179 H149 0.950 . S
C179 C174 1.363 . S
C179 C178 1.415 . S
H180 C177 0.999 . S
H181 C162 0.913 . S
H182 C200 0.951 . S
H183 C202 0.951 . S
H184 C204 0.950 . S
H185 C205 0.950 . S
H186 C207 0.950 . S
H187 C210 0.950 . S
H188 C211 0.950 . S
H189 C213 0.950 . S
H190 C214 0.950 . S
H191 C215 0.951 . S
H192 C217 0.951 . S
H193 C219 0.950 . S
H194 C220 0.950 . S
H195 C222 0.950 . S
H196 C225 0.950 . S
H197 C226 0.950 . S
H198 C228 0.950 . S
H199 C229 0.950 . S
C200 H182 0.951 . S
C200 C201 1.366 . S
C200 C202 1.388 . S
C201 C200 1.366 . S
C201 C205 1.385 . S
C202 H183 0.951 . S
C202 C200 1.388 . S
C202 C203 1.366 . S
C203 C202 1.366 . S
C203 C204 1.414 . S
C203 C206 1.499 . S
C204 H184 0.950 . S
C204 C203 1.414 . S
C204 C205 1.374 . S
C205 H185 0.950 . S
C205 C201 1.385 . S
C205 C204 1.374 . S
C206 C203 1.499 . S
C206 C207 1.373 . S
C206 C208 1.389 . S
C207 H186 0.950 . S
C207 C206 1.373 . S
C207 C223 1.377 . S
C208 C206 1.389 . S
C208 C209 1.524 . S
C208 C222 1.377 . S
C209 C208 1.524 . S
C209 C210 1.397 . S
C209 C214 1.363 . S
C210 H187 0.950 . S
C210 C209 1.397 . S
C210 C211 1.334 . S
C211 H188 0.950 . S
C211 C210 1.334 . S
C211 C212 1.287 . S
C212 C211 1.287 . S
C212 C213 1.524 . S
C212 H231 0.913 . S
C213 H189 0.950 . S
C213 C212 1.524 . S
C213 C214 1.415 . S
C214 H190 0.950 . S
C214 C209 1.363 . S
C214 C213 1.415 . S
C215 H191 0.951 . S
C215 C216 1.366 . S
C215 C217 1.388 . S
C216 C215 1.366 . S
C216 C220 1.385 . S
C217 H192 0.951 . S
C217 C215 1.388 . S
C217 C218 1.366 . S
C218 C217 1.366 . S
C218 C219 1.414 . S
C218 C221 1.499 . S
C219 H193 0.950 . S
C219 C218 1.414 . S
C219 C220 1.374 . S
C220 H194 0.950 . S
C220 C216 1.385 . S
C220 C219 1.374 . S
C221 C218 1.499 . S
C221 C222 1.373 . S
C221 C223 1.389 . S
C222 H195 0.950 . S
C222 C208 1.377 . S
C222 C221 1.373 . S
C223 C207 1.377 . S
C223 C221 1.389 . S
C223 C224 1.524 . S
C224 C223 1.524 . S
C224 C225 1.397 . S
C224 C229 1.363 . S
C225 H196 0.950 . S
C225 C224 1.397 . S
C225 C226 1.334 . S
C226 H197 0.950 . S
C226 C225 1.334 . S
C226 C227 1.287 . S
C227 C226 1.287 . S
C227 C228 1.524 . S
C227 H230 0.999 . S
C228 H198 0.950 . S
C228 C227 1.524 . S
C228 C229 1.415 . S
C229 H199 0.950 . S
C229 C224 1.363 . S
C229 C228 1.415 . S
H230 C227 0.999 . S
H231 C212 0.913 . S
H232 C250 0.951 . S
H233 C252 0.951 . S
H234 C254 0.950 . S
H235 C255 0.950 . S
H236 C257 0.950 . S
H237 C260 0.950 . S
H238 C261 0.950 . S
H239 C263 0.950 . S
H240 C264 0.950 . S
H241 C265 0.951 . S
H242 C267 0.951 . S
H243 C269 0.950 . S
H244 C270 0.950 . S
H245 C272 0.950 . S
H246 C275 0.950 . S
H247 C276 0.950 . S
H248 C278 0.950 . S
H249 C279 0.950 . S
C250 H232 0.951 . S
C250 C251 1.366 . S
C250 C252 1.388 . S
C251 C250 1.366 . S
C251 C255 1.385 . S
C252 H233 0.951 . S
C252 C250 1.388 . S
C252 C253 1.366 . S
C253 C252 1.366 . S
C253 C254 1.414 . S
C253 C256 1.499 . S
C254 H234 0.950 . S
C254 C253 1.414 . S
C254 C255 1.374 . S
C255 H235 0.950 . S
C255 C251 1.385 . S
C255 C254 1.374 . S
C256 C253 1.499 . S
C256 C257 1.373 . S
C256 C258 1.389 . S
C257 H236 0.950 . S
C257 C256 1.373 . S
C257 C273 1.377 . S
C258 C256 1.389 . S
C258 C259 1.524 . S
C258 C272 1.377 . S
C259 C258 1.524 . S
C259 C260 1.397 . S
C259 C264 1.363 . S
C260 H237 0.950 . S
C260 C259 1.397 . S
C260 C261 1.334 . S
C261 H238 0.950 . S
C261 C260 1.334 . S
C261 C262 1.287 . S
C262 C261 1.287 . S
C262 C263 1.524 . S
C262 H281 0.913 . S
C263 H239 0.950 . S
C263 C262 1.524 . S
C263 C264 1.415 . S
C264 H240 0.950 . S
C264 C259 1.363 . S
C264 C263 1.415 . S
C265 H241 0.951 . S
C265 C266 1.366 . S
C265 C267 1.388 . S
C266 C265 1.366 . S
C266 C270 1.385 . S
C267 H242 0.951 . S
C267 C265 1.388 . S
C267 C268 1.366 . S
C268 C267 1.366 . S
C268 C269 1.414 . S
C268 C271 1.499 . S
C269 H243 0.950 . S
C269 C268 1.414 . S
C269 C270 1.374 . S
C270 H244 0.950 . S
C270 C266 1.385 . S
C270 C269 1.374 . S
C271 C268 1.499 . S
C271 C272 1.373 . S
C271 C273 1.389 . S
C272 H245 0.950 . S
C272 C258 1.377 . S
C272 C271 1.373 . S
C273 C257 1.377 . S
C273 C271 1.389 . S
C273 C274 1.524 . S
C274 C273 1.524 . S
C274 C275 1.397 . S
C274 C279 1.363 . S
C275 H246 0.950 . S
C275 C274 1.397 . S
C275 C276 1.334 . S
C276 H247 0.950 . S
C276 C275 1.334 . S
C276 C277 1.287 . S
C277 C276 1.287 . S
C277 C278 1.524 . S
C277 H280 0.999 . S
C278 H248 0.950 . S
C278 C277 1.524 . S
C278 C279 1.415 . S
C279 H249 0.950 . S
C279 C274 1.363 . S
C279 C278 1.415 . S
H280 C277 0.999 . S
H281 C262 0.913 . S
H282 C300 0.951 . S
H283 C302 0.951 . S
H284 C304 0.950 . S
H285 C305 0.950 . S
H286 C307 0.950 . S
H287 C310 0.950 . S
H288 C311 0.950 . S
H289 C313 0.950 . S
H290 C314 0.950 . S
H291 C315 0.951 . S
H292 C317 0.951 . S
H293 C319 0.950 . S
H294 C320 0.950 . S
H295 C322 0.950 . S
H296 C325 0.950 . S
H297 C326 0.950 . S
H298 C328 0.950 . S
H299 C329 0.950 . S
C300 H282 0.951 . S
C300 C301 1.366 . S
C300 C302 1.388 . S
C301 C300 1.366 . S
C301 C305 1.385 . S
C302 H283 0.951 . S
C302 C300 1.388 . S
C302 C303 1.366 . S
C303 C302 1.366 . S
C303 C304 1.414 . S
C303 C306 1.499 . S
C304 H284 0.950 . S
C304 C303 1.414 . S
C304 C305 1.374 . S
C305 H285 0.950 . S
C305 C301 1.385 . S
C305 C304 1.374 . S
C306 C303 1.499 . S
C306 C307 1.373 . S
C306 C308 1.389 . S
C307 H286 0.950 . S
C307 C306 1.373 . S
C307 C323 1.377 . S
C308 C306 1.389 . S
C308 C309 1.524 . S
C308 C322 1.377 . S
C309 C308 1.524 . S
C309 C310 1.397 . S
C309 C314 1.363 . S
C310 H287 0.950 . S
C310 C309 1.397 . S
C310 C311 1.334 . S
C311 H288 0.950 . S
C311 C310 1.334 . S
C311 C312 1.287 . S
C312 C311 1.287 . S
C312 C313 1.524 . S
C312 H331 0.913 . S
C313 H289 0.950 . S
C313 C312 1.524 . S
C313 C314 1.415 . S
C314 H290 0.950 . S
C314 C309 1.363 . S
C314 C313 1.415 . S
C315 H291 0.951 . S
C315 C316 1.366 . S
C315 C317 1.388 . S
C316 C315 1.366 . S
C316 C320 1.385 . S
C317 H292 0.951 . S
C317 C315 1.388 . S
C317 C318 1.366 . S
C318 C317 1.366 . S
C318 C319 1.414 . S
C318 C321 1.499 . S
C319 H293 0.950 . S
C319 C318 1.414 . S
C319 C320 1.374 . S
C320 H294 0.950 . S
C320 C316 1.385 . S
C320 C319 1.374 . S
C321 C318 1.499 . S
C321 C322 1.373 . S
C321 C323 1.389 . S
C322 H295 0.950 . S
C322 C308 1.377 . S
C322 C321 1.373 . S
C323 C307 1.377 . S
C323 C321 1.389 . S
C323 C324 1.524 . S
C324 C323 1.524 . S
C324 C325 1.397 . S
C324 C329 1.363 . S
C325 H296 0.950 . S
C325 C324 1.397 . S
C325 C326 1.334 . S
C326 H297 0.950 . S
C326 C325 1.334 . S
C326 C327 1.287 . S
C327 C326 1.287 . S
C327 C328 1.524 . S
C327 H330 0.999 . S
C328 H298 0.950 . S
C328 C327 1.524 . S
C328 C329 1.415 . S
C329 H299 0.950 . S
C329 C324 1.363 . S
C329 C328 1.415 . S
H330 C327 0.999 . S
H331 C312 0.913 . S
H332 C350 0.951 . S
H333 C352 0.951 . S
H334 C354 0.950 . S
H335 C355 0.950 . S
H336 C357 0.950 . S
H337 C360 0.950 . S
H338 C361 0.950 . S
H339 C363 0.950 . S
H340 C364 0.950 . S
H341 C365 0.951 . S
H342 C367 0.951 . S
H343 C369 0.950 . S
H344 C370 0.950 . S
H345 C372 0.950 . S
H346 C375 0.950 . S
H347 C376 0.950 . S
H348 C378 0.950 . S
H349 C379 0.950 . S
C350 H332 0.951 . S
C350 C351 1.366 . S
C350 C352 1.388 . S
C351 C350 1.366 . S
C351 C355 1.385 . S
C352 H333 0.951 . S
C352 C350 1.388 . S
C352 C353 1.366 . S
C353 C352 1.366 . S
C353 C354 1.414 . S
C353 C356 1.499 . S
C354 H334 0.950 . S
C354 C353 1.414 . S
C354 C355 1.374 . S
C355 H335 0.950 . S
C355 C351 1.385 . S
C355 C354 1.374 . S
C356 C353 1.499 . S
C356 C357 1.373 . S
C356 C358 1.389 . S
C357 H336 0.950 . S
C357 C356 1.373 . S
C357 C373 1.377 . S
C358 C356 1.389 . S
C358 C359 1.524 . S
C358 C372 1.377 . S
C359 C358 1.524 . S
C359 C360 1.397 . S
C359 C364 1.363 . S
C360 H337 0.950 . S
C360 C359 1.397 . S
C360 C361 1.334 . S
C361 H338 0.950 . S
C361 C360 1.334 . S
C361 C362 1.287 . S
C362 C361 1.287 . S
C362 C363 1.524 . S
C362 H381 0.913 . S
C363 H339 0.950 . S
C363 C362 1.524 . S
C363 C364 1.415 . S
C364 H340 0.950 . S
C364 C359 1.363 . S
C364 C363 1.415 . S
C365 H341 0.951 . S
C365 C366 1.366 . S
C365 C367 1.388 . S
C366 C365 1.366 . S
C366 C370 1.385 . S
C367 H342 0.951 . S
C367 C365 1.388 . S
C367 C368 1.366 . S
C368 C367 1.366 . S
C368 C369 1.414 . S
C368 C371 1.499 . S
C369 H343 0.950 . S
C369 C368 1.414 . S
C369 C370 1.374 . S
C370 H344 0.950 . S
C370 C366 1.385 . S
C370 C369 1.374 . S
C371 C368 1.499 . S
C371 C372 1.373 . S
C371 C373 1.389 . S
C372 H345 0.950 . S
C372 C358 1.377 . S
C372 C371 1.373 . S
C373 C357 1.377 . S
C373 C371 1.389 . S
C373 C374 1.524 . S
C374 C373 1.524 . S
C374 C375 1.397 . S
C374 C379 1.363 . S
C375 H346 0.950 . S
C375 C374 1.397 . S
C375 C376 1.334 . S
C376 H347 0.950 . S
C376 C375 1.334 . S
C376 C377 1.287 . S
C377 C376 1.287 . S
C377 C378 1.524 . S
C377 H380 0.999 . S
C378 H348 0.950 . S
C378 C377 1.524 . S
C378 C379 1.415 . S
C379 H349 0.950 . S
C379 C374 1.363 . S
C379 C378 1.415 . S
H380 C377 0.999 . S
H381 C362 0.913 . S
H382 C400 0.951 . S
H383 C402 0.951 . S
H384 C404 0.950 . S
H385 C405 0.950 . S
H386 C407 0.950 . S
H387 C410 0.950 . S
H388 C411 0.950 . S
H389 C413 0.950 . S
H390 C414 0.950 . S
H391 C415 0.951 . S
H392 C417 0.951 . S
H393 C419 0.950 . S
H394 C420 0.950 . S
H395 C422 0.950 . S
H396 C425 0.950 . S
H397 C426 0.950 . S
H398 C428 0.950 . S
H399 C429 0.950 . S
C400 H382 0.951 . S
C400 C401 1.366 . S
C400 C402 1.388 . S
C401 C400 1.366 . S
C401 C405 1.385 . S
C402 H383 0.951 . S
C402 C400 1.388 . S
C402 C403 1.366 . S
C403 C402 1.366 . S
C403 C404 1.414 . S
C403 C406 1.499 . S
C404 H384 0.950 . S
C404 C403 1.414 . S
C404 C405 1.374 . S
C405 H385 0.950 . S
C405 C401 1.385 . S
C405 C404 1.374 . S
C406 C403 1.499 . S
C406 C407 1.373 . S
C406 C408 1.389 . S
C407 H386 0.950 . S
C407 C406 1.373 . S
C407 C423 1.377 . S
C408 C406 1.389 . S
C408 C409 1.524 . S
C408 C422 1.377 . S
C409 C408 1.524 . S
C409 C410 1.397 . S
C409 C414 1.363 . S
C410 H387 0.950 . S
C410 C409 1.397 . S
C410 C411 1.334 . S
C411 H388 0.950 . S
C411 C410 1.334 . S
C411 C412 1.287 . S
C412 C411 1.287 . S
C412 C413 1.524 . S
C412 H431 0.913 . S
C413 H389 0.950 . S
C413 C412 1.524 . S
C413 C414 1.415 . S
C414 H390 0.950 . S
C414 C409 1.363 . S
C414 C413 1.415 . S
C415 H391 0.951 . S
C415 C416 1.366 . S
C415 C417 1.388 . S
C416 C415 1.366 . S
C416 C420 1.385 . S
C417 H392 0.951 . S
C417 C415 1.388 . S
C417 C418 1.366 . S
C418 C417 1.366 . S
C418 C419 1.414 . S
C418 C421 1.499 . S
C419 H393 0.950 . S
C419 C418 1.414 . S
C419 C420 1.374 . S
C420 H394 0.950 . S
C420 C416 1.385 . S
C420 C419 1.374 . S
C421 C418 1.499 . S
C421 C422 1.373 . S
C421 C423 1.389 . S
C422 H395 0.950 . S
C422 C408 1.377 . S
C422 C421 1.373 . S
C423 C407 1.377 . S
C423 C421 1.389 . S
C423 C424 1.524 . S
C424 C423 1.524 . S
C424 C425 1.397 . S
C424 C429 1.363 . S
C425 H396 0.950 . S
C425 C424 1.397 . S
C425 C426 1.334 . S
C426 H397 0.950 . S
C426 C425 1.334 . S
C426 C427 1.287 . S
C427 C426 1.287 . S
C427 C428 1.524 . S
C427 H430 0.999 . S
C428 H398 0.950 . S
C428 C427 1.524 . S
C428 C429 1.415 . S
C429 H399 0.950 . S
C429 C424 1.363 . S
C429 C428 1.415 . S
H430 C427 0.999 . S
H431 C412 0.913 . S
H432 C450 0.951 . S
H433 C452 0.951 . S
H434 C454 0.950 . S
H435 C455 0.950 . S
H436 C457 0.950 . S
H437 C460 0.950 . S
H438 C461 0.950 . S
H439 C463 0.950 . S
H440 C464 0.950 . S
H441 C465 0.951 . S
H442 C467 0.951 . S
H443 C469 0.950 . S
H444 C470 0.950 . S
H445 C472 0.950 . S
H446 C475 0.950 . S
H447 C476 0.950 . S
H448 C478 0.950 . S
H449 C479 0.950 . S
C450 H432 0.951 . S
C450 C451 1.366 . S
C450 C452 1.388 . S
C451 C450 1.366 . S
C451 C455 1.385 . S
C452 H433 0.951 . S
C452 C450 1.388 . S
C452 C453 1.366 . S
C453 C452 1.366 . S
C453 C454 1.414 . S
C453 C456 1.499 . S
C454 H434 0.950 . S
C454 C453 1.414 . S
C454 C455 1.374 . S
C455 H435 0.950 . S
C455 C451 1.385 . S
C455 C454 1.374 . S
C456 C453 1.499 . S
C456 C457 1.373 . S
C456 C458 1.389 1_556 S
C457 H436 0.950 . S
C457 C456 1.373 . S
C457 C473 1.377 . S
C458 C456 1.389 1_554 S
C458 C459 1.524 . S
C458 C472 1.377 . S
C459 C458 1.524 . S
C459 C460 1.397 . S
C459 C464 1.363 . S
C460 H437 0.950 . S
C460 C459 1.397 . S
C460 C461 1.334 . S
C461 H438 0.950 . S
C461 C460 1.334 . S
C461 C462 1.287 . S
C462 C461 1.287 . S
C462 C463 1.524 . S
C462 H481 0.913 . S
C463 H439 0.950 . S
C463 C462 1.524 . S
C463 C464 1.415 . S
C464 H440 0.950 . S
C464 C459 1.363 . S
C464 C463 1.415 . S
C465 H441 0.951 . S
C465 C466 1.366 . S
C465 C467 1.388 . S
C466 C465 1.366 . S
C466 C470 1.385 . S
C467 H442 0.951 . S
C467 C465 1.388 . S
C467 C468 1.366 . S
C468 C467 1.366 . S
C468 C469 1.414 . S
C468 C471 1.499 . S
C469 H443 0.950 . S
C469 C468 1.414 . S
C469 C470 1.374 . S
C470 H444 0.950 . S
C470 C466 1.385 . S
C470 C469 1.374 . S
C471 C468 1.499 . S
C471 C472 1.373 . S
C471 C473 1.389 1_554 S
C472 H445 0.950 . S
C472 C458 1.377 . S
C472 C471 1.373 . S
C473 C457 1.377 . S
C473 C471 1.389 1_556 S
C473 C474 1.524 . S
C474 C473 1.524 . S
C474 C475 1.397 . S
C474 C479 1.363 . S
C475 H446 0.950 . S
C475 C474 1.397 . S
C475 C476 1.334 . S
C476 H447 0.950 . S
C476 C475 1.334 . S
C476 C477 1.287 . S
C477 C476 1.287 . S
C477 C478 1.524 . S
C477 H480 0.999 . S
C478 H448 0.950 . S
C478 C477 1.524 . S
C478 C479 1.415 . S
C479 H449 0.950 . S
C479 C474 1.363 . S
C479 C478 1.415 . S
H480 C477 0.999 . S
H481 C462 0.913 . S
H482 C500 0.951 . S
H483 C502 0.951 . S
H484 C504 0.950 . S
H485 C505 0.950 . S
H486 C507 0.950 . S
H487 C510 0.950 . S
H488 C511 0.950 . S
H489 C513 0.950 . S
H490 C514 0.950 1_455 S
H491 C515 0.951 . S
H492 C517 0.951 . S
H493 C519 0.950 . S
H494 C520 0.950 . S
H495 C522 0.950 . S
H496 C525 0.950 . S
H497 C526 0.950 . S
H498 C528 0.950 . S
H499 C529 0.950 1_655 S
C500 H482 0.951 . S
C500 C501 1.366 . S
C500 C502 1.388 . S
C501 C500 1.366 . S
C501 C505 1.385 . S
C502 H483 0.951 . S
C502 C500 1.388 . S
C502 C503 1.366 . S
C503 C502 1.366 . S
C503 C504 1.414 . S
C503 C506 1.499 . S
C504 H484 0.950 . S
C504 C503 1.414 . S
C504 C505 1.374 . S
C505 H485 0.950 . S
C505 C501 1.385 . S
C505 C504 1.374 . S
C506 C503 1.499 . S
C506 C507 1.373 . S
C506 C508 1.389 . S
C507 H486 0.950 . S
C507 C506 1.373 . S
C507 C523 1.377 1_655 S
C508 C506 1.389 . S
C508 C509 1.524 . S
C508 C522 1.377 1_655 S
C509 C508 1.524 . S
C509 C510 1.397 . S
C509 C514 1.363 . S
C510 H487 0.950 . S
C510 C509 1.397 . S
C510 C511 1.334 . S
C511 H488 0.950 . S
C511 C510 1.334 . S
C511 C512 1.287 . S
C512 C511 1.287 . S
C512 C513 1.524 . S
C512 H531 0.913 . S
C513 H489 0.950 . S
C513 C512 1.524 . S
C513 C514 1.415 . S
C514 H490 0.950 1_655 S
C514 C509 1.363 . S
C514 C513 1.415 . S
C515 H491 0.951 . S
C515 C516 1.366 . S
C515 C517 1.388 . S
C516 C515 1.366 . S
C516 C520 1.385 . S
C517 H492 0.951 . S
C517 C515 1.388 . S
C517 C518 1.366 . S
C518 C517 1.366 . S
C518 C519 1.414 . S
C518 C521 1.499 . S
C519 H493 0.950 . S
C519 C518 1.414 . S
C519 C520 1.374 . S
C520 H494 0.950 . S
C520 C516 1.385 . S
C520 C519 1.374 . S
C521 C518 1.499 . S
C521 C522 1.373 . S
C521 C523 1.389 . S
C522 H495 0.950 . S
C522 C508 1.377 1_455 S
C522 C521 1.373 . S
C523 C507 1.377 1_455 S
C523 C521 1.389 . S
C523 C524 1.524 . S
C524 C523 1.524 . S
C524 C525 1.397 . S
C524 C529 1.363 . S
C525 H496 0.950 . S
C525 C524 1.397 . S
C525 C526 1.334 . S
C526 H497 0.950 . S
C526 C525 1.334 . S
C526 C527 1.287 . S
C527 C526 1.287 . S
C527 C528 1.524 . S
C527 H530 0.999 . S
C528 H498 0.950 . S
C528 C527 1.524 . S
C528 C529 1.415 . S
C529 H499 0.950 1_455 S
C529 C524 1.363 . S
C529 C528 1.415 . S
H530 C527 0.999 . S
H531 C512 0.913 . S
H532 C550 0.951 . S
H533 C552 0.951 . S
H534 C554 0.950 . S
H535 C555 0.950 . S
H536 C557 0.950 . S
H537 C560 0.950 . S
H538 C561 0.950 . S
H539 C563 0.950 . S
H540 C564 0.950 . S
H541 C565 0.951 . S
H542 C567 0.951 . S
H543 C569 0.950 . S
H544 C570 0.950 . S
H545 C572 0.950 . S
H546 C575 0.941 . S
H547 C576 0.950 . S
H548 C578 0.950 . S
H549 C579 0.950 . S
C550 H532 0.951 . S
C550 C551 1.366 . S
C550 C552 1.388 . S
C551 C550 1.366 . S
C551 C555 1.385 . S
C552 H533 0.951 . S
C552 C550 1.388 . S
C552 C553 1.366 . S
C553 C552 1.366 . S
C553 C554 1.414 . S
C553 C556 1.499 . S
C554 H534 0.950 . S
C554 C553 1.414 . S
C554 C555 1.374 . S
C555 H535 0.950 . S
C555 C551 1.385 . S
C555 C554 1.374 . S
C556 C553 1.499 . S
C556 C557 1.373 . S
C556 C558 1.389 . S
C557 H536 0.950 . S
C557 C556 1.373 . S
C557 C573 1.377 1_546 S
C558 C556 1.389 . S
C558 C559 1.524 . S
C558 C572 1.377 1_546 S
C559 C558 1.524 . S
C559 C560 1.397 1_545 S
C559 C564 1.363 . S
C560 H537 0.950 . S
C560 C559 1.397 1_565 S
C560 C561 1.334 . S
C561 H538 0.950 . S
C561 C560 1.334 . S
C561 C562 1.287 . S
C562 C561 1.287 . S
C562 C563 1.524 1_565 S
C562 H581 0.913 . S
C563 H539 0.950 . S
C563 C562 1.524 1_545 S
C563 C564 1.415 . S
C564 H540 0.950 . S
C564 C559 1.363 . S
C564 C563 1.415 . S
C565 H541 0.951 . S
C565 C566 1.366 . S
C565 C567 1.388 . S
C566 C565 1.366 . S
C566 C570 1.385 . S
C567 H542 0.951 . S
C567 C565 1.388 . S
C567 C568 1.366 . S
C568 C567 1.366 . S
C568 C569 1.414 . S
C568 C571 1.499 . S
C569 H543 0.950 . S
C569 C568 1.414 . S
C569 C570 1.374 . S
C570 H544 0.950 . S
C570 C566 1.385 . S
C570 C569 1.374 . S
C571 C568 1.499 . S
C571 C572 1.373 . S
C571 C573 1.389 . S
C572 H545 0.950 . S
C572 C558 1.377 1_564 S
C572 C571 1.373 . S
C573 C557 1.377 1_564 S
C573 C571 1.389 . S
C573 C574 1.524 . S
C574 C573 1.524 . S
C574 C575 1.397 1_565 S
C574 C579 1.363 . S
C575 H546 0.941 . S
C575 C574 1.397 1_545 S
C575 C576 1.343 . S
C576 H547 0.950 . S
C576 C575 1.343 . S
C576 C577 1.287 . S
C577 C576 1.287 . S
C577 C578 1.524 1_545 S
C577 H580 0.999 . S
C578 H548 0.950 . S
C578 C577 1.524 1_565 S
C578 C579 1.415 . S
C579 H549 0.950 . S
C579 C574 1.363 . S
C579 C578 1.415 . S
H580 C577 0.999 . S
H581 C562 0.913 . S
H582 C600 0.951 . S
H583 C602 0.951 . S
H584 C604 0.950 . S
H585 C605 0.950 . S
H586 C607 0.950 . S
H587 C610 0.950 . S
H588 C611 0.950 . S
H589 C613 0.950 . S
H590 C614 0.950 . S
H591 C615 0.951 . S
H592 C617 0.951 . S
H593 C619 0.950 . S
H594 C620 0.950 . S
H595 C622 0.950 . S
H596 C625 0.950 . S
H597 C626 0.950 . S
H598 C628 0.950 . S
H599 C629 0.950 . S
C600 H582 0.951 . S
C600 C601 1.366 . S
C600 C602 1.388 . S
C601 C600 1.366 . S
C601 C605 1.385 . S
C602 H583 0.951 . S
C602 C600 1.388 . S
C602 C603 1.366 . S
C603 C602 1.366 . S
C603 C604 1.414 . S
C603 C606 1.499 . S
C604 H584 0.950 . S
C604 C603 1.414 . S
C604 C605 1.374 . S
C605 H585 0.950 . S
C605 C601 1.385 . S
C605 C604 1.374 . S
C606 C603 1.499 . S
C606 C607 1.373 . S
C606 C608 1.389 . S
C607 H586 0.950 . S
C607 C606 1.373 . S
C607 C623 1.377 . S
C608 C606 1.389 . S
C608 C609 1.524 . S
C608 C622 1.377 . S
C609 C608 1.524 . S
C609 C610 1.397 . S
C609 C614 1.363 . S
C610 H587 0.950 . S
C610 C609 1.397 . S
C610 C611 1.334 . S
C611 H588 0.950 . S
C611 C610 1.334 . S
C611 C612 1.287 . S
C612 C611 1.287 . S
C612 C613 1.524 . S
C612 H631 0.913 . S
C613 H589 0.950 . S
C613 C612 1.524 . S
C613 C614 1.415 . S
C614 H590 0.950 . S
C614 C609 1.363 . S
C614 C613 1.415 . S
C615 H591 0.951 . S
C615 C616 1.366 . S
C615 C617 1.388 . S
C616 C615 1.366 . S
C616 C620 1.385 . S
C617 H592 0.951 . S
C617 C615 1.388 . S
C617 C618 1.366 . S
C618 C617 1.366 . S
C618 C619 1.414 . S
C618 C621 1.499 . S
C619 H593 0.950 . S
C619 C618 1.414 . S
C619 C620 1.374 . S
C620 H594 0.950 . S
C620 C616 1.385 . S
C620 C619 1.374 . S
C621 C618 1.499 . S
C621 C622 1.373 . S
C621 C623 1.389 . S
C622 H595 0.950 . S
C622 C608 1.377 . S
C622 C621 1.373 . S
C623 C607 1.377 . S
C623 C621 1.389 . S
C623 C624 1.524 . S
C624 C623 1.524 . S
C624 C625 1.397 . S
C624 C629 1.363 . S
C625 H596 0.950 . S
C625 C624 1.397 . S
C625 C626 1.334 . S
C626 H597 0.950 . S
C626 C625 1.334 . S
C626 C627 1.287 . S
C627 C626 1.287 . S
C627 C628 1.524 . S
C627 H630 0.999 . S
C628 H598 0.950 . S
C628 C627 1.524 . S
C628 C629 1.415 . S
C629 H599 0.950 . S
C629 C624 1.363 . S
C629 C628 1.415 . S
H630 C627 0.999 . S
H631 C612 0.913 . S
H632 C650 0.951 . S
H633 C652 0.951 . S
H634 C654 0.950 . S
H635 C655 0.950 . S
H636 C657 0.950 . S
H637 C660 0.950 . S
H638 C661 0.950 . S
H639 C663 0.950 . S
H640 C664 0.950 . S
H641 C665 0.951 . S
H642 C667 0.951 . S
H643 C669 0.950 . S
H644 C670 0.950 . S
H645 C672 0.950 . S
H646 C675 0.950 . S
H647 C676 0.950 . S
H648 C678 0.950 . S
H649 C679 0.950 . S
C650 H632 0.951 . S
C650 C651 1.366 . S
C650 C652 1.388 . S
C651 C650 1.366 . S
C651 C655 1.385 . S
C652 H633 0.951 . S
C652 C650 1.388 . S
C652 C653 1.366 . S
C653 C652 1.366 . S
C653 C654 1.414 . S
C653 C656 1.499 . S
C654 H634 0.950 . S
C654 C653 1.414 . S
C654 C655 1.374 . S
C655 H635 0.950 . S
C655 C651 1.385 . S
C655 C654 1.374 . S
C656 C653 1.499 . S
C656 C657 1.373 . S
C656 C658 1.389 . S
C657 H636 0.950 . S
C657 C656 1.373 . S
C657 C673 1.377 1_656 S
C658 C656 1.389 . S
C658 C659 1.524 . S
C658 C672 1.377 1_656 S
C659 C658 1.524 . S
C659 C660 1.397 . S
C659 C664 1.363 1_556 S
C660 H637 0.950 . S
C660 C659 1.397 . S
C660 C661 1.334 . S
C661 H638 0.950 . S
C661 C660 1.334 . S
C661 C662 1.287 . S
C662 C661 1.287 . S
C662 C663 1.524 1_556 S
C662 H681 0.913 . S
C663 H639 0.950 . S
C663 C662 1.524 1_554 S
C663 C664 1.415 . S
C664 H640 0.950 . S
C664 C659 1.363 1_554 S
C664 C663 1.415 . S
C665 H641 0.951 . S
C665 C666 1.366 . S
C665 C667 1.388 . S
C666 C665 1.366 . S
C666 C670 1.385 . S
C667 H642 0.951 . S
C667 C665 1.388 . S
C667 C668 1.366 . S
C668 C667 1.366 . S
C668 C669 1.414 . S
C668 C671 1.499 . S
C669 H643 0.950 . S
C669 C668 1.414 . S
C669 C670 1.374 . S
C670 H644 0.950 . S
C670 C666 1.385 . S
C670 C669 1.374 . S
C671 C668 1.499 . S
C671 C672 1.373 . S
C671 C673 1.389 . S
C672 H645 0.950 . S
C672 C658 1.377 1_454 S
C672 C671 1.373 . S
C673 C657 1.377 1_454 S
C673 C671 1.389 . S
C673 C674 1.524 . S
C674 C673 1.524 . S
C674 C675 1.397 . S
C674 C679 1.363 1_554 S
C675 H646 0.950 . S
C675 C674 1.397 . S
C675 C676 1.334 . S
C676 H647 0.950 . S
C676 C675 1.334 . S
C676 C677 1.287 . S
C677 C676 1.287 . S
C677 C678 1.524 1_554 S
C677 H680 0.999 . S
C678 H648 0.950 . S
C678 C677 1.524 1_556 S
C678 C679 1.415 . S
C679 H649 0.950 . S
C679 C674 1.363 1_556 S
C679 C678 1.415 . S
H680 C677 0.999 . S
H681 C662 0.913 . S
H682 C700 0.951 . S
H683 C702 0.951 . S
H684 C704 0.950 . S
H685 C705 0.950 . S
H686 C707 0.950 . S
H687 C710 0.950 1_565 S
H688 C711 0.950 1_565 S
H689 C713 0.950 . S
H690 C714 0.950 . S
H691 C715 0.951 . S
H692 C717 0.951 . S
H693 C719 0.950 . S
H694 C720 0.950 . S
H695 C722 0.950 . S
H696 C725 0.928 1_545 S
H697 C726 0.946 1_545 S
H698 C728 0.950 . S
H699 C729 0.950 . S
C700 H682 0.951 . S
C700 C701 1.366 . S
C700 C702 1.388 . S
C701 C700 1.366 . S
C701 C705 1.385 . S
C702 H683 0.951 . S
C702 C700 1.388 . S
C702 C703 1.366 . S
C703 C702 1.366 . S
C703 C704 1.414 . S
C703 C706 1.499 . S
C704 H684 0.950 . S
C704 C703 1.414 . S
C704 C705 1.374 . S
C705 H685 0.950 . S
C705 C701 1.385 . S
C705 C704 1.374 . S
C706 C703 1.499 . S
C706 C707 1.373 . S
C706 C708 1.389 . S
C707 H686 0.950 . S
C707 C706 1.373 . S
C707 C723 1.377 1_545 S
C708 C706 1.389 . S
C708 C709 1.524 . S
C708 C722 1.377 1_545 S
C709 C708 1.524 . S
C709 C710 1.397 . S
C709 C714 1.363 . S
C710 H687 0.950 1_545 S
C710 C709 1.397 . S
C710 C711 1.334 . S
C711 H688 0.950 1_545 S
C711 C710 1.334 . S
C711 C712 1.287 . S
C712 C711 1.287 . S
C712 C713 1.524 . S
C712 H731 0.913 . S
C713 H689 0.950 . S
C713 C712 1.524 . S
C713 C714 1.415 . S
C714 H690 0.950 . S
C714 C709 1.363 . S
C714 C713 1.415 . S
C715 H691 0.951 . S
C715 C716 1.366 . S
C715 C717 1.388 . S
C716 C715 1.366 . S
C716 C720 1.385 . S
C717 H692 0.951 . S
C717 C715 1.388 . S
C717 C718 1.366 . S
C718 C717 1.366 . S
C718 C719 1.414 . S
C718 C721 1.499 . S
C719 H693 0.950 . S
C719 C718 1.414 . S
C719 C720 1.374 . S
C720 H694 0.950 . S
C720 C716 1.385 . S
C720 C719 1.374 . S
C721 C718 1.499 . S
C721 C722 1.373 . S
C721 C723 1.389 . S
C722 H695 0.950 . S
C722 C708 1.377 1_565 S
C722 C721 1.373 . S
C723 C707 1.377 1_565 S
C723 C721 1.389 . S
C723 C724 1.524 . S
C724 C723 1.524 . S
C724 C725 1.404 . S
C724 C729 1.363 . S
C725 H696 0.928 1_565 S
C725 C724 1.404 . S
C725 C726 1.341 . S
C726 H697 0.946 1_565 S
C726 C725 1.341 . S
C726 C727 1.298 . S
C727 C726 1.298 . S
C727 C728 1.524 . S
C727 H730 0.999 . S
C728 H698 0.950 . S
C728 C727 1.524 . S
C728 C729 1.415 . S
C729 H699 0.950 . S
C729 C724 1.363 . S
C729 C728 1.415 . S
H730 C727 0.999 . S
H731 C712 0.913 . S
H732 C750 0.951 . S
H733 C752 0.951 . S
H734 C754 0.950 . S
H735 C755 0.950 . S
H736 C757 0.950 . S
H737 C760 0.950 . S
H738 C761 0.950 . S
H739 C763 0.950 . S
H740 C764 0.950 . S
H741 C765 0.951 . S
H742 C767 0.951 . S
H743 C769 0.950 . S
H744 C770 0.950 . S
H745 C772 0.950 . S
H746 C775 0.950 . S
H747 C776 0.950 . S
H748 C778 0.950 . S
H749 C779 0.950 . S
C750 H732 0.951 . S
C750 C751 1.366 . S
C750 C752 1.388 . S
C751 C750 1.366 . S
C751 C755 1.385 . S
C752 H733 0.951 . S
C752 C750 1.388 . S
C752 C753 1.366 . S
C753 C752 1.366 . S
C753 C754 1.414 . S
C753 C756 1.499 . S
C754 H734 0.950 . S
C754 C753 1.414 . S
C754 C755 1.374 . S
C755 H735 0.950 . S
C755 C751 1.385 . S
C755 C754 1.374 . S
C756 C753 1.499 . S
C756 C757 1.373 . S
C756 C758 1.381 1_554 S
C757 H736 0.950 . S
C757 C756 1.373 . S
C757 C773 1.385 . S
C758 C756 1.381 1_556 S
C758 C759 1.526 . S
C758 C772 1.385 . S
C759 C758 1.526 . S
C759 C760 1.397 . S
C759 C764 1.363 . S
C760 H737 0.950 . S
C760 C759 1.397 . S
C760 C761 1.334 . S
C761 H738 0.950 . S
C761 C760 1.334 . S
C761 C762 1.287 . S
C762 C761 1.287 . S
C762 C763 1.524 . S
C762 H781 0.913 . S
C763 H739 0.950 . S
C763 C762 1.524 . S
C763 C764 1.415 . S
C764 H740 0.950 . S
C764 C759 1.363 . S
C764 C763 1.415 . S
C765 H741 0.951 . S
C765 C766 1.366 . S
C765 C767 1.388 . S
C766 C765 1.366 . S
C766 C770 1.385 . S
C767 H742 0.951 . S
C767 C765 1.388 . S
C767 C768 1.366 . S
C768 C767 1.366 . S
C768 C769 1.414 . S
C768 C771 1.499 . S
C769 H743 0.950 . S
C769 C768 1.414 . S
C769 C770 1.374 . S
C770 H744 0.950 . S
C770 C766 1.385 . S
C770 C769 1.374 . S
C771 C768 1.499 . S
C771 C772 1.373 . S
C771 C773 1.381 1_556 S
C772 H745 0.950 . S
C772 C758 1.385 . S
C772 C771 1.373 . S
C773 C757 1.385 . S
C773 C771 1.381 1_554 S
C773 C774 1.526 . S
C774 C773 1.526 . S
C774 C775 1.397 . S
C774 C779 1.363 . S
C775 H746 0.950 . S
C775 C774 1.397 . S
C775 C776 1.334 . S
C776 H747 0.950 . S
C776 C775 1.334 . S
C776 C777 1.287 . S
C777 C776 1.287 . S
C777 C778 1.524 . S
C777 H780 0.999 . S
C778 H748 0.950 . S
C778 C777 1.524 . S
C778 C779 1.415 . S
C779 H749 0.950 . S
C779 C774 1.363 . S
C779 C778 1.415 . S
H780 C777 0.999 . S
H781 C762 0.913 . S
H782 C800 0.951 . S
H783 C802 0.951 . S
H784 C804 0.950 . S
H785 C805 0.950 . S
H786 C807 0.950 . S
H787 C810 0.950 1_655 S
H788 C811 0.950 . S
H789 C813 0.950 . S
H790 C814 0.950 . S
H791 C815 0.951 . S
H792 C817 0.951 . S
H793 C819 0.950 . S
H794 C820 0.950 . S
H795 C822 0.950 . S
H796 C825 0.950 1_455 S
H797 C826 0.950 . S
H798 C828 0.950 . S
H799 C829 0.950 . S
C800 H782 0.951 . S
C800 C801 1.366 . S
C800 C802 1.388 . S
C801 C800 1.366 . S
C801 C805 1.385 . S
C802 H783 0.951 . S
C802 C800 1.388 . S
C802 C803 1.366 . S
C803 C802 1.366 . S
C803 C804 1.414 . S
C803 C806 1.499 . S
C804 H784 0.950 . S
C804 C803 1.414 . S
C804 C805 1.374 . S
C805 H785 0.950 . S
C805 C801 1.385 . S
C805 C804 1.374 . S
C806 C803 1.499 . S
C806 C807 1.373 . S
C806 C808 1.389 1_655 S
C807 H786 0.950 . S
C807 C806 1.373 . S
C807 C823 1.377 . S
C808 C806 1.389 1_455 S
C808 C809 1.524 . S
C808 C822 1.377 . S
C809 C808 1.524 . S
C809 C810 1.397 . S
C809 C814 1.363 . S
C810 H787 0.950 1_455 S
C810 C809 1.397 . S
C810 C811 1.334 . S
C811 H788 0.950 . S
C811 C810 1.334 . S
C811 C812 1.287 . S
C812 C811 1.287 . S
C812 C813 1.524 . S
C812 H831 0.913 . S
C813 H789 0.950 . S
C813 C812 1.524 . S
C813 C814 1.415 . S
C814 H790 0.950 . S
C814 C809 1.363 . S
C814 C813 1.415 . S
C815 H791 0.951 . S
C815 C816 1.366 . S
C815 C817 1.388 . S
C816 C815 1.366 . S
C816 C820 1.385 . S
C817 H792 0.951 . S
C817 C815 1.388 . S
C817 C818 1.366 . S
C818 C817 1.366 . S
C818 C819 1.414 . S
C818 C821 1.499 . S
C819 H793 0.950 . S
C819 C818 1.414 . S
C819 C820 1.374 . S
C820 H794 0.950 . S
C820 C816 1.385 . S
C820 C819 1.374 . S
C821 C818 1.499 . S
C821 C822 1.373 . S
C821 C823 1.389 1_455 S
C822 H795 0.950 . S
C822 C808 1.377 . S
C822 C821 1.373 . S
C823 C807 1.377 . S
C823 C821 1.389 1_655 S
C823 C824 1.524 . S
C824 C823 1.524 . S
C824 C825 1.397 . S
C824 C829 1.363 . S
C825 H796 0.950 1_655 S
C825 C824 1.397 . S
C825 C826 1.334 . S
C826 H797 0.950 . S
C826 C825 1.334 . S
C826 C827 1.287 . S
C827 C826 1.287 . S
C827 C828 1.524 . S
C827 H830 0.999 . S
C828 H798 0.950 . S
C828 C827 1.524 . S
C828 C829 1.415 . S
C829 H799 0.950 . S
C829 C824 1.363 . S
C829 C828 1.415 . S
H830 C827 0.999 . S
H831 C812 0.913 . S
H832 C850 0.951 . S
H833 C852 0.951 . S
H834 C854 0.950 . S
H835 C855 0.950 . S
H836 C857 0.950 . S
H837 C860 0.950 . S
H838 C861 0.950 . S
H839 C863 0.962 . S
H840 C864 0.956 . S
H841 C865 0.951 . S
H842 C867 0.951 . S
H843 C869 0.950 . S
H844 C870 0.950 . S
H845 C872 0.950 . S
H846 C875 0.950 . S
H847 C876 0.950 . S
H848 C878 0.932 . S
H849 C879 0.950 . S
C850 H832 0.951 . S
C850 C851 1.366 . S
C850 C852 1.388 . S
C851 C850 1.366 . S
C851 C855 1.385 . S
C852 H833 0.951 . S
C852 C850 1.388 . S
C852 C853 1.366 . S
C853 C852 1.366 . S
C853 C854 1.414 . S
C853 C856 1.499 . S
C854 H834 0.950 . S
C854 C853 1.414 . S
C854 C855 1.374 . S
C855 H835 0.950 . S
C855 C851 1.385 . S
C855 C854 1.374 . S
C856 C853 1.499 . S
C856 C857 1.373 . S
C856 C858 1.389 . S
C857 H836 0.950 . S
C857 C856 1.373 . S
C857 C873 1.377 1_564 S
C858 C856 1.389 . S
C858 C859 1.524 . S
C858 C872 1.377 1_564 S
C859 C858 1.524 . S
C859 C860 1.397 1_565 S
C859 C864 1.345 . S
C860 H837 0.950 . S
C860 C859 1.397 1_545 S
C860 C861 1.334 . S
C861 H838 0.950 . S
C861 C860 1.334 . S
C861 C862 1.287 . S
C862 C861 1.287 . S
C862 C863 1.524 . S
C862 H881 0.913 . S
C863 H839 0.962 . S
C863 C862 1.524 . S
C863 C864 1.429 1_545 S
C864 H840 0.956 . S
C864 C859 1.345 . S
C864 C863 1.429 1_565 S
C865 H841 0.951 . S
C865 C866 1.366 . S
C865 C867 1.388 . S
C866 C865 1.366 . S
C866 C870 1.385 . S
C867 H842 0.951 . S
C867 C865 1.388 . S
C867 C868 1.366 . S
C868 C867 1.366 . S
C868 C869 1.414 . S
C868 C871 1.499 . S
C869 H843 0.950 . S
C869 C868 1.414 . S
C869 C870 1.374 . S
C870 H844 0.950 . S
C870 C866 1.385 . S
C870 C869 1.374 . S
C871 C868 1.499 . S
C871 C872 1.373 . S
C871 C873 1.389 . S
C872 H845 0.950 . S
C872 C858 1.377 1_546 S
C872 C871 1.373 . S
C873 C857 1.377 1_546 S
C873 C871 1.389 . S
C873 C874 1.524 . S
C874 C873 1.524 . S
C874 C875 1.397 1_545 S
C874 C879 1.363 . S
C875 H846 0.950 . S
C875 C874 1.397 1_565 S
C875 C876 1.334 . S
C876 H847 0.950 . S
C876 C875 1.334 . S
C876 C877 1.287 . S
C877 C876 1.287 . S
C877 C878 1.534 . S
C877 H880 0.999 . S
C878 H848 0.932 . S
C878 C877 1.534 . S
C878 C879 1.428 1_565 S
C879 H849 0.950 . S
C879 C874 1.363 . S
C879 C878 1.428 1_545 S
H880 C877 0.999 . S
H881 C862 0.913 . S
H882 C900 0.951 . S
H883 C902 0.951 . S
H884 C904 0.950 . S
H885 C905 0.950 . S
H886 C907 0.950 . S
H887 C910 0.950 . S
H888 C911 0.950 . S
H889 C913 0.950 . S
H890 C914 0.950 . S
H891 C915 0.951 . S
H892 C917 0.951 . S
H893 C919 0.950 . S
H894 C920 0.950 . S
H895 C922 0.950 . S
H896 C925 0.950 . S
H897 C926 0.950 . S
H898 C928 0.950 . S
H899 C929 0.950 . S
C900 H882 0.951 . S
C900 C901 1.366 . S
C900 C902 1.388 . S
C901 C900 1.366 . S
C901 C905 1.385 . S
C902 H883 0.951 . S
C902 C900 1.388 . S
C902 C903 1.366 . S
C903 C902 1.366 . S
C903 C904 1.414 . S
C903 C906 1.499 . S
C904 H884 0.950 . S
C904 C903 1.414 . S
C904 C905 1.374 . S
C905 H885 0.950 . S
C905 C901 1.385 . S
C905 C904 1.374 . S
C906 C903 1.499 . S
C906 C907 1.373 . S
C906 C908 1.389 . S
C907 H886 0.950 . S
C907 C906 1.373 . S
C907 C923 1.377 . S
C908 C906 1.389 . S
C908 C909 1.524 . S
C908 C922 1.377 . S
C909 C908 1.524 . S
C909 C910 1.397 . S
C909 C914 1.363 . S
C910 H887 0.950 . S
C910 C909 1.397 . S
C910 C911 1.334 . S
C911 H888 0.950 . S
C911 C910 1.334 . S
C911 C912 1.287 . S
C912 C911 1.287 . S
C912 C913 1.524 . S
C912 H931 0.913 . S
C913 H889 0.950 . S
C913 C912 1.524 . S
C913 C914 1.415 . S
C914 H890 0.950 . S
C914 C909 1.363 . S
C914 C913 1.415 . S
C915 H891 0.951 . S
C915 C916 1.366 . S
C915 C917 1.388 . S
C916 C915 1.366 . S
C916 C920 1.385 . S
C917 H892 0.951 . S
C917 C915 1.388 . S
C917 C918 1.366 . S
C918 C917 1.366 . S
C918 C919 1.414 . S
C918 C921 1.499 . S
C919 H893 0.950 . S
C919 C918 1.414 . S
C919 C920 1.374 . S
C920 H894 0.950 . S
C920 C916 1.385 . S
C920 C919 1.374 . S
C921 C918 1.499 . S
C921 C922 1.373 . S
C921 C923 1.389 . S
C922 H895 0.950 . S
C922 C908 1.377 . S
C922 C921 1.373 . S
C923 C907 1.377 . S
C923 C921 1.389 . S
C923 C924 1.524 . S
C924 C923 1.524 . S
C924 C925 1.397 . S
C924 C929 1.363 . S
C925 H896 0.950 . S
C925 C924 1.397 . S
C925 C926 1.334 . S
C926 H897 0.950 . S
C926 C925 1.334 . S
C926 C927 1.287 . S
C927 C926 1.287 . S
C927 C928 1.524 . S
C927 H930 0.999 . S
C928 H898 0.950 . S
C928 C927 1.524 . S
C928 C929 1.415 . S
C929 H899 0.950 . S
C929 C924 1.363 . S
C929 C928 1.415 . S
H930 C927 0.999 . S
H931 C912 0.913 . S
H932 C950 0.951 . S
H933 C952 0.951 . S
H934 C954 0.950 . S
H935 C955 0.950 . S
H936 C957 0.950 . S
H937 C960 0.950 . S
H938 C961 0.950 . S
H939 C963 0.950 . S
H940 C964 0.950 . S
H941 C965 0.951 . S
H942 C967 0.951 . S
H943 C969 0.950 . S
H944 C970 0.950 . S
H945 C972 0.957 . S
H946 C975 0.950 . S
H947 C976 0.950 . S
H948 C978 0.950 . S
H949 C979 0.950 . S
C950 H932 0.951 . S
C950 C951 1.366 . S
C950 C952 1.388 . S
C951 C950 1.366 . S
C951 C955 1.385 . S
C952 H933 0.951 . S
C952 C950 1.388 . S
C952 C953 1.366 . S
C953 C952 1.366 . S
C953 C954 1.414 . S
C953 C956 1.499 . S
C954 H934 0.950 . S
C954 C953 1.414 . S
C954 C955 1.374 . S
C955 H935 0.950 . S
C955 C951 1.385 . S
C955 C954 1.374 . S
C956 C953 1.499 . S
C956 C957 1.373 . S
C956 C958 1.389 1_556 S
C957 H936 0.950 . S
C957 C956 1.373 . S
C957 C973 1.377 1_655 S
C958 C956 1.389 1_554 S
C958 C959 1.524 . S
C958 C972 1.364 1_655 S
C959 C958 1.524 . S
C959 C960 1.397 . S
C959 C964 1.363 . S
C960 H937 0.950 . S
C960 C959 1.397 . S
C960 C961 1.334 . S
C961 H938 0.950 . S
C961 C960 1.334 . S
C961 C962 1.287 . S
C962 C961 1.287 . S
C962 C963 1.524 . S
C962 H981 0.913 . S
C963 H939 0.950 . S
C963 C962 1.524 . S
C963 C964 1.415 . S
C964 H940 0.950 . S
C964 C959 1.363 . S
C964 C963 1.415 . S
C965 H941 0.951 . S
C965 C966 1.366 . S
C965 C967 1.388 . S
C966 C965 1.366 . S
C966 C970 1.385 . S
C967 H942 0.951 . S
C967 C965 1.388 . S
C967 C968 1.366 . S
C968 C967 1.366 . S
C968 C969 1.414 . S
C968 C971 1.499 . S
C969 H943 0.950 . S
C969 C968 1.414 . S
C969 C970 1.374 . S
C970 H944 0.950 . S
C970 C966 1.385 . S
C970 C969 1.374 . S
C971 C968 1.499 . S
C971 C972 1.379 . S
C971 C973 1.389 1_554 S
C972 H945 0.957 . S
C972 C958 1.364 1_455 S
C972 C971 1.379 . S
C973 C957 1.377 1_455 S
C973 C971 1.389 1_556 S
C973 C974 1.524 . S
C974 C973 1.524 . S
C974 C975 1.397 . S
C974 C979 1.363 . S
C975 H946 0.950 . S
C975 C974 1.397 . S
C975 C976 1.334 . S
C976 H947 0.950 . S
C976 C975 1.334 . S
C976 C977 1.287 . S
C977 C976 1.287 . S
C977 C978 1.524 . S
C977 H980 0.999 . S
C978 H948 0.950 . S
C978 C977 1.524 . S
C978 C979 1.415 . S
C979 H949 0.950 . S
C979 C974 1.363 . S
C979 C978 1.415 . S
H980 C977 0.999 . S
H981 C962 0.913 . S
H982 C1000 0.951 . S
H983 C1002 0.951 . S
H984 C1004 0.950 . S
H985 C1005 0.950 . S
H986 C1007 0.950 . S
H987 C1010 0.950 . S
H988 C1011 0.950 . S
H989 C1013 0.950 . S
H990 C1014 0.950 1_545 S
H991 C1015 0.951 . S
H992 C1017 0.951 . S
H993 C1019 0.950 . S
H994 C1020 0.950 . S
H995 C1022 0.950 . S
H996 C1025 0.950 . S
H997 C1026 0.950 . S
H998 C1028 0.950 . S
H999 C1029 0.950 1_565 S
C1000 H982 0.951 . S
C1000 C1001 1.366 . S
C1000 C1002 1.388 . S
C1001 C1000 1.366 . S
C1001 C1005 1.385 . S
C1002 H983 0.951 . S
C1002 C1000 1.388 . S
C1002 C1003 1.366 . S
C1003 C1002 1.366 . S
C1003 C1004 1.414 . S
C1003 C1006 1.499 . S
C1004 H984 0.950 . S
C1004 C1003 1.414 . S
C1004 C1005 1.374 . S
C1005 H985 0.950 . S
C1005 C1001 1.385 . S
C1005 C1004 1.374 . S
C1006 C1003 1.499 . S
C1006 C1007 1.373 . S
C1006 C1008 1.389 . S
C1007 H986 0.950 . S
C1007 C1006 1.373 . S
C1007 C1023 1.377 1_565 S
C1008 C1006 1.389 . S
C1008 C1009 1.524 . S
C1008 C1022 1.377 1_565 S
C1009 C1008 1.524 . S
C1009 C1010 1.397 . S
C1009 C1014 1.363 . S
C1010 H987 0.950 . S
C1010 C1009 1.397 . S
C1010 C1011 1.334 . S
C1011 H988 0.950 . S
C1011 C1010 1.334 . S
C1011 C1012 1.287 . S
C1012 C1011 1.287 . S
C1012 C1013 1.524 . S
C1012 H1031 0.913 . S
C1013 H989 0.950 . S
C1013 C1012 1.524 . S
C1013 C1014 1.415 . S
C1014 H990 0.950 1_565 S
C1014 C1009 1.363 . S
C1014 C1013 1.415 . S
C1015 H991 0.951 . S
C1015 C1016 1.366 . S
C1015 C1017 1.388 . S
C1016 C1015 1.366 . S
C1016 C1020 1.385 . S
C1017 H992 0.951 . S
C1017 C1015 1.388 . S
C1017 C1018 1.366 . S
C1018 C1017 1.366 . S
C1018 C1019 1.414 . S
C1018 C1021 1.499 . S
C1019 H993 0.950 . S
C1019 C1018 1.414 . S
C1019 C1020 1.374 . S
C1020 H994 0.950 . S
C1020 C1016 1.385 . S
C1020 C1019 1.374 . S
C1021 C1018 1.499 . S
C1021 C1022 1.373 . S
C1021 C1023 1.389 . S
C1022 H995 0.950 . S
C1022 C1008 1.377 1_545 S
C1022 C1021 1.373 . S
C1023 C1007 1.377 1_545 S
C1023 C1021 1.389 . S
C1023 C1024 1.524 . S
C1024 C1023 1.524 . S
C1024 C1025 1.397 . S
C1024 C1029 1.363 . S
C1025 H996 0.950 . S
C1025 C1024 1.397 . S
C1025 C1026 1.334 . S
C1026 H997 0.950 . S
C1026 C1025 1.334 . S
C1026 C1027 1.287 . S
C1027 C1026 1.287 . S
C1027 C1028 1.524 . S
C1027 H1030 0.999 . S
C1028 H998 0.950 . S
C1028 C1027 1.524 . S
C1028 C1029 1.415 . S
C1029 H999 0.950 1_545 S
C1029 C1024 1.363 . S
C1029 C1028 1.415 . S
H1030 C1027 0.999 . S
H1031 C1012 0.913 . S
C151 C15 1.437 . S
C166 C103 1.438 . S
C201 C40 1.416 . S
C216 C117 1.399 . S
C251 C10 1.378 . S
C266 C54 1.377 . S
C301 C81 1.437 . S
C316 C29 1.438 . S
C351 C59 1.399 . S
C366 C98 1.416 . S
C401 C76 1.378 . S
C416 C128 1.377 . S
C451 C120 1.484 . S
C466 C8 1.484 . S
C501 C43 1.564 . S
C516 C7 1.564 . S
C551 C32 1.528 . S
C566 C51 1.520 . S
C601 C52 1.484 . S
C616 C74 1.484 . S
C651 C73 1.564 . S
C666 C95 1.564 . S
C701 C131 1.520 . S
C716 C96 1.528 . S
C751 C62 1.483 . S
C766 C84 1.483 . S
C801 C87 1.562 . S
C816 C109 1.562 . S
C851 C106 1.527 . S
C866 C125 1.519 . S
C901 C118 1.482 . S
C916 C18 1.482 . S
C951 C37 1.563 . S
C966 C21 1.563 . S
C1001 C65 1.519 . S
C1016 C30 1.527 . S
