# Generated by pormake.
# Topology sxb, (6)-cn, num edge types: 1
# Building blocks:
#     Node 0, Type 0, BuildingBlock: KUMBUR_clean_sbu_1, # of connection points: 6
#     Node 1, Type 0, BuildingBlock: KUMBUR_clean_sbu_1, # of connection points: 6
#     Node 2, Type 0, BuildingBlock: KUMBUR_clean_sbu_1, # of connection points: 6
#     Node 3, Type 0, BuildingBlock: KUMBUR_clean_sbu_1, # of connection points: 6
#     Edge 4, Type (0, 0), BuildingBlock: XIVTED_clean_linker_0, # of connection points: 2
#     Edge 5, Type (0, 0), BuildingBlock: XIVTED_clean_linker_0, # of connection points: 2
#     Edge 6, Type (0, 0), BuildingBlock: XIVTED_clean_linker_0, # of connection points: 2
#     Edge 7, Type (0, 0), BuildingBlock: XIVTED_clean_linker_0, # of connection points: 2
#     Edge 8, Type (0, 0), BuildingBlock: XIVTED_clean_linker_0, # of connection points: 2
#     Edge 9, Type (0, 0), BuildingBlock: XIVTED_clean_linker_0, # of connection points: 2
#     Edge 10, Type (0, 0), BuildingBlock: XIVTED_clean_linker_0, # of connection points: 2
#     Edge 11, Type (0, 0), BuildingBlock: XIVTED_clean_linker_0, # of connection points: 2
#     Edge 12, Type (0, 0), BuildingBlock: XIVTED_clean_linker_0, # of connection points: 2
#     Edge 13, Type (0, 0), BuildingBlock: XIVTED_clean_linker_0, # of connection points: 2
#     Edge 14, Type (0, 0), BuildingBlock: XIVTED_clean_linker_0, # of connection points: 2
#     Edge 15, Type (0, 0), BuildingBlock: XIVTED_clean_linker_0, # of connection points: 2
# Relax obj value: 0.014
# Max RMSD: 0.058
# Mean RMSD: 0.058
data_MOF--net-sxb--node1-KUMBUR_clean_sbu_1--edge1-XIVTED_clean_linker_0
_symmetry_space_group_name_H-M    P1
_symmetry_Int_Tables_number       1
_symmetry_cell_setting            triclinic
loop_
_symmetry_equiv_pos_as_xyz
'x, y, z'
_cell_length_a     15.062367
_cell_length_b     47.371819
_cell_length_c     29.792638
_cell_angle_alpha  113.94048
_cell_angle_beta   90.125691
_cell_angle_gamma 89.955103
loop_
_atom_site_label
_atom_site_type_symbol
_atom_site_fract_x
_atom_site_fract_y
_atom_site_fract_z
_atom_type_partial_charge
Tb0 Tb 0.04103 0.96475 0.96922 0.0
C1 C 0.19889 0.09346 0.07295 0.0
N2 N 0.13075 0.07823 0.0835 0.0
C3 C 0.18463 0.09503 0.16632 0.0
C4 C 0.26543 0.10843 0.10792 0.0
C5 C 0.11996 0.08072 0.13054 0.0
C6 C 0.25854 0.10847 0.15474 0.0
C7 C 0.27038 0.11011 0.01472 0.0
C8 C 0.20065 0.09489 0.0273 0.0
C9 C 0.33791 0.12432 0.04903 0.0
C10 C 0.33529 0.12357 0.09555 0.0
Tb11 Tb 1.02782 0.05744 0.02194 0.0
N12 N 0.13531 0.0803 0.99452 0.0
C13 C 0.27061 0.11022 0.96778 0.0
C14 C 0.13409 0.08086 0.94906 0.0
C15 C 0.20206 0.09558 0.93487 0.0
H16 H 0.06016 0.07306 0.14179 0.0
H17 H 0.20126 0.09579 0.89868 0.0
H18 H 1.01625 0.94865 0.84876 0.0
H19 H 0.8594 0.92599 0.08938 0.0
H20 H 0.08009 0.07036 0.924 0.0
H21 H 0.32323 0.12157 0.95664 0.0
H22 H 0.98295 0.95157 0.06604 0.0
H23 H 0.17619 0.09639 0.20321 0.0
H24 H 0.39221 0.13608 0.04004 0.0
H25 H 0.38717 0.13506 0.1219 0.0
H26 H 0.9026 0.92567 0.78565 0.0
H27 H 0.30802 0.11984 0.18272 0.0
H28 H 0.73923 0.90066 0.02979 0.0
N29 N 0.94092 0.94414 0.90615 0.0
C30 C 0.87116 0.92914 0.91576 0.0
C31 C 0.89168 0.92721 0.82247 0.0
C32 C 0.80599 0.91429 0.87982 0.0
C33 C 0.95494 0.94134 0.85918 0.0
C34 C 0.81597 0.91413 0.83307 0.0
N35 N 0.93107 0.9419 0.99492 0.0
C36 C 0.92993 0.94111 0.04022 0.0
C37 C 0.7956 0.91239 0.97275 0.0
C38 C 0.86671 0.92759 0.96128 0.0
C39 C 0.79297 0.91201 0.01949 0.0
C40 C 0.86053 0.92637 0.05331 0.0
H41 H 0.76764 0.90285 0.80436 0.0
H42 H 0.6837 0.8879 0.86405 0.0
H43 H 0.67387 0.88669 0.94568 0.0
O44 O 0.08785 0.92574 0.98022 0.0
O45 O 0.91323 0.98735 0.00012 0.0
O46 O 0.91035 0.03106 0.9846 0.0
O47 O 0.11948 0.93246 0.91393 0.0
O48 O 0.08038 0.99073 0.04521 0.0
O49 O 0.99335 0.03473 0.07149 0.0
O50 O 0.98018 0.09655 0.01156 0.0
O51 O 0.1561 0.03502 0.99172 0.0
O52 O 0.15869 0.99107 0.00666 0.0
O53 O 0.95038 0.08976 0.07798 0.0
O54 O 0.98835 0.03131 0.94574 0.0
O55 O 0.07712 0.98777 0.92067 0.0
C56 C 0.86949 1.00932 0.99328 0.0
C57 C 0.17968 0.88618 0.91887 0.0
C58 C 0.23551 0.83977 0.92592 0.0
C59 C 0.28498 0.83274 0.88284 0.0
C60 C 0.22905 0.87848 0.87553 0.0
C61 C 0.2812 0.8519 0.85769 0.0
C62 C 0.18221 0.86646 0.94377 0.0
C63 C 1.03482 0.01259 0.07936 0.0
C64 C 0.12798 0.91511 0.9381 0.0
C65 C 0.73457 0.89927 0.89115 0.0
C66 C 0.72924 0.89842 0.93754 0.0
C67 C 0.19967 0.01296 -0.00158 0.0
C68 C 0.89011 0.1363 0.07362 0.0
C69 C 0.83453 0.18297 0.06716 0.0
C70 C 0.78687 0.19023 0.11088 0.0
C71 C 0.8425 0.14426 0.11758 0.0
C72 C 0.88683 0.15603 0.04869 0.0
C73 C 0.79139 0.17107 0.13603 0.0
C74 C 1.03459 1.00939 0.91207 0.0
C75 C 0.94134 0.10724 0.05402 0.0
H76 H 0.32568 0.81213 0.86829 0.0
H77 H 0.22805 0.89315 0.85554 0.0
H78 H 0.31906 0.84617 0.8243 0.0
H79 H 0.14415 0.87197 0.97712 0.0
H80 H 0.74701 0.21103 0.12595 0.0
H81 H 0.84419 0.12963 0.13763 0.0
H82 H 0.9236 0.15033 0.01489 0.0
H83 H 0.75494 0.177 0.16991 0.0
Tb84 Tb 0.04882 0.06025 0.52443 0.0
C85 C 0.20604 0.93427 0.40675 0.0
N86 N 0.12552 0.94554 0.40114 0.0
C87 C 0.15027 0.92656 0.3141 0.0
C88 C 0.26334 0.91989 0.36645 0.0
C89 C 0.0949 0.93986 0.35495 0.0
C90 C 0.23553 0.91705 0.31998 0.0
C91 C 0.3072 0.92111 0.45892 0.0
C92 C 0.22816 0.93489 0.45232 0.0
C93 C 0.36627 0.90804 0.41944 0.0
C94 C 0.34454 0.90754 0.37334 0.0
Tb95 Tb 0.04261 0.96696 0.47163 0.0
N96 N 0.17038 0.94825 0.49 0.0
C97 C 0.32322 0.92018 0.50465 0.0
C98 C 0.18304 0.94595 0.53386 0.0
C99 C 0.26022 0.93226 0.54206 0.0
H100 H 1.02706 0.94474 0.34881 0.0
H101 H 0.27107 0.93104 0.57715 0.0
H102 H 0.99387 0.07613 0.63991 0.0
H103 H 0.90866 0.09592 0.38813 0.0
H104 H 0.13396 0.95511 0.5626 0.0
H105 H 0.38301 0.90964 0.51111 0.0
H106 H 1.0198 0.0715 0.42122 0.0
H107 H 0.12623 0.92293 0.2779 0.0
H108 H 0.42787 0.8976 0.42385 0.0
H109 H 0.3896 0.8966 0.34286 0.0
H110 H 0.87537 0.10437 0.69733 0.0
H111 H 0.27758 0.90617 0.2881 0.0
H112 H 0.78167 0.1239 0.43944 0.0
N113 N 0.94009 0.08407 0.5799 0.0
C114 C 0.87844 0.09958 0.56531 0.0
C115 C 0.8748 0.10287 0.66009 0.0
C116 C 0.81033 0.11653 0.59722 0.0
C117 C 0.94122 0.08641 0.62712 0.0
C118 C 0.80863 0.1178 0.64499 0.0
N119 N 0.95105 0.08174 0.48845 0.0
C120 C 0.96193 0.08169 0.4429 0.0
C121 C 0.82073 0.1138 0.50134 0.0
C122 C 0.88374 0.09816 0.51795 0.0
C123 C 0.82888 0.1123 0.45366 0.0
C124 C 0.90016 0.09636 0.42448 0.0
H125 H 0.75752 0.13066 0.67072 0.0
H126 H 0.69404 0.14503 0.60463 0.0
H127 H 0.70298 0.14259 0.52065 0.0
O128 O 0.09186 0.10228 0.52269 0.0
O129 O 0.9197 0.03836 0.52671 0.0
O130 O 0.91622 0.98828 0.46531 0.0
O131 O 0.13567 0.08826 0.58043 0.0
O132 O 0.07855 0.0328 0.44695 0.0
O133 O 0.99597 0.98784 0.42183 0.0
O134 O 0.98266 0.9415 0.50702 0.0
O135 O 0.16519 0.99301 0.50475 0.0
O136 O 0.16218 0.03363 0.48228 0.0
O137 O 1.00196 0.92127 0.42907 0.0
O138 O 1.00086 0.99466 0.5468 0.0
O139 O 0.08685 0.03883 0.57473 0.0
C140 C 0.87684 0.01389 0.49552 0.0
C141 C 0.19103 0.13786 0.58487 0.0
C142 C 0.25355 0.18504 0.58263 0.0
C143 C 0.29044 0.19233 0.62943 0.0
C144 C 0.229 0.14574 0.63145 0.0
C145 C 0.27806 0.17285 0.65355 0.0
C146 C 0.20295 0.15775 0.56061 0.0
C147 C 1.0314 1.01078 0.41379 0.0
C148 C 0.1384 0.10916 0.56245 0.0
C149 C 0.74695 0.13187 0.58065 0.0
C150 C 0.75208 0.13048 0.53282 0.0
C151 C 0.20686 0.01359 0.49344 0.0
C152 C 0.88752 0.90071 0.46091 0.0
C153 C 0.80454 0.85793 0.46623 0.0
C154 C 0.72696 0.86925 0.45289 0.0
C155 C 0.81005 0.91141 0.44692 0.0
C156 C 0.88467 0.87403 0.47039 0.0
C157 C 0.72994 0.89578 0.44326 0.0
C158 C 0.0467 0.01611 0.5814 0.0
C159 C 0.9722 0.91701 0.46669 0.0
H160 H 0.32802 0.21341 0.64778 0.0
H161 H 0.22027 0.13105 0.65107 0.0
H162 H 0.30646 0.17885 0.68966 0.0
H163 H 0.17422 0.15183 0.52453 0.0
H164 H 0.66433 0.85725 0.44893 0.0
H165 H 0.81164 0.93176 0.43895 0.0
H166 H 0.94489 0.866 0.48147 0.0
H167 H 0.67002 0.90414 0.43263 0.0
Tb168 Tb 0.53298 0.46483 0.96632 0.0
C169 C 0.6869 0.59693 0.08959 0.0
N170 N 0.60744 0.58505 0.09493 0.0
C171 C 0.62278 0.60912 0.18258 0.0
C172 C 0.73794 0.61526 0.13082 0.0
C173 C 0.57428 0.59114 0.14061 0.0
C174 C 0.70501 0.62119 0.1777 0.0
C175 C 0.79984 0.60213 0.03538 0.0
C176 C 0.71763 0.59038 0.04242 0.0
C177 C 0.8508 0.62051 0.07639 0.0
C178 C 0.81997 0.62704 0.12395 0.0
Tb179 Tb 0.53457 0.55725 0.02343 0.0
N180 N 0.66786 0.5717 0.00349 0.0
C181 C 0.82835 0.59499 0.98731 0.0
C182 C 0.69345 0.56579 0.95665 0.0
C183 C 0.77458 0.57694 0.94781 0.0
H184 H 0.50936 0.58296 0.14496 0.0
H185 H 0.79512 0.57188 0.91055 0.0
H186 H 0.56791 0.43856 0.84548 0.0
H187 H 0.26708 0.44723 0.07331 0.0
H188 H 0.65126 0.55299 0.92605 0.0
H189 H 0.89112 0.60359 0.98031 0.0
H190 H 0.41116 0.46747 0.06082 0.0
H191 H 0.59627 0.61392 0.21869 0.0
H192 H 0.91422 0.62975 0.07171 0.0
H193 H 0.86011 0.64121 0.1552 0.0
H194 H 0.48636 0.40716 0.76984 0.0
H195 H 0.74222 0.6352 0.21033 0.0
H196 H 0.17578 0.4151 0.00157 0.0
N197 N 0.46589 0.43613 0.89325 0.0
C198 C 0.38607 0.42381 0.89679 0.0
C199 C 0.45714 0.41185 0.80532 0.0
C200 C 0.33813 0.40515 0.85448 0.0
C201 C 0.50258 0.43007 0.84834 0.0
C202 C 0.37447 0.39941 0.80837 0.0
N203 N 0.39918 0.44897 0.98315 0.0
C204 C 0.371 0.45439 0.0294 0.0
C205 C 0.27 0.41757 0.94848 0.0
C206 C 0.35224 0.43 0.94319 0.0
C207 C 0.23866 0.42425 -0.00409 0.0
C208 C 0.28978 0.44253 0.03652 0.0
H209 H 0.33967 0.38518 0.77495 0.0
H210 H 0.21801 0.37838 0.82743 0.0
H211 H 0.15848 0.3892 0.90968 0.0
O212 O 0.58359 0.44004 0.00562 0.0
O213 O 0.40743 0.48856 0.9647 0.0
O214 O 0.40795 0.53668 0.02982 0.0
O215 O 0.58284 0.42017 0.9267 0.0
O216 O 0.56183 0.49098 0.04493 0.0
O217 O 0.48178 0.53648 0.07106 0.0
O218 O 0.48804 0.58392 0.98634 0.0
O219 O 0.65783 0.53266 0.02651 0.0
O220 O 0.65763 0.486 0.95887 0.0
O221 O 0.48514 0.60167 0.06515 0.0
O222 O 0.50118 0.5314 0.94552 0.0
O223 O 0.58281 0.48633 0.91887 0.0
C224 C 0.36621 0.51303 -0.00356 0.0
C225 C 0.69367 0.40294 0.96524 0.0
C226 C 0.78502 0.36249 0.9732 0.0
C227 C 0.85953 0.37482 0.9589 0.0
C228 C 0.76872 0.41487 0.95143 0.0
C229 C 0.85132 0.40091 0.94846 0.0
C230 C 0.70203 0.37702 0.97656 0.0
C231 C 0.5199 0.51403 0.07921 0.0
C232 C 0.60546 0.41629 0.96588 0.0
C233 C 0.25584 0.39279 0.85953 0.0
C234 C 0.22193 0.39895 0.90639 0.0
C235 C 0.69957 0.50888 0.99348 0.0
C236 C 0.37606 0.61994 0.02709 0.0
C237 C 0.28408 0.66006 0.01871 0.0
C238 C 0.20934 0.6472 0.03181 0.0
C239 C 0.3008 0.60747 0.03973 0.0
C240 C 0.3675 0.64598 0.01616 0.0
C241 C 0.21778 0.621 0.04191 0.0
C242 C 0.54026 0.50797 0.91054 0.0
C243 C 0.46443 0.60681 0.02679 0.0
H244 H 0.92408 0.36401 0.95482 0.0
H245 H 0.76291 0.4346 0.9422 0.0
H246 H 0.909 0.41007 0.93733 0.0
H247 H 0.64366 0.36825 0.98788 0.0
H248 H 0.14442 0.65768 0.03517 0.0
H249 H 0.30667 0.5876 0.04859 0.0
H250 H 0.426 0.65515 0.00568 0.0
H251 H 0.15994 0.6114 0.0521 0.0
Tb252 Tb 0.52469 0.5567 0.52526 0.0
C253 C 0.6937 0.42789 0.41418 0.0
N254 N 0.62196 0.44081 0.40211 0.0
C255 C 0.67177 0.42222 0.31866 0.0
C256 C 0.75831 0.41192 0.37882 0.0
C257 C 0.60964 0.438 0.35504 0.0
C258 C 0.74648 0.40915 0.33058 0.0
C259 C 0.77809 0.41914 0.47676 0.0
C260 C 0.70362 0.43171 0.46269 0.0
C261 C 0.84278 0.40322 0.44167 0.0
C262 C 0.83285 0.39958 0.39283 0.0
Tb263 Tb 0.5227 0.46392 0.46375 0.0
N264 N 0.63994 0.44748 0.49585 0.0
C265 C 0.78453 0.42245 0.52548 0.0
C266 C 0.64265 0.44846 0.54227 0.0
C267 C 0.71587 0.4368 0.55818 0.0
H268 H 0.55081 0.44714 0.34508 0.0
H269 H 0.71815 0.43817 0.59532 0.0
H270 H 0.56998 0.58081 0.64464 0.0
H271 H 0.25053 0.57785 0.42633 0.0
H272 H 0.58728 0.45682 0.56672 0.0
H273 H 0.84068 0.41312 0.53777 0.0
H274 H 0.39405 0.55524 0.43452 0.0
H275 H 0.66164 0.41995 0.28137 0.0
H276 H 0.90045 0.39343 0.45185 0.0
H277 H 0.88327 0.38722 0.3662 0.0
H278 H 0.49661 0.61289 0.72276 0.0
H279 H 0.79453 0.39697 0.3023 0.0
H280 H 0.16766 0.61116 0.50069 0.0
N281 N 0.46486 0.58543 0.60016 0.0
C282 C 0.38569 0.59893 0.59905 0.0
C283 C 0.46447 0.60898 0.68821 0.0
C284 C 0.34236 0.61795 0.64275 0.0
C285 C 0.50527 0.59045 0.64386 0.0
C286 C 0.3826 0.62275 0.68769 0.0
N287 N 0.39011 0.57407 0.51245 0.0
C288 C 0.35769 0.56912 0.46707 0.0
C289 C 0.26604 0.60716 0.55092 0.0
C290 C 0.34781 0.59355 0.55375 0.0
C291 C 0.23039 0.60111 0.50447 0.0
C292 C 0.27676 0.58219 0.46238 0.0
H293 H 0.35141 0.63721 0.72213 0.0
H294 H 0.22629 0.64627 0.67339 0.0
H295 H 0.15962 0.63688 0.59303 0.0
O296 O 0.56691 0.58278 0.48661 0.0
O297 O 0.39731 0.53386 0.52621 0.0
O298 O 0.39807 0.48639 0.46005 0.0
O299 O 0.58471 0.59981 0.5649 0.0
O300 O 0.55378 0.53212 0.44672 0.0
O301 O 0.47354 0.48663 0.41774 0.0
O302 O 0.46219 0.42997 0.4844 0.0
O303 O 0.64558 0.48857 0.46017 0.0
O304 O 0.64785 0.53374 0.53046 0.0
O305 O 0.47274 0.42402 0.40825 0.0
O306 O 0.48747 0.48843 0.54195 0.0
O307 O 0.57276 0.53279 0.56954 0.0
C308 C 0.35633 0.5093 0.49448 0.0
C309 C 0.68404 0.61778 0.52123 0.0
C310 C 0.76902 0.65859 0.51069 0.0
C311 C 0.84786 0.64342 0.51371 0.0
C312 C 0.76307 0.60293 0.52375 0.0
C313 C 0.84466 0.61575 0.52 0.0
C314 C 0.68711 0.64536 0.51434 0.0
C315 C 0.51099 0.50988 0.4116 0.0
C316 C 0.59743 0.60514 0.52589 0.0
C317 C 0.26061 0.63155 0.64018 0.0
C318 C 0.22264 0.62622 0.5944 0.0
C319 C 0.68881 0.51098 0.4951 0.0
C320 C 0.39987 0.38229 0.42003 0.0
C321 C 0.33985 0.33736 0.43055 0.0
C322 C 0.30903 0.32569 0.3818 0.0
C323 C 0.36816 0.36992 0.37142 0.0
C324 C 0.38608 0.36577 0.44963 0.0
C325 C 0.3233 0.34184 0.35255 0.0
C326 C 0.52713 0.51165 0.57748 0.0
C327 C 0.44625 0.4124 0.43848 0.0
H328 H 0.91214 0.65313 0.51199 0.0
H329 H 0.76142 0.58163 0.52885 0.0
H330 H 0.90567 0.60432 0.52233 0.0
H331 H 0.62542 0.65633 0.51147 0.0
H332 H 0.27473 0.30372 0.366 0.0
H333 H 0.37763 0.38203 0.34779 0.0
H334 H 0.41027 0.37499 0.48714 0.0
H335 H 0.29949 0.33254 0.31502 0.0
H336 H 0.14612 0.67596 0.97302 0.0
H337 H 0.3809 0.82348 0.96414 0.0
H338 H 0.40113 0.70866 0.04081 0.0
H339 H 0.0997 0.80695 0.94202 0.0
H340 H 0.3916 0.78139 0.99176 0.0
H341 H 0.13008 0.72288 0.95883 0.0
C342 C 0.19849 0.69306 0.98538 0.0
C343 C 0.27489 0.68824 0.00851 0.0
C344 C 0.32732 0.7872 0.98152 0.0
C345 C 0.25738 0.74196 0.99139 0.0
C346 C 0.32125 0.81121 0.96593 0.0
C347 C 0.2394 0.81845 0.95078 0.0
C348 C 0.25122 0.76994 0.98091 0.0
C349 C 0.16389 0.80202 0.95362 0.0
C350 C 0.18928 0.71986 0.97711 0.0
C351 C 0.3415 0.71102 0.02232 0.0
N352 N 0.1718 0.77817 0.96768 0.0
N353 N 0.33134 0.73679 0.01336 0.0
H354 H 0.925 0.34579 0.01672 0.0
H355 H 0.6874 0.20041 0.03182 0.0
H356 H 0.66555 0.31476 0.95401 0.0
H357 H 0.97012 0.21477 0.04812 0.0
H358 H 0.67608 0.24245 0.00415 0.0
H359 H 0.94067 0.29897 0.03122 0.0
C360 C 0.87152 0.32908 0.00553 0.0
C361 C 0.794 0.33437 0.98371 0.0
C362 C 0.74078 0.23618 0.01312 0.0
C363 C 0.81116 0.28075 0.0013 0.0
C364 C 0.74721 0.21219 0.02876 0.0
C365 C 0.82973 0.20432 0.04228 0.0
C366 C 0.81726 0.25282 0.01203 0.0
C367 C 0.90539 0.22016 0.0378 0.0
C368 C 0.88055 0.30234 0.01401 0.0
C369 C 0.72611 0.31208 0.97147 0.0
N370 N 0.89721 0.24401 0.02372 0.0
N371 N 0.73615 0.28636 0.98062 0.0
H372 H 0.40809 0.21323 0.57559 0.0
H373 H 0.18376 0.31231 0.44266 0.0
H374 H 0.13191 0.20574 0.53373 0.0
H375 H 0.46015 0.31969 0.48371 0.0
H376 H 0.1623 0.2749 0.47893 0.0
H377 H 0.4283 0.25236 0.5427 0.0
C378 C 0.3516 0.21984 0.55944 0.0
C379 C 0.26789 0.20641 0.55795 0.0
C380 C 0.22759 0.28478 0.48035 0.0
C381 C 0.29062 0.25138 0.52019 0.0
C382 C 0.23979 0.30623 0.45983 0.0
C383 C 0.32402 0.31892 0.45988 0.0
C384 C 0.30026 0.27574 0.50099 0.0
C385 C 0.3941 0.31053 0.48305 0.0
C386 C 0.36324 0.2422 0.54066 0.0
C387 C 0.19761 0.2154 0.53561 0.0
N388 N 0.38084 0.28924 0.50229 0.0
N389 N 0.21045 0.23745 0.51789 0.0
H390 H 0.92475 0.81034 0.43593 0.0
H391 H 0.6601 0.70939 0.55172 0.0
H392 H 0.67934 0.83977 0.51595 0.0
H393 H 0.88545 0.67561 0.45515 0.0
H394 H 0.66898 0.75802 0.54188 0.0
H395 H 0.91678 0.7622 0.44746 0.0
C396 C 0.86945 0.80678 0.45623 0.0
C397 C 0.80224 0.82908 0.47471 0.0
C398 C 0.71653 0.73997 0.52289 0.0
C399 C 0.79224 0.77378 0.48763 0.0
C400 C 0.71116 0.71204 0.52819 0.0
C401 C 0.77238 0.68823 0.50439 0.0
C402 C 0.78386 0.74431 0.49378 0.0
C403 C 0.83783 0.6934 0.47501 0.0
C404 C 0.86461 0.77917 0.46249 0.0
C405 C 0.73181 0.82303 0.50035 0.0
N406 N 0.84192 0.72084 0.47066 0.0
N407 N 0.72862 0.79597 0.50602 0.0
H408 H 0.31133 0.04531 0.96353 0.0
H409 H 0.75793 0.97726 0.02877 0.0
H410 H 0.31385 0.97945 0.02964 0.0
H411 H 0.75522 0.04258 0.96163 0.0
H412 H 0.59566 0.97742 0.02889 0.0
H413 H 0.47357 0.04515 0.96345 0.0
C414 C 0.34584 0.03114 0.97866 0.0
C415 C 0.29844 0.01287 -0.00249 0.0
C416 C 0.63048 0.99166 0.01399 0.0
C417 C 0.48506 0.01173 -0.00392 0.0
C418 C 0.72337 0.99131 0.01343 0.0
C419 C 0.77072 1.00943 0.99428 0.0
C420 C 0.5841 1.01057 -0.00424 0.0
C421 C 0.72184 0.02809 0.97659 0.0
C422 C 0.43872 0.03078 0.97812 0.0
C423 C 0.34727 0.99406 0.01493 0.0
N424 N 0.63148 0.02816 0.97774 0.0
N425 N 0.43764 0.994 0.01382 0.0
H426 H 0.31812 0.04402 0.45483 0.0
H427 H 0.76633 0.97542 0.5168 0.0
H428 H 0.32201 0.98743 0.53723 0.0
H429 H 0.76371 0.05218 0.47472 0.0
H430 H 0.6031 0.9754 0.51648 0.0
H431 H 0.48096 0.04464 0.45597 0.0
C432 C 0.353 0.03152 0.4729 0.0
C433 C 0.30582 0.01487 0.49482 0.0
C434 C 0.63818 0.9925 0.50783 0.0
C435 C 0.49273 0.01528 0.49586 0.0
C436 C 0.73122 0.99234 0.50766 0.0
C437 C 0.77843 0.01416 0.49647 0.0
C438 C 0.59188 0.01452 0.49631 0.0
C439 C 0.72993 0.03568 0.48509 0.0
C440 C 0.44608 0.03187 0.47349 0.0
C441 C 0.3551 0.99945 0.51812 0.0
N442 N 0.63946 0.0353 0.48516 0.0
N443 N 0.44549 0.99979 0.51768 0.0
H444 H 0.81153 0.47527 0.91836 0.0
H445 H 0.25434 0.54731 0.07119 0.0
H446 H 0.81175 0.54337 0.0681 0.0
H447 H 0.25404 0.47777 0.92252 0.0
H448 H 0.09222 0.54689 0.07028 0.0
H449 H 0.97361 0.47571 0.9193 0.0
C450 C 0.8456 0.49021 0.95156 0.0
C451 C 0.79784 0.50911 0.99338 0.0
C452 C 0.12759 0.53167 0.03788 0.0
C453 C 0.98366 0.51037 0.99426 0.0
C454 C 0.22024 0.53209 0.03821 0.0
C455 C 0.26797 0.5128 -0.00334 0.0
C456 C 0.08215 0.51153 -0.00413 0.0
C457 C 0.2201 0.49297 0.95545 0.0
C458 C 0.93824 0.49061 0.95194 0.0
C459 C 0.8457 0.5285 0.03494 0.0
N460 N 0.1299 0.49284 0.95611 0.0
N461 N 0.9359 0.52867 0.0343 0.0
H462 H 0.24512 0.4712 0.42243 0.0
H463 H 0.80035 0.5445 0.57055 0.0
H464 H 0.24274 0.54638 0.56615 0.0
H465 H 0.80214 0.47759 0.42004 0.0
H466 H 0.9623 0.54453 0.57032 0.0
H467 H 0.08301 0.47149 0.42225 0.0
C468 C 0.21065 0.48782 0.45397 0.0
C469 C 0.25792 0.50901 0.49423 0.0
C470 C 0.92733 0.52964 0.53743 0.0
C471 C 0.07189 0.50948 0.4941 0.0
C472 C 0.83469 0.52964 0.53746 0.0
C473 C 0.78724 0.51073 0.49534 0.0
C474 C 0.97328 0.51029 0.49516 0.0
C475 C 0.83566 0.49199 0.45367 0.0
C476 C 0.11796 0.48803 0.45372 0.0
C477 C 0.20935 0.52996 0.53399 0.0
N478 N 0.92594 0.49214 0.45468 0.0
N479 N 0.11911 0.52967 0.5329 0.0
H480 H 0.17111 0.02248 0.36732 0.0
H481 H 0.16454 0.99097 0.12005 0.0
H482 H 0.89508 0.99618 0.34678 0.0
H483 H 0.90532 0.03332 0.15053 0.0
H484 H 0.16448 0.98877 0.20038 0.0
H485 H 0.17319 0.02316 0.28585 0.0
C486 C 0.11103 0.01665 0.34534 0.0
C487 C 1.03293 1.00907 0.36336 0.0
C488 C 0.10795 0.99881 0.18972 0.0
C489 C 1.0348 1.00981 0.27028 0.0
C490 C 0.10763 0.99992 0.14381 0.0
C491 C 1.03504 0.01256 0.12888 0.0
C492 C 1.03485 1.0102 0.22097 0.0
C493 C 0.96297 0.02375 0.16109 0.0
C494 C 0.1124 0.01688 0.29885 0.0
C495 C 0.95676 1.00177 0.33365 0.0
N496 N 0.9643 0.02211 0.20572 0.0
N497 N 0.95921 1.00264 0.28848 0.0
H498 H 0.89744 0.0201 0.8622 0.0
H499 H 0.18081 0.03376 0.6494 0.0
H500 H 0.17665 0.99823 0.85024 0.0
H501 H 0.91478 0.99686 0.62419 0.0
H502 H 0.18065 0.03069 0.73004 0.0
H503 H 0.90183 0.02131 0.78075 0.0
C504 C 0.95964 0.01561 0.84229 0.0
C505 C 0.03678 1.00901 0.86251 0.0
C506 C 0.1226 0.02328 0.70664 0.0
C507 C 0.04268 1.01103 0.77042 0.0
C508 C 0.12237 0.02524 0.66105 0.0
C509 C 0.0477 0.01555 0.63042 0.0
C510 C 0.04673 0.01238 0.72187 0.0
C511 C 0.9738 1.00442 0.64676 0.0
C512 C 0.96203 0.01619 0.79596 0.0
C513 C 0.11576 1.00318 0.83542 0.0
N514 N 0.97479 1.00343 0.69164 0.0
N515 N 0.11708 1.00469 0.79077 0.0
H516 H 0.37547 0.49165 0.34509 0.0
H517 H 0.38283 0.53381 0.14422 0.0
H518 H 0.64104 0.52886 0.36683 0.0
H519 H 0.64676 0.49547 0.1267 0.0
H520 H 0.37494 0.53258 0.22586 0.0
H521 H 0.37222 0.49355 0.2638 0.0
C522 C 0.433 0.50014 0.33261 0.0
C523 C 0.50837 0.51035 0.36253 0.0
C524 C 0.43428 0.52437 0.20392 0.0
C525 C 0.50539 0.5123 0.27028 0.0
C526 C 0.43915 0.52531 0.15776 0.0
C527 C 0.51537 0.51456 0.1289 0.0
C528 C 0.507 0.51329 0.22152 0.0
C529 C 0.58657 0.50367 0.14783 0.0
C530 C 0.43082 0.50144 0.28663 0.0
C531 C 0.58136 0.52114 0.34491 0.0
N532 N 0.5811 0.50364 0.19333 0.0
N533 N 0.57853 0.52149 0.29954 0.0
H534 H 0.38977 0.49763 0.62401 0.0
H535 H 0.67268 0.48983 0.84206 0.0
H536 H 0.66378 0.52643 0.64325 0.0
H537 H 0.40398 0.52416 0.86594 0.0
H538 H 0.66995 0.49158 0.76055 0.0
H539 H 0.39235 0.49633 0.70569 0.0
C540 C 0.45029 0.5037 0.64556 0.0
C541 C 0.52651 0.5123 0.62733 0.0
C542 C 0.61171 0.49862 0.78375 0.0
C543 C 0.53062 0.51001 0.71939 0.0
C544 C 0.61296 0.4974 0.82984 0.0
C545 C 0.53847 0.50693 0.86047 0.0
C546 C 0.53458 0.50856 0.76792 0.0
C547 C 0.46286 0.51681 0.84335 0.0
C548 C 0.45168 0.50301 0.69194 0.0
C549 C 0.60345 0.51999 0.65645 0.0
N550 N 0.46248 0.51711 0.79794 0.0
N551 N 0.60399 0.51829 0.70094 0.0
loop_
_geom_bond_atom_site_label_1
_geom_bond_atom_site_label_2
_geom_bond_distance
_geom_bond_site_symmetry_2
_ccdc_geom_bond_type
Tb0 N29 2.617 . S
Tb0 N35 2.572 . S
Tb0 O44 2.465 1_655 S
Tb0 O45 2.387 . S
Tb0 O47 2.428 1_655 S
Tb0 O48 2.308 1_556 S
Tb0 O52 2.349 1_655 S
Tb0 O55 2.393 1_655 S
Tb0 C64 2.802 1_655 S
C1 N2 1.379 . S
C1 C4 1.416 . S
C1 C8 1.424 . S
N2 C1 1.379 . S
N2 C5 1.334 . S
N2 Tb11 2.617 . S
C3 C5 1.390 . S
C3 C6 1.339 . S
C3 H23 0.930 . S
C4 C1 1.416 . S
C4 C6 1.416 . S
C4 C10 1.448 . S
C5 N2 1.334 . S
C5 C3 1.390 . S
C5 H16 0.930 . S
C6 C3 1.339 . S
C6 C4 1.416 . S
C6 H27 0.930 . S
C7 C8 1.413 . S
C7 C9 1.427 . S
C7 C13 1.416 . S
C8 C1 1.424 . S
C8 C7 1.413 . S
C8 N12 1.361 . S
C9 C7 1.427 . S
C9 C10 1.328 . S
C9 H24 0.929 . S
C10 C4 1.448 . S
C10 C9 1.328 . S
C10 H25 0.930 . S
Tb11 N2 2.617 . S
Tb11 N12 2.572 . S
Tb11 O46 2.349 1_455 S
Tb11 O49 2.393 1_455 S
Tb11 O50 2.465 1_455 S
Tb11 O51 2.387 . S
Tb11 O53 2.428 1_455 S
Tb11 O54 2.308 1_554 S
Tb11 C75 2.802 1_455 S
N12 C8 1.361 . S
N12 Tb11 2.572 . S
N12 C14 1.340 1_554 S
C13 C7 1.416 . S
C13 C15 1.332 1_554 S
C13 H21 0.931 1_554 S
C14 N12 1.340 1_556 S
C14 C15 1.407 . S
C14 H20 0.930 . S
C15 C13 1.332 1_556 S
C15 C14 1.407 . S
C15 H17 0.929 . S
H16 C5 0.930 . S
H17 C15 0.929 . S
H18 C33 0.930 . S
H19 C40 0.929 . S
H20 C14 0.930 . S
H21 C13 0.931 1_556 S
H22 C36 0.930 . S
H23 C3 0.930 . S
H24 C9 0.929 . S
H25 C10 0.930 . S
H26 C31 0.930 . S
H27 C6 0.930 . S
H28 C39 0.923 1_554 S
N29 Tb0 2.617 . S
N29 C30 1.379 . S
N29 C33 1.334 . S
C30 N29 1.379 . S
C30 C32 1.416 . S
C30 C38 1.424 . S
C31 H26 0.930 . S
C31 C33 1.390 . S
C31 C34 1.339 . S
C32 C30 1.416 . S
C32 C34 1.416 . S
C32 C65 1.448 . S
C33 H18 0.930 . S
C33 N29 1.334 . S
C33 C31 1.390 . S
C34 C31 1.339 . S
C34 C32 1.416 . S
C34 H41 0.930 . S
N35 Tb0 2.572 . S
N35 C36 1.340 1_556 S
N35 C38 1.361 . S
C36 H22 0.930 . S
C36 N35 1.340 1_554 S
C36 C40 1.407 . S
C37 C38 1.413 . S
C37 C39 1.434 . S
C37 C66 1.427 . S
C38 C30 1.424 . S
C38 N35 1.361 . S
C38 C37 1.413 . S
C39 H28 0.923 1_556 S
C39 C37 1.434 . S
C39 C40 1.322 1_556 S
C40 H19 0.929 . S
C40 C36 1.407 . S
C40 C39 1.322 1_554 S
H41 C34 0.930 . S
H42 C65 0.930 . S
H43 C66 0.929 . S
O44 Tb0 2.465 1_455 S
O44 C64 1.264 . S
O45 Tb0 2.387 . S
O45 C56 1.264 1_565 S
O46 Tb11 2.349 1_655 S
O46 C56 1.243 1_554 S
O47 Tb0 2.428 1_455 S
O47 C64 1.256 . S
O48 Tb0 2.308 1_554 S
O48 C63 1.266 1_565 S
O49 Tb11 2.393 1_655 S
O49 C63 1.248 . S
O50 Tb11 2.465 1_655 S
O50 C75 1.264 . S
O51 Tb11 2.387 . S
O51 C67 1.264 1_545 S
O52 Tb0 2.349 1_455 S
O52 C67 1.243 1_556 S
O53 Tb11 2.428 1_655 S
O53 C75 1.256 . S
O54 Tb11 2.308 1_556 S
O54 C74 1.266 1_545 S
O55 Tb0 2.393 1_455 S
O55 C74 1.248 . S
C56 O45 1.264 1_545 S
C56 O46 1.243 1_556 S
C57 C60 1.399 . S
C57 C62 1.383 . S
C57 C64 1.496 . S
C58 C59 1.399 . S
C58 C62 1.389 . S
C59 C58 1.399 . S
C59 C61 1.380 . S
C59 H76 0.929 . S
C60 C57 1.399 . S
C60 C61 1.392 . S
C60 H77 0.929 . S
C61 C59 1.380 . S
C61 C60 1.392 . S
C61 H78 0.929 . S
C62 C57 1.383 . S
C62 C58 1.389 . S
C62 H79 0.931 1_556 S
C63 O48 1.266 1_545 S
C63 O49 1.248 . S
C64 Tb0 2.802 1_455 S
C64 O44 1.264 . S
C64 O47 1.256 . S
C64 C57 1.496 . S
C65 C32 1.448 . S
C65 H42 0.930 . S
C65 C66 1.328 . S
C66 C37 1.427 . S
C66 H43 0.929 . S
C66 C65 1.328 . S
C67 O51 1.264 1_565 S
C67 O52 1.243 1_554 S
C68 C71 1.399 . S
C68 C72 1.383 . S
C68 C75 1.496 . S
C69 C70 1.399 . S
C69 C72 1.389 . S
C70 C69 1.399 . S
C70 C73 1.380 . S
C70 H80 0.929 . S
C71 C68 1.399 . S
C71 C73 1.392 . S
C71 H81 0.929 . S
C72 C68 1.383 . S
C72 C69 1.389 . S
C72 H82 0.931 1_554 S
C73 C70 1.380 . S
C73 C71 1.392 . S
C73 H83 0.929 . S
C74 O54 1.266 1_565 S
C74 O55 1.248 . S
C75 Tb11 2.802 1_655 S
C75 O50 1.264 . S
C75 O53 1.256 . S
C75 C68 1.496 . S
H76 C59 0.929 . S
H77 C60 0.929 . S
H78 C61 0.929 . S
H79 C62 0.931 1_554 S
H80 C70 0.929 . S
H81 C71 0.929 . S
H82 C72 0.931 1_556 S
H83 C73 0.929 . S
Tb84 N113 2.617 . S
Tb84 N119 2.572 . S
Tb84 O128 2.465 1_655 S
Tb84 O129 2.387 . S
Tb84 O131 2.428 1_655 S
Tb84 O132 2.308 . S
Tb84 O136 2.349 1_655 S
Tb84 O139 2.393 1_655 S
Tb84 C148 2.802 1_655 S
C85 N86 1.379 . S
C85 C88 1.416 . S
C85 C92 1.424 . S
N86 C85 1.379 . S
N86 C89 1.334 . S
N86 Tb95 2.617 . S
C87 C89 1.390 . S
C87 C90 1.339 . S
C87 H107 0.930 . S
C88 C85 1.416 . S
C88 C90 1.416 . S
C88 C94 1.448 . S
C89 N86 1.334 . S
C89 C87 1.390 . S
C89 H100 0.930 . S
C90 C87 1.339 . S
C90 C88 1.416 . S
C90 H111 0.930 . S
C91 C92 1.413 . S
C91 C93 1.427 . S
C91 C97 1.416 . S
C92 C85 1.424 . S
C92 C91 1.413 . S
C92 N96 1.361 . S
C93 C91 1.427 . S
C93 C94 1.328 . S
C93 H108 0.929 . S
C94 C88 1.448 . S
C94 C93 1.328 . S
C94 H109 0.930 . S
Tb95 N86 2.617 . S
Tb95 N96 2.572 . S
Tb95 O130 2.349 1_455 S
Tb95 O133 2.393 1_455 S
Tb95 O134 2.465 1_455 S
Tb95 O135 2.387 . S
Tb95 O137 2.428 1_455 S
Tb95 O138 2.308 . S
Tb95 C159 2.802 1_455 S
N96 C92 1.361 . S
N96 Tb95 2.572 . S
N96 C98 1.340 . S
C97 C91 1.416 . S
C97 C99 1.332 . S
C97 H105 0.931 . S
C98 N96 1.340 . S
C98 C99 1.407 . S
C98 H104 0.930 . S
C99 C97 1.332 . S
C99 C98 1.407 . S
C99 H101 0.929 . S
H100 C89 0.930 . S
H101 C99 0.929 . S
H102 C117 0.930 . S
H103 C124 0.929 . S
H104 C98 0.930 . S
H105 C97 0.931 . S
H106 C120 0.930 . S
H107 C87 0.930 . S
H108 C93 0.929 . S
H109 C94 0.930 . S
H110 C115 0.930 . S
H111 C90 0.930 . S
H112 C123 0.931 . S
N113 Tb84 2.617 . S
N113 C114 1.379 . S
N113 C117 1.334 . S
C114 N113 1.379 . S
C114 C116 1.416 . S
C114 C122 1.424 . S
C115 H110 0.930 . S
C115 C117 1.390 . S
C115 C118 1.339 . S
C116 C114 1.416 . S
C116 C118 1.416 . S
C116 C149 1.448 . S
C117 H102 0.930 . S
C117 N113 1.334 . S
C117 C115 1.390 . S
C118 C115 1.339 . S
C118 C116 1.416 . S
C118 H125 0.930 . S
N119 Tb84 2.572 . S
N119 C120 1.340 . S
N119 C122 1.361 . S
C120 H106 0.930 . S
C120 N119 1.340 . S
C120 C124 1.407 . S
C121 C122 1.413 . S
C121 C123 1.416 . S
C121 C150 1.427 . S
C122 C114 1.424 . S
C122 N119 1.361 . S
C122 C121 1.413 . S
C123 H112 0.931 . S
C123 C121 1.416 . S
C123 C124 1.332 . S
C124 H103 0.929 . S
C124 C120 1.407 . S
C124 C123 1.332 . S
H125 C118 0.930 . S
H126 C149 0.930 . S
H127 C150 0.929 . S
O128 Tb84 2.465 1_455 S
O128 C148 1.264 . S
O129 Tb84 2.387 . S
O129 C140 1.264 1_545 S
O130 Tb95 2.349 1_655 S
O130 C140 1.243 . S
O131 Tb84 2.428 1_455 S
O131 C148 1.256 . S
O132 Tb84 2.308 . S
O132 C147 1.266 1_545 S
O133 Tb95 2.393 1_655 S
O133 C147 1.248 . S
O134 Tb95 2.465 1_655 S
O134 C159 1.264 . S
O135 Tb95 2.387 . S
O135 C151 1.264 1_565 S
O136 Tb84 2.349 1_455 S
O136 C151 1.243 . S
O137 Tb95 2.428 1_655 S
O137 C159 1.256 . S
O138 Tb95 2.308 . S
O138 C158 1.266 1_565 S
O139 Tb84 2.393 1_455 S
O139 C158 1.248 . S
C140 O129 1.264 1_565 S
C140 O130 1.243 . S
C141 C144 1.399 . S
C141 C146 1.383 . S
C141 C148 1.496 . S
C142 C143 1.399 . S
C142 C146 1.389 . S
C143 C142 1.399 . S
C143 C145 1.380 . S
C143 H160 0.929 . S
C144 C141 1.399 . S
C144 C145 1.392 . S
C144 H161 0.929 . S
C145 C143 1.380 . S
C145 C144 1.392 . S
C145 H162 0.929 . S
C146 C141 1.383 . S
C146 C142 1.389 . S
C146 H163 0.931 . S
C147 O132 1.266 1_565 S
C147 O133 1.248 . S
C148 Tb84 2.802 1_455 S
C148 O128 1.264 . S
C148 O131 1.256 . S
C148 C141 1.496 . S
C149 C116 1.448 . S
C149 H126 0.930 . S
C149 C150 1.328 . S
C150 C121 1.427 . S
C150 H127 0.929 . S
C150 C149 1.328 . S
C151 O135 1.264 1_545 S
C151 O136 1.243 . S
C152 C155 1.399 . S
C152 C156 1.383 . S
C152 C159 1.496 . S
C153 C154 1.399 . S
C153 C156 1.389 . S
C154 C153 1.399 . S
C154 C157 1.380 . S
C154 H164 0.929 . S
C155 C152 1.399 . S
C155 C157 1.392 . S
C155 H165 0.929 . S
C156 C152 1.383 . S
C156 C153 1.389 . S
C156 H166 0.931 . S
C157 C154 1.380 . S
C157 C155 1.392 . S
C157 H167 0.929 . S
C158 O138 1.266 1_545 S
C158 O139 1.248 . S
C159 Tb95 2.802 1_655 S
C159 O134 1.264 . S
C159 O137 1.256 . S
C159 C152 1.496 . S
H160 C143 0.929 . S
H161 C144 0.929 . S
H162 C145 0.929 . S
H163 C146 0.931 . S
H164 C154 0.929 . S
H165 C155 0.929 . S
H166 C156 0.931 . S
H167 C157 0.929 . S
Tb168 N197 2.617 . S
Tb168 N203 2.572 . S
Tb168 O212 2.465 . S
Tb168 O213 2.387 . S
Tb168 O215 2.428 . S
Tb168 O216 2.308 1_556 S
Tb168 O220 2.349 . S
Tb168 O223 2.393 . S
Tb168 C232 2.802 . S
C169 N170 1.379 . S
C169 C172 1.416 . S
C169 C176 1.424 . S
N170 C169 1.379 . S
N170 C173 1.334 . S
N170 Tb179 2.617 . S
C171 C173 1.390 . S
C171 C174 1.339 . S
C171 H191 0.930 . S
C172 C169 1.416 . S
C172 C174 1.416 . S
C172 C178 1.448 . S
C173 N170 1.334 . S
C173 C171 1.390 . S
C173 H184 0.930 . S
C174 C171 1.339 . S
C174 C172 1.416 . S
C174 H195 0.930 . S
C175 C176 1.413 . S
C175 C177 1.427 . S
C175 C181 1.416 . S
C176 C169 1.424 . S
C176 C175 1.413 . S
C176 N180 1.361 . S
C177 C175 1.427 . S
C177 C178 1.328 . S
C177 H192 0.929 . S
C178 C172 1.448 . S
C178 C177 1.328 . S
C178 H193 0.930 . S
Tb179 N170 2.617 . S
Tb179 N180 2.572 . S
Tb179 O214 2.349 . S
Tb179 O217 2.393 . S
Tb179 O218 2.465 . S
Tb179 O219 2.387 . S
Tb179 O221 2.428 . S
Tb179 O222 2.308 1_554 S
Tb179 C243 2.802 . S
N180 C176 1.361 . S
N180 Tb179 2.572 . S
N180 C182 1.340 1_554 S
C181 C175 1.416 . S
C181 C183 1.332 1_554 S
C181 H189 0.931 1_554 S
C182 N180 1.340 1_556 S
C182 C183 1.407 . S
C182 H188 0.930 . S
C183 C181 1.332 1_556 S
C183 C182 1.407 . S
C183 H185 0.929 . S
H184 C173 0.930 . S
H185 C183 0.929 . S
H186 C201 0.930 . S
H187 C208 0.929 . S
H188 C182 0.930 . S
H189 C181 0.931 1_556 S
H190 C204 0.930 . S
H191 C171 0.930 . S
H192 C177 0.929 . S
H193 C178 0.930 . S
H194 C199 0.930 . S
H195 C174 0.930 . S
H196 C207 0.924 1_554 S
N197 Tb168 2.617 . S
N197 C198 1.379 . S
N197 C201 1.334 . S
C198 N197 1.379 . S
C198 C200 1.416 . S
C198 C206 1.424 . S
C199 H194 0.930 . S
C199 C201 1.390 . S
C199 C202 1.339 . S
C200 C198 1.416 . S
C200 C202 1.416 . S
C200 C233 1.448 . S
C201 H186 0.930 . S
C201 N197 1.334 . S
C201 C199 1.390 . S
C202 C199 1.339 . S
C202 C200 1.416 . S
C202 H209 0.930 . S
N203 Tb168 2.572 . S
N203 C204 1.340 1_556 S
N203 C206 1.361 . S
C204 H190 0.930 . S
C204 N203 1.340 1_554 S
C204 C208 1.407 . S
C205 C206 1.413 . S
C205 C207 1.432 . S
C205 C234 1.427 . S
C206 C198 1.424 . S
C206 N203 1.361 . S
C206 C205 1.413 . S
C207 H196 0.924 1_556 S
C207 C205 1.432 . S
C207 C208 1.323 1_556 S
C208 H187 0.929 . S
C208 C204 1.407 . S
C208 C207 1.323 1_554 S
H209 C202 0.930 . S
H210 C233 0.930 . S
H211 C234 0.929 . S
O212 Tb168 2.465 . S
O212 C232 1.264 . S
O213 Tb168 2.387 . S
O213 C224 1.264 . S
O214 Tb179 2.349 . S
O214 C224 1.243 1_554 S
O215 Tb168 2.428 . S
O215 C232 1.256 . S
O216 Tb168 2.308 1_554 S
O216 C231 1.266 . S
O217 Tb179 2.393 . S
O217 C231 1.248 . S
O218 Tb179 2.465 . S
O218 C243 1.264 . S
O219 Tb179 2.387 . S
O219 C235 1.264 . S
O220 Tb168 2.349 . S
O220 C235 1.243 1_556 S
O221 Tb179 2.428 . S
O221 C243 1.256 . S
O222 Tb179 2.308 1_556 S
O222 C242 1.266 . S
O223 Tb168 2.393 . S
O223 C242 1.248 . S
C224 O213 1.264 . S
C224 O214 1.243 1_556 S
C225 C228 1.399 . S
C225 C230 1.383 . S
C225 C232 1.496 . S
C226 C227 1.399 . S
C226 C230 1.389 . S
C227 C226 1.399 . S
C227 C229 1.380 . S
C227 H244 0.929 . S
C228 C225 1.399 . S
C228 C229 1.392 . S
C228 H245 0.929 . S
C229 C227 1.380 . S
C229 C228 1.392 . S
C229 H246 0.929 . S
C230 C225 1.383 . S
C230 C226 1.389 . S
C230 H247 0.931 1_556 S
C231 O216 1.266 . S
C231 O217 1.248 . S
C232 Tb168 2.802 . S
C232 O212 1.264 . S
C232 O215 1.256 . S
C232 C225 1.496 . S
C233 C200 1.448 . S
C233 H210 0.930 . S
C233 C234 1.328 . S
C234 C205 1.427 . S
C234 H211 0.929 . S
C234 C233 1.328 . S
C235 O219 1.264 . S
C235 O220 1.243 1_554 S
C236 C239 1.399 . S
C236 C240 1.383 . S
C236 C243 1.496 . S
C237 C238 1.399 . S
C237 C240 1.389 . S
C238 C237 1.399 . S
C238 C241 1.380 . S
C238 H248 0.929 . S
C239 C236 1.399 . S
C239 C241 1.392 . S
C239 H249 0.929 . S
C240 C236 1.383 . S
C240 C237 1.389 . S
C240 H250 0.931 1_554 S
C241 C238 1.380 . S
C241 C239 1.392 . S
C241 H251 0.929 . S
C242 O222 1.266 . S
C242 O223 1.248 . S
C243 Tb179 2.802 . S
C243 O218 1.264 . S
C243 O221 1.256 . S
C243 C236 1.496 . S
H244 C227 0.929 . S
H245 C228 0.929 . S
H246 C229 0.929 . S
H247 C230 0.931 1_554 S
H248 C238 0.929 . S
H249 C239 0.929 . S
H250 C240 0.931 1_556 S
H251 C241 0.929 . S
Tb252 N281 2.617 . S
Tb252 N287 2.572 . S
Tb252 O296 2.465 . S
Tb252 O297 2.387 . S
Tb252 O299 2.428 . S
Tb252 O300 2.308 . S
Tb252 O304 2.349 . S
Tb252 O307 2.393 . S
Tb252 C316 2.802 . S
C253 N254 1.379 . S
C253 C256 1.416 . S
C253 C260 1.424 . S
N254 C253 1.379 . S
N254 C257 1.334 . S
N254 Tb263 2.617 . S
C255 C257 1.390 . S
C255 C258 1.339 . S
C255 H275 0.930 . S
C256 C253 1.416 . S
C256 C258 1.416 . S
C256 C262 1.448 . S
C257 N254 1.334 . S
C257 C255 1.390 . S
C257 H268 0.930 . S
C258 C255 1.339 . S
C258 C256 1.416 . S
C258 H279 0.930 . S
C259 C260 1.413 . S
C259 C261 1.427 . S
C259 C265 1.416 . S
C260 C253 1.424 . S
C260 C259 1.413 . S
C260 N264 1.361 . S
C261 C259 1.427 . S
C261 C262 1.328 . S
C261 H276 0.929 . S
C262 C256 1.448 . S
C262 C261 1.328 . S
C262 H277 0.930 . S
Tb263 N254 2.617 . S
Tb263 N264 2.572 . S
Tb263 O298 2.349 . S
Tb263 O301 2.393 . S
Tb263 O302 2.465 . S
Tb263 O303 2.387 . S
Tb263 O305 2.428 . S
Tb263 O306 2.308 . S
Tb263 C327 2.802 . S
N264 C260 1.361 . S
N264 Tb263 2.572 . S
N264 C266 1.340 . S
C265 C259 1.416 . S
C265 C267 1.332 . S
C265 H273 0.931 . S
C266 N264 1.340 . S
C266 C267 1.407 . S
C266 H272 0.930 . S
C267 C265 1.332 . S
C267 C266 1.407 . S
C267 H269 0.929 . S
H268 C257 0.930 . S
H269 C267 0.929 . S
H270 C285 0.930 . S
H271 C292 0.929 . S
H272 C266 0.930 . S
H273 C265 0.931 . S
H274 C288 0.930 . S
H275 C255 0.930 . S
H276 C261 0.929 . S
H277 C262 0.930 . S
H278 C283 0.930 . S
H279 C258 0.930 . S
H280 C291 0.931 . S
N281 Tb252 2.617 . S
N281 C282 1.379 . S
N281 C285 1.334 . S
C282 N281 1.379 . S
C282 C284 1.416 . S
C282 C290 1.424 . S
C283 H278 0.930 . S
C283 C285 1.390 . S
C283 C286 1.339 . S
C284 C282 1.416 . S
C284 C286 1.416 . S
C284 C317 1.448 . S
C285 H270 0.930 . S
C285 N281 1.334 . S
C285 C283 1.390 . S
C286 C283 1.339 . S
C286 C284 1.416 . S
C286 H293 0.930 . S
N287 Tb252 2.572 . S
N287 C288 1.340 . S
N287 C290 1.361 . S
C288 H274 0.930 . S
C288 N287 1.340 . S
C288 C292 1.407 . S
C289 C290 1.413 . S
C289 C291 1.416 . S
C289 C318 1.427 . S
C290 C282 1.424 . S
C290 N287 1.361 . S
C290 C289 1.413 . S
C291 H280 0.931 . S
C291 C289 1.416 . S
C291 C292 1.332 . S
C292 H271 0.929 . S
C292 C288 1.407 . S
C292 C291 1.332 . S
H293 C286 0.930 . S
H294 C317 0.930 . S
H295 C318 0.929 . S
O296 Tb252 2.465 . S
O296 C316 1.264 . S
O297 Tb252 2.387 . S
O297 C308 1.264 . S
O298 Tb263 2.349 . S
O298 C308 1.243 . S
O299 Tb252 2.428 . S
O299 C316 1.256 . S
O300 Tb252 2.308 . S
O300 C315 1.266 . S
O301 Tb263 2.393 . S
O301 C315 1.248 . S
O302 Tb263 2.465 . S
O302 C327 1.264 . S
O303 Tb263 2.387 . S
O303 C319 1.264 . S
O304 Tb252 2.349 . S
O304 C319 1.243 . S
O305 Tb263 2.428 . S
O305 C327 1.256 . S
O306 Tb263 2.308 . S
O306 C326 1.266 . S
O307 Tb252 2.393 . S
O307 C326 1.248 . S
C308 O297 1.264 . S
C308 O298 1.243 . S
C309 C312 1.399 . S
C309 C314 1.383 . S
C309 C316 1.496 . S
C310 C311 1.399 . S
C310 C314 1.389 . S
C311 C310 1.399 . S
C311 C313 1.380 . S
C311 H328 0.929 . S
C312 C309 1.399 . S
C312 C313 1.392 . S
C312 H329 0.929 . S
C313 C311 1.380 . S
C313 C312 1.392 . S
C313 H330 0.929 . S
C314 C309 1.383 . S
C314 C310 1.389 . S
C314 H331 0.931 . S
C315 O300 1.266 . S
C315 O301 1.248 . S
C316 Tb252 2.802 . S
C316 O296 1.264 . S
C316 O299 1.256 . S
C316 C309 1.496 . S
C317 C284 1.448 . S
C317 H294 0.930 . S
C317 C318 1.328 . S
C318 C289 1.427 . S
C318 H295 0.929 . S
C318 C317 1.328 . S
C319 O303 1.264 . S
C319 O304 1.243 . S
C320 C323 1.399 . S
C320 C324 1.383 . S
C320 C327 1.496 . S
C321 C322 1.399 . S
C321 C324 1.389 . S
C322 C321 1.399 . S
C322 C325 1.380 . S
C322 H332 0.929 . S
C323 C320 1.399 . S
C323 C325 1.392 . S
C323 H333 0.929 . S
C324 C320 1.383 . S
C324 C321 1.389 . S
C324 H334 0.931 . S
C325 C322 1.380 . S
C325 C323 1.392 . S
C325 H335 0.929 . S
C326 O306 1.266 . S
C326 O307 1.248 . S
C327 Tb263 2.802 . S
C327 O302 1.264 . S
C327 O305 1.256 . S
C327 C320 1.496 . S
H328 C311 0.929 . S
H329 C312 0.929 . S
H330 C313 0.929 . S
H331 C314 0.931 . S
H332 C322 0.929 . S
H333 C323 0.929 . S
H334 C324 0.931 . S
H335 C325 0.929 . S
H336 C342 0.930 . S
H337 C346 0.930 . S
H338 C351 0.929 . S
H339 C349 0.929 . S
H340 C344 0.929 . S
H341 C350 0.929 . S
C342 H336 0.930 . S
C342 C343 1.367 . S
C342 C350 1.378 . S
C343 C342 1.367 . S
C343 C351 1.433 1_556 S
C344 H340 0.929 . S
C344 C346 1.378 . S
C344 C348 1.350 . S
C345 C348 1.471 1_556 S
C345 C350 1.352 . S
C345 N353 1.416 1_556 S
C346 H337 0.930 . S
C346 C344 1.378 . S
C346 C347 1.367 . S
C347 C346 1.367 . S
C347 C349 1.433 1_554 S
C348 C344 1.350 . S
C348 C345 1.471 1_554 S
C348 N352 1.427 1_554 S
C349 H339 0.929 . S
C349 C347 1.433 1_556 S
C349 N352 1.384 . S
C350 H341 0.929 . S
C350 C342 1.378 . S
C350 C345 1.352 . S
C351 H338 0.929 . S
C351 C343 1.433 1_554 S
C351 N353 1.384 . S
N352 C348 1.427 1_556 S
N352 C349 1.384 . S
N353 C345 1.416 1_554 S
N353 C351 1.384 . S
H354 C360 0.930 . S
H355 C364 0.930 . S
H356 C369 0.929 . S
H357 C367 0.929 . S
H358 C362 0.929 . S
H359 C368 0.929 . S
C360 H354 0.930 . S
C360 C361 1.367 1_556 S
C360 C368 1.378 . S
C361 C360 1.367 1_554 S
C361 C369 1.433 . S
C362 H358 0.929 . S
C362 C364 1.378 . S
C362 C366 1.352 . S
C363 C366 1.464 . S
C363 C368 1.346 1_554 S
C363 N371 1.428 . S
C364 H355 0.930 . S
C364 C362 1.378 . S
C364 C365 1.367 1_554 S
C365 C364 1.367 1_556 S
C365 C367 1.433 . S
C366 C362 1.352 . S
C366 C363 1.464 . S
C366 N370 1.427 1_554 S
C367 H357 0.929 . S
C367 C365 1.433 . S
C367 N370 1.384 . S
C368 H359 0.929 . S
C368 C360 1.378 . S
C368 C363 1.346 1_556 S
C369 H356 0.929 . S
C369 C361 1.433 . S
C369 N371 1.384 . S
N370 C366 1.427 1_556 S
N370 C367 1.384 . S
N371 C363 1.428 . S
N371 C369 1.384 . S
H372 C378 0.930 . S
H373 C382 0.930 . S
H374 C387 0.929 . S
H375 C385 0.929 . S
H376 C380 0.929 . S
H377 C386 0.929 . S
C378 H372 0.930 . S
C378 C379 1.367 . S
C378 C386 1.378 . S
C379 C378 1.367 . S
C379 C387 1.433 . S
C380 H376 0.929 . S
C380 C382 1.378 . S
C380 C384 1.350 . S
C381 C384 1.463 . S
C381 C386 1.350 . S
C381 N389 1.427 . S
C382 H373 0.930 . S
C382 C380 1.378 . S
C382 C383 1.367 . S
C383 C382 1.367 . S
C383 C385 1.433 . S
C384 C380 1.350 . S
C384 C381 1.463 . S
C384 N388 1.427 . S
C385 H375 0.929 . S
C385 C383 1.433 . S
C385 N388 1.384 . S
C386 H377 0.929 . S
C386 C378 1.378 . S
C386 C381 1.350 . S
C387 H374 0.929 . S
C387 C379 1.433 . S
C387 N389 1.384 . S
N388 C384 1.427 . S
N388 C385 1.384 . S
N389 C381 1.427 . S
N389 C387 1.384 . S
H390 C396 0.930 . S
H391 C400 0.930 . S
H392 C405 0.929 . S
H393 C403 0.929 . S
H394 C398 0.929 . S
H395 C404 0.929 . S
C396 H390 0.930 . S
C396 C397 1.367 . S
C396 C404 1.378 . S
C397 C396 1.367 . S
C397 C405 1.433 . S
C398 H394 0.929 . S
C398 C400 1.378 . S
C398 C402 1.350 . S
C399 C402 1.463 . S
C399 C404 1.350 . S
C399 N407 1.427 . S
C400 H391 0.930 . S
C400 C398 1.378 . S
C400 C401 1.367 . S
C401 C400 1.367 . S
C401 C403 1.433 . S
C402 C398 1.350 . S
C402 C399 1.463 . S
C402 N406 1.427 . S
C403 H393 0.929 . S
C403 C401 1.433 . S
C403 N406 1.384 . S
C404 H395 0.929 . S
C404 C396 1.378 . S
C404 C399 1.350 . S
C405 H392 0.929 . S
C405 C397 1.433 . S
C405 N407 1.384 . S
N406 C402 1.427 . S
N406 C403 1.384 . S
N407 C399 1.427 . S
N407 C405 1.384 . S
H408 C414 0.930 . S
H409 C418 0.930 . S
H410 C423 0.929 . S
H411 C421 0.929 . S
H412 C416 0.929 . S
H413 C422 0.929 . S
C414 H408 0.930 . S
C414 C415 1.367 1_545 S
C414 C422 1.378 . S
C415 C414 1.367 1_565 S
C415 C423 1.433 1_556 S
C416 H412 0.929 . S
C416 C418 1.378 . S
C416 C420 1.331 1_565 S
C417 C420 1.463 1_566 S
C417 C422 1.344 1_565 S
C417 N425 1.434 1_556 S
C418 H409 0.930 . S
C418 C416 1.378 . S
C418 C419 1.367 1_565 S
C419 C418 1.367 1_545 S
C419 C421 1.433 1_554 S
C420 C416 1.331 1_545 S
C420 C417 1.463 1_544 S
C420 N424 1.449 1_554 S
C421 H411 0.929 . S
C421 C419 1.433 1_556 S
C421 N424 1.384 . S
C422 H413 0.929 . S
C422 C414 1.378 . S
C422 C417 1.344 1_545 S
C423 H410 0.929 . S
C423 C415 1.433 1_554 S
C423 N425 1.384 . S
N424 C420 1.449 1_556 S
N424 C421 1.384 . S
N425 C417 1.434 1_554 S
N425 C423 1.384 . S
H426 C432 0.930 . S
H427 C436 0.930 . S
H428 C441 0.929 . S
H429 C439 0.929 . S
H430 C434 0.929 . S
H431 C440 0.929 . S
C432 H426 0.930 . S
C432 C433 1.367 . S
C432 C440 1.378 . S
C433 C432 1.367 . S
C433 C441 1.433 1_545 S
C434 H430 0.929 . S
C434 C436 1.378 . S
C434 C438 1.369 . S
C435 C438 1.460 1_545 S
C435 C440 1.350 . S
C435 N443 1.427 1_545 S
C436 H427 0.930 . S
C436 C434 1.378 . S
C436 C437 1.367 . S
C437 C436 1.367 . S
C437 C439 1.433 1_565 S
C438 C434 1.369 . S
C438 C435 1.460 1_565 S
C438 N442 1.410 1_565 S
C439 H429 0.929 . S
C439 C437 1.433 1_545 S
C439 N442 1.384 . S
C440 H431 0.929 . S
C440 C432 1.378 . S
C440 C435 1.350 . S
C441 H428 0.929 . S
C441 C433 1.433 1_565 S
C441 N443 1.384 . S
N442 C438 1.410 1_545 S
N442 C439 1.384 . S
N443 C435 1.427 1_565 S
N443 C441 1.384 . S
H444 C450 0.930 . S
H445 C454 0.930 . S
H446 C459 0.929 . S
H447 C457 0.929 . S
H448 C452 0.929 . S
H449 C458 0.929 . S
C450 H444 0.930 . S
C450 C451 1.367 . S
C450 C458 1.378 . S
C451 C450 1.367 . S
C451 C459 1.433 1_556 S
C452 H448 0.929 . S
C452 C454 1.378 . S
C452 C456 1.350 . S
C453 C456 1.463 1_656 S
C453 C458 1.350 . S
C453 N461 1.427 1_556 S
C454 H445 0.930 . S
C454 C452 1.378 . S
C454 C455 1.367 . S
C455 C454 1.367 . S
C455 C457 1.433 1_554 S
C456 C452 1.350 . S
C456 C453 1.463 1_454 S
C456 N460 1.427 1_554 S
C457 H447 0.929 . S
C457 C455 1.433 1_556 S
C457 N460 1.384 . S
C458 H449 0.929 . S
C458 C450 1.378 . S
C458 C453 1.350 . S
C459 H446 0.929 . S
C459 C451 1.433 1_554 S
C459 N461 1.384 . S
N460 C456 1.427 1_556 S
N460 C457 1.384 . S
N461 C453 1.427 1_554 S
N461 C459 1.384 . S
H462 C468 0.930 . S
H463 C472 0.930 . S
H464 C477 0.929 . S
H465 C475 0.929 . S
H466 C470 0.929 . S
H467 C476 0.929 . S
C468 H462 0.930 . S
C468 C469 1.367 . S
C468 C476 1.378 . S
C469 C468 1.367 . S
C469 C477 1.433 . S
C470 H466 0.929 . S
C470 C472 1.378 . S
C470 C474 1.350 . S
C471 C474 1.463 1_455 S
C471 C476 1.350 . S
C471 N479 1.427 . S
C472 H463 0.930 . S
C472 C470 1.378 . S
C472 C473 1.367 . S
C473 C472 1.367 . S
C473 C475 1.433 . S
C474 C470 1.350 . S
C474 C471 1.463 1_655 S
C474 N478 1.427 . S
C475 H465 0.929 . S
C475 C473 1.433 . S
C475 N478 1.384 . S
C476 H467 0.929 . S
C476 C468 1.378 . S
C476 C471 1.350 . S
C477 H464 0.929 . S
C477 C469 1.433 . S
C477 N479 1.384 . S
N478 C474 1.427 . S
N478 C475 1.384 . S
N479 C471 1.427 . S
N479 C477 1.384 . S
H480 C486 0.930 . S
H481 C490 0.930 . S
H482 C495 0.929 . S
H483 C493 0.929 . S
H484 C488 0.929 . S
H485 C494 0.929 . S
C486 H480 0.930 . S
C486 C487 1.367 . S
C486 C494 1.378 . S
C487 C486 1.367 . S
C487 C495 1.433 1_645 S
C488 H484 0.929 . S
C488 C490 1.378 . S
C488 C492 1.369 1_455 S
C489 C492 1.475 1_545 S
C489 C494 1.351 . S
C489 N497 1.427 1_645 S
C490 H481 0.930 . S
C490 C488 1.378 . S
C490 C491 1.402 1_455 S
C491 C490 1.402 1_655 S
C491 C493 1.413 1_565 S
C492 C488 1.369 1_655 S
C492 C489 1.475 1_565 S
C492 N496 1.395 1_565 S
C493 H483 0.929 . S
C493 C491 1.413 1_545 S
C493 N496 1.384 . S
C494 H485 0.929 . S
C494 C486 1.378 . S
C494 C489 1.351 . S
C495 H482 0.929 . S
C495 C487 1.433 1_465 S
C495 N497 1.384 . S
N496 C492 1.395 1_545 S
N496 C493 1.384 . S
N497 C489 1.427 1_465 S
N497 C495 1.384 . S
H498 C504 0.930 . S
H499 C508 0.930 . S
H500 C513 0.929 . S
H501 C511 0.929 . S
H502 C506 0.929 . S
H503 C512 0.929 . S
C504 H498 0.930 . S
C504 C505 1.369 1_565 S
C504 C512 1.378 . S
C505 C504 1.369 1_545 S
C505 C513 1.437 1_655 S
C506 H502 0.929 . S
C506 C508 1.378 . S
C506 C510 1.367 . S
C507 C510 1.450 1_665 S
C507 C512 1.351 . S
C507 N515 1.427 1_665 S
C508 H499 0.930 . S
C508 C506 1.378 . S
C508 C509 1.367 . S
C509 C508 1.367 . S
C509 C511 1.432 1_445 S
C510 C506 1.367 . S
C510 C507 1.450 1_445 S
C510 N514 1.422 1_445 S
C511 H501 0.929 . S
C511 C509 1.432 1_665 S
C511 N514 1.384 . S
C512 H503 0.929 . S
C512 C504 1.378 . S
C512 C507 1.351 . S
C513 H500 0.929 . S
C513 C505 1.437 1_455 S
C513 N515 1.384 . S
N514 C510 1.422 1_665 S
N514 C511 1.384 . S
N515 C507 1.427 1_445 S
N515 C513 1.384 . S
H516 C522 0.930 . S
H517 C526 0.930 . S
H518 C531 0.929 . S
H519 C529 0.929 . S
H520 C524 0.929 . S
H521 C530 0.929 . S
C522 H516 0.930 . S
C522 C523 1.367 . S
C522 C530 1.378 . S
C523 C522 1.367 . S
C523 C531 1.433 . S
C524 H520 0.929 . S
C524 C526 1.378 . S
C524 C528 1.350 . S
C525 C528 1.463 . S
C525 C530 1.350 . S
C525 N533 1.427 . S
C526 H517 0.930 . S
C526 C524 1.378 . S
C526 C527 1.367 . S
C527 C526 1.367 . S
C527 C529 1.433 . S
C528 C524 1.350 . S
C528 C525 1.463 . S
C528 N532 1.427 . S
C529 H519 0.929 . S
C529 C527 1.433 . S
C529 N532 1.384 . S
C530 H521 0.929 . S
C530 C522 1.378 . S
C530 C525 1.350 . S
C531 H518 0.929 . S
C531 C523 1.433 . S
C531 N533 1.384 . S
N532 C528 1.427 . S
N532 C529 1.384 . S
N533 C525 1.427 . S
N533 C531 1.384 . S
H534 C540 0.930 . S
H535 C544 0.930 . S
H536 C549 0.929 . S
H537 C547 0.929 . S
H538 C542 0.929 . S
H539 C548 0.929 . S
C540 H534 0.930 . S
C540 C541 1.367 . S
C540 C548 1.378 . S
C541 C540 1.367 . S
C541 C549 1.433 . S
C542 H538 0.929 . S
C542 C544 1.378 . S
C542 C546 1.350 . S
C543 C546 1.463 . S
C543 C548 1.350 . S
C543 N551 1.427 . S
C544 H535 0.930 . S
C544 C542 1.378 . S
C544 C545 1.367 . S
C545 C544 1.367 . S
C545 C547 1.433 . S
C546 C542 1.350 . S
C546 C543 1.463 . S
C546 N550 1.427 . S
C547 H537 0.929 . S
C547 C545 1.433 . S
C547 N550 1.384 . S
C548 H539 0.929 . S
C548 C540 1.378 . S
C548 C543 1.350 . S
C549 H536 0.929 . S
C549 C541 1.433 . S
C549 N551 1.384 . S
N550 C546 1.427 . S
N550 C547 1.384 . S
N551 C543 1.427 . S
N551 C549 1.384 . S
C343 C237 1.414 1_556 S
C347 C58 1.414 1_554 S
C361 C226 1.406 1_554 S
C365 C69 1.406 1_556 S
C379 C142 1.399 . S
C383 C321 1.399 . S
C397 C153 1.399 . S
C401 C310 1.399 . S
C415 C67 1.970 1_556 S
C419 C56 1.970 1_554 S
C433 C151 1.968 . S
C437 C140 1.968 . S
C451 C235 1.971 1_556 S
C455 C224 1.971 1_554 S
C469 C308 1.971 . S
C473 C319 1.971 . S
C487 C147 1.484 1_545 S
C491 C63 1.464 1_565 S
C505 C74 1.472 1_645 S
C509 C158 1.476 . S
C523 C315 1.475 . S
C527 C231 1.476 . S
C541 C326 1.478 . S
C545 C242 1.474 . S
