# Generated by pormake.
# Topology umj, (4)-cn, num edge types: 1
# Building blocks:
#     Node 0, Type 0, BuildingBlock: MUDLON_clean_sbu_0, # of connection points: 4
#     Node 1, Type 0, BuildingBlock: MUDLON_clean_sbu_0, # of connection points: 4
#     Node 2, Type 0, BuildingBlock: MUDLON_clean_sbu_0, # of connection points: 4
#     Node 3, Type 0, BuildingBlock: MUDLON_clean_sbu_0, # of connection points: 4
#     Node 4, Type 0, BuildingBlock: MUDLON_clean_sbu_0, # of connection points: 4
#     Node 5, Type 0, BuildingBlock: MUDLON_clean_sbu_0, # of connection points: 4
#     Node 6, Type 0, BuildingBlock: MUDLON_clean_sbu_0, # of connection points: 4
#     Node 7, Type 0, BuildingBlock: MUDLON_clean_sbu_0, # of connection points: 4
#     Node 8, Type 0, BuildingBlock: MUDLON_clean_sbu_0, # of connection points: 4
#     Node 9, Type 0, BuildingBlock: MUDLON_clean_sbu_0, # of connection points: 4
#     Node 10, Type 0, BuildingBlock: MUDLON_clean_sbu_0, # of connection points: 4
#     Node 11, Type 0, BuildingBlock: MUDLON_clean_sbu_0, # of connection points: 4
#     Edge 12, Type (0, 0), BuildingBlock: AJUNOK_clean_linker_0, # of connection points: 2
#     Edge 13, Type (0, 0), BuildingBlock: AJUNOK_clean_linker_0, # of connection points: 2
#     Edge 14, Type (0, 0), BuildingBlock: AJUNOK_clean_linker_0, # of connection points: 2
#     Edge 15, Type (0, 0), BuildingBlock: AJUNOK_clean_linker_0, # of connection points: 2
#     Edge 16, Type (0, 0), BuildingBlock: AJUNOK_clean_linker_0, # of connection points: 2
#     Edge 17, Type (0, 0), BuildingBlock: AJUNOK_clean_linker_0, # of connection points: 2
#     Edge 18, Type (0, 0), BuildingBlock: AJUNOK_clean_linker_0, # of connection points: 2
#     Edge 19, Type (0, 0), BuildingBlock: AJUNOK_clean_linker_0, # of connection points: 2
#     Edge 20, Type (0, 0), BuildingBlock: AJUNOK_clean_linker_0, # of connection points: 2
#     Edge 21, Type (0, 0), BuildingBlock: AJUNOK_clean_linker_0, # of connection points: 2
#     Edge 22, Type (0, 0), BuildingBlock: AJUNOK_clean_linker_0, # of connection points: 2
#     Edge 23, Type (0, 0), BuildingBlock: AJUNOK_clean_linker_0, # of connection points: 2
#     Edge 24, Type (0, 0), BuildingBlock: AJUNOK_clean_linker_0, # of connection points: 2
#     Edge 25, Type (0, 0), BuildingBlock: AJUNOK_clean_linker_0, # of connection points: 2
#     Edge 26, Type (0, 0), BuildingBlock: AJUNOK_clean_linker_0, # of connection points: 2
#     Edge 27, Type (0, 0), BuildingBlock: AJUNOK_clean_linker_0, # of connection points: 2
#     Edge 28, Type (0, 0), BuildingBlock: AJUNOK_clean_linker_0, # of connection points: 2
#     Edge 29, Type (0, 0), BuildingBlock: AJUNOK_clean_linker_0, # of connection points: 2
#     Edge 30, Type (0, 0), BuildingBlock: AJUNOK_clean_linker_0, # of connection points: 2
#     Edge 31, Type (0, 0), BuildingBlock: AJUNOK_clean_linker_0, # of connection points: 2
#     Edge 32, Type (0, 0), BuildingBlock: AJUNOK_clean_linker_0, # of connection points: 2
#     Edge 33, Type (0, 0), BuildingBlock: AJUNOK_clean_linker_0, # of connection points: 2
#     Edge 34, Type (0, 0), BuildingBlock: AJUNOK_clean_linker_0, # of connection points: 2
#     Edge 35, Type (0, 0), BuildingBlock: AJUNOK_clean_linker_0, # of connection points: 2
# Relax obj value: 0.016
# Max RMSD: 0.120
# Mean RMSD: 0.120
data_MOF--net-umj--node1-MUDLON_clean_sbu_0--edge1-AJUNOK_clean_linker_0
_symmetry_space_group_name_H-M    P1
_symmetry_Int_Tables_number       1
_symmetry_cell_setting            triclinic
loop_
_symmetry_equiv_pos_as_xyz
'x, y, z'
_cell_length_a     22.698761
_cell_length_b     22.691187
_cell_length_c     65.041266
_cell_angle_alpha  90.028205
_cell_angle_beta   90.014431
_cell_angle_gamma 120.01792
loop_
_atom_site_label
_atom_site_type_symbol
_atom_site_fract_x
_atom_site_fract_y
_atom_site_fract_z
_atom_type_partial_charge
Mg0 Mg 0.05451 0.27717 0.10339 0.0
C1 C 0.01633 0.25633 0.14565 0.0
O2 O 0.9605 0.22898 0.13453 0.0
C3 C 0.10815 0.32536 0.06316 0.0
O4 O 0.04282 0.30469 0.06253 0.0
C5 C 0.0442 0.39737 0.10198 0.0
O6 O 0.1078 0.41578 0.10613 0.0
O7 O 1.00184 0.33416 0.09963 0.0
O8 O 0.07327 0.2845 0.13625 0.0
O9 O 1.00857 0.16886 0.09702 0.0
C10 C 0.05398 0.15142 0.09655 0.0
O11 O 0.1177 0.19893 0.09929 0.0
O12 O 0.13393 0.32269 0.08031 0.0
Mg13 Mg 0.78767 0.05227 0.43715 0.0
C14 C 0.77297 0.01916 0.48002 0.0
O15 O 0.74191 0.96144 0.46981 0.0
C16 C 0.79486 0.10488 0.39661 0.0
O17 O 0.74848 0.04002 0.39614 0.0
C18 C 0.65753 0.04404 0.43564 0.0
O19 O 0.70306 0.10791 0.43935 0.0
O20 O 0.67801 1.0013 0.43364 0.0
O21 O 0.80164 0.07445 0.46978 0.0
O22 O 0.84653 1.00248 0.4312 0.0
C23 C 0.91012 0.04544 0.4316 0.0
O24 O 0.92932 0.10976 0.43483 0.0
O25 O 0.82369 0.13062 0.41372 0.0
Mg26 Mg 0.74519 0.78511 0.77032 0.0
C27 C 0.7632 0.77096 0.81332 0.0
O28 O 0.79088 0.74058 0.8033 0.0
C29 C 0.7002 0.79255 0.72967 0.0
O30 O 0.7216 0.74844 0.72894 0.0
C31 C 0.62532 0.65421 0.76858 0.0
O32 O 0.6063 0.69926 0.77219 0.0
O33 O 0.68871 0.67537 0.76668 0.0
O34 O 0.73593 0.79862 0.80292 0.0
O35 O 0.85369 0.84751 0.76444 0.0
C36 C 0.87118 0.91041 0.76419 0.0
O37 O 0.82361 0.92654 0.76687 0.0
O38 O 0.70069 0.8191 0.74698 0.0
Mg39 Mg 0.97181 0.73611 0.10323 0.0
C40 C 1.01074 0.75836 0.14541 0.0
O41 O 0.06625 0.78317 0.13422 0.0
C42 C 0.91791 0.69223 0.06288 0.0
O43 O 0.98265 0.71035 0.06237 0.0
C44 C 0.97329 0.61104 0.10091 0.0
O45 O 0.9102 0.59589 0.10433 0.0
O46 O 0.01879 0.67366 0.09952 0.0
O47 O 0.95363 0.73116 0.1361 0.0
O48 O 0.02303 0.84462 0.09679 0.0
C49 C 0.98034 0.86555 0.09749 0.0
O50 O 0.91629 0.82074 0.10121 0.0
O51 O 0.89238 0.69505 0.08006 0.0
Mg52 Mg 0.24512 0.9677 0.43677 0.0
C53 C 0.25485 0.99955 0.47975 0.0
O54 O 0.2826 0.05762 0.46973 0.0
C55 C 0.23795 0.91534 0.39609 0.0
O56 O 0.2844 0.98017 0.39568 0.0
C57 C 0.3726 0.97208 0.43489 0.0
O58 O 0.32501 0.90873 0.43819 0.0
O59 O 0.35489 0.01714 0.4335 0.0
O60 O 0.23023 0.94466 0.46933 0.0
O61 O 0.18484 0.01617 0.43086 0.0
C62 C 0.12181 0.97115 0.43084 0.0
O63 O 0.10525 0.90744 0.43383 0.0
O64 O 0.20915 0.88954 0.41319 0.0
Mg65 Mg 0.28735 0.24229 0.7704 0.0
C66 C 0.26758 0.256 0.81336 0.0
O67 O 0.24215 0.28834 0.80326 0.0
C68 C 0.33043 0.22885 0.7299 0.0
O69 O 0.3167 0.27856 0.72882 0.0
C70 C 0.41288 0.36883 0.768 0.0
O71 O 0.42809 0.3209 0.77137 0.0
O72 O 0.35025 0.35162 0.76663 0.0
O73 O 0.29398 0.22728 0.80304 0.0
O74 O 0.17858 0.18581 0.76439 0.0
C75 C 0.15726 0.12208 0.76514 0.0
O76 O 0.20184 0.10247 0.76873 0.0
O77 O 0.32628 0.20157 0.74736 0.0
Mg78 Mg 0.73583 0.96612 0.61178 0.0
C79 C 0.76358 1.00515 0.56968 0.0
O80 O 0.79122 0.06075 0.58092 0.0
C81 C 0.69146 0.91164 0.65205 0.0
O82 O 0.70846 0.9761 0.6526 0.0
C83 C 0.61035 0.9671 0.61395 0.0
O84 O 0.59532 0.90405 0.61048 0.0
O85 O 0.67294 0.01268 0.61538 0.0
O86 O 0.73199 0.94801 0.57892 0.0
O87 O 0.8443 0.01781 0.61832 0.0
C88 C 0.86541 0.97523 0.61779 0.0
O89 O 0.82067 0.91093 0.61434 0.0
O90 O 0.6951 0.8865 0.63488 0.0
Mg91 Mg 0.78674 0.74414 0.94532 0.0
C92 C 0.77144 0.76783 0.90305 0.0
O93 O 0.74462 0.79677 0.91418 0.0
C94 C 0.79603 0.69818 0.9855 0.0
O95 O 0.75179 0.71936 0.98651 0.0
C96 C 0.65648 0.62361 0.94714 0.0
O97 O 0.70166 0.60529 0.94288 0.0
O98 O 0.67727 0.68682 0.94944 0.0
O99 O 0.79786 0.7373 0.91242 0.0
O100 O 0.84901 0.85237 0.95181 0.0
C101 C 0.91189 0.86986 0.95212 0.0
O102 O 0.9281 0.82245 0.94916 0.0
O103 O 0.82199 0.69894 0.96806 0.0
Mg104 Mg 0.05758 0.78359 0.27806 0.0
C105 C 0.02425 0.77094 0.2351 0.0
O106 O 0.96649 0.74479 0.24523 0.0
C107 C 0.11158 0.79265 0.31857 0.0
O108 O 0.04632 0.74769 0.31946 0.0
C109 C 0.04722 0.65304 0.27989 0.0
O110 O 0.11094 0.69813 0.27585 0.0
O111 O 1.00493 0.67402 0.28202 0.0
O112 O 0.07933 0.79568 0.2454 0.0
O113 O 1.01119 0.84576 0.28393 0.0
C114 C 0.05648 0.90871 0.28417 0.0
O115 O 0.1202 0.92502 0.28141 0.0
O116 O 0.13692 0.81893 0.30118 0.0
Mg117 Mg 0.27675 0.04864 0.61175 0.0
C118 C 0.25804 0.01087 0.56947 0.0
O119 O 0.23061 0.95499 0.58055 0.0
C120 C 0.31855 0.09843 0.65237 0.0
O121 O 0.29335 0.03221 0.65255 0.0
C122 C 0.39681 0.0383 0.61384 0.0
O123 O 0.41544 0.10219 0.61007 0.0
O124 O 0.33349 0.99577 0.61576 0.0
O125 O 0.28546 0.0678 0.5789 0.0
O126 O 0.16833 1.00305 0.61774 0.0
C127 C 0.15119 0.04871 0.61769 0.0
O128 O 0.19895 0.11212 0.61461 0.0
O129 O 0.32124 0.12691 0.63523 0.0
Mg130 Mg 0.2453 0.28492 0.94528 0.0
C131 C 0.2577 0.25858 0.90305 0.0
O132 O 0.28499 0.23011 0.91418 0.0
C133 C 0.23281 0.32706 0.98562 0.0
O134 O 0.27898 0.30833 0.9864 0.0
C135 C 0.37185 0.40996 0.9481 0.0
O136 O 0.32403 0.42534 0.94477 0.0
O137 O 0.35462 0.34726 0.94924 0.0
O138 O 0.23206 0.28987 0.91241 0.0
O139 O 0.18785 0.17648 0.95183 0.0
C140 C 0.12423 0.1556 0.95114 0.0
O141 O 0.10504 0.2004 0.94734 0.0
O142 O 0.20631 0.32591 0.96824 0.0
Mg143 Mg 0.97281 0.2411 0.27835 0.0
C144 C 1.00513 0.25162 0.23537 0.0
O145 O 0.0632 0.27995 0.2454 0.0
C146 C 0.91954 0.22866 0.31903 0.0
O147 O 0.98434 0.27522 0.31978 0.0
C148 C 0.97483 0.36791 0.28118 0.0
O149 O 0.91136 0.32008 0.27821 0.0
O150 O 0.02021 0.35054 0.28209 0.0
O151 O 0.95022 0.22637 0.24576 0.0
O152 O 0.0245 0.18396 0.2842 0.0
C153 C 0.98196 0.12027 0.28349 0.0
O154 O 0.91771 0.10078 0.28002 0.0
O155 O 0.89409 0.20211 0.30167 0.0
C156 C 0.0681 0.27796 0.20197 0.0
C157 C 1.00558 0.25105 0.21252 0.0
C158 C 0.07118 0.27949 0.18044 0.0
C159 C 1.01186 0.25411 0.16848 0.0
H160 H 0.11551 0.29829 0.21039 0.0
H161 H 0.12056 0.30075 0.17316 0.0
S162 S 0.83503 0.17858 0.18846 0.0
N163 N 0.88285 0.19866 0.20927 0.0
N164 N 0.88819 0.20135 0.16887 0.0
C165 C 0.94882 0.22693 0.17881 0.0
C166 C 0.94578 0.22542 0.20077 0.0
C167 C 0.73587 0.95509 0.51321 0.0
C168 C 0.77275 0.01786 0.50287 0.0
C169 C 0.73363 0.95132 0.53473 0.0
C170 C 0.76818 0.01017 0.54688 0.0
H171 H 0.70792 0.90806 0.50465 0.0
H172 H 0.70409 0.90182 0.54186 0.0
S173 S 0.87403 0.18721 0.52745 0.0
N174 N 0.84581 0.14019 0.50648 0.0
N175 N 0.84199 0.13355 0.54687 0.0
C176 C 0.80592 0.07338 0.53675 0.0
C177 C 0.80809 0.07713 0.51479 0.0
C178 C 0.79269 0.73732 0.84673 0.0
C179 C 0.76451 0.77174 0.83618 0.0
C180 C 0.79502 0.73655 0.86826 0.0
C181 C 0.7693 0.77019 0.88021 0.0
H182 H 0.81315 0.71035 0.83833 0.0
H183 H 0.81701 0.70909 0.87555 0.0
S184 S 0.69091 0.86882 0.86019 0.0
N185 N 0.71084 0.84092 0.83939 0.0
N186 N 0.71511 0.83978 0.87979 0.0
C187 C 0.74116 0.80516 0.86987 0.0
C188 C 0.73878 0.80584 0.8479 0.0
C189 C 0.95694 0.73974 0.18026 0.0
C190 C 0.01579 0.7625 0.16823 0.0
C191 C 0.96059 0.7432 0.20178 0.0
C192 C 0.02322 0.76952 0.21224 0.0
H193 H 0.90749 0.71905 0.17303 0.0
H194 H 0.91353 0.72484 0.21025 0.0
S195 S 0.19266 0.83549 0.188 0.0
N196 N 0.13913 0.81222 0.16849 0.0
N197 N 0.14554 0.81853 0.20886 0.0
C198 C 0.08255 0.79255 0.20044 0.0
C199 C 0.07894 0.78906 0.17848 0.0
C200 C 0.28106 0.06562 0.53468 0.0
C201 C 0.2565 1.00641 0.54664 0.0
C202 C 0.27985 0.0625 0.51314 0.0
C203 C 0.2541 1.00004 0.5026 0.0
H204 H 0.30133 0.11495 0.54197 0.0
H205 H 0.29946 0.10982 0.50473 0.0
S206 S 0.18447 0.82982 0.52665 0.0
N207 N 0.20603 0.88293 0.54624 0.0
N208 N 0.20392 0.8775 0.50583 0.0
C209 C 0.22942 0.94035 0.51434 0.0
C210 C 0.23061 0.94344 0.5363 0.0
C211 C 0.23908 0.29096 0.84671 0.0
C212 C 0.26514 0.2545 0.8362 0.0
C213 C 0.23622 0.2915 0.86824 0.0
C214 C 0.2593 0.2556 0.88023 0.0
H215 H 0.22091 0.31989 0.83828 0.0
H216 H 0.21622 0.32081 0.87549 0.0
S217 S 0.33028 0.15013 0.86033 0.0
N218 N 0.31319 0.18034 0.8395 0.0
N219 N 0.30786 0.18097 0.87988 0.0
C220 C 0.28489 0.21825 0.86993 0.0
C221 C 0.28782 0.2178 0.84797 0.0
C222 C 0.20592 0.33504 0.0428 0.0
C223 C 0.14649 0.3395 0.04364 0.0
C224 C 0.23551 0.33498 0.02392 0.0
C225 C 0.20687 0.33938 1.00513 0.0
H226 H 0.22779 0.32783 0.05672 0.0
H227 H 0.27956 0.32837 0.02412 0.0
S228 S 0.05824 0.36427 0.99918 0.0
N229 N 0.06518 0.35776 0.02423 0.0
N230 N 0.12064 0.35706 0.98875 0.0
C231 C 0.15057 0.34926 1.00584 0.0
C232 C 0.12041 0.34942 0.02509 0.0
C233 C 0.88427 0.20162 0.37621 0.0
C234 C 0.81997 0.14263 0.37702 0.0
C235 C 0.91432 0.231 0.35735 0.0
C236 C 0.88128 0.2026 0.33854 0.0
H237 H 0.91326 0.22342 0.39015 0.0
H238 H 0.9652 0.27477 0.35759 0.0
S239 S 0.70712 0.05488 0.33244 0.0
N240 N 0.7203 0.0618 0.35751 0.0
N241 N 0.77716 0.11687 0.32208 0.0
C242 C 0.81485 0.1466 0.33919 0.0
C243 C 0.78414 0.11665 0.35843 0.0
C244 C 0.6913 0.78881 0.69136 0.0
C245 C 0.68553 0.81659 0.71016 0.0
C246 C 0.68869 0.81702 0.67248 0.0
C247 C 0.68023 0.87414 0.67163 0.0
H248 H 0.70092 0.74664 0.69116 0.0
H249 H 0.69702 0.79602 0.65854 0.0
S250 S 0.65074 0.95894 0.71614 0.0
N251 N 0.66246 0.89927 0.72656 0.0
N252 N 0.65699 0.95207 0.69108 0.0
C253 C 0.66905 0.89917 0.69021 0.0
C254 C 0.67181 0.87043 0.70946 0.0
C255 C 0.82134 0.68572 0.04257 0.0
C256 C 0.88023 0.68028 0.04329 0.0
C257 C 0.79233 0.68749 1.02374 0.0
C258 C 0.82104 0.68386 1.00487 0.0
H259 H 0.79941 0.6923 0.05657 0.0
H260 H 0.7487 0.69477 0.02405 0.0
S261 S 0.96848 0.65728 0.99849 0.0
N262 N 0.96112 0.66213 1.02359 0.0
N263 N 0.90681 0.66608 0.98823 0.0
C264 C 0.87679 0.67308 1.00542 0.0
C265 C 0.90635 0.67119 0.02461 0.0
C266 C 0.11805 0.78927 0.35684 0.0
C267 C 0.15055 0.81806 0.33801 0.0
C268 C 0.14848 0.81848 0.37569 0.0
C269 C 0.21263 0.87769 0.37647 0.0
H270 H 0.06726 0.74537 0.3571 0.0
H271 H 0.11984 0.79641 0.38966 0.0
S272 S 0.3242 0.96646 0.3318 0.0
N273 N 0.25408 0.90437 0.32147 0.0
N274 N 0.31166 0.9591 0.35689 0.0
C275 C 0.248 0.90399 0.35784 0.0
C276 C 0.2169 0.8742 0.33862 0.0
C277 C 0.34048 0.20079 0.67288 0.0
C278 C 0.33378 0.13587 0.67214 0.0
C279 C 0.34335 0.23206 0.69172 0.0
C280 C 0.33972 0.19971 0.71058 0.0
H281 H 0.34021 0.22639 0.65885 0.0
H282 H 0.34562 0.28087 0.69143 0.0
S283 S 0.33251 0.0338 0.71704 0.0
N284 N 0.33179 0.04365 0.69192 0.0
N285 N 0.3366 0.10232 0.72726 0.0
C286 C 0.33798 0.13698 0.71005 0.0
C287 C 0.33509 0.10508 0.69085 0.0
C288 C 0.05808 0.57125 0.10158 0.0
C289 C 0.99023 0.5559 0.09975 0.0
C290 C 0.07467 0.51954 0.102 0.0
C291 C 0.02419 0.45028 0.10049 0.0
H292 H 0.0987 0.62352 0.10318 0.0
H293 H 0.12775 0.5343 0.10376 0.0
S294 S 0.83906 0.38308 0.09383 0.0
N295 N 0.87221 0.46638 0.09525 0.0
N296 N 0.9037 0.36945 0.09603 0.0
C297 C 0.95629 0.43426 0.09801 0.0
C298 C 0.93927 0.48696 0.09765 0.0
C299 C 0.56556 0.07418 0.43626 0.0
C300 C 0.58455 0.02398 0.43429 0.0
C301 C 0.49716 0.05735 0.43592 0.0
C302 C 0.44482 0.98955 0.43369 0.0
H303 H 0.60378 0.12718 0.43835 0.0
H304 H 0.4853 0.0977 0.43788 0.0
S305 S 0.46705 0.83922 0.42639 0.0
N306 N 0.54521 0.90389 0.42892 0.0
N307 N 0.41671 0.87201 0.42826 0.0
C308 C 0.46303 0.93894 0.43113 0.0
C309 C 0.5328 0.95617 0.43142 0.0
C310 C 0.45208 0.49339 0.76789 0.0
C311 C 0.46791 0.44105 0.76683 0.0
C312 C 0.50344 0.56188 0.76815 0.0
C313 C 0.57286 0.58104 0.76725 0.0
H314 H 0.39964 0.48152 0.76895 0.0
H315 H 0.48826 0.60005 0.76928 0.0
S316 S 0.64154 0.46366 0.76289 0.0
N317 N 0.55824 0.41312 0.76382 0.0
N318 N 0.6545 0.54189 0.76432 0.0
C319 C 0.58944 0.52932 0.7656 0.0
C320 C 0.53709 0.4594 0.76539 0.0
C321 C 0.51891 0.06866 0.61409 0.0
C322 C 0.4496 0.01807 0.61514 0.0
C323 C 0.57055 0.05196 0.61421 0.0
C324 C 0.55512 0.98392 0.61529 0.0
H325 H 0.53377 0.12193 0.61291 0.0
H326 H 0.62287 0.09275 0.61301 0.0
S327 S 0.38201 0.83221 0.61972 0.0
N328 N 0.36856 0.89715 0.61831 0.0
N329 N 0.46533 0.86544 0.61856 0.0
C330 C 0.48608 0.93277 0.61692 0.0
C331 C 0.43344 0.9499 0.61686 0.0
C332 C 0.49642 0.44971 0.94723 0.0
C333 C 0.44397 0.46499 0.94937 0.0
C334 C 0.56474 0.50143 0.94684 0.0
C335 C 0.58358 0.57063 0.94868 0.0
H336 H 0.48471 0.39751 0.94535 0.0
H337 H 0.60301 0.48674 0.94481 0.0
S338 S 0.46579 0.63752 0.95633 0.0
N339 N 0.41559 0.55429 0.9546 0.0
N340 N 0.54403 0.65125 0.95385 0.0
C341 C 0.53175 0.58654 0.9515 0.0
C342 C 0.46202 0.53383 0.95184 0.0
C343 C 0.07699 0.56084 0.27949 0.0
C344 C 0.02694 0.58002 0.28144 0.0
C345 C 0.06006 0.49242 0.27997 0.0
C346 C 0.99229 0.44018 0.28231 0.0
H347 H 0.12996 0.59892 0.27731 0.0
H348 H 0.10032 0.48046 0.27801 0.0
S349 S 0.84233 0.46294 0.28958 0.0
N350 N 0.90703 0.54103 0.2869 0.0
N351 N 0.87493 0.41241 0.28781 0.0
C352 C 0.94181 0.45858 0.28486 0.0
C353 C 0.95917 0.52842 0.28443 0.0
C354 C 0.96814 0.02672 0.0967 0.0
C355 C 0.03615 0.07896 0.09485 0.0
C356 C 0.9509 0.95814 0.09703 0.0
C357 C 1.00086 0.93868 0.0955 0.0
H358 H 0.92786 0.03876 0.09845 0.0
H359 H 0.89775 0.92018 0.09892 0.0
S360 S 0.18608 0.05552 0.08851 0.0
N361 N 0.15368 0.10627 0.09004 0.0
N362 N 0.121 0.97746 0.09077 0.0
C363 C 0.06886 0.99024 0.09287 0.0
C364 C 0.08653 0.06024 0.09253 0.0
C365 C 0.03219 0.07478 0.43122 0.0
C366 C 0.96269 0.02485 0.42976 0.0
C367 C 0.08341 0.05738 0.43091 0.0
C368 C 0.06739 0.98925 0.42918 0.0
H369 H 0.04749 0.12801 0.433 0.0
H370 H 0.13581 0.09761 0.43259 0.0
S371 S 0.89373 0.83933 0.42312 0.0
N372 N 0.88103 0.90459 0.42527 0.0
N373 N 0.97687 0.87163 0.4246 0.0
C374 C 0.99822 0.93891 0.42697 0.0
C375 C 0.94604 0.95673 0.42728 0.0
C376 C 0.06438 1.00019 0.76438 0.0
C377 C 0.08402 0.06976 0.76324 0.0
C378 C 0.99576 0.94901 0.76405 0.0
C379 C 0.94365 0.96508 0.76262 0.0
H380 H 0.10225 0.98475 0.7659 0.0
H381 H 0.9836 0.89654 0.76545 0.0
S382 S 0.96755 0.13908 0.75757 0.0
N383 N 0.04554 0.15168 0.75944 0.0
N384 N 0.91663 0.05585 0.75874 0.0
C385 C 0.96252 0.03437 0.76075 0.0
C386 C 0.03258 0.08655 0.76108 0.0
C387 C 0.95796 0.94589 0.61916 0.0
C388 C 0.93866 0.99613 0.61953 0.0
C389 C 0.02652 0.96314 0.61916 0.0
C390 C 0.07892 0.03144 0.61949 0.0
H391 H 0.91981 0.8924 0.61849 0.0
H392 H 0.03836 0.92249 0.61841 0.0
S393 S 0.05608 0.18268 0.62206 0.0
N394 N 0.97786 0.11717 0.62133 0.0
N395 N 0.10665 0.14995 0.62142 0.0
C396 C 0.06044 0.08231 0.62057 0.0
C397 C 0.99044 0.06461 0.62058 0.0
C398 C 0.95079 0.99455 0.95204 0.0
C399 C 0.96653 0.94229 0.95387 0.0
C400 C 1.00216 0.06311 0.95169 0.0
C401 C 0.07159 0.08251 0.95318 0.0
H402 H 0.89846 0.98253 0.95031 0.0
H403 H 0.98701 0.1011 0.94981 0.0
S404 S 0.13987 0.96559 0.96015 0.0
N405 N 0.0567 0.91489 0.95864 0.0
N406 N 0.15291 0.04367 0.95788 0.0
C407 C 0.08799 0.03093 0.95581 0.0
C408 C 0.03561 0.96095 0.95617 0.0
C409 C 0.9704 0.94718 0.28413 0.0
C410 C 0.03854 0.96325 0.2858 0.0
C411 C 0.95294 0.99834 0.28386 0.0
C412 C 1.00279 0.06788 0.28528 0.0
H413 H 0.93017 0.89474 0.2825 0.0
H414 H 0.89968 0.98293 0.28214 0.0
S415 S 0.18836 0.13707 0.29169 0.0
N416 N 0.15614 0.0539 0.29024 0.0
N417 N 0.12304 0.1497 0.28963 0.0
C418 C 0.07095 0.08462 0.28768 0.0
C419 C 0.08885 0.03247 0.28796 0.0
loop_
_geom_bond_atom_site_label_1
_geom_bond_atom_site_label_2
_geom_bond_distance
_geom_bond_site_symmetry_2
_ccdc_geom_bond_type
Mg0 O7 2.141 . S
Mg0 O8 2.048 . S
Mg0 O9 2.048 . S
Mg0 O12 2.141 . S
C1 O2 1.313 . S
C1 O8 1.195 . S
O2 C1 1.313 . S
C3 O4 1.245 . S
C3 O12 1.289 . S
O4 C3 1.245 . S
C5 O6 1.245 . S
C5 O7 1.289 . S
O6 C5 1.245 . S
O7 Mg0 2.141 . S
O7 C5 1.289 . S
O8 Mg0 2.048 . S
O8 C1 1.195 . S
O9 Mg0 2.048 . S
O9 C10 1.195 . S
C10 O9 1.195 . S
C10 O11 1.313 . S
O11 C10 1.313 . S
O12 Mg0 2.141 . S
O12 C3 1.289 . S
Mg13 O20 2.141 . S
Mg13 O21 2.048 . S
Mg13 O22 2.048 . S
Mg13 O25 2.141 . S
C14 O15 1.313 . S
C14 O21 1.195 . S
O15 C14 1.313 . S
C16 O17 1.245 . S
C16 O25 1.289 . S
O17 C16 1.245 . S
C18 O19 1.245 . S
C18 O20 1.289 . S
O19 C18 1.245 . S
O20 Mg13 2.141 . S
O20 C18 1.289 . S
O21 Mg13 2.048 . S
O21 C14 1.195 . S
O22 Mg13 2.048 . S
O22 C23 1.195 . S
C23 O22 1.195 . S
C23 O24 1.313 . S
O24 C23 1.313 . S
O25 Mg13 2.141 . S
O25 C16 1.289 . S
Mg26 O33 2.141 . S
Mg26 O34 2.048 . S
Mg26 O35 2.048 . S
Mg26 O38 2.141 . S
C27 O28 1.313 . S
C27 O34 1.195 . S
O28 C27 1.313 . S
C29 O30 1.245 . S
C29 O38 1.289 . S
O30 C29 1.245 . S
C31 O32 1.245 . S
C31 O33 1.289 . S
O32 C31 1.245 . S
O33 Mg26 2.141 . S
O33 C31 1.289 . S
O34 Mg26 2.048 . S
O34 C27 1.195 . S
O35 Mg26 2.048 . S
O35 C36 1.195 . S
C36 O35 1.195 . S
C36 O37 1.313 . S
O37 C36 1.313 . S
O38 Mg26 2.141 . S
O38 C29 1.289 . S
Mg39 O46 2.141 . S
Mg39 O47 2.048 . S
Mg39 O48 2.048 . S
Mg39 O51 2.141 . S
C40 O41 1.313 . S
C40 O47 1.195 . S
O41 C40 1.313 . S
C42 O43 1.245 . S
C42 O51 1.289 . S
O43 C42 1.245 . S
C44 O45 1.245 . S
C44 O46 1.289 . S
O45 C44 1.245 . S
O46 Mg39 2.141 . S
O46 C44 1.289 . S
O47 Mg39 2.048 . S
O47 C40 1.195 . S
O48 Mg39 2.048 . S
O48 C49 1.195 . S
C49 O48 1.195 . S
C49 O50 1.313 . S
O50 C49 1.313 . S
O51 Mg39 2.141 . S
O51 C42 1.289 . S
Mg52 O59 2.141 . S
Mg52 O60 2.048 . S
Mg52 O61 2.048 . S
Mg52 O64 2.141 . S
C53 O54 1.313 . S
C53 O60 1.195 . S
O54 C53 1.313 . S
C55 O56 1.245 . S
C55 O64 1.289 . S
O56 C55 1.245 . S
C57 O58 1.245 . S
C57 O59 1.289 . S
O58 C57 1.245 . S
O59 Mg52 2.141 . S
O59 C57 1.289 . S
O60 Mg52 2.048 . S
O60 C53 1.195 . S
O61 Mg52 2.048 . S
O61 C62 1.195 . S
C62 O61 1.195 . S
C62 O63 1.313 . S
O63 C62 1.313 . S
O64 Mg52 2.141 . S
O64 C55 1.289 . S
Mg65 O72 2.141 . S
Mg65 O73 2.048 . S
Mg65 O74 2.048 . S
Mg65 O77 2.141 . S
C66 O67 1.313 . S
C66 O73 1.195 . S
O67 C66 1.313 . S
C68 O69 1.245 . S
C68 O77 1.289 . S
O69 C68 1.245 . S
C70 O71 1.245 . S
C70 O72 1.289 . S
O71 C70 1.245 . S
O72 Mg65 2.141 . S
O72 C70 1.289 . S
O73 Mg65 2.048 . S
O73 C66 1.195 . S
O74 Mg65 2.048 . S
O74 C75 1.195 . S
C75 O74 1.195 . S
C75 O76 1.313 . S
O76 C75 1.313 . S
O77 Mg65 2.141 . S
O77 C68 1.289 . S
Mg78 O85 2.141 . S
Mg78 O86 2.048 . S
Mg78 O87 2.048 . S
Mg78 O90 2.141 . S
C79 O80 1.313 . S
C79 O86 1.195 . S
O80 C79 1.313 . S
C81 O82 1.245 . S
C81 O90 1.289 . S
O82 C81 1.245 . S
C83 O84 1.245 . S
C83 O85 1.289 . S
O84 C83 1.245 . S
O85 Mg78 2.141 . S
O85 C83 1.289 . S
O86 Mg78 2.048 . S
O86 C79 1.195 . S
O87 Mg78 2.048 . S
O87 C88 1.195 . S
C88 O87 1.195 . S
C88 O89 1.313 . S
O89 C88 1.313 . S
O90 Mg78 2.141 . S
O90 C81 1.289 . S
Mg91 O98 2.141 . S
Mg91 O99 2.048 . S
Mg91 O100 2.048 . S
Mg91 O103 2.141 . S
C92 O93 1.313 . S
C92 O99 1.195 . S
O93 C92 1.313 . S
C94 O95 1.245 . S
C94 O103 1.289 . S
O95 C94 1.245 . S
C96 O97 1.245 . S
C96 O98 1.289 . S
O97 C96 1.245 . S
O98 Mg91 2.141 . S
O98 C96 1.289 . S
O99 Mg91 2.048 . S
O99 C92 1.195 . S
O100 Mg91 2.048 . S
O100 C101 1.195 . S
C101 O100 1.195 . S
C101 O102 1.313 . S
O102 C101 1.313 . S
O103 Mg91 2.141 . S
O103 C94 1.289 . S
Mg104 O111 2.141 . S
Mg104 O112 2.048 . S
Mg104 O113 2.048 . S
Mg104 O116 2.141 . S
C105 O106 1.313 . S
C105 O112 1.195 . S
O106 C105 1.313 . S
C107 O108 1.245 . S
C107 O116 1.289 . S
O108 C107 1.245 . S
C109 O110 1.245 . S
C109 O111 1.289 . S
O110 C109 1.245 . S
O111 Mg104 2.141 . S
O111 C109 1.289 . S
O112 Mg104 2.048 . S
O112 C105 1.195 . S
O113 Mg104 2.048 . S
O113 C114 1.195 . S
C114 O113 1.195 . S
C114 O115 1.313 . S
O115 C114 1.313 . S
O116 Mg104 2.141 . S
O116 C107 1.289 . S
Mg117 O124 2.141 . S
Mg117 O125 2.048 . S
Mg117 O126 2.048 . S
Mg117 O129 2.141 . S
C118 O119 1.313 . S
C118 O125 1.195 . S
O119 C118 1.313 . S
C120 O121 1.245 . S
C120 O129 1.289 . S
O121 C120 1.245 . S
C122 O123 1.245 . S
C122 O124 1.289 . S
O123 C122 1.245 . S
O124 Mg117 2.141 . S
O124 C122 1.289 . S
O125 Mg117 2.048 . S
O125 C118 1.195 . S
O126 Mg117 2.048 . S
O126 C127 1.195 . S
C127 O126 1.195 . S
C127 O128 1.313 . S
O128 C127 1.313 . S
O129 Mg117 2.141 . S
O129 C120 1.289 . S
Mg130 O137 2.141 . S
Mg130 O138 2.048 . S
Mg130 O139 2.048 . S
Mg130 O142 2.141 . S
C131 O132 1.313 . S
C131 O138 1.195 . S
O132 C131 1.313 . S
C133 O134 1.245 . S
C133 O142 1.289 . S
O134 C133 1.245 . S
C135 O136 1.245 . S
C135 O137 1.289 . S
O136 C135 1.245 . S
O137 Mg130 2.141 . S
O137 C135 1.289 . S
O138 Mg130 2.048 . S
O138 C131 1.195 . S
O139 Mg130 2.048 . S
O139 C140 1.195 . S
C140 O139 1.195 . S
C140 O141 1.313 . S
O141 C140 1.313 . S
O142 Mg130 2.141 . S
O142 C133 1.289 . S
Mg143 O150 2.141 . S
Mg143 O151 2.048 . S
Mg143 O152 2.048 . S
Mg143 O155 2.141 . S
C144 O145 1.313 . S
C144 O151 1.195 . S
O145 C144 1.313 . S
C146 O147 1.245 . S
C146 O155 1.289 . S
O147 C146 1.245 . S
C148 O149 1.245 . S
C148 O150 1.289 . S
O149 C148 1.245 . S
O150 Mg143 2.141 . S
O150 C148 1.289 . S
O151 Mg143 2.048 . S
O151 C144 1.195 . S
O152 Mg143 2.048 . S
O152 C153 1.195 . S
C153 O152 1.195 . S
C153 O154 1.313 . S
O154 C153 1.313 . S
O155 Mg143 2.141 . S
O155 C146 1.289 . S
C156 C157 1.369 . S
C156 C158 1.419 . S
C156 H160 0.930 . S
C157 C156 1.369 . S
C157 C166 1.429 1_655 S
C158 C156 1.419 . S
C158 C159 1.363 1_655 S
C158 H161 0.929 . S
C159 C158 1.363 1_455 S
C159 C165 1.428 . S
H160 C156 0.930 . S
H161 C158 0.929 . S
S162 N163 1.613 . S
S162 N164 1.610 . S
N163 S162 1.613 . S
N163 C166 1.350 . S
N164 S162 1.610 . S
N164 C165 1.351 . S
C165 C159 1.428 . S
C165 N164 1.351 . S
C165 C166 1.434 . S
C166 C157 1.429 1_455 S
C166 N163 1.350 . S
C166 C165 1.434 . S
C167 C168 1.369 . S
C167 C169 1.419 1_545 S
C167 H171 0.930 . S
C168 C167 1.369 . S
C168 C177 1.429 . S
C169 C167 1.419 1_565 S
C169 C170 1.363 . S
C169 H172 0.929 . S
C170 C169 1.363 . S
C170 C176 1.428 . S
H171 C167 0.930 . S
H172 C169 0.929 . S
S173 N174 1.613 1_565 S
S173 N175 1.610 . S
N174 S173 1.613 1_545 S
N174 C177 1.350 . S
N175 S173 1.610 . S
N175 C176 1.351 . S
C176 C170 1.428 . S
C176 N175 1.351 . S
C176 C177 1.434 1_565 S
C177 C168 1.429 . S
C177 N174 1.350 . S
C177 C176 1.434 1_545 S
C178 C179 1.369 . S
C178 C180 1.419 . S
C178 H182 0.930 . S
C179 C178 1.369 . S
C179 C188 1.429 . S
C180 C178 1.419 . S
C180 C181 1.363 . S
C180 H183 0.929 . S
C181 C180 1.363 . S
C181 C187 1.428 . S
H182 C178 0.930 . S
H183 C180 0.929 . S
S184 N185 1.613 . S
S184 N186 1.610 . S
N185 S184 1.613 . S
N185 C188 1.350 . S
N186 S184 1.610 . S
N186 C187 1.351 . S
C187 C181 1.428 . S
C187 N186 1.351 . S
C187 C188 1.434 . S
C188 C179 1.429 . S
C188 N185 1.350 . S
C188 C187 1.434 . S
C189 C190 1.369 . S
C189 C191 1.419 1_655 S
C189 H193 0.930 . S
C190 C189 1.369 . S
C190 C199 1.429 . S
C191 C189 1.419 1_455 S
C191 C192 1.363 . S
C191 H194 0.929 . S
C192 C191 1.363 . S
C192 C198 1.428 . S
H193 C189 0.930 . S
H194 C191 0.929 . S
S195 N196 1.613 . S
S195 N197 1.610 1_655 S
N196 S195 1.613 . S
N196 C199 1.350 . S
N197 S195 1.610 1_455 S
N197 C198 1.351 . S
C198 C192 1.428 . S
C198 N197 1.351 . S
C198 C199 1.434 1_455 S
C199 C190 1.429 . S
C199 N196 1.350 . S
C199 C198 1.434 1_655 S
C200 C201 1.369 1_565 S
C200 C202 1.419 . S
C200 H204 0.930 . S
C201 C200 1.369 1_545 S
C201 C210 1.429 . S
C202 C200 1.419 . S
C202 C203 1.363 . S
C202 H205 0.929 . S
C203 C202 1.363 . S
C203 C209 1.428 1_565 S
H204 C200 0.930 . S
H205 C202 0.929 . S
S206 N207 1.613 . S
S206 N208 1.610 . S
N207 S206 1.613 . S
N207 C210 1.350 . S
N208 S206 1.610 . S
N208 C209 1.351 . S
C209 C203 1.428 1_545 S
C209 N208 1.351 . S
C209 C210 1.434 . S
C210 C201 1.429 . S
C210 N207 1.350 . S
C210 C209 1.434 . S
C211 C212 1.369 . S
C211 C213 1.419 . S
C211 H215 0.930 . S
C212 C211 1.369 . S
C212 C221 1.429 . S
C213 C211 1.419 . S
C213 C214 1.363 . S
C213 H216 0.929 . S
C214 C213 1.363 . S
C214 C220 1.428 . S
H215 C211 0.930 . S
H216 C213 0.929 . S
S217 N218 1.613 . S
S217 N219 1.610 . S
N218 S217 1.613 . S
N218 C221 1.350 . S
N219 S217 1.610 . S
N219 C220 1.351 . S
C220 C214 1.428 . S
C220 N219 1.351 . S
C220 C221 1.434 . S
C221 C212 1.429 . S
C221 N218 1.350 . S
C221 C220 1.434 . S
C222 C223 1.369 . S
C222 C224 1.419 1_554 S
C222 H226 0.930 . S
C223 C222 1.369 . S
C223 C232 1.429 . S
C224 C222 1.419 1_556 S
C224 C225 1.363 . S
C224 H227 0.929 . S
C225 C224 1.363 . S
C225 C231 1.428 . S
H226 C222 0.930 . S
H227 C224 0.929 . S
S228 N229 1.613 . S
S228 N230 1.610 1_554 S
N229 S228 1.613 . S
N229 C232 1.350 . S
N230 S228 1.610 1_556 S
N230 C231 1.351 . S
C231 C225 1.428 . S
C231 N230 1.351 . S
C231 C232 1.434 1_556 S
C232 C223 1.429 . S
C232 N229 1.350 . S
C232 C231 1.434 1_554 S
C233 C234 1.369 . S
C233 C235 1.419 . S
C233 H237 0.930 . S
C234 C233 1.369 . S
C234 C243 1.429 . S
C235 C233 1.419 . S
C235 C236 1.363 . S
C235 H238 0.929 . S
C236 C235 1.363 . S
C236 C242 1.428 . S
H237 C233 0.930 . S
H238 C235 0.929 . S
S239 N240 1.613 . S
S239 N241 1.610 . S
N240 S239 1.613 . S
N240 C243 1.350 . S
N241 S239 1.610 . S
N241 C242 1.351 . S
C242 C236 1.428 . S
C242 N241 1.351 . S
C242 C243 1.434 . S
C243 C234 1.429 . S
C243 N240 1.350 . S
C243 C242 1.434 . S
C244 C245 1.369 . S
C244 C246 1.419 . S
C244 H248 0.930 . S
C245 C244 1.369 . S
C245 C254 1.429 . S
C246 C244 1.419 . S
C246 C247 1.363 . S
C246 H249 0.929 . S
C247 C246 1.363 . S
C247 C253 1.428 . S
H248 C244 0.930 . S
H249 C246 0.929 . S
S250 N251 1.613 . S
S250 N252 1.610 . S
N251 S250 1.613 . S
N251 C254 1.350 . S
N252 S250 1.610 . S
N252 C253 1.351 . S
C253 C247 1.428 . S
C253 N252 1.351 . S
C253 C254 1.434 . S
C254 C245 1.429 . S
C254 N251 1.350 . S
C254 C253 1.434 . S
C255 C256 1.369 . S
C255 C257 1.419 1_554 S
C255 H259 0.930 . S
C256 C255 1.369 . S
C256 C265 1.429 . S
C257 C255 1.419 1_556 S
C257 C258 1.363 . S
C257 H260 0.929 . S
C258 C257 1.363 . S
C258 C264 1.428 . S
H259 C255 0.930 . S
H260 C257 0.929 . S
S261 N262 1.613 . S
S261 N263 1.610 1_554 S
N262 S261 1.613 . S
N262 C265 1.350 . S
N263 S261 1.610 1_556 S
N263 C264 1.351 . S
C264 C258 1.428 . S
C264 N263 1.351 . S
C264 C265 1.434 1_556 S
C265 C256 1.429 . S
C265 N262 1.350 . S
C265 C264 1.434 1_554 S
C266 C267 1.369 . S
C266 C268 1.419 . S
C266 H270 0.930 . S
C267 C266 1.369 . S
C267 C276 1.429 . S
C268 C266 1.419 . S
C268 C269 1.363 . S
C268 H271 0.929 . S
C269 C268 1.363 . S
C269 C275 1.428 . S
H270 C266 0.930 . S
H271 C268 0.929 . S
S272 N273 1.613 . S
S272 N274 1.610 . S
N273 S272 1.613 . S
N273 C276 1.350 . S
N274 S272 1.610 . S
N274 C275 1.351 . S
C275 C269 1.428 . S
C275 N274 1.351 . S
C275 C276 1.434 . S
C276 C267 1.429 . S
C276 N273 1.350 . S
C276 C275 1.434 . S
C277 C278 1.369 . S
C277 C279 1.419 . S
C277 H281 0.930 . S
C278 C277 1.369 . S
C278 C287 1.429 . S
C279 C277 1.419 . S
C279 C280 1.363 . S
C279 H282 0.929 . S
C280 C279 1.363 . S
C280 C286 1.428 . S
H281 C277 0.930 . S
H282 C279 0.929 . S
S283 N284 1.613 . S
S283 N285 1.610 . S
N284 S283 1.613 . S
N284 C287 1.350 . S
N285 S283 1.610 . S
N285 C286 1.351 . S
C286 C280 1.428 . S
C286 N285 1.351 . S
C286 C287 1.434 . S
C287 C278 1.429 . S
C287 N284 1.350 . S
C287 C286 1.434 . S
C288 C289 1.369 1_455 S
C288 C290 1.419 . S
C288 H292 0.930 . S
C289 C288 1.369 1_655 S
C289 C298 1.429 . S
C290 C288 1.419 . S
C290 C291 1.363 . S
C290 H293 0.929 . S
C291 C290 1.363 . S
C291 C297 1.428 1_455 S
H292 C288 0.930 . S
H293 C290 0.929 . S
S294 N295 1.613 . S
S294 N296 1.610 . S
N295 S294 1.613 . S
N295 C298 1.350 . S
N296 S294 1.610 . S
N296 C297 1.351 . S
C297 C291 1.428 1_655 S
C297 N296 1.351 . S
C297 C298 1.434 . S
C298 C289 1.429 . S
C298 N295 1.350 . S
C298 C297 1.434 . S
C299 C300 1.369 . S
C299 C301 1.419 . S
C299 H303 0.930 . S
C300 C299 1.369 . S
C300 C309 1.429 1_545 S
C301 C299 1.419 . S
C301 C302 1.363 1_545 S
C301 H304 0.929 . S
C302 C301 1.363 1_565 S
C302 C308 1.428 . S
H303 C299 0.930 . S
H304 C301 0.929 . S
S305 N306 1.613 . S
S305 N307 1.610 . S
N306 S305 1.613 . S
N306 C309 1.350 . S
N307 S305 1.610 . S
N307 C308 1.351 . S
C308 C302 1.428 . S
C308 N307 1.351 . S
C308 C309 1.434 . S
C309 C300 1.429 1_565 S
C309 N306 1.350 . S
C309 C308 1.434 . S
C310 C311 1.369 . S
C310 C312 1.419 . S
C310 H314 0.930 . S
C311 C310 1.369 . S
C311 C320 1.429 . S
C312 C310 1.419 . S
C312 C313 1.363 . S
C312 H315 0.929 . S
C313 C312 1.363 . S
C313 C319 1.428 . S
H314 C310 0.930 . S
H315 C312 0.929 . S
S316 N317 1.613 . S
S316 N318 1.610 . S
N317 S316 1.613 . S
N317 C320 1.350 . S
N318 S316 1.610 . S
N318 C319 1.351 . S
C319 C313 1.428 . S
C319 N318 1.351 . S
C319 C320 1.434 . S
C320 C311 1.429 . S
C320 N317 1.350 . S
C320 C319 1.434 . S
C321 C322 1.369 . S
C321 C323 1.419 . S
C321 H325 0.930 . S
C322 C321 1.369 . S
C322 C331 1.429 1_545 S
C323 C321 1.419 . S
C323 C324 1.363 1_545 S
C323 H326 0.929 . S
C324 C323 1.363 1_565 S
C324 C330 1.428 . S
H325 C321 0.930 . S
H326 C323 0.929 . S
S327 N328 1.613 . S
S327 N329 1.610 . S
N328 S327 1.613 . S
N328 C331 1.350 . S
N329 S327 1.610 . S
N329 C330 1.351 . S
C330 C324 1.428 . S
C330 N329 1.351 . S
C330 C331 1.434 . S
C331 C322 1.429 1_565 S
C331 N328 1.350 . S
C331 C330 1.434 . S
C332 C333 1.369 . S
C332 C334 1.419 . S
C332 H336 0.930 . S
C333 C332 1.369 . S
C333 C342 1.429 . S
C334 C332 1.419 . S
C334 C335 1.363 . S
C334 H337 0.929 . S
C335 C334 1.363 . S
C335 C341 1.428 . S
H336 C332 0.930 . S
H337 C334 0.929 . S
S338 N339 1.613 . S
S338 N340 1.610 . S
N339 S338 1.613 . S
N339 C342 1.350 . S
N340 S338 1.610 . S
N340 C341 1.351 . S
C341 C335 1.428 . S
C341 N340 1.351 . S
C341 C342 1.434 . S
C342 C333 1.429 . S
C342 N339 1.350 . S
C342 C341 1.434 . S
C343 C344 1.369 . S
C343 C345 1.419 . S
C343 H347 0.930 . S
C344 C343 1.369 . S
C344 C353 1.429 1_455 S
C345 C343 1.419 . S
C345 C346 1.363 1_455 S
C345 H348 0.929 . S
C346 C345 1.363 1_655 S
C346 C352 1.428 . S
H347 C343 0.930 . S
H348 C345 0.929 . S
S349 N350 1.613 . S
S349 N351 1.610 . S
N350 S349 1.613 . S
N350 C353 1.350 . S
N351 S349 1.610 . S
N351 C352 1.351 . S
C352 C346 1.428 . S
C352 N351 1.351 . S
C352 C353 1.434 . S
C353 C344 1.429 1_655 S
C353 N350 1.350 . S
C353 C352 1.434 . S
C354 C355 1.369 1_655 S
C354 C356 1.419 1_545 S
C354 H358 0.930 . S
C355 C354 1.369 1_455 S
C355 C364 1.429 . S
C356 C354 1.419 1_565 S
C356 C357 1.363 . S
C356 H359 0.929 . S
C357 C356 1.363 . S
C357 C363 1.428 1_655 S
H358 C354 0.930 . S
H359 C356 0.929 . S
S360 N361 1.613 1_565 S
S360 N362 1.610 . S
N361 S360 1.613 1_545 S
N361 C364 1.350 . S
N362 S360 1.610 . S
N362 C363 1.351 . S
C363 C357 1.428 1_455 S
C363 N362 1.351 . S
C363 C364 1.434 1_565 S
C364 C355 1.429 . S
C364 N361 1.350 . S
C364 C363 1.434 1_545 S
C365 C366 1.369 1_455 S
C365 C367 1.419 . S
C365 H369 0.930 . S
C366 C365 1.369 1_655 S
C366 C375 1.429 1_545 S
C367 C365 1.419 . S
C367 C368 1.363 1_545 S
C367 H370 0.929 . S
C368 C367 1.363 1_565 S
C368 C374 1.428 1_455 S
H369 C365 0.930 . S
H370 C367 0.929 . S
S371 N372 1.613 . S
S371 N373 1.610 . S
N372 S371 1.613 . S
N372 C375 1.350 . S
N373 S371 1.610 . S
N373 C374 1.351 . S
C374 C368 1.428 1_655 S
C374 N373 1.351 . S
C374 C375 1.434 . S
C375 C366 1.429 1_565 S
C375 N372 1.350 . S
C375 C374 1.434 . S
C376 C377 1.369 1_565 S
C376 C378 1.419 1_455 S
C376 H380 0.930 . S
C377 C376 1.369 1_545 S
C377 C386 1.429 . S
C378 C376 1.419 1_655 S
C378 C379 1.363 . S
C378 H381 0.929 . S
C379 C378 1.363 . S
C379 C385 1.428 1_565 S
H380 C376 0.930 . S
H381 C378 0.929 . S
S382 N383 1.613 . S
S382 N384 1.610 1_455 S
N383 S382 1.613 . S
N383 C386 1.350 . S
N384 S382 1.610 1_655 S
N384 C385 1.351 . S
C385 C379 1.428 1_545 S
C385 N384 1.351 . S
C385 C386 1.434 1_655 S
C386 C377 1.429 . S
C386 N383 1.350 . S
C386 C385 1.434 1_455 S
C387 C388 1.369 . S
C387 C389 1.419 1_655 S
C387 H391 0.930 . S
C388 C387 1.369 . S
C388 C397 1.429 1_565 S
C389 C387 1.419 1_455 S
C389 C390 1.363 1_565 S
C389 H392 0.929 . S
C390 C389 1.363 1_545 S
C390 C396 1.428 . S
H391 C387 0.930 . S
H392 C389 0.929 . S
S393 N394 1.613 . S
S393 N395 1.610 1_655 S
N394 S393 1.613 . S
N394 C397 1.350 . S
N395 S393 1.610 1_455 S
N395 C396 1.351 . S
C396 C390 1.428 . S
C396 N395 1.351 . S
C396 C397 1.434 1_455 S
C397 C388 1.429 1_545 S
C397 N394 1.350 . S
C397 C396 1.434 1_655 S
C398 C399 1.369 . S
C398 C400 1.419 1_565 S
C398 H402 0.930 . S
C399 C398 1.369 . S
C399 C408 1.429 1_655 S
C400 C398 1.419 1_545 S
C400 C401 1.363 1_655 S
C400 H403 0.929 . S
C401 C400 1.363 1_455 S
C401 C407 1.428 . S
H402 C398 0.930 . S
H403 C400 0.929 . S
S404 N405 1.613 1_545 S
S404 N406 1.610 . S
N405 S404 1.613 1_565 S
N405 C408 1.350 . S
N406 S404 1.610 . S
N406 C407 1.351 . S
C407 C401 1.428 . S
C407 N406 1.351 . S
C407 C408 1.434 1_545 S
C408 C399 1.429 1_455 S
C408 N405 1.350 . S
C408 C407 1.434 1_565 S
C409 C410 1.369 1_655 S
C409 C411 1.419 . S
C409 H413 0.930 . S
C410 C409 1.369 1_455 S
C410 C419 1.429 1_565 S
C411 C409 1.419 . S
C411 C412 1.363 1_565 S
C411 H414 0.929 . S
C412 C411 1.363 1_545 S
C412 C418 1.428 1_655 S
H413 C409 0.930 . S
H414 C411 0.929 . S
S415 N416 1.613 . S
S415 N417 1.610 . S
N416 S415 1.613 . S
N416 C419 1.350 . S
N417 S415 1.610 . S
N417 C418 1.351 . S
C418 C412 1.428 1_455 S
C418 N417 1.351 . S
C418 C419 1.434 . S
C419 C410 1.429 1_545 S
C419 N416 1.350 . S
C419 C418 1.434 . S
C157 C144 1.503 . S
C159 C1 1.502 . S
C168 C14 1.502 . S
C170 C79 1.501 . S
C179 C27 1.504 . S
C181 C92 1.501 . S
C190 C40 1.502 . S
C192 C105 1.503 . S
C201 C118 1.501 . S
C203 C53 1.504 . S
C212 C66 1.504 . S
C214 C131 1.501 . S
C223 C3 1.505 . S
C225 C133 1.510 . S
C234 C16 1.505 . S
C236 C146 1.509 . S
C245 C29 1.506 . S
C247 C81 1.510 . S
C256 C42 1.507 . S
C258 C94 1.508 . S
C267 C107 1.511 . S
C269 C55 1.506 . S
C278 C120 1.505 . S
C280 C68 1.510 . S
C289 C44 1.798 . S
C291 C5 1.795 . S
C300 C18 1.795 . S
C302 C57 1.799 . S
C311 C70 1.797 . S
C313 C31 1.797 . S
C322 C122 1.794 . S
C324 C83 1.799 . S
C333 C135 1.800 . S
C335 C96 1.796 . S
C344 C109 1.796 . S
C346 C148 1.799 . S
C355 C10 1.699 . S
C357 C49 1.698 . S
C366 C23 1.695 . S
C368 C62 1.699 . S
C377 C75 1.696 . S
C379 C36 1.700 . S
C388 C88 1.695 . S
C390 C127 1.700 . S
C399 C101 1.700 . S
C401 C140 1.698 . S
C410 C114 1.701 . S
C412 C153 1.696 . S
