# Generated by pormake.
# Topology qtz-e, (6)-cn, num edge types: 1
# Building blocks:
#     Node 0, Type 0, BuildingBlock: PAMTUU_clean_sbu_0, # of connection points: 6
#     Node 1, Type 0, BuildingBlock: PAMTUU_clean_sbu_0, # of connection points: 6
#     Node 2, Type 0, BuildingBlock: PAMTUU_clean_sbu_0, # of connection points: 6
#     Node 3, Type 0, BuildingBlock: PAMTUU_clean_sbu_0, # of connection points: 6
#     Node 4, Type 0, BuildingBlock: PAMTUU_clean_sbu_0, # of connection points: 6
#     Node 5, Type 0, BuildingBlock: PAMTUU_clean_sbu_0, # of connection points: 6
#     Edge 6, Type (0, 0), BuildingBlock: XUDNAN_clean_linker_2, # of connection points: 2
#     Edge 7, Type (0, 0), BuildingBlock: XUDNAN_clean_linker_2, # of connection points: 2
#     Edge 8, Type (0, 0), BuildingBlock: XUDNAN_clean_linker_2, # of connection points: 2
#     Edge 9, Type (0, 0), BuildingBlock: XUDNAN_clean_linker_2, # of connection points: 2
#     Edge 10, Type (0, 0), BuildingBlock: XUDNAN_clean_linker_2, # of connection points: 2
#     Edge 11, Type (0, 0), BuildingBlock: XUDNAN_clean_linker_2, # of connection points: 2
#     Edge 12, Type (0, 0), BuildingBlock: XUDNAN_clean_linker_2, # of connection points: 2
#     Edge 13, Type (0, 0), BuildingBlock: XUDNAN_clean_linker_2, # of connection points: 2
#     Edge 14, Type (0, 0), BuildingBlock: XUDNAN_clean_linker_2, # of connection points: 2
#     Edge 15, Type (0, 0), BuildingBlock: XUDNAN_clean_linker_2, # of connection points: 2
#     Edge 16, Type (0, 0), BuildingBlock: XUDNAN_clean_linker_2, # of connection points: 2
#     Edge 17, Type (0, 0), BuildingBlock: XUDNAN_clean_linker_2, # of connection points: 2
#     Edge 18, Type (0, 0), BuildingBlock: XUDNAN_clean_linker_2, # of connection points: 2
#     Edge 19, Type (0, 0), BuildingBlock: XUDNAN_clean_linker_2, # of connection points: 2
#     Edge 20, Type (0, 0), BuildingBlock: XUDNAN_clean_linker_2, # of connection points: 2
#     Edge 21, Type (0, 0), BuildingBlock: XUDNAN_clean_linker_2, # of connection points: 2
#     Edge 22, Type (0, 0), BuildingBlock: XUDNAN_clean_linker_2, # of connection points: 2
#     Edge 23, Type (0, 0), BuildingBlock: XUDNAN_clean_linker_2, # of connection points: 2
# Relax obj value: 0.195
# Max RMSD: 0.211
# Mean RMSD: 0.211
data_MOF--net-qtz-e--node1-PAMTUU_clean_sbu_0--edge1-XUDNAN_clean_linker_2
_symmetry_space_group_name_H-M    P1
_symmetry_Int_Tables_number       1
_symmetry_cell_setting            triclinic
loop_
_symmetry_equiv_pos_as_xyz
'x, y, z'
_cell_length_a     26.856605
_cell_length_b     26.861096
_cell_length_c     51.089403
_cell_angle_alpha  89.952272
_cell_angle_beta   89.943221
_cell_angle_gamma 120.14105
loop_
_atom_site_label
_atom_site_type_symbol
_atom_site_fract_x
_atom_site_fract_y
_atom_site_fract_z
_atom_type_partial_charge
Tb0 Tb 0.22654 0.34176 0.10664 0.0
Tb1 Tb 0.25793 0.46034 0.07279 0.0
C2 C 0.35011 0.44955 0.10448 0.0
C3 C 0.16731 0.234 0.15993 0.0
C4 C 0.10479 0.19308 0.20754 0.0
C5 C 0.14603 0.17794 0.20004 0.0
C6 C 0.17673 0.19804 0.17653 0.0
C7 C 0.12722 0.25045 0.16747 0.0
C8 C 0.09623 0.23016 0.191 0.0
C9 C 0.20095 0.25551 0.13536 0.0
O10 O 0.22613 0.40211 0.13487 0.0
O11 O 0.22908 0.47604 0.10996 0.0
O12 O 0.16641 0.39998 0.06837 0.0
O13 O 0.14884 0.34733 0.10594 0.0
O14 O 0.32096 0.54177 0.05946 0.0
O15 O 0.23217 0.50629 0.04825 0.0
O16 O 0.2817 0.40913 0.04825 0.0
O17 O 0.22169 0.31898 0.06515 0.0
O18 O 0.32036 0.39308 0.10244 0.0
O19 O 0.32627 0.48094 0.10033 0.0
C20 C 0.22208 0.44876 0.13225 0.0
O21 O 0.17241 0.25347 0.11432 0.0
O22 O 0.24914 0.30434 0.13718 0.0
C23 C 0.13225 0.3703 0.08778 0.0
C24 C 0.3025 0.56314 0.01689 0.0
C25 C 0.33479 0.59493 0.9644 0.0
C26 C 0.28921 0.59924 0.97548 0.0
C27 C 0.27344 0.58376 1.00156 0.0
C28 C 0.34775 0.55819 1.00574 0.0
C29 C 0.36401 0.57438 0.97973 0.0
C30 C 0.285 0.54728 0.04436 0.0
C31 C 0.254 0.3528 0.04601 0.0
H32 H 0.15502 0.15068 0.21243 0.0
H33 H 0.20804 0.18552 0.17135 0.0
H34 H 0.11966 0.27876 0.1551 0.0
H35 H 0.06478 0.24261 0.19593 0.0
H36 H 0.26634 0.61539 0.96407 0.0
H37 H 0.23851 0.58795 0.00978 0.0
H38 H 0.37061 0.5419 0.01707 0.0
H39 H 0.39892 0.57018 0.9715 0.0
Tb40 Tb 0.76911 0.12134 0.47979 0.0
Tb41 Tb 0.73889 0.20028 0.51957 0.0
C42 C 0.64097 0.09674 0.48708 0.0
C43 C 0.82748 0.07722 0.42317 0.0
C44 C 0.88466 0.09323 0.37437 0.0
C45 C 0.83558 0.04023 0.38086 0.0
C46 C 0.80762 0.03235 0.40493 0.0
C47 C 0.8752 0.131 0.41655 0.0
C48 C 0.90353 0.13889 0.3924 0.0
C49 C 0.79764 0.06638 0.4488 0.0
O50 O 0.75676 0.18025 0.45463 0.0
O51 O 0.76496 0.24984 0.48383 0.0
O52 O 0.82835 0.22234 0.52102 0.0
O53 O 0.84409 0.20793 0.47951 0.0
O54 O 0.69768 0.24631 0.52999 0.0
O55 O 0.76117 0.24457 0.55522 0.0
O56 O 0.70664 0.1177 0.53852 0.0
O57 O 0.77072 0.09469 0.52077 0.0
O58 O 0.67459 0.07487 0.48243 0.0
O59 O 0.65991 0.14689 0.49851 0.0
C60 C 0.76291 0.23121 0.45987 0.0
O61 O 0.82826 0.09533 0.46899 0.0
O62 O 0.74747 0.06289 0.44859 0.0
C63 C 0.86052 0.24131 0.50008 0.0
C64 C 0.68309 0.24422 0.57525 0.0
C65 C 0.6183 0.21578 0.62139 0.0
C66 C 0.65145 0.27354 0.6136 0.0
C67 C 0.68398 0.28773 0.59064 0.0
C68 C 0.64764 0.18629 0.58233 0.0
C69 C 0.61551 0.17213 0.60539 0.0
C70 C 0.72202 0.25938 0.55292 0.0
C71 C 0.73534 0.0902 0.53988 0.0
H72 H 0.81865 0.00442 0.36733 0.0
H73 H 0.7705 0.99076 0.40939 0.0
H74 H 0.89106 0.16666 0.43014 0.0
H75 H 0.94113 0.18025 0.38822 0.0
H76 H 0.65413 0.3077 0.62587 0.0
H77 H 0.71117 0.3326 0.58535 0.0
H78 H 0.6462 0.15226 0.57044 0.0
H79 H 0.58951 0.12735 0.61104 0.0
Tb80 Tb 0.63414 0.87021 0.77345 0.0
Tb81 Tb 0.51665 0.80532 0.73674 0.0
C82 C 0.54591 0.91431 0.77047 0.0
C83 C 0.74092 0.90394 0.82765 0.0
C84 C 0.782 0.88289 0.87528 0.0
C85 C 0.78906 0.93747 0.86967 0.0
C86 C 0.76901 0.94782 0.84618 0.0
C87 C 0.73189 0.84873 0.83341 0.0
C88 C 0.75225 0.83833 0.85698 0.0
C89 C 0.72224 0.91742 0.80257 0.0
O90 O 0.56318 0.81945 0.8007 0.0
O91 O 0.48856 0.75899 0.77316 0.0
O92 O 0.55666 0.75205 0.73579 0.0
O93 O 0.61092 0.78082 0.77329 0.0
O94 O 0.43402 0.78745 0.72546 0.0
O95 O 0.47741 0.74981 0.7051 0.0
O96 O 0.57872 0.88089 0.71535 0.0
O97 O 0.66132 0.8887 0.732 0.0
O98 O 0.60066 0.92902 0.77024 0.0
O99 O 0.50547 0.86454 0.76149 0.0
C100 C 0.51108 0.77515 0.79658 0.0
O101 O 0.71736 0.88591 0.78224 0.0
O102 O 0.67988 0.92785 0.80397 0.0
C103 C 0.58346 0.74279 0.75497 0.0
C104 C 0.41849 0.77147 0.68019 0.0
C105 C 0.39624 0.79541 0.6295 0.0
C106 C 0.36372 0.73972 0.64004 0.0
C107 C 0.37484 0.72788 0.66522 0.0
C108 C 0.45077 0.82732 0.66994 0.0
C109 C 0.43942 0.83928 0.64477 0.0
C110 C 0.43293 0.75685 0.70548 0.0
C111 C 0.6337 0.89871 0.71322 0.0
H112 H 0.81041 0.97258 0.88345 0.0
H113 H 0.77593 0.99054 0.84237 0.0
H114 H 0.70983 0.81382 0.81959 0.0
H115 H 0.7461 0.79585 0.8605 0.0
H116 H 0.32944 0.70536 0.62887 0.0
H117 H 0.34992 0.68449 0.67288 0.0
H118 H 0.48517 0.86128 0.68123 0.0
H119 H 0.46495 0.88244 0.63706 0.0
Tb120 Tb 0.87123 0.62374 0.14344 0.0
Tb121 Tb 0.78772 0.51968 0.18465 0.0
C122 C 0.89199 0.52079 0.15515 0.0
C123 C 0.9167 0.72304 0.08583 0.0
C124 C 0.89686 0.76542 0.03833 0.0
C125 C 0.95227 0.77581 0.04491 0.0
C126 C 0.96201 0.75502 0.06836 0.0
C127 C 0.86087 0.71077 0.07908 0.0
C128 C 0.85105 0.73175 0.05558 0.0
C129 C 0.92887 0.70387 0.11103 0.0
O130 O 0.81421 0.54871 0.11967 0.0
O131 O 0.74039 0.49258 0.14849 0.0
O132 O 0.75583 0.57961 0.18195 0.0
O133 O 0.78702 0.61572 0.14103 0.0
O134 O 0.74638 0.43457 0.19871 0.0
O135 O 0.73808 0.50089 0.21869 0.0
O136 O 0.86863 0.5724 0.20433 0.0
O137 O 0.89524 0.65752 0.18365 0.0
O138 O 0.91663 0.57674 0.15105 0.0
O139 O 0.83941 0.49041 0.16452 0.0
C140 C 0.76211 0.5054 0.12478 0.0
O141 O 0.90395 0.70969 0.13181 0.0
O142 O 0.92713 0.6545 0.11093 0.0
C143 C 0.74946 0.60099 0.15999 0.0
C144 C 0.74238 0.43253 0.24503 0.0
C145 C 0.77295 0.41466 0.29519 0.0
C146 C 0.72268 0.41751 0.29149 0.0
C147 C 0.70739 0.42611 0.26658 0.0
C148 C 0.79262 0.42936 0.2486 0.0
C149 C 0.80746 0.41978 0.27356 0.0
C150 C 0.72859 0.44842 0.21975 0.0
C151 C 0.89765 0.62863 0.20404 0.0
H152 H 0.98846 0.80037 0.03195 0.0
H153 H 0.00528 0.76452 0.07299 0.0
H154 H 0.82503 0.68577 0.09218 0.0
H155 H 0.80791 0.72301 0.05132 0.0
H156 H 0.6951 0.41291 0.30791 0.0
H157 H 0.66886 0.42907 0.2642 0.0
H158 H 0.82082 0.43532 0.23225 0.0
H159 H 0.84644 0.41772 0.27609 0.0
Tb160 Tb 0.1159 0.77231 0.43464 0.0
Tb161 Tb 0.18844 0.71983 0.40319 0.0
C162 C 0.07425 0.63925 0.43407 0.0
C163 C 0.08876 0.84947 0.4863 0.0
C164 C 0.13134 0.90729 0.53475 0.0
C165 C 0.07218 0.86787 0.53133 0.0
C166 C 0.0512 0.83923 0.50738 0.0
C167 C 0.14756 0.8898 0.48945 0.0
C168 C 0.16848 0.9185 0.51327 0.0
C169 C 0.06776 0.81414 0.46217 0.0
O170 O 0.16685 0.75964 0.46399 0.0
O171 O 0.23208 0.74436 0.4406 0.0
O172 O 0.24379 0.81322 0.40235 0.0
O173 O 0.20458 0.84188 0.43496 0.0
O174 O 0.21316 0.65802 0.39636 0.0
O175 O 0.24159 0.73183 0.37105 0.0
O176 O 0.11503 0.70409 0.37917 0.0
O177 O 0.10098 0.77728 0.39282 0.0
O178 O 0.05913 0.67895 0.43304 0.0
O179 O 0.12528 0.64916 0.42675 0.0
C180 C 0.21371 0.75583 0.46235 0.0
O181 O 0.09571 0.83776 0.44053 0.0
O182 O 0.05719 0.7614 0.46453 0.0
C183 C 0.2477 0.85105 0.41973 0.0
C184 C 0.22357 0.64663 0.35128 0.0
C185 C 0.19667 0.59086 0.30254 0.0
C186 C 0.25366 0.61923 0.31181 0.0
C187 C 0.26697 0.64697 0.336 0.0
C188 C 0.16634 0.61695 0.34256 0.0
C189 C 0.15294 0.58892 0.3184 0.0
C190 C 0.23947 0.68282 0.37463 0.0
C191 C 0.09494 0.73898 0.37518 0.0
H192 H 0.04228 0.85753 0.54742 0.0
H193 H 0.00582 0.8078 0.50556 0.0
H194 H 0.17777 0.89835 0.47367 0.0
H195 H 0.21408 0.94919 0.51487 0.0
H196 H 0.28809 0.62043 0.30026 0.0
H197 H 0.3114 0.67006 0.34244 0.0
H198 H 0.1324 0.61692 0.35406 0.0
H199 H 0.10874 0.56731 0.31177 0.0
Tb200 Tb 0.33954 0.22001 0.81275 0.0
Tb201 Tb 0.45748 0.26092 0.84787 0.0
C202 C 0.44264 0.34602 0.81241 0.0
C203 C 0.24084 0.14985 0.75817 0.0
C204 C 0.22583 0.09286 0.70951 0.0
C205 C 0.2048 0.13101 0.71334 0.0
C206 C 0.21229 0.15919 0.7374 0.0
C207 C 0.26108 0.1112 0.75457 0.0
C208 C 0.25332 0.0828 0.73067 0.0
C209 C 0.25392 0.18395 0.78259 0.0
O210 O 0.40526 0.22814 0.78522 0.0
O211 O 0.47433 0.22819 0.81224 0.0
O212 O 0.39278 0.1732 0.85705 0.0
O213 O 0.35348 0.14707 0.81699 0.0
O214 O 0.53195 0.32879 0.86441 0.0
O215 O 0.51212 0.2406 0.86883 0.0
O216 O 0.40435 0.28452 0.87088 0.0
O217 O 0.31502 0.22199 0.85369 0.0
O218 O 0.38617 0.31458 0.81453 0.0
O219 O 0.47534 0.3243 0.81803 0.0
C220 C 0.45136 0.22365 0.78904 0.0
O221 O 0.25361 0.15799 0.80429 0.0
O222 O 0.29858 0.23567 0.78134 0.0
C223 C 0.37342 0.13537 0.83809 0.0
C224 C 0.55988 0.3054 0.90363 0.0
C225 C 0.58669 0.33351 0.95671 0.0
C226 C 0.62273 0.37064 0.93694 0.0
C227 C 0.60959 0.35647 0.91068 0.0
C228 C 0.52344 0.26813 0.92319 0.0
C229 C 0.53695 0.28195 0.94956 0.0
C230 C 0.54575 0.29402 0.8758 0.0
C231 C 0.34788 0.25653 0.87255 0.0
H232 H 0.18414 0.14059 0.69752 0.0
H233 H 0.19702 0.1894 0.73958 0.0
H234 H 0.28386 0.1036 0.77013 0.0
H235 H 0.26927 0.0531 0.72879 0.0
H236 H 0.6606 0.41133 0.94169 0.0
H237 H 0.63776 0.38604 0.89581 0.0
H238 H 0.48443 0.22867 0.91813 0.0
H239 H 0.50858 0.25219 0.9643 0.0
H240 H 0.25804 0.63558 0.25738 0.0
H241 H 0.10588 0.48604 0.28839 0.0
H242 H 0.08811 0.43912 0.24517 0.0
H243 H 0.20224 0.62797 0.18968 0.0
H244 H 0.2716 0.65008 0.17529 0.0
H245 H 0.26708 0.67556 0.20735 0.0
H246 H 0.33012 0.63602 0.2262 0.0
H247 H 0.3347 0.61047 0.19429 0.0
H248 H 0.30794 0.56117 0.22156 0.0
H249 H 0.09509 0.40311 0.20142 0.0
H250 H 0.12586 0.3806 0.15967 0.0
H251 H 0.27247 0.55373 0.15633 0.0
C252 C 0.22059 0.59322 0.25498 0.0
C253 C 0.18336 0.56433 0.27622 0.0
C254 C 0.13458 0.50915 0.2723 0.0
C255 C 0.12415 0.48223 0.24783 0.0
C256 C 0.16247 0.51143 0.22747 0.0
C257 C 0.20948 0.5659 0.2307 0.0
C258 C 0.24689 0.58584 0.2064 0.0
C259 C 0.24692 0.63796 0.19394 0.0
C260 C 0.30853 0.59912 0.21249 0.0
C261 C 0.21513 0.53291 0.18942 0.0
C262 C 0.16604 0.49083 0.20183 0.0
C263 C 0.13265 0.43607 0.19127 0.0
C264 C 0.15058 0.42359 0.16772 0.0
C265 C 0.20115 0.46574 0.15504 0.0
C266 C 0.233 0.52145 0.16557 0.0
H267 H 0.43504 0.23765 0.73746 0.0
H268 H 0.52708 0.18361 0.78938 0.0
H269 H 0.57234 0.16601 0.75113 0.0
H270 H 0.41216 0.13686 0.68369 0.0
H271 H 0.42307 0.18948 0.65908 0.0
H272 H 0.39321 0.19114 0.69047 0.0
H273 H 0.47467 0.29753 0.6964 0.0
H274 H 0.50473 0.29557 0.66521 0.0
H275 H 0.54876 0.31508 0.6942 0.0
H276 H 0.61013 0.15783 0.70761 0.0
H277 H 0.64603 0.17 0.66208 0.0
H278 H 0.53256 0.23322 0.63903 0.0
C279 C 0.46407 0.22132 0.74079 0.0
C280 C 0.4776 0.21197 0.76632 0.0
C281 C 0.5165 0.19149 0.76993 0.0
C282 C 0.54202 0.18091 0.74835 0.0
C283 C 0.52781 0.1907 0.72341 0.0
C284 C 0.49013 0.21089 0.71954 0.0
C285 C 0.48599 0.22282 0.69093 0.0
C286 C 0.42497 0.1827 0.68043 0.0
C287 C 0.50468 0.28653 0.68644 0.0
C288 C 0.52871 0.20794 0.6794 0.0
C289 C 0.55115 0.18798 0.69836 0.0
C290 C 0.59254 0.1729 0.69255 0.0
C291 C 0.61242 0.17961 0.66673 0.0
C292 C 0.59137 0.20189 0.64736 0.0
C293 C 0.54866 0.21562 0.65365 0.0
H294 H 0.44289 0.66771 0.94525 0.0
H295 H 0.26449 0.56162 0.92182 0.0
H296 H 0.29143 0.5936 0.87601 0.0
H297 H 0.47385 0.78621 0.90423 0.0
H298 H 0.54626 0.80337 0.89646 0.0
H299 H 0.51409 0.76887 0.92706 0.0
H300 H 0.53388 0.6861 0.91625 0.0
H301 H 0.56641 0.7206 0.88566 0.0
H302 H 0.50767 0.64725 0.88594 0.0
H303 H 0.33654 0.63832 0.8335 0.0
H304 H 0.3964 0.69584 0.7965 0.0
H305 H 0.54599 0.7762 0.84744 0.0
C306 C 0.40979 0.65064 0.93034 0.0
C307 C 0.35168 0.61207 0.93688 0.0
C308 C 0.30918 0.59135 0.91708 0.0
C309 C 0.32411 0.60904 0.89107 0.0
C310 C 0.38165 0.64764 0.88529 0.0
C311 C 0.42389 0.66836 0.9043 0.0
C312 C 0.48199 0.7118 0.89298 0.0
C313 C 0.50539 0.77107 0.90596 0.0
C314 C 0.52502 0.69012 0.89535 0.0
C315 C 0.46554 0.71279 0.86472 0.0
C316 C 0.40759 0.67489 0.86071 0.0
C317 C 0.382 0.6681 0.83634 0.0
C318 C 0.41649 0.70106 0.81545 0.0
C319 C 0.47593 0.74079 0.81907 0.0
C320 C 0.50066 0.74653 0.84408 0.0
H321 H 0.77855 0.21696 0.40789 0.0
H322 H 0.77149 0.3369 0.46271 0.0
H323 H 0.78753 0.40375 0.42647 0.0
H324 H 0.88951 0.32837 0.36425 0.0
H325 H 0.85622 0.28646 0.33531 0.0
H326 H 0.85082 0.25086 0.366 0.0
H327 H 0.73943 0.19507 0.36212 0.0
H328 H 0.74462 0.23033 0.33149 0.0
H329 H 0.70214 0.23465 0.35779 0.0
H330 H 0.79331 0.45231 0.38441 0.0
H331 H 0.78524 0.47782 0.33873 0.0
H332 H 0.79106 0.32829 0.31115 0.0
C333 C 0.78083 0.25747 0.41233 0.0
C334 C 0.77325 0.27142 0.43811 0.0
C335 C 0.77682 0.32502 0.4431 0.0
C336 C 0.78631 0.36352 0.42267 0.0
C337 C 0.79308 0.34822 0.39747 0.0
C338 C 0.79076 0.29665 0.39221 0.0
C339 C 0.7955 0.28893 0.36315 0.0
C340 C 0.85134 0.28865 0.35681 0.0
C341 C 0.74225 0.23402 0.35306 0.0
C342 C 0.79772 0.34283 0.35281 0.0
C343 C 0.79753 0.37702 0.373 0.0
C344 C 0.79448 0.42654 0.36841 0.0
C345 C 0.78971 0.44056 0.34252 0.0
C346 C 0.78792 0.40507 0.32169 0.0
C347 C 0.79366 0.35664 0.32682 0.0
H348 H 0.37655 0.73001 0.5856 0.0
H349 H 0.38646 0.88721 0.6136 0.0
H350 H 0.35376 0.90104 0.57052 0.0
H351 H 0.41745 0.77818 0.51543 0.0
H352 H 0.36751 0.70719 0.50339 0.0
H353 H 0.40235 0.71565 0.53455 0.0
H354 H 0.3024 0.65557 0.55669 0.0
H355 H 0.26741 0.64754 0.52574 0.0
H356 H 0.24973 0.67798 0.55318 0.0
H357 H 0.30411 0.88868 0.5285 0.0
H358 H 0.24474 0.85361 0.48871 0.0
H359 H 0.26834 0.70541 0.48668 0.0
C360 C 0.37296 0.76796 0.58243 0.0
C361 C 0.38394 0.80759 0.60284 0.0
C362 C 0.37891 0.85677 0.59809 0.0
C363 C 0.36039 0.86495 0.5737 0.0
C364 C 0.34806 0.82403 0.55426 0.0
C365 C 0.35485 0.77688 0.55818 0.0
C366 C 0.33327 0.7364 0.53497 0.0
C367 C 0.38313 0.73426 0.52127 0.0
C368 C 0.28536 0.67583 0.54314 0.0
C369 C 0.31008 0.76638 0.51807 0.0
C370 C 0.31993 0.81733 0.52944 0.0
C371 C 0.29734 0.84968 0.51908 0.0
C372 C 0.26324 0.82913 0.49669 0.0
C373 C 0.25229 0.77692 0.48492 0.0
C374 C 0.27705 0.74584 0.49528 0.0
H375 H 0.79636 0.49208 0.07621 0.0
H376 H 0.64496 0.44319 0.12395 0.0
H377 H 0.58254 0.38982 0.08657 0.0
H378 H 0.74244 0.51426 0.01703 0.0
H379 H 0.77554 0.4844 0.99651 0.0
H380 H 0.80799 0.51702 0.02729 0.0
H381 H 0.80498 0.42297 0.04176 0.0
H382 H 0.77263 0.39005 0.01097 0.0
H383 H 0.73749 0.35595 0.04124 0.0
H384 H 0.53726 0.34806 0.04308 0.0
H385 H 0.51224 0.317 0.99716 0.0
H386 H 0.69361 0.3872 0.97927 0.0
C387 C 0.75008 0.46996 0.07881 0.0
C388 C 0.72527 0.47174 0.10284 0.0
C389 C 0.66461 0.44199 0.10563 0.0
C390 C 0.6289 0.41172 0.08456 0.0
C391 C 0.65473 0.41104 0.06103 0.0
C392 C 0.7139 0.43884 0.05814 0.0
C393 C 0.73084 0.43166 0.03081 0.0
C394 C 0.76627 0.49032 0.01711 0.0
C395 C 0.76339 0.39815 0.03123 0.0
C396 C 0.67196 0.39656 0.01863 0.0
C397 C 0.62859 0.38511 0.03632 0.0
C398 C 0.57077 0.35585 0.02913 0.0
C399 C 0.55698 0.33806 1.00305 0.0
C400 C 0.60091 0.34937 0.9846 0.0
C401 C 0.65898 0.37832 0.99276 0.0
H402 H 0.4102 0.41655 0.1375 0.0
H403 H 0.43006 0.55323 0.08552 0.0
H404 H 0.53295 0.61005 0.09673 0.0
H405 H 0.5076 0.51206 0.1879 0.0
H406 H 0.53639 0.46591 0.19555 0.0
H407 H 0.46377 0.43531 0.18355 0.0
H408 H 0.48714 0.38573 0.1463 0.0
H409 H 0.56035 0.41656 0.1574 0.0
H410 H 0.54563 0.42834 0.12421 0.0
H411 H 0.63409 0.65042 0.11163 0.0
H412 H 0.72828 0.67122 0.12936 0.0
H413 H 0.64353 0.51256 0.17412 0.0
C414 C 0.43646 0.45824 0.12841 0.0
C415 C 0.41231 0.48044 0.11057 0.0
C416 C 0.44773 0.5355 0.09929 0.0
C417 C 0.5062 0.5682 0.10557 0.0
C418 C 0.52865 0.54576 0.12352 0.0
C419 C 0.49504 0.49223 0.1349 0.0
C420 C 0.53044 0.47858 0.1536 0.0
C421 C 0.50821 0.47262 0.18182 0.0
C422 C 0.53098 0.42409 0.14486 0.0
C423 C 0.58923 0.53221 0.15045 0.0
C424 C 0.58705 0.57042 0.13303 0.0
C425 C 0.6363 0.62138 0.12566 0.0
C426 C 0.6895 0.63306 0.13591 0.0
C427 C 0.69289 0.59444 0.15364 0.0
C428 C 0.64189 0.54392 0.16135 0.0
H429 H 0.0515 0.53205 0.41822 0.0
H430 H 0.01002 0.61994 0.47803 0.0
H431 H 0.95556 0.52845 0.5025 0.0
H432 H 0.90951 0.40019 0.42039 0.0
H433 H 0.93751 0.35282 0.41428 0.0
H434 H 0.97391 0.4249 0.40117 0.0
H435 H 0.06842 0.446 0.42386 0.0
H436 H 0.03321 0.37406 0.43706 0.0
H437 H 0.06881 0.43507 0.45867 0.0
H438 H 0.91385 0.4299 0.52241 0.0
H439 H 0.87036 0.32678 0.53256 0.0
H440 H 0.93036 0.29944 0.4579 0.0
C441 C 0.0302 0.53167 0.4363 0.0
C442 C 0.03488 0.58295 0.44633 0.0
C443 C 0.0064 0.58099 0.46994 0.0
C444 C 0.97586 0.52936 0.48406 0.0
C445 C 0.97311 0.47978 0.47399 0.0
C446 C 0.998 0.48004 0.45026 0.0
C447 C 0.98617 0.42006 0.44332 0.0
C448 C 0.94962 0.39818 0.4183 0.0
C449 C 0.04252 0.41876 0.44057 0.0
C450 C 0.95223 0.38647 0.46721 0.0
C451 C 0.94591 0.42201 0.48477 0.0
C452 C 0.91784 0.4015 0.50864 0.0
C453 C 0.8937 0.34274 0.51433 0.0
C454 C 0.89673 0.30461 0.49606 0.0
C455 C 0.9274 0.3273 0.47236 0.0
H456 H 0.34977 0.0548 0.79946 0.0
H457 H 0.45044 0.1264 0.87015 0.0
H458 H 0.50665 0.07949 0.85974 0.0
H459 H 0.34688 0.91472 0.80507 0.0
H460 H 0.34952 0.90783 0.77008 0.0
H461 H 0.31517 0.9448 0.78379 0.0
H462 H 0.38195 0.0356 0.75595 0.0
H463 H 0.41515 0.99759 0.7422 0.0
H464 H 0.45877 0.06577 0.75806 0.0
H465 H 0.56103 0.03673 0.83846 0.0
H466 H 0.59641 0.98266 0.81285 0.0
H467 H 0.45479 0.92983 0.75842 0.0
C468 C 0.38263 0.05944 0.81313 0.0
C469 C 0.3962 0.09528 0.83544 0.0
C470 C 0.43949 0.09992 0.85279 0.0
C471 C 0.47194 0.07357 0.84699 0.0
C472 C 0.4595 0.04116 0.82417 0.0
C473 C 0.41457 0.0322 0.80798 0.0
C474 C 0.40939 0.99405 0.785 0.0
C475 C 0.35182 0.93695 0.78606 0.0
C476 C 0.41671 0.02514 0.75876 0.0
C477 C 0.45978 0.98483 0.79033 0.0
C478 C 0.48847 0.01297 0.81287 0.0
C479 C 0.53832 0.01363 0.82104 0.0
C480 C 0.55847 0.98336 0.80622 0.0
C481 C 0.52832 0.95205 0.78372 0.0
C482 C 0.47849 0.95314 0.77565 0.0
H483 H 0.48252 0.64061 0.75176 0.0
H484 H 0.66406 0.71556 0.76937 0.0
H485 H 0.64695 0.62033 0.78373 0.0
H486 H 0.43454 0.55384 0.80781 0.0
H487 H 0.37329 0.49352 0.79277 0.0
H488 H 0.40011 0.56504 0.77999 0.0
H489 H 0.41235 0.53156 0.73411 0.0
H490 H 0.38471 0.45962 0.74661 0.0
H491 H 0.45394 0.49615 0.73064 0.0
H492 H 0.61032 0.52133 0.79916 0.0
H493 H 0.55722 0.42193 0.81475 0.0
H494 H 0.39623 0.40843 0.78959 0.0
C495 C 0.51885 0.63623 0.75768 0.0
C496 C 0.57499 0.68475 0.75875 0.0
C497 C 0.62115 0.67846 0.76789 0.0
C498 C 0.61172 0.62469 0.77615 0.0
C499 C 0.55569 0.57796 0.77555 0.0
C500 C 0.50991 0.58292 0.76656 0.0
C501 C 0.45334 0.52686 0.77032 0.0
C502 C 0.41295 0.53534 0.78882 0.0
C503 C 0.42438 0.50208 0.74384 0.0
C504 C 0.47459 0.4897 0.78291 0.0
C505 C 0.53385 0.52035 0.78551 0.0
C506 C 0.564 0.49665 0.797 0.0
C507 C 0.5331 0.43985 0.80583 0.0
C508 C 0.47227 0.40678 0.80329 0.0
C509 C 0.44258 0.43236 0.79178 0.0
H510 H 0.12542 0.46752 0.0821 0.0
H511 H 0.03128 0.29198 0.11083 0.0
H512 H 0.95899 0.31166 0.13087 0.0
H513 H 0.10824 0.52815 0.13986 0.0
H514 H 0.10262 0.58512 0.12401 0.0
H515 H 0.14271 0.55577 0.1087 0.0
H516 H 0.08029 0.53173 0.06687 0.0
H517 H 0.04077 0.56221 0.08172 0.0
H518 H 0.00297 0.48942 0.06955 0.0
H519 H 0.9012 0.35213 0.15018 0.0
H520 H 0.85831 0.40867 0.16598 0.0
H521 H 0.99278 0.56035 0.12661 0.0
C522 C 0.08823 0.43256 0.09164 0.0
C523 C 0.08267 0.37755 0.09417 0.0
C524 C 0.03526 0.33383 0.10808 0.0
C525 C 0.99439 0.34483 0.1197 0.0
C526 C 0.00218 0.40008 0.1176 0.0
C527 C 0.04779 0.44321 0.10386 0.0
C528 C 0.04891 0.50006 0.10645 0.0
C529 C 0.10387 0.54491 0.12059 0.0
C530 C 0.04285 0.52214 0.07954 0.0
C531 C 0.996 0.48188 0.1233 0.0
C532 C 0.97 0.42409 0.12961 0.0
C533 C 0.92096 0.39731 0.14523 0.0
C534 C 0.897 0.43002 0.15416 0.0
C535 C 0.92194 0.48912 0.14751 0.0
C536 C 0.97268 0.51542 0.13213 0.0
H537 H 0.35146 0.8546 0.41686 0.0
H538 H 0.27288 0.95455 0.44057 0.0
H539 H 0.36518 0.02764 0.45995 0.0
H540 H 0.4316 0.87901 0.47513 0.0
H541 H 0.49368 0.88256 0.45967 0.0
H542 H 0.42355 0.84058 0.44509 0.0
H543 H 0.46103 0.89742 0.40168 0.0
H544 H 0.53165 0.93898 0.41588 0.0
H545 H 0.49626 0.97492 0.40213 0.0
H546 H 0.46293 0.08634 0.47896 0.0
H547 H 0.56217 0.13102 0.49482 0.0
H548 H 0.57966 0.99294 0.45994 0.0
C549 C 0.3543 0.89293 0.42528 0.0
C550 C 0.30532 0.89972 0.42657 0.0
C551 C 0.31008 0.9491 0.43889 0.0
C552 C 0.36223 0.99061 0.4501 0.0
C553 C 0.40919 0.98188 0.44911 0.0
C554 C 0.40596 0.93448 0.43694 0.0
C555 C 0.46196 0.93387 0.44013 0.0
C556 C 0.4521 0.88087 0.45594 0.0
C557 C 0.48935 0.93647 0.41336 0.0
C558 C 0.49759 0.98898 0.45556 0.0
C559 C 0.46585 0.01551 0.46063 0.0
C560 C 0.48835 0.06621 0.47494 0.0
C561 C 0.54508 0.09121 0.48393 0.0
C562 C 0.57948 0.0659 0.4786 0.0
C563 C 0.55488 0.01359 0.46436 0.0
H564 H 0.39582 0.34406 0.90884 0.0
H565 H 0.2406 0.1818 0.89269 0.0
H566 H 0.20047 0.18756 0.9355 0.0
H567 H 0.40418 0.32282 0.97727 0.0
H568 H 0.42847 0.39648 0.98606 0.0
H569 H 0.44478 0.37987 0.95416 0.0
H570 H 0.39699 0.4326 0.93237 0.0
H571 H 0.38089 0.44975 0.96421 0.0
H572 H 0.32392 0.41201 0.94079 0.0
H573 H 0.17994 0.20852 0.98184 0.0
H574 H 0.1759 0.24819 0.02501 0.0
H575 H 0.34169 0.39985 1.00959 0.0
C576 C 0.35318 0.30984 0.91419 0.0
C577 C 0.32143 0.26229 0.89729 0.0
C578 C 0.26569 0.21876 0.90511 0.0
C579 C 0.24267 0.22153 0.92951 0.0
C580 C 0.27546 0.26856 0.94582 0.0
C581 C 0.32916 0.31245 0.93826 0.0
C582 C 0.35519 0.35895 0.95911 0.0
C583 C 0.41147 0.36485 0.96978 0.0
C584 C 0.3648 0.41674 0.94848 0.0
C585 C 0.30792 0.33431 0.97968 0.0
C586 C 0.26261 0.28176 0.97182 0.0
C587 C 0.21497 0.2499 0.98801 0.0
C588 C 0.21317 0.27265 0.0126 0.0
C589 C 0.25824 0.32726 0.02074 0.0
C590 C 0.30625 0.3582 1.00393 0.0
H591 H 0.9388 0.1875 0.34057 0.0
H592 H 0.90506 0.01284 0.35171 0.0
H593 H 0.95513 0.01951 0.31045 0.0
H594 H 0.92209 0.18076 0.27037 0.0
H595 H 0.98021 0.25308 0.26464 0.0
H596 H 0.94098 0.23522 0.29509 0.0
H597 H 0.03617 0.27252 0.32078 0.0
H598 H 0.07568 0.29074 0.29042 0.0
H599 H 0.08265 0.24389 0.31355 0.0
H600 H 0.00734 0.0433 0.26794 0.0
H601 H 0.06183 0.08417 0.22728 0.0
H602 H 0.06751 0.24575 0.24344 0.0
C603 C 0.94225 0.15078 0.33444 0.0
C604 C 0.9169 0.09922 0.34945 0.0
C605 C 0.9225 0.05228 0.34046 0.0
C606 C 0.95135 0.05575 0.31705 0.0
C607 C 0.97508 0.10664 0.30267 0.0
C608 C 0.97128 0.15353 0.311 0.0
C609 C 1.00143 0.20326 0.29173 0.0
C610 C 0.95861 0.21899 0.27975 0.0
C611 C 0.05199 0.2557 0.30491 0.0
C612 C 0.02262 0.17679 0.27136 0.0
C613 C 0.00667 0.12095 0.27814 0.0
C614 C 0.02057 0.08719 0.26254 0.0
C615 C 0.05205 0.11109 0.23948 0.0
C616 C 0.07001 0.16863 0.23207 0.0
C617 C 0.05446 0.20162 0.24831 0.0
H618 H 0.60633 0.96349 0.68157 0.0
H619 H 0.72616 0.90066 0.68814 0.0
H620 H 0.76574 0.94138 0.64422 0.0
H621 H 0.57343 0.93824 0.61509 0.0
H622 H 0.57318 0.00425 0.60895 0.0
H623 H 0.55643 0.97267 0.64111 0.0
H624 H 0.63561 0.06661 0.66104 0.0
H625 H 0.65538 0.10025 0.62927 0.0
H626 H 0.70874 0.0977 0.64951 0.0
H627 H 0.78776 0.9858 0.59702 0.0
H628 H 0.79535 0.03543 0.55489 0.0
H629 H 0.66237 0.07039 0.58129 0.0
C630 C 0.64124 0.95858 0.67391 0.0
C631 C 0.66299 0.92862 0.68837 0.0
C632 C 0.70903 0.92375 0.6776 0.0
C633 C 0.73149 0.94646 0.65255 0.0
C634 C 0.70816 0.97483 0.63861 0.0
C635 C 0.66468 0.98174 0.64928 0.0
C636 C 0.64799 0.01547 0.63106 0.0
C637 C 0.58396 0.98051 0.62359 0.0
C638 C 0.66278 0.07341 0.64347 0.0
C639 C 0.68663 0.0242 0.6078 0.0
C640 C 0.72154 1.00102 0.61242 0.0
C641 C 0.76067 0.00425 0.59342 0.0
C642 C 0.76455 0.03236 0.56942 0.0
C643 C 0.72953 0.05703 0.56448 0.0
C644 C 0.68998 0.05225 0.58413 0.0
H645 H 0.73772 0.78725 0.90831 0.0
H646 H 0.88615 0.95797 0.89722 0.0
H647 H 0.92941 0.94639 0.93746 0.0
H648 H 0.73193 0.79272 0.97868 0.0
H649 H 0.71277 0.71874 0.98361 0.0
H650 H 0.69234 0.7398 0.95384 0.0
H651 H 0.74376 0.69766 0.92655 0.0
H652 H 0.76416 0.67626 0.95624 0.0
H653 H 0.81848 0.72148 0.93282 0.0
H654 H 0.95705 0.91795 0.97893 0.0
H655 H 0.96856 0.87328 0.01875 0.0
H656 H 0.80483 0.71871 1.00333 0.0
C657 C 0.77949 0.82205 0.91423 0.0
C658 C 0.80798 0.87396 0.89955 0.0
C659 C 0.86254 0.91837 0.90825 0.0
C660 C 0.88782 0.91207 0.93107 0.0
C661 C 0.85845 0.86089 0.94515 0.0
C662 C 0.80563 0.81645 0.9371 0.0
C663 C 0.78372 0.76583 0.95598 0.0
C664 C 0.72681 0.75357 0.96878 0.0
C665 C 0.77716 0.71213 0.94206 0.0
C666 C 0.83247 0.78899 0.97585 0.0
C667 C 0.87501 0.84394 0.96911 0.0
C668 C 0.92425 0.87472 0.98429 0.0
C669 C 0.93057 0.84867 1.00685 0.0
C670 C 0.8881 0.79201 0.01422 0.0
C671 C 0.83811 0.76208 0.99844 0.0
H672 H 0.03585 0.64321 0.34446 0.0
H673 H 0.08666 0.8238 0.34867 0.0
H674 H 0.04334 0.8168 0.30498 0.0
H675 H 0.06087 0.63597 0.27749 0.0
H676 H 0.99804 0.56641 0.27198 0.0
H677 H 0.03071 0.5845 0.30386 0.0
H678 H 0.93489 0.56277 0.3251 0.0
H679 H 0.90067 0.54294 0.29354 0.0
H680 H 0.89707 0.59737 0.31266 0.0
H681 H 0.99816 0.78991 0.25886 0.0
H682 H 0.94779 0.74383 0.21746 0.0
H683 H 0.92353 0.58038 0.24528 0.0
C684 C 0.03761 0.68128 0.33628 0.0
C685 C 0.06498 0.73423 0.34997 0.0
C686 C 0.06578 0.78278 0.33863 0.0
C687 C 0.04148 0.77922 0.31375 0.0
C688 C 0.0155 0.72648 0.30062 0.0
C689 C 0.01249 0.67813 0.3118 0.0
C690 C 0.98101 0.62613 0.29411 0.0
C691 C 0.02004 0.60189 0.28638 0.0
C692 C 0.92511 0.57958 0.30713 0.0
C693 C 0.96822 0.653 0.27087 0.0
C694 C 0.98836 0.71089 0.27485 0.0
C695 C 0.98192 0.74448 0.2557 0.0
C696 C 0.95349 0.71803 0.23214 0.0
C697 C 0.93148 0.65844 0.22795 0.0
C698 C 0.93953 0.62601 0.2477 0.0
H699 H 0.1367 0.05263 0.67329 0.0
H700 H 0.30498 0.07095 0.68609 0.0
H701 H 0.29833 0.0251 0.64359 0.0
H702 H 0.07233 0.91524 0.64109 0.0
H703 H 0.03253 0.93225 0.61787 0.0
H704 H 0.04983 0.96613 0.64957 0.0
H705 H 0.09963 0.0666 0.62752 0.0
H706 H 0.08229 0.03303 0.59576 0.0
H707 H 0.15597 0.08433 0.60385 0.0
H708 H 0.27343 0.97611 0.59985 0.0
H709 H 0.23314 0.9297 0.55751 0.0
H710 H 0.0827 0.94663 0.57146 0.0
C711 C 0.17242 0.04748 0.66713 0.0
C712 C 0.22126 0.06529 0.68342 0.0
C713 C 0.26659 0.05692 0.67446 0.0
C714 C 0.26341 0.03114 0.65017 0.0
C715 C 0.21467 0.0139 0.63478 0.0
C716 C 0.17005 0.02188 0.64281 0.0
C717 C 0.12271 0.99972 0.62232 0.0
C718 C 0.066 0.95041 0.63338 0.0
C719 C 0.1147 0.04886 0.61174 0.0
C720 C 0.14774 0.97805 0.60156 0.0
C721 C 0.20078 0.98659 0.60922 0.0
C722 C 0.23215 0.9697 0.59355 0.0
C723 C 0.20897 0.94369 0.56935 0.0
C724 C 0.15488 0.93491 0.56076 0.0
C725 C 0.12394 0.95228 0.57733 0.0
loop_
_geom_bond_atom_site_label_1
_geom_bond_atom_site_label_2
_geom_bond_distance
_geom_bond_site_symmetry_2
_ccdc_geom_bond_type
Tb0 C9 2.764 . S
Tb0 O10 2.325 . S
Tb0 O13 2.303 . S
Tb0 O17 2.322 . S
Tb0 O18 2.349 . S
Tb0 O21 2.415 . S
Tb0 O22 2.399 . S
Tb1 O11 2.322 . S
Tb1 O12 2.349 . S
Tb1 O14 2.415 . S
Tb1 O15 2.399 . S
Tb1 O16 2.325 . S
Tb1 O19 2.303 . S
Tb1 C30 2.764 . S
C2 O18 1.261 . S
C2 O19 1.257 . S
C3 C6 1.358 . S
C3 C7 1.332 . S
C3 C9 1.504 . S
C4 C5 1.373 . S
C4 C8 1.308 . S
C5 C4 1.373 . S
C5 C6 1.429 . S
C5 H32 0.932 . S
C6 C3 1.358 . S
C6 C5 1.429 . S
C6 H33 0.930 . S
C7 C3 1.332 . S
C7 C8 1.394 . S
C7 H34 0.932 . S
C8 C4 1.308 . S
C8 C7 1.394 . S
C8 H35 0.929 . S
C9 Tb0 2.764 . S
C9 C3 1.504 . S
C9 O21 1.239 . S
C9 O22 1.263 . S
O10 Tb0 2.325 . S
O10 C20 1.236 . S
O11 Tb1 2.322 . S
O11 C20 1.257 . S
O12 Tb1 2.349 . S
O12 C23 1.261 . S
O13 Tb0 2.303 . S
O13 C23 1.257 . S
O14 Tb1 2.415 . S
O14 C30 1.239 . S
O15 Tb1 2.399 . S
O15 C30 1.263 . S
O16 Tb1 2.325 . S
O16 C31 1.236 . S
O17 Tb0 2.322 . S
O17 C31 1.257 . S
O18 Tb0 2.349 . S
O18 C2 1.261 . S
O19 Tb1 2.303 . S
O19 C2 1.257 . S
C20 O10 1.236 . S
C20 O11 1.257 . S
O21 Tb0 2.415 . S
O21 C9 1.239 . S
O22 Tb0 2.399 . S
O22 C9 1.263 . S
C23 O12 1.261 . S
C23 O13 1.257 . S
C24 C27 1.358 . S
C24 C28 1.332 . S
C24 C30 1.504 1_556 S
C25 C26 1.373 . S
C25 C29 1.308 . S
C26 C25 1.373 . S
C26 C27 1.429 . S
C26 H36 0.932 . S
C27 C24 1.358 . S
C27 C26 1.429 . S
C27 H37 0.930 . S
C28 C24 1.332 . S
C28 C29 1.394 . S
C28 H38 0.932 . S
C29 C25 1.308 . S
C29 C28 1.394 . S
C29 H39 0.929 . S
C30 Tb1 2.764 . S
C30 O14 1.239 . S
C30 O15 1.263 . S
C30 C24 1.504 1_554 S
C31 O16 1.236 . S
C31 O17 1.257 . S
H32 C5 0.932 . S
H33 C6 0.930 . S
H34 C7 0.932 . S
H35 C8 0.929 . S
H36 C26 0.932 . S
H37 C27 0.930 . S
H38 C28 0.932 . S
H39 C29 0.929 . S
Tb40 C49 2.764 . S
Tb40 O50 2.325 . S
Tb40 O53 2.303 . S
Tb40 O57 2.322 . S
Tb40 O58 2.349 . S
Tb40 O61 2.415 . S
Tb40 O62 2.399 . S
Tb41 O51 2.322 . S
Tb41 O52 2.349 . S
Tb41 O54 2.415 . S
Tb41 O55 2.399 . S
Tb41 O56 2.325 . S
Tb41 O59 2.303 . S
Tb41 C70 2.764 . S
C42 O58 1.261 . S
C42 O59 1.257 . S
C43 C46 1.358 . S
C43 C47 1.332 . S
C43 C49 1.504 . S
C44 C45 1.373 . S
C44 C48 1.308 . S
C45 C44 1.373 . S
C45 C46 1.429 . S
C45 H72 0.932 . S
C46 C43 1.358 . S
C46 C45 1.429 . S
C46 H73 0.930 . S
C47 C43 1.332 . S
C47 C48 1.394 . S
C47 H74 0.932 . S
C48 C44 1.308 . S
C48 C47 1.394 . S
C48 H75 0.929 . S
C49 Tb40 2.764 . S
C49 C43 1.504 . S
C49 O61 1.239 . S
C49 O62 1.263 . S
O50 Tb40 2.325 . S
O50 C60 1.236 . S
O51 Tb41 2.322 . S
O51 C60 1.257 . S
O52 Tb41 2.349 . S
O52 C63 1.261 . S
O53 Tb40 2.303 . S
O53 C63 1.257 . S
O54 Tb41 2.415 . S
O54 C70 1.239 . S
O55 Tb41 2.399 . S
O55 C70 1.263 . S
O56 Tb41 2.325 . S
O56 C71 1.236 . S
O57 Tb40 2.322 . S
O57 C71 1.257 . S
O58 Tb40 2.349 . S
O58 C42 1.261 . S
O59 Tb41 2.303 . S
O59 C42 1.257 . S
C60 O50 1.236 . S
C60 O51 1.257 . S
O61 Tb40 2.415 . S
O61 C49 1.239 . S
O62 Tb40 2.399 . S
O62 C49 1.263 . S
C63 O52 1.261 . S
C63 O53 1.257 . S
C64 C67 1.358 . S
C64 C68 1.332 . S
C64 C70 1.504 . S
C65 C66 1.373 . S
C65 C69 1.308 . S
C66 C65 1.373 . S
C66 C67 1.429 . S
C66 H76 0.932 . S
C67 C64 1.358 . S
C67 C66 1.429 . S
C67 H77 0.930 . S
C68 C64 1.332 . S
C68 C69 1.394 . S
C68 H78 0.932 . S
C69 C65 1.308 . S
C69 C68 1.394 . S
C69 H79 0.929 . S
C70 Tb41 2.764 . S
C70 O54 1.239 . S
C70 O55 1.263 . S
C70 C64 1.504 . S
C71 O56 1.236 . S
C71 O57 1.257 . S
H72 C45 0.932 . S
H73 C46 0.930 . S
H74 C47 0.932 . S
H75 C48 0.929 . S
H76 C66 0.932 . S
H77 C67 0.930 . S
H78 C68 0.932 . S
H79 C69 0.929 . S
Tb80 C89 2.764 . S
Tb80 O90 2.325 . S
Tb80 O93 2.303 . S
Tb80 O97 2.322 . S
Tb80 O98 2.349 . S
Tb80 O101 2.415 . S
Tb80 O102 2.399 . S
Tb81 O91 2.322 . S
Tb81 O92 2.349 . S
Tb81 O94 2.415 . S
Tb81 O95 2.399 . S
Tb81 O96 2.325 . S
Tb81 O99 2.303 . S
Tb81 C110 2.764 . S
C82 O98 1.261 . S
C82 O99 1.257 . S
C83 C86 1.358 . S
C83 C87 1.332 . S
C83 C89 1.504 . S
C84 C85 1.373 . S
C84 C88 1.308 . S
C85 C84 1.373 . S
C85 C86 1.429 . S
C85 H112 0.932 . S
C86 C83 1.358 . S
C86 C85 1.429 . S
C86 H113 0.930 . S
C87 C83 1.332 . S
C87 C88 1.394 . S
C87 H114 0.932 . S
C88 C84 1.308 . S
C88 C87 1.394 . S
C88 H115 0.929 . S
C89 Tb80 2.764 . S
C89 C83 1.504 . S
C89 O101 1.239 . S
C89 O102 1.263 . S
O90 Tb80 2.325 . S
O90 C100 1.236 . S
O91 Tb81 2.322 . S
O91 C100 1.257 . S
O92 Tb81 2.349 . S
O92 C103 1.261 . S
O93 Tb80 2.303 . S
O93 C103 1.257 . S
O94 Tb81 2.415 . S
O94 C110 1.239 . S
O95 Tb81 2.399 . S
O95 C110 1.263 . S
O96 Tb81 2.325 . S
O96 C111 1.236 . S
O97 Tb80 2.322 . S
O97 C111 1.257 . S
O98 Tb80 2.349 . S
O98 C82 1.261 . S
O99 Tb81 2.303 . S
O99 C82 1.257 . S
C100 O90 1.236 . S
C100 O91 1.257 . S
O101 Tb80 2.415 . S
O101 C89 1.239 . S
O102 Tb80 2.399 . S
O102 C89 1.263 . S
C103 O92 1.261 . S
C103 O93 1.257 . S
C104 C107 1.358 . S
C104 C108 1.332 . S
C104 C110 1.504 . S
C105 C106 1.373 . S
C105 C109 1.308 . S
C106 C105 1.373 . S
C106 C107 1.429 . S
C106 H116 0.932 . S
C107 C104 1.358 . S
C107 C106 1.429 . S
C107 H117 0.930 . S
C108 C104 1.332 . S
C108 C109 1.394 . S
C108 H118 0.932 . S
C109 C105 1.308 . S
C109 C108 1.394 . S
C109 H119 0.929 . S
C110 Tb81 2.764 . S
C110 O94 1.239 . S
C110 O95 1.263 . S
C110 C104 1.504 . S
C111 O96 1.236 . S
C111 O97 1.257 . S
H112 C85 0.932 . S
H113 C86 0.930 . S
H114 C87 0.932 . S
H115 C88 0.929 . S
H116 C106 0.932 . S
H117 C107 0.930 . S
H118 C108 0.932 . S
H119 C109 0.929 . S
Tb120 C129 2.764 . S
Tb120 O130 2.325 . S
Tb120 O133 2.303 . S
Tb120 O137 2.322 . S
Tb120 O138 2.349 . S
Tb120 O141 2.415 . S
Tb120 O142 2.399 . S
Tb121 O131 2.322 . S
Tb121 O132 2.349 . S
Tb121 O134 2.415 . S
Tb121 O135 2.399 . S
Tb121 O136 2.325 . S
Tb121 O139 2.303 . S
Tb121 C150 2.764 . S
C122 O138 1.261 . S
C122 O139 1.257 . S
C123 C126 1.358 . S
C123 C127 1.332 . S
C123 C129 1.504 . S
C124 C125 1.373 . S
C124 C128 1.308 . S
C125 C124 1.373 . S
C125 C126 1.429 . S
C125 H152 0.932 . S
C126 C123 1.358 . S
C126 C125 1.429 . S
C126 H153 0.930 . S
C127 C123 1.332 . S
C127 C128 1.394 . S
C127 H154 0.932 . S
C128 C124 1.308 . S
C128 C127 1.394 . S
C128 H155 0.929 . S
C129 Tb120 2.764 . S
C129 C123 1.504 . S
C129 O141 1.239 . S
C129 O142 1.263 . S
O130 Tb120 2.325 . S
O130 C140 1.236 . S
O131 Tb121 2.322 . S
O131 C140 1.257 . S
O132 Tb121 2.349 . S
O132 C143 1.261 . S
O133 Tb120 2.303 . S
O133 C143 1.257 . S
O134 Tb121 2.415 . S
O134 C150 1.239 . S
O135 Tb121 2.399 . S
O135 C150 1.263 . S
O136 Tb121 2.325 . S
O136 C151 1.236 . S
O137 Tb120 2.322 . S
O137 C151 1.257 . S
O138 Tb120 2.349 . S
O138 C122 1.261 . S
O139 Tb121 2.303 . S
O139 C122 1.257 . S
C140 O130 1.236 . S
C140 O131 1.257 . S
O141 Tb120 2.415 . S
O141 C129 1.239 . S
O142 Tb120 2.399 . S
O142 C129 1.263 . S
C143 O132 1.261 . S
C143 O133 1.257 . S
C144 C147 1.358 . S
C144 C148 1.332 . S
C144 C150 1.504 . S
C145 C146 1.373 . S
C145 C149 1.308 . S
C146 C145 1.373 . S
C146 C147 1.429 . S
C146 H156 0.932 . S
C147 C144 1.358 . S
C147 C146 1.429 . S
C147 H157 0.930 . S
C148 C144 1.332 . S
C148 C149 1.394 . S
C148 H158 0.932 . S
C149 C145 1.308 . S
C149 C148 1.394 . S
C149 H159 0.929 . S
C150 Tb121 2.764 . S
C150 O134 1.239 . S
C150 O135 1.263 . S
C150 C144 1.504 . S
C151 O136 1.236 . S
C151 O137 1.257 . S
H152 C125 0.932 . S
H153 C126 0.930 . S
H154 C127 0.932 . S
H155 C128 0.929 . S
H156 C146 0.932 . S
H157 C147 0.930 . S
H158 C148 0.932 . S
H159 C149 0.929 . S
Tb160 C169 2.764 . S
Tb160 O170 2.325 . S
Tb160 O173 2.303 . S
Tb160 O177 2.322 . S
Tb160 O178 2.349 . S
Tb160 O181 2.415 . S
Tb160 O182 2.399 . S
Tb161 O171 2.322 . S
Tb161 O172 2.349 . S
Tb161 O174 2.415 . S
Tb161 O175 2.399 . S
Tb161 O176 2.325 . S
Tb161 O179 2.303 . S
Tb161 C190 2.764 . S
C162 O178 1.261 . S
C162 O179 1.257 . S
C163 C166 1.358 . S
C163 C167 1.332 . S
C163 C169 1.504 . S
C164 C165 1.373 . S
C164 C168 1.308 . S
C165 C164 1.373 . S
C165 C166 1.429 . S
C165 H192 0.932 . S
C166 C163 1.358 . S
C166 C165 1.429 . S
C166 H193 0.930 . S
C167 C163 1.332 . S
C167 C168 1.394 . S
C167 H194 0.932 . S
C168 C164 1.308 . S
C168 C167 1.394 . S
C168 H195 0.929 . S
C169 Tb160 2.764 . S
C169 C163 1.504 . S
C169 O181 1.239 . S
C169 O182 1.263 . S
O170 Tb160 2.325 . S
O170 C180 1.236 . S
O171 Tb161 2.322 . S
O171 C180 1.257 . S
O172 Tb161 2.349 . S
O172 C183 1.261 . S
O173 Tb160 2.303 . S
O173 C183 1.257 . S
O174 Tb161 2.415 . S
O174 C190 1.239 . S
O175 Tb161 2.399 . S
O175 C190 1.263 . S
O176 Tb161 2.325 . S
O176 C191 1.236 . S
O177 Tb160 2.322 . S
O177 C191 1.257 . S
O178 Tb160 2.349 . S
O178 C162 1.261 . S
O179 Tb161 2.303 . S
O179 C162 1.257 . S
C180 O170 1.236 . S
C180 O171 1.257 . S
O181 Tb160 2.415 . S
O181 C169 1.239 . S
O182 Tb160 2.399 . S
O182 C169 1.263 . S
C183 O172 1.261 . S
C183 O173 1.257 . S
C184 C187 1.358 . S
C184 C188 1.332 . S
C184 C190 1.504 . S
C185 C186 1.373 . S
C185 C189 1.308 . S
C186 C185 1.373 . S
C186 C187 1.429 . S
C186 H196 0.932 . S
C187 C184 1.358 . S
C187 C186 1.429 . S
C187 H197 0.930 . S
C188 C184 1.332 . S
C188 C189 1.394 . S
C188 H198 0.932 . S
C189 C185 1.308 . S
C189 C188 1.394 . S
C189 H199 0.929 . S
C190 Tb161 2.764 . S
C190 O174 1.239 . S
C190 O175 1.263 . S
C190 C184 1.504 . S
C191 O176 1.236 . S
C191 O177 1.257 . S
H192 C165 0.932 . S
H193 C166 0.930 . S
H194 C167 0.932 . S
H195 C168 0.929 . S
H196 C186 0.932 . S
H197 C187 0.930 . S
H198 C188 0.932 . S
H199 C189 0.929 . S
Tb200 C209 2.764 . S
Tb200 O210 2.325 . S
Tb200 O213 2.303 . S
Tb200 O217 2.322 . S
Tb200 O218 2.349 . S
Tb200 O221 2.415 . S
Tb200 O222 2.399 . S
Tb201 O211 2.322 . S
Tb201 O212 2.349 . S
Tb201 O214 2.415 . S
Tb201 O215 2.399 . S
Tb201 O216 2.325 . S
Tb201 O219 2.303 . S
Tb201 C230 2.764 . S
C202 O218 1.261 . S
C202 O219 1.257 . S
C203 C206 1.358 . S
C203 C207 1.332 . S
C203 C209 1.504 . S
C204 C205 1.373 . S
C204 C208 1.308 . S
C205 C204 1.373 . S
C205 C206 1.429 . S
C205 H232 0.932 . S
C206 C203 1.358 . S
C206 C205 1.429 . S
C206 H233 0.930 . S
C207 C203 1.332 . S
C207 C208 1.394 . S
C207 H234 0.932 . S
C208 C204 1.308 . S
C208 C207 1.394 . S
C208 H235 0.929 . S
C209 Tb200 2.764 . S
C209 C203 1.504 . S
C209 O221 1.239 . S
C209 O222 1.263 . S
O210 Tb200 2.325 . S
O210 C220 1.236 . S
O211 Tb201 2.322 . S
O211 C220 1.257 . S
O212 Tb201 2.349 . S
O212 C223 1.261 . S
O213 Tb200 2.303 . S
O213 C223 1.257 . S
O214 Tb201 2.415 . S
O214 C230 1.239 . S
O215 Tb201 2.399 . S
O215 C230 1.263 . S
O216 Tb201 2.325 . S
O216 C231 1.236 . S
O217 Tb200 2.322 . S
O217 C231 1.257 . S
O218 Tb200 2.349 . S
O218 C202 1.261 . S
O219 Tb201 2.303 . S
O219 C202 1.257 . S
C220 O210 1.236 . S
C220 O211 1.257 . S
O221 Tb200 2.415 . S
O221 C209 1.239 . S
O222 Tb200 2.399 . S
O222 C209 1.263 . S
C223 O212 1.261 . S
C223 O213 1.257 . S
C224 C227 1.358 . S
C224 C228 1.332 . S
C224 C230 1.504 . S
C225 C226 1.373 . S
C225 C229 1.308 . S
C226 C225 1.373 . S
C226 C227 1.429 . S
C226 H236 0.932 . S
C227 C224 1.358 . S
C227 C226 1.429 . S
C227 H237 0.930 . S
C228 C224 1.332 . S
C228 C229 1.394 . S
C228 H238 0.932 . S
C229 C225 1.308 . S
C229 C228 1.394 . S
C229 H239 0.929 . S
C230 Tb201 2.764 . S
C230 O214 1.239 . S
C230 O215 1.263 . S
C230 C224 1.504 . S
C231 O216 1.236 . S
C231 O217 1.257 . S
H232 C205 0.932 . S
H233 C206 0.930 . S
H234 C207 0.932 . S
H235 C208 0.929 . S
H236 C226 0.932 . S
H237 C227 0.930 . S
H238 C228 0.932 . S
H239 C229 0.929 . S
H240 C252 0.930 . S
H241 C254 0.930 . S
H242 C255 0.930 . S
H243 C259 0.959 . S
H244 C259 0.959 . S
H245 C259 0.961 . S
H246 C260 0.960 . S
H247 C260 0.961 . S
H248 C260 0.959 . S
H249 C263 0.929 . S
H250 C264 0.931 . S
H251 C266 0.930 . S
C252 H240 0.930 . S
C252 C253 1.399 . S
C252 C257 1.399 . S
C253 C252 1.399 . S
C253 C254 1.376 . S
C254 H241 0.930 . S
C254 C253 1.376 . S
C254 C255 1.388 . S
C255 H242 0.930 . S
C255 C254 1.388 . S
C255 C256 1.390 . S
C256 C255 1.390 . S
C256 C257 1.394 . S
C256 C262 1.465 . S
C257 C252 1.399 . S
C257 C256 1.394 . S
C257 C258 1.516 . S
C258 C257 1.516 . S
C258 C259 1.502 . S
C258 C260 1.561 . S
C258 C261 1.526 . S
C259 H243 0.959 . S
C259 H244 0.959 . S
C259 H245 0.961 . S
C259 C258 1.502 . S
C260 H246 0.960 . S
C260 H247 0.961 . S
C260 H248 0.959 . S
C260 C258 1.561 . S
C261 C258 1.526 . S
C261 C262 1.396 . S
C261 C266 1.390 . S
C262 C256 1.465 . S
C262 C261 1.396 . S
C262 C263 1.399 . S
C263 H249 0.929 . S
C263 C262 1.399 . S
C263 C264 1.385 . S
C264 H250 0.931 . S
C264 C263 1.385 . S
C264 C265 1.389 . S
C265 C264 1.389 . S
C265 C266 1.387 . S
C266 H251 0.930 . S
C266 C261 1.390 . S
C266 C265 1.387 . S
H267 C279 0.930 . S
H268 C281 0.930 . S
H269 C282 0.930 . S
H270 C286 0.959 . S
H271 C286 0.959 . S
H272 C286 0.961 . S
H273 C287 0.960 . S
H274 C287 0.961 . S
H275 C287 0.959 . S
H276 C290 0.929 . S
H277 C291 0.931 . S
H278 C293 0.930 . S
C279 H267 0.930 . S
C279 C280 1.399 . S
C279 C284 1.399 . S
C280 C279 1.399 . S
C280 C281 1.376 . S
C281 H268 0.930 . S
C281 C280 1.376 . S
C281 C282 1.388 . S
C282 H269 0.930 . S
C282 C281 1.388 . S
C282 C283 1.390 . S
C283 C282 1.390 . S
C283 C284 1.394 . S
C283 C289 1.465 . S
C284 C279 1.399 . S
C284 C283 1.394 . S
C284 C285 1.516 . S
C285 C284 1.516 . S
C285 C286 1.502 . S
C285 C287 1.561 . S
C285 C288 1.526 . S
C286 H270 0.959 . S
C286 H271 0.959 . S
C286 H272 0.961 . S
C286 C285 1.502 . S
C287 H273 0.960 . S
C287 H274 0.961 . S
C287 H275 0.959 . S
C287 C285 1.561 . S
C288 C285 1.526 . S
C288 C289 1.396 . S
C288 C293 1.390 . S
C289 C283 1.465 . S
C289 C288 1.396 . S
C289 C290 1.399 . S
C290 H276 0.929 . S
C290 C289 1.399 . S
C290 C291 1.385 . S
C291 H277 0.931 . S
C291 C290 1.385 . S
C291 C292 1.389 . S
C292 C291 1.389 . S
C292 C293 1.387 . S
C293 H278 0.930 . S
C293 C288 1.390 . S
C293 C292 1.387 . S
H294 C306 0.930 . S
H295 C308 0.930 . S
H296 C309 0.930 . S
H297 C313 0.959 . S
H298 C313 0.959 . S
H299 C313 0.961 . S
H300 C314 0.960 . S
H301 C314 0.961 . S
H302 C314 0.959 . S
H303 C317 0.929 . S
H304 C318 0.931 . S
H305 C320 0.930 . S
C306 H294 0.930 . S
C306 C307 1.399 . S
C306 C311 1.399 . S
C307 C306 1.399 . S
C307 C308 1.376 . S
C308 H295 0.930 . S
C308 C307 1.376 . S
C308 C309 1.388 . S
C309 H296 0.930 . S
C309 C308 1.388 . S
C309 C310 1.390 . S
C310 C309 1.390 . S
C310 C311 1.394 . S
C310 C316 1.465 . S
C311 C306 1.399 . S
C311 C310 1.394 . S
C311 C312 1.516 . S
C312 C311 1.516 . S
C312 C313 1.502 . S
C312 C314 1.561 . S
C312 C315 1.526 . S
C313 H297 0.959 . S
C313 H298 0.959 . S
C313 H299 0.961 . S
C313 C312 1.502 . S
C314 H300 0.960 . S
C314 H301 0.961 . S
C314 H302 0.959 . S
C314 C312 1.561 . S
C315 C312 1.526 . S
C315 C316 1.396 . S
C315 C320 1.390 . S
C316 C310 1.465 . S
C316 C315 1.396 . S
C316 C317 1.399 . S
C317 H303 0.929 . S
C317 C316 1.399 . S
C317 C318 1.385 . S
C318 H304 0.931 . S
C318 C317 1.385 . S
C318 C319 1.389 . S
C319 C318 1.389 . S
C319 C320 1.387 . S
C320 H305 0.930 . S
C320 C315 1.390 . S
C320 C319 1.387 . S
H321 C333 0.930 . S
H322 C335 0.930 . S
H323 C336 0.930 . S
H324 C340 0.959 . S
H325 C340 0.959 . S
H326 C340 0.961 . S
H327 C341 0.960 . S
H328 C341 0.961 . S
H329 C341 0.959 . S
H330 C344 0.929 . S
H331 C345 0.931 . S
H332 C347 0.930 . S
C333 H321 0.930 . S
C333 C334 1.399 . S
C333 C338 1.399 . S
C334 C333 1.399 . S
C334 C335 1.376 . S
C335 H322 0.930 . S
C335 C334 1.376 . S
C335 C336 1.388 . S
C336 H323 0.930 . S
C336 C335 1.388 . S
C336 C337 1.390 . S
C337 C336 1.390 . S
C337 C338 1.394 . S
C337 C343 1.465 . S
C338 C333 1.399 . S
C338 C337 1.394 . S
C338 C339 1.516 . S
C339 C338 1.516 . S
C339 C340 1.502 . S
C339 C341 1.561 . S
C339 C342 1.526 . S
C340 H324 0.959 . S
C340 H325 0.959 . S
C340 H326 0.961 . S
C340 C339 1.502 . S
C341 H327 0.960 . S
C341 H328 0.961 . S
C341 H329 0.959 . S
C341 C339 1.561 . S
C342 C339 1.526 . S
C342 C343 1.396 . S
C342 C347 1.390 . S
C343 C337 1.465 . S
C343 C342 1.396 . S
C343 C344 1.399 . S
C344 H330 0.929 . S
C344 C343 1.399 . S
C344 C345 1.385 . S
C345 H331 0.931 . S
C345 C344 1.385 . S
C345 C346 1.389 . S
C346 C345 1.389 . S
C346 C347 1.387 . S
C347 H332 0.930 . S
C347 C342 1.390 . S
C347 C346 1.387 . S
H348 C360 0.930 . S
H349 C362 0.930 . S
H350 C363 0.930 . S
H351 C367 0.959 . S
H352 C367 0.959 . S
H353 C367 0.961 . S
H354 C368 0.960 . S
H355 C368 0.961 . S
H356 C368 0.959 . S
H357 C371 0.929 . S
H358 C372 0.931 . S
H359 C374 0.930 . S
C360 H348 0.930 . S
C360 C361 1.399 . S
C360 C365 1.399 . S
C361 C360 1.399 . S
C361 C362 1.376 . S
C362 H349 0.930 . S
C362 C361 1.376 . S
C362 C363 1.388 . S
C363 H350 0.930 . S
C363 C362 1.388 . S
C363 C364 1.390 . S
C364 C363 1.390 . S
C364 C365 1.394 . S
C364 C370 1.465 . S
C365 C360 1.399 . S
C365 C364 1.394 . S
C365 C366 1.516 . S
C366 C365 1.516 . S
C366 C367 1.502 . S
C366 C368 1.561 . S
C366 C369 1.526 . S
C367 H351 0.959 . S
C367 H352 0.959 . S
C367 H353 0.961 . S
C367 C366 1.502 . S
C368 H354 0.960 . S
C368 H355 0.961 . S
C368 H356 0.959 . S
C368 C366 1.561 . S
C369 C366 1.526 . S
C369 C370 1.396 . S
C369 C374 1.390 . S
C370 C364 1.465 . S
C370 C369 1.396 . S
C370 C371 1.399 . S
C371 H357 0.929 . S
C371 C370 1.399 . S
C371 C372 1.385 . S
C372 H358 0.931 . S
C372 C371 1.385 . S
C372 C373 1.389 . S
C373 C372 1.389 . S
C373 C374 1.387 . S
C374 H359 0.930 . S
C374 C369 1.390 . S
C374 C373 1.387 . S
H375 C387 0.930 . S
H376 C389 0.930 . S
H377 C390 0.930 . S
H378 C394 0.959 . S
H379 C394 0.959 1_556 S
H380 C394 0.961 . S
H381 C395 0.960 . S
H382 C395 0.961 . S
H383 C395 0.959 . S
H384 C398 0.929 . S
H385 C399 0.931 . S
H386 C401 0.930 . S
C387 H375 0.930 . S
C387 C388 1.399 . S
C387 C392 1.399 . S
C388 C387 1.399 . S
C388 C389 1.376 . S
C389 H376 0.930 . S
C389 C388 1.376 . S
C389 C390 1.388 . S
C390 H377 0.930 . S
C390 C389 1.388 . S
C390 C391 1.390 . S
C391 C390 1.390 . S
C391 C392 1.394 . S
C391 C397 1.465 . S
C392 C387 1.399 . S
C392 C391 1.394 . S
C392 C393 1.516 . S
C393 C392 1.516 . S
C393 C394 1.502 . S
C393 C395 1.561 . S
C393 C396 1.526 . S
C394 H378 0.959 . S
C394 H379 0.959 1_554 S
C394 H380 0.961 . S
C394 C393 1.502 . S
C395 H381 0.960 . S
C395 H382 0.961 . S
C395 H383 0.959 . S
C395 C393 1.561 . S
C396 C393 1.526 . S
C396 C397 1.396 . S
C396 C401 1.390 1_554 S
C397 C391 1.465 . S
C397 C396 1.396 . S
C397 C398 1.399 . S
C398 H384 0.929 . S
C398 C397 1.399 . S
C398 C399 1.385 1_554 S
C399 H385 0.931 . S
C399 C398 1.385 1_556 S
C399 C400 1.389 . S
C400 C399 1.389 . S
C400 C401 1.387 . S
C401 H386 0.930 . S
C401 C396 1.390 1_556 S
C401 C400 1.387 . S
H402 C414 0.930 . S
H403 C416 0.930 . S
H404 C417 0.930 . S
H405 C421 0.959 . S
H406 C421 0.959 . S
H407 C421 0.961 . S
H408 C422 0.960 . S
H409 C422 0.961 . S
H410 C422 0.959 . S
H411 C425 0.929 . S
H412 C426 0.931 . S
H413 C428 0.930 . S
C414 H402 0.930 . S
C414 C415 1.399 . S
C414 C419 1.399 . S
C415 C414 1.399 . S
C415 C416 1.376 . S
C416 H403 0.930 . S
C416 C415 1.376 . S
C416 C417 1.388 . S
C417 H404 0.930 . S
C417 C416 1.388 . S
C417 C418 1.390 . S
C418 C417 1.390 . S
C418 C419 1.394 . S
C418 C424 1.465 . S
C419 C414 1.399 . S
C419 C418 1.394 . S
C419 C420 1.516 . S
C420 C419 1.516 . S
C420 C421 1.502 . S
C420 C422 1.561 . S
C420 C423 1.526 . S
C421 H405 0.959 . S
C421 H406 0.959 . S
C421 H407 0.961 . S
C421 C420 1.502 . S
C422 H408 0.960 . S
C422 H409 0.961 . S
C422 H410 0.959 . S
C422 C420 1.561 . S
C423 C420 1.526 . S
C423 C424 1.396 . S
C423 C428 1.390 . S
C424 C418 1.465 . S
C424 C423 1.396 . S
C424 C425 1.399 . S
C425 H411 0.929 . S
C425 C424 1.399 . S
C425 C426 1.385 . S
C426 H412 0.931 . S
C426 C425 1.385 . S
C426 C427 1.389 . S
C427 C426 1.389 . S
C427 C428 1.387 . S
C428 H413 0.930 . S
C428 C423 1.390 . S
C428 C427 1.387 . S
H429 C441 0.930 . S
H430 C443 0.930 . S
H431 C444 0.930 1_455 S
H432 C448 0.959 . S
H433 C448 0.959 . S
H434 C448 0.961 . S
H435 C449 0.960 . S
H436 C449 0.961 . S
H437 C449 0.959 . S
H438 C452 0.929 . S
H439 C453 0.931 . S
H440 C455 0.930 . S
C441 H429 0.930 . S
C441 C442 1.399 . S
C441 C446 1.399 . S
C442 C441 1.399 . S
C442 C443 1.376 1_655 S
C443 H430 0.930 . S
C443 C442 1.376 1_455 S
C443 C444 1.388 1_455 S
C444 H431 0.930 1_655 S
C444 C443 1.388 1_655 S
C444 C445 1.390 . S
C445 C444 1.390 . S
C445 C446 1.394 . S
C445 C451 1.465 . S
C446 C441 1.399 . S
C446 C445 1.394 . S
C446 C447 1.516 . S
C447 C446 1.516 . S
C447 C448 1.502 . S
C447 C449 1.561 . S
C447 C450 1.526 . S
C448 H432 0.959 . S
C448 H433 0.959 . S
C448 H434 0.961 . S
C448 C447 1.502 . S
C449 H435 0.960 . S
C449 H436 0.961 . S
C449 H437 0.959 . S
C449 C447 1.561 . S
C450 C447 1.526 . S
C450 C451 1.396 . S
C450 C455 1.390 . S
C451 C445 1.465 . S
C451 C450 1.396 . S
C451 C452 1.399 . S
C452 H438 0.929 . S
C452 C451 1.399 . S
C452 C453 1.385 . S
C453 H439 0.931 . S
C453 C452 1.385 . S
C453 C454 1.389 . S
C454 C453 1.389 . S
C454 C455 1.387 . S
C455 H440 0.930 . S
C455 C450 1.390 . S
C455 C454 1.387 . S
H456 C468 0.930 . S
H457 C470 0.930 . S
H458 C471 0.930 . S
H459 C475 0.959 1_545 S
H460 C475 0.959 . S
H461 C475 0.961 . S
H462 C476 0.960 . S
H463 C476 0.961 . S
H464 C476 0.959 . S
H465 C479 0.929 . S
H466 C480 0.931 . S
H467 C482 0.930 . S
C468 H456 0.930 . S
C468 C469 1.399 . S
C468 C473 1.399 . S
C469 C468 1.399 . S
C469 C470 1.376 . S
C470 H457 0.930 . S
C470 C469 1.376 . S
C470 C471 1.388 . S
C471 H458 0.930 . S
C471 C470 1.388 . S
C471 C472 1.390 . S
C472 C471 1.390 . S
C472 C473 1.394 . S
C472 C478 1.465 . S
C473 C468 1.399 . S
C473 C472 1.394 . S
C473 C474 1.516 . S
C474 C473 1.516 . S
C474 C475 1.502 1_545 S
C474 C476 1.561 1_545 S
C474 C477 1.526 . S
C475 H459 0.959 1_565 S
C475 H460 0.959 . S
C475 H461 0.961 . S
C475 C474 1.502 1_565 S
C476 H462 0.960 . S
C476 H463 0.961 . S
C476 H464 0.959 . S
C476 C474 1.561 1_565 S
C477 C474 1.526 . S
C477 C478 1.396 . S
C477 C482 1.390 1_545 S
C478 C472 1.465 . S
C478 C477 1.396 . S
C478 C479 1.399 . S
C479 H465 0.929 . S
C479 C478 1.399 . S
C479 C480 1.385 . S
C480 H466 0.931 . S
C480 C479 1.385 . S
C480 C481 1.389 . S
C481 C480 1.389 . S
C481 C482 1.387 1_545 S
C482 H467 0.930 . S
C482 C477 1.390 1_565 S
C482 C481 1.387 1_565 S
H483 C495 0.930 . S
H484 C497 0.930 . S
H485 C498 0.930 . S
H486 C502 0.959 . S
H487 C502 0.959 . S
H488 C502 0.961 . S
H489 C503 0.960 . S
H490 C503 0.961 . S
H491 C503 0.959 . S
H492 C506 0.929 . S
H493 C507 0.931 . S
H494 C509 0.930 . S
C495 H483 0.930 . S
C495 C496 1.399 . S
C495 C500 1.399 . S
C496 C495 1.399 . S
C496 C497 1.376 . S
C497 H484 0.930 . S
C497 C496 1.376 . S
C497 C498 1.388 . S
C498 H485 0.930 . S
C498 C497 1.388 . S
C498 C499 1.390 . S
C499 C498 1.390 . S
C499 C500 1.394 . S
C499 C505 1.465 . S
C500 C495 1.399 . S
C500 C499 1.394 . S
C500 C501 1.516 . S
C501 C500 1.516 . S
C501 C502 1.502 . S
C501 C503 1.561 . S
C501 C504 1.526 . S
C502 H486 0.959 . S
C502 H487 0.959 . S
C502 H488 0.961 . S
C502 C501 1.502 . S
C503 H489 0.960 . S
C503 H490 0.961 . S
C503 H491 0.959 . S
C503 C501 1.561 . S
C504 C501 1.526 . S
C504 C505 1.396 . S
C504 C509 1.390 . S
C505 C499 1.465 . S
C505 C504 1.396 . S
C505 C506 1.399 . S
C506 H492 0.929 . S
C506 C505 1.399 . S
C506 C507 1.385 . S
C507 H493 0.931 . S
C507 C506 1.385 . S
C507 C508 1.389 . S
C508 C507 1.389 . S
C508 C509 1.387 . S
C509 H494 0.930 . S
C509 C504 1.390 . S
C509 C508 1.387 . S
H510 C522 0.930 . S
H511 C524 0.930 . S
H512 C525 0.930 1_655 S
H513 C529 0.959 . S
H514 C529 0.959 . S
H515 C529 0.961 . S
H516 C530 0.960 . S
H517 C530 0.961 . S
H518 C530 0.959 . S
H519 C533 0.929 . S
H520 C534 0.931 . S
H521 C536 0.930 . S
C522 H510 0.930 . S
C522 C523 1.399 . S
C522 C527 1.399 . S
C523 C522 1.399 . S
C523 C524 1.376 . S
C524 H511 0.930 . S
C524 C523 1.376 . S
C524 C525 1.388 . S
C525 H512 0.930 1_455 S
C525 C524 1.388 . S
C525 C526 1.390 . S
C526 C525 1.390 . S
C526 C527 1.394 . S
C526 C532 1.465 . S
C527 C522 1.399 . S
C527 C526 1.394 . S
C527 C528 1.516 . S
C528 C527 1.516 . S
C528 C529 1.502 . S
C528 C530 1.561 . S
C528 C531 1.526 . S
C529 H513 0.959 . S
C529 H514 0.959 . S
C529 H515 0.961 . S
C529 C528 1.502 . S
C530 H516 0.960 . S
C530 H517 0.961 . S
C530 H518 0.959 . S
C530 C528 1.561 . S
C531 C528 1.526 . S
C531 C532 1.396 . S
C531 C536 1.390 . S
C532 C526 1.465 . S
C532 C531 1.396 . S
C532 C533 1.399 1_455 S
C533 H519 0.929 . S
C533 C532 1.399 1_655 S
C533 C534 1.385 . S
C534 H520 0.931 . S
C534 C533 1.385 . S
C534 C535 1.389 . S
C535 C534 1.389 . S
C535 C536 1.387 1_655 S
C536 H521 0.930 . S
C536 C531 1.390 . S
C536 C535 1.387 1_455 S
H537 C549 0.930 . S
H538 C551 0.930 . S
H539 C552 0.930 . S
H540 C556 0.959 . S
H541 C556 0.959 . S
H542 C556 0.961 . S
H543 C557 0.960 . S
H544 C557 0.961 1_545 S
H545 C557 0.959 1_545 S
H546 C560 0.929 . S
H547 C561 0.931 . S
H548 C563 0.930 . S
C549 H537 0.930 . S
C549 C550 1.399 . S
C549 C554 1.399 . S
C550 C549 1.399 . S
C550 C551 1.376 . S
C551 H538 0.930 . S
C551 C550 1.376 . S
C551 C552 1.388 . S
C552 H539 0.930 . S
C552 C551 1.388 . S
C552 C553 1.390 . S
C553 C552 1.390 . S
C553 C554 1.394 . S
C553 C559 1.465 . S
C554 C549 1.399 . S
C554 C553 1.394 . S
C554 C555 1.516 . S
C555 C554 1.516 . S
C555 C556 1.502 . S
C555 C557 1.561 . S
C555 C558 1.526 . S
C556 H540 0.959 . S
C556 H541 0.959 . S
C556 H542 0.961 . S
C556 C555 1.502 . S
C557 H543 0.960 . S
C557 H544 0.961 1_565 S
C557 H545 0.959 1_565 S
C557 C555 1.561 . S
C558 C555 1.526 . S
C558 C559 1.396 . S
C558 C563 1.390 . S
C559 C553 1.465 . S
C559 C558 1.396 . S
C559 C560 1.399 . S
C560 H546 0.929 . S
C560 C559 1.399 . S
C560 C561 1.385 . S
C561 H547 0.931 . S
C561 C560 1.385 . S
C561 C562 1.389 . S
C562 C561 1.389 . S
C562 C563 1.387 . S
C563 H548 0.930 . S
C563 C558 1.390 . S
C563 C562 1.387 . S
H564 C576 0.930 . S
H565 C578 0.930 . S
H566 C579 0.930 . S
H567 C583 0.959 . S
H568 C583 0.959 . S
H569 C583 0.961 . S
H570 C584 0.960 . S
H571 C584 0.961 . S
H572 C584 0.959 . S
H573 C587 0.929 . S
H574 C588 0.931 . S
H575 C590 0.930 . S
C576 H564 0.930 . S
C576 C577 1.399 . S
C576 C581 1.399 . S
C577 C576 1.399 . S
C577 C578 1.376 . S
C578 H565 0.930 . S
C578 C577 1.376 . S
C578 C579 1.388 . S
C579 H566 0.930 . S
C579 C578 1.388 . S
C579 C580 1.390 . S
C580 C579 1.390 . S
C580 C581 1.394 . S
C580 C586 1.465 . S
C581 C576 1.399 . S
C581 C580 1.394 . S
C581 C582 1.516 . S
C582 C581 1.516 . S
C582 C583 1.502 . S
C582 C584 1.561 . S
C582 C585 1.526 . S
C583 H567 0.959 . S
C583 H568 0.959 . S
C583 H569 0.961 . S
C583 C582 1.502 . S
C584 H570 0.960 . S
C584 H571 0.961 . S
C584 H572 0.959 . S
C584 C582 1.561 . S
C585 C582 1.526 . S
C585 C586 1.396 . S
C585 C590 1.390 . S
C586 C580 1.465 . S
C586 C585 1.396 . S
C586 C587 1.399 . S
C587 H573 0.929 . S
C587 C586 1.399 . S
C587 C588 1.385 1_556 S
C588 H574 0.931 . S
C588 C587 1.385 1_554 S
C588 C589 1.389 . S
C589 C588 1.389 . S
C589 C590 1.387 1_554 S
C590 H575 0.930 . S
C590 C585 1.390 . S
C590 C589 1.387 1_556 S
H591 C603 0.930 . S
H592 C605 0.930 . S
H593 C606 0.930 . S
H594 C610 0.959 . S
H595 C610 0.959 . S
H596 C610 0.961 . S
H597 C611 0.960 . S
H598 C611 0.961 . S
H599 C611 0.959 . S
H600 C614 0.929 . S
H601 C615 0.931 . S
H602 C617 0.930 . S
C603 H591 0.930 . S
C603 C604 1.399 . S
C603 C608 1.399 . S
C604 C603 1.399 . S
C604 C605 1.376 . S
C605 H592 0.930 . S
C605 C604 1.376 . S
C605 C606 1.388 . S
C606 H593 0.930 . S
C606 C605 1.388 . S
C606 C607 1.390 . S
C607 C606 1.390 . S
C607 C608 1.394 . S
C607 C613 1.465 1_655 S
C608 C603 1.399 . S
C608 C607 1.394 . S
C608 C609 1.516 . S
C609 C608 1.516 . S
C609 C610 1.502 . S
C609 C611 1.561 1_655 S
C609 C612 1.526 1_655 S
C610 H594 0.959 . S
C610 H595 0.959 . S
C610 H596 0.961 . S
C610 C609 1.502 . S
C611 H597 0.960 . S
C611 H598 0.961 . S
C611 H599 0.959 . S
C611 C609 1.561 1_455 S
C612 C609 1.526 1_455 S
C612 C613 1.396 . S
C612 C617 1.390 . S
C613 C607 1.465 1_455 S
C613 C612 1.396 . S
C613 C614 1.399 . S
C614 H600 0.929 . S
C614 C613 1.399 . S
C614 C615 1.385 . S
C615 H601 0.931 . S
C615 C614 1.385 . S
C615 C616 1.389 . S
C616 C615 1.389 . S
C616 C617 1.387 . S
C617 H602 0.930 . S
C617 C612 1.390 . S
C617 C616 1.387 . S
H618 C630 0.930 1_545 S
H619 C632 0.930 . S
H620 C633 0.930 . S
H621 C637 0.959 . S
H622 C637 0.959 . S
H623 C637 0.961 . S
H624 C638 0.960 . S
H625 C638 0.961 . S
H626 C638 0.959 . S
H627 C641 0.929 . S
H628 C642 0.931 . S
H629 C644 0.930 . S
C630 H618 0.930 1_565 S
C630 C631 1.399 . S
C630 C635 1.401 . S
C631 C630 1.399 . S
C631 C632 1.376 . S
C632 H619 0.930 . S
C632 C631 1.376 . S
C632 C633 1.388 . S
C633 H620 0.930 . S
C633 C632 1.388 . S
C633 C634 1.390 . S
C634 C633 1.390 . S
C634 C635 1.405 . S
C634 C640 1.465 . S
C635 C630 1.401 . S
C635 C634 1.405 . S
C635 C636 1.505 1_565 S
C636 C635 1.505 1_545 S
C636 C637 1.502 . S
C636 C638 1.561 . S
C636 C639 1.526 . S
C637 H621 0.959 . S
C637 H622 0.959 . S
C637 H623 0.961 . S
C637 C636 1.502 . S
C638 H624 0.960 . S
C638 H625 0.961 . S
C638 H626 0.959 . S
C638 C636 1.561 . S
C639 C636 1.526 . S
C639 C640 1.396 1_545 S
C639 C644 1.390 . S
C640 C634 1.465 . S
C640 C639 1.396 1_565 S
C640 C641 1.399 . S
C641 H627 0.929 . S
C641 C640 1.399 . S
C641 C642 1.385 . S
C642 H628 0.931 . S
C642 C641 1.385 . S
C642 C643 1.389 1_565 S
C643 C642 1.389 1_545 S
C643 C644 1.387 . S
C644 H629 0.930 . S
C644 C639 1.390 . S
C644 C643 1.387 . S
H645 C657 0.930 . S
H646 C659 0.930 . S
H647 C660 0.930 . S
H648 C664 0.959 . S
H649 C664 0.959 . S
H650 C664 0.961 . S
H651 C665 0.960 . S
H652 C665 0.961 . S
H653 C665 0.959 . S
H654 C668 0.929 . S
H655 C669 0.936 . S
H656 C671 0.930 . S
C657 H645 0.930 . S
C657 C658 1.399 . S
C657 C662 1.399 . S
C658 C657 1.399 . S
C658 C659 1.376 . S
C659 H646 0.930 . S
C659 C658 1.376 . S
C659 C660 1.388 . S
C660 H647 0.930 . S
C660 C659 1.388 . S
C660 C661 1.390 . S
C661 C660 1.390 . S
C661 C662 1.394 . S
C661 C667 1.465 . S
C662 C657 1.399 . S
C662 C661 1.394 . S
C662 C663 1.516 . S
C663 C662 1.516 . S
C663 C664 1.502 . S
C663 C665 1.561 . S
C663 C666 1.526 . S
C664 H648 0.959 . S
C664 H649 0.959 . S
C664 H650 0.961 . S
C664 C663 1.502 . S
C665 H651 0.960 . S
C665 H652 0.961 . S
C665 H653 0.959 . S
C665 C663 1.561 . S
C666 C663 1.526 . S
C666 C667 1.396 . S
C666 C671 1.390 . S
C667 C661 1.465 . S
C667 C666 1.396 . S
C667 C668 1.399 . S
C668 H654 0.929 . S
C668 C667 1.399 . S
C668 C669 1.378 1_556 S
C669 H655 0.936 . S
C669 C668 1.378 1_554 S
C669 C670 1.391 . S
C670 C669 1.391 . S
C670 C671 1.387 1_554 S
C671 H656 0.930 . S
C671 C666 1.390 . S
C671 C670 1.387 1_556 S
H672 C684 0.930 . S
H673 C686 0.929 1_655 S
H674 C687 0.930 . S
H675 C691 0.959 . S
H676 C691 0.959 . S
H677 C691 0.961 . S
H678 C692 0.960 . S
H679 C692 0.961 . S
H680 C692 0.959 . S
H681 C695 0.929 . S
H682 C696 0.931 . S
H683 C698 0.930 . S
C684 H672 0.930 . S
C684 C685 1.399 . S
C684 C689 1.399 . S
C685 C684 1.399 . S
C685 C686 1.380 . S
C686 H673 0.929 1_455 S
C686 C685 1.380 . S
C686 C687 1.387 1_455 S
C687 H674 0.930 . S
C687 C686 1.387 1_655 S
C687 C688 1.390 . S
C688 C687 1.390 . S
C688 C689 1.394 1_655 S
C688 C694 1.465 . S
C689 C684 1.399 . S
C689 C688 1.394 1_455 S
C689 C690 1.516 . S
C690 C689 1.516 . S
C690 C691 1.502 . S
C690 C692 1.561 1_455 S
C690 C693 1.526 1_455 S
C691 H675 0.959 . S
C691 H676 0.959 . S
C691 H677 0.961 . S
C691 C690 1.502 . S
C692 H678 0.960 . S
C692 H679 0.961 . S
C692 H680 0.959 . S
C692 C690 1.561 1_655 S
C693 C690 1.526 1_655 S
C693 C694 1.396 . S
C693 C698 1.390 . S
C694 C688 1.465 . S
C694 C693 1.396 . S
C694 C695 1.399 . S
C695 H681 0.929 . S
C695 C694 1.399 . S
C695 C696 1.385 . S
C696 H682 0.931 . S
C696 C695 1.385 . S
C696 C697 1.389 . S
C697 C696 1.389 . S
C697 C698 1.387 . S
C698 H683 0.930 . S
C698 C693 1.390 . S
C698 C697 1.387 . S
H699 C711 0.930 . S
H700 C713 0.930 . S
H701 C714 0.930 . S
H702 C718 0.959 . S
H703 C718 0.959 1_655 S
H704 C718 0.961 . S
H705 C719 0.960 . S
H706 C719 0.961 . S
H707 C719 0.959 . S
H708 C722 0.929 . S
H709 C723 0.931 . S
H710 C725 0.930 . S
C711 H699 0.930 . S
C711 C712 1.399 . S
C711 C716 1.399 . S
C712 C711 1.399 . S
C712 C713 1.376 . S
C713 H700 0.930 . S
C713 C712 1.376 . S
C713 C714 1.388 . S
C714 H701 0.930 . S
C714 C713 1.388 . S
C714 C715 1.390 . S
C715 C714 1.390 . S
C715 C716 1.394 . S
C715 C721 1.465 1_545 S
C716 C711 1.399 . S
C716 C715 1.394 . S
C716 C717 1.516 1_545 S
C717 C716 1.516 1_565 S
C717 C718 1.502 . S
C717 C719 1.561 1_565 S
C717 C720 1.526 . S
C718 H702 0.959 . S
C718 H703 0.959 1_455 S
C718 H704 0.961 . S
C718 C717 1.502 . S
C719 H705 0.960 . S
C719 H706 0.961 . S
C719 H707 0.959 . S
C719 C717 1.561 1_545 S
C720 C717 1.526 . S
C720 C721 1.396 . S
C720 C725 1.390 . S
C721 C715 1.465 1_565 S
C721 C720 1.396 . S
C721 C722 1.399 . S
C722 H708 0.929 . S
C722 C721 1.399 . S
C722 C723 1.385 . S
C723 H709 0.931 . S
C723 C722 1.385 . S
C723 C724 1.389 . S
C724 C723 1.389 . S
C724 C725 1.387 . S
C725 H710 0.930 . S
C725 C720 1.390 . S
C725 C724 1.387 . S
C253 C185 1.378 . S
C265 C20 1.351 . S
C280 C220 1.350 . S
C292 C65 1.383 . S
C307 C25 1.351 . S
C319 C100 1.381 . S
C334 C60 1.390 . S
C346 C145 1.340 . S
C361 C105 1.391 . S
C373 C180 1.341 . S
C388 C140 1.342 . S
C400 C225 1.390 . S
C415 C2 1.707 . S
C427 C143 1.579 . S
C442 C162 1.638 1_655 S
C454 C63 1.618 . S
C469 C223 1.547 . S
C481 C82 1.702 1_545 S
C496 C103 1.605 . S
C508 C202 1.701 . S
C523 C23 1.629 . S
C535 C122 1.646 . S
C550 C183 1.602 . S
C562 C42 1.702 1_565 S
C577 C231 1.576 . S
C589 C31 1.592 . S
C604 C44 0.821 . S
C616 C4 0.831 . S
C631 C111 1.562 . S
C643 C71 1.587 . S
C658 C84 0.829 . S
C670 C124 0.829 . S
C685 C191 1.591 . S
C697 C151 1.574 . S
C712 C204 0.731 . S
C724 C164 0.719 . S
