# Generated by pormake.
# Topology bcs, (6)-cn, num edge types: 1
# Building blocks:
#     Node 0, Type 0, BuildingBlock: JUFBIX_clean_sbu_0, # of connection points: 6
#     Node 1, Type 0, BuildingBlock: JUFBIX_clean_sbu_0, # of connection points: 6
#     Node 2, Type 0, BuildingBlock: JUFBIX_clean_sbu_0, # of connection points: 6
#     Node 3, Type 0, BuildingBlock: JUFBIX_clean_sbu_0, # of connection points: 6
#     Node 4, Type 0, BuildingBlock: JUFBIX_clean_sbu_0, # of connection points: 6
#     Node 5, Type 0, BuildingBlock: JUFBIX_clean_sbu_0, # of connection points: 6
#     Node 6, Type 0, BuildingBlock: JUFBIX_clean_sbu_0, # of connection points: 6
#     Node 7, Type 0, BuildingBlock: JUFBIX_clean_sbu_0, # of connection points: 6
#     Node 8, Type 0, BuildingBlock: JUFBIX_clean_sbu_0, # of connection points: 6
#     Node 9, Type 0, BuildingBlock: JUFBIX_clean_sbu_0, # of connection points: 6
#     Node 10, Type 0, BuildingBlock: JUFBIX_clean_sbu_0, # of connection points: 6
#     Node 11, Type 0, BuildingBlock: JUFBIX_clean_sbu_0, # of connection points: 6
#     Node 12, Type 0, BuildingBlock: JUFBIX_clean_sbu_0, # of connection points: 6
#     Node 13, Type 0, BuildingBlock: JUFBIX_clean_sbu_0, # of connection points: 6
#     Node 14, Type 0, BuildingBlock: JUFBIX_clean_sbu_0, # of connection points: 6
#     Node 15, Type 0, BuildingBlock: JUFBIX_clean_sbu_0, # of connection points: 6
#     Edge 16, Type (0, 0), BuildingBlock: OJICUG_clean_linker_0, # of connection points: 2
#     Edge 17, Type (0, 0), BuildingBlock: OJICUG_clean_linker_0, # of connection points: 2
#     Edge 18, Type (0, 0), BuildingBlock: OJICUG_clean_linker_0, # of connection points: 2
#     Edge 19, Type (0, 0), BuildingBlock: OJICUG_clean_linker_0, # of connection points: 2
#     Edge 20, Type (0, 0), BuildingBlock: OJICUG_clean_linker_0, # of connection points: 2
#     Edge 21, Type (0, 0), BuildingBlock: OJICUG_clean_linker_0, # of connection points: 2
#     Edge 22, Type (0, 0), BuildingBlock: OJICUG_clean_linker_0, # of connection points: 2
#     Edge 23, Type (0, 0), BuildingBlock: OJICUG_clean_linker_0, # of connection points: 2
#     Edge 24, Type (0, 0), BuildingBlock: OJICUG_clean_linker_0, # of connection points: 2
#     Edge 25, Type (0, 0), BuildingBlock: OJICUG_clean_linker_0, # of connection points: 2
#     Edge 26, Type (0, 0), BuildingBlock: OJICUG_clean_linker_0, # of connection points: 2
#     Edge 27, Type (0, 0), BuildingBlock: OJICUG_clean_linker_0, # of connection points: 2
#     Edge 28, Type (0, 0), BuildingBlock: OJICUG_clean_linker_0, # of connection points: 2
#     Edge 29, Type (0, 0), BuildingBlock: OJICUG_clean_linker_0, # of connection points: 2
#     Edge 30, Type (0, 0), BuildingBlock: OJICUG_clean_linker_0, # of connection points: 2
#     Edge 31, Type (0, 0), BuildingBlock: OJICUG_clean_linker_0, # of connection points: 2
#     Edge 32, Type (0, 0), BuildingBlock: OJICUG_clean_linker_0, # of connection points: 2
#     Edge 33, Type (0, 0), BuildingBlock: OJICUG_clean_linker_0, # of connection points: 2
#     Edge 34, Type (0, 0), BuildingBlock: OJICUG_clean_linker_0, # of connection points: 2
#     Edge 35, Type (0, 0), BuildingBlock: OJICUG_clean_linker_0, # of connection points: 2
#     Edge 36, Type (0, 0), BuildingBlock: OJICUG_clean_linker_0, # of connection points: 2
#     Edge 37, Type (0, 0), BuildingBlock: OJICUG_clean_linker_0, # of connection points: 2
#     Edge 38, Type (0, 0), BuildingBlock: OJICUG_clean_linker_0, # of connection points: 2
#     Edge 39, Type (0, 0), BuildingBlock: OJICUG_clean_linker_0, # of connection points: 2
#     Edge 40, Type (0, 0), BuildingBlock: OJICUG_clean_linker_0, # of connection points: 2
#     Edge 41, Type (0, 0), BuildingBlock: OJICUG_clean_linker_0, # of connection points: 2
#     Edge 42, Type (0, 0), BuildingBlock: OJICUG_clean_linker_0, # of connection points: 2
#     Edge 43, Type (0, 0), BuildingBlock: OJICUG_clean_linker_0, # of connection points: 2
#     Edge 44, Type (0, 0), BuildingBlock: OJICUG_clean_linker_0, # of connection points: 2
#     Edge 45, Type (0, 0), BuildingBlock: OJICUG_clean_linker_0, # of connection points: 2
#     Edge 46, Type (0, 0), BuildingBlock: OJICUG_clean_linker_0, # of connection points: 2
#     Edge 47, Type (0, 0), BuildingBlock: OJICUG_clean_linker_0, # of connection points: 2
#     Edge 48, Type (0, 0), BuildingBlock: OJICUG_clean_linker_0, # of connection points: 2
#     Edge 49, Type (0, 0), BuildingBlock: OJICUG_clean_linker_0, # of connection points: 2
#     Edge 50, Type (0, 0), BuildingBlock: OJICUG_clean_linker_0, # of connection points: 2
#     Edge 51, Type (0, 0), BuildingBlock: OJICUG_clean_linker_0, # of connection points: 2
#     Edge 52, Type (0, 0), BuildingBlock: OJICUG_clean_linker_0, # of connection points: 2
#     Edge 53, Type (0, 0), BuildingBlock: OJICUG_clean_linker_0, # of connection points: 2
#     Edge 54, Type (0, 0), BuildingBlock: OJICUG_clean_linker_0, # of connection points: 2
#     Edge 55, Type (0, 0), BuildingBlock: OJICUG_clean_linker_0, # of connection points: 2
#     Edge 56, Type (0, 0), BuildingBlock: OJICUG_clean_linker_0, # of connection points: 2
#     Edge 57, Type (0, 0), BuildingBlock: OJICUG_clean_linker_0, # of connection points: 2
#     Edge 58, Type (0, 0), BuildingBlock: OJICUG_clean_linker_0, # of connection points: 2
#     Edge 59, Type (0, 0), BuildingBlock: OJICUG_clean_linker_0, # of connection points: 2
#     Edge 60, Type (0, 0), BuildingBlock: OJICUG_clean_linker_0, # of connection points: 2
#     Edge 61, Type (0, 0), BuildingBlock: OJICUG_clean_linker_0, # of connection points: 2
#     Edge 62, Type (0, 0), BuildingBlock: OJICUG_clean_linker_0, # of connection points: 2
#     Edge 63, Type (0, 0), BuildingBlock: OJICUG_clean_linker_0, # of connection points: 2
# Relax obj value: 0.454
# Max RMSD: 0.308
# Mean RMSD: 0.240
data_MOF--net-bcs--node1-JUFBIX_clean_sbu_0--edge1-OJICUG_clean_linker_0
_symmetry_space_group_name_H-M    P1
_symmetry_Int_Tables_number       1
_symmetry_cell_setting            triclinic
loop_
_symmetry_equiv_pos_as_xyz
'x, y, z'
_cell_length_a     26.446245
_cell_length_b     27.357974
_cell_length_c     26.944058
_cell_angle_alpha  99.545603
_cell_angle_beta   98.608315
_cell_angle_gamma 87.837471
loop_
_atom_site_label
_atom_site_type_symbol
_atom_site_fract_x
_atom_site_fract_y
_atom_site_fract_z
_atom_type_partial_charge
Co0 Co 0.99629 1.00609 1.01682 0.0
C1 C 0.98021 0.0914 0.09317 0.0
Co2 Co 0.05498 0.06372 0.02265 0.0
C3 C 0.94207 0.93449 0.05745 0.0
C4 C 0.91056 0.93623 0.97991 0.0
N5 N 0.9478 0.95625 1.01666 0.0
N6 N 0.90318 0.90185 0.04779 0.0
C7 C 0.88301 0.9032 0.99893 0.0
H8 H 0.96483 0.9438 0.09449 0.0
H9 H 0.90326 0.94559 0.942 0.0
C10 C 0.07107 0.97841 0.94631 0.0
N11 N 0.10348 0.11355 0.02279 0.0
C12 C 0.10917 0.13527 0.98197 0.0
C13 C 0.14076 0.13356 0.05949 0.0
N14 N 0.14808 0.16788 0.99157 0.0
C15 C 0.1683 0.16655 0.04041 0.0
C16 C 0.08852 0.98794 0.08769 0.0
O17 O 0.03057 0.96355 0.96065 0.0
O18 O 0.08675 1.02173 0.96725 0.0
O19 O 0.10297 1.02832 0.07498 0.0
O20 O 0.04344 0.97365 0.06777 0.0
O21 O 1.02072 0.10625 0.07882 0.0
H22 H 0.14811 0.1242 0.0974 0.0
H23 H 0.08638 0.12594 0.94495 0.0
O24 O 0.96453 0.04808 0.07222 0.0
O25 O 0.94831 0.04148 0.96449 0.0
O26 O 1.00784 0.09616 0.97171 0.0
C27 C 0.96275 0.08187 0.95179 0.0
H28 H 0.85048 0.88196 0.97838 0.0
H29 H 0.20087 0.18777 0.06091 0.0
Co30 Co 0.30664 0.79033 0.24973 0.0
C31 C 0.30965 0.85947 0.33881 0.0
Co32 Co 0.24423 0.78336 0.29338 0.0
C33 C 0.37253 0.8417 0.20178 0.0
C34 C 0.39361 0.7649 0.19603 0.0
N35 N 0.35996 0.79863 0.21474 0.0
N36 N 0.41244 0.83641 0.17539 0.0
C37 C 0.42602 0.78805 0.17185 0.0
H38 H 0.35274 0.87647 0.21182 0.0
H39 H 0.3941 0.72597 0.19917 0.0
C40 C 0.24072 0.71538 0.20362 0.0
N41 N 0.19072 0.77492 0.32837 0.0
C42 C 0.17825 0.73182 0.3414 0.0
C43 C 0.1563 0.80834 0.34613 0.0
N44 N 0.13761 0.73679 0.36683 0.0
C45 C 0.1235 0.78498 0.36974 0.0
C46 C 0.21745 0.85149 0.21832 0.0
O47 O 0.28084 0.73682 0.19812 0.0
O48 O 0.21928 0.7298 0.24267 0.0
O49 O 0.2005 0.83192 0.25292 0.0
O50 O 0.26321 0.83862 0.21079 0.0
O51 O 0.2699 0.83766 0.3449 0.0
H52 H 0.15535 0.84717 0.34252 0.0
H53 H 0.19845 0.6972 0.33188 0.0
O54 O 0.33146 0.84401 0.3002 0.0
O55 O 0.35031 0.7414 0.28986 0.0
O56 O 0.2879 0.73486 0.33239 0.0
C57 C 0.33349 0.72159 0.32438 0.0
H58 H 0.45626 0.77032 0.15207 0.0
H59 H 0.0925 0.80241 0.38857 0.0
Co60 Co 0.53962 0.99877 0.52823 0.0
C61 C 0.61123 0.07314 0.5627 0.0
Co62 Co 0.51191 0.07097 0.51119 0.0
C63 C 0.61253 0.92068 0.52978 0.0
C64 C 0.53839 0.89685 0.53784 0.0
N65 N 0.5642 0.93662 0.53238 0.0
N66 N 0.61865 0.87273 0.53503 0.0
C67 C 0.57174 0.8575 0.53941 0.0
H68 H 0.64332 0.94452 0.52688 0.0
H69 H 0.49853 0.89699 0.54272 0.0
C70 C 0.44029 0.99661 0.47672 0.0
N71 N 0.48735 0.13312 0.50704 0.0
C72 C 0.43904 0.1491 0.50977 0.0
C73 C 0.51315 0.17287 0.50154 0.0
N74 N 0.43294 0.19706 0.50455 0.0
C75 C 0.47983 0.21226 0.50006 0.0
C76 C 0.55398 1.02393 0.43361 0.0
O77 O 0.47601 0.97119 0.49698 0.0
O78 O 0.44705 0.04259 0.47813 0.0
O79 O 0.53325 0.06545 0.44709 0.0
O80 O 0.56072 0.99235 0.46359 0.0
O81 O 0.57553 0.09855 0.54242 0.0
H82 H 0.553 0.1727 0.49657 0.0
H83 H 0.40826 0.12528 0.51273 0.0
O84 O 0.60447 1.02717 0.56131 0.0
O85 O 0.51825 1.00428 0.59232 0.0
O86 O 0.49083 0.0774 0.57584 0.0
C87 C 0.49755 0.04582 0.60581 0.0
H88 H 0.56306 0.82191 0.54846 0.0
H89 H 0.4885 0.24785 0.49101 0.0
Co90 Co 0.24477 0.32133 0.77249 0.0
C91 C 0.3384 0.33026 0.83997 0.0
Co92 Co 0.29551 0.25545 0.76822 0.0
C93 C 0.16601 0.398 0.78659 0.0
C94 C 0.23091 0.42279 0.75964 0.0
N95 N 0.21142 0.38238 0.77247 0.0
N96 N 0.15673 0.44646 0.78333 0.0
C97 C 0.19742 0.46193 0.76599 0.0
H98 H 0.14189 0.37522 0.80225 0.0
H99 H 0.26832 0.42477 0.74857 0.0
C100 C 0.20162 0.24633 0.70079 0.0
N101 N 0.32933 0.19488 0.76791 0.0
C102 C 0.37475 0.18085 0.75305 0.0
C103 C 0.31129 0.15363 0.78036 0.0
N104 N 0.38552 0.13247 0.75516 0.0
C105 C 0.34572 0.11538 0.77272 0.0
C106 C 0.22417 0.26368 0.84095 0.0
O107 O 0.19287 0.29044 0.72152 0.0
O108 O 0.2433 0.22474 0.71584 0.0
O109 O 0.25983 0.2393 0.82088 0.0
O110 O 0.20858 0.30394 0.82528 0.0
O111 O 0.34702 0.2861 0.8194 0.0
H112 H 0.27433 0.15061 0.79206 0.0
H113 H 0.39781 0.20483 0.73764 0.0
O114 O 0.29704 0.35208 0.82455 0.0
O115 O 0.28049 0.33712 0.71959 0.0
O116 O 0.33219 0.27307 0.71595 0.0
C117 C 0.3168 0.31324 0.70022 0.0
H118 H 0.20392 0.49954 0.76105 0.0
H119 H 0.34049 0.07737 0.77713 0.0
Co120 Co 0.04025 0.03697 0.48381 0.0
C121 C 0.06033 0.12092 0.55721 0.0
Co122 Co 1.01102 1.03231 0.55532 0.0
C123 C 0.0538 0.08062 0.39676 0.0
C124 C 0.07785 1.00456 0.38926 0.0
N125 N 0.05859 0.04125 0.42129 0.0
N126 N 0.0694 0.07012 0.3506 0.0
C127 C 0.08454 1.02215 0.34582 0.0
H128 H 0.04036 0.11665 0.41324 0.0
H129 H 0.08661 0.96739 0.39704 0.0
C130 C 0.99094 0.94837 0.48193 0.0
N131 N 0.99269 1.02803 0.61785 0.0
C132 C 0.99752 0.98868 0.64241 0.0
C133 C 0.97345 0.06474 0.64989 0.0
N134 N 0.98197 0.9992 0.6886 0.0
C135 C 0.96682 0.04717 0.69336 0.0
C136 C 0.93804 0.06416 0.48868 0.0
O137 O 1.01604 0.97206 0.45733 0.0
O138 O 0.98577 0.96676 0.52756 0.0
O139 O 0.94633 0.05646 0.53421 0.0
O140 O 0.97451 0.06107 0.46245 0.0
O141 O 0.03522 0.09723 0.58181 0.0
H142 H 0.96468 0.10191 0.64209 0.0
H143 H 1.01097 0.95266 0.62594 0.0
O144 O 0.06549 0.10253 0.51158 0.0
O145 O 0.10495 1.01283 0.50494 0.0
O146 O 0.07676 1.00823 0.57669 0.0
C147 C 0.11323 1.00515 0.55047 0.0
H148 H 0.0999 1.00124 0.31357 0.0
H149 H 0.95152 0.06811 0.72563 0.0
Co150 Co 0.27421 0.76409 0.79312 0.0
C151 C 0.34757 0.83765 0.81371 0.0
Co152 Co 0.26946 0.81045 0.73523 0.0
C153 C 0.27669 0.68021 0.84266 0.0
C154 C 0.27101 0.74835 0.89353 0.0
N155 N 0.2738 0.72943 0.84463 0.0
N156 N 0.27905 0.66727 0.88914 0.0
C157 C 0.27386 0.71031 0.92088 0.0
H158 H 0.28121 0.65474 0.80829 0.0
H159 H 0.27027 0.78744 0.90892 0.0
C160 C 0.19515 0.73754 0.71536 0.0
N161 N 0.26985 0.84467 0.683 0.0
C162 C 0.27124 0.89375 0.68382 0.0
C163 C 0.27187 0.82414 0.63437 0.0
N164 N 0.27204 0.90519 0.63698 0.0
C165 C 0.27357 0.86098 0.60618 0.0
C166 C 0.33839 0.72359 0.71791 0.0
O167 O 0.21829 0.72674 0.75683 0.0
O168 O 0.21181 0.77294 0.69748 0.0
O169 O 0.31902 0.76254 0.7019 0.0
O170 O 0.32389 0.71477 0.75897 0.0
O171 O 0.32524 0.84802 0.77173 0.0
H172 H 0.27023 0.78482 0.61989 0.0
H173 H 0.26889 0.92037 0.71789 0.0
O174 O 0.33136 0.8017 0.83107 0.0
O175 O 0.22515 0.81151 0.82646 0.0
O176 O 0.22009 0.86003 0.7699 0.0
C177 C 0.20611 0.85082 0.81113 0.0
H178 H 0.27865 0.71489 0.962 0.0
H179 H 0.27048 0.8552 0.56514 0.0
Co180 Co 0.48981 0.05595 1.01719 0.0
C181 C 0.56232 0.09752 0.09595 0.0
Co182 Co 0.56158 1.01391 0.02242 0.0
C183 C 0.40083 0.09891 0.05097 0.0
C184 C 0.40291 0.11006 0.97466 0.0
N185 N 0.42803 0.08783 1.01247 0.0
N186 N 0.36054 0.12834 0.03979 0.0
C187 C 0.36177 0.13618 0.99198 0.0
H188 H 0.41386 0.09071 0.08884 0.0
H189 H 0.41591 0.11054 0.93854 0.0
C190 C 0.48907 0.97235 0.94366 0.0
N191 N 0.62336 0.98205 0.02716 0.0
C192 C 0.65059 0.97094 0.98868 0.0
C193 C 0.64852 0.95994 0.06505 0.0
N194 N 0.69094 0.9416 0.99996 0.0
C195 C 0.68971 0.93385 0.0478 0.0
C196 C 0.49482 0.9802 0.07703 0.0
O197 O 0.46366 1.01 0.96044 0.0
O198 O 0.53464 0.96593 0.9647 0.0
O199 O 0.53937 0.97372 0.06516 0.0
O200 O 0.46691 1.0147 0.06078 0.0
O201 O 0.58773 0.05986 0.07917 0.0
H202 H 0.63552 0.95952 0.10118 0.0
H203 H 0.63757 0.97906 0.95079 0.0
O204 O 0.51674 0.10393 0.07491 0.0
O205 O 0.51202 0.09614 0.97445 0.0
O206 O 0.58448 0.05516 0.97882 0.0
C207 C 0.55657 0.08965 0.96257 0.0
H208 H 0.33793 0.16259 0.97304 0.0
H209 H 0.71361 0.90754 0.06682 0.0
Co210 Co 0.25669 0.30119 0.27579 0.0
C211 C 0.26633 0.38866 0.34199 0.0
Co212 Co 0.33358 0.33366 0.28793 0.0
C213 C 0.17902 0.23005 0.26451 0.0
C214 C 0.14607 0.30024 0.25172 0.0
N215 N 0.19125 0.2767 0.26186 0.0
N216 N 0.12811 0.22336 0.25747 0.0
C217 C 0.107 0.26752 0.24949 0.0
H218 H 0.20711 0.20237 0.27513 0.0
H219 H 0.14184 0.33913 0.24854 0.0
C220 C 0.32365 0.2453 0.22242 0.0
N221 N 0.39898 0.35813 0.30364 0.0
C222 C 0.41056 0.40609 0.30736 0.0
C223 C 0.44414 0.33509 0.31525 0.0
N224 N 0.4611 0.41443 0.32015 0.0
C225 C 0.48261 0.36961 0.32472 0.0
C226 C 0.31399 0.27579 0.35842 0.0
O227 O 0.27895 0.2464 0.23394 0.0
O228 O 0.3553 0.27888 0.24392 0.0
O229 O 0.34679 0.30032 0.34339 0.0
O230 O 0.27015 0.26859 0.33261 0.0
O231 O 0.31137 0.38792 0.33153 0.0
H232 H 0.44889 0.29567 0.31541 0.0
H233 H 0.38244 0.43403 0.29752 0.0
O234 O 0.23472 0.35613 0.3182 0.0
O235 O 0.24392 0.3333 0.21914 0.0
O236 O 0.31996 0.36722 0.23158 0.0
C237 C 0.27672 0.35844 0.20468 0.0
H238 H 0.06644 0.27609 0.24467 0.0
H239 H 0.52326 0.36192 0.33159 0.0
Co240 Co 0.54343 0.53277 0.98498 0.0
C241 C 0.5685 0.61755 0.05537 0.0
Co242 Co 0.5074 0.53687 0.05433 0.0
C243 C 0.54212 0.52819 0.87767 0.0
C244 C 0.61862 0.52778 0.9169 0.0
N245 N 0.56929 0.5291 0.92438 0.0
N246 N 0.57225 0.52778 0.84149 0.0
C247 C 0.62053 0.52699 0.86609 0.0
H248 H 0.50087 0.53032 0.87043 0.0
H249 H 0.65115 0.52983 0.9467 0.0
C250 C 0.48235 0.45209 0.98394 0.0
N251 N 0.48155 0.54054 0.11493 0.0
C252 C 0.50874 0.5416 0.16164 0.0
C253 C 0.43222 0.54177 0.1224 0.0
N254 N 0.47863 0.54201 0.19784 0.0
C255 C 0.43034 0.54264 0.17323 0.0
C256 C 0.445 0.57252 0.98095 0.0
O257 O 0.5127 0.47054 0.95998 0.0
O258 O 0.47553 0.474 0.02808 0.0
O259 O 0.44868 0.56692 0.02689 0.0
O260 O 0.48322 0.5633 0.95743 0.0
O261 O 0.53816 0.59909 0.07935 0.0
H262 H 0.3997 0.5396 0.0926 0.0
H263 H 0.55 0.53958 0.16888 0.0
O264 O 0.57528 0.59565 1.01121 0.0
O265 O 0.60217 0.50274 1.01245 0.0
O266 O 0.56758 0.50631 0.08188 0.0
C267 C 0.60582 0.49711 0.05837 0.0
H268 H 0.65477 0.53052 0.84945 0.0
H269 H 0.39612 0.53907 0.18989 0.0
Co270 Co 0.78194 0.25946 0.30431 0.0
C271 C 0.85623 0.33239 0.32416 0.0
Co272 Co 0.77716 0.30581 0.24641 0.0
C273 C 0.78017 0.17614 0.35565 0.0
C274 C 0.77963 0.24571 0.40517 0.0
N275 N 0.78158 0.22522 0.35652 0.0
N276 N 0.77943 0.16465 0.40248 0.0
C277 C 0.77796 0.20884 0.43333 0.0
H278 H 0.78246 0.14955 0.32155 0.0
H279 H 0.7813 0.28502 0.41969 0.0
C280 C 0.70381 0.23224 0.22585 0.0
N281 N 0.77754 0.34048 0.19489 0.0
C282 C 0.77445 0.3897 0.19682 0.0
C283 C 0.78039 0.32156 0.146 0.0
N284 N 0.77201 0.40261 0.15033 0.0
C285 C 0.77738 0.35959 0.11862 0.0
C286 C 0.84527 0.21909 0.22837 0.0
O287 O 0.72615 0.22189 0.26783 0.0
O288 O 0.72003 0.26818 0.20846 0.0
O289 O 0.82624 0.2584 0.21306 0.0
O290 O 0.83129 0.20988 0.26961 0.0
O291 O 0.83307 0.34318 0.2827 0.0
H292 H 0.78124 0.28247 0.13063 0.0
H293 H 0.76983 0.41515 0.23117 0.0
O294 O 0.83959 0.29698 0.34203 0.0
O295 O 0.73239 0.30735 0.33767 0.0
O296 O 0.72747 0.3551 0.28058 0.0
C297 C 0.71299 0.34629 0.32165 0.0
H298 H 0.7811 0.21456 0.47438 0.0
H299 H 0.77257 0.35499 0.0775 0.0
Co300 Co 0.98846 0.5531 0.51339 0.0
C301 C 0.04982 0.60341 0.59455 0.0
Co302 Co 0.06278 0.51692 0.52623 0.0
C303 C 0.8892 0.57618 0.53396 0.0
C304 C 0.89618 0.59005 0.45965 0.0
N305 N 0.92272 0.57478 0.50126 0.0
N306 N 0.84291 0.59225 0.51542 0.0
C307 C 0.84706 0.60215 0.4689 0.0
H308 H 0.89967 0.57022 0.57296 0.0
H309 H 0.91194 0.59386 0.4257 0.0
C310 C 1.00142 0.46661 0.44506 0.0
N311 N 0.12852 0.49524 0.53836 0.0
C312 C 0.16203 0.49384 0.50565 0.0
C313 C 0.15505 0.47994 0.57996 0.0
N314 N 0.20831 0.47773 0.52418 0.0
C315 C 0.20416 0.46781 0.57069 0.0
C316 C 0.99756 0.47853 0.57716 0.0
O317 O 0.97232 0.50274 0.45786 0.0
O318 O 0.04619 0.46422 0.46966 0.0
O319 O 0.04357 0.47525 0.56922 0.0
O320 O 0.9684 0.51026 0.55737 0.0
O321 O 0.07892 0.56728 0.58175 0.0
H322 H 0.13928 0.47612 0.6139 0.0
H323 H 0.15155 0.4998 0.46665 0.0
O324 O 1.00505 0.6058 0.56996 0.0
O325 O 1.00767 0.59477 0.4704 0.0
O326 O 0.08283 0.55976 0.48224 0.0
C327 C 0.05368 0.59149 0.46246 0.0
H328 H 0.81806 0.61992 0.44496 0.0
H329 H 0.23314 0.45 0.5946 0.0
Co330 Co 0.75562 0.81412 0.27092 0.0
C331 C 0.84954 0.82313 0.3383 0.0
Co332 Co 0.80628 0.74819 0.26661 0.0
C333 C 0.67648 0.88879 0.28618 0.0
C334 C 0.73993 0.91595 0.2588 0.0
N335 N 0.72187 0.87472 0.27126 0.0
N336 N 0.66575 0.93719 0.28407 0.0
C337 C 0.70555 0.95424 0.26648 0.0
H338 H 0.65341 0.86485 0.3016 0.0
H339 H 0.77687 0.91894 0.24705 0.0
C340 C 0.71261 0.73936 0.19918 0.0
N341 N 0.83955 0.68711 0.26659 0.0
C342 C 0.88504 0.67149 0.25265 0.0
C343 C 0.81992 0.64668 0.27923 0.0
N344 N 0.89424 0.62301 0.25586 0.0
C345 C 0.85341 0.60753 0.27296 0.0
C346 C 0.73432 0.75635 0.33894 0.0
O347 O 0.70405 0.78352 0.21976 0.0
O348 O 0.75396 0.71751 0.21457 0.0
O349 O 0.77058 0.73242 0.31954 0.0
O350 O 0.71896 0.79654 0.32321 0.0
O351 O 0.85823 0.77901 0.31757 0.0
H352 H 0.78244 0.64471 0.29013 0.0
H353 H 0.90928 0.69431 0.23717 0.0
O354 O 0.80788 0.84476 0.32327 0.0
O355 O 0.79129 0.83024 0.21824 0.0
O356 O 0.84248 0.76555 0.21381 0.0
C357 C 0.82693 0.80583 0.19816 0.0
H358 H 0.71081 0.99224 0.26206 0.0
H359 H 0.84683 0.5699 0.27782 0.0
Co360 Co 0.80709 0.2865 0.74615 0.0
C361 C 0.81058 0.35444 0.83593 0.0
Co362 Co 0.74467 0.27951 0.78977 0.0
C363 C 0.87306 0.33808 0.69816 0.0
C364 C 0.89506 0.26158 0.69342 0.0
N365 N 0.86061 0.29498 0.71118 0.0
N366 N 0.91371 0.33315 0.67274 0.0
C367 C 0.92785 0.28497 0.66983 0.0
H368 H 0.85283 0.3727 0.70768 0.0
H369 H 0.89603 0.22275 0.69703 0.0
C370 C 0.74169 0.21039 0.70067 0.0
N371 N 0.69134 0.27118 0.82475 0.0
C372 C 0.67879 0.22811 0.83772 0.0
C373 C 0.65769 0.30491 0.84345 0.0
N374 N 0.63888 0.2334 0.86411 0.0
C375 C 0.62529 0.28176 0.86764 0.0
C376 C 0.71783 0.34827 0.71514 0.0
O377 O 0.78144 0.23221 0.6946 0.0
O378 O 0.71987 0.22583 0.73928 0.0
O379 O 0.701 0.32845 0.74965 0.0
O380 O 0.76342 0.33501 0.70714 0.0
O381 O 0.77046 0.33299 0.8414 0.0
H382 H 0.6572 0.34384 0.84031 0.0
H383 H 0.69858 0.19335 0.82768 0.0
O384 O 0.83203 0.34004 0.79688 0.0
O385 O 0.85082 0.23793 0.78659 0.0
O386 O 0.78809 0.2312 0.82869 0.0
C387 C 0.83386 0.21834 0.82118 0.0
H388 H 0.95887 0.26757 0.65101 0.0
H389 H 0.59505 0.29949 0.88743 0.0
Co390 Co 0.71783 0.73622 0.75185 0.0
C391 C 0.72797 0.82451 0.81747 0.0
Co392 Co 0.79478 0.76856 0.76397 0.0
C393 C 0.64071 0.66392 0.73238 0.0
C394 C 0.60726 0.73501 0.72462 0.0
N395 N 0.65237 0.71187 0.73618 0.0
N396 N 0.59015 0.65569 0.71959 0.0
C397 C 0.56872 0.70055 0.7151 0.0
H398 H 0.66877 0.63592 0.74216 0.0
H399 H 0.60259 0.77444 0.72452 0.0
C400 C 0.78493 0.68116 0.69764 0.0
N401 N 0.86027 0.79293 0.77784 0.0
C402 C 0.87256 0.83957 0.77521 0.0
C403 C 0.90542 0.7693 0.78784 0.0
N404 N 0.92349 0.84616 0.78211 0.0
C405 C 0.94454 0.80195 0.78999 0.0
C406 C 0.77472 0.71124 0.835 0.0
O407 O 0.7399 0.68196 0.70815 0.0
O408 O 0.8166 0.71362 0.72143 0.0
O409 O 0.80755 0.73634 0.82055 0.0
O410 O 0.73144 0.70257 0.80814 0.0
O411 O 0.77267 0.82334 0.80593 0.0
H412 H 0.9096 0.73039 0.79094 0.0
H413 H 0.84451 0.8673 0.76468 0.0
O414 O 0.69625 0.791 0.79595 0.0
O415 O 0.70463 0.76965 0.69646 0.0
O416 O 0.78132 0.80126 0.70721 0.0
C417 C 0.73745 0.79416 0.68144 0.0
H418 H 0.52808 0.70832 0.70825 0.0
H419 H 0.98508 0.79329 0.79466 0.0
Co420 Co 0.49635 0.50646 0.51774 0.0
C421 C 0.48008 0.59359 0.59171 0.0
Co422 Co 0.55497 0.56339 0.52177 0.0
C423 C 0.44228 0.43475 0.55905 0.0
C424 C 0.40469 0.44522 0.48549 0.0
N425 N 0.44696 0.45817 0.519 0.0
N426 N 0.39903 0.40792 0.55192 0.0
C427 C 0.37522 0.4151 0.50577 0.0
H428 H 0.46834 0.43974 0.59442 0.0
H429 H 0.39465 0.45849 0.4496 0.0
C430 C 0.57125 0.47626 0.4478 0.0
N431 N 0.60434 0.61169 0.52048 0.0
C432 C 0.60902 0.63504 0.48039 0.0
C433 C 0.64659 0.62474 0.55401 0.0
N434 N 0.65223 0.66192 0.4875 0.0
C435 C 0.67602 0.65485 0.53368 0.0
C436 C 0.58838 0.48805 0.5882 0.0
O437 O 0.53049 0.46207 0.46231 0.0
O438 O 0.58646 0.52005 0.46727 0.0
O439 O 0.60284 0.5281 0.57483 0.0
O440 O 0.543 0.47426 0.56911 0.0
O441 O 0.52083 0.60778 0.5772 0.0
H442 H 0.65662 0.61153 0.58994 0.0
H443 H 0.58299 0.62996 0.445 0.0
O444 O 0.46485 0.54981 0.57224 0.0
O445 O 0.44848 0.54176 0.46468 0.0
O446 O 0.50832 0.5956 0.47041 0.0
C447 C 0.46293 0.5818 0.45131 0.0
H448 H 0.3385 0.40031 0.48817 0.0
H449 H 0.71272 0.6697 0.55128 0.0
Co450 Co 0.04507 0.49972 0.02587 0.0
C451 C 0.10435 0.5852 0.06244 0.0
Co452 Co 1.0064 0.56989 1.01374 0.0
C453 C 0.13367 0.43867 0.02789 0.0
C454 C 0.06837 0.39795 0.03502 0.0
N455 N 0.08282 0.44255 0.02779 0.0
N456 N 0.15254 0.39468 0.03852 0.0
C457 C 0.11119 0.3684 0.04159 0.0
H458 H 0.15733 0.46927 0.02523 0.0
H459 H 0.03003 0.38895 0.0396 0.0
C460 C 0.94711 0.48441 0.97717 0.0
N461 N 0.96865 0.62706 1.01182 0.0
C462 C 0.9178 0.63094 1.01174 0.0
C463 C 0.9831 0.67166 1.00458 0.0
N464 N 0.89893 0.67493 1.0011 0.0
C465 C 0.94028 0.70121 0.99802 0.0
C466 C 0.04937 0.53347 0.93287 0.0
O467 O 0.98671 0.46205 0.99513 0.0
O468 O 0.94747 0.5313 0.98147 0.0
O469 O 1.02393 0.57144 0.94882 0.0
O470 O 0.0624 0.50088 0.96094 0.0
O471 O 0.06477 0.60756 0.04445 0.0
H472 H 1.02143 0.68065 0.99998 0.0
H473 H 0.89414 0.60034 1.0144 0.0
O474 O 0.10399 0.53832 0.05817 0.0
O475 O 0.02752 0.49815 0.09077 0.0
O476 O 0.9891 0.56874 0.07868 0.0
C477 C 1.0021 0.53614 0.10674 0.0
H478 H 0.11235 0.33287 0.05448 0.0
H479 H 0.93911 0.73674 0.98512 0.0
C480 C 0.15049 0.24028 0.88305 0.0
C481 C 0.20335 0.2444 0.88273 0.0
H482 H 0.09143 0.21166 0.91716 0.0
C483 C 0.23726 0.22482 0.92029 0.0
H484 H 0.12332 0.25437 0.8544 0.0
C485 C 0.21911 0.20151 0.95683 0.0
C486 C 0.1664 0.19536 0.95596 0.0
H487 H 0.2782 0.22708 0.92107 0.0
H488 H 0.24646 0.18658 0.98472 0.0
C489 C 0.13227 0.2154 0.91874 0.0
C490 C 0.10054 0.9226 0.1498 0.0
C491 C 0.12262 0.95578 0.1237 0.0
H492 H 0.11041 0.86669 0.19921 0.0
C493 C 0.17703 0.95431 0.1305 0.0
H494 H 0.05929 0.92115 0.14641 0.0
C495 C 0.20694 0.92123 0.16027 0.0
C496 C 0.18471 0.88823 0.18655 0.0
H497 H 0.19689 0.97797 0.11153 0.0
H498 H 0.24817 0.9217 0.16276 0.0
C499 C 0.1304 0.89065 0.18068 0.0
C500 C 0.37345 0.9317 0.46251 0.0
C501 C 0.39598 0.97027 0.44519 0.0
H502 H 0.32639 0.867 0.44231 0.0
C503 C 0.38357 0.97606 0.39402 0.0
H504 H 0.38302 0.92619 0.50175 0.0
C505 C 0.35282 0.94128 0.35983 0.0
C506 C 0.33263 0.90108 0.37656 0.0
H507 H 0.4012 1.00488 0.37958 0.0
H508 H 0.34678 0.94445 0.31981 0.0
C509 C 0.3412 0.89785 0.42859 0.0
C510 C 0.46769 0.1263 0.72261 0.0
C511 C 0.42348 0.1034 0.73011 0.0
H512 H 0.5266 0.12494 0.67601 0.0
C513 C 0.41251 0.05479 0.70478 0.0
H514 H 0.47791 0.16302 0.74274 0.0
C515 C 0.44118 1.03254 0.66746 0.0
C516 C 0.48067 0.05887 0.65531 0.0
H517 H 0.37888 0.03592 0.70981 0.0
H518 H 0.42907 0.99737 0.64463 0.0
C519 C 0.49573 0.10444 0.68489 0.0
C520 C 0.20213 0.97434 0.54441 0.0
C521 C 0.16486 0.9946 0.57397 0.0
H522 H 0.2717 0.93243 0.54369 0.0
C523 C 0.17641 1.00231 0.62709 0.0
H524 H 0.19526 0.97081 0.50332 0.0
C525 C 0.22015 0.98093 0.65008 0.0
C526 C 0.25102 0.9497 0.6198 0.0
H527 H 0.14965 1.02123 0.65082 0.0
H528 H 0.22484 0.98307 0.6909 0.0
C529 C 0.24599 0.95279 0.56762 0.0
C530 C 0.39508 0.91718 0.83214 0.0
C531 C 0.3897 0.86922 0.84287 0.0
H532 H 0.43146 0.98752 0.856 0.0
C533 C 0.42313 0.85327 0.88294 0.0
H534 H 0.37002 0.9306 0.8015 0.0
C535 C 0.4596 0.88562 0.91319 0.0
C536 C 0.46229 0.93455 0.90435 0.0
H537 H 0.42007 0.81641 0.89184 0.0
H538 H 0.48307 0.87355 0.94558 0.0
C539 C 0.43049 0.9497 0.86302 0.0
C540 C 0.36309 0.20796 0.09416 0.0
C541 C 0.34098 0.16119 0.07902 0.0
H542 H 0.37738 0.2701 0.15334 0.0
C543 C 0.31283 0.14192 0.11122 0.0
H544 H 0.38622 0.22243 0.07009 0.0
C545 C 0.30799 0.16876 0.15895 0.0
C546 C 0.33282 0.21426 0.17525 0.0
H547 H 0.2969 0.10515 0.10025 0.0
H548 H 0.28586 0.15365 0.18346 0.0
C549 C 0.35963 0.2341 0.14225 0.0
C550 C 0.11332 0.09651 0.28499 0.0
C551 C 0.0758 0.10496 0.31741 0.0
H552 H 0.15842 0.12792 0.239 0.0
C553 C 0.04856 0.15031 0.32077 0.0
H554 H 0.13479 0.06201 0.28085 0.0
C555 C 0.06253 0.18829 0.29691 0.0
C556 C 0.10392 0.18145 0.26927 0.0
H557 H 1.01826 0.15744 0.34401 0.0
H558 H 0.04368 0.22409 0.30353 0.0
C559 C 0.12711 0.13437 0.2611 0.0
C560 C 0.9144 0.20645 0.16788 0.0
C561 C 0.88282 0.18591 0.19734 0.0
H562 H 0.96972 0.19512 0.11503 0.0
C563 C 0.88608 0.13357 0.19351 0.0
H564 H 0.91379 0.24619 0.1688 0.0
C565 C 0.91754 0.1037 0.16085 0.0
C566 C 0.94912 0.12434 0.1314 0.0
H567 H 0.8628 0.11526 0.21453 0.0
H568 H 0.91689 0.06383 0.15855 0.0
C569 C 0.94713 0.17677 0.13665 0.0
C570 C 0.12547 0.62338 0.42604 0.0
C571 C 0.07411 0.62667 0.43422 0.0
H572 H 0.18599 0.65594 0.39878 0.0
C573 C 0.04342 0.66586 0.41804 0.0
H574 H 0.15025 0.59382 0.43816 0.0
C575 C 0.06402 0.70165 0.3955 0.0
C576 C 0.11567 0.69892 0.38827 0.0
H577 H 1.00368 0.66952 0.42373 0.0
H578 H 0.03949 0.7315 0.38379 0.0
C579 C 0.14595 0.65898 0.40325 0.0
C580 C 0.66593 0.7986 0.55389 0.0
C581 C 0.66536 0.84982 0.55436 0.0
H582 H 0.68762 0.74166 0.59817 0.0
C583 C 0.70306 0.87909 0.58763 0.0
H584 H 0.63843 0.77512 0.52764 0.0
C585 C 0.73269 0.85927 0.62699 0.0
C586 C 0.72429 0.81054 0.63257 0.0
H587 H 0.70464 0.91863 0.58819 0.0
H588 H 0.75675 0.88349 0.65627 0.0
C589 C 0.69411 0.77937 0.59394 0.0
C590 C 0.3943 0.41935 0.95675 0.0
C591 C 0.44705 0.41331 0.95509 0.0
H592 H 0.31854 0.39863 0.92062 0.0
C593 C 0.46392 0.37667 0.91784 0.0
H594 H 0.38017 0.44805 0.9843 0.0
C595 C 0.42864 0.34777 0.88189 0.0
C596 C 0.37584 0.35632 0.88141 0.0
H597 H 0.50435 0.37184 0.91525 0.0
H598 H 0.44263 0.32071 0.85278 0.0
C599 C 0.35904 0.39163 0.91983 0.0
C600 C 0.87022 0.88174 0.42011 0.0
C601 C 0.88715 0.84942 0.37951 0.0
H602 H 0.89061 0.93656 0.48616 0.0
C603 C 0.93994 0.84458 0.37748 0.0
H604 H 0.82976 0.88593 0.42276 0.0
C605 C 0.97476 0.87441 0.41322 0.0
C606 C 0.95757 0.90802 0.45282 0.0
H607 H 0.95401 0.81993 0.34658 0.0
H608 H 1.01484 0.87273 0.40869 0.0
C609 C 0.90513 0.91014 0.45684 0.0
C610 C 0.44133 0.67941 0.62739 0.0
C611 C 0.44756 0.62775 0.62772 0.0
H612 H 0.40316 0.74845 0.65303 0.0
C613 C 0.41796 0.60845 0.65987 0.0
H614 H 0.4621 0.69664 0.60332 0.0
C615 C 0.38462 0.63888 0.69001 0.0
C616 C 0.3772 0.69029 0.68843 0.0
H617 H 0.42048 0.5692 0.66179 0.0
H618 H 0.36334 0.62154 0.71358 0.0
C619 C 0.40676 0.70949 0.65619 0.0
C620 C 0.62727 0.1198 0.92321 0.0
C621 C 0.57666 0.12429 0.93359 0.0
H622 H 0.68693 0.15122 0.89363 0.0
C623 C 0.54621 0.16418 0.91876 0.0
H624 H 0.6518 0.08964 0.93426 0.0
C625 C 0.56634 0.19952 0.8954 0.0
C626 C 0.61733 0.19575 0.88611 0.0
H627 H 0.50697 0.16871 0.92603 0.0
H628 H 0.54197 0.22989 0.88474 0.0
C629 C 0.64735 0.15509 0.8997 0.0
C630 C 0.21981 0.33933 0.07012 0.0
C631 C 0.20214 0.38767 0.06641 0.0
H632 H 0.259 0.29219 0.11935 0.0
C633 C 0.22512 0.42758 0.10169 0.0
H634 H 0.2036 0.30822 0.04284 0.0
C635 C 0.25679 0.41846 0.14546 0.0
C636 C 0.26599 0.36963 0.15331 0.0
H637 H 0.21303 0.4655 0.09965 0.0
H638 H 0.26826 0.44911 0.17562 0.0
C639 C 0.25134 0.33028 0.11381 0.0
C640 C 0.52227 0.58431 0.79063 0.0
C641 C 0.55808 0.54516 0.79379 0.0
H642 H 0.50394 0.65189 0.76184 0.0
C643 C 0.58941 0.53349 0.75571 0.0
H644 H 0.49654 0.59354 0.81857 0.0
C645 C 0.5929 0.56674 0.72241 0.0
C646 C 0.56615 0.61225 0.72818 0.0
H647 H 0.61601 0.50243 0.75621 0.0
H648 H 0.62236 0.56065 0.69804 0.0
C649 C 0.52634 0.6179 0.7578 0.0
C650 C 0.74128 0.452 0.08392 0.0
C651 C 0.74314 0.44402 0.13432 0.0
H652 H 0.69438 0.47296 1.01901 0.0
C653 C 0.70499 0.46563 0.16252 0.0
H654 H 0.77136 0.43783 0.06203 0.0
C655 C 0.66083 0.48472 0.13792 0.0
C656 C 0.65506 0.48395 0.08534 0.0
H657 H 0.70568 0.4623 0.20202 0.0
H658 H 0.63012 0.49701 0.15963 0.0
C659 C 0.69696 0.47124 0.05919 0.0
C660 C 0.96857 0.38082 0.42338 0.0
C661 C 0.97821 0.42551 0.40748 0.0
H662 H 0.92149 0.3163 0.40988 0.0
C663 C 0.95162 0.43636 0.36148 0.0
H664 H 0.98755 0.37248 0.45959 0.0
C665 C 0.91383 0.40469 0.33331 0.0
C666 C 0.90102 0.36188 0.35111 0.0
H667 H 0.95755 0.47121 0.34917 0.0
H668 H 0.89266 0.41538 0.29905 0.0
C669 C 0.93007 0.34926 0.39547 0.0
C670 C 0.72475 0.68876 0.44995 0.0
C671 C 0.67191 0.68804 0.45153 0.0
H672 H 0.78531 0.70992 0.41344 0.0
C673 C 0.63927 0.71304 0.41718 0.0
H674 H 0.75091 0.6701 0.47552 0.0
C675 C 0.6592 0.73756 0.38212 0.0
C676 C 0.71212 0.73643 0.37959 0.0
H677 H 0.59837 0.71374 0.41757 0.0
H678 H 0.6331 0.75582 0.35582 0.0
C679 C 0.74443 0.71175 0.41419 0.0
C680 C 0.84765 0.43833 0.86537 0.0
C681 C 0.83601 0.39205 0.87641 0.0
H682 H 0.89073 0.50505 0.8901 0.0
C683 C 0.85646 0.37884 0.92355 0.0
H684 H 0.83276 0.44883 0.82886 0.0
C685 C 0.891 0.41008 0.95776 0.0
C686 C 0.90423 0.45562 0.94593 0.0
H687 H 0.8486 0.34289 0.93235 0.0
H688 H 0.90881 0.39788 0.9926 0.0
C689 C 0.88073 0.47036 0.90034 0.0
C690 C 0.90067 0.82939 0.15624 0.0
C691 C 0.84781 0.82513 0.15642 0.0
H692 H 0.95977 0.85816 0.12231 0.0
C693 C 0.81392 0.84465 0.11879 0.0
H694 H 0.92782 0.81535 0.18495 0.0
C695 C 0.83211 0.86803 0.08232 0.0
C696 C 0.88482 0.87432 0.08333 0.0
H697 H 0.77298 0.8423 0.11791 0.0
H698 H 0.80478 0.8829 0.05438 0.0
C699 C 0.91892 0.85433 0.12062 0.0
C700 C 0.9209 0.17918 0.85883 0.0
C701 C 0.86659 0.18159 0.85294 0.0
H702 H 0.99201 0.14867 0.8931 0.0
C703 C 0.84435 0.14859 0.8792 0.0
H704 H 0.94089 0.20315 0.84031 0.0
C705 C 0.87425 0.1155 0.90897 0.0
C706 C 0.92866 0.11403 0.91578 0.0
H707 H 0.80312 0.14811 0.87669 0.0
H708 H 0.85439 0.09183 0.92792 0.0
C709 C 0.95075 0.14723 0.8897 0.0
C710 C 0.69856 0.12856 0.67965 0.0
C711 C 0.71876 0.16876 0.66293 0.0
H712 H 0.65023 0.06493 0.65989 0.0
C713 C 0.71026 0.17196 0.61089 0.0
H714 H 0.70455 0.12541 0.71968 0.0
C715 C 0.67806 0.13807 0.57694 0.0
C716 C 0.65552 0.0995 0.59426 0.0
H717 H 0.72508 0.2028 0.59718 0.0
H718 H 0.66854 0.14356 0.5377 0.0
C719 C 0.66787 0.09374 0.64544 0.0
C720 C 0.55567 0.96532 0.35451 0.0
C721 C 0.57081 1.01087 0.38409 0.0
H722 H 0.57334 0.90674 0.29661 0.0
C723 C 0.61032 0.03715 0.3719 0.0
H724 H 0.52478 0.94487 0.36342 0.0
C725 C 0.63891 1.01488 0.33453 0.0
C726 C 0.62785 0.9663 0.30919 0.0
H727 H 0.62248 0.0723 0.39474 0.0
H728 H 0.67256 1.03371 0.32947 0.0
C729 C 0.58363 0.94344 0.31673 0.0
C730 C 0.83119 0.08884 0.38921 0.0
C731 C 0.8004 0.12008 0.41957 0.0
H732 H 0.90155 0.04833 0.38834 0.0
C733 C 0.80543 0.11691 0.47173 0.0
H734 H 0.82646 0.08677 0.3484 0.0
C735 C 0.84923 0.09517 0.49485 0.0
C736 C 0.88643 0.07485 0.46523 0.0
H737 H 0.77977 0.13729 0.4957 0.0
H738 H 0.85611 0.09863 0.53594 0.0
C739 C 0.87485 0.06727 0.41212 0.0
C740 C 0.65633 0.15271 0.20744 0.0
C741 C 0.66169 0.20067 0.19669 0.0
H742 H 0.61995 0.08236 0.1836 0.0
C743 C 0.62825 0.2166 0.15662 0.0
H744 H 0.68139 0.13929 0.23808 0.0
C745 C 0.59178 0.18425 0.1264 0.0
C746 C 0.5891 0.13532 0.13525 0.0
H747 H 0.6313 0.25347 0.14772 0.0
H748 H 0.56829 0.19631 0.09401 0.0
C749 C 0.62091 0.12018 0.17657 0.0
C750 C 0.74363 0.90108 0.8809 0.0
C751 C 0.71884 0.85555 0.86465 0.0
H752 H 0.75462 0.96477 0.93951 0.0
C753 C 0.69206 0.83572 0.89768 0.0
H754 H 0.76574 0.91618 0.85637 0.0
C755 C 0.68856 0.86192 0.94575 0.0
C756 C 0.7106 0.90872 0.96081 0.0
H757 H 0.67435 0.79971 0.88663 0.0
H758 H 0.66544 0.84745 0.96982 0.0
C759 C 0.73874 0.92797 0.92859 0.0
C760 C 0.93832 0.97294 0.75446 0.0
C761 C 0.97568 0.96441 0.72186 0.0
H762 H 0.89341 0.94166 0.80071 0.0
C763 C 1.00284 0.91901 0.71842 0.0
H764 H 0.91692 1.00747 0.75867 0.0
C765 C 0.98893 0.88108 0.74238 0.0
C766 C 0.94769 0.88801 0.77021 0.0
H767 H 0.03303 0.9118 0.69505 0.0
H768 H 1.0077 0.84524 0.7357 0.0
C769 C 0.9246 0.93513 0.77846 0.0
C770 C 0.16524 0.93631 0.84599 0.0
C771 C 0.16853 0.88398 0.84215 0.0
H772 H 0.13439 1.00603 0.88095 0.0
C773 C 0.13695 0.86341 0.87159 0.0
H774 H 0.18852 0.95464 0.82499 0.0
C775 C 0.10419 0.89306 0.90281 0.0
C776 C 0.10218 0.94549 0.90807 0.0
H777 H 0.13757 0.82367 0.87067 0.0
H778 H 0.0816 0.8747 0.92442 0.0
C779 C 0.13376 0.96616 0.87864 0.0
C780 C 0.92578 0.44658 0.61355 0.0
C781 C 0.97714 0.44334 0.6054 0.0
H782 H 0.86527 0.41397 0.64077 0.0
C783 C 1.00786 0.40417 0.62159 0.0
H784 H 0.90098 0.47612 0.60141 0.0
C785 C 0.98728 0.36836 0.64412 0.0
C786 C 0.93562 0.37105 0.65132 0.0
H787 H 0.04761 0.40055 0.61593 0.0
H788 H 1.01183 0.33853 0.65584 0.0
C789 C 0.90532 0.41096 0.63632 0.0
C790 C 0.38569 0.27125 0.48587 0.0
C791 C 0.38621 0.22003 0.48538 0.0
H792 H 0.364 0.32822 0.44164 0.0
C793 C 0.34841 0.19082 0.45218 0.0
H794 H 0.41326 0.2947 0.51207 0.0
C795 C 0.31873 0.21069 0.41288 0.0
C796 C 0.32719 0.2594 0.40729 0.0
H797 H 0.34679 0.15129 0.45162 0.0
H798 H 0.2946 0.1865 0.38364 0.0
C799 C 0.35746 0.29053 0.44587 0.0
C800 C 0.587 0.69293 0.1215 0.0
C801 C 0.60382 0.65632 0.08419 0.0
H802 H 0.60838 0.74888 0.18656 0.0
C803 C 0.65656 0.65031 0.08242 0.0
H804 H 0.54658 0.69774 0.12417 0.0
C805 C 0.69186 0.67804 0.1193 0.0
C806 C 0.67511 0.71331 0.15778 0.0
H807 H 0.67066 0.62164 0.05484 0.0
H808 H 0.73235 0.67106 0.11844 0.0
C809 C 0.62233 0.72184 0.1574 0.0
C810 C 0.11124 0.22481 0.66159 0.0
C811 C 0.16404 0.21998 0.65959 0.0
H812 H 0.03636 0.19661 0.63038 0.0
C813 C 0.181 0.18763 0.61903 0.0
H814 H 0.09715 0.24948 0.69246 0.0
C815 C 0.14611 0.15918 0.58232 0.0
C816 C 0.09366 0.16129 0.5863 0.0
H817 H 0.22147 0.18345 0.6164 0.0
H818 H 0.16066 0.13274 0.55302 0.0
C819 C 0.07645 0.19494 0.62587 0.0
C820 C 0.66667 0.43097 0.34948 0.0
C821 C 0.67417 0.37958 0.35113 0.0
H822 H 0.63075 0.50064 0.37763 0.0
C823 C 0.64468 0.36039 0.38343 0.0
H824 H 0.68791 0.44831 0.32586 0.0
C825 C 0.61009 0.39047 0.41222 0.0
C826 C 0.60378 0.44211 0.41182 0.0
H827 H 0.64833 0.32145 0.38664 0.0
H828 H 0.58937 0.37324 0.43633 0.0
C829 C 0.63332 0.46139 0.37961 0.0
C830 C 0.50516 0.90565 0.12082 0.0
C831 C 0.47472 0.94556 0.106 0.0
H832 H 0.50937 0.83993 0.15481 0.0
C833 C 0.4241 0.95004 0.11636 0.0
H834 H 0.5444 0.90112 0.11356 0.0
C835 C 0.404 0.91475 0.13984 0.0
C836 C 0.43401 0.87408 0.15342 0.0
H837 H 0.39958 0.98021 0.10531 0.0
H838 H 0.36442 0.91861 0.1459 0.0
C839 C 0.485 0.8703 0.14415 0.0
C840 C 0.83163 0.73026 0.96955 0.0
C841 C 0.84932 0.68193 0.97322 0.0
H842 H 0.7924 0.77743 0.92036 0.0
C843 C 0.82637 0.64203 0.93791 0.0
H844 H 0.84782 0.76137 0.99684 0.0
C845 C 0.79469 0.65116 0.89416 0.0
C846 C 0.78545 0.7 0.88635 0.0
H847 H 0.83849 0.60411 0.93992 0.0
H848 H 0.78324 0.62053 0.86398 0.0
C849 C 0.80008 0.73934 0.92587 0.0
C850 C 0.46155 0.53648 0.28368 0.0
C851 C 0.49287 0.52478 0.2456 0.0
H852 H 0.4287 0.50944 0.34148 0.0
C853 C 0.52877 0.48571 0.24887 0.0
H854 H 0.43488 0.56749 0.2831 0.0
C855 C 0.5248 0.45221 0.28182 0.0
C856 C 0.48501 0.45787 0.31145 0.0
H857 H 0.5545 0.47645 0.22093 0.0
H858 H 0.54727 0.41826 0.27787 0.0
C859 C 0.45817 0.50334 0.31711 0.0
C860 C 0.3899 0.5848 0.90141 0.0
C861 C 0.39575 0.58567 0.95401 0.0
H862 H 0.34504 0.60721 0.83732 0.0
C863 C 0.3539 0.5985 0.98021 0.0
H864 H 0.42056 0.57239 0.87967 0.0
C865 C 0.3096 0.6178 0.95551 0.0
C866 C 0.30772 0.62574 0.9051 0.0
H867 H 0.35652 0.59685 0.02042 0.0
H868 H 0.27959 0.63209 0.97746 0.0
C869 C 0.34575 0.60394 0.87684 0.0
C870 C 0.09964 0.63366 0.6781 0.0
C871 C 0.07305 0.64452 0.63211 0.0
H872 H 0.15864 0.6546 0.74051 0.0
C873 C 0.08273 0.68919 0.61619 0.0
H874 H 0.09368 0.59883 0.69043 0.0
C875 C 0.12128 0.72072 0.64407 0.0
C876 C 0.15033 0.70808 0.68843 0.0
H877 H 0.06376 0.69753 0.57997 0.0
H878 H 0.12989 0.75366 0.62964 0.0
C879 C 0.13747 0.66531 0.70625 0.0
C880 C 0.30677 0.35807 0.62513 0.0
C881 C 0.33904 0.33324 0.65963 0.0
H882 H 0.30035 0.39992 0.56397 0.0
C883 C 0.39195 0.33202 0.65707 0.0
H884 H 0.26588 0.35997 0.62591 0.0
C885 C 0.41192 0.35662 0.62208 0.0
C886 C 0.37932 0.38176 0.58784 0.0
H887 H 0.41801 0.31365 0.68329 0.0
H888 H 0.45281 0.35584 0.62167 0.0
C889 C 0.32648 0.38113 0.58946 0.0
C890 C 0.19503 0.69078 0.11595 0.0
C891 C 0.21534 0.6777 0.16319 0.0
H892 H 0.14283 0.67159 0.04682 0.0
C893 C 0.2036 0.63149 0.17434 0.0
H894 H 0.20297 0.72667 0.10706 0.0
C895 C 0.17058 0.5994 0.13938 0.0
C896 C 0.14722 0.61401 0.09368 0.0
H897 H 0.21838 0.62109 0.21092 0.0
H898 H 0.1605 0.56478 0.14969 0.0
C899 C 0.16054 0.65948 0.08174 0.0
C900 C 0.6309 0.38959 0.67993 0.0
C901 C 0.68512 0.38593 0.6843 0.0
H902 H 0.55976 0.42182 0.64788 0.0
C903 C 0.70717 0.41884 0.65774 0.0
H904 H 0.61099 0.36594 0.69886 0.0
C905 C 0.6772 0.4528 0.629 0.0
C906 C 0.62282 0.45537 0.62357 0.0
H907 H 0.74831 0.41855 0.65917 0.0
H908 H 0.69695 0.47624 0.60968 0.0
C909 C 0.60095 0.42242 0.65011 0.0
C910 C 0.91793 0.54453 0.20486 0.0
C911 C 0.93151 0.59202 0.23175 0.0
H912 H 0.93184 0.48794 0.143 0.0
C913 C 0.97803 0.6122 0.2266 0.0
H914 H 0.88238 0.52784 0.20808 0.0
C915 C 1.00629 0.58906 0.18953 0.0
C916 C 0.98851 0.54537 0.15777 0.0
H917 H 0.98988 0.64811 0.24777 0.0
H918 H 0.03884 0.60809 0.18193 0.0
C919 C 0.94635 0.52134 0.16776 0.0
C920 C 0.81896 0.66667 0.56707 0.0
C921 C 0.81065 0.61621 0.54965 0.0
H922 H 0.82005 0.7257 0.62935 0.0
C923 C 0.78853 0.58758 0.57928 0.0
H924 H 0.837 0.68884 0.54503 0.0
C925 C 0.77899 0.60847 0.62791 0.0
C926 C 0.79329 0.65745 0.64724 0.0
H927 H 0.78312 0.54822 0.5665 0.0
H928 H 0.76326 0.58592 0.65121 0.0
C929 C 0.81112 0.68699 0.61583 0.0
C930 C 0.37412 0.61706 0.41052 0.0
C931 C 0.42849 0.61448 0.41594 0.0
H932 H 0.30301 0.65131 0.38036 0.0
C933 C 0.45037 0.64744 0.38941 0.0
H934 H 0.35437 0.59362 0.42984 0.0
C935 C 0.42041 0.68027 0.35959 0.0
C936 C 0.3662 0.68393 0.35522 0.0
H937 H 0.49156 0.64803 0.39163 0.0
H938 H 0.44033 0.70391 0.34065 0.0
C939 C 0.34415 0.65102 0.38178 0.0
C940 C 0.13326 0.52495 0.83447 0.0
C941 C 0.11958 0.47747 0.8076 0.0
H942 H 0.11957 0.58155 0.89639 0.0
C943 C 0.0731 0.45732 0.81292 0.0
H944 H 0.16879 0.5416 0.83112 0.0
C945 C 0.04498 0.48049 0.85009 0.0
C946 C 0.06286 0.52417 0.8818 0.0
H947 H 0.06119 0.42142 0.79178 0.0
H948 H 1.01245 0.46149 0.8578 0.0
C949 C 0.10498 0.54816 0.87168 0.0
C950 C 0.24003 0.3829 0.42377 0.0
C951 C 0.25788 0.41242 0.39235 0.0
H952 H 0.21414 0.3811 0.49456 0.0
C953 C 0.27219 0.4614 0.41166 0.0
H954 H 0.23111 0.34419 0.41027 0.0
C955 C 0.26265 0.48232 0.46028 0.0
C956 C 0.24052 0.45371 0.48991 0.0
H957 H 0.28794 0.48393 0.38835 0.0
H958 H 0.26808 0.52168 0.47304 0.0
C959 C 0.23219 0.40325 0.47253 0.0
loop_
_geom_bond_atom_site_label_1
_geom_bond_atom_site_label_2
_geom_bond_distance
_geom_bond_site_symmetry_2
_ccdc_geom_bond_type
Co0 N5 2.069 . S
Co0 O17 2.008 1_554 S
Co0 O20 2.074 1_655 S
Co0 O24 2.127 1_565 S
Co0 O25 2.005 1_554 S
C1 O21 1.259 1_655 S
C1 O24 1.258 . S
Co2 N11 2.065 . S
Co2 O18 2.124 1_545 S
Co2 O19 2.009 1_556 S
Co2 O21 2.012 1_556 S
Co2 O26 2.070 1_455 S
C3 N5 1.316 . S
C3 N6 1.347 . S
C3 H8 0.931 1_554 S
C4 N5 1.375 . S
C4 C7 1.350 . S
C4 H9 0.930 . S
N5 Co0 2.069 . S
N5 C3 1.316 . S
N5 C4 1.375 . S
N6 C3 1.347 . S
N6 C7 1.373 . S
C7 C4 1.350 . S
C7 N6 1.373 . S
C7 H28 0.931 . S
H8 C3 0.931 1_556 S
H9 C4 0.930 . S
C10 O17 1.259 1_455 S
C10 O18 1.258 . S
N11 Co2 2.065 . S
N11 C12 1.316 . S
N11 C13 1.375 . S
C12 N11 1.316 . S
C12 N14 1.347 . S
C12 H23 0.931 1_556 S
C13 N11 1.375 . S
C13 C15 1.350 . S
C13 H22 0.930 . S
N14 C12 1.347 . S
N14 C15 1.373 . S
C15 C13 1.350 . S
C15 N14 1.373 . S
C15 H29 0.931 . S
C16 O19 1.256 1_565 S
C16 O20 1.255 . S
O17 Co0 2.008 1_556 S
O17 C10 1.259 1_655 S
O18 Co2 2.124 1_565 S
O18 C10 1.258 . S
O19 Co2 2.009 1_554 S
O19 C16 1.256 1_545 S
O20 Co0 2.074 1_455 S
O20 C16 1.255 . S
O21 C1 1.259 1_455 S
O21 Co2 2.012 1_554 S
H22 C13 0.930 . S
H23 C12 0.931 1_554 S
O24 Co0 2.127 1_545 S
O24 C1 1.258 . S
O25 Co0 2.005 1_556 S
O25 C27 1.256 1_565 S
O26 Co2 2.070 1_655 S
O26 C27 1.255 . S
C27 O25 1.256 1_545 S
C27 O26 1.255 . S
H28 C7 0.931 . S
H29 C15 0.931 . S
Co30 N35 2.057 . S
Co30 O47 2.021 . S
Co30 O50 2.062 . S
Co30 O54 2.117 . S
Co30 O55 2.020 . S
C31 O51 1.259 . S
C31 O54 1.258 . S
Co32 N41 2.057 . S
Co32 O48 2.117 . S
Co32 O49 2.020 . S
Co32 O51 2.021 . S
Co32 O56 2.062 . S
C33 N35 1.316 . S
C33 N36 1.347 . S
C33 H38 0.931 . S
C34 N35 1.375 . S
C34 C37 1.350 . S
C34 H39 0.930 . S
N35 Co30 2.057 . S
N35 C33 1.316 . S
N35 C34 1.375 . S
N36 C33 1.347 . S
N36 C37 1.373 . S
C37 C34 1.350 . S
C37 N36 1.373 . S
C37 H58 0.931 . S
H38 C33 0.931 . S
H39 C34 0.930 . S
C40 O47 1.259 . S
C40 O48 1.258 . S
N41 Co32 2.057 . S
N41 C42 1.316 . S
N41 C43 1.375 . S
C42 N41 1.316 . S
C42 N44 1.347 . S
C42 H53 0.931 . S
C43 N41 1.375 . S
C43 C45 1.350 . S
C43 H52 0.930 . S
N44 C42 1.347 . S
N44 C45 1.373 . S
C45 C43 1.350 . S
C45 N44 1.373 . S
C45 H59 0.931 . S
C46 O49 1.256 . S
C46 O50 1.255 . S
O47 Co30 2.021 . S
O47 C40 1.259 . S
O48 Co32 2.117 . S
O48 C40 1.258 . S
O49 Co32 2.020 . S
O49 C46 1.256 . S
O50 Co30 2.062 . S
O50 C46 1.255 . S
O51 C31 1.259 . S
O51 Co32 2.021 . S
H52 C43 0.930 . S
H53 C42 0.931 . S
O54 Co30 2.117 . S
O54 C31 1.258 . S
O55 Co30 2.020 . S
O55 C57 1.256 . S
O56 Co32 2.062 . S
O56 C57 1.255 . S
C57 O55 1.256 . S
C57 O56 1.255 . S
H58 C37 0.931 . S
H59 C45 0.931 . S
Co60 N65 2.057 . S
Co60 O77 2.021 . S
Co60 O80 2.062 . S
Co60 O84 2.117 1_565 S
Co60 O85 2.020 1_565 S
C61 O81 1.259 . S
C61 O84 1.258 . S
Co62 N71 2.057 . S
Co62 O78 2.117 1_545 S
Co62 O79 2.020 1_545 S
Co62 O81 2.021 . S
Co62 O86 2.062 . S
C63 N65 1.316 . S
C63 N66 1.347 . S
C63 H68 0.931 . S
C64 N65 1.375 . S
C64 C67 1.350 . S
C64 H69 0.930 . S
N65 Co60 2.057 . S
N65 C63 1.316 . S
N65 C64 1.375 . S
N66 C63 1.347 . S
N66 C67 1.373 . S
C67 C64 1.350 . S
C67 N66 1.373 . S
C67 H88 0.931 . S
H68 C63 0.931 . S
H69 C64 0.930 . S
C70 O77 1.259 . S
C70 O78 1.258 . S
N71 Co62 2.057 . S
N71 C72 1.316 . S
N71 C73 1.375 . S
C72 N71 1.316 . S
C72 N74 1.347 . S
C72 H83 0.931 . S
C73 N71 1.375 . S
C73 C75 1.350 . S
C73 H82 0.930 . S
N74 C72 1.347 . S
N74 C75 1.373 . S
C75 C73 1.350 . S
C75 N74 1.373 . S
C75 H89 0.931 . S
C76 O79 1.256 . S
C76 O80 1.255 . S
O77 Co60 2.021 . S
O77 C70 1.259 . S
O78 Co62 2.117 1_565 S
O78 C70 1.258 . S
O79 Co62 2.020 1_565 S
O79 C76 1.256 . S
O80 Co60 2.062 . S
O80 C76 1.255 . S
O81 C61 1.259 . S
O81 Co62 2.021 . S
H82 C73 0.930 . S
H83 C72 0.931 . S
O84 Co60 2.117 1_545 S
O84 C61 1.258 . S
O85 Co60 2.020 1_545 S
O85 C87 1.256 . S
O86 Co62 2.062 . S
O86 C87 1.255 . S
C87 O85 1.256 . S
C87 O86 1.255 . S
H88 C67 0.931 . S
H89 C75 0.931 . S
Co90 N95 2.057 . S
Co90 O107 2.021 . S
Co90 O110 2.062 . S
Co90 O114 2.117 . S
Co90 O115 2.020 . S
C91 O111 1.259 . S
C91 O114 1.258 . S
Co92 N101 2.057 . S
Co92 O108 2.117 . S
Co92 O109 2.020 . S
Co92 O111 2.021 . S
Co92 O116 2.062 . S
C93 N95 1.316 . S
C93 N96 1.347 . S
C93 H98 0.931 . S
C94 N95 1.375 . S
C94 C97 1.350 . S
C94 H99 0.930 . S
N95 Co90 2.057 . S
N95 C93 1.316 . S
N95 C94 1.375 . S
N96 C93 1.347 . S
N96 C97 1.373 . S
C97 C94 1.350 . S
C97 N96 1.373 . S
C97 H118 0.931 . S
H98 C93 0.931 . S
H99 C94 0.930 . S
C100 O107 1.259 . S
C100 O108 1.258 . S
N101 Co92 2.057 . S
N101 C102 1.316 . S
N101 C103 1.375 . S
C102 N101 1.316 . S
C102 N104 1.347 . S
C102 H113 0.931 . S
C103 N101 1.375 . S
C103 C105 1.350 . S
C103 H112 0.930 . S
N104 C102 1.347 . S
N104 C105 1.373 . S
C105 C103 1.350 . S
C105 N104 1.373 . S
C105 H119 0.931 . S
C106 O109 1.256 . S
C106 O110 1.255 . S
O107 Co90 2.021 . S
O107 C100 1.259 . S
O108 Co92 2.117 . S
O108 C100 1.258 . S
O109 Co92 2.020 . S
O109 C106 1.256 . S
O110 Co90 2.062 . S
O110 C106 1.255 . S
O111 C91 1.259 . S
O111 Co92 2.021 . S
H112 C103 0.930 . S
H113 C102 0.931 . S
O114 Co90 2.117 . S
O114 C91 1.258 . S
O115 Co90 2.020 . S
O115 C117 1.256 . S
O116 Co92 2.062 . S
O116 C117 1.255 . S
C117 O115 1.256 . S
C117 O116 1.255 . S
H118 C97 0.931 . S
H119 C105 0.931 . S
Co120 N125 2.057 . S
Co120 O137 2.021 1_445 S
Co120 O140 2.062 1_455 S
Co120 O144 2.117 . S
Co120 O145 2.020 1_545 S
C121 O141 1.259 . S
C121 O144 1.258 . S
Co122 N131 2.057 . S
Co122 O138 2.117 . S
Co122 O139 2.020 1_565 S
Co122 O141 2.021 1_665 S
Co122 O146 2.062 1_655 S
C123 N125 1.316 . S
C123 N126 1.347 . S
C123 H128 0.931 . S
C124 N125 1.375 . S
C124 C127 1.350 . S
C124 H129 0.930 . S
N125 Co120 2.057 . S
N125 C123 1.316 . S
N125 C124 1.375 . S
N126 C123 1.347 . S
N126 C127 1.373 . S
C127 C124 1.350 . S
C127 N126 1.373 . S
C127 H148 0.931 . S
H128 C123 0.931 . S
H129 C124 0.930 . S
C130 O137 1.259 . S
C130 O138 1.258 . S
N131 Co122 2.057 . S
N131 C132 1.316 . S
N131 C133 1.375 . S
C132 N131 1.316 . S
C132 N134 1.347 . S
C132 H143 0.931 . S
C133 N131 1.375 . S
C133 C135 1.350 . S
C133 H142 0.930 . S
N134 C132 1.347 . S
N134 C135 1.373 . S
C135 C133 1.350 . S
C135 N134 1.373 . S
C135 H149 0.931 . S
C136 O139 1.256 . S
C136 O140 1.255 . S
O137 Co120 2.021 1_665 S
O137 C130 1.259 . S
O138 Co122 2.117 . S
O138 C130 1.258 . S
O139 Co122 2.020 1_545 S
O139 C136 1.256 . S
O140 Co120 2.062 1_655 S
O140 C136 1.255 . S
O141 C121 1.259 . S
O141 Co122 2.021 1_445 S
H142 C133 0.930 . S
H143 C132 0.931 . S
O144 Co120 2.117 . S
O144 C121 1.258 . S
O145 Co120 2.020 1_565 S
O145 C147 1.256 . S
O146 Co122 2.062 1_455 S
O146 C147 1.255 . S
C147 O145 1.256 . S
C147 O146 1.255 . S
H148 C127 0.931 . S
H149 C135 0.931 . S
Co150 N155 2.057 . S
Co150 O167 2.021 . S
Co150 O170 2.062 . S
Co150 O174 2.117 . S
Co150 O175 2.020 . S
C151 O171 1.259 . S
C151 O174 1.258 . S
Co152 N161 2.057 . S
Co152 O168 2.117 . S
Co152 O169 2.020 . S
Co152 O171 2.021 . S
Co152 O176 2.062 . S
C153 N155 1.316 . S
C153 N156 1.347 . S
C153 H158 0.931 . S
C154 N155 1.375 . S
C154 C157 1.350 . S
C154 H159 0.930 . S
N155 Co150 2.057 . S
N155 C153 1.316 . S
N155 C154 1.375 . S
N156 C153 1.347 . S
N156 C157 1.373 . S
C157 C154 1.350 . S
C157 N156 1.373 . S
C157 H178 0.931 . S
H158 C153 0.931 . S
H159 C154 0.930 . S
C160 O167 1.259 . S
C160 O168 1.258 . S
N161 Co152 2.057 . S
N161 C162 1.316 . S
N161 C163 1.375 . S
C162 N161 1.316 . S
C162 N164 1.347 . S
C162 H173 0.931 . S
C163 N161 1.375 . S
C163 C165 1.350 . S
C163 H172 0.930 . S
N164 C162 1.347 . S
N164 C165 1.373 . S
C165 C163 1.350 . S
C165 N164 1.373 . S
C165 H179 0.931 . S
C166 O169 1.256 . S
C166 O170 1.255 . S
O167 Co150 2.021 . S
O167 C160 1.259 . S
O168 Co152 2.117 . S
O168 C160 1.258 . S
O169 Co152 2.020 . S
O169 C166 1.256 . S
O170 Co150 2.062 . S
O170 C166 1.255 . S
O171 C151 1.259 . S
O171 Co152 2.021 . S
H172 C163 0.930 . S
H173 C162 0.931 . S
O174 Co150 2.117 . S
O174 C151 1.258 . S
O175 Co150 2.020 . S
O175 C177 1.256 . S
O176 Co152 2.062 . S
O176 C177 1.255 . S
C177 O175 1.256 . S
C177 O176 1.255 . S
H178 C157 0.931 . S
H179 C165 0.931 . S
Co180 N185 2.057 . S
Co180 O197 2.021 1_544 S
Co180 O200 2.062 1_545 S
Co180 O204 2.117 . S
Co180 O205 2.020 1_554 S
C181 O201 1.259 . S
C181 O204 1.258 . S
Co182 N191 2.057 . S
Co182 O198 2.117 . S
Co182 O199 2.020 1_556 S
Co182 O201 2.021 1_566 S
Co182 O206 2.062 1_565 S
C183 N185 1.316 . S
C183 N186 1.347 . S
C183 H188 0.931 . S
C184 N185 1.375 . S
C184 C187 1.350 . S
C184 H189 0.930 . S
N185 Co180 2.057 . S
N185 C183 1.316 . S
N185 C184 1.375 . S
N186 C183 1.347 . S
N186 C187 1.373 . S
C187 C184 1.350 . S
C187 N186 1.373 . S
C187 H208 0.931 . S
H188 C183 0.931 . S
H189 C184 0.930 . S
C190 O197 1.259 . S
C190 O198 1.258 . S
N191 Co182 2.057 . S
N191 C192 1.316 . S
N191 C193 1.375 . S
C192 N191 1.316 . S
C192 N194 1.347 . S
C192 H203 0.931 . S
C193 N191 1.375 . S
C193 C195 1.350 . S
C193 H202 0.930 . S
N194 C192 1.347 . S
N194 C195 1.373 . S
C195 C193 1.350 . S
C195 N194 1.373 . S
C195 H209 0.931 . S
C196 O199 1.256 . S
C196 O200 1.255 . S
O197 Co180 2.021 1_566 S
O197 C190 1.259 . S
O198 Co182 2.117 . S
O198 C190 1.258 . S
O199 Co182 2.020 1_554 S
O199 C196 1.256 . S
O200 Co180 2.062 1_565 S
O200 C196 1.255 . S
O201 C181 1.259 . S
O201 Co182 2.021 1_544 S
H202 C193 0.930 . S
H203 C192 0.931 . S
O204 Co180 2.117 . S
O204 C181 1.258 . S
O205 Co180 2.020 1_556 S
O205 C207 1.256 . S
O206 Co182 2.062 1_545 S
O206 C207 1.255 . S
C207 O205 1.256 . S
C207 O206 1.255 . S
H208 C187 0.931 . S
H209 C195 0.931 . S
Co210 N215 2.057 . S
Co210 O227 2.021 . S
Co210 O230 2.062 . S
Co210 O234 2.117 . S
Co210 O235 2.020 . S
C211 O231 1.259 . S
C211 O234 1.258 . S
Co212 N221 2.057 . S
Co212 O228 2.117 . S
Co212 O229 2.020 . S
Co212 O231 2.021 . S
Co212 O236 2.062 . S
C213 N215 1.316 . S
C213 N216 1.347 . S
C213 H218 0.931 . S
C214 N215 1.375 . S
C214 C217 1.350 . S
C214 H219 0.930 . S
N215 Co210 2.057 . S
N215 C213 1.316 . S
N215 C214 1.375 . S
N216 C213 1.347 . S
N216 C217 1.373 . S
C217 C214 1.350 . S
C217 N216 1.373 . S
C217 H238 0.931 . S
H218 C213 0.931 . S
H219 C214 0.930 . S
C220 O227 1.259 . S
C220 O228 1.258 . S
N221 Co212 2.057 . S
N221 C222 1.316 . S
N221 C223 1.375 . S
C222 N221 1.316 . S
C222 N224 1.347 . S
C222 H233 0.931 . S
C223 N221 1.375 . S
C223 C225 1.350 . S
C223 H232 0.930 . S
N224 C222 1.347 . S
N224 C225 1.373 . S
C225 C223 1.350 . S
C225 N224 1.373 . S
C225 H239 0.931 . S
C226 O229 1.256 . S
C226 O230 1.255 . S
O227 Co210 2.021 . S
O227 C220 1.259 . S
O228 Co212 2.117 . S
O228 C220 1.258 . S
O229 Co212 2.020 . S
O229 C226 1.256 . S
O230 Co210 2.062 . S
O230 C226 1.255 . S
O231 C211 1.259 . S
O231 Co212 2.021 . S
H232 C223 0.930 . S
H233 C222 0.931 . S
O234 Co210 2.117 . S
O234 C211 1.258 . S
O235 Co210 2.020 . S
O235 C237 1.256 . S
O236 Co212 2.062 . S
O236 C237 1.255 . S
C237 O235 1.256 . S
C237 O236 1.255 . S
H238 C217 0.931 . S
H239 C225 0.931 . S
Co240 N245 2.057 . S
Co240 O257 2.021 . S
Co240 O260 2.062 . S
Co240 O264 2.117 1_556 S
Co240 O265 2.020 1_556 S
C241 O261 1.259 . S
C241 O264 1.258 . S
Co242 N251 2.057 . S
Co242 O258 2.117 1_554 S
Co242 O259 2.020 1_554 S
Co242 O261 2.021 . S
Co242 O266 2.062 . S
C243 N245 1.316 . S
C243 N246 1.347 . S
C243 H248 0.931 . S
C244 N245 1.375 . S
C244 C247 1.350 . S
C244 H249 0.930 . S
N245 Co240 2.057 . S
N245 C243 1.316 . S
N245 C244 1.375 . S
N246 C243 1.347 . S
N246 C247 1.373 . S
C247 C244 1.350 . S
C247 N246 1.373 . S
C247 H268 0.931 . S
H248 C243 0.931 . S
H249 C244 0.930 . S
C250 O257 1.259 . S
C250 O258 1.258 . S
N251 Co242 2.057 . S
N251 C252 1.316 . S
N251 C253 1.375 . S
C252 N251 1.316 . S
C252 N254 1.347 . S
C252 H263 0.931 . S
C253 N251 1.375 . S
C253 C255 1.350 . S
C253 H262 0.930 . S
N254 C252 1.347 . S
N254 C255 1.373 . S
C255 C253 1.350 . S
C255 N254 1.373 . S
C255 H269 0.931 . S
C256 O259 1.256 . S
C256 O260 1.255 . S
O257 Co240 2.021 . S
O257 C250 1.259 . S
O258 Co242 2.117 1_556 S
O258 C250 1.258 . S
O259 Co242 2.020 1_556 S
O259 C256 1.256 . S
O260 Co240 2.062 . S
O260 C256 1.255 . S
O261 C241 1.259 . S
O261 Co242 2.021 . S
H262 C253 0.930 . S
H263 C252 0.931 . S
O264 Co240 2.117 1_554 S
O264 C241 1.258 . S
O265 Co240 2.020 1_554 S
O265 C267 1.256 . S
O266 Co242 2.062 . S
O266 C267 1.255 . S
C267 O265 1.256 . S
C267 O266 1.255 . S
H268 C247 0.931 . S
H269 C255 0.931 . S
Co270 N275 2.057 . S
Co270 O287 2.021 . S
Co270 O290 2.062 . S
Co270 O294 2.117 . S
Co270 O295 2.020 . S
C271 O291 1.259 . S
C271 O294 1.258 . S
Co272 N281 2.057 . S
Co272 O288 2.117 . S
Co272 O289 2.020 . S
Co272 O291 2.021 . S
Co272 O296 2.062 . S
C273 N275 1.316 . S
C273 N276 1.347 . S
C273 H278 0.931 . S
C274 N275 1.375 . S
C274 C277 1.350 . S
C274 H279 0.930 . S
N275 Co270 2.057 . S
N275 C273 1.316 . S
N275 C274 1.375 . S
N276 C273 1.347 . S
N276 C277 1.373 . S
C277 C274 1.350 . S
C277 N276 1.373 . S
C277 H298 0.931 . S
H278 C273 0.931 . S
H279 C274 0.930 . S
C280 O287 1.259 . S
C280 O288 1.258 . S
N281 Co272 2.057 . S
N281 C282 1.316 . S
N281 C283 1.375 . S
C282 N281 1.316 . S
C282 N284 1.347 . S
C282 H293 0.931 . S
C283 N281 1.375 . S
C283 C285 1.350 . S
C283 H292 0.930 . S
N284 C282 1.347 . S
N284 C285 1.373 . S
C285 C283 1.350 . S
C285 N284 1.373 . S
C285 H299 0.931 . S
C286 O289 1.256 . S
C286 O290 1.255 . S
O287 Co270 2.021 . S
O287 C280 1.259 . S
O288 Co272 2.117 . S
O288 C280 1.258 . S
O289 Co272 2.020 . S
O289 C286 1.256 . S
O290 Co270 2.062 . S
O290 C286 1.255 . S
O291 C271 1.259 . S
O291 Co272 2.021 . S
H292 C283 0.930 . S
H293 C282 0.931 . S
O294 Co270 2.117 . S
O294 C271 1.258 . S
O295 Co270 2.020 . S
O295 C297 1.256 . S
O296 Co272 2.062 . S
O296 C297 1.255 . S
C297 O295 1.256 . S
C297 O296 1.255 . S
H298 C277 0.931 . S
H299 C285 0.931 . S
Co300 N305 2.057 . S
Co300 O317 2.021 . S
Co300 O320 2.062 . S
Co300 O324 2.117 1_655 S
Co300 O325 2.020 . S
C301 O321 1.259 . S
C301 O324 1.258 . S
Co302 N311 2.057 . S
Co302 O318 2.117 1_455 S
Co302 O319 2.020 . S
Co302 O321 2.021 . S
Co302 O326 2.062 . S
C303 N305 1.316 . S
C303 N306 1.347 . S
C303 H308 0.931 . S
C304 N305 1.375 . S
C304 C307 1.350 . S
C304 H309 0.930 . S
N305 Co300 2.057 . S
N305 C303 1.316 . S
N305 C304 1.375 . S
N306 C303 1.347 . S
N306 C307 1.373 . S
C307 C304 1.350 . S
C307 N306 1.373 . S
C307 H328 0.931 . S
H308 C303 0.931 . S
H309 C304 0.930 . S
C310 O317 1.259 . S
C310 O318 1.258 . S
N311 Co302 2.057 . S
N311 C312 1.316 . S
N311 C313 1.375 . S
C312 N311 1.316 . S
C312 N314 1.347 . S
C312 H323 0.931 . S
C313 N311 1.375 . S
C313 C315 1.350 . S
C313 H322 0.930 . S
N314 C312 1.347 . S
N314 C315 1.373 . S
C315 C313 1.350 . S
C315 N314 1.373 . S
C315 H329 0.931 . S
C316 O319 1.256 1_655 S
C316 O320 1.255 . S
O317 Co300 2.021 . S
O317 C310 1.259 . S
O318 Co302 2.117 1_655 S
O318 C310 1.258 . S
O319 Co302 2.020 . S
O319 C316 1.256 1_455 S
O320 Co300 2.062 . S
O320 C316 1.255 . S
O321 C301 1.259 . S
O321 Co302 2.021 . S
H322 C313 0.930 . S
H323 C312 0.931 . S
O324 Co300 2.117 1_455 S
O324 C301 1.258 . S
O325 Co300 2.020 . S
O325 C327 1.256 1_655 S
O326 Co302 2.062 . S
O326 C327 1.255 . S
C327 O325 1.256 1_455 S
C327 O326 1.255 . S
H328 C307 0.931 . S
H329 C315 0.931 . S
Co330 N335 2.057 . S
Co330 O347 2.021 . S
Co330 O350 2.062 . S
Co330 O354 2.117 . S
Co330 O355 2.020 . S
C331 O351 1.259 . S
C331 O354 1.258 . S
Co332 N341 2.057 . S
Co332 O348 2.117 . S
Co332 O349 2.020 . S
Co332 O351 2.021 . S
Co332 O356 2.062 . S
C333 N335 1.316 . S
C333 N336 1.347 . S
C333 H338 0.931 . S
C334 N335 1.375 . S
C334 C337 1.350 . S
C334 H339 0.930 . S
N335 Co330 2.057 . S
N335 C333 1.316 . S
N335 C334 1.375 . S
N336 C333 1.347 . S
N336 C337 1.373 . S
C337 C334 1.350 . S
C337 N336 1.373 . S
C337 H358 0.931 . S
H338 C333 0.931 . S
H339 C334 0.930 . S
C340 O347 1.259 . S
C340 O348 1.258 . S
N341 Co332 2.057 . S
N341 C342 1.316 . S
N341 C343 1.375 . S
C342 N341 1.316 . S
C342 N344 1.347 . S
C342 H353 0.931 . S
C343 N341 1.375 . S
C343 C345 1.350 . S
C343 H352 0.930 . S
N344 C342 1.347 . S
N344 C345 1.373 . S
C345 C343 1.350 . S
C345 N344 1.373 . S
C345 H359 0.931 . S
C346 O349 1.256 . S
C346 O350 1.255 . S
O347 Co330 2.021 . S
O347 C340 1.259 . S
O348 Co332 2.117 . S
O348 C340 1.258 . S
O349 Co332 2.020 . S
O349 C346 1.256 . S
O350 Co330 2.062 . S
O350 C346 1.255 . S
O351 C331 1.259 . S
O351 Co332 2.021 . S
H352 C343 0.930 . S
H353 C342 0.931 . S
O354 Co330 2.117 . S
O354 C331 1.258 . S
O355 Co330 2.020 . S
O355 C357 1.256 . S
O356 Co332 2.062 . S
O356 C357 1.255 . S
C357 O355 1.256 . S
C357 O356 1.255 . S
H358 C337 0.931 . S
H359 C345 0.931 . S
Co360 N365 2.057 . S
Co360 O377 2.021 . S
Co360 O380 2.062 . S
Co360 O384 2.117 . S
Co360 O385 2.020 . S
C361 O381 1.259 . S
C361 O384 1.258 . S
Co362 N371 2.057 . S
Co362 O378 2.117 . S
Co362 O379 2.020 . S
Co362 O381 2.021 . S
Co362 O386 2.062 . S
C363 N365 1.316 . S
C363 N366 1.347 . S
C363 H368 0.931 . S
C364 N365 1.375 . S
C364 C367 1.350 . S
C364 H369 0.930 . S
N365 Co360 2.057 . S
N365 C363 1.316 . S
N365 C364 1.375 . S
N366 C363 1.347 . S
N366 C367 1.373 . S
C367 C364 1.350 . S
C367 N366 1.373 . S
C367 H388 0.931 . S
H368 C363 0.931 . S
H369 C364 0.930 . S
C370 O377 1.259 . S
C370 O378 1.258 . S
N371 Co362 2.057 . S
N371 C372 1.316 . S
N371 C373 1.375 . S
C372 N371 1.316 . S
C372 N374 1.347 . S
C372 H383 0.931 . S
C373 N371 1.375 . S
C373 C375 1.350 . S
C373 H382 0.930 . S
N374 C372 1.347 . S
N374 C375 1.373 . S
C375 C373 1.350 . S
C375 N374 1.373 . S
C375 H389 0.931 . S
C376 O379 1.256 . S
C376 O380 1.255 . S
O377 Co360 2.021 . S
O377 C370 1.259 . S
O378 Co362 2.117 . S
O378 C370 1.258 . S
O379 Co362 2.020 . S
O379 C376 1.256 . S
O380 Co360 2.062 . S
O380 C376 1.255 . S
O381 C361 1.259 . S
O381 Co362 2.021 . S
H382 C373 0.930 . S
H383 C372 0.931 . S
O384 Co360 2.117 . S
O384 C361 1.258 . S
O385 Co360 2.020 . S
O385 C387 1.256 . S
O386 Co362 2.062 . S
O386 C387 1.255 . S
C387 O385 1.256 . S
C387 O386 1.255 . S
H388 C367 0.931 . S
H389 C375 0.931 . S
Co390 N395 2.057 . S
Co390 O407 2.021 . S
Co390 O410 2.062 . S
Co390 O414 2.117 . S
Co390 O415 2.020 . S
C391 O411 1.259 . S
C391 O414 1.258 . S
Co392 N401 2.057 . S
Co392 O408 2.117 . S
Co392 O409 2.020 . S
Co392 O411 2.021 . S
Co392 O416 2.062 . S
C393 N395 1.316 . S
C393 N396 1.347 . S
C393 H398 0.931 . S
C394 N395 1.375 . S
C394 C397 1.350 . S
C394 H399 0.930 . S
N395 Co390 2.057 . S
N395 C393 1.316 . S
N395 C394 1.375 . S
N396 C393 1.347 . S
N396 C397 1.373 . S
C397 C394 1.350 . S
C397 N396 1.373 . S
C397 H418 0.931 . S
H398 C393 0.931 . S
H399 C394 0.930 . S
C400 O407 1.259 . S
C400 O408 1.258 . S
N401 Co392 2.057 . S
N401 C402 1.316 . S
N401 C403 1.375 . S
C402 N401 1.316 . S
C402 N404 1.347 . S
C402 H413 0.931 . S
C403 N401 1.375 . S
C403 C405 1.350 . S
C403 H412 0.930 . S
N404 C402 1.347 . S
N404 C405 1.373 . S
C405 C403 1.350 . S
C405 N404 1.373 . S
C405 H419 0.931 . S
C406 O409 1.256 . S
C406 O410 1.255 . S
O407 Co390 2.021 . S
O407 C400 1.259 . S
O408 Co392 2.117 . S
O408 C400 1.258 . S
O409 Co392 2.020 . S
O409 C406 1.256 . S
O410 Co390 2.062 . S
O410 C406 1.255 . S
O411 C391 1.259 . S
O411 Co392 2.021 . S
H412 C403 0.930 . S
H413 C402 0.931 . S
O414 Co390 2.117 . S
O414 C391 1.258 . S
O415 Co390 2.020 . S
O415 C417 1.256 . S
O416 Co392 2.062 . S
O416 C417 1.255 . S
C417 O415 1.256 . S
C417 O416 1.255 . S
H418 C397 0.931 . S
H419 C405 0.931 . S
Co420 N425 2.057 . S
Co420 O437 2.021 . S
Co420 O440 2.062 . S
Co420 O444 2.117 . S
Co420 O445 2.020 . S
C421 O441 1.259 . S
C421 O444 1.258 . S
Co422 N431 2.057 . S
Co422 O438 2.117 . S
Co422 O439 2.020 . S
Co422 O441 2.021 . S
Co422 O446 2.062 . S
C423 N425 1.316 . S
C423 N426 1.347 . S
C423 H428 0.931 . S
C424 N425 1.375 . S
C424 C427 1.350 . S
C424 H429 0.930 . S
N425 Co420 2.057 . S
N425 C423 1.316 . S
N425 C424 1.375 . S
N426 C423 1.347 . S
N426 C427 1.373 . S
C427 C424 1.350 . S
C427 N426 1.373 . S
C427 H448 0.931 . S
H428 C423 0.931 . S
H429 C424 0.930 . S
C430 O437 1.259 . S
C430 O438 1.258 . S
N431 Co422 2.057 . S
N431 C432 1.316 . S
N431 C433 1.375 . S
C432 N431 1.316 . S
C432 N434 1.347 . S
C432 H443 0.931 . S
C433 N431 1.375 . S
C433 C435 1.350 . S
C433 H442 0.930 . S
N434 C432 1.347 . S
N434 C435 1.373 . S
C435 C433 1.350 . S
C435 N434 1.373 . S
C435 H449 0.931 . S
C436 O439 1.256 . S
C436 O440 1.255 . S
O437 Co420 2.021 . S
O437 C430 1.259 . S
O438 Co422 2.117 . S
O438 C430 1.258 . S
O439 Co422 2.020 . S
O439 C436 1.256 . S
O440 Co420 2.062 . S
O440 C436 1.255 . S
O441 C421 1.259 . S
O441 Co422 2.021 . S
H442 C433 0.930 . S
H443 C432 0.931 . S
O444 Co420 2.117 . S
O444 C421 1.258 . S
O445 Co420 2.020 . S
O445 C447 1.256 . S
O446 Co422 2.062 . S
O446 C447 1.255 . S
C447 O445 1.256 . S
C447 O446 1.255 . S
H448 C427 0.931 . S
H449 C435 0.931 . S
Co450 N455 2.057 . S
Co450 O467 2.021 1_454 S
Co450 O470 2.062 1_554 S
Co450 O474 2.117 . S
Co450 O475 2.020 1_455 S
C451 O471 1.259 . S
C451 O474 1.258 . S
Co452 N461 2.057 . S
Co452 O468 2.117 . S
Co452 O469 2.020 1_655 S
Co452 O471 2.021 1_656 S
Co452 O476 2.062 1_556 S
C453 N455 1.316 . S
C453 N456 1.347 . S
C453 H458 0.931 . S
C454 N455 1.375 . S
C454 C457 1.350 . S
C454 H459 0.930 . S
N455 Co450 2.057 . S
N455 C453 1.316 . S
N455 C454 1.375 . S
N456 C453 1.347 . S
N456 C457 1.373 . S
C457 C454 1.350 . S
C457 N456 1.373 . S
C457 H478 0.931 . S
H458 C453 0.931 . S
H459 C454 0.930 . S
C460 O467 1.259 . S
C460 O468 1.258 . S
N461 Co452 2.057 . S
N461 C462 1.316 . S
N461 C463 1.375 . S
C462 N461 1.316 . S
C462 N464 1.347 . S
C462 H473 0.931 . S
C463 N461 1.375 . S
C463 C465 1.350 . S
C463 H472 0.930 . S
N464 C462 1.347 . S
N464 C465 1.373 . S
C465 C463 1.350 . S
C465 N464 1.373 . S
C465 H479 0.931 . S
C466 O469 1.256 . S
C466 O470 1.255 . S
O467 Co450 2.021 1_656 S
O467 C460 1.259 . S
O468 Co452 2.117 . S
O468 C460 1.258 . S
O469 Co452 2.020 1_455 S
O469 C466 1.256 . S
O470 Co450 2.062 1_556 S
O470 C466 1.255 . S
O471 C451 1.259 . S
O471 Co452 2.021 1_454 S
H472 C463 0.930 . S
H473 C462 0.931 . S
O474 Co450 2.117 . S
O474 C451 1.258 . S
O475 Co450 2.020 1_655 S
O475 C477 1.256 . S
O476 Co452 2.062 1_554 S
O476 C477 1.255 . S
C477 O475 1.256 . S
C477 O476 1.255 . S
H478 C457 0.931 . S
H479 C465 0.931 . S
C480 C481 1.387 . S
C480 H484 0.950 . S
C480 C489 1.390 . S
C481 C480 1.387 . S
C481 C483 1.387 . S
H482 C489 0.950 . S
C483 C481 1.387 . S
C483 C485 1.390 . S
C483 H487 0.950 . S
H484 C480 0.950 . S
C485 C483 1.390 . S
C485 C486 1.387 . S
C485 H488 0.950 . S
C486 C485 1.387 . S
C486 C489 1.387 . S
H487 C483 0.950 . S
H488 C485 0.950 . S
C489 C480 1.390 . S
C489 H482 0.950 . S
C489 C486 1.387 . S
C490 C491 1.387 . S
C490 H494 0.950 . S
C490 C499 1.390 . S
C491 C490 1.387 . S
C491 C493 1.387 . S
H492 C499 0.950 . S
C493 C491 1.387 . S
C493 C495 1.390 . S
C493 H497 0.950 . S
H494 C490 0.950 . S
C495 C493 1.390 . S
C495 C496 1.387 . S
C495 H498 0.950 . S
C496 C495 1.387 . S
C496 C499 1.387 . S
H497 C493 0.950 . S
H498 C495 0.950 . S
C499 C490 1.390 . S
C499 H492 0.950 . S
C499 C496 1.387 . S
C500 C501 1.387 . S
C500 H504 0.950 . S
C500 C509 1.390 . S
C501 C500 1.387 . S
C501 C503 1.387 . S
H502 C509 0.950 . S
C503 C501 1.387 . S
C503 C505 1.390 . S
C503 H507 0.950 . S
H504 C500 0.950 . S
C505 C503 1.390 . S
C505 C506 1.387 . S
C505 H508 0.950 . S
C506 C505 1.387 . S
C506 C509 1.387 . S
H507 C503 0.950 . S
H508 C505 0.950 . S
C509 C500 1.390 . S
C509 H502 0.950 . S
C509 C506 1.387 . S
C510 C511 1.387 . S
C510 H514 0.950 . S
C510 C519 1.390 . S
C511 C510 1.387 . S
C511 C513 1.387 . S
H512 C519 0.950 . S
C513 C511 1.387 . S
C513 C515 1.390 . S
C513 H517 0.950 . S
H514 C510 0.950 . S
C515 C513 1.390 . S
C515 C516 1.387 . S
C515 H518 0.950 . S
C516 C515 1.387 . S
C516 C519 1.387 . S
H517 C513 0.950 . S
H518 C515 0.950 . S
C519 C510 1.390 . S
C519 H512 0.950 . S
C519 C516 1.387 . S
C520 C521 1.387 . S
C520 H524 0.950 . S
C520 C529 1.390 . S
C521 C520 1.387 . S
C521 C523 1.387 . S
H522 C529 0.950 . S
C523 C521 1.387 . S
C523 C525 1.390 . S
C523 H527 0.950 . S
H524 C520 0.950 . S
C525 C523 1.390 . S
C525 C526 1.387 . S
C525 H528 0.950 . S
C526 C525 1.387 . S
C526 C529 1.387 . S
H527 C523 0.950 . S
H528 C525 0.950 . S
C529 C520 1.390 . S
C529 H522 0.950 . S
C529 C526 1.387 . S
C530 C531 1.387 . S
C530 H534 0.950 . S
C530 C539 1.390 . S
C531 C530 1.387 . S
C531 C533 1.387 . S
H532 C539 0.950 . S
C533 C531 1.387 . S
C533 C535 1.390 . S
C533 H537 0.950 . S
H534 C530 0.950 . S
C535 C533 1.390 . S
C535 C536 1.387 . S
C535 H538 0.950 . S
C536 C535 1.387 . S
C536 C539 1.387 . S
H537 C533 0.950 . S
H538 C535 0.950 . S
C539 C530 1.390 . S
C539 H532 0.950 . S
C539 C536 1.387 . S
C540 C541 1.387 . S
C540 H544 0.950 . S
C540 C549 1.390 . S
C541 C540 1.387 . S
C541 C543 1.387 . S
H542 C549 0.950 . S
C543 C541 1.387 . S
C543 C545 1.390 . S
C543 H547 0.950 . S
H544 C540 0.950 . S
C545 C543 1.390 . S
C545 C546 1.387 . S
C545 H548 0.950 . S
C546 C545 1.387 . S
C546 C549 1.387 . S
H547 C543 0.950 . S
H548 C545 0.950 . S
C549 C540 1.390 . S
C549 H542 0.950 . S
C549 C546 1.387 . S
C550 C551 1.387 . S
C550 H554 0.950 . S
C550 C559 1.390 . S
C551 C550 1.387 . S
C551 C553 1.387 . S
H552 C559 0.950 . S
C553 C551 1.387 . S
C553 C555 1.390 . S
C553 H557 0.950 . S
H554 C550 0.950 . S
C555 C553 1.390 . S
C555 C556 1.387 . S
C555 H558 0.950 . S
C556 C555 1.387 . S
C556 C559 1.387 . S
H557 C553 0.950 . S
H558 C555 0.950 . S
C559 C550 1.390 . S
C559 H552 0.950 . S
C559 C556 1.387 . S
C560 C561 1.387 . S
C560 H564 0.950 . S
C560 C569 1.390 . S
C561 C560 1.387 . S
C561 C563 1.387 . S
H562 C569 0.950 . S
C563 C561 1.387 . S
C563 C565 1.390 . S
C563 H567 0.950 . S
H564 C560 0.950 . S
C565 C563 1.390 . S
C565 C566 1.387 . S
C565 H568 0.950 . S
C566 C565 1.387 . S
C566 C569 1.387 . S
H567 C563 0.950 . S
H568 C565 0.950 . S
C569 C560 1.390 . S
C569 H562 0.950 . S
C569 C566 1.387 . S
C570 C571 1.387 . S
C570 H574 0.950 . S
C570 C579 1.390 . S
C571 C570 1.387 . S
C571 C573 1.387 . S
H572 C579 0.950 . S
C573 C571 1.387 . S
C573 C575 1.390 . S
C573 H577 0.950 . S
H574 C570 0.950 . S
C575 C573 1.390 . S
C575 C576 1.387 . S
C575 H578 0.950 . S
C576 C575 1.387 . S
C576 C579 1.387 . S
H577 C573 0.950 . S
H578 C575 0.950 . S
C579 C570 1.390 . S
C579 H572 0.950 . S
C579 C576 1.387 . S
C580 C581 1.387 . S
C580 H584 0.950 . S
C580 C589 1.390 . S
C581 C580 1.387 . S
C581 C583 1.387 . S
H582 C589 0.950 . S
C583 C581 1.387 . S
C583 C585 1.390 . S
C583 H587 0.950 . S
H584 C580 0.950 . S
C585 C583 1.390 . S
C585 C586 1.387 . S
C585 H588 0.950 . S
C586 C585 1.387 . S
C586 C589 1.387 . S
H587 C583 0.950 . S
H588 C585 0.950 . S
C589 C580 1.390 . S
C589 H582 0.950 . S
C589 C586 1.387 . S
C590 C591 1.387 . S
C590 H594 0.950 . S
C590 C599 1.390 . S
C591 C590 1.387 . S
C591 C593 1.387 . S
H592 C599 0.950 . S
C593 C591 1.387 . S
C593 C595 1.390 . S
C593 H597 0.950 . S
H594 C590 0.950 . S
C595 C593 1.390 . S
C595 C596 1.387 . S
C595 H598 0.950 . S
C596 C595 1.387 . S
C596 C599 1.387 . S
H597 C593 0.950 . S
H598 C595 0.950 . S
C599 C590 1.390 . S
C599 H592 0.950 . S
C599 C596 1.387 . S
C600 C601 1.387 . S
C600 H604 0.950 . S
C600 C609 1.390 . S
C601 C600 1.387 . S
C601 C603 1.387 . S
H602 C609 0.950 . S
C603 C601 1.387 . S
C603 C605 1.390 . S
C603 H607 0.950 . S
H604 C600 0.950 . S
C605 C603 1.390 . S
C605 C606 1.387 . S
C605 H608 0.950 . S
C606 C605 1.387 . S
C606 C609 1.387 . S
H607 C603 0.950 . S
H608 C605 0.950 . S
C609 C600 1.390 . S
C609 H602 0.950 . S
C609 C606 1.387 . S
C610 C611 1.387 . S
C610 H614 0.950 . S
C610 C619 1.390 . S
C611 C610 1.387 . S
C611 C613 1.387 . S
H612 C619 0.950 . S
C613 C611 1.387 . S
C613 C615 1.390 . S
C613 H617 0.950 . S
H614 C610 0.950 . S
C615 C613 1.390 . S
C615 C616 1.387 . S
C615 H618 0.950 . S
C616 C615 1.387 . S
C616 C619 1.387 . S
H617 C613 0.950 . S
H618 C615 0.950 . S
C619 C610 1.390 . S
C619 H612 0.950 . S
C619 C616 1.387 . S
C620 C621 1.387 . S
C620 H624 0.950 . S
C620 C629 1.390 . S
C621 C620 1.387 . S
C621 C623 1.387 . S
H622 C629 0.950 . S
C623 C621 1.387 . S
C623 C625 1.390 . S
C623 H627 0.950 . S
H624 C620 0.950 . S
C625 C623 1.390 . S
C625 C626 1.387 . S
C625 H628 0.950 . S
C626 C625 1.387 . S
C626 C629 1.387 . S
H627 C623 0.950 . S
H628 C625 0.950 . S
C629 C620 1.390 . S
C629 H622 0.950 . S
C629 C626 1.387 . S
C630 C631 1.387 . S
C630 H634 0.950 . S
C630 C639 1.390 . S
C631 C630 1.387 . S
C631 C633 1.387 . S
H632 C639 0.950 . S
C633 C631 1.387 . S
C633 C635 1.390 . S
C633 H637 0.950 . S
H634 C630 0.950 . S
C635 C633 1.390 . S
C635 C636 1.387 . S
C635 H638 0.950 . S
C636 C635 1.387 . S
C636 C639 1.387 . S
H637 C633 0.950 . S
H638 C635 0.950 . S
C639 C630 1.390 . S
C639 H632 0.950 . S
C639 C636 1.387 . S
C640 C641 1.387 . S
C640 H644 0.950 . S
C640 C649 1.390 . S
C641 C640 1.387 . S
C641 C643 1.387 . S
H642 C649 0.950 . S
C643 C641 1.387 . S
C643 C645 1.390 . S
C643 H647 0.950 . S
H644 C640 0.950 . S
C645 C643 1.390 . S
C645 C646 1.387 . S
C645 H648 0.950 . S
C646 C645 1.387 . S
C646 C649 1.387 . S
H647 C643 0.950 . S
H648 C645 0.950 . S
C649 C640 1.390 . S
C649 H642 0.950 . S
C649 C646 1.387 . S
C650 C651 1.387 . S
C650 H654 0.950 . S
C650 C659 1.390 . S
C651 C650 1.387 . S
C651 C653 1.387 . S
H652 C659 0.950 . S
C653 C651 1.387 . S
C653 C655 1.390 . S
C653 H657 0.950 . S
H654 C650 0.950 . S
C655 C653 1.390 . S
C655 C656 1.387 . S
C655 H658 0.950 . S
C656 C655 1.387 . S
C656 C659 1.387 . S
H657 C653 0.950 . S
H658 C655 0.950 . S
C659 C650 1.390 . S
C659 H652 0.950 . S
C659 C656 1.387 . S
C660 C661 1.387 . S
C660 H664 0.950 . S
C660 C669 1.390 . S
C661 C660 1.387 . S
C661 C663 1.387 . S
H662 C669 0.950 . S
C663 C661 1.387 . S
C663 C665 1.390 . S
C663 H667 0.950 . S
H664 C660 0.950 . S
C665 C663 1.390 . S
C665 C666 1.387 . S
C665 H668 0.950 . S
C666 C665 1.387 . S
C666 C669 1.387 . S
H667 C663 0.950 . S
H668 C665 0.950 . S
C669 C660 1.390 . S
C669 H662 0.950 . S
C669 C666 1.387 . S
C670 C671 1.387 . S
C670 H674 0.950 . S
C670 C679 1.390 . S
C671 C670 1.387 . S
C671 C673 1.387 . S
H672 C679 0.950 . S
C673 C671 1.387 . S
C673 C675 1.390 . S
C673 H677 0.950 . S
H674 C670 0.950 . S
C675 C673 1.390 . S
C675 C676 1.387 . S
C675 H678 0.950 . S
C676 C675 1.387 . S
C676 C679 1.387 . S
H677 C673 0.950 . S
H678 C675 0.950 . S
C679 C670 1.390 . S
C679 H672 0.950 . S
C679 C676 1.387 . S
C680 C681 1.387 . S
C680 H684 0.950 . S
C680 C689 1.390 . S
C681 C680 1.387 . S
C681 C683 1.387 . S
H682 C689 0.950 . S
C683 C681 1.387 . S
C683 C685 1.390 . S
C683 H687 0.950 . S
H684 C680 0.950 . S
C685 C683 1.390 . S
C685 C686 1.387 . S
C685 H688 0.950 . S
C686 C685 1.387 . S
C686 C689 1.387 . S
H687 C683 0.950 . S
H688 C685 0.950 . S
C689 C680 1.390 . S
C689 H682 0.950 . S
C689 C686 1.387 . S
C690 C691 1.387 . S
C690 H694 0.950 . S
C690 C699 1.390 . S
C691 C690 1.387 . S
C691 C693 1.387 . S
H692 C699 0.950 . S
C693 C691 1.387 . S
C693 C695 1.390 . S
C693 H697 0.950 . S
H694 C690 0.950 . S
C695 C693 1.390 . S
C695 C696 1.387 . S
C695 H698 0.950 . S
C696 C695 1.387 . S
C696 C699 1.387 . S
H697 C693 0.950 . S
H698 C695 0.950 . S
C699 C690 1.390 . S
C699 H692 0.950 . S
C699 C696 1.387 . S
C700 C701 1.387 . S
C700 H704 0.950 . S
C700 C709 1.390 . S
C701 C700 1.387 . S
C701 C703 1.387 . S
H702 C709 0.950 . S
C703 C701 1.387 . S
C703 C705 1.390 . S
C703 H707 0.950 . S
H704 C700 0.950 . S
C705 C703 1.390 . S
C705 C706 1.387 . S
C705 H708 0.950 . S
C706 C705 1.387 . S
C706 C709 1.387 . S
H707 C703 0.950 . S
H708 C705 0.950 . S
C709 C700 1.390 . S
C709 H702 0.950 . S
C709 C706 1.387 . S
C710 C711 1.387 . S
C710 H714 0.950 . S
C710 C719 1.390 . S
C711 C710 1.387 . S
C711 C713 1.387 . S
H712 C719 0.950 . S
C713 C711 1.387 . S
C713 C715 1.390 . S
C713 H717 0.950 . S
H714 C710 0.950 . S
C715 C713 1.390 . S
C715 C716 1.387 . S
C715 H718 0.950 . S
C716 C715 1.387 . S
C716 C719 1.387 . S
H717 C713 0.950 . S
H718 C715 0.950 . S
C719 C710 1.390 . S
C719 H712 0.950 . S
C719 C716 1.387 . S
C720 C721 1.387 . S
C720 H724 0.950 . S
C720 C729 1.390 . S
C721 C720 1.387 . S
C721 C723 1.387 . S
H722 C729 0.950 . S
C723 C721 1.387 . S
C723 C725 1.390 . S
C723 H727 0.950 . S
H724 C720 0.950 . S
C725 C723 1.390 . S
C725 C726 1.387 . S
C725 H728 0.950 . S
C726 C725 1.387 . S
C726 C729 1.387 . S
H727 C723 0.950 . S
H728 C725 0.950 . S
C729 C720 1.390 . S
C729 H722 0.950 . S
C729 C726 1.387 . S
C730 C731 1.387 . S
C730 H734 0.950 . S
C730 C739 1.390 . S
C731 C730 1.387 . S
C731 C733 1.387 . S
H732 C739 0.950 . S
C733 C731 1.387 . S
C733 C735 1.390 . S
C733 H737 0.950 . S
H734 C730 0.950 . S
C735 C733 1.390 . S
C735 C736 1.387 . S
C735 H738 0.950 . S
C736 C735 1.387 . S
C736 C739 1.387 . S
H737 C733 0.950 . S
H738 C735 0.950 . S
C739 C730 1.390 . S
C739 H732 0.950 . S
C739 C736 1.387 . S
C740 C741 1.387 . S
C740 H744 0.950 . S
C740 C749 1.390 . S
C741 C740 1.387 . S
C741 C743 1.387 . S
H742 C749 0.950 . S
C743 C741 1.387 . S
C743 C745 1.390 . S
C743 H747 0.950 . S
H744 C740 0.950 . S
C745 C743 1.390 . S
C745 C746 1.387 . S
C745 H748 0.950 . S
C746 C745 1.387 . S
C746 C749 1.387 . S
H747 C743 0.950 . S
H748 C745 0.950 . S
C749 C740 1.390 . S
C749 H742 0.950 . S
C749 C746 1.387 . S
C750 C751 1.387 . S
C750 H754 0.950 . S
C750 C759 1.390 . S
C751 C750 1.387 . S
C751 C753 1.387 . S
H752 C759 0.950 . S
C753 C751 1.387 . S
C753 C755 1.390 . S
C753 H757 0.950 . S
H754 C750 0.950 . S
C755 C753 1.390 . S
C755 C756 1.387 . S
C755 H758 0.950 . S
C756 C755 1.387 . S
C756 C759 1.387 . S
H757 C753 0.950 . S
H758 C755 0.950 . S
C759 C750 1.390 . S
C759 H752 0.950 . S
C759 C756 1.387 . S
C760 C761 1.387 . S
C760 H764 0.950 . S
C760 C769 1.390 . S
C761 C760 1.387 . S
C761 C763 1.387 . S
H762 C769 0.950 . S
C763 C761 1.387 . S
C763 C765 1.390 . S
C763 H767 0.950 . S
H764 C760 0.950 . S
C765 C763 1.390 . S
C765 C766 1.387 . S
C765 H768 0.950 . S
C766 C765 1.387 . S
C766 C769 1.387 . S
H767 C763 0.950 . S
H768 C765 0.950 . S
C769 C760 1.390 . S
C769 H762 0.950 . S
C769 C766 1.387 . S
C770 C771 1.387 . S
C770 H774 0.950 . S
C770 C779 1.390 . S
C771 C770 1.387 . S
C771 C773 1.387 . S
H772 C779 0.950 . S
C773 C771 1.387 . S
C773 C775 1.390 . S
C773 H777 0.950 . S
H774 C770 0.950 . S
C775 C773 1.390 . S
C775 C776 1.387 . S
C775 H778 0.950 . S
C776 C775 1.387 . S
C776 C779 1.387 . S
H777 C773 0.950 . S
H778 C775 0.950 . S
C779 C770 1.390 . S
C779 H772 0.950 . S
C779 C776 1.387 . S
C780 C781 1.387 . S
C780 H784 0.950 . S
C780 C789 1.390 . S
C781 C780 1.387 . S
C781 C783 1.387 . S
H782 C789 0.950 . S
C783 C781 1.387 . S
C783 C785 1.390 . S
C783 H787 0.950 . S
H784 C780 0.950 . S
C785 C783 1.390 . S
C785 C786 1.387 . S
C785 H788 0.950 . S
C786 C785 1.387 . S
C786 C789 1.387 . S
H787 C783 0.950 . S
H788 C785 0.950 . S
C789 C780 1.390 . S
C789 H782 0.950 . S
C789 C786 1.387 . S
C790 C791 1.387 . S
C790 H794 0.950 . S
C790 C799 1.390 . S
C791 C790 1.387 . S
C791 C793 1.387 . S
H792 C799 0.950 . S
C793 C791 1.387 . S
C793 C795 1.390 . S
C793 H797 0.950 . S
H794 C790 0.950 . S
C795 C793 1.390 . S
C795 C796 1.387 . S
C795 H798 0.950 . S
C796 C795 1.387 . S
C796 C799 1.387 . S
H797 C793 0.950 . S
H798 C795 0.950 . S
C799 C790 1.390 . S
C799 H792 0.950 . S
C799 C796 1.387 . S
C800 C801 1.387 . S
C800 H804 0.950 . S
C800 C809 1.390 . S
C801 C800 1.387 . S
C801 C803 1.387 . S
H802 C809 0.950 . S
C803 C801 1.387 . S
C803 C805 1.390 . S
C803 H807 0.950 . S
H804 C800 0.950 . S
C805 C803 1.390 . S
C805 C806 1.387 . S
C805 H808 0.950 . S
C806 C805 1.387 . S
C806 C809 1.387 . S
H807 C803 0.950 . S
H808 C805 0.950 . S
C809 C800 1.390 . S
C809 H802 0.950 . S
C809 C806 1.387 . S
C810 C811 1.387 . S
C810 H814 0.950 . S
C810 C819 1.390 . S
C811 C810 1.387 . S
C811 C813 1.387 . S
H812 C819 0.950 . S
C813 C811 1.387 . S
C813 C815 1.390 . S
C813 H817 0.950 . S
H814 C810 0.950 . S
C815 C813 1.390 . S
C815 C816 1.387 . S
C815 H818 0.950 . S
C816 C815 1.387 . S
C816 C819 1.387 . S
H817 C813 0.950 . S
H818 C815 0.950 . S
C819 C810 1.390 . S
C819 H812 0.950 . S
C819 C816 1.387 . S
C820 C821 1.387 . S
C820 H824 0.950 . S
C820 C829 1.390 . S
C821 C820 1.387 . S
C821 C823 1.387 . S
H822 C829 0.950 . S
C823 C821 1.387 . S
C823 C825 1.390 . S
C823 H827 0.950 . S
H824 C820 0.950 . S
C825 C823 1.390 . S
C825 C826 1.387 . S
C825 H828 0.950 . S
C826 C825 1.387 . S
C826 C829 1.387 . S
H827 C823 0.950 . S
H828 C825 0.950 . S
C829 C820 1.390 . S
C829 H822 0.950 . S
C829 C826 1.387 . S
C830 C831 1.387 . S
C830 H834 0.950 . S
C830 C839 1.390 . S
C831 C830 1.387 . S
C831 C833 1.387 . S
H832 C839 0.950 . S
C833 C831 1.387 . S
C833 C835 1.390 . S
C833 H837 0.950 . S
H834 C830 0.950 . S
C835 C833 1.390 . S
C835 C836 1.387 . S
C835 H838 0.950 . S
C836 C835 1.387 . S
C836 C839 1.387 . S
H837 C833 0.950 . S
H838 C835 0.950 . S
C839 C830 1.390 . S
C839 H832 0.950 . S
C839 C836 1.387 . S
C840 C841 1.387 . S
C840 H844 0.950 . S
C840 C849 1.390 . S
C841 C840 1.387 . S
C841 C843 1.387 . S
H842 C849 0.950 . S
C843 C841 1.387 . S
C843 C845 1.390 . S
C843 H847 0.950 . S
H844 C840 0.950 . S
C845 C843 1.390 . S
C845 C846 1.387 . S
C845 H848 0.950 . S
C846 C845 1.387 . S
C846 C849 1.387 . S
H847 C843 0.950 . S
H848 C845 0.950 . S
C849 C840 1.390 . S
C849 H842 0.950 . S
C849 C846 1.387 . S
C850 C851 1.387 . S
C850 H854 0.950 . S
C850 C859 1.390 . S
C851 C850 1.387 . S
C851 C853 1.387 . S
H852 C859 0.950 . S
C853 C851 1.387 . S
C853 C855 1.390 . S
C853 H857 0.950 . S
H854 C850 0.950 . S
C855 C853 1.390 . S
C855 C856 1.387 . S
C855 H858 0.950 . S
C856 C855 1.387 . S
C856 C859 1.387 . S
H857 C853 0.950 . S
H858 C855 0.950 . S
C859 C850 1.390 . S
C859 H852 0.950 . S
C859 C856 1.387 . S
C860 C861 1.387 . S
C860 H864 0.950 . S
C860 C869 1.390 . S
C861 C860 1.387 . S
C861 C863 1.387 . S
H862 C869 0.950 . S
C863 C861 1.387 . S
C863 C865 1.390 . S
C863 H867 0.950 . S
H864 C860 0.950 . S
C865 C863 1.390 . S
C865 C866 1.387 . S
C865 H868 0.950 . S
C866 C865 1.387 . S
C866 C869 1.387 . S
H867 C863 0.950 . S
H868 C865 0.950 . S
C869 C860 1.390 . S
C869 H862 0.950 . S
C869 C866 1.387 . S
C870 C871 1.387 . S
C870 H874 0.950 . S
C870 C879 1.390 . S
C871 C870 1.387 . S
C871 C873 1.387 . S
H872 C879 0.950 . S
C873 C871 1.387 . S
C873 C875 1.390 . S
C873 H877 0.950 . S
H874 C870 0.950 . S
C875 C873 1.390 . S
C875 C876 1.387 . S
C875 H878 0.950 . S
C876 C875 1.387 . S
C876 C879 1.387 . S
H877 C873 0.950 . S
H878 C875 0.950 . S
C879 C870 1.390 . S
C879 H872 0.950 . S
C879 C876 1.387 . S
C880 C881 1.387 . S
C880 H884 0.950 . S
C880 C889 1.390 . S
C881 C880 1.387 . S
C881 C883 1.387 . S
H882 C889 0.950 . S
C883 C881 1.387 . S
C883 C885 1.390 . S
C883 H887 0.950 . S
H884 C880 0.950 . S
C885 C883 1.390 . S
C885 C886 1.387 . S
C885 H888 0.950 . S
C886 C885 1.387 . S
C886 C889 1.387 . S
H887 C883 0.950 . S
H888 C885 0.950 . S
C889 C880 1.390 . S
C889 H882 0.950 . S
C889 C886 1.387 . S
C890 C891 1.387 . S
C890 H894 0.950 . S
C890 C899 1.390 . S
C891 C890 1.387 . S
C891 C893 1.387 . S
H892 C899 0.950 . S
C893 C891 1.387 . S
C893 C895 1.390 . S
C893 H897 0.950 . S
H894 C890 0.950 . S
C895 C893 1.390 . S
C895 C896 1.387 . S
C895 H898 0.950 . S
C896 C895 1.387 . S
C896 C899 1.387 . S
H897 C893 0.950 . S
H898 C895 0.950 . S
C899 C890 1.390 . S
C899 H892 0.950 . S
C899 C896 1.387 . S
C900 C901 1.387 . S
C900 H904 0.950 . S
C900 C909 1.390 . S
C901 C900 1.387 . S
C901 C903 1.387 . S
H902 C909 0.950 . S
C903 C901 1.387 . S
C903 C905 1.390 . S
C903 H907 0.950 . S
H904 C900 0.950 . S
C905 C903 1.390 . S
C905 C906 1.387 . S
C905 H908 0.950 . S
C906 C905 1.387 . S
C906 C909 1.387 . S
H907 C903 0.950 . S
H908 C905 0.950 . S
C909 C900 1.390 . S
C909 H902 0.950 . S
C909 C906 1.387 . S
C910 C911 1.387 . S
C910 H914 0.950 . S
C910 C919 1.390 . S
C911 C910 1.387 . S
C911 C913 1.387 . S
H912 C919 0.950 . S
C913 C911 1.387 . S
C913 C915 1.390 . S
C913 H917 0.950 . S
H914 C910 0.950 . S
C915 C913 1.390 . S
C915 C916 1.387 . S
C915 H918 0.950 . S
C916 C915 1.387 . S
C916 C919 1.387 . S
H917 C913 0.950 . S
H918 C915 0.950 . S
C919 C910 1.390 . S
C919 H912 0.950 . S
C919 C916 1.387 . S
C920 C921 1.387 . S
C920 H924 0.950 . S
C920 C929 1.390 . S
C921 C920 1.387 . S
C921 C923 1.387 . S
H922 C929 0.950 . S
C923 C921 1.387 . S
C923 C925 1.390 . S
C923 H927 0.950 . S
H924 C920 0.950 . S
C925 C923 1.390 . S
C925 C926 1.387 . S
C925 H928 0.950 . S
C926 C925 1.387 . S
C926 C929 1.387 . S
H927 C923 0.950 . S
H928 C925 0.950 . S
C929 C920 1.390 . S
C929 H922 0.950 . S
C929 C926 1.387 . S
C930 C931 1.387 . S
C930 H934 0.950 . S
C930 C939 1.390 . S
C931 C930 1.387 . S
C931 C933 1.387 . S
H932 C939 0.950 . S
C933 C931 1.387 . S
C933 C935 1.390 . S
C933 H937 0.950 . S
H934 C930 0.950 . S
C935 C933 1.390 . S
C935 C936 1.387 . S
C935 H938 0.950 . S
C936 C935 1.387 . S
C936 C939 1.387 . S
H937 C933 0.950 . S
H938 C935 0.950 . S
C939 C930 1.390 . S
C939 H932 0.950 . S
C939 C936 1.387 . S
C940 C941 1.387 . S
C940 H944 0.950 . S
C940 C949 1.390 . S
C941 C940 1.387 . S
C941 C943 1.387 . S
H942 C949 0.950 . S
C943 C941 1.387 . S
C943 C945 1.390 . S
C943 H947 0.950 . S
H944 C940 0.950 . S
C945 C943 1.390 . S
C945 C946 1.387 . S
C945 H948 0.950 . S
C946 C945 1.387 . S
C946 C949 1.387 . S
H947 C943 0.950 . S
H948 C945 0.950 . S
C949 C940 1.390 . S
C949 H942 0.950 . S
C949 C946 1.387 . S
C950 C951 1.387 . S
C950 H954 0.950 . S
C950 C959 1.390 . S
C951 C950 1.387 . S
C951 C953 1.387 . S
H952 C959 0.950 . S
C953 C951 1.387 . S
C953 C955 1.390 . S
C953 H957 0.950 . S
H954 C950 0.950 . S
C955 C953 1.390 . S
C955 C956 1.387 . S
C955 H958 0.950 . S
C956 C955 1.387 . S
C956 C959 1.387 . S
H957 C953 0.950 . S
H958 C955 0.950 . S
C959 C950 1.390 . S
C959 H952 0.950 . S
C959 C956 1.387 . S
C481 C106 1.829 . S
C486 N14 1.650 . S
C491 C16 2.379 . S
C496 C46 2.399 . S
C501 C70 1.314 . S
C506 C31 1.311 . S
C511 N104 0.886 . S
C516 C87 0.944 . S
C521 C147 0.963 . S
C526 N164 0.922 . S
C531 C151 1.322 . S
C536 C190 1.324 . S
C541 N186 0.928 . S
C546 C220 0.949 . S
C551 N126 0.550 . S
C556 N216 0.605 . S
C561 C286 2.274 . S
C566 C1 2.261 . S
C571 C327 1.753 . S
C576 N44 1.618 . S
C581 N66 0.960 . S
C586 C417 0.969 . S
C591 C250 1.356 . S
C596 C91 1.353 . S
C601 C331 1.353 . S
C606 C130 1.361 . S
C611 C421 2.262 . S
C616 C166 2.274 . S
C621 C207 1.752 . S
C626 N374 1.619 . S
C631 N456 0.960 . S
C636 C237 0.964 . S
C641 N246 0.557 . S
C646 N396 0.600 . S
C651 N284 0.920 . S
C656 C267 0.961 . S
C661 C310 1.320 . S
C666 C271 1.322 . S
C671 N434 1.651 . S
C676 C346 1.828 . S
C681 C361 1.309 . S
C686 C460 1.317 . S
C691 C357 1.829 . S
C696 N6 1.653 . S
C701 C387 2.400 . S
C706 C27 2.380 . S
C711 C370 1.310 . S
C716 C61 1.313 . S
C721 C76 0.947 . S
C726 N336 0.893 . S
C731 N276 0.921 . S
C736 C136 0.963 . S
C741 C280 1.321 . S
C746 C181 1.318 . S
C751 C391 0.952 . S
C756 N194 0.929 . S
C761 N134 0.556 . S
C766 N404 0.603 . S
C771 C177 2.273 . S
C776 C10 2.263 . S
C781 C316 1.754 . S
C786 N366 1.622 . S
C791 N74 0.964 . S
C796 C226 0.966 . S
C801 C241 1.357 . S
C806 C340 1.351 . S
C811 C100 1.353 . S
C816 C121 1.354 . S
C821 C297 2.273 . S
C826 C430 2.262 . S
C831 C196 1.753 . S
C836 N36 1.619 . S
C841 N464 0.965 . S
C846 C406 0.970 . S
C851 N254 0.556 . S
C856 N224 0.599 . S
C861 C256 0.962 . S
C866 N156 0.921 . S
C871 C301 1.321 . S
C876 C160 1.320 . S
C881 C117 1.828 . S
C886 N426 1.648 . S
C891 C40 1.309 . S
C896 C451 1.311 . S
C901 C376 2.400 . S
C906 C436 2.379 . S
C911 N344 0.892 . S
C916 C477 0.948 . S
C921 N306 0.928 . S
C926 C400 0.954 . S
C931 C447 2.378 . S
C936 C57 2.399 . S
C941 N96 0.886 . S
C946 C466 0.944 . S
C951 C211 0.952 . S
C956 N314 0.931 . S
