# Generated by pormake.
# Topology cag, (4)-cn, num edge types: 1
# Building blocks:
#     Node 0, Type 0, BuildingBlock: AZAVOO_clean_sbu_0, # of connection points: 4
#     Node 1, Type 0, BuildingBlock: AZAVOO_clean_sbu_0, # of connection points: 4
#     Node 2, Type 0, BuildingBlock: AZAVOO_clean_sbu_0, # of connection points: 4
#     Node 3, Type 0, BuildingBlock: AZAVOO_clean_sbu_0, # of connection points: 4
#     Node 4, Type 0, BuildingBlock: AZAVOO_clean_sbu_0, # of connection points: 4
#     Node 5, Type 0, BuildingBlock: AZAVOO_clean_sbu_0, # of connection points: 4
#     Node 6, Type 0, BuildingBlock: AZAVOO_clean_sbu_0, # of connection points: 4
#     Node 7, Type 0, BuildingBlock: AZAVOO_clean_sbu_0, # of connection points: 4
#     Node 8, Type 0, BuildingBlock: AZAVOO_clean_sbu_0, # of connection points: 4
#     Node 9, Type 0, BuildingBlock: AZAVOO_clean_sbu_0, # of connection points: 4
#     Node 10, Type 0, BuildingBlock: AZAVOO_clean_sbu_0, # of connection points: 4
#     Node 11, Type 0, BuildingBlock: AZAVOO_clean_sbu_0, # of connection points: 4
#     Node 12, Type 0, BuildingBlock: AZAVOO_clean_sbu_0, # of connection points: 4
#     Node 13, Type 0, BuildingBlock: AZAVOO_clean_sbu_0, # of connection points: 4
#     Node 14, Type 0, BuildingBlock: AZAVOO_clean_sbu_0, # of connection points: 4
#     Node 15, Type 0, BuildingBlock: AZAVOO_clean_sbu_0, # of connection points: 4
#     Edge 16, Type (0, 0), BuildingBlock: TEMPAE_clean_linker_10, # of connection points: 2
#     Edge 17, Type (0, 0), BuildingBlock: TEMPAE_clean_linker_10, # of connection points: 2
#     Edge 18, Type (0, 0), BuildingBlock: TEMPAE_clean_linker_10, # of connection points: 2
#     Edge 19, Type (0, 0), BuildingBlock: TEMPAE_clean_linker_10, # of connection points: 2
#     Edge 20, Type (0, 0), BuildingBlock: TEMPAE_clean_linker_10, # of connection points: 2
#     Edge 21, Type (0, 0), BuildingBlock: TEMPAE_clean_linker_10, # of connection points: 2
#     Edge 22, Type (0, 0), BuildingBlock: TEMPAE_clean_linker_10, # of connection points: 2
#     Edge 23, Type (0, 0), BuildingBlock: TEMPAE_clean_linker_10, # of connection points: 2
#     Edge 24, Type (0, 0), BuildingBlock: TEMPAE_clean_linker_10, # of connection points: 2
#     Edge 25, Type (0, 0), BuildingBlock: TEMPAE_clean_linker_10, # of connection points: 2
#     Edge 26, Type (0, 0), BuildingBlock: TEMPAE_clean_linker_10, # of connection points: 2
#     Edge 27, Type (0, 0), BuildingBlock: TEMPAE_clean_linker_10, # of connection points: 2
#     Edge 28, Type (0, 0), BuildingBlock: TEMPAE_clean_linker_10, # of connection points: 2
#     Edge 29, Type (0, 0), BuildingBlock: TEMPAE_clean_linker_10, # of connection points: 2
#     Edge 30, Type (0, 0), BuildingBlock: TEMPAE_clean_linker_10, # of connection points: 2
#     Edge 31, Type (0, 0), BuildingBlock: TEMPAE_clean_linker_10, # of connection points: 2
#     Edge 32, Type (0, 0), BuildingBlock: TEMPAE_clean_linker_10, # of connection points: 2
#     Edge 33, Type (0, 0), BuildingBlock: TEMPAE_clean_linker_10, # of connection points: 2
#     Edge 34, Type (0, 0), BuildingBlock: TEMPAE_clean_linker_10, # of connection points: 2
#     Edge 35, Type (0, 0), BuildingBlock: TEMPAE_clean_linker_10, # of connection points: 2
#     Edge 36, Type (0, 0), BuildingBlock: TEMPAE_clean_linker_10, # of connection points: 2
#     Edge 37, Type (0, 0), BuildingBlock: TEMPAE_clean_linker_10, # of connection points: 2
#     Edge 38, Type (0, 0), BuildingBlock: TEMPAE_clean_linker_10, # of connection points: 2
#     Edge 39, Type (0, 0), BuildingBlock: TEMPAE_clean_linker_10, # of connection points: 2
#     Edge 40, Type (0, 0), BuildingBlock: TEMPAE_clean_linker_10, # of connection points: 2
#     Edge 41, Type (0, 0), BuildingBlock: TEMPAE_clean_linker_10, # of connection points: 2
#     Edge 42, Type (0, 0), BuildingBlock: TEMPAE_clean_linker_10, # of connection points: 2
#     Edge 43, Type (0, 0), BuildingBlock: TEMPAE_clean_linker_10, # of connection points: 2
#     Edge 44, Type (0, 0), BuildingBlock: TEMPAE_clean_linker_10, # of connection points: 2
#     Edge 45, Type (0, 0), BuildingBlock: TEMPAE_clean_linker_10, # of connection points: 2
#     Edge 46, Type (0, 0), BuildingBlock: TEMPAE_clean_linker_10, # of connection points: 2
#     Edge 47, Type (0, 0), BuildingBlock: TEMPAE_clean_linker_10, # of connection points: 2
# Relax obj value: 0.058
# Max RMSD: 0.099
# Mean RMSD: 0.096
data_MOF--net-cag--node1-AZAVOO_clean_sbu_0--edge1-TEMPAE_clean_linker_10
_symmetry_space_group_name_H-M    P1
_symmetry_Int_Tables_number       1
_symmetry_cell_setting            triclinic
loop_
_symmetry_equiv_pos_as_xyz
'x, y, z'
_cell_length_a     45.054842
_cell_length_b     46.710719
_cell_length_c     43.39593
_cell_angle_alpha  90.025018
_cell_angle_beta   90.02065
_cell_angle_gamma 90.009346
loop_
_atom_site_label
_atom_site_type_symbol
_atom_site_fract_x
_atom_site_fract_y
_atom_site_fract_z
_atom_type_partial_charge
Mg0 Mg 0.36122 0.12195 0.12822 0.0
O1 O 0.35056 0.08689 0.09274 0.0
O2 O 0.30129 0.08623 0.08598 0.0
Mg3 Mg 0.28018 0.11866 0.11845 0.0
C4 C 0.32728 0.07715 0.0796 0.0
C5 C 0.42951 0.12747 0.13476 0.0
O6 O 0.42044 0.13512 0.16233 0.0
O7 O 0.35131 0.15692 0.09231 0.0
O8 O 0.30175 0.1534 0.08931 0.0
O9 O 0.35523 0.09059 0.1675 0.0
O10 O 0.31967 0.11724 0.14781 0.0
C11 C 0.32627 0.16495 0.08143 0.0
C12 C 0.32753 0.09801 0.16727 0.0
O13 O 0.41025 0.12032 0.11475 0.0
Mg14 Mg 0.14307 0.87394 0.63094 0.0
O15 O 0.15707 0.90878 0.59677 0.0
O16 O 0.20668 0.9093 0.59409 0.0
Mg17 Mg 0.22451 0.87555 0.62738 0.0
C18 C 0.18128 0.91865 0.58581 0.0
C19 C 0.07452 0.87226 0.63292 0.0
O20 O 0.08151 0.86687 0.66174 0.0
O21 O 0.15451 0.83901 0.59554 0.0
O22 O 0.20421 0.84193 0.5957 0.0
O23 O 0.14735 0.90567 0.67008 0.0
O24 O 0.18314 0.87717 0.65371 0.0
C25 C 0.18002 0.83088 0.58604 0.0
C26 C 0.17461 0.89707 0.67202 0.0
O27 O 0.09528 0.87684 0.61371 0.0
Mg28 Mg 0.3591 0.88545 0.86126 0.0
O29 O 0.34979 0.91828 0.89954 0.0
O30 O 0.30051 0.92002 0.90644 0.0
Mg31 Mg 0.2782 0.89076 0.87136 0.0
C32 C 0.32683 0.92779 0.91347 0.0
C33 C 0.42772 0.87955 0.85454 0.0
O34 O 0.41933 0.87667 0.8257 0.0
O35 O 0.34762 0.84844 0.89421 0.0
O36 O 0.29827 0.85332 0.89744 0.0
O37 O 0.35531 0.91976 0.82462 0.0
O38 O 0.31786 0.89426 0.8424 0.0
C39 C 0.32231 0.84044 0.90437 0.0
C40 C 0.32708 0.9146 0.82495 0.0
O41 O 0.40805 0.88371 0.87506 0.0
Mg42 Mg 0.14865 0.11547 0.37375 0.0
O43 O 0.15989 0.08124 0.41002 0.0
O44 O 0.20887 0.08316 0.41861 0.0
Mg45 Mg 0.22947 0.11612 0.38645 0.0
C46 C 0.1832 0.07283 0.42414 0.0
C47 C 0.0833 0.13391 0.38817 0.0
O48 O 0.0961 0.15909 0.38579 0.0
O49 O 0.15575 0.15132 0.40945 0.0
O50 O 0.20532 0.15044 0.41396 0.0
O51 O 0.15752 0.08418 0.33501 0.0
O52 O 0.19109 0.11251 0.35573 0.0
C53 C 0.18 0.16087 0.42083 0.0
C54 C 0.18481 0.09286 0.33613 0.0
O55 O 0.09905 0.1115 0.38491 0.0
Mg56 Mg 0.71077 0.84938 0.91313 0.0
O57 O 0.72381 0.89131 0.93677 0.0
O58 O 0.77341 0.89405 0.93544 0.0
Mg59 Mg 0.79204 0.85198 0.91625 0.0
C60 C 0.74805 0.90454 0.94215 0.0
C61 C 0.64308 0.84543 0.90798 0.0
O62 O 0.65125 0.81889 0.9134 0.0
O63 O 0.72451 0.86711 0.86623 0.0
O64 O 0.774 0.86289 0.86829 0.0
O65 O 0.71164 0.82646 0.95843 0.0
O66 O 0.75013 0.83048 0.92737 0.0
C67 C 0.7501 0.86853 0.85363 0.0
C68 C 0.73944 0.82146 0.95302 0.0
O69 O 0.66297 0.86472 0.90681 0.0
Mg70 Mg 0.79797 0.15008 0.43209 0.0
O71 O 0.78203 0.10803 0.45346 0.0
O72 O 0.73248 0.10755 0.44919 0.0
Mg73 Mg 0.71656 0.15117 0.43144 0.0
C74 C 0.75696 0.09564 0.45668 0.0
C75 C 0.86026 0.13877 0.40363 0.0
O76 O 0.84686 0.15207 0.38087 0.0
O77 O 0.78515 0.13346 0.38429 0.0
O78 O 0.73589 0.14032 0.38403 0.0
O79 O 0.79624 0.1722 0.47789 0.0
O80 O 0.75893 0.17029 0.4451 0.0
C81 C 0.76007 0.1335 0.37051 0.0
C82 C 0.76896 0.17852 0.47137 0.0
O83 O 0.84566 0.1334 0.42804 0.0
Mg84 Mg 0.7144 0.14943 0.08252 0.0
O85 O 0.72655 0.10773 0.05797 0.0
O86 O 0.77614 0.10461 0.05808 0.0
Mg87 Mg 0.79557 0.14628 0.07751 0.0
C88 C 0.75055 0.0944 0.05182 0.0
C89 C 0.64651 0.15299 0.08364 0.0
O90 O 0.65471 0.17838 0.07378 0.0
O91 O 0.729 0.13083 0.12881 0.0
O92 O 0.77848 0.13469 0.12567 0.0
O93 O 0.7145 0.17283 0.03755 0.0
O94 O 0.75364 0.16827 0.06767 0.0
C95 C 0.75486 0.12897 0.14076 0.0
C96 C 0.74245 0.17758 0.04235 0.0
O97 O 0.66648 0.13449 0.08935 0.0
Mg98 Mg 0.79473 0.83983 0.56464 0.0
O99 O 0.77937 0.88134 0.54191 0.0
O100 O 0.72971 0.88167 0.54402 0.0
Mg101 Mg 0.71354 0.83814 0.56201 0.0
C102 C 0.75442 0.89356 0.53735 0.0
C103 C 0.86232 0.83897 0.56871 0.0
O104 O 0.85524 0.81246 0.5617 0.0
O105 O 0.78007 0.85703 0.61139 0.0
O106 O 0.73083 0.85017 0.61009 0.0
O107 O 0.7952 0.81726 0.51915 0.0
O108 O 0.75653 0.81903 0.55026 0.0
C109 C 0.75457 0.85737 0.62424 0.0
C110 C 0.76775 0.81069 0.52455 0.0
O111 O 0.84163 0.85734 0.57119 0.0
Mg112 Mg 0.85605 0.61871 0.12223 0.0
O113 O 0.84247 0.58475 0.0867 0.0
O114 O 0.79284 0.58409 0.08397 0.0
Mg115 Mg 0.77464 0.61642 0.11865 0.0
C116 C 0.81829 0.57512 0.07537 0.0
C117 C 0.92409 0.62422 0.12437 0.0
O118 O 0.91622 0.63045 0.15275 0.0
O119 O 0.84407 0.65477 0.08849 0.0
O120 O 0.7944 0.6516 0.0886 0.0
O121 O 0.85235 0.58567 0.16011 0.0
O122 O 0.81609 0.61418 0.14486 0.0
C123 C 0.8185 0.66319 0.07946 0.0
C124 C 0.82497 0.59386 0.16242 0.0
O125 O 0.904 0.61747 0.10511 0.0
Mg126 Mg 0.64589 0.38293 0.634 0.0
O127 O 0.65535 0.41567 0.5957 0.0
O128 O 0.70441 0.42345 0.59421 0.0
Mg129 Mg 0.72663 0.3937 0.6289 0.0
C130 C 0.67809 0.42838 0.58465 0.0
C131 C 0.57719 0.37635 0.63689 0.0
O132 O 0.58389 0.3771 0.66636 0.0
O133 O 0.66158 0.34669 0.6023 0.0
O134 O 0.71046 0.35528 0.60091 0.0
O135 O 0.64546 0.41778 0.67037 0.0
O136 O 0.68533 0.3942 0.65536 0.0
C137 C 0.68776 0.34063 0.59304 0.0
C138 C 0.67392 0.41421 0.67181 0.0
O139 O 0.59801 0.37835 0.61724 0.0
Mg140 Mg 0.85572 0.37737 0.86664 0.0
O141 O 0.84199 0.41191 0.90143 0.0
O142 O 0.79239 0.41196 0.90469 0.0
Mg143 Mg 0.77432 0.37857 0.8711 0.0
C144 C 0.81779 0.42146 0.91277 0.0
C145 C 0.92362 0.37067 0.86476 0.0
O146 O 0.91536 0.36135 0.8375 0.0
O147 O 0.84469 0.34196 0.90154 0.0
O148 O 0.79498 0.34447 0.90194 0.0
O149 O 0.85107 0.40947 0.82795 0.0
O150 O 0.81542 0.38079 0.84433 0.0
C151 C 0.81935 0.33345 0.91113 0.0
C152 C 0.8238 0.40085 0.82616 0.0
O153 O 0.90383 0.37978 0.88321 0.0
Mg154 Mg 0.64891 0.60858 0.35497 0.0
O155 O 0.65722 0.57507 0.39279 0.0
O156 O 0.70609 0.5663 0.39464 0.0
Mg157 Mg 0.7293 0.59606 0.36068 0.0
C158 C 0.67959 0.56175 0.40384 0.0
C159 C 0.58133 0.62142 0.35183 0.0
O160 O 0.58914 0.62524 0.32295 0.0
O161 O 0.66516 0.6439 0.38744 0.0
O162 O 0.71386 0.63448 0.38921 0.0
O163 O 0.64789 0.57437 0.31797 0.0
O164 O 0.68822 0.59675 0.33382 0.0
C165 C 0.69135 0.64941 0.39708 0.0
C166 C 0.67644 0.57731 0.31685 0.0
O167 O 0.60105 0.61416 0.37126 0.0
Mg168 Mg 0.20726 0.34555 0.91964 0.0
O169 O 0.21924 0.38854 0.94189 0.0
O170 O 0.2686 0.39346 0.93929 0.0
Mg171 Mg 0.28836 0.35292 0.91843 0.0
C172 C 0.24295 0.40287 0.94654 0.0
C173 C 0.13853 0.34114 0.92207 0.0
O174 O 0.14642 0.31564 0.93188 0.0
O175 O 0.21766 0.36341 0.87217 0.0
O176 O 0.26733 0.36604 0.87234 0.0
O177 O 0.2117 0.32337 0.96494 0.0
O178 O 0.24836 0.32883 0.93172 0.0
C179 C 0.24226 0.36923 0.859 0.0
C180 C 0.23943 0.31966 0.95808 0.0
O181 O 0.15868 0.35922 0.9156 0.0
Mg182 Mg 0.30011 0.65763 0.41435 0.0
O183 O 0.28875 0.61426 0.43612 0.0
O184 O 0.23937 0.60921 0.43455 0.0
Mg185 Mg 0.21908 0.65002 0.41482 0.0
C186 C 0.2652 0.5998 0.4411 0.0
C187 C 0.36874 0.66288 0.41096 0.0
O188 O 0.3611 0.68941 0.4172 0.0
O189 O 0.2887 0.64078 0.36669 0.0
O190 O 0.23905 0.63813 0.36784 0.0
O191 O 0.29669 0.67891 0.46024 0.0
O192 O 0.25929 0.67403 0.42776 0.0
C193 C 0.26383 0.63534 0.35385 0.0
C194 C 0.26879 0.68263 0.45414 0.0
O195 O 0.34852 0.64399 0.40885 0.0
Mg196 Mg 0.20624 0.65751 0.06509 0.0
O197 O 0.21852 0.61409 0.04414 0.0
O198 O 0.26793 0.60961 0.04645 0.0
Mg199 Mg 0.2874 0.65094 0.06586 0.0
C200 C 0.24229 0.59982 0.03973 0.0
C201 C 0.13749 0.66173 0.06648 0.0
O202 O 0.14489 0.68814 0.05945 0.0
O203 O 0.2172 0.64121 0.1131 0.0
O204 O 0.2669 0.63905 0.11256 0.0
O205 O 0.21011 0.67844 0.01902 0.0
O206 O 0.24704 0.67433 0.05215 0.0
C207 C 0.24199 0.63606 0.12625 0.0
C208 C 0.23784 0.68266 0.02558 0.0
O209 O 0.15793 0.64324 0.06988 0.0
Mg210 Mg 0.29552 0.34887 0.57134 0.0
O211 O 0.28525 0.39188 0.54824 0.0
O212 O 0.23614 0.39859 0.5509 0.0
Mg213 Mg 0.21478 0.35891 0.57211 0.0
C214 C 0.26211 0.40699 0.54343 0.0
C215 C 0.3634 0.34088 0.57781 0.0
O216 O 0.35401 0.31427 0.57645 0.0
O217 O 0.28553 0.36748 0.61854 0.0
O218 O 0.23594 0.37121 0.61844 0.0
O219 O 0.2905 0.32598 0.52648 0.0
O220 O 0.25393 0.33324 0.55939 0.0
C221 C 0.26108 0.37376 0.63179 0.0
C222 C 0.26266 0.32313 0.53337 0.0
O223 O 0.3445 0.361 0.5756 0.0
C224 C 0.33692 0.21562 0.06692 0.0
C225 C 0.32438 0.18902 0.05971 0.0
C226 C 0.32855 0.24033 0.05052 0.0
C227 C 0.3075 0.23801 0.02636 0.0
C228 C 0.29687 0.2107 0.01746 0.0
C229 C 0.30525 0.1866 0.03444 0.0
C230 C 0.34042 0.26904 0.06062 0.0
C231 C 0.27488 0.20712 0.99144 0.0
C232 C 0.24978 0.29389 0.00735 0.0
C233 C 0.25964 0.30348 0.97854 0.0
C234 C 0.26656 0.27427 0.02452 0.0
C235 C 0.29374 0.26388 0.01245 0.0
C236 C 0.30492 0.27524 0.98458 0.0
C237 C 0.28773 0.29496 0.96794 0.0
C238 C 0.25405 0.26299 0.05442 0.0
C239 C 0.33384 0.26487 0.97104 0.0
H240 H 0.35148 0.21746 0.08672 0.0
H241 H 0.29566 0.16591 0.02892 0.0
H242 H 0.34608 0.28253 0.04043 0.0
H243 H 0.32308 0.28047 0.07395 0.0
H244 H 0.3604 0.26679 0.07543 0.0
H245 H 0.27122 0.18426 0.98545 0.0
H246 H 0.25326 0.21662 -0.00182 0.0
H247 H 0.28268 0.21855 0.97055 0.0
H248 H 0.22827 0.30063 0.01585 0.0
H249 H 0.29562 0.30237 0.94575 0.0
H250 H 0.27136 0.26289 0.07261 0.0
H251 H 0.24655 0.24056 0.05113 0.0
H252 H 0.23488 0.27587 0.06261 0.0
H253 H 0.35113 0.26297 0.98912 0.0
H254 H 0.34206 0.27938 0.95264 0.0
H255 H 0.33054 0.24329 0.96091 0.0
C256 C 0.2593 0.70675 0.50457 0.0
C257 C 0.24892 0.69802 0.47563 0.0
C258 C 0.24258 0.72545 0.52297 0.0
C259 C 0.21496 0.73579 0.51202 0.0
C260 C 0.20338 0.72535 0.48388 0.0
C261 C 0.2205 0.70653 0.46602 0.0
C262 C 0.25553 0.73577 0.55309 0.0
C263 C 0.17401 0.73576 0.47146 0.0
C264 C 0.17121 0.78047 0.56947 0.0
C265 C 0.18276 0.8077 0.56337 0.0
C266 C 0.18021 0.75671 0.55185 0.0
C267 C 0.20085 0.76065 0.52757 0.0
C268 C 0.21058 0.78859 0.51994 0.0
C269 C 0.20164 0.81172 0.53817 0.0
C270 C 0.16941 0.72727 0.56069 0.0
C271 C 0.23209 0.79388 0.49385 0.0
H272 H 0.28109 0.70002 0.5123 0.0
H273 H 0.21223 0.69979 0.44371 0.0
H274 H 0.26246 0.75847 0.55072 0.0
H275 H 0.23865 0.73477 0.57166 0.0
H276 H 0.27517 0.72299 0.56021 0.0
H277 H 0.1658 0.72207 0.45232 0.0
H278 H 0.15698 0.73632 0.48991 0.0
H279 H 0.17662 0.75792 0.46266 0.0
H280 H 0.15688 0.77742 0.58927 0.0
H281 H 0.21051 0.83289 0.5336 0.0
H282 H 0.18747 0.71565 0.57275 0.0
H283 H 0.16346 0.71463 0.53994 0.0
H284 H 0.14986 0.72827 0.57624 0.0
H285 H 0.25406 0.78467 0.49979 0.0
H286 H 0.23503 0.81707 0.48901 0.0
H287 H 0.2243 0.78318 0.4725 0.0
C288 C 0.33281 0.78913 0.91682 0.0
C289 C 0.31962 0.81531 0.92459 0.0
C290 C 0.32468 0.76384 0.93233 0.0
C291 C 0.30324 0.76513 0.9562 0.0
C292 C 0.29166 0.79196 0.96547 0.0
C293 C 0.29982 0.81664 0.94938 0.0
C294 C 0.33749 0.73566 0.9218 0.0
C295 C 0.26921 0.79446 0.99121 0.0
C296 C 0.24749 0.70762 0.97564 0.0
C297 C 0.25767 0.6987 0.00459 0.0
C298 C 0.26372 0.72741 0.95812 0.0
C299 C 0.29059 0.73868 0.97 0.0
C300 C 0.30221 0.72787 -0.00206 0.0
C301 C 0.28562 0.70794 0.01491 0.0
C302 C 0.25081 0.73804 0.92812 0.0
C303 C 0.33083 0.73919 0.01132 0.0
H304 H 0.34791 0.78813 0.89741 0.0
H305 H 0.28977 0.83699 0.95541 0.0
H306 H 0.34357 0.72208 0.9418 0.0
H307 H 0.32053 0.72386 0.90828 0.0
H308 H 0.3574 0.73869 0.90706 0.0
H309 H 0.26436 0.8171 -0.00276 0.0
H310 H 0.24815 0.784 0.98419 0.0
H311 H 0.27735 0.78334 0.01215 0.0
H312 H 0.2261 0.70029 0.96734 0.0
H313 H 0.29378 0.70102 0.03718 0.0
H314 H 0.26816 0.73895 0.91002 0.0
H315 H 0.24215 0.76008 0.93135 0.0
H316 H 0.23235 0.72425 0.91987 0.0
H317 H 0.34801 0.74149 0.99317 0.0
H318 H 0.33957 0.72507 0.02981 0.0
H319 H 0.32687 0.76074 0.02129 0.0
C320 C 0.21407 0.29852 0.52477 0.0
C321 C 0.24226 0.30625 0.51375 0.0
C322 C 0.19696 0.27772 0.5096 0.0
C323 C 0.20833 0.26446 0.4828 0.0
C324 C 0.23549 0.27414 0.47002 0.0
C325 C 0.25218 0.29488 0.48572 0.0
C326 C 0.16799 0.26826 0.52377 0.0
C327 C 0.24817 0.26088 0.44115 0.0
C328 C 0.1986 0.18567 0.4671 0.0
C329 C 0.18005 0.18597 0.44126 0.0
C330 C 0.206 0.21105 0.48239 0.0
C331 C 0.19497 0.23744 0.47114 0.0
C332 C 0.17426 0.23762 0.44655 0.0
C333 C 0.16687 0.21169 0.43189 0.0
C334 C 0.22764 0.20975 0.50896 0.0
C335 C 0.16187 0.26526 0.43403 0.0
H336 H 0.20609 0.30735 0.54633 0.0
H337 H 0.27376 0.30101 0.47686 0.0
H338 H 0.15092 0.26459 0.50578 0.0
H339 H 0.17142 0.2477 0.53608 0.0
H340 H 0.15943 0.28422 0.54055 0.0
H341 H 0.26726 0.2733 0.43198 0.0
H342 H 0.25586 0.23882 0.44628 0.0
H343 H 0.23093 0.25935 0.42298 0.0
H344 H 0.20871 0.16567 0.47428 0.0
H345 H 0.15276 0.21188 0.41165 0.0
H346 H 0.2194 0.22261 0.52867 0.0
H347 H 0.24924 0.21898 0.50173 0.0
H348 H 0.23151 0.18746 0.51696 0.0
H349 H 0.15621 0.28027 0.45295 0.0
H350 H 0.14179 0.26155 0.41971 0.0
H351 H 0.17891 0.27577 0.41944 0.0
C352 C 0.82969 0.71368 0.06463 0.0
C353 C 0.81567 0.68758 0.0583 0.0
C354 C 0.82186 0.73856 0.04826 0.0
C355 C 0.79997 0.73689 0.02486 0.0
C356 C 0.7874 0.71005 0.01708 0.0
C357 C 0.79517 0.68581 0.03416 0.0
C358 C 0.83553 0.76681 0.05735 0.0
C359 C 0.76452 0.70715 0.9918 0.0
C360 C 0.74687 0.79616 0.00318 0.0
C361 C 0.75781 0.80417 0.97424 0.0
C362 C 0.7619 0.7759 0.02124 0.0
C363 C 0.78821 0.7631 0.00982 0.0
C364 C 0.80044 0.77262 0.98162 0.0
C365 C 0.78515 0.79317 0.96422 0.0
C366 C 0.74846 0.76671 0.05153 0.0
C367 C 0.82834 0.75944 0.96858 0.0
H368 H 0.84529 0.71502 0.08361 0.0
H369 H 0.78443 0.66551 0.02932 0.0
H370 H 0.84242 0.77908 0.03667 0.0
H371 H 0.81878 0.77988 0.06974 0.0
H372 H 0.85509 0.76395 0.07264 0.0
H373 H 0.759 0.68443 0.98684 0.0
H374 H 0.74385 0.71838 -0.00136 0.0
H375 H 0.77265 0.71728 0.97028 0.0
H376 H 0.72593 0.80483 0.0112 0.0
H377 H 0.79382 0.7993 0.94189 0.0
H378 H 0.76573 0.7657 0.06973 0.0
H379 H 0.7389 0.74493 0.04906 0.0
H380 H 0.73057 0.78145 0.05919 0.0
H381 H 0.84561 0.7573 0.98664 0.0
H382 H 0.8375 0.77223 0.94921 0.0
H383 H 0.82327 0.73762 0.95993 0.0
C384 C 0.72444 0.20903 0.48089 0.0
C385 C 0.75066 0.19651 0.492 0.0
C386 C 0.70958 0.23019 0.49785 0.0
C387 C 0.72104 0.23876 0.52677 0.0
C388 C 0.7461 0.22452 0.5392 0.0
C389 C 0.76077 0.20369 0.52154 0.0
C390 C 0.68307 0.24494 0.48368 0.0
C391 C 0.75864 0.23266 0.57026 0.0
C392 C 0.71535 0.3163 0.55118 0.0
C393 C 0.69293 0.31531 0.57348 0.0
C394 C 0.72376 0.2917 0.53499 0.0
C395 C 0.70983 0.26527 0.54175 0.0
C396 C 0.68643 0.26428 0.56354 0.0
C397 C 0.67801 0.28949 0.57899 0.0
C398 C 0.7483 0.29387 0.51137 0.0
C399 C 0.67136 0.23643 0.57162 0.0
H400 H 0.71643 0.20357 0.45808 0.0
H401 H 0.78084 0.19389 0.5304 0.0
H402 H 0.66499 0.24741 0.50081 0.0
H403 H 0.68961 0.26672 0.47606 0.0
H404 H 0.67432 0.23307 0.46342 0.0
H405 H 0.7753 0.21691 0.57855 0.0
H406 H 0.76952 0.25392 0.56861 0.0
H407 H 0.74065 0.23441 0.5876 0.0
H408 H 0.72674 0.33634 0.54678 0.0
H409 H 0.66086 0.2887 0.59649 0.0
H410 H 0.74097 0.2845 0.48913 0.0
H411 H 0.76789 0.28149 0.51928 0.0
H412 H 0.75531 0.31636 0.50729 0.0
H413 H 0.66434 0.22496 0.55045 0.0
H414 H 0.65164 0.23972 0.58657 0.0
H415 H 0.68728 0.22236 0.58392 0.0
C416 C 0.83099 0.28341 0.92726 0.0
C417 C 0.81711 0.30966 0.93314 0.0
C418 C 0.8235 0.25895 0.94451 0.0
C419 C 0.8021 0.26121 0.96832 0.0
C420 C 0.78977 0.28825 0.97565 0.0
C421 C 0.79717 0.31205 0.95771 0.0
C422 C 0.83693 0.23047 0.9359 0.0
C423 C 0.76741 0.29178 0.00132 0.0
C424 C 0.74909 0.20247 0.99188 0.0
C425 C 0.76047 0.19476 0.02074 0.0
C426 C 0.76388 0.22247 0.9733 0.0
C427 C 0.79041 0.23534 0.9841 0.0
C428 C 0.80302 0.22618 0.01227 0.0
C429 C 0.78796 0.20586 0.0302 0.0
C430 C 0.75 0.23129 0.94308 0.0
C431 C 0.83115 0.23946 0.02466 0.0
H432 H 0.84615 0.28159 0.90796 0.0
H433 H 0.78654 0.33247 0.96219 0.0
H434 H 0.84412 0.21862 0.95675 0.0
H435 H 0.81993 0.21719 0.92412 0.0
H436 H 0.85623 0.23295 0.9202 0.0
H437 H 0.76218 0.31463 0.00591 0.0
H438 H 0.74651 0.2806 0.99511 0.0
H439 H 0.77585 0.28196 0.02288 0.0
H440 H 0.72803 0.19371 0.9843 0.0
H441 H 0.79695 0.19996 0.05247 0.0
H442 H 0.76697 0.23185 0.92457 0.0
H443 H 0.7407 0.25319 0.94529 0.0
H444 H 0.73185 0.21659 0.93601 0.0
H445 H 0.84818 0.24123 0.00631 0.0
H446 H 0.84053 0.22695 0.04414 0.0
H447 H 0.82631 0.26145 0.03295 0.0
C448 C 0.76127 0.78629 0.47368 0.0
C449 C 0.75057 0.79232 0.50329 0.0
C450 C 0.74761 0.76542 0.45521 0.0
C451 C 0.72307 0.74988 0.46693 0.0
C452 C 0.71114 0.75708 0.49606 0.0
C453 C 0.7249 0.7784 0.5138 0.0
C454 C 0.76058 0.75879 0.42394 0.0
C455 C 0.68527 0.7408 0.50956 0.0
C456 C 0.68115 0.70006 0.41274 0.0
C457 C 0.69667 0.67438 0.41715 0.0
C458 C 0.68915 0.72492 0.42907 0.0
C459 C 0.7127 0.7237 0.45068 0.0
C460 C 0.72738 0.6974 0.4562 0.0
C461 C 0.71941 0.67318 0.43911 0.0
C462 C 0.67334 0.75268 0.42225 0.0
C463 C 0.75212 0.69498 0.47958 0.0
H464 H 0.78094 0.79718 0.46534 0.0
H465 H 0.7165 0.78294 0.53669 0.0
H466 H 0.77218 0.73785 0.42478 0.0
H467 H 0.74274 0.75708 0.40641 0.0
H468 H 0.77672 0.77536 0.41641 0.0
H469 H 0.67624 0.75138 0.53049 0.0
H470 H 0.66718 0.73855 0.4924 0.0
H471 H 0.69261 0.7189 0.51591 0.0
H472 H 0.66375 0.70105 0.39552 0.0
H473 H 0.73126 0.65325 0.44268 0.0
H474 H 0.68903 0.76785 0.41123 0.0
H475 H 0.6655 0.76279 0.44389 0.0
H476 H 0.65405 0.74959 0.40664 0.0
H477 H 0.77128 0.70822 0.4722 0.0
H478 H 0.75983 0.67256 0.48258 0.0
H479 H 0.74463 0.70324 0.50226 0.0
C480 C 0.35139 0.03338 0.0579 0.0
C481 C 0.33039 0.05535 0.05528 0.0
C482 C 0.35332 0.01184 0.03537 0.0
C483 C 0.33447 0.013 0.00926 0.0
C484 C 0.31404 0.03583 0.00604 0.0
C485 C 0.31192 0.05646 0.02935 0.0
C486 C 0.37476 0.98738 0.04 0.0
C487 C 0.29414 0.03827 0.97814 0.0
C488 C 0.35202 0.97003 0.93718 0.0
C489 C 0.33059 0.94837 0.9389 0.0
C490 C 0.35403 0.99102 0.96028 0.0
C491 C 0.33475 0.98964 0.98602 0.0
C492 C 0.31408 0.96693 0.9885 0.0
C493 C 0.31192 0.94684 0.96463 0.0
C494 C 0.37577 0.01535 0.95644 0.0
C495 C 0.29372 0.96425 0.01599 0.0
H496 H 0.36559 0.03252 0.07805 0.0
H497 H 0.29595 0.07371 0.02716 0.0
H498 H 0.36225 0.967 0.04204 0.0
H499 H 0.38963 0.98531 0.01977 0.0
H500 H 0.38858 0.99017 0.06099 0.0
H501 H 0.28133 0.05859 0.97795 0.0
H502 H 0.30753 0.03705 0.95672 0.0
H503 H 0.27823 0.02015 0.97771 0.0
H504 H 0.36636 0.97123 0.91716 0.0
H505 H 0.29559 0.92983 0.96611 0.0
H506 H 0.3899 0.01745 0.97724 0.0
H507 H 0.36344 0.03577 0.95378 0.0
H508 H 0.39034 0.01241 0.93602 0.0
H509 H 0.30667 0.96562 0.0377 0.0
H510 H 0.28115 0.94378 0.01589 0.0
H511 H 0.27758 0.98218 0.01606 0.0
C512 C 0.1581 0.96254 0.56351 0.0
C513 C 0.17989 0.94118 0.56209 0.0
C514 C 0.15706 0.98443 0.54137 0.0
C515 C 0.17769 0.98429 0.51675 0.0
C516 C 0.19919 0.96226 0.51479 0.0
C517 C 0.20034 0.94123 0.5378 0.0
C518 C 0.13443 0.00805 0.54474 0.0
C519 C 0.22103 0.96092 0.48843 0.0
C520 C 0.16094 0.02774 0.44476 0.0
C521 C 0.18055 0.05078 0.44826 0.0
C522 C 0.15964 0.00589 0.46695 0.0
C523 C 0.17767 0.00776 0.49364 0.0
C524 C 0.19668 0.03159 0.49774 0.0
C525 C 0.19825 0.05257 0.47474 0.0
C526 C 0.13973 0.98041 0.46139 0.0
C527 C 0.21558 0.03479 0.5263 0.0
H528 H 0.14237 0.96254 0.58242 0.0
H529 H 0.21696 0.92448 0.53651 0.0
H530 H 0.14592 0.02896 0.54706 0.0
H531 H 0.12033 0.00927 0.52384 0.0
H532 H 0.11986 0.00492 0.56512 0.0
H533 H 0.23492 0.94129 0.48916 0.0
H534 H 0.20903 0.96151 0.4661 0.0
H535 H 0.23588 0.97985 0.48913 0.0
H536 H 0.14737 0.02633 0.42417 0.0
H537 H 0.21316 0.0706 0.47759 0.0
H538 H 0.12404 0.97773 0.48086 0.0
H539 H 0.15333 0.96063 0.46013 0.0
H540 H 0.12678 0.98244 0.43971 0.0
H541 H 0.20159 0.03288 0.54724 0.0
H542 H 0.22738 0.05567 0.52701 0.0
H543 H 0.2323 0.0174 0.5272 0.0
C544 C 0.72662 0.93754 0.9814 0.0
C545 C 0.74683 0.93268 0.95745 0.0
C546 C 0.72634 0.96369 -0.00266 0.0
C547 C 0.74604 0.98578 0.9883 0.0
C548 C 0.76585 0.98122 0.96343 0.0
C549 C 0.76639 0.9545 0.94868 0.0
C550 C 0.70557 0.96742 0.02435 0.0
C551 C 0.7865 0.00456 0.95246 0.0
C552 C 0.72786 0.06186 0.01284 0.0
C553 C 0.74872 0.06639 0.03629 0.0
C554 C 0.72686 0.03577 -0.00319 0.0
C555 C 0.74648 0.01342 0.00527 0.0
C556 C 0.76698 0.01767 0.0296 0.0
C557 C 0.76823 0.04434 0.04444 0.0
C558 C 0.70536 0.03237 0.97037 0.0
C559 C 0.78758 0.99406 0.03997 0.0
H560 H 0.71168 0.92052 0.98833 0.0
H561 H 0.78186 0.95076 0.92996 0.0
H562 H 0.71856 0.97215 0.04548 0.0
H563 H 0.69059 0.98587 0.02034 0.0
H564 H 0.69182 0.94806 0.02855 0.0
H565 H 0.79907 0.99819 0.93153 0.0
H566 H 0.77368 0.02426 0.94725 0.0
H567 H 0.8026 0.01 0.97089 0.0
H568 H 0.71295 0.07907 0.00639 0.0
H569 H 0.78419 0.04782 0.06278 0.0
H570 H 0.69016 0.01416 0.97479 0.0
H571 H 0.71772 0.02742 0.9489 0.0
H572 H 0.69184 0.05194 0.96651 0.0
H573 H 0.77462 0.97454 0.04557 0.0
H574 H 0.80083 0.00025 0.06051 0.0
H575 H 0.80306 0.98839 0.02107 0.0
C576 C 0.73639 0.04616 0.45631 0.0
C577 C 0.75629 0.06614 0.4687 0.0
C578 C 0.73611 0.01773 0.46671 0.0
C579 C 0.75546 0.00943 0.49082 0.0
C580 C 0.77522 0.02972 0.5038 0.0
C581 C 0.77577 0.05775 0.49217 0.0
C582 C 0.71543 0.99649 0.4516 0.0
C583 C 0.79552 0.02191 0.53018 0.0
C584 C 0.73403 0.9431 0.53622 0.0
C585 C 0.75422 0.92289 0.52487 0.0
C586 C 0.73451 0.97149 0.52569 0.0
C587 C 0.75498 0.97952 0.50249 0.0
C588 C 0.77498 0.95896 0.49046 0.0
C589 C 0.77472 0.93098 0.50223 0.0
C590 C 0.71349 0.99301 0.53978 0.0
C591 C 0.79647 0.96646 0.46502 0.0
H592 H 0.72156 0.05261 0.43789 0.0
H593 H 0.79103 0.0733 0.50184 0.0
H594 H 0.72832 0.97808 0.44252 0.0
H595 H 0.69957 0.98791 0.46882 0.0
H596 H 0.70261 0.00615 0.43237 0.0
H597 H 0.80867 0.0405 0.53849 0.0
H598 H 0.7823 0.01335 0.54969 0.0
H599 H 0.81109 0.0048 0.52293 0.0
H600 H 0.71842 0.93688 0.55401 0.0
H601 H 0.79023 0.91525 0.49336 0.0
H602 H 0.6986 0.00186 0.52181 0.0
H603 H 0.72625 0.01121 0.54955 0.0
H604 H 0.69964 0.98352 0.55832 0.0
H605 H 0.78422 0.97529 0.44496 0.0
H606 H 0.80959 0.94766 0.45725 0.0
H607 H 0.81205 0.98328 0.47301 0.0
C608 C 0.83968 0.46633 0.93419 0.0
C609 C 0.81916 0.44391 0.93658 0.0
C610 C 0.84049 0.48825 0.95633 0.0
C611 C 0.82106 0.48705 0.98195 0.0
C612 C 0.80088 0.46396 0.98484 0.0
C613 C 0.79981 0.44293 0.9618 0.0
C614 C 0.86164 0.513 0.95195 0.0
C615 C 0.78046 0.46143 0.01231 0.0
C616 C 0.84033 0.5307 0.05314 0.0
C617 C 0.81969 0.55304 0.05117 0.0
C618 C 0.84098 0.50894 0.03081 0.0
C619 C 0.82125 0.51024 0.00542 0.0
C620 C 0.80101 0.53331 0.0029 0.0
C621 C 0.8001 0.55416 0.02614 0.0
C622 C 0.86221 0.4842 0.0348 0.0
C623 C 0.78028 0.53594 0.97569 0.0
H624 H 0.85451 0.46712 0.91454 0.0
H625 H 0.78417 0.42538 0.96377 0.0
H626 H 0.84899 0.53337 0.95088 0.0
H627 H 0.87695 0.51457 0.97189 0.0
H628 H 0.87502 0.51088 0.93058 0.0
H629 H 0.76745 0.44122 0.01202 0.0
H630 H 0.79354 0.4623 0.03397 0.0
H631 H 0.76475 0.4797 0.0127 0.0
H632 H 0.85533 0.52979 0.07266 0.0
H633 H 0.78436 0.57166 0.0245 0.0
H634 H 0.87715 0.48261 0.01458 0.0
H635 H 0.84958 0.46384 0.03615 0.0
H636 H 0.87599 0.48635 0.05591 0.0
H637 H 0.79307 0.53499 0.95387 0.0
H638 H 0.76739 0.55622 0.97614 0.0
H639 H 0.76445 0.51776 0.97551 0.0
C640 C 0.69295 0.47272 0.55689 0.0
C641 C 0.67415 0.44895 0.55922 0.0
C642 C 0.69088 0.49153 0.53184 0.0
C643 C 0.67013 0.48588 0.50808 0.0
C644 C 0.65073 0.46214 0.51057 0.0
C645 C 0.65269 0.44414 0.53641 0.0
C646 C 0.7114 0.51708 0.53045 0.0
C647 C 0.62887 0.45501 0.48534 0.0
C648 C 0.65388 0.54628 0.45196 0.0
C649 C 0.67501 0.541 0.42897 0.0
C650 C 0.65155 0.52818 0.47768 0.0
C651 C 0.67021 0.50387 0.47985 0.0
C652 C 0.69052 0.49772 0.45585 0.0
C653 C 0.69301 0.51664 0.43093 0.0
C654 C 0.63019 0.53583 0.50318 0.0
C655 C 0.71021 0.47157 0.45688 0.0
H656 H 0.70936 0.47658 0.5747 0.0
H657 H 0.6383 0.42561 0.53812 0.0
H658 H 0.72729 0.51443 0.51114 0.0
H659 H 0.69852 0.53689 0.52598 0.0
H660 H 0.72424 0.51992 0.5521 0.0
H661 H 0.61423 0.43678 0.49159 0.0
H662 H 0.61482 0.47386 0.48 0.0
H663 H 0.64111 0.44942 0.46397 0.0
H664 H 0.64012 0.56527 0.45053 0.0
H665 H 0.70916 0.51244 0.41296 0.0
H666 H 0.64283 0.54113 0.52439 0.0
H667 H 0.61571 0.51734 0.5087 0.0
H668 H 0.61597 0.55442 0.4971 0.0
H669 H 0.7265 0.47373 0.47592 0.0
H670 H 0.72259 0.46837 0.43501 0.0
H671 H 0.69677 0.45214 0.46156 0.0
C672 C 0.21924 0.56438 0.00395 0.0
C673 C 0.24015 0.57072 0.02685 0.0
C674 C 0.21803 0.53703 0.99059 0.0
C675 C 0.23755 0.5154 0.0012 0.0
C676 C 0.25795 0.52149 0.02514 0.0
C677 C 0.25935 0.54925 0.03731 0.0
C678 C 0.1966 0.53154 0.9645 0.0
C679 C 0.27851 0.49877 0.03769 0.0
C680 C 0.21998 0.43761 0.98319 0.0
C681 C 0.24073 0.43173 0.96001 0.0
C682 C 0.21861 0.46482 -0.00311 0.0
C683 C 0.23777 0.48677 0.98632 0.0
C684 C 0.25807 0.48111 0.96218 0.0
C685 C 0.25964 0.45349 0.94967 0.0
C686 C 0.19731 0.46985 0.02319 0.0
C687 C 0.27824 0.50417 0.94967 0.0
H688 H 0.20449 0.58109 0.9958 0.0
H689 H 0.27527 0.55411 0.05532 0.0
H690 H 0.20911 0.52576 0.94337 0.0
H691 H 0.18196 0.51319 0.97011 0.0
H692 H 0.18252 0.55048 0.9594 0.0
H693 H 0.2913 0.50639 0.058 0.0
H694 H 0.26562 0.47953 0.04447 0.0
H695 H 0.29443 0.49207 0.01958 0.0
H696 H 0.20547 0.42067 0.99124 0.0
H697 H 0.27543 0.449 0.93145 0.0
H698 H 0.18223 0.4879 0.0177 0.0
H699 H 0.20989 0.4759 0.0442 0.0
H700 H 0.1837 0.45062 0.0284 0.0
H701 H 0.26502 0.5232 0.94291 0.0
H702 H 0.29116 0.49679 0.92937 0.0
H703 H 0.29404 0.51112 0.9678 0.0
C704 C 0.28875 0.56571 0.47803 0.0
C705 C 0.26772 0.57112 0.45497 0.0
C706 C 0.28989 0.53898 0.49278 0.0
C707 C 0.27017 0.517 0.48346 0.0
C708 C 0.24975 0.52207 0.45926 0.0
C709 C 0.24843 0.54925 0.44567 0.0
C710 C 0.31138 0.53461 0.51907 0.0
C711 C 0.22895 0.49893 0.44805 0.0
C712 C 0.28631 0.43985 0.50564 0.0
C713 C 0.26534 0.43536 0.52898 0.0
C714 C 0.28834 0.46643 0.49066 0.0
C715 C 0.26961 0.48917 0.50003 0.0
C716 C 0.2492 0.48498 0.52441 0.0
C717 C 0.24697 0.45796 0.53824 0.0
C718 C 0.30977 0.46987 0.46418 0.0
C719 C 0.22945 0.50893 0.53566 0.0
H720 H 0.30354 0.58273 0.48532 0.0
H721 H 0.2324 0.55338 0.42757 0.0
H722 H 0.29886 0.53039 0.54061 0.0
H723 H 0.32556 0.51565 0.51467 0.0
H724 H 0.3259 0.55353 0.52277 0.0
H725 H 0.21631 0.50558 0.42727 0.0
H726 H 0.24161 0.47921 0.44253 0.0
H727 H 0.2129 0.49342 0.46649 0.0
H728 H 0.30041 0.42229 0.4984 0.0
H729 H 0.231 0.45455 0.55657 0.0
H730 H 0.3249 0.48816 0.46851 0.0
H731 H 0.29728 0.47472 0.44276 0.0
H732 H 0.32333 0.45034 0.4603 0.0
H733 H 0.24298 0.52812 0.54118 0.0
H734 H 0.21657 0.50279 0.55646 0.0
H735 H 0.21362 0.51511 0.51725 0.0
C736 C 0.5932 0.16788 0.0832 0.0
C737 C 0.61463 0.14682 0.08927 0.0
C738 C 0.56309 0.1632 0.08972 0.0
C739 C 0.55407 0.13677 0.10261 0.0
C740 C 0.57545 0.11514 0.10819 0.0
C741 C 0.6055 0.12043 0.10147 0.0
C742 C 0.54101 0.18682 0.08342 0.0
C743 C 0.56665 0.08665 0.12182 0.0
C744 C 0.48227 0.13843 0.14848 0.0
C745 C 0.46157 0.12828 0.12691 0.0
C746 C 0.51251 0.14064 0.14108 0.0
C747 C 0.52241 0.1324 0.11141 0.0
C748 C 0.50178 0.12148 0.08976 0.0
C749 C 0.47159 0.11961 0.09774 0.0
C750 C 0.53377 0.15249 0.1648 0.0
C751 C 0.51149 0.11235 0.05795 0.0
H752 H 0.59997 0.18831 0.07368 0.0
H753 H 0.62188 0.10401 0.10618 0.0
H754 H 0.523 0.17886 0.06824 0.0
H755 H 0.53059 0.19379 0.10533 0.0
H756 H 0.55146 0.20574 0.07232 0.0
H757 H 0.58567 0.07157 0.12329 0.0
H758 H 0.55755 0.08989 0.14531 0.0
H759 H 0.54889 0.07666 0.10774 0.0
H760 H 0.4748 0.14514 0.17109 0.0
H761 H 0.4558 0.11163 0.08096 0.0
H762 H 0.54356 0.17279 0.15625 0.0
H763 H 0.55233 0.1373 0.1686 0.0
H764 H 0.52278 0.15675 0.18725 0.0
H765 H 0.52011 0.13114 0.04513 0.0
H766 H 0.49306 0.1027 0.04447 0.0
H767 H 0.52983 0.09659 0.05959 0.0
C768 C 0.91577 0.82548 0.57379 0.0
C769 C 0.89364 0.84655 0.57548 0.0
C770 C 0.94523 0.83154 0.58195 0.0
C771 C 0.95287 0.85942 0.59199 0.0
C772 C 0.93085 0.88105 0.59295 0.0
C773 C 0.90146 0.87435 0.58472 0.0
C774 C 0.96803 0.80786 0.58062 0.0
C775 C 0.9382 0.91106 0.60337 0.0
C776 C 0.02072 0.86358 0.64369 0.0
C777 C 0.04309 0.8712 0.62276 0.0
C778 C 0.99113 0.86053 0.63414 0.0
C779 C 0.98362 0.86534 0.60288 0.0
C780 C 0.00589 0.87397 0.58182 0.0
C781 C 0.03538 0.87674 0.59199 0.0
C782 C 0.96807 0.85122 0.65732 0.0
C783 C 0.99872 0.87948 0.54836 0.0
H784 H 0.91001 0.80396 0.56659 0.0
H785 H 0.88453 0.89079 0.58602 0.0
H786 H 0.98712 0.81449 0.56615 0.0
H787 H 0.9767 0.80354 0.60409 0.0
H788 H 0.95875 0.78765 0.57113 0.0
H789 H 0.91904 0.92585 0.60093 0.0
H790 H 0.94515 0.91075 0.62789 0.0
H791 H 0.9571 0.91963 0.58983 0.0
H792 H 0.0264 0.85934 0.66753 0.0
H793 H 0.05248 0.88278 0.57567 0.0
H794 H 0.95921 0.82989 0.65081 0.0
H795 H 0.94913 0.8664 0.65734 0.0
H796 H 0.97718 0.84988 0.68106 0.0
H797 H 0.99164 0.85923 0.53719 0.0
H798 H 0.01802 0.88819 0.53549 0.0
H799 H 0.97998 0.89477 0.5464 0.0
C800 C 0.48083 0.87058 0.84049 0.0
C801 C 0.45953 0.87699 0.86305 0.0
C802 C 0.51084 0.86692 0.84827 0.0
C803 C 0.51987 0.86982 0.87938 0.0
C804 C 0.49862 0.87689 0.90218 0.0
C805 C 0.46871 0.88035 0.89376 0.0
C806 C 0.53279 0.85932 0.82328 0.0
C807 C 0.50739 0.88024 0.93557 0.0
C808 C 0.59004 0.83035 0.90278 0.0
C809 C 0.6114 0.85221 0.90201 0.0
C810 C 0.56016 0.83591 0.89594 0.0
C811 C 0.55129 0.86407 0.88815 0.0
C812 C 0.5726 0.88637 0.88786 0.0
C813 C 0.60242 0.88018 0.89478 0.0
C814 C 0.53815 0.81152 0.89652 0.0
C815 C 0.56397 0.91667 0.87976 0.0
H816 H 0.47401 0.86799 0.8167 0.0
H817 H 0.45245 0.8854 0.91135 0.0
H818 H 0.55135 0.87492 0.82311 0.0
H819 H 0.54247 0.83791 0.82796 0.0
H820 H 0.52244 0.85897 0.80004 0.0
H821 H 0.48852 0.88722 0.95022 0.0
H822 H 0.5159 0.85958 0.94455 0.0
H823 H 0.52559 0.89612 0.93775 0.0
H824 H 0.5967 0.80868 0.90841 0.0
H825 H 0.61874 0.89722 0.89416 0.0
H826 H 0.52844 0.80852 0.87324 0.0
H827 H 0.51961 0.81659 0.91243 0.0
H828 H 0.54844 0.79103 0.90389 0.0
H829 H 0.55545 0.91744 0.85578 0.0
H830 H 0.58292 0.93179 0.88178 0.0
H831 H 0.54581 0.9241 0.89506 0.0
C832 C 0.03428 0.15654 0.39992 0.0
C833 C 0.05075 0.13188 0.39301 0.0
C834 C 0.00328 0.15547 0.40294 0.0
C835 C 0.98826 0.12912 0.3987 0.0
C836 C 0.00478 0.10401 0.39236 0.0
C837 C 0.03585 0.10566 0.38971 0.0
C838 C 0.98654 0.18271 0.41001 0.0
C839 C 0.98956 0.07556 0.38753 0.0
C840 C 0.90885 0.12598 0.42846 0.0
C841 C 0.89263 0.13306 0.40191 0.0
C842 C 0.93996 0.1237 0.42761 0.0
C843 C 0.95518 0.12835 0.3995 0.0
C844 C 0.9388 0.13422 0.37237 0.0
C845 C 0.90778 0.13661 0.37394 0.0
C846 C 0.95662 0.11751 0.45705 0.0
C847 C 0.95412 0.13901 0.34186 0.0
H848 H 0.04558 0.17686 0.40272 0.0
H849 H 0.04838 0.08649 0.38435 0.0
H850 H 0.9717 0.18812 0.39046 0.0
H851 H 0.97233 0.17966 0.43062 0.0
H852 H 1.00162 0.20112 0.41423 0.0
H853 H 0.00564 0.05777 0.38439 0.0
H854 H 0.97507 0.07053 0.40747 0.0
H855 H 0.97511 0.07669 0.36686 0.0
H856 H 0.89734 0.12322 0.45019 0.0
H857 H 0.89543 0.14186 0.35325 0.0
H858 H 0.97002 0.13649 0.46362 0.0
H859 H 0.97226 0.09945 0.45362 0.0
H860 H 0.94149 0.11219 0.47643 0.0
H861 H 0.96773 0.15878 0.34303 0.0
H862 H 0.93812 0.14117 0.32251 0.0
H863 H 0.96938 0.12099 0.33674 0.0
C864 C 0.09793 0.6263 0.08095 0.0
C865 C 0.10595 0.65416 0.07213 0.0
C866 C 0.06834 0.61944 0.08809 0.0
C867 C 0.04625 0.64095 0.08643 0.0
C868 C 0.05408 0.6689 0.07679 0.0
C869 C 0.08379 0.67515 0.06974 0.0
C870 C 0.06084 0.58937 0.09817 0.0
C871 C 0.0312 0.69245 0.07471 0.0
C872 C 0.96414 0.62169 0.08417 0.0
C873 C 0.95561 0.62672 0.1148 0.0
C874 C 0.99371 0.62559 0.07469 0.0
C875 C 0.01523 0.63478 0.09634 0.0
C876 C 0.00688 0.63926 0.12742 0.0
C877 C 0.97722 0.63516 0.13625 0.0
C878 C 1.0018 0.62049 0.04138 0.0
C879 C 0.02914 0.64905 0.15123 0.0
H880 H 0.11486 0.60991 0.08278 0.0
H881 H 0.0897 0.69671 0.06286 0.0
H882 H 0.05307 0.5896 0.12242 0.0
H883 H 0.04247 0.58069 0.08392 0.0
H884 H 0.08016 0.57469 0.09642 0.0
H885 H 0.04061 0.71267 0.06544 0.0
H886 H 0.01252 0.68567 0.05974 0.0
H887 H 0.0219 0.6968 0.09792 0.0
H888 H 0.94762 0.6151 0.06744 0.0
H889 H 0.97092 0.63903 0.15999 0.0
H890 H 0.02059 0.60521 0.03981 0.0
H891 H 0.00921 0.64086 0.03072 0.0
H892 H 0.98287 0.61191 0.0278 0.0
H893 H 0.04822 0.63406 0.15201 0.0
H894 H 0.01933 0.65051 0.17467 0.0
H895 H 0.03797 0.6704 0.14481 0.0
C896 C 0.5385 0.37228 0.59544 0.0
C897 C 0.54592 0.37264 0.62686 0.0
C898 C 0.50902 0.36814 0.58578 0.0
C899 C 0.48643 0.36418 0.60806 0.0
C900 C 0.49373 0.36485 0.63979 0.0
C901 C 0.52334 0.36909 0.64879 0.0
C902 C 0.5021 0.36764 0.55174 0.0
C903 C 0.47031 0.36067 0.66427 0.0
C904 C 0.40517 0.37541 0.58731 0.0
C905 C 0.39522 0.34713 0.58366 0.0
C906 C 0.43495 0.38134 0.59459 0.0
C907 C 0.45526 0.35847 0.59832 0.0
C908 C 0.44551 0.32994 0.59397 0.0
C909 C 0.41565 0.32463 0.5867 0.0
C910 C 0.44452 0.41205 0.59898 0.0
C911 C 0.46647 0.30495 0.59768 0.0
H912 H 0.55577 0.37507 0.57832 0.0
H913 H 0.5288 0.36937 0.67311 0.0
H914 H 0.49302 0.3464 0.54523 0.0
H915 H 0.48485 0.38381 0.54629 0.0
H916 H 0.522 0.37201 0.53738 0.0
H917 H 0.47949 0.36248 0.68795 0.0
H918 H 0.45244 0.37681 0.66149 0.0
H919 H 0.45996 0.33925 0.66167 0.0
H920 H 0.38958 0.39294 0.58497 0.0
H921 H 0.40824 0.30271 0.58384 0.0
H922 H 0.46377 0.41693 0.58392 0.0
H923 H 0.45181 0.41541 0.62313 0.0
H924 H 0.42642 0.42745 0.59375 0.0
H925 H 0.486 0.30765 0.58239 0.0
H926 H 0.45571 0.28415 0.59228 0.0
H927 H 0.47483 0.30419 0.62172 0.0
C928 C 0.0982 0.37442 0.90436 0.0
C929 C 0.10674 0.34788 0.91667 0.0
C930 C 0.06835 0.38019 0.89722 0.0
C931 C 0.04653 0.35891 0.90249 0.0
C932 C 0.0549 0.33243 0.91574 0.0
C933 C 0.08486 0.32725 0.92268 0.0
C934 C 0.06029 0.40873 0.88322 0.0
C935 C 0.03233 0.30918 0.92174 0.0
C936 C 0.96431 0.37786 0.90366 0.0
C937 C 0.95528 0.36918 0.87414 0.0
C938 C 0.99407 0.37521 0.91306 0.0
C939 C 0.01526 0.36357 0.89247 0.0
C940 C 0.00637 0.35529 0.86246 0.0
C941 C 0.97655 0.35822 0.85368 0.0
C942 C 0.00272 0.38435 0.9452 0.0
C943 C 0.02826 0.34278 0.8398 0.0
H944 H 0.11491 0.39054 0.89971 0.0
H945 H 0.09118 0.30672 0.9323 0.0
H946 H 0.05211 0.40551 0.85935 0.0
H947 H 0.04206 0.41886 0.8965 0.0
H948 H 0.07946 0.42368 0.88255 0.0
H949 H 0.04215 0.29041 0.9337 0.0
H950 H 0.01385 0.31764 0.93597 0.0
H951 H 0.02265 0.30184 0.89959 0.0
H952 H 0.94806 0.38641 0.91961 0.0
H953 H 0.96985 0.35151 0.8308 0.0
H954 H 0.02131 0.39991 0.94421 0.0
H955 H 0.01065 0.36553 0.95844 0.0
H956 H 0.98394 0.39427 0.95789 0.0
H957 H 0.04713 0.3577 0.83642 0.0
H958 H 0.018 0.33829 0.81702 0.0
H959 H 0.03748 0.32251 0.84908 0.0
C960 C 0.52875 0.63487 0.34004 0.0
C961 C 0.55013 0.62611 0.36159 0.0
C962 C 0.49927 0.64001 0.34891 0.0
C963 C 0.49087 0.63629 0.38009 0.0
C964 C 0.51224 0.62718 0.40192 0.0
C965 C 0.54162 0.62221 0.39242 0.0
C966 C 0.47715 0.64974 0.32493 0.0
C967 C 0.50413 0.62294 0.43536 0.0
C968 C 0.42226 0.67676 0.40647 0.0
C969 C 0.40025 0.65555 0.40479 0.0
C970 C 0.45193 0.67062 0.39912 0.0
C971 C 0.45984 0.64258 0.38985 0.0
C972 C 0.43788 0.62091 0.38875 0.0
C973 C 0.40835 0.62765 0.39623 0.0
C974 C 0.4747 0.69432 0.40064 0.0
C975 C 0.44547 0.59075 0.37902 0.0
H976 H 0.53507 0.63793 0.31618 0.0
H977 H 0.55795 0.61541 0.40922 0.0
H978 H 0.45808 0.63473 0.32412 0.0
H979 H 0.46828 0.67111 0.33121 0.0
H980 H 0.48708 0.65109 0.30155 0.0
H981 H 0.52314 0.61508 0.4493 0.0
H982 H 0.49627 0.64345 0.44534 0.0
H983 H 0.48563 0.60737 0.43733 0.0
H984 H 0.41627 0.69836 0.41314 0.0
H985 H 0.39153 0.6111 0.39492 0.0
H986 H 0.48396 0.69826 0.37734 0.0
H987 H 0.49343 0.68791 0.41573 0.0
H988 H 0.4652 0.71466 0.4095 0.0
H989 H 0.45348 0.59076 0.35485 0.0
H990 H 0.42614 0.57607 0.38073 0.0
H991 H 0.4637 0.58222 0.39354 0.0
C992 C 0.31292 0.06495 0.21058 0.0
C993 C 0.30555 0.08651 0.18942 0.0
C994 C 0.29322 0.05751 0.23448 0.0
C995 C 0.26602 0.07247 0.23753 0.0
C996 C 0.25769 0.09271 0.21487 0.0
C997 C 0.27745 0.09933 0.19111 0.0
C998 C 0.3024 0.03501 0.2575 0.0
C999 C 0.22903 0.10943 0.21719 0.0
C1000 C 0.2019 0.06115 0.29265 0.0
C1001 C 0.20788 0.08253 0.3145 0.0
C1002 C 0.22228 0.0552 0.26889 0.0
C1003 C 0.24874 0.07149 0.26671 0.0
C1004 C 0.25585 0.09137 0.29018 0.0
C1005 C 0.23544 0.0965 0.31379 0.0
C1006 C 0.21449 0.033 0.24498 0.0
C1007 C 0.28368 0.10941 0.28881 0.0
H1008 H 0.33445 0.05467 0.20921 0.0
H1009 H 0.27144 0.11601 0.17496 0.0
H1010 H 0.31211 0.04555 0.27807 0.0
H1011 H 0.28301 0.02223 0.26522 0.0
H1012 H 0.31937 0.02034 0.24772 0.0
H1013 H 0.22478 0.12266 0.19639 0.0
H1014 H 0.20997 0.09475 0.22048 0.0
H1015 H 0.22995 0.12384 0.23752 0.0
H1016 H 0.18084 0.04996 0.29327 0.0
H1017 H 0.2404 0.11301 0.33053 0.0
H1018 H 0.23456 0.02122 0.23729 0.0
H1019 H 0.20474 0.0437 0.22453 0.0
H1020 H 0.19799 0.01741 0.25394 0.0
H1021 H 0.30343 0.09577 0.28483 0.0
H1022 H 0.28725 0.12191 0.31029 0.0
H1023 H 0.28207 0.12464 0.26924 0.0
C1024 C 0.27627 0.93212 0.81343 0.0
C1025 C 0.30595 0.92933 0.80435 0.0
C1026 C 0.25373 0.93584 0.79158 0.0
C1027 C 0.2613 0.93727 0.75999 0.0
C1028 C 0.29156 0.93945 0.75138 0.0
C1029 C 0.31372 0.93519 0.77376 0.0
C1030 C 0.22183 0.93404 0.80201 0.0
C1031 C 0.3005 0.94259 0.71808 0.0
C1032 C 0.21557 0.88926 0.70851 0.0
C1033 C 0.19576 0.90844 0.69479 0.0
C1034 C 0.23678 0.89858 0.72971 0.0
C1035 C 0.23893 0.92813 0.73677 0.0
C1036 C 0.21915 0.94782 0.72271 0.0
C1037 C 0.19739 0.93762 0.70205 0.0
C1038 C 0.25671 0.87657 0.74473 0.0
C1039 C 0.22151 0.97956 0.7286 0.0
H1040 H 0.27035 0.92914 0.83735 0.0
H1041 H 0.33675 0.93365 0.76672 0.0
H1042 H 0.20768 0.94927 0.78905 0.0
H1043 H 0.21332 0.91213 0.79751 0.0
H1044 H 0.21956 0.93852 0.82705 0.0
H1045 H 0.32357 0.95074 0.71588 0.0
H1046 H 0.29929 0.92139 0.70658 0.0
H1047 H 0.2852 0.9573 0.7058 0.0
H1048 H 0.21418 0.86666 0.70292 0.0
H1049 H 0.18231 0.95248 0.69096 0.0
H1050 H 0.25482 0.87794 0.77018 0.0
H1051 H 0.2802 0.8808 0.73859 0.0
H1052 H 0.2512 0.85435 0.73758 0.0
H1053 H 0.22551 0.98413 0.75334 0.0
H1054 H 0.20124 0.99116 0.72107 0.0
H1055 H 0.24071 0.98817 0.71555 0.0
C1056 C 0.77445 0.85943 0.80332 0.0
C1057 C 0.75216 0.87338 0.82011 0.0
C1058 C 0.77484 0.86029 0.77109 0.0
C1059 C 0.75296 0.87631 0.75529 0.0
C1060 C 0.7315 0.89197 0.77218 0.0
C1061 C 0.73098 0.88985 0.80448 0.0
C1062 C 0.79755 0.84255 0.75399 0.0
C1063 C 0.70853 0.91013 0.75611 0.0
C1064 C 0.77003 0.88587 0.67029 0.0
C1065 C 0.7525 0.86427 0.65726 0.0
C1066 C 0.76897 0.8914 0.7021 0.0
C1067 C 0.75094 0.87406 0.72123 0.0
C1068 C 0.73289 0.8525 0.70798 0.0
C1069 C 0.7335 0.84825 0.67606 0.0
C1070 C 0.78763 0.91528 0.71529 0.0
C1071 C 0.71411 0.83289 0.72765 0.0
H1072 H 0.79072 0.84646 0.81532 0.0
H1073 H 0.71386 0.90083 0.81747 0.0
H1074 H 0.78611 0.8257 0.7404 0.0
H1075 H 0.81007 0.85608 0.73751 0.0
H1076 H 0.81364 0.83206 0.76976 0.0
H1077 H 0.69657 0.92436 0.77245 0.0
H1078 H 0.71909 0.92348 0.73802 0.0
H1079 H 0.69204 0.89613 0.74458 0.0
H1080 H 0.78449 0.89845 0.65561 0.0
H1081 H 0.72009 0.83141 0.66593 0.0
H1082 H 0.80625 0.90616 0.72881 0.0
H1083 H 0.77421 0.92862 0.73123 0.0
H1084 H 0.79702 0.92925 0.69701 0.0
H1085 H 0.7286 0.82052 0.74348 0.0
H1086 H 0.70094 0.81756 0.71363 0.0
H1087 H 0.69865 0.84557 0.74208 0.0
C1088 C 0.77728 0.10717 0.32352 0.0
C1089 C 0.75894 0.1278 0.33715 0.0
C1090 C 0.77661 0.1026 0.29151 0.0
C1091 C 0.75812 0.11994 0.27283 0.0
C1092 C 0.73946 0.14067 0.28666 0.0
C1093 C 0.73973 0.14396 0.3187 0.0
C1094 C 0.79597 0.0796 0.27764 0.0
C1095 C 0.72016 0.1603 0.26754 0.0
C1096 C 0.77995 0.13723 0.19086 0.0
C1097 C 0.75765 0.12328 0.17406 0.0
C1098 C 0.78102 0.13542 0.22303 0.0
C1099 C 0.75987 0.11841 0.2387 0.0
C1100 C 0.7385 0.10272 0.2217 0.0
C1101 C 0.73724 0.10582 0.18952 0.0
C1102 C 0.80354 0.15327 0.2403 0.0
C1103 C 0.71631 0.08355 0.23758 0.0
H1104 H 0.79194 0.09451 0.33791 0.0
H1105 H 0.72572 0.16009 0.32925 0.0
H1106 H 0.78282 0.06609 0.26162 0.0
H1107 H 0.81406 0.08956 0.26404 0.0
H1108 H 0.80609 0.06566 0.29552 0.0
H1109 H 0.70688 0.1752 0.28195 0.0
H1110 H 0.73426 0.17313 0.25176 0.0
H1111 H 0.70475 0.14758 0.25307 0.0
H1112 H 0.79562 0.15095 0.17897 0.0
H1113 H 0.72015 0.09482 0.17648 0.0
H1114 H 0.81642 0.13974 0.25646 0.0
H1115 H 0.79188 0.16972 0.25424 0.0
H1116 H 0.8193 0.16429 0.22459 0.0
H1117 H 0.72751 0.07007 0.25514 0.0
H1118 H 0.70453 0.06939 0.22101 0.0
H1119 H 0.69957 0.0968 0.24972 0.0
C1120 C 0.72459 0.55486 0.30352 0.0
C1121 C 0.69528 0.56117 0.29517 0.0
C1122 C 0.74641 0.55058 0.28102 0.0
C1123 C 0.73843 0.55228 0.24955 0.0
C1124 C 0.708 0.55335 0.24134 0.0
C1125 C 0.68661 0.55807 0.26438 0.0
C1126 C 0.77845 0.54867 0.29099 0.0
C1127 C 0.69846 0.55351 0.20804 0.0
C1128 C 0.78662 0.60125 0.20175 0.0
C1129 C 0.80432 0.58203 0.18531 0.0
C1130 C 0.76548 0.59162 0.22283 0.0
C1131 C 0.76118 0.5618 0.22694 0.0
C1132 C 0.77897 0.54211 0.21024 0.0
C1133 C 0.80074 0.55254 0.18976 0.0
C1134 C 0.74777 0.61357 0.2407 0.0
C1135 C 0.77434 0.51024 0.21299 0.0
H1136 H 0.73101 0.55574 0.32752 0.0
H1137 H 0.66379 0.56237 0.25789 0.0
H1138 H 0.79101 0.5336 0.27617 0.0
H1139 H 0.78889 0.5701 0.28876 0.0
H1140 H 0.78049 0.54168 0.31537 0.0
H1141 H 0.67473 0.54748 0.20556 0.0
H1142 H 0.70144 0.57534 0.19843 0.0
H1143 H 0.71226 0.53857 0.19424 0.0
H1144 H 0.78954 0.62408 0.19826 0.0
H1145 H 0.81418 0.53772 0.17653 0.0
H1146 H 0.74999 0.60969 0.26583 0.0
H1147 H 0.7239 0.61176 0.23475 0.0
H1148 H 0.75503 0.63585 0.23584 0.0
H1149 H 0.76955 0.50384 0.23709 0.0
H1150 H 0.79394 0.49808 0.20464 0.0
H1151 H 0.75491 0.50401 0.19877 0.0
C1152 C 0.68449 0.43436 0.72384 0.0
C1153 C 0.69306 0.43048 0.69312 0.0
C1154 C 0.70598 0.4394 0.74672 0.0
C1155 C 0.73641 0.43993 0.73846 0.0
C1156 C 0.74437 0.44069 0.70695 0.0
C1157 C 0.72244 0.4362 0.68459 0.0
C1158 C 0.69649 0.44029 0.78001 0.0
C1159 C 0.77642 0.44189 0.69691 0.0
C1160 C 0.79922 0.44134 0.79772 0.0
C1161 C 0.80268 0.412 0.8033 0.0
C1162 C 0.77724 0.45119 0.77713 0.0
C1163 C 0.75914 0.43105 0.76142 0.0
C1164 C 0.76326 0.40137 0.76671 0.0
C1165 C 0.78459 0.39234 0.78792 0.0
C1166 C 0.77277 0.48297 0.77316 0.0
C1167 C 0.74523 0.37893 0.74988 0.0
H1168 H 0.66162 0.43051 0.73045 0.0
H1169 H 0.7288 0.43474 0.66062 0.0
H1170 H 0.69921 0.41872 0.79034 0.0
H1171 H 0.71047 0.45546 0.79331 0.0
H1172 H 0.67283 0.44665 0.7823 0.0
H1173 H 0.77854 0.44794 0.67225 0.0
H1174 H 0.78918 0.45735 0.71107 0.0
H1175 H 0.78662 0.42045 0.70006 0.0
H1176 H 0.81296 0.45652 0.81013 0.0
H1177 H 0.78741 0.36963 0.79226 0.0
H1178 H 0.75329 0.48972 0.787 0.0
H1179 H 0.76812 0.48858 0.74881 0.0
H1180 H 0.79238 0.49534 0.78116 0.0
H1181 H 0.72143 0.38112 0.75594 0.0
H1182 H 0.75237 0.35679 0.75559 0.0
H1183 H 0.74728 0.38193 0.72461 0.0
C1184 C 0.2802 0.36591 0.68469 0.0
C1185 C 0.26131 0.38088 0.66481 0.0
C1186 C 0.27696 0.36815 0.7167 0.0
C1187 C 0.255 0.38662 0.72897 0.0
C1188 C 0.23749 0.40354 0.70895 0.0
C1189 C 0.24042 0.4 0.67699 0.0
C1190 C 0.2956 0.34922 0.73725 0.0
C1191 C 0.21477 0.42437 0.72122 0.0
C1192 C 0.22368 0.36279 0.80565 0.0
C1193 C 0.24224 0.37729 0.82626 0.0
C1194 C 0.22692 0.36642 0.77379 0.0
C1195 C 0.24851 0.38582 0.76247 0.0
C1196 C 0.2657 0.40216 0.78335 0.0
C1197 C 0.26281 0.39723 0.81509 0.0
C1198 C 0.20864 0.34806 0.75228 0.0
C1199 C 0.288 0.42392 0.77216 0.0
H1200 H 0.29618 0.35094 0.67523 0.0
H1201 H 0.22596 0.41174 0.66151 0.0
H1202 H 0.30722 0.36223 0.75488 0.0
H1203 H 0.28103 0.3339 0.74963 0.0
H1204 H 0.31242 0.33685 0.72408 0.0
H1205 H 0.20684 0.4393 0.70308 0.0
H1206 H 0.19537 0.41243 0.73029 0.0
H1207 H 0.22417 0.43703 0.74054 0.0
H1208 H 0.20795 0.3472 0.81438 0.0
H1209 H 0.27698 0.40861 0.83117 0.0
H1210 H 0.22352 0.33364 0.73906 0.0
H1211 H 0.1967 0.36163 0.73539 0.0
H1212 H 0.19214 0.33476 0.7648 0.0
H1213 H 0.30757 0.41276 0.76238 0.0
H1214 H 0.29574 0.43813 0.79107 0.0
H1215 H 0.27829 0.43731 0.75359 0.0
C1216 C 0.28169 0.64343 0.30051 0.0
C1217 C 0.26318 0.62849 0.32078 0.0
C1218 C 0.27795 0.64099 0.26856 0.0
C1219 C 0.25588 0.62236 0.25676 0.0
C1220 C 0.23859 0.60565 0.27719 0.0
C1221 C 0.24203 0.60937 0.30907 0.0
C1222 C 0.29633 0.65973 0.24757 0.0
C1223 C 0.21573 0.5847 0.26542 0.0
C1224 C 0.224 0.64415 0.17956 0.0
C1225 C 0.24236 0.62906 0.15927 0.0
C1226 C 0.22756 0.64147 0.2115 0.0
C1227 C 0.24929 0.62246 0.22326 0.0
C1228 C 0.26637 0.60559 0.20278 0.0
C1229 C 0.26314 0.60956 0.17092 0.0
C1230 C 0.20943 0.66038 0.23256 0.0
C1231 C 0.28884 0.58424 0.21449 0.0
H1232 H 0.29785 0.65841 0.30964 0.0
H1233 H 0.22786 0.59768 0.32487 0.0
H1234 H 0.30795 0.6465 0.23013 0.0
H1235 H 0.28157 0.67472 0.23495 0.0
H1236 H 0.31312 0.67244 0.2604 0.0
H1237 H 0.20757 0.57029 0.28393 0.0
H1238 H 0.1965 0.59654 0.25584 0.0
H1239 H 0.22513 0.57147 0.24655 0.0
H1240 H 0.20813 0.65942 0.17045 0.0
H1241 H 0.27718 0.59775 0.1551 0.0
H1242 H 0.22438 0.67518 0.24521 0.0
H1243 H 0.19765 0.64727 0.24997 0.0
H1244 H 0.1928 0.67331 0.21976 0.0
H1245 H 0.30827 0.59575 0.22415 0.0
H1246 H 0.29678 0.56976 0.19592 0.0
H1247 H 0.27919 0.5711 0.23328 0.0
loop_
_geom_bond_atom_site_label_1
_geom_bond_atom_site_label_2
_geom_bond_distance
_geom_bond_site_symmetry_2
_ccdc_geom_bond_type
Mg0 O1 2.028 . S
Mg0 O7 1.986 . S
Mg0 O9 2.114 . S
Mg0 O10 2.251 . S
Mg0 O13 2.010 . S
O1 Mg0 2.028 . S
O1 C4 1.250 . S
O2 Mg3 2.028 . S
O2 C4 1.248 . S
Mg3 O2 2.028 . S
Mg3 O8 2.032 . S
Mg3 O10 2.079 . S
C4 O1 1.250 . S
C4 O2 1.248 . S
C5 O6 1.264 . S
C5 O13 1.249 . S
O6 C5 1.264 . S
O7 Mg0 1.986 . S
O7 C11 1.246 . S
O8 Mg3 2.032 . S
O8 C11 1.259 . S
O9 Mg0 2.114 . S
O9 C12 1.252 . S
O10 Mg0 2.251 . S
O10 Mg3 2.079 . S
O10 C12 1.273 . S
C11 O7 1.246 . S
C11 O8 1.259 . S
C12 O9 1.252 . S
C12 O10 1.273 . S
O13 Mg0 2.010 . S
O13 C5 1.249 . S
Mg14 O15 2.028 . S
Mg14 O21 1.986 . S
Mg14 O23 2.114 . S
Mg14 O24 2.251 . S
Mg14 O27 2.010 . S
O15 Mg14 2.028 . S
O15 C18 1.250 . S
O16 Mg17 2.028 . S
O16 C18 1.248 . S
Mg17 O16 2.028 . S
Mg17 O22 2.032 . S
Mg17 O24 2.079 . S
C18 O15 1.250 . S
C18 O16 1.248 . S
C19 O20 1.264 . S
C19 O27 1.249 . S
O20 C19 1.264 . S
O21 Mg14 1.986 . S
O21 C25 1.246 . S
O22 Mg17 2.032 . S
O22 C25 1.259 . S
O23 Mg14 2.114 . S
O23 C26 1.252 . S
O24 Mg14 2.251 . S
O24 Mg17 2.079 . S
O24 C26 1.273 . S
C25 O21 1.246 . S
C25 O22 1.259 . S
C26 O23 1.252 . S
C26 O24 1.273 . S
O27 Mg14 2.010 . S
O27 C19 1.249 . S
Mg28 O29 2.028 . S
Mg28 O35 1.986 . S
Mg28 O37 2.114 . S
Mg28 O38 2.251 . S
Mg28 O41 2.010 . S
O29 Mg28 2.028 . S
O29 C32 1.250 . S
O30 Mg31 2.028 . S
O30 C32 1.248 . S
Mg31 O30 2.028 . S
Mg31 O36 2.032 . S
Mg31 O38 2.079 . S
C32 O29 1.250 . S
C32 O30 1.248 . S
C33 O34 1.264 . S
C33 O41 1.249 . S
O34 C33 1.264 . S
O35 Mg28 1.986 . S
O35 C39 1.246 . S
O36 Mg31 2.032 . S
O36 C39 1.259 . S
O37 Mg28 2.114 . S
O37 C40 1.252 . S
O38 Mg28 2.251 . S
O38 Mg31 2.079 . S
O38 C40 1.273 . S
C39 O35 1.246 . S
C39 O36 1.259 . S
C40 O37 1.252 . S
C40 O38 1.273 . S
O41 Mg28 2.010 . S
O41 C33 1.249 . S
Mg42 O43 2.028 . S
Mg42 O49 1.986 . S
Mg42 O51 2.114 . S
Mg42 O52 2.251 . S
Mg42 O55 2.010 . S
O43 Mg42 2.028 . S
O43 C46 1.250 . S
O44 Mg45 2.028 . S
O44 C46 1.248 . S
Mg45 O44 2.028 . S
Mg45 O50 2.032 . S
Mg45 O52 2.079 . S
C46 O43 1.250 . S
C46 O44 1.248 . S
C47 O48 1.264 . S
C47 O55 1.249 . S
O48 C47 1.264 . S
O49 Mg42 1.986 . S
O49 C53 1.246 . S
O50 Mg45 2.032 . S
O50 C53 1.259 . S
O51 Mg42 2.114 . S
O51 C54 1.252 . S
O52 Mg42 2.251 . S
O52 Mg45 2.079 . S
O52 C54 1.273 . S
C53 O49 1.246 . S
C53 O50 1.259 . S
C54 O51 1.252 . S
C54 O52 1.273 . S
O55 Mg42 2.010 . S
O55 C47 1.249 . S
Mg56 O57 2.028 . S
Mg56 O63 1.986 . S
Mg56 O65 2.114 . S
Mg56 O66 2.251 . S
Mg56 O69 2.010 . S
O57 Mg56 2.028 . S
O57 C60 1.250 . S
O58 Mg59 2.028 . S
O58 C60 1.248 . S
Mg59 O58 2.028 . S
Mg59 O64 2.032 . S
Mg59 O66 2.079 . S
C60 O57 1.250 . S
C60 O58 1.248 . S
C61 O62 1.264 . S
C61 O69 1.249 . S
O62 C61 1.264 . S
O63 Mg56 1.986 . S
O63 C67 1.246 . S
O64 Mg59 2.032 . S
O64 C67 1.259 . S
O65 Mg56 2.114 . S
O65 C68 1.252 . S
O66 Mg56 2.251 . S
O66 Mg59 2.079 . S
O66 C68 1.273 . S
C67 O63 1.246 . S
C67 O64 1.259 . S
C68 O65 1.252 . S
C68 O66 1.273 . S
O69 Mg56 2.010 . S
O69 C61 1.249 . S
Mg70 O71 2.028 . S
Mg70 O77 1.986 . S
Mg70 O79 2.114 . S
Mg70 O80 2.251 . S
Mg70 O83 2.010 . S
O71 Mg70 2.028 . S
O71 C74 1.250 . S
O72 Mg73 2.028 . S
O72 C74 1.248 . S
Mg73 O72 2.028 . S
Mg73 O78 2.032 . S
Mg73 O80 2.079 . S
C74 O71 1.250 . S
C74 O72 1.248 . S
C75 O76 1.264 . S
C75 O83 1.249 . S
O76 C75 1.264 . S
O77 Mg70 1.986 . S
O77 C81 1.246 . S
O78 Mg73 2.032 . S
O78 C81 1.259 . S
O79 Mg70 2.114 . S
O79 C82 1.252 . S
O80 Mg70 2.251 . S
O80 Mg73 2.079 . S
O80 C82 1.273 . S
C81 O77 1.246 . S
C81 O78 1.259 . S
C82 O79 1.252 . S
C82 O80 1.273 . S
O83 Mg70 2.010 . S
O83 C75 1.249 . S
Mg84 O85 2.028 . S
Mg84 O91 1.986 . S
Mg84 O93 2.114 . S
Mg84 O94 2.251 . S
Mg84 O97 2.010 . S
O85 Mg84 2.028 . S
O85 C88 1.250 . S
O86 Mg87 2.028 . S
O86 C88 1.248 . S
Mg87 O86 2.028 . S
Mg87 O92 2.032 . S
Mg87 O94 2.079 . S
C88 O85 1.250 . S
C88 O86 1.248 . S
C89 O90 1.264 . S
C89 O97 1.249 . S
O90 C89 1.264 . S
O91 Mg84 1.986 . S
O91 C95 1.246 . S
O92 Mg87 2.032 . S
O92 C95 1.259 . S
O93 Mg84 2.114 . S
O93 C96 1.252 . S
O94 Mg84 2.251 . S
O94 Mg87 2.079 . S
O94 C96 1.273 . S
C95 O91 1.246 . S
C95 O92 1.259 . S
C96 O93 1.252 . S
C96 O94 1.273 . S
O97 Mg84 2.010 . S
O97 C89 1.249 . S
Mg98 O99 2.028 . S
Mg98 O105 1.986 . S
Mg98 O107 2.114 . S
Mg98 O108 2.251 . S
Mg98 O111 2.010 . S
O99 Mg98 2.028 . S
O99 C102 1.250 . S
O100 Mg101 2.028 . S
O100 C102 1.248 . S
Mg101 O100 2.028 . S
Mg101 O106 2.032 . S
Mg101 O108 2.079 . S
C102 O99 1.250 . S
C102 O100 1.248 . S
C103 O104 1.264 . S
C103 O111 1.249 . S
O104 C103 1.264 . S
O105 Mg98 1.986 . S
O105 C109 1.246 . S
O106 Mg101 2.032 . S
O106 C109 1.259 . S
O107 Mg98 2.114 . S
O107 C110 1.252 . S
O108 Mg98 2.251 . S
O108 Mg101 2.079 . S
O108 C110 1.273 . S
C109 O105 1.246 . S
C109 O106 1.259 . S
C110 O107 1.252 . S
C110 O108 1.273 . S
O111 Mg98 2.010 . S
O111 C103 1.249 . S
Mg112 O113 2.028 . S
Mg112 O119 1.986 . S
Mg112 O121 2.114 . S
Mg112 O122 2.251 . S
Mg112 O125 2.010 . S
O113 Mg112 2.028 . S
O113 C116 1.250 . S
O114 Mg115 2.028 . S
O114 C116 1.248 . S
Mg115 O114 2.028 . S
Mg115 O120 2.032 . S
Mg115 O122 2.079 . S
C116 O113 1.250 . S
C116 O114 1.248 . S
C117 O118 1.264 . S
C117 O125 1.249 . S
O118 C117 1.264 . S
O119 Mg112 1.986 . S
O119 C123 1.246 . S
O120 Mg115 2.032 . S
O120 C123 1.259 . S
O121 Mg112 2.114 . S
O121 C124 1.252 . S
O122 Mg112 2.251 . S
O122 Mg115 2.079 . S
O122 C124 1.273 . S
C123 O119 1.246 . S
C123 O120 1.259 . S
C124 O121 1.252 . S
C124 O122 1.273 . S
O125 Mg112 2.010 . S
O125 C117 1.249 . S
Mg126 O127 2.028 . S
Mg126 O133 1.986 . S
Mg126 O135 2.114 . S
Mg126 O136 2.251 . S
Mg126 O139 2.010 . S
O127 Mg126 2.028 . S
O127 C130 1.250 . S
O128 Mg129 2.028 . S
O128 C130 1.248 . S
Mg129 O128 2.028 . S
Mg129 O134 2.032 . S
Mg129 O136 2.079 . S
C130 O127 1.250 . S
C130 O128 1.248 . S
C131 O132 1.264 . S
C131 O139 1.249 . S
O132 C131 1.264 . S
O133 Mg126 1.986 . S
O133 C137 1.246 . S
O134 Mg129 2.032 . S
O134 C137 1.259 . S
O135 Mg126 2.114 . S
O135 C138 1.252 . S
O136 Mg126 2.251 . S
O136 Mg129 2.079 . S
O136 C138 1.273 . S
C137 O133 1.246 . S
C137 O134 1.259 . S
C138 O135 1.252 . S
C138 O136 1.273 . S
O139 Mg126 2.010 . S
O139 C131 1.249 . S
Mg140 O141 2.028 . S
Mg140 O147 1.986 . S
Mg140 O149 2.114 . S
Mg140 O150 2.251 . S
Mg140 O153 2.010 . S
O141 Mg140 2.028 . S
O141 C144 1.250 . S
O142 Mg143 2.028 . S
O142 C144 1.248 . S
Mg143 O142 2.028 . S
Mg143 O148 2.032 . S
Mg143 O150 2.079 . S
C144 O141 1.250 . S
C144 O142 1.248 . S
C145 O146 1.264 . S
C145 O153 1.249 . S
O146 C145 1.264 . S
O147 Mg140 1.986 . S
O147 C151 1.246 . S
O148 Mg143 2.032 . S
O148 C151 1.259 . S
O149 Mg140 2.114 . S
O149 C152 1.252 . S
O150 Mg140 2.251 . S
O150 Mg143 2.079 . S
O150 C152 1.273 . S
C151 O147 1.246 . S
C151 O148 1.259 . S
C152 O149 1.252 . S
C152 O150 1.273 . S
O153 Mg140 2.010 . S
O153 C145 1.249 . S
Mg154 O155 2.028 . S
Mg154 O161 1.986 . S
Mg154 O163 2.114 . S
Mg154 O164 2.251 . S
Mg154 O167 2.010 . S
O155 Mg154 2.028 . S
O155 C158 1.250 . S
O156 Mg157 2.028 . S
O156 C158 1.248 . S
Mg157 O156 2.028 . S
Mg157 O162 2.032 . S
Mg157 O164 2.079 . S
C158 O155 1.250 . S
C158 O156 1.248 . S
C159 O160 1.264 . S
C159 O167 1.249 . S
O160 C159 1.264 . S
O161 Mg154 1.986 . S
O161 C165 1.246 . S
O162 Mg157 2.032 . S
O162 C165 1.259 . S
O163 Mg154 2.114 . S
O163 C166 1.252 . S
O164 Mg154 2.251 . S
O164 Mg157 2.079 . S
O164 C166 1.273 . S
C165 O161 1.246 . S
C165 O162 1.259 . S
C166 O163 1.252 . S
C166 O164 1.273 . S
O167 Mg154 2.010 . S
O167 C159 1.249 . S
Mg168 O169 2.028 . S
Mg168 O175 1.986 . S
Mg168 O177 2.114 . S
Mg168 O178 2.251 . S
Mg168 O181 2.010 . S
O169 Mg168 2.028 . S
O169 C172 1.250 . S
O170 Mg171 2.028 . S
O170 C172 1.248 . S
Mg171 O170 2.028 . S
Mg171 O176 2.032 . S
Mg171 O178 2.079 . S
C172 O169 1.250 . S
C172 O170 1.248 . S
C173 O174 1.264 . S
C173 O181 1.249 . S
O174 C173 1.264 . S
O175 Mg168 1.986 . S
O175 C179 1.246 . S
O176 Mg171 2.032 . S
O176 C179 1.259 . S
O177 Mg168 2.114 . S
O177 C180 1.252 . S
O178 Mg168 2.251 . S
O178 Mg171 2.079 . S
O178 C180 1.273 . S
C179 O175 1.246 . S
C179 O176 1.259 . S
C180 O177 1.252 . S
C180 O178 1.273 . S
O181 Mg168 2.010 . S
O181 C173 1.249 . S
Mg182 O183 2.028 . S
Mg182 O189 1.986 . S
Mg182 O191 2.114 . S
Mg182 O192 2.251 . S
Mg182 O195 2.010 . S
O183 Mg182 2.028 . S
O183 C186 1.250 . S
O184 Mg185 2.028 . S
O184 C186 1.248 . S
Mg185 O184 2.028 . S
Mg185 O190 2.032 . S
Mg185 O192 2.079 . S
C186 O183 1.250 . S
C186 O184 1.248 . S
C187 O188 1.264 . S
C187 O195 1.249 . S
O188 C187 1.264 . S
O189 Mg182 1.986 . S
O189 C193 1.246 . S
O190 Mg185 2.032 . S
O190 C193 1.259 . S
O191 Mg182 2.114 . S
O191 C194 1.252 . S
O192 Mg182 2.251 . S
O192 Mg185 2.079 . S
O192 C194 1.273 . S
C193 O189 1.246 . S
C193 O190 1.259 . S
C194 O191 1.252 . S
C194 O192 1.273 . S
O195 Mg182 2.010 . S
O195 C187 1.249 . S
Mg196 O197 2.028 . S
Mg196 O203 1.986 . S
Mg196 O205 2.114 . S
Mg196 O206 2.251 . S
Mg196 O209 2.010 . S
O197 Mg196 2.028 . S
O197 C200 1.250 . S
O198 Mg199 2.028 . S
O198 C200 1.248 . S
Mg199 O198 2.028 . S
Mg199 O204 2.032 . S
Mg199 O206 2.079 . S
C200 O197 1.250 . S
C200 O198 1.248 . S
C201 O202 1.264 . S
C201 O209 1.249 . S
O202 C201 1.264 . S
O203 Mg196 1.986 . S
O203 C207 1.246 . S
O204 Mg199 2.032 . S
O204 C207 1.259 . S
O205 Mg196 2.114 . S
O205 C208 1.252 . S
O206 Mg196 2.251 . S
O206 Mg199 2.079 . S
O206 C208 1.273 . S
C207 O203 1.246 . S
C207 O204 1.259 . S
C208 O205 1.252 . S
C208 O206 1.273 . S
O209 Mg196 2.010 . S
O209 C201 1.249 . S
Mg210 O211 2.028 . S
Mg210 O217 1.986 . S
Mg210 O219 2.114 . S
Mg210 O220 2.251 . S
Mg210 O223 2.010 . S
O211 Mg210 2.028 . S
O211 C214 1.250 . S
O212 Mg213 2.028 . S
O212 C214 1.248 . S
Mg213 O212 2.028 . S
Mg213 O218 2.032 . S
Mg213 O220 2.079 . S
C214 O211 1.250 . S
C214 O212 1.248 . S
C215 O216 1.264 . S
C215 O223 1.249 . S
O216 C215 1.264 . S
O217 Mg210 1.986 . S
O217 C221 1.246 . S
O218 Mg213 2.032 . S
O218 C221 1.259 . S
O219 Mg210 2.114 . S
O219 C222 1.252 . S
O220 Mg210 2.251 . S
O220 Mg213 2.079 . S
O220 C222 1.273 . S
C221 O217 1.246 . S
C221 O218 1.259 . S
C222 O219 1.252 . S
C222 O220 1.273 . S
O223 Mg210 2.010 . S
O223 C215 1.249 . S
C224 C225 1.391 . S
C224 C226 1.394 . S
C224 H240 0.931 . S
C225 C224 1.391 . S
C225 C229 1.376 . S
C226 C224 1.394 . S
C226 C227 1.369 . S
C226 C230 1.531 . S
C227 C226 1.369 . S
C227 C228 1.410 1_554 S
C227 C235 1.503 1_554 S
C228 C227 1.410 1_556 S
C228 C229 1.392 1_556 S
C228 C231 1.511 . S
C229 C225 1.376 . S
C229 C228 1.392 1_554 S
C229 H241 0.929 1_554 S
C230 C226 1.531 . S
C230 H242 0.960 . S
C230 H243 0.962 . S
C230 H244 0.960 . S
C231 C228 1.511 . S
C231 H245 0.961 . S
C231 H246 0.961 . S
C231 H247 0.961 . S
C232 C233 1.370 . S
C232 C234 1.363 . S
C232 H248 0.931 . S
C233 C232 1.370 . S
C233 C237 1.408 . S
C234 C232 1.363 . S
C234 C235 1.370 . S
C234 C238 1.524 . S
C235 C227 1.503 1_556 S
C235 C234 1.370 . S
C235 C236 1.403 . S
C236 C235 1.403 . S
C236 C237 1.404 . S
C236 C239 1.539 . S
C237 C233 1.408 . S
C237 C236 1.404 . S
C237 H249 0.930 . S
C238 C234 1.524 . S
C238 H250 0.956 1_556 S
C238 H251 0.961 . S
C238 H252 0.961 . S
C239 C236 1.539 . S
C239 H253 0.958 1_556 S
C239 H254 0.961 . S
C239 H255 0.960 . S
H240 C224 0.931 . S
H241 C229 0.929 1_556 S
H242 C230 0.960 . S
H243 C230 0.962 . S
H244 C230 0.960 . S
H245 C231 0.961 . S
H246 C231 0.961 . S
H247 C231 0.961 . S
H248 C232 0.931 . S
H249 C237 0.930 . S
H250 C238 0.956 1_554 S
H251 C238 0.961 . S
H252 C238 0.961 . S
H253 C239 0.958 1_554 S
H254 C239 0.961 . S
H255 C239 0.960 . S
C256 C257 1.391 . S
C256 C258 1.394 . S
C256 H272 0.931 . S
C257 C256 1.391 . S
C257 C261 1.376 . S
C258 C256 1.394 . S
C258 C259 1.369 . S
C258 C262 1.531 . S
C259 C258 1.369 . S
C259 C260 1.410 . S
C259 C267 1.503 . S
C260 C259 1.410 . S
C260 C261 1.392 . S
C260 C263 1.511 . S
C261 C257 1.376 . S
C261 C260 1.392 . S
C261 H273 0.929 . S
C262 C258 1.531 . S
C262 H274 0.960 . S
C262 H275 0.962 . S
C262 H276 0.960 . S
C263 C260 1.511 . S
C263 H277 0.961 . S
C263 H278 0.961 . S
C263 H279 0.961 . S
C264 C265 1.370 . S
C264 C266 1.363 . S
C264 H280 0.931 . S
C265 C264 1.370 . S
C265 C269 1.408 . S
C266 C264 1.363 . S
C266 C267 1.370 . S
C266 C270 1.524 . S
C267 C259 1.503 . S
C267 C266 1.370 . S
C267 C268 1.403 . S
C268 C267 1.403 . S
C268 C269 1.404 . S
C268 C271 1.539 . S
C269 C265 1.408 . S
C269 C268 1.404 . S
C269 H281 0.930 . S
C270 C266 1.524 . S
C270 H282 0.956 . S
C270 H283 0.961 . S
C270 H284 0.961 . S
C271 C268 1.539 . S
C271 H285 0.958 . S
C271 H286 0.961 . S
C271 H287 0.960 . S
H272 C256 0.931 . S
H273 C261 0.929 . S
H274 C262 0.960 . S
H275 C262 0.962 . S
H276 C262 0.960 . S
H277 C263 0.961 . S
H278 C263 0.961 . S
H279 C263 0.961 . S
H280 C264 0.931 . S
H281 C269 0.930 . S
H282 C270 0.956 . S
H283 C270 0.961 . S
H284 C270 0.961 . S
H285 C271 0.958 . S
H286 C271 0.961 . S
H287 C271 0.960 . S
C288 C289 1.391 . S
C288 C290 1.394 1_556 S
C288 H304 0.931 . S
C289 C288 1.391 . S
C289 C293 1.376 . S
C290 C288 1.394 1_554 S
C290 C291 1.369 1_554 S
C290 C294 1.531 . S
C291 C290 1.369 1_556 S
C291 C292 1.410 . S
C291 C299 1.503 1_556 S
C292 C291 1.410 . S
C292 C293 1.392 . S
C292 C295 1.511 . S
C293 C289 1.376 . S
C293 C292 1.392 . S
C293 H305 0.929 . S
C294 C290 1.531 . S
C294 H306 0.960 . S
C294 H307 0.962 . S
C294 H308 0.960 . S
C295 C292 1.511 . S
C295 H309 0.961 . S
C295 H310 0.961 . S
C295 H311 0.961 . S
C296 C297 1.370 . S
C296 C298 1.363 1_554 S
C296 H312 0.931 . S
C297 C296 1.370 . S
C297 C301 1.408 . S
C298 C296 1.363 1_556 S
C298 C299 1.370 1_556 S
C298 C302 1.524 . S
C299 C291 1.503 1_554 S
C299 C298 1.370 1_554 S
C299 C300 1.403 . S
C300 C299 1.403 . S
C300 C301 1.404 . S
C300 C303 1.539 . S
C301 C297 1.408 . S
C301 C300 1.404 . S
C301 H313 0.930 . S
C302 C298 1.524 . S
C302 H314 0.956 . S
C302 H315 0.961 . S
C302 H316 0.961 . S
C303 C300 1.539 . S
C303 H317 0.958 . S
C303 H318 0.961 . S
C303 H319 0.960 . S
H304 C288 0.931 . S
H305 C293 0.929 . S
H306 C294 0.960 . S
H307 C294 0.962 . S
H308 C294 0.960 . S
H309 C295 0.961 . S
H310 C295 0.961 . S
H311 C295 0.961 . S
H312 C296 0.931 . S
H313 C301 0.930 . S
H314 C302 0.956 . S
H315 C302 0.961 . S
H316 C302 0.961 . S
H317 C303 0.958 . S
H318 C303 0.961 . S
H319 C303 0.960 . S
C320 C321 1.391 . S
C320 C322 1.394 . S
C320 H336 0.931 . S
C321 C320 1.391 . S
C321 C325 1.376 . S
C322 C320 1.394 . S
C322 C323 1.369 . S
C322 C326 1.531 . S
C323 C322 1.369 . S
C323 C324 1.410 . S
C323 C331 1.503 . S
C324 C323 1.410 . S
C324 C325 1.392 . S
C324 C327 1.511 . S
C325 C321 1.376 . S
C325 C324 1.392 . S
C325 H337 0.929 . S
C326 C322 1.531 . S
C326 H338 0.960 . S
C326 H339 0.962 . S
C326 H340 0.960 . S
C327 C324 1.511 . S
C327 H341 0.961 . S
C327 H342 0.961 . S
C327 H343 0.961 . S
C328 C329 1.370 . S
C328 C330 1.363 . S
C328 H344 0.931 . S
C329 C328 1.370 . S
C329 C333 1.408 . S
C330 C328 1.363 . S
C330 C331 1.370 . S
C330 C334 1.524 . S
C331 C323 1.503 . S
C331 C330 1.370 . S
C331 C332 1.403 . S
C332 C331 1.403 . S
C332 C333 1.404 . S
C332 C335 1.539 . S
C333 C329 1.408 . S
C333 C332 1.404 . S
C333 H345 0.930 . S
C334 C330 1.524 . S
C334 H346 0.956 . S
C334 H347 0.961 . S
C334 H348 0.961 . S
C335 C332 1.539 . S
C335 H349 0.958 . S
C335 H350 0.961 . S
C335 H351 0.960 . S
H336 C320 0.931 . S
H337 C325 0.929 . S
H338 C326 0.960 . S
H339 C326 0.962 . S
H340 C326 0.960 . S
H341 C327 0.961 . S
H342 C327 0.961 . S
H343 C327 0.961 . S
H344 C328 0.931 . S
H345 C333 0.930 . S
H346 C334 0.956 . S
H347 C334 0.961 . S
H348 C334 0.961 . S
H349 C335 0.958 . S
H350 C335 0.961 . S
H351 C335 0.960 . S
C352 C353 1.391 . S
C352 C354 1.394 . S
C352 H368 0.931 . S
C353 C352 1.391 . S
C353 C357 1.376 . S
C354 C352 1.394 . S
C354 C355 1.369 . S
C354 C358 1.531 . S
C355 C354 1.369 . S
C355 C356 1.410 1_554 S
C355 C363 1.503 1_554 S
C356 C355 1.410 1_556 S
C356 C357 1.392 1_556 S
C356 C359 1.511 . S
C357 C353 1.376 . S
C357 C356 1.392 1_554 S
C357 H369 0.917 1_554 S
C358 C354 1.531 . S
C358 H370 0.960 . S
C358 H371 0.962 . S
C358 H372 0.960 . S
C359 C356 1.511 . S
C359 H373 0.961 . S
C359 H374 0.961 . S
C359 H375 0.961 . S
C360 C361 1.370 . S
C360 C362 1.363 . S
C360 H376 0.931 . S
C361 C360 1.370 . S
C361 C365 1.408 . S
C362 C360 1.363 . S
C362 C363 1.370 . S
C362 C366 1.524 1_556 S
C363 C355 1.503 1_556 S
C363 C362 1.370 . S
C363 C364 1.403 . S
C364 C363 1.403 . S
C364 C365 1.404 . S
C364 C367 1.539 . S
C365 C361 1.408 . S
C365 C364 1.404 . S
C365 H377 0.930 . S
C366 C362 1.524 1_554 S
C366 H378 0.956 . S
C366 H379 0.961 . S
C366 H380 0.961 . S
C367 C364 1.539 . S
C367 H381 0.958 . S
C367 H382 0.961 . S
C367 H383 0.960 . S
H368 C352 0.931 . S
H369 C357 0.917 1_556 S
H370 C358 0.960 . S
H371 C358 0.962 . S
H372 C358 0.960 . S
H373 C359 0.961 . S
H374 C359 0.961 . S
H375 C359 0.961 . S
H376 C360 0.931 . S
H377 C365 0.930 . S
H378 C366 0.956 . S
H379 C366 0.961 . S
H380 C366 0.961 . S
H381 C367 0.958 . S
H382 C367 0.961 . S
H383 C367 0.960 . S
C384 C385 1.391 . S
C384 C386 1.394 . S
C384 H400 0.931 . S
C385 C384 1.391 . S
C385 C389 1.376 . S
C386 C384 1.394 . S
C386 C387 1.369 . S
C386 C390 1.531 . S
C387 C386 1.369 . S
C387 C388 1.410 . S
C387 C395 1.503 . S
C388 C387 1.410 . S
C388 C389 1.392 . S
C388 C391 1.511 . S
C389 C385 1.376 . S
C389 C388 1.392 . S
C389 H401 0.929 . S
C390 C386 1.531 . S
C390 H402 0.960 . S
C390 H403 0.962 . S
C390 H404 0.960 . S
C391 C388 1.511 . S
C391 H405 0.961 . S
C391 H406 0.961 . S
C391 H407 0.961 . S
C392 C393 1.370 . S
C392 C394 1.363 . S
C392 H408 0.931 . S
C393 C392 1.370 . S
C393 C397 1.408 . S
C394 C392 1.363 . S
C394 C395 1.370 . S
C394 C398 1.524 . S
C395 C387 1.503 . S
C395 C394 1.370 . S
C395 C396 1.403 . S
C396 C395 1.403 . S
C396 C397 1.404 . S
C396 C399 1.539 . S
C397 C393 1.408 . S
C397 C396 1.404 . S
C397 H409 0.930 . S
C398 C394 1.524 . S
C398 H410 0.956 . S
C398 H411 0.961 . S
C398 H412 0.961 . S
C399 C396 1.539 . S
C399 H413 0.958 . S
C399 H414 0.961 . S
C399 H415 0.960 . S
H400 C384 0.931 . S
H401 C389 0.929 . S
H402 C390 0.960 . S
H403 C390 0.962 . S
H404 C390 0.960 . S
H405 C391 0.961 . S
H406 C391 0.961 . S
H407 C391 0.961 . S
H408 C392 0.931 . S
H409 C397 0.930 . S
H410 C398 0.956 . S
H411 C398 0.961 . S
H412 C398 0.961 . S
H413 C399 0.958 . S
H414 C399 0.961 . S
H415 C399 0.960 . S
C416 C417 1.391 . S
C416 C418 1.394 . S
C416 H432 0.931 . S
C417 C416 1.391 . S
C417 C421 1.376 . S
C418 C416 1.394 . S
C418 C419 1.369 . S
C418 C422 1.531 . S
C419 C418 1.369 . S
C419 C420 1.410 . S
C419 C427 1.503 1_556 S
C420 C419 1.410 . S
C420 C421 1.392 . S
C420 C423 1.511 1_556 S
C421 C417 1.376 . S
C421 C420 1.392 . S
C421 H433 0.929 . S
C422 C418 1.531 . S
C422 H434 0.960 1_556 S
C422 H435 0.962 . S
C422 H436 0.960 . S
C423 C420 1.511 1_554 S
C423 H437 0.961 1_554 S
C423 H438 0.961 . S
C423 H439 0.961 . S
C424 C425 1.370 . S
C424 C426 1.363 1_554 S
C424 H440 0.931 1_554 S
C425 C424 1.370 . S
C425 C429 1.408 . S
C426 C424 1.363 1_556 S
C426 C427 1.370 1_556 S
C426 C430 1.524 . S
C427 C419 1.503 1_554 S
C427 C426 1.370 1_554 S
C427 C428 1.403 . S
C428 C427 1.403 . S
C428 C429 1.404 . S
C428 C431 1.539 . S
C429 C425 1.408 . S
C429 C428 1.404 . S
C429 H441 0.930 . S
C430 C426 1.524 . S
C430 H442 0.956 . S
C430 H443 0.961 . S
C430 H444 0.961 . S
C431 C428 1.539 . S
C431 H445 0.958 . S
C431 H446 0.961 . S
C431 H447 0.960 . S
H432 C416 0.931 . S
H433 C421 0.929 . S
H434 C422 0.960 1_554 S
H435 C422 0.962 . S
H436 C422 0.960 . S
H437 C423 0.961 1_556 S
H438 C423 0.961 . S
H439 C423 0.961 . S
H440 C424 0.931 1_556 S
H441 C429 0.930 . S
H442 C430 0.956 . S
H443 C430 0.961 . S
H444 C430 0.961 . S
H445 C431 0.958 . S
H446 C431 0.961 . S
H447 C431 0.960 . S
C448 C449 1.391 . S
C448 C450 1.394 . S
C448 H464 0.931 . S
C449 C448 1.391 . S
C449 C453 1.376 . S
C450 C448 1.394 . S
C450 C451 1.369 . S
C450 C454 1.531 . S
C451 C450 1.369 . S
C451 C452 1.410 . S
C451 C459 1.503 . S
C452 C451 1.410 . S
C452 C453 1.392 . S
C452 C455 1.511 . S
C453 C449 1.376 . S
C453 C452 1.392 . S
C453 H465 0.929 . S
C454 C450 1.531 . S
C454 H466 0.960 . S
C454 H467 0.962 . S
C454 H468 0.960 . S
C455 C452 1.511 . S
C455 H469 0.961 . S
C455 H470 0.961 . S
C455 H471 0.961 . S
C456 C457 1.370 . S
C456 C458 1.363 . S
C456 H472 0.931 . S
C457 C456 1.370 . S
C457 C461 1.408 . S
C458 C456 1.363 . S
C458 C459 1.370 . S
C458 C462 1.524 . S
C459 C451 1.503 . S
C459 C458 1.370 . S
C459 C460 1.403 . S
C460 C459 1.403 . S
C460 C461 1.404 . S
C460 C463 1.539 . S
C461 C457 1.408 . S
C461 C460 1.404 . S
C461 H473 0.930 . S
C462 C458 1.524 . S
C462 H474 0.956 . S
C462 H475 0.961 . S
C462 H476 0.961 . S
C463 C460 1.539 . S
C463 H477 0.958 . S
C463 H478 0.961 . S
C463 H479 0.960 . S
H464 C448 0.931 . S
H465 C453 0.929 . S
H466 C454 0.960 . S
H467 C454 0.962 . S
H468 C454 0.960 . S
H469 C455 0.961 . S
H470 C455 0.961 . S
H471 C455 0.961 . S
H472 C456 0.931 . S
H473 C461 0.930 . S
H474 C462 0.956 . S
H475 C462 0.961 . S
H476 C462 0.961 . S
H477 C463 0.958 . S
H478 C463 0.961 . S
H479 C463 0.960 . S
C480 C481 1.391 . S
C480 C482 1.394 . S
C480 H496 0.931 . S
C481 C480 1.391 . S
C481 C485 1.376 . S
C482 C480 1.394 . S
C482 C483 1.369 . S
C482 C486 1.531 1_545 S
C483 C482 1.369 . S
C483 C484 1.410 . S
C483 C491 1.503 1_544 S
C484 C483 1.410 . S
C484 C485 1.392 . S
C484 C487 1.511 1_554 S
C485 C481 1.376 . S
C485 C484 1.392 . S
C485 H497 0.929 . S
C486 C482 1.531 1_565 S
C486 H498 0.960 . S
C486 H499 0.962 . S
C486 H500 0.960 . S
C487 C484 1.511 1_556 S
C487 H501 0.961 . S
C487 H502 0.961 . S
C487 H503 0.961 1_556 S
C488 C489 1.370 . S
C488 C490 1.363 . S
C488 H504 0.931 . S
C489 C488 1.370 . S
C489 C493 1.408 . S
C490 C488 1.363 . S
C490 C491 1.370 . S
C490 C494 1.524 1_565 S
C491 C483 1.503 1_566 S
C491 C490 1.370 . S
C491 C492 1.403 1_556 S
C492 C491 1.403 1_554 S
C492 C493 1.404 1_554 S
C492 C495 1.539 . S
C493 C489 1.408 . S
C493 C492 1.404 1_556 S
C493 H505 0.930 . S
C494 C490 1.524 1_545 S
C494 H506 0.956 . S
C494 H507 0.961 . S
C494 H508 0.961 . S
C495 C492 1.539 . S
C495 H509 0.958 . S
C495 H510 0.961 . S
C495 H511 0.960 . S
H496 C480 0.931 . S
H497 C485 0.929 . S
H498 C486 0.960 . S
H499 C486 0.962 . S
H500 C486 0.960 . S
H501 C487 0.961 . S
H502 C487 0.961 . S
H503 C487 0.961 1_554 S
H504 C488 0.931 . S
H505 C493 0.930 . S
H506 C494 0.956 . S
H507 C494 0.961 . S
H508 C494 0.961 . S
H509 C495 0.958 . S
H510 C495 0.961 . S
H511 C495 0.960 . S
C512 C513 1.391 . S
C512 C514 1.394 . S
C512 H528 0.931 . S
C513 C512 1.391 . S
C513 C517 1.376 . S
C514 C512 1.394 . S
C514 C515 1.369 . S
C514 C518 1.531 1_565 S
C515 C514 1.369 . S
C515 C516 1.410 . S
C515 C523 1.503 1_565 S
C516 C515 1.410 . S
C516 C517 1.392 . S
C516 C519 1.511 . S
C517 C513 1.376 . S
C517 C516 1.392 . S
C517 H529 0.929 . S
C518 C514 1.531 1_545 S
C518 H530 0.960 . S
C518 H531 0.962 1_545 S
C518 H532 0.964 . S
C519 C516 1.511 . S
C519 H533 0.961 . S
C519 H534 0.961 . S
C519 H535 0.961 . S
C520 C521 1.370 . S
C520 C522 1.363 . S
C520 H536 0.931 . S
C521 C520 1.370 . S
C521 C525 1.408 . S
C522 C520 1.363 . S
C522 C523 1.370 . S
C522 C526 1.524 1_545 S
C523 C515 1.503 1_545 S
C523 C522 1.370 . S
C523 C524 1.403 . S
C524 C523 1.403 . S
C524 C525 1.404 . S
C524 C527 1.539 . S
C525 C521 1.408 . S
C525 C524 1.404 . S
C525 H537 0.930 . S
C526 C522 1.524 1_565 S
C526 H538 0.956 . S
C526 H539 0.961 . S
C526 H540 0.961 . S
C527 C524 1.539 . S
C527 H541 0.958 . S
C527 H542 0.961 . S
C527 H543 0.960 . S
H528 C512 0.931 . S
H529 C517 0.929 . S
H530 C518 0.960 . S
H531 C518 0.962 1_565 S
H532 C518 0.964 . S
H533 C519 0.961 . S
H534 C519 0.961 . S
H535 C519 0.961 . S
H536 C520 0.931 . S
H537 C525 0.930 . S
H538 C526 0.956 . S
H539 C526 0.961 . S
H540 C526 0.961 . S
H541 C527 0.958 . S
H542 C527 0.961 . S
H543 C527 0.960 . S
C544 C545 1.391 . S
C544 C546 1.405 . S
C544 H560 0.931 . S
C545 C544 1.391 . S
C545 C549 1.376 . S
C546 C544 1.405 . S
C546 C547 1.372 . S
C546 C550 1.517 1_556 S
C547 C546 1.372 . S
C547 C548 1.410 . S
C547 C555 1.503 1_566 S
C548 C547 1.410 . S
C548 C549 1.392 . S
C548 C551 1.511 1_565 S
C549 C545 1.376 . S
C549 C548 1.392 . S
C549 H561 0.929 . S
C550 C546 1.517 1_554 S
C550 H562 0.960 . S
C550 H563 0.962 . S
C550 H564 0.960 . S
C551 C548 1.511 1_545 S
C551 H565 0.961 . S
C551 H566 0.961 . S
C551 H567 0.955 1_545 S
C552 C553 1.370 . S
C552 C554 1.363 . S
C552 H568 0.931 . S
C553 C552 1.370 . S
C553 C557 1.408 . S
C554 C552 1.363 . S
C554 C555 1.370 . S
C554 C558 1.524 1_554 S
C555 C547 1.503 1_544 S
C555 C554 1.370 . S
C555 C556 1.403 . S
C556 C555 1.403 . S
C556 C557 1.404 . S
C556 C559 1.539 1_545 S
C557 C553 1.408 . S
C557 C556 1.404 . S
C557 H569 0.930 . S
C558 C554 1.524 1_556 S
C558 H570 0.956 . S
C558 H571 0.961 . S
C558 H572 0.961 . S
C559 C556 1.539 1_565 S
C559 H573 0.958 . S
C559 H574 0.961 . S
C559 H575 0.960 . S
H560 C544 0.931 . S
H561 C549 0.929 . S
H562 C550 0.960 . S
H563 C550 0.962 . S
H564 C550 0.960 . S
H565 C551 0.961 . S
H566 C551 0.961 . S
H567 C551 0.955 1_565 S
H568 C552 0.931 . S
H569 C557 0.930 . S
H570 C558 0.956 . S
H571 C558 0.961 . S
H572 C558 0.961 . S
H573 C559 0.958 . S
H574 C559 0.961 . S
H575 C559 0.960 . S
C576 C577 1.391 . S
C576 C578 1.394 . S
C576 H592 0.931 . S
C577 C576 1.391 . S
C577 C581 1.376 . S
C578 C576 1.394 . S
C578 C579 1.369 . S
C578 C582 1.531 1_545 S
C579 C578 1.369 . S
C579 C580 1.410 . S
C579 C587 1.503 1_545 S
C580 C579 1.410 . S
C580 C581 1.392 . S
C580 C583 1.511 . S
C581 C577 1.376 . S
C581 C580 1.392 . S
C581 H593 0.929 . S
C582 C578 1.531 1_565 S
C582 H594 0.960 . S
C582 H595 0.962 . S
C582 H596 0.960 . S
C583 C580 1.511 . S
C583 H597 0.961 . S
C583 H598 0.961 . S
C583 H599 0.961 . S
C584 C585 1.370 . S
C584 C586 1.363 . S
C584 H600 0.931 . S
C585 C584 1.370 . S
C585 C589 1.408 . S
C586 C584 1.363 . S
C586 C587 1.370 . S
C586 C590 1.524 1_565 S
C587 C579 1.503 1_565 S
C587 C586 1.370 . S
C587 C588 1.403 . S
C588 C587 1.403 . S
C588 C589 1.404 . S
C588 C591 1.539 . S
C589 C585 1.408 . S
C589 C588 1.404 . S
C589 H601 0.930 . S
C590 C586 1.524 1_545 S
C590 H602 0.956 . S
C590 H603 0.961 . S
C590 H604 0.961 . S
C591 C588 1.539 . S
C591 H605 0.958 . S
C591 H606 0.961 . S
C591 H607 0.960 . S
H592 C576 0.931 . S
H593 C581 0.929 . S
H594 C582 0.960 . S
H595 C582 0.962 . S
H596 C582 0.960 . S
H597 C583 0.961 . S
H598 C583 0.961 . S
H599 C583 0.961 . S
H600 C584 0.931 . S
H601 C589 0.930 . S
H602 C590 0.956 . S
H603 C590 0.961 . S
H604 C590 0.961 . S
H605 C591 0.958 . S
H606 C591 0.961 . S
H607 C591 0.960 . S
C608 C609 1.391 . S
C608 C610 1.394 . S
C608 H624 0.931 . S
C609 C608 1.391 . S
C609 C613 1.376 . S
C610 C608 1.394 . S
C610 C611 1.369 . S
C610 C614 1.531 . S
C611 C610 1.369 . S
C611 C612 1.410 . S
C611 C619 1.503 1_556 S
C612 C611 1.410 . S
C612 C613 1.392 . S
C612 C615 1.511 1_556 S
C613 C609 1.376 . S
C613 C612 1.392 . S
C613 H625 0.929 . S
C614 C610 1.531 . S
C614 H626 0.960 . S
C614 H627 0.962 . S
C614 H628 0.960 . S
C615 C612 1.511 1_554 S
C615 H629 0.961 . S
C615 H630 0.961 . S
C615 H631 0.961 1_554 S
C616 C617 1.370 . S
C616 C618 1.363 . S
C616 H632 0.931 . S
C617 C616 1.370 . S
C617 C621 1.408 . S
C618 C616 1.363 . S
C618 C619 1.370 . S
C618 C622 1.524 . S
C619 C611 1.503 1_554 S
C619 C618 1.370 . S
C619 C620 1.403 1_554 S
C620 C619 1.403 1_556 S
C620 C621 1.404 1_556 S
C620 C623 1.539 . S
C621 C617 1.408 . S
C621 C620 1.404 1_554 S
C621 H633 0.930 . S
C622 C618 1.524 . S
C622 H634 0.956 . S
C622 H635 0.961 . S
C622 H636 0.961 . S
C623 C620 1.539 . S
C623 H637 0.958 . S
C623 H638 0.961 . S
C623 H639 0.960 . S
H624 C608 0.931 . S
H625 C613 0.929 . S
H626 C614 0.960 . S
H627 C614 0.962 . S
H628 C614 0.960 . S
H629 C615 0.961 . S
H630 C615 0.961 . S
H631 C615 0.961 1_556 S
H632 C616 0.931 . S
H633 C621 0.930 . S
H634 C622 0.956 . S
H635 C622 0.961 . S
H636 C622 0.961 . S
H637 C623 0.958 . S
H638 C623 0.961 . S
H639 C623 0.960 . S
C640 C641 1.391 . S
C640 C642 1.394 . S
C640 H656 0.931 . S
C641 C640 1.391 . S
C641 C645 1.376 . S
C642 C640 1.394 . S
C642 C643 1.369 . S
C642 C646 1.531 . S
C643 C642 1.369 . S
C643 C644 1.410 . S
C643 C651 1.503 . S
C644 C643 1.410 . S
C644 C645 1.392 . S
C644 C647 1.511 . S
C645 C641 1.376 . S
C645 C644 1.392 . S
C645 H657 0.929 . S
C646 C642 1.531 . S
C646 H658 0.960 . S
C646 H659 0.962 . S
C646 H660 0.960 . S
C647 C644 1.511 . S
C647 H661 0.961 . S
C647 H662 0.961 . S
C647 H663 0.961 . S
C648 C649 1.370 . S
C648 C650 1.363 . S
C648 H664 0.931 . S
C649 C648 1.370 . S
C649 C653 1.408 . S
C650 C648 1.363 . S
C650 C651 1.370 . S
C650 C654 1.524 . S
C651 C643 1.503 . S
C651 C650 1.370 . S
C651 C652 1.403 . S
C652 C651 1.403 . S
C652 C653 1.404 . S
C652 C655 1.539 . S
C653 C649 1.408 . S
C653 C652 1.404 . S
C653 H665 0.930 . S
C654 C650 1.524 . S
C654 H666 0.956 . S
C654 H667 0.961 . S
C654 H668 0.961 . S
C655 C652 1.539 . S
C655 H669 0.958 . S
C655 H670 0.961 . S
C655 H671 0.960 . S
H656 C640 0.931 . S
H657 C645 0.929 . S
H658 C646 0.960 . S
H659 C646 0.962 . S
H660 C646 0.960 . S
H661 C647 0.961 . S
H662 C647 0.961 . S
H663 C647 0.961 . S
H664 C648 0.931 . S
H665 C653 0.930 . S
H666 C654 0.956 . S
H667 C654 0.961 . S
H668 C654 0.961 . S
H669 C655 0.958 . S
H670 C655 0.961 . S
H671 C655 0.960 . S
C672 C673 1.391 . S
C672 C674 1.394 1_554 S
C672 H688 0.931 . S
C673 C672 1.391 . S
C673 C677 1.376 . S
C674 C672 1.394 1_556 S
C674 C675 1.369 1_556 S
C674 C678 1.531 . S
C675 C674 1.369 1_554 S
C675 C676 1.410 . S
C675 C683 1.503 1_554 S
C676 C675 1.410 . S
C676 C677 1.392 . S
C676 C679 1.511 . S
C677 C673 1.376 . S
C677 C676 1.392 . S
C677 H689 0.929 . S
C678 C674 1.531 . S
C678 H690 0.960 . S
C678 H691 0.962 . S
C678 H692 0.960 . S
C679 C676 1.511 . S
C679 H693 0.961 . S
C679 H694 0.961 . S
C679 H695 0.961 . S
C680 C681 1.370 . S
C680 C682 1.363 . S
C680 H696 0.931 . S
C681 C680 1.370 . S
C681 C685 1.408 . S
C682 C680 1.363 . S
C682 C683 1.370 . S
C682 C686 1.524 1_556 S
C683 C675 1.503 1_556 S
C683 C682 1.370 . S
C683 C684 1.403 . S
C684 C683 1.403 . S
C684 C685 1.404 . S
C684 C687 1.539 . S
C685 C681 1.408 . S
C685 C684 1.404 . S
C685 H697 0.930 . S
C686 C682 1.524 1_554 S
C686 H698 0.956 . S
C686 H699 0.961 . S
C686 H700 0.961 . S
C687 C684 1.539 . S
C687 H701 0.958 . S
C687 H702 0.961 . S
C687 H703 0.960 . S
H688 C672 0.931 . S
H689 C677 0.929 . S
H690 C678 0.960 . S
H691 C678 0.962 . S
H692 C678 0.960 . S
H693 C679 0.961 . S
H694 C679 0.961 . S
H695 C679 0.961 . S
H696 C680 0.931 . S
H697 C685 0.930 . S
H698 C686 0.956 . S
H699 C686 0.961 . S
H700 C686 0.961 . S
H701 C687 0.958 . S
H702 C687 0.961 . S
H703 C687 0.960 . S
C704 C705 1.391 . S
C704 C706 1.394 . S
C704 H720 0.931 . S
C705 C704 1.391 . S
C705 C709 1.376 . S
C706 C704 1.394 . S
C706 C707 1.369 . S
C706 C710 1.531 . S
C707 C706 1.369 . S
C707 C708 1.410 . S
C707 C715 1.503 . S
C708 C707 1.410 . S
C708 C709 1.392 . S
C708 C711 1.511 . S
C709 C705 1.376 . S
C709 C708 1.392 . S
C709 H721 0.929 . S
C710 C706 1.531 . S
C710 H722 0.960 . S
C710 H723 0.962 . S
C710 H724 0.960 . S
C711 C708 1.511 . S
C711 H725 0.961 . S
C711 H726 0.961 . S
C711 H727 0.961 . S
C712 C713 1.370 . S
C712 C714 1.363 . S
C712 H728 0.931 . S
C713 C712 1.370 . S
C713 C717 1.408 . S
C714 C712 1.363 . S
C714 C715 1.370 . S
C714 C718 1.524 . S
C715 C707 1.503 . S
C715 C714 1.370 . S
C715 C716 1.403 . S
C716 C715 1.403 . S
C716 C717 1.404 . S
C716 C719 1.539 . S
C717 C713 1.408 . S
C717 C716 1.404 . S
C717 H729 0.930 . S
C718 C714 1.524 . S
C718 H730 0.956 . S
C718 H731 0.961 . S
C718 H732 0.961 . S
C719 C716 1.539 . S
C719 H733 0.958 . S
C719 H734 0.961 . S
C719 H735 0.960 . S
H720 C704 0.931 . S
H721 C709 0.929 . S
H722 C710 0.960 . S
H723 C710 0.962 . S
H724 C710 0.960 . S
H725 C711 0.961 . S
H726 C711 0.961 . S
H727 C711 0.961 . S
H728 C712 0.931 . S
H729 C717 0.930 . S
H730 C718 0.956 . S
H731 C718 0.961 . S
H732 C718 0.961 . S
H733 C719 0.958 . S
H734 C719 0.961 . S
H735 C719 0.960 . S
C736 C737 1.391 . S
C736 C738 1.394 . S
C736 H752 0.931 . S
C737 C736 1.391 . S
C737 C741 1.376 . S
C738 C736 1.394 . S
C738 C739 1.369 . S
C738 C742 1.531 . S
C739 C738 1.369 . S
C739 C740 1.410 . S
C739 C747 1.503 . S
C740 C739 1.410 . S
C740 C741 1.392 . S
C740 C743 1.511 . S
C741 C737 1.376 . S
C741 C740 1.392 . S
C741 H753 0.929 . S
C742 C738 1.531 . S
C742 H754 0.960 . S
C742 H755 0.962 . S
C742 H756 0.960 . S
C743 C740 1.511 . S
C743 H757 0.961 . S
C743 H758 0.961 . S
C743 H759 0.961 . S
C744 C745 1.370 . S
C744 C746 1.363 . S
C744 H760 0.931 . S
C745 C744 1.370 . S
C745 C749 1.408 . S
C746 C744 1.363 . S
C746 C747 1.370 . S
C746 C750 1.524 . S
C747 C739 1.503 . S
C747 C746 1.370 . S
C747 C748 1.403 . S
C748 C747 1.403 . S
C748 C749 1.404 . S
C748 C751 1.539 . S
C749 C745 1.408 . S
C749 C748 1.404 . S
C749 H761 0.930 . S
C750 C746 1.524 . S
C750 H762 0.956 . S
C750 H763 0.961 . S
C750 H764 0.961 . S
C751 C748 1.539 . S
C751 H765 0.958 . S
C751 H766 0.961 . S
C751 H767 0.960 . S
H752 C736 0.931 . S
H753 C741 0.929 . S
H754 C742 0.960 . S
H755 C742 0.962 . S
H756 C742 0.960 . S
H757 C743 0.961 . S
H758 C743 0.961 . S
H759 C743 0.961 . S
H760 C744 0.931 . S
H761 C749 0.930 . S
H762 C750 0.956 . S
H763 C750 0.961 . S
H764 C750 0.961 . S
H765 C751 0.958 . S
H766 C751 0.961 . S
H767 C751 0.960 . S
C768 C769 1.391 . S
C768 C770 1.394 . S
C768 H784 0.931 . S
C769 C768 1.391 . S
C769 C773 1.376 . S
C770 C768 1.394 . S
C770 C771 1.369 . S
C770 C774 1.531 . S
C771 C770 1.369 . S
C771 C772 1.410 . S
C771 C779 1.503 1_655 S
C772 C771 1.410 . S
C772 C773 1.392 . S
C772 C775 1.511 . S
C773 C769 1.376 . S
C773 C772 1.392 . S
C773 H785 0.929 . S
C774 C770 1.531 . S
C774 H786 0.960 1_655 S
C774 H787 0.962 . S
C774 H788 0.960 . S
C775 C772 1.511 . S
C775 H789 0.961 . S
C775 H790 0.961 1_655 S
C775 H791 0.961 . S
C776 C777 1.370 . S
C776 C778 1.363 . S
C776 H792 0.931 . S
C777 C776 1.370 . S
C777 C781 1.408 . S
C778 C776 1.363 . S
C778 C779 1.370 . S
C778 C782 1.524 . S
C779 C771 1.503 1_455 S
C779 C778 1.370 . S
C779 C780 1.403 . S
C780 C779 1.403 . S
C780 C781 1.404 . S
C780 C783 1.539 . S
C781 C777 1.408 . S
C781 C780 1.404 . S
C781 H793 0.930 . S
C782 C778 1.524 . S
C782 H794 0.956 . S
C782 H795 0.969 . S
C782 H796 0.961 . S
C783 C780 1.539 . S
C783 H797 0.958 . S
C783 H798 0.961 . S
C783 H799 0.960 . S
H784 C768 0.931 . S
H785 C773 0.929 . S
H786 C774 0.960 1_455 S
H787 C774 0.962 . S
H788 C774 0.960 . S
H789 C775 0.961 . S
H790 C775 0.961 1_455 S
H791 C775 0.961 . S
H792 C776 0.931 . S
H793 C781 0.930 . S
H794 C782 0.956 . S
H795 C782 0.969 . S
H796 C782 0.961 . S
H797 C783 0.958 . S
H798 C783 0.961 . S
H799 C783 0.960 . S
C800 C801 1.391 . S
C800 C802 1.394 . S
C800 H816 0.931 . S
C801 C800 1.391 . S
C801 C805 1.376 . S
C802 C800 1.394 . S
C802 C803 1.369 . S
C802 C806 1.531 . S
C803 C802 1.369 . S
C803 C804 1.410 . S
C803 C811 1.503 . S
C804 C803 1.410 . S
C804 C805 1.392 . S
C804 C807 1.511 . S
C805 C801 1.376 . S
C805 C804 1.392 . S
C805 H817 0.929 . S
C806 C802 1.531 . S
C806 H818 0.960 . S
C806 H819 0.962 . S
C806 H820 0.960 . S
C807 C804 1.511 . S
C807 H821 0.961 . S
C807 H822 0.961 . S
C807 H823 0.961 . S
C808 C809 1.370 . S
C808 C810 1.363 . S
C808 H824 0.931 . S
C809 C808 1.370 . S
C809 C813 1.408 . S
C810 C808 1.363 . S
C810 C811 1.370 . S
C810 C814 1.524 . S
C811 C803 1.503 . S
C811 C810 1.370 . S
C811 C812 1.403 . S
C812 C811 1.403 . S
C812 C813 1.404 . S
C812 C815 1.539 . S
C813 C809 1.408 . S
C813 C812 1.404 . S
C813 H825 0.930 . S
C814 C810 1.524 . S
C814 H826 0.956 . S
C814 H827 0.961 . S
C814 H828 0.961 . S
C815 C812 1.539 . S
C815 H829 0.958 . S
C815 H830 0.961 . S
C815 H831 0.960 . S
H816 C800 0.931 . S
H817 C805 0.929 . S
H818 C806 0.960 . S
H819 C806 0.962 . S
H820 C806 0.960 . S
H821 C807 0.961 . S
H822 C807 0.961 . S
H823 C807 0.961 . S
H824 C808 0.931 . S
H825 C813 0.930 . S
H826 C814 0.956 . S
H827 C814 0.961 . S
H828 C814 0.961 . S
H829 C815 0.958 . S
H830 C815 0.961 . S
H831 C815 0.960 . S
C832 C833 1.391 . S
C832 C834 1.394 . S
C832 H848 0.931 . S
C833 C832 1.391 . S
C833 C837 1.376 . S
C834 C832 1.394 . S
C834 C835 1.369 . S
C834 C838 1.531 . S
C835 C834 1.369 . S
C835 C836 1.410 . S
C835 C843 1.503 1_455 S
C836 C835 1.410 . S
C836 C837 1.392 . S
C836 C839 1.511 . S
C837 C833 1.376 . S
C837 C836 1.392 . S
C837 H849 0.929 . S
C838 C834 1.531 . S
C838 H850 0.928 1_455 S
C838 H851 0.962 . S
C838 H852 0.960 . S
C839 C836 1.511 . S
C839 H853 0.961 . S
C839 H854 0.934 1_455 S
C839 H855 0.961 . S
C840 C841 1.370 . S
C840 C842 1.363 . S
C840 H856 0.931 . S
C841 C840 1.370 . S
C841 C845 1.408 . S
C842 C840 1.363 . S
C842 C843 1.370 . S
C842 C846 1.524 . S
C843 C835 1.503 1_655 S
C843 C842 1.370 . S
C843 C844 1.403 . S
C844 C843 1.403 . S
C844 C845 1.404 . S
C844 C847 1.539 . S
C845 C841 1.408 . S
C845 C844 1.404 . S
C845 H857 0.930 . S
C846 C842 1.524 . S
C846 H858 0.945 1_655 S
C846 H859 0.961 1_655 S
C846 H860 0.961 . S
C847 C844 1.539 . S
C847 H861 0.958 . S
C847 H862 0.961 . S
C847 H863 0.960 1_655 S
H848 C832 0.931 . S
H849 C837 0.929 . S
H850 C838 0.928 1_655 S
H851 C838 0.962 . S
H852 C838 0.960 . S
H853 C839 0.961 . S
H854 C839 0.934 1_655 S
H855 C839 0.961 . S
H856 C840 0.931 . S
H857 C845 0.930 . S
H858 C846 0.945 1_455 S
H859 C846 0.961 1_455 S
H860 C846 0.961 . S
H861 C847 0.958 . S
H862 C847 0.961 . S
H863 C847 0.960 1_455 S
C864 C865 1.391 . S
C864 C866 1.394 . S
C864 H880 0.931 . S
C865 C864 1.391 . S
C865 C869 1.376 . S
C866 C864 1.394 . S
C866 C867 1.369 . S
C866 C870 1.531 . S
C867 C866 1.369 . S
C867 C868 1.410 . S
C867 C875 1.503 1_455 S
C868 C867 1.410 . S
C868 C869 1.392 . S
C868 C871 1.511 . S
C869 C865 1.376 . S
C869 C868 1.392 . S
C869 H881 0.929 . S
C870 C866 1.531 . S
C870 H882 0.960 1_455 S
C870 H883 0.962 . S
C870 H884 0.960 . S
C871 C868 1.511 . S
C871 H885 0.961 . S
C871 H886 0.961 1_455 S
C871 H887 0.961 . S
C872 C873 1.370 . S
C872 C874 1.363 . S
C872 H888 0.931 . S
C873 C872 1.370 . S
C873 C877 1.408 . S
C874 C872 1.363 . S
C874 C875 1.370 . S
C874 C878 1.524 . S
C875 C867 1.503 1_655 S
C875 C874 1.370 . S
C875 C876 1.403 . S
C876 C875 1.403 . S
C876 C877 1.404 . S
C876 C879 1.539 . S
C877 C873 1.408 . S
C877 C876 1.404 . S
C877 H889 0.930 . S
C878 C874 1.524 . S
C878 H890 0.956 . S
C878 H891 0.964 . S
C878 H892 0.961 . S
C879 C876 1.539 . S
C879 H893 0.958 . S
C879 H894 0.961 . S
C879 H895 0.960 . S
H880 C864 0.931 . S
H881 C869 0.929 . S
H882 C870 0.960 1_655 S
H883 C870 0.962 . S
H884 C870 0.960 . S
H885 C871 0.961 . S
H886 C871 0.961 1_655 S
H887 C871 0.961 . S
H888 C872 0.931 . S
H889 C877 0.930 . S
H890 C878 0.956 . S
H891 C878 0.964 . S
H892 C878 0.961 . S
H893 C879 0.958 . S
H894 C879 0.961 . S
H895 C879 0.960 . S
C896 C897 1.391 . S
C896 C898 1.394 . S
C896 H912 0.931 . S
C897 C896 1.391 . S
C897 C901 1.376 . S
C898 C896 1.394 . S
C898 C899 1.369 . S
C898 C902 1.531 . S
C899 C898 1.369 . S
C899 C900 1.410 . S
C899 C907 1.503 . S
C900 C899 1.410 . S
C900 C901 1.392 . S
C900 C903 1.511 . S
C901 C897 1.376 . S
C901 C900 1.392 . S
C901 H913 0.929 . S
C902 C898 1.531 . S
C902 H914 0.960 . S
C902 H915 0.962 . S
C902 H916 0.960 . S
C903 C900 1.511 . S
C903 H917 0.961 . S
C903 H918 0.961 . S
C903 H919 0.961 . S
C904 C905 1.370 . S
C904 C906 1.363 . S
C904 H920 0.931 . S
C905 C904 1.370 . S
C905 C909 1.408 . S
C906 C904 1.363 . S
C906 C907 1.370 . S
C906 C910 1.524 . S
C907 C899 1.503 . S
C907 C906 1.370 . S
C907 C908 1.403 . S
C908 C907 1.403 . S
C908 C909 1.404 . S
C908 C911 1.539 . S
C909 C905 1.408 . S
C909 C908 1.404 . S
C909 H921 0.930 . S
C910 C906 1.524 . S
C910 H922 0.956 . S
C910 H923 0.961 . S
C910 H924 0.961 . S
C911 C908 1.539 . S
C911 H925 0.958 . S
C911 H926 0.961 . S
C911 H927 0.960 . S
H912 C896 0.931 . S
H913 C901 0.929 . S
H914 C902 0.960 . S
H915 C902 0.962 . S
H916 C902 0.960 . S
H917 C903 0.961 . S
H918 C903 0.961 . S
H919 C903 0.961 . S
H920 C904 0.931 . S
H921 C909 0.930 . S
H922 C910 0.956 . S
H923 C910 0.961 . S
H924 C910 0.961 . S
H925 C911 0.958 . S
H926 C911 0.961 . S
H927 C911 0.960 . S
C928 C929 1.391 . S
C928 C930 1.394 . S
C928 H944 0.931 . S
C929 C928 1.391 . S
C929 C933 1.376 . S
C930 C928 1.394 . S
C930 C931 1.369 . S
C930 C934 1.531 . S
C931 C930 1.369 . S
C931 C932 1.410 . S
C931 C939 1.503 1_455 S
C932 C931 1.410 . S
C932 C933 1.392 . S
C932 C935 1.511 . S
C933 C929 1.376 . S
C933 C932 1.392 . S
C933 H945 0.929 . S
C934 C930 1.531 . S
C934 H946 0.960 1_455 S
C934 H947 0.962 . S
C934 H948 0.960 . S
C935 C932 1.511 . S
C935 H949 0.961 . S
C935 H950 0.961 1_455 S
C935 H951 0.961 . S
C936 C937 1.370 . S
C936 C938 1.363 . S
C936 H952 0.931 . S
C937 C936 1.370 . S
C937 C941 1.408 . S
C938 C936 1.363 . S
C938 C939 1.370 . S
C938 C942 1.524 . S
C939 C931 1.503 1_655 S
C939 C938 1.370 . S
C939 C940 1.403 . S
C940 C939 1.403 . S
C940 C941 1.404 . S
C940 C943 1.539 . S
C941 C937 1.408 . S
C941 C940 1.404 . S
C941 H953 0.930 . S
C942 C938 1.524 . S
C942 H954 0.956 . S
C942 H955 0.967 . S
C942 H956 0.961 . S
C943 C940 1.539 . S
C943 H957 0.958 . S
C943 H958 0.961 . S
C943 H959 0.960 . S
H944 C928 0.931 . S
H945 C933 0.929 . S
H946 C934 0.960 1_655 S
H947 C934 0.962 . S
H948 C934 0.960 . S
H949 C935 0.961 . S
H950 C935 0.961 1_655 S
H951 C935 0.961 . S
H952 C936 0.931 . S
H953 C941 0.930 . S
H954 C942 0.956 . S
H955 C942 0.967 . S
H956 C942 0.961 . S
H957 C943 0.958 . S
H958 C943 0.961 . S
H959 C943 0.960 . S
C960 C961 1.391 . S
C960 C962 1.394 . S
C960 H976 0.931 . S
C961 C960 1.391 . S
C961 C965 1.376 . S
C962 C960 1.394 . S
C962 C963 1.369 . S
C962 C966 1.531 . S
C963 C962 1.369 . S
C963 C964 1.410 . S
C963 C971 1.503 . S
C964 C963 1.410 . S
C964 C965 1.392 . S
C964 C967 1.511 . S
C965 C961 1.376 . S
C965 C964 1.392 . S
C965 H977 0.929 . S
C966 C962 1.531 . S
C966 H978 0.960 . S
C966 H979 0.962 . S
C966 H980 0.960 . S
C967 C964 1.511 . S
C967 H981 0.961 . S
C967 H982 0.961 . S
C967 H983 0.961 . S
C968 C969 1.370 . S
C968 C970 1.363 . S
C968 H984 0.931 . S
C969 C968 1.370 . S
C969 C973 1.408 . S
C970 C968 1.363 . S
C970 C971 1.370 . S
C970 C974 1.524 . S
C971 C963 1.503 . S
C971 C970 1.370 . S
C971 C972 1.403 . S
C972 C971 1.403 . S
C972 C973 1.404 . S
C972 C975 1.539 . S
C973 C969 1.408 . S
C973 C972 1.404 . S
C973 H985 0.930 . S
C974 C970 1.524 . S
C974 H986 0.956 . S
C974 H987 0.961 . S
C974 H988 0.961 . S
C975 C972 1.539 . S
C975 H989 0.958 . S
C975 H990 0.961 . S
C975 H991 0.960 . S
H976 C960 0.931 . S
H977 C965 0.929 . S
H978 C966 0.960 . S
H979 C966 0.962 . S
H980 C966 0.960 . S
H981 C967 0.961 . S
H982 C967 0.961 . S
H983 C967 0.961 . S
H984 C968 0.931 . S
H985 C973 0.930 . S
H986 C974 0.956 . S
H987 C974 0.961 . S
H988 C974 0.961 . S
H989 C975 0.958 . S
H990 C975 0.961 . S
H991 C975 0.960 . S
C992 C993 1.391 . S
C992 C994 1.394 . S
C992 H1008 0.931 . S
C993 C992 1.391 . S
C993 C997 1.376 . S
C994 C992 1.394 . S
C994 C995 1.369 . S
C994 C998 1.531 . S
C995 C994 1.369 . S
C995 C996 1.410 . S
C995 C1003 1.503 . S
C996 C995 1.410 . S
C996 C997 1.392 . S
C996 C999 1.511 . S
C997 C993 1.376 . S
C997 C996 1.392 . S
C997 H1009 0.929 . S
C998 C994 1.531 . S
C998 H1010 0.960 . S
C998 H1011 0.962 . S
C998 H1012 0.960 . S
C999 C996 1.511 . S
C999 H1013 0.961 . S
C999 H1014 0.961 . S
C999 H1015 0.961 . S
C1000 C1001 1.370 . S
C1000 C1002 1.363 . S
C1000 H1016 0.931 . S
C1001 C1000 1.370 . S
C1001 C1005 1.408 . S
C1002 C1000 1.363 . S
C1002 C1003 1.370 . S
C1002 C1006 1.524 . S
C1003 C995 1.503 . S
C1003 C1002 1.370 . S
C1003 C1004 1.403 . S
C1004 C1003 1.403 . S
C1004 C1005 1.404 . S
C1004 C1007 1.539 . S
C1005 C1001 1.408 . S
C1005 C1004 1.404 . S
C1005 H1017 0.930 . S
C1006 C1002 1.524 . S
C1006 H1018 0.956 . S
C1006 H1019 0.961 . S
C1006 H1020 0.961 . S
C1007 C1004 1.539 . S
C1007 H1021 0.958 . S
C1007 H1022 0.961 . S
C1007 H1023 0.960 . S
H1008 C992 0.931 . S
H1009 C997 0.929 . S
H1010 C998 0.960 . S
H1011 C998 0.962 . S
H1012 C998 0.960 . S
H1013 C999 0.961 . S
H1014 C999 0.961 . S
H1015 C999 0.961 . S
H1016 C1000 0.931 . S
H1017 C1005 0.930 . S
H1018 C1006 0.956 . S
H1019 C1006 0.961 . S
H1020 C1006 0.961 . S
H1021 C1007 0.958 . S
H1022 C1007 0.961 . S
H1023 C1007 0.960 . S
C1024 C1025 1.391 . S
C1024 C1026 1.394 . S
C1024 H1040 0.931 . S
C1025 C1024 1.391 . S
C1025 C1029 1.376 . S
C1026 C1024 1.394 . S
C1026 C1027 1.369 . S
C1026 C1030 1.531 . S
C1027 C1026 1.369 . S
C1027 C1028 1.410 . S
C1027 C1035 1.503 . S
C1028 C1027 1.410 . S
C1028 C1029 1.392 . S
C1028 C1031 1.511 . S
C1029 C1025 1.376 . S
C1029 C1028 1.392 . S
C1029 H1041 0.929 . S
C1030 C1026 1.531 . S
C1030 H1042 0.960 . S
C1030 H1043 0.962 . S
C1030 H1044 0.960 . S
C1031 C1028 1.511 . S
C1031 H1045 0.961 . S
C1031 H1046 0.961 . S
C1031 H1047 0.961 . S
C1032 C1033 1.370 . S
C1032 C1034 1.363 . S
C1032 H1048 0.931 . S
C1033 C1032 1.370 . S
C1033 C1037 1.408 . S
C1034 C1032 1.363 . S
C1034 C1035 1.370 . S
C1034 C1038 1.524 . S
C1035 C1027 1.503 . S
C1035 C1034 1.370 . S
C1035 C1036 1.403 . S
C1036 C1035 1.403 . S
C1036 C1037 1.404 . S
C1036 C1039 1.539 . S
C1037 C1033 1.408 . S
C1037 C1036 1.404 . S
C1037 H1049 0.930 . S
C1038 C1034 1.524 . S
C1038 H1050 0.956 . S
C1038 H1051 0.961 . S
C1038 H1052 0.961 . S
C1039 C1036 1.539 . S
C1039 H1053 0.958 . S
C1039 H1054 0.961 . S
C1039 H1055 0.960 . S
H1040 C1024 0.931 . S
H1041 C1029 0.929 . S
H1042 C1030 0.960 . S
H1043 C1030 0.962 . S
H1044 C1030 0.960 . S
H1045 C1031 0.961 . S
H1046 C1031 0.961 . S
H1047 C1031 0.961 . S
H1048 C1032 0.931 . S
H1049 C1037 0.930 . S
H1050 C1038 0.956 . S
H1051 C1038 0.961 . S
H1052 C1038 0.961 . S
H1053 C1039 0.958 . S
H1054 C1039 0.961 . S
H1055 C1039 0.960 . S
C1056 C1057 1.391 . S
C1056 C1058 1.394 . S
C1056 H1072 0.931 . S
C1057 C1056 1.391 . S
C1057 C1061 1.376 . S
C1058 C1056 1.394 . S
C1058 C1059 1.369 . S
C1058 C1062 1.531 . S
C1059 C1058 1.369 . S
C1059 C1060 1.410 . S
C1059 C1067 1.503 . S
C1060 C1059 1.410 . S
C1060 C1061 1.392 . S
C1060 C1063 1.511 . S
C1061 C1057 1.376 . S
C1061 C1060 1.392 . S
C1061 H1073 0.929 . S
C1062 C1058 1.531 . S
C1062 H1074 0.960 . S
C1062 H1075 0.962 . S
C1062 H1076 0.960 . S
C1063 C1060 1.511 . S
C1063 H1077 0.961 . S
C1063 H1078 0.961 . S
C1063 H1079 0.961 . S
C1064 C1065 1.370 . S
C1064 C1066 1.363 . S
C1064 H1080 0.931 . S
C1065 C1064 1.370 . S
C1065 C1069 1.408 . S
C1066 C1064 1.363 . S
C1066 C1067 1.370 . S
C1066 C1070 1.524 . S
C1067 C1059 1.503 . S
C1067 C1066 1.370 . S
C1067 C1068 1.403 . S
C1068 C1067 1.403 . S
C1068 C1069 1.404 . S
C1068 C1071 1.539 . S
C1069 C1065 1.408 . S
C1069 C1068 1.404 . S
C1069 H1081 0.930 . S
C1070 C1066 1.524 . S
C1070 H1082 0.956 . S
C1070 H1083 0.961 . S
C1070 H1084 0.961 . S
C1071 C1068 1.539 . S
C1071 H1085 0.958 . S
C1071 H1086 0.961 . S
C1071 H1087 0.960 . S
H1072 C1056 0.931 . S
H1073 C1061 0.929 . S
H1074 C1062 0.960 . S
H1075 C1062 0.962 . S
H1076 C1062 0.960 . S
H1077 C1063 0.961 . S
H1078 C1063 0.961 . S
H1079 C1063 0.961 . S
H1080 C1064 0.931 . S
H1081 C1069 0.930 . S
H1082 C1070 0.956 . S
H1083 C1070 0.961 . S
H1084 C1070 0.961 . S
H1085 C1071 0.958 . S
H1086 C1071 0.961 . S
H1087 C1071 0.960 . S
C1088 C1089 1.391 . S
C1088 C1090 1.394 . S
C1088 H1104 0.931 . S
C1089 C1088 1.391 . S
C1089 C1093 1.376 . S
C1090 C1088 1.394 . S
C1090 C1091 1.369 . S
C1090 C1094 1.531 . S
C1091 C1090 1.369 . S
C1091 C1092 1.410 . S
C1091 C1099 1.503 . S
C1092 C1091 1.410 . S
C1092 C1093 1.392 . S
C1092 C1095 1.511 . S
C1093 C1089 1.376 . S
C1093 C1092 1.392 . S
C1093 H1105 0.929 . S
C1094 C1090 1.531 . S
C1094 H1106 0.960 . S
C1094 H1107 0.962 . S
C1094 H1108 0.960 . S
C1095 C1092 1.511 . S
C1095 H1109 0.961 . S
C1095 H1110 0.961 . S
C1095 H1111 0.961 . S
C1096 C1097 1.370 . S
C1096 C1098 1.363 . S
C1096 H1112 0.931 . S
C1097 C1096 1.370 . S
C1097 C1101 1.408 . S
C1098 C1096 1.363 . S
C1098 C1099 1.370 . S
C1098 C1102 1.524 . S
C1099 C1091 1.503 . S
C1099 C1098 1.370 . S
C1099 C1100 1.403 . S
C1100 C1099 1.403 . S
C1100 C1101 1.404 . S
C1100 C1103 1.539 . S
C1101 C1097 1.408 . S
C1101 C1100 1.404 . S
C1101 H1113 0.930 . S
C1102 C1098 1.524 . S
C1102 H1114 0.956 . S
C1102 H1115 0.961 . S
C1102 H1116 0.961 . S
C1103 C1100 1.539 . S
C1103 H1117 0.958 . S
C1103 H1118 0.961 . S
C1103 H1119 0.960 . S
H1104 C1088 0.931 . S
H1105 C1093 0.929 . S
H1106 C1094 0.960 . S
H1107 C1094 0.962 . S
H1108 C1094 0.960 . S
H1109 C1095 0.961 . S
H1110 C1095 0.961 . S
H1111 C1095 0.961 . S
H1112 C1096 0.931 . S
H1113 C1101 0.930 . S
H1114 C1102 0.956 . S
H1115 C1102 0.961 . S
H1116 C1102 0.961 . S
H1117 C1103 0.958 . S
H1118 C1103 0.961 . S
H1119 C1103 0.960 . S
C1120 C1121 1.391 . S
C1120 C1122 1.394 . S
C1120 H1136 0.931 . S
C1121 C1120 1.391 . S
C1121 C1125 1.376 . S
C1122 C1120 1.394 . S
C1122 C1123 1.369 . S
C1122 C1126 1.531 . S
C1123 C1122 1.369 . S
C1123 C1124 1.410 . S
C1123 C1131 1.503 . S
C1124 C1123 1.410 . S
C1124 C1125 1.392 . S
C1124 C1127 1.511 . S
C1125 C1121 1.376 . S
C1125 C1124 1.392 . S
C1125 H1137 0.929 . S
C1126 C1122 1.531 . S
C1126 H1138 0.960 . S
C1126 H1139 0.962 . S
C1126 H1140 0.960 . S
C1127 C1124 1.511 . S
C1127 H1141 0.961 . S
C1127 H1142 0.961 . S
C1127 H1143 0.961 . S
C1128 C1129 1.370 . S
C1128 C1130 1.363 . S
C1128 H1144 0.931 . S
C1129 C1128 1.370 . S
C1129 C1133 1.408 . S
C1130 C1128 1.363 . S
C1130 C1131 1.370 . S
C1130 C1134 1.524 . S
C1131 C1123 1.503 . S
C1131 C1130 1.370 . S
C1131 C1132 1.403 . S
C1132 C1131 1.403 . S
C1132 C1133 1.404 . S
C1132 C1135 1.539 . S
C1133 C1129 1.408 . S
C1133 C1132 1.404 . S
C1133 H1145 0.930 . S
C1134 C1130 1.524 . S
C1134 H1146 0.956 . S
C1134 H1147 0.961 . S
C1134 H1148 0.961 . S
C1135 C1132 1.539 . S
C1135 H1149 0.958 . S
C1135 H1150 0.961 . S
C1135 H1151 0.960 . S
H1136 C1120 0.931 . S
H1137 C1125 0.929 . S
H1138 C1126 0.960 . S
H1139 C1126 0.962 . S
H1140 C1126 0.960 . S
H1141 C1127 0.961 . S
H1142 C1127 0.961 . S
H1143 C1127 0.961 . S
H1144 C1128 0.931 . S
H1145 C1133 0.930 . S
H1146 C1134 0.956 . S
H1147 C1134 0.961 . S
H1148 C1134 0.961 . S
H1149 C1135 0.958 . S
H1150 C1135 0.961 . S
H1151 C1135 0.960 . S
C1152 C1153 1.391 . S
C1152 C1154 1.394 . S
C1152 H1168 0.931 . S
C1153 C1152 1.391 . S
C1153 C1157 1.376 . S
C1154 C1152 1.394 . S
C1154 C1155 1.369 . S
C1154 C1158 1.531 . S
C1155 C1154 1.369 . S
C1155 C1156 1.410 . S
C1155 C1163 1.503 . S
C1156 C1155 1.410 . S
C1156 C1157 1.392 . S
C1156 C1159 1.511 . S
C1157 C1153 1.376 . S
C1157 C1156 1.392 . S
C1157 H1169 0.929 . S
C1158 C1154 1.531 . S
C1158 H1170 0.960 . S
C1158 H1171 0.962 . S
C1158 H1172 0.960 . S
C1159 C1156 1.511 . S
C1159 H1173 0.961 . S
C1159 H1174 0.961 . S
C1159 H1175 0.961 . S
C1160 C1161 1.370 . S
C1160 C1162 1.363 . S
C1160 H1176 0.931 . S
C1161 C1160 1.370 . S
C1161 C1165 1.408 . S
C1162 C1160 1.363 . S
C1162 C1163 1.370 . S
C1162 C1166 1.524 . S
C1163 C1155 1.503 . S
C1163 C1162 1.370 . S
C1163 C1164 1.403 . S
C1164 C1163 1.403 . S
C1164 C1165 1.404 . S
C1164 C1167 1.539 . S
C1165 C1161 1.408 . S
C1165 C1164 1.404 . S
C1165 H1177 0.930 . S
C1166 C1162 1.524 . S
C1166 H1178 0.956 . S
C1166 H1179 0.961 . S
C1166 H1180 0.961 . S
C1167 C1164 1.539 . S
C1167 H1181 0.958 . S
C1167 H1182 0.961 . S
C1167 H1183 0.960 . S
H1168 C1152 0.931 . S
H1169 C1157 0.929 . S
H1170 C1158 0.960 . S
H1171 C1158 0.962 . S
H1172 C1158 0.960 . S
H1173 C1159 0.961 . S
H1174 C1159 0.961 . S
H1175 C1159 0.961 . S
H1176 C1160 0.931 . S
H1177 C1165 0.930 . S
H1178 C1166 0.956 . S
H1179 C1166 0.961 . S
H1180 C1166 0.961 . S
H1181 C1167 0.958 . S
H1182 C1167 0.961 . S
H1183 C1167 0.960 . S
C1184 C1185 1.391 . S
C1184 C1186 1.394 . S
C1184 H1200 0.931 . S
C1185 C1184 1.391 . S
C1185 C1189 1.376 . S
C1186 C1184 1.394 . S
C1186 C1187 1.369 . S
C1186 C1190 1.531 . S
C1187 C1186 1.369 . S
C1187 C1188 1.410 . S
C1187 C1195 1.503 . S
C1188 C1187 1.410 . S
C1188 C1189 1.392 . S
C1188 C1191 1.511 . S
C1189 C1185 1.376 . S
C1189 C1188 1.392 . S
C1189 H1201 0.929 . S
C1190 C1186 1.531 . S
C1190 H1202 0.960 . S
C1190 H1203 0.962 . S
C1190 H1204 0.960 . S
C1191 C1188 1.511 . S
C1191 H1205 0.961 . S
C1191 H1206 0.961 . S
C1191 H1207 0.961 . S
C1192 C1193 1.370 . S
C1192 C1194 1.363 . S
C1192 H1208 0.931 . S
C1193 C1192 1.370 . S
C1193 C1197 1.408 . S
C1194 C1192 1.363 . S
C1194 C1195 1.370 . S
C1194 C1198 1.524 . S
C1195 C1187 1.503 . S
C1195 C1194 1.370 . S
C1195 C1196 1.403 . S
C1196 C1195 1.403 . S
C1196 C1197 1.404 . S
C1196 C1199 1.539 . S
C1197 C1193 1.408 . S
C1197 C1196 1.404 . S
C1197 H1209 0.930 . S
C1198 C1194 1.524 . S
C1198 H1210 0.956 . S
C1198 H1211 0.961 . S
C1198 H1212 0.961 . S
C1199 C1196 1.539 . S
C1199 H1213 0.958 . S
C1199 H1214 0.961 . S
C1199 H1215 0.960 . S
H1200 C1184 0.931 . S
H1201 C1189 0.929 . S
H1202 C1190 0.960 . S
H1203 C1190 0.962 . S
H1204 C1190 0.960 . S
H1205 C1191 0.961 . S
H1206 C1191 0.961 . S
H1207 C1191 0.961 . S
H1208 C1192 0.931 . S
H1209 C1197 0.930 . S
H1210 C1198 0.956 . S
H1211 C1198 0.961 . S
H1212 C1198 0.961 . S
H1213 C1199 0.958 . S
H1214 C1199 0.961 . S
H1215 C1199 0.960 . S
C1216 C1217 1.391 . S
C1216 C1218 1.394 . S
C1216 H1232 0.931 . S
C1217 C1216 1.391 . S
C1217 C1221 1.376 . S
C1218 C1216 1.394 . S
C1218 C1219 1.369 . S
C1218 C1222 1.531 . S
C1219 C1218 1.369 . S
C1219 C1220 1.410 . S
C1219 C1227 1.503 . S
C1220 C1219 1.410 . S
C1220 C1221 1.392 . S
C1220 C1223 1.511 . S
C1221 C1217 1.376 . S
C1221 C1220 1.392 . S
C1221 H1233 0.929 . S
C1222 C1218 1.531 . S
C1222 H1234 0.960 . S
C1222 H1235 0.962 . S
C1222 H1236 0.960 . S
C1223 C1220 1.511 . S
C1223 H1237 0.961 . S
C1223 H1238 0.961 . S
C1223 H1239 0.961 . S
C1224 C1225 1.370 . S
C1224 C1226 1.363 . S
C1224 H1240 0.931 . S
C1225 C1224 1.370 . S
C1225 C1229 1.408 . S
C1226 C1224 1.363 . S
C1226 C1227 1.370 . S
C1226 C1230 1.524 . S
C1227 C1219 1.503 . S
C1227 C1226 1.370 . S
C1227 C1228 1.403 . S
C1228 C1227 1.403 . S
C1228 C1229 1.404 . S
C1228 C1231 1.539 . S
C1229 C1225 1.408 . S
C1229 C1228 1.404 . S
C1229 H1241 0.930 . S
C1230 C1226 1.524 . S
C1230 H1242 0.956 . S
C1230 H1243 0.961 . S
C1230 H1244 0.961 . S
C1231 C1228 1.539 . S
C1231 H1245 0.958 . S
C1231 H1246 0.961 . S
C1231 H1247 0.960 . S
H1232 C1216 0.931 . S
H1233 C1221 0.929 . S
H1234 C1222 0.960 . S
H1235 C1222 0.962 . S
H1236 C1222 0.960 . S
H1237 C1223 0.961 . S
H1238 C1223 0.961 . S
H1239 C1223 0.961 . S
H1240 C1224 0.931 . S
H1241 C1229 0.930 . S
H1242 C1230 0.956 . S
H1243 C1230 0.961 . S
H1244 C1230 0.961 . S
H1245 C1231 0.958 . S
H1246 C1231 0.961 . S
H1247 C1231 0.960 . S
C225 C11 1.388 . S
C233 C180 1.389 . S
C257 C194 1.383 . S
C265 C25 1.378 . S
C289 C39 1.361 . S
C297 C208 1.385 . S
C321 C222 1.390 . S
C329 C53 1.374 . S
C353 C123 1.388 . S
C361 C68 1.388 . S
C385 C82 1.388 . S
C393 C137 1.367 . S
C417 C151 1.374 . S
C425 C96 1.386 . S
C449 C110 1.381 . S
C457 C165 1.363 . S
C481 C4 1.452 . S
C489 C32 1.452 . S
C513 C18 1.455 . S
C521 C46 1.452 . S
C545 C60 1.368 . S
C553 C88 1.383 . S
C577 C74 1.401 . S
C585 C102 1.393 . S
C609 C144 1.451 . S
C617 C116 1.451 . S
C641 C130 1.452 . S
C649 C158 1.463 . S
C673 C200 1.365 . S
C681 C172 1.380 . S
C705 C186 1.368 . S
C713 C214 1.383 . S
C737 C89 1.359 . S
C745 C5 1.333 . S
C769 C103 1.350 . S
C777 C19 1.331 . S
C801 C33 1.350 . S
C809 C61 1.329 . S
C833 C47 1.259 . S
C841 C75 1.293 . S
C865 C201 1.259 . S
C873 C117 1.286 . S
C897 C131 1.248 . S
C905 C215 1.283 . S
C929 C173 1.252 . S
C937 C145 1.285 . S
C961 C159 1.362 . S
C969 C187 1.332 . S
C993 C12 1.414 . S
C1001 C54 1.417 . S
C1025 C40 1.419 . S
C1033 C26 1.425 . S
C1057 C67 1.313 . S
C1065 C109 1.309 . S
C1089 C81 1.298 . S
C1097 C95 1.320 . S
C1121 C166 1.419 . S
C1129 C124 1.425 . S
C1153 C138 1.415 . S
C1161 C152 1.417 . S
C1185 C221 1.308 . S
C1193 C179 1.317 . S
C1217 C193 1.330 . S
C1225 C207 1.304 . S
