# Generated by pormake.
# Topology unh, (4)-cn, num edge types: 1
# Building blocks:
#     Node 0, Type 0, BuildingBlock: CEKHIL_clean_sbu_0, # of connection points: 4
#     Node 1, Type 0, BuildingBlock: CEKHIL_clean_sbu_0, # of connection points: 4
#     Node 2, Type 0, BuildingBlock: CEKHIL_clean_sbu_0, # of connection points: 4
#     Node 3, Type 0, BuildingBlock: CEKHIL_clean_sbu_0, # of connection points: 4
#     Node 4, Type 0, BuildingBlock: CEKHIL_clean_sbu_0, # of connection points: 4
#     Node 5, Type 0, BuildingBlock: CEKHIL_clean_sbu_0, # of connection points: 4
#     Edge 6, Type (0, 0), BuildingBlock: XUDNAN_clean_linker_2, # of connection points: 2
#     Edge 7, Type (0, 0), BuildingBlock: XUDNAN_clean_linker_2, # of connection points: 2
#     Edge 8, Type (0, 0), BuildingBlock: XUDNAN_clean_linker_2, # of connection points: 2
#     Edge 9, Type (0, 0), BuildingBlock: XUDNAN_clean_linker_2, # of connection points: 2
#     Edge 10, Type (0, 0), BuildingBlock: XUDNAN_clean_linker_2, # of connection points: 2
#     Edge 11, Type (0, 0), BuildingBlock: XUDNAN_clean_linker_2, # of connection points: 2
#     Edge 12, Type (0, 0), BuildingBlock: XUDNAN_clean_linker_2, # of connection points: 2
#     Edge 13, Type (0, 0), BuildingBlock: XUDNAN_clean_linker_2, # of connection points: 2
#     Edge 14, Type (0, 0), BuildingBlock: XUDNAN_clean_linker_2, # of connection points: 2
#     Edge 15, Type (0, 0), BuildingBlock: XUDNAN_clean_linker_2, # of connection points: 2
#     Edge 16, Type (0, 0), BuildingBlock: XUDNAN_clean_linker_2, # of connection points: 2
#     Edge 17, Type (0, 0), BuildingBlock: XUDNAN_clean_linker_2, # of connection points: 2
# Relax obj value: 0.073
# Max RMSD: 0.185
# Mean RMSD: 0.185
data_MOF--net-unh--node1-CEKHIL_clean_sbu_0--edge1-XUDNAN_clean_linker_2
_symmetry_space_group_name_H-M    P1
_symmetry_Int_Tables_number       1
_symmetry_cell_setting            triclinic
loop_
_symmetry_equiv_pos_as_xyz
'x, y, z'
_cell_length_a     41.775214
_cell_length_b     41.77363
_cell_length_c     21.974326
_cell_angle_alpha  89.988846
_cell_angle_beta   90.122754
_cell_angle_gamma 119.94572
loop_
_atom_site_label
_atom_site_type_symbol
_atom_site_fract_x
_atom_site_fract_y
_atom_site_fract_z
_atom_type_partial_charge
Co0 Co 0.12309 0.55679 0.10758 0.0
O1 O 0.08408 0.52386 0.16104 0.0
O2 O 0.08839 0.57419 0.11992 0.0
C3 C 0.16929 0.56123 0.16702 0.0
O4 O 0.16038 0.59833 0.05324 0.0
Co5 Co 0.17333 0.53225 0.04626 0.0
O6 O 0.20558 0.58591 0.03141 0.0
C7 C 0.10001 0.50839 0.99306 0.0
C8 C 0.07136 0.54643 0.15708 0.0
C9 C 0.19254 0.60772 0.03173 0.0
O10 O 0.09487 0.52751 0.03377 0.0
O11 O 0.12862 0.50464 0.99222 0.0
O12 O 0.15403 0.58114 0.17713 0.0
O13 O 0.15415 0.53662 0.12433 0.0
Co14 Co 0.58353 0.12817 0.2705 0.0
O15 O 0.58684 0.09263 0.32023 0.0
O16 O 0.53403 0.08715 0.2889 0.0
C17 C 0.62265 0.17733 0.32759 0.0
O18 O 0.57157 0.16176 0.21906 0.0
Co19 Co 0.6546 0.1823 0.20358 0.0
O20 O 0.62632 0.2076 0.1857 0.0
C21 C 0.60962 0.10813 0.1532 0.0
C22 C 0.55119 0.07385 0.32058 0.0
C23 C 0.59141 0.19284 0.19144 0.0
O24 O 0.58588 0.10206 0.19513 0.0
O25 O 0.64096 0.13789 0.15057 0.0
O26 O 0.58795 0.15755 0.34085 0.0
O27 O 0.63386 0.1645 0.28375 0.0
Co28 Co 0.44404 0.57142 0.42795 0.0
O29 O 0.47632 0.56122 0.47643 0.0
O30 O 0.42061 0.519 0.44516 0.0
C31 C 0.45136 0.61953 0.4847 0.0
O32 O 0.40192 0.57178 0.38105 0.0
Co33 Co 0.47405 0.64585 0.35999 0.0
O34 O 0.42097 0.63051 0.35348 0.0
C35 C 0.4871 0.58805 0.30873 0.0
C36 C 0.44992 0.52707 0.47728 0.0
C37 C 0.39579 0.59693 0.35975 0.0
O38 O 0.46621 0.56523 0.34994 0.0
O39 O 0.49584 0.62211 0.30785 0.0
O40 O 0.42823 0.58595 0.50107 0.0
O41 O 0.47169 0.62319 0.43799 0.0
Co42 Co 0.87207 0.45161 0.61043 0.0
O43 O 0.9121 0.48288 0.66398 0.0
O44 O 0.90248 0.42948 0.62738 0.0
C45 C 0.82748 0.45422 0.66453 0.0
O46 O 0.83249 0.41099 0.55742 0.0
Co47 Co 0.82748 0.48242 0.54332 0.0
O48 O 0.79159 0.42907 0.53218 0.0
C49 C 0.90045 0.49947 0.496 0.0
C50 C 0.92166 0.45775 0.6628 0.0
C51 C 0.80126 0.40463 0.53545 0.0
O52 O 0.9025 0.47786 0.53587 0.0
O53 O 0.87427 0.50701 0.49482 0.0
O54 O 0.83869 0.43142 0.67994 0.0
O55 O 0.84577 0.47686 0.62115 0.0
Co56 Co 0.43632 0.87194 0.78299 0.0
O57 O 0.44592 0.91332 0.83386 0.0
O58 O 0.48771 0.898 0.80801 0.0
C59 C 0.38389 0.83007 0.82932 0.0
O60 O 0.43649 0.83054 0.73443 0.0
Co61 Co 0.36697 0.83559 0.7005 0.0
O62 O 0.38354 0.79964 0.68127 0.0
C63 C 0.43128 0.90448 0.66042 0.0
C64 C 0.47959 0.91973 0.83837 0.0
C65 C 0.41476 0.80427 0.69842 0.0
O66 O 0.44914 0.9031 0.70722 0.0
O67 O 0.39689 0.88193 0.65167 0.0
O68 O 0.41597 0.83873 0.85184 0.0
O69 O 0.38434 0.84985 0.78357 0.0
Co70 Co 0.53799 0.41247 0.92601 0.0
O71 O 0.5055 0.41994 0.97908 0.0
O72 O 0.55936 0.46432 0.94521 0.0
C73 C 0.53438 0.36448 0.97845 0.0
O74 O 0.58023 0.41621 0.87454 0.0
Co75 Co 0.51341 0.34065 0.85354 0.0
O76 O 0.56715 0.3603 0.84071 0.0
C77 C 0.49367 0.39536 0.80836 0.0
C78 C 0.53059 0.45467 0.9794 0.0
C79 C 0.58968 0.39462 0.84838 0.0
O80 O 0.5131 0.41802 0.85099 0.0
O81 O 0.48816 0.36239 0.80449 0.0
O82 O 0.55699 0.39817 0.99543 0.0
O83 O 0.51296 0.36048 0.93308 0.0
H84 H 0.05093 0.5297 0.9558 0.0
H85 H 0.08926 0.45302 0.91316 0.0
H86 H 0.04776 0.43111 0.8234 0.0
H87 H 0.95567 0.47186 0.90901 0.0
H88 H 0.95252 0.51009 0.87775 0.0
H89 H 0.98345 0.51759 0.94024 0.0
H90 H 0.03792 0.56751 0.87727 0.0
H91 H 0.00726 0.55989 0.81432 0.0
H92 H 0.04779 0.55575 0.80342 0.0
H93 H 0.00144 0.41797 0.73695 0.0
H94 H 0.95586 0.41582 0.66203 0.0
H95 H 0.95182 0.50394 0.7598 0.0
C96 C 0.05024 0.50785 0.92828 0.0
C97 C 0.07312 0.4928 0.94202 0.0
C98 C 0.07187 0.46485 0.90379 0.0
C99 C 0.04839 0.45225 0.85267 0.0
C100 C 0.02665 0.46817 0.83996 0.0
C101 C 0.02751 0.49544 0.87676 0.0
C102 C 0.00277 0.50929 0.85216 0.0
C103 C 0.97176 0.50174 0.89749 0.0
C104 C 0.02529 0.55055 0.83582 0.0
C105 C 0.98773 0.48556 0.79576 0.0
C106 C 0.00151 0.46177 0.78951 0.0
C107 C 0.99065 0.43664 0.74134 0.0
C108 C 0.96484 0.43564 0.69894 0.0
C109 C 0.95058 0.45995 0.70465 0.0
C110 C 0.96254 0.48532 0.75356 0.0
H111 H 0.4642 0.95136 0.93362 0.0
H112 H 0.55545 0.95361 0.8362 0.0
H113 H 0.59965 0.00211 0.9066 0.0
H114 H 0.50682 0.0479 0.96725 0.0
H115 H 0.48666 0.04057 0.042 0.0
H116 H 0.46304 0.00717 0.98269 0.0
H117 H 0.46099 0.95573 0.05143 0.0
H118 H 0.48481 0.98903 0.11083 0.0
H119 H 0.50338 0.96115 0.08255 0.0
H120 H 0.63374 0.05258 0.98717 0.0
H121 H 0.65406 0.09725 0.07281 0.0
H122 H 0.5394 0.05741 0.11961 0.0
C123 C 0.4935 0.96223 0.92674 0.0
C124 C 0.50649 0.94907 0.87912 0.0
C125 C 0.54499 0.96347 0.87234 0.0
C126 C 0.57023 0.99099 0.91206 0.0
C127 C 0.55643 0.00328 0.95881 0.0
C128 C 0.51888 0.98903 0.9665 0.0
C129 C 0.51079 0.00578 0.02117 0.0
C130 C 0.49065 0.02659 1.00211 0.0
C131 C 0.4887 0.97616 0.06933 0.0
C132 C 0.54965 0.03208 0.04286 0.0
C133 C 0.57572 0.03058 0.00625 0.0
C134 C 0.6135 0.05367 0.01644 0.0
C135 C 0.62481 0.07896 0.06512 0.0
C136 C 0.59839 0.08055 0.10343 0.0
C137 C 0.56039 0.05651 0.092 0.0
H138 H 0.46009 0.51603 0.27107 0.0
H139 H 0.54364 0.62912 0.23006 0.0
H140 H 0.56302 0.60745 0.14068 0.0
H141 H 0.51367 0.47327 0.22494 0.0
H142 H 0.47437 0.43327 0.19261 0.0
H143 H 0.46808 0.45759 0.25492 0.0
H144 H 0.42063 0.46581 0.19061 0.0
H145 H 0.42708 0.4419 0.12784 0.0
H146 H 0.43397 0.48769 0.11709 0.0
H147 H 0.57315 0.5738 0.05495 0.0
H148 H 0.5739 0.53001 0.98005 0.0
H149 H 0.48256 0.43912 0.07438 0.0
C150 C 0.48277 0.5362 0.24377 0.0
C151 C 0.50038 0.57432 0.25786 0.0
C152 C 0.52963 0.5998 0.22031 0.0
C153 C 0.54087 0.58778 0.16933 0.0
C154 C 0.52251 0.55016 0.1561 0.0
C155 C 0.49416 0.52471 0.19226 0.0
C156 C 0.47856 0.48593 0.16711 0.0
C157 C 0.48401 0.46105 0.2126 0.0
C158 C 0.43763 0.46937 0.14962 0.0
C159 C 0.50256 0.49362 0.11123 0.0
C160 C 0.52781 0.53084 0.10584 0.0
C161 C 0.55344 0.54458 0.05858 0.0
C162 C 0.5536 0.51953 0.01618 0.0
C163 C 0.52814 0.48123 0.02105 0.0
C164 C 0.50208 0.4683 0.06894 0.0
H165 H 0.94521 0.47329 0.45382 0.0
H166 H 0.91629 0.55842 0.42274 0.0
H167 H 0.95544 0.57867 0.33115 0.0
H168 H 0.04087 0.52676 0.40198 0.0
H169 H 0.03998 0.48735 0.36679 0.0
H170 H 0.01128 0.48106 0.43187 0.0
H171 H 0.95375 0.43462 0.37011 0.0
H172 H 0.98217 0.44127 0.30451 0.0
H173 H 0.94343 0.44887 0.29877 0.0
H174 H 0.99626 0.5886 0.24071 0.0
H175 H 0.03881 0.58953 0.16161 0.0
H176 H 0.03959 0.49698 0.25004 0.0
C177 C 0.94766 0.49664 0.42843 0.0
C178 C 0.92771 0.51431 0.44572 0.0
C179 C 0.93124 0.54438 0.4105 0.0
C180 C 0.95337 0.55608 0.35825 0.0
C181 C 0.97178 0.5374 0.3415 0.0
C182 C 0.96942 0.50852 0.37575 0.0
C183 C 0.99141 0.49264 0.34692 0.0
C184 C 0.02275 0.49725 0.38942 0.0
C185 C 0.96617 0.45194 0.32902 0.0
C186 C 0.00639 0.51707 0.29119 0.0
C187 C 0.99477 0.54272 0.28886 0.0
C188 C 0.00554 0.56862 0.24202 0.0
C189 C 0.02954 0.56883 0.19712 0.0
C190 C 0.04234 0.54322 0.19933 0.0
C191 C 0.03003 0.51671 0.2466 0.0
H192 H 0.48144 0.04142 0.37395 0.0
H193 H 0.58061 0.03296 0.3586 0.0
H194 H 0.55937 0.98827 0.44214 0.0
H195 H 0.47501 0.03782 0.53122 0.0
H196 H 0.42561 0.00866 0.53686 0.0
H197 H 0.44551 0.0371 0.47058 0.0
H198 H 0.41294 0.97967 0.40069 0.0
H199 H 0.39221 0.95108 0.46668 0.0
H200 H 0.41904 0.94053 0.41481 0.0
H201 H 0.53444 0.9541 0.53624 0.0
H202 H 0.49929 0.91968 0.62622 0.0
H203 H 0.41217 0.94341 0.57967 0.0
C204 C 0.4979 0.02907 0.38686 0.0
C205 C 0.53281 0.04086 0.35998 0.0
C206 C 0.55393 0.02458 0.37875 0.0
C207 C 0.54216 0.99917 0.42632 0.0
C208 C 0.50878 0.98961 0.45415 0.0
C209 C 0.48622 0.00295 0.43429 0.0
C210 C 0.45194 0.98817 0.47406 0.0
C211 C 0.44939 0.01984 0.505 0.0
C212 C 0.41696 0.96338 0.43684 0.0
C213 C 0.45975 0.96575 0.52023 0.0
C214 C 0.49295 0.96748 0.5078 0.0
C215 C 0.50795 0.95172 0.54585 0.0
C216 C 0.48797 0.93263 0.59726 0.0
C217 C 0.45304 0.92884 0.60981 0.0
C218 C 0.43871 0.94569 0.57078 0.0
H219 H 0.52098 0.4666 0.76861 0.0
H220 H 0.43462 0.35375 0.73388 0.0
H221 H 0.41421 0.37476 0.64436 0.0
H222 H 0.46968 0.51178 0.72164 0.0
H223 H 0.50938 0.55003 0.68681 0.0
H224 H 0.5154 0.5262 0.75022 0.0
H225 H 0.56012 0.51408 0.68568 0.0
H226 H 0.55384 0.53741 0.62179 0.0
H227 H 0.54473 0.49066 0.61355 0.0
H228 H 0.40365 0.40825 0.55747 0.0
H229 H 0.4037 0.45184 0.48093 0.0
H230 H 0.49911 0.5418 0.56972 0.0
C231 C 0.49734 0.4464 0.74285 0.0
C232 C 0.47916 0.40856 0.75859 0.0
C233 C 0.44888 0.38289 0.7228 0.0
C234 C 0.43712 0.39456 0.67183 0.0
C235 C 0.45615 0.43193 0.65678 0.0
C236 C 0.4856 0.45747 0.69128 0.0
C237 C 0.50224 0.49578 0.66403 0.0
C238 C 0.49896 0.52252 0.70831 0.0
C239 C 0.54262 0.51032 0.64514 0.0
C240 C 0.4775 0.48781 0.60897 0.0
C241 C 0.45095 0.45088 0.60566 0.0
C242 C 0.42442 0.43722 0.55946 0.0
C243 C 0.42472 0.46212 0.51609 0.0
C244 C 0.4516 0.5001 0.51894 0.0
C245 C 0.47852 0.51284 0.56569 0.0
H246 H 0.21863 0.53583 0.14798 0.0
H247 H 0.1888 0.59592 0.27569 0.0
H248 H 0.23982 0.60549 0.34267 0.0
H249 H 0.24921 0.49191 0.26336 0.0
H250 H 0.2875 0.49716 0.21818 0.0
H251 H 0.24639 0.49161 0.18146 0.0
H252 H 0.28564 0.5524 0.1218 0.0
H253 H 0.32683 0.55803 0.15804 0.0
H254 H 0.31546 0.59429 0.16293 0.0
H255 H 0.29555 0.61315 0.39252 0.0
H256 H 0.35569 0.61996 0.42156 0.0
H257 H 0.35177 0.55537 0.26455 0.0
C258 C 0.22263 0.55048 0.19048 0.0
C259 C 0.19963 0.565 0.20667 0.0
C260 C 0.20604 0.58458 0.26216 0.0
C261 C 0.23486 0.59002 0.30085 0.0
C262 C 0.25723 0.57575 0.28363 0.0
C263 C 0.25173 0.55646 0.22987 0.0
C264 C 0.28171 0.54639 0.22104 0.0
C265 C 0.26521 0.50426 0.22102 0.0
C266 C 0.30371 0.56383 0.16249 0.0
C267 C 0.30516 0.56382 0.27751 0.0
C268 C 0.29008 0.58021 0.31311 0.0
C269 C 0.30743 0.60001 0.36562 0.0
C270 C 0.34152 0.60378 0.38176 0.0
C271 C 0.35778 0.58776 0.34577 0.0
C272 C 0.33924 0.56704 0.29347 0.0
H273 H 0.69629 0.23173 0.31028 0.0
H274 H 0.60416 0.19365 0.43594 0.0
H275 H 0.6421 0.24456 0.50511 0.0
H276 H 0.76945 0.26419 0.42685 0.0
H277 H 0.8013 0.30462 0.38452 0.0
H278 H 0.768 0.26357 0.34483 0.0
H279 H 0.74347 0.30135 0.28808 0.0
H280 H 0.77681 0.34251 0.32727 0.0
H281 H 0.72836 0.32805 0.33131 0.0
H282 H 0.68675 0.30025 0.55847 0.0
H283 H 0.73743 0.36083 0.59259 0.0
H284 H 0.80273 0.36507 0.43648 0.0
C285 C 0.68439 0.23404 0.35263 0.0
C286 C 0.64724 0.20855 0.36761 0.0
C287 C 0.63246 0.21274 0.42313 0.0
C288 C 0.65385 0.24152 0.46315 0.0
C289 C 0.69013 0.2662 0.44729 0.0
C290 C 0.70549 0.26309 0.39348 0.0
C291 C 0.74481 0.29502 0.38692 0.0
C292 C 0.77253 0.281 0.38572 0.0
C293 C 0.74857 0.3181 0.33002 0.0
C294 C 0.74863 0.31647 0.44501 0.0
C295 C 0.71666 0.29899 0.4791 0.0
C296 C 0.71218 0.31405 0.53277 0.0
C297 C 0.74099 0.34833 0.55182 0.0
C298 C 0.77383 0.3669 0.5176 0.0
C299 C 0.77804 0.35071 0.46396 0.0
H300 H 0.39203 0.76375 0.59326 0.0
H301 H 0.46531 0.78813 0.74814 0.0
H302 H 0.48537 0.74581 0.70716 0.0
H303 H 0.36283 0.66847 0.57924 0.0
H304 H 0.36255 0.66873 0.49721 0.0
H305 H 0.3549 0.70142 0.53867 0.0
H306 H 0.40911 0.75504 0.48039 0.0
H307 H 0.41708 0.7223 0.43942 0.0
H308 H 0.45411 0.75903 0.48203 0.0
H309 H 0.49478 0.69814 0.65181 0.0
H310 H 0.49341 0.64952 0.58519 0.0
H311 H 0.41622 0.65864 0.46483 0.0
C312 C 0.41224 0.76014 0.61868 0.0
C313 C 0.42693 0.77903 0.67416 0.0
C314 C 0.45372 0.77395 0.70555 0.0
C315 C 0.46528 0.75 0.68261 0.0
C316 C 0.45023 0.73183 0.62777 0.0
C317 C 0.42449 0.73684 0.59599 0.0
C318 C 0.41254 0.71407 0.53812 0.0
C319 C 0.37074 0.68653 0.53838 0.0
C320 C 0.4239 0.73911 0.48166 0.0
C321 C 0.43472 0.69454 0.54319 0.0
C322 C 0.45648 0.70533 0.59503 0.0
C323 C 0.47826 0.6899 0.6107 0.0
C324 C 0.47743 0.66248 0.57271 0.0
C325 C 0.4552 0.6511 0.51979 0.0
C326 C 0.43386 0.66748 0.50459 0.0
H327 H 0.62869 0.35925 0.822 0.0
H328 H 0.63606 0.46664 0.81713 0.0
H329 H 0.69773 0.4935 0.77012 0.0
H330 H 0.72518 0.39395 0.8601 0.0
H331 H 0.72871 0.36004 0.81432 0.0
H332 H 0.68505 0.34921 0.84754 0.0
H333 H 0.6546 0.33276 0.74061 0.0
H334 H 0.69822 0.34374 0.70712 0.0
H335 H 0.67378 0.3664 0.68032 0.0
H336 H 0.75669 0.50787 0.71738 0.0
H337 H 0.81184 0.51004 0.67174 0.0
H338 H 0.76834 0.39459 0.71708 0.0
C339 C 0.64332 0.38842 0.81112 0.0
C340 C 0.62745 0.41081 0.82298 0.0
C341 C 0.64767 0.44896 0.80868 0.0
C342 C 0.68267 0.46446 0.78172 0.0
C343 C 0.69736 0.44159 0.77012 0.0
C344 C 0.67859 0.40451 0.78507 0.0
C345 C 0.701 0.38625 0.76885 0.0
C346 C 0.71055 0.3715 0.82612 0.0
C347 C 0.68068 0.35547 0.72141 0.0
C348 C 0.7351 0.41878 0.7419 0.0
C349 C 0.73224 0.45034 0.74247 0.0
C350 C 0.75948 0.48346 0.71739 0.0
C351 C 0.79059 0.48442 0.69144 0.0
C352 C 0.79446 0.45266 0.69168 0.0
C353 C 0.76635 0.41946 0.71732 0.0
H354 H 0.37827 0.77726 0.90786 0.0
H355 H 0.31218 0.81312 0.80775 0.0
H356 H 0.25536 0.76194 0.85354 0.0
H357 H 0.31696 0.68084 0.88976 0.0
H358 H 0.32627 0.66932 0.96431 0.0
H359 H 0.3611 0.7097 0.92566 0.0
H360 H 0.36526 0.75013 0.01822 0.0
H361 H 0.33018 0.70988 0.05696 0.0
H362 H 0.32406 0.74919 0.04513 0.0
H363 H 0.20572 0.70651 0.91278 0.0
H364 H 0.16782 0.64863 0.97064 0.0
H365 H 0.26751 0.64882 0.02661 0.0
C366 C 0.35188 0.77453 0.89571 0.0
C367 C 0.34956 0.79928 0.85467 0.0
C368 C 0.31449 0.79444 0.83927 0.0
C369 C 0.28215 0.76559 0.86526 0.0
C370 C 0.28549 0.74179 0.90607 0.0
C371 C 0.31953 0.74582 0.92056 0.0
C372 C 0.31588 0.71583 0.9633 0.0
C373 C 0.33093 0.69254 0.93398 0.0
C374 C 0.33498 0.73225 0.02453 0.0
C375 C 0.27439 0.6939 0.97027 0.0
C376 C 0.25725 0.70954 0.93787 0.0
C377 C 0.21891 0.69404 0.93813 0.0
C378 C 0.19763 0.66132 0.97134 0.0
C379 C 0.21478 0.64426 1.00278 0.0
C380 C 0.25365 0.66114 1.00265 0.0
H381 H 0.59368 0.35697 0.00445 0.0
H382 H 0.47449 0.30119 0.01884 0.0
H383 H 0.47489 0.24995 0.0757 0.0
H384 H 0.59683 0.27155 0.97979 0.0
H385 H 0.64009 0.28909 0.0198 0.0
H386 H 0.62952 0.32041 0.98001 0.0
H387 H 0.64047 0.35798 0.07943 0.0
H388 H 0.65074 0.32665 0.11962 0.0
H389 H 0.6148 0.33487 0.14691 0.0
H390 H 0.48991 0.20659 0.1371 0.0
H391 H 0.51739 0.17312 0.18884 0.0
H392 H 0.62602 0.25726 0.1274 0.0
C393 C 0.56772 0.33385 0.01949 0.0
C394 C 0.5341 0.33286 0.00816 0.0
C395 C 0.50049 0.30211 0.02733 0.0
C396 C 0.5005 0.27306 0.05969 0.0
C397 C 0.53431 0.27497 0.07087 0.0
C398 C 0.56719 0.30429 0.05015 0.0
C399 C 0.59968 0.29945 0.06598 0.0
C400 C 0.61757 0.29484 0.00795 0.0
C401 C 0.62807 0.33165 0.10534 0.0
C402 C 0.58032 0.26382 0.10162 0.0
C403 C 0.54261 0.24978 0.10377 0.0
C404 C 0.5194 0.21722 0.1352 0.0
C405 C 0.53524 0.19844 0.16464 0.0
C406 C 0.57388 0.21242 0.16243 0.0
C407 C 0.59638 0.24559 0.13037 0.0
loop_
_geom_bond_atom_site_label_1
_geom_bond_atom_site_label_2
_geom_bond_distance
_geom_bond_site_symmetry_2
_ccdc_geom_bond_type
Co0 O1 2.216 . S
Co0 O2 2.091 . S
Co0 O4 2.004 . S
Co0 O10 2.021 . S
Co0 O12 2.137 . S
Co0 O13 2.244 . S
O1 Co0 2.216 . S
O1 C8 1.247 . S
O2 Co0 2.091 . S
O2 C8 1.261 . S
C3 O12 1.247 . S
C3 O13 1.272 . S
O4 Co0 2.004 . S
O4 C9 1.259 . S
Co5 O6 2.061 . S
Co5 O11 2.052 . S
Co5 O13 2.135 1_556 S
O6 Co5 2.061 . S
O6 C9 1.235 1_556 S
C7 O10 1.238 1_556 S
C7 O11 1.241 . S
C8 O1 1.247 . S
C8 O2 1.261 . S
C9 O4 1.259 . S
C9 O6 1.235 1_554 S
O10 Co0 2.021 . S
O10 C7 1.238 1_554 S
O11 Co5 2.052 . S
O11 C7 1.241 . S
O12 Co0 2.137 . S
O12 C3 1.247 . S
O13 Co0 2.244 . S
O13 C3 1.272 . S
O13 Co5 2.135 1_554 S
Co14 O15 2.216 . S
Co14 O16 2.091 . S
Co14 O18 2.004 . S
Co14 O24 2.021 . S
Co14 O26 2.137 . S
Co14 O27 2.244 . S
O15 Co14 2.216 . S
O15 C22 1.247 . S
O16 Co14 2.091 . S
O16 C22 1.261 . S
C17 O26 1.247 . S
C17 O27 1.272 . S
O18 Co14 2.004 . S
O18 C23 1.259 . S
Co19 O20 2.061 . S
Co19 O25 2.052 . S
Co19 O27 2.135 . S
O20 Co19 2.061 . S
O20 C23 1.235 . S
C21 O24 1.238 . S
C21 O25 1.241 . S
C22 O15 1.247 . S
C22 O16 1.261 . S
C23 O18 1.259 . S
C23 O20 1.235 . S
O24 Co14 2.021 . S
O24 C21 1.238 . S
O25 Co19 2.052 . S
O25 C21 1.241 . S
O26 Co14 2.137 . S
O26 C17 1.247 . S
O27 Co14 2.244 . S
O27 C17 1.272 . S
O27 Co19 2.135 . S
Co28 O29 2.216 . S
Co28 O30 2.091 . S
Co28 O32 2.004 . S
Co28 O38 2.021 . S
Co28 O40 2.137 . S
Co28 O41 2.244 . S
O29 Co28 2.216 . S
O29 C36 1.247 . S
O30 Co28 2.091 . S
O30 C36 1.261 . S
C31 O40 1.247 . S
C31 O41 1.272 . S
O32 Co28 2.004 . S
O32 C37 1.259 . S
Co33 O34 2.061 . S
Co33 O39 2.052 . S
Co33 O41 2.135 . S
O34 Co33 2.061 . S
O34 C37 1.235 . S
C35 O38 1.238 . S
C35 O39 1.241 . S
C36 O29 1.247 . S
C36 O30 1.261 . S
C37 O32 1.259 . S
C37 O34 1.235 . S
O38 Co28 2.021 . S
O38 C35 1.238 . S
O39 Co33 2.052 . S
O39 C35 1.241 . S
O40 Co28 2.137 . S
O40 C31 1.247 . S
O41 Co28 2.244 . S
O41 C31 1.272 . S
O41 Co33 2.135 . S
Co42 O43 2.216 . S
Co42 O44 2.091 . S
Co42 O46 2.004 . S
Co42 O52 2.021 . S
Co42 O54 2.137 . S
Co42 O55 2.244 . S
O43 Co42 2.216 . S
O43 C50 1.247 . S
O44 Co42 2.091 . S
O44 C50 1.261 . S
C45 O54 1.247 . S
C45 O55 1.272 . S
O46 Co42 2.004 . S
O46 C51 1.259 . S
Co47 O48 2.061 . S
Co47 O53 2.052 . S
Co47 O55 2.135 . S
O48 Co47 2.061 . S
O48 C51 1.235 . S
C49 O52 1.238 . S
C49 O53 1.241 . S
C50 O43 1.247 . S
C50 O44 1.261 . S
C51 O46 1.259 . S
C51 O48 1.235 . S
O52 Co42 2.021 . S
O52 C49 1.238 . S
O53 Co47 2.052 . S
O53 C49 1.241 . S
O54 Co42 2.137 . S
O54 C45 1.247 . S
O55 Co42 2.244 . S
O55 C45 1.272 . S
O55 Co47 2.135 . S
Co56 O57 2.216 . S
Co56 O58 2.091 . S
Co56 O60 2.004 . S
Co56 O66 2.021 . S
Co56 O68 2.137 . S
Co56 O69 2.244 . S
O57 Co56 2.216 . S
O57 C64 1.247 . S
O58 Co56 2.091 . S
O58 C64 1.261 . S
C59 O68 1.247 . S
C59 O69 1.272 . S
O60 Co56 2.004 . S
O60 C65 1.259 . S
Co61 O62 2.061 . S
Co61 O67 2.052 . S
Co61 O69 2.135 . S
O62 Co61 2.061 . S
O62 C65 1.235 . S
C63 O66 1.238 . S
C63 O67 1.241 . S
C64 O57 1.247 . S
C64 O58 1.261 . S
C65 O60 1.259 . S
C65 O62 1.235 . S
O66 Co56 2.021 . S
O66 C63 1.238 . S
O67 Co61 2.052 . S
O67 C63 1.241 . S
O68 Co56 2.137 . S
O68 C59 1.247 . S
O69 Co56 2.244 . S
O69 C59 1.272 . S
O69 Co61 2.135 . S
Co70 O71 2.216 . S
Co70 O72 2.091 . S
Co70 O74 2.004 . S
Co70 O80 2.021 . S
Co70 O82 2.137 1_556 S
Co70 O83 2.244 . S
O71 Co70 2.216 . S
O71 C78 1.247 1_556 S
O72 Co70 2.091 . S
O72 C78 1.261 1_556 S
C73 O82 1.247 1_556 S
C73 O83 1.272 . S
O74 Co70 2.004 . S
O74 C79 1.259 . S
Co75 O76 2.061 . S
Co75 O81 2.052 . S
Co75 O83 2.135 . S
O76 Co75 2.061 . S
O76 C79 1.235 . S
C77 O80 1.238 . S
C77 O81 1.241 . S
C78 O71 1.247 1_554 S
C78 O72 1.261 1_554 S
C79 O74 1.259 . S
C79 O76 1.235 . S
O80 Co70 2.021 . S
O80 C77 1.238 . S
O81 Co75 2.052 . S
O81 C77 1.241 . S
O82 Co70 2.137 1_554 S
O82 C73 1.247 1_554 S
O83 Co70 2.244 . S
O83 C73 1.272 . S
O83 Co75 2.135 . S
H84 C96 0.930 . S
H85 C98 0.930 . S
H86 C99 0.930 . S
H87 C103 0.959 . S
H88 C103 0.959 . S
H89 C103 0.961 1_455 S
H90 C104 0.960 . S
H91 C104 0.961 . S
H92 C104 0.959 . S
H93 C107 0.929 . S
H94 C108 0.931 . S
H95 C110 0.930 . S
C96 H84 0.930 . S
C96 C97 1.399 . S
C96 C101 1.399 . S
C97 C96 1.399 . S
C97 C98 1.376 . S
C98 H85 0.930 . S
C98 C97 1.376 . S
C98 C99 1.388 . S
C99 H86 0.930 . S
C99 C98 1.388 . S
C99 C100 1.390 . S
C100 C99 1.390 . S
C100 C101 1.394 . S
C100 C106 1.465 1_455 S
C101 C96 1.399 . S
C101 C100 1.394 . S
C101 C102 1.516 . S
C102 C101 1.516 . S
C102 C103 1.502 1_455 S
C102 C104 1.561 . S
C102 C105 1.526 1_455 S
C103 H87 0.959 . S
C103 H88 0.959 . S
C103 H89 0.961 1_655 S
C103 C102 1.502 1_655 S
C104 H90 0.960 . S
C104 H91 0.961 . S
C104 H92 0.959 . S
C104 C102 1.561 . S
C105 C102 1.526 1_655 S
C105 C106 1.396 . S
C105 C110 1.390 . S
C106 C100 1.465 1_655 S
C106 C105 1.396 . S
C106 C107 1.399 . S
C107 H93 0.929 . S
C107 C106 1.399 . S
C107 C108 1.385 . S
C108 H94 0.931 . S
C108 C107 1.385 . S
C108 C109 1.389 . S
C109 C108 1.389 . S
C109 C110 1.387 . S
C110 H95 0.930 . S
C110 C105 1.390 . S
C110 C109 1.387 . S
H111 C123 0.930 . S
H112 C125 0.930 . S
H113 C126 0.930 . S
H114 C130 0.959 . S
H115 C130 0.959 . S
H116 C130 0.961 . S
H117 C131 0.960 . S
H118 C131 0.961 . S
H119 C131 0.959 . S
H120 C134 0.929 1_556 S
H121 C135 0.931 . S
H122 C137 0.930 . S
C123 H111 0.930 . S
C123 C124 1.399 . S
C123 C128 1.399 . S
C124 C123 1.399 . S
C124 C125 1.376 . S
C125 H112 0.930 . S
C125 C124 1.376 . S
C125 C126 1.388 1_565 S
C126 H113 0.930 . S
C126 C125 1.388 1_545 S
C126 C127 1.390 . S
C127 C126 1.390 . S
C127 C128 1.394 1_545 S
C127 C133 1.465 1_556 S
C128 C123 1.399 . S
C128 C127 1.394 1_565 S
C128 C129 1.516 1_556 S
C129 C128 1.516 1_554 S
C129 C130 1.502 . S
C129 C131 1.561 . S
C129 C132 1.526 1_565 S
C130 H114 0.959 . S
C130 H115 0.959 . S
C130 H116 0.961 . S
C130 C129 1.502 . S
C131 H117 0.960 . S
C131 H118 0.961 . S
C131 H119 0.959 . S
C131 C129 1.561 . S
C132 C129 1.526 1_545 S
C132 C133 1.396 . S
C132 C137 1.390 . S
C133 C127 1.465 1_554 S
C133 C132 1.396 . S
C133 C134 1.399 . S
C134 H120 0.929 1_554 S
C134 C133 1.399 . S
C134 C135 1.385 . S
C135 H121 0.931 . S
C135 C134 1.385 . S
C135 C136 1.389 . S
C136 C135 1.389 . S
C136 C137 1.387 . S
C137 H122 0.930 . S
C137 C132 1.390 . S
C137 C136 1.387 . S
H138 C150 0.930 . S
H139 C152 0.930 . S
H140 C153 0.930 . S
H141 C157 0.959 . S
H142 C157 0.959 . S
H143 C157 0.961 . S
H144 C158 0.960 . S
H145 C158 0.961 . S
H146 C158 0.959 . S
H147 C161 0.929 . S
H148 C162 0.931 1_556 S
H149 C164 0.930 . S
C150 H138 0.930 . S
C150 C151 1.399 . S
C150 C155 1.399 . S
C151 C150 1.399 . S
C151 C152 1.376 . S
C152 H139 0.930 . S
C152 C151 1.376 . S
C152 C153 1.388 . S
C153 H140 0.930 . S
C153 C152 1.388 . S
C153 C154 1.390 . S
C154 C153 1.390 . S
C154 C155 1.394 . S
C154 C160 1.465 . S
C155 C150 1.399 . S
C155 C154 1.394 . S
C155 C156 1.516 . S
C156 C155 1.516 . S
C156 C157 1.502 . S
C156 C158 1.561 . S
C156 C159 1.526 . S
C157 H141 0.959 . S
C157 H142 0.959 . S
C157 H143 0.961 . S
C157 C156 1.502 . S
C158 H144 0.960 . S
C158 H145 0.961 . S
C158 H146 0.959 . S
C158 C156 1.561 . S
C159 C156 1.526 . S
C159 C160 1.396 . S
C159 C164 1.390 . S
C160 C154 1.465 . S
C160 C159 1.396 . S
C160 C161 1.399 . S
C161 H147 0.929 . S
C161 C160 1.399 . S
C161 C162 1.385 . S
C162 H148 0.931 1_554 S
C162 C161 1.385 . S
C162 C163 1.389 . S
C163 C162 1.389 . S
C163 C164 1.387 . S
C164 H149 0.930 . S
C164 C159 1.390 . S
C164 C163 1.387 . S
H165 C177 0.930 . S
H166 C179 0.930 . S
H167 C180 0.930 . S
H168 C184 0.959 . S
H169 C184 0.959 . S
H170 C184 0.961 . S
H171 C185 0.960 . S
H172 C185 0.961 . S
H173 C185 0.959 . S
H174 C188 0.929 . S
H175 C189 0.931 . S
H176 C191 0.930 . S
C177 H165 0.930 . S
C177 C178 1.399 . S
C177 C182 1.399 . S
C178 C177 1.399 . S
C178 C179 1.376 . S
C179 H166 0.930 . S
C179 C178 1.376 . S
C179 C180 1.388 . S
C180 H167 0.930 . S
C180 C179 1.388 . S
C180 C181 1.390 . S
C181 C180 1.390 . S
C181 C182 1.394 . S
C181 C187 1.465 1_655 S
C182 C177 1.399 . S
C182 C181 1.394 . S
C182 C183 1.516 . S
C183 C182 1.516 . S
C183 C184 1.502 1_655 S
C183 C185 1.561 . S
C183 C186 1.526 1_655 S
C184 H168 0.959 . S
C184 H169 0.959 . S
C184 H170 0.961 . S
C184 C183 1.502 1_455 S
C185 H171 0.960 . S
C185 H172 0.961 . S
C185 H173 0.959 . S
C185 C183 1.561 . S
C186 C183 1.526 1_455 S
C186 C187 1.396 . S
C186 C191 1.390 . S
C187 C181 1.465 1_455 S
C187 C186 1.396 . S
C187 C188 1.399 . S
C188 H174 0.929 . S
C188 C187 1.399 . S
C188 C189 1.385 . S
C189 H175 0.931 . S
C189 C188 1.385 . S
C189 C190 1.389 . S
C190 C189 1.389 . S
C190 C191 1.387 . S
C191 H176 0.930 . S
C191 C186 1.390 . S
C191 C190 1.387 . S
H192 C204 0.930 . S
H193 C206 0.930 . S
H194 C207 0.930 . S
H195 C211 0.959 1_545 S
H196 C211 0.959 . S
H197 C211 0.961 1_545 S
H198 C212 0.960 . S
H199 C212 0.961 . S
H200 C212 0.959 . S
H201 C215 0.929 . S
H202 C216 0.931 . S
H203 C218 0.930 . S
C204 H192 0.930 . S
C204 C205 1.399 . S
C204 C209 1.399 . S
C205 C204 1.399 . S
C205 C206 1.376 . S
C206 H193 0.930 . S
C206 C205 1.376 . S
C206 C207 1.388 . S
C207 H194 0.930 . S
C207 C206 1.388 . S
C207 C208 1.390 . S
C208 C207 1.390 . S
C208 C209 1.394 . S
C208 C214 1.465 1_545 S
C209 C204 1.399 . S
C209 C208 1.394 . S
C209 C210 1.516 1_545 S
C210 C209 1.516 1_565 S
C210 C211 1.502 . S
C210 C212 1.561 . S
C210 C213 1.526 . S
C211 H195 0.959 1_565 S
C211 H196 0.959 . S
C211 H197 0.961 1_565 S
C211 C210 1.502 . S
C212 H198 0.960 . S
C212 H199 0.961 . S
C212 H200 0.959 . S
C212 C210 1.561 . S
C213 C210 1.526 . S
C213 C214 1.396 . S
C213 C218 1.390 . S
C214 C208 1.465 1_565 S
C214 C213 1.396 . S
C214 C215 1.399 . S
C215 H201 0.929 . S
C215 C214 1.399 . S
C215 C216 1.385 . S
C216 H202 0.931 . S
C216 C215 1.385 . S
C216 C217 1.389 . S
C217 C216 1.389 . S
C217 C218 1.387 . S
C218 H203 0.930 . S
C218 C213 1.390 . S
C218 C217 1.387 . S
H219 C231 0.930 . S
H220 C233 0.930 . S
H221 C234 0.930 . S
H222 C238 0.959 . S
H223 C238 0.959 . S
H224 C238 0.961 . S
H225 C239 0.960 . S
H226 C239 0.961 . S
H227 C239 0.959 . S
H228 C242 0.929 . S
H229 C243 0.931 . S
H230 C245 0.930 . S
C231 H219 0.930 . S
C231 C232 1.399 . S
C231 C236 1.399 . S
C232 C231 1.399 . S
C232 C233 1.376 . S
C233 H220 0.930 . S
C233 C232 1.376 . S
C233 C234 1.388 . S
C234 H221 0.930 . S
C234 C233 1.388 . S
C234 C235 1.390 . S
C235 C234 1.390 . S
C235 C236 1.394 . S
C235 C241 1.465 . S
C236 C231 1.399 . S
C236 C235 1.394 . S
C236 C237 1.516 . S
C237 C236 1.516 . S
C237 C238 1.502 . S
C237 C239 1.561 . S
C237 C240 1.526 . S
C238 H222 0.959 . S
C238 H223 0.959 . S
C238 H224 0.961 . S
C238 C237 1.502 . S
C239 H225 0.960 . S
C239 H226 0.961 . S
C239 H227 0.959 . S
C239 C237 1.561 . S
C240 C237 1.526 . S
C240 C241 1.396 . S
C240 C245 1.390 . S
C241 C235 1.465 . S
C241 C240 1.396 . S
C241 C242 1.399 . S
C242 H228 0.929 . S
C242 C241 1.399 . S
C242 C243 1.385 . S
C243 H229 0.931 . S
C243 C242 1.385 . S
C243 C244 1.389 . S
C244 C243 1.389 . S
C244 C245 1.387 . S
C245 H230 0.930 . S
C245 C240 1.390 . S
C245 C244 1.387 . S
H246 C258 0.930 . S
H247 C260 0.930 . S
H248 C261 0.930 . S
H249 C265 0.959 . S
H250 C265 0.959 . S
H251 C265 0.961 . S
H252 C266 0.960 . S
H253 C266 0.961 . S
H254 C266 0.959 . S
H255 C269 0.929 . S
H256 C270 0.931 . S
H257 C272 0.930 . S
C258 H246 0.930 . S
C258 C259 1.399 . S
C258 C263 1.399 . S
C259 C258 1.399 . S
C259 C260 1.376 . S
C260 H247 0.930 . S
C260 C259 1.376 . S
C260 C261 1.388 . S
C261 H248 0.930 . S
C261 C260 1.388 . S
C261 C262 1.390 . S
C262 C261 1.390 . S
C262 C263 1.394 . S
C262 C268 1.465 . S
C263 C258 1.399 . S
C263 C262 1.394 . S
C263 C264 1.516 . S
C264 C263 1.516 . S
C264 C265 1.502 . S
C264 C266 1.561 . S
C264 C267 1.526 . S
C265 H249 0.959 . S
C265 H250 0.959 . S
C265 H251 0.961 . S
C265 C264 1.502 . S
C266 H252 0.960 . S
C266 H253 0.961 . S
C266 H254 0.959 . S
C266 C264 1.561 . S
C267 C264 1.526 . S
C267 C268 1.396 . S
C267 C272 1.390 . S
C268 C262 1.465 . S
C268 C267 1.396 . S
C268 C269 1.399 . S
C269 H255 0.929 . S
C269 C268 1.399 . S
C269 C270 1.385 . S
C270 H256 0.931 . S
C270 C269 1.385 . S
C270 C271 1.389 . S
C271 C270 1.389 . S
C271 C272 1.387 . S
C272 H257 0.930 . S
C272 C267 1.390 . S
C272 C271 1.387 . S
H273 C285 0.930 . S
H274 C287 0.930 . S
H275 C288 0.930 . S
H276 C292 0.959 . S
H277 C292 0.959 . S
H278 C292 0.961 . S
H279 C293 0.960 . S
H280 C293 0.961 . S
H281 C293 0.959 . S
H282 C296 0.929 . S
H283 C297 0.931 . S
H284 C299 0.930 . S
C285 H273 0.930 . S
C285 C286 1.399 . S
C285 C290 1.399 . S
C286 C285 1.399 . S
C286 C287 1.376 . S
C287 H274 0.930 . S
C287 C286 1.376 . S
C287 C288 1.388 . S
C288 H275 0.930 . S
C288 C287 1.388 . S
C288 C289 1.390 . S
C289 C288 1.390 . S
C289 C290 1.394 . S
C289 C295 1.465 . S
C290 C285 1.399 . S
C290 C289 1.394 . S
C290 C291 1.516 . S
C291 C290 1.516 . S
C291 C292 1.502 . S
C291 C293 1.561 . S
C291 C294 1.526 . S
C292 H276 0.959 . S
C292 H277 0.959 . S
C292 H278 0.961 . S
C292 C291 1.502 . S
C293 H279 0.960 . S
C293 H280 0.961 . S
C293 H281 0.959 . S
C293 C291 1.561 . S
C294 C291 1.526 . S
C294 C295 1.396 . S
C294 C299 1.390 . S
C295 C289 1.465 . S
C295 C294 1.396 . S
C295 C296 1.399 . S
C296 H282 0.929 . S
C296 C295 1.399 . S
C296 C297 1.385 . S
C297 H283 0.931 . S
C297 C296 1.385 . S
C297 C298 1.389 . S
C298 C297 1.389 . S
C298 C299 1.387 . S
C299 H284 0.930 . S
C299 C294 1.390 . S
C299 C298 1.387 . S
H300 C312 0.930 . S
H301 C314 0.930 . S
H302 C315 0.930 . S
H303 C319 0.959 . S
H304 C319 0.959 . S
H305 C319 0.961 . S
H306 C320 0.960 . S
H307 C320 0.961 . S
H308 C320 0.959 . S
H309 C323 0.929 . S
H310 C324 0.931 . S
H311 C326 0.930 . S
C312 H300 0.930 . S
C312 C313 1.399 . S
C312 C317 1.399 . S
C313 C312 1.399 . S
C313 C314 1.376 . S
C314 H301 0.930 . S
C314 C313 1.376 . S
C314 C315 1.388 . S
C315 H302 0.930 . S
C315 C314 1.388 . S
C315 C316 1.390 . S
C316 C315 1.390 . S
C316 C317 1.394 . S
C316 C322 1.465 . S
C317 C312 1.399 . S
C317 C316 1.394 . S
C317 C318 1.516 . S
C318 C317 1.516 . S
C318 C319 1.502 . S
C318 C320 1.561 . S
C318 C321 1.526 . S
C319 H303 0.959 . S
C319 H304 0.959 . S
C319 H305 0.961 . S
C319 C318 1.502 . S
C320 H306 0.960 . S
C320 H307 0.961 . S
C320 H308 0.959 . S
C320 C318 1.561 . S
C321 C318 1.526 . S
C321 C322 1.396 . S
C321 C326 1.390 . S
C322 C316 1.465 . S
C322 C321 1.396 . S
C322 C323 1.399 . S
C323 H309 0.929 . S
C323 C322 1.399 . S
C323 C324 1.385 . S
C324 H310 0.931 . S
C324 C323 1.385 . S
C324 C325 1.389 . S
C325 C324 1.389 . S
C325 C326 1.387 . S
C326 H311 0.930 . S
C326 C321 1.390 . S
C326 C325 1.387 . S
H327 C339 0.930 . S
H328 C341 0.930 . S
H329 C342 0.930 . S
H330 C346 0.959 . S
H331 C346 0.959 . S
H332 C346 0.961 . S
H333 C347 0.960 . S
H334 C347 0.961 . S
H335 C347 0.959 . S
H336 C350 0.929 . S
H337 C351 0.931 . S
H338 C353 0.930 . S
C339 H327 0.930 . S
C339 C340 1.399 . S
C339 C344 1.399 . S
C340 C339 1.399 . S
C340 C341 1.376 . S
C341 H328 0.930 . S
C341 C340 1.376 . S
C341 C342 1.388 . S
C342 H329 0.930 . S
C342 C341 1.388 . S
C342 C343 1.390 . S
C343 C342 1.390 . S
C343 C344 1.394 . S
C343 C349 1.465 . S
C344 C339 1.399 . S
C344 C343 1.394 . S
C344 C345 1.516 . S
C345 C344 1.516 . S
C345 C346 1.502 . S
C345 C347 1.561 . S
C345 C348 1.526 . S
C346 H330 0.959 . S
C346 H331 0.959 . S
C346 H332 0.961 . S
C346 C345 1.502 . S
C347 H333 0.960 . S
C347 H334 0.961 . S
C347 H335 0.959 . S
C347 C345 1.561 . S
C348 C345 1.526 . S
C348 C349 1.396 . S
C348 C353 1.390 . S
C349 C343 1.465 . S
C349 C348 1.396 . S
C349 C350 1.399 . S
C350 H336 0.929 . S
C350 C349 1.399 . S
C350 C351 1.385 . S
C351 H337 0.931 . S
C351 C350 1.385 . S
C351 C352 1.389 . S
C352 C351 1.389 . S
C352 C353 1.387 . S
C353 H338 0.930 . S
C353 C348 1.390 . S
C353 C352 1.387 . S
H354 C366 0.930 . S
H355 C368 0.930 . S
H356 C369 0.930 . S
H357 C373 0.959 . S
H358 C373 0.959 . S
H359 C373 0.961 . S
H360 C374 0.960 . S
H361 C374 0.961 1_554 S
H362 C374 0.959 . S
H363 C377 0.929 . S
H364 C378 0.931 . S
H365 C380 0.930 . S
C366 H354 0.930 . S
C366 C367 1.399 . S
C366 C371 1.399 . S
C367 C366 1.399 . S
C367 C368 1.376 . S
C368 H355 0.930 . S
C368 C367 1.376 . S
C368 C369 1.388 . S
C369 H356 0.930 . S
C369 C368 1.388 . S
C369 C370 1.390 . S
C370 C369 1.390 . S
C370 C371 1.394 . S
C370 C376 1.465 . S
C371 C366 1.399 . S
C371 C370 1.394 . S
C371 C372 1.516 . S
C372 C371 1.516 . S
C372 C373 1.502 1_556 S
C372 C374 1.561 . S
C372 C375 1.526 . S
C373 H357 0.959 . S
C373 H358 0.959 . S
C373 H359 0.961 . S
C373 C372 1.502 1_554 S
C374 H360 0.960 . S
C374 H361 0.961 1_556 S
C374 H362 0.959 . S
C374 C372 1.561 . S
C375 C372 1.526 . S
C375 C376 1.396 . S
C375 C380 1.390 1_556 S
C376 C370 1.465 . S
C376 C375 1.396 . S
C376 C377 1.399 . S
C377 H363 0.929 . S
C377 C376 1.399 . S
C377 C378 1.385 . S
C378 H364 0.931 . S
C378 C377 1.385 . S
C378 C379 1.389 . S
C379 C378 1.389 . S
C379 C380 1.387 1_556 S
C380 H365 0.930 . S
C380 C375 1.390 1_554 S
C380 C379 1.387 1_554 S
H381 C393 0.930 . S
H382 C395 0.930 . S
H383 C396 0.930 . S
H384 C400 0.959 . S
H385 C400 0.959 . S
H386 C400 0.961 . S
H387 C401 0.960 . S
H388 C401 0.961 . S
H389 C401 0.959 . S
H390 C404 0.929 . S
H391 C405 0.931 . S
H392 C407 0.930 . S
C393 H381 0.930 . S
C393 C394 1.399 . S
C393 C398 1.399 1_556 S
C394 C393 1.399 . S
C394 C395 1.376 1_556 S
C395 H382 0.930 . S
C395 C394 1.376 1_554 S
C395 C396 1.388 . S
C396 H383 0.930 . S
C396 C395 1.388 . S
C396 C397 1.390 . S
C397 C396 1.390 . S
C397 C398 1.394 . S
C397 C403 1.465 . S
C398 C393 1.399 1_554 S
C398 C397 1.394 . S
C398 C399 1.516 . S
C399 C398 1.516 . S
C399 C400 1.502 1_554 S
C399 C401 1.561 . S
C399 C402 1.526 . S
C400 H384 0.959 . S
C400 H385 0.959 . S
C400 H386 0.961 . S
C400 C399 1.502 1_556 S
C401 H387 0.960 . S
C401 H388 0.961 . S
C401 H389 0.959 . S
C401 C399 1.561 . S
C402 C399 1.526 . S
C402 C403 1.396 . S
C402 C407 1.390 . S
C403 C397 1.465 . S
C403 C402 1.396 . S
C403 C404 1.399 . S
C404 H390 0.929 . S
C404 C403 1.399 . S
C404 C405 1.385 . S
C405 H391 0.931 . S
C405 C404 1.385 . S
C405 C406 1.389 . S
C406 C405 1.389 . S
C406 C407 1.387 . S
C407 H392 0.930 . S
C407 C402 1.390 . S
C407 C406 1.387 . S
C97 C7 1.300 . S
C109 C50 1.328 . S
C124 C64 1.330 . S
C136 C21 1.281 . S
C151 C35 1.277 . S
C163 C78 1.327 . S
C178 C49 1.291 . S
C190 C8 1.330 . S
C205 C22 1.308 . S
C217 C63 1.307 . S
C232 C77 1.306 . S
C244 C36 1.327 . S
C259 C3 1.215 . S
C271 C37 1.190 . S
C286 C17 1.210 . S
C298 C51 1.205 . S
C313 C65 1.257 . S
C325 C31 1.229 . S
C340 C79 1.240 . S
C352 C45 1.267 . S
C367 C59 1.263 . S
C379 C9 1.198 1_556 S
C394 C73 1.226 . S
C406 C23 1.255 . S
