# Generated by pormake.
# Topology sma, (6)-cn, num edge types: 1
# Building blocks:
#     Node 0, Type 0, BuildingBlock: BETFEN_clean_sbu_0, # of connection points: 6
#     Node 1, Type 0, BuildingBlock: BETFEN_clean_sbu_0, # of connection points: 6
#     Node 2, Type 0, BuildingBlock: BETFEN_clean_sbu_0, # of connection points: 6
#     Edge 3, Type (0, 0), BuildingBlock: XUDNAN_clean_linker_2, # of connection points: 2
#     Edge 4, Type (0, 0), BuildingBlock: XUDNAN_clean_linker_2, # of connection points: 2
#     Edge 5, Type (0, 0), BuildingBlock: XUDNAN_clean_linker_2, # of connection points: 2
#     Edge 6, Type (0, 0), BuildingBlock: XUDNAN_clean_linker_2, # of connection points: 2
#     Edge 7, Type (0, 0), BuildingBlock: XUDNAN_clean_linker_2, # of connection points: 2
#     Edge 8, Type (0, 0), BuildingBlock: XUDNAN_clean_linker_2, # of connection points: 2
#     Edge 9, Type (0, 0), BuildingBlock: XUDNAN_clean_linker_2, # of connection points: 2
#     Edge 10, Type (0, 0), BuildingBlock: XUDNAN_clean_linker_2, # of connection points: 2
#     Edge 11, Type (0, 0), BuildingBlock: XUDNAN_clean_linker_2, # of connection points: 2
# Relax obj value: 0.131
# Max RMSD: 0.256
# Mean RMSD: 0.202
data_MOF--net-sma--node1-BETFEN_clean_sbu_0--edge1-XUDNAN_clean_linker_2
_symmetry_space_group_name_H-M    P1
_symmetry_Int_Tables_number       1
_symmetry_cell_setting            triclinic
loop_
_symmetry_equiv_pos_as_xyz
'x, y, z'
_cell_length_a     30.815177
_cell_length_b     40.556837
_cell_length_c     14.167729
_cell_angle_alpha  89.950129
_cell_angle_beta   95.379839
_cell_angle_gamma 97.724659
loop_
_atom_site_label
_atom_site_type_symbol
_atom_site_fract_x
_atom_site_fract_y
_atom_site_fract_z
_atom_type_partial_charge
Pr0 Pr 0.07785 0.505 0.00926 0.0
Pr1 Pr 0.10868 0.58022 -0.02844 0.0
C2 C 1.06334 0.44386 0.08458 0.0
C3 C 1.03087 0.42006 0.12836 0.0
C4 C 1.02726 0.38628 0.10367 0.0
C5 C 0.99847 0.36267 0.14683 0.0
C6 C 0.97256 0.37233 0.21587 0.0
C7 C 0.97581 0.40637 0.23966 0.0
C8 C 1.00469 0.43005 0.1962 0.0
C9 C 0.07614 0.52176 0.82021 0.0
C10 C 1.00195 0.55145 0.95328 0.0
C11 C 0.12624 0.64519 0.92903 0.0
C12 C 0.15396 0.67447 -0.02589 0.0
C13 C 0.15922 0.67869 0.07321 0.0
C14 C 0.18797 0.70544 0.11516 0.0
C15 C 0.21238 0.72817 0.05886 0.0
C16 C 0.20646 0.72412 -0.04035 0.0
C17 C 0.17746 0.69755 0.91775 0.0
C18 C 0.10978 0.56325 0.16114 0.0
C19 C 0.18554 0.53185 -0.00989 0.0
O20 O 0.08127 0.47033 0.13397 0.0
O21 O 1.0556 0.44952 -0.00594 0.0
O22 O 0.10544 0.53282 0.88432 0.0
O23 O 1.04781 0.49834 0.85025 0.0
O24 O 1.03345 0.57204 0.91855 0.0
O25 O 1.01061 0.52563 0.00534 0.0
O26 O 0.14728 0.62237 0.89651 0.0
O27 O 0.09195 0.63282 -0.02828 0.0
O28 O 0.07965 0.55258 0.09819 0.0
O29 O 0.13999 0.58386 0.12695 0.0
O30 O 0.15559 0.50824 0.01837 0.0
O31 O 0.17545 0.5609 -0.03975 0.0
H32 H 1.04736 0.37805 0.05188 0.0
H33 H 0.99746 0.3367 0.12785 0.0
H34 H 0.95603 0.41473 0.29181 0.0
H35 H 1.00681 0.45603 0.21618 0.0
H36 H 0.1418 0.66096 0.11835 0.0
H37 H 0.1922 0.7077 0.19175 0.0
H38 H 0.22449 0.74142 0.91439 0.0
H39 H 0.17397 0.69468 0.84127 0.0
Pr40 Pr 0.64465 0.05355 0.54057 0.0
Pr41 Pr 0.54571 1.0251 0.55406 0.0
C42 C 0.72564 0.07485 0.4897 0.0
C43 C 0.7507 0.10731 0.46788 0.0
C44 C 0.78885 0.11956 0.52603 0.0
C45 C 0.81191 0.15083 0.50976 0.0
C46 C 0.79752 0.1705 0.4344 0.0
C47 C 0.75981 0.15797 0.37489 0.0
C48 C 0.73651 0.12675 0.39163 0.0
C49 C 0.61584 0.05823 0.71796 0.0
C50 C 0.57412 0.10679 0.54808 0.0
C51 C 0.46081 1.00083 0.56587 0.0
C52 C 0.43596 0.96958 0.52565 0.0
C53 C 0.39169 0.96812 0.49007 0.0
C54 C 0.37018 0.93981 0.44007 0.0
C55 C 0.39282 0.91268 0.42436 0.0
C56 C 0.4366 0.91379 0.46371 0.0
C57 C 0.45798 0.94195 0.51332 0.0
C58 C 0.57578 1.02136 0.37617 0.0
C59 C 0.61735 0.97243 0.58414 0.0
O60 O 0.69264 0.06284 0.42892 0.0
O61 O 0.71736 0.07027 0.57806 0.0
O62 O 0.60554 1.03386 0.66183 0.0
O63 O 0.64593 0.0803 0.68816 0.0
O64 O 0.54646 0.08233 0.57961 0.0
O65 O 0.61128 0.10149 0.5148 0.0
O66 O 0.49177 0.99754 0.63363 0.0
O67 O 0.47333 1.02309 0.50358 0.0
O68 O 0.58445 0.04606 0.43143 0.0
O69 O 0.55125 0.99731 0.41326 0.0
O70 O 0.64682 0.99522 0.55035 0.0
O71 O 0.57838 0.97923 0.60267 0.0
H72 H 0.80064 0.10503 0.58488 0.0
H73 H 0.84121 0.15956 0.556 0.0
H74 H 0.74775 0.17262 0.31663 0.0
H75 H 0.70714 0.11809 0.34552 0.0
H76 H 0.37427 0.9893 0.49795 0.0
H77 H 0.33653 0.93977 0.41006 0.0
H78 H 0.45476 0.89313 0.45417 0.0
H79 H 0.49228 0.94253 0.5393 0.0
Pr80 Pr 0.58672 0.50774 0.8264 0.0
Pr81 Pr 0.59012 0.58326 0.87776 0.0
C82 C 0.58532 0.4467 0.75211 0.0
C83 C 0.58362 0.41319 0.70989 0.0
C84 C 0.54842 0.40081 0.64363 0.0
C85 C 0.54307 0.36767 0.61308 0.0
C86 C 0.57281 0.34616 0.64799 0.0
C87 C 0.60937 0.35901 0.7104 0.0
C88 C 0.61468 0.39223 0.74122 0.0
C89 C 0.58709 0.51976 0.01912 0.0
C90 C 0.68327 0.55608 0.85331 0.0
C91 C 0.58646 0.64637 0.93194 0.0
C92 C 0.59749 0.67991 0.89137 0.0
C93 C 0.56858 0.69206 0.82108 0.0
C94 C 0.57895 0.72351 0.78246 0.0
C95 C 0.61839 0.7438 0.81334 0.0
C96 C 0.64742 0.73168 0.88345 0.0
C97 C 0.63699 0.70013 0.9223 0.0
C98 C 0.59272 0.56933 0.68637 0.0
C99 C 0.49571 0.53293 0.87994 0.0
O100 O 0.61758 0.46013 0.81264 0.0
O101 O 0.55449 0.46533 0.72965 0.0
O102 O 0.60911 0.53838 -0.03545 0.0
O103 O 0.56727 0.49295 -0.02383 0.0
O104 O 0.66449 0.5781 0.89799 0.0
O105 O 0.66028 0.52982 0.80842 0.0
O106 O 0.55291 0.62711 0.88906 0.0
O107 O 0.6192 0.63019 -0.03915 0.0
O108 O 0.56935 0.5526 0.74201 0.0
O109 O 0.61287 0.5965 0.72631 0.0
O110 O 0.51209 0.51126 0.82897 0.0
O111 O 0.52022 0.55983 0.91733 0.0
H112 H 0.52408 0.4164 0.61763 0.0
H113 H 0.515 0.35865 0.5637 0.0
H114 H 0.63273 0.34301 0.73893 0.0
H115 H 0.64213 0.4011 0.79236 0.0
H116 H 0.5378 0.67729 0.79546 0.0
H117 H 0.55608 0.73185 0.72775 0.0
H118 H 0.67779 0.74683 0.90969 0.0
H119 H 0.65982 0.69161 -0.0232 0.0
H120 H 0.25966 0.57705 -0.01672 0.0
H121 H 0.21446 0.47095 -0.01795 0.0
H122 H 0.2894 0.45964 -0.0434 0.0
H123 H 0.33142 0.57664 0.80356 0.0
H124 H 0.37319 0.60785 0.85893 0.0
H125 H 0.31659 0.60763 0.88121 0.0
H126 H 0.33807 0.60477 0.06197 0.0
H127 H 0.39484 0.60525 0.04034 0.0
H128 H 0.36811 0.5721 0.10786 0.0
H129 H 0.36765 0.4602 0.91714 0.0
H130 H 0.44535 0.47226 0.88309 0.0
H131 H 0.44056 0.57789 0.91931 0.0
C132 C 0.26559 0.5514 -0.02137 0.0
C133 C 0.23117 0.52485 -0.01557 0.0
C134 C 0.24035 0.49167 -0.02162 0.0
C135 C 0.28277 0.48501 -0.0365 0.0
C136 C 0.31575 0.5118 -0.04366 0.0
C137 C 0.30782 0.54432 -0.03476 0.0
C138 C 0.34893 0.56862 0.95476 0.0
C139 C 0.3421 0.59153 0.86954 0.0
C140 C 0.36333 0.58887 0.04672 0.0
C141 C 0.38112 0.54471 0.93699 0.0
C142 C 0.36123 0.51206 0.93745 0.0
C143 C 0.38371 0.48564 0.91788 0.0
C144 C 0.42775 0.49275 0.89811 0.0
C145 C 0.44902 0.52598 0.89919 0.0
C146 C 0.42531 0.55222 0.91924 0.0
H147 H 0.82073 0.19821 0.26591 0.0
H148 H 0.82913 0.21858 0.56814 0.0
H149 H 0.87148 0.27364 0.54418 0.0
H150 H 0.92877 0.2354 0.231 0.0
H151 H 0.91393 0.25219 0.11647 0.0
H152 H 0.88211 0.21521 0.15655 0.0
H153 H 0.81134 0.24341 0.13131 0.0
H154 H 0.84296 0.28049 0.09093 0.0
H155 H 0.80966 0.28293 0.18808 0.0
H156 H 0.91533 0.32564 0.48811 0.0
H157 H 0.95916 0.36997 0.40478 0.0
H158 H 0.92127 0.31616 0.13857 0.0
C159 C 0.83094 0.21446 0.32683 0.0
C160 C 0.82164 0.20409 0.41896 0.0
C161 C 0.83626 0.22586 0.49707 0.0
C162 C 0.86008 0.25727 0.48409 0.0
C163 C 0.86903 0.26661 0.39251 0.0
C164 C 0.85494 0.24586 0.31519 0.0
C165 C 0.87051 0.26133 0.22478 0.0
C166 C 0.90062 0.23975 0.17958 0.0
C167 C 0.83127 0.2674 0.15465 0.0
C168 C 0.89598 0.29382 0.26353 0.0
C169 C 0.89444 0.29651 0.36029 0.0
C170 C 0.91645 0.32394 0.41218 0.0
C171 C 0.94106 0.34913 0.36406 0.0
C172 C 0.94367 0.34671 0.26498 0.0
C173 C 0.9203 0.31873 0.21438 0.0
H174 H 0.56065 0.92003 0.63787 0.0
H175 H 0.69703 0.94774 0.58354 0.0
H176 H 0.71279 0.89146 0.63313 0.0
H177 H 0.58115 0.87471 0.84558 0.0
H178 H 0.53351 0.84396 0.82034 0.0
H179 H 0.53324 0.88548 0.77565 0.0
H180 H 0.51444 0.86198 0.60446 0.0
H181 H 0.5144 0.82032 0.64854 0.0
H182 H 0.54924 0.83489 0.55759 0.0
H183 H 0.71312 0.83189 0.69706 0.0
H184 H 0.69776 0.77531 0.76275 0.0
H185 H 0.56134 0.78935 0.77582 0.0
C186 C 0.59393 0.91446 0.63552 0.0
C187 C 0.62768 0.93845 0.60685 0.0
C188 C 0.67061 0.92977 0.60497 0.0
C189 C 0.67984 0.8979 0.63321 0.0
C190 C 0.64572 0.8751 0.66266 0.0
C191 C 0.6036 0.88311 0.66334 0.0
C192 C 0.57263 0.85493 0.69987 0.0
C193 C 0.55407 0.86541 0.79075 0.0
C194 C 0.5355 0.84229 0.62302 0.0
C195 C 0.60382 0.82958 0.72039 0.0
C196 C 0.64587 0.84148 0.69865 0.0
C197 C 0.68026 0.82239 0.71391 0.0
C198 C 0.67129 0.79037 0.75184 0.0
C199 C 0.62828 0.77776 0.774 0.0
C200 C 0.59438 0.79789 0.75807 0.0
H201 H 0.73926 0.50887 0.87554 0.0
H202 H 0.73594 0.61478 0.8411 0.0
H203 H 0.8172 0.62457 0.8569 0.0
H204 H 0.8284 0.51766 0.05655 0.0
H205 H 0.85283 0.48262 0.01809 0.0
H206 H 0.79449 0.48322 -0.00538 0.0
H207 H 0.79998 0.47459 0.81519 0.0
H208 H 0.85833 0.47373 0.83819 0.0
H209 H 0.838 0.50288 0.75464 0.0
H210 H 0.89803 0.62312 0.87798 0.0
H211 H 0.97421 0.61115 0.91266 0.0
H212 H 0.92604 0.50661 0.94648 0.0
C213 C 0.75581 0.53398 0.86952 0.0
C214 C 0.73161 0.56109 0.85575 0.0
C215 C 0.7541 0.59374 0.85104 0.0
C216 C 0.80014 0.59951 0.85977 0.0
C217 C 0.82317 0.57238 0.87476 0.0
C218 C 0.8019 0.54028 0.8804 0.0
C219 C 0.83462 0.51595 0.90371 0.0
C220 C 0.82713 0.49886 -0.0011 0.0
C221 C 0.83261 0.49027 0.82311 0.0
C222 C 0.87751 0.53944 0.91038 0.0
C223 C 0.87005 0.57178 0.89212 0.0
C224 C 0.90433 0.59792 0.89258 0.0
C225 C 0.94748 0.59085 0.91223 0.0
C226 C 0.956 0.55801 0.93265 0.0
C227 C 0.92046 0.532 0.93198 0.0
H228 H 0.30873 0.87845 0.41946 0.0
H229 H 0.43057 0.88325 0.28591 0.0
H230 H 0.39774 0.83662 0.17975 0.0
H231 H 0.28253 0.78881 0.41125 0.0
H232 H 0.22419 0.78921 0.3857 0.0
H233 H 0.25714 0.82301 0.45215 0.0
H234 H 0.22935 0.86505 0.33069 0.0
H235 H 0.19631 0.83138 0.26388 0.0
H236 H 0.23572 0.85958 0.2067 0.0
H237 H 0.35196 0.79052 0.08596 0.0
H238 H 0.29619 0.74631 0.01273 0.0
H239 H 0.20352 0.77056 0.20596 0.0
C240 C 0.32838 0.86972 0.36766 0.0
C241 C 0.37235 0.88437 0.3615 0.0
C242 C 0.3971 0.87209 0.2931 0.0
C243 C 0.37867 0.84574 0.23203 0.0
C244 C 0.3354 0.8318 0.24009 0.0
C245 C 0.31053 0.8432 0.30624 0.0
C246 C 0.26481 0.82355 0.29994 0.0
C247 C 0.25671 0.80505 0.39278 0.0
C248 C 0.22946 0.84625 0.27372 0.0
C249 C 0.26793 0.79948 0.21969 0.0
C250 C 0.30893 0.80481 0.18612 0.0
C251 C 0.3197 0.78609 0.11153 0.0
C252 C 0.28773 0.76117 0.07002 0.0
C253 C 0.24548 0.75507 0.10329 0.0
C254 C 0.23563 0.77449 0.17944 0.0
H255 H 0.63115 0.30428 0.60096 0.0
H256 H 0.4941 0.30621 0.64597 0.0
H257 H 0.47875 0.24569 0.61634 0.0
H258 H 0.6112 0.24055 0.41287 0.0
H259 H 0.6589 0.22135 0.4537 0.0
H260 H 0.65876 0.26524 0.47304 0.0
H261 H 0.67734 0.2577 0.65333 0.0
H262 H 0.67753 0.21384 0.63438 0.0
H263 H 0.64239 0.22787 0.71643 0.0
H264 H 0.47913 0.18467 0.59361 0.0
H265 H 0.49487 0.12712 0.57375 0.0
H266 H 0.63127 0.16458 0.54001 0.0
C267 C 0.59788 0.29196 0.60399 0.0
C268 C 0.56374 0.31002 0.62508 0.0
C269 C 0.52061 0.29301 0.62828 0.0
C270 C 0.51159 0.2586 0.61202 0.0
C271 C 0.54598 0.24152 0.59198 0.0
C272 C 0.58821 0.25759 0.58721 0.0
C273 C 0.61936 0.23315 0.56658 0.0
C274 C 0.63815 0.24052 0.47084 0.0
C275 C 0.65633 0.23315 0.64752 0.0
C276 C 0.58818 0.20082 0.56246 0.0
C277 C 0.546 0.20624 0.57716 0.0
C278 C 0.51191 0.18011 0.58095 0.0
C279 C 0.5212 0.14751 0.56984 0.0
C280 C 0.56419 0.14134 0.55467 0.0
C281 C 0.59792 0.16848 0.55011 0.0
H282 H 1.03998 0.49106 0.65286 0.0
H283 H 0.10772 0.58381 0.77535 0.0
H284 H 0.11486 0.60692 0.61698 0.0
H285 H 0.10571 0.48598 0.4757 0.0
H286 H 1.06401 0.46984 0.38339 0.0
H287 H 1.05514 0.46226 0.50559 0.0
H288 H 0.98289 0.48861 0.48375 0.0
H289 H 0.99118 0.49578 0.36071 0.0
H290 H 0.98363 0.52991 0.43618 0.0
H291 H 0.1285 0.61583 0.4542 0.0
H292 H 0.1412 0.61294 0.28604 0.0
H293 H 1.06222 0.51572 0.26026 0.0
C294 C 1.05489 0.51657 0.64558 0.0
C295 C 0.07363 0.53586 0.72548 0.0
C296 C 0.09373 0.56881 0.71452 0.0
C297 C 0.09755 0.58218 0.62495 0.0
C298 C 0.08073 0.5622 0.54709 0.0
C299 C 1.05914 0.53029 0.55571 0.0
C300 C 1.04855 0.51318 0.45963 0.0
C301 C 0.06963 0.48093 0.45593 0.0
C302 C 0.99859 0.50649 0.43353 0.0
C303 C 0.07004 0.5398 0.39751 0.0
C304 C 0.08789 0.56792 0.44978 0.0
C305 C 0.11366 0.59444 0.41148 0.0
C306 C 0.12114 0.59237 0.31645 0.0
C307 C 0.10256 0.56411 0.26115 0.0
C308 C 0.0763 0.53767 0.30154 0.0
H309 H 0.63564 0.0586 0.27677 0.0
H310 H 0.51074 0.99401 0.24685 0.0
H311 H 0.50279 1.0056 0.07602 0.0
H312 H 0.60972 0.11948 0.09603 0.0
H313 H 0.66326 0.12308 0.0525 0.0
H314 H 0.65722 0.11336 0.17517 0.0
H315 H 0.69407 0.06016 0.15842 0.0
H316 H 0.70094 0.07001 0.03647 0.0
H317 H 0.67231 1.03019 0.06623 0.0
H318 H 0.50856 1.022 0.91247 0.0
H319 H 0.53459 1.0334 0.75554 0.0
H320 H 0.65819 0.08417 0.88546 0.0
C321 C 0.60674 0.047 0.23387 0.0
C322 C 0.5738 1.02552 0.27394 0.0
C323 C 0.53646 1.01037 0.2166 0.0
C324 C 0.53132 1.0172 0.1201 0.0
C325 C 0.56408 0.03887 0.08267 0.0
C326 C 0.60159 0.05292 0.13685 0.0
C327 C 0.63422 0.07186 0.07629 0.0
C328 C 0.64151 0.10917 0.10152 0.0
C329 C 0.67795 0.05716 0.08483 0.0
C330 C 0.60953 0.06537 -0.02076 0.0
C331 C 0.56857 0.04719 -0.01442 0.0
C332 C 0.54045 0.03626 0.90629 0.0
C333 C 0.55551 0.04257 0.81771 0.0
C334 C 0.59825 0.05905 0.80956 0.0
C335 C 0.62507 0.07187 0.89064 0.0
H336 H 0.609 0.60553 0.52715 0.0
H337 H 0.5971 0.50593 0.63938 0.0
H338 H 0.60232 0.48277 0.4813 0.0
H339 H 0.54442 0.5877 0.31828 0.0
H340 H 0.57712 0.61467 0.24307 0.0
H341 H 0.57906 0.62419 0.36746 0.0
H342 H 0.66369 0.62511 0.38461 0.0
H343 H 0.66204 0.61585 0.25974 0.0
H344 H 0.68697 0.58957 0.34564 0.0
H345 H 0.59627 0.47003 0.31293 0.0
H346 H 0.5854 0.46787 0.13878 0.0
H347 H 0.60604 0.57578 0.13021 0.0
C348 C 0.60852 0.57896 0.51812 0.0
C349 C 0.60123 0.55705 0.59397 0.0
C350 C 0.60067 0.52257 0.58075 0.0
C351 C 0.60448 0.50939 0.49172 0.0
C352 C 0.6097 0.53133 0.41709 0.0
C353 C 0.6125 0.56543 0.42902 0.0
C354 C 0.61484 0.583 0.33483 0.0
C355 C 0.57657 0.60358 0.31478 0.0
C356 C 0.65955 0.60466 0.331 0.0
C357 C 0.61029 0.55327 0.26831 0.0
C358 C 0.60796 0.5238 0.31787 0.0
C359 C 0.59924 0.49285 0.27297 0.0
C360 C 0.5927 0.49189 0.17432 0.0
C361 C 0.59529 0.52169 0.12215 0.0
C362 C 0.6048 0.55275 0.16928 0.0
loop_
_geom_bond_atom_site_label_1
_geom_bond_atom_site_label_2
_geom_bond_distance
_geom_bond_site_symmetry_2
_ccdc_geom_bond_type
Pr0 C2 2.880 1_455 S
Pr0 O20 2.562 1_455 S
Pr0 O21 2.490 1_455 S
Pr0 O22 2.695 . S
Pr0 O23 2.512 1_554 S
Pr0 O25 2.437 1_455 S
Pr0 O28 2.436 . S
Pr0 O30 2.438 . S
Pr1 C11 2.880 . S
Pr1 O22 2.436 . S
Pr1 O24 2.438 1_455 S
Pr1 O26 2.562 . S
Pr1 O27 2.490 . S
Pr1 O28 2.695 . S
Pr1 O29 2.512 . S
Pr1 O31 2.437 . S
C2 Pr0 2.880 1_655 S
C2 C3 1.491 . S
C2 O20 1.254 . S
C2 O21 1.225 . S
C3 C2 1.491 . S
C3 C4 1.392 . S
C3 C8 1.356 . S
C4 C3 1.392 . S
C4 C5 1.368 . S
C4 H32 0.929 1_554 S
C5 C4 1.368 . S
C5 C6 1.386 . S
C5 H33 0.929 . S
C6 C5 1.386 . S
C6 C7 1.373 . S
C7 C6 1.373 . S
C7 C8 1.409 . S
C7 H34 0.931 . S
C8 C3 1.356 . S
C8 C7 1.409 . S
C8 H35 0.930 . S
C9 O22 1.270 1_556 S
C9 O23 1.248 . S
C10 O24 1.267 . S
C10 O25 1.278 . S
C11 Pr1 2.880 . S
C11 C12 1.491 . S
C11 O26 1.254 . S
C11 O27 1.225 . S
C12 C11 1.491 . S
C12 C13 1.392 . S
C12 C17 1.356 . S
C13 C12 1.392 . S
C13 C14 1.368 . S
C13 H36 0.929 . S
C14 C13 1.368 . S
C14 C15 1.386 . S
C14 H37 0.929 . S
C15 C14 1.386 . S
C15 C16 1.373 . S
C16 C15 1.373 . S
C16 C17 1.409 . S
C16 H38 0.931 1_554 S
C17 C12 1.356 . S
C17 C16 1.409 . S
C17 H39 0.930 1_554 S
C18 O28 1.270 . S
C18 O29 1.248 . S
C19 O30 1.267 . S
C19 O31 1.278 . S
O20 Pr0 2.562 1_655 S
O20 C2 1.254 . S
O21 Pr0 2.490 1_655 S
O21 C2 1.225 . S
O22 Pr0 2.695 . S
O22 Pr1 2.436 . S
O22 C9 1.270 1_554 S
O23 Pr0 2.512 1_556 S
O23 C9 1.248 . S
O24 Pr1 2.438 1_655 S
O24 C10 1.267 . S
O25 Pr0 2.437 1_655 S
O25 C10 1.278 . S
O26 Pr1 2.562 . S
O26 C11 1.254 . S
O27 Pr1 2.490 . S
O27 C11 1.225 . S
O28 Pr0 2.436 . S
O28 Pr1 2.695 . S
O28 C18 1.270 . S
O29 Pr1 2.512 . S
O29 C18 1.248 . S
O30 Pr0 2.438 . S
O30 C19 1.267 . S
O31 Pr1 2.437 . S
O31 C19 1.278 . S
H32 C4 0.929 1_556 S
H33 C5 0.929 . S
H34 C7 0.931 . S
H35 C8 0.930 . S
H36 C13 0.929 . S
H37 C14 0.929 . S
H38 C16 0.931 1_556 S
H39 C17 0.930 1_556 S
Pr40 C42 2.880 . S
Pr40 O60 2.562 . S
Pr40 O61 2.490 . S
Pr40 O62 2.695 . S
Pr40 O63 2.512 . S
Pr40 O65 2.437 . S
Pr40 O68 2.436 . S
Pr40 O70 2.438 1_545 S
Pr41 C51 2.903 . S
Pr41 O62 2.437 1_565 S
Pr41 O64 2.409 1_565 S
Pr41 O66 2.585 . S
Pr41 O67 2.509 . S
Pr41 O68 2.689 1_565 S
Pr41 O69 2.512 . S
Pr41 O71 2.462 . S
C42 Pr40 2.880 . S
C42 C43 1.491 . S
C42 O60 1.254 . S
C42 O61 1.225 . S
C43 C42 1.491 . S
C43 C44 1.392 . S
C43 C48 1.356 . S
C44 C43 1.392 . S
C44 C45 1.368 . S
C44 H72 0.929 . S
C45 C44 1.368 . S
C45 C46 1.386 . S
C45 H73 0.929 . S
C46 C45 1.386 . S
C46 C47 1.373 . S
C47 C46 1.373 . S
C47 C48 1.409 . S
C47 H74 0.931 . S
C48 C43 1.356 . S
C48 C47 1.409 . S
C48 H75 0.930 . S
C49 O62 1.270 . S
C49 O63 1.248 . S
C50 O64 1.267 . S
C50 O65 1.278 . S
C51 Pr41 2.903 . S
C51 C52 1.491 . S
C51 O66 1.254 . S
C51 O67 1.225 . S
C52 C51 1.491 . S
C52 C53 1.392 . S
C52 C57 1.356 . S
C53 C52 1.392 . S
C53 C54 1.368 . S
C53 H76 0.929 . S
C54 C53 1.368 . S
C54 C55 1.386 . S
C54 H77 0.929 . S
C55 C54 1.386 . S
C55 C56 1.373 . S
C56 C55 1.373 . S
C56 C57 1.409 . S
C56 H78 0.931 . S
C57 C52 1.356 . S
C57 C56 1.409 . S
C57 H79 0.930 . S
C58 O68 1.270 . S
C58 O69 1.241 1_545 S
C59 O70 1.267 . S
C59 O71 1.278 . S
O60 Pr40 2.562 . S
O60 C42 1.254 . S
O61 Pr40 2.490 . S
O61 C42 1.225 . S
O62 Pr40 2.695 . S
O62 Pr41 2.437 1_545 S
O62 C49 1.270 . S
O63 Pr40 2.512 . S
O63 C49 1.248 . S
O64 Pr41 2.409 1_545 S
O64 C50 1.267 . S
O65 Pr40 2.437 . S
O65 C50 1.278 . S
O66 Pr41 2.585 . S
O66 C51 1.254 . S
O67 Pr41 2.509 . S
O67 C51 1.225 . S
O68 Pr40 2.436 . S
O68 Pr41 2.689 1_545 S
O68 C58 1.270 . S
O69 Pr41 2.512 . S
O69 C58 1.241 1_565 S
O70 Pr40 2.438 1_565 S
O70 C59 1.267 . S
O71 Pr41 2.462 . S
O71 C59 1.278 . S
H72 C44 0.929 . S
H73 C45 0.929 . S
H74 C47 0.931 . S
H75 C48 0.930 . S
H76 C53 0.929 . S
H77 C54 0.929 . S
H78 C56 0.931 . S
H79 C57 0.930 . S
Pr80 C82 2.880 . S
Pr80 O100 2.562 . S
Pr80 O101 2.490 . S
Pr80 O102 2.695 . S
Pr80 O103 2.512 1_556 S
Pr80 O105 2.437 . S
Pr80 O108 2.436 . S
Pr80 O110 2.438 . S
Pr81 C91 2.880 . S
Pr81 O102 2.436 . S
Pr81 O104 2.438 . S
Pr81 O106 2.562 . S
Pr81 O107 2.490 . S
Pr81 O108 2.695 . S
Pr81 O109 2.512 . S
Pr81 O111 2.437 . S
C82 Pr80 2.880 . S
C82 C83 1.491 . S
C82 O100 1.254 . S
C82 O101 1.225 . S
C83 C82 1.491 . S
C83 C84 1.392 . S
C83 C88 1.356 . S
C84 C83 1.392 . S
C84 C85 1.368 . S
C84 H112 0.929 . S
C85 C84 1.368 . S
C85 C86 1.386 . S
C85 H113 0.929 . S
C86 C85 1.386 . S
C86 C87 1.373 . S
C87 C86 1.373 . S
C87 C88 1.409 . S
C87 H114 0.931 . S
C88 C83 1.356 . S
C88 C87 1.409 . S
C88 H115 0.930 . S
C89 O102 1.270 1_554 S
C89 O103 1.248 . S
C90 O104 1.267 . S
C90 O105 1.278 . S
C91 Pr81 2.880 . S
C91 C92 1.491 . S
C91 O106 1.254 . S
C91 O107 1.225 . S
C92 C91 1.491 . S
C92 C93 1.392 . S
C92 C97 1.356 . S
C93 C92 1.392 . S
C93 C94 1.368 . S
C93 H116 0.929 . S
C94 C93 1.368 . S
C94 C95 1.386 . S
C94 H117 0.929 . S
C95 C94 1.386 . S
C95 C96 1.373 . S
C96 C95 1.373 . S
C96 C97 1.409 . S
C96 H118 0.931 1_556 S
C97 C92 1.356 . S
C97 C96 1.409 . S
C97 H119 0.930 . S
C98 O108 1.270 . S
C98 O109 1.248 . S
C99 O110 1.267 . S
C99 O111 1.278 . S
O100 Pr80 2.562 . S
O100 C82 1.254 . S
O101 Pr80 2.490 . S
O101 C82 1.225 . S
O102 Pr80 2.695 . S
O102 Pr81 2.436 . S
O102 C89 1.270 1_556 S
O103 Pr80 2.512 1_554 S
O103 C89 1.248 . S
O104 Pr81 2.438 . S
O104 C90 1.267 . S
O105 Pr80 2.437 . S
O105 C90 1.278 . S
O106 Pr81 2.562 . S
O106 C91 1.254 . S
O107 Pr81 2.490 . S
O107 C91 1.225 . S
O108 Pr80 2.436 . S
O108 Pr81 2.695 . S
O108 C98 1.270 . S
O109 Pr81 2.512 . S
O109 C98 1.248 . S
O110 Pr80 2.438 . S
O110 C99 1.267 . S
O111 Pr81 2.437 . S
O111 C99 1.278 . S
H112 C84 0.929 . S
H113 C85 0.929 . S
H114 C87 0.931 . S
H115 C88 0.930 . S
H116 C93 0.929 . S
H117 C94 0.929 . S
H118 C96 0.931 1_554 S
H119 C97 0.930 . S
H120 C132 0.930 . S
H121 C134 0.930 . S
H122 C135 0.930 . S
H123 C139 0.959 . S
H124 C139 0.959 . S
H125 C139 0.961 . S
H126 C140 0.960 . S
H127 C140 0.961 . S
H128 C140 0.959 . S
H129 C143 0.929 . S
H130 C144 0.931 . S
H131 C146 0.930 . S
C132 H120 0.930 . S
C132 C133 1.399 . S
C132 C137 1.399 . S
C133 C132 1.399 . S
C133 C134 1.376 . S
C134 H121 0.930 . S
C134 C133 1.376 . S
C134 C135 1.388 . S
C135 H122 0.930 . S
C135 C134 1.388 . S
C135 C136 1.390 . S
C136 C135 1.390 . S
C136 C137 1.394 . S
C136 C142 1.465 1_554 S
C137 C132 1.399 . S
C137 C136 1.394 . S
C137 C138 1.516 1_554 S
C138 C137 1.516 1_556 S
C138 C139 1.502 . S
C138 C140 1.561 1_556 S
C138 C141 1.526 . S
C139 H123 0.959 . S
C139 H124 0.959 . S
C139 H125 0.961 . S
C139 C138 1.502 . S
C140 H126 0.960 . S
C140 H127 0.961 . S
C140 H128 0.959 . S
C140 C138 1.561 1_554 S
C141 C138 1.526 . S
C141 C142 1.396 . S
C141 C146 1.390 . S
C142 C136 1.465 1_556 S
C142 C141 1.396 . S
C142 C143 1.399 . S
C143 H129 0.929 . S
C143 C142 1.399 . S
C143 C144 1.385 . S
C144 H130 0.931 . S
C144 C143 1.385 . S
C144 C145 1.389 . S
C145 C144 1.389 . S
C145 C146 1.387 . S
C146 H131 0.930 . S
C146 C141 1.390 . S
C146 C145 1.387 . S
H147 C159 0.930 . S
H148 C161 0.930 . S
H149 C162 0.930 . S
H150 C166 0.959 . S
H151 C166 0.959 . S
H152 C166 0.961 . S
H153 C167 0.960 . S
H154 C167 0.961 . S
H155 C167 0.959 . S
H156 C170 0.929 . S
H157 C171 0.931 . S
H158 C173 0.930 . S
C159 H147 0.930 . S
C159 C160 1.399 . S
C159 C164 1.399 . S
C160 C159 1.399 . S
C160 C161 1.376 . S
C161 H148 0.930 . S
C161 C160 1.376 . S
C161 C162 1.388 . S
C162 H149 0.930 . S
C162 C161 1.388 . S
C162 C163 1.390 . S
C163 C162 1.390 . S
C163 C164 1.394 . S
C163 C169 1.465 . S
C164 C159 1.399 . S
C164 C163 1.394 . S
C164 C165 1.516 . S
C165 C164 1.516 . S
C165 C166 1.502 . S
C165 C167 1.561 . S
C165 C168 1.526 . S
C166 H150 0.959 . S
C166 H151 0.959 . S
C166 H152 0.961 . S
C166 C165 1.502 . S
C167 H153 0.960 . S
C167 H154 0.961 . S
C167 H155 0.959 . S
C167 C165 1.561 . S
C168 C165 1.526 . S
C168 C169 1.396 . S
C168 C173 1.390 . S
C169 C163 1.465 . S
C169 C168 1.396 . S
C169 C170 1.399 . S
C170 H156 0.929 . S
C170 C169 1.399 . S
C170 C171 1.385 . S
C171 H157 0.931 . S
C171 C170 1.385 . S
C171 C172 1.389 . S
C172 C171 1.389 . S
C172 C173 1.387 . S
C173 H158 0.930 . S
C173 C168 1.390 . S
C173 C172 1.387 . S
H174 C186 0.930 . S
H175 C188 0.930 . S
H176 C189 0.930 . S
H177 C193 0.959 . S
H178 C193 0.959 . S
H179 C193 0.961 . S
H180 C194 0.960 . S
H181 C194 0.961 . S
H182 C194 0.959 . S
H183 C197 0.929 . S
H184 C198 0.931 . S
H185 C200 0.930 . S
C186 H174 0.930 . S
C186 C187 1.399 . S
C186 C191 1.399 . S
C187 C186 1.399 . S
C187 C188 1.376 . S
C188 H175 0.930 . S
C188 C187 1.376 . S
C188 C189 1.388 . S
C189 H176 0.930 . S
C189 C188 1.388 . S
C189 C190 1.390 . S
C190 C189 1.390 . S
C190 C191 1.394 . S
C190 C196 1.465 . S
C191 C186 1.399 . S
C191 C190 1.394 . S
C191 C192 1.516 . S
C192 C191 1.516 . S
C192 C193 1.502 . S
C192 C194 1.561 . S
C192 C195 1.526 . S
C193 H177 0.959 . S
C193 H178 0.959 . S
C193 H179 0.961 . S
C193 C192 1.502 . S
C194 H180 0.960 . S
C194 H181 0.961 . S
C194 H182 0.959 . S
C194 C192 1.561 . S
C195 C192 1.526 . S
C195 C196 1.396 . S
C195 C200 1.390 . S
C196 C190 1.465 . S
C196 C195 1.396 . S
C196 C197 1.399 . S
C197 H183 0.929 . S
C197 C196 1.399 . S
C197 C198 1.385 . S
C198 H184 0.931 . S
C198 C197 1.385 . S
C198 C199 1.389 . S
C199 C198 1.389 . S
C199 C200 1.387 . S
C200 H185 0.930 . S
C200 C195 1.390 . S
C200 C199 1.387 . S
H201 C213 0.930 1_554 S
H202 C215 0.930 . S
H203 C216 0.930 . S
H204 C220 0.959 . S
H205 C220 0.959 . S
H206 C220 0.961 . S
H207 C221 0.960 . S
H208 C221 0.961 . S
H209 C221 0.959 . S
H210 C224 0.929 . S
H211 C225 0.931 . S
H212 C227 0.930 . S
C213 H201 0.930 1_556 S
C213 C214 1.399 . S
C213 C218 1.399 . S
C214 C213 1.399 . S
C214 C215 1.376 . S
C215 H202 0.930 . S
C215 C214 1.376 . S
C215 C216 1.388 . S
C216 H203 0.930 . S
C216 C215 1.388 . S
C216 C217 1.390 . S
C217 C216 1.390 . S
C217 C218 1.394 . S
C217 C223 1.465 . S
C218 C213 1.399 . S
C218 C217 1.394 . S
C218 C219 1.516 1_556 S
C219 C218 1.516 1_554 S
C219 C220 1.502 . S
C219 C221 1.561 . S
C219 C222 1.526 . S
C220 H204 0.959 . S
C220 H205 0.959 . S
C220 H206 0.961 . S
C220 C219 1.502 . S
C221 H207 0.960 . S
C221 H208 0.961 . S
C221 H209 0.959 . S
C221 C219 1.561 . S
C222 C219 1.526 . S
C222 C223 1.396 1_554 S
C222 C227 1.390 . S
C223 C217 1.465 . S
C223 C222 1.396 1_556 S
C223 C224 1.399 . S
C224 H210 0.929 . S
C224 C223 1.399 . S
C224 C225 1.385 . S
C225 H211 0.931 . S
C225 C224 1.385 . S
C225 C226 1.389 1_556 S
C226 C225 1.389 1_554 S
C226 C227 1.387 . S
C227 H212 0.930 . S
C227 C222 1.390 . S
C227 C226 1.387 . S
H228 C240 0.930 . S
H229 C242 0.930 . S
H230 C243 0.930 . S
H231 C247 0.959 . S
H232 C247 0.959 . S
H233 C247 0.961 . S
H234 C248 0.960 . S
H235 C248 0.961 . S
H236 C248 0.959 . S
H237 C251 0.929 . S
H238 C252 0.931 . S
H239 C254 0.930 . S
C240 H228 0.930 . S
C240 C241 1.399 . S
C240 C245 1.399 . S
C241 C240 1.399 . S
C241 C242 1.376 . S
C242 H229 0.930 . S
C242 C241 1.376 . S
C242 C243 1.388 . S
C243 H230 0.930 . S
C243 C242 1.388 . S
C243 C244 1.390 . S
C244 C243 1.390 . S
C244 C245 1.394 . S
C244 C250 1.465 . S
C245 C240 1.399 . S
C245 C244 1.394 . S
C245 C246 1.516 . S
C246 C245 1.516 . S
C246 C247 1.502 . S
C246 C248 1.561 . S
C246 C249 1.526 . S
C247 H231 0.959 . S
C247 H232 0.959 . S
C247 H233 0.961 . S
C247 C246 1.502 . S
C248 H234 0.960 . S
C248 H235 0.961 . S
C248 H236 0.959 . S
C248 C246 1.561 . S
C249 C246 1.526 . S
C249 C250 1.396 . S
C249 C254 1.390 . S
C250 C244 1.465 . S
C250 C249 1.396 . S
C250 C251 1.399 . S
C251 H237 0.929 . S
C251 C250 1.399 . S
C251 C252 1.385 . S
C252 H238 0.931 . S
C252 C251 1.385 . S
C252 C253 1.389 . S
C253 C252 1.389 . S
C253 C254 1.387 . S
C254 H239 0.930 . S
C254 C249 1.390 . S
C254 C253 1.387 . S
H255 C267 0.930 . S
H256 C269 0.930 . S
H257 C270 0.930 . S
H258 C274 0.959 . S
H259 C274 0.959 . S
H260 C274 0.961 . S
H261 C275 0.960 . S
H262 C275 0.961 . S
H263 C275 0.959 . S
H264 C278 0.929 . S
H265 C279 0.931 . S
H266 C281 0.930 . S
C267 H255 0.930 . S
C267 C268 1.399 . S
C267 C272 1.399 . S
C268 C267 1.399 . S
C268 C269 1.376 . S
C269 H256 0.930 . S
C269 C268 1.376 . S
C269 C270 1.388 . S
C270 H257 0.930 . S
C270 C269 1.388 . S
C270 C271 1.390 . S
C271 C270 1.390 . S
C271 C272 1.394 . S
C271 C277 1.465 . S
C272 C267 1.399 . S
C272 C271 1.394 . S
C272 C273 1.516 . S
C273 C272 1.516 . S
C273 C274 1.502 . S
C273 C275 1.561 . S
C273 C276 1.526 . S
C274 H258 0.959 . S
C274 H259 0.959 . S
C274 H260 0.961 . S
C274 C273 1.502 . S
C275 H261 0.960 . S
C275 H262 0.961 . S
C275 H263 0.959 . S
C275 C273 1.561 . S
C276 C273 1.526 . S
C276 C277 1.396 . S
C276 C281 1.390 . S
C277 C271 1.465 . S
C277 C276 1.396 . S
C277 C278 1.399 . S
C278 H264 0.929 . S
C278 C277 1.399 . S
C278 C279 1.385 . S
C279 H265 0.931 . S
C279 C278 1.385 . S
C279 C280 1.389 . S
C280 C279 1.389 . S
C280 C281 1.387 . S
C281 H266 0.930 . S
C281 C276 1.390 . S
C281 C280 1.387 . S
H282 C294 0.930 . S
H283 C296 0.930 . S
H284 C297 0.930 . S
H285 C301 0.959 . S
H286 C301 0.959 . S
H287 C301 0.961 . S
H288 C302 0.960 . S
H289 C302 0.961 . S
H290 C302 0.959 . S
H291 C305 0.929 . S
H292 C306 0.931 . S
H293 C308 0.930 . S
C294 H282 0.930 . S
C294 C295 1.399 . S
C294 C299 1.399 . S
C295 C294 1.399 . S
C295 C296 1.376 . S
C296 H283 0.930 . S
C296 C295 1.376 . S
C296 C297 1.388 . S
C297 H284 0.930 . S
C297 C296 1.388 . S
C297 C298 1.390 . S
C298 C297 1.390 . S
C298 C299 1.394 . S
C298 C304 1.465 . S
C299 C294 1.399 . S
C299 C298 1.394 . S
C299 C300 1.516 . S
C300 C299 1.516 . S
C300 C301 1.502 . S
C300 C302 1.561 1_455 S
C300 C303 1.526 . S
C301 H285 0.959 . S
C301 H286 0.959 . S
C301 H287 0.961 . S
C301 C300 1.502 . S
C302 H288 0.960 . S
C302 H289 0.961 . S
C302 H290 0.959 . S
C302 C300 1.561 1_655 S
C303 C300 1.526 . S
C303 C304 1.396 . S
C303 C308 1.390 . S
C304 C298 1.465 . S
C304 C303 1.396 . S
C304 C305 1.399 . S
C305 H291 0.929 . S
C305 C304 1.399 . S
C305 C306 1.385 . S
C306 H292 0.931 . S
C306 C305 1.385 . S
C306 C307 1.389 . S
C307 C306 1.389 . S
C307 C308 1.387 . S
C308 H293 0.930 . S
C308 C303 1.390 . S
C308 C307 1.387 . S
H309 C321 0.942 . S
H310 C323 0.930 . S
H311 C324 0.930 . S
H312 C328 0.959 . S
H313 C328 0.959 1_556 S
H314 C328 0.961 . S
H315 C329 0.960 . S
H316 C329 0.961 1_556 S
H317 C329 0.959 . S
H318 C332 0.929 . S
H319 C333 0.931 . S
H320 C335 0.930 1_565 S
C321 H309 0.942 . S
C321 C322 1.399 . S
C321 C326 1.399 . S
C322 C321 1.399 . S
C322 C323 1.376 . S
C323 H310 0.930 . S
C323 C322 1.376 . S
C323 C324 1.388 . S
C324 H311 0.930 . S
C324 C323 1.388 . S
C324 C325 1.390 . S
C325 C324 1.390 . S
C325 C326 1.394 . S
C325 C331 1.465 1_554 S
C326 C321 1.399 . S
C326 C325 1.394 . S
C326 C327 1.516 1_545 S
C327 C326 1.516 1_565 S
C327 C328 1.502 1_565 S
C327 C329 1.561 . S
C327 C330 1.526 1_564 S
C328 H312 0.959 . S
C328 H313 0.959 1_554 S
C328 H314 0.961 . S
C328 C327 1.502 1_545 S
C329 H315 0.960 . S
C329 H316 0.961 1_554 S
C329 H317 0.959 . S
C329 C327 1.561 . S
C330 C327 1.526 1_546 S
C330 C331 1.396 . S
C330 C335 1.390 . S
C331 C325 1.465 1_556 S
C331 C330 1.396 . S
C331 C332 1.399 . S
C332 H318 0.929 . S
C332 C331 1.399 . S
C332 C333 1.385 . S
C333 H319 0.931 . S
C333 C332 1.385 . S
C333 C334 1.389 . S
C334 C333 1.389 . S
C334 C335 1.387 . S
C335 H320 0.930 1_545 S
C335 C330 1.390 . S
C335 C334 1.387 . S
H336 C348 0.930 . S
H337 C350 0.930 . S
H338 C351 0.930 . S
H339 C355 0.959 . S
H340 C355 0.959 . S
H341 C355 0.961 . S
H342 C356 0.960 . S
H343 C356 0.961 . S
H344 C356 0.959 . S
H345 C359 0.929 . S
H346 C360 0.931 . S
H347 C362 0.930 . S
C348 H336 0.930 . S
C348 C349 1.399 . S
C348 C353 1.399 . S
C349 C348 1.399 . S
C349 C350 1.376 . S
C350 H337 0.930 . S
C350 C349 1.376 . S
C350 C351 1.388 . S
C351 H338 0.930 . S
C351 C350 1.388 . S
C351 C352 1.390 . S
C352 C351 1.390 . S
C352 C353 1.394 . S
C352 C358 1.465 . S
C353 C348 1.399 . S
C353 C352 1.394 . S
C353 C354 1.516 . S
C354 C353 1.516 . S
C354 C355 1.502 . S
C354 C356 1.561 . S
C354 C357 1.526 . S
C355 H339 0.959 . S
C355 H340 0.959 . S
C355 H341 0.961 . S
C355 C354 1.502 . S
C356 H342 0.960 . S
C356 H343 0.961 . S
C356 H344 0.959 . S
C356 C354 1.561 . S
C357 C354 1.526 . S
C357 C358 1.396 . S
C357 C362 1.390 . S
C358 C352 1.465 . S
C358 C357 1.396 . S
C358 C359 1.399 . S
C359 H345 0.929 . S
C359 C358 1.399 . S
C359 C360 1.385 . S
C360 H346 0.931 . S
C360 C359 1.385 . S
C360 C361 1.389 . S
C361 C360 1.389 . S
C361 C362 1.387 . S
C362 H347 0.930 . S
C362 C357 1.390 . S
C362 C361 1.387 . S
C133 C19 2.989 . S
C145 C99 2.924 . S
C160 C46 1.574 . S
C172 C6 1.524 . S
C187 C59 2.561 . S
C199 C95 2.436 . S
C214 C90 2.665 . S
C226 C10 2.666 . S
C241 C55 1.483 . S
C253 C15 1.568 . S
C268 C86 2.228 . S
C280 C50 2.160 . S
C295 C9 0.634 . S
C307 C18 0.449 . S
C322 C58 0.447 . S
C334 C49 0.631 . S
C349 C98 0.653 . S
C361 C89 0.459 . S
