# Generated by pormake.
# Topology ukv, (4)-cn, num edge types: 1
# Building blocks:
#     Node 0, Type 0, BuildingBlock: NAHDIM_clean_sbu_0, # of connection points: 4
#     Node 1, Type 0, BuildingBlock: NAHDIM_clean_sbu_0, # of connection points: 4
#     Node 2, Type 0, BuildingBlock: NAHDIM_clean_sbu_0, # of connection points: 4
#     Node 3, Type 0, BuildingBlock: NAHDIM_clean_sbu_0, # of connection points: 4
#     Node 4, Type 0, BuildingBlock: NAHDIM_clean_sbu_0, # of connection points: 4
#     Node 5, Type 0, BuildingBlock: NAHDIM_clean_sbu_0, # of connection points: 4
#     Node 6, Type 0, BuildingBlock: NAHDIM_clean_sbu_0, # of connection points: 4
#     Node 7, Type 0, BuildingBlock: NAHDIM_clean_sbu_0, # of connection points: 4
#     Node 8, Type 0, BuildingBlock: NAHDIM_clean_sbu_0, # of connection points: 4
#     Node 9, Type 0, BuildingBlock: NAHDIM_clean_sbu_0, # of connection points: 4
#     Node 10, Type 0, BuildingBlock: NAHDIM_clean_sbu_0, # of connection points: 4
#     Node 11, Type 0, BuildingBlock: NAHDIM_clean_sbu_0, # of connection points: 4
#     Node 12, Type 0, BuildingBlock: NAHDIM_clean_sbu_0, # of connection points: 4
#     Node 13, Type 0, BuildingBlock: NAHDIM_clean_sbu_0, # of connection points: 4
#     Node 14, Type 0, BuildingBlock: NAHDIM_clean_sbu_0, # of connection points: 4
#     Node 15, Type 0, BuildingBlock: NAHDIM_clean_sbu_0, # of connection points: 4
#     Node 16, Type 0, BuildingBlock: NAHDIM_clean_sbu_0, # of connection points: 4
#     Node 17, Type 0, BuildingBlock: NAHDIM_clean_sbu_0, # of connection points: 4
#     Node 18, Type 0, BuildingBlock: NAHDIM_clean_sbu_0, # of connection points: 4
#     Node 19, Type 0, BuildingBlock: NAHDIM_clean_sbu_0, # of connection points: 4
#     Node 20, Type 0, BuildingBlock: NAHDIM_clean_sbu_0, # of connection points: 4
#     Node 21, Type 0, BuildingBlock: NAHDIM_clean_sbu_0, # of connection points: 4
#     Node 22, Type 0, BuildingBlock: NAHDIM_clean_sbu_0, # of connection points: 4
#     Node 23, Type 0, BuildingBlock: NAHDIM_clean_sbu_0, # of connection points: 4
#     Node 24, Type 0, BuildingBlock: NAHDIM_clean_sbu_0, # of connection points: 4
#     Node 25, Type 0, BuildingBlock: NAHDIM_clean_sbu_0, # of connection points: 4
#     Node 26, Type 0, BuildingBlock: NAHDIM_clean_sbu_0, # of connection points: 4
#     Node 27, Type 0, BuildingBlock: NAHDIM_clean_sbu_0, # of connection points: 4
#     Node 28, Type 0, BuildingBlock: NAHDIM_clean_sbu_0, # of connection points: 4
#     Node 29, Type 0, BuildingBlock: NAHDIM_clean_sbu_0, # of connection points: 4
#     Node 30, Type 0, BuildingBlock: NAHDIM_clean_sbu_0, # of connection points: 4
#     Node 31, Type 0, BuildingBlock: NAHDIM_clean_sbu_0, # of connection points: 4
#     Node 32, Type 0, BuildingBlock: NAHDIM_clean_sbu_0, # of connection points: 4
#     Node 33, Type 0, BuildingBlock: NAHDIM_clean_sbu_0, # of connection points: 4
#     Node 34, Type 0, BuildingBlock: NAHDIM_clean_sbu_0, # of connection points: 4
#     Node 35, Type 0, BuildingBlock: NAHDIM_clean_sbu_0, # of connection points: 4
#     Edge 36, Type (0, 0), BuildingBlock: XIVTED_clean_linker_0, # of connection points: 2
#     Edge 37, Type (0, 0), BuildingBlock: XIVTED_clean_linker_0, # of connection points: 2
#     Edge 38, Type (0, 0), BuildingBlock: XIVTED_clean_linker_0, # of connection points: 2
#     Edge 39, Type (0, 0), BuildingBlock: XIVTED_clean_linker_0, # of connection points: 2
#     Edge 40, Type (0, 0), BuildingBlock: XIVTED_clean_linker_0, # of connection points: 2
#     Edge 41, Type (0, 0), BuildingBlock: XIVTED_clean_linker_0, # of connection points: 2
#     Edge 42, Type (0, 0), BuildingBlock: XIVTED_clean_linker_0, # of connection points: 2
#     Edge 43, Type (0, 0), BuildingBlock: XIVTED_clean_linker_0, # of connection points: 2
#     Edge 44, Type (0, 0), BuildingBlock: XIVTED_clean_linker_0, # of connection points: 2
#     Edge 45, Type (0, 0), BuildingBlock: XIVTED_clean_linker_0, # of connection points: 2
#     Edge 46, Type (0, 0), BuildingBlock: XIVTED_clean_linker_0, # of connection points: 2
#     Edge 47, Type (0, 0), BuildingBlock: XIVTED_clean_linker_0, # of connection points: 2
#     Edge 48, Type (0, 0), BuildingBlock: XIVTED_clean_linker_0, # of connection points: 2
#     Edge 49, Type (0, 0), BuildingBlock: XIVTED_clean_linker_0, # of connection points: 2
#     Edge 50, Type (0, 0), BuildingBlock: XIVTED_clean_linker_0, # of connection points: 2
#     Edge 51, Type (0, 0), BuildingBlock: XIVTED_clean_linker_0, # of connection points: 2
#     Edge 52, Type (0, 0), BuildingBlock: XIVTED_clean_linker_0, # of connection points: 2
#     Edge 53, Type (0, 0), BuildingBlock: XIVTED_clean_linker_0, # of connection points: 2
#     Edge 54, Type (0, 0), BuildingBlock: XIVTED_clean_linker_0, # of connection points: 2
#     Edge 55, Type (0, 0), BuildingBlock: XIVTED_clean_linker_0, # of connection points: 2
#     Edge 56, Type (0, 0), BuildingBlock: XIVTED_clean_linker_0, # of connection points: 2
#     Edge 57, Type (0, 0), BuildingBlock: XIVTED_clean_linker_0, # of connection points: 2
#     Edge 58, Type (0, 0), BuildingBlock: XIVTED_clean_linker_0, # of connection points: 2
#     Edge 59, Type (0, 0), BuildingBlock: XIVTED_clean_linker_0, # of connection points: 2
#     Edge 60, Type (0, 0), BuildingBlock: XIVTED_clean_linker_0, # of connection points: 2
#     Edge 61, Type (0, 0), BuildingBlock: XIVTED_clean_linker_0, # of connection points: 2
#     Edge 62, Type (0, 0), BuildingBlock: XIVTED_clean_linker_0, # of connection points: 2
#     Edge 63, Type (0, 0), BuildingBlock: XIVTED_clean_linker_0, # of connection points: 2
#     Edge 64, Type (0, 0), BuildingBlock: XIVTED_clean_linker_0, # of connection points: 2
#     Edge 65, Type (0, 0), BuildingBlock: XIVTED_clean_linker_0, # of connection points: 2
#     Edge 66, Type (0, 0), BuildingBlock: XIVTED_clean_linker_0, # of connection points: 2
#     Edge 67, Type (0, 0), BuildingBlock: XIVTED_clean_linker_0, # of connection points: 2
#     Edge 68, Type (0, 0), BuildingBlock: XIVTED_clean_linker_0, # of connection points: 2
#     Edge 69, Type (0, 0), BuildingBlock: XIVTED_clean_linker_0, # of connection points: 2
#     Edge 70, Type (0, 0), BuildingBlock: XIVTED_clean_linker_0, # of connection points: 2
#     Edge 71, Type (0, 0), BuildingBlock: XIVTED_clean_linker_0, # of connection points: 2
#     Edge 72, Type (0, 0), BuildingBlock: XIVTED_clean_linker_0, # of connection points: 2
#     Edge 73, Type (0, 0), BuildingBlock: XIVTED_clean_linker_0, # of connection points: 2
#     Edge 74, Type (0, 0), BuildingBlock: XIVTED_clean_linker_0, # of connection points: 2
#     Edge 75, Type (0, 0), BuildingBlock: XIVTED_clean_linker_0, # of connection points: 2
#     Edge 76, Type (0, 0), BuildingBlock: XIVTED_clean_linker_0, # of connection points: 2
#     Edge 77, Type (0, 0), BuildingBlock: XIVTED_clean_linker_0, # of connection points: 2
#     Edge 78, Type (0, 0), BuildingBlock: XIVTED_clean_linker_0, # of connection points: 2
#     Edge 79, Type (0, 0), BuildingBlock: XIVTED_clean_linker_0, # of connection points: 2
#     Edge 80, Type (0, 0), BuildingBlock: XIVTED_clean_linker_0, # of connection points: 2
#     Edge 81, Type (0, 0), BuildingBlock: XIVTED_clean_linker_0, # of connection points: 2
#     Edge 82, Type (0, 0), BuildingBlock: XIVTED_clean_linker_0, # of connection points: 2
#     Edge 83, Type (0, 0), BuildingBlock: XIVTED_clean_linker_0, # of connection points: 2
#     Edge 84, Type (0, 0), BuildingBlock: XIVTED_clean_linker_0, # of connection points: 2
#     Edge 85, Type (0, 0), BuildingBlock: XIVTED_clean_linker_0, # of connection points: 2
#     Edge 86, Type (0, 0), BuildingBlock: XIVTED_clean_linker_0, # of connection points: 2
#     Edge 87, Type (0, 0), BuildingBlock: XIVTED_clean_linker_0, # of connection points: 2
#     Edge 88, Type (0, 0), BuildingBlock: XIVTED_clean_linker_0, # of connection points: 2
#     Edge 89, Type (0, 0), BuildingBlock: XIVTED_clean_linker_0, # of connection points: 2
#     Edge 90, Type (0, 0), BuildingBlock: XIVTED_clean_linker_0, # of connection points: 2
#     Edge 91, Type (0, 0), BuildingBlock: XIVTED_clean_linker_0, # of connection points: 2
#     Edge 92, Type (0, 0), BuildingBlock: XIVTED_clean_linker_0, # of connection points: 2
#     Edge 93, Type (0, 0), BuildingBlock: XIVTED_clean_linker_0, # of connection points: 2
#     Edge 94, Type (0, 0), BuildingBlock: XIVTED_clean_linker_0, # of connection points: 2
#     Edge 95, Type (0, 0), BuildingBlock: XIVTED_clean_linker_0, # of connection points: 2
#     Edge 96, Type (0, 0), BuildingBlock: XIVTED_clean_linker_0, # of connection points: 2
#     Edge 97, Type (0, 0), BuildingBlock: XIVTED_clean_linker_0, # of connection points: 2
#     Edge 98, Type (0, 0), BuildingBlock: XIVTED_clean_linker_0, # of connection points: 2
#     Edge 99, Type (0, 0), BuildingBlock: XIVTED_clean_linker_0, # of connection points: 2
#     Edge 100, Type (0, 0), BuildingBlock: XIVTED_clean_linker_0, # of connection points: 2
#     Edge 101, Type (0, 0), BuildingBlock: XIVTED_clean_linker_0, # of connection points: 2
#     Edge 102, Type (0, 0), BuildingBlock: XIVTED_clean_linker_0, # of connection points: 2
#     Edge 103, Type (0, 0), BuildingBlock: XIVTED_clean_linker_0, # of connection points: 2
#     Edge 104, Type (0, 0), BuildingBlock: XIVTED_clean_linker_0, # of connection points: 2
#     Edge 105, Type (0, 0), BuildingBlock: XIVTED_clean_linker_0, # of connection points: 2
#     Edge 106, Type (0, 0), BuildingBlock: XIVTED_clean_linker_0, # of connection points: 2
#     Edge 107, Type (0, 0), BuildingBlock: XIVTED_clean_linker_0, # of connection points: 2
# Relax obj value: 0.250
# Max RMSD: 0.179
# Mean RMSD: 0.179
data_MOF--net-ukv--node1-NAHDIM_clean_sbu_0--edge1-XIVTED_clean_linker_0
_symmetry_space_group_name_H-M    P1
_symmetry_Int_Tables_number       1
_symmetry_cell_setting            triclinic
loop_
_symmetry_equiv_pos_as_xyz
'x, y, z'
_cell_length_a     96.329946
_cell_length_b     96.316721
_cell_length_c     20.271368
_cell_angle_alpha  90.030998
_cell_angle_beta   89.990477
_cell_angle_gamma 120.03808
loop_
_atom_site_label
_atom_site_type_symbol
_atom_site_fract_x
_atom_site_fract_y
_atom_site_fract_z
_atom_type_partial_charge
C0 C 0.25005 0.0495 0.09881 0.0
O1 O 0.26416 0.06224 0.10882 0.0
O2 O 0.27442 0.077 0.96748 0.0
Zn3 Zn 0.25113 0.06859 0.99011 0.0
O4 O 0.24863 0.08538 0.03868 0.0
C5 C 0.24478 0.06499 0.84996 0.0
O6 O 0.25796 0.06414 0.84764 0.0
O7 O 0.24208 0.04896 0.04787 0.0
C8 C 0.23459 0.08177 0.05687 0.0
O9 O 0.22261 0.06725 0.04515 0.0
C10 C 0.28581 0.08897 0.99655 0.0
O11 O 0.28253 0.09573 0.04579 0.0
O12 O 0.23891 0.06523 0.90582 0.0
C13 C 0.94909 0.19484 0.10042 0.0
O14 O 0.93733 0.19788 0.10798 0.0
O15 O 0.92095 0.19064 0.97132 0.0
Zn16 Zn 0.92815 0.17504 0.99845 0.0
O17 O 0.91062 0.15715 0.05056 0.0
C18 C 0.93107 0.17013 0.85956 0.0
O19 O 0.93341 0.18474 0.8539 0.0
O20 O 0.94823 0.18552 0.05412 0.0
C21 C 0.91226 0.14539 0.06816 0.0
O22 O 0.92569 0.14559 0.05439 0.0
C23 C 0.91008 0.19175 0.00234 0.0
O24 O 0.90386 0.18313 0.05581 0.0
O25 O 0.93019 0.16438 0.9168 0.0
C26 C 0.80312 0.76009 0.06002 0.0
O27 O 0.79397 0.74649 0.02929 0.0
O28 O 0.81506 0.73463 0.97683 0.0
Zn29 Zn 0.8296 0.75776 0.00148 0.0
O30 O 0.84733 0.75955 0.05905 0.0
C31 C 0.83394 0.764 0.86238 0.0
O32 O 0.8189 0.75242 0.86 0.0
O33 O 0.81823 0.76714 0.0521 0.0
C34 C 0.8576 0.75616 0.03662 0.0
O35 O 0.85605 0.75072 0.97604 0.0
C36 C 0.80838 0.72287 0.0164 0.0
O37 O 0.81036 0.72547 0.08024 0.0
O38 O 0.8403 0.76953 0.91825 0.0
C39 C 0.03756 0.23739 0.43619 0.0
O40 O 0.04223 0.25118 0.46565 0.0
O41 O 0.07508 0.26322 0.5185 0.0
Zn42 Zn 0.06691 0.24028 0.49145 0.0
O43 O 0.08278 0.23901 0.43131 0.0
C44 C 0.06555 0.23348 0.62998 0.0
O45 O 0.06148 0.24459 0.63433 0.0
O46 O 0.04578 0.23049 0.44328 0.0
C47 C 0.09636 0.24196 0.45312 0.0
O48 O 0.10026 0.24677 0.51444 0.0
C49 C 0.08151 0.2754 0.48093 0.0
O50 O 0.08262 0.27341 0.41742 0.0
O51 O 0.06655 0.2284 0.5733 0.0
C52 C 0.75573 0.79847 0.40632 0.0
O53 O 0.74087 0.79534 0.39986 0.0
O54 O 0.73251 0.80678 0.52294 0.0
Zn55 Zn 0.75594 0.82065 0.49999 0.0
O56 O 0.75918 0.83911 0.44342 0.0
C57 C 0.76173 0.82428 0.63977 0.0
O58 O 0.74956 0.80953 0.64136 0.0
O59 O 0.76463 0.80857 0.44966 0.0
C60 C 0.75703 0.85016 0.46664 0.0
O61 O 0.75183 0.84899 0.52746 0.0
C62 C 0.72107 0.80616 0.48948 0.0
O63 O 0.72423 0.81429 0.43415 0.0
O64 O 0.76763 0.83062 0.58427 0.0
C65 C 0.1988 0.96595 0.45191 0.0
O66 O 0.20761 0.96187 0.48739 0.0
O67 O 0.18544 0.9278 0.53232 0.0
Zn68 Zn 0.17156 0.93706 0.50671 0.0
O69 O 0.15362 0.92144 0.44898 0.0
C70 C 0.16778 0.93997 0.64528 0.0
O71 O 0.18286 0.94359 0.64689 0.0
O72 O 0.18361 0.95765 0.45571 0.0
C73 C 0.14314 0.90774 0.47034 0.0
O74 O 0.14453 0.90346 0.53042 0.0
C75 C 0.19224 0.92274 0.4933 0.0
O76 O 0.19081 0.92377 0.4293 0.0
O77 O 0.16116 0.9387 0.58968 0.0
C78 C 0.7606 0.95599 0.93897 0.0
O79 O 0.74607 0.95024 0.96297 0.0
O80 O 0.73618 0.9192 0.02739 0.0
Zn81 Zn 0.75936 0.92822 0.00247 0.0
O82 O 0.76153 0.91264 0.94407 0.0
C83 C 0.76575 0.9303 0.14142 0.0
O84 O 0.7541 0.93364 0.14386 0.0
O85 O 0.76853 0.94908 0.95272 0.0
C86 C 0.75836 0.89895 0.96535 0.0
O87 O 0.75282 0.89468 0.0256 0.0
C88 C 0.72427 0.91276 0.98844 0.0
O89 O 0.7267 0.91218 0.92498 0.0
O90 O 0.77122 0.9294 0.08552 0.0
C91 C 0.03948 0.80173 0.9508 0.0
O92 O 0.04312 0.79288 0.98829 0.0
O93 O 0.07879 0.81623 0.02857 0.0
Zn94 Zn 0.06858 0.82936 0.00455 0.0
O95 O 0.08356 0.84782 0.94757 0.0
C96 C 0.06577 0.83283 0.14378 0.0
O97 O 0.06332 0.81813 0.14537 0.0
O98 O 0.0481 0.81691 0.95317 0.0
C99 C 0.09676 0.85911 0.96967 0.0
O100 O 0.10112 0.85827 0.03027 0.0
C101 C 0.08218 0.80794 0.99013 0.0
O102 O 0.07868 0.80716 0.92711 0.0
O103 O 0.06638 0.83922 0.08823 0.0
C104 C 0.19516 0.23945 0.89168 0.0
O105 O 0.19693 0.25367 0.88036 0.0
O106 O 0.19073 0.26437 0.01235 0.0
Zn107 Zn 0.17541 0.24121 0.98927 0.0
O108 O 0.15786 0.2393 0.92996 0.0
C109 C 0.1702 0.23579 0.12898 0.0
O110 O 0.18509 0.24763 0.13242 0.0
O111 O 0.18659 0.23134 0.94034 0.0
C112 C 0.1466 0.24129 0.95172 0.0
O113 O 0.14697 0.24567 0.0134 0.0
C114 C 0.19192 0.27631 0.98075 0.0
O115 O 0.18321 0.27386 0.92753 0.0
O116 O 0.16433 0.22986 0.07288 0.0
C117 C 0.9541 0.75374 0.60312 0.0
O118 O 0.94133 0.73979 0.61535 0.0
O119 O 0.92416 0.7295 0.48063 0.0
Zn120 Zn 0.9332 0.75287 0.50338 0.0
O121 O 0.91784 0.75587 0.56027 0.0
C122 C 0.93484 0.75856 0.36345 0.0
O123 O 0.93705 0.74617 0.36113 0.0
O124 O 0.95397 0.7618 0.55368 0.0
C125 C 0.90478 0.75404 0.53701 0.0
O126 O 0.90085 0.74924 0.47569 0.0
C127 C 0.91276 0.71797 0.51161 0.0
O128 O 0.90675 0.721 0.56419 0.0
O129 O 0.93476 0.76455 0.41921 0.0
C130 C 0.23152 0.18996 0.54636 0.0
O131 O 0.24373 0.19919 0.5082 0.0
O132 O 0.25803 0.17879 0.46589 0.0
Zn133 Zn 0.23498 0.1639 0.49077 0.0
O134 O 0.23376 0.14607 0.54583 0.0
C135 C 0.22894 0.16005 0.35199 0.0
O136 O 0.24066 0.17503 0.35105 0.0
O137 O 0.2256 0.17485 0.54408 0.0
C138 C 0.23817 0.13666 0.52232 0.0
O139 O 0.24413 0.13913 0.46237 0.0
C140 C 0.26969 0.18705 0.5045 0.0
O141 O 0.26712 0.1866 0.56832 0.0
O142 O 0.22308 0.15349 0.40723 0.0
C143 C 0.80311 0.04209 0.5937 0.0
O144 O 0.79873 0.05298 0.5966 0.0
O145 O 0.81219 0.07506 0.49028 0.0
Zn146 Zn 0.82621 0.06521 0.5053 0.0
O147 O 0.84541 0.08024 0.55942 0.0
C148 C 0.82929 0.06545 0.36435 0.0
O149 O 0.8154 0.06493 0.36628 0.0
O150 O 0.8144 0.04427 0.55485 0.0
C151 C 0.85625 0.09334 0.53461 0.0
O152 O 0.85453 0.09708 0.47402 0.0
C153 C 0.81339 0.08671 0.52423 0.0
O154 O 0.82361 0.09227 0.57348 0.0
O155 O 0.83517 0.06368 0.41767 0.0
C156 C 0.90319 0.38687 0.45566 0.0
O157 O 0.91067 0.40103 0.48402 0.0
O158 O 0.9323 0.41598 0.3139 0.0
Zn159 Zn 0.90943 0.40685 0.34372 0.0
O160 O 0.9073 0.42262 0.40144 0.0
C161 C 0.90085 0.40354 0.20591 0.0
O162 O 0.91255 0.40036 0.19947 0.0
O163 O 0.90125 0.38605 0.39339 0.0
C164 C 0.90974 0.43597 0.37893 0.0
O165 O 0.91472 0.43996 0.31786 0.0
C166 C 0.94394 0.41691 0.34693 0.0
O167 O 0.94156 0.41156 0.40784 0.0
O168 O 0.89643 0.40489 0.26345 0.0
C169 C 0.62309 0.5324 0.39836 0.0
O170 O 0.62008 0.54201 0.36298 0.0
O171 O 0.58744 0.52185 0.3032 0.0
Zn172 Zn 0.59525 0.50688 0.33074 0.0
O173 O 0.57751 0.48837 0.37927 0.0
C174 C 0.60039 0.50395 0.19276 0.0
O175 O 0.60327 0.51879 0.19033 0.0
O176 O 0.61451 0.51733 0.39046 0.0
C177 C 0.57972 0.47707 0.39854 0.0
O178 O 0.5937 0.47816 0.38831 0.0
C179 C 0.58179 0.52814 0.34203 0.0
O180 O 0.58146 0.52549 0.40574 0.0
O181 O 0.59858 0.49729 0.24865 0.0
C182 C 0.47172 0.0889 0.45532 0.0
O183 O 0.46993 0.07463 0.46553 0.0
O184 O 0.47275 0.06323 0.32792 0.0
Zn185 Zn 0.48882 0.08636 0.34795 0.0
O186 O 0.50702 0.08707 0.39848 0.0
C187 C 0.49318 0.0918 0.20733 0.0
O188 O 0.47869 0.07924 0.20423 0.0
O189 O 0.47924 0.09668 0.40419 0.0
C190 C 0.51834 0.10052 0.41833 0.0
O191 O 0.51743 0.11351 0.40821 0.0
C192 C 0.47825 0.05466 0.30502 0.0
O193 O 0.49382 0.06116 0.29703 0.0
O194 O 0.49891 0.09797 0.26329 0.0
C195 C 0.7079 0.57735 0.7489 0.0
O196 O 0.72005 0.59197 0.74164 0.0
O197 O 0.73979 0.59999 0.86383 0.0
Zn198 Zn 0.72978 0.57653 0.8405 0.0
O199 O 0.74445 0.57292 0.7817 0.0
C200 C 0.72808 0.57069 0.98009 0.0
O201 O 0.72586 0.58307 0.98246 0.0
O202 O 0.7088 0.56827 0.79212 0.0
C203 C 0.75755 0.57453 0.80347 0.0
O204 O 0.76191 0.57943 0.86441 0.0
C205 C 0.75087 0.61135 0.8309 0.0
O206 O 0.7559 0.6081 0.77591 0.0
O207 O 0.72819 0.56473 0.92429 0.0
C208 C 0.43675 0.14057 0.79646 0.0
O209 O 0.42365 0.13168 0.83069 0.0
O210 O 0.4098 0.15364 0.86019 0.0
Zn211 Zn 0.43326 0.16776 0.83972 0.0
O212 O 0.43623 0.18494 0.77594 0.0
C213 C 0.43747 0.17217 0.97921 0.0
O214 O 0.42668 0.15683 0.9794 0.0
O215 O 0.44301 0.15573 0.79725 0.0
C216 C 0.43389 0.19633 0.79245 0.0
O217 O 0.42865 0.19653 0.8521 0.0
C218 C 0.39836 0.14446 0.82223 0.0
O219 O 0.4013 0.14321 0.75989 0.0
O220 O 0.44361 0.17894 0.92457 0.0
C221 C 0.85183 0.28634 0.72705 0.0
O222 O 0.84577 0.27232 0.69785 0.0
O223 O 0.85053 0.25577 0.85876 0.0
Zn224 Zn 0.83684 0.26535 0.83383 0.0
O225 O 0.81925 0.25067 0.77246 0.0
C226 C 0.83018 0.26462 0.97242 0.0
O227 O 0.84454 0.26634 0.97815 0.0
O228 O 0.8498 0.28682 0.78888 0.0
C229 C 0.80832 0.23683 0.79052 0.0
O230 O 0.80905 0.23157 0.84949 0.0
C231 C 0.85712 0.25038 0.82019 0.0
O232 O 0.8555 0.25102 0.75613 0.0
O233 O 0.82531 0.26587 0.91567 0.0
C234 C 0.41747 0.28741 0.23931 0.0
O235 O 0.40346 0.27475 0.22689 0.0
O236 O 0.3933 0.25694 0.35996 0.0
Zn237 Zn 0.41674 0.2663 0.33838 0.0
O238 O 0.42038 0.2512 0.28198 0.0
C239 C 0.44043 0.26741 0.42807 0.0
O240 O 0.44784 0.26771 0.37317 0.0
O241 O 0.42554 0.28709 0.28838 0.0
C242 C 0.41798 0.23771 0.30263 0.0
O243 O 0.41197 0.23282 0.36187 0.0
C244 C 0.38193 0.24565 0.32777 0.0
O245 O 0.38523 0.23999 0.27478 0.0
O246 O 0.42778 0.26838 0.42483 0.0
C247 C 0.71364 0.13778 0.23014 0.0
O248 O 0.7276 0.14181 0.2036 0.0
O249 O 0.74382 0.13897 0.35479 0.0
Zn250 Zn 0.73397 0.15286 0.33991 0.0
O251 O 0.74991 0.17245 0.28927 0.0
C252 C 0.73215 0.17355 0.4386 0.0
O253 O 0.73107 0.18122 0.38711 0.0
O254 O 0.71309 0.14107 0.2905 0.0
C255 C 0.7461 0.18065 0.25212 0.0
O256 O 0.73089 0.17609 0.24355 0.0
C257 C 0.75618 0.14533 0.39159 0.0
O258 O 0.76141 0.15995 0.41374 0.0
O259 O 0.73172 0.16029 0.42993 0.0
C260 C 0.85998 0.56821 0.28739 0.0
O261 O 0.86918 0.58059 0.32483 0.0
O262 O 0.84797 0.59439 0.36731 0.0
Zn263 Zn 0.83344 0.57139 0.34103 0.0
O264 O 0.81582 0.56987 0.28346 0.0
C265 C 0.8289 0.5646 0.47965 0.0
O266 O 0.84404 0.57591 0.48254 0.0
O267 O 0.84486 0.56221 0.28963 0.0
C268 C 0.8055 0.57315 0.30616 0.0
O269 O 0.80694 0.57837 0.36707 0.0
C270 C 0.85628 0.60617 0.32937 0.0
O271 O 0.85614 0.60376 0.26551 0.0
O272 O 0.82255 0.55934 0.42352 0.0
C273 C 0.6136 0.09096 0.95539 0.0
O274 O 0.59941 0.08269 0.983 0.0
O275 O 0.58698 0.06138 0.81091 0.0
Zn276 Zn 0.59398 0.08388 0.84082 0.0
O277 O 0.57636 0.08366 0.89485 0.0
C278 C 0.59636 0.0921 0.70306 0.0
O279 O 0.59869 0.07985 0.69627 0.0
O280 O 0.61449 0.0932 0.89334 0.0
C281 C 0.57779 0.0969 0.91371 0.0
O282 O 0.59107 0.11032 0.90022 0.0
C283 C 0.57988 0.0491 0.84767 0.0
O284 O 0.57735 0.05092 0.90994 0.0
O285 O 0.59572 0.09692 0.76074 0.0
C286 C 0.90829 0.53097 0.94054 0.0
O287 O 0.92194 0.53144 0.95219 0.0
O288 O 0.93167 0.52429 0.81716 0.0
Zn289 Zn 0.90806 0.51076 0.8392 0.0
O290 O 0.90453 0.49219 0.89656 0.0
C291 C 0.9009 0.50833 0.69958 0.0
O292 O 0.91217 0.52351 0.69855 0.0
O293 O 0.90005 0.52321 0.89063 0.0
C294 C 0.90134 0.47862 0.87353 0.0
O295 O 0.90068 0.47643 0.80942 0.0
C296 C 0.9376 0.5182 0.77846 0.0
O297 O 0.92836 0.50352 0.75681 0.0
O298 O 0.896 0.50136 0.7549 0.0
C299 C 0.46629 0.37261 0.89159 0.0
O300 O 0.45757 0.37632 0.85364 0.0
O301 O 0.481 0.41123 0.80866 0.0
Zn302 Zn 0.49402 0.40102 0.83499 0.0
O303 O 0.51259 0.41643 0.8904 0.0
C304 C 0.49762 0.39788 0.69665 0.0
O305 O 0.48322 0.39619 0.69472 0.0
O306 O 0.48149 0.38095 0.88866 0.0
C307 C 0.52339 0.42977 0.86732 0.0
O308 O 0.52195 0.43387 0.80699 0.0
C309 C 0.47313 0.41541 0.84588 0.0
O310 O 0.47266 0.41281 0.90968 0.0
O311 O 0.50375 0.39807 0.75237 0.0
C312 C 0.57329 0.70789 0.72496 0.0
O313 O 0.58792 0.71375 0.702 0.0
O314 O 0.5976 0.7441 0.63334 0.0
Zn315 Zn 0.57437 0.73511 0.65736 0.0
O316 O 0.57213 0.75095 0.71374 0.0
C317 C 0.56823 0.73284 0.51806 0.0
O318 O 0.5801 0.72982 0.5162 0.0
O319 O 0.5652 0.7145 0.70902 0.0
C320 C 0.57535 0.76453 0.691 0.0
O321 O 0.58096 0.7685 0.63069 0.0
C322 C 0.60939 0.75093 0.67274 0.0
O323 O 0.60674 0.75192 0.73567 0.0
O324 O 0.56255 0.73358 0.5737 0.0
C325 C 0.28205 0.85853 0.76557 0.0
O326 O 0.26791 0.85366 0.79212 0.0
O327 O 0.25404 0.86054 0.63387 0.0
Zn328 Zn 0.26184 0.84521 0.65535 0.0
O329 O 0.24582 0.82702 0.7119 0.0
C330 C 0.26017 0.82138 0.56506 0.0
O331 O 0.25949 0.81376 0.6198 0.0
O332 O 0.28291 0.85644 0.70405 0.0
C333 C 0.23175 0.81705 0.69212 0.0
O334 O 0.22704 0.819 0.63378 0.0
C335 C 0.24476 0.8631 0.66987 0.0
O336 O 0.24014 0.8559 0.72729 0.0
O337 O 0.2629 0.8357 0.56861 0.0
C338 C 0.14253 0.42807 0.7684 0.0
O339 O 0.14692 0.41853 0.79599 0.0
O340 O 0.14197 0.39849 0.63642 0.0
Zn341 Zn 0.15695 0.4216 0.66097 0.0
O342 O 0.17447 0.42353 0.72082 0.0
C343 C 0.16305 0.42732 0.522 0.0
O344 O 0.14869 0.41463 0.5172 0.0
O345 O 0.14527 0.43125 0.70729 0.0
C346 C 0.18548 0.42112 0.69935 0.0
O347 O 0.18484 0.41636 0.6381 0.0
C348 C 0.13876 0.38636 0.67177 0.0
O349 O 0.14496 0.38848 0.73116 0.0
O350 O 0.16826 0.43343 0.57852 0.0
C351 C 0.3806 0.90314 0.04854 0.0
O352 O 0.39494 0.91145 0.02218 0.0
O353 O 0.41327 0.93108 0.16236 0.0
Zn354 Zn 0.4006 0.90701 0.15505 0.0
O355 O 0.41341 0.89999 0.10068 0.0
C356 C 0.40015 0.90519 0.29798 0.0
O357 O 0.3993 0.91836 0.29474 0.0
O358 O 0.37947 0.89959 0.10948 0.0
C359 C 0.4266 0.90193 0.12294 0.0
O360 O 0.43172 0.90874 0.18083 0.0
C361 C 0.40705 0.93983 0.172 0.0
O362 O 0.39137 0.93313 0.17513 0.0
O363 O 0.39906 0.8976 0.24514 0.0
C364 C 0.09653 0.48169 0.04533 0.0
O365 O 0.08795 0.48736 0.01869 0.0
O366 O 0.0667 0.47763 0.18863 0.0
Zn367 Zn 0.08929 0.49362 0.16132 0.0
O368 O 0.08902 0.51125 0.10943 0.0
C369 C 0.09703 0.49846 0.29981 0.0
O370 O 0.08482 0.48379 0.30476 0.0
O371 O 0.09892 0.48299 0.1073 0.0
C372 C 0.10214 0.52343 0.0919 0.0
O373 O 0.11573 0.52397 0.10552 0.0
C374 C 0.05456 0.47464 0.15378 0.0
O375 O 0.05671 0.48162 0.09605 0.0
O376 O 0.10198 0.50438 0.24284 0.0
C377 C 0.53127 0.62356 0.07764 0.0
O378 O 0.53651 0.61333 0.07823 0.0
O379 O 0.52189 0.59088 0.18585 0.0
Zn380 Zn 0.50736 0.59951 0.16094 0.0
O381 O 0.48983 0.58402 0.10103 0.0
C382 C 0.50233 0.60056 0.30009 0.0
O383 O 0.51737 0.60409 0.30338 0.0
O384 O 0.51919 0.62069 0.11285 0.0
C385 C 0.47898 0.57048 0.12238 0.0
O386 O 0.47979 0.56634 0.18339 0.0
C387 C 0.52378 0.58089 0.15165 0.0
O388 O 0.5165 0.57614 0.0944 0.0
O389 O 0.49623 0.60005 0.24391 0.0
C390 C 0.08985 0.62506 0.58669 0.0
O391 O 0.07664 0.62145 0.61898 0.0
O392 O 0.06308 0.58885 0.66919 0.0
Zn393 Zn 0.08664 0.59705 0.65373 0.0
O394 O 0.08892 0.5799 0.60759 0.0
C395 C 0.09021 0.59785 0.79489 0.0
O396 O 0.07634 0.59735 0.79381 0.0
O397 O 0.09656 0.61675 0.5962 0.0
C398 C 0.10267 0.58252 0.58963 0.0
O399 O 0.11525 0.59678 0.59927 0.0
C400 C 0.05236 0.57829 0.63213 0.0
O401 O 0.05672 0.57316 0.58041 0.0
O402 O 0.09768 0.59971 0.74095 0.0
C403 C 0.38141 0.47037 0.55926 0.0
O404 O 0.39452 0.46985 0.54689 0.0
O405 O 0.41057 0.47561 0.68454 0.0
Zn406 Zn 0.40197 0.49019 0.65933 0.0
O407 O 0.41755 0.50812 0.60111 0.0
C408 C 0.40037 0.49499 0.79867 0.0
O409 O 0.39743 0.48014 0.80235 0.0
O410 O 0.38114 0.47824 0.6092 0.0
C411 C 0.43063 0.51941 0.62415 0.0
O412 O 0.4344 0.5188 0.68594 0.0
C413 C 0.42206 0.47522 0.65546 0.0
O414 O 0.42858 0.48422 0.60315 0.0
O415 O 0.40076 0.50095 0.7423 0.0
C416 C 0.53012 0.90112 0.60481 0.0
O417 O 0.53924 0.91379 0.641 0.0
O418 O 0.51857 0.92631 0.69177 0.0
Zn419 Zn 0.50369 0.90363 0.6622 0.0
O420 O 0.48632 0.90289 0.60537 0.0
C421 C 0.49874 0.89501 0.79944 0.0
O422 O 0.51388 0.90624 0.80425 0.0
O423 O 0.51497 0.89463 0.60882 0.0
C424 C 0.47682 0.90738 0.62712 0.0
O425 O 0.47895 0.91342 0.68686 0.0
C426 C 0.52467 0.93851 0.65429 0.0
O427 O 0.52169 0.9366 0.59068 0.0
O428 O 0.49249 0.89074 0.74254 0.0
C429 C 0.2948 0.42651 0.21531 0.0
O430 O 0.29243 0.41444 0.17745 0.0
O431 O 0.25812 0.39903 0.12971 0.0
Zn432 Zn 0.26497 0.42162 0.15716 0.0
O433 O 0.24726 0.42113 0.21058 0.0
C434 C 0.26692 0.42877 0.01857 0.0
O435 O 0.27079 0.41752 0.01407 0.0
O436 O 0.28508 0.43179 0.21231 0.0
C437 C 0.24886 0.43428 0.23173 0.0
O438 O 0.26237 0.44767 0.22079 0.0
C439 C 0.25346 0.38716 0.16844 0.0
O440 O 0.25379 0.38946 0.23244 0.0
O441 O 0.26594 0.43382 0.07535 0.0
C442 C 0.57661 0.86213 0.25732 0.0
O443 O 0.59058 0.86334 0.26914 0.0
O444 O 0.60055 0.85602 0.13463 0.0
Zn445 Zn 0.57719 0.84187 0.15777 0.0
O446 O 0.57415 0.82346 0.21432 0.0
C447 C 0.57128 0.83823 0.01809 0.0
O448 O 0.58352 0.85293 0.01641 0.0
O449 O 0.56842 0.85382 0.20829 0.0
C450 C 0.57628 0.8124 0.19112 0.0
O451 O 0.58134 0.81349 0.13012 0.0
C452 C 0.61213 0.85648 0.16651 0.0
O453 O 0.60917 0.8479 0.22044 0.0
O454 O 0.56543 0.83188 0.07363 0.0
C455 C 0.13371 0.7114 0.2427 0.0
O456 O 0.13278 0.72425 0.25602 0.0
O457 O 0.14152 0.7433 0.13289 0.0
Zn458 Zn 0.1555 0.73373 0.15341 0.0
O459 O 0.17274 0.74722 0.21859 0.0
C460 C 0.16052 0.73438 0.01384 0.0
O461 O 0.14546 0.73081 0.01221 0.0
O462 O 0.14261 0.71191 0.19528 0.0
C463 C 0.18523 0.76027 0.20293 0.0
O464 O 0.1867 0.76582 0.1426 0.0
C465 C 0.14172 0.75491 0.16351 0.0
O466 O 0.15111 0.7611 0.21508 0.0
O467 O 0.16675 0.73432 0.06904 0.0
H468 H 0.18389 0.97433 0.35822 0.0
H469 H 0.26492 0.04534 0.20566 0.0
H470 H 0.23084 0.98697 0.43176 0.0
H471 H 0.219 0.02482 0.10799 0.0
H472 H 0.2526 0.02532 0.29307 0.0
H473 H 0.19648 0.99441 0.27158 0.0
C474 C 0.19686 0.98141 0.3565 0.0
C475 C 0.20633 0.97893 0.40237 0.0
C476 C 0.24525 0.02515 0.25235 0.0
C477 C 0.22081 0.00193 0.30284 0.0
C478 C 0.25226 0.03657 0.20239 0.0
C479 C 0.24297 0.03675 0.1494 0.0
C480 C 0.22878 0.01393 0.2497 0.0
C481 C 0.22664 0.02509 0.14777 0.0
C482 C 0.20403 0.99281 0.30671 0.0
C483 C 0.22307 0.98845 0.39744 0.0
N484 N 0.22004 0.01422 0.1974 0.0
N485 N 0.22978 -0.00046 0.34855 0.0
H486 H 0.97282 0.18717 0.11334 0.0
H487 H 0.01652 0.24813 0.41213 0.0
H488 H 0.95591 0.21729 0.19647 0.0
H489 H 0.02753 0.2116 0.35352 0.0
H490 H 0.99509 0.23796 0.32979 0.0
H491 H 0.9941 0.19724 0.19639 0.0
C492 C 0.97363 0.19596 0.14878 0.0
C493 C 0.96255 0.20138 0.14798 0.0
C494 C 0.00216 0.23213 0.33518 0.0
C495 C 0.98684 0.21292 0.24327 0.0
C496 C 0.01438 0.23792 0.38225 0.0
C497 C 0.02385 0.23072 0.3898 0.0
C498 C -0.00055 0.21912 0.29495 0.0
C499 C 0.02052 0.21752 0.34958 0.0
C500 C 0.98574 0.20165 0.1964 0.0
C501 C 0.96416 0.21274 0.19531 0.0
N502 N 0.00866 0.21221 0.3037 0.0
N503 N 0.97607 0.21814 0.24095 0.0
H504 H 0.73947 0.77493 0.31481 0.0
H505 H 0.81902 0.78584 0.14268 0.0
H506 H 0.78719 0.80685 0.3881 0.0
H507 H 0.7714 0.74827 0.09019 0.0
H508 H 0.80748 0.79468 0.22883 0.0
H509 H 0.75086 0.76561 0.22979 0.0
C510 C 0.75235 0.77991 0.31333 0.0
C511 C 0.7624 0.79172 0.35862 0.0
C512 C 0.79955 0.78451 0.19844 0.0
C513 C 0.77553 0.78121 0.26083 0.0
C514 C 0.80612 0.7795 0.14892 0.0
C515 C 0.79616 0.76627 0.10908 0.0
C516 C 0.78288 0.7763 0.20812 0.0
C517 C 0.77954 0.75852 0.1197 0.0
C518 C 0.75884 0.77459 0.26468 0.0
C519 C 0.77899 0.79771 0.35433 0.0
N520 N 0.77342 0.76365 0.1682 0.0
N521 N 0.78504 0.79246 0.30602 0.0
H522 H 0.74722 0.97388 0.89881 0.0
H523 H 0.81321 0.02059 0.61938 0.0
H524 H 0.78832 0.968 0.86707 0.0
H525 H 0.77731 0.03271 0.67513 0.0
H526 H 0.80287 -0.00033 0.70387 0.0
H527 H 0.75704 0.99432 0.81241 0.0
C528 C 0.75836 0.97695 0.87402 0.0
C529 C 0.76696 0.96922 0.89033 0.0
C530 C 0.79723 0.00688 0.69746 0.0
C531 C 0.77816 0.99247 0.79082 0.0
C532 C 0.80307 0.01876 0.64895 0.0
C533 C 0.79615 0.02846 0.64033 0.0
C534 C 0.78433 0.00461 0.73736 0.0
C535 C 0.78306 0.02557 0.68025 0.0
C536 C 0.76394 0.9886 0.82457 0.0
C537 C 0.7813 0.97367 0.85633 0.0
N538 N 0.77759 0.01393 0.72706 0.0
N539 N 0.78641 0.98494 0.80803 0.0
H540 H 0.01778 0.76974 0.933 0.0
H541 H 0.97983 0.78434 0.60705 0.0
H542 H 0.03183 0.81662 0.85448 0.0
H543 H 0.95902 0.73876 0.70759 0.0
H544 H 0.0007 0.79587 0.69162 0.0
H545 H 0.99747 0.75771 0.84614 0.0
C546 C 0.01655 0.77751 0.89776 0.0
C547 C 0.02651 0.79422 0.90117 0.0
C548 C 0.99159 0.78333 0.69505 0.0
C549 C 0.00346 0.78054 0.80127 0.0
C550 C 0.97972 0.77672 0.64656 0.0
C551 C 0.96762 0.76058 0.65038 0.0
C552 C 0.99141 0.77372 0.74755 0.0
C553 C 0.96807 0.75129 0.70284 0.0
C554 C 0.00498 0.77063 0.84813 0.0
C555 C 0.02441 0.80369 0.854 0.0
N556 N 0.97976 0.758 0.74941 0.0
N557 N 0.01317 0.79672 0.80593 0.0
H558 H 0.20878 0.17443 0.64183 0.0
H559 H 0.21603 0.2547 0.79059 0.0
H560 H 0.24118 0.22171 0.5656 0.0
H561 H 0.18892 0.20836 0.88364 0.0
H562 H 0.22492 0.24275 0.70648 0.0
H563 H 0.20053 0.18649 0.72808 0.0
C564 C 0.2141 0.18735 0.64293 0.0
C565 C 0.2257 0.19708 0.59628 0.0
C566 C 0.21709 0.23519 0.74545 0.0
C567 C 0.21634 0.21097 0.69534 0.0
C568 C 0.21202 0.24201 0.79361 0.0
C569 C 0.20168 0.23251 0.8442 0.0
C570 C 0.2117 0.2187 0.74744 0.0
C571 C 0.19691 0.21615 0.84562 0.0
C572 C 0.20943 0.19423 0.69247 0.0
C573 C 0.2322 0.21374 0.60044 0.0
N574 N 0.20189 0.20974 0.79767 0.0
N575 N 0.22743 0.22016 0.64908 0.0
H576 H 0.85659 0.28883 0.59388 0.0
H577 H 0.90337 0.38473 0.59012 0.0
H578 H 0.8664 0.31765 0.76957 0.0
H579 H 0.88799 0.35554 0.41417 0.0
H580 H 0.89168 0.36041 0.65699 0.0
H581 H 0.86982 0.31323 0.52801 0.0
C582 C 0.86157 0.3003 0.61874 0.0
C583 C 0.86033 0.30118 0.68744 0.0
C584 C 0.89088 0.35932 0.60377 0.0
C585 C 0.87553 0.32924 0.61197 0.0
C586 C 0.89759 0.37321 0.56546 0.0
C587 C 0.89662 0.37218 0.49635 0.0
C588 C 0.88319 0.34426 0.57282 0.0
C589 C 0.88897 0.35691 0.46726 0.0
C590 C 0.86911 0.31424 0.58096 0.0
C591 C 0.86705 0.3164 0.71676 0.0
N592 N 0.88255 0.34355 0.50565 0.0
N593 N 0.87435 0.32984 0.67882 0.0
H594 H 0.63031 0.51571 0.48808 0.0
H595 H 0.70146 0.59414 0.65712 0.0
H596 H 0.64405 0.56392 0.42807 0.0
H597 H 0.68358 0.54627 0.73286 0.0
H598 H 0.68057 0.58332 0.5728 0.0
H599 H 0.65013 0.52667 0.57657 0.0
C600 C 0.63754 0.52861 0.4933 0.0
C601 C 0.63552 0.53892 0.45042 0.0
C602 C 0.68115 0.57518 0.60808 0.0
C603 C 0.65821 0.55154 0.55203 0.0
C604 C 0.69306 0.58135 0.65636 0.0
C605 C 0.69432 0.57108 0.70202 0.0
C606 C 0.67045 0.55859 0.605 0.0
C607 C 0.68307 0.55463 0.6987 0.0
C608 C 0.64881 0.53486 0.5441 0.0
C609 C 0.64519 0.55552 0.45985 0.0
N610 N 0.67168 0.54888 0.6507 0.0
N611 N 0.65613 0.56131 0.50956 0.0
H612 H 0.46098 0.15548 0.70637 0.0
H613 H 0.4524 0.07431 0.56175 0.0
H614 H 0.42657 0.10857 0.78016 0.0
H615 H 0.47842 0.12009 0.46348 0.0
H616 H 0.44438 0.08678 0.64729 0.0
H617 H 0.46945 0.14287 0.62357 0.0
C618 C 0.45528 0.14252 0.70561 0.0
C619 C 0.44299 0.13307 0.75028 0.0
C620 C 0.4518 0.09408 0.60691 0.0
C621 C 0.45262 0.11855 0.65506 0.0
C622 C 0.45638 0.08698 0.558 0.0
C623 C 0.46609 0.09617 0.50529 0.0
C624 C 0.45708 0.11054 0.60351 0.0
C625 C 0.47088 0.11253 0.50304 0.0
C626 C 0.46008 0.13533 0.65797 0.0
C627 C 0.43607 0.11633 0.74669 0.0
N628 N 0.46639 0.1192 0.55162 0.0
N629 N 0.44097 0.10961 0.69982 0.0
H630 H 0.44821 0.3129 0.23565 0.0
H631 H 0.43421 0.35144 0.91019 0.0
H632 H 0.40261 0.29276 0.13555 0.0
H633 H 0.48096 0.36482 0.98841 0.0
H634 H 0.42198 0.33129 0.99743 0.0
H635 H 0.45993 0.33384 0.15151 0.0
C636 C 0.44062 0.31296 0.19635 0.0
C637 C 0.42442 0.30101 0.19248 0.0
C638 C 0.43492 0.33862 0.99531 0.0
C639 C 0.43778 0.32489 0.0958 0.0
C640 C 0.44191 0.35011 0.94547 0.0
C641 C 0.45864 0.35981 0.94181 0.0
C642 C 0.44472 0.33693 0.04213 0.0
C643 C 0.46801 0.35758 0.98906 0.0
C644 C 0.44735 0.32486 0.1481 0.0
C645 C 0.41518 0.30168 0.14031 0.0
N646 N 0.46093 0.34642 0.03731 0.0
N647 N 0.422 0.3134 0.09395 0.0
H648 H 0.71126 0.1327 0.09681 0.0
H649 H 0.61563 0.09105 0.08989 0.0
H650 H 0.68254 0.12594 0.27028 0.0
H651 H 0.64495 0.10594 0.91438 0.0
H652 H 0.63989 0.10201 0.15705 0.0
H653 H 0.68695 0.12109 0.02961 0.0
C654 C 0.69984 0.12872 0.12085 0.0
C655 C 0.69894 0.13032 0.18932 0.0
C656 C 0.64102 0.1029 0.10386 0.0
C657 C 0.67106 0.11701 0.11257 0.0
C658 C 0.62717 0.09661 0.06541 0.0
C659 C 0.62826 0.09758 0.99635 0.0
C660 C 0.6561 0.11014 0.0731 0.0
C661 C 0.64355 0.10495 0.96745 0.0
C662 C 0.68597 0.12214 0.08237 0.0
C663 C 0.6838 0.12498 0.21768 0.0
N664 N 0.65687 0.11092 0.00597 0.0
N665 N 0.67046 0.11855 0.17918 0.0
H666 H 0.84445 0.54569 0.19131 0.0
H667 H 0.92373 0.55021 0.04637 0.0
H668 H 0.8917 0.57742 0.2696 0.0
H669 H 0.87807 0.52695 0.94606 0.0
H670 H 0.91218 0.55938 0.1315 0.0
H671 H 0.85643 0.53733 0.10537 0.0
C672 C 0.85735 0.55084 0.19075 0.0
C673 C 0.86709 0.5623 0.23784 0.0
C674 C 0.90472 0.55235 0.09066 0.0
C675 C 0.8809 0.55279 0.13906 0.0
C676 C 0.91131 0.54712 0.04198 0.0
C677 C 0.90184 0.53777 0.98903 0.0
C678 C 0.88851 0.54806 0.08677 0.0
C679 C 0.88582 0.53415 0.9859 0.0
C680 C 0.86419 0.54611 0.14134 0.0
C681 C 0.88373 0.56857 0.23434 0.0
N682 N 0.87963 0.53921 0.03434 0.0
N683 N 0.89012 0.56372 0.18581 0.0
H684 H 0.58714 0.69083 0.77007 0.0
H685 H 0.52006 0.64388 0.04565 0.0
H686 H 0.54525 0.6957 0.79488 0.0
H687 H 0.55799 0.63384 0.00102 0.0
H688 H 0.53027 0.6644 0.95948 0.0
H689 H 0.57745 0.67094 0.85853 0.0
C690 C 0.57586 0.68765 0.79379 0.0
C691 C 0.567 0.69495 0.77491 0.0
C692 C 0.53639 0.65774 0.96873 0.0
C693 C 0.55592 0.6723 0.8768 0.0
C694 C 0.53062 0.64609 0.0182 0.0
C695 C 0.53814 0.63708 0.03042 0.0
C696 C 0.54981 0.66046 0.93141 0.0
C697 C 0.55176 0.64044 0.99313 0.0
C698 C 0.57035 0.67632 0.84444 0.0
C699 C 0.55247 0.69037 0.80762 0.0
N700 N 0.55713 0.65183 0.94526 0.0
N701 N 0.54742 0.67939 0.8571 0.0
H702 H 0.37932 0.90596 0.91491 0.0
H703 H 0.2836 0.86158 0.89976 0.0
H704 H 0.349 0.88729 0.08674 0.0
H705 H 0.31354 0.87204 0.72734 0.0
H706 H 0.30752 0.87304 0.96903 0.0
H707 H 0.35545 0.89574 0.84578 0.0
C708 C 0.36764 0.89976 0.93821 0.0
C709 C 0.36616 0.89744 0.0068 0.0
C710 C 0.30887 0.87284 0.91606 0.0
C711 C 0.33876 0.8857 0.9277 0.0
C712 C 0.29521 0.86633 0.87637 0.0
C713 C 0.29656 0.86581 0.80755 0.0
C714 C 0.32402 0.87898 0.88682 0.0
C715 C 0.31193 0.87214 0.78015 0.0
C716 C 0.35401 0.89389 0.8986 0.0
C717 C 0.35071 0.88931 0.0341 0.0
N718 N 0.32507 0.87848 0.81988 0.0
N719 N 0.3376 0.88373 0.99445 0.0
H720 H 0.13806 0.42599 0.90183 0.0
H721 H 0.09624 0.47973 0.91063 0.0
H722 H 0.13043 0.44714 0.72778 0.0
H723 H 0.11192 0.46566 0.08482 0.0
H724 H 0.10708 0.46646 0.84245 0.0
H725 H 0.12676 0.4389 0.96906 0.0
C726 C 0.13396 0.43331 0.87764 0.0
C727 C 0.13523 0.4355 0.809 0.0
C728 C 0.10816 0.46629 0.89557 0.0
C729 C 0.12225 0.45035 0.88593 0.0
C730 C 0.10195 0.47385 0.93459 0.0
C731 C 0.10317 0.47381 0.0036 0.0
C732 C 0.11556 0.45855 0.92575 0.0
C733 C 0.11074 0.46602 0.03184 0.0
C734 C 0.12755 0.44073 0.91617 0.0
C735 C 0.12972 0.44514 0.78052 0.0
N736 N 0.1166 0.45867 0.9928 0.0
N737 N 0.12346 0.45221 0.81914 0.0
H738 H 0.0799 0.64655 0.55966 0.0
H739 H 0.13858 0.68565 0.25014 0.0
H740 H 0.11389 0.63242 0.49716 0.0
H741 H 0.11145 0.70546 0.33806 0.0
H742 H 0.12757 0.66422 0.33282 0.0
H743 H 0.08962 0.66673 0.47234 0.0
C744 C 0.08944 0.64772 0.52773 0.0
C745 C 0.09612 0.63781 0.53593 0.0
C746 C 0.12398 0.67323 0.33374 0.0
C747 C 0.10721 0.66079 0.43535 0.0
C748 C 0.13018 0.68539 0.28632 0.0
C749 C 0.12598 0.6974 0.28739 0.0
C750 C 0.11344 0.67302 0.3822 0.0
C751 C 0.1151 0.69651 0.33557 0.0
C752 C 0.09498 0.65923 0.4778 0.0
C753 C 0.10844 0.63985 0.4929 0.0
N754 N 0.10924 0.68457 0.38108 0.0
N755 N 0.11356 0.65108 0.44436 0.0
H756 H 0.35459 0.4735 0.55574 0.0
H757 H 0.31867 0.41922 0.23205 0.0
H758 H 0.37742 0.45073 0.4551 0.0
H759 H 0.3005 0.44855 0.31238 0.0
H760 H 0.33929 0.42926 0.31773 0.0
H761 H 0.33338 0.46274 0.47217 0.0
C762 C 0.35508 0.46615 0.51641 0.0
C763 C 0.36783 0.46306 0.51231 0.0
C764 C 0.33082 0.43354 0.31649 0.0
C765 C 0.34366 0.45078 0.41643 0.0
C766 C 0.31904 0.42781 0.26751 0.0
C767 C 0.30784 0.43307 0.26488 0.0
C768 C 0.33135 0.44451 0.36354 0.0
C769 C 0.30891 0.44421 0.31231 0.0
C770 C 0.34302 0.46008 0.46853 0.0
C771 C 0.36787 0.45348 0.46011 0.0
N772 N 0.32041 0.44951 0.35978 0.0
N773 N 0.356 0.44771 0.41425 0.0
H774 H 0.56193 0.911 0.58568 0.0
H775 H 0.54603 0.85726 0.26232 0.0
H776 H 0.5147 0.87826 0.50974 0.0
H777 H 0.59189 0.88233 0.36066 0.0
H778 H 0.53477 0.86691 0.34688 0.0
H779 H 0.57351 0.90226 0.49891 0.0
C780 C 0.55399 0.90193 0.551 0.0
C781 C 0.53731 0.89534 0.55511 0.0
C782 C 0.54731 0.87033 0.34981 0.0
C783 C 0.5505 0.88543 0.45527 0.0
C784 C 0.55377 0.8649 0.30134 0.0
C785 C 0.56991 0.86894 0.30455 0.0
C786 C 0.55709 0.87994 0.40164 0.0
C787 C 0.57936 0.87885 0.35637 0.0
C788 C 0.56061 0.89697 0.50141 0.0
C789 C 0.52761 0.88364 0.50867 0.0
N790 N 0.57281 0.88399 0.40291 0.0
N791 N 0.53435 0.87911 0.46058 0.0
H792 H 0.25089 0.11729 0.49755 0.0
H793 H 0.21981 0.07082 0.84013 0.0
H794 H 0.22171 0.12509 0.63766 0.0
H795 H 0.25784 0.07122 0.72574 0.0
H796 H 0.21548 0.08541 0.75184 0.0
H797 H 0.24917 0.09582 0.56802 0.0
C798 C 0.24403 0.11442 0.54284 0.0
C799 C 0.23661 0.12313 0.56225 0.0
C800 C 0.22462 0.0821 0.74565 0.0
C801 C 0.23446 0.09852 0.64244 0.0
C802 C 0.22705 0.07368 0.7959 0.0
C803 C 0.23945 0.07009 0.79098 0.0
C804 C 0.23466 0.08698 0.69007 0.0
C805 C 0.2483 0.07394 0.73208 0.0
C806 C 0.24304 0.10216 0.58293 0.0
C807 C 0.2278 0.11883 0.6212 0.0
N808 N 0.2459 0.08242 0.68427 0.0
N809 N 0.22703 0.10689 0.65931 0.0
H810 H 0.87879 0.12445 0.50628 0.0
H811 H 0.92163 0.13818 0.85689 0.0
H812 H 0.86575 0.08762 0.65367 0.0
H813 H 0.92679 0.17682 0.7321 0.0
H814 H 0.90621 0.11912 0.77002 0.0
H815 H 0.90085 0.14322 0.5771 0.0
C816 C 0.88065 0.12027 0.55324 0.0
C817 C 0.87029 0.10451 0.57453 0.0
C818 C 0.91091 0.13179 0.76129 0.0
C819 C 0.89554 0.12585 0.65532 0.0
C820 C 0.91981 0.14271 0.81074 0.0
C821 C 0.92524 0.15912 0.80233 0.0
C822 C 0.90742 0.13729 0.70298 0.0
C823 C 0.92265 0.16426 0.74112 0.0
C824 C 0.89324 0.13098 0.59356 0.0
C825 C 0.87331 0.09972 0.63565 0.0
N826 N 0.91371 0.15335 0.69408 0.0
N827 N 0.88561 0.11037 0.67402 0.0
H828 H 0.87402 0.74721 0.51163 0.0
H829 H 0.86646 0.78381 0.85497 0.0
H830 H 0.91195 0.76951 0.65575 0.0
H831 H 0.8255 0.75106 0.73823 0.0
H832 H 0.88411 0.78385 0.76866 0.0
H833 H 0.85692 0.75301 0.58251 0.0
C834 C 0.87877 0.75338 0.55798 0.0
C835 C 0.89437 0.75772 0.57818 0.0
C836 C 0.87125 0.77682 0.76154 0.0
C837 C 0.87499 0.76457 0.6588 0.0
C838 C 0.86115 0.77688 0.81061 0.0
C839 C 0.84445 0.76717 0.80443 0.0
C840 C 0.86464 0.76703 0.70578 0.0
C841 C 0.8383 0.75856 0.74549 0.0
C842 C 0.86902 0.7567 0.59828 0.0
C843 C 0.89994 0.76577 0.63855 0.0
N844 N 0.8484 0.75852 0.69877 0.0
N845 N 0.89025 0.76889 0.67673 0.0
H846 H 0.13949 0.22705 0.8304 0.0
H847 H 0.0691 0.24506 0.75628 0.0
H848 H 0.12244 0.24791 0.97518 0.0
H849 H 0.08005 0.21525 0.63271 0.0
H850 H 0.08712 0.24482 0.84061 0.0
H851 H 0.117 0.22188 0.75931 0.0
C852 C 0.13101 0.23056 0.84726 0.0
C853 C 0.13293 0.23805 0.90861 0.0
C854 C 0.08537 0.23812 0.79547 0.0
C855 C 0.10707 0.23212 0.82733 0.0
C856 C 0.07502 0.23819 0.74737 0.0
C857 C 0.07324 0.23037 0.68683 0.0
C858 C 0.09409 0.2303 0.7826 0.0
C859 C 0.08117 0.2216 0.67826 0.0
C860 C 0.11809 0.22749 0.80679 0.0
C861 C 0.12147 0.24218 0.92811 0.0
N862 N 0.09143 0.22202 0.72512 0.0
N863 N 0.10909 0.23928 0.88731 0.0
H864 H 0.74884 0.81599 0.76398 0.0
H865 H 0.77466 0.90615 0.84865 0.0
H866 H 0.78264 0.85658 0.64827 0.0
H867 H 0.74886 0.86728 0.98597 0.0
H868 H 0.77881 0.88813 0.77771 0.0
H869 H 0.75036 0.83441 0.85042 0.0
C870 C 0.75684 0.82874 0.75728 0.0
C871 C 0.76542 0.83475 0.69823 0.0
C872 C 0.77235 0.88354 0.82358 0.0
C873 C 0.76698 0.85588 0.79641 0.0
C874 C 0.76988 0.89381 0.86395 0.0
C875 C 0.76126 0.88817 0.92302 0.0
C876 C 0.76599 0.86741 0.84188 0.0
C877 C 0.7555 0.8721 0.94064 0.0
C878 C 0.75765 0.83926 0.80658 0.0
C879 C 0.77566 0.85138 0.69255 0.0
N880 N 0.75783 0.86223 0.89987 0.0
N881 N 0.77594 0.86137 0.74048 0.0
H882 H 0.17683 0.93638 0.76957 0.0
H883 H 0.08859 0.86732 0.85317 0.0
H884 H 0.13523 0.92675 0.65438 0.0
H885 H 0.12774 0.88307 0.99128 0.0
H886 H 0.10545 0.89016 0.78296 0.0
H887 H 0.1591 0.91877 0.85612 0.0
C888 C 0.16398 0.93086 0.76303 0.0
C889 C 0.15752 0.93283 0.70403 0.0
C890 C 0.11035 0.88873 0.82886 0.0
C891 C 0.1372 0.91244 0.80233 0.0
C892 C 0.10075 0.8756 0.8688 0.0
C893 C 0.10683 0.87319 0.92786 0.0
C894 C 0.12625 0.89945 0.84754 0.0
C895 C 0.12261 0.88443 0.94593 0.0
C896 C 0.15386 0.92074 0.8124 0.0
C897 C 0.14078 0.92544 0.69859 0.0
N898 N 0.13185 0.897 0.90554 0.0
N899 N 0.13121 0.91536 0.74655 0.0
H900 H 0.78611 0.91826 0.14935 0.0
H901 H 0.74958 0.87366 0.49179 0.0
H902 H 0.75277 0.92568 0.26549 0.0
H903 H 0.77299 0.85898 0.34908 0.0
H904 H 0.75515 0.89653 0.42122 0.0
H905 H 0.78656 0.90095 0.23599 0.0
C906 C 0.77913 0.91653 0.19364 0.0
C907 C 0.76914 0.9232 0.19956 0.0
C908 C 0.75914 0.88834 0.4057 0.0
C909 C 0.76947 0.9032 0.29857 0.0
C910 C 0.75595 0.87529 0.44583 0.0
C911 C 0.76066 0.86429 0.42588 0.0
C912 C 0.76722 0.89048 0.34561 0.0
C913 C 0.76896 0.86703 0.36605 0.0
C914 C 0.77932 0.90654 0.24292 0.0
C915 C 0.76049 0.92062 0.25843 0.0
N916 N 0.77193 0.87982 0.32799 0.0
N917 N 0.76067 0.91063 0.30533 0.0
H918 H 0.0703 0.82454 0.2681 0.0
H919 H 0.1338 0.9149 0.35417 0.0
H920 H 0.0767 0.86503 0.15282 0.0
H921 H 0.12116 0.87598 0.49072 0.0
H922 H 0.11169 0.89676 0.28316 0.0
H923 H 0.08694 0.84299 0.35499 0.0
C924 C 0.07491 0.83727 0.26159 0.0
C925 C 0.07233 0.84325 0.20251 0.0
C926 C 0.11364 0.89219 0.32889 0.0
C927 C 0.09159 0.86442 0.30123 0.0
C928 C 0.12635 0.90253 0.3693 0.0
C929 C 0.12944 0.8969 0.42815 0.0
C930 C 0.10402 0.87602 0.34691 0.0
C931 C 0.11926 0.88079 0.44557 0.0
C932 C 0.08447 0.84781 0.31116 0.0
C933 C 0.07852 0.85986 0.1971 0.0
N934 N 0.1071 0.87086 0.40474 0.0
N935 N 0.08809 0.86987 0.24529 0.0
H936 H 0.13762 0.21599 0.13245 0.0
H937 H 0.12757 0.25027 0.47772 0.0
H938 H 0.17771 0.24854 0.25363 0.0
H939 H 0.09 0.22734 0.33245 0.0
H940 H 0.14544 0.2458 0.40599 0.0
H941 H 0.11935 0.21545 0.21701 0.0
C942 C 0.14261 0.22278 0.17739 0.0
C943 C 0.15925 0.23253 0.18546 0.0
C944 C 0.13326 0.2417 0.39006 0.0
C945 C 0.13834 0.2321 0.28213 0.0
C946 C 0.12307 0.24427 0.43086 0.0
C947 C 0.10732 0.23931 0.41075 0.0
C948 C 0.12761 0.234 0.32904 0.0
C949 C 0.1021 0.23152 0.34968 0.0
C950 C 0.13214 0.22256 0.22546 0.0
C951 C 0.16497 0.24099 0.24497 0.0
N952 N 0.11222 0.22913 0.311 0.0
N953 N 0.15453 0.24073 0.29075 0.0
H954 H 0.87936 0.74632 0.01254 0.0
H955 H 0.92462 0.78041 0.35605 0.0
H956 H 0.86718 0.77195 0.15445 0.0
H957 H 0.92928 0.74542 0.23943 0.0
H958 H 0.90804 0.78223 0.26947 0.0
H959 H 0.90151 0.75008 0.08392 0.0
C960 C 0.88139 0.7528 0.05851 0.0
C961 C 0.8713 0.75867 0.07796 0.0
C962 C 0.91287 0.77431 0.26244 0.0
C963 C 0.89668 0.76316 0.15921 0.0
C964 C 0.92244 0.77334 0.31168 0.0
C965 C 0.92813 0.76253 0.30556 0.0
C966 C 0.90896 0.76442 0.20659 0.0
C967 C 0.92499 0.75377 0.24663 0.0
C968 C 0.89403 0.75495 0.09911 0.0
C969 C 0.87453 0.76705 0.13783 0.0
N970 N 0.91543 0.75475 0.19974 0.0
N971 N 0.8869 0.769 0.17637 0.0
H972 H 0.20748 0.07659 0.12169 0.0
H973 H 0.24586 0.16791 0.23634 0.0
H974 H 0.25509 0.11408 0.06891 0.0
H975 H 0.20601 0.12845 0.33583 0.0
H976 H 0.2454 0.14917 0.15404 0.0
H977 H 0.20342 0.09634 0.18161 0.0
C978 C 0.21704 0.08899 0.12232 0.0
C979 C 0.23173 0.09367 0.09092 0.0
C980 C 0.2366 0.14467 0.19334 0.0
C981 C 0.22706 0.1163 0.15861 0.0
C982 C 0.23676 0.15538 0.24009 0.0
C983 C 0.22613 0.1497 0.29378 0.0
C984 C 0.22568 0.12821 0.20007 0.0
C985 C 0.21457 0.13332 0.29576 0.0
C986 C 0.2147 0.10023 0.15646 0.0
C987 C 0.24366 0.10991 0.09309 0.0
N988 N 0.21477 0.1231 0.25004 0.0
N989 N 0.24108 0.12063 0.12656 0.0
H990 H 0.85914 0.06924 0.34384 0.0
H991 H 0.88122 0.13838 0.08332 0.0
H992 H 0.82394 0.07857 0.25441 0.0
H993 H 0.91334 0.1208 0.13123 0.0
H994 H 0.85984 0.11585 0.14329 0.0
H995 H 0.87876 0.08671 0.26207 0.0
C996 C 0.85542 0.07468 0.30619 0.0
C997 C 0.83993 0.07262 0.30666 0.0
C998 C 0.87152 0.11682 0.14023 0.0
C999 C 0.86242 0.09287 0.21383 0.0
C1000 C 0.88377 0.12976 0.10638 0.0
C1001 C 0.89913 0.13155 0.10282 0.0
C1002 C 0.87469 0.1057 0.17158 0.0
C1003 C 0.90169 0.11992 0.13305 0.0
C1004 C 0.86666 0.0847 0.25963 0.0
C1005 C 0.83578 0.07991 0.25642 0.0
N1006 N 0.88964 0.10757 0.1668 0.0
N1007 N 0.84704 0.08994 0.21279 0.0
H1008 H 0.90925 0.40472 0.07572 0.0
H1009 H 0.89327 0.47578 0.00377 0.0
H1010 H 0.8821 0.41743 0.20726 0.0
H1011 H 0.90259 0.45141 0.84608 0.0
H1012 H 0.88934 0.45435 0.0791 0.0
H1013 H 0.9065 0.42092 0.98926 0.0
C1014 C 0.90243 0.41062 0.08604 0.0
C1015 C 0.89613 0.40992 0.14921 0.0
C1016 C 0.89209 0.45359 0.02787 0.0
C1017 C 0.89324 0.42868 0.05111 0.0
C1018 C 0.89445 0.46589 0.98499 0.0
C1019 C 0.89838 0.46542 0.91876 0.0
C1020 C 0.89395 0.44088 0.00472 0.0
C1021 C 0.89961 0.45224 0.89688 0.0
C1022 C 0.9009 0.41989 0.0367 0.0
C1023 C 0.88732 0.41775 0.1596 0.0
N1024 N 0.89761 0.44057 0.94002 0.0
N1025 N 0.88641 0.42705 0.11149 0.0
H1026 H 0.59676 0.51247 0.06746 0.0
H1027 H 0.53311 0.42241 0.9819 0.0
H1028 H 0.59019 0.47192 0.18277 0.0
H1029 H 0.54586 0.4613 0.84513 0.0
H1030 H 0.55565 0.44033 0.05147 0.0
H1031 H 0.58062 0.4941 0.97948 0.0
C1032 C 0.59226 0.49975 0.07373 0.0
C1033 C 0.59454 0.49371 0.13326 0.0
C1034 C 0.55365 0.44495 0.00596 0.0
C1035 C 0.57585 0.47264 0.03327 0.0
C1036 C 0.54069 0.43473 0.9664 0.0
C1037 C 0.53748 0.44043 0.90805 0.0
C1038 C 0.56337 0.46108 0.98766 0.0
C1039 C 0.54784 0.45645 0.89 0.0
C1040 C 0.58297 0.48926 0.02353 0.0
C1041 C 0.58852 0.47712 0.13826 0.0
N1042 N 0.56022 0.46629 0.93013 0.0
N1043 N 0.5792 0.46715 0.08949 0.0
H1044 H 0.54681 0.07255 0.92748 0.0
H1045 H 0.5235 0.11757 0.1934 0.0
H1046 H 0.57861 0.12205 0.98032 0.0
H1047 H 0.48849 0.07437 0.09459 0.0
H1048 H 0.54367 0.12018 0.11343 0.0
H1049 H 0.52522 0.07321 0.988 0.0
C1050 C 0.54925 0.08357 0.95178 0.0
C1051 C 0.56457 0.09723 0.9493 0.0
C1052 C 0.5315 0.11029 0.10857 0.0
C1053 C 0.5399 0.09807 0.01865 0.0
C1054 C 0.51996 0.10882 0.15407 0.0
C1055 C 0.50432 0.09562 0.15117 0.0
C1056 C 0.52742 0.09835 0.06051 0.0
C1057 C 0.50041 0.08469 0.09901 0.0
C1058 C 0.53688 0.08397 0.98592 0.0
C1059 C 0.56699 0.11122 0.98118 0.0
N1060 N 0.51196 0.08614 0.05646 0.0
N1061 N 0.55483 0.11123 0.01514 0.0
H1062 H 0.7383 0.54883 0.98738 0.0
H1063 H 0.78367 0.58289 0.33072 0.0
H1064 H 0.73369 0.58384 0.10409 0.0
H1065 H 0.79599 0.55754 0.18795 0.0
H1066 H 0.76148 0.57912 0.25954 0.0
H1067 H 0.75494 0.54706 0.07377 0.0
C1068 C 0.7405 0.55592 0.03174 0.0
C1069 C 0.73481 0.56673 0.03793 0.0
C1070 C 0.769 0.57431 0.24412 0.0
C1071 C 0.75406 0.56488 0.13667 0.0
C1072 C 0.78167 0.57647 0.2846 0.0
C1073 C 0.79181 0.57068 0.26486 0.0
C1074 C 0.76638 0.56616 0.18386 0.0
C1075 C 0.78861 0.56238 0.20479 0.0
C1076 C 0.75011 0.55498 0.08086 0.0
C1077 C 0.73798 0.57549 0.09684 0.0
N1078 N 0.77621 0.56041 0.1664 0.0
N1079 N 0.74758 0.57454 0.14362 0.0
H1080 H 0.45493 0.20491 0.98964 0.0
H1081 H 0.41171 0.20695 0.32365 0.0
H1082 H 0.42296 0.16238 0.10003 0.0
H1083 H 0.43526 0.24666 0.18817 0.0
H1084 H 0.41953 0.1913 0.2533 0.0
H1085 H 0.45231 0.22127 0.0751 0.0
C1086 C 0.44761 0.199 0.03246 0.0
C1087 C 0.43894 0.1822 0.03709 0.0
C1088 C 0.42303 0.20347 0.23925 0.0
C1089 C 0.43572 0.20091 0.13473 0.0
C1090 C 0.41855 0.21239 0.27926 0.0
C1091 C 0.42268 0.22808 0.26138 0.0
C1092 C 0.43182 0.21034 0.18132 0.0
C1093 C 0.43164 0.23456 0.20354 0.0
C1094 C 0.44602 0.20837 0.08104 0.0
C1095 C 0.42972 0.17527 0.09402 0.0
N1096 N 0.43588 0.22565 0.16558 0.0
N1097 N 0.42818 0.18465 0.14025 0.0
H1098 H 0.79856 0.25661 0.97377 0.0
H1099 H 0.77856 0.19514 0.26967 0.0
H1100 H 0.83461 0.25436 0.09241 0.0
H1101 H 0.74245 0.19964 0.16118 0.0
H1102 H 0.79931 0.21872 0.21258 0.0
H1103 H 0.77802 0.2383 0.05055 0.0
C1104 C 0.80222 0.25254 0.01669 0.0
C1105 C 0.81833 0.25683 0.02601 0.0
C1106 C 0.78685 0.21464 0.20156 0.0
C1107 C 0.79481 0.23563 0.11351 0.0
C1108 C 0.77498 0.20111 0.23393 0.0
C1109 C 0.75873 0.19529 0.21962 0.0
C1110 C 0.78247 0.22236 0.15406 0.0
C1111 C 0.75482 0.20363 0.1734 0.0
C1112 C 0.79045 0.242 0.06038 0.0
C1113 C 0.82233 0.25125 0.08277 0.0
N1114 N 0.76661 0.21666 0.14183 0.0
N1115 N 0.81063 0.24074 0.12377 0.0
H1116 H 0.46098 0.25585 0.44571 0.0
H1117 H 0.42615 0.22005 0.80283 0.0
H1118 H 0.4276 0.26532 0.5508 0.0
H1119 H 0.44954 0.20227 0.67439 0.0
H1120 H 0.43112 0.24078 0.72119 0.0
H1121 H 0.46199 0.24087 0.54095 0.0
C1122 C 0.45413 0.25509 0.48929 0.0
C1123 C 0.44399 0.26164 0.48985 0.0
C1124 C 0.43525 0.23239 0.7112 0.0
C1125 C 0.44495 0.24434 0.59866 0.0
C1126 C 0.4324 0.22055 0.75768 0.0
C1127 C 0.43726 0.20929 0.74503 0.0
C1128 C 0.44313 0.23305 0.652 0.0
C1129 C 0.4454 0.21057 0.68587 0.0
C1130 C 0.45462 0.24642 0.54348 0.0
C1131 C 0.43543 0.26029 0.54788 0.0
N1132 N 0.44803 0.22219 0.6415 0.0
N1133 N 0.43595 0.25163 0.59971 0.0
H1134 H 0.78561 0.20499 0.80164 0.0
H1135 H 0.74182 0.20491 0.46642 0.0
H1136 H 0.79976 0.24664 0.67926 0.0
H1137 H 0.73716 0.16192 0.55417 0.0
H1138 H 0.75802 0.22032 0.56052 0.0
H1139 H 0.76345 0.18914 0.72534 0.0
C1140 C 0.78401 0.21081 0.75897 0.0
C1141 C 0.79465 0.22711 0.7463 0.0
C1142 C 0.75324 0.20747 0.55959 0.0
C1143 C 0.76927 0.20916 0.65976 0.0
C1144 C 0.74388 0.19863 0.50611 0.0
C1145 C 0.73837 0.18214 0.50177 0.0
C1146 C 0.75706 0.19975 0.60915 0.0
C1147 C 0.74135 0.17466 0.55502 0.0
C1148 C 0.77136 0.20178 0.71561 0.0
C1149 C 0.79197 0.23407 0.69051 0.0
N1150 N 0.75069 0.18357 0.60616 0.0
N1151 N 0.77958 0.22505 0.64927 0.0
H1152 H 0.7496 0.55918 0.68441 0.0
H1153 H 0.83752 0.57652 0.60521 0.0
H1154 H 0.78823 0.58075 0.82585 0.0
H1155 H 0.79619 0.54618 0.48526 0.0
H1156 H 0.81963 0.57653 0.69074 0.0
H1157 H 0.76642 0.55327 0.61343 0.0
C1158 C 0.76163 0.56266 0.7006 0.0
C1159 C 0.76757 0.57061 0.76089 0.0
C1160 C 0.81448 0.56965 0.64616 0.0
C1161 C 0.78694 0.56385 0.67973 0.0
C1162 C 0.82468 0.56958 0.59737 0.0
C1163 C 0.81837 0.56155 0.53743 0.0
C1164 C 0.79788 0.56178 0.63459 0.0
C1165 C 0.80163 0.55269 0.53029 0.0
C1166 C 0.77121 0.55919 0.66021 0.0
C1167 C 0.7832 0.57468 0.77959 0.0
N1168 N 0.79199 0.55327 0.57776 0.0
N1169 N 0.79241 0.5714 0.73883 0.0
H1170 H 0.5873 0.07819 0.58118 0.0
H1171 H 0.54144 0.12551 0.49017 0.0
H1172 H 0.5905 0.11714 0.69838 0.0
H1173 H 0.52754 0.07791 0.42076 0.0
H1174 H 0.56419 0.12637 0.54806 0.0
H1175 H 0.57077 0.08239 0.50141 0.0
C1176 C 0.58486 0.08788 0.58943 0.0
C1177 C 0.59002 0.09713 0.64724 0.0
C1178 C 0.55621 0.11581 0.51968 0.0
C1179 C 0.57101 0.10187 0.55645 0.0
C1180 C 0.54323 0.11529 0.48675 0.0
C1181 C 0.53247 0.10153 0.45139 0.0
C1182 C 0.55853 0.10255 0.51644 0.0
C1183 C 0.53541 0.08867 0.44826 0.0
C1184 C 0.57531 0.09018 0.54408 0.0
C1185 C 0.58656 0.10957 0.65498 0.0
N1186 N 0.54814 0.08948 0.48054 0.0
N1187 N 0.57707 0.11145 0.61052 0.0
H1188 H 0.89338 0.42851 0.49541 0.0
H1189 H 0.91503 0.51746 0.57755 0.0
H1190 H 0.91793 0.46726 0.35635 0.0
H1191 H 0.8803 0.4761 0.687 0.0
H1192 H 0.91498 0.49958 0.49178 0.0
H1193 H 0.88788 0.44596 0.56409 0.0
C1194 C 0.89763 0.44071 0.47929 0.0
C1195 C 0.90626 0.44649 0.42034 0.0
C1196 C 0.90715 0.49445 0.534 0.0
C1197 C 0.89997 0.46657 0.49888 0.0
C1198 C 0.90709 0.50466 0.58287 0.0
C1199 C 0.89787 0.49827 0.64022 0.0
C1200 C 0.89803 0.47777 0.54296 0.0
C1201 C 0.8878 0.48157 0.64418 0.0
C1202 C 0.89437 0.45064 0.51832 0.0
C1203 C 0.9113 0.46235 0.40162 0.0
N1204 N 0.88837 0.4719 0.59686 0.0
N1205 N 0.90823 0.47192 0.44116 0.0
H1206 H 0.54799 0.46813 0.40629 0.0
H1207 H 0.52811 0.40296 0.6821 0.0
H1208 H 0.58188 0.45372 0.46697 0.0
H1209 H 0.49169 0.40827 0.58011 0.0
H1210 H 0.5476 0.41989 0.59889 0.0
H1211 H 0.52694 0.44533 0.46628 0.0
C1212 C 0.55099 0.46013 0.43208 0.0
C1213 C 0.56675 0.46293 0.43226 0.0
C1214 C 0.53528 0.41709 0.59401 0.0
C1215 C 0.5427 0.43679 0.5011 0.0
C1216 C 0.52412 0.40738 0.6414 0.0
C1217 C 0.50829 0.40441 0.63872 0.0
C1218 C 0.53062 0.42405 0.5442 0.0
C1219 C 0.50378 0.41036 0.58461 0.0
C1220 C 0.53894 0.44705 0.46595 0.0
C1221 C 0.56991 0.45207 0.46588 0.0
N1222 N 0.51497 0.42016 0.54021 0.0
N1223 N 0.55803 0.43958 0.49966 0.0
H1224 H 0.58391 0.789 0.16638 0.0
H1225 H 0.54761 0.74456 0.50934 0.0
H1226 H 0.56043 0.80365 0.30893 0.0
H1227 H 0.58134 0.73754 0.39422 0.0
H1228 H 0.54703 0.76172 0.42232 0.0
H1229 H 0.57855 0.76626 0.23742 0.0
C1230 C 0.57756 0.7874 0.2124 0.0
C1231 C 0.57277 0.79834 0.23216 0.0
C1232 C 0.55439 0.75625 0.4157 0.0
C1233 C 0.56644 0.7723 0.31296 0.0
C1234 C 0.55465 0.74634 0.46518 0.0
C1235 C 0.56478 0.73983 0.45967 0.0
C1236 C 0.5643 0.75966 0.36022 0.0
C1237 C 0.57351 0.74247 0.40097 0.0
C1238 C 0.57449 0.77441 0.25279 0.0
C1239 C 0.56452 0.79563 0.29209 0.0
N1240 N 0.57324 0.75238 0.35385 0.0
N1241 N 0.56165 0.78291 0.3304 0.0
H1242 H 0.26003 0.83313 0.4421 0.0
H1243 H 0.18857 0.74927 0.32259 0.0
H1244 H 0.24443 0.78884 0.54782 0.0
H1245 H 0.21138 0.79057 0.19467 0.0
H1246 H 0.20963 0.76356 0.40406 0.0
H1247 H 0.24364 0.81777 0.34808 0.0
C1248 C 0.25342 0.82016 0.44508 0.0
C1249 C 0.25343 0.81227 0.50331 0.0
C1250 C 0.21012 0.76947 0.35799 0.0
C1251 C 0.23443 0.79467 0.39639 0.0
C1252 C 0.19803 0.76136 0.31159 0.0
C1253 C 0.19814 0.76879 0.25194 0.0
C1254 C 0.22235 0.78525 0.34518 0.0
C1255 C 0.21079 0.78441 0.24015 0.0
C1256 C 0.24402 0.8114 0.39143 0.0
C1257 C 0.2447 0.79545 0.50419 0.0
N1258 N 0.22231 0.79219 0.28667 0.0
N1259 N 0.23534 0.78723 0.45199 0.0
H1260 H 0.19363 0.45292 0.51357 0.0
H1261 H 0.2176 0.41029 0.23949 0.0
H1262 H 0.15886 0.41119 0.40598 0.0
H1263 H 0.24976 0.45888 0.30296 0.0
H1264 H 0.19584 0.41071 0.29935 0.0
H1265 H 0.21418 0.45619 0.43434 0.0
C1266 C 0.19024 0.44464 0.47254 0.0
C1267 C 0.17454 0.43163 0.46694 0.0
C1268 C 0.20762 0.42134 0.29976 0.0
C1269 C 0.19805 0.43511 0.37701 0.0
C1270 C 0.22008 0.42106 0.266 0.0
C1271 C 0.23555 0.43452 0.26675 0.0
C1272 C 0.21067 0.4351 0.33535 0.0
C1273 C 0.23803 0.44821 0.30134 0.0
C1274 C 0.20199 0.44648 0.42744 0.0
C1275 C 0.17082 0.42132 0.4126 0.0
N1276 N 0.22575 0.44809 0.33489 0.0
N1277 N 0.18256 0.42312 0.37042 0.0
H1278 H 0.45715 0.91999 0.64715 0.0
H1279 H 0.40753 0.88145 0.31587 0.0
H1280 H 0.46535 0.88977 0.51432 0.0
H1281 H 0.40811 0.92133 0.416 0.0
H1282 H 0.42393 0.87992 0.40396 0.0
H1283 H 0.43507 0.91671 0.57631 0.0
C1284 C 0.45427 0.91261 0.60332 0.0
C1285 C 0.46322 0.90529 0.58617 0.0
C1286 C 0.42029 0.88887 0.40709 0.0
C1287 C 0.4379 0.90132 0.50575 0.0
C1288 C 0.41082 0.8897 0.35701 0.0
C1289 C 0.40667 0.90174 0.35787 0.0
C1290 C 0.42564 0.90015 0.45852 0.0
C1291 C 0.4112 0.91198 0.41286 0.0
C1292 C 0.44166 0.91073 0.56305 0.0
C1293 C 0.45891 0.8958 0.52903 0.0
N1294 N 0.42063 0.9111 0.46063 0.0
N1295 N 0.44659 0.89412 0.49087 0.0
H1296 H 0.12837 0.58534 0.52026 0.0
H1297 H 0.08289 0.49256 0.42151 0.0
H1298 H 0.08093 0.55045 0.58708 0.0
H1299 H 0.12188 0.52944 0.30821 0.0
H1300 H 0.08667 0.51266 0.50395 0.0
H1301 H 0.13012 0.56395 0.46206 0.0
C1302 C 0.11839 0.57317 0.52319 0.0
C1303 C 0.10438 0.56969 0.55771 0.0
C1304 C 0.09457 0.51628 0.46156 0.0
C1305 C 0.10641 0.54523 0.49222 0.0
C1306 C 0.0925 0.5048 0.41467 0.0
C1307 C 0.10187 0.50939 0.35715 0.0
C1308 C 0.10613 0.53242 0.451 0.0
C1309 C 0.11422 0.52542 0.3513 0.0
C1310 C 0.11941 0.56099 0.49006 0.0
C1311 C 0.09185 0.55371 0.56022 0.0
N1312 N 0.11585 0.53642 0.39719 0.0
N1313 N 0.09314 0.54208 0.52765 0.0
H1314 H 0.46128 0.54353 0.65015 0.0
H1315 H 0.46968 0.58709 0.30456 0.0
H1316 H 0.42386 0.52716 0.50339 0.0
H1317 H 0.51033 0.59605 0.42496 0.0
H1318 H 0.45182 0.5692 0.38972 0.0
H1319 H 0.47851 0.56628 0.57888 0.0
C1320 C 0.45667 0.54474 0.60309 0.0
C1321 C 0.44117 0.53334 0.58236 0.0
C1322 C 0.46464 0.57524 0.39787 0.0
C1323 C 0.46071 0.55941 0.50126 0.0
C1324 C 0.47487 0.58557 0.34946 0.0
C1325 C 0.49157 0.59289 0.35708 0.0
C1326 C 0.47113 0.57223 0.45443 0.0
C1327 C 0.49755 0.59052 0.41662 0.0
C1328 C 0.4665 0.55774 0.56257 0.0
C1329 C 0.43578 0.53555 0.52108 0.0
N1330 N 0.48734 0.58023 0.46272 0.0
N1331 N 0.44554 0.54831 0.4827 0.0
H1332 H 0.07312 0.5855 0.9087 0.0
H1333 H 0.12704 0.54859 0.02756 0.0
H1334 H 0.11733 0.59575 0.81319 0.0
H1335 H 0.0771 0.52897 0.07765 0.0
H1336 H 0.12624 0.57017 0.96685 0.0
H1337 H 0.07753 0.56964 0.99108 0.0
C1338 C 0.08394 0.58473 0.90579 0.0
C1339 C 0.09472 0.59173 0.85317 0.0
C1340 C 0.11551 0.56119 0.99157 0.0
C1341 C 0.09972 0.57345 0.94701 0.0
C1342 C 0.11594 0.54887 0.02614 0.0
C1343 C 0.10206 0.53686 0.05705 0.0
C1344 C 0.10115 0.56158 0.98856 0.0
C1345 C 0.08803 0.53786 0.05388 0.0
C1346 C 0.08637 0.57556 0.95262 0.0
C1347 C 0.10858 0.59038 0.85237 0.0
N1348 N 0.08793 0.54998 0.02009 0.0
N1349 N 0.11059 0.58121 0.8981 0.0
H1350 H 0.47101 0.57732 0.00221 0.0
H1351 H 0.40443 0.48734 0.92481 0.0
H1352 H 0.45601 0.53916 0.14474 0.0
H1353 H 0.41318 0.52757 0.80216 0.0
H1354 H 0.42167 0.50606 0.00976 0.0
H1355 H 0.44894 0.55927 0.93065 0.0
C1356 C 0.46306 0.56513 0.01851 0.0
C1357 C 0.46545 0.5597 0.07931 0.0
C1358 C 0.4196 0.51078 0.96468 0.0
C1359 C 0.4401 0.53893 0.9975 0.0
C1360 C 0.4097 0.50009 0.91622 0.0
C1361 C 0.40754 0.50587 0.85578 0.0
C1362 C 0.42751 0.52735 0.9523 0.0
C1363 C 0.41462 0.52254 0.84764 0.0
C1364 C 0.45039 0.55485 0.97777 0.0
C1365 C 0.45466 0.54383 0.09811 0.0
N1366 N 0.42448 0.53267 0.89486 0.0
N1367 N 0.44254 0.53395 0.05706 0.0
H1368 H 0.50696 0.90537 0.92711 0.0
H1369 H 0.41806 0.88443 0.00882 0.0
H1370 H 0.46614 0.87547 0.80392 0.0
H1371 H 0.45736 0.90856 0.14589 0.0
H1372 H 0.43504 0.87849 0.93886 0.0
H1373 H 0.48868 0.90366 0.01436 0.0
C1374 C 0.49416 0.89815 0.91886 0.0
C1375 C 0.48809 0.89082 0.85755 0.0
C1376 C 0.43992 0.88494 0.98457 0.0
C1377 C 0.46712 0.88905 0.95679 0.0
C1378 C 0.43024 0.8884 0.02441 0.0
C1379 C 0.43637 0.8972 0.08283 0.0
C1380 C 0.45592 0.89048 0.00278 0.0
C1381 C 0.45218 0.90187 0.10095 0.0
C1382 C 0.48371 0.89723 0.96867 0.0
C1383 C 0.47138 0.88152 0.84998 0.0
N1384 N 0.46148 0.89862 0.06063 0.0
N1385 N 0.4615 0.88114 0.89853 0.0
H1386 H 0.19304 0.43574 0.82001 0.0
H1387 H 0.26309 0.41708 0.89236 0.0
H1388 H 0.20932 0.41406 0.67578 0.0
H1389 H 0.25276 0.44733 0.01599 0.0
H1390 H 0.24496 0.41735 0.80867 0.0
H1391 H 0.21565 0.4409 0.89033 0.0
C1392 C 0.20137 0.43206 0.8031 0.0
C1393 C 0.1992 0.42433 0.74212 0.0
C1394 C 0.24687 0.42414 0.85367 0.0
C1395 C 0.22521 0.43026 0.8225 0.0
C1396 C 0.25729 0.42406 0.9014 0.0
C1397 C 0.25926 0.43198 0.96183 0.0
C1398 C 0.23827 0.43207 0.86676 0.0
C1399 C 0.25148 0.44089 0.97054 0.0
C1400 C 0.21436 0.43511 0.84312 0.0
C1401 C 0.21049 0.41997 0.72256 0.0
N1402 N 0.24114 0.44047 0.92404 0.0
N1403 N 0.22293 0.42287 0.7629 0.0
H1404 H 0.58496 0.79612 0.66716 0.0
H1405 H 0.54933 0.8062 0.00842 0.0
H1406 H 0.55892 0.75796 0.80724 0.0
H1407 H 0.5847 0.84625 0.89468 0.0
H1408 H 0.54779 0.78808 0.92106 0.0
H1409 H 0.58065 0.81425 0.73798 0.0
C1410 C 0.57828 0.79154 0.71258 0.0
C1411 C 0.57246 0.77556 0.73175 0.0
C1412 C 0.55573 0.80086 0.91481 0.0
C1413 C 0.56733 0.79614 0.8123 0.0
C1414 C 0.55654 0.81124 0.9645 0.0
C1415 C 0.5674 0.82777 0.95948 0.0
C1416 C 0.56582 0.80702 0.85965 0.0
C1417 C 0.57631 0.83358 0.90105 0.0
C1418 C 0.5758 0.80188 0.75285 0.0
C1419 C 0.5638 0.77023 0.79089 0.0
N1420 N 0.5755 0.82319 0.85375 0.0
N1421 N 0.56154 0.78051 0.82911 0.0
H1422 H 0.20015 0.7946 0.67114 0.0
H1423 H 0.19314 0.74767 0.0063 0.0
H1424 H 0.23932 0.80736 0.80658 0.0
H1425 H 0.15212 0.74018 0.89204 0.0
H1426 H 0.21074 0.76601 0.92163 0.0
H1427 H 0.18291 0.77167 0.74144 0.0
C1428 C 0.20514 0.79257 0.71552 0.0
C1429 C 0.22116 0.80302 0.73335 0.0
C1430 C 0.19789 0.76021 0.91467 0.0
C1431 C 0.20156 0.77673 0.81349 0.0
C1432 C 0.18781 0.74962 0.96282 0.0
C1433 C 0.1711 0.74254 0.95681 0.0
C1434 C 0.19124 0.76375 0.86004 0.0
C1435 C 0.16492 0.7455 0.89912 0.0
C1436 C 0.1953 0.77946 0.75552 0.0
C1437 C 0.22701 0.79973 0.7912 0.0
N1438 N 0.17499 0.75604 0.85332 0.0
N1439 N 0.21721 0.78692 0.82921 0.0
H1440 H 0.38839 0.14637 0.94625 0.0
H1441 H 0.29623 0.08132 0.88369 0.0
H1442 H 0.37074 0.12215 0.75972 0.0
H1443 H 0.31331 0.11255 0.0535 0.0
H1444 H 0.3237 0.0941 0.8415 0.0
H1445 H 0.36122 0.13207 0.98993 0.0
C1446 C 0.3788 0.13801 0.91439 0.0
C1447 C 0.38187 0.13551 0.849 0.0
C1448 C 0.32143 0.09811 0.88807 0.0
C1449 C 0.35061 0.11902 0.89911 0.0
C1450 C 0.30576 0.09078 0.91236 0.0
C1451 C 0.30246 0.09591 0.9722 0.0
C1452 C 0.33389 0.11057 0.92409 0.0
C1453 C 0.31528 0.10825 0.00707 0.0
C1454 C 0.36326 0.12986 0.93945 0.0
C1455 C 0.36892 0.1245 0.81029 0.0
N1456 N 0.33041 0.11515 0.98248 0.0
N1457 N 0.35384 0.11665 0.83594 0.0
H1458 H 0.9156 0.20624 0.88123 0.0
H1459 H 0.85943 0.24388 0.94964 0.0
H1460 H 0.89002 0.20009 0.06366 0.0
H1461 H 0.87504 0.2398 0.75451 0.0
H1462 H 0.87338 0.23076 0.9949 0.0
H1463 H 0.90364 0.2215 0.83694 0.0
C1464 C 0.90757 0.2082 0.91217 0.0
C1465 C 0.90375 0.20183 0.97622 0.0
C1466 C 0.87377 0.23275 0.94219 0.0
C1467 C 0.89006 0.21927 0.9258 0.0
C1468 C 0.86584 0.24028 0.91625 0.0
C1469 C 0.86601 0.24289 0.84804 0.0
C1470 C 0.88205 0.22786 0.89981 0.0
C1471 C 0.87454 0.23797 0.80733 0.0
C1472 C 0.9007 0.21685 0.88672 0.0
C1473 C 0.89324 0.2047 0.01395 0.0
N1474 N 0.88222 0.23068 0.83385 0.0
N1475 N 0.88676 0.21321 0.98818 0.0
H1476 H 0.77207 0.63905 0.76728 0.0
H1477 H 0.78993 0.69485 0.08442 0.0
H1478 H 0.74731 0.62148 0.95267 0.0
H1479 H 0.80548 0.71333 0.88772 0.0
H1480 H 0.77519 0.66769 0.03869 0.0
H1481 H 0.78544 0.66628 0.81208 0.0
C1482 C 0.7694 0.64092 0.81732 0.0
C1483 C 0.75856 0.62797 0.85626 0.0
C1484 C 0.78178 0.67771 0.00559 0.0
C1485 C 0.77391 0.65908 0.90804 0.0
C1486 C 0.79022 0.69321 0.03167 0.0
C1487 C 0.79897 0.70639 0.98989 0.0
C1488 C 0.78223 0.67538 0.93735 0.0
C1489 C 0.79889 0.70355 0.92187 0.0
C1490 C 0.77702 0.65647 0.84284 0.0
C1491 C 0.75555 0.63111 0.9208 0.0
N1492 N 0.79073 0.68836 0.89782 0.0
N1493 N 0.76325 0.64633 0.94479 0.0
H1494 H 0.12797 0.37801 0.54499 0.0
H1495 H 0.08459 0.28357 0.61155 0.0
H1496 H 0.12733 0.35748 0.73506 0.0
H1497 H 0.09455 0.30431 0.41642 0.0
H1498 H 0.09744 0.31049 0.65879 0.0
H1499 H 0.11298 0.35103 0.49864 0.0
C1500 C 0.1246 0.36783 0.57715 0.0
C1501 C 0.12897 0.37003 0.64408 0.0
C1502 C 0.09678 0.30915 0.60565 0.0
C1503 C 0.11179 0.33908 0.59109 0.0
C1504 C 0.0894 0.29378 0.57854 0.0
C1505 C 0.08854 0.29166 0.50979 0.0
C1506 C 0.10328 0.32256 0.56383 0.0
C1507 C 0.09499 0.30536 0.46963 0.0
C1508 C 0.11608 0.35242 0.55051 0.0
C1509 C 0.12428 0.35637 0.6832 0.0
N1510 N 0.1021 0.32023 0.49726 0.0
N1511 N 0.11595 0.34148 0.65611 0.0
H1512 H 0.69321 0.79825 0.42393 0.0
H1513 H 0.63754 0.76307 0.74236 0.0
H1514 H 0.71112 0.79349 0.61282 0.0
H1515 H 0.61892 0.75552 0.54378 0.0
H1516 H 0.66478 0.77583 0.69734 0.0
H1517 H 0.66596 0.78412 0.46841 0.0
C1518 C 0.69141 0.79419 0.47467 0.0
C1519 C 0.70446 0.79705 0.51469 0.0
C1520 C 0.65471 0.7713 0.66371 0.0
C1521 C 0.67333 0.78101 0.56605 0.0
C1522 C 0.63917 0.76406 0.68936 0.0
C1523 C 0.62593 0.75822 0.64681 0.0
C1524 C 0.65702 0.77289 0.59507 0.0
C1525 C 0.62876 0.75981 0.57849 0.0
C1526 C 0.67585 0.7861 0.49999 0.0
C1527 C 0.70141 0.7915 0.5801 0.0
N1528 N 0.64398 0.76707 0.55479 0.0
N1529 N 0.68617 0.78384 0.60388 0.0
H1530 H 0.19475 0.91615 0.62249 0.0
H1531 H 0.24889 0.87656 0.54735 0.0
H1532 H 0.20984 0.91195 0.42649 0.0
H1533 H 0.22596 0.87264 0.73494 0.0
H1534 H 0.23707 0.89203 0.50481 0.0
H1535 H 0.20848 0.9027 0.66667 0.0
C1536 C 0.201 0.91246 0.58867 0.0
C1537 C 0.20108 0.91514 0.52053 0.0
C1538 C 0.23466 0.88783 0.55532 0.0
C1539 C 0.21686 0.89971 0.57107 0.0
C1540 C 0.24144 0.87903 0.57979 0.0
C1541 C 0.23836 0.87323 0.64484 0.0
C1542 C 0.22478 0.89095 0.59623 0.0
C1543 C 0.22861 0.87681 0.68445 0.0
C1544 C 0.20882 0.90475 0.61402 0.0
C1545 C 0.20941 0.91009 0.47927 0.0
N1546 N 0.22216 0.88542 0.65949 0.0
N1547 N 0.21696 0.90261 0.5052 0.0
H1548 H 0.71518 0.9076 0.11789 0.0
H1549 H 0.62169 0.87022 0.04456 0.0
H1550 H 0.6959 0.90124 0.92081 0.0
H1551 H 0.64021 0.86404 0.22938 0.0
H1552 H 0.64903 0.88469 0.00111 0.0
H1553 H 0.68797 0.89474 0.162 0.0
C1554 C 0.70523 0.90356 0.08382 0.0
C1555 C 0.70782 0.90546 0.01543 0.0
C1556 C 0.6471 0.88019 0.0512 0.0
C1557 C 0.67662 0.89075 0.06586 0.0
C1558 C 0.63151 0.872 0.07619 0.0
C1559 C 0.62866 0.86589 0.14073 0.0
C1560 C 0.65995 0.88245 0.09123 0.0
C1561 C 0.64185 0.86849 0.1793 0.0
C1562 C 0.68969 0.89617 0.10912 0.0
C1563 C 0.69445 0.89996 0.9738 0.0
N1564 N 0.65693 0.87661 0.15398 0.0
N1565 N 0.67941 0.89287 -0.0003 0.0
H1566 H 0.12459 0.74791 0.04853 0.0
H1567 H 0.09353 0.80966 0.11517 0.0
H1568 H 0.1369 0.77782 0.22203 0.0
H1569 H 0.08936 0.78714 0.92628 0.0
H1570 H 0.10735 0.79622 0.15847 0.0
H1571 H 0.10954 0.76027 0.00664 0.0
C1572 C 0.12407 0.75702 0.07803 0.0
C1573 C 0.13205 0.76186 0.13893 0.0
C1574 C 0.10342 0.79421 0.10755 0.0
C1575 C 0.11482 0.77605 0.09109 0.0
C1576 C 0.09549 0.80185 0.08274 0.0
C1577 C 0.09031 0.79956 0.01682 0.0
C1578 C 0.10614 0.78409 0.0664 0.0
C1579 C 0.09319 0.7893 0.97729 0.0
C1580 C 0.11551 0.76411 0.05391 0.0
C1581 C 0.13098 0.77375 0.17481 0.0
N1582 N 0.1009 0.78193 0.00272 0.0
N1583 N 0.12252 0.78042 0.15036 0.0
H1584 H 0.24328 0.3588 0.23463 0.0
H1585 H 0.2007 0.30473 0.91833 0.0
H1586 H 0.24707 0.37816 0.03909 0.0
H1587 H 0.20701 0.28535 0.10054 0.0
H1588 H 0.2171 0.33176 0.9629 0.0
H1589 H 0.22951 0.33173 0.1877 0.0
C1590 C 0.24133 0.35738 0.18185 0.0
C1591 C 0.24627 0.37077 0.14082 0.0
C1592 C 0.21498 0.3216 0.99298 0.0
C1593 C 0.23042 0.33987 0.08695 0.0
C1594 C 0.20558 0.30616 0.9676 0.0
C1595 C 0.20244 0.29276 0.00579 0.0
C1596 C 0.22115 0.32366 0.05731 0.0
C1597 C 0.20913 0.29534 0.0693 0.0
C1598 C 0.23348 0.34193 0.15509 0.0
C1599 C 0.24345 0.3682 0.07271 0.0
N1600 N 0.21807 0.31048 0.09326 0.0
N1601 N 0.2356 0.35306 0.04804 0.0
H1602 H 0.85654 0.61529 0.45721 0.0
H1603 H 0.91889 0.70815 0.39379 0.0
H1604 H 0.87709 0.63427 0.26611 0.0
H1605 H 0.89036 0.69008 0.57058 0.0
H1606 H 0.90597 0.68085 0.34987 0.0
H1607 H 0.87112 0.64231 0.50285 0.0
C1608 C 0.86417 0.62513 0.42479 0.0
C1609 C 0.86554 0.6225 0.35755 0.0
C1610 C 0.90258 0.68286 0.39833 0.0
C1611 C 0.88231 0.65353 0.40981 0.0
C1612 C 0.90999 0.69843 0.4236 0.0
C1613 C 0.90567 0.70142 0.48597 0.0
C1614 C 0.89084 0.67015 0.43585 0.0
C1615 C 0.89402 0.68836 0.52222 0.0
C1616 C 0.87246 0.64057 0.45096 0.0
C1617 C 0.87562 0.63574 0.31812 0.0
N1618 N 0.88702 0.67331 0.49662 0.0
N1619 N 0.88363 0.6507 0.34485 0.0
H1620 H 0.27919 0.18791 0.37684 0.0
H1621 H 0.37154 0.25126 0.44529 0.0
H1622 H 0.29749 0.20798 0.5693 0.0
H1623 H 0.35436 0.22316 0.26694 0.0
H1624 H 0.34412 0.23783 0.48779 0.0
H1625 H 0.30629 0.20304 0.33243 0.0
C1626 C 0.2889 0.19555 0.40982 0.0
C1627 C 0.28605 0.19662 0.47708 0.0
C1628 C 0.34635 0.23464 0.4393 0.0
C1629 C 0.31718 0.21402 0.42623 0.0
C1630 C 0.362 0.24234 0.41484 0.0
C1631 C 0.36527 0.23828 0.35247 0.0
C1632 C 0.33386 0.22288 0.40097 0.0
C1633 C 0.35242 0.22662 0.31535 0.0
C1634 C 0.30439 0.20416 0.38435 0.0
C1635 C 0.29913 0.20674 0.51725 0.0
N1636 N 0.33728 0.21933 0.34018 0.0
N1637 N 0.31414 0.21505 0.4912 0.0
H1638 H 0.79045 0.07774 0.4279 0.0
H1639 H 0.78063 0.15466 0.47976 0.0
H1640 H 0.81501 0.11343 0.57901 0.0
H1641 H 0.75031 0.11573 0.34902 0.0
H1642 H 0.79393 0.13998 0.51346 0.0
H1643 H 0.77604 0.09161 0.3958 0.0
C1644 C 0.79277 0.08845 0.45454 0.0
C1645 C 0.80399 0.09445 0.5062 0.0
C1646 C 0.78436 0.13461 0.47747 0.0
C1647 C 0.78762 0.11041 0.46938 0.0
C1648 C 0.77677 0.14302 0.45798 0.0
C1649 C 0.76433 0.13643 0.41138 0.0
C1650 C 0.77957 0.11949 0.44997 0.0
C1651 C 0.75984 0.12126 0.3851 0.0
C1652 C 0.78453 0.09635 0.43616 0.0
C1653 C 0.80649 0.10836 0.53892 0.0
N1654 N 0.76749 0.11331 0.40464 0.0
N1655 N 0.79843 0.11589 0.51976 0.0
H1656 H 0.95246 0.42818 0.22106 0.0
H1657 H 0.04594 0.45995 0.2746 0.0
H1658 H 0.97218 0.42237 0.40337 0.0
H1659 H 0.0259 0.46632 0.09433 0.0
H1660 H 0.01893 0.44482 0.32062 0.0
H1661 H 0.97915 0.44092 0.17226 0.0
C1662 C 0.9624 0.42955 0.2509 0.0
C1663 C 0.96006 0.42425 0.31662 0.0
C1664 C 0.02043 0.44946 0.27089 0.0
C1665 C 0.99075 0.43888 0.26078 0.0
C1666 C 0.03586 0.45808 0.24447 0.0
C1667 C 0.03821 0.46449 0.18053 0.0
C1668 C 0.00724 0.44722 0.23317 0.0
C1669 C 0.02468 0.46166 0.14388 0.0
C1670 C 0.97766 0.43683 0.22289 0.0
C1671 C 0.97341 0.42631 0.35262 0.0
N1672 N 0.0098 0.4533 0.17083 0.0
N1673 N 0.9882 0.43351 0.32428 0.0
H1674 H 0.53355 0.56228 0.08704 0.0
H1675 H 0.5702 0.54496 0.4092 0.0
H1676 H 0.53619 0.58422 0.27588 0.0
H1677 H 0.577 0.53228 0.2123 0.0
H1678 H 0.55707 0.55885 0.3622 0.0
H1679 H 0.5488 0.55049 0.13285 0.0
C1680 C 0.53738 0.56466 0.13805 0.0
C1681 C 0.53356 0.57422 0.17769 0.0
C1682 C 0.56153 0.5531 0.32932 0.0
C1683 C 0.55093 0.5607 0.23058 0.0
C1684 C 0.56901 0.54516 0.35613 0.0
C1685 C 0.57466 0.5374 0.31468 0.0
C1686 C 0.55956 0.55315 0.26064 0.0
C1687 C 0.57282 0.53808 0.24622 0.0
C1688 C 0.54611 0.55796 0.16416 0.0
C1689 C 0.53888 0.57694 0.24347 0.0
N1690 N 0.56534 0.54571 0.22142 0.0
N1691 N 0.5472 0.57013 0.26796 0.0
H1692 H 0.43978 0.95736 0.16739 0.0
H1693 H 0.44532 0.03771 0.30789 0.0
H1694 H 0.39817 0.96166 0.20991 0.0
H1695 H 0.4864 0.03335 0.25526 0.0
H1696 H 0.42774 0.00999 0.27208 0.0
H1697 H 0.45694 0.98538 0.19811 0.0
C1698 C 0.43423 0.96422 0.18285 0.0
C1699 C 0.41749 0.95712 0.18622 0.0
C1700 C 0.4406 0.01512 0.26835 0.0
C1701 C 0.43714 0.98928 0.22199 0.0
C1702 C 0.45064 0.03093 0.28892 0.0
C1703 C 0.46737 0.03786 0.28469 0.0
C1704 C 0.44733 0.00618 0.24349 0.0
C1705 C 0.4736 0.02852 0.25953 0.0
C1706 C 0.44406 0.98024 0.2005 0.0
C1707 C 0.41101 0.96663 0.20656 0.0
N1708 N 0.46359 0.01318 0.24 0.0
N1709 N 0.42085 0.98221 0.22398 0.0
H1710 H 0.58025 0.04111 0.71825 0.0
H1711 H 0.53108 0.94653 0.78465 0.0
H1712 H 0.5648 0.02013 0.91153 0.0
H1713 H 0.5402 0.96745 0.58995 0.0
H1714 H 0.54583 0.97338 0.83208 0.0
H1715 H 0.56811 0.01422 0.67089 0.0
C1716 C 0.5744 0.03085 0.75086 0.0
C1717 C 0.57347 0.03289 0.81903 0.0
C1718 C 0.54465 0.97211 0.77898 0.0
C1719 C 0.55952 0.00204 0.76492 0.0
C1720 C 0.53625 0.95676 0.75177 0.0
C1721 C 0.53431 0.95472 0.68312 0.0
C1722 C 0.55124 0.98555 0.73736 0.0
C1723 C 0.54132 0.96845 0.64311 0.0
C1724 C 0.56743 0.0155 0.72368 0.0
C1725 C 0.56574 0.01914 0.85872 0.0
N1726 N 0.54944 0.98329 0.67083 0.0
N1727 N 0.55903 0.00431 0.83106 0.0
H1728 H 0.03902 0.58643 0.7339 0.0
H1729 H 0.95192 0.51016 0.68157 0.0
H1730 H 0.02668 0.55292 0.57281 0.0
H1731 H 0.96143 0.54764 0.82186 0.0
H1732 H 0.97952 0.52556 0.64311 0.0
H1733 H 0.01088 0.57248 0.76811 0.0
C1734 C 0.03039 0.57621 0.70544 0.0
C1735 C 0.03524 0.57079 0.65052 0.0
C1736 C 0.97559 0.53046 0.6822 0.0
C1737 C 0.00306 0.55471 0.68978 0.0
C1738 C 0.95983 0.52163 0.70445 0.0
C1739 C 0.95436 0.52759 0.75527 0.0
C1740 C 0.98608 0.54534 0.71121 0.0
C1741 C 0.96515 0.54259 0.78262 0.0
C1742 C 0.01433 0.56826 0.72504 0.0
C1743 C 0.02352 0.55751 0.6155 0.0
N1744 N 0.98053 0.55093 0.76044 0.0
N1745 N 0.00801 0.54987 0.63599 0.0
H1746 H 0.41481 0.45924 0.77347 0.0
H1747 H 0.47448 0.42516 0.71832 0.0
H1748 H 0.44428 0.46896 0.60001 0.0
H1749 H 0.4531 0.42409 0.90688 0.0
H1750 H 0.46143 0.43896 0.67107 0.0
H1751 H 0.42663 0.44407 0.81971 0.0
C1752 C 0.4237 0.45811 0.7449 0.0
C1753 C 0.42858 0.46541 0.68273 0.0
C1754 C 0.45958 0.43571 0.72277 0.0
C1755 C 0.44215 0.44805 0.7355 0.0
C1756 C 0.467 0.42778 0.74986 0.0
C1757 C 0.46493 0.42348 0.81684 0.0
C1758 C 0.4499 0.43931 0.7627 0.0
C1759 C 0.45509 0.42722 0.85511 0.0
C1760 C 0.43048 0.4495 0.77149 0.0
C1761 C 0.44019 0.46358 0.64814 0.0
N1762 N 0.44792 0.43491 0.82747 0.0
N1763 N 0.44656 0.45508 0.67497 0.0
loop_
_geom_bond_atom_site_label_1
_geom_bond_atom_site_label_2
_geom_bond_distance
_geom_bond_site_symmetry_2
_ccdc_geom_bond_type
C0 O1 1.160 . S
C0 O7 1.185 . S
O1 C0 1.160 . S
O2 Zn3 1.899 . S
O2 C10 1.284 . S
Zn3 O2 1.899 . S
Zn3 O4 2.032 . S
Zn3 O7 2.086 . S
Zn3 O12 1.977 1_554 S
O4 Zn3 2.032 . S
O4 C8 1.278 . S
C5 O6 1.203 . S
C5 O12 1.267 . S
O6 C5 1.203 . S
O7 C0 1.185 . S
O7 Zn3 2.086 . S
C8 O4 1.278 . S
C8 O9 1.211 . S
O9 C8 1.211 . S
C10 O2 1.284 . S
C10 O11 1.273 . S
O11 C10 1.273 . S
O12 Zn3 1.977 1_556 S
O12 C5 1.267 . S
C13 O14 1.160 . S
C13 O20 1.185 . S
O14 C13 1.160 . S
O15 Zn16 1.899 . S
O15 C23 1.284 . S
Zn16 O15 1.899 . S
Zn16 O17 2.032 . S
Zn16 O20 2.086 . S
Zn16 O25 1.977 1_554 S
O17 Zn16 2.032 . S
O17 C21 1.278 . S
C18 O19 1.203 . S
C18 O25 1.267 . S
O19 C18 1.203 . S
O20 C13 1.185 . S
O20 Zn16 2.086 . S
C21 O17 1.278 . S
C21 O22 1.211 . S
O22 C21 1.211 . S
C23 O15 1.284 . S
C23 O24 1.273 . S
O24 C23 1.273 . S
O25 Zn16 1.977 1_556 S
O25 C18 1.267 . S
C26 O27 1.160 . S
C26 O33 1.185 . S
O27 C26 1.160 . S
O28 Zn29 1.899 . S
O28 C36 1.284 . S
Zn29 O28 1.899 . S
Zn29 O30 2.032 . S
Zn29 O33 2.086 . S
Zn29 O38 1.977 1_554 S
O30 Zn29 2.032 . S
O30 C34 1.278 . S
C31 O32 1.203 . S
C31 O38 1.267 . S
O32 C31 1.203 . S
O33 C26 1.185 . S
O33 Zn29 2.086 . S
C34 O30 1.278 . S
C34 O35 1.211 . S
O35 C34 1.211 . S
C36 O28 1.284 . S
C36 O37 1.273 . S
O37 C36 1.273 . S
O38 Zn29 1.977 1_556 S
O38 C31 1.267 . S
C39 O40 1.160 . S
C39 O46 1.185 . S
O40 C39 1.160 . S
O41 Zn42 1.899 . S
O41 C49 1.284 . S
Zn42 O41 1.899 . S
Zn42 O43 2.032 . S
Zn42 O46 2.086 . S
Zn42 O51 1.977 . S
O43 Zn42 2.032 . S
O43 C47 1.278 . S
C44 O45 1.203 . S
C44 O51 1.267 . S
O45 C44 1.203 . S
O46 C39 1.185 . S
O46 Zn42 2.086 . S
C47 O43 1.278 . S
C47 O48 1.211 . S
O48 C47 1.211 . S
C49 O41 1.284 . S
C49 O50 1.273 . S
O50 C49 1.273 . S
O51 Zn42 1.977 . S
O51 C44 1.267 . S
C52 O53 1.160 . S
C52 O59 1.185 . S
O53 C52 1.160 . S
O54 Zn55 1.899 . S
O54 C62 1.284 . S
Zn55 O54 1.899 . S
Zn55 O56 2.032 . S
Zn55 O59 2.086 . S
Zn55 O64 1.977 . S
O56 Zn55 2.032 . S
O56 C60 1.278 . S
C57 O58 1.203 . S
C57 O64 1.267 . S
O58 C57 1.203 . S
O59 C52 1.185 . S
O59 Zn55 2.086 . S
C60 O56 1.278 . S
C60 O61 1.211 . S
O61 C60 1.211 . S
C62 O54 1.284 . S
C62 O63 1.273 . S
O63 C62 1.273 . S
O64 Zn55 1.977 . S
O64 C57 1.267 . S
C65 O66 1.160 . S
C65 O72 1.185 . S
O66 C65 1.160 . S
O67 Zn68 1.899 . S
O67 C75 1.284 . S
Zn68 O67 1.899 . S
Zn68 O69 2.032 . S
Zn68 O72 2.086 . S
Zn68 O77 1.977 . S
O69 Zn68 2.032 . S
O69 C73 1.278 . S
C70 O71 1.203 . S
C70 O77 1.267 . S
O71 C70 1.203 . S
O72 C65 1.185 . S
O72 Zn68 2.086 . S
C73 O69 1.278 . S
C73 O74 1.211 . S
O74 C73 1.211 . S
C75 O67 1.284 . S
C75 O76 1.273 . S
O76 C75 1.273 . S
O77 Zn68 1.977 . S
O77 C70 1.267 . S
C78 O79 1.160 . S
C78 O85 1.185 . S
O79 C78 1.160 . S
O80 Zn81 1.899 . S
O80 C88 1.284 . S
Zn81 O80 1.899 . S
Zn81 O82 2.032 . S
Zn81 O85 2.086 . S
Zn81 O90 1.977 1_556 S
O82 Zn81 2.032 . S
O82 C86 1.278 . S
C83 O84 1.203 . S
C83 O90 1.267 . S
O84 C83 1.203 . S
O85 C78 1.185 . S
O85 Zn81 2.086 . S
C86 O82 1.278 . S
C86 O87 1.211 . S
O87 C86 1.211 . S
C88 O80 1.284 . S
C88 O89 1.273 . S
O89 C88 1.273 . S
O90 Zn81 1.977 1_554 S
O90 C83 1.267 . S
C91 O92 1.160 . S
C91 O98 1.185 . S
O92 C91 1.160 . S
O93 Zn94 1.899 . S
O93 C101 1.284 . S
Zn94 O93 1.899 . S
Zn94 O95 2.032 . S
Zn94 O98 2.086 . S
Zn94 O103 1.977 1_556 S
O95 Zn94 2.032 . S
O95 C99 1.278 . S
C96 O97 1.203 . S
C96 O103 1.267 . S
O97 C96 1.203 . S
O98 C91 1.185 . S
O98 Zn94 2.086 . S
C99 O95 1.278 . S
C99 O100 1.211 . S
O100 C99 1.211 . S
C101 O93 1.284 . S
C101 O102 1.273 . S
O102 C101 1.273 . S
O103 Zn94 1.977 1_554 S
O103 C96 1.267 . S
C104 O105 1.160 . S
C104 O111 1.185 . S
O105 C104 1.160 . S
O106 Zn107 1.899 . S
O106 C114 1.284 . S
Zn107 O106 1.899 . S
Zn107 O108 2.032 . S
Zn107 O111 2.086 . S
Zn107 O116 1.977 1_556 S
O108 Zn107 2.032 . S
O108 C112 1.278 . S
C109 O110 1.203 . S
C109 O116 1.267 . S
O110 C109 1.203 . S
O111 C104 1.185 . S
O111 Zn107 2.086 . S
C112 O108 1.278 . S
C112 O113 1.211 . S
O113 C112 1.211 . S
C114 O106 1.284 . S
C114 O115 1.273 . S
O115 C114 1.273 . S
O116 Zn107 1.977 1_554 S
O116 C109 1.267 . S
C117 O118 1.160 . S
C117 O124 1.185 . S
O118 C117 1.160 . S
O119 Zn120 1.899 . S
O119 C127 1.284 . S
Zn120 O119 1.899 . S
Zn120 O121 2.032 . S
Zn120 O124 2.086 . S
Zn120 O129 1.977 . S
O121 Zn120 2.032 . S
O121 C125 1.278 . S
C122 O123 1.203 . S
C122 O129 1.267 . S
O123 C122 1.203 . S
O124 C117 1.185 . S
O124 Zn120 2.086 . S
C125 O121 1.278 . S
C125 O126 1.211 . S
O126 C125 1.211 . S
C127 O119 1.284 . S
C127 O128 1.273 . S
O128 C127 1.273 . S
O129 Zn120 1.977 . S
O129 C122 1.267 . S
C130 O131 1.160 . S
C130 O137 1.185 . S
O131 C130 1.160 . S
O132 Zn133 1.899 . S
O132 C140 1.284 . S
Zn133 O132 1.899 . S
Zn133 O134 2.032 . S
Zn133 O137 2.086 . S
Zn133 O142 1.977 . S
O134 Zn133 2.032 . S
O134 C138 1.278 . S
C135 O136 1.203 . S
C135 O142 1.267 . S
O136 C135 1.203 . S
O137 C130 1.185 . S
O137 Zn133 2.086 . S
C138 O134 1.278 . S
C138 O139 1.211 . S
O139 C138 1.211 . S
C140 O132 1.284 . S
C140 O141 1.273 . S
O141 C140 1.273 . S
O142 Zn133 1.977 . S
O142 C135 1.267 . S
C143 O144 1.160 . S
C143 O150 1.185 . S
O144 C143 1.160 . S
O145 Zn146 1.899 . S
O145 C153 1.284 . S
Zn146 O145 1.899 . S
Zn146 O147 2.032 . S
Zn146 O150 2.086 . S
Zn146 O155 1.977 . S
O147 Zn146 2.032 . S
O147 C151 1.278 . S
C148 O149 1.203 . S
C148 O155 1.267 . S
O149 C148 1.203 . S
O150 C143 1.185 . S
O150 Zn146 2.086 . S
C151 O147 1.278 . S
C151 O152 1.211 . S
O152 C151 1.211 . S
C153 O145 1.284 . S
C153 O154 1.273 . S
O154 C153 1.273 . S
O155 Zn146 1.977 . S
O155 C148 1.267 . S
C156 O157 1.160 . S
C156 O163 1.185 . S
O157 C156 1.160 . S
O158 Zn159 1.899 . S
O158 C166 1.284 . S
Zn159 O158 1.899 . S
Zn159 O160 2.032 . S
Zn159 O163 2.086 . S
Zn159 O168 1.977 . S
O160 Zn159 2.032 . S
O160 C164 1.278 . S
C161 O162 1.203 . S
C161 O168 1.267 . S
O162 C161 1.203 . S
O163 C156 1.185 . S
O163 Zn159 2.086 . S
C164 O160 1.278 . S
C164 O165 1.211 . S
O165 C164 1.211 . S
C166 O158 1.284 . S
C166 O167 1.273 . S
O167 C166 1.273 . S
O168 Zn159 1.977 . S
O168 C161 1.267 . S
C169 O170 1.160 . S
C169 O176 1.185 . S
O170 C169 1.160 . S
O171 Zn172 1.899 . S
O171 C179 1.284 . S
Zn172 O171 1.899 . S
Zn172 O173 2.032 . S
Zn172 O176 2.086 . S
Zn172 O181 1.977 . S
O173 Zn172 2.032 . S
O173 C177 1.278 . S
C174 O175 1.203 . S
C174 O181 1.267 . S
O175 C174 1.203 . S
O176 C169 1.185 . S
O176 Zn172 2.086 . S
C177 O173 1.278 . S
C177 O178 1.211 . S
O178 C177 1.211 . S
C179 O171 1.284 . S
C179 O180 1.273 . S
O180 C179 1.273 . S
O181 Zn172 1.977 . S
O181 C174 1.267 . S
C182 O183 1.160 . S
C182 O189 1.185 . S
O183 C182 1.160 . S
O184 Zn185 1.899 . S
O184 C192 1.284 . S
Zn185 O184 1.899 . S
Zn185 O186 2.032 . S
Zn185 O189 2.086 . S
Zn185 O194 1.977 . S
O186 Zn185 2.032 . S
O186 C190 1.278 . S
C187 O188 1.203 . S
C187 O194 1.267 . S
O188 C187 1.203 . S
O189 C182 1.185 . S
O189 Zn185 2.086 . S
C190 O186 1.278 . S
C190 O191 1.211 . S
O191 C190 1.211 . S
C192 O184 1.284 . S
C192 O193 1.273 . S
O193 C192 1.273 . S
O194 Zn185 1.977 . S
O194 C187 1.267 . S
C195 O196 1.160 . S
C195 O202 1.185 . S
O196 C195 1.160 . S
O197 Zn198 1.899 . S
O197 C205 1.284 . S
Zn198 O197 1.899 . S
Zn198 O199 2.032 . S
Zn198 O202 2.086 . S
Zn198 O207 1.977 . S
O199 Zn198 2.032 . S
O199 C203 1.278 . S
C200 O201 1.203 . S
C200 O207 1.267 . S
O201 C200 1.203 . S
O202 C195 1.185 . S
O202 Zn198 2.086 . S
C203 O199 1.278 . S
C203 O204 1.211 . S
O204 C203 1.211 . S
C205 O197 1.284 . S
C205 O206 1.273 . S
O206 C205 1.273 . S
O207 Zn198 1.977 . S
O207 C200 1.267 . S
C208 O209 1.160 . S
C208 O215 1.185 . S
O209 C208 1.160 . S
O210 Zn211 1.899 . S
O210 C218 1.284 . S
Zn211 O210 1.899 . S
Zn211 O212 2.032 . S
Zn211 O215 2.086 . S
Zn211 O220 1.977 . S
O212 Zn211 2.032 . S
O212 C216 1.278 . S
C213 O214 1.203 . S
C213 O220 1.267 . S
O214 C213 1.203 . S
O215 C208 1.185 . S
O215 Zn211 2.086 . S
C216 O212 1.278 . S
C216 O217 1.211 . S
O217 C216 1.211 . S
C218 O210 1.284 . S
C218 O219 1.273 . S
O219 C218 1.273 . S
O220 Zn211 1.977 . S
O220 C213 1.267 . S
C221 O222 1.160 . S
C221 O228 1.185 . S
O222 C221 1.160 . S
O223 Zn224 1.899 . S
O223 C231 1.284 . S
Zn224 O223 1.899 . S
Zn224 O225 2.032 . S
Zn224 O228 2.086 . S
Zn224 O233 1.977 . S
O225 Zn224 2.032 . S
O225 C229 1.278 . S
C226 O227 1.203 . S
C226 O233 1.267 . S
O227 C226 1.203 . S
O228 C221 1.185 . S
O228 Zn224 2.086 . S
C229 O225 1.278 . S
C229 O230 1.211 . S
O230 C229 1.211 . S
C231 O223 1.284 . S
C231 O232 1.273 . S
O232 C231 1.273 . S
O233 Zn224 1.977 . S
O233 C226 1.267 . S
C234 O235 1.160 . S
C234 O241 1.185 . S
O235 C234 1.160 . S
O236 Zn237 1.899 . S
O236 C244 1.284 . S
Zn237 O236 1.899 . S
Zn237 O238 2.032 . S
Zn237 O241 2.086 . S
Zn237 O246 1.977 . S
O238 Zn237 2.032 . S
O238 C242 1.278 . S
C239 O240 1.203 . S
C239 O246 1.267 . S
O240 C239 1.203 . S
O241 C234 1.185 . S
O241 Zn237 2.086 . S
C242 O238 1.278 . S
C242 O243 1.211 . S
O243 C242 1.211 . S
C244 O236 1.284 . S
C244 O245 1.273 . S
O245 C244 1.273 . S
O246 Zn237 1.977 . S
O246 C239 1.267 . S
C247 O248 1.160 . S
C247 O254 1.185 . S
O248 C247 1.160 . S
O249 Zn250 1.899 . S
O249 C257 1.284 . S
Zn250 O249 1.899 . S
Zn250 O251 2.032 . S
Zn250 O254 2.086 . S
Zn250 O259 1.977 . S
O251 Zn250 2.032 . S
O251 C255 1.278 . S
C252 O253 1.203 . S
C252 O259 1.267 . S
O253 C252 1.203 . S
O254 C247 1.185 . S
O254 Zn250 2.086 . S
C255 O251 1.278 . S
C255 O256 1.211 . S
O256 C255 1.211 . S
C257 O249 1.284 . S
C257 O258 1.273 . S
O258 C257 1.273 . S
O259 Zn250 1.977 . S
O259 C252 1.267 . S
C260 O261 1.160 . S
C260 O267 1.185 . S
O261 C260 1.160 . S
O262 Zn263 1.899 . S
O262 C270 1.284 . S
Zn263 O262 1.899 . S
Zn263 O264 2.032 . S
Zn263 O267 2.086 . S
Zn263 O272 1.977 . S
O264 Zn263 2.032 . S
O264 C268 1.278 . S
C265 O266 1.203 . S
C265 O272 1.267 . S
O266 C265 1.203 . S
O267 C260 1.185 . S
O267 Zn263 2.086 . S
C268 O264 1.278 . S
C268 O269 1.211 . S
O269 C268 1.211 . S
C270 O262 1.284 . S
C270 O271 1.273 . S
O271 C270 1.273 . S
O272 Zn263 1.977 . S
O272 C265 1.267 . S
C273 O274 1.160 . S
C273 O280 1.185 . S
O274 C273 1.160 . S
O275 Zn276 1.899 . S
O275 C283 1.284 . S
Zn276 O275 1.899 . S
Zn276 O277 2.032 . S
Zn276 O280 2.086 . S
Zn276 O285 1.977 . S
O277 Zn276 2.032 . S
O277 C281 1.278 . S
C278 O279 1.203 . S
C278 O285 1.267 . S
O279 C278 1.203 . S
O280 C273 1.185 . S
O280 Zn276 2.086 . S
C281 O277 1.278 . S
C281 O282 1.211 . S
O282 C281 1.211 . S
C283 O275 1.284 . S
C283 O284 1.273 . S
O284 C283 1.273 . S
O285 Zn276 1.977 . S
O285 C278 1.267 . S
C286 O287 1.160 . S
C286 O293 1.185 . S
O287 C286 1.160 . S
O288 Zn289 1.899 . S
O288 C296 1.284 . S
Zn289 O288 1.899 . S
Zn289 O290 2.032 . S
Zn289 O293 2.086 . S
Zn289 O298 1.977 . S
O290 Zn289 2.032 . S
O290 C294 1.278 . S
C291 O292 1.203 . S
C291 O298 1.267 . S
O292 C291 1.203 . S
O293 C286 1.185 . S
O293 Zn289 2.086 . S
C294 O290 1.278 . S
C294 O295 1.211 . S
O295 C294 1.211 . S
C296 O288 1.284 . S
C296 O297 1.273 . S
O297 C296 1.273 . S
O298 Zn289 1.977 . S
O298 C291 1.267 . S
C299 O300 1.160 . S
C299 O306 1.185 . S
O300 C299 1.160 . S
O301 Zn302 1.899 . S
O301 C309 1.284 . S
Zn302 O301 1.899 . S
Zn302 O303 2.032 . S
Zn302 O306 2.086 . S
Zn302 O311 1.977 . S
O303 Zn302 2.032 . S
O303 C307 1.278 . S
C304 O305 1.203 . S
C304 O311 1.267 . S
O305 C304 1.203 . S
O306 C299 1.185 . S
O306 Zn302 2.086 . S
C307 O303 1.278 . S
C307 O308 1.211 . S
O308 C307 1.211 . S
C309 O301 1.284 . S
C309 O310 1.273 . S
O310 C309 1.273 . S
O311 Zn302 1.977 . S
O311 C304 1.267 . S
C312 O313 1.160 . S
C312 O319 1.185 . S
O313 C312 1.160 . S
O314 Zn315 1.899 . S
O314 C322 1.284 . S
Zn315 O314 1.899 . S
Zn315 O316 2.032 . S
Zn315 O319 2.086 . S
Zn315 O324 1.977 . S
O316 Zn315 2.032 . S
O316 C320 1.278 . S
C317 O318 1.203 . S
C317 O324 1.267 . S
O318 C317 1.203 . S
O319 C312 1.185 . S
O319 Zn315 2.086 . S
C320 O316 1.278 . S
C320 O321 1.211 . S
O321 C320 1.211 . S
C322 O314 1.284 . S
C322 O323 1.273 . S
O323 C322 1.273 . S
O324 Zn315 1.977 . S
O324 C317 1.267 . S
C325 O326 1.160 . S
C325 O332 1.185 . S
O326 C325 1.160 . S
O327 Zn328 1.899 . S
O327 C335 1.284 . S
Zn328 O327 1.899 . S
Zn328 O329 2.032 . S
Zn328 O332 2.086 . S
Zn328 O337 1.977 . S
O329 Zn328 2.032 . S
O329 C333 1.278 . S
C330 O331 1.203 . S
C330 O337 1.267 . S
O331 C330 1.203 . S
O332 C325 1.185 . S
O332 Zn328 2.086 . S
C333 O329 1.278 . S
C333 O334 1.211 . S
O334 C333 1.211 . S
C335 O327 1.284 . S
C335 O336 1.273 . S
O336 C335 1.273 . S
O337 Zn328 1.977 . S
O337 C330 1.267 . S
C338 O339 1.160 . S
C338 O345 1.185 . S
O339 C338 1.160 . S
O340 Zn341 1.899 . S
O340 C348 1.284 . S
Zn341 O340 1.899 . S
Zn341 O342 2.032 . S
Zn341 O345 2.086 . S
Zn341 O350 1.977 . S
O342 Zn341 2.032 . S
O342 C346 1.278 . S
C343 O344 1.203 . S
C343 O350 1.267 . S
O344 C343 1.203 . S
O345 C338 1.185 . S
O345 Zn341 2.086 . S
C346 O342 1.278 . S
C346 O347 1.211 . S
O347 C346 1.211 . S
C348 O340 1.284 . S
C348 O349 1.273 . S
O349 C348 1.273 . S
O350 Zn341 1.977 . S
O350 C343 1.267 . S
C351 O352 1.160 . S
C351 O358 1.185 . S
O352 C351 1.160 . S
O353 Zn354 1.899 . S
O353 C361 1.284 . S
Zn354 O353 1.899 . S
Zn354 O355 2.032 . S
Zn354 O358 2.086 . S
Zn354 O363 1.977 . S
O355 Zn354 2.032 . S
O355 C359 1.278 . S
C356 O357 1.203 . S
C356 O363 1.267 . S
O357 C356 1.203 . S
O358 C351 1.185 . S
O358 Zn354 2.086 . S
C359 O355 1.278 . S
C359 O360 1.211 . S
O360 C359 1.211 . S
C361 O353 1.284 . S
C361 O362 1.273 . S
O362 C361 1.273 . S
O363 Zn354 1.977 . S
O363 C356 1.267 . S
C364 O365 1.160 . S
C364 O371 1.185 . S
O365 C364 1.160 . S
O366 Zn367 1.899 . S
O366 C374 1.284 . S
Zn367 O366 1.899 . S
Zn367 O368 2.032 . S
Zn367 O371 2.086 . S
Zn367 O376 1.977 . S
O368 Zn367 2.032 . S
O368 C372 1.278 . S
C369 O370 1.203 . S
C369 O376 1.267 . S
O370 C369 1.203 . S
O371 C364 1.185 . S
O371 Zn367 2.086 . S
C372 O368 1.278 . S
C372 O373 1.211 . S
O373 C372 1.211 . S
C374 O366 1.284 . S
C374 O375 1.273 . S
O375 C374 1.273 . S
O376 Zn367 1.977 . S
O376 C369 1.267 . S
C377 O378 1.160 . S
C377 O384 1.185 . S
O378 C377 1.160 . S
O379 Zn380 1.899 . S
O379 C387 1.284 . S
Zn380 O379 1.899 . S
Zn380 O381 2.032 . S
Zn380 O384 2.086 . S
Zn380 O389 1.977 . S
O381 Zn380 2.032 . S
O381 C385 1.278 . S
C382 O383 1.203 . S
C382 O389 1.267 . S
O383 C382 1.203 . S
O384 C377 1.185 . S
O384 Zn380 2.086 . S
C385 O381 1.278 . S
C385 O386 1.211 . S
O386 C385 1.211 . S
C387 O379 1.284 . S
C387 O388 1.273 . S
O388 C387 1.273 . S
O389 Zn380 1.977 . S
O389 C382 1.267 . S
C390 O391 1.160 . S
C390 O397 1.185 . S
O391 C390 1.160 . S
O392 Zn393 1.899 . S
O392 C400 1.284 . S
Zn393 O392 1.899 . S
Zn393 O394 2.032 . S
Zn393 O397 2.086 . S
Zn393 O402 1.977 . S
O394 Zn393 2.032 . S
O394 C398 1.278 . S
C395 O396 1.203 . S
C395 O402 1.267 . S
O396 C395 1.203 . S
O397 C390 1.185 . S
O397 Zn393 2.086 . S
C398 O394 1.278 . S
C398 O399 1.211 . S
O399 C398 1.211 . S
C400 O392 1.284 . S
C400 O401 1.273 . S
O401 C400 1.273 . S
O402 Zn393 1.977 . S
O402 C395 1.267 . S
C403 O404 1.160 . S
C403 O410 1.185 . S
O404 C403 1.160 . S
O405 Zn406 1.899 . S
O405 C413 1.284 . S
Zn406 O405 1.899 . S
Zn406 O407 2.032 . S
Zn406 O410 2.086 . S
Zn406 O415 1.977 . S
O407 Zn406 2.032 . S
O407 C411 1.278 . S
C408 O409 1.203 . S
C408 O415 1.267 . S
O409 C408 1.203 . S
O410 C403 1.185 . S
O410 Zn406 2.086 . S
C411 O407 1.278 . S
C411 O412 1.211 . S
O412 C411 1.211 . S
C413 O405 1.284 . S
C413 O414 1.273 . S
O414 C413 1.273 . S
O415 Zn406 1.977 . S
O415 C408 1.267 . S
C416 O417 1.160 . S
C416 O423 1.185 . S
O417 C416 1.160 . S
O418 Zn419 1.899 . S
O418 C426 1.284 . S
Zn419 O418 1.899 . S
Zn419 O420 2.032 . S
Zn419 O423 2.086 . S
Zn419 O428 1.977 . S
O420 Zn419 2.032 . S
O420 C424 1.278 . S
C421 O422 1.203 . S
C421 O428 1.267 . S
O422 C421 1.203 . S
O423 C416 1.185 . S
O423 Zn419 2.086 . S
C424 O420 1.278 . S
C424 O425 1.211 . S
O425 C424 1.211 . S
C426 O418 1.284 . S
C426 O427 1.273 . S
O427 C426 1.273 . S
O428 Zn419 1.977 . S
O428 C421 1.267 . S
C429 O430 1.160 . S
C429 O436 1.185 . S
O430 C429 1.160 . S
O431 Zn432 1.899 . S
O431 C439 1.284 . S
Zn432 O431 1.899 . S
Zn432 O433 2.032 . S
Zn432 O436 2.086 . S
Zn432 O441 1.977 . S
O433 Zn432 2.032 . S
O433 C437 1.278 . S
C434 O435 1.203 . S
C434 O441 1.267 . S
O435 C434 1.203 . S
O436 C429 1.185 . S
O436 Zn432 2.086 . S
C437 O433 1.278 . S
C437 O438 1.211 . S
O438 C437 1.211 . S
C439 O431 1.284 . S
C439 O440 1.273 . S
O440 C439 1.273 . S
O441 Zn432 1.977 . S
O441 C434 1.267 . S
C442 O443 1.160 . S
C442 O449 1.185 . S
O443 C442 1.160 . S
O444 Zn445 1.899 . S
O444 C452 1.284 . S
Zn445 O444 1.899 . S
Zn445 O446 2.032 . S
Zn445 O449 2.086 . S
Zn445 O454 1.977 . S
O446 Zn445 2.032 . S
O446 C450 1.278 . S
C447 O448 1.203 . S
C447 O454 1.267 . S
O448 C447 1.203 . S
O449 C442 1.185 . S
O449 Zn445 2.086 . S
C450 O446 1.278 . S
C450 O451 1.211 . S
O451 C450 1.211 . S
C452 O444 1.284 . S
C452 O453 1.273 . S
O453 C452 1.273 . S
O454 Zn445 1.977 . S
O454 C447 1.267 . S
C455 O456 1.160 . S
C455 O462 1.185 . S
O456 C455 1.160 . S
O457 Zn458 1.899 . S
O457 C465 1.284 . S
Zn458 O457 1.899 . S
Zn458 O459 2.032 . S
Zn458 O462 2.086 . S
Zn458 O467 1.977 . S
O459 Zn458 2.032 . S
O459 C463 1.278 . S
C460 O461 1.203 . S
C460 O467 1.267 . S
O461 C460 1.203 . S
O462 C455 1.185 . S
O462 Zn458 2.086 . S
C463 O459 1.278 . S
C463 O464 1.211 . S
O464 C463 1.211 . S
C465 O457 1.284 . S
C465 O466 1.273 . S
O466 C465 1.273 . S
O467 Zn458 1.977 . S
O467 C460 1.267 . S
H468 C474 0.930 . S
H469 C478 0.930 . S
H470 C483 0.929 . S
H471 C481 0.929 . S
H472 C476 0.929 . S
H473 C482 0.929 . S
C474 H468 0.930 . S
C474 C475 1.367 . S
C474 C482 1.378 . S
C475 C474 1.367 . S
C475 C483 1.433 . S
C476 H472 0.929 . S
C476 C478 1.378 . S
C476 C480 1.350 . S
C477 C480 1.463 1_565 S
C477 C482 1.350 . S
C477 N485 1.427 . S
C478 H469 0.930 . S
C478 C476 1.378 . S
C478 C479 1.367 . S
C479 C478 1.367 . S
C479 C481 1.433 . S
C480 C476 1.350 . S
C480 C477 1.463 1_545 S
C480 N484 1.427 . S
C481 H471 0.929 . S
C481 C479 1.433 . S
C481 N484 1.384 . S
C482 H473 0.929 . S
C482 C474 1.378 . S
C482 C477 1.350 . S
C483 H470 0.929 . S
C483 C475 1.433 . S
C483 N485 1.384 . S
N484 C480 1.427 . S
N484 C481 1.384 . S
N485 C477 1.427 . S
N485 C483 1.384 . S
H486 C492 0.930 . S
H487 C496 0.930 . S
H488 C501 0.929 . S
H489 C499 0.929 . S
H490 C494 0.929 1_655 S
H491 C500 0.929 1_455 S
C492 H486 0.930 . S
C492 C493 1.367 . S
C492 C500 1.378 . S
C493 C492 1.367 . S
C493 C501 1.433 . S
C494 H490 0.929 1_455 S
C494 C496 1.378 . S
C494 C498 1.350 . S
C495 C498 1.463 1_655 S
C495 C500 1.350 . S
C495 N503 1.427 . S
C496 H487 0.930 . S
C496 C494 1.378 . S
C496 C497 1.367 . S
C497 C496 1.367 . S
C497 C499 1.433 . S
C498 C494 1.350 . S
C498 C495 1.463 1_455 S
C498 N502 1.427 . S
C499 H489 0.929 . S
C499 C497 1.433 . S
C499 N502 1.384 . S
C500 H491 0.929 1_655 S
C500 C492 1.378 . S
C500 C495 1.350 . S
C501 H488 0.929 . S
C501 C493 1.433 . S
C501 N503 1.384 . S
N502 C498 1.427 . S
N502 C499 1.384 . S
N503 C495 1.427 . S
N503 C501 1.384 . S
H504 C510 0.930 . S
H505 C514 0.930 . S
H506 C519 0.929 . S
H507 C517 0.929 . S
H508 C512 0.929 . S
H509 C518 0.929 . S
C510 H504 0.930 . S
C510 C511 1.367 . S
C510 C518 1.378 . S
C511 C510 1.367 . S
C511 C519 1.433 . S
C512 H508 0.929 . S
C512 C514 1.378 . S
C512 C516 1.350 . S
C513 C516 1.463 . S
C513 C518 1.350 . S
C513 N521 1.427 . S
C514 H505 0.930 . S
C514 C512 1.378 . S
C514 C515 1.367 . S
C515 C514 1.367 . S
C515 C517 1.433 . S
C516 C512 1.350 . S
C516 C513 1.463 . S
C516 N520 1.427 . S
C517 H507 0.929 . S
C517 C515 1.433 . S
C517 N520 1.384 . S
C518 H509 0.929 . S
C518 C510 1.378 . S
C518 C513 1.350 . S
C519 H506 0.929 . S
C519 C511 1.433 . S
C519 N521 1.384 . S
N520 C516 1.427 . S
N520 C517 1.384 . S
N521 C513 1.427 . S
N521 C519 1.384 . S
H522 C528 0.930 . S
H523 C532 0.930 . S
H524 C537 0.929 . S
H525 C535 0.929 . S
H526 C530 0.929 . S
H527 C536 0.929 . S
C528 H522 0.930 . S
C528 C529 1.367 . S
C528 C536 1.378 . S
C529 C528 1.367 . S
C529 C537 1.433 . S
C530 H526 0.929 . S
C530 C532 1.378 . S
C530 C534 1.350 . S
C531 C534 1.463 1_565 S
C531 C536 1.350 . S
C531 N539 1.427 . S
C532 H523 0.930 . S
C532 C530 1.378 . S
C532 C533 1.367 . S
C533 C532 1.367 . S
C533 C535 1.433 . S
C534 C530 1.350 . S
C534 C531 1.463 1_545 S
C534 N538 1.427 . S
C535 H525 0.929 . S
C535 C533 1.433 . S
C535 N538 1.384 . S
C536 H527 0.929 . S
C536 C528 1.378 . S
C536 C531 1.350 . S
C537 H524 0.929 . S
C537 C529 1.433 . S
C537 N539 1.384 . S
N538 C534 1.427 . S
N538 C535 1.384 . S
N539 C531 1.427 . S
N539 C537 1.384 . S
H540 C546 0.930 . S
H541 C550 0.930 . S
H542 C555 0.929 . S
H543 C553 0.929 . S
H544 C548 0.918 1_455 S
H545 C554 0.918 1_655 S
C546 H540 0.930 . S
C546 C547 1.367 . S
C546 C554 1.378 . S
C547 C546 1.367 . S
C547 C555 1.433 . S
C548 H544 0.918 1_655 S
C548 C550 1.378 . S
C548 C552 1.350 . S
C549 C552 1.463 1_455 S
C549 C554 1.350 . S
C549 N557 1.427 . S
C550 H541 0.930 . S
C550 C548 1.378 . S
C550 C551 1.367 . S
C551 C550 1.367 . S
C551 C553 1.433 . S
C552 C548 1.350 . S
C552 C549 1.463 1_655 S
C552 N556 1.427 . S
C553 H543 0.929 . S
C553 C551 1.433 . S
C553 N556 1.384 . S
C554 H545 0.918 1_455 S
C554 C546 1.378 . S
C554 C549 1.350 . S
C555 H542 0.929 . S
C555 C547 1.433 . S
C555 N557 1.384 . S
N556 C552 1.427 . S
N556 C553 1.384 . S
N557 C549 1.427 . S
N557 C555 1.384 . S
H558 C564 0.930 . S
H559 C568 0.930 . S
H560 C573 0.929 . S
H561 C571 0.929 . S
H562 C566 0.929 . S
H563 C572 0.929 . S
C564 H558 0.930 . S
C564 C565 1.367 . S
C564 C572 1.378 . S
C565 C564 1.367 . S
C565 C573 1.433 . S
C566 H562 0.929 . S
C566 C568 1.378 . S
C566 C570 1.350 . S
C567 C570 1.463 . S
C567 C572 1.350 . S
C567 N575 1.427 . S
C568 H559 0.930 . S
C568 C566 1.378 . S
C568 C569 1.367 . S
C569 C568 1.367 . S
C569 C571 1.433 . S
C570 C566 1.350 . S
C570 C567 1.463 . S
C570 N574 1.427 . S
C571 H561 0.929 . S
C571 C569 1.433 . S
C571 N574 1.384 . S
C572 H563 0.929 . S
C572 C564 1.378 . S
C572 C567 1.350 . S
C573 H560 0.929 . S
C573 C565 1.433 . S
C573 N575 1.384 . S
N574 C570 1.427 . S
N574 C571 1.384 . S
N575 C567 1.427 . S
N575 C573 1.384 . S
H576 C582 0.930 . S
H577 C586 0.930 . S
H578 C591 0.929 . S
H579 C589 0.929 . S
H580 C584 0.929 . S
H581 C590 0.929 . S
C582 H576 0.930 . S
C582 C583 1.367 . S
C582 C590 1.378 . S
C583 C582 1.367 . S
C583 C591 1.433 . S
C584 H580 0.929 . S
C584 C586 1.378 . S
C584 C588 1.350 . S
C585 C588 1.463 . S
C585 C590 1.350 . S
C585 N593 1.427 . S
C586 H577 0.930 . S
C586 C584 1.378 . S
C586 C587 1.367 . S
C587 C586 1.367 . S
C587 C589 1.433 . S
C588 C584 1.350 . S
C588 C585 1.463 . S
C588 N592 1.427 . S
C589 H579 0.929 . S
C589 C587 1.433 . S
C589 N592 1.384 . S
C590 H581 0.929 . S
C590 C582 1.378 . S
C590 C585 1.350 . S
C591 H578 0.929 . S
C591 C583 1.433 . S
C591 N593 1.384 . S
N592 C588 1.427 . S
N592 C589 1.384 . S
N593 C585 1.427 . S
N593 C591 1.384 . S
H594 C600 0.930 . S
H595 C604 0.930 . S
H596 C609 0.929 . S
H597 C607 0.929 . S
H598 C602 0.929 . S
H599 C608 0.929 . S
C600 H594 0.930 . S
C600 C601 1.367 . S
C600 C608 1.378 . S
C601 C600 1.367 . S
C601 C609 1.433 . S
C602 H598 0.929 . S
C602 C604 1.378 . S
C602 C606 1.350 . S
C603 C606 1.463 . S
C603 C608 1.350 . S
C603 N611 1.427 . S
C604 H595 0.930 . S
C604 C602 1.378 . S
C604 C605 1.367 . S
C605 C604 1.367 . S
C605 C607 1.433 . S
C606 C602 1.350 . S
C606 C603 1.463 . S
C606 N610 1.427 . S
C607 H597 0.929 . S
C607 C605 1.433 . S
C607 N610 1.384 . S
C608 H599 0.929 . S
C608 C600 1.378 . S
C608 C603 1.350 . S
C609 H596 0.929 . S
C609 C601 1.433 . S
C609 N611 1.384 . S
N610 C606 1.427 . S
N610 C607 1.384 . S
N611 C603 1.427 . S
N611 C609 1.384 . S
H612 C618 0.930 . S
H613 C622 0.930 . S
H614 C627 0.929 . S
H615 C625 0.929 . S
H616 C620 0.929 . S
H617 C626 0.929 . S
C618 H612 0.930 . S
C618 C619 1.367 . S
C618 C626 1.378 . S
C619 C618 1.367 . S
C619 C627 1.433 . S
C620 H616 0.929 . S
C620 C622 1.378 . S
C620 C624 1.350 . S
C621 C624 1.463 . S
C621 C626 1.350 . S
C621 N629 1.427 . S
C622 H613 0.930 . S
C622 C620 1.378 . S
C622 C623 1.367 . S
C623 C622 1.367 . S
C623 C625 1.433 . S
C624 C620 1.350 . S
C624 C621 1.463 . S
C624 N628 1.427 . S
C625 H615 0.929 . S
C625 C623 1.433 . S
C625 N628 1.384 . S
C626 H617 0.929 . S
C626 C618 1.378 . S
C626 C621 1.350 . S
C627 H614 0.929 . S
C627 C619 1.433 . S
C627 N629 1.384 . S
N628 C624 1.427 . S
N628 C625 1.384 . S
N629 C621 1.427 . S
N629 C627 1.384 . S
H630 C636 0.930 . S
H631 C640 0.930 . S
H632 C645 0.929 . S
H633 C643 0.929 . S
H634 C638 0.929 . S
H635 C644 0.929 . S
C636 H630 0.930 . S
C636 C637 1.367 . S
C636 C644 1.378 . S
C637 C636 1.367 . S
C637 C645 1.433 . S
C638 H634 0.929 . S
C638 C640 1.378 1_554 S
C638 C642 1.350 . S
C639 C642 1.463 . S
C639 C644 1.350 . S
C639 N647 1.427 . S
C640 H631 0.930 . S
C640 C638 1.378 1_556 S
C640 C641 1.367 . S
C641 C640 1.367 . S
C641 C643 1.433 1_556 S
C642 C638 1.350 . S
C642 C639 1.463 . S
C642 N646 1.427 . S
C643 H633 0.929 . S
C643 C641 1.433 1_554 S
C643 N646 1.384 . S
C644 H635 0.929 . S
C644 C636 1.378 . S
C644 C639 1.350 . S
C645 H632 0.929 . S
C645 C637 1.433 . S
C645 N647 1.384 . S
N646 C642 1.427 . S
N646 C643 1.384 . S
N647 C639 1.427 . S
N647 C645 1.384 . S
H648 C654 0.930 . S
H649 C658 0.930 . S
H650 C663 0.929 . S
H651 C661 0.929 . S
H652 C656 0.929 . S
H653 C662 0.929 . S
C654 H648 0.930 . S
C654 C655 1.367 . S
C654 C662 1.378 . S
C655 C654 1.367 . S
C655 C663 1.433 . S
C656 H652 0.929 . S
C656 C658 1.378 . S
C656 C660 1.350 . S
C657 C660 1.463 . S
C657 C662 1.350 . S
C657 N665 1.427 . S
C658 H649 0.930 . S
C658 C656 1.378 . S
C658 C659 1.367 1_554 S
C659 C658 1.367 1_556 S
C659 C661 1.433 . S
C660 C656 1.350 . S
C660 C657 1.463 . S
C660 N664 1.427 1_554 S
C661 H651 0.929 . S
C661 C659 1.433 . S
C661 N664 1.384 . S
C662 H653 0.929 . S
C662 C654 1.378 . S
C662 C657 1.350 . S
C663 H650 0.929 . S
C663 C655 1.433 . S
C663 N665 1.384 . S
N664 C660 1.427 1_556 S
N664 C661 1.384 . S
N665 C657 1.427 . S
N665 C663 1.384 . S
H666 C672 0.930 . S
H667 C676 0.930 . S
H668 C681 0.929 . S
H669 C679 0.929 . S
H670 C674 0.929 . S
H671 C680 0.929 . S
C672 H666 0.930 . S
C672 C673 1.367 . S
C672 C680 1.378 . S
C673 C672 1.367 . S
C673 C681 1.433 . S
C674 H670 0.929 . S
C674 C676 1.378 1_554 S
C674 C678 1.350 . S
C675 C678 1.463 . S
C675 C680 1.350 . S
C675 N683 1.427 . S
C676 H667 0.930 . S
C676 C674 1.378 1_556 S
C676 C677 1.367 . S
C677 C676 1.367 . S
C677 C679 1.433 . S
C678 C674 1.350 . S
C678 C675 1.463 . S
C678 N682 1.427 . S
C679 H669 0.929 . S
C679 C677 1.433 . S
C679 N682 1.384 1_556 S
C680 H671 0.929 . S
C680 C672 1.378 . S
C680 C675 1.350 . S
C681 H668 0.929 . S
C681 C673 1.433 . S
C681 N683 1.384 . S
N682 C678 1.427 . S
N682 C679 1.384 1_554 S
N683 C675 1.427 . S
N683 C681 1.384 . S
H684 C690 0.930 . S
H685 C694 0.930 . S
H686 C699 0.929 . S
H687 C697 0.929 . S
H688 C692 0.929 . S
H689 C698 0.929 . S
C690 H684 0.930 . S
C690 C691 1.367 . S
C690 C698 1.378 . S
C691 C690 1.367 . S
C691 C699 1.433 . S
C692 H688 0.929 . S
C692 C694 1.378 . S
C692 C696 1.350 . S
C693 C696 1.463 . S
C693 C698 1.350 . S
C693 N701 1.427 . S
C694 H685 0.930 . S
C694 C692 1.378 . S
C694 C695 1.367 1_556 S
C695 C694 1.367 1_554 S
C695 C697 1.433 . S
C696 C692 1.350 . S
C696 C693 1.463 . S
C696 N700 1.427 . S
C697 H687 0.929 . S
C697 C695 1.433 . S
C697 N700 1.384 1_554 S
C698 H689 0.929 . S
C698 C690 1.378 . S
C698 C693 1.350 . S
C699 H686 0.929 . S
C699 C691 1.433 . S
C699 N701 1.384 . S
N700 C696 1.427 . S
N700 C697 1.384 1_556 S
N701 C693 1.427 . S
N701 C699 1.384 . S
H702 C708 0.930 . S
H703 C712 0.930 . S
H704 C717 0.929 . S
H705 C715 0.929 . S
H706 C710 0.929 . S
H707 C716 0.929 . S
C708 H702 0.930 . S
C708 C709 1.367 1_556 S
C708 C716 1.378 . S
C709 C708 1.367 1_554 S
C709 C717 1.433 . S
C710 H706 0.929 . S
C710 C712 1.378 . S
C710 C714 1.350 . S
C711 C714 1.463 . S
C711 C716 1.350 . S
C711 N719 1.427 1_556 S
C712 H703 0.930 . S
C712 C710 1.378 . S
C712 C713 1.367 . S
C713 C712 1.367 . S
C713 C715 1.433 . S
C714 C710 1.350 . S
C714 C711 1.463 . S
C714 N718 1.427 . S
C715 H705 0.929 . S
C715 C713 1.433 . S
C715 N718 1.384 . S
C716 H707 0.929 . S
C716 C708 1.378 . S
C716 C711 1.350 . S
C717 H704 0.929 . S
C717 C709 1.433 . S
C717 N719 1.384 . S
N718 C714 1.427 . S
N718 C715 1.384 . S
N719 C711 1.427 1_554 S
N719 C717 1.384 . S
H720 C726 0.930 . S
H721 C730 0.930 . S
H722 C735 0.929 . S
H723 C733 0.929 . S
H724 C728 0.929 . S
H725 C734 0.929 . S
C726 H720 0.930 . S
C726 C727 1.367 . S
C726 C734 1.378 . S
C727 C726 1.367 . S
C727 C735 1.433 . S
C728 H724 0.929 . S
C728 C730 1.378 . S
C728 C732 1.350 . S
C729 C732 1.463 . S
C729 C734 1.350 . S
C729 N737 1.427 . S
C730 H721 0.930 . S
C730 C728 1.378 . S
C730 C731 1.367 1_556 S
C731 C730 1.367 1_554 S
C731 C733 1.433 . S
C732 C728 1.350 . S
C732 C729 1.463 . S
C732 N736 1.427 1_556 S
C733 H723 0.929 . S
C733 C731 1.433 . S
C733 N736 1.384 . S
C734 H725 0.929 . S
C734 C726 1.378 . S
C734 C729 1.350 . S
C735 H722 0.929 . S
C735 C727 1.433 . S
C735 N737 1.384 . S
N736 C732 1.427 1_554 S
N736 C733 1.384 . S
N737 C729 1.427 . S
N737 C735 1.384 . S
H738 C744 0.930 . S
H739 C748 0.930 . S
H740 C753 0.929 . S
H741 C751 0.929 . S
H742 C746 0.929 . S
H743 C752 0.929 . S
C744 H738 0.930 . S
C744 C745 1.367 . S
C744 C752 1.378 . S
C745 C744 1.367 . S
C745 C753 1.433 . S
C746 H742 0.929 . S
C746 C748 1.378 . S
C746 C750 1.350 . S
C747 C750 1.463 . S
C747 C752 1.350 . S
C747 N755 1.427 . S
C748 H739 0.930 . S
C748 C746 1.378 . S
C748 C749 1.367 . S
C749 C748 1.367 . S
C749 C751 1.433 . S
C750 C746 1.350 . S
C750 C747 1.463 . S
C750 N754 1.427 . S
C751 H741 0.929 . S
C751 C749 1.433 . S
C751 N754 1.384 . S
C752 H743 0.929 . S
C752 C744 1.378 . S
C752 C747 1.350 . S
C753 H740 0.929 . S
C753 C745 1.433 . S
C753 N755 1.384 . S
N754 C750 1.427 . S
N754 C751 1.384 . S
N755 C747 1.427 . S
N755 C753 1.384 . S
H756 C762 0.930 . S
H757 C766 0.930 . S
H758 C771 0.929 . S
H759 C769 0.929 . S
H760 C764 0.929 . S
H761 C770 0.929 . S
C762 H756 0.930 . S
C762 C763 1.367 . S
C762 C770 1.378 . S
C763 C762 1.367 . S
C763 C771 1.433 . S
C764 H760 0.929 . S
C764 C766 1.378 . S
C764 C768 1.350 . S
C765 C768 1.463 . S
C765 C770 1.350 . S
C765 N773 1.427 . S
C766 H757 0.930 . S
C766 C764 1.378 . S
C766 C767 1.367 . S
C767 C766 1.367 . S
C767 C769 1.433 . S
C768 C764 1.350 . S
C768 C765 1.463 . S
C768 N772 1.427 . S
C769 H759 0.929 . S
C769 C767 1.433 . S
C769 N772 1.384 . S
C770 H761 0.929 . S
C770 C762 1.378 . S
C770 C765 1.350 . S
C771 H758 0.929 . S
C771 C763 1.433 . S
C771 N773 1.384 . S
N772 C768 1.427 . S
N772 C769 1.384 . S
N773 C765 1.427 . S
N773 C771 1.384 . S
H774 C780 0.930 . S
H775 C784 0.930 . S
H776 C789 0.929 . S
H777 C787 0.929 . S
H778 C782 0.929 . S
H779 C788 0.929 . S
C780 H774 0.930 . S
C780 C781 1.367 . S
C780 C788 1.378 . S
C781 C780 1.367 . S
C781 C789 1.433 . S
C782 H778 0.929 . S
C782 C784 1.378 . S
C782 C786 1.350 . S
C783 C786 1.463 . S
C783 C788 1.350 . S
C783 N791 1.427 . S
C784 H775 0.930 . S
C784 C782 1.378 . S
C784 C785 1.367 . S
C785 C784 1.367 . S
C785 C787 1.433 . S
C786 C782 1.350 . S
C786 C783 1.463 . S
C786 N790 1.427 . S
C787 H777 0.929 . S
C787 C785 1.433 . S
C787 N790 1.384 . S
C788 H779 0.929 . S
C788 C780 1.378 . S
C788 C783 1.350 . S
C789 H776 0.929 . S
C789 C781 1.433 . S
C789 N791 1.384 . S
N790 C786 1.427 . S
N790 C787 1.384 . S
N791 C783 1.427 . S
N791 C789 1.384 . S
H792 C798 0.930 . S
H793 C802 0.930 . S
H794 C807 0.929 . S
H795 C805 0.929 . S
H796 C800 0.929 . S
H797 C806 0.929 . S
C798 H792 0.930 . S
C798 C799 1.367 . S
C798 C806 1.378 . S
C799 C798 1.367 . S
C799 C807 1.433 . S
C800 H796 0.929 . S
C800 C802 1.378 . S
C800 C804 1.350 . S
C801 C804 1.463 . S
C801 C806 1.350 . S
C801 N809 1.427 . S
C802 H793 0.930 . S
C802 C800 1.378 . S
C802 C803 1.367 . S
C803 C802 1.367 . S
C803 C805 1.433 . S
C804 C800 1.350 . S
C804 C801 1.463 . S
C804 N808 1.427 . S
C805 H795 0.929 . S
C805 C803 1.433 . S
C805 N808 1.384 . S
C806 H797 0.929 . S
C806 C798 1.378 . S
C806 C801 1.350 . S
C807 H794 0.929 . S
C807 C799 1.433 . S
C807 N809 1.384 . S
N808 C804 1.427 . S
N808 C805 1.384 . S
N809 C801 1.427 . S
N809 C807 1.384 . S
H810 C816 0.930 . S
H811 C820 0.930 . S
H812 C825 0.929 . S
H813 C823 0.929 . S
H814 C818 0.929 . S
H815 C824 0.929 . S
C816 H810 0.930 . S
C816 C817 1.367 . S
C816 C824 1.378 . S
C817 C816 1.367 . S
C817 C825 1.433 . S
C818 H814 0.929 . S
C818 C820 1.378 . S
C818 C822 1.350 . S
C819 C822 1.463 . S
C819 C824 1.350 . S
C819 N827 1.427 . S
C820 H811 0.930 . S
C820 C818 1.378 . S
C820 C821 1.367 . S
C821 C820 1.367 . S
C821 C823 1.433 . S
C822 C818 1.350 . S
C822 C819 1.463 . S
C822 N826 1.427 . S
C823 H813 0.929 . S
C823 C821 1.433 . S
C823 N826 1.384 . S
C824 H815 0.929 . S
C824 C816 1.378 . S
C824 C819 1.350 . S
C825 H812 0.929 . S
C825 C817 1.433 . S
C825 N827 1.384 . S
N826 C822 1.427 . S
N826 C823 1.384 . S
N827 C819 1.427 . S
N827 C825 1.384 . S
H828 C834 0.930 . S
H829 C838 0.930 . S
H830 C843 0.929 . S
H831 C841 0.929 . S
H832 C836 0.929 . S
H833 C842 0.929 . S
C834 H828 0.930 . S
C834 C835 1.367 . S
C834 C842 1.378 . S
C835 C834 1.367 . S
C835 C843 1.433 . S
C836 H832 0.929 . S
C836 C838 1.378 . S
C836 C840 1.350 . S
C837 C840 1.463 . S
C837 C842 1.350 . S
C837 N845 1.427 . S
C838 H829 0.930 . S
C838 C836 1.378 . S
C838 C839 1.367 . S
C839 C838 1.367 . S
C839 C841 1.433 . S
C840 C836 1.350 . S
C840 C837 1.463 . S
C840 N844 1.427 . S
C841 H831 0.929 . S
C841 C839 1.433 . S
C841 N844 1.384 . S
C842 H833 0.929 . S
C842 C834 1.378 . S
C842 C837 1.350 . S
C843 H830 0.929 . S
C843 C835 1.433 . S
C843 N845 1.384 . S
N844 C840 1.427 . S
N844 C841 1.384 . S
N845 C837 1.427 . S
N845 C843 1.384 . S
H846 C852 0.930 . S
H847 C856 0.930 . S
H848 C861 0.929 . S
H849 C859 0.929 . S
H850 C854 0.929 . S
H851 C860 0.929 . S
C852 H846 0.930 . S
C852 C853 1.367 . S
C852 C860 1.378 . S
C853 C852 1.367 . S
C853 C861 1.433 . S
C854 H850 0.929 . S
C854 C856 1.378 . S
C854 C858 1.350 . S
C855 C858 1.463 . S
C855 C860 1.350 . S
C855 N863 1.427 . S
C856 H847 0.930 . S
C856 C854 1.378 . S
C856 C857 1.367 . S
C857 C856 1.367 . S
C857 C859 1.433 . S
C858 C854 1.350 . S
C858 C855 1.463 . S
C858 N862 1.427 . S
C859 H849 0.929 . S
C859 C857 1.433 . S
C859 N862 1.384 . S
C860 H851 0.929 . S
C860 C852 1.378 . S
C860 C855 1.350 . S
C861 H848 0.929 . S
C861 C853 1.433 . S
C861 N863 1.384 . S
N862 C858 1.427 . S
N862 C859 1.384 . S
N863 C855 1.427 . S
N863 C861 1.384 . S
H864 C870 0.930 . S
H865 C874 0.930 . S
H866 C879 0.929 . S
H867 C877 0.929 . S
H868 C872 0.929 . S
H869 C878 0.929 . S
C870 H864 0.930 . S
C870 C871 1.367 . S
C870 C878 1.378 . S
C871 C870 1.367 . S
C871 C879 1.433 . S
C872 H868 0.929 . S
C872 C874 1.378 . S
C872 C876 1.350 . S
C873 C876 1.463 . S
C873 C878 1.350 . S
C873 N881 1.427 . S
C874 H865 0.930 . S
C874 C872 1.378 . S
C874 C875 1.367 . S
C875 C874 1.367 . S
C875 C877 1.433 . S
C876 C872 1.350 . S
C876 C873 1.463 . S
C876 N880 1.427 . S
C877 H867 0.929 . S
C877 C875 1.433 . S
C877 N880 1.384 . S
C878 H869 0.929 . S
C878 C870 1.378 . S
C878 C873 1.350 . S
C879 H866 0.929 . S
C879 C871 1.433 . S
C879 N881 1.384 . S
N880 C876 1.427 . S
N880 C877 1.384 . S
N881 C873 1.427 . S
N881 C879 1.384 . S
H882 C888 0.930 . S
H883 C892 0.930 . S
H884 C897 0.929 . S
H885 C895 0.929 . S
H886 C890 0.929 . S
H887 C896 0.929 . S
C888 H882 0.930 . S
C888 C889 1.367 . S
C888 C896 1.378 . S
C889 C888 1.367 . S
C889 C897 1.433 . S
C890 H886 0.929 . S
C890 C892 1.378 . S
C890 C894 1.350 . S
C891 C894 1.463 . S
C891 C896 1.350 . S
C891 N899 1.427 . S
C892 H883 0.930 . S
C892 C890 1.378 . S
C892 C893 1.367 . S
C893 C892 1.367 . S
C893 C895 1.433 . S
C894 C890 1.350 . S
C894 C891 1.463 . S
C894 N898 1.427 . S
C895 H885 0.929 . S
C895 C893 1.433 . S
C895 N898 1.384 . S
C896 H887 0.929 . S
C896 C888 1.378 . S
C896 C891 1.350 . S
C897 H884 0.929 . S
C897 C889 1.433 . S
C897 N899 1.384 . S
N898 C894 1.427 . S
N898 C895 1.384 . S
N899 C891 1.427 . S
N899 C897 1.384 . S
H900 C906 0.930 . S
H901 C910 0.930 . S
H902 C915 0.929 . S
H903 C913 0.929 . S
H904 C908 0.929 . S
H905 C914 0.929 . S
C906 H900 0.930 . S
C906 C907 1.367 . S
C906 C914 1.378 . S
C907 C906 1.367 . S
C907 C915 1.433 . S
C908 H904 0.929 . S
C908 C910 1.378 . S
C908 C912 1.350 . S
C909 C912 1.463 . S
C909 C914 1.350 . S
C909 N917 1.427 . S
C910 H901 0.930 . S
C910 C908 1.378 . S
C910 C911 1.367 . S
C911 C910 1.367 . S
C911 C913 1.433 . S
C912 C908 1.350 . S
C912 C909 1.463 . S
C912 N916 1.427 . S
C913 H903 0.929 . S
C913 C911 1.433 . S
C913 N916 1.384 . S
C914 H905 0.929 . S
C914 C906 1.378 . S
C914 C909 1.350 . S
C915 H902 0.929 . S
C915 C907 1.433 . S
C915 N917 1.384 . S
N916 C912 1.427 . S
N916 C913 1.384 . S
N917 C909 1.427 . S
N917 C915 1.384 . S
H918 C924 0.930 . S
H919 C928 0.930 . S
H920 C933 0.929 . S
H921 C931 0.929 . S
H922 C926 0.929 . S
H923 C932 0.929 . S
C924 H918 0.930 . S
C924 C925 1.367 . S
C924 C932 1.378 . S
C925 C924 1.367 . S
C925 C933 1.433 . S
C926 H922 0.929 . S
C926 C928 1.378 . S
C926 C930 1.350 . S
C927 C930 1.463 . S
C927 C932 1.350 . S
C927 N935 1.427 . S
C928 H919 0.930 . S
C928 C926 1.378 . S
C928 C929 1.367 . S
C929 C928 1.367 . S
C929 C931 1.433 . S
C930 C926 1.350 . S
C930 C927 1.463 . S
C930 N934 1.427 . S
C931 H921 0.929 . S
C931 C929 1.433 . S
C931 N934 1.384 . S
C932 H923 0.929 . S
C932 C924 1.378 . S
C932 C927 1.350 . S
C933 H920 0.929 . S
C933 C925 1.433 . S
C933 N935 1.384 . S
N934 C930 1.427 . S
N934 C931 1.384 . S
N935 C927 1.427 . S
N935 C933 1.384 . S
H936 C942 0.930 . S
H937 C946 0.930 . S
H938 C951 0.929 . S
H939 C949 0.929 . S
H940 C944 0.929 . S
H941 C950 0.929 . S
C942 H936 0.930 . S
C942 C943 1.367 . S
C942 C950 1.378 . S
C943 C942 1.367 . S
C943 C951 1.433 . S
C944 H940 0.929 . S
C944 C946 1.378 . S
C944 C948 1.350 . S
C945 C948 1.463 . S
C945 C950 1.350 . S
C945 N953 1.427 . S
C946 H937 0.930 . S
C946 C944 1.378 . S
C946 C947 1.367 . S
C947 C946 1.367 . S
C947 C949 1.433 . S
C948 C944 1.350 . S
C948 C945 1.463 . S
C948 N952 1.427 . S
C949 H939 0.929 . S
C949 C947 1.433 . S
C949 N952 1.384 . S
C950 H941 0.929 . S
C950 C942 1.378 . S
C950 C945 1.350 . S
C951 H938 0.929 . S
C951 C943 1.433 . S
C951 N953 1.384 . S
N952 C948 1.427 . S
N952 C949 1.384 . S
N953 C945 1.427 . S
N953 C951 1.384 . S
H954 C960 0.930 . S
H955 C964 0.930 . S
H956 C969 0.929 . S
H957 C967 0.929 . S
H958 C962 0.929 . S
H959 C968 0.929 . S
C960 H954 0.930 . S
C960 C961 1.367 . S
C960 C968 1.378 . S
C961 C960 1.367 . S
C961 C969 1.433 . S
C962 H958 0.929 . S
C962 C964 1.378 . S
C962 C966 1.350 . S
C963 C966 1.463 . S
C963 C968 1.350 . S
C963 N971 1.427 . S
C964 H955 0.930 . S
C964 C962 1.378 . S
C964 C965 1.367 . S
C965 C964 1.367 . S
C965 C967 1.433 . S
C966 C962 1.350 . S
C966 C963 1.463 . S
C966 N970 1.427 . S
C967 H957 0.929 . S
C967 C965 1.433 . S
C967 N970 1.384 . S
C968 H959 0.929 . S
C968 C960 1.378 . S
C968 C963 1.350 . S
C969 H956 0.929 . S
C969 C961 1.433 . S
C969 N971 1.384 . S
N970 C966 1.427 . S
N970 C967 1.384 . S
N971 C963 1.427 . S
N971 C969 1.384 . S
H972 C978 0.930 . S
H973 C982 0.930 . S
H974 C987 0.929 . S
H975 C985 0.929 . S
H976 C980 0.929 . S
H977 C986 0.929 . S
C978 H972 0.930 . S
C978 C979 1.367 . S
C978 C986 1.378 . S
C979 C978 1.367 . S
C979 C987 1.433 . S
C980 H976 0.929 . S
C980 C982 1.378 . S
C980 C984 1.350 . S
C981 C984 1.463 . S
C981 C986 1.350 . S
C981 N989 1.427 . S
C982 H973 0.930 . S
C982 C980 1.378 . S
C982 C983 1.367 . S
C983 C982 1.367 . S
C983 C985 1.433 . S
C984 C980 1.350 . S
C984 C981 1.463 . S
C984 N988 1.427 . S
C985 H975 0.929 . S
C985 C983 1.433 . S
C985 N988 1.384 . S
C986 H977 0.929 . S
C986 C978 1.378 . S
C986 C981 1.350 . S
C987 H974 0.929 . S
C987 C979 1.433 . S
C987 N989 1.384 . S
N988 C984 1.427 . S
N988 C985 1.384 . S
N989 C981 1.427 . S
N989 C987 1.384 . S
H990 C996 0.930 . S
H991 C1000 0.930 . S
H992 C1005 0.929 . S
H993 C1003 0.929 . S
H994 C998 0.929 . S
H995 C1004 0.929 . S
C996 H990 0.930 . S
C996 C997 1.367 . S
C996 C1004 1.378 . S
C997 C996 1.367 . S
C997 C1005 1.433 . S
C998 H994 0.929 . S
C998 C1000 1.378 . S
C998 C1002 1.350 . S
C999 C1002 1.463 . S
C999 C1004 1.350 . S
C999 N1007 1.427 . S
C1000 H991 0.930 . S
C1000 C998 1.378 . S
C1000 C1001 1.367 . S
C1001 C1000 1.367 . S
C1001 C1003 1.433 . S
C1002 C998 1.350 . S
C1002 C999 1.463 . S
C1002 N1006 1.427 . S
C1003 H993 0.929 . S
C1003 C1001 1.433 . S
C1003 N1006 1.384 . S
C1004 H995 0.929 . S
C1004 C996 1.378 . S
C1004 C999 1.350 . S
C1005 H992 0.929 . S
C1005 C997 1.433 . S
C1005 N1007 1.384 . S
N1006 C1002 1.427 . S
N1006 C1003 1.384 . S
N1007 C999 1.427 . S
N1007 C1005 1.384 . S
H1008 C1014 0.930 . S
H1009 C1018 0.930 1_556 S
H1010 C1023 0.929 . S
H1011 C1021 0.929 . S
H1012 C1016 0.929 . S
H1013 C1022 0.929 . S
C1014 H1008 0.930 . S
C1014 C1015 1.367 . S
C1014 C1022 1.378 . S
C1015 C1014 1.367 . S
C1015 C1023 1.433 . S
C1016 H1012 0.929 . S
C1016 C1018 1.378 . S
C1016 C1020 1.350 . S
C1017 C1020 1.463 . S
C1017 C1022 1.350 . S
C1017 N1025 1.427 . S
C1018 H1009 0.930 1_554 S
C1018 C1016 1.378 . S
C1018 C1019 1.367 . S
C1019 C1018 1.367 . S
C1019 C1021 1.433 . S
C1020 C1016 1.350 . S
C1020 C1017 1.463 . S
C1020 N1024 1.427 . S
C1021 H1011 0.929 . S
C1021 C1019 1.433 . S
C1021 N1024 1.384 . S
C1022 H1013 0.929 . S
C1022 C1014 1.378 . S
C1022 C1017 1.350 . S
C1023 H1010 0.929 . S
C1023 C1015 1.433 . S
C1023 N1025 1.384 . S
N1024 C1020 1.427 . S
N1024 C1021 1.384 . S
N1025 C1017 1.427 . S
N1025 C1023 1.384 . S
H1026 C1032 0.930 . S
H1027 C1036 0.930 . S
H1028 C1041 0.929 . S
H1029 C1039 0.929 . S
H1030 C1034 0.929 . S
H1031 C1040 0.929 . S
C1032 H1026 0.930 . S
C1032 C1033 1.367 . S
C1032 C1040 1.378 . S
C1033 C1032 1.367 . S
C1033 C1041 1.433 . S
C1034 H1030 0.929 . S
C1034 C1036 1.378 . S
C1034 C1038 1.350 . S
C1035 C1038 1.463 . S
C1035 C1040 1.350 . S
C1035 N1043 1.427 . S
C1036 H1027 0.930 . S
C1036 C1034 1.378 . S
C1036 C1037 1.367 . S
C1037 C1036 1.367 . S
C1037 C1039 1.433 1_554 S
C1038 C1034 1.350 . S
C1038 C1035 1.463 . S
C1038 N1042 1.427 . S
C1039 H1029 0.929 . S
C1039 C1037 1.433 1_556 S
C1039 N1042 1.384 1_556 S
C1040 H1031 0.929 . S
C1040 C1032 1.378 . S
C1040 C1035 1.350 . S
C1041 H1028 0.929 . S
C1041 C1033 1.433 . S
C1041 N1043 1.384 . S
N1042 C1038 1.427 . S
N1042 C1039 1.384 1_554 S
N1043 C1035 1.427 . S
N1043 C1041 1.384 . S
H1044 C1050 0.930 . S
H1045 C1054 0.930 . S
H1046 C1059 0.929 1_556 S
H1047 C1057 0.929 . S
H1048 C1052 0.929 . S
H1049 C1058 0.929 . S
C1050 H1044 0.930 . S
C1050 C1051 1.367 . S
C1050 C1058 1.378 . S
C1051 C1050 1.367 . S
C1051 C1059 1.433 . S
C1052 H1048 0.929 . S
C1052 C1054 1.378 . S
C1052 C1056 1.350 . S
C1053 C1056 1.463 . S
C1053 C1058 1.350 . S
C1053 N1061 1.427 . S
C1054 H1045 0.930 . S
C1054 C1052 1.378 . S
C1054 C1055 1.367 . S
C1055 C1054 1.367 . S
C1055 C1057 1.433 . S
C1056 C1052 1.350 . S
C1056 C1053 1.463 . S
C1056 N1060 1.427 . S
C1057 H1047 0.929 . S
C1057 C1055 1.433 . S
C1057 N1060 1.384 . S
C1058 H1049 0.929 . S
C1058 C1050 1.378 . S
C1058 C1053 1.350 . S
C1059 H1046 0.929 1_554 S
C1059 C1051 1.433 . S
C1059 N1061 1.384 . S
N1060 C1056 1.427 . S
N1060 C1057 1.384 . S
N1061 C1053 1.427 . S
N1061 C1059 1.384 . S
H1062 C1068 0.930 . S
H1063 C1072 0.930 . S
H1064 C1077 0.929 . S
H1065 C1075 0.929 . S
H1066 C1070 0.929 . S
H1067 C1076 0.929 . S
C1068 H1062 0.930 . S
C1068 C1069 1.367 . S
C1068 C1076 1.378 1_556 S
C1069 C1068 1.367 . S
C1069 C1077 1.433 . S
C1070 H1066 0.929 . S
C1070 C1072 1.378 . S
C1070 C1074 1.350 . S
C1071 C1074 1.463 . S
C1071 C1076 1.350 . S
C1071 N1079 1.427 . S
C1072 H1063 0.930 . S
C1072 C1070 1.378 . S
C1072 C1073 1.367 . S
C1073 C1072 1.367 . S
C1073 C1075 1.433 . S
C1074 C1070 1.350 . S
C1074 C1071 1.463 . S
C1074 N1078 1.427 . S
C1075 H1065 0.929 . S
C1075 C1073 1.433 . S
C1075 N1078 1.384 . S
C1076 H1067 0.929 . S
C1076 C1068 1.378 1_554 S
C1076 C1071 1.350 . S
C1077 H1064 0.929 . S
C1077 C1069 1.433 . S
C1077 N1079 1.384 1_556 S
N1078 C1074 1.427 . S
N1078 C1075 1.384 . S
N1079 C1071 1.427 . S
N1079 C1077 1.384 1_554 S
H1080 C1086 0.930 . S
H1081 C1090 0.930 . S
H1082 C1095 0.929 . S
H1083 C1093 0.929 . S
H1084 C1088 0.929 . S
H1085 C1094 0.929 . S
C1086 H1080 0.930 . S
C1086 C1087 1.367 . S
C1086 C1094 1.378 1_556 S
C1087 C1086 1.367 . S
C1087 C1095 1.433 . S
C1088 H1084 0.929 . S
C1088 C1090 1.378 . S
C1088 C1092 1.350 . S
C1089 C1092 1.463 . S
C1089 C1094 1.350 . S
C1089 N1097 1.427 1_554 S
C1090 H1081 0.930 . S
C1090 C1088 1.378 . S
C1090 C1091 1.367 . S
C1091 C1090 1.367 . S
C1091 C1093 1.433 . S
C1092 C1088 1.350 . S
C1092 C1089 1.463 . S
C1092 N1096 1.427 . S
C1093 H1083 0.929 . S
C1093 C1091 1.433 . S
C1093 N1096 1.384 . S
C1094 H1085 0.929 . S
C1094 C1086 1.378 1_554 S
C1094 C1089 1.350 . S
C1095 H1082 0.929 . S
C1095 C1087 1.433 . S
C1095 N1097 1.384 . S
N1096 C1092 1.427 . S
N1096 C1093 1.384 . S
N1097 C1089 1.427 1_556 S
N1097 C1095 1.384 . S
H1098 C1104 0.930 . S
H1099 C1108 0.930 . S
H1100 C1113 0.929 . S
H1101 C1111 0.929 . S
H1102 C1106 0.929 . S
H1103 C1112 0.929 . S
C1104 H1098 0.930 . S
C1104 C1105 1.367 . S
C1104 C1112 1.378 1_556 S
C1105 C1104 1.367 . S
C1105 C1113 1.433 . S
C1106 H1102 0.929 . S
C1106 C1108 1.378 . S
C1106 C1110 1.350 . S
C1107 C1110 1.463 . S
C1107 C1112 1.350 . S
C1107 N1115 1.427 1_554 S
C1108 H1099 0.930 . S
C1108 C1106 1.378 . S
C1108 C1109 1.367 . S
C1109 C1108 1.367 . S
C1109 C1111 1.433 . S
C1110 C1106 1.350 . S
C1110 C1107 1.463 . S
C1110 N1114 1.427 . S
C1111 H1101 0.929 . S
C1111 C1109 1.433 . S
C1111 N1114 1.384 . S
C1112 H1103 0.929 . S
C1112 C1104 1.378 1_554 S
C1112 C1107 1.350 . S
C1113 H1100 0.929 . S
C1113 C1105 1.433 . S
C1113 N1115 1.384 . S
N1114 C1110 1.427 . S
N1114 C1111 1.384 . S
N1115 C1107 1.427 1_556 S
N1115 C1113 1.384 . S
H1116 C1122 0.930 . S
H1117 C1126 0.930 . S
H1118 C1131 0.929 . S
H1119 C1129 0.929 . S
H1120 C1124 0.929 . S
H1121 C1130 0.929 . S
C1122 H1116 0.930 . S
C1122 C1123 1.367 . S
C1122 C1130 1.378 . S
C1123 C1122 1.367 . S
C1123 C1131 1.433 . S
C1124 H1120 0.929 . S
C1124 C1126 1.378 . S
C1124 C1128 1.350 . S
C1125 C1128 1.463 . S
C1125 C1130 1.350 . S
C1125 N1133 1.427 . S
C1126 H1117 0.930 . S
C1126 C1124 1.378 . S
C1126 C1127 1.367 . S
C1127 C1126 1.367 . S
C1127 C1129 1.433 . S
C1128 C1124 1.350 . S
C1128 C1125 1.463 . S
C1128 N1132 1.427 . S
C1129 H1119 0.929 . S
C1129 C1127 1.433 . S
C1129 N1132 1.384 . S
C1130 H1121 0.929 . S
C1130 C1122 1.378 . S
C1130 C1125 1.350 . S
C1131 H1118 0.929 . S
C1131 C1123 1.433 . S
C1131 N1133 1.384 . S
N1132 C1128 1.427 . S
N1132 C1129 1.384 . S
N1133 C1125 1.427 . S
N1133 C1131 1.384 . S
H1134 C1140 0.930 . S
H1135 C1144 0.930 . S
H1136 C1149 0.929 . S
H1137 C1147 0.929 . S
H1138 C1142 0.929 . S
H1139 C1148 0.929 . S
C1140 H1134 0.930 . S
C1140 C1141 1.367 . S
C1140 C1148 1.378 . S
C1141 C1140 1.367 . S
C1141 C1149 1.433 . S
C1142 H1138 0.929 . S
C1142 C1144 1.378 . S
C1142 C1146 1.350 . S
C1143 C1146 1.463 . S
C1143 C1148 1.350 . S
C1143 N1151 1.427 . S
C1144 H1135 0.930 . S
C1144 C1142 1.378 . S
C1144 C1145 1.367 . S
C1145 C1144 1.367 . S
C1145 C1147 1.433 . S
C1146 C1142 1.350 . S
C1146 C1143 1.463 . S
C1146 N1150 1.427 . S
C1147 H1137 0.929 . S
C1147 C1145 1.433 . S
C1147 N1150 1.384 . S
C1148 H1139 0.929 . S
C1148 C1140 1.378 . S
C1148 C1143 1.350 . S
C1149 H1136 0.929 . S
C1149 C1141 1.433 . S
C1149 N1151 1.384 . S
N1150 C1146 1.427 . S
N1150 C1147 1.384 . S
N1151 C1143 1.427 . S
N1151 C1149 1.384 . S
H1152 C1158 0.930 . S
H1153 C1162 0.930 . S
H1154 C1167 0.929 . S
H1155 C1165 0.929 . S
H1156 C1160 0.929 . S
H1157 C1166 0.929 . S
C1158 H1152 0.930 . S
C1158 C1159 1.367 . S
C1158 C1166 1.378 . S
C1159 C1158 1.367 . S
C1159 C1167 1.433 . S
C1160 H1156 0.929 . S
C1160 C1162 1.378 . S
C1160 C1164 1.350 . S
C1161 C1164 1.463 . S
C1161 C1166 1.350 . S
C1161 N1169 1.427 . S
C1162 H1153 0.930 . S
C1162 C1160 1.378 . S
C1162 C1163 1.367 . S
C1163 C1162 1.367 . S
C1163 C1165 1.433 . S
C1164 C1160 1.350 . S
C1164 C1161 1.463 . S
C1164 N1168 1.427 . S
C1165 H1155 0.929 . S
C1165 C1163 1.433 . S
C1165 N1168 1.384 . S
C1166 H1157 0.929 . S
C1166 C1158 1.378 . S
C1166 C1161 1.350 . S
C1167 H1154 0.929 . S
C1167 C1159 1.433 . S
C1167 N1169 1.384 . S
N1168 C1164 1.427 . S
N1168 C1165 1.384 . S
N1169 C1161 1.427 . S
N1169 C1167 1.384 . S
H1170 C1176 0.930 . S
H1171 C1180 0.930 . S
H1172 C1185 0.929 . S
H1173 C1183 0.929 . S
H1174 C1178 0.929 . S
H1175 C1184 0.929 . S
C1176 H1170 0.930 . S
C1176 C1177 1.367 . S
C1176 C1184 1.378 . S
C1177 C1176 1.367 . S
C1177 C1185 1.433 . S
C1178 H1174 0.929 . S
C1178 C1180 1.378 . S
C1178 C1182 1.350 . S
C1179 C1182 1.463 . S
C1179 C1184 1.350 . S
C1179 N1187 1.427 . S
C1180 H1171 0.930 . S
C1180 C1178 1.378 . S
C1180 C1181 1.367 . S
C1181 C1180 1.367 . S
C1181 C1183 1.433 . S
C1182 C1178 1.350 . S
C1182 C1179 1.463 . S
C1182 N1186 1.427 . S
C1183 H1173 0.929 . S
C1183 C1181 1.433 . S
C1183 N1186 1.384 . S
C1184 H1175 0.929 . S
C1184 C1176 1.378 . S
C1184 C1179 1.350 . S
C1185 H1172 0.929 . S
C1185 C1177 1.433 . S
C1185 N1187 1.384 . S
N1186 C1182 1.427 . S
N1186 C1183 1.384 . S
N1187 C1179 1.427 . S
N1187 C1185 1.384 . S
H1188 C1194 0.930 . S
H1189 C1198 0.930 . S
H1190 C1203 0.929 . S
H1191 C1201 0.929 . S
H1192 C1196 0.929 . S
H1193 C1202 0.929 . S
C1194 H1188 0.930 . S
C1194 C1195 1.367 . S
C1194 C1202 1.378 . S
C1195 C1194 1.367 . S
C1195 C1203 1.433 . S
C1196 H1192 0.929 . S
C1196 C1198 1.378 . S
C1196 C1200 1.350 . S
C1197 C1200 1.463 . S
C1197 C1202 1.350 . S
C1197 N1205 1.427 . S
C1198 H1189 0.930 . S
C1198 C1196 1.378 . S
C1198 C1199 1.367 . S
C1199 C1198 1.367 . S
C1199 C1201 1.433 . S
C1200 C1196 1.350 . S
C1200 C1197 1.463 . S
C1200 N1204 1.427 . S
C1201 H1191 0.929 . S
C1201 C1199 1.433 . S
C1201 N1204 1.384 . S
C1202 H1193 0.929 . S
C1202 C1194 1.378 . S
C1202 C1197 1.350 . S
C1203 H1190 0.929 . S
C1203 C1195 1.433 . S
C1203 N1205 1.384 . S
N1204 C1200 1.427 . S
N1204 C1201 1.384 . S
N1205 C1197 1.427 . S
N1205 C1203 1.384 . S
H1206 C1212 0.930 . S
H1207 C1216 0.930 . S
H1208 C1221 0.929 . S
H1209 C1219 0.929 . S
H1210 C1214 0.929 . S
H1211 C1220 0.929 . S
C1212 H1206 0.930 . S
C1212 C1213 1.367 . S
C1212 C1220 1.378 . S
C1213 C1212 1.367 . S
C1213 C1221 1.433 . S
C1214 H1210 0.929 . S
C1214 C1216 1.378 . S
C1214 C1218 1.350 . S
C1215 C1218 1.463 . S
C1215 C1220 1.350 . S
C1215 N1223 1.427 . S
C1216 H1207 0.930 . S
C1216 C1214 1.378 . S
C1216 C1217 1.367 . S
C1217 C1216 1.367 . S
C1217 C1219 1.433 . S
C1218 C1214 1.350 . S
C1218 C1215 1.463 . S
C1218 N1222 1.427 . S
C1219 H1209 0.929 . S
C1219 C1217 1.433 . S
C1219 N1222 1.384 . S
C1220 H1211 0.929 . S
C1220 C1212 1.378 . S
C1220 C1215 1.350 . S
C1221 H1208 0.929 . S
C1221 C1213 1.433 . S
C1221 N1223 1.384 . S
N1222 C1218 1.427 . S
N1222 C1219 1.384 . S
N1223 C1215 1.427 . S
N1223 C1221 1.384 . S
H1224 C1230 0.930 . S
H1225 C1234 0.930 . S
H1226 C1239 0.929 . S
H1227 C1237 0.929 . S
H1228 C1232 0.929 . S
H1229 C1238 0.929 . S
C1230 H1224 0.930 . S
C1230 C1231 1.367 . S
C1230 C1238 1.378 . S
C1231 C1230 1.367 . S
C1231 C1239 1.433 . S
C1232 H1228 0.929 . S
C1232 C1234 1.378 . S
C1232 C1236 1.350 . S
C1233 C1236 1.463 . S
C1233 C1238 1.350 . S
C1233 N1241 1.427 . S
C1234 H1225 0.930 . S
C1234 C1232 1.378 . S
C1234 C1235 1.367 . S
C1235 C1234 1.367 . S
C1235 C1237 1.433 . S
C1236 C1232 1.350 . S
C1236 C1233 1.463 . S
C1236 N1240 1.427 . S
C1237 H1227 0.929 . S
C1237 C1235 1.433 . S
C1237 N1240 1.384 . S
C1238 H1229 0.929 . S
C1238 C1230 1.378 . S
C1238 C1233 1.350 . S
C1239 H1226 0.929 . S
C1239 C1231 1.433 . S
C1239 N1241 1.384 . S
N1240 C1236 1.427 . S
N1240 C1237 1.384 . S
N1241 C1233 1.427 . S
N1241 C1239 1.384 . S
H1242 C1248 0.930 . S
H1243 C1252 0.930 . S
H1244 C1257 0.929 . S
H1245 C1255 0.929 . S
H1246 C1250 0.929 . S
H1247 C1256 0.929 . S
C1248 H1242 0.930 . S
C1248 C1249 1.367 . S
C1248 C1256 1.378 . S
C1249 C1248 1.367 . S
C1249 C1257 1.433 . S
C1250 H1246 0.929 . S
C1250 C1252 1.378 . S
C1250 C1254 1.350 . S
C1251 C1254 1.463 . S
C1251 C1256 1.350 . S
C1251 N1259 1.427 . S
C1252 H1243 0.930 . S
C1252 C1250 1.378 . S
C1252 C1253 1.367 . S
C1253 C1252 1.367 . S
C1253 C1255 1.433 . S
C1254 C1250 1.350 . S
C1254 C1251 1.463 . S
C1254 N1258 1.427 . S
C1255 H1245 0.929 . S
C1255 C1253 1.433 . S
C1255 N1258 1.384 . S
C1256 H1247 0.929 . S
C1256 C1248 1.378 . S
C1256 C1251 1.350 . S
C1257 H1244 0.929 . S
C1257 C1249 1.433 . S
C1257 N1259 1.384 . S
N1258 C1254 1.427 . S
N1258 C1255 1.384 . S
N1259 C1251 1.427 . S
N1259 C1257 1.384 . S
H1260 C1266 0.930 . S
H1261 C1270 0.930 . S
H1262 C1275 0.929 . S
H1263 C1273 0.929 . S
H1264 C1268 0.929 . S
H1265 C1274 0.929 . S
C1266 H1260 0.930 . S
C1266 C1267 1.367 . S
C1266 C1274 1.378 . S
C1267 C1266 1.367 . S
C1267 C1275 1.433 . S
C1268 H1264 0.929 . S
C1268 C1270 1.378 . S
C1268 C1272 1.350 . S
C1269 C1272 1.463 . S
C1269 C1274 1.350 . S
C1269 N1277 1.427 . S
C1270 H1261 0.930 . S
C1270 C1268 1.378 . S
C1270 C1271 1.367 . S
C1271 C1270 1.367 . S
C1271 C1273 1.433 . S
C1272 C1268 1.350 . S
C1272 C1269 1.463 . S
C1272 N1276 1.427 . S
C1273 H1263 0.929 . S
C1273 C1271 1.433 . S
C1273 N1276 1.384 . S
C1274 H1265 0.929 . S
C1274 C1266 1.378 . S
C1274 C1269 1.350 . S
C1275 H1262 0.929 . S
C1275 C1267 1.433 . S
C1275 N1277 1.384 . S
N1276 C1272 1.427 . S
N1276 C1273 1.384 . S
N1277 C1269 1.427 . S
N1277 C1275 1.384 . S
H1278 C1284 0.930 . S
H1279 C1288 0.930 . S
H1280 C1293 0.929 . S
H1281 C1291 0.929 . S
H1282 C1286 0.929 . S
H1283 C1292 0.929 . S
C1284 H1278 0.930 . S
C1284 C1285 1.367 . S
C1284 C1292 1.378 . S
C1285 C1284 1.367 . S
C1285 C1293 1.433 . S
C1286 H1282 0.929 . S
C1286 C1288 1.378 . S
C1286 C1290 1.350 . S
C1287 C1290 1.463 . S
C1287 C1292 1.350 . S
C1287 N1295 1.427 . S
C1288 H1279 0.930 . S
C1288 C1286 1.378 . S
C1288 C1289 1.367 . S
C1289 C1288 1.367 . S
C1289 C1291 1.433 . S
C1290 C1286 1.350 . S
C1290 C1287 1.463 . S
C1290 N1294 1.427 . S
C1291 H1281 0.929 . S
C1291 C1289 1.433 . S
C1291 N1294 1.384 . S
C1292 H1283 0.929 . S
C1292 C1284 1.378 . S
C1292 C1287 1.350 . S
C1293 H1280 0.929 . S
C1293 C1285 1.433 . S
C1293 N1295 1.384 . S
N1294 C1290 1.427 . S
N1294 C1291 1.384 . S
N1295 C1287 1.427 . S
N1295 C1293 1.384 . S
H1296 C1302 0.930 . S
H1297 C1306 0.930 . S
H1298 C1311 0.929 . S
H1299 C1309 0.929 . S
H1300 C1304 0.929 . S
H1301 C1310 0.929 . S
C1302 H1296 0.930 . S
C1302 C1303 1.367 . S
C1302 C1310 1.378 . S
C1303 C1302 1.367 . S
C1303 C1311 1.433 . S
C1304 H1300 0.929 . S
C1304 C1306 1.378 . S
C1304 C1308 1.350 . S
C1305 C1308 1.463 . S
C1305 C1310 1.350 . S
C1305 N1313 1.427 . S
C1306 H1297 0.930 . S
C1306 C1304 1.378 . S
C1306 C1307 1.367 . S
C1307 C1306 1.367 . S
C1307 C1309 1.433 . S
C1308 C1304 1.350 . S
C1308 C1305 1.463 . S
C1308 N1312 1.427 . S
C1309 H1299 0.929 . S
C1309 C1307 1.433 . S
C1309 N1312 1.384 . S
C1310 H1301 0.929 . S
C1310 C1302 1.378 . S
C1310 C1305 1.350 . S
C1311 H1298 0.929 . S
C1311 C1303 1.433 . S
C1311 N1313 1.384 . S
N1312 C1308 1.427 . S
N1312 C1309 1.384 . S
N1313 C1305 1.427 . S
N1313 C1311 1.384 . S
H1314 C1320 0.930 . S
H1315 C1324 0.930 . S
H1316 C1329 0.929 . S
H1317 C1327 0.929 . S
H1318 C1322 0.929 . S
H1319 C1328 0.929 . S
C1320 H1314 0.930 . S
C1320 C1321 1.367 . S
C1320 C1328 1.378 . S
C1321 C1320 1.367 . S
C1321 C1329 1.433 . S
C1322 H1318 0.929 . S
C1322 C1324 1.378 . S
C1322 C1326 1.350 . S
C1323 C1326 1.463 . S
C1323 C1328 1.350 . S
C1323 N1331 1.427 . S
C1324 H1315 0.930 . S
C1324 C1322 1.378 . S
C1324 C1325 1.367 . S
C1325 C1324 1.367 . S
C1325 C1327 1.433 . S
C1326 C1322 1.350 . S
C1326 C1323 1.463 . S
C1326 N1330 1.427 . S
C1327 H1317 0.929 . S
C1327 C1325 1.433 . S
C1327 N1330 1.384 . S
C1328 H1319 0.929 . S
C1328 C1320 1.378 . S
C1328 C1323 1.350 . S
C1329 H1316 0.929 . S
C1329 C1321 1.433 . S
C1329 N1331 1.384 . S
N1330 C1326 1.427 . S
N1330 C1327 1.384 . S
N1331 C1323 1.427 . S
N1331 C1329 1.384 . S
H1332 C1338 0.930 . S
H1333 C1342 0.930 1_554 S
H1334 C1347 0.929 . S
H1335 C1345 0.929 . S
H1336 C1340 0.929 . S
H1337 C1346 0.929 . S
C1338 H1332 0.930 . S
C1338 C1339 1.367 . S
C1338 C1346 1.378 . S
C1339 C1338 1.367 . S
C1339 C1347 1.433 . S
C1340 H1336 0.929 . S
C1340 C1342 1.378 . S
C1340 C1344 1.350 . S
C1341 C1344 1.463 . S
C1341 C1346 1.350 . S
C1341 N1349 1.427 . S
C1342 H1333 0.930 1_556 S
C1342 C1340 1.378 . S
C1342 C1343 1.367 . S
C1343 C1342 1.367 . S
C1343 C1345 1.433 . S
C1344 C1340 1.350 . S
C1344 C1341 1.463 . S
C1344 N1348 1.427 . S
C1345 H1335 0.929 . S
C1345 C1343 1.433 . S
C1345 N1348 1.384 . S
C1346 H1337 0.929 . S
C1346 C1338 1.378 . S
C1346 C1341 1.350 . S
C1347 H1334 0.929 . S
C1347 C1339 1.433 . S
C1347 N1349 1.384 . S
N1348 C1344 1.427 . S
N1348 C1345 1.384 . S
N1349 C1341 1.427 . S
N1349 C1347 1.384 . S
H1350 C1356 0.930 . S
H1351 C1360 0.930 . S
H1352 C1365 0.929 . S
H1353 C1363 0.929 . S
H1354 C1358 0.929 . S
H1355 C1364 0.929 . S
C1356 H1350 0.930 . S
C1356 C1357 1.367 . S
C1356 C1364 1.378 . S
C1357 C1356 1.367 . S
C1357 C1365 1.433 1_556 S
C1358 H1354 0.929 . S
C1358 C1360 1.378 . S
C1358 C1362 1.350 . S
C1359 C1362 1.463 . S
C1359 C1364 1.350 . S
C1359 N1367 1.427 . S
C1360 H1351 0.930 . S
C1360 C1358 1.378 . S
C1360 C1361 1.367 . S
C1361 C1360 1.367 . S
C1361 C1363 1.433 . S
C1362 C1358 1.350 . S
C1362 C1359 1.463 . S
C1362 N1366 1.427 . S
C1363 H1353 0.929 . S
C1363 C1361 1.433 . S
C1363 N1366 1.384 . S
C1364 H1355 0.929 . S
C1364 C1356 1.378 . S
C1364 C1359 1.350 . S
C1365 H1352 0.929 . S
C1365 C1357 1.433 1_554 S
C1365 N1367 1.384 1_554 S
N1366 C1362 1.427 . S
N1366 C1363 1.384 . S
N1367 C1359 1.427 . S
N1367 C1365 1.384 1_556 S
H1368 C1374 0.930 . S
H1369 C1378 0.930 1_554 S
H1370 C1383 0.929 . S
H1371 C1381 0.929 . S
H1372 C1376 0.929 . S
H1373 C1382 0.929 . S
C1374 H1368 0.930 . S
C1374 C1375 1.367 . S
C1374 C1382 1.378 . S
C1375 C1374 1.367 . S
C1375 C1383 1.433 . S
C1376 H1372 0.929 . S
C1376 C1378 1.378 . S
C1376 C1380 1.350 . S
C1377 C1380 1.463 . S
C1377 C1382 1.350 . S
C1377 N1385 1.427 . S
C1378 H1369 0.930 1_556 S
C1378 C1376 1.378 . S
C1378 C1379 1.367 . S
C1379 C1378 1.367 . S
C1379 C1381 1.433 . S
C1380 C1376 1.350 . S
C1380 C1377 1.463 . S
C1380 N1384 1.427 . S
C1381 H1371 0.929 . S
C1381 C1379 1.433 . S
C1381 N1384 1.384 . S
C1382 H1373 0.929 . S
C1382 C1374 1.378 . S
C1382 C1377 1.350 . S
C1383 H1370 0.929 . S
C1383 C1375 1.433 . S
C1383 N1385 1.384 . S
N1384 C1380 1.427 . S
N1384 C1381 1.384 . S
N1385 C1377 1.427 . S
N1385 C1383 1.384 . S
H1386 C1392 0.930 . S
H1387 C1396 0.930 . S
H1388 C1401 0.929 . S
H1389 C1399 0.929 1_556 S
H1390 C1394 0.929 . S
H1391 C1400 0.929 . S
C1392 H1386 0.930 . S
C1392 C1393 1.367 . S
C1392 C1400 1.378 . S
C1393 C1392 1.367 . S
C1393 C1401 1.433 . S
C1394 H1390 0.929 . S
C1394 C1396 1.378 . S
C1394 C1398 1.350 1_554 S
C1395 C1398 1.463 . S
C1395 C1400 1.350 . S
C1395 N1403 1.427 . S
C1396 H1387 0.930 . S
C1396 C1394 1.378 . S
C1396 C1397 1.367 . S
C1397 C1396 1.367 . S
C1397 C1399 1.433 . S
C1398 C1394 1.350 1_556 S
C1398 C1395 1.463 . S
C1398 N1402 1.427 . S
C1399 H1389 0.929 1_554 S
C1399 C1397 1.433 . S
C1399 N1402 1.384 1_554 S
C1400 H1391 0.929 . S
C1400 C1392 1.378 . S
C1400 C1395 1.350 . S
C1401 H1388 0.929 . S
C1401 C1393 1.433 . S
C1401 N1403 1.384 . S
N1402 C1398 1.427 . S
N1402 C1399 1.384 1_556 S
N1403 C1395 1.427 . S
N1403 C1401 1.384 . S
H1404 C1410 0.930 . S
H1405 C1414 0.930 . S
H1406 C1419 0.929 . S
H1407 C1417 0.929 . S
H1408 C1412 0.929 . S
H1409 C1418 0.929 . S
C1410 H1404 0.930 . S
C1410 C1411 1.367 . S
C1410 C1418 1.378 . S
C1411 C1410 1.367 . S
C1411 C1419 1.433 . S
C1412 H1408 0.929 . S
C1412 C1414 1.378 . S
C1412 C1416 1.350 1_554 S
C1413 C1416 1.463 . S
C1413 C1418 1.350 . S
C1413 N1421 1.427 . S
C1414 H1405 0.930 . S
C1414 C1412 1.378 . S
C1414 C1415 1.367 . S
C1415 C1414 1.367 . S
C1415 C1417 1.433 . S
C1416 C1412 1.350 1_556 S
C1416 C1413 1.463 . S
C1416 N1420 1.427 . S
C1417 H1407 0.929 . S
C1417 C1415 1.433 . S
C1417 N1420 1.384 1_554 S
C1418 H1409 0.929 . S
C1418 C1410 1.378 . S
C1418 C1413 1.350 . S
C1419 H1406 0.929 . S
C1419 C1411 1.433 . S
C1419 N1421 1.384 . S
N1420 C1416 1.427 . S
N1420 C1417 1.384 1_556 S
N1421 C1413 1.427 . S
N1421 C1419 1.384 . S
H1422 C1428 0.930 . S
H1423 C1432 0.930 . S
H1424 C1437 0.929 . S
H1425 C1435 0.929 . S
H1426 C1430 0.929 . S
H1427 C1436 0.929 . S
C1428 H1422 0.930 . S
C1428 C1429 1.367 . S
C1428 C1436 1.378 . S
C1429 C1428 1.367 . S
C1429 C1437 1.433 . S
C1430 H1426 0.929 . S
C1430 C1432 1.378 1_556 S
C1430 C1434 1.350 . S
C1431 C1434 1.463 . S
C1431 C1436 1.350 . S
C1431 N1439 1.427 . S
C1432 H1423 0.930 . S
C1432 C1430 1.378 1_554 S
C1432 C1433 1.367 . S
C1433 C1432 1.367 . S
C1433 C1435 1.433 . S
C1434 C1430 1.350 . S
C1434 C1431 1.463 . S
C1434 N1438 1.427 1_556 S
C1435 H1425 0.929 . S
C1435 C1433 1.433 . S
C1435 N1438 1.384 . S
C1436 H1427 0.929 . S
C1436 C1428 1.378 . S
C1436 C1431 1.350 . S
C1437 H1424 0.929 . S
C1437 C1429 1.433 . S
C1437 N1439 1.384 . S
N1438 C1434 1.427 1_554 S
N1438 C1435 1.384 . S
N1439 C1431 1.427 . S
N1439 C1437 1.384 . S
H1440 C1446 0.930 . S
H1441 C1450 0.930 . S
H1442 C1455 0.929 . S
H1443 C1453 0.929 . S
H1444 C1448 0.929 . S
H1445 C1454 0.929 . S
C1446 H1440 0.930 . S
C1446 C1447 1.367 . S
C1446 C1454 1.378 . S
C1447 C1446 1.367 . S
C1447 C1455 1.433 . S
C1448 H1444 0.929 . S
C1448 C1450 1.378 . S
C1448 C1452 1.350 . S
C1449 C1452 1.463 . S
C1449 C1454 1.350 . S
C1449 N1457 1.427 . S
C1450 H1441 0.930 . S
C1450 C1448 1.378 . S
C1450 C1451 1.367 . S
C1451 C1450 1.367 . S
C1451 C1453 1.433 1_556 S
C1452 C1448 1.350 . S
C1452 C1449 1.463 . S
C1452 N1456 1.427 . S
C1453 H1443 0.929 . S
C1453 C1451 1.433 1_554 S
C1453 N1456 1.384 1_554 S
C1454 H1445 0.929 . S
C1454 C1446 1.378 . S
C1454 C1449 1.350 . S
C1455 H1442 0.929 . S
C1455 C1447 1.433 . S
C1455 N1457 1.384 . S
N1456 C1452 1.427 . S
N1456 C1453 1.384 1_556 S
N1457 C1449 1.427 . S
N1457 C1455 1.384 . S
H1458 C1464 0.930 . S
H1459 C1468 0.930 . S
H1460 C1473 0.929 . S
H1461 C1471 0.929 . S
H1462 C1466 0.929 . S
H1463 C1472 0.929 . S
C1464 H1458 0.930 . S
C1464 C1465 1.367 . S
C1464 C1472 1.378 . S
C1465 C1464 1.367 . S
C1465 C1473 1.433 1_556 S
C1466 H1462 0.929 . S
C1466 C1468 1.378 . S
C1466 C1470 1.350 . S
C1467 C1470 1.463 . S
C1467 C1472 1.350 . S
C1467 N1475 1.427 . S
C1468 H1459 0.930 . S
C1468 C1466 1.378 . S
C1468 C1469 1.367 . S
C1469 C1468 1.367 . S
C1469 C1471 1.433 . S
C1470 C1466 1.350 . S
C1470 C1467 1.463 . S
C1470 N1474 1.427 . S
C1471 H1461 0.929 . S
C1471 C1469 1.433 . S
C1471 N1474 1.384 . S
C1472 H1463 0.929 . S
C1472 C1464 1.378 . S
C1472 C1467 1.350 . S
C1473 H1460 0.929 . S
C1473 C1465 1.433 1_554 S
C1473 N1475 1.384 1_554 S
N1474 C1470 1.427 . S
N1474 C1471 1.384 . S
N1475 C1467 1.427 . S
N1475 C1473 1.384 1_556 S
H1476 C1482 0.930 . S
H1477 C1486 0.930 . S
H1478 C1491 0.929 . S
H1479 C1489 0.929 . S
H1480 C1484 0.929 1_554 S
H1481 C1490 0.929 . S
C1482 H1476 0.930 . S
C1482 C1483 1.367 . S
C1482 C1490 1.378 . S
C1483 C1482 1.367 . S
C1483 C1491 1.433 . S
C1484 H1480 0.929 1_556 S
C1484 C1486 1.378 1_556 S
C1484 C1488 1.350 . S
C1485 C1488 1.463 . S
C1485 C1490 1.350 . S
C1485 N1493 1.427 . S
C1486 H1477 0.930 . S
C1486 C1484 1.378 1_554 S
C1486 C1487 1.367 1_554 S
C1487 C1486 1.367 1_556 S
C1487 C1489 1.433 . S
C1488 C1484 1.350 . S
C1488 C1485 1.463 . S
C1488 N1492 1.427 . S
C1489 H1479 0.929 . S
C1489 C1487 1.433 . S
C1489 N1492 1.384 . S
C1490 H1481 0.929 . S
C1490 C1482 1.378 . S
C1490 C1485 1.350 . S
C1491 H1478 0.929 . S
C1491 C1483 1.433 . S
C1491 N1493 1.384 . S
N1492 C1488 1.427 . S
N1492 C1489 1.384 . S
N1493 C1485 1.427 . S
N1493 C1491 1.384 . S
H1494 C1500 0.930 . S
H1495 C1504 0.930 . S
H1496 C1509 0.929 . S
H1497 C1507 0.929 . S
H1498 C1502 0.929 . S
H1499 C1508 0.929 . S
C1500 H1494 0.930 . S
C1500 C1501 1.367 . S
C1500 C1508 1.378 . S
C1501 C1500 1.367 . S
C1501 C1509 1.433 . S
C1502 H1498 0.929 . S
C1502 C1504 1.378 . S
C1502 C1506 1.350 . S
C1503 C1506 1.463 . S
C1503 C1508 1.350 . S
C1503 N1511 1.427 . S
C1504 H1495 0.930 . S
C1504 C1502 1.378 . S
C1504 C1505 1.367 . S
C1505 C1504 1.367 . S
C1505 C1507 1.433 . S
C1506 C1502 1.350 . S
C1506 C1503 1.463 . S
C1506 N1510 1.427 . S
C1507 H1497 0.929 . S
C1507 C1505 1.433 . S
C1507 N1510 1.384 . S
C1508 H1499 0.929 . S
C1508 C1500 1.378 . S
C1508 C1503 1.350 . S
C1509 H1496 0.929 . S
C1509 C1501 1.433 . S
C1509 N1511 1.384 . S
N1510 C1506 1.427 . S
N1510 C1507 1.384 . S
N1511 C1503 1.427 . S
N1511 C1509 1.384 . S
H1512 C1518 0.930 . S
H1513 C1522 0.930 . S
H1514 C1527 0.929 . S
H1515 C1525 0.929 . S
H1516 C1520 0.929 . S
H1517 C1526 0.929 . S
C1518 H1512 0.930 . S
C1518 C1519 1.367 . S
C1518 C1526 1.378 . S
C1519 C1518 1.367 . S
C1519 C1527 1.433 . S
C1520 H1516 0.929 . S
C1520 C1522 1.378 . S
C1520 C1524 1.350 . S
C1521 C1524 1.463 . S
C1521 C1526 1.350 . S
C1521 N1529 1.427 . S
C1522 H1513 0.930 . S
C1522 C1520 1.378 . S
C1522 C1523 1.367 . S
C1523 C1522 1.367 . S
C1523 C1525 1.433 . S
C1524 C1520 1.350 . S
C1524 C1521 1.463 . S
C1524 N1528 1.427 . S
C1525 H1515 0.929 . S
C1525 C1523 1.433 . S
C1525 N1528 1.384 . S
C1526 H1517 0.929 . S
C1526 C1518 1.378 . S
C1526 C1521 1.350 . S
C1527 H1514 0.929 . S
C1527 C1519 1.433 . S
C1527 N1529 1.384 . S
N1528 C1524 1.427 . S
N1528 C1525 1.384 . S
N1529 C1521 1.427 . S
N1529 C1527 1.384 . S
H1530 C1536 0.930 . S
H1531 C1540 0.930 . S
H1532 C1545 0.929 . S
H1533 C1543 0.929 . S
H1534 C1538 0.929 . S
H1535 C1544 0.929 . S
C1536 H1530 0.930 . S
C1536 C1537 1.367 . S
C1536 C1544 1.378 . S
C1537 C1536 1.367 . S
C1537 C1545 1.433 . S
C1538 H1534 0.929 . S
C1538 C1540 1.378 . S
C1538 C1542 1.350 . S
C1539 C1542 1.463 . S
C1539 C1544 1.350 . S
C1539 N1547 1.427 . S
C1540 H1531 0.930 . S
C1540 C1538 1.378 . S
C1540 C1541 1.367 . S
C1541 C1540 1.367 . S
C1541 C1543 1.433 . S
C1542 C1538 1.350 . S
C1542 C1539 1.463 . S
C1542 N1546 1.427 . S
C1543 H1533 0.929 . S
C1543 C1541 1.433 . S
C1543 N1546 1.384 . S
C1544 H1535 0.929 . S
C1544 C1536 1.378 . S
C1544 C1539 1.350 . S
C1545 H1532 0.929 . S
C1545 C1537 1.433 . S
C1545 N1547 1.384 . S
N1546 C1542 1.427 . S
N1546 C1543 1.384 . S
N1547 C1539 1.427 . S
N1547 C1545 1.384 . S
H1548 C1554 0.930 . S
H1549 C1558 0.930 . S
H1550 C1563 0.929 . S
H1551 C1561 0.929 . S
H1552 C1556 0.929 . S
H1553 C1562 0.929 . S
C1554 H1548 0.930 . S
C1554 C1555 1.367 . S
C1554 C1562 1.378 . S
C1555 C1554 1.367 . S
C1555 C1563 1.433 1_554 S
C1556 H1552 0.929 . S
C1556 C1558 1.378 . S
C1556 C1560 1.350 . S
C1557 C1560 1.463 . S
C1557 C1562 1.350 . S
C1557 N1565 1.427 . S
C1558 H1549 0.930 . S
C1558 C1556 1.378 . S
C1558 C1559 1.367 . S
C1559 C1558 1.367 . S
C1559 C1561 1.433 . S
C1560 C1556 1.350 . S
C1560 C1557 1.463 . S
C1560 N1564 1.427 . S
C1561 H1551 0.929 . S
C1561 C1559 1.433 . S
C1561 N1564 1.384 . S
C1562 H1553 0.929 . S
C1562 C1554 1.378 . S
C1562 C1557 1.350 . S
C1563 H1550 0.929 . S
C1563 C1555 1.433 1_556 S
C1563 N1565 1.384 1_556 S
N1564 C1560 1.427 . S
N1564 C1561 1.384 . S
N1565 C1557 1.427 . S
N1565 C1563 1.384 1_554 S
H1566 C1572 0.930 . S
H1567 C1576 0.930 . S
H1568 C1581 0.929 . S
H1569 C1579 0.929 . S
H1570 C1574 0.929 . S
H1571 C1580 0.929 . S
C1572 H1566 0.930 . S
C1572 C1573 1.367 . S
C1572 C1580 1.378 . S
C1573 C1572 1.367 . S
C1573 C1581 1.433 . S
C1574 H1570 0.929 . S
C1574 C1576 1.378 . S
C1574 C1578 1.350 . S
C1575 C1578 1.463 . S
C1575 C1580 1.350 . S
C1575 N1583 1.427 . S
C1576 H1567 0.930 . S
C1576 C1574 1.378 . S
C1576 C1577 1.367 . S
C1577 C1576 1.367 . S
C1577 C1579 1.433 1_554 S
C1578 C1574 1.350 . S
C1578 C1575 1.463 . S
C1578 N1582 1.427 . S
C1579 H1569 0.929 . S
C1579 C1577 1.433 1_556 S
C1579 N1582 1.384 1_556 S
C1580 H1571 0.929 . S
C1580 C1572 1.378 . S
C1580 C1575 1.350 . S
C1581 H1568 0.929 . S
C1581 C1573 1.433 . S
C1581 N1583 1.384 . S
N1582 C1578 1.427 . S
N1582 C1579 1.384 1_554 S
N1583 C1575 1.427 . S
N1583 C1581 1.384 . S
H1584 C1590 0.930 . S
H1585 C1594 0.930 . S
H1586 C1599 0.929 . S
H1587 C1597 0.929 . S
H1588 C1592 0.929 1_556 S
H1589 C1598 0.929 . S
C1590 H1584 0.930 . S
C1590 C1591 1.367 . S
C1590 C1598 1.378 . S
C1591 C1590 1.367 . S
C1591 C1599 1.433 . S
C1592 H1588 0.929 1_554 S
C1592 C1594 1.378 1_554 S
C1592 C1596 1.350 . S
C1593 C1596 1.463 . S
C1593 C1598 1.350 . S
C1593 N1601 1.427 . S
C1594 H1585 0.930 . S
C1594 C1592 1.378 1_556 S
C1594 C1595 1.367 1_556 S
C1595 C1594 1.367 1_554 S
C1595 C1597 1.433 . S
C1596 C1592 1.350 . S
C1596 C1593 1.463 . S
C1596 N1600 1.427 . S
C1597 H1587 0.929 . S
C1597 C1595 1.433 . S
C1597 N1600 1.384 . S
C1598 H1589 0.929 . S
C1598 C1590 1.378 . S
C1598 C1593 1.350 . S
C1599 H1586 0.929 . S
C1599 C1591 1.433 . S
C1599 N1601 1.384 . S
N1600 C1596 1.427 . S
N1600 C1597 1.384 . S
N1601 C1593 1.427 . S
N1601 C1599 1.384 . S
H1602 C1608 0.930 . S
H1603 C1612 0.930 . S
H1604 C1617 0.929 . S
H1605 C1615 0.929 . S
H1606 C1610 0.929 . S
H1607 C1616 0.929 . S
C1608 H1602 0.930 . S
C1608 C1609 1.367 . S
C1608 C1616 1.378 . S
C1609 C1608 1.367 . S
C1609 C1617 1.433 . S
C1610 H1606 0.929 . S
C1610 C1612 1.378 . S
C1610 C1614 1.350 . S
C1611 C1614 1.463 . S
C1611 C1616 1.350 . S
C1611 N1619 1.427 . S
C1612 H1603 0.930 . S
C1612 C1610 1.378 . S
C1612 C1613 1.367 . S
C1613 C1612 1.367 . S
C1613 C1615 1.433 . S
C1614 C1610 1.350 . S
C1614 C1611 1.463 . S
C1614 N1618 1.427 . S
C1615 H1605 0.929 . S
C1615 C1613 1.433 . S
C1615 N1618 1.384 . S
C1616 H1607 0.929 . S
C1616 C1608 1.378 . S
C1616 C1611 1.350 . S
C1617 H1604 0.929 . S
C1617 C1609 1.433 . S
C1617 N1619 1.384 . S
N1618 C1614 1.427 . S
N1618 C1615 1.384 . S
N1619 C1611 1.427 . S
N1619 C1617 1.384 . S
H1620 C1626 0.930 . S
H1621 C1630 0.930 . S
H1622 C1635 0.929 . S
H1623 C1633 0.929 . S
H1624 C1628 0.929 . S
H1625 C1634 0.929 . S
C1626 H1620 0.930 . S
C1626 C1627 1.367 . S
C1626 C1634 1.378 . S
C1627 C1626 1.367 . S
C1627 C1635 1.433 . S
C1628 H1624 0.929 . S
C1628 C1630 1.378 . S
C1628 C1632 1.350 . S
C1629 C1632 1.463 . S
C1629 C1634 1.350 . S
C1629 N1637 1.427 . S
C1630 H1621 0.930 . S
C1630 C1628 1.378 . S
C1630 C1631 1.367 . S
C1631 C1630 1.367 . S
C1631 C1633 1.433 . S
C1632 C1628 1.350 . S
C1632 C1629 1.463 . S
C1632 N1636 1.427 . S
C1633 H1623 0.929 . S
C1633 C1631 1.433 . S
C1633 N1636 1.384 . S
C1634 H1625 0.929 . S
C1634 C1626 1.378 . S
C1634 C1629 1.350 . S
C1635 H1622 0.929 . S
C1635 C1627 1.433 . S
C1635 N1637 1.384 . S
N1636 C1632 1.427 . S
N1636 C1633 1.384 . S
N1637 C1629 1.427 . S
N1637 C1635 1.384 . S
H1638 C1644 0.930 . S
H1639 C1648 0.930 . S
H1640 C1653 0.929 . S
H1641 C1651 0.929 . S
H1642 C1646 0.929 . S
H1643 C1652 0.929 . S
C1644 H1638 0.930 . S
C1644 C1645 1.367 . S
C1644 C1652 1.378 . S
C1645 C1644 1.367 . S
C1645 C1653 1.433 . S
C1646 H1642 0.929 . S
C1646 C1648 1.378 . S
C1646 C1650 1.350 . S
C1647 C1650 1.463 . S
C1647 C1652 1.350 . S
C1647 N1655 1.427 . S
C1648 H1639 0.930 . S
C1648 C1646 1.378 . S
C1648 C1649 1.367 . S
C1649 C1648 1.367 . S
C1649 C1651 1.433 . S
C1650 C1646 1.350 . S
C1650 C1647 1.463 . S
C1650 N1654 1.427 . S
C1651 H1641 0.929 . S
C1651 C1649 1.433 . S
C1651 N1654 1.384 . S
C1652 H1643 0.929 . S
C1652 C1644 1.378 . S
C1652 C1647 1.350 . S
C1653 H1640 0.929 . S
C1653 C1645 1.433 . S
C1653 N1655 1.384 . S
N1654 C1650 1.427 . S
N1654 C1651 1.384 . S
N1655 C1647 1.427 . S
N1655 C1653 1.384 . S
H1656 C1662 0.930 . S
H1657 C1666 0.930 . S
H1658 C1671 0.929 . S
H1659 C1669 0.929 . S
H1660 C1664 0.929 . S
H1661 C1670 0.929 . S
C1662 H1656 0.930 . S
C1662 C1663 1.367 . S
C1662 C1670 1.378 . S
C1663 C1662 1.367 . S
C1663 C1671 1.433 . S
C1664 H1660 0.929 . S
C1664 C1666 1.378 . S
C1664 C1668 1.350 . S
C1665 C1668 1.463 1_655 S
C1665 C1670 1.350 . S
C1665 N1673 1.427 . S
C1666 H1657 0.930 . S
C1666 C1664 1.378 . S
C1666 C1667 1.367 . S
C1667 C1666 1.367 . S
C1667 C1669 1.433 . S
C1668 C1664 1.350 . S
C1668 C1665 1.463 1_455 S
C1668 N1672 1.427 . S
C1669 H1659 0.929 . S
C1669 C1667 1.433 . S
C1669 N1672 1.384 . S
C1670 H1661 0.929 . S
C1670 C1662 1.378 . S
C1670 C1665 1.350 . S
C1671 H1658 0.929 . S
C1671 C1663 1.433 . S
C1671 N1673 1.384 . S
N1672 C1668 1.427 . S
N1672 C1669 1.384 . S
N1673 C1665 1.427 . S
N1673 C1671 1.384 . S
H1674 C1680 0.930 . S
H1675 C1684 0.930 . S
H1676 C1689 0.929 . S
H1677 C1687 0.929 . S
H1678 C1682 0.929 . S
H1679 C1688 0.929 . S
C1680 H1674 0.930 . S
C1680 C1681 1.367 . S
C1680 C1688 1.378 . S
C1681 C1680 1.367 . S
C1681 C1689 1.433 . S
C1682 H1678 0.929 . S
C1682 C1684 1.378 . S
C1682 C1686 1.350 . S
C1683 C1686 1.463 . S
C1683 C1688 1.350 . S
C1683 N1691 1.427 . S
C1684 H1675 0.930 . S
C1684 C1682 1.378 . S
C1684 C1685 1.367 . S
C1685 C1684 1.367 . S
C1685 C1687 1.433 . S
C1686 C1682 1.350 . S
C1686 C1683 1.463 . S
C1686 N1690 1.427 . S
C1687 H1677 0.929 . S
C1687 C1685 1.433 . S
C1687 N1690 1.384 . S
C1688 H1679 0.929 . S
C1688 C1680 1.378 . S
C1688 C1683 1.350 . S
C1689 H1676 0.929 . S
C1689 C1681 1.433 . S
C1689 N1691 1.384 . S
N1690 C1686 1.427 . S
N1690 C1687 1.384 . S
N1691 C1683 1.427 . S
N1691 C1689 1.384 . S
H1692 C1698 0.930 . S
H1693 C1702 0.930 . S
H1694 C1707 0.929 . S
H1695 C1705 0.929 . S
H1696 C1700 0.929 . S
H1697 C1706 0.929 . S
C1698 H1692 0.930 . S
C1698 C1699 1.367 . S
C1698 C1706 1.378 . S
C1699 C1698 1.367 . S
C1699 C1707 1.433 . S
C1700 H1696 0.929 . S
C1700 C1702 1.378 . S
C1700 C1704 1.350 . S
C1701 C1704 1.463 1_565 S
C1701 C1706 1.350 . S
C1701 N1709 1.427 . S
C1702 H1693 0.930 . S
C1702 C1700 1.378 . S
C1702 C1703 1.367 . S
C1703 C1702 1.367 . S
C1703 C1705 1.433 . S
C1704 C1700 1.350 . S
C1704 C1701 1.463 1_545 S
C1704 N1708 1.427 . S
C1705 H1695 0.929 . S
C1705 C1703 1.433 . S
C1705 N1708 1.384 . S
C1706 H1697 0.929 . S
C1706 C1698 1.378 . S
C1706 C1701 1.350 . S
C1707 H1694 0.929 . S
C1707 C1699 1.433 . S
C1707 N1709 1.384 . S
N1708 C1704 1.427 . S
N1708 C1705 1.384 . S
N1709 C1701 1.427 . S
N1709 C1707 1.384 . S
H1710 C1716 0.930 . S
H1711 C1720 0.930 . S
H1712 C1725 0.929 . S
H1713 C1723 0.929 . S
H1714 C1718 0.929 . S
H1715 C1724 0.929 . S
C1716 H1710 0.930 . S
C1716 C1717 1.367 . S
C1716 C1724 1.378 . S
C1717 C1716 1.367 . S
C1717 C1725 1.433 . S
C1718 H1714 0.929 . S
C1718 C1720 1.378 . S
C1718 C1722 1.350 . S
C1719 C1722 1.463 1_545 S
C1719 C1724 1.350 . S
C1719 N1727 1.427 . S
C1720 H1711 0.930 . S
C1720 C1718 1.378 . S
C1720 C1721 1.367 . S
C1721 C1720 1.367 . S
C1721 C1723 1.433 . S
C1722 C1718 1.350 . S
C1722 C1719 1.463 1_565 S
C1722 N1726 1.427 . S
C1723 H1713 0.929 . S
C1723 C1721 1.433 . S
C1723 N1726 1.384 . S
C1724 H1715 0.929 . S
C1724 C1716 1.378 . S
C1724 C1719 1.350 . S
C1725 H1712 0.929 . S
C1725 C1717 1.433 . S
C1725 N1727 1.384 . S
N1726 C1722 1.427 . S
N1726 C1723 1.384 . S
N1727 C1719 1.427 . S
N1727 C1725 1.384 . S
H1728 C1734 0.930 . S
H1729 C1738 0.930 . S
H1730 C1743 0.929 . S
H1731 C1741 0.929 . S
H1732 C1736 0.929 . S
H1733 C1742 0.929 . S
C1734 H1728 0.930 . S
C1734 C1735 1.367 . S
C1734 C1742 1.378 . S
C1735 C1734 1.367 . S
C1735 C1743 1.433 . S
C1736 H1732 0.929 . S
C1736 C1738 1.378 . S
C1736 C1740 1.350 . S
C1737 C1740 1.463 1_455 S
C1737 C1742 1.350 . S
C1737 N1745 1.427 . S
C1738 H1729 0.930 . S
C1738 C1736 1.378 . S
C1738 C1739 1.367 . S
C1739 C1738 1.367 . S
C1739 C1741 1.433 . S
C1740 C1736 1.350 . S
C1740 C1737 1.463 1_655 S
C1740 N1744 1.427 . S
C1741 H1731 0.929 . S
C1741 C1739 1.433 . S
C1741 N1744 1.384 . S
C1742 H1733 0.929 . S
C1742 C1734 1.378 . S
C1742 C1737 1.350 . S
C1743 H1730 0.929 . S
C1743 C1735 1.433 . S
C1743 N1745 1.384 . S
N1744 C1740 1.427 . S
N1744 C1741 1.384 . S
N1745 C1737 1.427 . S
N1745 C1743 1.384 . S
H1746 C1752 0.930 . S
H1747 C1756 0.930 . S
H1748 C1761 0.929 . S
H1749 C1759 0.929 . S
H1750 C1754 0.929 . S
H1751 C1760 0.929 . S
C1752 H1746 0.930 . S
C1752 C1753 1.367 . S
C1752 C1760 1.378 . S
C1753 C1752 1.367 . S
C1753 C1761 1.433 . S
C1754 H1750 0.929 . S
C1754 C1756 1.378 . S
C1754 C1758 1.350 . S
C1755 C1758 1.463 . S
C1755 C1760 1.350 . S
C1755 N1763 1.427 . S
C1756 H1747 0.930 . S
C1756 C1754 1.378 . S
C1756 C1757 1.367 . S
C1757 C1756 1.367 . S
C1757 C1759 1.433 . S
C1758 C1754 1.350 . S
C1758 C1755 1.463 . S
C1758 N1762 1.427 . S
C1759 H1749 0.929 . S
C1759 C1757 1.433 . S
C1759 N1762 1.384 . S
C1760 H1751 0.929 . S
C1760 C1752 1.378 . S
C1760 C1755 1.350 . S
C1761 H1748 0.929 . S
C1761 C1753 1.433 . S
C1761 N1763 1.384 . S
N1762 C1758 1.427 . S
N1762 C1759 1.384 . S
N1763 C1755 1.427 . S
N1763 C1761 1.384 . S
C475 C65 1.334 . S
C479 C0 1.325 . S
C493 C13 1.343 . S
C497 C39 1.334 . S
C511 C52 1.330 . S
C515 C26 1.341 . S
C529 C78 1.325 . S
C533 C143 1.336 . S
C547 C91 1.332 . S
C551 C117 1.342 . S
C565 C130 1.331 . S
C569 C104 1.325 . S
C583 C221 1.331 . S
C587 C156 1.325 . S
C601 C169 1.333 . S
C605 C195 1.326 . S
C619 C208 1.336 . S
C623 C182 1.325 . S
C637 C234 1.342 . S
C641 C299 1.333 . S
C655 C247 1.326 . S
C659 C273 1.329 . S
C673 C260 1.340 . S
C677 C286 1.328 . S
C691 C312 1.325 . S
C695 C377 1.333 . S
C709 C351 1.331 . S
C713 C325 1.326 . S
C727 C338 1.327 . S
C731 C364 1.332 . S
C745 C390 1.334 . S
C749 C455 1.342 . S
C763 C403 1.335 . S
C767 C429 1.326 . S
C781 C416 1.326 . S
C785 C442 1.338 . S
C799 C138 1.023 . S
C803 C5 0.981 . S
C817 C151 1.019 . S
C821 C18 0.976 . S
C835 C125 1.022 . S
C839 C31 0.980 . S
C853 C112 1.032 . S
C857 C44 0.968 . S
C871 C57 0.963 . S
C875 C86 1.029 . S
C889 C70 0.952 . S
C893 C99 1.014 . S
C907 C83 0.963 . S
C911 C60 1.013 . S
C925 C96 0.952 . S
C929 C73 1.020 . S
C943 C109 0.982 . S
C947 C47 1.024 . S
C961 C34 1.026 . S
C965 C122 0.984 . S
C979 C8 1.011 . S
C983 C135 0.952 . S
C997 C148 0.982 . S
C1001 C21 1.035 . S
C1015 C161 0.951 . S
C1019 C294 1.017 1_554 S
C1033 C174 0.984 . S
C1037 C307 1.034 1_554 S
C1051 C281 1.033 1_554 S
C1055 C187 0.985 . S
C1069 C200 0.984 . S
C1073 C268 1.026 . S
C1087 C213 0.985 . S
C1091 C242 1.029 . S
C1105 C226 0.986 . S
C1109 C255 1.031 . S
C1123 C239 0.969 . S
C1127 C216 1.015 . S
C1141 C229 1.011 . S
C1145 C252 0.960 . S
C1159 C203 1.020 . S
C1163 C265 0.952 . S
C1177 C278 0.951 . S
C1181 C190 1.013 . S
C1195 C164 1.031 . S
C1199 C291 0.966 . S
C1213 C177 1.034 . S
C1217 C304 0.985 . S
C1231 C450 1.013 . S
C1235 C317 0.964 . S
C1249 C330 0.959 . S
C1253 C463 1.027 . S
C1267 C343 0.954 . S
C1271 C437 1.023 . S
C1285 C424 1.011 . S
C1289 C356 0.957 . S
C1303 C398 1.014 . S
C1307 C369 0.949 . S
C1321 C411 1.012 . S
C1325 C382 0.962 . S
C1339 C395 0.951 . S
C1343 C372 1.013 1_556 S
C1357 C385 1.033 1_556 S
C1361 C408 0.969 . S
C1375 C421 0.950 . S
C1379 C359 1.017 1_556 S
C1393 C346 1.014 . S
C1397 C434 0.952 . S
C1411 C320 1.015 . S
C1415 C447 0.972 . S
C1429 C333 1.031 . S
C1433 C460 0.986 . S
C1447 C218 1.407 . S
C1451 C10 1.417 1_556 S
C1465 C23 1.407 1_556 S
C1469 C231 1.417 . S
C1483 C205 1.415 . S
C1487 C36 1.408 1_556 S
C1501 C348 1.409 . S
C1505 C49 1.416 . S
C1519 C62 1.406 . S
C1523 C322 1.417 . S
C1537 C75 1.416 . S
C1541 C335 1.408 . S
C1555 C88 1.414 1_554 S
C1559 C452 1.410 . S
C1573 C465 1.415 . S
C1577 C101 1.409 1_554 S
C1591 C439 1.408 . S
C1595 C114 1.415 1_554 S
C1609 C270 1.415 . S
C1613 C127 1.410 . S
C1627 C140 1.415 . S
C1631 C244 1.409 . S
C1645 C153 1.417 . S
C1649 C257 1.406 . S
C1663 C166 1.406 . S
C1667 C374 1.416 . S
C1681 C387 1.409 . S
C1685 C179 1.414 . S
C1699 C361 1.409 . S
C1703 C192 1.415 . S
C1717 C283 1.415 . S
C1721 C426 1.409 . S
C1735 C400 1.417 . S
C1739 C296 1.406 . S
C1753 C413 1.407 . S
C1757 C309 1.417 . S
