# Generated by pormake.
# Topology wip, (6)-cn, num edge types: 1
# Building blocks:
#     Node 0, Type 0, BuildingBlock: BETGAK_clean_sbu_0, # of connection points: 6
#     Node 1, Type 0, BuildingBlock: BETGAK_clean_sbu_0, # of connection points: 6
#     Node 2, Type 0, BuildingBlock: BETGAK_clean_sbu_0, # of connection points: 6
#     Node 3, Type 0, BuildingBlock: BETGAK_clean_sbu_0, # of connection points: 6
#     Node 4, Type 0, BuildingBlock: BETGAK_clean_sbu_0, # of connection points: 6
#     Node 5, Type 0, BuildingBlock: BETGAK_clean_sbu_0, # of connection points: 6
#     Node 6, Type 0, BuildingBlock: BETGAK_clean_sbu_0, # of connection points: 6
#     Node 7, Type 0, BuildingBlock: BETGAK_clean_sbu_0, # of connection points: 6
#     Node 8, Type 0, BuildingBlock: BETGAK_clean_sbu_0, # of connection points: 6
#     Node 9, Type 0, BuildingBlock: BETGAK_clean_sbu_0, # of connection points: 6
#     Node 10, Type 0, BuildingBlock: BETGAK_clean_sbu_0, # of connection points: 6
#     Node 11, Type 0, BuildingBlock: BETGAK_clean_sbu_0, # of connection points: 6
#     Node 12, Type 0, BuildingBlock: BETGAK_clean_sbu_0, # of connection points: 6
#     Node 13, Type 0, BuildingBlock: BETGAK_clean_sbu_0, # of connection points: 6
#     Node 14, Type 0, BuildingBlock: BETGAK_clean_sbu_0, # of connection points: 6
#     Node 15, Type 0, BuildingBlock: BETGAK_clean_sbu_0, # of connection points: 6
#     Node 16, Type 0, BuildingBlock: BETGAK_clean_sbu_0, # of connection points: 6
#     Node 17, Type 0, BuildingBlock: BETGAK_clean_sbu_0, # of connection points: 6
#     Node 18, Type 0, BuildingBlock: BETGAK_clean_sbu_0, # of connection points: 6
#     Node 19, Type 0, BuildingBlock: BETGAK_clean_sbu_0, # of connection points: 6
#     Node 20, Type 0, BuildingBlock: BETGAK_clean_sbu_0, # of connection points: 6
#     Node 21, Type 0, BuildingBlock: BETGAK_clean_sbu_0, # of connection points: 6
#     Node 22, Type 0, BuildingBlock: BETGAK_clean_sbu_0, # of connection points: 6
#     Node 23, Type 0, BuildingBlock: BETGAK_clean_sbu_0, # of connection points: 6
#     Node 24, Type 0, BuildingBlock: BETGAK_clean_sbu_0, # of connection points: 6
#     Node 25, Type 0, BuildingBlock: BETGAK_clean_sbu_0, # of connection points: 6
#     Node 26, Type 0, BuildingBlock: BETGAK_clean_sbu_0, # of connection points: 6
#     Node 27, Type 0, BuildingBlock: BETGAK_clean_sbu_0, # of connection points: 6
#     Node 28, Type 0, BuildingBlock: BETGAK_clean_sbu_0, # of connection points: 6
#     Node 29, Type 0, BuildingBlock: BETGAK_clean_sbu_0, # of connection points: 6
#     Node 30, Type 0, BuildingBlock: BETGAK_clean_sbu_0, # of connection points: 6
#     Node 31, Type 0, BuildingBlock: BETGAK_clean_sbu_0, # of connection points: 6
#     Edge 32, Type (0, 0), BuildingBlock: AJUNOK_clean_linker_0, # of connection points: 2
#     Edge 33, Type (0, 0), BuildingBlock: AJUNOK_clean_linker_0, # of connection points: 2
#     Edge 34, Type (0, 0), BuildingBlock: AJUNOK_clean_linker_0, # of connection points: 2
#     Edge 35, Type (0, 0), BuildingBlock: AJUNOK_clean_linker_0, # of connection points: 2
#     Edge 36, Type (0, 0), BuildingBlock: AJUNOK_clean_linker_0, # of connection points: 2
#     Edge 37, Type (0, 0), BuildingBlock: AJUNOK_clean_linker_0, # of connection points: 2
#     Edge 38, Type (0, 0), BuildingBlock: AJUNOK_clean_linker_0, # of connection points: 2
#     Edge 39, Type (0, 0), BuildingBlock: AJUNOK_clean_linker_0, # of connection points: 2
#     Edge 40, Type (0, 0), BuildingBlock: AJUNOK_clean_linker_0, # of connection points: 2
#     Edge 41, Type (0, 0), BuildingBlock: AJUNOK_clean_linker_0, # of connection points: 2
#     Edge 42, Type (0, 0), BuildingBlock: AJUNOK_clean_linker_0, # of connection points: 2
#     Edge 43, Type (0, 0), BuildingBlock: AJUNOK_clean_linker_0, # of connection points: 2
#     Edge 44, Type (0, 0), BuildingBlock: AJUNOK_clean_linker_0, # of connection points: 2
#     Edge 45, Type (0, 0), BuildingBlock: AJUNOK_clean_linker_0, # of connection points: 2
#     Edge 46, Type (0, 0), BuildingBlock: AJUNOK_clean_linker_0, # of connection points: 2
#     Edge 47, Type (0, 0), BuildingBlock: AJUNOK_clean_linker_0, # of connection points: 2
#     Edge 48, Type (0, 0), BuildingBlock: AJUNOK_clean_linker_0, # of connection points: 2
#     Edge 49, Type (0, 0), BuildingBlock: AJUNOK_clean_linker_0, # of connection points: 2
#     Edge 50, Type (0, 0), BuildingBlock: AJUNOK_clean_linker_0, # of connection points: 2
#     Edge 51, Type (0, 0), BuildingBlock: AJUNOK_clean_linker_0, # of connection points: 2
#     Edge 52, Type (0, 0), BuildingBlock: AJUNOK_clean_linker_0, # of connection points: 2
#     Edge 53, Type (0, 0), BuildingBlock: AJUNOK_clean_linker_0, # of connection points: 2
#     Edge 54, Type (0, 0), BuildingBlock: AJUNOK_clean_linker_0, # of connection points: 2
#     Edge 55, Type (0, 0), BuildingBlock: AJUNOK_clean_linker_0, # of connection points: 2
#     Edge 56, Type (0, 0), BuildingBlock: AJUNOK_clean_linker_0, # of connection points: 2
#     Edge 57, Type (0, 0), BuildingBlock: AJUNOK_clean_linker_0, # of connection points: 2
#     Edge 58, Type (0, 0), BuildingBlock: AJUNOK_clean_linker_0, # of connection points: 2
#     Edge 59, Type (0, 0), BuildingBlock: AJUNOK_clean_linker_0, # of connection points: 2
#     Edge 60, Type (0, 0), BuildingBlock: AJUNOK_clean_linker_0, # of connection points: 2
#     Edge 61, Type (0, 0), BuildingBlock: AJUNOK_clean_linker_0, # of connection points: 2
#     Edge 62, Type (0, 0), BuildingBlock: AJUNOK_clean_linker_0, # of connection points: 2
#     Edge 63, Type (0, 0), BuildingBlock: AJUNOK_clean_linker_0, # of connection points: 2
#     Edge 64, Type (0, 0), BuildingBlock: AJUNOK_clean_linker_0, # of connection points: 2
#     Edge 65, Type (0, 0), BuildingBlock: AJUNOK_clean_linker_0, # of connection points: 2
#     Edge 66, Type (0, 0), BuildingBlock: AJUNOK_clean_linker_0, # of connection points: 2
#     Edge 67, Type (0, 0), BuildingBlock: AJUNOK_clean_linker_0, # of connection points: 2
#     Edge 68, Type (0, 0), BuildingBlock: AJUNOK_clean_linker_0, # of connection points: 2
#     Edge 69, Type (0, 0), BuildingBlock: AJUNOK_clean_linker_0, # of connection points: 2
#     Edge 70, Type (0, 0), BuildingBlock: AJUNOK_clean_linker_0, # of connection points: 2
#     Edge 71, Type (0, 0), BuildingBlock: AJUNOK_clean_linker_0, # of connection points: 2
#     Edge 72, Type (0, 0), BuildingBlock: AJUNOK_clean_linker_0, # of connection points: 2
#     Edge 73, Type (0, 0), BuildingBlock: AJUNOK_clean_linker_0, # of connection points: 2
#     Edge 74, Type (0, 0), BuildingBlock: AJUNOK_clean_linker_0, # of connection points: 2
#     Edge 75, Type (0, 0), BuildingBlock: AJUNOK_clean_linker_0, # of connection points: 2
#     Edge 76, Type (0, 0), BuildingBlock: AJUNOK_clean_linker_0, # of connection points: 2
#     Edge 77, Type (0, 0), BuildingBlock: AJUNOK_clean_linker_0, # of connection points: 2
#     Edge 78, Type (0, 0), BuildingBlock: AJUNOK_clean_linker_0, # of connection points: 2
#     Edge 79, Type (0, 0), BuildingBlock: AJUNOK_clean_linker_0, # of connection points: 2
#     Edge 80, Type (0, 0), BuildingBlock: AJUNOK_clean_linker_0, # of connection points: 2
#     Edge 81, Type (0, 0), BuildingBlock: AJUNOK_clean_linker_0, # of connection points: 2
#     Edge 82, Type (0, 0), BuildingBlock: AJUNOK_clean_linker_0, # of connection points: 2
#     Edge 83, Type (0, 0), BuildingBlock: AJUNOK_clean_linker_0, # of connection points: 2
#     Edge 84, Type (0, 0), BuildingBlock: AJUNOK_clean_linker_0, # of connection points: 2
#     Edge 85, Type (0, 0), BuildingBlock: AJUNOK_clean_linker_0, # of connection points: 2
#     Edge 86, Type (0, 0), BuildingBlock: AJUNOK_clean_linker_0, # of connection points: 2
#     Edge 87, Type (0, 0), BuildingBlock: AJUNOK_clean_linker_0, # of connection points: 2
#     Edge 88, Type (0, 0), BuildingBlock: AJUNOK_clean_linker_0, # of connection points: 2
#     Edge 89, Type (0, 0), BuildingBlock: AJUNOK_clean_linker_0, # of connection points: 2
#     Edge 90, Type (0, 0), BuildingBlock: AJUNOK_clean_linker_0, # of connection points: 2
#     Edge 91, Type (0, 0), BuildingBlock: AJUNOK_clean_linker_0, # of connection points: 2
#     Edge 92, Type (0, 0), BuildingBlock: AJUNOK_clean_linker_0, # of connection points: 2
#     Edge 93, Type (0, 0), BuildingBlock: AJUNOK_clean_linker_0, # of connection points: 2
#     Edge 94, Type (0, 0), BuildingBlock: AJUNOK_clean_linker_0, # of connection points: 2
#     Edge 95, Type (0, 0), BuildingBlock: AJUNOK_clean_linker_0, # of connection points: 2
#     Edge 96, Type (0, 0), BuildingBlock: AJUNOK_clean_linker_0, # of connection points: 2
#     Edge 97, Type (0, 0), BuildingBlock: AJUNOK_clean_linker_0, # of connection points: 2
#     Edge 98, Type (0, 0), BuildingBlock: AJUNOK_clean_linker_0, # of connection points: 2
#     Edge 99, Type (0, 0), BuildingBlock: AJUNOK_clean_linker_0, # of connection points: 2
#     Edge 100, Type (0, 0), BuildingBlock: AJUNOK_clean_linker_0, # of connection points: 2
#     Edge 101, Type (0, 0), BuildingBlock: AJUNOK_clean_linker_0, # of connection points: 2
#     Edge 102, Type (0, 0), BuildingBlock: AJUNOK_clean_linker_0, # of connection points: 2
#     Edge 103, Type (0, 0), BuildingBlock: AJUNOK_clean_linker_0, # of connection points: 2
#     Edge 104, Type (0, 0), BuildingBlock: AJUNOK_clean_linker_0, # of connection points: 2
#     Edge 105, Type (0, 0), BuildingBlock: AJUNOK_clean_linker_0, # of connection points: 2
#     Edge 106, Type (0, 0), BuildingBlock: AJUNOK_clean_linker_0, # of connection points: 2
#     Edge 107, Type (0, 0), BuildingBlock: AJUNOK_clean_linker_0, # of connection points: 2
#     Edge 108, Type (0, 0), BuildingBlock: AJUNOK_clean_linker_0, # of connection points: 2
#     Edge 109, Type (0, 0), BuildingBlock: AJUNOK_clean_linker_0, # of connection points: 2
#     Edge 110, Type (0, 0), BuildingBlock: AJUNOK_clean_linker_0, # of connection points: 2
#     Edge 111, Type (0, 0), BuildingBlock: AJUNOK_clean_linker_0, # of connection points: 2
#     Edge 112, Type (0, 0), BuildingBlock: AJUNOK_clean_linker_0, # of connection points: 2
#     Edge 113, Type (0, 0), BuildingBlock: AJUNOK_clean_linker_0, # of connection points: 2
#     Edge 114, Type (0, 0), BuildingBlock: AJUNOK_clean_linker_0, # of connection points: 2
#     Edge 115, Type (0, 0), BuildingBlock: AJUNOK_clean_linker_0, # of connection points: 2
#     Edge 116, Type (0, 0), BuildingBlock: AJUNOK_clean_linker_0, # of connection points: 2
#     Edge 117, Type (0, 0), BuildingBlock: AJUNOK_clean_linker_0, # of connection points: 2
#     Edge 118, Type (0, 0), BuildingBlock: AJUNOK_clean_linker_0, # of connection points: 2
#     Edge 119, Type (0, 0), BuildingBlock: AJUNOK_clean_linker_0, # of connection points: 2
#     Edge 120, Type (0, 0), BuildingBlock: AJUNOK_clean_linker_0, # of connection points: 2
#     Edge 121, Type (0, 0), BuildingBlock: AJUNOK_clean_linker_0, # of connection points: 2
#     Edge 122, Type (0, 0), BuildingBlock: AJUNOK_clean_linker_0, # of connection points: 2
#     Edge 123, Type (0, 0), BuildingBlock: AJUNOK_clean_linker_0, # of connection points: 2
#     Edge 124, Type (0, 0), BuildingBlock: AJUNOK_clean_linker_0, # of connection points: 2
#     Edge 125, Type (0, 0), BuildingBlock: AJUNOK_clean_linker_0, # of connection points: 2
#     Edge 126, Type (0, 0), BuildingBlock: AJUNOK_clean_linker_0, # of connection points: 2
#     Edge 127, Type (0, 0), BuildingBlock: AJUNOK_clean_linker_0, # of connection points: 2
# Relax obj value: 0.415
# Max RMSD: 0.346
# Mean RMSD: 0.264
data_MOF--net-wip--node1-BETGAK_clean_sbu_0--edge1-AJUNOK_clean_linker_0
_symmetry_space_group_name_H-M    P1
_symmetry_Int_Tables_number       1
_symmetry_cell_setting            triclinic
loop_
_symmetry_equiv_pos_as_xyz
'x, y, z'
_cell_length_a     48.734934
_cell_length_b     45.784735
_cell_length_c     27.743545
_cell_angle_alpha  95.661512
_cell_angle_beta   84.721364
_cell_angle_gamma 89.000866
loop_
_atom_site_label
_atom_site_type_symbol
_atom_site_fract_x
_atom_site_fract_y
_atom_site_fract_z
_atom_type_partial_charge
La0 La 0.045 0.40513 0.13217 0.0
La1 La 0.08755 0.43486 0.07623 0.0
C2 C 0.02011 0.37574 0.19377 0.0
C3 C 0.02048 0.37592 0.24676 0.0
C4 C 0.01154 0.40111 0.27786 0.0
C5 C 0.01023 0.4007 0.32801 0.0
C6 C 0.0182 0.37533 0.34797 0.0
C7 C 0.02818 0.35051 0.31728 0.0
C8 C 0.02914 0.35074 0.26682 0.0
C9 C 0.02671 0.45808 0.11791 0.0
C10 C 0.08633 0.44988 0.18588 0.0
C11 C 0.11355 0.45954 1.00762 0.0
C12 C 0.1088 0.47136 0.95974 0.0
C13 C 0.13137 0.47436 0.92516 0.0
C14 C 0.12806 0.48597 0.88058 0.0
C15 C 0.10193 0.49499 0.86829 0.0
C16 C 0.07925 0.49207 0.90317 0.0
C17 C 0.0826 0.48042 0.94797 0.0
C18 C 0.10799 0.39168 0.12604 0.0
C19 C 0.0357 0.40809 1.0241 0.0
O20 O 0.00996 0.39942 0.17903 0.0
O21 O 0.04239 0.3661 0.1667 0.0
O22 O 0.01298 0.43422 0.11335 0.0
O23 O 0.05126 0.45058 0.12356 0.0
O24 O 0.06784 0.42883 0.18868 0.0
O25 O 0.09475 0.45971 0.14379 0.0
O26 O 0.11286 0.43099 1.00946 0.0
O27 O 0.10188 0.47367 1.04804 0.0
O28 O 0.1208 0.41453 0.11238 0.0
O29 O 0.08585 0.39126 0.10335 0.0
O30 O 0.05529 0.4274 1.02626 0.0
O31 O 0.03087 0.39145 0.06023 0.0
H32 H 0.00503 0.42105 0.26367 0.0
H33 H 0.0026 0.42007 0.35133 0.0
H34 H 0.03424 0.33068 0.33233 0.0
H35 H 0.03606 0.33113 0.24356 0.0
H36 H 0.15189 0.46794 0.93286 0.0
H37 H 0.14629 0.4884 0.85608 0.0
H38 H 0.05873 0.49856 0.89566 0.0
H39 H 0.06465 0.47858 0.97345 0.0
La40 La 0.83342 0.80305 0.39726 0.0
La41 La 0.79851 0.84321 0.34857 0.0
C42 C 0.86452 0.78107 0.45352 0.0
C43 C 0.86326 0.77532 0.5055 0.0
C44 C 0.85399 0.7483 0.51999 0.0
C45 C 0.85441 0.74202 0.56828 0.0
C46 C 0.86433 0.76249 0.60324 0.0
C47 C 0.87311 0.78973 0.58908 0.0
C48 C 0.87275 0.79602 0.5407 0.0
C49 C 0.78488 0.78029 0.38266 0.0
C50 C 0.79077 0.85121 0.45952 0.0
C51 C 0.76972 0.86565 0.28825 0.0
C52 C 0.76037 0.86117 0.23753 0.0
C53 C 0.76395 0.88371 0.20653 0.0
C54 C 0.75329 0.88178 0.16069 0.0
C55 C 0.73863 0.85712 0.14373 0.0
C56 C 0.73547 0.83427 0.17445 0.0
C57 C 0.74607 0.83625 0.22053 0.0
C58 C 0.84356 0.86652 0.38473 0.0
C59 C 0.83449 0.79229 0.28714 0.0
O60 O 0.84857 0.76578 0.42596 0.0
O61 O 0.8651 0.80836 0.44384 0.0
O62 O 0.8085 0.76661 0.37405 0.0
O63 O 0.78962 0.80719 0.39336 0.0
O64 O 0.81168 0.83191 0.45763 0.0
O65 O 0.77908 0.85694 0.4202 0.0
O66 O 0.79575 0.87102 0.29249 0.0
O67 O 0.75976 0.8492 0.32155 0.0
O68 O 0.82045 0.8805 0.38215 0.0
O69 O 0.8415 0.8412 0.36223 0.0
O70 O 0.81123 0.80758 0.29377 0.0
O71 O 0.85056 0.79065 0.32261 0.0
H72 H 0.84668 0.73177 0.49387 0.0
H73 H 0.84701 0.72106 0.57826 0.0
H74 H 0.8809 0.80592 0.61521 0.0
H75 H 0.88026 0.81695 0.53078 0.0
H76 H 0.77451 0.90339 0.21836 0.0
H77 H 0.75588 0.90019 0.13917 0.0
H78 H 0.72471 0.81471 0.16281 0.0
H79 H 0.74273 0.8184 0.24307 0.0
La80 La 0.45141 0.5897 0.68622 0.0
La81 La 0.40907 0.56121 0.62943 0.0
C82 C 0.47851 0.6185 0.74724 0.0
C83 C 0.47991 0.62483 0.80007 0.0
C84 C 0.50015 0.60987 0.82175 0.0
C85 C 0.5011 0.61329 0.87183 0.0
C86 C 0.48184 0.63175 0.90139 0.0
C87 C 0.46282 0.64846 0.8798 0.0
C88 C 0.46199 0.64519 0.82921 0.0
C89 C 0.47083 0.53877 0.64292 0.0
C90 C 0.41048 0.54193 0.73079 0.0
C91 C 0.38487 0.53677 0.55824 0.0
C92 C 0.39023 0.52559 0.50434 0.0
C93 C 0.36807 0.52313 0.47497 0.0
C94 C 0.37175 0.51158 0.42536 0.0
C95 C 0.39794 0.50205 0.40217 0.0
C96 C 0.42022 0.5045 0.4318 0.0
C97 C 0.41647 0.51603 0.4817 0.0
C98 C 0.38735 0.60074 0.70541 0.0
C99 C 0.4606 0.59045 0.57312 0.0
O100 O 0.48349 0.59109 0.73064 0.0
O101 O 0.45848 0.63022 0.72639 0.0
O102 O 0.48359 0.56326 0.64261 0.0
O103 O 0.44596 0.54519 0.65846 0.0
O104 O 0.42837 0.56331 0.73878 0.0
O105 O 0.4027 0.53371 0.68719 0.0
O106 O 0.38456 0.56526 0.57077 0.0
O107 O 0.39643 0.52249 0.59023 0.0
O108 O 0.37458 0.57962 0.68268 0.0
O109 O 0.41 0.60261 0.67744 0.0
O110 O 0.44027 0.57214 0.57293 0.0
O111 O 0.46653 0.6045 0.61486 0.0
H112 H 0.51498 0.59493 0.8 0.0
H113 H 0.51658 0.60097 0.88766 0.0
H114 H 0.44813 0.66327 0.90209 0.0
H115 H 0.44698 0.658 0.81322 0.0
H116 H 0.34748 0.5298 0.49074 0.0
H117 H 0.35367 0.50948 0.40554 0.0
H118 H 0.44081 0.49772 0.41629 0.0
H119 H 0.43419 0.51739 0.50261 0.0
La120 La 0.67713 0.19044 0.85418 0.0
La121 La 0.71941 0.14999 0.88744 0.0
C122 C 0.65025 0.22852 0.81782 0.0
C123 C 0.65325 0.24178 0.77184 0.0
C124 C 0.63007 0.24475 0.74609 0.0
C125 C 0.63288 0.25505 0.70027 0.0
C126 C 0.65887 0.26269 0.68016 0.0
C127 C 0.682 0.26004 0.70609 0.0
C128 C 0.67928 0.24938 0.75154 0.0
C129 C 0.65427 0.14641 0.89667 0.0
C130 C 0.72359 0.15737 0.77365 0.0
C131 C 0.74397 0.10859 0.92013 0.0
C132 C 0.74259 0.09487 0.96542 0.0
C133 C 0.76682 0.08318 0.98016 0.0
C134 C 0.76724 0.07508 1.02719 0.0
C135 C 0.74326 0.07823 0.05967 0.0
C136 C 0.71857 0.08822 1.04353 0.0
C137 C 0.71834 0.09687 0.9969 0.0
C138 C 0.73737 0.20334 0.87266 0.0
C139 C 0.68492 0.1951 0.96882 0.0
O140 O 0.64483 0.20052 0.81344 0.0
O141 O 0.66887 0.23493 0.84823 0.0
O142 O 0.64187 0.17011 0.888 0.0
O143 O 0.67763 0.14527 0.87101 0.0
O144 O 0.70335 0.17757 0.78433 0.0
O145 O 0.73133 0.14152 0.80799 0.0
O146 O 0.75192 0.13578 0.92407 0.0
O147 O 0.72295 0.10486 0.89401 0.0
O148 O 0.75214 0.17921 0.86341 0.0
O149 O 0.71391 0.19556 0.88717 0.0
O150 O 0.70026 0.17027 0.95967 0.0
O151 O 0.67591 0.20836 0.93204 0.0
H152 H 0.60991 0.23865 0.76112 0.0
H153 H 0.61485 0.25716 0.68063 0.0
H154 H 0.70221 0.26579 0.69077 0.0
H155 H 0.69752 0.24674 0.77041 0.0
H156 H 0.7858 0.08198 0.9563 0.0
H157 H 0.78671 0.06821 1.03898 0.0
H158 H 0.6998 0.09084 0.06789 0.0
H159 H 0.69967 0.10652 0.98637 0.0
La160 La 0.05175 0.58809 0.62099 0.0
La161 La 0.08484 0.53868 0.56656 0.0
C162 C 0.02371 0.62482 0.67965 0.0
C163 C 0.01394 0.62653 0.73131 0.0
C164 C 0.00745 0.65401 0.75696 0.0
C165 C 0.0004 0.65629 0.80709 0.0
C166 C 8e-05 0.6311 0.83225 0.0
C167 C 0.00557 0.60343 0.80608 0.0
C168 C 0.01247 0.60115 0.75587 0.0
C169 C 0.09362 0.60287 0.55967 0.0
C170 C 0.0866 0.54606 0.68117 0.0
C171 C 0.1219 0.51106 0.51043 0.0
C172 C 0.13099 0.51026 0.45898 0.0
C173 C 0.11878 0.52959 0.43062 0.0
C174 C 0.12015 0.52304 0.38043 0.0
C175 C 0.13351 0.49701 0.35883 0.0
C176 C 0.14911 0.48012 0.38651 0.0
C177 C 0.14766 0.48665 0.43677 0.0
C178 C 0.04265 0.52063 0.61962 0.0
C179 C 0.03685 0.57213 0.51511 0.0
O180 O 0.05048 0.62604 0.67014 0.0
O181 O 0.01292 0.60439 0.65139 0.0
O182 O 0.06997 0.6164 0.56757 0.0
O183 O 0.09353 0.58279 0.58782 0.0
O184 O 0.06627 0.56578 0.68182 0.0
O185 O 0.09977 0.53515 0.63894 0.0
O186 O 0.09706 0.50126 0.51969 0.0
O187 O 0.12603 0.53559 0.53684 0.0
O188 O 0.06551 0.50559 0.60818 0.0
O189 O 0.04303 0.54357 0.59746 0.0
O190 O 0.05925 0.55413 0.50937 0.0
O191 O 0.028 0.58525 0.55844 0.0
H192 H 0.00838 0.67375 0.73838 0.0
H193 H 0.99565 0.67779 0.82634 0.0
H194 H 0.00545 0.58369 0.82467 0.0
H195 H 0.01727 0.5797 0.73647 0.0
H196 H 0.10586 0.54791 0.44754 0.0
H197 H 0.10794 0.53625 0.35957 0.0
H198 H 0.15959 0.46 0.37011 0.0
H199 H 0.15728 0.47168 0.45849 0.0
La200 La 0.65359 0.80428 0.88504 0.0
La201 La 0.69886 0.83218 0.84232 0.0
C202 C 0.61921 0.78181 0.94336 0.0
C203 C 0.6211 0.77369 0.9933 0.0
C204 C 0.59713 0.76915 1.0234 0.0
C205 C 0.59889 0.76206 0.07112 0.0
C206 C 0.62465 0.7598 0.08978 0.0
C207 C 0.64863 0.76417 0.05939 0.0
C208 C 0.64689 0.77089 1.01159 0.0
C209 C 0.63812 0.83738 0.81431 0.0
C210 C 0.68854 0.84562 0.95492 0.0
C211 C 0.72898 0.86385 0.79229 0.0
C212 C 0.72913 0.87486 0.74489 0.0
C213 C 0.71529 0.86009 0.70805 0.0
C214 C 0.72042 0.86704 0.66042 0.0
C215 C 0.73955 0.88856 0.64964 0.0
C216 C 0.75032 0.90597 0.68754 0.0
C217 C 0.74524 0.89895 0.73518 0.0
C218 C 0.71729 0.7925 0.89749 0.0
C219 C 0.67368 0.77724 0.78374 0.0
O220 O 0.61976 0.80996 0.93839 0.0
O221 O 0.6352 0.76654 0.90912 0.0
O222 O 0.62727 0.81343 0.82692 0.0
O223 O 0.65555 0.84417 0.84577 0.0
O224 O 0.67104 0.82423 0.95071 0.0
O225 O 0.69911 0.85633 0.91508 0.0
O226 O 0.733 0.83544 0.79193 0.0
O227 O 0.70905 0.87424 0.82443 0.0
O228 O 0.72896 0.81665 0.88828 0.0
O229 O 0.69666 0.78963 0.87215 0.0
O230 O 0.68681 0.80222 0.78061 0.0
O231 O 0.66265 0.77035 0.82606 0.0
H232 H 0.57705 0.77121 1.01007 0.0
H233 H 0.58008 0.75884 0.09375 0.0
H234 H 0.66878 0.76214 0.07248 0.0
H235 H 0.66573 0.77392 0.98894 0.0
H236 H 0.70218 0.8419 0.71546 0.0
H237 H 0.71194 0.85337 0.63155 0.0
H238 H 0.76506 0.9227 0.67966 0.0
H239 H 0.75556 0.91087 0.76371 0.0
La240 La 0.45134 0.40968 0.107 0.0
La241 La 0.41771 0.45745 0.07899 0.0
C242 C 0.4794 0.37352 0.14565 0.0
C243 C 0.48999 0.37396 0.19323 0.0
C244 C 0.49649 0.3475 0.21139 0.0
C245 C 0.50428 0.34765 0.25856 0.0
C246 C 0.50539 0.37429 0.28799 0.0
C247 C 0.49975 0.40084 0.2691 0.0
C248 C 0.49205 0.40068 0.22197 0.0
C249 C 0.41315 0.39223 1.04711 0.0
C250 C 0.41492 0.45011 0.19235 0.0
C251 C 0.38147 0.48536 1.0426 0.0
C252 C 0.37158 0.48266 0.99476 0.0
C253 C 0.35531 0.50527 0.98097 0.0
C254 C 0.35337 0.50762 0.93174 0.0
C255 C 0.36782 0.48734 0.89683 0.0
C256 C 0.38043 0.46234 0.91114 0.0
C257 C 0.38284 0.46036 0.96006 0.0
C258 C 0.45798 0.4776 0.12803 0.0
C259 C 0.46817 0.4273 1.00357 0.0
O260 O 0.4525 0.37295 0.14637 0.0
O261 O 0.49015 0.39248 0.1175 0.0
O262 O 0.43708 0.38005 1.04793 0.0
O263 O 0.41028 0.41217 0.08263 0.0
O264 O 0.43586 0.43113 0.18017 0.0
O265 O 0.40171 0.46032 0.15731 0.0
O266 O 0.40716 0.49335 1.04286 0.0
O267 O 0.37612 0.46327 0.06817 0.0
O268 O 0.43468 0.49139 0.12721 0.0
O269 O 0.45919 0.45481 0.09795 0.0
O270 O 0.44387 0.44209 1.00884 0.0
O271 O 0.47755 0.41638 1.04144 0.0
H272 H 0.49486 0.32674 0.18957 0.0
H273 H 0.50845 0.32696 0.27269 0.0
H274 H 0.50077 0.42163 0.29111 0.0
H275 H 0.48712 0.42133 0.20839 0.0
H276 H 0.34663 0.52265 1.00764 0.0
H277 H 0.34377 0.52722 0.92107 0.0
H278 H 0.3917 0.44665 0.88444 0.0
H279 H 0.39602 0.44323 0.9702 0.0
La280 La 0.82855 0.18351 0.49988 0.0
La281 La 0.78539 0.14511 0.45847 0.0
C282 C 0.85191 0.21825 0.55966 0.0
C283 C 0.84628 0.23046 0.61271 0.0
C284 C 0.84428 0.21224 0.65105 0.0
C285 C 0.84002 0.22414 0.70035 0.0
C286 C 0.83788 0.25481 0.71354 0.0
C287 C 0.83955 0.27294 0.67501 0.0
C288 C 0.84372 0.26102 0.62574 0.0
C289 C 0.85094 0.1442 0.42543 0.0
C290 C 0.78419 0.15085 0.57258 0.0
C291 C 0.75919 0.10638 0.41266 0.0
C292 C 0.7579 0.09232 0.36341 0.0
C293 C 0.7319 0.08711 0.3472 0.0
C294 C 0.72946 0.07916 0.29811 0.0
C295 C 0.75306 0.07609 0.2649 0.0
C296 C 0.77923 0.07934 0.2816 0.0
C297 C 0.78157 0.08765 0.33073 0.0
C298 C 0.76577 0.19904 0.49483 0.0
C299 C 0.81474 0.19152 0.39356 0.0
O300 O 0.85848 0.19013 0.54997 0.0
O301 O 0.83549 0.22707 0.52863 0.0
O302 O 0.8619 0.16808 0.44356 0.0
O303 O 0.83021 0.13993 0.45744 0.0
O304 O 0.80428 0.16962 0.5661 0.0
O305 O 0.7756 0.13535 0.53439 0.0
O306 O 0.75238 0.13431 0.41802 0.0
O307 O 0.78072 0.10044 0.43556 0.0
O308 O 0.75209 0.175 0.49522 0.0
O309 O 0.78929 0.19049 0.4769 0.0
O310 O 0.80089 0.16676 0.39498 0.0
O311 O 0.82427 0.20515 0.43341 0.0
H312 H 0.84608 0.18864 0.64304 0.0
H313 H 0.8381 0.20911 0.72815 0.0
H314 H 0.83812 0.29658 0.6829 0.0
H315 H 0.84523 0.27589 0.59763 0.0
H316 H 0.71338 0.09089 0.37201 0.0
H317 H 0.7091 0.07697 0.28562 0.0
H318 H 0.79764 0.07753 0.25629 0.0
H319 H 0.80157 0.09203 0.34272 0.0
La320 La 0.91233 0.56628 0.31063 0.0
La321 La 0.95351 0.59648 0.25416 0.0
C322 C 0.88555 0.54395 0.38074 0.0
C323 C 0.88992 0.53212 0.42844 0.0
C324 C 0.86756 0.53173 0.4643 0.0
C325 C 0.87058 0.52053 0.50919 0.0
C326 C 0.89621 0.50938 0.52025 0.0
C327 C 0.91865 0.50969 0.48408 0.0
C328 C 0.9156 0.52094 0.43901 0.0
C329 C 0.89046 0.60889 0.26165 0.0
C330 C 0.96373 0.59257 0.36181 0.0
C331 C 0.98008 0.62651 0.19503 0.0
C332 C 0.98088 0.63167 0.14371 0.0
C333 C 0.00674 0.63255 0.11752 0.0
C334 C 0.00883 0.63415 0.06752 0.0
C335 C 0.985 0.63565 1.04285 0.0
C336 C 0.95898 0.63488 0.06924 0.0
C337 C 0.95695 0.6326 0.11935 0.0
C338 C 0.9737 0.54439 0.26823 0.0
C339 C 0.91286 0.55039 0.20221 0.0
O340 O 0.88834 0.57226 0.37848 0.0
O341 O 0.89588 0.5288 0.34025 0.0
O342 O 0.87855 0.58545 0.27455 0.0
O343 O 0.91278 0.60998 0.28361 0.0
O344 O 0.94607 0.57139 0.35772 0.0
O345 O 0.96649 0.61064 0.32726 0.0
O346 O 0.9868 0.59978 0.20216 0.0
O347 O 0.95904 0.63696 0.22478 0.0
O348 O 0.98632 0.56889 0.27384 0.0
O349 O 0.9488 0.55078 0.26295 0.0
O350 O 0.92951 0.57312 0.19879 0.0
O351 O 0.90622 0.53986 0.24434 0.0
H352 H 0.84746 0.53996 0.45742 0.0
H353 H 0.85253 0.52011 0.53492 0.0
H354 H 0.93877 0.50147 0.49078 0.0
H355 H 0.93333 0.52085 0.41242 0.0
H356 H 0.02544 0.63098 0.13557 0.0
H357 H 0.02917 0.6334 1.04802 0.0
H358 H 0.94028 0.6357 0.05107 0.0
H359 H 0.93686 0.63088 0.1387 0.0
La360 La 0.19807 0.15542 1.04606 0.0
La361 La 0.16273 0.19265 0.99321 0.0
C362 C 0.22564 0.13336 0.10823 0.0
C363 C 0.23575 0.13794 0.15815 0.0
C364 C 0.23067 0.11654 0.19084 0.0
C365 C 0.24227 0.1182 0.23575 0.0
C366 C 0.25958 0.14128 0.24971 0.0
C367 C 0.26395 0.16326 0.21756 0.0
C368 C 0.25238 0.16154 0.17246 0.0
C369 C 0.15592 0.1288 1.00504 0.0
C370 C 0.16004 0.206 0.10336 0.0
C371 C 0.13172 0.21079 0.93316 0.0
C372 C 0.1341 0.21665 0.8811 0.0
C373 C 0.14156 0.24449 0.86761 0.0
C374 C 0.14209 0.25066 0.81908 0.0
C375 C 0.13519 0.22916 0.78273 0.0
C376 C 0.12791 0.20126 0.79607 0.0
C377 C 0.12731 0.19509 0.84467 0.0
C378 C 0.20847 0.21982 1.01344 0.0
C379 C 0.21167 0.14963 0.93607 0.0
O380 O 0.19925 0.1296 0.10511 0.0
O381 O 0.23641 0.14845 0.07366 0.0
O382 O 0.17973 0.11674 1.00896 0.0
O383 O 0.15571 0.15422 1.02795 0.0
O384 O 0.18382 0.19167 0.09881 0.0
O385 O 0.14423 0.20544 0.06707 0.0
O386 O 0.14492 0.22797 0.96293 0.0
O387 O 0.13357 0.18351 0.94263 0.0
O388 O 0.18396 0.23158 1.01753 0.0
O389 O 0.20599 0.19243 1.00283 0.0
O390 O 0.18963 0.1671 0.93493 0.0
O391 O 0.22123 0.14369 0.97706 0.0
H392 H 0.21819 0.09791 0.18104 0.0
H393 H 0.23826 0.1008 0.25901 0.0
H394 H 0.27637 0.18194 0.22717 0.0
H395 H 0.25681 0.17852 0.14854 0.0
H396 H 0.14663 0.26175 0.89468 0.0
H397 H 0.1478 0.27234 0.80995 0.0
H398 H 0.12191 0.18441 0.76914 0.0
H399 H 0.12106 0.17356 0.8538 0.0
La400 La 0.59029 0.43955 0.76303 0.0
La401 La 0.54925 0.41044 0.7055 0.0
C402 C 0.61476 0.46317 0.83393 0.0
C403 C 0.60878 0.47435 0.88749 0.0
C404 C 0.6214 0.46087 0.92381 0.0
C405 C 0.61761 0.47226 0.97349 0.0
C406 C 0.601 0.49766 0.98906 0.0
C407 C 0.58855 0.5112 0.9525 0.0
C408 C 0.59229 0.4998 0.90296 0.0
C409 C 0.61487 0.40818 0.67844 0.0
C410 C 0.54082 0.4063 0.81817 0.0
C411 C 0.52451 0.38124 0.64221 0.0
C412 C 0.52736 0.37387 0.58969 0.0
C413 C 0.50709 0.35697 0.56876 0.0
C414 C 0.50575 0.35476 0.51863 0.0
C415 C 0.5248 0.36932 0.48911 0.0
C416 C 0.54624 0.38463 0.5097 0.0
C417 C 0.54736 0.38716 0.56002 0.0
C418 C 0.52601 0.45797 0.75502 0.0
C419 C 0.58381 0.46373 0.66703 0.0
O420 O 0.61452 0.43468 0.8216 0.0
O421 O 0.60411 0.47782 0.80138 0.0
O422 O 0.62622 0.4256 0.71021 0.0
O423 O 0.59281 0.40179 0.7057 0.0
O424 O 0.56078 0.42509 0.8198 0.0
O425 O 0.53546 0.39304 0.77548 0.0
O426 O 0.51963 0.4091 0.65591 0.0
O427 O 0.54261 0.36954 0.66732 0.0
O428 O 0.51525 0.43241 0.75096 0.0
O429 O 0.55125 0.45419 0.73938 0.0
O430 O 0.56847 0.4406 0.65693 0.0
O431 O 0.59183 0.47114 0.7107 0.0
H432 H 0.63456 0.44152 0.91371 0.0
H433 H 0.62763 0.46095 0.99983 0.0
H434 H 0.57625 0.53121 0.96191 0.0
H435 H 0.5825 0.51132 0.87661 0.0
H436 H 0.49136 0.34692 0.59139 0.0
H437 H 0.4891 0.34285 0.50311 0.0
H438 H 0.561 0.39608 0.4873 0.0
H439 H 0.56287 0.40067 0.5759 0.0
La440 La 0.27461 0.85301 0.50396 0.0
La441 La 0.31886 0.81388 0.53064 0.0
C442 C 0.24523 0.89267 0.47549 0.0
C443 C 0.23615 0.90074 0.42943 0.0
C444 C 0.21574 0.88464 0.40673 0.0
C445 C 0.20885 0.89071 0.3612 0.0
C446 C 0.22222 0.91295 0.33773 0.0
C447 C 0.24098 0.93057 0.36185 0.0
C448 C 0.24781 0.92458 0.40767 0.0
C449 C 0.25939 0.79794 0.51527 0.0
C450 C 0.30846 0.80956 0.41756 0.0
C451 C 0.34629 0.77687 0.56849 0.0
C452 C 0.34308 0.76652 0.61701 0.0
C453 C 0.36614 0.7563 0.63771 0.0
C454 C 0.36324 0.74768 0.68484 0.0
C455 C 0.33738 0.74988 0.71191 0.0
C456 C 0.31441 0.76035 0.69142 0.0
C457 C 0.31718 0.76834 0.6441 0.0
C458 C 0.33874 0.85885 0.48907 0.0
C459 C 0.27514 0.84692 0.61618 0.0
O460 O 0.23591 0.86813 0.48975 0.0
O461 O 0.27129 0.89569 0.48229 0.0
O462 O 0.24363 0.82113 0.52646 0.0
O463 O 0.28189 0.8075 0.50024 0.0
O464 O 0.29148 0.83318 0.42911 0.0
O465 O 0.31934 0.7965 0.45282 0.0
O466 O 0.35292 0.80445 0.56801 0.0
O467 O 0.3267 0.7698 0.5404 0.0
O468 O 0.35108 0.83368 0.48874 0.0
O469 O 0.31688 0.8603 0.51925 0.0
O470 O 0.29467 0.8264 0.6027 0.0
O471 O 0.26642 0.86312 0.58347 0.0
H472 H 0.20563 0.86675 0.42332 0.0
H473 H 0.19395 0.87723 0.34336 0.0
H474 H 0.25148 0.94787 0.34418 0.0
H475 H 0.26302 0.93779 0.42512 0.0
H476 H 0.38627 0.75488 0.61738 0.0
H477 H 0.38105 0.73912 0.70006 0.0
H478 H 0.29421 0.76151 0.71154 0.0
H479 H 0.29901 0.77567 0.62861 0.0
La480 La 0.91754 0.46858 0.82031 0.0
La481 La 0.94667 0.419 0.76682 0.0
C482 C 0.88586 0.50222 0.87793 0.0
C483 C 0.87466 0.50109 0.92792 0.0
C484 C 0.85633 0.52324 0.95021 0.0
C485 C 0.85132 0.52657 1.00068 0.0
C486 C 0.8651 0.50802 1.02854 0.0
C487 C 0.88007 0.48329 1.00551 0.0
C488 C 0.88506 0.48002 0.95525 0.0
C489 C 0.95833 0.48548 0.76229 0.0
C490 C 0.96476 0.43409 0.86973 0.0
C491 C 0.97204 0.3804 0.70781 0.0
C492 C 0.98203 0.37798 0.65599 0.0
C493 C 0.9714 0.3562 0.62427 0.0
C494 C 0.97897 0.35469 0.57445 0.0
C495 C 0.99761 0.37465 0.55579 0.0
C496 C 0.00889 0.39596 0.58747 0.0
C497 C 0.00107 0.39772 0.63733 0.0
C498 C 0.90617 0.40427 0.83122 0.0
C499 C 0.91189 0.45993 0.7072 0.0
O500 O 0.91262 0.50502 0.87223 0.0
O501 O 0.87725 0.48218 0.84649 0.0
O502 O 0.93578 0.50042 0.77534 0.0
O503 O 0.95886 0.46304 0.7855 0.0
O504 O 0.94127 0.45011 0.87723 0.0
O505 O 0.97355 0.42301 0.82524 0.0
O506 O 0.94522 0.3815 0.71737 0.0
O507 O 0.98426 0.39921 0.73679 0.0
O508 O 0.92981 0.39109 0.82055 0.0
O509 O 0.90478 0.42472 0.80382 0.0
O510 O 0.93219 0.4403 0.70571 0.0
O511 O 0.89992 0.47134 0.74997 0.0
H512 H 0.84792 0.53938 0.92915 0.0
H513 H 0.83964 0.54573 1.01807 0.0
H514 H 0.89098 0.46877 1.02622 0.0
H515 H 0.8987 0.46235 0.93811 0.0
H516 H 0.95673 0.34077 0.63795 0.0
H517 H 0.97005 0.33815 0.55036 0.0
H518 H 0.02304 0.41178 0.57348 0.0
H519 H 0.0095 0.41486 0.66094 0.0
La520 La 0.29576 0.16491 0.5507 0.0
La521 La 0.34111 0.19328 0.51098 0.0
C522 C 0.26614 0.13266 0.60058 0.0
C523 C 0.26811 0.12334 0.64868 0.0
C524 C 0.24827 0.10507 0.66834 0.0
C525 C 0.247 0.10114 0.71765 0.0
C526 C 0.26545 0.11572 0.74708 0.0
C527 C 0.28724 0.13111 0.72601 0.0
C528 C 0.28845 0.13505 0.6769 0.0
C529 C 0.27766 0.20471 0.49517 0.0
C530 C 0.31992 0.21994 0.6115 0.0
C531 C 0.3758 0.21575 0.45355 0.0
C532 C 0.37356 0.22413 0.40387 0.0
C533 C 0.39698 0.22358 0.37039 0.0
C534 C 0.39474 0.23076 0.3229 0.0
C535 C 0.36902 0.23878 0.30807 0.0
C536 C 0.34554 0.23903 0.34164 0.0
C537 C 0.34778 0.23173 0.38897 0.0
C538 C 0.35592 0.16045 0.58232 0.0
C539 C 0.30821 0.15167 0.43874 0.0
O540 O 0.2611 0.16081 0.59979 0.0
O541 O 0.28611 0.12267 0.56818 0.0
O542 O 0.26621 0.18025 0.50335 0.0
O543 O 0.29788 0.20771 0.52151 0.0
O544 O 0.30636 0.19513 0.61324 0.0
O545 O 0.33146 0.22705 0.56974 0.0
O546 O 0.37518 0.18756 0.4581 0.0
O547 O 0.36016 0.231 0.48833 0.0
O548 O 0.36662 0.1845 0.56997 0.0
O549 O 0.33911 0.15322 0.54989 0.0
O550 O 0.325 0.17355 0.44429 0.0
O551 O 0.29678 0.14082 0.47778 0.0
H552 H 0.23259 0.09578 0.64661 0.0
H553 H 0.22976 0.08965 0.73376 0.0
H554 H 0.30133 0.14286 0.74849 0.0
H555 H 0.3039 0.14915 0.66194 0.0
H556 H 0.417 0.21748 0.38091 0.0
H557 H 0.41317 0.23027 0.29781 0.0
H558 H 0.32534 0.24429 0.33103 0.0
H559 H 0.32928 0.23174 0.41381 0.0
La560 La 0.57975 0.53671 0.30867 0.0
La561 La 0.54864 0.58654 0.28459 0.0
C562 C 0.61324 0.50107 0.33667 0.0
C563 C 0.62588 0.49558 0.3802 0.0
C564 C 0.6312 0.46642 0.38868 0.0
C565 C 0.63426 0.45975 0.43579 0.0
C566 C 0.63218 0.4824 0.47373 0.0
C567 C 0.63122 0.5118 0.46374 0.0
C568 C 0.62742 0.51836 0.41715 0.0
C569 C 0.5398 0.51932 0.25626 0.0
C570 C 0.53089 0.56706 0.38607 0.0
C571 C 0.52273 0.62542 0.24772 0.0
C572 C 0.51266 0.62844 0.19979 0.0
C573 C 0.52703 0.64573 0.16734 0.0
C574 C 0.51867 0.64754 0.12095 0.0
C575 C 0.49555 0.63237 0.10623 0.0
C576 C 0.48044 0.61613 0.13946 0.0
C577 C 0.489 0.61401 0.18568 0.0
C578 C 0.58715 0.60078 0.34539 0.0
C579 C 0.58428 0.54823 0.19763 0.0
O580 O 0.58654 0.49776 0.33962 0.0
O581 O 0.62062 0.5248 0.31673 0.0
O582 O 0.56295 0.50556 0.25681 0.0
O583 O 0.53815 0.54127 0.28825 0.0
O584 O 0.55489 0.55169 0.38027 0.0
O585 O 0.52202 0.57909 0.34885 0.0
O586 O 0.54955 0.62484 0.24891 0.0
O587 O 0.51077 0.60599 0.27366 0.0
O588 O 0.56333 0.61351 0.34623 0.0
O589 O 0.58977 0.58176 0.30852 0.0
O590 O 0.56332 0.5668 0.21089 0.0
O591 O 0.59743 0.5371 0.23173 0.0
H592 H 0.62999 0.44868 0.36011 0.0
H593 H 0.63487 0.43697 0.44331 0.0
H594 H 0.62956 0.52945 0.49304 0.0
H595 H 0.62273 0.54081 0.41134 0.0
H596 H 0.54513 0.65739 0.17746 0.0
H597 H 0.53078 0.66016 0.09609 0.0
H598 H 0.46212 0.60483 0.12962 0.0
H599 H 0.47721 0.60082 0.21005 0.0
La600 La 0.21566 0.85769 0.9341 0.0
La601 La 0.17286 0.81996 0.89052 0.0
C602 C 0.23732 0.89857 0.98303 0.0
C603 C 0.23246 0.91277 1.0326 0.0
C604 C 0.25509 0.91658 0.05995 0.0
C605 C 0.25091 0.92227 0.11024 0.0
C606 C 0.22407 0.92424 0.13342 0.0
C607 C 0.20138 0.9234 0.10585 0.0
C608 C 0.20558 0.91775 0.05533 0.0
C609 C 0.23614 0.80491 0.89623 0.0
C610 C 0.18623 0.8084 0.99497 0.0
C611 C 0.15029 0.78559 0.82909 0.0
C612 C 0.15706 0.77361 0.77624 0.0
C613 C 0.13605 0.77029 0.74462 0.0
C614 C 0.14166 0.7582 0.69567 0.0
C615 C 0.16858 0.74891 0.67613 0.0
C616 C 0.18963 0.75214 0.70796 0.0
C617 C 0.18402 0.76437 0.75695 0.0
C618 C 0.1509 0.85944 0.9657 0.0
C619 C 0.21809 0.85232 0.81948 0.0
O620 O 0.24552 0.87102 0.98033 0.0
O621 O 0.2185 0.90292 0.95337 0.0
O622 O 0.24991 0.82903 0.89836 0.0
O623 O 0.21219 0.8128 0.91297 0.0
O624 O 0.20161 0.8323 0.99508 0.0
O625 O 0.17561 0.79669 0.95505 0.0
O626 O 0.14362 0.81371 0.83857 0.0
O627 O 0.16615 0.77677 0.86095 0.0
O628 O 0.14016 0.8351 0.94877 0.0
O629 O 0.17132 0.86345 0.93328 0.0
O630 O 0.197 0.83475 0.82523 0.0
O631 O 0.22739 0.86668 0.85818 0.0
H632 H 0.27593 0.9128 1.04286 0.0
H633 H 0.26857 0.92274 0.13136 0.0
H634 H 0.18056 0.9248 0.12351 0.0
H635 H 0.18787 0.91521 1.03456 0.0
H636 H 0.11503 0.7768 0.75796 0.0
H637 H 0.12462 0.75563 0.67331 0.0
H638 H 0.21064 0.74548 0.69481 0.0
H639 H 0.20087 0.76649 0.77984 0.0
La640 La 0.54461 0.90375 0.63642 0.0
La641 La 0.58698 0.93042 0.57519 0.0
C642 C 0.51964 0.87519 0.69919 0.0
C643 C 0.52277 0.87008 0.74945 0.0
C644 C 0.50038 0.85926 0.77687 0.0
C645 C 0.50032 0.85999 0.82717 0.0
C646 C 0.52275 0.8714 0.85033 0.0
C647 C 0.54581 0.8809 0.82275 0.0
C648 C 0.54574 0.88044 0.77238 0.0
C649 C 0.52569 0.95507 0.61637 0.0
C650 C 0.58598 0.95114 0.68256 0.0
C651 C 0.61364 0.95208 0.50415 0.0
C652 C 0.60893 0.96329 0.456 0.0
C653 C 0.63109 0.96362 0.41971 0.0
C654 C 0.62788 0.97509 0.37504 0.0
C655 C 0.60226 0.98663 0.3646 0.0
C656 C 0.57998 0.98622 0.40108 0.0
C657 C 0.58323 0.9747 0.44591 0.0
C658 C 0.60715 0.88946 0.62973 0.0
C659 C 0.53375 0.9042 0.52756 0.0
O660 O 0.51386 0.90246 0.69355 0.0
O661 O 0.53829 0.86338 0.6656 0.0
O662 O 0.51216 0.931 0.61501 0.0
O663 O 0.55062 0.94828 0.62114 0.0
O664 O 0.56838 0.9296 0.68916 0.0
O665 O 0.59421 0.95862 0.63887 0.0
O666 O 0.61146 0.92379 0.50767 0.0
O667 O 0.60303 0.96754 0.54409 0.0
O668 O 0.62018 0.91135 0.61305 0.0
O669 O 0.58489 0.88846 0.60771 0.0
O670 O 0.55465 0.92187 0.52607 0.0
O671 O 0.52802 0.88991 0.56639 0.0
H672 H 0.48232 0.85173 0.75973 0.0
H673 H 0.48232 0.85277 0.84825 0.0
H674 H 0.56315 0.89 0.84037 0.0
H675 H 0.5629 0.88953 0.75181 0.0
H676 H 0.65124 0.95531 0.42619 0.0
H677 H 0.64583 0.97551 0.34908 0.0
H678 H 0.55986 0.99469 0.39489 0.0
H679 H 0.56564 0.97491 0.47282 0.0
La680 La 0.33365 0.30406 0.89957 0.0
La681 La 0.29872 0.34276 0.8485 0.0
C682 C 0.3649 0.28345 0.95703 0.0
C683 C 0.36329 0.27797 1.00918 0.0
C684 C 0.35503 0.2506 1.02365 0.0
C685 C 0.3548 0.24481 0.07232 0.0
C686 C 0.36277 0.26624 0.10777 0.0
C687 C 0.37103 0.29362 0.09342 0.0
C688 C 0.37139 0.29939 1.04467 0.0
C689 C 0.28521 0.28066 0.88638 0.0
C690 C 0.29116 0.35321 0.95949 0.0
C691 C 0.27031 0.36451 0.78674 0.0
C692 C 0.26011 0.35975 0.73654 0.0
C693 C 0.2657 0.38065 0.70303 0.0
C694 C 0.25426 0.3788 0.65781 0.0
C695 C 0.23652 0.35601 0.64409 0.0
C696 C 0.23158 0.33455 0.67715 0.0
C697 C 0.24299 0.33648 0.72256 0.0
C698 C 0.34414 0.36666 0.88284 0.0
C699 C 0.33416 0.29044 0.79024 0.0
O700 O 0.34971 0.26746 0.929 0.0
O701 O 0.36472 0.3107 0.94711 0.0
O702 O 0.30888 0.26705 0.87891 0.0
O703 O 0.28973 0.30777 0.89565 0.0
O704 O 0.31203 0.33397 0.95852 0.0
O705 O 0.27941 0.35807 0.91978 0.0
O706 O 0.29664 0.36875 0.78977 0.0
O707 O 0.25997 0.34936 0.82158 0.0
O708 O 0.32096 0.38049 0.88024 0.0
O709 O 0.34182 0.34105 0.86169 0.0
O710 O 0.31064 0.30529 0.7964 0.0
O711 O 0.35076 0.29067 0.82525 0.0
H712 H 0.34901 0.23344 0.99726 0.0
H713 H 0.34838 0.2235 0.08228 0.0
H714 H 0.37784 0.31037 0.11971 0.0
H715 H 0.37833 0.32053 1.03474 0.0
H716 H 0.27852 0.39906 0.71235 0.0
H717 H 0.25876 0.39585 0.63408 0.0
H718 H 0.21887 0.31604 0.668 0.0
H719 H 0.23808 0.31986 0.74696 0.0
La720 La 0.94683 0.0906 0.18634 0.0
La721 La 0.90677 0.05928 0.13265 0.0
C722 C 0.9713 0.12145 0.24894 0.0
C723 C 0.9734 0.12381 0.30186 0.0
C724 C 0.99567 0.1097 0.31963 0.0
C725 C 0.9988 0.11228 0.36916 0.0
C726 C 0.98004 0.12948 0.40197 0.0
C727 C 0.95752 0.14331 0.38456 0.0
C728 C 0.95431 0.14059 0.33478 0.0
C729 C 0.96998 0.04064 0.1475 0.0
C730 C 0.91003 0.03927 0.23213 0.0
C731 C 0.88201 0.03742 0.06064 0.0
C732 C 0.88823 0.02482 1.0075 0.0
C733 C 0.89299 0.04293 0.96926 0.0
C734 C 0.89636 0.03107 0.91971 0.0
C735 C 0.89491 0.00055 0.90591 0.0
C736 C 0.8907 0.98246 0.9443 0.0
C737 C 0.88728 0.99431 0.9938 0.0
C738 C 0.88366 0.09853 0.20841 0.0
C739 C 0.9576 0.0867 0.07352 0.0
O740 O 0.98103 0.09696 0.22546 0.0
O741 O 0.94845 0.13002 0.23262 0.0
O742 O 0.98135 0.06591 0.14749 0.0
O743 O 0.94454 0.04509 0.16134 0.0
O744 O 0.92614 0.06242 0.23939 0.0
O745 O 0.90246 0.03035 0.18864 0.0
O746 O 0.88478 0.06575 0.07202 0.0
O747 O 0.89 0.02221 0.0949 0.0
O748 O 0.87287 0.07487 0.18946 0.0
O749 O 0.90503 0.10194 0.1781 0.0
O750 O 0.94071 0.06488 0.07677 0.0
O751 O 0.95935 0.10523 0.11313 0.0
H752 H 0.01085 0.09671 0.29517 0.0
H753 H 0.01595 0.10079 0.38182 0.0
H754 H 0.94273 0.15663 0.40931 0.0
H755 H 0.93716 0.1518 0.3221 0.0
H756 H 0.89386 0.06649 0.97749 0.0
H757 H 0.90031 0.04602 0.89215 0.0
H758 H 0.88935 0.95895 0.93609 0.0
H759 H 0.88338 0.97944 1.02152 0.0
La760 La 0.18059 0.68917 0.35705 0.0
La761 La 0.22518 0.65035 0.38611 0.0
C762 C 0.15261 0.72534 0.31821 0.0
C763 C 0.15577 0.73809 0.27107 0.0
C764 C 0.14726 0.72271 0.2288 0.0
C765 C 0.15152 0.73414 0.18398 0.0
C766 C 0.16415 0.76128 0.1805 0.0
C767 C 0.17228 0.7769 0.22274 0.0
C768 C 0.16797 0.7655 0.26764 0.0
C769 C 0.16094 0.64451 0.40082 0.0
C770 C 0.2263 0.65742 0.27282 0.0
C771 C 0.25192 0.60953 0.41753 0.0
C772 C 0.25534 0.59699 0.46368 0.0
C773 C 0.2759 0.60757 0.49265 0.0
C774 C 0.27669 0.59936 0.53946 0.0
C775 C 0.25675 0.58071 0.55828 0.0
C776 C 0.23862 0.56702 0.52725 0.0
C777 C 0.23799 0.57504 0.47998 0.0
C778 C 0.24076 0.70461 0.3711 0.0
C779 C 0.1908 0.69544 0.46995 0.0
O780 O 0.14756 0.6972 0.31648 0.0
O781 O 0.17072 0.73305 0.34895 0.0
O782 O 0.14815 0.66924 0.39934 0.0
O783 O 0.18294 0.64327 0.37118 0.0
O784 O 0.20582 0.67712 0.28556 0.0
O785 O 0.23533 0.64169 0.30622 0.0
O786 O 0.26068 0.63618 0.41469 0.0
O787 O 0.22838 0.60582 0.39866 0.0
O788 O 0.25665 0.68124 0.36222 0.0
O789 O 0.218 0.69555 0.3865 0.0
O790 O 0.20795 0.67192 0.45944 0.0
O791 O 0.17988 0.70782 0.43411 0.0
H792 H 0.13766 0.70161 0.23011 0.0
H793 H 0.14539 0.72148 0.15183 0.0
H794 H 0.1819 0.79798 0.22102 0.0
H795 H 0.17446 0.77804 0.29957 0.0
H796 H 0.29049 0.62342 0.48018 0.0
H797 H 0.29161 0.60929 0.56224 0.0
H798 H 0.22335 0.55216 0.5408 0.0
H799 H 0.22267 0.56559 0.4576 0.0
La800 La 0.55234 0.08182 0.1219 0.0
La801 La 0.58151 0.03271 0.06609 0.0
C802 C 0.52765 0.12051 0.18167 0.0
C803 C 0.51864 0.12305 0.23351 0.0
C804 C 0.51514 0.15094 0.25922 0.0
C805 C 0.50782 0.1537 0.30925 0.0
C806 C 0.50386 0.12857 0.33393 0.0
C807 C 0.50741 0.10061 0.30797 0.0
C808 C 0.51473 0.09786 0.25799 0.0
C809 C 0.59259 0.097 0.05767 0.0
C810 C 0.58689 0.03899 0.17953 0.0
C811 C 0.61465 0.00279 1.00543 0.0
C812 C 0.62338 0.00629 0.95495 0.0
C813 C 0.6388 0.98393 0.92617 0.0
C814 C 0.6403 0.98336 0.87571 0.0
C815 C 0.62622 0.00509 0.85457 0.0
C816 C 0.61438 0.02962 0.88346 0.0
C817 C 0.61244 0.02988 0.93362 0.0
C818 C 0.54064 0.0151 0.12326 0.0
C819 C 0.5329 0.0673 1.01924 0.0
O820 O 0.55437 0.1194 0.17095 0.0
O821 O 0.51505 0.10106 0.15444 0.0
O822 O 0.56888 0.11002 0.06818 0.0
O823 O 0.59392 0.07637 0.0847 0.0
O824 O 0.56715 0.05939 0.18182 0.0
O825 O 0.59854 0.0277 0.13638 0.0
O826 O 0.58857 0.9967 1.01357 0.0
O827 O 0.62223 0.02352 1.03688 0.0
O828 O 0.56308 -9e-05 0.10926 0.0
O829 O 0.54033 0.03801 0.10109 0.0
O830 O 0.55589 0.05043 1.01087 0.0
O831 O 0.52528 0.07911 0.06384 0.0
H832 H 0.51836 0.17052 0.24068 0.0
H833 H 0.50529 0.17543 0.32871 0.0
H834 H 0.50509 0.08092 0.32648 0.0
H835 H 0.51767 0.07614 0.23861 0.0
H836 H 0.6473 0.9656 0.94237 0.0
H837 H 0.64925 0.9641 0.85357 0.0
H838 H 0.60319 0.04632 0.86748 0.0
H839 H 0.60022 0.04714 0.95539 0.0
La840 La 0.15477 0.3046 0.38072 0.0
La841 La 0.19943 0.33308 0.34025 0.0
C842 C 0.12039 0.2818 0.43835 0.0
C843 C 0.12294 0.27315 0.48778 0.0
C844 C 0.09969 0.27353 0.52163 0.0
C845 C 0.10224 0.26613 0.56892 0.0
C846 C 0.12809 0.25814 0.58323 0.0
C847 C 0.1514 0.25813 0.54932 0.0
C848 C 0.14885 0.26556 0.50214 0.0
C849 C 0.1392 0.33752 0.30953 0.0
C850 C 0.18819 0.3455 0.45333 0.0
C851 C 0.22874 0.36627 0.29171 0.0
C852 C 0.22885 0.37777 0.24465 0.0
C853 C 0.21456 0.36367 0.2078 0.0
C854 C 0.22005 0.37053 0.16013 0.0
C855 C 0.23982 0.39147 0.14941 0.0
C856 C 0.25087 0.40848 0.18747 0.0
C857 C 0.2456 0.4014 0.23505 0.0
C858 C 0.21852 0.29353 0.39527 0.0
C859 C 0.17523 0.27793 0.2799 0.0
O860 O 0.12108 0.31002 0.43424 0.0
O861 O 0.13581 0.26672 0.40307 0.0
O862 O 0.12881 0.31333 0.322 0.0
O863 O 0.15612 0.34473 0.34176 0.0
O864 O 0.17103 0.32396 0.44768 0.0
O865 O 0.1995 0.35639 0.41412 0.0
O866 O 0.23362 0.33794 0.29063 0.0
O867 O 0.20832 0.37569 0.32359 0.0
O868 O 0.22958 0.31806 0.38637 0.0
O869 O 0.19804 0.29016 0.36953 0.0
O870 O 0.18857 0.30288 0.27766 0.0
O871 O 0.16431 0.27079 0.32205 0.0
H872 H 0.07958 0.27966 0.51155 0.0
H873 H 0.08392 0.26645 0.59425 0.0
H874 H 0.17171 0.25293 0.55951 0.0
H875 H 0.16722 0.26566 0.477 0.0
H876 H 0.20099 0.34583 0.21515 0.0
H877 H 0.21128 0.35718 0.13122 0.0
H878 H 0.266 0.42487 0.17974 0.0
H879 H 0.25626 0.41283 0.26359 0.0
La880 La 0.94837 0.91015 0.6123 0.0
La881 La 0.91392 0.95728 0.58412 0.0
C882 C 0.97558 0.87391 0.65226 0.0
C883 C 0.98177 0.87152 0.70241 0.0
C884 C 0.98078 0.84397 0.72037 0.0
C885 C 0.98366 0.84155 0.76938 0.0
C886 C 0.98769 0.86667 0.80089 0.0
C887 C 0.98933 0.89419 0.78269 0.0
C888 C 0.98618 0.89666 0.73377 0.0
C889 C 0.91128 0.89214 0.55077 0.0
C890 C 0.91022 0.94908 0.69692 0.0
C891 C 0.87774 0.98469 0.54664 0.0
C892 C 0.86856 0.98215 0.49823 0.0
C893 C 0.85331 0.00524 0.48337 0.0
C894 C 0.85241 0.00757 0.43387 0.0
C895 C 0.86668 0.9867 0.39982 0.0
C896 C 0.8781 0.96135 0.41495 0.0
C897 C 0.87977 0.95952 0.46413 0.0
C898 C 0.95322 0.97816 0.63475 0.0
C899 C 0.96558 0.92886 0.51 0.0
O900 O 0.94955 0.87096 0.6451 0.0
O901 O 0.98673 0.89562 0.63065 0.0
O902 O 0.93568 0.88097 0.55136 0.0
O903 O 0.90751 0.91171 0.58683 0.0
O904 O 0.93128 0.93029 0.68511 0.0
O905 O 0.8973 0.95958 0.66185 0.0
O906 O 0.9032 0.99322 0.54821 0.0
O907 O 0.87249 0.96227 0.57151 0.0
O908 O 0.92969 0.99135 0.63333 0.0
O909 O 0.95529 0.95558 0.6042 0.0
O910 O 0.94096 0.94295 0.51489 0.0
O911 O 0.97499 0.91775 0.54771 0.0
H912 H 0.97713 0.82443 0.6967 0.0
H913 H 0.98255 0.82012 0.78279 0.0
H914 H 0.99228 0.91383 0.80662 0.0
H915 H 0.98655 0.91823 0.7208 0.0
H916 H 0.84476 0.02296 0.50953 0.0
H917 H 0.84378 0.02746 0.4224 0.0
H918 H 0.88927 0.94528 0.38882 0.0
H919 H 0.89248 0.94224 0.47499 0.0
La920 La 0.32835 0.68435 0.99697 0.0
La921 La 0.28212 0.65099 0.95254 0.0
C922 C 0.35149 0.71786 0.05923 0.0
C923 C 0.34396 0.73091 0.11148 0.0
C924 C 0.35092 0.75992 0.12688 0.0
C925 C 0.34438 0.77234 0.17558 0.0
C926 C 0.33056 0.75628 0.21106 0.0
C927 C 0.32309 0.72742 0.19513 0.0
C928 C 0.32988 0.71498 0.14663 0.0
C929 C 0.34794 0.64425 0.92078 0.0
C930 C 0.28214 0.65275 0.0674 0.0
C931 C 0.25137 0.61529 0.90951 0.0
C932 C 0.24441 0.59914 0.86385 0.0
C933 C 0.22171 0.60924 0.84195 0.0
C934 C 0.21781 0.59894 0.79432 0.0
C935 C 0.23708 0.57911 0.76758 0.0
C936 C 0.2564 0.56479 0.79236 0.0
C937 C 0.25998 0.57469 0.84081 0.0
C938 C 0.26653 0.70489 0.99521 0.0
C939 C 0.3156 0.6983 0.89295 0.0
O940 O 0.35638 0.68934 0.05094 0.0
O941 O 0.33725 0.72735 1.02575 0.0
O942 O 0.36126 0.66603 0.94083 0.0
O943 O 0.32632 0.64187 0.95176 0.0
O944 O 0.30421 0.66896 0.06181 0.0
O945 O 0.27142 0.64052 1.02839 0.0
O946 O 0.24849 0.64392 0.91218 0.0
O947 O 0.27298 0.607 0.93034 0.0
O948 O 0.25114 0.68207 0.99326 0.0
O949 O 0.28934 0.69494 0.97585 0.0
O950 O 0.29966 0.67476 0.89136 0.0
O951 O 0.32601 0.70906 0.93367 0.0
H952 H 0.36171 0.77305 0.10119 0.0
H953 H 0.35067 0.7945 0.18562 0.0
H954 H 0.31166 0.7143 0.22003 0.0
H955 H 0.32408 0.69274 0.1368 0.0
H956 H 0.20817 0.62671 0.86033 0.0
H957 H 0.20162 0.60899 0.77673 0.0
H958 H 0.2709 0.5487 0.77279 0.0
H959 H 0.27672 0.5654 0.85799 0.0
La960 La 0.41164 0.06164 0.81007 0.0
La961 La 0.45291 0.0928 0.75375 0.0
C962 C 0.38623 0.03619 0.87833 0.0
C963 C 0.39144 0.02362 0.92543 0.0
C964 C 0.37991 0.99674 0.93628 0.0
C965 C 0.3829 0.9853 0.98112 0.0
C966 C 0.39766 0.00022 1.01717 0.0
C967 C 0.40922 0.02721 1.00625 0.0
C968 C 0.4062 0.03864 0.96128 0.0
C969 C 0.3895 0.10448 0.76175 0.0
C970 C 0.46244 0.09013 0.86241 0.0
C971 C 0.47952 0.12323 0.69533 0.0
C972 C 0.4809 0.12884 0.64407 0.0
C973 C 0.5066 0.12547 0.61674 0.0
C974 C 0.50874 0.12764 0.56689 0.0
C975 C 0.48522 0.13352 0.54348 0.0
C976 C 0.45955 0.13788 0.57113 0.0
C977 C 0.45736 0.13521 0.6211 0.0
C978 C 0.47306 0.04071 0.76823 0.0
C979 C 0.41264 0.0469 0.70053 0.0
O980 O 0.38708 0.06479 0.87727 0.0
O981 O 0.39722 0.02236 0.83717 0.0
O982 O 0.37755 0.08106 0.7749 0.0
O983 O 0.41191 0.1055 0.7835 0.0
O984 O 0.44379 0.0698 0.86017 0.0
O985 O 0.46678 0.10664 0.82599 0.0
O986 O 0.48623 0.09641 0.70206 0.0
O987 O 0.45832 0.13351 0.72492 0.0
O988 O 0.48554 0.06524 0.77441 0.0
O989 O 0.44828 0.04717 0.76248 0.0
O990 O 0.4294 0.06954 0.69776 0.0
O991 O 0.40586 0.03603 0.74241 0.0
H992 H 0.36805 0.98466 0.91017 0.0
H993 H 0.37301 0.96493 0.9879 0.0
H994 H 0.42083 0.03951 1.03247 0.0
H995 H 0.41524 0.05942 0.95473 0.0
H996 H 0.52497 0.12025 0.63381 0.0
H997 H 0.52873 0.1239 0.54641 0.0
H998 H 0.44118 0.14297 0.55407 0.0
H999 H 0.43733 0.13747 0.64138 0.0
La1000 La 0.69979 0.65606 0.54515 0.0
La1001 La 0.66261 0.69365 0.49585 0.0
C1002 C 0.72992 0.63443 0.60406 0.0
C1003 C 0.73916 0.63838 0.65466 0.0
C1004 C 0.73728 0.61474 0.68356 0.0
C1005 C 0.74798 0.61631 0.72923 0.0
C1006 C 0.76092 0.64172 0.74805 0.0
C1007 C 0.76253 0.6656 0.71927 0.0
C1008 C 0.75184 0.66397 0.67337 0.0
C1009 C 0.657 0.62926 0.50691 0.0
C1010 C 0.66101 0.70458 0.60674 0.0
C1011 C 0.63002 0.71368 0.43997 0.0
C1012 C 0.63024 0.71943 0.38825 0.0
C1013 C 0.623 0.74769 0.37736 0.0
C1014 C 0.6227 0.75399 0.32909 0.0
C1015 C 0.62972 0.73217 0.29038 0.0
C1016 C 0.63666 0.70371 0.30122 0.0
C1017 C 0.63699 0.6974 0.34968 0.0
C1018 C 0.7092 0.72018 0.513 0.0
C1019 C 0.70961 0.65011 0.43432 0.0
O1020 O 0.70427 0.62748 0.59948 0.0
O1021 O 0.73875 0.65233 0.57222 0.0
O1022 O 0.68098 0.61725 0.50981 0.0
O1023 O 0.65695 0.65471 0.52988 0.0
O1024 O 0.68481 0.69028 0.60088 0.0
O1025 O 0.64512 0.70539 0.57073 0.0
O1026 O 0.64584 0.72992 0.46635 0.0
O1027 O 0.63085 0.68644 0.44989 0.0
O1028 O 0.68474 0.73202 0.52046 0.0
O1029 O 0.70626 0.693 0.50166 0.0
O1030 O 0.68681 0.66678 0.43541 0.0
O1031 O 0.72114 0.64548 0.47423 0.0
H1032 H 0.72806 0.59452 0.67017 0.0
H1033 H 0.74682 0.59711 0.74908 0.0
H1034 H 0.77215 0.68564 0.73221 0.0
H1035 H 0.75387 0.68263 0.65229 0.0
H1036 H 0.61742 0.76497 0.40638 0.0
H1037 H 0.61661 0.77592 0.32206 0.0
H1038 H 0.64211 0.68643 0.27218 0.0
H1039 H 0.64247 0.67533 0.35689 0.0
La1040 La 0.08716 0.93434 0.26043 0.0
La1041 La 0.04034 0.90901 0.21127 0.0
C1042 C 0.11194 0.96156 0.32813 0.0
C1043 C 0.10588 0.97318 0.38206 0.0
C1044 C 0.11753 0.95944 0.41923 0.0
C1045 C 0.11347 0.97102 0.46901 0.0
C1046 C 0.09749 0.99699 0.48434 0.0
C1047 C 0.08604 0.01082 0.44693 0.0
C1048 C 0.09009 0.99923 0.39723 0.0
C1049 C 0.10502 0.89181 0.18625 0.0
C1050 C 0.03615 0.90601 0.32302 0.0
C1051 C 0.00952 0.88 0.15659 0.0
C1052 C 0.00422 0.87261 0.10544 0.0
C1053 C 0.98217 0.88684 0.08722 0.0
C1054 C 0.97799 0.88218 1.0381 0.0
C1055 C 0.99571 0.86311 1.00653 0.0
C1056 C 0.01675 0.84751 1.02498 0.0
C1057 C 0.02076 0.85189 0.07438 0.0
C1058 C 0.02667 0.96077 0.2574 0.0
C1059 C 0.08233 0.94856 0.15458 0.0
O1060 O 0.11385 0.93295 0.31657 0.0
O1061 O 0.09968 0.97455 0.29527 0.0
O1062 O 0.12 0.91128 0.20841 0.0
O1063 O 0.08202 0.89309 0.2146 0.0
O1064 O 0.05864 0.92157 0.32127 0.0
O1065 O 0.02719 0.89427 0.28228 0.0
O1066 O 0.00513 0.90744 0.17362 0.0
O1067 O 0.03162 0.86885 0.1722 0.0
O1068 O 0.01235 0.93734 0.26087 0.0
O1069 O 0.05017 0.95253 0.2366 0.0
O1070 O 0.05658 0.94006 0.16079 0.0
O1071 O 0.09699 0.95394 0.19254 0.0
H1072 H 0.13016 0.93964 0.40977 0.0
H1073 H 0.1228 0.95935 0.49569 0.0
H1074 H 0.0743 0.03123 0.45574 0.0
H1075 H 0.08103 0.01109 0.37047 0.0
H1076 H 0.96867 0.90235 0.11068 0.0
H1077 H 0.96165 0.8944 1.02436 0.0
H1078 H 0.03055 0.83263 1.00091 0.0
H1079 H 0.03751 0.8401 0.08765 0.0
La1080 La 0.78076 0.35048 1.00083 0.0
La1081 La 0.82412 0.31171 1.03553 0.0
C1082 C 0.75672 0.39155 0.96613 0.0
C1083 C 0.76105 0.4065 0.9221 0.0
C1084 C 0.7431 0.42951 0.91483 0.0
C1085 C 0.74426 0.44065 0.86965 0.0
C1086 C 0.76342 0.42882 0.83145 0.0
C1087 C 0.78255 0.40708 0.84011 0.0
C1088 C 0.78132 0.39597 0.8851 0.0
C1089 C 0.76425 0.29644 1.01341 0.0
C1090 C 0.81869 0.30753 0.92043 0.0
C1091 C 0.8519 0.2757 0.07469 0.0
C1092 C 0.84668 0.26131 0.11915 0.0
C1093 C 0.86822 0.25769 0.14837 0.0
C1094 C 0.86294 0.2467 0.19332 0.0
C1095 C 0.83611 0.23906 0.20905 0.0
C1096 C 0.8146 0.24248 0.17969 0.0
C1097 C 0.8198 0.25374 0.13506 0.0
C1098 C 0.84552 0.35743 0.99612 0.0
C1099 C 0.77568 0.34258 0.11448 0.0
O1100 O 0.75032 0.36392 0.95881 0.0
O1101 O 0.77523 0.39576 0.99731 0.0
O1102 O 0.74853 0.31999 1.0214 0.0
O1103 O 0.78783 0.30492 1.00068 0.0
O1104 O 0.80194 0.33125 0.92979 0.0
O1105 O 0.82804 0.29441 0.95705 0.0
O1106 O 0.85442 0.30417 0.08196 0.0
O1107 O 0.83634 0.26806 1.03972 0.0
O1108 O 0.85885 0.33442 1.00535 0.0
O1109 O 0.82177 0.35681 1.01989 0.0
O1110 O 0.79646 0.32305 0.10414 0.0
O1111 O 0.76736 0.35796 0.07997 0.0
H1112 H 0.7273 0.43778 0.94317 0.0
H1113 H 0.72919 0.45726 0.86364 0.0
H1114 H 0.79712 0.39704 0.81109 0.0
H1115 H 0.79539 0.37827 0.8902 0.0
H1116 H 0.88897 0.26387 0.13678 0.0
H1117 H 0.87973 0.24401 0.21567 0.0
H1118 H 0.79375 0.2368 0.19163 0.0
H1119 H 0.80279 0.25697 0.11343 0.0
La1120 La 0.41478 0.96318 0.32236 0.0
La1121 La 0.44778 0.91351 0.26837 0.0
C1122 C 0.37768 0.99068 0.37855 0.0
C1123 C 0.36736 0.98959 0.42921 0.0
C1124 C 0.34936 0.01188 0.45219 0.0
C1125 C 0.34663 0.01679 0.5028 0.0
C1126 C 0.36265 -5e-05 0.52999 0.0
C1127 C 0.37684 0.97468 0.50718 0.0
C1128 C 0.37934 0.96961 0.45671 0.0
C1129 C 0.4569 0.98116 0.26862 0.0
C1130 C 0.46326 0.93035 0.37317 0.0
C1131 C 0.47547 0.87699 0.20907 0.0
C1132 C 0.4863 0.87761 0.15823 0.0
C1133 C 0.48796 0.85167 0.12684 0.0
C1134 C 0.49655 0.85235 0.07761 0.0
C1135 C 0.50371 0.87902 0.05921 0.0
C1136 C 0.50267 0.90489 0.09112 0.0
C1137 C 0.49369 0.90425 0.14015 0.0
C1138 C 0.40606 0.89906 0.3302 0.0
C1139 C 0.41284 0.95472 0.20773 0.0
O1140 O 0.40307 -0.00042 0.372 0.0
O1141 O 0.37315 0.96749 0.34917 0.0
O1142 O 0.43418 0.99634 0.28071 0.0
O1143 O 0.45653 0.95821 0.29072 0.0
O1144 O 0.43973 0.9466 0.37971 0.0
O1145 O 0.47262 0.91854 0.32927 0.0
O1146 O 0.44856 0.87669 0.21678 0.0
O1147 O 0.48639 0.89544 0.24053 0.0
O1148 O 0.42962 0.88533 0.32197 0.0
O1149 O 0.40617 0.91898 0.30186 0.0
O1150 O 0.43316 0.93511 0.20744 0.0
O1151 O 0.40013 0.96678 0.24964 0.0
H1152 H 0.33969 0.0272 0.43116 0.0
H1153 H 0.33513 0.0361 0.52006 0.0
H1154 H 0.38903 0.96122 0.5276 0.0
H1155 H 0.393 0.95209 0.43919 0.0
H1156 H 0.48206 0.831 0.1402 0.0
H1157 H 0.49688 0.83214 0.05368 0.0
H1158 H 0.50852 0.92566 0.07815 0.0
H1159 H 0.49217 0.9246 0.16374 0.0
La1160 La 0.79811 0.66508 0.04927 0.0
La1161 La 0.84218 0.69505 1.00907 0.0
C1162 C 0.76922 0.63143 0.09755 0.0
C1163 C 0.76921 0.62129 0.14545 0.0
C1164 C 0.75049 0.6001 0.1589 0.0
C1165 C 0.7458 0.59508 0.20757 0.0
C1166 C 0.75959 0.61156 0.24283 0.0
C1167 C 0.78076 0.63012 0.22824 0.0
C1168 C 0.78556 0.63496 0.17955 0.0
C1169 C 0.77815 0.70407 0.99432 0.0
C1170 C 0.82022 0.72119 0.10945 0.0
C1171 C 0.87673 0.71788 0.95191 0.0
C1172 C 0.87502 0.72541 0.90164 0.0
C1173 C 0.89874 0.72394 0.86872 0.0
C1174 C 0.89699 0.72962 0.82036 0.0
C1175 C 0.87146 0.73684 0.80406 0.0
C1176 C 0.84776 0.73853 0.83724 0.0
C1177 C 0.84948 0.7327 0.88548 0.0
C1178 C 0.85814 0.66285 0.08024 0.0
C1179 C 0.81 0.65283 0.93699 0.0
O1180 O 0.76341 0.65946 0.09723 0.0
O1181 O 0.79034 0.62243 0.06692 0.0
O1182 O 0.76777 0.67916 1.00274 0.0
O1183 O 0.79854 0.708 1.02006 0.0
O1184 O 0.80814 0.69557 0.11185 0.0
O1185 O 0.83118 0.7287 0.06751 0.0
O1186 O 0.87671 0.68978 0.95727 0.0
O1187 O 0.86035 0.73307 0.98571 0.0
O1188 O 0.86782 0.68747 0.06846 0.0
O1189 O 0.84164 0.65496 1.04773 0.0
O1190 O 0.82594 0.67545 0.94241 0.0
O1191 O 0.79995 0.64106 0.97614 0.0
H1192 H 0.73807 0.58914 0.1325 0.0
H1193 H 0.72947 0.5806 0.21827 0.0
H1194 H 0.79146 0.6433 0.25482 0.0
H1195 H 0.80037 0.65111 0.16922 0.0
H1196 H 0.91859 0.71819 0.88032 0.0
H1197 H 0.91565 0.72853 0.79572 0.0
H1198 H 0.8278 0.74386 0.82562 0.0
H1199 H 0.83079 0.7336 0.91001 0.0
La1200 La 0.07837 0.03619 0.80762 0.0
La1201 La 0.04666 0.08649 0.78453 0.0
C1202 C 0.11349 0.0024 0.83603 0.0
C1203 C 0.12635 0.9973 0.87972 0.0
C1204 C 0.11873 0.01492 0.923 0.0
C1205 C 0.1239 0.00489 0.967 0.0
C1206 C 0.13666 0.97708 0.968 0.0
C1207 C 0.14791 0.96171 0.92418 0.0
C1208 C 0.14245 0.97167 0.88002 0.0
C1209 C 0.0368 0.01949 0.75911 0.0
C1210 C 0.03044 0.06769 0.88761 0.0
C1211 C 0.0205 0.12555 0.7489 0.0
C1212 C 0.01054 0.12867 0.70133 0.0
C1213 C 0.0156 0.15464 0.67955 0.0
C1214 C 0.00881 0.15703 0.63232 0.0
C1215 C 0.99683 0.13347 0.60633 0.0
C1216 C 0.99058 0.10801 0.62901 0.0
C1217 C 0.99765 0.10547 0.67602 0.0
C1218 C 0.08609 0.10042 0.84343 0.0
C1219 C 0.08059 0.04666 0.69556 0.0
O1220 O 0.08705 0.99745 0.83794 0.0
O1221 O 0.11969 0.02666 0.81684 0.0
O1222 O 0.05985 0.00501 0.75754 0.0
O1223 O 0.03642 0.04153 0.7907 0.0
O1224 O 0.05328 0.0503 0.87938 0.0
O1225 O 0.02159 0.08139 0.85199 0.0
O1226 O 0.00865 0.10577 0.77428 0.0
O1227 O 0.04737 0.12497 0.74935 0.0
O1228 O 0.0625 0.11365 0.84467 0.0
O1229 O 0.08808 0.08126 0.80668 0.0
O1230 O 0.06016 0.06593 0.70993 0.0
O1231 O 0.09411 0.03526 0.72911 0.0
H1232 H 0.10649 0.03493 0.92302 0.0
H1233 H 0.11498 0.01743 1.00004 0.0
H1234 H 0.15859 0.94075 0.92402 0.0
H1235 H 0.14877 0.95813 0.84642 0.0
H1236 H 0.02549 0.17276 0.6986 0.0
H1237 H 0.01337 0.17708 0.61578 0.0
H1238 H 0.98122 0.08965 0.60966 0.0
H1239 H 0.99371 0.08511 0.69192 0.0
La1240 La 0.71483 0.35134 0.43052 0.0
La1241 La 0.66925 0.31849 0.38776 0.0
C1242 C 0.7437 0.38548 0.4803 0.0
C1243 C 0.745 0.39674 0.53119 0.0
C1244 C 0.73648 0.3795 0.56857 0.0
C1245 C 0.73976 0.3894 0.61667 0.0
C1246 C 0.7514 0.41678 0.62817 0.0
C1247 C 0.75988 0.43408 0.59077 0.0
C1248 C 0.75667 0.42406 0.54243 0.0
C1249 C 0.73043 0.29657 0.39302 0.0
C1250 C 0.67921 0.30768 0.49364 0.0
C1251 C 0.64409 0.28719 0.32602 0.0
C1252 C 0.65087 0.2745 0.27363 0.0
C1253 C 0.63108 0.27554 0.23984 0.0
C1254 C 0.63668 0.26322 0.19105 0.0
C1255 C 0.66236 0.24935 0.17396 0.0
C1256 C 0.68218 0.24827 0.20792 0.0
C1257 C 0.6766 0.26072 0.25674 0.0
C1258 C 0.64985 0.35983 0.46138 0.0
C1259 C 0.7163 0.34801 0.31646 0.0
O1260 O 0.74881 0.35732 0.47042 0.0
O1261 O 0.72285 0.39454 0.45848 0.0
O1262 O 0.74568 0.31946 0.39199 0.0
O1263 O 0.70738 0.30638 0.41179 0.0
O1264 O 0.69558 0.33072 0.49321 0.0
O1265 O 0.66942 0.29555 0.4532 0.0
O1266 O 0.64061 0.31586 0.33454 0.0
O1267 O 0.65785 0.27654 0.35918 0.0
O1268 O 0.63672 0.3374 0.44334 0.0
O1269 O 0.67113 0.36182 0.42961 0.0
O1270 O 0.69561 0.33003 0.32263 0.0
O1271 O 0.72531 0.36266 0.35522 0.0
H1272 H 0.7277 0.35822 0.56056 0.0
H1273 H 0.73327 0.37559 0.64495 0.0
H1274 H 0.76865 0.45536 0.59897 0.0
H1275 H 0.76351 0.43748 0.51381 0.0
H1276 H 0.61102 0.28574 0.2513 0.0
H1277 H 0.62055 0.26415 0.16685 0.0
H1278 H 0.70223 0.23804 0.19658 0.0
H1279 H 0.69251 0.25948 0.28133 0.0
C1280 C 0.11491 0.48659 0.22948 0.0
C1281 C 0.09841 0.46165 0.23016 0.0
C1282 C 0.12724 0.49762 0.27084 0.0
C1283 C 0.12409 0.48347 0.31345 0.0
H1284 H 0.11806 0.49794 0.19706 0.0
H1285 H 0.13902 0.51743 0.26975 0.0
S1286 S 0.08357 0.4173 0.33422 0.0
N1287 N 0.07979 0.42312 0.27748 0.0
N1288 N 0.10349 0.44359 0.35461 0.0
C1289 C 0.10809 0.4583 0.31446 0.0
C1290 C 0.09508 0.44744 0.27293 0.0
C1291 C 0.7402 0.88783 0.55967 0.0
C1292 C 0.75438 0.88577 0.60098 0.0
C1293 C 0.75274 0.8781 0.51332 0.0
C1294 C 0.77938 0.86506 0.5074 0.0
H1295 H 0.71895 0.89576 0.56348 0.0
H1296 H 0.74088 0.87929 0.48239 0.0
S1297 S 0.82546 0.85634 0.60484 0.0
N1298 N 0.79686 0.87176 0.63333 0.0
N1299 N 0.82012 0.85251 0.54675 0.0
C1300 C 0.79414 0.86416 0.54849 0.0
C1301 C 0.78167 0.87474 0.59524 0.0
C1302 C 0.41685 0.51797 0.80457 0.0
C1303 C 0.39936 0.52644 0.77097 0.0
C1304 C 0.40643 0.50342 0.84367 0.0
C1305 C 0.37816 0.49755 0.85064 0.0
H1306 H 0.43864 0.52261 0.80058 0.0
H1307 H 0.42037 0.49782 0.86983 0.0
S1308 S 0.32408 0.51591 0.77285 0.0
N1309 N 0.35279 0.52795 0.74612 0.0
N1310 N 0.33296 0.50128 0.82145 0.0
C1311 C 0.36051 0.50578 0.81716 0.0
C1312 C 0.37123 0.52008 0.77669 0.0
C1313 C 0.73566 0.09776 0.19542 0.0
C1314 C 0.74999 0.07471 0.21268 0.0
C1315 C 0.73322 0.09825 0.14591 0.0
C1316 C 0.74481 0.07555 0.11191 0.0
H1317 H 0.72686 0.11596 0.22033 0.0
H1318 H 0.7228 0.11703 0.13413 0.0
S1319 S 0.7837 0.00977 0.13944 0.0
N1320 N 0.77577 0.02859 0.19302 0.0
N1321 N 0.77057 0.02894 0.09919 0.0
C1322 C 0.759 0.05215 0.12885 0.0
C1323 C 0.76174 0.05187 0.17948 0.0
C1324 C 0.89989 0.55558 0.11972 0.0
C1325 C 0.8998 0.53866 0.15921 0.0
C1326 C 0.88626 0.54644 0.07938 0.0
C1327 C 0.87256 0.51969 0.07645 0.0
H1328 H 0.91042 0.57624 0.11985 0.0
H1329 H 0.88777 0.55977 0.04909 0.0
S1330 S 0.86662 0.46685 0.16931 0.0
N1331 N 0.88471 0.49384 0.19323 0.0
N1332 N 0.85962 0.4762 0.11567 0.0
C1333 C 0.87211 0.5025 0.11555 0.0
C1334 C 0.88569 0.51206 0.15733 0.0
C1335 C 0.23054 0.16061 0.8551 0.0
C1336 C 0.22802 0.14064 0.89029 0.0
C1337 C 0.2445 0.15254 0.80975 0.0
C1338 C 0.25592 0.12411 0.79795 0.0
H1339 H 0.22138 0.18253 0.86243 0.0
H1340 H 0.24527 0.16823 0.78285 0.0
S1341 S 0.25619 0.06432 0.87822 0.0
N1342 N 0.23959 0.09201 0.91208 0.0
N1343 N 0.26485 0.07625 0.8247 0.0
C1344 C 0.25429 0.10412 0.83304 0.0
C1345 C 0.24065 0.11263 0.88001 0.0
C1346 C 0.59549 0.48694 0.54167 0.0
C1347 C 0.622 0.47603 0.52223 0.0
C1348 C 0.58417 0.48516 0.58993 0.0
C1349 C 0.59864 0.47428 0.62615 0.0
H1350 H 0.5825 0.49711 0.51799 0.0
H1351 H 0.56285 0.49237 0.59911 0.0
S1352 S 0.68739 0.43755 0.6064 0.0
N1353 N 0.67064 0.44965 0.54083 0.0
N1354 N 0.64853 0.45081 0.64886 0.0
C1355 C 0.62484 0.46294 0.61382 0.0
C1356 C 0.63785 0.4618 0.55136 0.0
C1357 C 0.21264 0.94218 0.26947 0.0
C1358 C 0.21947 0.91514 0.28596 0.0
C1359 C 0.21288 0.94498 0.21959 0.0
C1360 C 0.22023 0.92085 0.1854 0.0
H1361 H 0.20766 0.96131 0.29523 0.0
H1362 H 0.20825 0.96619 0.20766 0.0
S1363 S 0.23931 0.84543 0.20991 0.0
N1364 N 0.23336 0.86384 0.26423 0.0
N1365 N 0.23357 0.86915 0.17061 0.0
C1366 C 0.22631 0.8936 0.20144 0.0
C1367 C 0.226 0.89071 0.25184 0.0
C1368 C 0.63186 0.99274 0.765 0.0
C1369 C 0.61487 0.9965 0.80874 0.0
C1370 C 0.62178 0.97929 0.72305 0.0
C1371 C 0.59498 0.96829 0.72481 0.0
H1372 H 0.65316 0.99928 0.76373 0.0
H1373 H 0.63549 0.97599 0.68984 0.0
S1374 S 0.54187 0.97558 0.82998 0.0
N1375 N 0.56949 0.99075 0.85084 0.0
N1376 N 0.55087 0.96457 0.77216 0.0
C1377 C 0.57748 0.97319 0.76785 0.0
C1378 C 0.58742 0.98752 0.80996 0.0
C1379 C 0.25301 0.38037 1.01286 0.0
C1380 C 0.2798 0.36773 1.00703 0.0
C1381 C 0.2404 0.39019 0.05918 0.0
C1382 C 0.25464 0.38858 0.10059 0.0
H1383 H 0.24106 0.38106 0.98193 0.0
H1384 H 0.21906 0.39778 0.06291 0.0
S1385 S 0.32622 0.36063 0.10453 0.0
N1386 N 0.32083 0.35635 1.04649 0.0
N1387 N 0.29742 0.37559 0.13293 0.0
C1388 C 0.2821 0.37806 0.09486 0.0
C1389 C 0.29466 0.36746 1.04814 0.0
C1390 C 0.8738 0.01165 0.27455 0.0
C1391 C 0.90044 0.02316 0.27272 0.0
C1392 C 0.86281 0.99892 0.31551 0.0
C1393 C 0.87866 0.99658 0.35449 0.0
H1394 H 0.86089 0.01383 0.24525 0.0
H1395 H 0.84179 0.99149 0.31722 0.0
S1396 S 0.95035 0.0206 0.36506 0.0
N1397 N 0.94284 0.02994 0.31172 0.0
N1398 N 0.92255 0.00496 0.38828 0.0
C1399 C 0.90577 0.00667 0.35203 0.0
C1400 C 0.91665 0.02023 0.31105 0.0
C1401 C 0.24985 0.55314 0.63244 0.0
C1402 C 0.25187 0.57988 0.61149 0.0
C1403 C 0.2448 0.55274 0.6831 0.0
C1404 C 0.24112 0.57907 0.714 0.0
H1405 H 0.25249 0.53251 0.60959 0.0
H1406 H 0.24367 0.53181 0.69816 0.0
S1407 S 0.24447 0.65482 0.67656 0.0
N1408 N 0.24916 0.63319 0.62518 0.0
N1409 N 0.24091 0.63256 0.71983 0.0
C1410 C 0.2432 0.60589 0.69317 0.0
C1411 C 0.24819 0.60626 0.64205 0.0
C1412 C 0.38581 0.00839 0.65675 0.0
C1413 C 0.3999 0.035 0.65694 0.0
C1414 C 0.37244 0.99753 0.61638 0.0
C1415 C 0.37216 0.01338 0.57564 0.0
H1416 H 0.38541 0.99563 0.68766 0.0
H1417 H 0.36268 0.97646 0.61662 0.0
S1418 S 0.40558 0.08419 0.55816 0.0
N1419 N 0.41285 0.0767 0.61248 0.0
N1420 N 0.38709 0.05674 0.53753 0.0
C1421 C 0.38579 0.04017 0.57571 0.0
C1422 C 0.39991 0.05083 0.61607 0.0
C1423 C 0.71913 0.62575 0.3005 0.0
C1424 C 0.74687 0.61615 0.29307 0.0
C1425 C 0.70736 0.63644 0.3465 0.0
C1426 C 0.72275 0.63756 0.38693 0.0
H1427 H 0.70674 0.62647 0.27012 0.0
H1428 H 0.68604 0.64406 0.35015 0.0
S1429 S 0.79599 0.61362 0.38677 0.0
N1430 N 0.78931 0.6074 0.32942 0.0
N1431 N 0.76704 0.62718 0.417 0.0
C1432 C 0.7503 0.627 0.3804 0.0
C1433 C 0.7624 0.61637 0.33314 0.0
C1434 C 0.11495 0.97281 0.10038 0.0
C1435 C 0.09583 0.95013 0.10424 0.0
C1436 C 0.13107 0.97857 0.05786 0.0
C1437 C 0.13124 0.96203 1.01242 0.0
H1438 H 0.11697 0.98824 0.13205 0.0
H1439 H 0.14279 0.99849 0.06007 0.0
S1440 S 0.09231 0.87568 0.95824 0.0
N1441 N 0.07239 0.88215 1.02912 0.0
N1442 N 0.11716 0.91208 0.96174 0.0
C1443 C 0.11739 0.93578 1.00994 0.0
C1444 C 0.09452 0.92918 0.06111 0.0
C1445 C 0.7311 0.42568 0.71378 0.0
C1446 C 0.75405 0.42692 0.67957 0.0
C1447 C 0.73395 0.42928 0.76355 0.0
C1448 C 0.75989 0.43412 0.78077 0.0
H1449 H 0.71107 0.42022 0.70198 0.0
H1450 H 0.71609 0.42589 0.78846 0.0
S1451 S 0.82556 0.44391 0.70616 0.0
N1452 N 0.80291 0.43673 0.66604 0.0
N1453 N 0.80823 0.44385 0.76022 0.0
C1454 C 0.78255 0.43798 0.74706 0.0
C1455 C 0.77964 0.43434 0.69621 0.0
C1456 C 0.14054 0.37938 0.24932 0.0
C1457 C 0.13144 0.3518 0.2629 0.0
C1458 C 0.13289 0.39141 0.20603 0.0
C1459 C 0.11518 0.37726 0.17291 0.0
H1460 H 0.15378 0.39198 0.2723 0.0
H1461 H 0.14098 0.41255 0.19868 0.0
S1462 S 0.08866 0.30254 0.18616 0.0
N1463 N 0.10528 0.30961 0.23506 0.0
N1464 N 0.0917 0.33183 0.15596 0.0
C1465 C 0.10672 0.34933 0.18529 0.0
C1466 C 0.11453 0.33696 0.22916 0.0
C1467 C 0.86657 0.89645 0.50954 0.0
C1468 C 0.894 0.88592 0.5083 0.0
C1469 C 0.85096 0.89108 0.46897 0.0
C1470 C 0.86156 0.87396 0.42571 0.0
H1471 H 0.85704 0.90903 0.54201 0.0
H1472 H 0.83005 0.89991 0.47212 0.0
S1473 S 0.93221 0.84124 0.40287 0.0
N1474 N 0.93111 0.85776 0.4587 0.0
N1475 N 0.90163 0.84733 0.38411 0.0
C1476 C 0.88894 0.86352 0.42387 0.0
C1477 C 0.90499 0.86928 0.46475 0.0
C1478 C 0.38567 0.62946 0.8476 0.0
C1479 C 0.35724 0.62998 0.8667 0.0
C1480 C 0.39556 0.62057 0.7972 0.0
C1481 C 0.37789 0.61247 0.76042 0.0
H1482 H 0.40086 0.63609 0.87232 0.0
H1483 H 0.41744 0.6197 0.78718 0.0
S1484 S 0.30169 0.61424 0.78513 0.0
N1485 N 0.31175 0.62197 0.84009 0.0
N1486 N 0.32981 0.60847 0.74758 0.0
C1487 C 0.34956 0.6133 0.77858 0.0
C1488 C 0.33949 0.62108 0.83025 0.0
C1489 C 0.64837 0.10382 0.95121 0.0
C1490 C 0.6452 0.13372 0.9438 0.0
C1491 C 0.63391 0.09201 0.99171 0.0
C1492 C 0.61491 0.10933 1.02481 0.0
H1493 H 0.66094 0.08923 0.92459 0.0
H1494 H 0.63655 0.06898 0.99546 0.0
S1495 S 0.60386 0.1899 1.02875 0.0
N1496 N 0.62488 0.18108 0.97931 0.0
N1497 N 0.59829 0.15878 0.05267 0.0
C1498 C 0.61393 0.13955 1.02039 0.0
C1499 C 0.62866 0.15164 0.98044 0.0
C1500 C 0.10285 0.60989 0.47083 0.0
C1501 C 0.11322 0.60572 0.51543 0.0
C1502 C 0.12002 0.61781 0.4307 0.0
C1503 C 0.14841 0.62274 0.43316 0.0
H1504 H 0.08094 0.60833 0.46746 0.0
H1505 H 0.11036 0.62279 0.3987 0.0
S1506 S 0.18558 0.61501 0.54252 0.0
N1507 N 0.15372 0.60621 0.55956 0.0
N1508 N 0.1859 0.62175 0.48504 0.0
C1509 C 0.15927 0.61705 0.47696 0.0
C1510 C 0.14173 0.6085 0.51779 0.0
C1511 C 0.60308 0.85059 0.69455 0.0
C1512 C 0.61458 0.87633 0.67745 0.0
C1513 C 0.61071 0.83893 0.73802 0.0
C1514 C 0.63032 0.852 0.76834 0.0
H1515 H 0.58817 0.83895 0.67389 0.0
H1516 H 0.601 0.819 0.74786 0.0
S1517 S 0.66691 0.91996 0.74191 0.0
N1518 N 0.64759 0.91416 0.69618 0.0
N1519 N 0.66048 0.89319 0.77672 0.0
C1520 C 0.6418 0.87781 0.75193 0.0
C1521 C 0.63441 0.88949 0.70731 0.0
C1522 C 0.36843 0.39772 1.00616 0.0
C1523 C 0.39567 0.38658 1.00474 0.0
C1524 C 0.35246 0.39228 0.96602 0.0
C1525 C 0.36257 0.37464 0.923 0.0
H1526 H 0.35923 0.41062 1.03857 0.0
H1527 H 0.33164 0.40138 0.96943 0.0
S1528 S 0.43282 0.34096 0.89926 0.0
N1529 N 0.43224 0.35779 0.95481 0.0
N1530 N 0.40215 0.34731 0.88106 0.0
C1531 C 0.38988 0.3639 0.92076 0.0
C1532 C 0.40625 0.36965 0.96121 0.0
C1533 C 0.85411 0.10332 0.34877 0.0
C1534 C 0.85881 0.13213 0.36986 0.0
C1535 C 0.86192 0.09336 0.29799 0.0
C1536 C 0.87623 0.11073 0.26386 0.0
H1537 H 0.84434 0.088 0.3718 0.0
H1538 H 0.85661 0.07129 0.28534 0.0
S1539 S 0.89344 0.18846 0.29755 0.0
N1540 N 0.87924 0.17808 0.3493 0.0
N1541 N 0.89321 0.15955 0.25699 0.0
C1542 C 0.88123 0.13947 0.28446 0.0
C1543 C 0.87306 0.14979 0.33595 0.0
C1544 C 0.86436 0.60948 0.18361 0.0
C1545 C 0.88256 0.62349 0.21583 0.0
C1546 C 0.85668 0.62139 0.14041 0.0
C1547 C 0.86612 0.64871 0.12648 0.0
H1548 H 0.85604 0.58851 0.19145 0.0
H1549 H 0.84309 0.60897 0.11788 0.0
S1550 S 0.91095 0.6971 0.20048 0.0
N1551 N 0.90735 0.66817 0.23142 0.0
N1552 N 0.89347 0.69038 0.15253 0.0
C1553 C 0.88348 0.66345 0.15945 0.0
C1554 C 0.8914 0.65115 0.20312 0.0
C1555 C 0.09407 0.12201 0.92816 0.0
C1556 C 0.10456 0.10548 0.88425 0.0
C1557 C 0.11038 0.1287 0.9672 0.0
C1558 C 0.13816 0.11932 0.96456 0.0
H1559 H 0.07291 0.1302 0.93245 0.0
H1560 H 0.10124 0.14188 0.99945 0.0
S1561 S 0.17594 0.07494 0.85854 0.0
N1562 N 0.14488 0.08003 0.84102 0.0
N1563 N 0.17514 0.09136 0.91443 0.0
C1564 C 0.14875 0.10199 0.92147 0.0
C1565 C 0.13216 0.0955 0.88139 0.0
C1566 C 0.65455 0.39901 0.5374 0.0
C1567 C 0.64206 0.37423 0.51577 0.0
C1568 C 0.64504 0.41815 0.58457 0.0
C1569 C 0.62547 0.40107 0.61984 0.0
H1570 H 0.67266 0.40314 0.51379 0.0
H1571 H 0.66274 0.47111 0.59966 0.0
S1572 S 0.59237 0.32984 0.58496 0.0
N1573 N 0.61029 0.3364 0.53413 0.0
N1574 N 0.59826 0.35753 0.62493 0.0
C1575 C 0.61547 0.37414 0.59823 0.0
C1576 C 0.62237 0.36207 0.5478 0.0
C1577 C 0.38091 0.88264 0.45855 0.0
C1578 C 0.35203 0.88087 0.45829 0.0
C1579 C 0.39791 0.88965 0.41775 0.0
C1580 C 0.38694 0.89677 0.37513 0.0
H1581 H 0.39085 0.87547 0.4889 0.0
H1582 H 0.42002 0.88812 0.41887 0.0
S1583 S 0.31285 0.89907 0.35582 0.0
N1584 N 0.31338 0.88866 0.41109 0.0
N1585 N 0.34525 0.90435 0.33634 0.0
C1586 C 0.35809 0.89795 0.37557 0.0
C1587 C 0.34067 0.88957 0.41665 0.0
C1588 C 0.88914 0.36402 0.87792 0.0
C1589 C 0.88457 0.39276 0.86647 0.0
C1590 C 0.87458 0.35286 0.91736 0.0
C1591 C 0.85468 0.36982 0.94908 0.0
H1592 H 0.90513 0.35001 0.85728 0.0
H1593 H 0.8802 0.33072 0.924 0.0
S1594 S 0.82902 0.44371 0.92824 0.0
N1595 N 0.85372 0.43569 0.88359 0.0
N1596 N 0.82796 0.41556 0.9613 0.0
C1597 C 0.84785 0.39773 0.93587 0.0
C1598 C 0.86234 0.40895 0.89381 0.0
C1599 C 0.3551 0.11805 0.64121 0.0
C1600 C 0.36396 0.14583 0.62828 0.0
C1601 C 0.36315 0.10564 0.68382 0.0
C1602 C 0.38121 0.11952 0.71645 0.0
H1603 H 0.3418 0.10558 0.61818 0.0
H1604 H 0.35531 0.08433 0.69075 0.0
S1605 S 0.40788 0.19421 0.7042 0.0
N1606 N 0.39036 0.18783 0.65623 0.0
N1607 N 0.40515 0.1646 0.73363 0.0
C1608 C 0.38945 0.14761 0.7048 0.0
C1609 C 0.38106 0.16047 0.66185 0.0
C1610 C 0.59532 0.62349 0.42944 0.0
C1611 C 0.60565 0.60641 0.38601 0.0
C1612 C 0.61157 0.62998 0.46864 0.0
C1613 C 0.63913 0.6199 0.46654 0.0
H1614 H 0.57433 0.63215 0.43331 0.0
H1615 H 0.60258 0.64355 0.50058 0.0
S1616 S 0.67576 0.57221 0.36307 0.0
N1617 N 0.64528 0.57888 0.34434 0.0
N1618 N 0.67526 0.58955 0.41828 0.0
C1619 C 0.64943 0.60178 0.42409 0.0
C1620 C 0.63298 0.59564 0.38376 0.0
C1621 C 0.15276 0.86853 0.06127 0.0
C1622 C 0.14036 0.87532 1.01829 0.0
C1623 C 0.14113 0.87286 0.11217 0.0
C1624 C 0.11309 0.88018 0.13065 0.0
H1625 H 0.17372 0.86046 0.05647 0.0
H1626 H 0.15535 0.86955 0.13905 0.0
S1627 S 0.04589 0.92255 0.0584 0.0
N1628 N 0.07613 0.91867 0.9996 0.0
N1629 N 0.06588 0.89885 0.10496 0.0
C1630 C 0.0966 0.88462 0.09319 0.0
C1631 C 0.113 0.88845 1.03245 0.0
C1632 C 0.97289 0.49946 0.20874 0.0
C1633 C 0.98826 0.52095 0.23334 0.0
C1634 C 0.98494 0.48076 0.16892 0.0
C1635 C 0.01303 0.48253 0.1518 0.0
H1636 H 0.95117 0.49736 0.21974 0.0
H1637 H 0.97217 0.46424 0.15228 0.0
S1638 S 0.06216 0.53607 0.20122 0.0
N1639 N 0.03328 0.54311 0.23672 0.0
N1640 N 0.05531 0.5089 0.16085 0.0
C1641 C 0.02845 0.50437 0.17525 0.0
C1642 C 0.01636 0.52307 0.21641 0.0
C1643 C 0.76644 0.7349 0.41648 0.0
C1644 C 0.76344 0.76532 0.41266 0.0
C1645 C 0.75017 0.72085 0.45125 0.0
C1646 C 0.7299 0.73645 0.48368 0.0
H1647 H 0.78198 0.72179 0.39304 0.0
H1648 H 0.75316 0.6974 0.45191 0.0
S1649 S 0.71272 0.81617 0.48786 0.0
N1650 N 0.73773 0.81027 0.44345 0.0
N1651 N 0.70758 0.78417 0.50933 0.0
C1652 C 0.72658 0.76686 0.48022 0.0
C1653 C 0.74301 0.78112 0.44443 0.0
C1654 C 0.52436 0.50361 0.71223 0.0
C1655 C 0.5101 0.4809 0.73339 0.0
C1656 C 0.51238 0.52039 0.6796 0.0
C1657 C 0.48516 0.51586 0.66717 0.0
H1658 H 0.54541 0.50793 0.71966 0.0
H1659 H 0.5245 0.53766 0.66501 0.0
S1660 S 0.43842 0.45943 0.71259 0.0
N1661 N 0.46658 0.45538 0.74031 0.0
N1662 N 0.44461 0.48632 0.67797 0.0
C1663 C 0.47059 0.49329 0.68811 0.0
C1664 C 0.48267 0.47636 0.72186 0.0
C1665 C 0.73017 0.25362 0.91359 0.0
C1666 C 0.74754 0.22849 0.90273 0.0
C1667 C 0.73391 0.2744 0.95282 0.0
C1668 C 0.75519 0.27084 0.98292 0.0
H1669 H 0.71294 0.25675 0.89245 0.0
H1670 H 0.72056 0.29384 0.95848 0.0
S1671 S 0.80584 0.20864 0.9715 0.0
N1672 N 0.78674 0.20117 0.92595 0.0
N1673 N 0.79325 0.23998 1.00015 0.0
C1674 C 0.77246 0.2457 0.97282 0.0
C1675 C 0.76897 0.22475 0.93245 0.0
C1676 C 0.00563 0.48034 0.71831 0.0
C1677 C 0.97953 0.49426 0.72537 0.0
C1678 C 0.02585 0.48909 0.68375 0.0
C1679 C 0.02057 0.5119 0.65493 0.0
H1680 H 0.01057 0.46282 0.73988 0.0
H1681 H 0.04588 0.47802 0.67994 0.0
S1682 S 0.95471 0.55371 0.65667 0.0
N1683 N 0.94899 0.53113 0.69914 0.0
N1684 N 0.98693 0.547 0.63381 0.0
C1685 C 0.99439 0.52554 0.66092 0.0
C1686 C 0.97386 0.51682 0.69623 0.0
C1687 C 0.77099 0.7558 0.96842 0.0
C1688 C 0.76257 0.72658 0.96954 0.0
C1689 C 0.75605 0.7766 0.94553 0.0
C1690 C 0.73192 0.76939 0.9223 0.0
H1691 H 0.78924 0.76275 0.98543 0.0
H1692 H 0.76362 0.79872 0.94609 0.0
S1693 S 0.70094 0.69592 0.91409 0.0
N1694 N 0.72811 0.69168 0.94443 0.0
N1695 N 0.70057 0.73056 0.90226 0.0
C1696 C 0.72327 0.74033 0.9232 0.0
C1697 C 0.73843 0.7191 0.94639 0.0
C1698 C 0.47295 0.5116 0.19611 0.0
C1699 C 0.47916 0.48781 0.1601 0.0
C1700 C 0.49249 0.52191 0.22745 0.0
C1701 C 0.51882 0.50861 0.22395 0.0
H1702 H 0.45277 0.52234 0.20026 0.0
H1703 H 0.48695 0.54029 0.25448 0.0
S1704 S 0.54567 0.44652 0.13414 0.0
N1705 N 0.51368 0.45213 0.12163 0.0
N1706 N 0.55034 0.47079 0.18052 0.0
C1707 C 0.52525 0.48482 0.18789 0.0
C1708 C 0.50543 0.47458 0.15595 0.0
C1709 C 0.76996 0.25015 0.47129 0.0
C1710 C 0.75416 0.22477 0.47354 0.0
C1711 C 0.76352 0.27237 0.44221 0.0
C1712 C 0.74101 0.27015 0.41362 0.0
H1713 H 0.78792 0.25259 0.4915 0.0
H1714 H 0.7759 0.29179 0.44331 0.0
S1715 S 0.69381 0.20769 0.40371 0.0
N1716 N 0.71534 0.19845 0.44259 0.0
N1717 N 0.70337 0.24021 0.38846 0.0
C1718 C 0.7252 0.24483 0.4151 0.0
C1719 C 0.73163 0.22224 0.4449 0.0
C1720 C 0.26584 0.23509 0.91777 0.0
C1721 C 0.26364 0.26579 0.91622 0.0
C1722 C 0.24951 0.22062 0.95187 0.0
C1723 C 0.22988 0.23607 0.98576 0.0
H1724 H 0.28078 0.22205 0.89288 0.0
H1725 H 0.25185 0.197 0.95069 0.0
S1726 S 0.21524 0.31651 0.99697 0.0
N1727 N 0.23966 0.31098 0.95145 0.0
N1728 N 0.20926 0.28395 1.01585 0.0
C1729 C 0.22748 0.26678 0.98484 0.0
C1730 C 0.24403 0.28151 0.94983 0.0
C1731 C 0.26469 0.72512 0.44103 0.0
C1732 C 0.24961 0.73011 0.40153 0.0
C1733 C 0.2653 0.74635 0.48088 0.0
C1734 C 0.25053 0.77314 0.4832 0.0
H1735 H 0.27518 0.70417 0.44215 0.0
H1736 H 0.27807 0.74212 0.50954 0.0
S1737 S 0.20918 0.79744 0.38775 0.0
N1738 N 0.22053 0.76407 0.36627 0.0
N1739 N 0.22146 0.80405 0.44115 0.0
C1740 C 0.23553 0.77845 0.44373 0.0
C1741 C 0.23527 0.75699 0.40289 0.0
C1742 C 0.23942 0.2208 0.44562 0.0
C1743 C 0.26324 0.22791 0.46992 0.0
C1744 C 0.22492 0.24164 0.42195 0.0
C1745 C 0.23348 0.27084 0.42098 0.0
H1746 H 0.23179 0.1987 0.44478 0.0
H1747 H 0.20691 0.23473 0.40415 0.0
S1748 S 0.29429 0.30135 0.47934 0.0
N1749 N 0.29427 0.26676 0.49141 0.0
N1750 N 0.2677 0.3056 0.44758 0.0
C1751 C 0.25728 0.27822 0.44526 0.0
C1752 C 0.27194 0.25698 0.46936 0.0
C1753 C 0.23981 0.72839 0.93592 0.0
C1754 C 0.25648 0.73152 0.97506 0.0
C1755 C 0.23505 0.75175 0.90819 0.0
C1756 C 0.24704 0.77913 0.91781 0.0
H1757 H 0.23094 0.70743 0.92561 0.0
H1758 H 0.22142 0.74852 0.87949 0.0
S1759 S 0.29122 0.79911 1.01793 0.0
N1760 N 0.2845 0.76422 1.02253 0.0
N1761 N 0.27514 0.80843 0.97164 0.0
C1762 C 0.26345 0.78266 0.95738 0.0
C1763 C 0.26831 0.7588 0.98551 0.0
C1764 C 0.47232 0.99611 0.7082 0.0
C1765 C 0.4877 0.01767 0.73257 0.0
C1766 C 0.48413 0.97777 0.66778 0.0
C1767 C 0.51206 0.97982 0.64983 0.0
H1768 H 0.45074 0.99365 0.71992 0.0
H1769 H 0.47132 0.96116 0.65147 0.0
S1770 S 0.56096 0.03425 0.69751 0.0
N1771 N 0.53246 0.04062 0.73427 0.0
N1772 N 0.554 0.00708 0.65722 0.0
C1773 C 0.52742 0.00196 0.67272 0.0
C1774 C 0.51557 0.02034 0.71452 0.0
C1775 C 0.98375 0.98249 0.23077 0.0
C1776 C 0.01223 0.98461 0.23589 0.0
C1777 C 0.97086 0.99852 0.19835 0.0
C1778 C 0.98546 0.01837 0.17077 0.0
H1779 H 0.97136 0.96731 0.25042 0.0
H1780 H 0.94905 0.99566 0.19576 0.0
S1781 S 0.06028 0.03294 0.17129 0.0
N1782 N 0.05451 0.00877 0.21116 0.0
N1783 N 0.03031 0.03894 0.15027 0.0
C1784 C 0.01393 0.02091 0.17566 0.0
C1785 C 0.02711 0.00451 0.20872 0.0
C1786 C 0.47367 0.01258 0.2041 0.0
C1787 C 0.47894 0.98978 0.23295 0.0
C1788 C 0.49373 0.02095 0.16885 0.0
C1789 C 0.51966 0.00662 0.16097 0.0
H1790 H 0.45376 0.0239 0.20838 0.0
H1791 H 0.48877 0.03847 0.1473 0.0
S1792 S 0.54445 0.94709 0.22947 0.0
N1793 N 0.51251 0.9544 0.25343 0.0
N1794 N 0.55001 0.96937 0.1865 0.0
C1795 C 0.52533 0.9841 0.19017 0.0
C1796 C 0.50502 0.97586 0.22637 0.0
C1797 C 0.00068 0.97626 0.6614 0.0
C1798 C 0.97414 0.98908 0.66683 0.0
C1799 C 0.02064 0.9865 0.69162 0.0
C1800 C 0.01479 0.00985 0.72851 0.0
H1801 H 0.00613 0.95832 0.63348 0.0
H1802 H 0.04095 0.97605 0.68573 0.0
S1803 S 0.94793 0.05003 0.7591 0.0
N1804 N 0.94268 0.02597 0.7127 0.0
N1805 N 0.98037 0.04488 0.76965 0.0
C1806 C 0.98829 0.02272 0.73462 0.0
C1807 C 0.96791 0.01239 0.70374 0.0
C1808 C 0.02752 0.41591 0.93754 0.0
C1809 C 0.01645 0.41051 0.98458 0.0
C1810 C 0.01069 0.42343 0.90145 0.0
C1811 C 0.98176 0.42716 0.91063 0.0
H1812 H 0.04966 0.41473 0.92859 0.0
H1813 H 0.02064 0.42701 0.86604 0.0
S1814 S 0.94187 0.41654 1.02801 0.0
N1815 N 0.97414 0.40962 1.03811 0.0
N1816 N 0.94279 0.42459 0.97111 0.0
C1817 C 0.97028 0.42202 0.95758 0.0
C1818 C 0.98746 0.41352 0.99414 0.0
C1819 C 0.82924 0.72633 0.19746 0.0
C1820 C 0.82589 0.73942 0.15437 0.0
C1821 C 0.83564 0.74323 0.23993 0.0
C1822 C 0.83877 0.77372 0.24064 0.0
H1823 H 0.82665 0.70294 0.19856 0.0
H1824 H 0.83628 0.73271 0.27315 0.0
S1825 S 0.8329 0.81843 0.13758 0.0
N1826 N 0.82729 0.78458 0.11492 0.0
N1827 N 0.83873 0.81616 0.19479 0.0
C1828 C 0.83646 0.78679 0.19744 0.0
C1829 C 0.83015 0.7697 0.15431 0.0
C1830 C 0.52492 0.57665 0.47985 0.0
C1831 C 0.51346 0.57292 0.43462 0.0
C1832 C 0.50827 0.58464 0.52449 0.0
C1833 C 0.47934 0.5892 0.52607 0.0
H1834 H 0.54694 0.57359 0.4808 0.0
H1835 H 0.51801 0.58611 0.55816 0.0
S1836 S 0.43887 0.58193 0.41854 0.0
N1837 N 0.47093 0.57448 0.39538 0.0
N1838 N 0.44036 0.5891 0.47769 0.0
C1839 C 0.46787 0.58567 0.48107 0.0
C1840 C 0.48463 0.57772 0.43603 0.0
C1841 C 0.67117 0.30256 0.62892 0.0
C1842 C 0.66206 0.27394 0.63236 0.0
C1843 C 0.67609 0.31333 0.58375 0.0
C1844 C 0.67236 0.2957 0.54042 0.0
H1845 H 0.67465 0.31664 0.66142 0.0
H1846 H 0.68291 0.33567 0.58295 0.0
S1847 S 0.64848 0.21904 0.53076 0.0
N1848 N 0.649 0.22815 0.58978 0.0
N1849 N 0.65851 0.24827 0.50412 0.0
C1850 C 0.66269 0.26714 0.54355 0.0
C1851 C 0.65751 0.25625 0.58979 0.0
C1852 C 0.97227 0.61734 0.96004 0.0
C1853 C 0.98758 0.63649 0.98935 0.0
C1854 C 0.97614 0.61595 0.90918 0.0
C1855 C 0.99536 0.63375 0.88594 0.0
H1856 H 0.95776 0.6027 0.97645 0.0
H1857 H 0.96415 0.6007 0.88788 0.0
S1858 S 0.04024 0.68794 0.94602 0.0
N1859 N 0.02196 0.67441 0.99133 0.0
N1860 N 0.02996 0.67093 0.89582 0.0
C1861 C 0.01053 0.65324 0.91477 0.0
C1862 C 0.00648 0.65481 0.96645 0.0
C1863 C 0.61509 0.72125 0.20583 0.0
C1864 C 0.62936 0.7391 0.23895 0.0
C1865 C 0.6135 0.72816 0.15784 0.0
C1866 C 0.62649 0.75292 0.14086 0.0
H1867 H 0.60462 0.70209 0.21737 0.0
H1868 H 0.60219 0.71388 0.1337 0.0
S1869 S 0.66663 0.80658 0.21275 0.0
N1870 N 0.657 0.78244 0.25097 0.0
N1871 N 0.65392 0.79541 0.16112 0.0
C1872 C 0.64101 0.77077 0.17344 0.0
C1873 C 0.64245 0.76389 0.22234 0.0
C1874 C 0.53935 0.35877 0.4005 0.0
C1875 C 0.52023 0.37136 0.438 0.0
C1876 C 0.53453 0.35991 0.3517 0.0
C1877 C 0.51074 0.37416 0.33933 0.0
H1878 H 0.55782 0.3476 0.40899 0.0
H1879 H 0.54946 0.34964 0.32348 0.0
S1880 S 0.45498 0.41127 0.42476 0.0
N1881 N 0.47712 0.39895 0.46012 0.0
N1882 N 0.46807 0.40126 0.36838 0.0
C1883 C 0.49176 0.38726 0.37668 0.0
C1884 C 0.49652 0.38581 0.42613 0.0
C1885 C 0.81115 0.30495 0.83015 0.0
C1886 C 0.82471 0.29405 0.86793 0.0
C1887 C 0.8155 0.29232 0.78117 0.0
C1888 C 0.83368 0.26795 0.76674 0.0
H1889 H 0.79665 0.32335 0.83839 0.0
H1890 H 0.80406 0.30159 0.75441 0.0
S1891 S 0.87594 0.23187 0.85028 0.0
N1892 N 0.85807 0.25768 0.88632 0.0
N1893 N 0.86651 0.2345 0.79518 0.0
C1894 C 0.8477 0.25708 0.80405 0.0
C1895 C 0.8432 0.26992 0.85404 0.0
C1896 C 0.01635 0.55683 0.43509 0.0
C1897 C 0.02084 0.57864 0.4728 0.0
C1898 C 0.99858 0.56204 0.39892 0.0
C1899 C 0.98505 0.58958 0.39752 0.0
H1900 H 0.02567 0.53514 0.43465 0.0
H1901 H 0.99504 0.54404 0.37202 0.0
S1902 S 0.99126 0.6549 0.48546 0.0
N1903 N 0.01087 0.62955 0.50487 0.0
N1904 N 0.97856 0.63922 0.43637 0.0
C1905 C 0.9903 0.61192 0.43363 0.0
C1906 C 0.00785 0.60648 0.47121 0.0
C1907 C 0.17447 0.27082 0.18893 0.0
C1908 C 0.16847 0.26025 0.23464 0.0
C1909 C 0.16819 0.25455 0.14587 0.0
C1910 C 0.15547 0.22723 0.14682 0.0
H1911 H 0.18473 0.29146 0.18612 0.0
H1912 H 0.17505 0.26247 0.11136 0.0
S1913 S 0.1334 0.19053 0.25632 0.0
N1914 N 0.14713 0.22128 0.27782 0.0
N1915 N 0.13595 0.1909 0.19664 0.0
C1916 C 0.14816 0.21708 0.19207 0.0
C1917 C 0.15447 0.23352 0.23599 0.0
C1918 C 0.51448 0.41741 0.95399 0.0
C1919 C 0.48558 0.42145 0.95491 0.0
C1920 C 0.53168 0.41084 0.91009 0.0
C1921 C 0.5211 0.40675 0.86422 0.0
H1922 H 0.52416 0.42004 0.98771 0.0
H1923 H 0.55375 0.4095 0.91211 0.0
S1924 S 0.4467 0.41367 0.84545 0.0
N1925 N 0.44717 0.42047 0.90499 0.0
N1926 N 0.47908 0.40687 0.82324 0.0
C1927 C 0.49209 0.40983 0.86458 0.0
C1928 C 0.47455 0.41747 0.90943 0.0
C1929 C 0.33291 0.70744 0.75993 0.0
C1930 C 0.33347 0.73792 0.75914 0.0
C1931 C 0.32675 0.69513 0.8035 0.0
C1932 C 0.32179 0.71264 0.84801 0.0
H1933 H 0.33654 0.69304 0.72642 0.0
H1934 H 0.32598 0.67171 0.8021 0.0
S1935 S 0.32082 0.79401 0.86481 0.0
N1936 N 0.32792 0.78576 0.80558 0.0
N1937 N 0.31795 0.76233 0.88853 0.0
C1938 C 0.32282 0.74329 0.8478 0.0
C1939 C 0.32824 0.75598 0.803 0.0
C1940 C 0.98692 0.37831 0.42383 0.0
C1941 C 0.0138 0.37433 0.4008 0.0
C1942 C 0.98191 0.37812 0.47412 0.0
C1943 C 0.00368 0.3744 0.50292 0.0
H1944 H 0.96967 0.3815 0.40271 0.0
H1945 H 0.96092 0.3813 0.49072 0.0
S1946 S 0.07776 0.36403 0.46014 0.0
N1947 N 0.0624 0.36674 0.41004 0.0
N1948 N 0.05301 0.36706 0.50537 0.0
C1949 C 0.03068 0.37067 0.48045 0.0
C1950 C 0.03573 0.37038 0.42905 0.0
C1951 C 0.37724 0.23389 0.16949 0.0
C1952 C 0.3635 0.25953 0.15916 0.0
C1953 C 0.37895 0.22742 0.21759 0.0
C1954 C 0.3667 0.24614 0.25736 0.0
H1955 H 0.38715 0.2189 0.14012 0.0
H1956 H 0.3898 0.20746 0.22369 0.0
S1957 S 0.32747 0.31556 0.24996 0.0
N1958 N 0.33677 0.30335 0.19266 0.0
N1959 N 0.34005 0.29132 0.283 0.0
C1960 C 0.35255 0.27166 0.24751 0.0
C1961 C 0.351 0.27835 0.19851 0.0
C1962 C 0.48852 0.65874 1.03308 0.0
C1963 C 0.48836 0.63239 0.05542 0.0
C1964 C 0.48499 0.65875 0.98347 0.0
C1965 C 0.48145 0.63236 0.95468 0.0
H1966 H 0.49199 0.67943 0.05385 0.0
H1967 H 0.48622 0.67928 0.96715 0.0
S1968 S 0.47715 0.55786 0.99582 0.0
N1969 N 0.48266 0.57949 1.045 0.0
N1970 N 0.47583 0.57966 0.95212 0.0
C1971 C 0.47995 0.60612 0.97689 0.0
C1972 C 0.48343 0.60609 1.02722 0.0
C1973 C 0.19148 0.71033 0.6103 0.0
C1974 C 0.17454 0.73586 0.62317 0.0
C1975 C 0.19663 0.69753 0.56137 0.0
C1976 C 0.18523 0.70955 0.52229 0.0
H1977 H 0.20057 0.69977 0.63848 0.0
H1978 H 0.2097 0.67794 0.55428 0.0
S1979 S 0.14156 0.77796 0.53498 0.0
N1980 N 0.14795 0.77367 0.59129 0.0
N1981 N 0.15727 0.74998 0.5007 0.0
C1982 C 0.16877 0.73549 0.53461 0.0
C1983 C 0.16352 0.74844 0.58436 0.0
C1984 C 0.5083 0.91577 0.40413 0.0
C1985 C 0.48004 0.92382 0.41457 0.0
C1986 C 0.52486 0.90792 0.44027 0.0
C1987 C 0.51407 0.90655 0.48889 0.0
H1988 H 0.51806 0.91606 0.3675 0.0
H1989 H 0.54662 0.90333 0.43008 0.0
S1990 S 0.44154 0.9256 0.53686 0.0
N1991 N 0.44229 0.93053 0.47854 0.0
N1992 N 0.47295 0.9144 0.54561 0.0
C1993 C 0.48575 0.91405 0.49999 0.0
C1994 C 0.46896 0.92302 0.46328 0.0
C1995 C 0.31877 0.22687 0.70262 0.0
C1996 C 0.32606 0.23741 0.65726 0.0
C1997 C 0.32453 0.2428 0.74626 0.0
C1998 C 0.33805 0.26967 0.74622 0.0
H1999 H 0.30796 0.20649 0.70468 0.0
H2000 H 0.31685 0.23491 0.7804 0.0
S2001 S 0.36312 0.3063 0.6382 0.0
N2002 N 0.34909 0.27601 0.61555 0.0
N2003 N 0.35939 0.30575 0.69785 0.0
C2004 C 0.34645 0.27989 0.70146 0.0
C2005 C 0.34063 0.2638 0.65693 0.0
C2006 C 0.98154 0.10497 0.99585 0.0
C2007 C 0.97923 0.08393 1.02974 0.0
C2008 C 0.99839 0.09968 0.95091 0.0
C2009 C 0.01429 0.07329 0.9376 0.0
H2010 H 0.96936 0.1252 1.00308 0.0
H2011 H 0.99868 0.11646 0.92597 0.0
S2012 S 0.0165 0.01124 1.01367 0.0
N2013 N 0.99483 0.03536 1.0459 0.0
N2014 N 0.02696 0.02642 0.96385 0.0
C2015 C 0.0129 0.05259 0.9719 0.0
C2016 C 0.99528 0.05761 1.01697 0.0
C2017 C 0.20126 0.79367 0.07264 0.0
C2018 C 0.18061 0.79502 1.04074 0.0
C2019 C 0.19578 0.78266 0.1178 0.0
C2020 C 0.16938 0.77298 0.13271 0.0
H2021 H 0.2218 0.80107 0.06255 0.0
H2022 H 0.21236 0.78156 0.14109 0.0
S2023 S 0.10751 0.77536 0.06453 0.0
N2024 N 0.13245 0.78768 1.02811 0.0
N2025 N 0.12194 0.76754 0.11346 0.0
C2026 C 0.14844 0.77481 0.10143 0.0
C2027 C 0.15411 0.7857 0.05528 0.0
C2028 C 0.51381 0.14848 0.41707 0.0
C2029 C 0.49721 0.13145 0.38708 0.0
C2030 C 0.50921 0.14977 0.46773 0.0
C2031 C 0.48782 0.13411 0.49006 0.0
H2032 H 0.53098 0.16019 0.40128 0.0
H2033 H 0.52278 0.16273 0.48959 0.0
S2034 S 0.43796 0.08727 0.42711 0.0
N2035 N 0.45785 0.0998 0.38273 0.0
N2036 N 0.44973 0.10141 0.47804 0.0
C2037 C 0.4707 0.11757 0.46031 0.0
C2038 C 0.47532 0.11637 0.40875 0.0
C2039 C 0.11826 0.26869 0.67394 0.0
C2040 C 0.13072 0.25046 0.63373 0.0
C2041 C 0.12018 0.26186 0.72181 0.0
C2042 C 0.1344 0.23636 0.73153 0.0
H2043 H 0.10705 0.28853 0.66838 0.0
H2044 H 0.11003 0.27645 0.75148 0.0
S2045 S 0.17124 0.18164 0.63938 0.0
N2046 N 0.15808 0.2059 0.60702 0.0
N2047 N 0.16189 0.19328 0.69689 0.0
C2048 C 0.14717 0.21808 0.69172 0.0
C2049 C 0.14535 0.22511 0.64295 0.0
C2050 C 0.0152 0.8732 0.92432 0.0
C2051 C 0.99382 0.86185 0.95382 0.0
C2052 C 0.01313 0.87457 0.87465 0.0
C2053 C 0.98972 0.86433 0.853 0.0
H2054 H 0.03325 0.88185 0.94011 0.0
H2055 H 0.02988 0.88376 0.85305 0.0
S2056 S 0.92796 0.83308 0.91493 0.0
N2057 N 0.94847 0.84062 0.9585 0.0
N2058 N 0.94462 0.84282 0.86465 0.0
C2059 C 0.96827 0.85274 0.88208 0.0
C2060 C 0.97028 0.85165 0.93274 0.0
C2061 C 0.30976 0.81168 0.32509 0.0
C2062 C 0.31346 0.79562 0.36511 0.0
C2063 C 0.31532 0.79907 0.27609 0.0
C2064 C 0.32435 0.76941 0.2641 0.0
H2065 H 0.30279 0.83441 0.33157 0.0
H2066 H 0.31217 0.81272 0.24726 0.0
S2067 S 0.33601 0.71697 0.35502 0.0
N2068 N 0.32596 0.74773 0.38854 0.0
N2069 N 0.33622 0.72437 0.29797 0.0
C2070 C 0.32757 0.75298 0.30393 0.0
C2071 C 0.32222 0.7659 0.35369 0.0
C2072 C 0.50864 0.07608 0.89143 0.0
C2073 C 0.48186 0.089 0.90178 0.0
C2074 C 0.52497 0.06894 0.9289 0.0
C2075 C 0.51536 0.07432 0.97876 0.0
H2076 H 0.51672 0.07039 0.85394 0.0
H2077 H 0.54523 0.05891 0.91859 0.0
S2078 S 0.44646 0.10776 1.02531 0.0
N2079 N 0.44672 0.10678 0.96564 0.0
N2080 N 0.47659 0.09376 1.03539 0.0
C2081 C 0.48862 0.08755 0.98925 0.0
C2082 C 0.47215 0.09466 0.95116 0.0
C2083 C 0.65892 0.75392 0.65315 0.0
C2084 C 0.65594 0.72342 0.65298 0.0
C2085 C 0.66483 0.77126 0.69555 0.0
C2086 C 0.66784 0.75864 0.73918 0.0
H2087 H 0.65863 0.76412 0.61956 0.0
H2088 H 0.66745 0.79461 0.69393 0.0
S2089 S 0.66119 0.67982 0.75761 0.0
N2090 N 0.65588 0.68148 0.7 0.0
N2091 N 0.66631 0.7139 0.77973 0.0
C2092 C 0.66369 0.72837 0.73983 0.0
C2093 C 0.65791 0.71081 0.69672 0.0
C2094 C 0.02869 0.91351 0.4155 0.0
C2095 C 0.01748 0.90874 0.37032 0.0
C2096 C 0.01184 0.9201 0.4598 0.0
C2097 C 0.98284 0.92347 0.46143 0.0
H2098 H 0.05084 0.91233 0.41671 0.0
H2099 H 0.02179 0.92307 0.49322 0.0
S2100 S 0.94274 0.91461 0.35366 0.0
N2101 N 0.97497 0.90808 0.33064 0.0
N2102 N 0.94381 0.92179 0.41298 0.0
C2103 C 0.97133 0.9192 0.41654 0.0
C2104 C 0.98842 0.91151 0.37149 0.0
C2105 C 0.83483 0.24367 0.29935 0.0
C2106 C 0.83052 0.22686 0.25572 0.0
C2107 C 0.82924 0.2323 0.34414 0.0
C2108 C 0.81935 0.20374 0.34639 0.0
H2109 H 0.84238 0.26576 0.29878 0.0
H2110 H 0.83278 0.24593 0.37705 0.0
S2111 S 0.80649 0.15056 0.24094 0.0
N2112 N 0.81692 0.18038 0.21656 0.0
N2113 N 0.80649 0.15858 0.30023 0.0
C2114 C 0.81517 0.18672 0.30253 0.0
C2115 C 0.82079 0.19839 0.25723 0.0
C2116 C 0.53407 0.85634 0.92999 0.0
C2117 C 0.52061 0.87584 0.90356 0.0
C2118 C 0.52926 0.8582 0.98074 0.0
C2119 C 0.51097 0.87972 1.00639 0.0
H2120 H 0.5476 0.83899 0.91119 0.0
H2121 H 0.53948 0.84233 0.99998 0.0
S2122 S 0.47233 0.93716 0.95272 0.0
N2123 N 0.48967 0.91811 0.90564 0.0
N2124 N 0.48047 0.92182 1.00111 0.0
C2125 C 0.49836 0.90014 0.9801 0.0
C2126 C 0.50319 0.8981 0.92854 0.0
C2127 C 0.85508 0.77505 0.69368 0.0
C2128 C 0.86599 0.75528 0.65417 0.0
C2129 C 0.85661 0.76877 0.74197 0.0
C2130 C 0.86949 0.7427 0.75261 0.0
H2131 H 0.84509 0.79543 0.68721 0.0
H2132 H 0.84801 0.78464 0.77123 0.0
S2133 S 0.90111 0.68359 0.66252 0.0
N2134 N 0.89004 0.70849 0.62913 0.0
N2135 N 0.89278 0.69672 0.71969 0.0
C2136 C 0.88038 0.72273 0.7135 0.0
C2137 C 0.87862 0.72898 0.66438 0.0
C2138 C 0.9666 0.12751 0.5382 0.0
C2139 C 0.99234 0.13458 0.55465 0.0
C2140 C 0.96249 0.12676 0.4888 0.0
C2141 C 0.98409 0.13274 0.4543 0.0
H2142 H 0.94962 0.12229 0.56367 0.0
H2143 H 0.94254 0.12065 0.47735 0.0
S2144 S 0.05524 0.15287 0.47898 0.0
N2145 N 0.03965 0.14781 0.5328 0.0
N2146 N 0.03179 0.14697 0.44005 0.0
C2147 C 0.00977 0.14035 0.47044 0.0
C2148 C 0.01393 0.14115 0.52063 0.0
C2149 C 0.68608 0.19482 0.06097 0.0
C2150 C 0.67914 0.20937 1.02088 0.0
C2151 C 0.68092 0.2078 0.10971 0.0
C2152 C 0.66831 0.23601 0.1213 0.0
H2153 H 0.69552 0.17302 0.05478 0.0
H2154 H 0.6865 0.19534 0.13871 0.0
S2155 S 0.64776 0.28468 1.03041 0.0
N2156 N 0.65999 0.25463 0.99705 0.0
N2157 N 0.65041 0.27858 0.08747 0.0
C2158 C 0.6616 0.25093 0.08157 0.0
C2159 C 0.66696 0.23781 1.03198 0.0
C2160 C 0.078 0.54499 0.77361 0.0
C2161 C 0.09204 0.53342 0.72857 0.0
C2162 C 0.08111 0.53254 0.81782 0.0
C2163 C 0.09852 0.50774 0.81998 0.0
H2164 H 0.06421 0.5639 0.77491 0.0
H2165 H 0.06987 0.54276 0.85085 0.0
S2166 S 0.13865 0.46723 0.71252 0.0
N2167 N 0.12337 0.49445 0.68955 0.0
N2168 N 0.12895 0.47123 0.77144 0.0
C2169 C 0.11249 0.49575 0.77516 0.0
C2170 C 0.10932 0.50844 0.7301 0.0
C2171 C 0.68674 0.84372 1.04658 0.0
C2172 C 0.70067 0.85212 1.00329 0.0
C2173 C 0.69896 0.84558 0.09117 0.0
C2174 C 0.72598 0.85566 0.09522 0.0
H2175 H 0.66617 0.83519 1.046 0.0
H2176 H 0.687 0.83908 0.12294 0.0
S2177 S 0.77253 0.87841 0.99245 0.0
N2178 N 0.74377 0.87009 0.96766 0.0
N2179 N 0.76669 0.873 0.05043 0.0
C2180 C 0.74021 0.86409 0.0522 0.0
C2181 C 0.72765 0.86244 1.00678 0.0
C2182 C 0.42006 0.46499 0.33228 0.0
C2183 C 0.40176 0.48913 0.34822 0.0
C2184 C 0.42356 0.45234 0.28295 0.0
C2185 C 0.40905 0.46294 0.24587 0.0
H2186 H 0.43176 0.45541 0.35835 0.0
H2187 H 0.43808 0.43402 0.27387 0.0
S2188 S 0.36021 0.52733 0.26587 0.0
N2189 N 0.37011 0.52413 0.32048 0.0
N2190 N 0.37635 0.50049 0.22943 0.0
C2191 C 0.39093 0.4873 0.26107 0.0
C2192 C 0.38738 0.50023 0.31135 0.0
C2193 C 0.74001 0.15481 0.63211 0.0
C2194 C 0.76898 0.15001 0.62369 0.0
C2195 C 0.72565 0.15713 0.67979 0.0
C2196 C 0.73914 0.15376 0.72218 0.0
H2197 H 0.72831 0.15782 0.60154 0.0
H2198 H 0.70362 0.16157 0.68339 0.0
S2199 S 0.81484 0.14086 0.72137 0.0
N2200 N 0.81047 0.14257 0.66334 0.0
N2201 N 0.78386 0.14536 0.75117 0.0
C2202 C 0.76805 0.14846 0.71408 0.0
C2203 C 0.78275 0.14705 0.66573 0.0
C2204 C 0.91781 0.45865 0.61478 0.0
C2205 C 0.90575 0.47206 0.66012 0.0
C2206 C 0.91469 0.47071 0.57043 0.0
C2207 C 0.89933 0.49698 0.56861 0.0
H2208 H 0.93011 0.4386 0.61336 0.0
H2209 H 0.92433 0.45912 0.53709 0.0
S2210 S 0.86494 0.54229 0.67682 0.0
N2211 N 0.87844 0.51404 0.69987 0.0
N2212 N 0.87296 0.53674 0.61745 0.0
C2213 C 0.88726 0.51075 0.6137 0.0
C2214 C 0.89035 0.49837 0.65893 0.0
C2215 C 0.25816 0.13489 0.34054 0.0
C2216 C 0.27301 0.14214 0.29724 0.0
C2217 C 0.27005 0.13628 0.38544 0.0
C2218 C 0.29747 0.14496 0.38951 0.0
H2219 H 0.23678 0.12889 0.34015 0.0
H2220 H 0.25721 0.13168 0.41764 0.0
S2221 S 0.34661 0.16288 0.28671 0.0
N2222 N 0.31778 0.15578 0.26138 0.0
N2223 N 0.33971 0.15887 0.34503 0.0
C2224 C 0.31284 0.15128 0.34627 0.0
C2225 C 0.30079 0.14978 0.30058 0.0
C2226 C 0.61847 0.51138 0.07339 0.0
C2227 C 0.59667 0.51006 1.04271 0.0
C2228 C 0.61469 0.52362 0.12294 0.0
C2229 C 0.589 0.53569 0.14437 0.0
H2230 H 0.63883 0.50318 0.05887 0.0
H2231 H 0.63216 0.52393 0.14442 0.0
S2232 S 0.52417 0.53366 0.08321 0.0
N2233 N 0.54755 0.5188 1.04071 0.0
N2234 N 0.54085 0.54288 0.13125 0.0
C2235 C 0.56698 0.53384 0.1144 0.0
C2236 C 0.57068 0.52086 0.06457 0.0
C2237 C 0.21847 0.84978 0.72585 0.0
C2238 C 0.23289 0.85351 0.7681 0.0
C2239 C 0.23204 0.84874 0.67776 0.0
C2240 C 0.26107 0.85014 0.66852 0.0
H2241 H 0.19631 0.84758 0.7299 0.0
H2242 H 0.21962 0.84586 0.64729 0.0
S2243 S 0.3092 0.85824 0.76513 0.0
N2244 N 0.27855 0.85826 0.79605 0.0
N2245 N 0.3037 0.85467 0.70697 0.0
C2246 C 0.2758 0.85329 0.71026 0.0
C2247 C 0.26191 0.8554 0.7593 0.0
C2248 C 0.58385 0.02615 0.31577 0.0
C2249 C 0.59903 -0.00035 0.31669 0.0
C2250 C 0.58081 0.03889 0.27192 0.0
C2251 C 0.59276 0.02596 0.22614 0.0
H2252 H 0.57433 0.03744 0.34946 0.0
H2253 H 0.5687 0.05911 0.2741 0.0
S2254 S 0.63279 0.9552 0.20699 0.0
N2255 N 0.62491 0.96012 0.26645 0.0
N2256 N 0.61957 0.984 0.18503 0.0
C2257 C 0.60787 0.99935 0.22644 0.0
C2258 C 0.61088 0.9863 0.27115 0.0
C2259 C 0.22639 0.36078 0.50746 0.0
C2260 C 0.19901 0.35201 0.50289 0.0
C2261 C 0.23817 0.36218 0.55264 0.0
C2262 C 0.22325 0.35494 0.59599 0.0
H2263 H 0.23931 0.3655 0.47542 0.0
H2264 H 0.25952 0.36824 0.55319 0.0
S2265 S 0.14963 0.33409 0.60545 0.0
N2266 N 0.15674 0.33803 0.54716 0.0
N2267 N 0.17833 0.34125 0.63113 0.0
C2268 C 0.1955 0.34721 0.59212 0.0
C2269 C 0.1836 0.34564 0.54614 0.0
C2270 C 0.91331 0.96124 0.83708 0.0
C2271 C 0.89781 0.98752 0.8523 0.0
C2272 C 0.91656 0.94886 0.78774 0.0
C2273 C 0.90417 0.96162 0.75027 0.0
H2274 H 0.92363 0.95029 0.86348 0.0
H2275 H 0.92925 0.92906 0.7789 0.0
S2276 S 0.86066 0.03012 0.76962 0.0
N2277 N 0.86933 0.02545 0.82455 0.0
N2278 N 0.87534 0.00244 0.73309 0.0
C2279 C 0.88829 0.98769 0.76501 0.0
C2280 C 0.88521 0.0005 0.81526 0.0
C2281 C 0.22618 0.6599 0.17942 0.0
C2282 C 0.24047 0.65416 0.22002 0.0
C2283 C 0.23929 0.65796 0.13069 0.0
C2284 C 0.2678 0.65101 0.11921 0.0
H2285 H 0.20448 0.66605 0.18525 0.0
H2286 H 0.22702 0.66302 0.10182 0.0
S2287 S 0.31545 0.63478 0.21108 0.0
N2288 N 0.28549 0.64117 0.24377 0.0
N2289 N 0.30972 0.63848 0.15419 0.0
C2290 C 0.28234 0.64542 0.15942 0.0
C2291 C 0.2689 0.6467 0.20881 0.0
C2292 C 0.3999 0.99529 0.15598 0.0
C2293 C 0.40686 0.96553 0.15959 0.0
C2294 C 0.39718 0.00624 0.11038 0.0
C2295 C 0.4007 0.98797 0.06584 0.0
H2296 H 0.39733 0.01052 0.1886 0.0
H2297 H 0.39208 0.02934 0.11013 0.0
S2298 S 0.41845 0.90803 0.055 0.0
N2299 N 0.41702 0.91798 0.11401 0.0
N2300 N 0.41136 0.93806 1.02953 0.0
C2301 C 0.40721 0.95804 0.06924 0.0
C2302 C 0.41046 0.94705 0.1155 0.0
C2303 C 0.81159 0.65703 0.84628 0.0
C2304 C 0.79851 0.64617 0.88829 0.0
C2305 C 0.79949 0.65539 0.80169 0.0
C2306 C 0.77348 0.64294 0.79644 0.0
H2307 H 0.8313 0.66747 0.84797 0.0
H2308 H 0.81073 0.66404 0.77094 0.0
S2309 S 0.72948 0.61274 0.8956 0.0
N2310 N 0.75743 0.62303 0.92143 0.0
N2311 N 0.73459 0.6205 0.83864 0.0
C2312 C 0.76014 0.63193 0.83813 0.0
C2313 C 0.77261 0.63339 0.88354 0.0
C2314 C 0.11422 0.00917 0.5703 0.0
C2315 C 0.09299 0.00962 0.53846 0.0
C2316 C 0.11038 0.02107 0.6202 0.0
C2317 C 0.08515 0.03452 0.64151 0.0
H2318 H 0.13427 -0.00024 0.55645 0.0
H2319 H 0.12753 0.01989 0.64219 0.0
S2320 S 0.02149 0.03794 0.57729 0.0
N2321 N 0.04465 0.02224 0.53513 0.0
N2322 N 0.0378 0.04496 0.62653 0.0
C2323 C 0.06362 0.03451 0.6104 0.0
C2324 C 0.06742 0.02211 0.55993 0.0
C2325 C 0.75947 0.35417 0.25638 0.0
C2326 C 0.73083 0.34915 0.26472 0.0
C2327 C 0.77372 0.35206 0.20855 0.0
C2328 C 0.76013 0.34579 0.16579 0.0
H2329 H 0.77131 0.35882 0.28728 0.0
H2330 H 0.79572 0.35547 0.2051 0.0
S2331 S 0.68551 0.33022 0.16572 0.0
N2332 N 0.68986 0.33663 0.22413 0.0
N2333 N 0.71598 0.33417 0.13604 0.0
C2334 C 0.7315 0.34116 0.17353 0.0
C2335 C 0.71716 0.34243 0.22211 0.0
loop_
_geom_bond_atom_site_label_1
_geom_bond_atom_site_label_2
_geom_bond_distance
_geom_bond_site_symmetry_2
_ccdc_geom_bond_type
La0 C2 2.928 . S
La0 O20 2.521 . S
La0 O21 2.628 . S
La0 O22 2.554 . S
La0 O23 2.757 . S
La0 O24 2.470 . S
La0 O29 2.482 . S
La0 O31 2.503 . S
La1 C11 2.928 1_554 S
La1 O23 2.482 . S
La1 O25 2.503 . S
La1 O26 2.521 1_554 S
La1 O27 2.628 1_554 S
La1 O28 2.554 . S
La1 O29 2.757 . S
La1 O30 2.475 . S
C2 La0 2.928 . S
C2 C3 1.503 . S
C2 O20 1.261 . S
C2 O21 1.243 . S
C3 C2 1.503 . S
C3 C4 1.394 1_455 S
C3 C8 1.373 . S
C4 C3 1.394 1_655 S
C4 C5 1.380 . S
C4 H32 0.930 . S
C5 C4 1.380 . S
C5 C6 1.376 1_655 S
C5 H33 0.930 . S
C6 C5 1.376 1_455 S
C6 C7 1.370 . S
C7 C6 1.370 . S
C7 C8 1.396 . S
C7 H34 0.929 . S
C8 C3 1.373 . S
C8 C7 1.396 . S
C8 H35 0.929 . S
C9 O22 1.240 . S
C9 O23 1.289 . S
C10 O24 1.258 . S
C10 O25 1.256 . S
C11 La1 2.928 1_556 S
C11 C12 1.503 . S
C11 O26 1.261 . S
C11 O27 1.243 . S
C12 C11 1.503 . S
C12 C13 1.394 . S
C12 C17 1.373 . S
C13 C12 1.394 . S
C13 C14 1.380 . S
C13 H36 0.930 . S
C14 C13 1.380 . S
C14 C15 1.376 . S
C14 H37 0.930 . S
C15 C14 1.376 . S
C15 C16 1.370 . S
C16 C15 1.370 . S
C16 C17 1.396 . S
C16 H38 0.929 . S
C17 C12 1.373 . S
C17 C16 1.396 . S
C17 H39 0.929 . S
C18 O28 1.240 . S
C18 O29 1.289 . S
C19 O30 1.258 . S
C19 O31 1.271 . S
O20 La0 2.521 . S
O20 C2 1.261 . S
O21 La0 2.628 . S
O21 C2 1.243 . S
O22 La0 2.554 . S
O22 C9 1.240 . S
O23 La0 2.757 . S
O23 La1 2.482 . S
O23 C9 1.289 . S
O24 La0 2.470 . S
O24 C10 1.258 . S
O25 La1 2.503 . S
O25 C10 1.256 . S
O26 La1 2.521 1_556 S
O26 C11 1.261 . S
O27 La1 2.628 1_556 S
O27 C11 1.243 . S
O28 La1 2.554 . S
O28 C18 1.240 . S
O29 La0 2.482 . S
O29 La1 2.757 . S
O29 C18 1.289 . S
O30 La1 2.475 . S
O30 C19 1.258 . S
O31 La0 2.503 . S
O31 C19 1.271 . S
H32 C4 0.930 . S
H33 C5 0.930 . S
H34 C7 0.929 . S
H35 C8 0.929 . S
H36 C13 0.930 . S
H37 C14 0.930 . S
H38 C16 0.929 . S
H39 C17 0.929 . S
La40 C42 2.928 . S
La40 O60 2.521 . S
La40 O61 2.628 . S
La40 O62 2.554 . S
La40 O63 2.757 . S
La40 O64 2.470 . S
La40 O69 2.482 . S
La40 O71 2.503 . S
La41 C51 2.928 . S
La41 O63 2.482 . S
La41 O65 2.503 . S
La41 O66 2.521 . S
La41 O67 2.628 . S
La41 O68 2.554 . S
La41 O69 2.757 . S
La41 O70 2.470 . S
C42 La40 2.928 . S
C42 C43 1.503 . S
C42 O60 1.261 . S
C42 O61 1.243 . S
C43 C42 1.503 . S
C43 C44 1.394 . S
C43 C48 1.373 . S
C44 C43 1.394 . S
C44 C45 1.380 . S
C44 H72 0.930 . S
C45 C44 1.380 . S
C45 C46 1.376 . S
C45 H73 0.930 . S
C46 C45 1.376 . S
C46 C47 1.370 . S
C47 C46 1.370 . S
C47 C48 1.396 . S
C47 H74 0.929 . S
C48 C43 1.373 . S
C48 C47 1.396 . S
C48 H75 0.929 . S
C49 O62 1.240 . S
C49 O63 1.289 . S
C50 O64 1.258 . S
C50 O65 1.256 . S
C51 La41 2.928 . S
C51 C52 1.503 . S
C51 O66 1.261 . S
C51 O67 1.243 . S
C52 C51 1.503 . S
C52 C53 1.394 . S
C52 C57 1.373 . S
C53 C52 1.394 . S
C53 C54 1.380 . S
C53 H76 0.930 . S
C54 C53 1.380 . S
C54 C55 1.376 . S
C54 H77 0.930 . S
C55 C54 1.376 . S
C55 C56 1.370 . S
C56 C55 1.370 . S
C56 C57 1.396 . S
C56 H78 0.929 . S
C57 C52 1.373 . S
C57 C56 1.396 . S
C57 H79 0.929 . S
C58 O68 1.240 . S
C58 O69 1.289 . S
C59 O70 1.258 . S
C59 O71 1.256 . S
O60 La40 2.521 . S
O60 C42 1.261 . S
O61 La40 2.628 . S
O61 C42 1.243 . S
O62 La40 2.554 . S
O62 C49 1.240 . S
O63 La40 2.757 . S
O63 La41 2.482 . S
O63 C49 1.289 . S
O64 La40 2.470 . S
O64 C50 1.258 . S
O65 La41 2.503 . S
O65 C50 1.256 . S
O66 La41 2.521 . S
O66 C51 1.261 . S
O67 La41 2.628 . S
O67 C51 1.243 . S
O68 La41 2.554 . S
O68 C58 1.240 . S
O69 La40 2.482 . S
O69 La41 2.757 . S
O69 C58 1.289 . S
O70 La41 2.470 . S
O70 C59 1.258 . S
O71 La40 2.503 . S
O71 C59 1.256 . S
H72 C44 0.930 . S
H73 C45 0.930 . S
H74 C47 0.929 . S
H75 C48 0.929 . S
H76 C53 0.930 . S
H77 C54 0.930 . S
H78 C56 0.929 . S
H79 C57 0.929 . S
La80 C82 2.928 . S
La80 O100 2.521 . S
La80 O101 2.628 . S
La80 O102 2.554 . S
La80 O103 2.757 . S
La80 O104 2.470 . S
La80 O109 2.482 . S
La80 O111 2.503 . S
La81 C91 2.928 . S
La81 O103 2.482 . S
La81 O105 2.503 . S
La81 O106 2.521 . S
La81 O107 2.628 . S
La81 O108 2.554 . S
La81 O109 2.757 . S
La81 O110 2.470 . S
C82 La80 2.928 . S
C82 C83 1.503 . S
C82 O100 1.261 . S
C82 O101 1.243 . S
C83 C82 1.503 . S
C83 C84 1.394 . S
C83 C88 1.373 . S
C84 C83 1.394 . S
C84 C85 1.380 . S
C84 H112 0.930 . S
C85 C84 1.380 . S
C85 C86 1.376 . S
C85 H113 0.930 . S
C86 C85 1.376 . S
C86 C87 1.370 . S
C87 C86 1.370 . S
C87 C88 1.396 . S
C87 H114 0.929 . S
C88 C83 1.373 . S
C88 C87 1.396 . S
C88 H115 0.929 . S
C89 O102 1.240 . S
C89 O103 1.289 . S
C90 O104 1.258 . S
C90 O105 1.256 . S
C91 La81 2.928 . S
C91 C92 1.503 . S
C91 O106 1.261 . S
C91 O107 1.243 . S
C92 C91 1.503 . S
C92 C93 1.394 . S
C92 C97 1.373 . S
C93 C92 1.394 . S
C93 C94 1.380 . S
C93 H116 0.930 . S
C94 C93 1.380 . S
C94 C95 1.376 . S
C94 H117 0.930 . S
C95 C94 1.376 . S
C95 C96 1.370 . S
C96 C95 1.370 . S
C96 C97 1.396 . S
C96 H118 0.929 . S
C97 C92 1.373 . S
C97 C96 1.396 . S
C97 H119 0.929 . S
C98 O108 1.240 . S
C98 O109 1.289 . S
C99 O110 1.258 . S
C99 O111 1.256 . S
O100 La80 2.521 . S
O100 C82 1.261 . S
O101 La80 2.628 . S
O101 C82 1.243 . S
O102 La80 2.554 . S
O102 C89 1.240 . S
O103 La80 2.757 . S
O103 La81 2.482 . S
O103 C89 1.289 . S
O104 La80 2.470 . S
O104 C90 1.258 . S
O105 La81 2.503 . S
O105 C90 1.256 . S
O106 La81 2.521 . S
O106 C91 1.261 . S
O107 La81 2.628 . S
O107 C91 1.243 . S
O108 La81 2.554 . S
O108 C98 1.240 . S
O109 La80 2.482 . S
O109 La81 2.757 . S
O109 C98 1.289 . S
O110 La81 2.470 . S
O110 C99 1.258 . S
O111 La80 2.503 . S
O111 C99 1.256 . S
H112 C84 0.930 . S
H113 C85 0.930 . S
H114 C87 0.929 . S
H115 C88 0.929 . S
H116 C93 0.930 . S
H117 C94 0.930 . S
H118 C96 0.929 . S
H119 C97 0.929 . S
La120 C122 2.928 . S
La120 O140 2.521 . S
La120 O141 2.628 . S
La120 O142 2.554 . S
La120 O143 2.757 . S
La120 O144 2.470 . S
La120 O149 2.482 . S
La120 O151 2.503 . S
La121 C131 2.928 . S
La121 O143 2.482 . S
La121 O145 2.503 . S
La121 O146 2.521 . S
La121 O147 2.628 . S
La121 O148 2.554 . S
La121 O149 2.757 . S
La121 O150 2.470 . S
C122 La120 2.928 . S
C122 C123 1.503 . S
C122 O140 1.261 . S
C122 O141 1.243 . S
C123 C122 1.503 . S
C123 C124 1.394 . S
C123 C128 1.373 . S
C124 C123 1.394 . S
C124 C125 1.380 . S
C124 H152 0.930 . S
C125 C124 1.380 . S
C125 C126 1.376 . S
C125 H153 0.930 . S
C126 C125 1.376 . S
C126 C127 1.370 . S
C127 C126 1.370 . S
C127 C128 1.396 . S
C127 H154 0.929 . S
C128 C123 1.373 . S
C128 C127 1.396 . S
C128 H155 0.929 . S
C129 O142 1.240 . S
C129 O143 1.289 . S
C130 O144 1.258 . S
C130 O145 1.256 . S
C131 La121 2.928 . S
C131 C132 1.503 1_556 S
C131 O146 1.261 . S
C131 O147 1.243 . S
C132 C131 1.503 1_554 S
C132 C133 1.394 . S
C132 C137 1.373 . S
C133 C132 1.394 . S
C133 C134 1.380 . S
C133 H156 0.930 1_554 S
C134 C133 1.380 . S
C134 C135 1.376 . S
C134 H157 0.930 . S
C135 C134 1.376 . S
C135 C136 1.370 . S
C136 C135 1.370 . S
C136 C137 1.396 . S
C136 H158 0.929 . S
C137 C132 1.373 . S
C137 C136 1.396 . S
C137 H159 0.929 . S
C138 O148 1.240 . S
C138 O149 1.289 . S
C139 O150 1.258 . S
C139 O151 1.256 . S
O140 La120 2.521 . S
O140 C122 1.261 . S
O141 La120 2.628 . S
O141 C122 1.243 . S
O142 La120 2.554 . S
O142 C129 1.240 . S
O143 La120 2.757 . S
O143 La121 2.482 . S
O143 C129 1.289 . S
O144 La120 2.470 . S
O144 C130 1.258 . S
O145 La121 2.503 . S
O145 C130 1.256 . S
O146 La121 2.521 . S
O146 C131 1.261 . S
O147 La121 2.628 . S
O147 C131 1.243 . S
O148 La121 2.554 . S
O148 C138 1.240 . S
O149 La120 2.482 . S
O149 La121 2.757 . S
O149 C138 1.289 . S
O150 La121 2.470 . S
O150 C139 1.258 . S
O151 La120 2.503 . S
O151 C139 1.256 . S
H152 C124 0.930 . S
H153 C125 0.930 . S
H154 C127 0.929 . S
H155 C128 0.929 . S
H156 C133 0.930 1_556 S
H157 C134 0.930 . S
H158 C136 0.929 . S
H159 C137 0.929 . S
La160 C162 2.928 . S
La160 O180 2.521 . S
La160 O181 2.628 . S
La160 O182 2.554 . S
La160 O183 2.757 . S
La160 O184 2.470 . S
La160 O189 2.482 . S
La160 O191 2.503 . S
La161 C171 2.928 . S
La161 O183 2.482 . S
La161 O185 2.503 . S
La161 O186 2.521 . S
La161 O187 2.628 . S
La161 O188 2.554 . S
La161 O189 2.757 . S
La161 O190 2.470 . S
C162 La160 2.928 . S
C162 C163 1.503 . S
C162 O180 1.261 . S
C162 O181 1.243 . S
C163 C162 1.503 . S
C163 C164 1.394 . S
C163 C168 1.373 . S
C164 C163 1.394 . S
C164 C165 1.380 . S
C164 H192 0.930 . S
C165 C164 1.380 . S
C165 C166 1.376 . S
C165 H193 0.930 . S
C166 C165 1.376 . S
C166 C167 1.370 . S
C167 C166 1.370 . S
C167 C168 1.396 . S
C167 H194 0.929 . S
C168 C163 1.373 . S
C168 C167 1.396 . S
C168 H195 0.929 . S
C169 O182 1.240 . S
C169 O183 1.289 . S
C170 O184 1.258 . S
C170 O185 1.256 . S
C171 La161 2.928 . S
C171 C172 1.503 . S
C171 O186 1.261 . S
C171 O187 1.243 . S
C172 C171 1.503 . S
C172 C173 1.394 . S
C172 C177 1.373 . S
C173 C172 1.394 . S
C173 C174 1.380 . S
C173 H196 0.930 . S
C174 C173 1.380 . S
C174 C175 1.376 . S
C174 H197 0.930 . S
C175 C174 1.376 . S
C175 C176 1.370 . S
C176 C175 1.370 . S
C176 C177 1.396 . S
C176 H198 0.929 . S
C177 C172 1.373 . S
C177 C176 1.396 . S
C177 H199 0.929 . S
C178 O188 1.240 . S
C178 O189 1.289 . S
C179 O190 1.258 . S
C179 O191 1.256 . S
O180 La160 2.521 . S
O180 C162 1.261 . S
O181 La160 2.628 . S
O181 C162 1.243 . S
O182 La160 2.554 . S
O182 C169 1.240 . S
O183 La160 2.757 . S
O183 La161 2.482 . S
O183 C169 1.289 . S
O184 La160 2.470 . S
O184 C170 1.258 . S
O185 La161 2.503 . S
O185 C170 1.256 . S
O186 La161 2.521 . S
O186 C171 1.261 . S
O187 La161 2.628 . S
O187 C171 1.243 . S
O188 La161 2.554 . S
O188 C178 1.240 . S
O189 La160 2.482 . S
O189 La161 2.757 . S
O189 C178 1.289 . S
O190 La161 2.470 . S
O190 C179 1.258 . S
O191 La160 2.503 . S
O191 C179 1.256 . S
H192 C164 0.930 . S
H193 C165 0.930 . S
H194 C167 0.929 . S
H195 C168 0.929 . S
H196 C173 0.930 . S
H197 C174 0.930 . S
H198 C176 0.929 . S
H199 C177 0.929 . S
La200 C202 2.928 . S
La200 O220 2.521 . S
La200 O221 2.628 . S
La200 O222 2.554 . S
La200 O223 2.757 . S
La200 O224 2.470 . S
La200 O229 2.482 . S
La200 O231 2.503 . S
La201 C211 2.928 . S
La201 O223 2.482 . S
La201 O225 2.503 . S
La201 O226 2.521 . S
La201 O227 2.628 . S
La201 O228 2.554 . S
La201 O229 2.757 . S
La201 O230 2.470 . S
C202 La200 2.928 . S
C202 C203 1.503 . S
C202 O220 1.261 . S
C202 O221 1.243 . S
C203 C202 1.503 . S
C203 C204 1.394 . S
C203 C208 1.373 1_556 S
C204 C203 1.394 . S
C204 C205 1.380 1_556 S
C204 H232 0.930 . S
C205 C204 1.380 1_554 S
C205 C206 1.376 . S
C205 H233 0.930 . S
C206 C205 1.376 . S
C206 C207 1.370 . S
C207 C206 1.370 . S
C207 C208 1.396 . S
C207 H234 0.929 . S
C208 C203 1.373 1_554 S
C208 C207 1.396 . S
C208 H235 0.926 1_554 S
C209 O222 1.240 . S
C209 O223 1.289 . S
C210 O224 1.258 . S
C210 O225 1.256 . S
C211 La201 2.928 . S
C211 C212 1.503 . S
C211 O226 1.261 . S
C211 O227 1.243 . S
C212 C211 1.503 . S
C212 C213 1.394 . S
C212 C217 1.373 . S
C213 C212 1.394 . S
C213 C214 1.380 . S
C213 H236 0.930 . S
C214 C213 1.380 . S
C214 C215 1.376 . S
C214 H237 0.930 . S
C215 C214 1.376 . S
C215 C216 1.370 . S
C216 C215 1.370 . S
C216 C217 1.396 . S
C216 H238 0.929 . S
C217 C212 1.373 . S
C217 C216 1.396 . S
C217 H239 0.929 . S
C218 O228 1.240 . S
C218 O229 1.289 . S
C219 O230 1.258 . S
C219 O231 1.256 . S
O220 La200 2.521 . S
O220 C202 1.261 . S
O221 La200 2.628 . S
O221 C202 1.243 . S
O222 La200 2.554 . S
O222 C209 1.240 . S
O223 La200 2.757 . S
O223 La201 2.482 . S
O223 C209 1.289 . S
O224 La200 2.470 . S
O224 C210 1.258 . S
O225 La201 2.503 . S
O225 C210 1.256 . S
O226 La201 2.521 . S
O226 C211 1.261 . S
O227 La201 2.628 . S
O227 C211 1.243 . S
O228 La201 2.554 . S
O228 C218 1.240 . S
O229 La200 2.482 . S
O229 La201 2.757 . S
O229 C218 1.289 . S
O230 La201 2.470 . S
O230 C219 1.258 . S
O231 La200 2.503 . S
O231 C219 1.256 . S
H232 C204 0.930 . S
H233 C205 0.930 . S
H234 C207 0.929 . S
H235 C208 0.926 1_556 S
H236 C213 0.930 . S
H237 C214 0.930 . S
H238 C216 0.929 . S
H239 C217 0.929 . S
La240 C242 2.928 . S
La240 O260 2.521 . S
La240 O261 2.628 . S
La240 O262 2.554 . S
La240 O263 2.757 . S
La240 O264 2.470 . S
La240 O269 2.482 . S
La240 O271 2.503 1_554 S
La241 C251 2.928 1_554 S
La241 O263 2.482 . S
La241 O265 2.503 . S
La241 O266 2.521 1_554 S
La241 O267 2.628 1_554 S
La241 O268 2.554 . S
La241 O269 2.757 . S
La241 O270 2.470 1_554 S
C242 La240 2.928 . S
C242 C243 1.503 . S
C242 O260 1.261 . S
C242 O261 1.243 . S
C243 C242 1.503 . S
C243 C244 1.394 . S
C243 C248 1.373 . S
C244 C243 1.394 . S
C244 C245 1.380 . S
C244 H272 0.930 . S
C245 C244 1.380 . S
C245 C246 1.376 . S
C245 H273 0.930 . S
C246 C245 1.376 . S
C246 C247 1.370 . S
C247 C246 1.370 . S
C247 C248 1.396 . S
C247 H274 0.929 . S
C248 C243 1.373 . S
C248 C247 1.396 . S
C248 H275 0.929 . S
C249 O262 1.240 . S
C249 O263 1.289 . S
C250 O264 1.258 . S
C250 O265 1.256 . S
C251 La241 2.928 1_556 S
C251 C252 1.503 . S
C251 O266 1.261 . S
C251 O267 1.243 . S
C252 C251 1.503 . S
C252 C253 1.394 . S
C252 C257 1.373 . S
C253 C252 1.394 . S
C253 C254 1.380 . S
C253 H276 0.930 . S
C254 C253 1.380 . S
C254 C255 1.376 . S
C254 H277 0.930 . S
C255 C254 1.376 . S
C255 C256 1.370 . S
C256 C255 1.370 . S
C256 C257 1.396 . S
C256 H278 0.929 . S
C257 C252 1.373 . S
C257 C256 1.396 . S
C257 H279 0.929 . S
C258 O268 1.240 . S
C258 O269 1.289 . S
C259 O270 1.258 . S
C259 O271 1.256 . S
O260 La240 2.521 . S
O260 C242 1.261 . S
O261 La240 2.628 . S
O261 C242 1.243 . S
O262 La240 2.554 . S
O262 C249 1.240 . S
O263 La240 2.757 . S
O263 La241 2.482 . S
O263 C249 1.289 . S
O264 La240 2.470 . S
O264 C250 1.258 . S
O265 La241 2.503 . S
O265 C250 1.256 . S
O266 La241 2.521 1_556 S
O266 C251 1.261 . S
O267 La241 2.628 1_556 S
O267 C251 1.243 . S
O268 La241 2.554 . S
O268 C258 1.240 . S
O269 La240 2.482 . S
O269 La241 2.757 . S
O269 C258 1.289 . S
O270 La241 2.470 1_556 S
O270 C259 1.258 . S
O271 La240 2.503 1_556 S
O271 C259 1.256 . S
H272 C244 0.930 . S
H273 C245 0.930 . S
H274 C247 0.929 . S
H275 C248 0.929 . S
H276 C253 0.930 . S
H277 C254 0.930 . S
H278 C256 0.929 . S
H279 C257 0.929 . S
La280 C282 2.928 . S
La280 O300 2.521 . S
La280 O301 2.628 . S
La280 O302 2.554 . S
La280 O303 2.757 . S
La280 O304 2.470 . S
La280 O309 2.482 . S
La280 O311 2.503 . S
La281 C291 2.928 . S
La281 O303 2.482 . S
La281 O305 2.503 . S
La281 O306 2.521 . S
La281 O307 2.628 . S
La281 O308 2.554 . S
La281 O309 2.757 . S
La281 O310 2.470 . S
C282 La280 2.928 . S
C282 C283 1.503 . S
C282 O300 1.261 . S
C282 O301 1.243 . S
C283 C282 1.503 . S
C283 C284 1.394 . S
C283 C288 1.373 . S
C284 C283 1.394 . S
C284 C285 1.380 . S
C284 H312 0.930 . S
C285 C284 1.380 . S
C285 C286 1.376 . S
C285 H313 0.930 . S
C286 C285 1.376 . S
C286 C287 1.370 . S
C287 C286 1.370 . S
C287 C288 1.396 . S
C287 H314 0.929 . S
C288 C283 1.373 . S
C288 C287 1.396 . S
C288 H315 0.929 . S
C289 O302 1.240 . S
C289 O303 1.289 . S
C290 O304 1.258 . S
C290 O305 1.256 . S
C291 La281 2.928 . S
C291 C292 1.503 . S
C291 O306 1.261 . S
C291 O307 1.243 . S
C292 C291 1.503 . S
C292 C293 1.394 . S
C292 C297 1.373 . S
C293 C292 1.394 . S
C293 C294 1.380 . S
C293 H316 0.930 . S
C294 C293 1.380 . S
C294 C295 1.376 . S
C294 H317 0.930 . S
C295 C294 1.376 . S
C295 C296 1.370 . S
C296 C295 1.370 . S
C296 C297 1.396 . S
C296 H318 0.929 . S
C297 C292 1.373 . S
C297 C296 1.396 . S
C297 H319 0.929 . S
C298 O308 1.240 . S
C298 O309 1.289 . S
C299 O310 1.258 . S
C299 O311 1.256 . S
O300 La280 2.521 . S
O300 C282 1.261 . S
O301 La280 2.628 . S
O301 C282 1.243 . S
O302 La280 2.554 . S
O302 C289 1.240 . S
O303 La280 2.757 . S
O303 La281 2.482 . S
O303 C289 1.289 . S
O304 La280 2.470 . S
O304 C290 1.258 . S
O305 La281 2.503 . S
O305 C290 1.256 . S
O306 La281 2.521 . S
O306 C291 1.261 . S
O307 La281 2.628 . S
O307 C291 1.243 . S
O308 La281 2.554 . S
O308 C298 1.240 . S
O309 La280 2.482 . S
O309 La281 2.757 . S
O309 C298 1.289 . S
O310 La281 2.470 . S
O310 C299 1.258 . S
O311 La280 2.503 . S
O311 C299 1.256 . S
H312 C284 0.930 . S
H313 C285 0.930 . S
H314 C287 0.929 . S
H315 C288 0.929 . S
H316 C293 0.930 . S
H317 C294 0.930 . S
H318 C296 0.929 . S
H319 C297 0.929 . S
La320 C322 2.928 . S
La320 O340 2.521 . S
La320 O341 2.628 . S
La320 O342 2.554 . S
La320 O343 2.757 . S
La320 O344 2.470 . S
La320 O349 2.482 . S
La320 O351 2.503 . S
La321 C331 2.928 . S
La321 O343 2.482 . S
La321 O345 2.503 . S
La321 O346 2.521 . S
La321 O347 2.628 . S
La321 O348 2.554 . S
La321 O349 2.757 . S
La321 O350 2.470 . S
C322 La320 2.928 . S
C322 C323 1.503 . S
C322 O340 1.261 . S
C322 O341 1.243 . S
C323 C322 1.503 . S
C323 C324 1.394 . S
C323 C328 1.373 . S
C324 C323 1.394 . S
C324 C325 1.380 . S
C324 H352 0.930 . S
C325 C324 1.380 . S
C325 C326 1.376 . S
C325 H353 0.930 . S
C326 C325 1.376 . S
C326 C327 1.370 . S
C327 C326 1.370 . S
C327 C328 1.396 . S
C327 H354 0.929 . S
C328 C323 1.373 . S
C328 C327 1.396 . S
C328 H355 0.929 . S
C329 O342 1.240 . S
C329 O343 1.289 . S
C330 O344 1.258 . S
C330 O345 1.256 . S
C331 La321 2.928 . S
C331 C332 1.503 . S
C331 O346 1.261 . S
C331 O347 1.243 . S
C332 C331 1.503 . S
C332 C333 1.394 1_655 S
C332 C337 1.373 . S
C333 C332 1.394 1_455 S
C333 C334 1.380 1_554 S
C333 H356 0.930 . S
C334 C333 1.380 1_556 S
C334 C335 1.376 1_455 S
C334 H357 0.930 . S
C335 C334 1.376 1_655 S
C335 C336 1.370 . S
C336 C335 1.370 . S
C336 C337 1.396 1_556 S
C336 H358 0.929 . S
C337 C332 1.373 . S
C337 C336 1.396 1_554 S
C337 H359 0.929 . S
C338 O348 1.240 . S
C338 O349 1.289 . S
C339 O350 1.258 . S
C339 O351 1.256 . S
O340 La320 2.521 . S
O340 C322 1.261 . S
O341 La320 2.628 . S
O341 C322 1.243 . S
O342 La320 2.554 . S
O342 C329 1.240 . S
O343 La320 2.757 . S
O343 La321 2.482 . S
O343 C329 1.289 . S
O344 La320 2.470 . S
O344 C330 1.258 . S
O345 La321 2.503 . S
O345 C330 1.256 . S
O346 La321 2.521 . S
O346 C331 1.261 . S
O347 La321 2.628 . S
O347 C331 1.243 . S
O348 La321 2.554 . S
O348 C338 1.240 . S
O349 La320 2.482 . S
O349 La321 2.757 . S
O349 C338 1.289 . S
O350 La321 2.470 . S
O350 C339 1.258 . S
O351 La320 2.503 . S
O351 C339 1.256 . S
H352 C324 0.930 . S
H353 C325 0.930 . S
H354 C327 0.929 . S
H355 C328 0.929 . S
H356 C333 0.930 . S
H357 C334 0.930 . S
H358 C336 0.929 . S
H359 C337 0.929 . S
La360 C362 2.928 1_556 S
La360 O380 2.521 1_556 S
La360 O381 2.628 1_556 S
La360 O382 2.554 . S
La360 O383 2.757 . S
La360 O384 2.470 1_556 S
La360 O389 2.482 . S
La360 O391 2.503 . S
La361 C371 2.928 . S
La361 O383 2.482 . S
La361 O385 2.503 1_556 S
La361 O386 2.521 . S
La361 O387 2.628 . S
La361 O388 2.554 . S
La361 O389 2.757 . S
La361 O390 2.470 . S
C362 La360 2.928 1_554 S
C362 C363 1.503 . S
C362 O380 1.261 . S
C362 O381 1.243 . S
C363 C362 1.503 . S
C363 C364 1.394 . S
C363 C368 1.373 . S
C364 C363 1.394 . S
C364 C365 1.380 . S
C364 H392 0.930 . S
C365 C364 1.380 . S
C365 C366 1.376 . S
C365 H393 0.930 . S
C366 C365 1.376 . S
C366 C367 1.370 . S
C367 C366 1.370 . S
C367 C368 1.396 . S
C367 H394 0.929 . S
C368 C363 1.373 . S
C368 C367 1.396 . S
C368 H395 0.929 . S
C369 O382 1.240 . S
C369 O383 1.289 . S
C370 O384 1.258 . S
C370 O385 1.256 . S
C371 La361 2.928 . S
C371 C372 1.503 . S
C371 O386 1.261 . S
C371 O387 1.243 . S
C372 C371 1.503 . S
C372 C373 1.394 . S
C372 C377 1.373 . S
C373 C372 1.394 . S
C373 C374 1.380 . S
C373 H396 0.930 . S
C374 C373 1.380 . S
C374 C375 1.376 . S
C374 H397 0.930 . S
C375 C374 1.376 . S
C375 C376 1.370 . S
C376 C375 1.370 . S
C376 C377 1.396 . S
C376 H398 0.929 . S
C377 C372 1.373 . S
C377 C376 1.396 . S
C377 H399 0.929 . S
C378 O388 1.240 . S
C378 O389 1.289 . S
C379 O390 1.258 . S
C379 O391 1.256 . S
O380 La360 2.521 1_554 S
O380 C362 1.261 . S
O381 La360 2.628 1_554 S
O381 C362 1.243 . S
O382 La360 2.554 . S
O382 C369 1.240 . S
O383 La360 2.757 . S
O383 La361 2.482 . S
O383 C369 1.289 . S
O384 La360 2.470 1_554 S
O384 C370 1.258 . S
O385 La361 2.503 1_554 S
O385 C370 1.256 . S
O386 La361 2.521 . S
O386 C371 1.261 . S
O387 La361 2.628 . S
O387 C371 1.243 . S
O388 La361 2.554 . S
O388 C378 1.240 . S
O389 La360 2.482 . S
O389 La361 2.757 . S
O389 C378 1.289 . S
O390 La361 2.470 . S
O390 C379 1.258 . S
O391 La360 2.503 . S
O391 C379 1.256 . S
H392 C364 0.930 . S
H393 C365 0.930 . S
H394 C367 0.929 . S
H395 C368 0.929 . S
H396 C373 0.930 . S
H397 C374 0.930 . S
H398 C376 0.929 . S
H399 C377 0.929 . S
La400 C402 2.928 . S
La400 O420 2.521 . S
La400 O421 2.628 . S
La400 O422 2.554 . S
La400 O423 2.757 . S
La400 O424 2.470 . S
La400 O429 2.482 . S
La400 O431 2.503 . S
La401 C411 2.928 . S
La401 O423 2.482 . S
La401 O425 2.503 . S
La401 O426 2.521 . S
La401 O427 2.628 . S
La401 O428 2.554 . S
La401 O429 2.757 . S
La401 O430 2.470 . S
C402 La400 2.928 . S
C402 C403 1.503 . S
C402 O420 1.261 . S
C402 O421 1.243 . S
C403 C402 1.503 . S
C403 C404 1.394 . S
C403 C408 1.373 . S
C404 C403 1.394 . S
C404 C405 1.380 . S
C404 H432 0.930 . S
C405 C404 1.380 . S
C405 C406 1.376 . S
C405 H433 0.930 . S
C406 C405 1.376 . S
C406 C407 1.370 . S
C407 C406 1.370 . S
C407 C408 1.396 . S
C407 H434 0.929 . S
C408 C403 1.373 . S
C408 C407 1.396 . S
C408 H435 0.929 . S
C409 O422 1.240 . S
C409 O423 1.289 . S
C410 O424 1.258 . S
C410 O425 1.256 . S
C411 La401 2.928 . S
C411 C412 1.503 . S
C411 O426 1.261 . S
C411 O427 1.243 . S
C412 C411 1.503 . S
C412 C413 1.394 . S
C412 C417 1.373 . S
C413 C412 1.394 . S
C413 C414 1.380 . S
C413 H436 0.930 . S
C414 C413 1.380 . S
C414 C415 1.376 . S
C414 H437 0.930 . S
C415 C414 1.376 . S
C415 C416 1.370 . S
C416 C415 1.370 . S
C416 C417 1.396 . S
C416 H438 0.929 . S
C417 C412 1.373 . S
C417 C416 1.396 . S
C417 H439 0.929 . S
C418 O428 1.240 . S
C418 O429 1.289 . S
C419 O430 1.258 . S
C419 O431 1.256 . S
O420 La400 2.521 . S
O420 C402 1.261 . S
O421 La400 2.628 . S
O421 C402 1.243 . S
O422 La400 2.554 . S
O422 C409 1.240 . S
O423 La400 2.757 . S
O423 La401 2.482 . S
O423 C409 1.289 . S
O424 La400 2.470 . S
O424 C410 1.258 . S
O425 La401 2.503 . S
O425 C410 1.256 . S
O426 La401 2.521 . S
O426 C411 1.261 . S
O427 La401 2.628 . S
O427 C411 1.243 . S
O428 La401 2.554 . S
O428 C418 1.240 . S
O429 La400 2.482 . S
O429 La401 2.757 . S
O429 C418 1.289 . S
O430 La401 2.470 . S
O430 C419 1.258 . S
O431 La400 2.503 . S
O431 C419 1.256 . S
H432 C404 0.930 . S
H433 C405 0.930 . S
H434 C407 0.929 . S
H435 C408 0.929 . S
H436 C413 0.930 . S
H437 C414 0.930 . S
H438 C416 0.929 . S
H439 C417 0.929 . S
La440 C442 2.928 . S
La440 O460 2.521 . S
La440 O461 2.628 . S
La440 O462 2.554 . S
La440 O463 2.757 . S
La440 O464 2.470 . S
La440 O469 2.482 . S
La440 O471 2.503 . S
La441 C451 2.928 . S
La441 O463 2.482 . S
La441 O465 2.503 . S
La441 O466 2.521 . S
La441 O467 2.628 . S
La441 O468 2.554 . S
La441 O469 2.757 . S
La441 O470 2.470 . S
C442 La440 2.928 . S
C442 C443 1.503 . S
C442 O460 1.261 . S
C442 O461 1.243 . S
C443 C442 1.503 . S
C443 C444 1.394 . S
C443 C448 1.373 . S
C444 C443 1.394 . S
C444 C445 1.380 . S
C444 H472 0.930 . S
C445 C444 1.380 . S
C445 C446 1.376 . S
C445 H473 0.930 . S
C446 C445 1.376 . S
C446 C447 1.370 . S
C447 C446 1.370 . S
C447 C448 1.396 . S
C447 H474 0.929 . S
C448 C443 1.373 . S
C448 C447 1.396 . S
C448 H475 0.929 . S
C449 O462 1.240 . S
C449 O463 1.289 . S
C450 O464 1.258 . S
C450 O465 1.256 . S
C451 La441 2.928 . S
C451 C452 1.503 . S
C451 O466 1.261 . S
C451 O467 1.243 . S
C452 C451 1.503 . S
C452 C453 1.394 . S
C452 C457 1.373 . S
C453 C452 1.394 . S
C453 C454 1.380 . S
C453 H476 0.930 . S
C454 C453 1.380 . S
C454 C455 1.376 . S
C454 H477 0.930 . S
C455 C454 1.376 . S
C455 C456 1.370 . S
C456 C455 1.370 . S
C456 C457 1.396 . S
C456 H478 0.929 . S
C457 C452 1.373 . S
C457 C456 1.396 . S
C457 H479 0.929 . S
C458 O468 1.240 . S
C458 O469 1.289 . S
C459 O470 1.258 . S
C459 O471 1.256 . S
O460 La440 2.521 . S
O460 C442 1.261 . S
O461 La440 2.628 . S
O461 C442 1.243 . S
O462 La440 2.554 . S
O462 C449 1.240 . S
O463 La440 2.757 . S
O463 La441 2.482 . S
O463 C449 1.289 . S
O464 La440 2.470 . S
O464 C450 1.258 . S
O465 La441 2.503 . S
O465 C450 1.256 . S
O466 La441 2.521 . S
O466 C451 1.261 . S
O467 La441 2.628 . S
O467 C451 1.243 . S
O468 La441 2.554 . S
O468 C458 1.240 . S
O469 La440 2.482 . S
O469 La441 2.757 . S
O469 C458 1.289 . S
O470 La441 2.470 . S
O470 C459 1.258 . S
O471 La440 2.503 . S
O471 C459 1.256 . S
H472 C444 0.930 . S
H473 C445 0.930 . S
H474 C447 0.929 . S
H475 C448 0.929 . S
H476 C453 0.930 . S
H477 C454 0.930 . S
H478 C456 0.929 . S
H479 C457 0.929 . S
La480 C482 2.928 . S
La480 O500 2.521 . S
La480 O501 2.628 . S
La480 O502 2.554 . S
La480 O503 2.757 . S
La480 O504 2.470 . S
La480 O509 2.482 . S
La480 O511 2.503 . S
La481 C491 2.928 . S
La481 O503 2.482 . S
La481 O505 2.503 . S
La481 O506 2.521 . S
La481 O507 2.628 . S
La481 O508 2.554 . S
La481 O509 2.757 . S
La481 O510 2.470 . S
C482 La480 2.928 . S
C482 C483 1.503 . S
C482 O500 1.261 . S
C482 O501 1.243 . S
C483 C482 1.503 . S
C483 C484 1.394 . S
C483 C488 1.373 . S
C484 C483 1.394 . S
C484 C485 1.380 . S
C484 H512 0.930 . S
C485 C484 1.380 . S
C485 C486 1.376 1_556 S
C485 H513 0.930 1_556 S
C486 C485 1.376 1_554 S
C486 C487 1.370 . S
C487 C486 1.370 . S
C487 C488 1.396 1_554 S
C487 H514 0.929 . S
C488 C483 1.373 . S
C488 C487 1.396 1_556 S
C488 H515 0.929 . S
C489 O502 1.240 . S
C489 O503 1.289 . S
C490 O504 1.258 . S
C490 O505 1.256 . S
C491 La481 2.928 . S
C491 C492 1.503 . S
C491 O506 1.261 . S
C491 O507 1.243 . S
C492 C491 1.503 . S
C492 C493 1.394 . S
C492 C497 1.373 . S
C493 C492 1.394 . S
C493 C494 1.380 . S
C493 H516 0.930 . S
C494 C493 1.380 . S
C494 C495 1.376 . S
C494 H517 0.930 . S
C495 C494 1.376 . S
C495 C496 1.370 . S
C496 C495 1.370 . S
C496 C497 1.396 . S
C496 H518 0.929 . S
C497 C492 1.373 . S
C497 C496 1.396 . S
C497 H519 0.929 . S
C498 O508 1.240 . S
C498 O509 1.289 . S
C499 O510 1.258 . S
C499 O511 1.256 . S
O500 La480 2.521 . S
O500 C482 1.261 . S
O501 La480 2.628 . S
O501 C482 1.243 . S
O502 La480 2.554 . S
O502 C489 1.240 . S
O503 La480 2.757 . S
O503 La481 2.482 . S
O503 C489 1.289 . S
O504 La480 2.470 . S
O504 C490 1.258 . S
O505 La481 2.503 . S
O505 C490 1.256 . S
O506 La481 2.521 . S
O506 C491 1.261 . S
O507 La481 2.628 . S
O507 C491 1.243 . S
O508 La481 2.554 . S
O508 C498 1.240 . S
O509 La480 2.482 . S
O509 La481 2.757 . S
O509 C498 1.289 . S
O510 La481 2.470 . S
O510 C499 1.258 . S
O511 La480 2.503 . S
O511 C499 1.256 . S
H512 C484 0.930 . S
H513 C485 0.930 1_554 S
H514 C487 0.929 . S
H515 C488 0.929 . S
H516 C493 0.930 . S
H517 C494 0.930 . S
H518 C496 0.929 . S
H519 C497 0.929 . S
La520 C522 2.928 . S
La520 O540 2.521 . S
La520 O541 2.628 . S
La520 O542 2.554 . S
La520 O543 2.757 . S
La520 O544 2.470 . S
La520 O549 2.482 . S
La520 O551 2.503 . S
La521 C531 2.928 . S
La521 O543 2.482 . S
La521 O545 2.503 . S
La521 O546 2.521 . S
La521 O547 2.628 . S
La521 O548 2.554 . S
La521 O549 2.757 . S
La521 O550 2.470 . S
C522 La520 2.928 . S
C522 C523 1.503 . S
C522 O540 1.261 . S
C522 O541 1.243 . S
C523 C522 1.503 . S
C523 C524 1.394 . S
C523 C528 1.373 . S
C524 C523 1.394 . S
C524 C525 1.380 . S
C524 H552 0.930 . S
C525 C524 1.380 . S
C525 C526 1.376 . S
C525 H553 0.930 . S
C526 C525 1.376 . S
C526 C527 1.370 . S
C527 C526 1.370 . S
C527 C528 1.396 . S
C527 H554 0.929 . S
C528 C523 1.373 . S
C528 C527 1.396 . S
C528 H555 0.929 . S
C529 O542 1.240 . S
C529 O543 1.289 . S
C530 O544 1.258 . S
C530 O545 1.256 . S
C531 La521 2.928 . S
C531 C532 1.503 . S
C531 O546 1.261 . S
C531 O547 1.243 . S
C532 C531 1.503 . S
C532 C533 1.394 . S
C532 C537 1.373 . S
C533 C532 1.394 . S
C533 C534 1.380 . S
C533 H556 0.930 . S
C534 C533 1.380 . S
C534 C535 1.376 . S
C534 H557 0.930 . S
C535 C534 1.376 . S
C535 C536 1.370 . S
C536 C535 1.370 . S
C536 C537 1.396 . S
C536 H558 0.929 . S
C537 C532 1.373 . S
C537 C536 1.396 . S
C537 H559 0.929 . S
C538 O548 1.240 . S
C538 O549 1.289 . S
C539 O550 1.258 . S
C539 O551 1.256 . S
O540 La520 2.521 . S
O540 C522 1.261 . S
O541 La520 2.628 . S
O541 C522 1.243 . S
O542 La520 2.554 . S
O542 C529 1.240 . S
O543 La520 2.757 . S
O543 La521 2.482 . S
O543 C529 1.289 . S
O544 La520 2.470 . S
O544 C530 1.258 . S
O545 La521 2.503 . S
O545 C530 1.256 . S
O546 La521 2.521 . S
O546 C531 1.261 . S
O547 La521 2.628 . S
O547 C531 1.243 . S
O548 La521 2.554 . S
O548 C538 1.240 . S
O549 La520 2.482 . S
O549 La521 2.757 . S
O549 C538 1.289 . S
O550 La521 2.470 . S
O550 C539 1.258 . S
O551 La520 2.503 . S
O551 C539 1.256 . S
H552 C524 0.930 . S
H553 C525 0.930 . S
H554 C527 0.929 . S
H555 C528 0.929 . S
H556 C533 0.930 . S
H557 C534 0.930 . S
H558 C536 0.929 . S
H559 C537 0.929 . S
La560 C562 2.928 . S
La560 O580 2.521 . S
La560 O581 2.628 . S
La560 O582 2.554 . S
La560 O583 2.757 . S
La560 O584 2.470 . S
La560 O589 2.482 . S
La560 O591 2.503 . S
La561 C571 2.928 . S
La561 O583 2.482 . S
La561 O585 2.503 . S
La561 O586 2.521 . S
La561 O587 2.628 . S
La561 O588 2.554 . S
La561 O589 2.757 . S
La561 O590 2.470 . S
C562 La560 2.928 . S
C562 C563 1.503 . S
C562 O580 1.261 . S
C562 O581 1.243 . S
C563 C562 1.503 . S
C563 C564 1.394 . S
C563 C568 1.373 . S
C564 C563 1.394 . S
C564 C565 1.380 . S
C564 H592 0.930 . S
C565 C564 1.380 . S
C565 C566 1.376 . S
C565 H593 0.930 . S
C566 C565 1.376 . S
C566 C567 1.370 . S
C567 C566 1.370 . S
C567 C568 1.396 . S
C567 H594 0.929 . S
C568 C563 1.373 . S
C568 C567 1.396 . S
C568 H595 0.929 . S
C569 O582 1.240 . S
C569 O583 1.289 . S
C570 O584 1.258 . S
C570 O585 1.256 . S
C571 La561 2.928 . S
C571 C572 1.503 . S
C571 O586 1.261 . S
C571 O587 1.243 . S
C572 C571 1.503 . S
C572 C573 1.394 . S
C572 C577 1.373 . S
C573 C572 1.394 . S
C573 C574 1.380 . S
C573 H596 0.930 . S
C574 C573 1.380 . S
C574 C575 1.376 . S
C574 H597 0.930 . S
C575 C574 1.376 . S
C575 C576 1.370 . S
C576 C575 1.370 . S
C576 C577 1.396 . S
C576 H598 0.929 1_554 S
C577 C572 1.373 . S
C577 C576 1.396 . S
C577 H599 0.929 . S
C578 O588 1.240 . S
C578 O589 1.289 . S
C579 O590 1.258 . S
C579 O591 1.256 . S
O580 La560 2.521 . S
O580 C562 1.261 . S
O581 La560 2.628 . S
O581 C562 1.243 . S
O582 La560 2.554 . S
O582 C569 1.240 . S
O583 La560 2.757 . S
O583 La561 2.482 . S
O583 C569 1.289 . S
O584 La560 2.470 . S
O584 C570 1.258 . S
O585 La561 2.503 . S
O585 C570 1.256 . S
O586 La561 2.521 . S
O586 C571 1.261 . S
O587 La561 2.628 . S
O587 C571 1.243 . S
O588 La561 2.554 . S
O588 C578 1.240 . S
O589 La560 2.482 . S
O589 La561 2.757 . S
O589 C578 1.289 . S
O590 La561 2.470 . S
O590 C579 1.258 . S
O591 La560 2.503 . S
O591 C579 1.256 . S
H592 C564 0.930 . S
H593 C565 0.930 . S
H594 C567 0.929 . S
H595 C568 0.929 . S
H596 C573 0.930 . S
H597 C574 0.930 . S
H598 C576 0.929 1_556 S
H599 C577 0.929 . S
La600 C602 2.930 1_556 S
La600 O620 2.521 . S
La600 O621 2.628 . S
La600 O622 2.554 . S
La600 O623 2.757 . S
La600 O624 2.470 . S
La600 O629 2.482 . S
La600 O631 2.503 . S
La601 C611 2.928 . S
La601 O623 2.482 . S
La601 O625 2.503 . S
La601 O626 2.521 . S
La601 O627 2.628 . S
La601 O628 2.554 . S
La601 O629 2.757 . S
La601 O630 2.470 . S
C602 La600 2.930 1_554 S
C602 C603 1.501 . S
C602 O620 1.262 1_554 S
C602 O621 1.244 1_554 S
C603 C602 1.501 . S
C603 C604 1.394 . S
C603 C608 1.373 . S
C604 C603 1.394 . S
C604 C605 1.380 . S
C604 H632 0.930 . S
C605 C604 1.380 . S
C605 C606 1.376 . S
C605 H633 0.930 . S
C606 C605 1.376 . S
C606 C607 1.370 . S
C607 C606 1.370 . S
C607 C608 1.396 . S
C607 H634 0.929 . S
C608 C603 1.373 . S
C608 C607 1.396 . S
C608 H635 0.929 . S
C609 O622 1.240 . S
C609 O623 1.289 . S
C610 O624 1.258 . S
C610 O625 1.256 . S
C611 La601 2.928 . S
C611 C612 1.503 . S
C611 O626 1.261 . S
C611 O627 1.243 . S
C612 C611 1.503 . S
C612 C613 1.394 . S
C612 C617 1.373 . S
C613 C612 1.394 . S
C613 C614 1.380 . S
C613 H636 0.930 . S
C614 C613 1.380 . S
C614 C615 1.376 . S
C614 H637 0.930 . S
C615 C614 1.376 . S
C615 C616 1.370 . S
C616 C615 1.370 . S
C616 C617 1.396 . S
C616 H638 0.929 . S
C617 C612 1.373 . S
C617 C616 1.396 . S
C617 H639 0.929 . S
C618 O628 1.240 . S
C618 O629 1.289 . S
C619 O630 1.258 . S
C619 O631 1.256 . S
O620 La600 2.521 . S
O620 C602 1.262 1_556 S
O621 La600 2.628 . S
O621 C602 1.244 1_556 S
O622 La600 2.554 . S
O622 C609 1.240 . S
O623 La600 2.757 . S
O623 La601 2.482 . S
O623 C609 1.289 . S
O624 La600 2.470 . S
O624 C610 1.258 . S
O625 La601 2.503 . S
O625 C610 1.256 . S
O626 La601 2.521 . S
O626 C611 1.261 . S
O627 La601 2.628 . S
O627 C611 1.243 . S
O628 La601 2.554 . S
O628 C618 1.240 . S
O629 La600 2.482 . S
O629 La601 2.757 . S
O629 C618 1.289 . S
O630 La601 2.470 . S
O630 C619 1.258 . S
O631 La600 2.503 . S
O631 C619 1.256 . S
H632 C604 0.930 . S
H633 C605 0.930 . S
H634 C607 0.929 . S
H635 C608 0.929 . S
H636 C613 0.930 . S
H637 C614 0.930 . S
H638 C616 0.929 . S
H639 C617 0.929 . S
La640 C642 2.928 . S
La640 O660 2.521 . S
La640 O661 2.628 . S
La640 O662 2.554 . S
La640 O663 2.757 . S
La640 O664 2.470 . S
La640 O669 2.482 . S
La640 O671 2.503 . S
La641 C651 2.928 . S
La641 O663 2.482 . S
La641 O665 2.503 . S
La641 O666 2.521 . S
La641 O667 2.628 . S
La641 O668 2.554 . S
La641 O669 2.757 . S
La641 O670 2.470 . S
C642 La640 2.928 . S
C642 C643 1.503 . S
C642 O660 1.261 . S
C642 O661 1.243 . S
C643 C642 1.503 . S
C643 C644 1.394 . S
C643 C648 1.373 . S
C644 C643 1.394 . S
C644 C645 1.380 . S
C644 H672 0.930 . S
C645 C644 1.380 . S
C645 C646 1.376 . S
C645 H673 0.930 . S
C646 C645 1.376 . S
C646 C647 1.370 . S
C647 C646 1.370 . S
C647 C648 1.396 . S
C647 H674 0.929 . S
C648 C643 1.373 . S
C648 C647 1.396 . S
C648 H675 0.929 . S
C649 O662 1.240 . S
C649 O663 1.289 . S
C650 O664 1.258 . S
C650 O665 1.256 . S
C651 La641 2.928 . S
C651 C652 1.503 . S
C651 O666 1.261 . S
C651 O667 1.243 . S
C652 C651 1.503 . S
C652 C653 1.394 . S
C652 C657 1.373 . S
C653 C652 1.394 . S
C653 C654 1.380 . S
C653 H676 0.930 . S
C654 C653 1.380 . S
C654 C655 1.376 . S
C654 H677 0.930 . S
C655 C654 1.376 . S
C655 C656 1.370 . S
C656 C655 1.370 . S
C656 C657 1.396 . S
C656 H678 0.929 . S
C657 C652 1.373 . S
C657 C656 1.396 . S
C657 H679 0.929 . S
C658 O668 1.240 . S
C658 O669 1.289 . S
C659 O670 1.258 . S
C659 O671 1.256 . S
O660 La640 2.521 . S
O660 C642 1.261 . S
O661 La640 2.628 . S
O661 C642 1.243 . S
O662 La640 2.554 . S
O662 C649 1.240 . S
O663 La640 2.757 . S
O663 La641 2.482 . S
O663 C649 1.289 . S
O664 La640 2.470 . S
O664 C650 1.258 . S
O665 La641 2.503 . S
O665 C650 1.256 . S
O666 La641 2.521 . S
O666 C651 1.261 . S
O667 La641 2.628 . S
O667 C651 1.243 . S
O668 La641 2.554 . S
O668 C658 1.240 . S
O669 La640 2.482 . S
O669 La641 2.757 . S
O669 C658 1.289 . S
O670 La641 2.470 . S
O670 C659 1.258 . S
O671 La640 2.503 . S
O671 C659 1.256 . S
H672 C644 0.930 . S
H673 C645 0.930 . S
H674 C647 0.929 . S
H675 C648 0.929 . S
H676 C653 0.930 . S
H677 C654 0.930 . S
H678 C656 0.929 . S
H679 C657 0.929 . S
La680 C682 2.928 . S
La680 O700 2.521 . S
La680 O701 2.628 . S
La680 O702 2.554 . S
La680 O703 2.757 . S
La680 O704 2.470 . S
La680 O709 2.482 . S
La680 O711 2.503 . S
La681 C691 2.928 . S
La681 O703 2.482 . S
La681 O705 2.503 . S
La681 O706 2.521 . S
La681 O707 2.628 . S
La681 O708 2.554 . S
La681 O709 2.757 . S
La681 O710 2.470 . S
C682 La680 2.928 . S
C682 C683 1.503 1_556 S
C682 O700 1.261 . S
C682 O701 1.243 . S
C683 C682 1.503 1_554 S
C683 C684 1.394 . S
C683 C688 1.373 . S
C684 C683 1.394 . S
C684 C685 1.380 . S
C684 H712 0.924 1_554 S
C685 C684 1.380 . S
C685 C686 1.376 . S
C685 H713 0.930 . S
C686 C685 1.376 . S
C686 C687 1.370 . S
C687 C686 1.370 . S
C687 C688 1.396 . S
C687 H714 0.929 . S
C688 C683 1.373 . S
C688 C687 1.396 . S
C688 H715 0.929 . S
C689 O702 1.240 . S
C689 O703 1.289 . S
C690 O704 1.258 . S
C690 O705 1.256 . S
C691 La681 2.928 . S
C691 C692 1.503 . S
C691 O706 1.261 . S
C691 O707 1.243 . S
C692 C691 1.503 . S
C692 C693 1.394 . S
C692 C697 1.373 . S
C693 C692 1.394 . S
C693 C694 1.380 . S
C693 H716 0.930 . S
C694 C693 1.380 . S
C694 C695 1.376 . S
C694 H717 0.930 . S
C695 C694 1.376 . S
C695 C696 1.370 . S
C696 C695 1.370 . S
C696 C697 1.396 . S
C696 H718 0.929 . S
C697 C692 1.373 . S
C697 C696 1.396 . S
C697 H719 0.929 . S
C698 O708 1.240 . S
C698 O709 1.289 . S
C699 O710 1.258 . S
C699 O711 1.256 . S
O700 La680 2.521 . S
O700 C682 1.261 . S
O701 La680 2.628 . S
O701 C682 1.243 . S
O702 La680 2.554 . S
O702 C689 1.240 . S
O703 La680 2.757 . S
O703 La681 2.482 . S
O703 C689 1.289 . S
O704 La680 2.470 . S
O704 C690 1.258 . S
O705 La681 2.503 . S
O705 C690 1.256 . S
O706 La681 2.521 . S
O706 C691 1.261 . S
O707 La681 2.628 . S
O707 C691 1.243 . S
O708 La681 2.554 . S
O708 C698 1.240 . S
O709 La680 2.482 . S
O709 La681 2.757 . S
O709 C698 1.289 . S
O710 La681 2.470 . S
O710 C699 1.258 . S
O711 La680 2.503 . S
O711 C699 1.256 . S
H712 C684 0.924 1_556 S
H713 C685 0.930 . S
H714 C687 0.929 . S
H715 C688 0.929 . S
H716 C693 0.930 . S
H717 C694 0.930 . S
H718 C696 0.929 . S
H719 C697 0.929 . S
La720 C722 2.928 . S
La720 O740 2.521 1_655 S
La720 O741 2.628 . S
La720 O742 2.554 1_655 S
La720 O743 2.757 . S
La720 O744 2.470 . S
La720 O749 2.482 . S
La720 O751 2.503 . S
La721 C731 2.928 1_554 S
La721 O743 2.482 . S
La721 O745 2.503 . S
La721 O746 2.521 . S
La721 O747 2.628 . S
La721 O748 2.554 . S
La721 O749 2.757 . S
La721 O750 2.470 . S
C722 La720 2.928 . S
C722 C723 1.493 1_655 S
C722 O740 1.261 1_655 S
C722 O741 1.243 . S
C723 C722 1.493 1_455 S
C723 C724 1.422 . S
C723 C728 1.356 1_455 S
C724 C723 1.422 . S
C724 C725 1.380 . S
C724 H752 0.930 . S
C725 C724 1.380 . S
C725 C726 1.376 . S
C725 H753 0.930 . S
C726 C725 1.376 . S
C726 C727 1.370 1_455 S
C727 C726 1.370 1_655 S
C727 C728 1.396 . S
C727 H754 0.929 . S
C728 C723 1.356 1_655 S
C728 C727 1.396 . S
C728 H755 0.929 . S
C729 O742 1.240 1_655 S
C729 O743 1.289 . S
C730 O744 1.258 . S
C730 O745 1.256 . S
C731 La721 2.928 1_556 S
C731 C732 1.503 . S
C731 O746 1.261 1_556 S
C731 O747 1.243 1_556 S
C732 C731 1.503 . S
C732 C733 1.394 . S
C732 C737 1.373 . S
C733 C732 1.394 . S
C733 C734 1.380 . S
C733 H756 0.930 . S
C734 C733 1.380 . S
C734 C735 1.376 . S
C734 H757 0.930 . S
C735 C734 1.376 . S
C735 C736 1.370 . S
C736 C735 1.370 . S
C736 C737 1.396 . S
C736 H758 0.929 . S
C737 C732 1.373 . S
C737 C736 1.396 . S
C737 H759 0.929 . S
C738 O748 1.240 . S
C738 O749 1.289 . S
C739 O750 1.258 . S
C739 O751 1.256 . S
O740 La720 2.521 1_455 S
O740 C722 1.261 1_455 S
O741 La720 2.628 . S
O741 C722 1.243 . S
O742 La720 2.554 1_455 S
O742 C729 1.240 1_455 S
O743 La720 2.757 . S
O743 La721 2.482 . S
O743 C729 1.289 . S
O744 La720 2.470 . S
O744 C730 1.258 . S
O745 La721 2.503 . S
O745 C730 1.256 . S
O746 La721 2.521 . S
O746 C731 1.261 1_554 S
O747 La721 2.628 . S
O747 C731 1.243 1_554 S
O748 La721 2.554 . S
O748 C738 1.240 . S
O749 La720 2.482 . S
O749 La721 2.757 . S
O749 C738 1.289 . S
O750 La721 2.470 . S
O750 C739 1.258 . S
O751 La720 2.503 . S
O751 C739 1.256 . S
H752 C724 0.930 . S
H753 C725 0.930 . S
H754 C727 0.929 . S
H755 C728 0.929 . S
H756 C733 0.930 . S
H757 C734 0.930 . S
H758 C736 0.929 . S
H759 C737 0.929 . S
La760 C762 2.928 . S
La760 O780 2.521 . S
La760 O781 2.628 . S
La760 O782 2.554 . S
La760 O783 2.757 . S
La760 O784 2.470 . S
La760 O789 2.482 . S
La760 O791 2.503 . S
La761 C771 2.928 . S
La761 O783 2.482 . S
La761 O785 2.503 . S
La761 O786 2.521 . S
La761 O787 2.628 . S
La761 O788 2.554 . S
La761 O789 2.757 . S
La761 O790 2.470 . S
C762 La760 2.928 . S
C762 C763 1.503 . S
C762 O780 1.261 . S
C762 O781 1.243 . S
C763 C762 1.503 . S
C763 C764 1.394 . S
C763 C768 1.373 . S
C764 C763 1.394 . S
C764 C765 1.380 . S
C764 H792 0.930 . S
C765 C764 1.380 . S
C765 C766 1.376 . S
C765 H793 0.930 . S
C766 C765 1.376 . S
C766 C767 1.370 . S
C767 C766 1.370 . S
C767 C768 1.396 . S
C767 H794 0.929 . S
C768 C763 1.373 . S
C768 C767 1.396 . S
C768 H795 0.929 . S
C769 O782 1.240 . S
C769 O783 1.289 . S
C770 O784 1.258 . S
C770 O785 1.256 . S
C771 La761 2.928 . S
C771 C772 1.503 . S
C771 O786 1.261 . S
C771 O787 1.243 . S
C772 C771 1.503 . S
C772 C773 1.394 . S
C772 C777 1.373 . S
C773 C772 1.394 . S
C773 C774 1.380 . S
C773 H796 0.930 . S
C774 C773 1.380 . S
C774 C775 1.376 . S
C774 H797 0.930 . S
C775 C774 1.376 . S
C775 C776 1.370 . S
C776 C775 1.370 . S
C776 C777 1.396 . S
C776 H798 0.929 . S
C777 C772 1.373 . S
C777 C776 1.396 . S
C777 H799 0.929 . S
C778 O788 1.240 . S
C778 O789 1.289 . S
C779 O790 1.258 . S
C779 O791 1.256 . S
O780 La760 2.521 . S
O780 C762 1.261 . S
O781 La760 2.628 . S
O781 C762 1.243 . S
O782 La760 2.554 . S
O782 C769 1.240 . S
O783 La760 2.757 . S
O783 La761 2.482 . S
O783 C769 1.289 . S
O784 La760 2.470 . S
O784 C770 1.258 . S
O785 La761 2.503 . S
O785 C770 1.256 . S
O786 La761 2.521 . S
O786 C771 1.261 . S
O787 La761 2.628 . S
O787 C771 1.243 . S
O788 La761 2.554 . S
O788 C778 1.240 . S
O789 La760 2.482 . S
O789 La761 2.757 . S
O789 C778 1.289 . S
O790 La761 2.470 . S
O790 C779 1.258 . S
O791 La760 2.503 . S
O791 C779 1.256 . S
H792 C764 0.930 . S
H793 C765 0.930 . S
H794 C767 0.929 . S
H795 C768 0.929 . S
H796 C773 0.930 . S
H797 C774 0.930 . S
H798 C776 0.929 . S
H799 C777 0.929 . S
La800 C802 2.928 . S
La800 O820 2.521 . S
La800 O821 2.628 . S
La800 O822 2.554 . S
La800 O823 2.757 . S
La800 O824 2.470 . S
La800 O829 2.482 . S
La800 O831 2.503 . S
La801 C811 2.928 1_544 S
La801 O823 2.482 . S
La801 O825 2.503 . S
La801 O826 2.521 1_544 S
La801 O827 2.628 1_554 S
La801 O828 2.554 1_545 S
La801 O829 2.757 . S
La801 O830 2.470 1_554 S
C802 La800 2.928 . S
C802 C803 1.503 . S
C802 O820 1.261 . S
C802 O821 1.243 . S
C803 C802 1.503 . S
C803 C804 1.394 . S
C803 C808 1.373 . S
C804 C803 1.394 . S
C804 C805 1.380 . S
C804 H832 0.930 . S
C805 C804 1.380 . S
C805 C806 1.376 . S
C805 H833 0.930 . S
C806 C805 1.376 . S
C806 C807 1.370 . S
C807 C806 1.370 . S
C807 C808 1.396 . S
C807 H834 0.929 . S
C808 C803 1.373 . S
C808 C807 1.396 . S
C808 H835 0.929 . S
C809 O822 1.240 . S
C809 O823 1.289 . S
C810 O824 1.258 . S
C810 O825 1.256 . S
C811 La801 2.928 1_566 S
C811 C812 1.503 . S
C811 O826 1.261 . S
C811 O827 1.243 1_565 S
C812 C811 1.503 . S
C812 C813 1.394 . S
C812 C817 1.373 . S
C813 C812 1.394 . S
C813 C814 1.380 . S
C813 H836 0.930 . S
C814 C813 1.380 . S
C814 C815 1.376 . S
C814 H837 0.930 . S
C815 C814 1.376 . S
C815 C816 1.370 . S
C816 C815 1.370 . S
C816 C817 1.396 . S
C816 H838 0.929 . S
C817 C812 1.373 . S
C817 C816 1.396 . S
C817 H839 0.929 1_565 S
C818 O828 1.240 1_545 S
C818 O829 1.289 . S
C819 O830 1.258 . S
C819 O831 1.256 1_556 S
O820 La800 2.521 . S
O820 C802 1.261 . S
O821 La800 2.628 . S
O821 C802 1.243 . S
O822 La800 2.554 . S
O822 C809 1.240 . S
O823 La800 2.757 . S
O823 La801 2.482 . S
O823 C809 1.289 . S
O824 La800 2.470 . S
O824 C810 1.258 . S
O825 La801 2.503 . S
O825 C810 1.256 . S
O826 La801 2.521 1_566 S
O826 C811 1.261 . S
O827 La801 2.628 1_556 S
O827 C811 1.243 1_545 S
O828 La801 2.554 1_565 S
O828 C818 1.240 1_565 S
O829 La800 2.482 . S
O829 La801 2.757 . S
O829 C818 1.289 . S
O830 La801 2.470 1_556 S
O830 C819 1.258 . S
O831 La800 2.503 . S
O831 C819 1.256 1_554 S
H832 C804 0.930 . S
H833 C805 0.930 . S
H834 C807 0.929 . S
H835 C808 0.929 . S
H836 C813 0.930 . S
H837 C814 0.930 . S
H838 C816 0.929 . S
H839 C817 0.929 1_545 S
La840 C842 2.928 . S
La840 O860 2.521 . S
La840 O861 2.628 . S
La840 O862 2.554 . S
La840 O863 2.757 . S
La840 O864 2.470 . S
La840 O869 2.482 . S
La840 O871 2.503 . S
La841 C851 2.928 . S
La841 O863 2.482 . S
La841 O865 2.503 . S
La841 O866 2.521 . S
La841 O867 2.628 . S
La841 O868 2.554 . S
La841 O869 2.757 . S
La841 O870 2.470 . S
C842 La840 2.928 . S
C842 C843 1.503 . S
C842 O860 1.261 . S
C842 O861 1.243 . S
C843 C842 1.503 . S
C843 C844 1.394 . S
C843 C848 1.373 . S
C844 C843 1.394 . S
C844 C845 1.380 . S
C844 H872 0.930 . S
C845 C844 1.380 . S
C845 C846 1.376 . S
C845 H873 0.930 . S
C846 C845 1.376 . S
C846 C847 1.370 . S
C847 C846 1.370 . S
C847 C848 1.396 . S
C847 H874 0.929 . S
C848 C843 1.373 . S
C848 C847 1.396 . S
C848 H875 0.929 . S
C849 O862 1.240 . S
C849 O863 1.289 . S
C850 O864 1.258 . S
C850 O865 1.256 . S
C851 La841 2.928 . S
C851 C852 1.503 . S
C851 O866 1.261 . S
C851 O867 1.243 . S
C852 C851 1.503 . S
C852 C853 1.394 . S
C852 C857 1.373 . S
C853 C852 1.394 . S
C853 C854 1.380 . S
C853 H876 0.930 . S
C854 C853 1.380 . S
C854 C855 1.376 . S
C854 H877 0.930 . S
C855 C854 1.376 . S
C855 C856 1.370 . S
C856 C855 1.370 . S
C856 C857 1.396 . S
C856 H878 0.929 . S
C857 C852 1.373 . S
C857 C856 1.396 . S
C857 H879 0.929 . S
C858 O868 1.240 . S
C858 O869 1.289 . S
C859 O870 1.258 . S
C859 O871 1.256 . S
O860 La840 2.521 . S
O860 C842 1.261 . S
O861 La840 2.628 . S
O861 C842 1.243 . S
O862 La840 2.554 . S
O862 C849 1.240 . S
O863 La840 2.757 . S
O863 La841 2.482 . S
O863 C849 1.289 . S
O864 La840 2.470 . S
O864 C850 1.258 . S
O865 La841 2.503 . S
O865 C850 1.256 . S
O866 La841 2.521 . S
O866 C851 1.261 . S
O867 La841 2.628 . S
O867 C851 1.243 . S
O868 La841 2.554 . S
O868 C858 1.240 . S
O869 La840 2.482 . S
O869 La841 2.757 . S
O869 C858 1.289 . S
O870 La841 2.470 . S
O870 C859 1.258 . S
O871 La840 2.503 . S
O871 C859 1.256 . S
H872 C844 0.930 . S
H873 C845 0.930 . S
H874 C847 0.929 . S
H875 C848 0.929 . S
H876 C853 0.930 . S
H877 C854 0.930 . S
H878 C856 0.929 . S
H879 C857 0.929 . S
La880 C882 2.928 . S
La880 O900 2.521 . S
La880 O901 2.628 . S
La880 O902 2.554 . S
La880 O903 2.757 . S
La880 O904 2.470 . S
La880 O909 2.482 . S
La880 O911 2.503 . S
La881 C891 2.928 . S
La881 O903 2.482 1_545 S
La881 O905 2.506 . S
La881 O906 2.521 . S
La881 O907 2.628 1_545 S
La881 O908 2.554 . S
La881 O909 2.757 1_545 S
La881 O910 2.470 1_545 S
C882 La880 2.928 . S
C882 C883 1.503 . S
C882 O900 1.261 . S
C882 O901 1.243 . S
C883 C882 1.503 . S
C883 C884 1.394 . S
C883 C888 1.373 . S
C884 C883 1.394 . S
C884 C885 1.380 . S
C884 H912 0.930 . S
C885 C884 1.380 . S
C885 C886 1.376 . S
C885 H913 0.930 . S
C886 C885 1.376 . S
C886 C887 1.370 . S
C887 C886 1.370 . S
C887 C888 1.396 . S
C887 H914 0.929 . S
C888 C883 1.373 . S
C888 C887 1.396 . S
C888 H915 0.929 . S
C889 O902 1.240 . S
C889 O903 1.289 . S
C890 O904 1.258 . S
C890 O905 1.242 1_565 S
C891 La881 2.928 . S
C891 C892 1.503 . S
C891 O906 1.261 . S
C891 O907 1.243 1_545 S
C892 C891 1.503 . S
C892 C893 1.394 . S
C892 C897 1.373 . S
C893 C892 1.394 . S
C893 C894 1.380 . S
C893 H916 0.930 . S
C894 C893 1.380 . S
C894 C895 1.376 . S
C894 H917 0.930 . S
C895 C894 1.376 . S
C895 C896 1.370 . S
C896 C895 1.370 . S
C896 C897 1.396 . S
C896 H918 0.929 . S
C897 C892 1.373 . S
C897 C896 1.396 . S
C897 H919 0.896 1_545 S
C898 O908 1.240 . S
C898 O909 1.289 1_545 S
C899 O910 1.258 . S
C899 O911 1.256 . S
O900 La880 2.521 . S
O900 C882 1.261 . S
O901 La880 2.628 . S
O901 C882 1.243 . S
O902 La880 2.554 . S
O902 C889 1.240 . S
O903 La880 2.757 . S
O903 La881 2.482 1_565 S
O903 C889 1.289 . S
O904 La880 2.470 . S
O904 C890 1.258 . S
O905 La881 2.506 . S
O905 C890 1.242 1_545 S
O906 La881 2.521 . S
O906 C891 1.261 . S
O907 La881 2.628 1_565 S
O907 C891 1.243 1_565 S
O908 La881 2.554 . S
O908 C898 1.240 . S
O909 La880 2.482 . S
O909 La881 2.757 1_565 S
O909 C898 1.289 1_565 S
O910 La881 2.470 1_565 S
O910 C899 1.258 . S
O911 La880 2.503 . S
O911 C899 1.256 . S
H912 C884 0.930 . S
H913 C885 0.930 . S
H914 C887 0.929 . S
H915 C888 0.929 . S
H916 C893 0.930 . S
H917 C894 0.930 . S
H918 C896 0.929 . S
H919 C897 0.896 1_565 S
La920 C922 2.928 1_556 S
La920 O940 2.521 1_556 S
La920 O941 2.628 1_556 S
La920 O942 2.554 . S
La920 O943 2.757 . S
La920 O944 2.470 . S
La920 O949 2.482 . S
La920 O951 2.503 . S
La921 C931 2.928 . S
La921 O943 2.482 . S
La921 O945 2.503 . S
La921 O946 2.521 . S
La921 O947 2.628 . S
La921 O948 2.554 . S
La921 O949 2.757 . S
La921 O950 2.470 . S
C922 La920 2.928 1_554 S
C922 C923 1.503 . S
C922 O940 1.261 . S
C922 O941 1.243 . S
C923 C922 1.503 . S
C923 C924 1.394 . S
C923 C928 1.373 . S
C924 C923 1.394 . S
C924 C925 1.380 . S
C924 H952 0.930 . S
C925 C924 1.380 . S
C925 C926 1.376 . S
C925 H953 0.930 . S
C926 C925 1.376 . S
C926 C927 1.370 . S
C927 C926 1.370 . S
C927 C928 1.396 . S
C927 H954 0.929 . S
C928 C923 1.373 . S
C928 C927 1.396 . S
C928 H955 0.929 . S
C929 O942 1.240 . S
C929 O943 1.289 . S
C930 O944 1.258 . S
C930 O945 1.256 . S
C931 La921 2.928 . S
C931 C932 1.503 . S
C931 O946 1.261 . S
C931 O947 1.243 . S
C932 C931 1.503 . S
C932 C933 1.394 . S
C932 C937 1.373 . S
C933 C932 1.394 . S
C933 C934 1.380 . S
C933 H956 0.930 . S
C934 C933 1.380 . S
C934 C935 1.376 . S
C934 H957 0.930 . S
C935 C934 1.376 . S
C935 C936 1.370 . S
C936 C935 1.370 . S
C936 C937 1.396 . S
C936 H958 0.929 . S
C937 C932 1.373 . S
C937 C936 1.396 . S
C937 H959 0.929 . S
C938 O948 1.240 . S
C938 O949 1.289 . S
C939 O950 1.258 . S
C939 O951 1.256 . S
O940 La920 2.521 1_554 S
O940 C922 1.261 . S
O941 La920 2.628 1_554 S
O941 C922 1.243 . S
O942 La920 2.554 . S
O942 C929 1.240 . S
O943 La920 2.757 . S
O943 La921 2.482 . S
O943 C929 1.289 . S
O944 La920 2.470 . S
O944 C930 1.258 . S
O945 La921 2.503 . S
O945 C930 1.256 . S
O946 La921 2.521 . S
O946 C931 1.261 . S
O947 La921 2.628 . S
O947 C931 1.243 . S
O948 La921 2.554 . S
O948 C938 1.240 . S
O949 La920 2.482 . S
O949 La921 2.757 . S
O949 C938 1.289 . S
O950 La921 2.470 . S
O950 C939 1.258 . S
O951 La920 2.503 . S
O951 C939 1.256 . S
H952 C924 0.930 . S
H953 C925 0.930 . S
H954 C927 0.929 . S
H955 C928 0.929 . S
H956 C933 0.930 . S
H957 C934 0.930 . S
H958 C936 0.929 . S
H959 C937 0.929 . S
La960 C962 2.928 . S
La960 O980 2.521 . S
La960 O981 2.628 . S
La960 O982 2.554 . S
La960 O983 2.757 . S
La960 O984 2.470 . S
La960 O989 2.482 . S
La960 O991 2.503 . S
La961 C971 2.928 . S
La961 O983 2.482 . S
La961 O985 2.503 . S
La961 O986 2.521 . S
La961 O987 2.628 . S
La961 O988 2.554 . S
La961 O989 2.757 . S
La961 O990 2.470 . S
C962 La960 2.928 . S
C962 C963 1.503 . S
C962 O980 1.261 . S
C962 O981 1.243 . S
C963 C962 1.503 . S
C963 C964 1.394 . S
C963 C968 1.373 . S
C964 C963 1.394 . S
C964 C965 1.380 . S
C964 H992 0.930 . S
C965 C964 1.380 . S
C965 C966 1.376 . S
C965 H993 0.930 . S
C966 C965 1.376 . S
C966 C967 1.370 . S
C967 C966 1.370 . S
C967 C968 1.396 . S
C967 H994 0.929 . S
C968 C963 1.373 . S
C968 C967 1.396 . S
C968 H995 0.929 . S
C969 O982 1.240 . S
C969 O983 1.289 . S
C970 O984 1.258 . S
C970 O985 1.256 . S
C971 La961 2.928 . S
C971 C972 1.503 . S
C971 O986 1.261 . S
C971 O987 1.243 . S
C972 C971 1.503 . S
C972 C973 1.394 . S
C972 C977 1.373 . S
C973 C972 1.394 . S
C973 C974 1.380 . S
C973 H996 0.930 . S
C974 C973 1.380 . S
C974 C975 1.376 . S
C974 H997 0.930 . S
C975 C974 1.376 . S
C975 C976 1.370 . S
C976 C975 1.370 . S
C976 C977 1.396 . S
C976 H998 0.929 . S
C977 C972 1.373 . S
C977 C976 1.396 . S
C977 H999 0.929 . S
C978 O988 1.240 . S
C978 O989 1.289 . S
C979 O990 1.258 . S
C979 O991 1.256 . S
O980 La960 2.521 . S
O980 C962 1.261 . S
O981 La960 2.628 . S
O981 C962 1.243 . S
O982 La960 2.554 . S
O982 C969 1.240 . S
O983 La960 2.757 . S
O983 La961 2.482 . S
O983 C969 1.289 . S
O984 La960 2.470 . S
O984 C970 1.258 . S
O985 La961 2.503 . S
O985 C970 1.256 . S
O986 La961 2.521 . S
O986 C971 1.261 . S
O987 La961 2.628 . S
O987 C971 1.243 . S
O988 La961 2.554 . S
O988 C978 1.240 . S
O989 La960 2.482 . S
O989 La961 2.757 . S
O989 C978 1.289 . S
O990 La961 2.470 . S
O990 C979 1.258 . S
O991 La960 2.503 . S
O991 C979 1.256 . S
H992 C964 0.930 . S
H993 C965 0.930 . S
H994 C967 0.929 . S
H995 C968 0.929 . S
H996 C973 0.930 . S
H997 C974 0.930 . S
H998 C976 0.929 . S
H999 C977 0.929 . S
La1000 C1002 2.928 . S
La1000 O1020 2.521 . S
La1000 O1021 2.628 . S
La1000 O1022 2.554 . S
La1000 O1023 2.757 . S
La1000 O1024 2.470 . S
La1000 O1029 2.482 . S
La1000 O1031 2.503 . S
La1001 C1011 2.928 . S
La1001 O1023 2.482 . S
La1001 O1025 2.503 . S
La1001 O1026 2.521 . S
La1001 O1027 2.628 . S
La1001 O1028 2.554 . S
La1001 O1029 2.757 . S
La1001 O1030 2.470 . S
C1002 La1000 2.928 . S
C1002 C1003 1.503 . S
C1002 O1020 1.261 . S
C1002 O1021 1.243 . S
C1003 C1002 1.503 . S
C1003 C1004 1.394 . S
C1003 C1008 1.373 . S
C1004 C1003 1.394 . S
C1004 C1005 1.380 . S
C1004 H1032 0.930 . S
C1005 C1004 1.380 . S
C1005 C1006 1.376 . S
C1005 H1033 0.930 . S
C1006 C1005 1.376 . S
C1006 C1007 1.370 . S
C1007 C1006 1.370 . S
C1007 C1008 1.396 . S
C1007 H1034 0.929 . S
C1008 C1003 1.373 . S
C1008 C1007 1.396 . S
C1008 H1035 0.929 . S
C1009 O1022 1.240 . S
C1009 O1023 1.289 . S
C1010 O1024 1.258 . S
C1010 O1025 1.256 . S
C1011 La1001 2.928 . S
C1011 C1012 1.503 . S
C1011 O1026 1.261 . S
C1011 O1027 1.243 . S
C1012 C1011 1.503 . S
C1012 C1013 1.394 . S
C1012 C1017 1.373 . S
C1013 C1012 1.394 . S
C1013 C1014 1.380 . S
C1013 H1036 0.930 . S
C1014 C1013 1.380 . S
C1014 C1015 1.376 . S
C1014 H1037 0.930 . S
C1015 C1014 1.376 . S
C1015 C1016 1.370 . S
C1016 C1015 1.370 . S
C1016 C1017 1.396 . S
C1016 H1038 0.929 . S
C1017 C1012 1.373 . S
C1017 C1016 1.396 . S
C1017 H1039 0.929 . S
C1018 O1028 1.240 . S
C1018 O1029 1.289 . S
C1019 O1030 1.258 . S
C1019 O1031 1.256 . S
O1020 La1000 2.521 . S
O1020 C1002 1.261 . S
O1021 La1000 2.628 . S
O1021 C1002 1.243 . S
O1022 La1000 2.554 . S
O1022 C1009 1.240 . S
O1023 La1000 2.757 . S
O1023 La1001 2.482 . S
O1023 C1009 1.289 . S
O1024 La1000 2.470 . S
O1024 C1010 1.258 . S
O1025 La1001 2.503 . S
O1025 C1010 1.256 . S
O1026 La1001 2.521 . S
O1026 C1011 1.261 . S
O1027 La1001 2.628 . S
O1027 C1011 1.243 . S
O1028 La1001 2.554 . S
O1028 C1018 1.240 . S
O1029 La1000 2.482 . S
O1029 La1001 2.757 . S
O1029 C1018 1.289 . S
O1030 La1001 2.470 . S
O1030 C1019 1.258 . S
O1031 La1000 2.503 . S
O1031 C1019 1.256 . S
H1032 C1004 0.930 . S
H1033 C1005 0.930 . S
H1034 C1007 0.929 . S
H1035 C1008 0.929 . S
H1036 C1013 0.930 . S
H1037 C1014 0.930 . S
H1038 C1016 0.929 . S
H1039 C1017 0.929 . S
La1040 C1042 2.928 . S
La1040 O1060 2.521 . S
La1040 O1061 2.628 . S
La1040 O1062 2.554 . S
La1040 O1063 2.757 . S
La1040 O1064 2.470 . S
La1040 O1069 2.482 . S
La1040 O1071 2.503 . S
La1041 C1051 2.928 . S
La1041 O1063 2.482 . S
La1041 O1065 2.503 . S
La1041 O1066 2.521 1_455 S
La1041 O1067 2.628 . S
La1041 O1068 2.554 1_455 S
La1041 O1069 2.757 . S
La1041 O1070 2.470 . S
C1042 La1040 2.928 . S
C1042 C1043 1.503 . S
C1042 O1060 1.261 . S
C1042 O1061 1.243 . S
C1043 C1042 1.503 . S
C1043 C1044 1.394 . S
C1043 C1048 1.373 . S
C1044 C1043 1.394 . S
C1044 C1045 1.380 . S
C1044 H1072 0.930 . S
C1045 C1044 1.380 . S
C1045 C1046 1.376 . S
C1045 H1073 0.930 . S
C1046 C1045 1.376 . S
C1046 C1047 1.370 . S
C1047 C1046 1.370 . S
C1047 C1048 1.396 . S
C1047 H1074 0.929 . S
C1048 C1043 1.373 . S
C1048 C1047 1.396 . S
C1048 H1075 0.929 . S
C1049 O1062 1.240 . S
C1049 O1063 1.289 . S
C1050 O1064 1.258 . S
C1050 O1065 1.256 . S
C1051 La1041 2.928 . S
C1051 C1052 1.495 1_454 S
C1051 O1066 1.261 1_455 S
C1051 O1067 1.243 . S
C1052 C1051 1.495 1_656 S
C1052 C1053 1.417 . S
C1052 C1057 1.359 1_655 S
C1053 C1052 1.417 . S
C1053 C1054 1.380 . S
C1053 H1076 0.930 1_556 S
C1054 C1053 1.380 . S
C1054 C1055 1.376 . S
C1054 H1077 0.930 . S
C1055 C1054 1.376 . S
C1055 C1056 1.370 1_655 S
C1056 C1055 1.370 1_455 S
C1056 C1057 1.396 . S
C1056 H1078 0.929 . S
C1057 C1052 1.359 1_455 S
C1057 C1056 1.396 . S
C1057 H1079 0.929 . S
C1058 O1068 1.240 1_455 S
C1058 O1069 1.289 . S
C1059 O1070 1.258 . S
C1059 O1071 1.256 . S
O1060 La1040 2.521 . S
O1060 C1042 1.261 . S
O1061 La1040 2.628 . S
O1061 C1042 1.243 . S
O1062 La1040 2.554 . S
O1062 C1049 1.240 . S
O1063 La1040 2.757 . S
O1063 La1041 2.482 . S
O1063 C1049 1.289 . S
O1064 La1040 2.470 . S
O1064 C1050 1.258 . S
O1065 La1041 2.503 . S
O1065 C1050 1.256 . S
O1066 La1041 2.521 1_655 S
O1066 C1051 1.261 1_655 S
O1067 La1041 2.628 . S
O1067 C1051 1.243 . S
O1068 La1041 2.554 1_655 S
O1068 C1058 1.240 1_655 S
O1069 La1040 2.482 . S
O1069 La1041 2.757 . S
O1069 C1058 1.289 . S
O1070 La1041 2.470 . S
O1070 C1059 1.258 . S
O1071 La1040 2.503 . S
O1071 C1059 1.256 . S
H1072 C1044 0.930 . S
H1073 C1045 0.930 . S
H1074 C1047 0.929 . S
H1075 C1048 0.929 . S
H1076 C1053 0.930 1_554 S
H1077 C1054 0.930 . S
H1078 C1056 0.929 . S
H1079 C1057 0.929 . S
La1080 C1082 2.928 . S
La1080 O1100 2.521 . S
La1080 O1101 2.628 . S
La1080 O1102 2.554 . S
La1080 O1103 2.757 . S
La1080 O1104 2.470 . S
La1080 O1109 2.482 . S
La1080 O1111 2.503 1_556 S
La1081 C1091 2.928 1_556 S
La1081 O1103 2.482 . S
La1081 O1105 2.503 . S
La1081 O1106 2.521 1_556 S
La1081 O1107 2.628 1_556 S
La1081 O1108 2.554 . S
La1081 O1109 2.757 . S
La1081 O1110 2.470 1_556 S
C1082 La1080 2.928 . S
C1082 C1083 1.503 . S
C1082 O1100 1.261 . S
C1082 O1101 1.243 . S
C1083 C1082 1.503 . S
C1083 C1084 1.394 . S
C1083 C1088 1.373 . S
C1084 C1083 1.394 . S
C1084 C1085 1.380 . S
C1084 H1112 0.930 . S
C1085 C1084 1.380 . S
C1085 C1086 1.376 . S
C1085 H1113 0.930 . S
C1086 C1085 1.376 . S
C1086 C1087 1.370 . S
C1087 C1086 1.370 . S
C1087 C1088 1.396 . S
C1087 H1114 0.929 . S
C1088 C1083 1.373 . S
C1088 C1087 1.396 . S
C1088 H1115 0.929 . S
C1089 O1102 1.240 . S
C1089 O1103 1.289 . S
C1090 O1104 1.258 . S
C1090 O1105 1.256 . S
C1091 La1081 2.928 1_554 S
C1091 C1092 1.503 . S
C1091 O1106 1.261 . S
C1091 O1107 1.243 . S
C1092 C1091 1.503 . S
C1092 C1093 1.394 . S
C1092 C1097 1.373 . S
C1093 C1092 1.394 . S
C1093 C1094 1.380 . S
C1093 H1116 0.930 . S
C1094 C1093 1.380 . S
C1094 C1095 1.376 . S
C1094 H1117 0.930 . S
C1095 C1094 1.376 . S
C1095 C1096 1.370 . S
C1096 C1095 1.370 . S
C1096 C1097 1.396 . S
C1096 H1118 0.929 . S
C1097 C1092 1.373 . S
C1097 C1096 1.396 . S
C1097 H1119 0.929 . S
C1098 O1108 1.240 . S
C1098 O1109 1.289 . S
C1099 O1110 1.258 . S
C1099 O1111 1.256 . S
O1100 La1080 2.521 . S
O1100 C1082 1.261 . S
O1101 La1080 2.628 . S
O1101 C1082 1.243 . S
O1102 La1080 2.554 . S
O1102 C1089 1.240 . S
O1103 La1080 2.757 . S
O1103 La1081 2.482 . S
O1103 C1089 1.289 . S
O1104 La1080 2.470 . S
O1104 C1090 1.258 . S
O1105 La1081 2.503 . S
O1105 C1090 1.256 . S
O1106 La1081 2.521 1_554 S
O1106 C1091 1.261 . S
O1107 La1081 2.628 1_554 S
O1107 C1091 1.243 . S
O1108 La1081 2.554 . S
O1108 C1098 1.240 . S
O1109 La1080 2.482 . S
O1109 La1081 2.757 . S
O1109 C1098 1.289 . S
O1110 La1081 2.470 1_554 S
O1110 C1099 1.258 . S
O1111 La1080 2.503 1_554 S
O1111 C1099 1.256 . S
H1112 C1084 0.930 . S
H1113 C1085 0.930 . S
H1114 C1087 0.929 . S
H1115 C1088 0.929 . S
H1116 C1093 0.930 . S
H1117 C1094 0.930 . S
H1118 C1096 0.929 . S
H1119 C1097 0.929 . S
La1120 C1122 2.928 1_565 S
La1120 O1140 2.521 1_565 S
La1120 O1141 2.628 . S
La1120 O1142 2.554 1_565 S
La1120 O1143 2.757 . S
La1120 O1144 2.470 . S
La1120 O1149 2.482 . S
La1120 O1151 2.503 . S
La1121 C1131 2.928 . S
La1121 O1143 2.482 . S
La1121 O1145 2.503 . S
La1121 O1146 2.521 . S
La1121 O1147 2.628 . S
La1121 O1148 2.554 . S
La1121 O1149 2.757 . S
La1121 O1150 2.470 . S
C1122 La1120 2.928 1_545 S
C1122 C1123 1.503 . S
C1122 O1140 1.261 . S
C1122 O1141 1.243 1_545 S
C1123 C1122 1.503 . S
C1123 C1124 1.394 . S
C1123 C1128 1.373 . S
C1124 C1123 1.394 . S
C1124 C1125 1.380 . S
C1124 H1152 0.930 . S
C1125 C1124 1.380 . S
C1125 C1126 1.376 . S
C1125 H1153 0.930 . S
C1126 C1125 1.376 . S
C1126 C1127 1.370 . S
C1127 C1126 1.370 . S
C1127 C1128 1.396 . S
C1127 H1154 0.929 . S
C1128 C1123 1.373 . S
C1128 C1127 1.396 . S
C1128 H1155 0.929 1_545 S
C1129 O1142 1.240 1_565 S
C1129 O1143 1.289 . S
C1130 O1144 1.258 . S
C1130 O1145 1.256 . S
C1131 La1121 2.928 . S
C1131 C1132 1.503 . S
C1131 O1146 1.261 . S
C1131 O1147 1.243 . S
C1132 C1131 1.503 . S
C1132 C1133 1.394 . S
C1132 C1137 1.373 . S
C1133 C1132 1.394 . S
C1133 C1134 1.380 . S
C1133 H1156 0.930 . S
C1134 C1133 1.380 . S
C1134 C1135 1.376 1_554 S
C1134 H1157 0.930 . S
C1135 C1134 1.376 1_556 S
C1135 C1136 1.370 . S
C1136 C1135 1.370 . S
C1136 C1137 1.396 1_556 S
C1136 H1158 0.929 . S
C1137 C1132 1.373 . S
C1137 C1136 1.396 1_554 S
C1137 H1159 0.929 . S
C1138 O1148 1.240 . S
C1138 O1149 1.289 . S
C1139 O1150 1.258 . S
C1139 O1151 1.256 . S
O1140 La1120 2.521 1_545 S
O1140 C1122 1.261 . S
O1141 La1120 2.628 . S
O1141 C1122 1.243 1_565 S
O1142 La1120 2.554 1_545 S
O1142 C1129 1.240 1_545 S
O1143 La1120 2.757 . S
O1143 La1121 2.482 . S
O1143 C1129 1.289 . S
O1144 La1120 2.470 . S
O1144 C1130 1.258 . S
O1145 La1121 2.503 . S
O1145 C1130 1.256 . S
O1146 La1121 2.521 . S
O1146 C1131 1.261 . S
O1147 La1121 2.628 . S
O1147 C1131 1.243 . S
O1148 La1121 2.554 . S
O1148 C1138 1.240 . S
O1149 La1120 2.482 . S
O1149 La1121 2.757 . S
O1149 C1138 1.289 . S
O1150 La1121 2.470 . S
O1150 C1139 1.258 . S
O1151 La1120 2.503 . S
O1151 C1139 1.256 . S
H1152 C1124 0.930 . S
H1153 C1125 0.930 . S
H1154 C1127 0.929 . S
H1155 C1128 0.929 1_565 S
H1156 C1133 0.930 . S
H1157 C1134 0.930 . S
H1158 C1136 0.929 . S
H1159 C1137 0.929 . S
La1160 C1162 2.928 . S
La1160 O1180 2.521 . S
La1160 O1181 2.628 . S
La1160 O1182 2.554 . S
La1160 O1183 2.757 1_554 S
La1160 O1184 2.470 . S
La1160 O1189 2.482 . S
La1160 O1191 2.503 1_554 S
La1161 C1171 2.928 . S
La1161 O1183 2.482 . S
La1161 O1185 2.503 1_556 S
La1161 O1186 2.521 . S
La1161 O1187 2.628 . S
La1161 O1188 2.554 . S
La1161 O1189 2.757 1_556 S
La1161 O1190 2.470 . S
C1162 La1160 2.928 . S
C1162 C1163 1.503 . S
C1162 O1180 1.261 . S
C1162 O1181 1.243 . S
C1163 C1162 1.503 . S
C1163 C1164 1.394 . S
C1163 C1168 1.373 . S
C1164 C1163 1.394 . S
C1164 C1165 1.380 . S
C1164 H1192 0.930 . S
C1165 C1164 1.380 . S
C1165 C1166 1.376 . S
C1165 H1193 0.930 . S
C1166 C1165 1.376 . S
C1166 C1167 1.370 . S
C1167 C1166 1.370 . S
C1167 C1168 1.396 . S
C1167 H1194 0.929 . S
C1168 C1163 1.373 . S
C1168 C1167 1.396 . S
C1168 H1195 0.929 . S
C1169 O1182 1.240 1_556 S
C1169 O1183 1.289 . S
C1170 O1184 1.258 . S
C1170 O1185 1.256 . S
C1171 La1161 2.928 . S
C1171 C1172 1.503 . S
C1171 O1186 1.261 . S
C1171 O1187 1.243 . S
C1172 C1171 1.503 . S
C1172 C1173 1.394 . S
C1172 C1177 1.373 . S
C1173 C1172 1.394 . S
C1173 C1174 1.380 . S
C1173 H1196 0.930 . S
C1174 C1173 1.380 . S
C1174 C1175 1.376 . S
C1174 H1197 0.930 . S
C1175 C1174 1.376 . S
C1175 C1176 1.370 . S
C1176 C1175 1.370 . S
C1176 C1177 1.396 . S
C1176 H1198 0.929 . S
C1177 C1172 1.373 . S
C1177 C1176 1.396 . S
C1177 H1199 0.929 . S
C1178 O1188 1.240 1_554 S
C1178 O1189 1.289 . S
C1179 O1190 1.258 . S
C1179 O1191 1.256 . S
O1180 La1160 2.521 . S
O1180 C1162 1.261 . S
O1181 La1160 2.628 . S
O1181 C1162 1.243 . S
O1182 La1160 2.554 . S
O1182 C1169 1.240 1_554 S
O1183 La1160 2.757 1_556 S
O1183 La1161 2.482 . S
O1183 C1169 1.289 . S
O1184 La1160 2.470 . S
O1184 C1170 1.258 . S
O1185 La1161 2.503 1_554 S
O1185 C1170 1.256 . S
O1186 La1161 2.521 . S
O1186 C1171 1.261 . S
O1187 La1161 2.628 . S
O1187 C1171 1.243 . S
O1188 La1161 2.554 . S
O1188 C1178 1.240 1_556 S
O1189 La1160 2.482 . S
O1189 La1161 2.757 1_554 S
O1189 C1178 1.289 . S
O1190 La1161 2.470 . S
O1190 C1179 1.258 . S
O1191 La1160 2.503 1_556 S
O1191 C1179 1.256 . S
H1192 C1164 0.930 . S
H1193 C1165 0.930 . S
H1194 C1167 0.929 . S
H1195 C1168 0.929 . S
H1196 C1173 0.930 . S
H1197 C1174 0.930 . S
H1198 C1176 0.929 . S
H1199 C1177 0.929 . S
La1200 C1202 2.928 . S
La1200 O1220 2.521 . S
La1200 O1221 2.628 1_565 S
La1200 O1222 2.554 . S
La1200 O1223 2.757 1_565 S
La1200 O1224 2.470 1_565 S
La1200 O1229 2.482 1_565 S
La1200 O1231 2.506 . S
La1201 C1211 2.928 . S
La1201 O1223 2.482 . S
La1201 O1225 2.503 . S
La1201 O1226 2.521 . S
La1201 O1227 2.628 . S
La1201 O1228 2.554 . S
La1201 O1229 2.757 . S
La1201 O1230 2.470 . S
C1202 La1200 2.928 . S
C1202 C1203 1.503 . S
C1202 O1220 1.261 . S
C1202 O1221 1.243 1_565 S
C1203 C1202 1.503 . S
C1203 C1204 1.394 . S
C1203 C1208 1.373 . S
C1204 C1203 1.394 . S
C1204 C1205 1.380 . S
C1204 H1232 0.930 . S
C1205 C1204 1.380 . S
C1205 C1206 1.376 . S
C1205 H1233 0.930 . S
C1206 C1205 1.376 . S
C1206 C1207 1.370 . S
C1207 C1206 1.370 . S
C1207 C1208 1.396 . S
C1207 H1234 0.918 1_556 S
C1208 C1203 1.373 . S
C1208 C1207 1.396 . S
C1208 H1235 0.896 1_565 S
C1209 O1222 1.240 . S
C1209 O1223 1.289 1_565 S
C1210 O1224 1.258 . S
C1210 O1225 1.256 . S
C1211 La1201 2.928 . S
C1211 C1212 1.503 . S
C1211 O1226 1.261 . S
C1211 O1227 1.243 . S
C1212 C1211 1.503 . S
C1212 C1213 1.394 . S
C1212 C1217 1.373 . S
C1213 C1212 1.394 . S
C1213 C1214 1.380 . S
C1213 H1236 0.930 . S
C1214 C1213 1.380 . S
C1214 C1215 1.376 . S
C1214 H1237 0.930 . S
C1215 C1214 1.376 . S
C1215 C1216 1.370 . S
C1216 C1215 1.370 . S
C1216 C1217 1.396 . S
C1216 H1238 0.929 . S
C1217 C1212 1.373 . S
C1217 C1216 1.396 . S
C1217 H1239 0.929 . S
C1218 O1228 1.240 . S
C1218 O1229 1.289 . S
C1219 O1230 1.258 . S
C1219 O1231 1.241 1_545 S
O1220 La1200 2.521 . S
O1220 C1202 1.261 . S
O1221 La1200 2.628 1_545 S
O1221 C1202 1.243 1_545 S
O1222 La1200 2.554 . S
O1222 C1209 1.240 . S
O1223 La1200 2.757 1_545 S
O1223 La1201 2.482 . S
O1223 C1209 1.289 1_545 S
O1224 La1200 2.470 1_545 S
O1224 C1210 1.258 . S
O1225 La1201 2.503 . S
O1225 C1210 1.256 . S
O1226 La1201 2.521 . S
O1226 C1211 1.261 . S
O1227 La1201 2.628 . S
O1227 C1211 1.243 . S
O1228 La1201 2.554 . S
O1228 C1218 1.240 . S
O1229 La1200 2.482 1_545 S
O1229 La1201 2.757 . S
O1229 C1218 1.289 . S
O1230 La1201 2.470 . S
O1230 C1219 1.258 . S
O1231 La1200 2.506 . S
O1231 C1219 1.241 1_565 S
H1232 C1204 0.930 . S
H1233 C1205 0.930 . S
H1234 C1207 0.918 1_554 S
H1235 C1208 0.896 1_545 S
H1236 C1213 0.930 . S
H1237 C1214 0.930 . S
H1238 C1216 0.929 . S
H1239 C1217 0.929 . S
La1240 C1242 2.928 . S
La1240 O1260 2.521 . S
La1240 O1261 2.628 . S
La1240 O1262 2.554 . S
La1240 O1263 2.757 . S
La1240 O1264 2.470 . S
La1240 O1269 2.482 . S
La1240 O1271 2.503 . S
La1241 C1251 2.928 . S
La1241 O1263 2.482 . S
La1241 O1265 2.503 . S
La1241 O1266 2.521 . S
La1241 O1267 2.628 . S
La1241 O1268 2.554 . S
La1241 O1269 2.757 . S
La1241 O1270 2.470 . S
C1242 La1240 2.928 . S
C1242 C1243 1.503 . S
C1242 O1260 1.261 . S
C1242 O1261 1.243 . S
C1243 C1242 1.503 . S
C1243 C1244 1.394 . S
C1243 C1248 1.373 . S
C1244 C1243 1.394 . S
C1244 C1245 1.380 . S
C1244 H1272 0.930 . S
C1245 C1244 1.380 . S
C1245 C1246 1.376 . S
C1245 H1273 0.930 . S
C1246 C1245 1.376 . S
C1246 C1247 1.370 . S
C1247 C1246 1.370 . S
C1247 C1248 1.396 . S
C1247 H1274 0.929 . S
C1248 C1243 1.373 . S
C1248 C1247 1.396 . S
C1248 H1275 0.929 . S
C1249 O1262 1.240 . S
C1249 O1263 1.289 . S
C1250 O1264 1.258 . S
C1250 O1265 1.256 . S
C1251 La1241 2.928 . S
C1251 C1252 1.503 . S
C1251 O1266 1.261 . S
C1251 O1267 1.243 . S
C1252 C1251 1.503 . S
C1252 C1253 1.394 . S
C1252 C1257 1.373 . S
C1253 C1252 1.394 . S
C1253 C1254 1.380 . S
C1253 H1276 0.930 . S
C1254 C1253 1.380 . S
C1254 C1255 1.376 . S
C1254 H1277 0.930 . S
C1255 C1254 1.376 . S
C1255 C1256 1.370 . S
C1256 C1255 1.370 . S
C1256 C1257 1.396 . S
C1256 H1278 0.929 . S
C1257 C1252 1.373 . S
C1257 C1256 1.396 . S
C1257 H1279 0.929 . S
C1258 O1268 1.240 . S
C1258 O1269 1.289 . S
C1259 O1270 1.258 . S
C1259 O1271 1.256 . S
O1260 La1240 2.521 . S
O1260 C1242 1.261 . S
O1261 La1240 2.628 . S
O1261 C1242 1.243 . S
O1262 La1240 2.554 . S
O1262 C1249 1.240 . S
O1263 La1240 2.757 . S
O1263 La1241 2.482 . S
O1263 C1249 1.289 . S
O1264 La1240 2.470 . S
O1264 C1250 1.258 . S
O1265 La1241 2.503 . S
O1265 C1250 1.256 . S
O1266 La1241 2.521 . S
O1266 C1251 1.261 . S
O1267 La1241 2.628 . S
O1267 C1251 1.243 . S
O1268 La1241 2.554 . S
O1268 C1258 1.240 . S
O1269 La1240 2.482 . S
O1269 La1241 2.757 . S
O1269 C1258 1.289 . S
O1270 La1241 2.470 . S
O1270 C1259 1.258 . S
O1271 La1240 2.503 . S
O1271 C1259 1.256 . S
H1272 C1244 0.930 . S
H1273 C1245 0.930 . S
H1274 C1247 0.929 . S
H1275 C1248 0.929 . S
H1276 C1253 0.930 . S
H1277 C1254 0.930 . S
H1278 C1256 0.929 . S
H1279 C1257 0.929 . S
C1280 C1281 1.369 . S
C1280 C1282 1.419 . S
C1280 H1284 0.930 . S
C1281 C1280 1.369 . S
C1281 C1290 1.429 . S
C1282 C1280 1.419 . S
C1282 C1283 1.363 . S
C1282 H1285 0.929 . S
C1283 C1282 1.363 . S
C1283 C1289 1.428 . S
H1284 C1280 0.930 . S
H1285 C1282 0.929 . S
S1286 N1287 1.613 . S
S1286 N1288 1.610 . S
N1287 S1286 1.613 . S
N1287 C1290 1.350 . S
N1288 S1286 1.610 . S
N1288 C1289 1.351 . S
C1289 C1283 1.428 . S
C1289 N1288 1.351 . S
C1289 C1290 1.434 . S
C1290 C1281 1.429 . S
C1290 N1287 1.350 . S
C1290 C1289 1.434 . S
C1291 C1292 1.369 . S
C1291 C1293 1.419 . S
C1291 H1295 0.930 . S
C1292 C1291 1.369 . S
C1292 C1301 1.429 . S
C1293 C1291 1.419 . S
C1293 C1294 1.363 . S
C1293 H1296 0.929 . S
C1294 C1293 1.363 . S
C1294 C1300 1.428 . S
H1295 C1291 0.930 . S
H1296 C1293 0.929 . S
S1297 N1298 1.613 . S
S1297 N1299 1.610 . S
N1298 S1297 1.613 . S
N1298 C1301 1.350 . S
N1299 S1297 1.610 . S
N1299 C1300 1.351 . S
C1300 C1294 1.428 . S
C1300 N1299 1.351 . S
C1300 C1301 1.434 . S
C1301 C1292 1.429 . S
C1301 N1298 1.350 . S
C1301 C1300 1.434 . S
C1302 C1303 1.369 . S
C1302 C1304 1.419 . S
C1302 H1306 0.930 . S
C1303 C1302 1.369 . S
C1303 C1312 1.429 . S
C1304 C1302 1.419 . S
C1304 C1305 1.363 . S
C1304 H1307 0.929 . S
C1305 C1304 1.363 . S
C1305 C1311 1.428 . S
H1306 C1302 0.930 . S
H1307 C1304 0.929 . S
S1308 N1309 1.613 . S
S1308 N1310 1.610 . S
N1309 S1308 1.613 . S
N1309 C1312 1.350 . S
N1310 S1308 1.610 . S
N1310 C1311 1.351 . S
C1311 C1305 1.428 . S
C1311 N1310 1.351 . S
C1311 C1312 1.434 . S
C1312 C1303 1.429 . S
C1312 N1309 1.350 . S
C1312 C1311 1.434 . S
C1313 C1314 1.369 . S
C1313 C1315 1.419 . S
C1313 H1317 0.930 . S
C1314 C1313 1.369 . S
C1314 C1323 1.429 . S
C1315 C1313 1.419 . S
C1315 C1316 1.363 . S
C1315 H1318 0.929 . S
C1316 C1315 1.363 . S
C1316 C1322 1.428 . S
H1317 C1313 0.930 . S
H1318 C1315 0.929 . S
S1319 N1320 1.613 . S
S1319 N1321 1.610 . S
N1320 S1319 1.613 . S
N1320 C1323 1.350 . S
N1321 S1319 1.610 . S
N1321 C1322 1.351 . S
C1322 C1316 1.428 . S
C1322 N1321 1.351 . S
C1322 C1323 1.434 . S
C1323 C1314 1.429 . S
C1323 N1320 1.350 . S
C1323 C1322 1.434 . S
C1324 C1325 1.369 . S
C1324 C1326 1.419 . S
C1324 H1328 0.930 . S
C1325 C1324 1.369 . S
C1325 C1334 1.429 . S
C1326 C1324 1.419 . S
C1326 C1327 1.363 . S
C1326 H1329 0.929 . S
C1327 C1326 1.363 . S
C1327 C1333 1.428 . S
H1328 C1324 0.930 . S
H1329 C1326 0.929 . S
S1330 N1331 1.613 . S
S1330 N1332 1.610 . S
N1331 S1330 1.613 . S
N1331 C1334 1.350 . S
N1332 S1330 1.610 . S
N1332 C1333 1.351 . S
C1333 C1327 1.428 . S
C1333 N1332 1.351 . S
C1333 C1334 1.434 . S
C1334 C1325 1.429 . S
C1334 N1331 1.350 . S
C1334 C1333 1.434 . S
C1335 C1336 1.369 . S
C1335 C1337 1.419 . S
C1335 H1339 0.930 . S
C1336 C1335 1.369 . S
C1336 C1345 1.429 . S
C1337 C1335 1.419 . S
C1337 C1338 1.363 . S
C1337 H1340 0.929 . S
C1338 C1337 1.363 . S
C1338 C1344 1.428 . S
H1339 C1335 0.930 . S
H1340 C1337 0.929 . S
S1341 N1342 1.613 . S
S1341 N1343 1.610 . S
N1342 S1341 1.613 . S
N1342 C1345 1.350 . S
N1343 S1341 1.610 . S
N1343 C1344 1.351 . S
C1344 C1338 1.428 . S
C1344 N1343 1.351 . S
C1344 C1345 1.434 . S
C1345 C1336 1.429 . S
C1345 N1342 1.350 . S
C1345 C1344 1.434 . S
C1346 C1347 1.369 . S
C1346 C1348 1.419 . S
C1346 H1350 0.930 . S
C1347 C1346 1.369 . S
C1347 C1356 1.429 . S
C1348 C1346 1.419 . S
C1348 C1349 1.363 . S
C1348 H1351 0.929 . S
C1349 C1348 1.363 . S
C1349 C1355 1.428 . S
H1350 C1346 0.930 . S
H1351 C1348 0.929 . S
S1352 N1353 1.613 . S
S1352 N1354 1.610 . S
N1353 S1352 1.613 . S
N1353 C1356 1.350 . S
N1354 S1352 1.610 . S
N1354 C1355 1.351 . S
C1355 C1349 1.428 . S
C1355 N1354 1.351 . S
C1355 C1356 1.434 . S
C1356 C1347 1.429 . S
C1356 N1353 1.350 . S
C1356 C1355 1.434 . S
C1357 C1358 1.369 . S
C1357 C1359 1.419 . S
C1357 H1361 0.930 . S
C1358 C1357 1.369 . S
C1358 C1367 1.429 . S
C1359 C1357 1.419 . S
C1359 C1360 1.363 . S
C1359 H1362 0.929 . S
C1360 C1359 1.363 . S
C1360 C1366 1.428 . S
H1361 C1357 0.930 . S
H1362 C1359 0.929 . S
S1363 N1364 1.613 . S
S1363 N1365 1.610 . S
N1364 S1363 1.613 . S
N1364 C1367 1.350 . S
N1365 S1363 1.610 . S
N1365 C1366 1.351 . S
C1366 C1360 1.428 . S
C1366 N1365 1.351 . S
C1366 C1367 1.434 . S
C1367 C1358 1.429 . S
C1367 N1364 1.350 . S
C1367 C1366 1.434 . S
C1368 C1369 1.369 . S
C1368 C1370 1.419 . S
C1368 H1372 0.930 . S
C1369 C1368 1.369 . S
C1369 C1378 1.429 . S
C1370 C1368 1.419 . S
C1370 C1371 1.363 . S
C1370 H1373 0.929 . S
C1371 C1370 1.363 . S
C1371 C1377 1.428 . S
H1372 C1368 0.930 . S
H1373 C1370 0.929 . S
S1374 N1375 1.613 . S
S1374 N1376 1.610 . S
N1375 S1374 1.613 . S
N1375 C1378 1.350 . S
N1376 S1374 1.610 . S
N1376 C1377 1.351 . S
C1377 C1371 1.428 . S
C1377 N1376 1.351 . S
C1377 C1378 1.434 . S
C1378 C1369 1.429 . S
C1378 N1375 1.350 . S
C1378 C1377 1.434 . S
C1379 C1380 1.369 . S
C1379 C1381 1.406 1_556 S
C1379 H1383 0.930 . S
C1380 C1379 1.369 . S
C1380 C1389 1.429 . S
C1381 C1379 1.406 1_554 S
C1381 C1382 1.372 . S
C1381 H1384 0.933 . S
C1382 C1381 1.372 . S
C1382 C1388 1.428 . S
H1383 C1379 0.930 . S
H1384 C1381 0.933 . S
S1385 N1386 1.613 . S
S1385 N1387 1.610 1_556 S
N1386 S1385 1.613 . S
N1386 C1389 1.350 . S
N1387 S1385 1.610 1_554 S
N1387 C1388 1.351 . S
C1388 C1382 1.428 . S
C1388 N1387 1.351 . S
C1388 C1389 1.434 1_554 S
C1389 C1380 1.429 . S
C1389 N1386 1.350 . S
C1389 C1388 1.434 1_556 S
C1390 C1391 1.369 . S
C1390 C1392 1.419 . S
C1390 H1394 0.930 . S
C1391 C1390 1.369 . S
C1391 C1400 1.429 . S
C1392 C1390 1.419 . S
C1392 C1393 1.363 . S
C1392 H1395 0.929 . S
C1393 C1392 1.363 . S
C1393 C1399 1.428 . S
H1394 C1390 0.930 . S
H1395 C1392 0.929 . S
S1396 N1397 1.613 . S
S1396 N1398 1.610 . S
N1397 S1396 1.613 . S
N1397 C1400 1.350 . S
N1398 S1396 1.610 . S
N1398 C1399 1.351 . S
C1399 C1393 1.428 . S
C1399 N1398 1.351 . S
C1399 C1400 1.434 . S
C1400 C1391 1.429 . S
C1400 N1397 1.350 . S
C1400 C1399 1.434 . S
C1401 C1402 1.369 . S
C1401 C1403 1.419 . S
C1401 H1405 0.930 . S
C1402 C1401 1.369 . S
C1402 C1411 1.429 . S
C1403 C1401 1.419 . S
C1403 C1404 1.363 . S
C1403 H1406 0.929 . S
C1404 C1403 1.363 . S
C1404 C1410 1.428 . S
H1405 C1401 0.930 . S
H1406 C1403 0.929 . S
S1407 N1408 1.613 . S
S1407 N1409 1.610 . S
N1408 S1407 1.613 . S
N1408 C1411 1.350 . S
N1409 S1407 1.610 . S
N1409 C1410 1.351 . S
C1410 C1404 1.428 . S
C1410 N1409 1.351 . S
C1410 C1411 1.434 . S
C1411 C1402 1.429 . S
C1411 N1408 1.350 . S
C1411 C1410 1.434 . S
C1412 C1413 1.369 . S
C1412 C1414 1.419 . S
C1412 H1416 0.930 . S
C1413 C1412 1.369 . S
C1413 C1422 1.429 . S
C1414 C1412 1.419 . S
C1414 C1415 1.363 . S
C1414 H1417 0.929 . S
C1415 C1414 1.363 . S
C1415 C1421 1.428 . S
H1416 C1412 0.930 . S
H1417 C1414 0.929 . S
S1418 N1419 1.613 . S
S1418 N1420 1.610 . S
N1419 S1418 1.613 . S
N1419 C1422 1.350 . S
N1420 S1418 1.610 . S
N1420 C1421 1.351 . S
C1421 C1415 1.428 . S
C1421 N1420 1.351 . S
C1421 C1422 1.434 . S
C1422 C1413 1.429 . S
C1422 N1419 1.350 . S
C1422 C1421 1.434 . S
C1423 C1424 1.369 . S
C1423 C1425 1.419 . S
C1423 H1427 0.930 . S
C1424 C1423 1.369 . S
C1424 C1433 1.429 . S
C1425 C1423 1.419 . S
C1425 C1426 1.363 . S
C1425 H1428 0.929 . S
C1426 C1425 1.363 . S
C1426 C1432 1.428 . S
H1427 C1423 0.930 . S
H1428 C1425 0.929 . S
S1429 N1430 1.613 . S
S1429 N1431 1.610 . S
N1430 S1429 1.613 . S
N1430 C1433 1.350 . S
N1431 S1429 1.610 . S
N1431 C1432 1.351 . S
C1432 C1426 1.428 . S
C1432 N1431 1.351 . S
C1432 C1433 1.434 . S
C1433 C1424 1.429 . S
C1433 N1430 1.350 . S
C1433 C1432 1.434 . S
C1434 C1435 1.369 . S
C1434 C1436 1.419 . S
C1434 H1438 0.930 . S
C1435 C1434 1.369 . S
C1435 C1444 1.429 . S
C1436 C1434 1.419 . S
C1436 C1437 1.363 1_554 S
C1436 H1439 0.929 . S
C1437 C1436 1.363 1_556 S
C1437 C1443 1.428 1_556 S
H1438 C1434 0.930 . S
H1439 C1436 0.929 . S
S1440 N1441 1.613 . S
S1440 N1442 1.610 1_554 S
N1441 S1440 1.613 . S
N1441 C1444 1.350 . S
N1442 S1440 1.610 1_556 S
N1442 C1443 1.351 1_556 S
C1443 C1437 1.428 1_554 S
C1443 N1442 1.351 1_554 S
C1443 C1444 1.434 . S
C1444 C1435 1.429 . S
C1444 N1441 1.350 . S
C1444 C1443 1.434 . S
C1445 C1446 1.369 . S
C1445 C1447 1.419 . S
C1445 H1449 0.930 . S
C1446 C1445 1.369 . S
C1446 C1455 1.429 . S
C1447 C1445 1.419 . S
C1447 C1448 1.363 . S
C1447 H1450 0.929 . S
C1448 C1447 1.363 . S
C1448 C1454 1.428 . S
H1449 C1445 0.930 . S
H1450 C1447 0.929 . S
S1451 N1452 1.613 . S
S1451 N1453 1.610 . S
N1452 S1451 1.613 . S
N1452 C1455 1.350 . S
N1453 S1451 1.610 . S
N1453 C1454 1.351 . S
C1454 C1448 1.428 . S
C1454 N1453 1.351 . S
C1454 C1455 1.434 . S
C1455 C1446 1.429 . S
C1455 N1452 1.350 . S
C1455 C1454 1.434 . S
C1456 C1457 1.369 . S
C1456 C1458 1.419 . S
C1456 H1460 0.930 . S
C1457 C1456 1.369 . S
C1457 C1466 1.429 . S
C1458 C1456 1.419 . S
C1458 C1459 1.363 . S
C1458 H1461 0.929 . S
C1459 C1458 1.363 . S
C1459 C1465 1.428 . S
H1460 C1456 0.930 . S
H1461 C1458 0.929 . S
S1462 N1463 1.613 . S
S1462 N1464 1.610 . S
N1463 S1462 1.613 . S
N1463 C1466 1.350 . S
N1464 S1462 1.610 . S
N1464 C1465 1.351 . S
C1465 C1459 1.428 . S
C1465 N1464 1.351 . S
C1465 C1466 1.434 . S
C1466 C1457 1.429 . S
C1466 N1463 1.350 . S
C1466 C1465 1.434 . S
C1467 C1468 1.369 . S
C1467 C1469 1.419 . S
C1467 H1471 0.930 . S
C1468 C1467 1.369 . S
C1468 C1477 1.429 . S
C1469 C1467 1.419 . S
C1469 C1470 1.363 . S
C1469 H1472 0.929 . S
C1470 C1469 1.363 . S
C1470 C1476 1.428 . S
H1471 C1467 0.930 . S
H1472 C1469 0.929 . S
S1473 N1474 1.613 . S
S1473 N1475 1.610 . S
N1474 S1473 1.613 . S
N1474 C1477 1.350 . S
N1475 S1473 1.610 . S
N1475 C1476 1.351 . S
C1476 C1470 1.428 . S
C1476 N1475 1.351 . S
C1476 C1477 1.434 . S
C1477 C1468 1.429 . S
C1477 N1474 1.350 . S
C1477 C1476 1.434 . S
C1478 C1479 1.369 . S
C1478 C1480 1.419 . S
C1478 H1482 0.930 . S
C1479 C1478 1.369 . S
C1479 C1488 1.429 . S
C1480 C1478 1.419 . S
C1480 C1481 1.363 . S
C1480 H1483 0.929 . S
C1481 C1480 1.363 . S
C1481 C1487 1.428 . S
H1482 C1478 0.930 . S
H1483 C1480 0.929 . S
S1484 N1485 1.613 . S
S1484 N1486 1.610 . S
N1485 S1484 1.613 . S
N1485 C1488 1.350 . S
N1486 S1484 1.610 . S
N1486 C1487 1.351 . S
C1487 C1481 1.428 . S
C1487 N1486 1.351 . S
C1487 C1488 1.434 . S
C1488 C1479 1.429 . S
C1488 N1485 1.350 . S
C1488 C1487 1.434 . S
C1489 C1490 1.369 . S
C1489 C1491 1.419 . S
C1489 H1493 0.930 . S
C1490 C1489 1.369 . S
C1490 C1499 1.429 . S
C1491 C1489 1.419 . S
C1491 C1492 1.363 . S
C1491 H1494 0.929 . S
C1492 C1491 1.363 . S
C1492 C1498 1.428 . S
H1493 C1489 0.930 . S
H1494 C1491 0.929 . S
S1495 N1496 1.613 . S
S1495 N1497 1.610 . S
N1496 S1495 1.613 . S
N1496 C1499 1.350 . S
N1497 S1495 1.610 . S
N1497 C1498 1.351 . S
C1498 C1492 1.428 . S
C1498 N1497 1.351 . S
C1498 C1499 1.434 . S
C1499 C1490 1.429 . S
C1499 N1496 1.350 . S
C1499 C1498 1.434 . S
C1500 C1501 1.369 . S
C1500 C1502 1.419 . S
C1500 H1504 0.930 . S
C1501 C1500 1.369 . S
C1501 C1510 1.429 . S
C1502 C1500 1.419 . S
C1502 C1503 1.363 . S
C1502 H1505 0.929 . S
C1503 C1502 1.363 . S
C1503 C1509 1.428 . S
H1504 C1500 0.930 . S
H1505 C1502 0.929 . S
S1506 N1507 1.613 . S
S1506 N1508 1.610 . S
N1507 S1506 1.613 . S
N1507 C1510 1.350 . S
N1508 S1506 1.610 . S
N1508 C1509 1.351 . S
C1509 C1503 1.428 . S
C1509 N1508 1.351 . S
C1509 C1510 1.434 . S
C1510 C1501 1.429 . S
C1510 N1507 1.350 . S
C1510 C1509 1.434 . S
C1511 C1512 1.369 . S
C1511 C1513 1.419 . S
C1511 H1515 0.930 . S
C1512 C1511 1.369 . S
C1512 C1521 1.429 . S
C1513 C1511 1.419 . S
C1513 C1514 1.363 . S
C1513 H1516 0.929 . S
C1514 C1513 1.363 . S
C1514 C1520 1.428 . S
H1515 C1511 0.930 . S
H1516 C1513 0.929 . S
S1517 N1518 1.613 . S
S1517 N1519 1.610 . S
N1518 S1517 1.613 . S
N1518 C1521 1.350 . S
N1519 S1517 1.610 . S
N1519 C1520 1.351 . S
C1520 C1514 1.428 . S
C1520 N1519 1.351 . S
C1520 C1521 1.434 . S
C1521 C1512 1.429 . S
C1521 N1518 1.350 . S
C1521 C1520 1.434 . S
C1522 C1523 1.369 . S
C1522 C1524 1.419 . S
C1522 H1526 0.930 . S
C1523 C1522 1.369 . S
C1523 C1532 1.429 . S
C1524 C1522 1.419 . S
C1524 C1525 1.363 . S
C1524 H1527 0.929 . S
C1525 C1524 1.363 . S
C1525 C1531 1.428 . S
H1526 C1522 0.930 . S
H1527 C1524 0.929 . S
S1528 N1529 1.613 1_556 S
S1528 N1530 1.610 . S
N1529 S1528 1.613 1_554 S
N1529 C1532 1.350 1_554 S
N1530 S1528 1.610 . S
N1530 C1531 1.351 . S
C1531 C1525 1.428 . S
C1531 N1530 1.351 . S
C1531 C1532 1.434 . S
C1532 C1523 1.429 . S
C1532 N1529 1.350 1_556 S
C1532 C1531 1.434 . S
C1533 C1534 1.369 . S
C1533 C1535 1.419 . S
C1533 H1537 0.930 . S
C1534 C1533 1.369 . S
C1534 C1543 1.429 . S
C1535 C1533 1.419 . S
C1535 C1536 1.363 . S
C1535 H1538 0.929 . S
C1536 C1535 1.363 . S
C1536 C1542 1.428 . S
H1537 C1533 0.930 . S
H1538 C1535 0.929 . S
S1539 N1540 1.613 . S
S1539 N1541 1.610 . S
N1540 S1539 1.613 . S
N1540 C1543 1.350 . S
N1541 S1539 1.610 . S
N1541 C1542 1.351 . S
C1542 C1536 1.428 . S
C1542 N1541 1.351 . S
C1542 C1543 1.434 . S
C1543 C1534 1.429 . S
C1543 N1540 1.350 . S
C1543 C1542 1.434 . S
C1544 C1545 1.369 . S
C1544 C1546 1.419 . S
C1544 H1548 0.930 . S
C1545 C1544 1.369 . S
C1545 C1554 1.429 . S
C1546 C1544 1.419 . S
C1546 C1547 1.363 . S
C1546 H1549 0.929 . S
C1547 C1546 1.363 . S
C1547 C1553 1.428 . S
H1548 C1544 0.930 . S
H1549 C1546 0.929 . S
S1550 N1551 1.613 . S
S1550 N1552 1.610 . S
N1551 S1550 1.613 . S
N1551 C1554 1.350 . S
N1552 S1550 1.610 . S
N1552 C1553 1.351 . S
C1553 C1547 1.428 . S
C1553 N1552 1.351 . S
C1553 C1554 1.434 . S
C1554 C1545 1.429 . S
C1554 N1551 1.350 . S
C1554 C1553 1.434 . S
C1555 C1556 1.369 . S
C1555 C1557 1.419 . S
C1555 H1559 0.930 . S
C1556 C1555 1.369 . S
C1556 C1565 1.429 . S
C1557 C1555 1.419 . S
C1557 C1558 1.363 . S
C1557 H1560 0.929 . S
C1558 C1557 1.363 . S
C1558 C1564 1.428 . S
H1559 C1555 0.930 . S
H1560 C1557 0.929 . S
S1561 N1562 1.613 . S
S1561 N1563 1.610 . S
N1562 S1561 1.613 . S
N1562 C1565 1.350 . S
N1563 S1561 1.610 . S
N1563 C1564 1.351 . S
C1564 C1558 1.428 . S
C1564 N1563 1.351 . S
C1564 C1565 1.434 . S
C1565 C1556 1.429 . S
C1565 N1562 1.350 . S
C1565 C1564 1.434 . S
C1566 C1567 1.369 . S
C1566 C1568 1.419 . S
C1566 H1570 0.930 . S
C1567 C1566 1.369 . S
C1567 C1576 1.429 . S
C1568 C1566 1.419 . S
C1568 C1569 1.363 . S
C1568 H1571 0.929 . S
C1569 C1568 1.363 . S
C1569 C1575 1.428 . S
H1570 C1566 0.930 . S
H1571 C1568 0.929 . S
S1572 N1573 1.613 . S
S1572 N1574 1.610 . S
N1573 S1572 1.613 . S
N1573 C1576 1.350 . S
N1574 S1572 1.610 . S
N1574 C1575 1.351 . S
C1575 C1569 1.428 . S
C1575 N1574 1.351 . S
C1575 C1576 1.434 . S
C1576 C1567 1.429 . S
C1576 N1573 1.350 . S
C1576 C1575 1.434 . S
C1577 C1578 1.369 . S
C1577 C1579 1.419 . S
C1577 H1581 0.930 . S
C1578 C1577 1.369 . S
C1578 C1587 1.429 . S
C1579 C1577 1.419 . S
C1579 C1580 1.363 . S
C1579 H1582 0.929 . S
C1580 C1579 1.363 . S
C1580 C1586 1.428 . S
H1581 C1577 0.930 . S
H1582 C1579 0.929 . S
S1583 N1584 1.613 . S
S1583 N1585 1.610 . S
N1584 S1583 1.613 . S
N1584 C1587 1.350 . S
N1585 S1583 1.610 . S
N1585 C1586 1.351 . S
C1586 C1580 1.428 . S
C1586 N1585 1.351 . S
C1586 C1587 1.434 . S
C1587 C1578 1.429 . S
C1587 N1584 1.350 . S
C1587 C1586 1.434 . S
C1588 C1589 1.369 . S
C1588 C1590 1.419 . S
C1588 H1592 0.930 . S
C1589 C1588 1.369 . S
C1589 C1598 1.429 . S
C1590 C1588 1.419 . S
C1590 C1591 1.363 . S
C1590 H1593 0.929 . S
C1591 C1590 1.363 . S
C1591 C1597 1.428 . S
H1592 C1588 0.930 . S
H1593 C1590 0.929 . S
S1594 N1595 1.613 . S
S1594 N1596 1.610 . S
N1595 S1594 1.613 . S
N1595 C1598 1.350 . S
N1596 S1594 1.610 . S
N1596 C1597 1.351 . S
C1597 C1591 1.428 . S
C1597 N1596 1.351 . S
C1597 C1598 1.434 . S
C1598 C1589 1.429 . S
C1598 N1595 1.350 . S
C1598 C1597 1.434 . S
C1599 C1600 1.369 . S
C1599 C1601 1.419 . S
C1599 H1603 0.930 . S
C1600 C1599 1.369 . S
C1600 C1609 1.429 . S
C1601 C1599 1.419 . S
C1601 C1602 1.363 . S
C1601 H1604 0.929 . S
C1602 C1601 1.363 . S
C1602 C1608 1.428 . S
H1603 C1599 0.930 . S
H1604 C1601 0.929 . S
S1605 N1606 1.613 . S
S1605 N1607 1.610 . S
N1606 S1605 1.613 . S
N1606 C1609 1.350 . S
N1607 S1605 1.610 . S
N1607 C1608 1.351 . S
C1608 C1602 1.428 . S
C1608 N1607 1.351 . S
C1608 C1609 1.434 . S
C1609 C1600 1.429 . S
C1609 N1606 1.350 . S
C1609 C1608 1.434 . S
C1610 C1611 1.369 . S
C1610 C1612 1.419 . S
C1610 H1614 0.930 . S
C1611 C1610 1.369 . S
C1611 C1620 1.429 . S
C1612 C1610 1.419 . S
C1612 C1613 1.363 . S
C1612 H1615 0.929 . S
C1613 C1612 1.363 . S
C1613 C1619 1.428 . S
H1614 C1610 0.930 . S
H1615 C1612 0.929 . S
S1616 N1617 1.613 . S
S1616 N1618 1.610 . S
N1617 S1616 1.613 . S
N1617 C1620 1.350 . S
N1618 S1616 1.610 . S
N1618 C1619 1.351 . S
C1619 C1613 1.428 . S
C1619 N1618 1.351 . S
C1619 C1620 1.434 . S
C1620 C1611 1.429 . S
C1620 N1617 1.350 . S
C1620 C1619 1.434 . S
C1621 C1622 1.369 . S
C1621 C1623 1.419 1_556 S
C1621 H1625 0.930 . S
C1622 C1621 1.369 . S
C1622 C1631 1.429 1_556 S
C1623 C1621 1.419 1_554 S
C1623 C1624 1.363 . S
C1623 H1626 0.929 . S
C1624 C1623 1.363 . S
C1624 C1630 1.428 . S
H1625 C1621 0.930 . S
H1626 C1623 0.929 . S
S1627 N1628 1.613 1_554 S
S1627 N1629 1.610 . S
N1628 S1627 1.613 1_556 S
N1628 C1631 1.350 1_556 S
N1629 S1627 1.610 . S
N1629 C1630 1.351 . S
C1630 C1624 1.428 . S
C1630 N1629 1.351 . S
C1630 C1631 1.434 . S
C1631 C1622 1.429 1_554 S
C1631 N1628 1.350 1_554 S
C1631 C1630 1.434 . S
C1632 C1633 1.369 . S
C1632 C1634 1.419 . S
C1632 H1636 0.930 . S
C1633 C1632 1.369 . S
C1633 C1642 1.429 1_655 S
C1634 C1632 1.419 . S
C1634 C1635 1.363 1_655 S
C1634 H1637 0.929 . S
C1635 C1634 1.363 1_455 S
C1635 C1641 1.428 . S
H1636 C1632 0.930 . S
H1637 C1634 0.929 . S
S1638 N1639 1.613 . S
S1638 N1640 1.610 . S
N1639 S1638 1.613 . S
N1639 C1642 1.350 . S
N1640 S1638 1.610 . S
N1640 C1641 1.351 . S
C1641 C1635 1.428 . S
C1641 N1640 1.351 . S
C1641 C1642 1.434 . S
C1642 C1633 1.429 1_455 S
C1642 N1639 1.350 . S
C1642 C1641 1.434 . S
C1643 C1644 1.369 . S
C1643 C1645 1.419 . S
C1643 H1647 0.930 . S
C1644 C1643 1.369 . S
C1644 C1653 1.429 . S
C1645 C1643 1.419 . S
C1645 C1646 1.363 . S
C1645 H1648 0.929 . S
C1646 C1645 1.363 . S
C1646 C1652 1.428 . S
H1647 C1643 0.930 . S
H1648 C1645 0.929 . S
S1649 N1650 1.613 . S
S1649 N1651 1.610 . S
N1650 S1649 1.613 . S
N1650 C1653 1.350 . S
N1651 S1649 1.610 . S
N1651 C1652 1.351 . S
C1652 C1646 1.428 . S
C1652 N1651 1.351 . S
C1652 C1653 1.434 . S
C1653 C1644 1.429 . S
C1653 N1650 1.350 . S
C1653 C1652 1.434 . S
C1654 C1655 1.369 . S
C1654 C1656 1.419 . S
C1654 H1658 0.930 . S
C1655 C1654 1.369 . S
C1655 C1664 1.429 . S
C1656 C1654 1.419 . S
C1656 C1657 1.363 . S
C1656 H1659 0.929 . S
C1657 C1656 1.363 . S
C1657 C1663 1.428 . S
H1658 C1654 0.930 . S
H1659 C1656 0.929 . S
S1660 N1661 1.613 . S
S1660 N1662 1.610 . S
N1661 S1660 1.613 . S
N1661 C1664 1.350 . S
N1662 S1660 1.610 . S
N1662 C1663 1.351 . S
C1663 C1657 1.428 . S
C1663 N1662 1.351 . S
C1663 C1664 1.434 . S
C1664 C1655 1.429 . S
C1664 N1661 1.350 . S
C1664 C1663 1.434 . S
C1665 C1666 1.369 . S
C1665 C1667 1.419 . S
C1665 H1669 0.930 . S
C1666 C1665 1.369 . S
C1666 C1675 1.429 . S
C1667 C1665 1.419 . S
C1667 C1668 1.363 . S
C1667 H1670 0.929 . S
C1668 C1667 1.363 . S
C1668 C1674 1.428 . S
H1669 C1665 0.930 . S
H1670 C1667 0.929 . S
S1671 N1672 1.613 . S
S1671 N1673 1.610 . S
N1672 S1671 1.613 . S
N1672 C1675 1.350 . S
N1673 S1671 1.610 . S
N1673 C1674 1.351 . S
C1674 C1668 1.428 . S
C1674 N1673 1.351 . S
C1674 C1675 1.434 . S
C1675 C1666 1.429 . S
C1675 N1672 1.350 . S
C1675 C1674 1.434 . S
C1676 C1677 1.369 1_455 S
C1676 C1678 1.419 . S
C1676 H1680 0.930 . S
C1677 C1676 1.369 1_655 S
C1677 C1686 1.429 . S
C1678 C1676 1.419 . S
C1678 C1679 1.363 . S
C1678 H1681 0.929 . S
C1679 C1678 1.363 . S
C1679 C1685 1.428 1_455 S
H1680 C1676 0.930 . S
H1681 C1678 0.929 . S
S1682 N1683 1.613 . S
S1682 N1684 1.610 . S
N1683 S1682 1.613 . S
N1683 C1686 1.350 . S
N1684 S1682 1.610 . S
N1684 C1685 1.351 . S
C1685 C1679 1.428 1_655 S
C1685 N1684 1.351 . S
C1685 C1686 1.434 . S
C1686 C1677 1.429 . S
C1686 N1683 1.350 . S
C1686 C1685 1.434 . S
C1687 C1688 1.369 . S
C1687 C1689 1.419 . S
C1687 H1691 0.930 . S
C1688 C1687 1.369 . S
C1688 C1697 1.429 . S
C1689 C1687 1.419 . S
C1689 C1690 1.363 . S
C1689 H1692 0.929 . S
C1690 C1689 1.363 . S
C1690 C1696 1.428 . S
H1691 C1687 0.930 . S
H1692 C1689 0.929 . S
S1693 N1694 1.613 . S
S1693 N1695 1.610 . S
N1694 S1693 1.613 . S
N1694 C1697 1.350 . S
N1695 S1693 1.610 . S
N1695 C1696 1.351 . S
C1696 C1690 1.428 . S
C1696 N1695 1.351 . S
C1696 C1697 1.434 . S
C1697 C1688 1.429 . S
C1697 N1694 1.350 . S
C1697 C1696 1.434 . S
C1698 C1699 1.369 . S
C1698 C1700 1.419 . S
C1698 H1702 0.930 . S
C1699 C1698 1.369 . S
C1699 C1708 1.429 . S
C1700 C1698 1.419 . S
C1700 C1701 1.363 . S
C1700 H1703 0.929 . S
C1701 C1700 1.363 . S
C1701 C1707 1.428 . S
H1702 C1698 0.930 . S
H1703 C1700 0.929 . S
S1704 N1705 1.613 . S
S1704 N1706 1.610 . S
N1705 S1704 1.613 . S
N1705 C1708 1.350 . S
N1706 S1704 1.610 . S
N1706 C1707 1.351 . S
C1707 C1701 1.428 . S
C1707 N1706 1.351 . S
C1707 C1708 1.434 . S
C1708 C1699 1.429 . S
C1708 N1705 1.350 . S
C1708 C1707 1.434 . S
C1709 C1710 1.369 . S
C1709 C1711 1.419 . S
C1709 H1713 0.930 . S
C1710 C1709 1.369 . S
C1710 C1719 1.429 . S
C1711 C1709 1.419 . S
C1711 C1712 1.363 . S
C1711 H1714 0.929 . S
C1712 C1711 1.363 . S
C1712 C1718 1.428 . S
H1713 C1709 0.930 . S
H1714 C1711 0.929 . S
S1715 N1716 1.613 . S
S1715 N1717 1.610 . S
N1716 S1715 1.613 . S
N1716 C1719 1.350 . S
N1717 S1715 1.610 . S
N1717 C1718 1.351 . S
C1718 C1712 1.428 . S
C1718 N1717 1.351 . S
C1718 C1719 1.434 . S
C1719 C1710 1.429 . S
C1719 N1716 1.350 . S
C1719 C1718 1.434 . S
C1720 C1721 1.369 . S
C1720 C1722 1.419 . S
C1720 H1724 0.930 . S
C1721 C1720 1.369 . S
C1721 C1730 1.429 . S
C1722 C1720 1.419 . S
C1722 C1723 1.363 . S
C1722 H1725 0.929 . S
C1723 C1722 1.363 . S
C1723 C1729 1.428 . S
H1724 C1720 0.930 . S
H1725 C1722 0.929 . S
S1726 N1727 1.613 . S
S1726 N1728 1.610 . S
N1727 S1726 1.613 . S
N1727 C1730 1.350 . S
N1728 S1726 1.610 . S
N1728 C1729 1.351 . S
C1729 C1723 1.428 . S
C1729 N1728 1.351 . S
C1729 C1730 1.434 . S
C1730 C1721 1.429 . S
C1730 N1727 1.350 . S
C1730 C1729 1.434 . S
C1731 C1732 1.369 . S
C1731 C1733 1.419 . S
C1731 H1735 0.930 . S
C1732 C1731 1.369 . S
C1732 C1741 1.429 . S
C1733 C1731 1.419 . S
C1733 C1734 1.363 . S
C1733 H1736 0.929 . S
C1734 C1733 1.363 . S
C1734 C1740 1.428 . S
H1735 C1731 0.930 . S
H1736 C1733 0.929 . S
S1737 N1738 1.613 . S
S1737 N1739 1.610 . S
N1738 S1737 1.613 . S
N1738 C1741 1.350 . S
N1739 S1737 1.610 . S
N1739 C1740 1.351 . S
C1740 C1734 1.428 . S
C1740 N1739 1.351 . S
C1740 C1741 1.434 . S
C1741 C1732 1.429 . S
C1741 N1738 1.350 . S
C1741 C1740 1.434 . S
C1742 C1743 1.369 . S
C1742 C1744 1.419 . S
C1742 H1746 0.930 . S
C1743 C1742 1.369 . S
C1743 C1752 1.429 . S
C1744 C1742 1.419 . S
C1744 C1745 1.363 . S
C1744 H1747 0.929 . S
C1745 C1744 1.363 . S
C1745 C1751 1.428 . S
H1746 C1742 0.930 . S
H1747 C1744 0.929 . S
S1748 N1749 1.613 . S
S1748 N1750 1.610 . S
N1749 S1748 1.613 . S
N1749 C1752 1.350 . S
N1750 S1748 1.610 . S
N1750 C1751 1.351 . S
C1751 C1745 1.428 . S
C1751 N1750 1.351 . S
C1751 C1752 1.434 . S
C1752 C1743 1.429 . S
C1752 N1749 1.350 . S
C1752 C1751 1.434 . S
C1753 C1754 1.369 . S
C1753 C1755 1.419 . S
C1753 H1757 0.930 . S
C1754 C1753 1.369 . S
C1754 C1763 1.429 . S
C1755 C1753 1.419 . S
C1755 C1756 1.363 . S
C1755 H1758 0.929 . S
C1756 C1755 1.363 . S
C1756 C1762 1.428 . S
H1757 C1753 0.930 . S
H1758 C1755 0.929 . S
S1759 N1760 1.613 . S
S1759 N1761 1.610 . S
N1760 S1759 1.613 . S
N1760 C1763 1.350 . S
N1761 S1759 1.610 . S
N1761 C1762 1.351 . S
C1762 C1756 1.428 . S
C1762 N1761 1.351 . S
C1762 C1763 1.434 . S
C1763 C1754 1.429 . S
C1763 N1760 1.350 . S
C1763 C1762 1.434 . S
C1764 C1765 1.369 1_565 S
C1764 C1766 1.419 . S
C1764 H1768 0.930 . S
C1765 C1764 1.369 1_545 S
C1765 C1774 1.429 . S
C1766 C1764 1.419 . S
C1766 C1767 1.363 . S
C1766 H1769 0.929 . S
C1767 C1766 1.363 . S
C1767 C1773 1.428 1_565 S
H1768 C1764 0.930 . S
H1769 C1766 0.929 . S
S1770 N1771 1.613 . S
S1770 N1772 1.610 . S
N1771 S1770 1.613 . S
N1771 C1774 1.350 . S
N1772 S1770 1.610 . S
N1772 C1773 1.351 . S
C1773 C1767 1.428 1_545 S
C1773 N1772 1.351 . S
C1773 C1774 1.434 . S
C1774 C1765 1.429 . S
C1774 N1771 1.350 . S
C1774 C1773 1.434 . S
C1775 C1776 1.369 1_655 S
C1775 C1777 1.419 . S
C1775 H1779 0.930 . S
C1776 C1775 1.369 1_455 S
C1776 C1785 1.429 1_565 S
C1777 C1775 1.419 . S
C1777 C1778 1.363 1_565 S
C1777 H1780 0.929 . S
C1778 C1777 1.363 1_545 S
C1778 C1784 1.428 1_655 S
H1779 C1775 0.930 . S
H1780 C1777 0.929 . S
S1781 N1782 1.613 . S
S1781 N1783 1.610 . S
N1782 S1781 1.613 . S
N1782 C1785 1.350 . S
N1783 S1781 1.610 . S
N1783 C1784 1.351 . S
C1784 C1778 1.428 1_455 S
C1784 N1783 1.351 . S
C1784 C1785 1.434 . S
C1785 C1776 1.429 1_545 S
C1785 N1782 1.350 . S
C1785 C1784 1.434 . S
C1786 C1787 1.369 1_545 S
C1786 C1788 1.419 . S
C1786 H1790 0.930 . S
C1787 C1786 1.369 1_565 S
C1787 C1796 1.429 . S
C1788 C1786 1.419 . S
C1788 C1789 1.363 . S
C1788 H1791 0.929 . S
C1789 C1788 1.363 . S
C1789 C1795 1.428 1_545 S
H1790 C1786 0.930 . S
H1791 C1788 0.929 . S
S1792 N1793 1.613 . S
S1792 N1794 1.610 . S
N1793 S1792 1.613 . S
N1793 C1796 1.350 . S
N1794 S1792 1.610 . S
N1794 C1795 1.351 . S
C1795 C1789 1.428 1_565 S
C1795 N1794 1.351 . S
C1795 C1796 1.434 . S
C1796 C1787 1.429 . S
C1796 N1793 1.350 . S
C1796 C1795 1.434 . S
C1797 C1798 1.369 1_565 S
C1797 C1799 1.419 . S
C1797 H1801 0.930 . S
C1798 C1797 1.369 1_545 S
C1798 C1807 1.429 1_655 S
C1799 C1797 1.419 . S
C1799 C1800 1.363 1_655 S
C1799 H1802 0.929 . S
C1800 C1799 1.363 1_455 S
C1800 C1806 1.428 1_565 S
H1801 C1797 0.930 . S
H1802 C1799 0.929 . S
S1803 N1804 1.613 . S
S1803 N1805 1.610 . S
N1804 S1803 1.613 . S
N1804 C1807 1.350 . S
N1805 S1803 1.610 . S
N1805 C1806 1.351 . S
C1806 C1800 1.428 1_545 S
C1806 N1805 1.351 . S
C1806 C1807 1.434 . S
C1807 C1798 1.429 1_455 S
C1807 N1804 1.350 . S
C1807 C1806 1.434 . S
C1808 C1809 1.369 . S
C1808 C1810 1.419 . S
C1808 H1812 0.930 . S
C1809 C1808 1.369 . S
C1809 C1818 1.429 1_455 S
C1810 C1808 1.419 . S
C1810 C1811 1.363 1_455 S
C1810 H1813 0.929 . S
C1811 C1810 1.363 1_655 S
C1811 C1817 1.428 . S
H1812 C1808 0.930 . S
H1813 C1810 0.929 . S
S1814 N1815 1.613 . S
S1814 N1816 1.610 . S
N1815 S1814 1.613 . S
N1815 C1818 1.350 . S
N1816 S1814 1.610 . S
N1816 C1817 1.351 . S
C1817 C1811 1.428 . S
C1817 N1816 1.351 . S
C1817 C1818 1.434 . S
C1818 C1809 1.429 1_655 S
C1818 N1815 1.350 . S
C1818 C1817 1.434 . S
C1819 C1820 1.369 . S
C1819 C1821 1.419 . S
C1819 H1823 0.930 . S
C1820 C1819 1.369 . S
C1820 C1829 1.429 . S
C1821 C1819 1.419 . S
C1821 C1822 1.363 . S
C1821 H1824 0.929 . S
C1822 C1821 1.363 . S
C1822 C1828 1.428 . S
H1823 C1819 0.930 . S
H1824 C1821 0.929 . S
S1825 N1826 1.613 . S
S1825 N1827 1.610 . S
N1826 S1825 1.613 . S
N1826 C1829 1.350 . S
N1827 S1825 1.610 . S
N1827 C1828 1.351 . S
C1828 C1822 1.428 . S
C1828 N1827 1.351 . S
C1828 C1829 1.434 . S
C1829 C1820 1.429 . S
C1829 N1826 1.350 . S
C1829 C1828 1.434 . S
C1830 C1831 1.369 . S
C1830 C1832 1.419 . S
C1830 H1834 0.930 . S
C1831 C1830 1.369 . S
C1831 C1840 1.429 . S
C1832 C1830 1.419 . S
C1832 C1833 1.363 . S
C1832 H1835 0.929 . S
C1833 C1832 1.363 . S
C1833 C1839 1.428 . S
H1834 C1830 0.930 . S
H1835 C1832 0.929 . S
S1836 N1837 1.613 . S
S1836 N1838 1.610 . S
N1837 S1836 1.613 . S
N1837 C1840 1.350 . S
N1838 S1836 1.610 . S
N1838 C1839 1.351 . S
C1839 C1833 1.428 . S
C1839 N1838 1.351 . S
C1839 C1840 1.434 . S
C1840 C1831 1.429 . S
C1840 N1837 1.350 . S
C1840 C1839 1.434 . S
C1841 C1842 1.369 . S
C1841 C1843 1.419 . S
C1841 H1845 0.930 . S
C1842 C1841 1.369 . S
C1842 C1851 1.429 . S
C1843 C1841 1.419 . S
C1843 C1844 1.363 . S
C1843 H1846 0.929 . S
C1844 C1843 1.363 . S
C1844 C1850 1.428 . S
H1845 C1841 0.930 . S
H1846 C1843 0.929 . S
S1847 N1848 1.613 . S
S1847 N1849 1.610 . S
N1848 S1847 1.613 . S
N1848 C1851 1.350 . S
N1849 S1847 1.610 . S
N1849 C1850 1.351 . S
C1850 C1844 1.428 . S
C1850 N1849 1.351 . S
C1850 C1851 1.434 . S
C1851 C1842 1.429 . S
C1851 N1848 1.350 . S
C1851 C1850 1.434 . S
C1852 C1853 1.369 . S
C1852 C1854 1.418 . S
C1852 H1856 0.931 1_455 S
C1853 C1852 1.369 . S
C1853 C1862 1.429 . S
C1854 C1852 1.418 . S
C1854 C1855 1.363 . S
C1854 H1857 0.929 . S
C1855 C1854 1.363 . S
C1855 C1861 1.428 . S
H1856 C1852 0.931 1_655 S
H1857 C1854 0.929 . S
S1858 N1859 1.613 . S
S1858 N1860 1.610 . S
N1859 S1858 1.613 . S
N1859 C1862 1.350 . S
N1860 S1858 1.610 . S
N1860 C1861 1.351 . S
C1861 C1855 1.428 . S
C1861 N1860 1.351 . S
C1861 C1862 1.434 . S
C1862 C1853 1.429 . S
C1862 N1859 1.350 . S
C1862 C1861 1.434 . S
C1863 C1864 1.369 . S
C1863 C1865 1.419 . S
C1863 H1867 0.930 . S
C1864 C1863 1.369 . S
C1864 C1873 1.429 . S
C1865 C1863 1.419 . S
C1865 C1866 1.363 . S
C1865 H1868 0.929 . S
C1866 C1865 1.363 . S
C1866 C1872 1.428 . S
H1867 C1863 0.930 . S
H1868 C1865 0.929 . S
S1869 N1870 1.613 . S
S1869 N1871 1.610 . S
N1870 S1869 1.613 . S
N1870 C1873 1.350 . S
N1871 S1869 1.610 . S
N1871 C1872 1.351 . S
C1872 C1866 1.428 . S
C1872 N1871 1.351 . S
C1872 C1873 1.434 . S
C1873 C1864 1.429 . S
C1873 N1870 1.350 . S
C1873 C1872 1.434 . S
C1874 C1875 1.369 . S
C1874 C1876 1.419 . S
C1874 H1878 0.930 . S
C1875 C1874 1.369 . S
C1875 C1884 1.429 . S
C1876 C1874 1.419 . S
C1876 C1877 1.363 . S
C1876 H1879 0.929 . S
C1877 C1876 1.363 . S
C1877 C1883 1.428 . S
H1878 C1874 0.930 . S
H1879 C1876 0.929 . S
S1880 N1881 1.613 . S
S1880 N1882 1.610 . S
N1881 S1880 1.613 . S
N1881 C1884 1.350 . S
N1882 S1880 1.610 . S
N1882 C1883 1.351 . S
C1883 C1877 1.428 . S
C1883 N1882 1.351 . S
C1883 C1884 1.434 . S
C1884 C1875 1.429 . S
C1884 N1881 1.350 . S
C1884 C1883 1.434 . S
C1885 C1886 1.369 . S
C1885 C1887 1.419 . S
C1885 H1889 0.930 . S
C1886 C1885 1.369 . S
C1886 C1895 1.429 . S
C1887 C1885 1.419 . S
C1887 C1888 1.363 . S
C1887 H1890 0.929 . S
C1888 C1887 1.363 . S
C1888 C1894 1.428 . S
H1889 C1885 0.930 . S
H1890 C1887 0.929 . S
S1891 N1892 1.613 . S
S1891 N1893 1.610 . S
N1892 S1891 1.613 . S
N1892 C1895 1.350 . S
N1893 S1891 1.610 . S
N1893 C1894 1.351 . S
C1894 C1888 1.428 . S
C1894 N1893 1.351 . S
C1894 C1895 1.434 . S
C1895 C1886 1.429 . S
C1895 N1892 1.350 . S
C1895 C1894 1.434 . S
C1896 C1897 1.388 . S
C1896 C1898 1.396 1_455 S
C1896 H1900 0.936 . S
C1897 C1896 1.388 . S
C1897 C1906 1.429 . S
C1898 C1896 1.396 1_655 S
C1898 C1899 1.363 . S
C1898 H1901 0.929 . S
C1899 C1898 1.363 . S
C1899 C1905 1.428 . S
H1900 C1896 0.936 . S
H1901 C1898 0.929 . S
S1902 N1903 1.613 . S
S1902 N1904 1.610 1_455 S
N1903 S1902 1.613 . S
N1903 C1906 1.350 . S
N1904 S1902 1.610 1_655 S
N1904 C1905 1.351 . S
C1905 C1899 1.428 . S
C1905 N1904 1.351 . S
C1905 C1906 1.434 1_655 S
C1906 C1897 1.429 . S
C1906 N1903 1.350 . S
C1906 C1905 1.434 1_455 S
C1907 C1908 1.369 . S
C1907 C1909 1.419 . S
C1907 H1911 0.930 . S
C1908 C1907 1.369 . S
C1908 C1917 1.429 . S
C1909 C1907 1.419 . S
C1909 C1910 1.363 . S
C1909 H1912 0.929 . S
C1910 C1909 1.363 . S
C1910 C1916 1.428 . S
H1911 C1907 0.930 . S
H1912 C1909 0.929 . S
S1913 N1914 1.613 . S
S1913 N1915 1.610 . S
N1914 S1913 1.613 . S
N1914 C1917 1.350 . S
N1915 S1913 1.610 . S
N1915 C1916 1.351 . S
C1916 C1910 1.428 . S
C1916 N1915 1.351 . S
C1916 C1917 1.434 . S
C1917 C1908 1.429 . S
C1917 N1914 1.350 . S
C1917 C1916 1.434 . S
C1918 C1919 1.369 . S
C1918 C1920 1.419 . S
C1918 H1922 0.930 . S
C1919 C1918 1.369 . S
C1919 C1928 1.429 . S
C1920 C1918 1.419 . S
C1920 C1921 1.363 . S
C1920 H1923 0.929 . S
C1921 C1920 1.363 . S
C1921 C1927 1.428 . S
H1922 C1918 0.930 . S
H1923 C1920 0.929 . S
S1924 N1925 1.613 . S
S1924 N1926 1.610 . S
N1925 S1924 1.613 . S
N1925 C1928 1.350 . S
N1926 S1924 1.610 . S
N1926 C1927 1.351 . S
C1927 C1921 1.428 . S
C1927 N1926 1.351 . S
C1927 C1928 1.434 . S
C1928 C1919 1.429 . S
C1928 N1925 1.350 . S
C1928 C1927 1.434 . S
C1929 C1930 1.369 . S
C1929 C1931 1.419 . S
C1929 H1933 0.930 . S
C1930 C1929 1.369 . S
C1930 C1939 1.429 . S
C1931 C1929 1.419 . S
C1931 C1932 1.363 . S
C1931 H1934 0.929 . S
C1932 C1931 1.363 . S
C1932 C1938 1.428 . S
H1933 C1929 0.930 . S
H1934 C1931 0.929 . S
S1935 N1936 1.613 . S
S1935 N1937 1.610 . S
N1936 S1935 1.613 . S
N1936 C1939 1.350 . S
N1937 S1935 1.610 . S
N1937 C1938 1.351 . S
C1938 C1932 1.428 . S
C1938 N1937 1.351 . S
C1938 C1939 1.434 . S
C1939 C1930 1.429 . S
C1939 N1936 1.350 . S
C1939 C1938 1.434 . S
C1940 C1941 1.369 . S
C1940 C1942 1.419 . S
C1940 H1944 0.930 . S
C1941 C1940 1.369 . S
C1941 C1950 1.429 1_655 S
C1942 C1940 1.419 . S
C1942 C1943 1.363 . S
C1942 H1945 0.929 . S
C1943 C1942 1.363 . S
C1943 C1949 1.428 . S
H1944 C1940 0.930 . S
H1945 C1942 0.929 . S
S1946 N1947 1.613 . S
S1946 N1948 1.621 . S
N1947 S1946 1.613 . S
N1947 C1950 1.350 . S
N1948 S1946 1.621 . S
N1948 C1949 1.345 1_455 S
C1949 C1943 1.428 . S
C1949 N1948 1.345 1_655 S
C1949 C1950 1.434 1_655 S
C1950 C1941 1.429 1_455 S
C1950 N1947 1.350 . S
C1950 C1949 1.434 1_455 S
C1951 C1952 1.369 . S
C1951 C1953 1.419 . S
C1951 H1955 0.930 . S
C1952 C1951 1.369 . S
C1952 C1961 1.429 . S
C1953 C1951 1.419 . S
C1953 C1954 1.363 . S
C1953 H1956 0.929 . S
C1954 C1953 1.363 . S
C1954 C1960 1.428 . S
H1955 C1951 0.930 . S
H1956 C1953 0.929 . S
S1957 N1958 1.613 . S
S1957 N1959 1.610 . S
N1958 S1957 1.613 . S
N1958 C1961 1.350 . S
N1959 S1957 1.610 . S
N1959 C1960 1.351 . S
C1960 C1954 1.428 . S
C1960 N1959 1.351 . S
C1960 C1961 1.434 . S
C1961 C1952 1.429 . S
C1961 N1958 1.350 . S
C1961 C1960 1.434 . S
C1962 C1963 1.369 . S
C1962 C1964 1.419 . S
C1962 H1966 0.930 . S
C1963 C1962 1.369 . S
C1963 C1972 1.429 . S
C1964 C1962 1.419 . S
C1964 C1965 1.363 . S
C1964 H1967 0.929 . S
C1965 C1964 1.363 . S
C1965 C1971 1.428 . S
H1966 C1962 0.930 . S
H1967 C1964 0.929 . S
S1968 N1969 1.613 . S
S1968 N1970 1.610 . S
N1969 S1968 1.613 . S
N1969 C1972 1.350 . S
N1970 S1968 1.610 . S
N1970 C1971 1.351 . S
C1971 C1965 1.428 . S
C1971 N1970 1.351 . S
C1971 C1972 1.434 . S
C1972 C1963 1.429 . S
C1972 N1969 1.350 . S
C1972 C1971 1.434 . S
C1973 C1974 1.369 . S
C1973 C1975 1.419 . S
C1973 H1977 0.930 . S
C1974 C1973 1.369 . S
C1974 C1983 1.429 . S
C1975 C1973 1.419 . S
C1975 C1976 1.363 . S
C1975 H1978 0.929 . S
C1976 C1975 1.363 . S
C1976 C1982 1.428 . S
H1977 C1973 0.930 . S
H1978 C1975 0.929 . S
S1979 N1980 1.613 . S
S1979 N1981 1.610 . S
N1980 S1979 1.613 . S
N1980 C1983 1.350 . S
N1981 S1979 1.610 . S
N1981 C1982 1.351 . S
C1982 C1976 1.428 . S
C1982 N1981 1.351 . S
C1982 C1983 1.434 . S
C1983 C1974 1.429 . S
C1983 N1980 1.350 . S
C1983 C1982 1.434 . S
C1984 C1985 1.369 . S
C1984 C1986 1.419 . S
C1984 H1988 0.930 . S
C1985 C1984 1.369 . S
C1985 C1994 1.429 . S
C1986 C1984 1.419 . S
C1986 C1987 1.363 . S
C1986 H1989 0.929 . S
C1987 C1986 1.363 . S
C1987 C1993 1.428 . S
H1988 C1984 0.930 . S
H1989 C1986 0.929 . S
S1990 N1991 1.613 . S
S1990 N1992 1.610 . S
N1991 S1990 1.613 . S
N1991 C1994 1.350 . S
N1992 S1990 1.610 . S
N1992 C1993 1.351 . S
C1993 C1987 1.428 . S
C1993 N1992 1.351 . S
C1993 C1994 1.434 . S
C1994 C1985 1.429 . S
C1994 N1991 1.350 . S
C1994 C1993 1.434 . S
C1995 C1996 1.369 . S
C1995 C1997 1.419 . S
C1995 H1999 0.930 . S
C1996 C1995 1.369 . S
C1996 C2005 1.429 . S
C1997 C1995 1.419 . S
C1997 C1998 1.363 . S
C1997 H2000 0.929 . S
C1998 C1997 1.363 . S
C1998 C2004 1.428 . S
H1999 C1995 0.930 . S
H2000 C1997 0.929 . S
S2001 N2002 1.613 . S
S2001 N2003 1.610 . S
N2002 S2001 1.613 . S
N2002 C2005 1.350 . S
N2003 S2001 1.610 . S
N2003 C2004 1.351 . S
C2004 C1998 1.428 . S
C2004 N2003 1.351 . S
C2004 C2005 1.434 . S
C2005 C1996 1.429 . S
C2005 N2002 1.350 . S
C2005 C2004 1.434 . S
C2006 C2007 1.369 1_455 S
C2006 C2008 1.419 . S
C2006 H2010 0.930 . S
C2007 C2006 1.369 1_655 S
C2007 C2016 1.429 . S
C2008 C2006 1.419 . S
C2008 C2009 1.363 . S
C2008 H2011 0.929 . S
C2009 C2008 1.363 . S
C2009 C2015 1.428 1_455 S
H2010 C2006 0.930 . S
H2011 C2008 0.929 . S
S2012 N2013 1.613 . S
S2012 N2014 1.610 . S
N2013 S2012 1.613 . S
N2013 C2016 1.350 . S
N2014 S2012 1.610 . S
N2014 C2015 1.351 . S
C2015 C2009 1.428 1_655 S
C2015 N2014 1.351 . S
C2015 C2016 1.434 . S
C2016 C2007 1.429 . S
C2016 N2013 1.350 . S
C2016 C2015 1.434 . S
C2017 C2018 1.369 . S
C2017 C2019 1.419 1_556 S
C2017 H2021 0.930 . S
C2018 C2017 1.369 . S
C2018 C2027 1.429 1_556 S
C2019 C2017 1.419 1_554 S
C2019 C2020 1.363 . S
C2019 H2022 0.929 . S
C2020 C2019 1.363 . S
C2020 C2026 1.428 . S
H2021 C2017 0.930 . S
H2022 C2019 0.929 . S
S2023 N2024 1.613 . S
S2023 N2025 1.610 . S
N2024 S2023 1.613 . S
N2024 C2027 1.350 . S
N2025 S2023 1.610 . S
N2025 C2026 1.351 . S
C2026 C2020 1.428 . S
C2026 N2025 1.351 . S
C2026 C2027 1.434 . S
C2027 C2018 1.429 1_554 S
C2027 N2024 1.350 . S
C2027 C2026 1.434 . S
C2028 C2029 1.369 . S
C2028 C2030 1.419 . S
C2028 H2032 0.930 . S
C2029 C2028 1.369 . S
C2029 C2038 1.429 . S
C2030 C2028 1.419 . S
C2030 C2031 1.363 . S
C2030 H2033 0.929 . S
C2031 C2030 1.363 . S
C2031 C2037 1.428 . S
H2032 C2028 0.930 . S
H2033 C2030 0.929 . S
S2034 N2035 1.613 . S
S2034 N2036 1.610 . S
N2035 S2034 1.613 . S
N2035 C2038 1.350 . S
N2036 S2034 1.610 . S
N2036 C2037 1.351 . S
C2037 C2031 1.428 . S
C2037 N2036 1.351 . S
C2037 C2038 1.434 . S
C2038 C2029 1.429 . S
C2038 N2035 1.350 . S
C2038 C2037 1.434 . S
C2039 C2040 1.369 . S
C2039 C2041 1.419 . S
C2039 H2043 0.930 . S
C2040 C2039 1.369 . S
C2040 C2049 1.429 . S
C2041 C2039 1.419 . S
C2041 C2042 1.363 . S
C2041 H2044 0.929 . S
C2042 C2041 1.363 . S
C2042 C2048 1.428 . S
H2043 C2039 0.930 . S
H2044 C2041 0.929 . S
S2045 N2046 1.613 . S
S2045 N2047 1.610 . S
N2046 S2045 1.613 . S
N2046 C2049 1.350 . S
N2047 S2045 1.610 . S
N2047 C2048 1.351 . S
C2048 C2042 1.428 . S
C2048 N2047 1.351 . S
C2048 C2049 1.434 . S
C2049 C2040 1.429 . S
C2049 N2046 1.350 . S
C2049 C2048 1.434 . S
C2050 C2051 1.369 . S
C2050 C2052 1.419 . S
C2050 H2054 0.930 . S
C2051 C2050 1.369 . S
C2051 C2060 1.429 . S
C2052 C2050 1.419 . S
C2052 C2053 1.363 . S
C2052 H2055 0.929 . S
C2053 C2052 1.363 . S
C2053 C2059 1.428 . S
H2054 C2050 0.930 . S
H2055 C2052 0.929 . S
S2056 N2057 1.613 . S
S2056 N2058 1.610 . S
N2057 S2056 1.613 . S
N2057 C2060 1.350 . S
N2058 S2056 1.610 . S
N2058 C2059 1.351 . S
C2059 C2053 1.428 . S
C2059 N2058 1.351 . S
C2059 C2060 1.434 . S
C2060 C2051 1.429 . S
C2060 N2057 1.350 . S
C2060 C2059 1.434 . S
C2061 C2062 1.369 . S
C2061 C2063 1.419 . S
C2061 H2065 0.930 . S
C2062 C2061 1.369 . S
C2062 C2071 1.429 . S
C2063 C2061 1.419 . S
C2063 C2064 1.363 . S
C2063 H2066 0.929 . S
C2064 C2063 1.363 . S
C2064 C2070 1.428 . S
H2065 C2061 0.930 . S
H2066 C2063 0.929 . S
S2067 N2068 1.613 . S
S2067 N2069 1.610 . S
N2068 S2067 1.613 . S
N2068 C2071 1.350 . S
N2069 S2067 1.610 . S
N2069 C2070 1.351 . S
C2070 C2064 1.428 . S
C2070 N2069 1.351 . S
C2070 C2071 1.434 . S
C2071 C2062 1.429 . S
C2071 N2068 1.350 . S
C2071 C2070 1.434 . S
C2072 C2073 1.369 . S
C2072 C2074 1.419 . S
C2072 H2076 0.930 . S
C2073 C2072 1.369 . S
C2073 C2082 1.429 . S
C2074 C2072 1.419 . S
C2074 C2075 1.363 . S
C2074 H2077 0.929 . S
C2075 C2074 1.363 . S
C2075 C2081 1.428 . S
H2076 C2072 0.930 . S
H2077 C2074 0.929 . S
S2078 N2079 1.613 . S
S2078 N2080 1.610 . S
N2079 S2078 1.613 . S
N2079 C2082 1.350 . S
N2080 S2078 1.610 . S
N2080 C2081 1.351 . S
C2081 C2075 1.428 . S
C2081 N2080 1.351 . S
C2081 C2082 1.434 . S
C2082 C2073 1.429 . S
C2082 N2079 1.350 . S
C2082 C2081 1.434 . S
C2083 C2084 1.369 . S
C2083 C2085 1.419 . S
C2083 H2087 0.930 . S
C2084 C2083 1.369 . S
C2084 C2093 1.429 . S
C2085 C2083 1.419 . S
C2085 C2086 1.363 . S
C2085 H2088 0.929 . S
C2086 C2085 1.363 . S
C2086 C2092 1.428 . S
H2087 C2083 0.930 . S
H2088 C2085 0.929 . S
S2089 N2090 1.613 . S
S2089 N2091 1.610 . S
N2090 S2089 1.613 . S
N2090 C2093 1.350 . S
N2091 S2089 1.610 . S
N2091 C2092 1.351 . S
C2092 C2086 1.428 . S
C2092 N2091 1.351 . S
C2092 C2093 1.434 . S
C2093 C2084 1.429 . S
C2093 N2090 1.350 . S
C2093 C2092 1.434 . S
C2094 C2095 1.369 . S
C2094 C2096 1.423 . S
C2094 H2098 0.930 . S
C2095 C2094 1.369 . S
C2095 C2104 1.429 1_455 S
C2096 C2094 1.423 . S
C2096 C2097 1.355 1_455 S
C2096 H2099 0.933 . S
C2097 C2096 1.355 1_655 S
C2097 C2103 1.428 . S
H2098 C2094 0.930 . S
H2099 C2096 0.933 . S
S2100 N2101 1.613 . S
S2100 N2102 1.610 . S
N2101 S2100 1.613 . S
N2101 C2104 1.350 . S
N2102 S2100 1.610 . S
N2102 C2103 1.351 . S
C2103 C2097 1.428 . S
C2103 N2102 1.351 . S
C2103 C2104 1.434 . S
C2104 C2095 1.429 1_655 S
C2104 N2101 1.350 . S
C2104 C2103 1.434 . S
C2105 C2106 1.369 . S
C2105 C2107 1.419 . S
C2105 H2109 0.930 . S
C2106 C2105 1.369 . S
C2106 C2115 1.429 . S
C2107 C2105 1.419 . S
C2107 C2108 1.363 . S
C2107 H2110 0.929 . S
C2108 C2107 1.363 . S
C2108 C2114 1.428 . S
H2109 C2105 0.930 . S
H2110 C2107 0.929 . S
S2111 N2112 1.613 . S
S2111 N2113 1.610 . S
N2112 S2111 1.613 . S
N2112 C2115 1.350 . S
N2113 S2111 1.610 . S
N2113 C2114 1.351 . S
C2114 C2108 1.428 . S
C2114 N2113 1.351 . S
C2114 C2115 1.434 . S
C2115 C2106 1.429 . S
C2115 N2112 1.350 . S
C2115 C2114 1.434 . S
C2116 C2117 1.369 . S
C2116 C2118 1.419 . S
C2116 H2120 0.930 . S
C2117 C2116 1.369 . S
C2117 C2126 1.429 . S
C2118 C2116 1.419 . S
C2118 C2119 1.363 . S
C2118 H2121 0.929 . S
C2119 C2118 1.363 . S
C2119 C2125 1.428 . S
H2120 C2116 0.930 . S
H2121 C2118 0.929 . S
S2122 N2123 1.613 . S
S2122 N2124 1.610 . S
N2123 S2122 1.613 . S
N2123 C2126 1.350 . S
N2124 S2122 1.610 . S
N2124 C2125 1.351 . S
C2125 C2119 1.428 . S
C2125 N2124 1.351 . S
C2125 C2126 1.434 . S
C2126 C2117 1.429 . S
C2126 N2123 1.350 . S
C2126 C2125 1.434 . S
C2127 C2128 1.369 . S
C2127 C2129 1.419 . S
C2127 H2131 0.930 . S
C2128 C2127 1.369 . S
C2128 C2137 1.429 . S
C2129 C2127 1.419 . S
C2129 C2130 1.363 . S
C2129 H2132 0.929 . S
C2130 C2129 1.363 . S
C2130 C2136 1.428 . S
H2131 C2127 0.930 . S
H2132 C2129 0.929 . S
S2133 N2134 1.613 . S
S2133 N2135 1.610 . S
N2134 S2133 1.613 . S
N2134 C2137 1.350 . S
N2135 S2133 1.610 . S
N2135 C2136 1.351 . S
C2136 C2130 1.428 . S
C2136 N2135 1.351 . S
C2136 C2137 1.434 . S
C2137 C2128 1.429 . S
C2137 N2134 1.350 . S
C2137 C2136 1.434 . S
C2138 C2139 1.369 . S
C2138 C2140 1.419 . S
C2138 H2142 0.930 . S
C2139 C2138 1.369 . S
C2139 C2148 1.429 . S
C2140 C2138 1.419 . S
C2140 C2141 1.363 . S
C2140 H2143 0.929 1_455 S
C2141 C2140 1.363 . S
C2141 C2147 1.428 . S
H2142 C2138 0.930 . S
H2143 C2140 0.929 1_655 S
S2144 N2145 1.613 . S
S2144 N2146 1.610 . S
N2145 S2144 1.613 . S
N2145 C2148 1.350 . S
N2146 S2144 1.610 . S
N2146 C2147 1.351 . S
C2147 C2141 1.428 . S
C2147 N2146 1.351 . S
C2147 C2148 1.434 . S
C2148 C2139 1.429 . S
C2148 N2145 1.350 . S
C2148 C2147 1.434 . S
C2149 C2150 1.369 1_554 S
C2149 C2151 1.419 . S
C2149 H2153 0.930 . S
C2150 C2149 1.369 1_556 S
C2150 C2159 1.429 . S
C2151 C2149 1.419 . S
C2151 C2152 1.363 . S
C2151 H2154 0.929 . S
C2152 C2151 1.363 . S
C2152 C2158 1.428 . S
H2153 C2149 0.930 . S
H2154 C2151 0.929 . S
S2155 N2156 1.613 . S
S2155 N2157 1.610 1_556 S
N2156 S2155 1.613 . S
N2156 C2159 1.350 . S
N2157 S2155 1.610 1_554 S
N2157 C2158 1.351 . S
C2158 C2152 1.428 . S
C2158 N2157 1.351 . S
C2158 C2159 1.434 1_554 S
C2159 C2150 1.429 . S
C2159 N2156 1.350 . S
C2159 C2158 1.434 1_556 S
C2160 C2161 1.369 . S
C2160 C2162 1.419 . S
C2160 H2164 0.930 . S
C2161 C2160 1.369 . S
C2161 C2170 1.429 . S
C2162 C2160 1.419 . S
C2162 C2163 1.363 . S
C2162 H2165 0.929 . S
C2163 C2162 1.363 . S
C2163 C2169 1.428 . S
H2164 C2160 0.930 . S
H2165 C2162 0.929 . S
S2166 N2167 1.613 . S
S2166 N2168 1.610 . S
N2167 S2166 1.613 . S
N2167 C2170 1.350 . S
N2168 S2166 1.610 . S
N2168 C2169 1.351 . S
C2169 C2163 1.428 . S
C2169 N2168 1.351 . S
C2169 C2170 1.434 . S
C2170 C2161 1.429 . S
C2170 N2167 1.350 . S
C2170 C2169 1.434 . S
C2171 C2172 1.369 . S
C2171 C2173 1.419 1_556 S
C2171 H2175 0.930 . S
C2172 C2171 1.369 . S
C2172 C2181 1.429 . S
C2173 C2171 1.419 1_554 S
C2173 C2174 1.363 . S
C2173 H2176 0.929 . S
C2174 C2173 1.363 . S
C2174 C2180 1.428 1_554 S
H2175 C2171 0.930 . S
H2176 C2173 0.929 . S
S2177 N2178 1.613 . S
S2177 N2179 1.610 . S
N2178 S2177 1.613 . S
N2178 C2181 1.350 . S
N2179 S2177 1.610 . S
N2179 C2180 1.351 . S
C2180 C2174 1.428 1_556 S
C2180 N2179 1.351 . S
C2180 C2181 1.434 . S
C2181 C2172 1.429 . S
C2181 N2178 1.350 . S
C2181 C2180 1.434 . S
C2182 C2183 1.369 . S
C2182 C2184 1.419 . S
C2182 H2186 0.930 . S
C2183 C2182 1.369 . S
C2183 C2192 1.429 . S
C2184 C2182 1.419 . S
C2184 C2185 1.363 . S
C2184 H2187 0.929 . S
C2185 C2184 1.363 . S
C2185 C2191 1.428 . S
H2186 C2182 0.930 . S
H2187 C2184 0.929 . S
S2188 N2189 1.613 . S
S2188 N2190 1.610 . S
N2189 S2188 1.613 . S
N2189 C2192 1.350 . S
N2190 S2188 1.610 . S
N2190 C2191 1.351 . S
C2191 C2185 1.428 . S
C2191 N2190 1.351 . S
C2191 C2192 1.434 . S
C2192 C2183 1.429 . S
C2192 N2189 1.350 . S
C2192 C2191 1.434 . S
C2193 C2194 1.369 . S
C2193 C2195 1.419 . S
C2193 H2197 0.930 . S
C2194 C2193 1.369 . S
C2194 C2203 1.429 . S
C2195 C2193 1.419 . S
C2195 C2196 1.363 . S
C2195 H2198 0.929 . S
C2196 C2195 1.363 . S
C2196 C2202 1.428 . S
H2197 C2193 0.930 . S
H2198 C2195 0.929 . S
S2199 N2200 1.613 . S
S2199 N2201 1.610 . S
N2200 S2199 1.613 . S
N2200 C2203 1.350 . S
N2201 S2199 1.610 . S
N2201 C2202 1.351 . S
C2202 C2196 1.428 . S
C2202 N2201 1.351 . S
C2202 C2203 1.434 . S
C2203 C2194 1.429 . S
C2203 N2200 1.350 . S
C2203 C2202 1.434 . S
C2204 C2205 1.369 . S
C2204 C2206 1.419 . S
C2204 H2208 0.930 . S
C2205 C2204 1.369 . S
C2205 C2214 1.429 . S
C2206 C2204 1.419 . S
C2206 C2207 1.363 . S
C2206 H2209 0.929 . S
C2207 C2206 1.363 . S
C2207 C2213 1.428 . S
H2208 C2204 0.930 . S
H2209 C2206 0.929 . S
S2210 N2211 1.613 . S
S2210 N2212 1.610 . S
N2211 S2210 1.613 . S
N2211 C2214 1.350 . S
N2212 S2210 1.610 . S
N2212 C2213 1.351 . S
C2213 C2207 1.428 . S
C2213 N2212 1.351 . S
C2213 C2214 1.434 . S
C2214 C2205 1.429 . S
C2214 N2211 1.350 . S
C2214 C2213 1.434 . S
C2215 C2216 1.369 . S
C2215 C2217 1.419 . S
C2215 H2219 0.930 . S
C2216 C2215 1.369 . S
C2216 C2225 1.429 . S
C2217 C2215 1.419 . S
C2217 C2218 1.363 . S
C2217 H2220 0.929 . S
C2218 C2217 1.363 . S
C2218 C2224 1.428 . S
H2219 C2215 0.930 . S
H2220 C2217 0.929 . S
S2221 N2222 1.613 . S
S2221 N2223 1.610 . S
N2222 S2221 1.613 . S
N2222 C2225 1.350 . S
N2223 S2221 1.610 . S
N2223 C2224 1.351 . S
C2224 C2218 1.428 . S
C2224 N2223 1.351 . S
C2224 C2225 1.434 . S
C2225 C2216 1.429 . S
C2225 N2222 1.350 . S
C2225 C2224 1.434 . S
C2226 C2227 1.369 . S
C2226 C2228 1.419 . S
C2226 H2230 0.930 . S
C2227 C2226 1.369 . S
C2227 C2236 1.429 . S
C2228 C2226 1.419 . S
C2228 C2229 1.363 . S
C2228 H2231 0.929 . S
C2229 C2228 1.363 . S
C2229 C2235 1.428 . S
H2230 C2226 0.930 . S
H2231 C2228 0.929 . S
S2232 N2233 1.613 . S
S2232 N2234 1.610 . S
N2233 S2232 1.613 . S
N2233 C2236 1.350 . S
N2234 S2232 1.610 . S
N2234 C2235 1.351 . S
C2235 C2229 1.428 . S
C2235 N2234 1.351 . S
C2235 C2236 1.434 . S
C2236 C2227 1.429 . S
C2236 N2233 1.350 . S
C2236 C2235 1.434 . S
C2237 C2238 1.369 . S
C2237 C2239 1.419 . S
C2237 H2241 0.930 . S
C2238 C2237 1.369 . S
C2238 C2247 1.429 . S
C2239 C2237 1.419 . S
C2239 C2240 1.363 . S
C2239 H2242 0.929 . S
C2240 C2239 1.363 . S
C2240 C2246 1.428 . S
H2241 C2237 0.930 . S
H2242 C2239 0.929 . S
S2243 N2244 1.613 . S
S2243 N2245 1.610 . S
N2244 S2243 1.613 . S
N2244 C2247 1.350 . S
N2245 S2243 1.610 . S
N2245 C2246 1.351 . S
C2246 C2240 1.428 . S
C2246 N2245 1.351 . S
C2246 C2247 1.434 . S
C2247 C2238 1.429 . S
C2247 N2244 1.350 . S
C2247 C2246 1.434 . S
C2248 C2249 1.369 1_545 S
C2248 C2250 1.419 . S
C2248 H2252 0.930 . S
C2249 C2248 1.369 1_565 S
C2249 C2258 1.429 . S
C2250 C2248 1.419 . S
C2250 C2251 1.363 . S
C2250 H2253 0.929 . S
C2251 C2250 1.363 . S
C2251 C2257 1.428 1_545 S
H2252 C2248 0.930 . S
H2253 C2250 0.929 . S
S2254 N2255 1.613 . S
S2254 N2256 1.610 . S
N2255 S2254 1.613 . S
N2255 C2258 1.350 . S
N2256 S2254 1.610 . S
N2256 C2257 1.351 . S
C2257 C2251 1.428 1_565 S
C2257 N2256 1.351 . S
C2257 C2258 1.434 . S
C2258 C2249 1.429 . S
C2258 N2255 1.350 . S
C2258 C2257 1.434 . S
C2259 C2260 1.369 . S
C2259 C2261 1.419 . S
C2259 H2263 0.930 . S
C2260 C2259 1.369 . S
C2260 C2269 1.429 . S
C2261 C2259 1.419 . S
C2261 C2262 1.363 . S
C2261 H2264 0.929 . S
C2262 C2261 1.363 . S
C2262 C2268 1.428 . S
H2263 C2259 0.930 . S
H2264 C2261 0.929 . S
S2265 N2266 1.613 . S
S2265 N2267 1.610 . S
N2266 S2265 1.613 . S
N2266 C2269 1.350 . S
N2267 S2265 1.610 . S
N2267 C2268 1.351 . S
C2268 C2262 1.428 . S
C2268 N2267 1.351 . S
C2268 C2269 1.434 . S
C2269 C2260 1.429 . S
C2269 N2266 1.350 . S
C2269 C2268 1.434 . S
C2270 C2271 1.369 . S
C2270 C2272 1.419 1_545 S
C2270 H2274 0.930 . S
C2271 C2270 1.369 . S
C2271 C2280 1.429 . S
C2272 C2270 1.419 1_565 S
C2272 C2273 1.363 1_565 S
C2272 H2275 0.929 . S
C2273 C2272 1.363 1_545 S
C2273 C2279 1.428 . S
H2274 C2270 0.930 . S
H2275 C2272 0.929 . S
S2276 N2277 1.613 . S
S2276 N2278 1.610 . S
N2277 S2276 1.613 . S
N2277 C2280 1.350 . S
N2278 S2276 1.610 . S
N2278 C2279 1.351 . S
C2279 C2273 1.428 . S
C2279 N2278 1.351 . S
C2279 C2280 1.434 . S
C2280 C2271 1.429 . S
C2280 N2277 1.350 . S
C2280 C2279 1.434 . S
C2281 C2282 1.369 . S
C2281 C2283 1.419 . S
C2281 H2285 0.930 . S
C2282 C2281 1.369 . S
C2282 C2291 1.429 . S
C2283 C2281 1.419 . S
C2283 C2284 1.363 . S
C2283 H2286 0.929 . S
C2284 C2283 1.363 . S
C2284 C2290 1.428 . S
H2285 C2281 0.930 . S
H2286 C2283 0.929 . S
S2287 N2288 1.613 . S
S2287 N2289 1.610 . S
N2288 S2287 1.613 . S
N2288 C2291 1.350 . S
N2289 S2287 1.610 . S
N2289 C2290 1.351 . S
C2290 C2284 1.428 . S
C2290 N2289 1.351 . S
C2290 C2291 1.434 . S
C2291 C2282 1.429 . S
C2291 N2288 1.350 . S
C2291 C2290 1.434 . S
C2292 C2293 1.369 1_545 S
C2292 C2294 1.419 . S
C2292 H2296 0.930 . S
C2293 C2292 1.369 1_565 S
C2293 C2302 1.429 . S
C2294 C2292 1.419 . S
C2294 C2295 1.363 . S
C2294 H2297 0.929 . S
C2295 C2294 1.363 . S
C2295 C2301 1.428 1_545 S
H2296 C2292 0.930 . S
H2297 C2294 0.929 . S
S2298 N2299 1.613 . S
S2298 N2300 1.610 . S
N2299 S2298 1.613 . S
N2299 C2302 1.350 . S
N2300 S2298 1.610 . S
N2300 C2301 1.351 . S
C2301 C2295 1.428 1_565 S
C2301 N2300 1.351 . S
C2301 C2302 1.434 . S
C2302 C2293 1.429 . S
C2302 N2299 1.350 . S
C2302 C2301 1.434 . S
C2303 C2304 1.369 . S
C2303 C2305 1.419 . S
C2303 H2307 0.930 . S
C2304 C2303 1.369 . S
C2304 C2313 1.429 . S
C2305 C2303 1.419 . S
C2305 C2306 1.363 . S
C2305 H2308 0.929 . S
C2306 C2305 1.363 . S
C2306 C2312 1.428 . S
H2307 C2303 0.930 . S
H2308 C2305 0.929 . S
S2309 N2310 1.613 . S
S2309 N2311 1.610 . S
N2310 S2309 1.613 . S
N2310 C2313 1.350 . S
N2311 S2309 1.610 . S
N2311 C2312 1.351 . S
C2312 C2306 1.428 . S
C2312 N2311 1.351 . S
C2312 C2313 1.434 . S
C2313 C2304 1.429 . S
C2313 N2310 1.350 . S
C2313 C2312 1.434 . S
C2314 C2315 1.369 . S
C2314 C2316 1.419 . S
C2314 H2318 0.930 . S
C2315 C2314 1.369 . S
C2315 C2324 1.429 . S
C2316 C2314 1.419 . S
C2316 C2317 1.363 . S
C2316 H2319 0.929 . S
C2317 C2316 1.363 . S
C2317 C2323 1.428 . S
H2318 C2314 0.930 . S
H2319 C2316 0.929 . S
S2320 N2321 1.613 . S
S2320 N2322 1.610 . S
N2321 S2320 1.613 . S
N2321 C2324 1.350 . S
N2322 S2320 1.610 . S
N2322 C2323 1.351 . S
C2323 C2317 1.428 . S
C2323 N2322 1.351 . S
C2323 C2324 1.434 . S
C2324 C2315 1.429 . S
C2324 N2321 1.350 . S
C2324 C2323 1.434 . S
C2325 C2326 1.369 . S
C2325 C2327 1.419 . S
C2325 H2329 0.930 . S
C2326 C2325 1.369 . S
C2326 C2335 1.429 . S
C2327 C2325 1.419 . S
C2327 C2328 1.363 . S
C2327 H2330 0.929 . S
C2328 C2327 1.363 . S
C2328 C2334 1.428 . S
H2329 C2325 0.930 . S
H2330 C2327 0.929 . S
S2331 N2332 1.613 . S
S2331 N2333 1.610 . S
N2332 S2331 1.613 . S
N2332 C2335 1.350 . S
N2333 S2331 1.610 . S
N2333 C2334 1.351 . S
C2334 C2328 1.428 . S
C2334 N2333 1.351 . S
C2334 C2335 1.434 . S
C2335 C2326 1.429 . S
C2335 N2332 1.350 . S
C2335 C2334 1.434 . S
C1281 C10 0.376 . S
C1283 C175 0.323 . S
C1292 C215 0.405 . S
C1294 C50 0.402 . S
C1303 C90 0.353 . S
C1305 C255 0.477 . S
C1314 C295 0.444 . S
C1316 C135 0.519 . S
C1325 C339 0.376 . S
C1327 C486 0.311 . S
C1336 C379 0.404 . S
C1338 C526 0.400 . S
C1347 C566 0.485 . S
C1349 C419 0.353 . S
C1358 C446 0.535 . S
C1360 C606 0.413 . S
C1369 C815 0.321 . S
C1371 C650 0.367 . S
C1380 C690 0.396 . S
C1382 C855 0.398 . S
C1391 C730 0.351 . S
C1393 C895 0.462 . S
C1402 C775 0.520 . S
C1404 C935 0.419 . S
C1413 C979 0.370 . S
C1415 C1126 0.321 . S
C1424 C1166 0.398 . S
C1426 C1019 0.399 . S
C1435 C1059 0.353 . S
C1437 C1206 0.480 . S
C1446 C1246 0.412 . S
C1448 C1086 0.540 . S
C1457 C849 2.414 . S
C1459 C18 2.354 . S
C1468 C889 1.837 . S
C1470 C58 1.810 . S
C1479 C929 2.595 . S
C1481 C98 2.569 . S
C1490 C129 1.672 . S
C1492 C809 1.690 1_556 S
C1501 C169 1.692 . S
C1503 C769 1.673 . S
C1512 C658 2.345 . S
C1514 C209 2.423 . S
C1523 C249 1.842 1_556 S
C1525 C698 1.805 . S
C1534 C289 2.593 . S
C1536 C738 2.571 . S
C1545 C329 2.354 . S
C1547 C1178 2.415 . S
C1556 C1218 1.846 . S
C1558 C369 1.806 . S
C1567 C1258 2.596 . S
C1569 C409 2.569 . S
C1578 C458 1.672 . S
C1580 C1138 1.693 . S
C1589 C498 1.689 . S
C1591 C1098 1.682 . S
C1600 C538 2.414 . S
C1602 C969 2.354 . S
C1611 C578 1.849 . S
C1613 C1009 1.803 . S
C1622 C618 2.602 . S
C1624 C1049 2.564 . S
C1633 C338 1.593 . S
C1635 C9 1.602 . S
C1644 C49 1.525 . S
C1646 C1018 1.515 . S
C1655 C418 1.420 . S
C1657 C89 1.433 . S
C1666 C138 1.421 . S
C1668 C1089 1.436 . S
C1677 C489 1.438 . S
C1679 C178 1.445 . S
C1688 C1169 1.616 . S
C1690 C218 1.621 . S
C1699 C258 1.598 . S
C1701 C569 1.595 . S
C1710 C298 1.379 . S
C1712 C1249 1.386 . S
C1721 C689 1.513 . S
C1723 C378 1.525 . S
C1732 C778 1.439 . S
C1734 C449 1.423 . S
C1743 C529 1.623 . S
C1745 C858 1.617 . S
C1754 C938 1.391 . S
C1756 C609 1.375 . S
C1765 C978 1.590 . S
C1767 C649 1.604 . S
C1776 C1058 1.436 . S
C1778 C729 1.421 . S
C1787 C1129 1.444 . S
C1789 C818 1.442 . S
C1798 C898 1.602 . S
C1800 C1209 1.593 . S
C1809 C19 2.341 1_556 S
C1811 C490 2.390 . S
C1820 C1170 2.059 . S
C1822 C59 2.026 . S
C1831 C570 2.390 . S
C1833 C99 2.354 . S
C1842 C126 1.354 . S
C1844 C1250 1.418 . S
C1853 C335 0.943 1_455 S
C1855 C166 0.931 . S
C1864 C1015 1.081 . S
C1866 C206 1.074 . S
C1875 C415 0.808 . S
C1877 C246 0.812 . S
C1886 C1090 1.719 . S
C1888 C286 1.648 . S
C1897 C179 2.387 . S
C1899 C330 2.359 . S
C1908 C859 2.061 . S
C1910 C370 2.029 . S
C1919 C259 2.393 . S
C1921 C410 2.350 . S
C1930 C455 1.356 . S
C1932 C939 1.418 . S
C1941 C6 0.946 1_655 S
C1943 C495 0.923 . S
C1952 C686 1.087 . S
C1954 C535 1.067 . S
C1963 C575 0.806 1_556 S
C1965 C86 0.809 . S
C1974 C615 1.652 . S
C1976 C779 1.717 . S
C1985 C1130 2.391 . S
C1987 C659 2.355 . S
C1996 C530 2.060 . S
C1998 C699 2.029 . S
C2007 C739 2.350 1_556 S
C2009 C1210 2.390 . S
C2018 C610 1.424 . S
C2020 C766 1.350 . S
C2029 C806 0.918 . S
C2031 C975 0.943 . S
C2040 C846 1.067 . S
C2042 C375 1.087 . S
C2051 C1055 0.818 . S
C2053 C886 0.814 . S
C2062 C450 1.713 . S
C2064 C926 1.648 . S
C2073 C970 2.357 . S
C2075 C819 2.387 . S
C2084 C1010 2.029 . S
C2086 C219 2.060 . S
C2095 C1050 2.352 . S
C2097 C899 2.391 . S
C2106 C1095 1.348 . S
C2108 C299 1.423 . S
C2117 C646 0.937 . S
C2119 C1135 0.920 . S
C2128 C46 1.085 . S
C2130 C1175 1.076 . S
C2139 C1215 0.817 . S
C2141 C726 0.815 . S
C2150 C139 1.713 . S
C2152 C1255 1.650 . S
C2161 C170 2.330 . S
C2163 C15 2.265 . S
C2172 C210 2.228 . S
C2174 C55 2.198 . S
C2183 C95 2.231 . S
C2185 C250 2.284 . S
C2194 C290 3.152 . S
C2196 C130 3.162 . S
C2205 C499 2.330 . S
C2207 C326 2.265 . S
C2216 C366 2.196 . S
C2218 C539 2.229 . S
C2227 C406 2.226 1_554 S
C2229 C579 2.284 . S
C2238 C619 3.151 . S
C2240 C459 3.162 . S
C2249 C655 2.263 . S
C2251 C810 2.330 . S
C2260 C850 2.230 . S
C2262 C695 2.199 . S
C2271 C735 2.232 . S
C2273 C890 2.284 1_545 S
C2282 C770 3.161 . S
C2284 C930 3.152 1_554 S
C2293 C1139 2.331 . S
C2295 C966 2.263 1_554 S
C2304 C1179 2.228 . S
C2306 C1006 2.199 . S
C2315 C1046 2.227 . S
C2317 C1219 2.284 1_565 S
C2326 C1259 3.152 . S
C2328 C1099 3.161 . S
