# Generated by pormake.
# Topology neb, (4)-cn, num edge types: 1
# Building blocks:
#     Node 0, Type 0, BuildingBlock: KUFVIS_clean_sbu_0, # of connection points: 4
#     Node 1, Type 0, BuildingBlock: KUFVIS_clean_sbu_0, # of connection points: 4
#     Node 2, Type 0, BuildingBlock: KUFVIS_clean_sbu_0, # of connection points: 4
#     Node 3, Type 0, BuildingBlock: KUFVIS_clean_sbu_0, # of connection points: 4
#     Node 4, Type 0, BuildingBlock: KUFVIS_clean_sbu_0, # of connection points: 4
#     Node 5, Type 0, BuildingBlock: KUFVIS_clean_sbu_0, # of connection points: 4
#     Node 6, Type 0, BuildingBlock: KUFVIS_clean_sbu_0, # of connection points: 4
#     Node 7, Type 0, BuildingBlock: KUFVIS_clean_sbu_0, # of connection points: 4
#     Node 8, Type 0, BuildingBlock: KUFVIS_clean_sbu_0, # of connection points: 4
#     Node 9, Type 0, BuildingBlock: KUFVIS_clean_sbu_0, # of connection points: 4
#     Node 10, Type 0, BuildingBlock: KUFVIS_clean_sbu_0, # of connection points: 4
#     Node 11, Type 0, BuildingBlock: KUFVIS_clean_sbu_0, # of connection points: 4
#     Node 12, Type 0, BuildingBlock: KUFVIS_clean_sbu_0, # of connection points: 4
#     Node 13, Type 0, BuildingBlock: KUFVIS_clean_sbu_0, # of connection points: 4
#     Node 14, Type 0, BuildingBlock: KUFVIS_clean_sbu_0, # of connection points: 4
#     Node 15, Type 0, BuildingBlock: KUFVIS_clean_sbu_0, # of connection points: 4
#     Edge 16, Type (0, 0), BuildingBlock: ZUJKAS_clean_linker_0, # of connection points: 2
#     Edge 17, Type (0, 0), BuildingBlock: ZUJKAS_clean_linker_0, # of connection points: 2
#     Edge 18, Type (0, 0), BuildingBlock: ZUJKAS_clean_linker_0, # of connection points: 2
#     Edge 19, Type (0, 0), BuildingBlock: ZUJKAS_clean_linker_0, # of connection points: 2
#     Edge 20, Type (0, 0), BuildingBlock: ZUJKAS_clean_linker_0, # of connection points: 2
#     Edge 21, Type (0, 0), BuildingBlock: ZUJKAS_clean_linker_0, # of connection points: 2
#     Edge 22, Type (0, 0), BuildingBlock: ZUJKAS_clean_linker_0, # of connection points: 2
#     Edge 23, Type (0, 0), BuildingBlock: ZUJKAS_clean_linker_0, # of connection points: 2
#     Edge 24, Type (0, 0), BuildingBlock: ZUJKAS_clean_linker_0, # of connection points: 2
#     Edge 25, Type (0, 0), BuildingBlock: ZUJKAS_clean_linker_0, # of connection points: 2
#     Edge 26, Type (0, 0), BuildingBlock: ZUJKAS_clean_linker_0, # of connection points: 2
#     Edge 27, Type (0, 0), BuildingBlock: ZUJKAS_clean_linker_0, # of connection points: 2
#     Edge 28, Type (0, 0), BuildingBlock: ZUJKAS_clean_linker_0, # of connection points: 2
#     Edge 29, Type (0, 0), BuildingBlock: ZUJKAS_clean_linker_0, # of connection points: 2
#     Edge 30, Type (0, 0), BuildingBlock: ZUJKAS_clean_linker_0, # of connection points: 2
#     Edge 31, Type (0, 0), BuildingBlock: ZUJKAS_clean_linker_0, # of connection points: 2
#     Edge 32, Type (0, 0), BuildingBlock: ZUJKAS_clean_linker_0, # of connection points: 2
#     Edge 33, Type (0, 0), BuildingBlock: ZUJKAS_clean_linker_0, # of connection points: 2
#     Edge 34, Type (0, 0), BuildingBlock: ZUJKAS_clean_linker_0, # of connection points: 2
#     Edge 35, Type (0, 0), BuildingBlock: ZUJKAS_clean_linker_0, # of connection points: 2
#     Edge 36, Type (0, 0), BuildingBlock: ZUJKAS_clean_linker_0, # of connection points: 2
#     Edge 37, Type (0, 0), BuildingBlock: ZUJKAS_clean_linker_0, # of connection points: 2
#     Edge 38, Type (0, 0), BuildingBlock: ZUJKAS_clean_linker_0, # of connection points: 2
#     Edge 39, Type (0, 0), BuildingBlock: ZUJKAS_clean_linker_0, # of connection points: 2
#     Edge 40, Type (0, 0), BuildingBlock: ZUJKAS_clean_linker_0, # of connection points: 2
#     Edge 41, Type (0, 0), BuildingBlock: ZUJKAS_clean_linker_0, # of connection points: 2
#     Edge 42, Type (0, 0), BuildingBlock: ZUJKAS_clean_linker_0, # of connection points: 2
#     Edge 43, Type (0, 0), BuildingBlock: ZUJKAS_clean_linker_0, # of connection points: 2
#     Edge 44, Type (0, 0), BuildingBlock: ZUJKAS_clean_linker_0, # of connection points: 2
#     Edge 45, Type (0, 0), BuildingBlock: ZUJKAS_clean_linker_0, # of connection points: 2
#     Edge 46, Type (0, 0), BuildingBlock: ZUJKAS_clean_linker_0, # of connection points: 2
#     Edge 47, Type (0, 0), BuildingBlock: ZUJKAS_clean_linker_0, # of connection points: 2
# Relax obj value: 0.013
# Max RMSD: 0.060
# Mean RMSD: 0.060
data_MOF--net-neb--node1-KUFVIS_clean_sbu_0--edge1-ZUJKAS_clean_linker_0
_symmetry_space_group_name_H-M    P1
_symmetry_Int_Tables_number       1
_symmetry_cell_setting            triclinic
loop_
_symmetry_equiv_pos_as_xyz
'x, y, z'
_cell_length_a     54.342455
_cell_length_b     29.210526
_cell_length_c     98.281621
_cell_angle_alpha  93.477875
_cell_angle_beta   89.972619
_cell_angle_gamma 90.044216
loop_
_atom_site_label
_atom_site_type_symbol
_atom_site_fract_x
_atom_site_fract_y
_atom_site_fract_z
_atom_type_partial_charge
Mn0 Mn 0.12332 0.12904 0.44332 0.0
Mn1 Mn 0.17622 0.11796 0.42547 0.0
C2 C 0.12616 0.07672 0.42475 0.0
C3 C 0.09833 0.10691 0.46117 0.0
C4 C 0.14003 0.19577 0.4223 0.0
O5 O 0.14835 0.16095 0.45623 0.0
O6 O 0.18269 0.14766 0.44379 0.0
C7 C 0.20162 0.05142 0.44216 0.0
N8 N 0.19276 0.06314 0.42989 0.0
C9 C 0.21039 0.99574 0.41848 0.0
C10 C 0.21973 0.98291 0.43099 0.0
C11 C 0.21515 0.0107 0.4429 0.0
C12 C 0.19647 0.03602 0.41844 0.0
H13 H 0.19852 0.07314 0.45129 0.0
C14 C 0.17165 0.16334 0.45461 0.0
O15 O 0.09515 0.14601 0.45577 0.0
O16 O 0.11663 0.08204 0.45663 0.0
N17 N 0.17296 0.08934 0.40753 0.0
C18 C 0.16248 0.10636 0.3963 0.0
C19 C 0.16485 0.08207 0.3836 0.0
C20 C 0.1786 0.04132 0.38249 0.0
C21 C 0.18971 0.02508 0.39413 0.0
C22 C 0.18615 0.05007 0.40658 0.0
H23 H 0.15237 0.13822 0.39702 0.0
O24 O 0.10487 0.09117 0.42912 0.0
O25 O 0.14514 0.09258 0.43152 0.0
O26 O 0.124 0.1832 0.43084 0.0
O27 O 0.16024 0.17442 0.41996 0.0
C28 C 0.20453 0.98549 0.39384 0.0
C29 C 0.21462 0.97051 0.40603 0.0
H30 H 0.2305 0.9519 0.43157 0.0
H31 H 0.22231 1.00106 0.45259 0.0
H32 H 0.15638 0.09504 0.37464 0.0
H33 H 0.18068 0.023 0.37264 0.0
H34 H 0.20785 0.96572 0.38433 0.0
H35 H 0.22556 0.93947 0.40571 0.0
Mn36 Mn 0.11816 0.12468 0.81179 0.0
Mn37 Mn 0.16982 0.13892 0.83058 0.0
C38 C 0.11897 0.17691 0.83045 0.0
C39 C 0.09402 0.1454 0.79345 0.0
C40 C 0.13534 0.05768 0.83252 0.0
O41 O 0.14463 0.09466 0.79939 0.0
O42 O 0.17818 0.1115 0.81222 0.0
C43 C 0.1944 0.20968 0.81505 0.0
N44 N 0.18514 0.19582 0.82701 0.0
C45 C 0.19856 0.26543 0.83912 0.0
C46 C 0.20832 0.28042 0.82695 0.0
C47 C 0.20611 0.25252 0.81485 0.0
C48 C 0.18685 0.22267 0.83866 0.0
H49 H 0.19289 0.18816 0.80576 0.0
C50 C 0.16793 0.09465 0.80129 0.0
O51 O 0.09116 0.10602 0.79874 0.0
O52 O 0.11153 0.17147 0.79841 0.0
N53 N 0.16447 0.16554 0.84861 0.0
C54 C 0.15324 0.14682 0.85936 0.0
C55 C 0.15322 0.17096 0.87216 0.0
C56 C 0.16511 0.21364 0.87383 0.0
C57 C 0.17685 0.23186 0.86266 0.0
C58 C 0.17605 0.20648 0.85012 0.0
H59 H 0.14433 0.11377 0.85818 0.0
O60 O 0.09817 0.16124 0.82569 0.0
O61 O 0.13855 0.16201 0.82405 0.0
O62 O 0.11907 0.07029 0.82415 0.0
O63 O 0.1551 0.08015 0.83521 0.0
C64 C 0.18933 0.27421 0.86347 0.0
C65 C 0.19997 0.29122 0.85169 0.0
H66 H 0.21748 0.31333 0.82677 0.0
H67 H 0.21355 0.26389 0.80541 0.0
H68 H 0.14416 0.15659 0.88074 0.0
H69 H 0.1651 0.23212 0.88372 0.0
H70 H 0.19047 0.2944 0.87307 0.0
H71 H 0.20907 0.32428 0.85239 0.0
Mn72 Mn 0.89277 0.87703 0.56212 0.0
Mn73 Mn 0.84211 0.89058 0.5818 0.0
C74 C 0.89279 0.9289 0.58087 0.0
C75 C 0.9161 0.89849 0.54354 0.0
C76 C 0.87684 0.80951 0.58302 0.0
O77 O 0.86569 0.84725 0.55008 0.0
O78 O 0.83287 0.86346 0.56355 0.0
C79 C 0.81654 0.9614 0.56679 0.0
N80 N 0.82649 0.94745 0.57855 0.0
C81 C 0.81364 0.01685 0.59097 0.0
C82 C 0.80318 0.03194 0.57899 0.0
C83 C 0.80475 0.00418 0.56683 0.0
C84 C 0.8254 0.97416 0.59026 0.0
H85 H 0.81756 0.93999 0.55745 0.0
C86 C 0.84251 0.84706 0.5524 0.0
O87 O 0.91921 0.8589 0.54866 0.0
O88 O 0.89871 0.92424 0.54878 0.0
N89 N 0.84838 0.91698 0.59975 0.0
C90 C 0.86021 0.89817 0.61029 0.0
C91 C 0.86091 0.92216 0.62311 0.0
C92 C 0.84907 0.9648 0.62502 0.0
C93 C 0.83671 0.98313 0.61408 0.0
C94 C 0.83685 0.95789 0.60151 0.0
H95 H 0.86908 0.86515 0.60892 0.0
O96 O 0.91338 0.91339 0.57579 0.0
O97 O 0.87294 0.91396 0.57476 0.0
O98 O 0.89258 0.82233 0.57436 0.0
O99 O 0.8572 0.83183 0.58609 0.0
C100 C 0.82425 0.02544 0.61515 0.0
C101 C 0.8129 0.04249 0.60357 0.0
H102 H 0.79395 0.0648 0.57901 0.0
H103 H 0.79677 0.01562 0.55754 0.0
H104 H 0.87043 0.90771 0.63151 0.0
H105 H 0.8496 0.98317 0.63492 0.0
H106 H 0.82364 0.04556 0.62477 0.0
H107 H 0.80378 0.07551 0.60447 0.0
Mn108 Mn 0.89451 0.87494 0.19125 0.0
Mn109 Mn 0.84411 0.85773 0.17158 0.0
C110 C 0.89526 0.82189 0.1728 0.0
C111 C 0.9178 0.85533 0.21005 0.0
C112 C 0.87806 0.93984 0.16973 0.0
O113 O 0.86709 0.90455 0.20305 0.0
O114 O 0.83452 0.88613 0.18963 0.0
C115 C 0.81928 0.78742 0.18717 0.0
N116 N 0.82906 0.80069 0.17527 0.0
C117 C 0.81682 0.72993 0.16338 0.0
C118 C 0.80653 0.71553 0.17549 0.0
C119 C 0.80789 0.74431 0.18746 0.0
C120 C 0.82821 0.77298 0.16376 0.0
H121 H 0.82012 0.80962 0.19636 0.0
C122 C 0.84394 0.90377 0.20068 0.0
O123 O 0.9207 0.89467 0.20473 0.0
O124 O 0.90066 0.82886 0.20488 0.0
N125 N 0.85062 0.83005 0.1538 0.0
C126 C 0.86212 0.84845 0.14308 0.0
C127 C 0.86293 0.82351 0.13041 0.0
C128 C 0.8515 0.78037 0.12883 0.0
C129 C 0.83942 0.76251 0.13995 0.0
C130 C 0.83946 0.78868 0.15236 0.0
H131 H 0.87065 0.88186 0.14417 0.0
O132 O 0.91563 0.83855 0.17786 0.0
O133 O 0.87519 0.83629 0.17878 0.0
O134 O 0.89382 0.92869 0.17861 0.0
O135 O 0.85872 0.91637 0.16681 0.0
C136 C 0.8273 0.71981 0.1392 0.0
C137 C 0.81622 0.7033 0.15094 0.0
H138 H 0.7976 0.68243 0.17573 0.0
H139 H 0.80004 0.7334 0.19685 0.0
H140 H 0.87221 0.83762 0.12187 0.0
H141 H 0.8521 0.76128 0.11904 0.0
H142 H 0.82676 0.69899 0.1297 0.0
H143 H 0.80738 0.66999 0.15029 0.0
Mn144 Mn 0.12622 0.62483 0.94222 0.0
Mn145 Mn 0.17977 0.61771 0.92479 0.0
C146 C 0.1298 0.57503 0.92302 0.0
C147 C 0.10063 0.60097 0.9596 0.0
C148 C 0.14298 0.69464 0.92207 0.0
O149 O 0.1506 0.6559 0.95573 0.0
O150 O 0.18518 0.64592 0.94335 0.0
C151 C 0.20499 0.55034 0.94126 0.0
N152 N 0.19696 0.56336 0.92896 0.0
C153 C 0.21671 0.49876 0.91722 0.0
C154 C 0.22525 0.48463 0.92976 0.0
C155 C 0.2192 0.51036 0.94184 0.0
C156 C 0.20218 0.53831 0.91732 0.0
H157 H 0.20069 0.57046 0.95054 0.0
C158 C 0.17385 0.65983 0.95423 0.0
O159 O 0.09771 0.64058 0.95448 0.0
O160 O 0.11898 0.57624 0.95501 0.0
N161 N 0.17791 0.59095 0.9066 0.0
C162 C 0.16749 0.60844 0.89542 0.0
C163 C 0.17165 0.5867 0.8825 0.0
C164 C 0.18694 0.54794 0.88117 0.0
C165 C 0.19746 0.53057 0.89283 0.0
C166 C 0.19238 0.55332 0.90544 0.0
H167 H 0.1563 0.639 0.89635 0.0
O168 O 0.10838 0.58857 0.92746 0.0
O169 O 0.14863 0.59009 0.93013 0.0
O170 O 0.12694 0.6806 0.93037 0.0
O171 O 0.16335 0.67407 0.91958 0.0
C172 C 0.21293 0.49179 0.89242 0.0
C173 C 0.22221 0.47544 0.90462 0.0
H174 H 0.23646 0.45413 0.93023 0.0
H175 H 0.22571 0.49968 0.95156 0.0
H176 H 0.16344 0.60024 0.87355 0.0
H177 H 0.1904 0.53169 0.87115 0.0
H178 H 0.21754 0.47389 0.88278 0.0
H179 H 0.23367 0.44507 0.90419 0.0
Mn180 Mn 0.12186 0.62937 0.31301 0.0
Mn181 Mn 0.17324 0.64344 0.33215 0.0
C182 C 0.12206 0.68057 0.33189 0.0
C183 C 0.09778 0.65095 0.29473 0.0
C184 C 0.13816 0.56332 0.3344 0.0
O185 O 0.14832 0.60003 0.30055 0.0
O186 O 0.18125 0.6135 0.31406 0.0
C187 C 0.19836 0.71094 0.31564 0.0
N188 N 0.18939 0.69884 0.32786 0.0
C189 C 0.20459 0.76848 0.33919 0.0
C190 C 0.21411 0.78161 0.32675 0.0
C191 C 0.21086 0.75281 0.31491 0.0
C192 C 0.19211 0.72656 0.33927 0.0
H193 H 0.19603 0.68876 0.30653 0.0
C194 C 0.1714 0.59799 0.30288 0.0
O195 O 0.09496 0.6112 0.29981 0.0
O196 O 0.11525 0.67679 0.29984 0.0
N197 N 0.16879 0.67236 0.34997 0.0
C198 C 0.1576 0.65553 0.36103 0.0
C199 C 0.15877 0.68059 0.37367 0.0
C200 C 0.1718 0.72219 0.37485 0.0
C201 C 0.18335 0.73862 0.36335 0.0
C202 C 0.18146 0.71227 0.35102 0.0
H203 H 0.14786 0.62326 0.36022 0.0
O204 O 0.1015 0.66459 0.3269 0.0
O205 O 0.142 0.66691 0.32555 0.0
O206 O 0.12289 0.57435 0.32524 0.0
O207 O 0.15752 0.58653 0.33748 0.0
C208 C 0.19657 0.78021 0.36361 0.0
C209 C 0.20695 0.79536 0.35151 0.0
H210 H 0.22386 0.81379 0.32615 0.0
H211 H 0.21808 0.76276 0.30526 0.0
H212 H 0.1498 0.6677 0.3825 0.0
H213 H 0.17275 0.74127 0.38464 0.0
H214 H 0.19868 0.80106 0.37303 0.0
H215 H 0.21671 0.82776 0.35181 0.0
Mn216 Mn 0.89213 0.37483 0.06101 0.0
Mn217 Mn 0.83872 0.3808 0.0786 0.0
C218 C 0.88859 0.42382 0.08038 0.0
C219 C 0.91752 0.39962 0.04367 0.0
C220 C 0.87574 0.30402 0.08094 0.0
O221 O 0.86772 0.34407 0.04747 0.0
O222 O 0.83325 0.3533 0.05997 0.0
C223 C 0.81315 0.44866 0.06246 0.0
N224 N 0.82131 0.43517 0.07469 0.0
C225 C 0.80123 0.49878 0.08673 0.0
C226 C 0.79255 0.51341 0.07428 0.0
C227 C 0.79871 0.48842 0.06208 0.0
C228 C 0.816 0.45953 0.08644 0.0
H229 H 0.81751 0.42907 0.0531 0.0
C230 C 0.8445 0.3399 0.04902 0.0
O231 O 0.92057 0.3598 0.04863 0.0
O232 O 0.89915 0.42404 0.04839 0.0
N233 N 0.84065 0.4068 0.09688 0.0
C234 C 0.85121 0.38892 0.10795 0.0
C235 C 0.84693 0.40985 0.12097 0.0
C236 C 0.83139 0.4482 0.12249 0.0
C237 C 0.82074 0.46602 0.11093 0.0
C238 C 0.82594 0.4441 0.09822 0.0
H239 H 0.86257 0.35861 0.10687 0.0
O240 O 0.91001 0.41063 0.07584 0.0
O241 O 0.86973 0.40891 0.07327 0.0
O242 O 0.89163 0.3185 0.07263 0.0
O243 O 0.85536 0.32437 0.08357 0.0
C244 C 0.80502 0.50446 0.11154 0.0
C245 C 0.79561 0.5213 0.09943 0.0
H246 H 0.78115 0.54372 0.07396 0.0
H247 H 0.79209 0.49947 0.05243 0.0
H248 H 0.85525 0.39598 0.12984 0.0
H249 H 0.82783 0.46382 0.13258 0.0
H250 H 0.80032 0.52173 0.12125 0.0
H251 H 0.78396 0.55143 0.10002 0.0
Mn252 Mn 0.88794 0.37662 0.69238 0.0
Mn253 Mn 0.83429 0.37151 0.67506 0.0
C254 C 0.88384 0.32734 0.67314 0.0
C255 C 0.91307 0.35121 0.7097 0.0
C256 C 0.87188 0.44724 0.67234 0.0
O257 O 0.86397 0.40846 0.70593 0.0
O258 O 0.82923 0.39987 0.69364 0.0
C259 C 0.80849 0.30487 0.69157 0.0
N260 N 0.81661 0.31766 0.67925 0.0
C261 C 0.7965 0.25332 0.66757 0.0
C262 C 0.78785 0.23945 0.68012 0.0
C263 C 0.79403 0.26517 0.69219 0.0
C264 C 0.81125 0.29263 0.66763 0.0
H265 H 0.81292 0.32496 0.70084 0.0
C266 C 0.84078 0.41336 0.70449 0.0
O267 O 0.91663 0.3908 0.70467 0.0
O268 O 0.89439 0.3275 0.70506 0.0
N269 N 0.83584 0.34476 0.65686 0.0
C270 C 0.84635 0.36199 0.64566 0.0
C271 C 0.8421 0.3402 0.63276 0.0
C272 C 0.82663 0.30164 0.63147 0.0
C273 C 0.81599 0.28456 0.64314 0.0
C274 C 0.82115 0.30736 0.65574 0.0
H275 H 0.85771 0.39236 0.64656 0.0
O276 O 0.9054 0.33997 0.67758 0.0
O277 O 0.86516 0.34291 0.68029 0.0
O278 O 0.88783 0.43262 0.68058 0.0
O279 O 0.8513 0.42731 0.66986 0.0
C280 C 0.80033 0.24601 0.64277 0.0
C281 C 0.79092 0.22995 0.65499 0.0
H282 H 0.77647 0.20915 0.68062 0.0
H283 H 0.78745 0.25469 0.70192 0.0
H284 H 0.8504 0.35352 0.6238 0.0
H285 H 0.82311 0.28534 0.62146 0.0
H286 H 0.79566 0.22807 0.63315 0.0
H287 H 0.7793 0.19975 0.65458 0.0
Mn288 Mn 0.62024 0.12399 0.94312 0.0
Mn289 Mn 0.66715 0.10321 0.92101 0.0
C290 C 0.61574 0.07015 0.92518 0.0
C291 C 0.59912 0.10651 0.96288 0.0
C292 C 0.63383 0.18649 0.92033 0.0
O293 O 0.64969 0.15223 0.9534 0.0
O294 O 0.67982 0.13321 0.93832 0.0
C295 C 0.69429 0.03402 0.93589 0.0
N296 N 0.68272 0.04638 0.92439 0.0
C297 C 0.69205 0.97368 0.91269 0.0
C298 C 0.70421 0.96028 0.92438 0.0
C299 C 0.70528 0.99055 0.93604 0.0
C300 C 0.68161 0.01755 0.91311 0.0
H301 H 0.69511 0.05715 0.94488 0.0
C302 C 0.67231 0.15122 0.94981 0.0
O303 O 0.59633 0.14593 0.9576 0.0
O304 O 0.61528 0.07897 0.9572 0.0
N305 N 0.65764 0.07387 0.90386 0.0
C306 C 0.64364 0.0907 0.89381 0.0
C307 C 0.63985 0.06386 0.88164 0.0
C308 C 0.65067 0.02024 0.87989 0.0
C309 C 0.66519 0.00383 0.89033 0.0
C310 C 0.66842 0.03222 0.9022 0.0
H311 H 0.63527 0.12419 0.89509 0.0
O312 O 0.59659 0.08886 0.93107 0.0
O313 O 0.63708 0.08335 0.92997 0.0
O314 O 0.6198 0.17715 0.93023 0.0
O315 O 0.65211 0.16155 0.91643 0.0
C316 C 0.67601 0.95992 0.88957 0.0
C317 C 0.68942 0.94485 0.90075 0.0
H318 H 0.71256 0.92667 0.92458 0.0
H319 H 0.71452 0.98035 0.94513 0.0
H320 H 0.62857 0.07671 0.87365 0.0
H321 H 0.64751 0.99947 0.87055 0.0
H322 H 0.67373 0.93714 0.88054 0.0
H323 H 0.69729 0.91073 0.90013 0.0
Mn324 Mn 0.62672 0.12928 0.31326 0.0
Mn325 Mn 0.67928 0.13332 0.33161 0.0
C326 C 0.62946 0.17642 0.33304 0.0
C327 C 0.60224 0.15621 0.29587 0.0
C328 C 0.64199 0.05628 0.3327 0.0
O329 O 0.65173 0.09965 0.29984 0.0
O330 O 0.68568 0.10799 0.31284 0.0
C331 C 0.70578 0.20309 0.3166 0.0
N332 N 0.69695 0.18822 0.32852 0.0
C333 C 0.71632 0.25077 0.34147 0.0
C334 C 0.7257 0.26677 0.32933 0.0
C335 C 0.72024 0.24301 0.31683 0.0
C336 C 0.7016 0.21137 0.34056 0.0
H337 H 0.70194 0.18449 0.307 0.0
C338 C 0.67491 0.09568 0.30164 0.0
O339 O 0.5988 0.11581 0.30039 0.0
O340 O 0.62053 0.1799 0.30102 0.0
N341 N 0.67637 0.15736 0.35006 0.0
C342 C 0.66504 0.13842 0.36074 0.0
C343 C 0.66839 0.15829 0.37398 0.0
C344 C 0.68381 0.19666 0.37611 0.0
C345 C 0.69529 0.21551 0.36495 0.0
C346 C 0.69096 0.19467 0.35199 0.0
H347 H 0.65373 0.10815 0.35919 0.0
O348 O 0.60823 0.16379 0.32811 0.0
O349 O 0.64861 0.16204 0.32609 0.0
O350 O 0.62644 0.07181 0.32439 0.0
O351 O 0.66235 0.07617 0.33574 0.0
C352 C 0.71098 0.25399 0.36618 0.0
C353 C 0.72115 0.27208 0.35443 0.0
H354 H 0.7371 0.29724 0.32949 0.0
H355 H 0.72739 0.25515 0.30742 0.0
H356 H 0.65944 0.14361 0.38253 0.0
H357 H 0.68662 0.21149 0.38637 0.0
H358 H 0.71505 0.27039 0.3761 0.0
H359 H 0.73274 0.30226 0.35549 0.0
Mn360 Mn 0.39256 0.88236 0.06409 0.0
Mn361 Mn 0.34304 0.90015 0.08454 0.0
C362 C 0.39487 0.93433 0.08269 0.0
C363 C 0.41578 0.90184 0.04524 0.0
C364 C 0.37704 0.8183 0.08619 0.0
O365 O 0.36469 0.85414 0.05247 0.0
O366 O 0.33307 0.8695 0.06681 0.0
C367 C 0.31747 0.96791 0.06835 0.0
N368 N 0.32724 0.95603 0.0804 0.0
C369 C 0.31457 0.02758 0.09167 0.0
C370 C 0.30424 0.04048 0.0794 0.0
C371 C 0.30577 0.01057 0.06768 0.0
C372 C 0.32597 0.98461 0.09171 0.0
H373 H 0.31861 0.94501 0.05932 0.0
C374 C 0.34182 0.85305 0.05544 0.0
O375 O 0.41817 0.86204 0.05034 0.0
O376 O 0.399 0.92876 0.05058 0.0
N377 N 0.3494 0.92986 0.10207 0.0
C378 C 0.36146 0.9133 0.11288 0.0
C379 C 0.36192 0.93932 0.12537 0.0
C380 C 0.3498 0.98184 0.12664 0.0
C381 C 0.33756 0.9982 0.11537 0.0
C382 C 0.33746 0.97051 0.10324 0.0
H383 H 0.37061 0.88045 0.11199 0.0
O384 O 0.41464 0.91658 0.07722 0.0
O385 O 0.3741 0.92175 0.07699 0.0
O386 O 0.39164 0.82804 0.07656 0.0
O387 O 0.35839 0.84279 0.08975 0.0
C388 C 0.32576 0.04118 0.11565 0.0
C389 C 0.31436 0.05595 0.10379 0.0
H390 H 0.29527 0.07341 0.07883 0.0
H391 H 0.29794 0.02037 0.05816 0.0
H392 H 0.37152 0.92659 0.13401 0.0
H393 H 0.35017 1.00182 0.13629 0.0
H394 H 0.32564 0.06343 0.12488 0.0
H395 H 0.30567 0.08935 0.10407 0.0
Mn396 Mn 0.39279 0.87869 0.69425 0.0
Mn397 Mn 0.34452 0.86007 0.67296 0.0
C398 C 0.39582 0.82523 0.6761 0.0
C399 C 0.41479 0.8596 0.71356 0.0
C400 C 0.37861 0.94228 0.67184 0.0
O401 O 0.36421 0.9076 0.70515 0.0
O402 O 0.33313 0.8901 0.69055 0.0
C403 C 0.31755 0.79149 0.6882 0.0
N404 N 0.32858 0.80371 0.67651 0.0
C405 C 0.31793 0.73153 0.66488 0.0
C406 C 0.30631 0.71829 0.67677 0.0
C407 C 0.30617 0.74837 0.68848 0.0
C408 C 0.32879 0.77506 0.66517 0.0
H409 H 0.31746 0.81446 0.69723 0.0
C410 C 0.3414 0.90746 0.70195 0.0
O411 O 0.41774 0.89915 0.70837 0.0
O412 O 0.39802 0.83293 0.70808 0.0
N413 N 0.35277 0.83078 0.6556 0.0
C414 C 0.36639 0.84732 0.64533 0.0
C415 C 0.36928 0.82055 0.63307 0.0
C416 C 0.35798 0.77731 0.63145 0.0
C417 C 0.34384 0.76122 0.6421 0.0
C418 C 0.3415 0.78952 0.65406 0.0
H419 H 0.37515 0.88051 0.64652 0.0
O420 O 0.41544 0.84317 0.68169 0.0
O421 O 0.37488 0.83894 0.6813 0.0
O422 O 0.39303 0.93234 0.68151 0.0
O423 O 0.35993 0.91796 0.66822 0.0
C424 C 0.33259 0.71767 0.64148 0.0
C425 C 0.31965 0.70283 0.65286 0.0
H426 H 0.29767 0.68494 0.67706 0.0
H427 H 0.29735 0.73829 0.69771 0.0
H428 H 0.38028 0.83315 0.62491 0.0
H429 H 0.36047 0.75657 0.62204 0.0
H430 H 0.33418 0.69496 0.63239 0.0
H431 H 0.31144 0.66896 0.65234 0.0
Mn432 Mn 0.61955 0.62843 0.44313 0.0
Mn433 Mn 0.67038 0.61113 0.42382 0.0
C434 C 0.61927 0.57512 0.42474 0.0
C435 C 0.59567 0.60848 0.46169 0.0
C436 C 0.63651 0.69309 0.42164 0.0
O437 O 0.64667 0.65819 0.45513 0.0
O438 O 0.67952 0.63995 0.44188 0.0
C439 C 0.69486 0.54132 0.43973 0.0
N440 N 0.68532 0.55423 0.42774 0.0
C441 C 0.6975 0.48298 0.41612 0.0
C442 C 0.70755 0.46895 0.42833 0.0
C443 C 0.70611 0.49817 0.4402 0.0
C444 C 0.68627 0.52612 0.41631 0.0
H445 H 0.69395 0.56384 0.44884 0.0
C446 C 0.66988 0.65758 0.45289 0.0
O447 O 0.5929 0.64787 0.45638 0.0
O448 O 0.61309 0.58231 0.4567 0.0
N449 N 0.66426 0.58299 0.40605 0.0
C450 C 0.65303 0.60111 0.39521 0.0
C451 C 0.65236 0.57574 0.38261 0.0
C452 C 0.66361 0.53243 0.38123 0.0
C453 C 0.6754 0.51485 0.39247 0.0
C454 C 0.67528 0.54149 0.4048 0.0
H455 H 0.64462 0.63461 0.39616 0.0
O456 O 0.59878 0.59183 0.4296 0.0
O457 O 0.63917 0.58973 0.43085 0.0
O458 O 0.62057 0.68209 0.43045 0.0
O459 O 0.65588 0.66957 0.41885 0.0
C460 C 0.6873 0.47197 0.39193 0.0
C461 C 0.69817 0.45586 0.40377 0.0
H462 H 0.71635 0.4358 0.42871 0.0
H463 H 0.71377 0.48755 0.44967 0.0
H464 H 0.6433 0.58963 0.37397 0.0
H465 H 0.66309 0.51298 0.37149 0.0
H466 H 0.68786 0.45074 0.3825 0.0
H467 H 0.70687 0.42245 0.40327 0.0
Mn468 Mn 0.61963 0.62617 0.81286 0.0
Mn469 Mn 0.66703 0.64477 0.83475 0.0
C470 C 0.61566 0.67856 0.8312 0.0
C471 C 0.5982 0.64587 0.79343 0.0
C472 C 0.63344 0.56166 0.8351 0.0
O473 O 0.64875 0.59855 0.80217 0.0
O474 O 0.67922 0.61577 0.81719 0.0
C475 C 0.69416 0.71473 0.82013 0.0
N476 N 0.68275 0.70171 0.83162 0.0
C477 C 0.69247 0.77368 0.84365 0.0
C478 C 0.70445 0.78774 0.83197 0.0
C479 C 0.70525 0.75817 0.82016 0.0
C480 C 0.68191 0.72986 0.84305 0.0
H481 H 0.69475 0.69214 0.81102 0.0
C482 C 0.67143 0.59885 0.80564 0.0
O483 O 0.5953 0.60593 0.79838 0.0
O484 O 0.61461 0.67262 0.79922 0.0
N485 N 0.65798 0.67304 0.85212 0.0
C486 C 0.64412 0.65566 0.86215 0.0
C487 C 0.64059 0.6818 0.87447 0.0
C488 C 0.65151 0.7253 0.87639 0.0
C489 C 0.6659 0.74227 0.86597 0.0
C490 C 0.66888 0.71457 0.85394 0.0
H491 H 0.63564 0.62226 0.86073 0.0
O492 O 0.59633 0.66047 0.82533 0.0
O493 O 0.63685 0.66561 0.82616 0.0
O494 O 0.6193 0.57174 0.82532 0.0
O495 O 0.6518 0.58629 0.83905 0.0
C496 C 0.67683 0.78612 0.8669 0.0
C497 C 0.69009 0.80181 0.85575 0.0
H498 H 0.71289 0.82135 0.83192 0.0
H499 H 0.71436 0.76889 0.81109 0.0
H500 H 0.6294 0.66851 0.88245 0.0
H501 H 0.64853 0.74556 0.88585 0.0
H502 H 0.67475 0.80839 0.87605 0.0
H503 H 0.69805 0.83588 0.85651 0.0
Mn504 Mn 0.39228 0.37992 0.56352 0.0
Mn505 Mn 0.34419 0.39802 0.58498 0.0
C506 C 0.39547 0.43315 0.58172 0.0
C507 C 0.41384 0.3992 0.54407 0.0
C508 C 0.37828 0.31578 0.58582 0.0
O509 O 0.3636 0.35098 0.55273 0.0
O510 O 0.33256 0.36864 0.56734 0.0
C511 C 0.31712 0.46725 0.57007 0.0
N512 N 0.32828 0.45459 0.58166 0.0
C513 C 0.31787 0.52642 0.59356 0.0
C514 C 0.30612 0.54011 0.58177 0.0
C515 C 0.3058 0.51042 0.56997 0.0
C516 C 0.32867 0.48284 0.59308 0.0
H517 H 0.31689 0.44457 0.56098 0.0
C518 C 0.34079 0.35132 0.55593 0.0
O519 O 0.41699 0.35969 0.54924 0.0
O520 O 0.39721 0.42583 0.54969 0.0
N521 N 0.35269 0.42669 0.60238 0.0
C522 C 0.36642 0.40977 0.61253 0.0
C523 C 0.36952 0.43613 0.62484 0.0
C524 C 0.35829 0.47937 0.62664 0.0
C525 C 0.34404 0.49587 0.61611 0.0
C526 C 0.3415 0.46797 0.60409 0.0
H527 H 0.37512 0.37658 0.6112 0.0
O528 O 0.41505 0.41547 0.57601 0.0
O529 O 0.37448 0.41936 0.57658 0.0
O530 O 0.39274 0.32613 0.5762 0.0
O531 O 0.35954 0.33986 0.58948 0.0
C532 C 0.33285 0.53945 0.61692 0.0
C533 C 0.31978 0.55472 0.60565 0.0
H534 H 0.29752 0.57351 0.58162 0.0
H535 H 0.29688 0.52085 0.56082 0.0
H536 H 0.3806 0.42321 0.63291 0.0
H537 H 0.36094 0.4998 0.6361 0.0
H538 H 0.33459 0.56185 0.62606 0.0
H539 H 0.31162 0.5886 0.60631 0.0
Mn540 Mn 0.39584 0.38171 0.19477 0.0
Mn541 Mn 0.34591 0.36291 0.17469 0.0
C542 C 0.39787 0.32925 0.17625 0.0
C543 C 0.41935 0.36314 0.21361 0.0
C544 C 0.37952 0.44534 0.17276 0.0
O545 O 0.36808 0.40982 0.20651 0.0
O546 O 0.33616 0.39306 0.19251 0.0
C547 C 0.32099 0.2944 0.19093 0.0
N548 N 0.33044 0.30668 0.17885 0.0
C549 C 0.31765 0.23528 0.16751 0.0
C550 C 0.30764 0.22197 0.17982 0.0
C551 C 0.30939 0.25161 0.19159 0.0
C552 C 0.32896 0.27836 0.16748 0.0
H553 H 0.32228 0.31711 0.19999 0.0
C554 C 0.34511 0.41 0.20377 0.0
O555 O 0.42159 0.40274 0.20836 0.0
O556 O 0.40265 0.33578 0.20837 0.0
N557 N 0.35207 0.33357 0.15709 0.0
C558 C 0.36389 0.35048 0.14624 0.0
C559 C 0.36408 0.3248 0.13369 0.0
C560 C 0.35197 0.28224 0.1324 0.0
C561 C 0.34004 0.26547 0.14372 0.0
C562 C 0.34018 0.29284 0.15591 0.0
H563 H 0.373 0.38339 0.14713 0.0
O564 O 0.41772 0.34728 0.18154 0.0
O565 O 0.37721 0.34189 0.18206 0.0
O566 O 0.39453 0.43572 0.1822 0.0
O567 O 0.3608 0.42067 0.16944 0.0
C568 C 0.3283 0.22239 0.14343 0.0
C569 C 0.31721 0.20721 0.15533 0.0
H570 H 0.29875 0.18893 0.18038 0.0
H571 H 0.30181 0.24149 0.20114 0.0
H572 H 0.37345 0.33784 0.12501 0.0
H573 H 0.35212 0.26255 0.1227 0.0
H574 H 0.32801 0.20037 0.13415 0.0
H575 H 0.30857 0.17374 0.15504 0.0
H576 H 0.3493 0.30994 0.53045 0.0
H577 H 0.31874 0.27876 0.51408 0.0
H578 H 0.26057 0.31601 0.54245 0.0
H579 H 0.29072 0.34765 0.55879 0.0
H580 H 0.28376 0.20857 0.51746 0.0
H581 H 0.23826 0.37346 0.50746 0.0
H582 H 0.26793 0.37082 0.51563 0.0
H583 H 0.2403 0.3615 0.52513 0.0
C584 C 0.33002 0.31163 0.53321 0.0
C585 C 0.32255 0.33153 0.54595 0.0
C586 C 0.31257 0.29377 0.52384 0.0
C587 C 0.28737 0.29574 0.52698 0.0
C588 C 0.27988 0.31499 0.53971 0.0
H589 H 0.15751 0.20102 0.47988 0.0
H590 H 0.18446 0.23231 0.49825 0.0
C591 C 0.29724 0.33281 0.54908 0.0
C592 C 0.26891 0.27676 0.51705 0.0
H593 H 0.21981 0.30581 0.49764 0.0
C594 C 0.2698 0.22982 0.51311 0.0
C595 C 0.25057 0.30452 0.51149 0.0
C596 C 0.24923 0.35545 0.51503 0.0
C597 C 0.25285 0.20985 0.50375 0.0
C598 C 0.2348 0.23775 0.498 0.0
C599 C 0.23361 0.28452 0.50211 0.0
C600 C 0.21822 0.21953 0.48698 0.0
C601 C 0.25433 0.15898 0.50014 0.0
C602 C 0.22826 0.20297 0.47452 0.0
C603 C 0.21305 0.18529 0.46406 0.0
C604 C 0.18732 0.18393 0.46577 0.0
C605 C 0.17721 0.20141 0.47821 0.0
C606 C 0.19256 0.21927 0.48872 0.0
H607 H 0.26411 0.14069 0.50811 0.0
H608 H 0.2357 0.14382 0.4987 0.0
H609 H 0.26467 0.1531 0.49045 0.0
H610 H 0.24797 0.20374 0.47286 0.0
H611 H 0.22163 0.17243 0.45464 0.0
H612 H 0.91232 0.97834 0.53072 0.0
H613 H 0.94295 0.01286 0.51632 0.0
H614 H 0.98945 0.89421 0.51899 0.0
H615 H 0.95887 0.85944 0.53357 0.0
H616 H 0.01347 0.978 0.5254 0.0
H617 H 0.96266 0.98373 0.47659 0.0
H618 H 0.94614 0.00802 0.49111 0.0
H619 H 0.95321 0.94779 0.48997 0.0
C620 C 0.92885 0.95913 0.52805 0.0
C621 C 0.93313 0.91606 0.53328 0.0
C622 C 0.94632 0.9789 0.51977 0.0
C623 C 0.9684 0.95597 0.51647 0.0
C624 C 0.97248 0.91242 0.52137 0.0
H625 H 0.10157 0.02699 0.47399 0.0
H626 H 0.07047 0.9923 0.48801 0.0
C627 C 0.95494 0.8925 0.52964 0.0
C628 C 0.98785 0.97893 0.50872 0.0
H629 H 0.9997 0.02701 0.47856 0.0
C630 C 0.01054 0.98843 0.51512 0.0
C631 C 0.98391 0.99293 0.49536 0.0
C632 C 0.96025 0.98228 0.48779 0.0
C633 C 0.02925 0.01215 0.50862 0.0
C634 C 0.02534 0.02606 0.49524 0.0
C635 C 1.00264 0.0166 0.48884 0.0
C636 C 0.04486 0.04886 0.48749 0.0
C637 C 0.05285 0.02296 0.51624 0.0
C638 C 0.04081 0.09219 0.48243 0.0
C639 C 0.05861 0.11218 0.47433 0.0
C640 C 0.08069 0.08895 0.47106 0.0
C641 C 0.08486 0.04599 0.47638 0.0
C642 C 0.06711 0.02612 0.48446 0.0
H643 H 0.05027 0.02213 0.52744 0.0
H644 H 0.06691 0.99689 0.5131 0.0
H645 H 0.06004 0.05722 0.51393 0.0
H646 H 0.02372 0.11025 0.48459 0.0
H647 H 0.05476 0.14514 0.47031 0.0
H648 H 0.29144 0.91252 0.69888 0.0
H649 H 0.26122 0.94388 0.71519 0.0
H650 H 0.31912 0.9794 0.74388 0.0
H651 H 0.34975 0.94754 0.72763 0.0
H652 H 0.27888 0.93371 0.75513 0.0
H653 H 0.24734 0.07918 0.72575 0.0
H654 H 0.24642 0.02434 0.71646 0.0
H655 H 0.27553 0.04846 0.72183 0.0
C656 C 0.29792 0.92722 0.70861 0.0
C657 C 0.32317 0.92764 0.71188 0.0
C658 C 0.28053 0.94539 0.7179 0.0
C659 C 0.28793 0.96466 0.73065 0.0
C660 C 0.31304 0.96496 0.73404 0.0
H661 H 0.21805 0.08892 0.80201 0.0
H662 H 0.24564 0.05571 0.78465 0.0
C663 C 0.33053 0.94677 0.72473 0.0
C664 C 0.26934 0.98302 0.7406 0.0
H665 H 0.22436 0.06409 0.74552 0.0
C666 C 0.26702 0.96231 0.75305 0.0
C667 C 0.25372 0.02007 0.73781 0.0
C668 C 0.25594 0.04464 0.72479 0.0
C669 C 0.24942 0.97751 0.76277 0.0
C670 C 0.23402 0.01491 0.76005 0.0
C671 C 0.23611 0.03528 0.74753 0.0
C672 C 0.21676 0.03516 0.77044 0.0
C673 C 0.24732 0.95312 0.77582 0.0
C674 C 0.19127 0.03578 0.76807 0.0
C675 C 0.17521 0.05502 0.77803 0.0
C676 C 0.18446 0.0743 0.79048 0.0
C677 C 0.2101 0.07414 0.79263 0.0
C678 C 0.22601 0.05492 0.78273 0.0
H679 H 0.25522 0.91802 0.77472 0.0
H680 H 0.25763 0.97272 0.784 0.0
H681 H 0.22782 0.95064 0.77909 0.0
H682 H 0.1838 0.021 0.75858 0.0
H683 H 0.15563 0.05472 0.77599 0.0
H684 H 0.05157 0.10477 0.78355 0.0
H685 H 0.02097 0.13776 0.76862 0.0
H686 H 0.06645 0.25781 0.76577 0.0
H687 H 0.09711 0.22505 0.78047 0.0
H688 H 0.99581 0.22026 0.77423 0.0
H689 H 0.04846 0.2262 0.72603 0.0
H690 H 0.0579 0.1916 0.73972 0.0
H691 H 0.06424 0.25215 0.74058 0.0
C692 C 0.05525 0.13779 0.77952 0.0
C693 C 0.07681 0.1622 0.78317 0.0
C694 C 0.03771 0.15668 0.77105 0.0
C695 C 0.04153 0.20006 0.76596 0.0
C696 C 0.0633 0.22394 0.76934 0.0
H697 H 0.95645 0.38844 0.71943 0.0
H698 H 0.98695 0.35253 0.73375 0.0
C699 C 0.08079 0.20518 0.77781 0.0
C700 C 0.02213 0.22184 0.75789 0.0
H701 H 0.01123 0.26921 0.72753 0.0
C702 C 0.99909 0.23061 0.76397 0.0
C703 C 0.02651 0.23566 0.74455 0.0
C704 C 0.05054 0.22558 0.73727 0.0
C705 C 0.98049 0.25367 0.75719 0.0
C706 C 0.98491 0.26768 0.74388 0.0
C707 C 0.00792 0.25872 0.73777 0.0
C708 C 0.96574 0.29068 0.73595 0.0
C709 C 0.95649 0.26383 0.76448 0.0
C710 C 0.94366 0.26796 0.73248 0.0
C711 C 0.92621 0.28841 0.72435 0.0
C712 C 0.93054 0.33194 0.71943 0.0
C713 C 0.95249 0.35501 0.72311 0.0
C714 C 0.96998 0.33446 0.73124 0.0
H715 H 0.95842 0.2623 0.7757 0.0
H716 H 0.94943 0.29824 0.76224 0.0
H717 H 0.9426 0.2379 0.76095 0.0
H718 H 0.94018 0.23382 0.73577 0.0
H719 H 0.90958 0.26953 0.72164 0.0
H720 H 0.85337 0.80662 0.52696 0.0
H721 H 0.82409 0.77538 0.50975 0.0
H722 H 0.76373 0.81152 0.53677 0.0
H723 H 0.79239 0.843 0.55382 0.0
H724 H 0.78858 0.70464 0.51232 0.0
H725 H 0.7439 0.86915 0.50144 0.0
H726 H 0.77307 0.86656 0.51015 0.0
H727 H 0.74481 0.8584 0.51922 0.0
C728 C 0.83386 0.80807 0.52921 0.0
C729 C 0.82534 0.82756 0.54178 0.0
C730 C 0.81717 0.7902 0.51937 0.0
C731 C 0.79172 0.7919 0.52191 0.0
C732 C 0.78323 0.81078 0.53447 0.0
H733 H 0.6591 0.69884 0.47823 0.0
H734 H 0.68844 0.73045 0.49535 0.0
C735 C 0.79978 0.82853 0.54426 0.0
C736 C 0.77385 0.77283 0.51166 0.0
H737 H 0.72395 0.80098 0.49274 0.0
C738 C 0.77457 0.72572 0.50795 0.0
C739 C 0.75544 0.80038 0.50608 0.0
C740 C 0.75432 0.85151 0.50931 0.0
C741 C 0.75709 0.70523 0.49898 0.0
C742 C 0.73868 0.73278 0.49341 0.0
C743 C 0.73797 0.7799 0.49711 0.0
C744 C 0.72077 0.71368 0.48318 0.0
C745 C 0.7582 0.6541 0.49577 0.0
C746 C 0.72921 0.69457 0.47063 0.0
C747 C 0.71263 0.67659 0.4609 0.0
C748 C 0.68708 0.67756 0.46341 0.0
C749 C 0.6786 0.69738 0.47596 0.0
C750 C 0.69533 0.71545 0.48574 0.0
H751 H 0.76861 0.63647 0.50365 0.0
H752 H 0.73945 0.63906 0.49494 0.0
H753 H 0.76771 0.64716 0.48587 0.0
H754 H 0.7487 0.69378 0.46832 0.0
H755 H 0.71998 0.66192 0.45136 0.0
H756 H 0.725 0.09346 0.3011 0.0
H757 H 0.75179 0.06063 0.28334 0.0
H758 H 0.68861 0.02054 0.2589 0.0
H759 H 0.66122 0.05408 0.27675 0.0
H760 H 0.75349 0.96984 0.27321 0.0
H761 H 0.73259 0.0878 0.2324 0.0
H762 H 0.72412 0.10064 0.24998 0.0
H763 H 0.70649 0.06004 0.23957 0.0
C764 C 0.71659 0.07781 0.29197 0.0
C765 C 0.69081 0.07635 0.29041 0.0
C766 C 0.73205 0.05903 0.2818 0.0
C767 C 0.72225 0.03841 0.26977 0.0
C768 C 0.69657 0.03694 0.26805 0.0
H769 H 0.79375 0.90534 0.19932 0.0
H770 H 0.7648 0.93724 0.2162 0.0
C771 C 0.68094 0.05594 0.27827 0.0
C772 C 0.73926 0.0176 0.25933 0.0
H773 H 0.76029 0.02722 0.22689 0.0
C774 C 0.75497 0.98232 0.26307 0.0
C775 C 0.74117 0.03406 0.24614 0.0
C776 C 0.72537 0.07296 0.24175 0.0
C777 C 0.77248 0.96287 0.25394 0.0
C778 C 0.77461 0.97969 0.24081 0.0
C779 C 0.75871 0.0146 0.23701 0.0
C780 C 0.7927 0.96055 0.23068 0.0
C781 C 0.78826 0.92396 0.25836 0.0
C782 C 0.81814 0.96336 0.23317 0.0
C783 C 0.83496 0.94498 0.22349 0.0
C784 C 0.82657 0.9237 0.21112 0.0
C785 C 0.80102 0.92142 0.2087 0.0
C786 C 0.78433 0.93971 0.21834 0.0
H787 H 0.78038 0.90792 0.26736 0.0
H788 H 0.79045 0.89711 0.24996 0.0
H789 H 0.8068 0.93733 0.26119 0.0
H790 H 0.825 0.98004 0.24256 0.0
H791 H 0.85445 0.94755 0.22569 0.0
H792 H 0.914 0.77644 0.22332 0.0
H793 H 0.94443 0.74318 0.23808 0.0
H794 H 0.99104 0.86148 0.23469 0.0
H795 H 0.96045 0.89538 0.21997 0.0
H796 H 0.99224 0.72058 0.2305 0.0
H797 H 0.99164 0.84421 0.27569 0.0
H798 H 0.96742 0.84212 0.2631 0.0
H799 H 0.99614 0.86979 0.25971 0.0
C800 C 0.93052 0.79585 0.22589 0.0
C801 C 0.93478 0.83865 0.22047 0.0
C802 C 0.94794 0.77666 0.23431 0.0
C803 C 0.96997 0.79986 0.23756 0.0
C804 C 0.974 0.84325 0.2325 0.0
H805 H 0.10128 0.73098 0.28199 0.0
H806 H 0.07074 0.76503 0.26746 0.0
C807 C 0.95651 0.86258 0.22408 0.0
C808 C 0.98924 0.77717 0.2455 0.0
H809 H 0.02301 0.7877 0.27483 0.0
C810 C 0.99891 0.73514 0.24022 0.0
C811 C 0.99797 0.79626 0.25816 0.0
C812 C 0.98764 0.84037 0.26459 0.0
C813 C 0.0173 0.71204 0.24715 0.0
C814 C 0.026 0.73108 0.25983 0.0
C815 C 0.01635 0.77314 0.2651 0.0
C816 C 0.04521 0.70825 0.26778 0.0
C817 C 0.02766 0.66801 0.24069 0.0
C818 C 0.0412 0.66462 0.27267 0.0
C819 C 0.05876 0.64483 0.28095 0.0
C820 C 0.08055 0.66854 0.28458 0.0
C821 C 0.08473 0.71171 0.27939 0.0
C822 C 0.06724 0.73136 0.27111 0.0
H823 H 0.02382 0.66443 0.22957 0.0
H824 H 0.04786 0.66612 0.24227 0.0
H825 H 0.01903 0.63851 0.24547 0.0
H826 H 0.02416 0.64646 0.27044 0.0
H827 H 0.05488 0.61175 0.28489 0.0
H828 H 0.29199 0.84479 0.05831 0.0
H829 H 0.26252 0.81092 0.04198 0.0
H830 H 0.32116 0.78117 0.01324 0.0
H831 H 0.35109 0.81454 0.02964 0.0
H832 H 0.25137 0.83628 0.01609 0.0
H833 H 0.28621 0.65753 0.01468 0.0
H834 H 0.2953 0.70054 0.02768 0.0
H835 H 0.30918 0.6993 0.01105 0.0
C836 C 0.29879 0.83089 0.04855 0.0
C837 C 0.32406 0.83222 0.04536 0.0
C838 C 0.28182 0.81159 0.03922 0.0
C839 C 0.28965 0.79296 0.02648 0.0
C840 C 0.31478 0.79454 0.02314 0.0
H841 H 0.22344 0.67394 0.95406 0.0
H842 H 0.24934 0.70657 0.97225 0.0
C843 C 0.33185 0.81385 0.0325 0.0
C844 C 0.27135 0.77277 0.01664 0.0
H845 H 0.25604 0.6741 0.99818 0.0
C846 C 0.25226 0.80073 0.01224 0.0
C847 C 0.27244 0.72631 0.01173 0.0
C848 C 0.29173 0.69398 0.01661 0.0
C849 C 0.23475 0.78389 1.00267 0.0
C850 C 0.23618 0.73769 0.99755 0.0
C851 C 0.25498 0.70952 1.00215 0.0
C852 C 0.2196 0.7187 0.98662 0.0
C853 C 0.2154 0.81602 0.99777 0.0
C854 C 0.1941 0.71456 0.98865 0.0
C855 C 0.17897 0.69579 0.97816 0.0
C856 C 0.18917 0.68075 0.9655 0.0
C857 C 0.21476 0.6851 0.96361 0.0
C858 C 0.22973 0.70373 0.97403 0.0
H859 H 0.21965 0.85246 1.00076 0.0
H860 H 0.21358 0.81211 0.9865 0.0
H861 H 0.19736 0.80752 1.00228 0.0
H862 H 0.18596 0.72532 0.99838 0.0
H863 H 0.1594 0.69277 0.98 0.0
H864 H 0.10204 0.51862 0.97134 0.0
H865 H 0.0706 0.48538 0.98557 0.0
H866 H 0.02732 0.60866 0.98421 0.0
H867 H 0.05858 0.64204 0.96979 0.0
H868 H 0.05099 0.51487 0.01084 0.0
H869 H 0.97901 0.50824 0.97067 0.0
H870 H 0.01104 0.51854 0.96703 0.0
H871 H 0.99213 0.56404 0.9744 0.0
C872 C 0.08592 0.53886 0.97413 0.0
C873 C 0.08275 0.58291 0.96935 0.0
C874 C 0.06794 0.51974 0.98226 0.0
C875 C 0.04638 0.54414 0.98573 0.0
C876 C 0.04356 0.5888 0.9814 0.0
H877 H 0.91582 0.48241 0.03218 0.0
H878 H 0.94711 0.51642 0.01801 0.0
C879 C 0.06154 0.60798 0.97326 0.0
C880 C 0.02684 0.52253 0.99378 0.0
H881 H 0.96678 0.48755 0.9926 0.0
C882 C 0.0326 0.50877 0.00684 0.0
C883 C 1.00285 0.51451 0.98854 0.0
C884 C 0.99586 0.52669 0.97435 0.0
C885 C 0.01493 0.48794 0.0149 0.0
C886 C 0.99095 0.47986 0.00965 0.0
C887 C 0.98517 0.49369 0.9966 0.0
C888 C 0.97149 0.45786 0.01766 0.0
C889 C 0.02192 0.47573 0.02909 0.0
C890 C 0.97445 0.41307 0.02186 0.0
C891 C 0.95656 0.39345 0.02996 0.0
C892 C 0.9353 0.4182 0.03395 0.0
C893 C 0.93199 0.46241 0.02931 0.0
C894 C 0.94987 0.48196 0.02122 0.0
H895 H 0.03872 0.49429 0.03279 0.0
H896 H 1.00671 0.48372 0.0364 0.0
H897 H 0.02572 0.4384 0.02902 0.0
H898 H 0.99074 0.39344 0.01898 0.0
H899 H 0.95963 0.35929 0.03332 0.0
H900 H 0.3548 0.45024 0.22932 0.0
H901 H 0.32492 0.48193 0.24605 0.0
H902 H 0.26565 0.44612 0.21826 0.0
H903 H 0.29509 0.41501 0.2015 0.0
H904 H 0.26196 0.53493 0.23013 0.0
H905 H 0.2779 0.40792 0.26903 0.0
H906 H 0.30507 0.43697 0.26369 0.0
H907 H 0.28873 0.39931 0.2517 0.0
C908 C 0.33542 0.44908 0.22677 0.0
C909 C 0.32744 0.42991 0.21404 0.0
C910 C 0.31835 0.46699 0.23637 0.0
C911 C 0.29304 0.46581 0.23345 0.0
C912 C 0.28508 0.44725 0.22073 0.0
H913 H 0.15976 0.55837 0.27747 0.0
H914 H 0.18837 0.52547 0.26019 0.0
C915 C 0.30203 0.42941 0.21116 0.0
C916 C 0.27469 0.48429 0.24352 0.0
H917 H 0.25146 0.47014 0.27527 0.0
C918 C 0.25958 0.52071 0.23999 0.0
C919 C 0.27155 0.46544 0.25632 0.0
C920 C 0.28649 0.42498 0.26041 0.0
C921 C 0.24179 0.53955 0.24907 0.0
C922 C 0.23878 0.5209 0.26191 0.0
C923 C 0.25378 0.48427 0.26539 0.0
C924 C 0.2211 0.5404 0.27221 0.0
C925 C 0.22685 0.58003 0.24499 0.0
C926 C 0.22996 0.55879 0.28475 0.0
C927 C 0.21377 0.57723 0.29462 0.0
C928 C 0.1882 0.57761 0.29222 0.0
C929 C 0.17929 0.55881 0.27965 0.0
C930 C 0.19563 0.54024 0.26974 0.0
H931 H 0.23509 0.59646 0.23616 0.0
H932 H 0.20806 0.56829 0.24208 0.0
H933 H 0.22518 0.60618 0.25363 0.0
H934 H 0.24953 0.5592 0.28688 0.0
H935 H 0.22143 0.59139 0.30414 0.0
H936 H 0.6658 0.18947 0.97585 0.0
H937 H 0.69754 0.22041 0.99154 0.0
H938 H 0.75331 0.18804 0.96128 0.0
H939 H 0.72195 0.15747 0.94551 0.0
H940 H 0.73919 0.17254 1.00114 0.0
H941 H 0.76702 0.32357 0.97291 0.0
H942 H 0.73853 0.29312 0.96954 0.0
H943 H 0.76708 0.26957 0.96312 0.0
C944 C 0.68478 0.18921 0.97248 0.0
C945 C 0.69122 0.17109 0.95937 0.0
C946 C 0.70289 0.20685 0.98147 0.0
C947 C 0.72772 0.20708 0.9775 0.0
C948 C 0.73422 0.18902 0.96446 0.0
H949 H 0.85902 0.30419 0.02353 0.0
H950 H 0.83249 0.26889 0.00551 0.0
C951 C 0.71619 0.1713 0.95548 0.0
C952 C 0.74693 0.22465 0.98716 0.0
H953 H 0.79037 0.30853 0.99245 0.0
C954 C 0.75039 0.20224 0.99924 0.0
C955 C 0.76173 0.26306 0.98456 0.0
C956 C 0.75837 0.28906 0.97189 0.0
C957 C 0.7681 0.21748 0.00886 0.0
C958 C 0.78242 0.25665 0.00646 0.0
C959 C 0.77943 0.2784 0.99422 0.0
C960 C 0.79881 0.27794 0.01711 0.0
C961 C 0.77129 0.19155 0.02157 0.0
C962 C 0.78857 0.2954 0.02941 0.0
C963 C 0.80349 0.31543 0.03963 0.0
C964 C 0.82914 0.31879 0.0378 0.0
C965 C 0.8394 0.30195 0.02532 0.0
C966 C 0.82429 0.28183 0.01502 0.0
H967 H 0.76462 0.15564 0.02004 0.0
H968 H 0.79088 0.19105 0.02476 0.0
H969 H 0.76042 0.20867 0.02997 0.0
H970 H 0.76889 0.29368 0.03111 0.0
H971 H 0.79475 0.32832 0.049 0.0
H972 H 0.66455 0.56622 0.77905 0.0
H973 H 0.69588 0.53617 0.76296 0.0
H974 H 0.75175 0.55818 0.79378 0.0
H975 H 0.72078 0.58794 0.80994 0.0
H976 H 0.73938 0.58382 0.75462 0.0
H977 H 0.76189 0.42312 0.77956 0.0
H978 H 0.73396 0.45504 0.7832 0.0
H979 H 0.76268 0.47491 0.79041 0.0
C980 C 0.68346 0.56439 0.78246 0.0
C981 C 0.69005 0.57941 0.79584 0.0
C982 C 0.70134 0.54728 0.77323 0.0
C983 C 0.72606 0.54446 0.77725 0.0
C984 C 0.73271 0.55934 0.79055 0.0
H985 H 0.85546 0.44248 0.73055 0.0
H986 H 0.82955 0.47769 0.74885 0.0
C987 C 0.71493 0.57658 0.79976 0.0
C988 C 0.74504 0.52739 0.76737 0.0
H989 H 0.786 0.44033 0.76051 0.0
C990 C 0.74959 0.55248 0.75591 0.0
C991 C 0.75855 0.48683 0.76919 0.0
C992 C 0.75399 0.4581 0.78119 0.0
C993 C 0.76715 0.53784 0.74612 0.0
C994 C 0.78015 0.49655 0.74771 0.0
C995 C 0.77607 0.47206 0.75935 0.0
C996 C 0.79624 0.47616 0.73678 0.0
C997 C 0.77162 0.5667 0.73414 0.0
C998 C 0.786 0.46313 0.72406 0.0
C999 C 0.80059 0.44314 0.71368 0.0
C1000 C 0.82586 0.43537 0.71575 0.0
C1001 C 0.83613 0.44818 0.72857 0.0
C1002 C 0.82137 0.46821 0.73903 0.0
H1003 H 0.76617 0.60299 0.73648 0.0
H1004 H 0.79127 0.56572 0.73104 0.0
H1005 H 0.7604 0.55312 0.72536 0.0
H1006 H 0.76656 0.46803 0.7222 0.0
H1007 H 0.79187 0.43363 0.70401 0.0
H1008 H 0.60242 0.02721 0.97601 0.0
H1009 H 0.57118 0.99351 0.99022 0.0
H1010 H 0.52631 0.11443 0.98784 0.0
H1011 H 0.55744 0.14831 0.97342 0.0
H1012 H 0.54888 0.02143 0.01501 0.0
H1013 H 0.48113 0.01074 0.97262 0.0
H1014 H 0.51328 0.02301 0.97 0.0
H1015 H 0.49301 0.06723 0.97684 0.0
C1016 C 0.58608 0.04702 0.97867 0.0
C1017 C 0.58233 0.09034 0.97348 0.0
C1018 C 0.56821 0.02762 0.98678 0.0
C1019 C 0.54617 0.05097 0.98983 0.0
C1020 C 0.54296 0.09537 0.98535 0.0
H1021 H 0.41331 0.98196 0.03248 0.0
H1022 H 0.44501 0.01597 0.01866 0.0
C1023 C 0.56089 0.1149 0.97723 0.0
C1024 C 0.52629 0.02792 0.99725 0.0
H1025 H 0.46734 0.98785 0.994 0.0
C1026 C 0.53106 0.014 0.01042 0.0
C1027 C 0.5031 0.01797 0.9912 0.0
C1028 C 0.49729 0.03009 0.97684 0.0
C1029 C 0.51311 0.99129 0.01781 0.0
C1030 C 0.48991 0.98141 0.01176 0.0
C1031 C 0.48515 0.99528 0.99859 0.0
C1032 C 0.46998 0.95848 0.01917 0.0
C1033 C 0.51892 0.9791 0.03216 0.0
C1034 C 0.47305 0.91402 0.02364 0.0
C1035 C 0.45486 0.89431 0.03155 0.0
C1036 C 0.43326 0.91873 0.03508 0.0
C1037 C 0.42974 0.96224 0.02999 0.0
C1038 C 0.44788 0.98182 0.02209 0.0
H1039 H 0.53511 0.99838 0.03639 0.0
H1040 H 0.50294 0.9862 0.03901 0.0
H1041 H 0.52316 0.94195 0.03215 0.0
H1042 H 0.48974 0.89496 0.02125 0.0
H1043 H 0.45812 0.86075 0.0353 0.0
H1044 H 0.41719 0.28347 0.22659 0.0
H1045 H 0.44855 0.25138 0.24102 0.0
H1046 H 0.49282 0.3729 0.23799 0.0
H1047 H 0.4613 0.40561 0.22359 0.0
H1048 H 0.49682 0.23296 0.23271 0.0
H1049 H 0.49484 0.35226 0.27893 0.0
H1050 H 0.47019 0.34923 0.26659 0.0
H1051 H 0.49812 0.37927 0.26308 0.0
C1052 C 0.43337 0.30384 0.22919 0.0
C1053 C 0.43673 0.34717 0.22394 0.0
C1054 C 0.45133 0.28532 0.23741 0.0
C1055 C 0.47299 0.30975 0.24064 0.0
C1056 C 0.47608 0.3537 0.23581 0.0
H1057 H 0.60527 0.23975 0.2849 0.0
H1058 H 0.57475 0.27609 0.2708 0.0
C1059 C 0.45806 0.37235 0.22756 0.0
C1060 C 0.49292 0.28767 0.24826 0.0
H1061 H 0.52667 0.29683 0.27761 0.0
C1062 C 0.50331 0.24686 0.24255 0.0
C1063 C 0.50147 0.30597 0.26105 0.0
C1064 C 0.49049 0.34888 0.26787 0.0
C1065 C 0.52211 0.22402 0.24922 0.0
C1066 C 0.53048 0.24199 0.26209 0.0
C1067 C 0.52025 0.28305 0.26775 0.0
C1068 C 0.54961 0.21853 0.26995 0.0
C1069 C 0.53316 0.18132 0.2423 0.0
C1070 C 0.54574 0.17389 0.2741 0.0
C1071 C 0.56325 0.15286 0.28211 0.0
C1072 C 0.58488 0.17625 0.28622 0.0
C1073 C 0.58886 0.22068 0.28187 0.0
C1074 C 0.57138 0.24161 0.27385 0.0
H1075 H 0.52984 0.17953 0.23112 0.0
H1076 H 0.5533 0.17975 0.24412 0.0
H1077 H 0.52455 0.1507 0.24647 0.0
H1078 H 0.52888 0.15571 0.27145 0.0
H1079 H 0.55951 0.11881 0.28538 0.0
H1080 H 0.45808 0.89812 0.72309 0.0
H1081 H 0.48954 0.86154 0.73668 0.0
H1082 H 0.44192 0.74489 0.74046 0.0
H1083 H 0.4106 0.78081 0.72685 0.0
H1084 H 0.48909 0.82621 0.76315 0.0
H1085 H 0.50431 0.68865 0.72252 0.0
H1086 H 0.4876 0.74052 0.71959 0.0
H1087 H 0.47291 0.69491 0.72802 0.0
C1088 C 0.45414 0.86507 0.72703 0.0
C1089 C 0.43192 0.84223 0.72379 0.0
C1090 C 0.47218 0.84411 0.73473 0.0
C1091 C 0.4683 0.79998 0.73928 0.0
C1092 C 0.44554 0.77844 0.73677 0.0
H1093 H 0.55517 0.60751 0.78349 0.0
H1094 H 0.52401 0.64448 0.7698 0.0
C1095 C 0.42757 0.79925 0.72908 0.0
C1096 C 0.48823 0.77576 0.74628 0.0
H1097 H 0.52463 0.68016 0.74357 0.0
C1098 C 0.49696 0.79442 0.75885 0.0
C1099 C 0.49845 0.7342 0.74064 0.0
C1100 C 0.49054 0.7135 0.72689 0.0
C1101 C 0.51529 0.77217 0.76608 0.0
C1102 C 0.5255 0.73059 0.76045 0.0
C1103 C 0.51678 0.71196 0.74787 0.0
C1104 C 0.54531 0.70616 0.76749 0.0
C1105 C 0.52314 0.79284 0.77984 0.0
C1106 C 0.56802 0.72764 0.77019 0.0
C1107 C 0.58581 0.70662 0.77796 0.0
C1108 C 0.58134 0.66347 0.7831 0.0
C1109 C 0.5592 0.64068 0.77966 0.0
C1110 C 0.54133 0.66187 0.77189 0.0
H1111 H 0.50933 0.81762 0.78421 0.0
H1112 H 0.52609 0.7658 0.78714 0.0
H1113 H 0.54075 0.81152 0.77874 0.0
H1114 H 0.57174 0.76129 0.7666 0.0
H1115 H 0.60274 0.72501 0.78034 0.0
H1116 H 0.45686 0.3609 0.53411 0.0
H1117 H 0.48747 0.39706 0.51983 0.0
H1118 H 0.43922 0.51278 0.51622 0.0
H1119 H 0.40877 0.47732 0.53054 0.0
H1120 H 0.48579 0.43016 0.4933 0.0
H1121 H 0.50201 0.57141 0.53266 0.0
H1122 H 0.48554 0.51979 0.53621 0.0
H1123 H 0.47043 0.56443 0.52758 0.0
C1124 C 0.45261 0.39368 0.53008 0.0
C1125 C 0.43047 0.41641 0.53356 0.0
C1126 C 0.47016 0.41439 0.52198 0.0
C1127 C 0.46587 0.45815 0.51726 0.0
C1128 C 0.44318 0.47955 0.52004 0.0
H1129 H 0.552 0.6468 0.47073 0.0
H1130 H 0.52051 0.61097 0.48454 0.0
C1131 C 0.4257 0.45901 0.52814 0.0
C1132 C 0.48533 0.48209 0.50978 0.0
H1133 H 0.52153 0.57813 0.51129 0.0
C1134 C 0.49368 0.4624 0.49725 0.0
C1135 C 0.49559 0.52424 0.51495 0.0
C1136 C 0.48813 0.5461 0.52865 0.0
C1137 C 0.5117 0.48408 0.48964 0.0
C1138 C 0.52198 0.52618 0.49482 0.0
C1139 C 0.51359 0.54594 0.50733 0.0
C1140 C 0.54175 0.54971 0.48746 0.0
C1141 C 0.51926 0.46214 0.47598 0.0
C1142 C 0.56447 0.52803 0.48502 0.0
C1143 C 0.58244 0.54839 0.4772 0.0
C1144 C 0.57814 0.59107 0.47173 0.0
C1145 C 0.55588 0.61395 0.47481 0.0
C1146 C 0.53784 0.59344 0.48264 0.0
H1147 H 0.50536 0.43695 0.47192 0.0
H1148 H 0.52201 0.48843 0.46842 0.0
H1149 H 0.5369 0.44367 0.47711 0.0
H1150 H 0.56811 0.49481 0.48892 0.0
H1151 H 0.59944 0.52994 0.47511 0.0
H1152 H 0.09633 0.68566 0.35563 0.0
H1153 H 0.09453 0.75108 0.37263 0.0
H1154 H 0.14374 0.82709 0.34794 0.0
H1155 H 0.1452 0.76223 0.33091 0.0
H1156 H 0.15582 0.81729 0.37788 0.0
H1157 H 0.0622 0.88351 0.36743 0.0
H1158 H 0.06639 0.82273 0.36882 0.0
H1159 H 0.07949 0.85 0.35466 0.0
C1160 C 0.10675 0.71642 0.35392 0.0
C1161 C 0.12164 0.71868 0.34231 0.0
C1162 C 0.10559 0.75365 0.36354 0.0
C1163 C 0.11895 0.79372 0.36146 0.0
C1164 C 0.13333 0.79633 0.34969 0.0
H1165 H 0.11065 0.06727 0.39847 0.0
H1166 H 0.10976 0.99654 0.38372 0.0
C1167 C 0.13441 0.75924 0.34008 0.0
C1168 C 0.11903 0.83242 0.37181 0.0
H1169 H 0.08551 0.92401 0.38435 0.0
C1170 C 0.14056 0.84076 0.37931 0.0
C1171 C 0.09886 0.86243 0.37369 0.0
C1172 C 0.07536 0.85464 0.36573 0.0
C1173 C 0.14302 0.87936 0.38834 0.0
C1174 C 0.12301 0.91037 0.39013 0.0
C1175 C 0.10102 0.9009 0.3829 0.0
C1176 C 0.12465 0.95353 0.39898 0.0
C1177 C 0.16745 0.88651 0.39539 0.0
C1178 C 0.13345 0.95339 0.41243 0.0
C1179 C 0.13546 0.99429 0.42047 0.0
C1180 C 0.12743 0.03563 0.41547 0.0
C1181 C 0.11755 0.03578 0.40233 0.0
C1182 C 0.11676 0.99528 0.39401 0.0
H1183 H 0.18281 0.87195 0.38905 0.0
H1184 H 0.17118 0.92316 0.39777 0.0
H1185 H 0.16727 0.86869 0.40505 0.0
H1186 H 0.13863 0.92165 0.41679 0.0
H1187 H 0.14231 0.99335 0.4308 0.0
H1188 H 0.0972 0.24623 0.42099 0.0
H1189 H 0.08813 0.30669 0.40539 0.0
H1190 H 0.16152 0.29432 0.38893 0.0
H1191 H 0.17075 0.23445 0.40425 0.0
H1192 H 0.11252 0.39181 0.40226 0.0
H1193 H 0.11753 0.27994 0.35485 0.0
H1194 H 0.11405 0.25752 0.37149 0.0
H1195 H 0.14393 0.27401 0.36557 0.0
C1196 C 0.11145 0.25658 0.4141 0.0
C1197 C 0.13467 0.23513 0.41386 0.0
C1198 C 0.10619 0.29097 0.40516 0.0
C1199 C 0.12396 0.30411 0.39577 0.0
C1200 C 0.14731 0.28383 0.39583 0.0
H1201 H 0.16491 0.53435 0.35572 0.0
H1202 H 0.15596 0.47181 0.3701 0.0
C1203 C 0.1526 0.24975 0.40471 0.0
C1204 C 0.1188 0.33999 0.38611 0.0
H1205 H 0.12327 0.36105 0.35237 0.0
C1206 C 0.11433 0.38496 0.39133 0.0
C1207 C 0.12076 0.33093 0.37183 0.0
C1208 C 0.12408 0.28287 0.36558 0.0
C1209 C 0.11365 0.42159 0.38272 0.0
C1210 C 0.11777 0.41298 0.36857 0.0
C1211 C 0.12036 0.36763 0.36323 0.0
C1212 C 0.12255 0.45083 0.35954 0.0
C1213 C 0.10943 0.4695 0.38887 0.0
C1214 C 0.10706 0.459 0.34851 0.0
C1215 C 0.11213 0.49514 0.34013 0.0
C1216 C 0.13296 0.52319 0.34258 0.0
C1217 C 0.14865 0.51381 0.35347 0.0
C1218 C 0.14349 0.47815 0.36182 0.0
H1219 H 0.09951 0.46909 0.39875 0.0
H1220 H 0.12747 0.4865 0.39079 0.0
H1221 H 0.09874 0.49028 0.38185 0.0
H1222 H 0.09094 0.43785 0.3465 0.0
H1223 H 0.09967 0.50128 0.33184 0.0
H1224 H 0.0987 0.18746 0.85581 0.0
H1225 H 0.09942 0.25687 0.87122 0.0
H1226 H 0.13829 0.32879 0.84063 0.0
H1227 H 0.13895 0.25873 0.82574 0.0
H1228 H 0.15887 0.34673 0.86289 0.0
H1229 H 0.05955 0.37002 0.87269 0.0
H1230 H 0.06976 0.31509 0.87759 0.0
H1231 H 0.07113 0.32849 0.85995 0.0
C1232 C 0.10742 0.21825 0.8525 0.0
C1233 C 0.11931 0.21787 0.83984 0.0
C1234 C 0.10751 0.25804 0.86118 0.0
C1235 C 0.11847 0.29853 0.85702 0.0
C1236 C 0.1297 0.29814 0.84412 0.0
H1237 H 0.10537 0.56867 0.89895 0.0
H1238 H 0.10323 0.50193 0.88257 0.0
C1239 C 0.13019 0.25814 0.83564 0.0
C1240 C 0.11999 0.34043 0.86635 0.0
H1241 H 0.08678 0.41486 0.88731 0.0
C1242 C 0.14312 0.36103 0.86834 0.0
C1243 C 0.09925 0.36067 0.87306 0.0
C1244 C 0.0735 0.3427 0.8706 0.0
C1245 C 0.14636 0.40011 0.87707 0.0
C1246 C 0.12591 0.41942 0.88418 0.0
C1247 C 0.10255 0.39966 0.882 0.0
C1248 C 0.12836 0.4606 0.8937 0.0
C1249 C 0.17154 0.42128 0.87822 0.0
C1250 C 0.14334 0.45965 0.90533 0.0
C1251 C 0.14475 0.49786 0.91458 0.0
C1252 C 0.13129 0.53765 0.91233 0.0
C1253 C 0.11632 0.53863 0.90072 0.0
C1254 C 0.11498 0.50051 0.89143 0.0
H1255 H 0.18408 0.4081 0.86995 0.0
H1256 H 0.17001 0.45891 0.87779 0.0
H1257 H 0.17987 0.41344 0.88811 0.0
H1258 H 0.15334 0.42887 0.90749 0.0
H1259 H 0.15559 0.49567 0.92377 0.0
H1260 H 0.17547 0.74505 0.90809 0.0
H1261 H 0.16647 0.80489 0.89266 0.0
H1262 H 0.08913 0.79473 0.90186 0.0
H1263 H 0.09803 0.73472 0.9176 0.0
H1264 H 0.13672 0.79272 0.86957 0.0
H1265 H 0.10193 0.93402 0.90506 0.0
H1266 H 0.11906 0.88614 0.91098 0.0
H1267 H 0.0875 0.87883 0.90594 0.0
C1268 C 0.15653 0.75583 0.90702 0.0
C1269 C 0.13746 0.73493 0.91409 0.0
C1270 C 0.15143 0.79005 0.89815 0.0
C1271 C 0.12716 0.80433 0.8961 0.0
C1272 C 0.10805 0.78466 0.90342 0.0
H1273 H 0.09134 0.01596 0.83813 0.0
H1274 H 0.08497 0.95115 0.85263 0.0
C1275 C 0.11317 0.75036 0.91241 0.0
C1276 C 0.12225 0.83806 0.88573 0.0
H1277 H 0.10543 0.94925 0.8819 0.0
C1278 C 0.12955 0.82674 0.87223 0.0
C1279 C 0.11271 0.8823 0.8892 0.0
C1280 C 0.10495 0.89644 0.90358 0.0
C1281 C 0.12866 0.85909 0.86227 0.0
C1282 C 0.12037 0.90396 0.8659 0.0
C1283 C 0.11173 0.91468 0.87918 0.0
C1284 C 0.1237 0.94149 0.8566 0.0
C1285 C 0.13741 0.8456 0.84802 0.0
C1286 C 0.14753 0.95717 0.85405 0.0
C1287 C 0.15121 0.99406 0.84592 0.0
C1288 C 0.13111 0.01599 0.84008 0.0
C1289 C 0.1072 0.99953 0.84239 0.0
C1290 C 0.10351 0.96276 0.85071 0.0
H1291 H 0.13744 0.80777 0.84597 0.0
H1292 H 0.12563 0.86129 0.84033 0.0
H1293 H 0.15649 0.85825 0.84676 0.0
H1294 H 0.16332 0.94137 0.85859 0.0
H1295 H 0.16986 0.00575 0.84435 0.0
H1296 H 0.90785 0.32127 0.64895 0.0
H1297 H 0.90958 0.25473 0.63248 0.0
H1298 H 0.85951 0.18178 0.65752 0.0
H1299 H 0.85762 0.24843 0.67387 0.0
H1300 H 0.92596 0.16791 0.63716 0.0
H1301 H 0.82851 0.16089 0.62011 0.0
H1302 H 0.84264 0.21174 0.6279 0.0
H1303 H 0.83282 0.16629 0.63825 0.0
C1304 C 0.8968 0.29131 0.65072 0.0
C1305 C 0.88196 0.29029 0.66238 0.0
C1306 C 0.89791 0.25332 0.64139 0.0
C1307 C 0.88444 0.21349 0.64368 0.0
C1308 C 0.86956 0.21252 0.65535 0.0
H1309 H 0.91387 0.9402 0.60602 0.0
H1310 H 0.9134 0.00993 0.62129 0.0
C1311 C 0.86837 0.25063 0.66464 0.0
C1312 C 0.88679 0.17233 0.63416 0.0
H1313 H 0.85361 0.09935 0.61307 0.0
C1314 C 0.91013 0.15262 0.63192 0.0
C1315 C 0.86627 0.15293 0.62714 0.0
C1316 C 0.84111 0.1741 0.62834 0.0
C1317 C 0.91336 0.11357 0.623 0.0
C1318 C 0.89254 0.09318 0.61641 0.0
C1319 C 0.86942 0.11375 0.61844 0.0
C1320 C 0.89396 0.05112 0.60714 0.0
C1321 C 0.93909 0.09572 0.62044 0.0
C1322 C 0.88243 0.05036 0.59432 0.0
C1323 C 0.88176 0.01016 0.58595 0.0
C1324 C 0.89279 0.97009 0.59015 0.0
C1325 C 0.90504 0.97084 0.60271 0.0
C1326 C 0.90509 0.01082 0.61131 0.0
H1327 H 0.95303 0.1232 0.62239 0.0
H1328 H 0.943 0.06837 0.62749 0.0
H1329 H 0.94132 0.08124 0.60981 0.0
H1330 H 0.87372 0.08085 0.59083 0.0
H1331 H 0.87271 0.01043 0.57613 0.0
H1332 H 0.91718 0.48554 0.66744 0.0
H1333 H 0.92628 0.54536 0.65163 0.0
H1334 H 0.84879 0.55885 0.64336 0.0
H1335 H 0.83959 0.49936 0.65887 0.0
H1336 H 0.87826 0.54442 0.61985 0.0
H1337 H 0.91448 0.6858 0.65492 0.0
H1338 H 0.92803 0.62989 0.65587 0.0
H1339 H 0.89666 0.639 0.66102 0.0
C1340 C 0.90208 0.5019 0.66244 0.0
C1341 C 0.87766 0.48749 0.66439 0.0
C1342 C 0.90731 0.53605 0.65341 0.0
C1343 C 0.88819 0.55653 0.64632 0.0
C1344 C 0.86383 0.54334 0.64867 0.0
H1345 H 0.84318 0.75706 0.59539 0.0
H1346 H 0.85075 0.69269 0.60948 0.0
C1347 C 0.85861 0.50931 0.65758 0.0
C1348 C 0.8931 0.58995 0.63587 0.0
H1349 H 0.90952 0.70127 0.63187 0.0
C1350 C 0.88548 0.57848 0.62244 0.0
C1351 C 0.90269 0.63422 0.63924 0.0
C1352 C 0.91085 0.64837 0.65354 0.0
C1353 C 0.88599 0.61081 0.61247 0.0
C1354 C 0.89421 0.6558 0.61602 0.0
C1355 C 0.90326 0.66661 0.6292 0.0
C1356 C 0.89024 0.69333 0.60681 0.0
C1357 C 0.87682 0.59724 0.59831 0.0
C1358 C 0.91001 0.71486 0.60058 0.0
C1359 C 0.90572 0.75162 0.59234 0.0
C1360 C 0.88163 0.76779 0.59046 0.0
C1361 C 0.86195 0.74559 0.59663 0.0
C1362 C 0.86622 0.70871 0.60467 0.0
H1363 H 0.87685 0.55942 0.59625 0.0
H1364 H 0.85766 0.60965 0.59724 0.0
H1365 H 0.88829 0.6131 0.5905 0.0
H1366 H 0.9287 0.70347 0.60217 0.0
H1367 H 0.92127 0.76827 0.58782 0.0
H1368 H 0.91337 0.42981 0.10434 0.0
H1369 H 0.91529 0.49603 0.12094 0.0
H1370 H 0.86437 0.56895 0.09646 0.0
H1371 H 0.86237 0.50272 0.07997 0.0
H1372 H 0.93098 0.58405 0.11647 0.0
H1373 H 0.83387 0.58668 0.13416 0.0
H1374 H 0.84834 0.53674 0.12604 0.0
H1375 H 0.83783 0.58241 0.11598 0.0
C1376 C 0.90222 0.45971 0.10272 0.0
C1377 C 0.88707 0.46081 0.09118 0.0
C1378 C 0.90343 0.49753 0.11212 0.0
C1379 C 0.88974 0.53722 0.11003 0.0
C1380 C 0.87462 0.53831 0.09847 0.0
H1381 H 0.91653 0.81101 0.1477 0.0
H1382 H 0.91704 0.74096 0.13258 0.0
C1383 C 0.87334 0.50041 0.0891 0.0
C1384 C 0.89193 0.57804 0.1197 0.0
H1385 H 0.85842 0.64904 0.14118 0.0
C1386 C 0.9151 0.59857 0.12185 0.0
C1387 C 0.87137 0.5964 0.12691 0.0
C1388 C 0.84641 0.57435 0.12579 0.0
C1389 C 0.91808 0.63755 0.13083 0.0
C1390 C 0.89717 0.65695 0.1376 0.0
C1391 C 0.87427 0.63543 0.13568 0.0
C1392 C 0.89823 0.69912 0.14684 0.0
C1393 C 0.94366 0.65641 0.13326 0.0
C1394 C 0.88671 0.69961 0.15966 0.0
C1395 C 0.88542 0.73998 0.16793 0.0
C1396 C 0.89586 0.78048 0.16363 0.0
C1397 C 0.90815 0.78002 0.15108 0.0
C1398 C 0.90878 0.73985 0.14258 0.0
H1399 H 0.95784 0.62944 0.13127 0.0
H1400 H 0.94717 0.6838 0.12616 0.0
H1401 H 0.9459 0.6711 0.14387 0.0
H1402 H 0.87844 0.66879 0.16323 0.0
H1403 H 0.87636 0.73952 0.17775 0.0
H1404 H 0.84552 0.9818 0.1535 0.0
H1405 H 0.85365 0.04188 0.13804 0.0
H1406 H 0.92904 0.04981 0.15159 0.0
H1407 H 0.92107 0.98913 0.16732 0.0
H1408 H 0.90483 0.13736 0.14868 0.0
H1409 H 0.89415 0.0202 0.10262 0.0
H1410 H 0.86896 0.01663 0.11433 0.0
H1411 H 0.89929 0.99972 0.11937 0.0
C1412 C 0.86387 0.99627 0.15331 0.0
C1413 C 0.88272 0.98017 0.16159 0.0
C1414 C 0.86849 0.03053 0.14438 0.0
C1415 C 0.89208 0.04943 0.14342 0.0
C1416 C 0.91077 0.03519 0.15208 0.0
H1417 H 0.92033 0.26055 0.08379 0.0
H1418 H 0.92944 0.19742 0.09848 0.0
C1419 C 0.90614 1.00069 0.16109 0.0
C1420 C 0.89673 0.08394 0.13327 0.0
H1421 H 0.88929 0.10095 0.09943 0.0
C1422 C 0.90207 0.12927 0.13787 0.0
C1423 C 0.8933 0.07321 0.11915 0.0
C1424 C 0.88885 0.02468 0.11354 0.0
C1425 C 0.90225 0.16469 0.1288 0.0
C1426 C 0.89702 0.15432 0.11487 0.0
C1427 C 0.89325 0.10868 0.11014 0.0
C1428 C 0.89198 0.19097 0.10554 0.0
C1429 C 0.90663 0.21343 0.1342 0.0
C1430 C 0.8679 0.20735 0.10453 0.0
C1431 C 0.86263 0.24304 0.09621 0.0
C1432 C 0.88136 0.26314 0.08865 0.0
C1433 C 0.90546 0.24572 0.0894 0.0
C1434 C 0.91073 0.20988 0.09782 0.0
H1435 H 0.91262 0.21545 0.14502 0.0
H1436 H 0.92085 0.22969 0.12796 0.0
H1437 H 0.88939 0.23345 0.13337 0.0
H1438 H 0.8532 0.1929 0.11037 0.0
H1439 H 0.84385 0.25532 0.09587 0.0
H1440 H 0.58394 0.68835 0.85247 0.0
H1441 H 0.57809 0.7565 0.86791 0.0
H1442 H 0.63539 0.82613 0.84668 0.0
H1443 H 0.63907 0.75998 0.83045 0.0
H1444 H 0.60451 0.79367 0.88556 0.0
H1445 H 0.58926 0.92663 0.84914 0.0
H1446 H 0.59013 0.8667 0.84368 0.0
H1447 H 0.61822 0.89978 0.84538 0.0
C1448 C 0.59504 0.71857 0.85111 0.0
C1449 C 0.61275 0.71862 0.84076 0.0
C1450 C 0.59176 0.75741 0.85991 0.0
C1451 C 0.60617 0.79687 0.85846 0.0
C1452 C 0.6235 0.79692 0.84786 0.0
H1453 H 0.63898 0.98872 0.92627 0.0
H1454 H 0.63512 0.92189 0.9103 0.0
C1455 C 0.62618 0.75862 0.83882 0.0
C1456 C 0.60406 0.83678 0.86849 0.0
H1457 H 0.60388 0.9536 0.87142 0.0
C1458 C 0.60385 0.82862 0.88243 0.0
C1459 C 0.60269 0.88253 0.86452 0.0
C1460 C 0.59979 0.89426 0.84986 0.0
C1461 C 0.60282 0.86472 0.89247 0.0
C1462 C 0.60382 0.91051 0.8885 0.0
C1463 C 0.60348 0.91865 0.87456 0.0
C1464 C 0.60576 0.95053 0.8985 0.0
C1465 C 0.60007 0.85292 0.90713 0.0
C1466 C 0.59128 0.98981 0.89699 0.0
C1467 C 0.59465 0.02902 0.90563 0.0
C1468 C 0.61254 0.02952 0.91589 0.0
C1469 C 0.62595 0.98963 0.91795 0.0
C1470 C 0.62317 0.95095 0.90907 0.0
H1471 H 0.58971 0.82034 0.90786 0.0
H1472 H 0.61857 0.84772 0.91157 0.0
H1473 H 0.59033 0.88027 0.91334 0.0
H1474 H 0.57752 0.99036 0.88903 0.0
H1475 H 0.58356 0.05914 0.90418 0.0
H1476 H 0.66331 0.22342 0.90143 0.0
H1477 H 0.6542 0.28599 0.88705 0.0
H1478 H 0.58307 0.30365 0.90609 0.0
H1479 H 0.59216 0.24071 0.92081 0.0
H1480 H 0.61547 0.29156 0.86836 0.0
H1481 H 0.61274 0.43383 0.90875 0.0
H1482 H 0.62574 0.3785 0.91175 0.0
H1483 H 0.59297 0.38536 0.91089 0.0
C1484 C 0.64573 0.2406 0.90269 0.0
C1485 C 0.62848 0.22693 0.91235 0.0
C1486 C 0.64053 0.27635 0.89439 0.0
C1487 C 0.61799 0.29953 0.89549 0.0
C1488 C 0.60071 0.28652 0.90518 0.0
H1489 H 0.59347 0.50288 0.83294 0.0
H1490 H 0.58448 0.43851 0.84717 0.0
C1491 C 0.60594 0.25058 0.91358 0.0
C1492 C 0.61314 0.33717 0.88636 0.0
H1493 H 0.61021 0.45383 0.88605 0.0
C1494 C 0.61384 0.32703 0.8722 0.0
C1495 C 0.61108 0.38335 0.89142 0.0
C1496 C 0.61072 0.39627 0.90652 0.0
C1497 C 0.6139 0.36198 0.86299 0.0
C1498 C 0.61293 0.40823 0.86808 0.0
C1499 C 0.61085 0.41826 0.8822 0.0
C1500 C 0.61771 0.44661 0.85921 0.0
C1501 C 0.61659 0.34937 0.84794 0.0
C1502 C 0.63928 0.47235 0.86127 0.0
C1503 C 0.64445 0.50879 0.85322 0.0
C1504 C 0.62812 0.52069 0.84289 0.0
C1505 C 0.60653 0.49454 0.84073 0.0
C1506 C 0.60135 0.45778 0.84885 0.0
H1507 H 0.62007 0.31215 0.84582 0.0
H1508 H 0.59947 0.35848 0.84259 0.0
H1509 H 0.63196 0.36895 0.84362 0.0
H1510 H 0.65222 0.46417 0.86915 0.0
H1511 H 0.66128 0.5279 0.85525 0.0
H1512 H 0.65595 0.25516 0.33345 0.0
H1513 H 0.6533 0.32049 0.35021 0.0
H1514 H 0.60086 0.24646 0.37349 0.0
H1515 H 0.6035 0.18103 0.35664 0.0
H1516 H 0.58563 0.33492 0.36893 0.0
H1517 H 0.68141 0.3364 0.3886 0.0
H1518 H 0.6788 0.33246 0.37034 0.0
H1519 H 0.6673 0.2867 0.38009 0.0
C1520 C 0.64452 0.25237 0.34239 0.0
C1521 C 0.63056 0.2127 0.34406 0.0
C1522 C 0.64287 0.28975 0.35191 0.0
C1523 C 0.62712 0.2881 0.3632 0.0
C1524 C 0.61321 0.24834 0.36489 0.0
H1525 H 0.63762 0.49318 0.43048 0.0
H1526 H 0.63592 0.42149 0.4164 0.0
C1527 C 0.61483 0.21099 0.35534 0.0
C1528 C 0.62441 0.3286 0.37293 0.0
H1529 H 0.6569 0.39968 0.3949 0.0
C1530 C 0.60121 0.34934 0.37461 0.0
C1531 C 0.64456 0.34675 0.38054 0.0
C1532 C 0.66945 0.32433 0.37994 0.0
C1533 C 0.59785 0.38851 0.38346 0.0
C1534 C 0.61842 0.40795 0.39054 0.0
C1535 C 0.64131 0.38606 0.38915 0.0
C1536 C 0.61704 0.45069 0.39952 0.0
C1537 C 0.57221 0.40759 0.38538 0.0
C1538 C 0.60683 0.49112 0.39484 0.0
C1539 C 0.60719 0.53182 0.40311 0.0
C1540 C 0.61891 0.53313 0.41582 0.0
C1541 C 0.629 0.49295 0.42054 0.0
C1542 C 0.62794 0.45205 0.41251 0.0
H1543 H 0.55807 0.38054 0.38333 0.0
H1544 H 0.56943 0.42301 0.39587 0.0
H1545 H 0.56914 0.43442 0.37804 0.0
H1546 H 0.59908 0.49156 0.38472 0.0
H1547 H 0.59908 0.56257 0.39941 0.0
H1548 H 0.59336 0.74115 0.41844 0.0
H1549 H 0.5859 0.80127 0.40245 0.0
H1550 H 0.66211 0.79544 0.3903 0.0
H1551 H 0.66972 0.7359 0.406 0.0
H1552 H 0.60923 0.88935 0.39963 0.0
H1553 H 0.62423 0.77126 0.35421 0.0
H1554 H 0.61831 0.75112 0.37092 0.0
H1555 H 0.64876 0.76909 0.36637 0.0
C1556 C 0.60857 0.75309 0.41247 0.0
C1557 C 0.63208 0.73327 0.41341 0.0
C1558 C 0.60424 0.78726 0.4033 0.0
C1559 C 0.62333 0.80188 0.39495 0.0
C1560 C 0.64698 0.78378 0.39639 0.0
H1561 H 0.67381 1.00105 0.34543 0.0
H1562 H 0.66396 0.93804 0.35967 0.0
C1563 C 0.6513 0.74982 0.40545 0.0
C1564 C 0.61902 0.83584 0.38458 0.0
H1565 H 0.62885 0.85202 0.35088 0.0
C1566 C 0.61287 0.88105 0.38891 0.0
C1567 C 0.62361 0.82481 0.37058 0.0
C1568 C 0.62885 0.7763 0.36521 0.0
C1569 C 0.61301 0.91616 0.37973 0.0
C1570 C 0.61939 0.90556 0.36596 0.0
C1571 C 0.62403 0.85996 0.36147 0.0
C1572 C 0.62467 0.94204 0.35658 0.0
C1573 C 0.60786 0.96486 0.3849 0.0
C1574 C 0.60578 0.96442 0.34988 0.0
C1575 C 0.61135 1.00044 0.34157 0.0
C1576 C 0.63589 0.01473 0.33998 0.0
C1577 C 0.65471 0.99114 0.34646 0.0
C1578 C 0.64915 0.95511 0.35461 0.0
H1579 H 0.60269 0.96737 0.39586 0.0
H1580 H 0.62442 0.98635 0.38347 0.0
H1581 H 0.59269 0.97916 0.3789 0.0
H1582 H 0.58677 0.95456 0.35127 0.0
H1583 H 0.59643 0.01808 0.33681 0.0
H1584 H 0.42945 0.31951 0.15486 0.0
H1585 H 0.43511 0.25158 0.13932 0.0
H1586 H 0.37671 0.183 0.15995 0.0
H1587 H 0.37368 0.24838 0.1765 0.0
H1588 H 0.40866 0.12576 0.15456 0.0
H1589 H 0.398 0.21585 0.10691 0.0
H1590 H 0.42586 0.23209 0.11567 0.0
H1591 H 0.39659 0.24639 0.1233 0.0
C1592 C 0.41778 0.28985 0.15594 0.0
C1593 C 0.39995 0.28998 0.16627 0.0
C1594 C 0.42084 0.25123 0.14699 0.0
C1595 C 0.40557 0.21268 0.14798 0.0
C1596 C 0.38845 0.21244 0.15871 0.0
H1597 H 0.37082 0.01546 0.08292 0.0
H1598 H 0.37483 0.08061 0.09952 0.0
C1599 C 0.38621 0.25022 0.16799 0.0
C1600 C 0.40765 0.1718 0.13824 0.0
H1601 H 0.40787 0.13678 0.10449 0.0
C1602 C 0.40813 0.12827 0.1436 0.0
C1603 C 0.40761 0.17478 0.1239 0.0
C1604 C 0.40677 0.21979 0.11713 0.0
C1605 C 0.4071 0.08786 0.13517 0.0
C1606 C 0.4067 0.09086 0.12083 0.0
C1607 C 0.40767 0.13432 0.11546 0.0
C1608 C 0.40385 0.05007 0.11114 0.0
C1609 C 0.4057 0.04288 0.14193 0.0
C1610 C 0.41884 0.01112 0.11195 0.0
C1611 C 0.41528 0.97274 0.10297 0.0
C1612 C 0.3972 0.97319 0.0928 0.0
C1613 C 0.38359 0.01322 0.0913 0.0
C1614 C 0.38637 0.05083 0.1006 0.0
H1615 H 0.39732 0.0473 0.15224 0.0
H1616 H 0.39486 0.01694 0.13587 0.0
H1617 H 0.4246 0.02944 0.14318 0.0
H1618 H 0.43334 0.01033 0.11947 0.0
H1619 H 0.42682 0.94285 0.10388 0.0
H1620 H 0.42016 0.50238 0.17322 0.0
H1621 H 0.4281 0.56568 0.15843 0.0
H1622 H 0.3576 0.54242 0.13913 0.0
H1623 H 0.34958 0.47956 0.15359 0.0
H1624 H 0.39697 0.55038 0.12062 0.0
H1625 H 0.39501 0.69359 0.16073 0.0
H1626 H 0.4156 0.64663 0.16324 0.0
H1627 H 0.38297 0.63742 0.16366 0.0
C1628 C 0.40627 0.51104 0.16591 0.0
C1629 C 0.38421 0.48579 0.16465 0.0
C1630 C 0.41085 0.5472 0.15747 0.0
C1631 C 0.3934 0.55877 0.1477 0.0
C1632 C 0.37136 0.53394 0.14655 0.0
H1633 H 0.34844 0.78476 0.10611 0.0
H1634 H 0.35728 0.7219 0.12042 0.0
C1635 C 0.36679 0.49801 0.1549 0.0
C1636 C 0.39759 0.59655 0.13854 0.0
H1637 H 0.39803 0.71328 0.13801 0.0
C1638 C 0.39765 0.58603 0.1244 0.0
C1639 C 0.39838 0.64294 0.14352 0.0
C1640 C 0.39786 0.65618 0.1586 0.0
C1641 C 0.39724 0.62071 0.1151 0.0
C1642 C 0.39706 0.66711 0.1201 0.0
C1643 C 0.39825 0.67762 0.13422 0.0
C1644 C 0.39236 0.70496 0.11103 0.0
C1645 C 0.39549 0.6075 0.10005 0.0
C1646 C 0.40912 0.71621 0.10087 0.0
C1647 C 0.40407 0.75238 0.09251 0.0
C1648 C 0.3822 0.77793 0.09426 0.0
C1649 C 0.36547 0.76605 0.10441 0.0
C1650 C 0.37052 0.73013 0.11268 0.0
H1651 H 0.39232 0.57014 0.09799 0.0
H1652 H 0.38031 0.62651 0.09536 0.0
H1653 H 0.41289 0.61675 0.09498 0.0
H1654 H 0.42622 0.69746 0.09951 0.0
H1655 H 0.41744 0.76075 0.08488 0.0
H1656 H 0.37191 0.74434 0.67724 0.0
H1657 H 0.37465 0.67781 0.66108 0.0
H1658 H 0.43188 0.74548 0.63924 0.0
H1659 H 0.42689 0.81405 0.65459 0.0
H1660 H 0.40493 0.70895 0.62187 0.0
H1661 H 0.41959 0.57573 0.6583 0.0
H1662 H 0.3909 0.6035 0.66214 0.0
H1663 H 0.4193 0.63569 0.66373 0.0
C1664 C 0.38457 0.7452 0.66875 0.0
C1665 C 0.39819 0.78483 0.66661 0.0
C1666 C 0.38671 0.70666 0.65975 0.0
C1667 C 0.40375 0.70604 0.64898 0.0
C1668 C 0.4184 0.74508 0.64735 0.0
H1669 H 0.42665 0.44411 0.60318 0.0
H1670 H 0.43172 0.51253 0.61859 0.0
C1671 C 0.41563 0.78417 0.65611 0.0
C1672 C 0.40531 0.66594 0.63896 0.0
H1673 H 0.40489 0.54908 0.63606 0.0
C1674 C 0.40545 0.67401 0.62502 0.0
C1675 C 0.40642 0.62017 0.64294 0.0
C1676 C 0.40934 0.60842 0.6576 0.0
C1677 C 0.40634 0.63786 0.61499 0.0
C1678 C 0.40521 0.59209 0.61896 0.0
C1679 C 0.40543 0.58402 0.63291 0.0
C1680 C 0.40353 0.55202 0.60895 0.0
C1681 C 0.40919 0.64962 0.60032 0.0
C1682 C 0.38642 0.55147 0.59823 0.0
C1683 C 0.38422 0.51302 0.5892 0.0
C1684 C 0.39787 0.47341 0.59125 0.0
C1685 C 0.41537 0.47398 0.60172 0.0
C1686 C 0.41818 0.51299 0.61051 0.0
H1687 H 0.41946 0.68229 0.59959 0.0
H1688 H 0.41908 0.62233 0.59416 0.0
H1689 H 0.39073 0.65455 0.59582 0.0
H1690 H 0.37435 0.58031 0.59695 0.0
H1691 H 0.37151 0.51394 0.58073 0.0
H1692 H 0.41947 0.26006 0.58484 0.0
H1693 H 0.42849 0.1967 0.59944 0.0
H1694 H 0.35837 0.21714 0.61942 0.0
H1695 H 0.34929 0.27995 0.60516 0.0
H1696 H 0.39854 0.2104 0.63756 0.0
H1697 H 0.39643 0.06753 0.59733 0.0
H1698 H 0.4164 0.11538 0.5947 0.0
H1699 H 0.38367 0.12327 0.5946 0.0
C1700 C 0.40589 0.25075 0.59226 0.0
C1701 C 0.38363 0.27522 0.59377 0.0
C1702 C 0.41109 0.21457 0.6006 0.0
C1703 C 0.39407 0.20222 0.61051 0.0
C1704 C 0.37183 0.22624 0.6119 0.0
H1705 H 0.35007 0.97637 0.65202 0.0
H1706 H 0.35906 0.03919 0.63774 0.0
C1707 C 0.36664 0.26215 0.60365 0.0
C1708 C 0.39889 0.16444 0.6196 0.0
H1709 H 0.39969 0.04768 0.62002 0.0
C1710 C 0.39928 0.1748 0.63375 0.0
C1711 C 0.39976 0.1181 0.61456 0.0
C1712 C 0.39892 0.10503 0.59948 0.0
C1713 C 0.39919 0.14 0.64301 0.0
C1714 C 0.39898 0.09364 0.63798 0.0
C1715 C 0.39993 0.08331 0.62383 0.0
C1716 C 0.39428 0.05568 0.64702 0.0
C1717 C 0.39773 0.15304 0.65808 0.0
C1718 C 0.41107 0.04415 0.65714 0.0
C1719 C 0.40593 0.00796 0.66549 0.0
C1720 C 0.38394 0.98267 0.66379 0.0
C1721 C 0.3672 0.99484 0.65369 0.0
C1722 C 0.37234 0.03075 0.64542 0.0
H1723 H 0.39473 0.19041 0.6602 0.0
H1724 H 0.38254 0.13412 0.66282 0.0
H1725 H 0.41517 0.1435 0.66304 0.0
H1726 H 0.42824 0.06272 0.65846 0.0
H1727 H 0.41931 0.99936 0.67308 0.0
loop_
_geom_bond_atom_site_label_1
_geom_bond_atom_site_label_2
_geom_bond_distance
_geom_bond_site_symmetry_2
_ccdc_geom_bond_type
Mn0 O5 2.095 . S
Mn0 O15 2.162 . S
Mn0 O16 2.297 . S
Mn0 O24 2.385 . S
Mn0 O25 2.209 . S
Mn0 O26 2.094 . S
Mn1 O6 2.121 . S
Mn1 N8 2.257 . S
Mn1 N17 2.282 . S
Mn1 O25 2.215 . S
Mn1 O27 2.117 . S
C2 O24 1.234 . S
C2 O25 1.283 . S
C3 O15 1.281 . S
C3 O16 1.236 . S
C4 O26 1.240 . S
C4 O27 1.264 . S
O5 Mn0 2.095 . S
O5 C14 1.250 . S
O6 Mn1 2.121 . S
O6 C14 1.258 . S
C7 N8 1.326 . S
C7 C11 1.460 . S
C7 H13 0.929 . S
N8 Mn1 2.257 . S
N8 C7 1.326 . S
N8 C12 1.362 . S
C9 C10 1.258 . S
C9 C12 1.431 . S
C9 C29 1.449 1_545 S
C10 C9 1.258 . S
C10 C11 1.477 . S
C10 H30 0.931 1_545 S
C11 C7 1.460 . S
C11 C10 1.477 . S
C11 H31 0.930 . S
C12 N8 1.362 . S
C12 C9 1.431 . S
C12 C22 1.476 . S
H13 C7 0.929 . S
C14 O5 1.250 . S
C14 O6 1.258 . S
O15 Mn0 2.162 . S
O15 C3 1.281 . S
O16 Mn0 2.297 . S
O16 C3 1.236 . S
N17 Mn1 2.282 . S
N17 C18 1.328 . S
N17 C22 1.318 . S
C18 N17 1.328 . S
C18 C19 1.457 . S
C18 H23 0.929 . S
C19 C18 1.457 . S
C19 C20 1.291 . S
C19 H32 0.931 . S
C20 C19 1.291 . S
C20 C21 1.373 . S
C20 H33 0.929 . S
C21 C20 1.373 . S
C21 C22 1.396 . S
C21 C28 1.403 . S
C22 C12 1.476 . S
C22 N17 1.318 . S
C22 C21 1.396 . S
H23 C18 0.929 . S
O24 Mn0 2.385 . S
O24 C2 1.234 . S
O25 Mn0 2.209 . S
O25 Mn1 2.215 . S
O25 C2 1.283 . S
O26 Mn0 2.094 . S
O26 C4 1.240 . S
O27 Mn1 2.117 . S
O27 C4 1.264 . S
C28 C21 1.403 . S
C28 C29 1.399 1_545 S
C28 H34 0.929 1_545 S
C29 C9 1.449 1_565 S
C29 C28 1.399 1_565 S
C29 H35 0.930 . S
H30 C10 0.931 1_565 S
H31 C11 0.930 . S
H32 C19 0.931 . S
H33 C20 0.929 . S
H34 C28 0.929 1_565 S
H35 C29 0.930 . S
Mn36 O41 2.095 . S
Mn36 O51 2.162 . S
Mn36 O52 2.297 . S
Mn36 O60 2.385 . S
Mn36 O61 2.209 . S
Mn36 O62 2.094 . S
Mn37 O42 2.121 . S
Mn37 N44 2.257 . S
Mn37 N53 2.282 . S
Mn37 O61 2.215 . S
Mn37 O63 2.117 . S
C38 O60 1.234 . S
C38 O61 1.283 . S
C39 O51 1.281 . S
C39 O52 1.236 . S
C40 O62 1.240 . S
C40 O63 1.264 . S
O41 Mn36 2.095 . S
O41 C50 1.250 . S
O42 Mn37 2.121 . S
O42 C50 1.258 . S
C43 N44 1.326 . S
C43 C47 1.460 . S
C43 H49 0.929 . S
N44 Mn37 2.257 . S
N44 C43 1.326 . S
N44 C48 1.362 . S
C45 C46 1.258 . S
C45 C48 1.431 . S
C45 C65 1.449 . S
C46 C45 1.258 . S
C46 C47 1.477 . S
C46 H66 0.931 . S
C47 C43 1.460 . S
C47 C46 1.477 . S
C47 H67 0.930 . S
C48 N44 1.362 . S
C48 C45 1.431 . S
C48 C58 1.476 . S
H49 C43 0.929 . S
C50 O41 1.250 . S
C50 O42 1.258 . S
O51 Mn36 2.162 . S
O51 C39 1.281 . S
O52 Mn36 2.297 . S
O52 C39 1.236 . S
N53 Mn37 2.282 . S
N53 C54 1.328 . S
N53 C58 1.318 . S
C54 N53 1.328 . S
C54 C55 1.457 . S
C54 H59 0.929 . S
C55 C54 1.457 . S
C55 C56 1.291 . S
C55 H68 0.931 . S
C56 C55 1.291 . S
C56 C57 1.373 . S
C56 H69 0.929 . S
C57 C56 1.373 . S
C57 C58 1.396 . S
C57 C64 1.403 . S
C58 C48 1.476 . S
C58 N53 1.318 . S
C58 C57 1.396 . S
H59 C54 0.929 . S
O60 Mn36 2.385 . S
O60 C38 1.234 . S
O61 Mn36 2.209 . S
O61 Mn37 2.215 . S
O61 C38 1.283 . S
O62 Mn36 2.094 . S
O62 C40 1.240 . S
O63 Mn37 2.117 . S
O63 C40 1.264 . S
C64 C57 1.403 . S
C64 C65 1.399 . S
C64 H70 0.929 . S
C65 C45 1.449 . S
C65 C64 1.399 . S
C65 H71 0.930 . S
H66 C46 0.931 . S
H67 C47 0.930 . S
H68 C55 0.931 . S
H69 C56 0.929 . S
H70 C64 0.929 . S
H71 C65 0.930 . S
Mn72 O77 2.095 . S
Mn72 O87 2.162 . S
Mn72 O88 2.297 . S
Mn72 O96 2.385 . S
Mn72 O97 2.209 . S
Mn72 O98 2.094 . S
Mn73 O78 2.121 . S
Mn73 N80 2.257 . S
Mn73 N89 2.282 . S
Mn73 O97 2.215 . S
Mn73 O99 2.117 . S
C74 O96 1.234 . S
C74 O97 1.283 . S
C75 O87 1.281 . S
C75 O88 1.236 . S
C76 O98 1.240 . S
C76 O99 1.264 . S
O77 Mn72 2.095 . S
O77 C86 1.250 . S
O78 Mn73 2.121 . S
O78 C86 1.258 . S
C79 N80 1.326 . S
C79 C83 1.460 . S
C79 H85 0.929 . S
N80 Mn73 2.257 . S
N80 C79 1.326 . S
N80 C84 1.362 . S
C81 C82 1.258 . S
C81 C84 1.431 . S
C81 C101 1.449 1_565 S
C82 C81 1.258 . S
C82 C83 1.477 . S
C82 H102 0.931 1_565 S
C83 C79 1.460 . S
C83 C82 1.477 . S
C83 H103 0.930 . S
C84 N80 1.362 . S
C84 C81 1.431 . S
C84 C94 1.476 . S
H85 C79 0.929 . S
C86 O77 1.250 . S
C86 O78 1.258 . S
O87 Mn72 2.162 . S
O87 C75 1.281 . S
O88 Mn72 2.297 . S
O88 C75 1.236 . S
N89 Mn73 2.282 . S
N89 C90 1.328 . S
N89 C94 1.318 . S
C90 N89 1.328 . S
C90 C91 1.457 . S
C90 H95 0.929 . S
C91 C90 1.457 . S
C91 C92 1.291 . S
C91 H104 0.931 . S
C92 C91 1.291 . S
C92 C93 1.373 . S
C92 H105 0.929 . S
C93 C92 1.373 . S
C93 C94 1.396 . S
C93 C100 1.403 . S
C94 C84 1.476 . S
C94 N89 1.318 . S
C94 C93 1.396 . S
H95 C90 0.929 . S
O96 Mn72 2.385 . S
O96 C74 1.234 . S
O97 Mn72 2.209 . S
O97 Mn73 2.215 . S
O97 C74 1.283 . S
O98 Mn72 2.094 . S
O98 C76 1.240 . S
O99 Mn73 2.117 . S
O99 C76 1.264 . S
C100 C93 1.403 . S
C100 C101 1.399 1_565 S
C100 H106 0.929 1_565 S
C101 C81 1.449 1_545 S
C101 C100 1.399 1_545 S
C101 H107 0.930 . S
H102 C82 0.931 1_545 S
H103 C83 0.930 . S
H104 C91 0.931 . S
H105 C92 0.929 . S
H106 C100 0.929 1_545 S
H107 C101 0.930 . S
Mn108 O113 2.095 . S
Mn108 O123 2.162 . S
Mn108 O124 2.297 . S
Mn108 O132 2.385 . S
Mn108 O133 2.209 . S
Mn108 O134 2.094 . S
Mn109 O114 2.121 . S
Mn109 N116 2.257 . S
Mn109 N125 2.282 . S
Mn109 O133 2.215 . S
Mn109 O135 2.117 . S
C110 O132 1.234 . S
C110 O133 1.283 . S
C111 O123 1.281 . S
C111 O124 1.236 . S
C112 O134 1.240 . S
C112 O135 1.264 . S
O113 Mn108 2.095 . S
O113 C122 1.250 . S
O114 Mn109 2.121 . S
O114 C122 1.258 . S
C115 N116 1.326 . S
C115 C119 1.460 . S
C115 H121 0.929 . S
N116 Mn109 2.257 . S
N116 C115 1.326 . S
N116 C120 1.362 . S
C117 C118 1.258 . S
C117 C120 1.431 . S
C117 C137 1.449 . S
C118 C117 1.258 . S
C118 C119 1.477 . S
C118 H138 0.931 . S
C119 C115 1.460 . S
C119 C118 1.477 . S
C119 H139 0.930 . S
C120 N116 1.362 . S
C120 C117 1.431 . S
C120 C130 1.476 . S
H121 C115 0.929 . S
C122 O113 1.250 . S
C122 O114 1.258 . S
O123 Mn108 2.162 . S
O123 C111 1.281 . S
O124 Mn108 2.297 . S
O124 C111 1.236 . S
N125 Mn109 2.282 . S
N125 C126 1.328 . S
N125 C130 1.318 . S
C126 N125 1.328 . S
C126 C127 1.457 . S
C126 H131 0.929 . S
C127 C126 1.457 . S
C127 C128 1.291 . S
C127 H140 0.931 . S
C128 C127 1.291 . S
C128 C129 1.373 . S
C128 H141 0.929 . S
C129 C128 1.373 . S
C129 C130 1.396 . S
C129 C136 1.403 . S
C130 C120 1.476 . S
C130 N125 1.318 . S
C130 C129 1.396 . S
H131 C126 0.929 . S
O132 Mn108 2.385 . S
O132 C110 1.234 . S
O133 Mn108 2.209 . S
O133 Mn109 2.215 . S
O133 C110 1.283 . S
O134 Mn108 2.094 . S
O134 C112 1.240 . S
O135 Mn109 2.117 . S
O135 C112 1.264 . S
C136 C129 1.403 . S
C136 C137 1.399 . S
C136 H142 0.929 . S
C137 C117 1.449 . S
C137 C136 1.399 . S
C137 H143 0.930 . S
H138 C118 0.931 . S
H139 C119 0.930 . S
H140 C127 0.931 . S
H141 C128 0.929 . S
H142 C136 0.929 . S
H143 C137 0.930 . S
Mn144 O149 2.095 . S
Mn144 O159 2.162 . S
Mn144 O160 2.297 . S
Mn144 O168 2.385 . S
Mn144 O169 2.209 . S
Mn144 O170 2.094 . S
Mn145 O150 2.121 . S
Mn145 N152 2.257 . S
Mn145 N161 2.282 . S
Mn145 O169 2.215 . S
Mn145 O171 2.117 . S
C146 O168 1.234 . S
C146 O169 1.283 . S
C147 O159 1.281 . S
C147 O160 1.236 . S
C148 O170 1.240 . S
C148 O171 1.264 . S
O149 Mn144 2.095 . S
O149 C158 1.250 . S
O150 Mn145 2.121 . S
O150 C158 1.258 . S
C151 N152 1.326 . S
C151 C155 1.460 . S
C151 H157 0.929 . S
N152 Mn145 2.257 . S
N152 C151 1.326 . S
N152 C156 1.362 . S
C153 C154 1.258 . S
C153 C156 1.431 . S
C153 C173 1.449 . S
C154 C153 1.258 . S
C154 C155 1.477 . S
C154 H174 0.931 . S
C155 C151 1.460 . S
C155 C154 1.477 . S
C155 H175 0.930 . S
C156 N152 1.362 . S
C156 C153 1.431 . S
C156 C166 1.476 . S
H157 C151 0.929 . S
C158 O149 1.250 . S
C158 O150 1.258 . S
O159 Mn144 2.162 . S
O159 C147 1.281 . S
O160 Mn144 2.297 . S
O160 C147 1.236 . S
N161 Mn145 2.282 . S
N161 C162 1.328 . S
N161 C166 1.318 . S
C162 N161 1.328 . S
C162 C163 1.457 . S
C162 H167 0.929 . S
C163 C162 1.457 . S
C163 C164 1.291 . S
C163 H176 0.931 . S
C164 C163 1.291 . S
C164 C165 1.373 . S
C164 H177 0.929 . S
C165 C164 1.373 . S
C165 C166 1.396 . S
C165 C172 1.403 . S
C166 C156 1.476 . S
C166 N161 1.318 . S
C166 C165 1.396 . S
H167 C162 0.929 . S
O168 Mn144 2.385 . S
O168 C146 1.234 . S
O169 Mn144 2.209 . S
O169 Mn145 2.215 . S
O169 C146 1.283 . S
O170 Mn144 2.094 . S
O170 C148 1.240 . S
O171 Mn145 2.117 . S
O171 C148 1.264 . S
C172 C165 1.403 . S
C172 C173 1.399 . S
C172 H178 0.929 . S
C173 C153 1.449 . S
C173 C172 1.399 . S
C173 H179 0.930 . S
H174 C154 0.931 . S
H175 C155 0.930 . S
H176 C163 0.931 . S
H177 C164 0.929 . S
H178 C172 0.929 . S
H179 C173 0.930 . S
Mn180 O185 2.095 . S
Mn180 O195 2.162 . S
Mn180 O196 2.297 . S
Mn180 O204 2.385 . S
Mn180 O205 2.209 . S
Mn180 O206 2.094 . S
Mn181 O186 2.121 . S
Mn181 N188 2.257 . S
Mn181 N197 2.282 . S
Mn181 O205 2.215 . S
Mn181 O207 2.117 . S
C182 O204 1.234 . S
C182 O205 1.283 . S
C183 O195 1.281 . S
C183 O196 1.236 . S
C184 O206 1.240 . S
C184 O207 1.264 . S
O185 Mn180 2.095 . S
O185 C194 1.250 . S
O186 Mn181 2.121 . S
O186 C194 1.258 . S
C187 N188 1.326 . S
C187 C191 1.460 . S
C187 H193 0.929 . S
N188 Mn181 2.257 . S
N188 C187 1.326 . S
N188 C192 1.362 . S
C189 C190 1.258 . S
C189 C192 1.431 . S
C189 C209 1.449 . S
C190 C189 1.258 . S
C190 C191 1.477 . S
C190 H210 0.931 . S
C191 C187 1.460 . S
C191 C190 1.477 . S
C191 H211 0.930 . S
C192 N188 1.362 . S
C192 C189 1.431 . S
C192 C202 1.476 . S
H193 C187 0.929 . S
C194 O185 1.250 . S
C194 O186 1.258 . S
O195 Mn180 2.162 . S
O195 C183 1.281 . S
O196 Mn180 2.297 . S
O196 C183 1.236 . S
N197 Mn181 2.282 . S
N197 C198 1.328 . S
N197 C202 1.318 . S
C198 N197 1.328 . S
C198 C199 1.457 . S
C198 H203 0.929 . S
C199 C198 1.457 . S
C199 C200 1.291 . S
C199 H212 0.931 . S
C200 C199 1.291 . S
C200 C201 1.373 . S
C200 H213 0.929 . S
C201 C200 1.373 . S
C201 C202 1.396 . S
C201 C208 1.403 . S
C202 C192 1.476 . S
C202 N197 1.318 . S
C202 C201 1.396 . S
H203 C198 0.929 . S
O204 Mn180 2.385 . S
O204 C182 1.234 . S
O205 Mn180 2.209 . S
O205 Mn181 2.215 . S
O205 C182 1.283 . S
O206 Mn180 2.094 . S
O206 C184 1.240 . S
O207 Mn181 2.117 . S
O207 C184 1.264 . S
C208 C201 1.403 . S
C208 C209 1.399 . S
C208 H214 0.929 . S
C209 C189 1.449 . S
C209 C208 1.399 . S
C209 H215 0.930 . S
H210 C190 0.931 . S
H211 C191 0.930 . S
H212 C199 0.931 . S
H213 C200 0.929 . S
H214 C208 0.929 . S
H215 C209 0.930 . S
Mn216 O221 2.095 . S
Mn216 O231 2.162 . S
Mn216 O232 2.297 . S
Mn216 O240 2.385 . S
Mn216 O241 2.209 . S
Mn216 O242 2.094 . S
Mn217 O222 2.121 . S
Mn217 N224 2.257 . S
Mn217 N233 2.282 . S
Mn217 O241 2.215 . S
Mn217 O243 2.117 . S
C218 O240 1.234 . S
C218 O241 1.283 . S
C219 O231 1.281 . S
C219 O232 1.236 . S
C220 O242 1.240 . S
C220 O243 1.264 . S
O221 Mn216 2.095 . S
O221 C230 1.250 . S
O222 Mn217 2.121 . S
O222 C230 1.258 . S
C223 N224 1.326 . S
C223 C227 1.460 . S
C223 H229 0.929 . S
N224 Mn217 2.257 . S
N224 C223 1.326 . S
N224 C228 1.362 . S
C225 C226 1.258 . S
C225 C228 1.431 . S
C225 C245 1.449 . S
C226 C225 1.258 . S
C226 C227 1.477 . S
C226 H246 0.931 . S
C227 C223 1.460 . S
C227 C226 1.477 . S
C227 H247 0.930 . S
C228 N224 1.362 . S
C228 C225 1.431 . S
C228 C238 1.476 . S
H229 C223 0.929 . S
C230 O221 1.250 . S
C230 O222 1.258 . S
O231 Mn216 2.162 . S
O231 C219 1.281 . S
O232 Mn216 2.297 . S
O232 C219 1.236 . S
N233 Mn217 2.282 . S
N233 C234 1.328 . S
N233 C238 1.318 . S
C234 N233 1.328 . S
C234 C235 1.457 . S
C234 H239 0.929 . S
C235 C234 1.457 . S
C235 C236 1.291 . S
C235 H248 0.931 . S
C236 C235 1.291 . S
C236 C237 1.373 . S
C236 H249 0.929 . S
C237 C236 1.373 . S
C237 C238 1.396 . S
C237 C244 1.403 . S
C238 C228 1.476 . S
C238 N233 1.318 . S
C238 C237 1.396 . S
H239 C234 0.929 . S
O240 Mn216 2.385 . S
O240 C218 1.234 . S
O241 Mn216 2.209 . S
O241 Mn217 2.215 . S
O241 C218 1.283 . S
O242 Mn216 2.094 . S
O242 C220 1.240 . S
O243 Mn217 2.117 . S
O243 C220 1.264 . S
C244 C237 1.403 . S
C244 C245 1.399 . S
C244 H250 0.929 . S
C245 C225 1.449 . S
C245 C244 1.399 . S
C245 H251 0.930 . S
H246 C226 0.931 . S
H247 C227 0.930 . S
H248 C235 0.931 . S
H249 C236 0.929 . S
H250 C244 0.929 . S
H251 C245 0.930 . S
Mn252 O257 2.095 . S
Mn252 O267 2.162 . S
Mn252 O268 2.297 . S
Mn252 O276 2.385 . S
Mn252 O277 2.209 . S
Mn252 O278 2.094 . S
Mn253 O258 2.121 . S
Mn253 N260 2.257 . S
Mn253 N269 2.282 . S
Mn253 O277 2.215 . S
Mn253 O279 2.117 . S
C254 O276 1.234 . S
C254 O277 1.283 . S
C255 O267 1.281 . S
C255 O268 1.236 . S
C256 O278 1.240 . S
C256 O279 1.264 . S
O257 Mn252 2.095 . S
O257 C266 1.250 . S
O258 Mn253 2.121 . S
O258 C266 1.258 . S
C259 N260 1.326 . S
C259 C263 1.460 . S
C259 H265 0.929 . S
N260 Mn253 2.257 . S
N260 C259 1.326 . S
N260 C264 1.362 . S
C261 C262 1.258 . S
C261 C264 1.431 . S
C261 C281 1.449 . S
C262 C261 1.258 . S
C262 C263 1.477 . S
C262 H282 0.931 . S
C263 C259 1.460 . S
C263 C262 1.477 . S
C263 H283 0.930 . S
C264 N260 1.362 . S
C264 C261 1.431 . S
C264 C274 1.476 . S
H265 C259 0.929 . S
C266 O257 1.250 . S
C266 O258 1.258 . S
O267 Mn252 2.162 . S
O267 C255 1.281 . S
O268 Mn252 2.297 . S
O268 C255 1.236 . S
N269 Mn253 2.282 . S
N269 C270 1.328 . S
N269 C274 1.318 . S
C270 N269 1.328 . S
C270 C271 1.457 . S
C270 H275 0.929 . S
C271 C270 1.457 . S
C271 C272 1.291 . S
C271 H284 0.931 . S
C272 C271 1.291 . S
C272 C273 1.373 . S
C272 H285 0.929 . S
C273 C272 1.373 . S
C273 C274 1.396 . S
C273 C280 1.403 . S
C274 C264 1.476 . S
C274 N269 1.318 . S
C274 C273 1.396 . S
H275 C270 0.929 . S
O276 Mn252 2.385 . S
O276 C254 1.234 . S
O277 Mn252 2.209 . S
O277 Mn253 2.215 . S
O277 C254 1.283 . S
O278 Mn252 2.094 . S
O278 C256 1.240 . S
O279 Mn253 2.117 . S
O279 C256 1.264 . S
C280 C273 1.403 . S
C280 C281 1.399 . S
C280 H286 0.929 . S
C281 C261 1.449 . S
C281 C280 1.399 . S
C281 H287 0.930 . S
H282 C262 0.931 . S
H283 C263 0.930 . S
H284 C271 0.931 . S
H285 C272 0.929 . S
H286 C280 0.929 . S
H287 C281 0.930 . S
Mn288 O293 2.095 . S
Mn288 O303 2.162 . S
Mn288 O304 2.297 . S
Mn288 O312 2.385 . S
Mn288 O313 2.209 . S
Mn288 O314 2.094 . S
Mn289 O294 2.121 . S
Mn289 N296 2.257 . S
Mn289 N305 2.282 . S
Mn289 O313 2.215 . S
Mn289 O315 2.117 . S
C290 O312 1.234 . S
C290 O313 1.283 . S
C291 O303 1.281 . S
C291 O304 1.236 . S
C292 O314 1.240 . S
C292 O315 1.264 . S
O293 Mn288 2.095 . S
O293 C302 1.250 . S
O294 Mn289 2.121 . S
O294 C302 1.258 . S
C295 N296 1.326 . S
C295 C299 1.460 . S
C295 H301 0.929 . S
N296 Mn289 2.257 . S
N296 C295 1.326 . S
N296 C300 1.362 . S
C297 C298 1.258 . S
C297 C300 1.431 . S
C297 C317 1.449 1_545 S
C298 C297 1.258 . S
C298 C299 1.477 . S
C298 H318 0.931 1_545 S
C299 C295 1.460 . S
C299 C298 1.477 . S
C299 H319 0.930 . S
C300 N296 1.362 . S
C300 C297 1.431 . S
C300 C310 1.476 . S
H301 C295 0.929 . S
C302 O293 1.250 . S
C302 O294 1.258 . S
O303 Mn288 2.162 . S
O303 C291 1.281 . S
O304 Mn288 2.297 . S
O304 C291 1.236 . S
N305 Mn289 2.282 . S
N305 C306 1.328 . S
N305 C310 1.318 . S
C306 N305 1.328 . S
C306 C307 1.457 . S
C306 H311 0.929 . S
C307 C306 1.457 . S
C307 C308 1.291 . S
C307 H320 0.931 . S
C308 C307 1.291 . S
C308 C309 1.373 . S
C308 H321 0.929 . S
C309 C308 1.373 . S
C309 C310 1.396 . S
C309 C316 1.403 . S
C310 C300 1.476 . S
C310 N305 1.318 . S
C310 C309 1.396 . S
H311 C306 0.929 . S
O312 Mn288 2.385 . S
O312 C290 1.234 . S
O313 Mn288 2.209 . S
O313 Mn289 2.215 . S
O313 C290 1.283 . S
O314 Mn288 2.094 . S
O314 C292 1.240 . S
O315 Mn289 2.117 . S
O315 C292 1.264 . S
C316 C309 1.403 . S
C316 C317 1.399 1_545 S
C316 H322 0.929 1_545 S
C317 C297 1.449 1_565 S
C317 C316 1.399 1_565 S
C317 H323 0.930 . S
H318 C298 0.931 1_565 S
H319 C299 0.930 . S
H320 C307 0.931 . S
H321 C308 0.929 . S
H322 C316 0.929 1_565 S
H323 C317 0.930 . S
Mn324 O329 2.095 . S
Mn324 O339 2.162 . S
Mn324 O340 2.297 . S
Mn324 O348 2.385 . S
Mn324 O349 2.209 . S
Mn324 O350 2.094 . S
Mn325 O330 2.121 . S
Mn325 N332 2.257 . S
Mn325 N341 2.282 . S
Mn325 O349 2.215 . S
Mn325 O351 2.117 . S
C326 O348 1.234 . S
C326 O349 1.283 . S
C327 O339 1.281 . S
C327 O340 1.236 . S
C328 O350 1.240 . S
C328 O351 1.264 . S
O329 Mn324 2.095 . S
O329 C338 1.250 . S
O330 Mn325 2.121 . S
O330 C338 1.258 . S
C331 N332 1.326 . S
C331 C335 1.460 . S
C331 H337 0.929 . S
N332 Mn325 2.257 . S
N332 C331 1.326 . S
N332 C336 1.362 . S
C333 C334 1.258 . S
C333 C336 1.431 . S
C333 C353 1.449 . S
C334 C333 1.258 . S
C334 C335 1.477 . S
C334 H354 0.931 . S
C335 C331 1.460 . S
C335 C334 1.477 . S
C335 H355 0.930 . S
C336 N332 1.362 . S
C336 C333 1.431 . S
C336 C346 1.476 . S
H337 C331 0.929 . S
C338 O329 1.250 . S
C338 O330 1.258 . S
O339 Mn324 2.162 . S
O339 C327 1.281 . S
O340 Mn324 2.297 . S
O340 C327 1.236 . S
N341 Mn325 2.282 . S
N341 C342 1.328 . S
N341 C346 1.318 . S
C342 N341 1.328 . S
C342 C343 1.457 . S
C342 H347 0.929 . S
C343 C342 1.457 . S
C343 C344 1.291 . S
C343 H356 0.931 . S
C344 C343 1.291 . S
C344 C345 1.373 . S
C344 H357 0.929 . S
C345 C344 1.373 . S
C345 C346 1.396 . S
C345 C352 1.403 . S
C346 C336 1.476 . S
C346 N341 1.318 . S
C346 C345 1.396 . S
H347 C342 0.929 . S
O348 Mn324 2.385 . S
O348 C326 1.234 . S
O349 Mn324 2.209 . S
O349 Mn325 2.215 . S
O349 C326 1.283 . S
O350 Mn324 2.094 . S
O350 C328 1.240 . S
O351 Mn325 2.117 . S
O351 C328 1.264 . S
C352 C345 1.403 . S
C352 C353 1.399 . S
C352 H358 0.929 . S
C353 C333 1.449 . S
C353 C352 1.399 . S
C353 H359 0.930 . S
H354 C334 0.931 . S
H355 C335 0.930 . S
H356 C343 0.931 . S
H357 C344 0.929 . S
H358 C352 0.929 . S
H359 C353 0.930 . S
Mn360 O365 2.095 . S
Mn360 O375 2.162 . S
Mn360 O376 2.297 . S
Mn360 O384 2.385 . S
Mn360 O385 2.209 . S
Mn360 O386 2.094 . S
Mn361 O366 2.121 . S
Mn361 N368 2.257 . S
Mn361 N377 2.282 . S
Mn361 O385 2.215 . S
Mn361 O387 2.117 . S
C362 O384 1.234 . S
C362 O385 1.283 . S
C363 O375 1.281 . S
C363 O376 1.236 . S
C364 O386 1.240 . S
C364 O387 1.264 . S
O365 Mn360 2.095 . S
O365 C374 1.250 . S
O366 Mn361 2.121 . S
O366 C374 1.258 . S
C367 N368 1.326 . S
C367 C371 1.460 . S
C367 H373 0.929 . S
N368 Mn361 2.257 . S
N368 C367 1.326 . S
N368 C372 1.362 . S
C369 C370 1.258 . S
C369 C372 1.431 . S
C369 C389 1.449 1_565 S
C370 C369 1.258 . S
C370 C371 1.477 . S
C370 H390 0.931 1_565 S
C371 C367 1.460 . S
C371 C370 1.477 . S
C371 H391 0.930 . S
C372 N368 1.362 . S
C372 C369 1.431 . S
C372 C382 1.476 . S
H373 C367 0.929 . S
C374 O365 1.250 . S
C374 O366 1.258 . S
O375 Mn360 2.162 . S
O375 C363 1.281 . S
O376 Mn360 2.297 . S
O376 C363 1.236 . S
N377 Mn361 2.282 . S
N377 C378 1.328 . S
N377 C382 1.318 . S
C378 N377 1.328 . S
C378 C379 1.457 . S
C378 H383 0.929 . S
C379 C378 1.457 . S
C379 C380 1.291 . S
C379 H392 0.931 . S
C380 C379 1.291 . S
C380 C381 1.373 . S
C380 H393 0.929 . S
C381 C380 1.373 . S
C381 C382 1.396 . S
C381 C388 1.403 . S
C382 C372 1.476 . S
C382 N377 1.318 . S
C382 C381 1.396 . S
H383 C378 0.929 . S
O384 Mn360 2.385 . S
O384 C362 1.234 . S
O385 Mn360 2.209 . S
O385 Mn361 2.215 . S
O385 C362 1.283 . S
O386 Mn360 2.094 . S
O386 C364 1.240 . S
O387 Mn361 2.117 . S
O387 C364 1.264 . S
C388 C381 1.403 . S
C388 C389 1.399 1_565 S
C388 H394 0.929 1_565 S
C389 C369 1.449 1_545 S
C389 C388 1.399 1_545 S
C389 H395 0.930 . S
H390 C370 0.931 1_545 S
H391 C371 0.930 . S
H392 C379 0.931 . S
H393 C380 0.929 . S
H394 C388 0.929 1_545 S
H395 C389 0.930 . S
Mn396 O401 2.095 . S
Mn396 O411 2.162 . S
Mn396 O412 2.297 . S
Mn396 O420 2.385 . S
Mn396 O421 2.209 . S
Mn396 O422 2.094 . S
Mn397 O402 2.121 . S
Mn397 N404 2.257 . S
Mn397 N413 2.282 . S
Mn397 O421 2.215 . S
Mn397 O423 2.117 . S
C398 O420 1.234 . S
C398 O421 1.283 . S
C399 O411 1.281 . S
C399 O412 1.236 . S
C400 O422 1.240 . S
C400 O423 1.264 . S
O401 Mn396 2.095 . S
O401 C410 1.250 . S
O402 Mn397 2.121 . S
O402 C410 1.258 . S
C403 N404 1.326 . S
C403 C407 1.460 . S
C403 H409 0.929 . S
N404 Mn397 2.257 . S
N404 C403 1.326 . S
N404 C408 1.362 . S
C405 C406 1.258 . S
C405 C408 1.431 . S
C405 C425 1.449 . S
C406 C405 1.258 . S
C406 C407 1.477 . S
C406 H426 0.931 . S
C407 C403 1.460 . S
C407 C406 1.477 . S
C407 H427 0.930 . S
C408 N404 1.362 . S
C408 C405 1.431 . S
C408 C418 1.476 . S
H409 C403 0.929 . S
C410 O401 1.250 . S
C410 O402 1.258 . S
O411 Mn396 2.162 . S
O411 C399 1.281 . S
O412 Mn396 2.297 . S
O412 C399 1.236 . S
N413 Mn397 2.282 . S
N413 C414 1.328 . S
N413 C418 1.318 . S
C414 N413 1.328 . S
C414 C415 1.457 . S
C414 H419 0.929 . S
C415 C414 1.457 . S
C415 C416 1.291 . S
C415 H428 0.931 . S
C416 C415 1.291 . S
C416 C417 1.373 . S
C416 H429 0.929 . S
C417 C416 1.373 . S
C417 C418 1.396 . S
C417 C424 1.403 . S
C418 C408 1.476 . S
C418 N413 1.318 . S
C418 C417 1.396 . S
H419 C414 0.929 . S
O420 Mn396 2.385 . S
O420 C398 1.234 . S
O421 Mn396 2.209 . S
O421 Mn397 2.215 . S
O421 C398 1.283 . S
O422 Mn396 2.094 . S
O422 C400 1.240 . S
O423 Mn397 2.117 . S
O423 C400 1.264 . S
C424 C417 1.403 . S
C424 C425 1.399 . S
C424 H430 0.929 . S
C425 C405 1.449 . S
C425 C424 1.399 . S
C425 H431 0.930 . S
H426 C406 0.931 . S
H427 C407 0.930 . S
H428 C415 0.931 . S
H429 C416 0.929 . S
H430 C424 0.929 . S
H431 C425 0.930 . S
Mn432 O437 2.095 . S
Mn432 O447 2.162 . S
Mn432 O448 2.297 . S
Mn432 O456 2.385 . S
Mn432 O457 2.209 . S
Mn432 O458 2.094 . S
Mn433 O438 2.121 . S
Mn433 N440 2.257 . S
Mn433 N449 2.282 . S
Mn433 O457 2.215 . S
Mn433 O459 2.117 . S
C434 O456 1.234 . S
C434 O457 1.283 . S
C435 O447 1.281 . S
C435 O448 1.236 . S
C436 O458 1.240 . S
C436 O459 1.264 . S
O437 Mn432 2.095 . S
O437 C446 1.250 . S
O438 Mn433 2.121 . S
O438 C446 1.258 . S
C439 N440 1.326 . S
C439 C443 1.460 . S
C439 H445 0.929 . S
N440 Mn433 2.257 . S
N440 C439 1.326 . S
N440 C444 1.362 . S
C441 C442 1.258 . S
C441 C444 1.431 . S
C441 C461 1.449 . S
C442 C441 1.258 . S
C442 C443 1.477 . S
C442 H462 0.931 . S
C443 C439 1.460 . S
C443 C442 1.477 . S
C443 H463 0.930 . S
C444 N440 1.362 . S
C444 C441 1.431 . S
C444 C454 1.476 . S
H445 C439 0.929 . S
C446 O437 1.250 . S
C446 O438 1.258 . S
O447 Mn432 2.162 . S
O447 C435 1.281 . S
O448 Mn432 2.297 . S
O448 C435 1.236 . S
N449 Mn433 2.282 . S
N449 C450 1.328 . S
N449 C454 1.318 . S
C450 N449 1.328 . S
C450 C451 1.457 . S
C450 H455 0.929 . S
C451 C450 1.457 . S
C451 C452 1.291 . S
C451 H464 0.931 . S
C452 C451 1.291 . S
C452 C453 1.373 . S
C452 H465 0.929 . S
C453 C452 1.373 . S
C453 C454 1.396 . S
C453 C460 1.403 . S
C454 C444 1.476 . S
C454 N449 1.318 . S
C454 C453 1.396 . S
H455 C450 0.929 . S
O456 Mn432 2.385 . S
O456 C434 1.234 . S
O457 Mn432 2.209 . S
O457 Mn433 2.215 . S
O457 C434 1.283 . S
O458 Mn432 2.094 . S
O458 C436 1.240 . S
O459 Mn433 2.117 . S
O459 C436 1.264 . S
C460 C453 1.403 . S
C460 C461 1.399 . S
C460 H466 0.929 . S
C461 C441 1.449 . S
C461 C460 1.399 . S
C461 H467 0.930 . S
H462 C442 0.931 . S
H463 C443 0.930 . S
H464 C451 0.931 . S
H465 C452 0.929 . S
H466 C460 0.929 . S
H467 C461 0.930 . S
Mn468 O473 2.095 . S
Mn468 O483 2.162 . S
Mn468 O484 2.297 . S
Mn468 O492 2.385 . S
Mn468 O493 2.209 . S
Mn468 O494 2.094 . S
Mn469 O474 2.121 . S
Mn469 N476 2.257 . S
Mn469 N485 2.282 . S
Mn469 O493 2.215 . S
Mn469 O495 2.117 . S
C470 O492 1.234 . S
C470 O493 1.283 . S
C471 O483 1.281 . S
C471 O484 1.236 . S
C472 O494 1.240 . S
C472 O495 1.264 . S
O473 Mn468 2.095 . S
O473 C482 1.250 . S
O474 Mn469 2.121 . S
O474 C482 1.258 . S
C475 N476 1.326 . S
C475 C479 1.460 . S
C475 H481 0.929 . S
N476 Mn469 2.257 . S
N476 C475 1.326 . S
N476 C480 1.362 . S
C477 C478 1.258 . S
C477 C480 1.431 . S
C477 C497 1.449 . S
C478 C477 1.258 . S
C478 C479 1.477 . S
C478 H498 0.931 . S
C479 C475 1.460 . S
C479 C478 1.477 . S
C479 H499 0.930 . S
C480 N476 1.362 . S
C480 C477 1.431 . S
C480 C490 1.476 . S
H481 C475 0.929 . S
C482 O473 1.250 . S
C482 O474 1.258 . S
O483 Mn468 2.162 . S
O483 C471 1.281 . S
O484 Mn468 2.297 . S
O484 C471 1.236 . S
N485 Mn469 2.282 . S
N485 C486 1.328 . S
N485 C490 1.318 . S
C486 N485 1.328 . S
C486 C487 1.457 . S
C486 H491 0.929 . S
C487 C486 1.457 . S
C487 C488 1.291 . S
C487 H500 0.931 . S
C488 C487 1.291 . S
C488 C489 1.373 . S
C488 H501 0.929 . S
C489 C488 1.373 . S
C489 C490 1.396 . S
C489 C496 1.403 . S
C490 C480 1.476 . S
C490 N485 1.318 . S
C490 C489 1.396 . S
H491 C486 0.929 . S
O492 Mn468 2.385 . S
O492 C470 1.234 . S
O493 Mn468 2.209 . S
O493 Mn469 2.215 . S
O493 C470 1.283 . S
O494 Mn468 2.094 . S
O494 C472 1.240 . S
O495 Mn469 2.117 . S
O495 C472 1.264 . S
C496 C489 1.403 . S
C496 C497 1.399 . S
C496 H502 0.929 . S
C497 C477 1.449 . S
C497 C496 1.399 . S
C497 H503 0.930 . S
H498 C478 0.931 . S
H499 C479 0.930 . S
H500 C487 0.931 . S
H501 C488 0.929 . S
H502 C496 0.929 . S
H503 C497 0.930 . S
Mn504 O509 2.095 . S
Mn504 O519 2.162 . S
Mn504 O520 2.297 . S
Mn504 O528 2.385 . S
Mn504 O529 2.209 . S
Mn504 O530 2.094 . S
Mn505 O510 2.121 . S
Mn505 N512 2.257 . S
Mn505 N521 2.282 . S
Mn505 O529 2.215 . S
Mn505 O531 2.117 . S
C506 O528 1.234 . S
C506 O529 1.283 . S
C507 O519 1.281 . S
C507 O520 1.236 . S
C508 O530 1.240 . S
C508 O531 1.264 . S
O509 Mn504 2.095 . S
O509 C518 1.250 . S
O510 Mn505 2.121 . S
O510 C518 1.258 . S
C511 N512 1.326 . S
C511 C515 1.460 . S
C511 H517 0.929 . S
N512 Mn505 2.257 . S
N512 C511 1.326 . S
N512 C516 1.362 . S
C513 C514 1.258 . S
C513 C516 1.431 . S
C513 C533 1.449 . S
C514 C513 1.258 . S
C514 C515 1.477 . S
C514 H534 0.931 . S
C515 C511 1.460 . S
C515 C514 1.477 . S
C515 H535 0.930 . S
C516 N512 1.362 . S
C516 C513 1.431 . S
C516 C526 1.476 . S
H517 C511 0.929 . S
C518 O509 1.250 . S
C518 O510 1.258 . S
O519 Mn504 2.162 . S
O519 C507 1.281 . S
O520 Mn504 2.297 . S
O520 C507 1.236 . S
N521 Mn505 2.282 . S
N521 C522 1.328 . S
N521 C526 1.318 . S
C522 N521 1.328 . S
C522 C523 1.457 . S
C522 H527 0.929 . S
C523 C522 1.457 . S
C523 C524 1.291 . S
C523 H536 0.931 . S
C524 C523 1.291 . S
C524 C525 1.373 . S
C524 H537 0.929 . S
C525 C524 1.373 . S
C525 C526 1.396 . S
C525 C532 1.403 . S
C526 C516 1.476 . S
C526 N521 1.318 . S
C526 C525 1.396 . S
H527 C522 0.929 . S
O528 Mn504 2.385 . S
O528 C506 1.234 . S
O529 Mn504 2.209 . S
O529 Mn505 2.215 . S
O529 C506 1.283 . S
O530 Mn504 2.094 . S
O530 C508 1.240 . S
O531 Mn505 2.117 . S
O531 C508 1.264 . S
C532 C525 1.403 . S
C532 C533 1.399 . S
C532 H538 0.929 . S
C533 C513 1.449 . S
C533 C532 1.399 . S
C533 H539 0.930 . S
H534 C514 0.931 . S
H535 C515 0.930 . S
H536 C523 0.931 . S
H537 C524 0.929 . S
H538 C532 0.929 . S
H539 C533 0.930 . S
Mn540 O545 2.095 . S
Mn540 O555 2.162 . S
Mn540 O556 2.297 . S
Mn540 O564 2.385 . S
Mn540 O565 2.209 . S
Mn540 O566 2.094 . S
Mn541 O546 2.121 . S
Mn541 N548 2.257 . S
Mn541 N557 2.282 . S
Mn541 O565 2.215 . S
Mn541 O567 2.117 . S
C542 O564 1.234 . S
C542 O565 1.283 . S
C543 O555 1.281 . S
C543 O556 1.236 . S
C544 O566 1.240 . S
C544 O567 1.264 . S
O545 Mn540 2.095 . S
O545 C554 1.250 . S
O546 Mn541 2.121 . S
O546 C554 1.258 . S
C547 N548 1.326 . S
C547 C551 1.460 . S
C547 H553 0.929 . S
N548 Mn541 2.257 . S
N548 C547 1.326 . S
N548 C552 1.362 . S
C549 C550 1.258 . S
C549 C552 1.431 . S
C549 C569 1.449 . S
C550 C549 1.258 . S
C550 C551 1.477 . S
C550 H570 0.931 . S
C551 C547 1.460 . S
C551 C550 1.477 . S
C551 H571 0.930 . S
C552 N548 1.362 . S
C552 C549 1.431 . S
C552 C562 1.476 . S
H553 C547 0.929 . S
C554 O545 1.250 . S
C554 O546 1.258 . S
O555 Mn540 2.162 . S
O555 C543 1.281 . S
O556 Mn540 2.297 . S
O556 C543 1.236 . S
N557 Mn541 2.282 . S
N557 C558 1.328 . S
N557 C562 1.318 . S
C558 N557 1.328 . S
C558 C559 1.457 . S
C558 H563 0.929 . S
C559 C558 1.457 . S
C559 C560 1.291 . S
C559 H572 0.931 . S
C560 C559 1.291 . S
C560 C561 1.373 . S
C560 H573 0.929 . S
C561 C560 1.373 . S
C561 C562 1.396 . S
C561 C568 1.403 . S
C562 C552 1.476 . S
C562 N557 1.318 . S
C562 C561 1.396 . S
H563 C558 0.929 . S
O564 Mn540 2.385 . S
O564 C542 1.234 . S
O565 Mn540 2.209 . S
O565 Mn541 2.215 . S
O565 C542 1.283 . S
O566 Mn540 2.094 . S
O566 C544 1.240 . S
O567 Mn541 2.117 . S
O567 C544 1.264 . S
C568 C561 1.403 . S
C568 C569 1.399 . S
C568 H574 0.929 . S
C569 C549 1.449 . S
C569 C568 1.399 . S
C569 H575 0.930 . S
H570 C550 0.931 . S
H571 C551 0.930 . S
H572 C559 0.931 . S
H573 C560 0.929 . S
H574 C568 0.929 . S
H575 C569 0.930 . S
H576 C584 0.929 . S
H577 C586 0.930 . S
H578 C588 0.930 . S
H579 C591 0.929 . S
H580 C594 0.930 . S
H581 C596 0.960 . S
H582 C596 0.960 . S
H583 C596 0.960 . S
C584 H576 0.929 . S
C584 C585 1.377 . S
C584 C586 1.384 . S
C585 C584 1.377 . S
C585 C591 1.390 . S
C586 H577 0.930 . S
C586 C584 1.384 . S
C586 C587 1.372 . S
C587 C586 1.372 . S
C587 C588 1.400 . S
C587 C592 1.490 . S
C588 H578 0.930 . S
C588 C587 1.400 . S
C588 C591 1.386 . S
H589 C605 0.930 . S
H590 C606 0.931 . S
C591 H579 0.929 . S
C591 C585 1.390 . S
C591 C588 1.386 . S
C592 C587 1.490 . S
C592 C594 1.395 . S
C592 C595 1.403 . S
H593 C599 0.930 . S
C594 H580 0.930 . S
C594 C592 1.395 . S
C594 C597 1.403 . S
C595 C592 1.403 . S
C595 C596 1.524 . S
C595 C599 1.400 . S
C596 H581 0.960 . S
C596 H582 0.960 . S
C596 H583 0.960 . S
C596 C595 1.524 . S
C597 C594 1.403 . S
C597 C598 1.392 . S
C597 C601 1.495 . S
C598 C597 1.392 . S
C598 C599 1.385 . S
C598 C600 1.478 . S
C599 H593 0.930 . S
C599 C595 1.400 . S
C599 C598 1.385 . S
C600 C598 1.478 . S
C600 C602 1.381 . S
C600 C606 1.383 . S
C601 C597 1.495 . S
C601 H607 0.959 . S
C601 H608 0.961 . S
C601 H609 0.960 . S
C602 C600 1.381 . S
C602 C603 1.394 . S
C602 H610 0.930 . S
C603 C602 1.394 . S
C603 C604 1.383 . S
C603 H611 0.929 . S
C604 C603 1.383 . S
C604 C605 1.377 . S
C605 H589 0.930 . S
C605 C604 1.377 . S
C605 C606 1.379 . S
C606 H590 0.931 . S
C606 C600 1.383 . S
C606 C605 1.379 . S
H607 C601 0.959 . S
H608 C601 0.961 . S
H609 C601 0.960 . S
H610 C602 0.930 . S
H611 C603 0.929 . S
H612 C620 0.929 . S
H613 C622 0.930 1_545 S
H614 C624 0.930 . S
H615 C627 0.929 . S
H616 C630 0.930 . S
H617 C632 0.960 . S
H618 C632 0.960 1_545 S
H619 C632 0.960 . S
C620 H612 0.929 . S
C620 C621 1.377 . S
C620 C622 1.384 . S
C621 C620 1.377 . S
C621 C627 1.390 . S
C622 H613 0.930 1_565 S
C622 C620 1.384 . S
C622 C623 1.372 . S
C623 C622 1.372 . S
C623 C624 1.400 . S
C623 C628 1.490 . S
C624 H614 0.930 . S
C624 C623 1.400 . S
C624 C627 1.386 . S
H625 C641 0.930 . S
H626 C642 0.931 1_565 S
C627 H615 0.929 . S
C627 C621 1.390 . S
C627 C624 1.386 . S
C628 C623 1.490 . S
C628 C630 1.395 1_655 S
C628 C631 1.403 . S
H629 C635 0.930 . S
C630 H616 0.930 . S
C630 C628 1.395 1_455 S
C630 C633 1.403 1_565 S
C631 C628 1.403 . S
C631 C632 1.524 . S
C631 C635 1.400 1_565 S
C632 H617 0.960 . S
C632 H618 0.960 1_565 S
C632 H619 0.960 . S
C632 C631 1.524 . S
C633 C630 1.403 1_545 S
C633 C634 1.392 . S
C633 C637 1.495 . S
C634 C633 1.392 . S
C634 C635 1.385 1_455 S
C634 C636 1.478 . S
C635 H629 0.930 . S
C635 C631 1.400 1_545 S
C635 C634 1.385 1_655 S
C636 C634 1.478 . S
C636 C638 1.381 . S
C636 C642 1.383 . S
C637 C633 1.495 . S
C637 H643 0.959 . S
C637 H644 0.961 . S
C637 H645 0.960 . S
C638 C636 1.381 . S
C638 C639 1.394 . S
C638 H646 0.930 . S
C639 C638 1.394 . S
C639 C640 1.383 . S
C639 H647 0.929 . S
C640 C639 1.383 . S
C640 C641 1.377 . S
C641 H625 0.930 . S
C641 C640 1.377 . S
C641 C642 1.379 . S
C642 H626 0.931 1_545 S
C642 C636 1.383 . S
C642 C641 1.379 . S
H643 C637 0.959 . S
H644 C637 0.961 . S
H645 C637 0.960 . S
H646 C638 0.930 . S
H647 C639 0.929 . S
H648 C656 0.929 . S
H649 C658 0.930 . S
H650 C660 0.930 1_545 S
H651 C663 0.929 . S
H652 C666 0.930 . S
H653 C668 0.960 . S
H654 C668 0.960 1_565 S
H655 C668 0.960 . S
C656 H648 0.929 . S
C656 C657 1.377 . S
C656 C658 1.384 . S
C657 C656 1.377 . S
C657 C663 1.390 . S
C658 H649 0.930 . S
C658 C656 1.384 . S
C658 C659 1.372 . S
C659 C658 1.372 . S
C659 C660 1.400 . S
C659 C664 1.490 . S
C660 H650 0.930 1_565 S
C660 C659 1.400 . S
C660 C663 1.386 . S
H661 C677 0.930 . S
H662 C678 0.931 . S
C663 H651 0.929 . S
C663 C657 1.390 . S
C663 C660 1.386 . S
C664 C659 1.490 . S
C664 C666 1.395 . S
C664 C667 1.403 1_565 S
H665 C671 0.930 . S
C666 H652 0.930 . S
C666 C664 1.395 . S
C666 C669 1.403 . S
C667 C664 1.403 1_545 S
C667 C668 1.524 . S
C667 C671 1.400 . S
C668 H653 0.960 . S
C668 H654 0.960 1_545 S
C668 H655 0.960 . S
C668 C667 1.524 . S
C669 C666 1.403 . S
C669 C670 1.392 1_565 S
C669 C673 1.495 . S
C670 C669 1.392 1_545 S
C670 C671 1.385 . S
C670 C672 1.478 . S
C671 H665 0.930 . S
C671 C667 1.400 . S
C671 C670 1.385 . S
C672 C670 1.478 . S
C672 C674 1.381 . S
C672 C678 1.383 . S
C673 C669 1.495 . S
C673 H679 0.959 . S
C673 H680 0.961 1_565 S
C673 H681 0.960 . S
C674 C672 1.381 . S
C674 C675 1.394 . S
C674 H682 0.930 1_545 S
C675 C674 1.394 . S
C675 C676 1.383 . S
C675 H683 0.929 . S
C676 C675 1.383 . S
C676 C677 1.377 . S
C677 H661 0.930 . S
C677 C676 1.377 . S
C677 C678 1.379 . S
C678 H662 0.931 . S
C678 C672 1.383 . S
C678 C677 1.379 . S
H679 C673 0.959 . S
H680 C673 0.961 1_545 S
H681 C673 0.960 . S
H682 C674 0.930 1_565 S
H683 C675 0.929 . S
H684 C692 0.929 . S
H685 C694 0.930 . S
H686 C696 0.930 . S
H687 C699 0.929 . S
H688 C702 0.930 . S
H689 C704 0.960 . S
H690 C704 0.960 . S
H691 C704 0.960 . S
C692 H684 0.929 . S
C692 C693 1.377 . S
C692 C694 1.384 . S
C693 C692 1.377 . S
C693 C699 1.390 . S
C694 H685 0.930 . S
C694 C692 1.384 . S
C694 C695 1.372 . S
C695 C694 1.372 . S
C695 C696 1.400 . S
C695 C700 1.490 . S
C696 H686 0.930 . S
C696 C695 1.400 . S
C696 C699 1.386 . S
H697 C713 0.930 . S
H698 C714 0.931 . S
C699 H687 0.929 . S
C699 C693 1.390 . S
C699 C696 1.386 . S
C700 C695 1.490 . S
C700 C702 1.395 1_455 S
C700 C703 1.403 . S
H701 C707 0.930 . S
C702 H688 0.930 . S
C702 C700 1.395 1_655 S
C702 C705 1.403 . S
C703 C700 1.403 . S
C703 C704 1.524 . S
C703 C707 1.400 . S
C704 H689 0.960 . S
C704 H690 0.960 . S
C704 H691 0.960 . S
C704 C703 1.524 . S
C705 C702 1.403 . S
C705 C706 1.392 . S
C705 C709 1.495 . S
C706 C705 1.392 . S
C706 C707 1.385 1_655 S
C706 C708 1.478 . S
C707 H701 0.930 . S
C707 C703 1.400 . S
C707 C706 1.385 1_455 S
C708 C706 1.478 . S
C708 C710 1.381 . S
C708 C714 1.383 . S
C709 C705 1.495 . S
C709 H715 0.959 . S
C709 H716 0.961 . S
C709 H717 0.960 . S
C710 C708 1.381 . S
C710 C711 1.394 . S
C710 H718 0.930 . S
C711 C710 1.394 . S
C711 C712 1.383 . S
C711 H719 0.929 . S
C712 C711 1.383 . S
C712 C713 1.377 . S
C713 H697 0.930 . S
C713 C712 1.377 . S
C713 C714 1.379 . S
C714 H698 0.931 . S
C714 C708 1.383 . S
C714 C713 1.379 . S
H715 C709 0.959 . S
H716 C709 0.961 . S
H717 C709 0.960 . S
H718 C710 0.930 . S
H719 C711 0.929 . S
H720 C728 0.929 . S
H721 C730 0.930 . S
H722 C732 0.930 . S
H723 C735 0.929 . S
H724 C738 0.930 . S
H725 C740 0.960 . S
H726 C740 0.960 . S
H727 C740 0.960 . S
C728 H720 0.929 . S
C728 C729 1.377 . S
C728 C730 1.384 . S
C729 C728 1.377 . S
C729 C735 1.390 . S
C730 H721 0.930 . S
C730 C728 1.384 . S
C730 C731 1.372 . S
C731 C730 1.372 . S
C731 C732 1.400 . S
C731 C736 1.490 . S
C732 H722 0.930 . S
C732 C731 1.400 . S
C732 C735 1.386 . S
H733 C749 0.930 . S
H734 C750 0.931 . S
C735 H723 0.929 . S
C735 C729 1.390 . S
C735 C732 1.386 . S
C736 C731 1.490 . S
C736 C738 1.395 . S
C736 C739 1.403 . S
H737 C743 0.930 . S
C738 H724 0.930 . S
C738 C736 1.395 . S
C738 C741 1.403 . S
C739 C736 1.403 . S
C739 C740 1.524 . S
C739 C743 1.400 . S
C740 H725 0.960 . S
C740 H726 0.960 . S
C740 H727 0.960 . S
C740 C739 1.524 . S
C741 C738 1.403 . S
C741 C742 1.392 . S
C741 C745 1.495 . S
C742 C741 1.392 . S
C742 C743 1.385 . S
C742 C744 1.478 . S
C743 H737 0.930 . S
C743 C739 1.400 . S
C743 C742 1.385 . S
C744 C742 1.478 . S
C744 C746 1.381 . S
C744 C750 1.383 . S
C745 C741 1.495 . S
C745 H751 0.959 . S
C745 H752 0.961 . S
C745 H753 0.960 . S
C746 C744 1.381 . S
C746 C747 1.394 . S
C746 H754 0.930 . S
C747 C746 1.394 . S
C747 C748 1.383 . S
C747 H755 0.929 . S
C748 C747 1.383 . S
C748 C749 1.377 . S
C749 H733 0.930 . S
C749 C748 1.377 . S
C749 C750 1.379 . S
C750 H734 0.931 . S
C750 C744 1.383 . S
C750 C749 1.379 . S
H751 C745 0.959 . S
H752 C745 0.961 . S
H753 C745 0.960 . S
H754 C746 0.930 . S
H755 C747 0.929 . S
H756 C764 0.929 . S
H757 C766 0.930 . S
H758 C768 0.930 1_565 S
H759 C771 0.929 . S
H760 C774 0.930 . S
H761 C776 0.960 . S
H762 C776 0.960 . S
H763 C776 0.949 1_565 S
C764 H756 0.929 . S
C764 C765 1.377 . S
C764 C766 1.384 . S
C765 C764 1.377 . S
C765 C771 1.390 . S
C766 H757 0.930 . S
C766 C764 1.384 . S
C766 C767 1.372 . S
C767 C766 1.372 . S
C767 C768 1.400 . S
C767 C772 1.490 . S
C768 H758 0.930 1_545 S
C768 C767 1.400 . S
C768 C771 1.386 . S
H769 C785 0.930 . S
H770 C786 0.931 . S
C771 H759 0.929 . S
C771 C765 1.390 . S
C771 C768 1.386 . S
C772 C767 1.490 . S
C772 C774 1.395 . S
C772 C775 1.403 . S
H773 C779 0.930 . S
C774 H760 0.930 . S
C774 C772 1.395 . S
C774 C777 1.403 1_545 S
C775 C772 1.403 . S
C775 C776 1.524 . S
C775 C779 1.400 1_545 S
C776 H761 0.960 . S
C776 H762 0.960 . S
C776 H763 0.949 1_545 S
C776 C775 1.524 . S
C777 C774 1.403 1_565 S
C777 C778 1.392 . S
C777 C781 1.495 . S
C778 C777 1.392 . S
C778 C779 1.385 . S
C778 C780 1.478 . S
C779 H773 0.930 . S
C779 C775 1.400 1_565 S
C779 C778 1.385 . S
C780 C778 1.478 . S
C780 C782 1.381 . S
C780 C786 1.383 . S
C781 C777 1.495 . S
C781 H787 0.959 1_565 S
C781 H788 0.961 . S
C781 H789 0.960 1_565 S
C782 C780 1.381 . S
C782 C783 1.394 . S
C782 H790 0.930 1_565 S
C783 C782 1.394 . S
C783 C784 1.383 . S
C783 H791 0.929 . S
C784 C783 1.383 . S
C784 C785 1.377 . S
C785 H769 0.930 . S
C785 C784 1.377 . S
C785 C786 1.379 . S
C786 H770 0.931 . S
C786 C780 1.383 . S
C786 C785 1.379 . S
H787 C781 0.959 1_545 S
H788 C781 0.961 . S
H789 C781 0.960 1_545 S
H790 C782 0.930 1_545 S
H791 C783 0.929 . S
H792 C800 0.929 . S
H793 C802 0.930 . S
H794 C804 0.930 . S
H795 C807 0.929 . S
H796 C810 0.930 . S
H797 C812 0.960 . S
H798 C812 0.960 . S
H799 C812 0.960 . S
C800 H792 0.929 . S
C800 C801 1.377 . S
C800 C802 1.384 . S
C801 C800 1.377 . S
C801 C807 1.390 . S
C802 H793 0.930 . S
C802 C800 1.384 . S
C802 C803 1.372 . S
C803 C802 1.372 . S
C803 C804 1.400 . S
C803 C808 1.490 . S
C804 H794 0.930 . S
C804 C803 1.400 . S
C804 C807 1.386 . S
H805 C821 0.930 . S
H806 C822 0.931 . S
C807 H795 0.929 . S
C807 C801 1.390 . S
C807 C804 1.386 . S
C808 C803 1.490 . S
C808 C810 1.395 1_655 S
C808 C811 1.403 . S
H809 C815 0.929 . S
C810 H796 0.930 . S
C810 C808 1.395 1_455 S
C810 C813 1.403 . S
C811 C808 1.403 . S
C811 C812 1.524 . S
C811 C815 1.402 . S
C812 H797 0.960 . S
C812 H798 0.960 . S
C812 H799 0.960 . S
C812 C811 1.524 . S
C813 C810 1.403 . S
C813 C814 1.392 . S
C813 C817 1.495 . S
C814 C813 1.392 . S
C814 C815 1.383 1_455 S
C814 C816 1.478 . S
C815 H809 0.929 . S
C815 C811 1.402 . S
C815 C814 1.383 1_655 S
C816 C814 1.478 . S
C816 C818 1.381 . S
C816 C822 1.383 . S
C817 C813 1.495 . S
C817 H823 0.959 . S
C817 H824 0.961 . S
C817 H825 0.960 . S
C818 C816 1.381 . S
C818 C819 1.394 . S
C818 H826 0.930 . S
C819 C818 1.394 . S
C819 C820 1.383 . S
C819 H827 0.929 . S
C820 C819 1.383 . S
C820 C821 1.377 . S
C821 H805 0.930 . S
C821 C820 1.377 . S
C821 C822 1.379 . S
C822 H806 0.931 . S
C822 C816 1.383 . S
C822 C821 1.379 . S
H823 C817 0.959 . S
H824 C817 0.961 . S
H825 C817 0.960 . S
H826 C818 0.930 . S
H827 C819 0.929 . S
H828 C836 0.929 . S
H829 C838 0.930 . S
H830 C840 0.930 . S
H831 C843 0.929 . S
H832 C846 0.930 . S
H833 C848 0.960 . S
H834 C848 0.960 . S
H835 C848 0.960 . S
C836 H828 0.929 . S
C836 C837 1.377 . S
C836 C838 1.384 . S
C837 C836 1.377 . S
C837 C843 1.390 . S
C838 H829 0.930 . S
C838 C836 1.384 . S
C838 C839 1.372 . S
C839 C838 1.372 . S
C839 C840 1.400 . S
C839 C844 1.490 . S
C840 H830 0.930 . S
C840 C839 1.400 . S
C840 C843 1.386 . S
H841 C857 0.930 . S
H842 C858 0.931 . S
C843 H831 0.929 . S
C843 C837 1.390 . S
C843 C840 1.386 . S
C844 C839 1.490 . S
C844 C846 1.395 . S
C844 C847 1.403 . S
H845 C851 0.930 . S
C846 H832 0.930 . S
C846 C844 1.395 . S
C846 C849 1.403 1_554 S
C847 C844 1.403 . S
C847 C848 1.524 . S
C847 C851 1.400 1_554 S
C848 H833 0.960 . S
C848 H834 0.960 . S
C848 H835 0.960 . S
C848 C847 1.524 . S
C849 C846 1.403 1_556 S
C849 C850 1.392 . S
C849 C853 1.495 . S
C850 C849 1.392 . S
C850 C851 1.385 . S
C850 C852 1.478 . S
C851 H845 0.930 . S
C851 C847 1.400 1_556 S
C851 C850 1.385 . S
C852 C850 1.478 . S
C852 C854 1.381 . S
C852 C858 1.383 . S
C853 C849 1.495 . S
C853 H859 0.959 . S
C853 H860 0.961 . S
C853 H861 0.960 . S
C854 C852 1.381 . S
C854 C855 1.394 . S
C854 H862 0.930 . S
C855 C854 1.394 . S
C855 C856 1.383 . S
C855 H863 0.929 . S
C856 C855 1.383 . S
C856 C857 1.377 . S
C857 H841 0.930 . S
C857 C856 1.377 . S
C857 C858 1.379 . S
C858 H842 0.931 . S
C858 C852 1.383 . S
C858 C857 1.379 . S
H859 C853 0.959 . S
H860 C853 0.961 . S
H861 C853 0.960 . S
H862 C854 0.930 . S
H863 C855 0.929 . S
H864 C872 0.929 . S
H865 C874 0.930 . S
H866 C876 0.930 . S
H867 C879 0.929 . S
H868 C882 0.930 . S
H869 C884 0.960 . S
H870 C884 0.960 1_455 S
H871 C884 0.960 . S
C872 H864 0.929 . S
C872 C873 1.377 . S
C872 C874 1.384 . S
C873 C872 1.377 . S
C873 C879 1.390 . S
C874 H865 0.930 . S
C874 C872 1.384 . S
C874 C875 1.372 . S
C875 C874 1.372 . S
C875 C876 1.400 . S
C875 C880 1.490 . S
C876 H866 0.930 . S
C876 C875 1.400 . S
C876 C879 1.386 . S
H877 C893 0.930 . S
H878 C894 0.931 . S
C879 H867 0.929 . S
C879 C873 1.390 . S
C879 C876 1.386 . S
C880 C875 1.490 . S
C880 C882 1.395 1_556 S
C880 C883 1.403 1_455 S
H881 C887 0.930 . S
C882 H868 0.930 . S
C882 C880 1.395 1_554 S
C882 C885 1.403 . S
C883 C880 1.403 1_655 S
C883 C884 1.524 . S
C883 C887 1.400 . S
C884 H869 0.960 . S
C884 H870 0.960 1_655 S
C884 H871 0.960 . S
C884 C883 1.524 . S
C885 C882 1.403 . S
C885 C886 1.392 1_455 S
C885 C889 1.495 . S
C886 C885 1.392 1_655 S
C886 C887 1.385 1_554 S
C886 C888 1.478 . S
C887 H881 0.930 . S
C887 C883 1.400 . S
C887 C886 1.385 1_556 S
C888 C886 1.478 . S
C888 C890 1.381 . S
C888 C894 1.383 . S
C889 C885 1.495 . S
C889 H895 0.959 . S
C889 H896 0.961 1_455 S
C889 H897 0.960 . S
C890 C888 1.381 . S
C890 C891 1.394 . S
C890 H898 0.930 . S
C891 C890 1.394 . S
C891 C892 1.383 . S
C891 H899 0.929 . S
C892 C891 1.383 . S
C892 C893 1.377 . S
C893 H877 0.930 . S
C893 C892 1.377 . S
C893 C894 1.379 . S
C894 H878 0.931 . S
C894 C888 1.383 . S
C894 C893 1.379 . S
H895 C889 0.959 . S
H896 C889 0.961 1_655 S
H897 C889 0.960 . S
H898 C890 0.930 . S
H899 C891 0.929 . S
H900 C908 0.929 . S
H901 C910 0.930 . S
H902 C912 0.930 . S
H903 C915 0.929 . S
H904 C918 0.930 . S
H905 C920 0.960 . S
H906 C920 0.960 . S
H907 C920 0.960 . S
C908 H900 0.929 . S
C908 C909 1.377 . S
C908 C910 1.384 . S
C909 C908 1.377 . S
C909 C915 1.390 . S
C910 H901 0.930 . S
C910 C908 1.384 . S
C910 C911 1.372 . S
C911 C910 1.372 . S
C911 C912 1.400 . S
C911 C916 1.490 . S
C912 H902 0.930 . S
C912 C911 1.400 . S
C912 C915 1.386 . S
H913 C929 0.930 . S
H914 C930 0.931 . S
C915 H903 0.929 . S
C915 C909 1.390 . S
C915 C912 1.386 . S
C916 C911 1.490 . S
C916 C918 1.395 . S
C916 C919 1.403 . S
H917 C923 0.930 . S
C918 H904 0.930 . S
C918 C916 1.395 . S
C918 C921 1.403 . S
C919 C916 1.403 . S
C919 C920 1.524 . S
C919 C923 1.400 . S
C920 H905 0.960 . S
C920 H906 0.960 . S
C920 H907 0.960 . S
C920 C919 1.524 . S
C921 C918 1.403 . S
C921 C922 1.392 . S
C921 C925 1.495 . S
C922 C921 1.392 . S
C922 C923 1.385 . S
C922 C924 1.478 . S
C923 H917 0.930 . S
C923 C919 1.400 . S
C923 C922 1.385 . S
C924 C922 1.478 . S
C924 C926 1.381 . S
C924 C930 1.383 . S
C925 C921 1.495 . S
C925 H931 0.959 . S
C925 H932 0.961 . S
C925 H933 0.960 . S
C926 C924 1.381 . S
C926 C927 1.394 . S
C926 H934 0.930 . S
C927 C926 1.394 . S
C927 C928 1.383 . S
C927 H935 0.929 . S
C928 C927 1.383 . S
C928 C929 1.377 . S
C929 H913 0.930 . S
C929 C928 1.377 . S
C929 C930 1.379 . S
C930 H914 0.931 . S
C930 C924 1.383 . S
C930 C929 1.379 . S
H931 C925 0.959 . S
H932 C925 0.961 . S
H933 C925 0.960 . S
H934 C926 0.930 . S
H935 C927 0.929 . S
H936 C944 0.929 . S
H937 C946 0.930 . S
H938 C948 0.930 . S
H939 C951 0.929 . S
H940 C954 0.930 . S
H941 C956 0.960 . S
H942 C956 0.960 . S
H943 C956 0.960 . S
C944 H936 0.929 . S
C944 C945 1.377 . S
C944 C946 1.384 . S
C945 C944 1.377 . S
C945 C951 1.390 . S
C946 H937 0.930 . S
C946 C944 1.384 . S
C946 C947 1.372 . S
C947 C946 1.372 . S
C947 C948 1.400 . S
C947 C952 1.490 . S
C948 H938 0.930 . S
C948 C947 1.400 . S
C948 C951 1.386 . S
H949 C965 0.930 . S
H950 C966 0.931 . S
C951 H939 0.929 . S
C951 C945 1.390 . S
C951 C948 1.386 . S
C952 C947 1.490 . S
C952 C954 1.395 1_556 S
C952 C955 1.403 . S
H953 C959 0.930 . S
C954 H940 0.930 . S
C954 C952 1.395 1_554 S
C954 C957 1.403 . S
C955 C952 1.403 . S
C955 C956 1.524 . S
C955 C959 1.400 . S
C956 H941 0.960 . S
C956 H942 0.960 . S
C956 H943 0.960 . S
C956 C955 1.524 . S
C957 C954 1.403 . S
C957 C958 1.392 . S
C957 C961 1.495 . S
C958 C957 1.392 . S
C958 C959 1.385 1_554 S
C958 C960 1.478 . S
C959 H953 0.930 . S
C959 C955 1.400 . S
C959 C958 1.385 1_556 S
C960 C958 1.478 . S
C960 C962 1.381 . S
C960 C966 1.383 . S
C961 C957 1.495 . S
C961 H967 0.959 . S
C961 H968 0.961 . S
C961 H969 0.960 . S
C962 C960 1.381 . S
C962 C963 1.394 . S
C962 H970 0.930 . S
C963 C962 1.394 . S
C963 C964 1.383 . S
C963 H971 0.929 . S
C964 C963 1.383 . S
C964 C965 1.377 . S
C965 H949 0.930 . S
C965 C964 1.377 . S
C965 C966 1.379 . S
C966 H950 0.931 . S
C966 C960 1.383 . S
C966 C965 1.379 . S
H967 C961 0.959 . S
H968 C961 0.961 . S
H969 C961 0.960 . S
H970 C962 0.930 . S
H971 C963 0.929 . S
H972 C980 0.929 . S
H973 C982 0.930 . S
H974 C984 0.930 . S
H975 C987 0.929 . S
H976 C990 0.930 . S
H977 C992 0.960 . S
H978 C992 0.960 . S
H979 C992 0.960 . S
C980 H972 0.929 . S
C980 C981 1.377 . S
C980 C982 1.384 . S
C981 C980 1.377 . S
C981 C987 1.390 . S
C982 H973 0.930 . S
C982 C980 1.384 . S
C982 C983 1.372 . S
C983 C982 1.372 . S
C983 C984 1.400 . S
C983 C988 1.490 . S
C984 H974 0.930 . S
C984 C983 1.400 . S
C984 C987 1.386 . S
H985 C1001 0.930 . S
H986 C1002 0.931 . S
C987 H975 0.929 . S
C987 C981 1.390 . S
C987 C984 1.386 . S
C988 C983 1.490 . S
C988 C990 1.395 . S
C988 C991 1.403 . S
H989 C995 0.930 . S
C990 H976 0.930 . S
C990 C988 1.395 . S
C990 C993 1.403 . S
C991 C988 1.403 . S
C991 C992 1.524 . S
C991 C995 1.400 . S
C992 H977 0.960 . S
C992 H978 0.960 . S
C992 H979 0.960 . S
C992 C991 1.524 . S
C993 C990 1.403 . S
C993 C994 1.392 . S
C993 C997 1.495 . S
C994 C993 1.392 . S
C994 C995 1.385 . S
C994 C996 1.478 . S
C995 H989 0.930 . S
C995 C991 1.400 . S
C995 C994 1.385 . S
C996 C994 1.478 . S
C996 C998 1.381 . S
C996 C1002 1.383 . S
C997 C993 1.495 . S
C997 H1003 0.959 . S
C997 H1004 0.961 . S
C997 H1005 0.960 . S
C998 C996 1.381 . S
C998 C999 1.394 . S
C998 H1006 0.930 . S
C999 C998 1.394 . S
C999 C1000 1.383 . S
C999 H1007 0.929 . S
C1000 C999 1.383 . S
C1000 C1001 1.377 . S
C1001 H985 0.930 . S
C1001 C1000 1.377 . S
C1001 C1002 1.379 . S
C1002 H986 0.931 . S
C1002 C996 1.383 . S
C1002 C1001 1.379 . S
H1003 C997 0.959 . S
H1004 C997 0.961 . S
H1005 C997 0.960 . S
H1006 C998 0.930 . S
H1007 C999 0.929 . S
H1008 C1016 0.929 . S
H1009 C1018 0.930 . S
H1010 C1020 0.930 . S
H1011 C1023 0.929 . S
H1012 C1026 0.930 . S
H1013 C1028 0.960 1_554 S
H1014 C1028 0.960 . S
H1015 C1028 0.966 . S
C1016 H1008 0.929 . S
C1016 C1017 1.377 . S
C1016 C1018 1.384 . S
C1017 C1016 1.377 . S
C1017 C1023 1.390 . S
C1018 H1009 0.930 . S
C1018 C1016 1.384 . S
C1018 C1019 1.372 . S
C1019 C1018 1.372 . S
C1019 C1020 1.400 . S
C1019 C1024 1.490 . S
C1020 H1010 0.930 . S
C1020 C1019 1.400 . S
C1020 C1023 1.386 . S
H1021 C1037 0.930 . S
H1022 C1038 0.931 . S
C1023 H1011 0.929 . S
C1023 C1017 1.390 . S
C1023 C1020 1.386 . S
C1024 C1019 1.490 . S
C1024 C1026 1.395 1_545 S
C1024 C1027 1.403 . S
H1025 C1031 0.930 . S
C1026 H1012 0.930 . S
C1026 C1024 1.395 1_565 S
C1026 C1029 1.391 1_556 S
C1027 C1024 1.403 . S
C1027 C1028 1.524 . S
C1027 C1031 1.400 1_556 S
C1028 H1013 0.960 1_556 S
C1028 H1014 0.960 . S
C1028 H1015 0.966 . S
C1028 C1027 1.524 . S
C1029 C1026 1.391 1_554 S
C1029 C1030 1.402 . S
C1029 C1033 1.498 . S
C1030 C1029 1.402 . S
C1030 C1031 1.385 1_565 S
C1030 C1032 1.478 . S
C1031 H1025 0.930 . S
C1031 C1027 1.400 1_554 S
C1031 C1030 1.385 1_545 S
C1032 C1030 1.478 . S
C1032 C1034 1.381 . S
C1032 C1038 1.383 . S
C1033 C1029 1.498 . S
C1033 H1039 0.959 1_554 S
C1033 H1040 0.961 . S
C1033 H1041 0.960 1_554 S
C1034 C1032 1.381 . S
C1034 C1035 1.394 . S
C1034 H1042 0.930 . S
C1035 C1034 1.394 . S
C1035 C1036 1.383 . S
C1035 H1043 0.929 . S
C1036 C1035 1.383 . S
C1036 C1037 1.377 . S
C1037 H1021 0.930 . S
C1037 C1036 1.377 . S
C1037 C1038 1.379 . S
C1038 H1022 0.931 . S
C1038 C1032 1.383 . S
C1038 C1037 1.379 . S
H1039 C1033 0.959 1_556 S
H1040 C1033 0.961 . S
H1041 C1033 0.960 1_556 S
H1042 C1034 0.930 . S
H1043 C1035 0.929 . S
H1044 C1052 0.929 . S
H1045 C1054 0.930 . S
H1046 C1056 0.930 . S
H1047 C1059 0.929 . S
H1048 C1062 0.930 . S
H1049 C1064 0.960 . S
H1050 C1064 0.960 . S
H1051 C1064 0.960 . S
C1052 H1044 0.929 . S
C1052 C1053 1.377 . S
C1052 C1054 1.384 . S
C1053 C1052 1.377 . S
C1053 C1059 1.390 . S
C1054 H1045 0.930 . S
C1054 C1052 1.384 . S
C1054 C1055 1.372 . S
C1055 C1054 1.372 . S
C1055 C1056 1.400 . S
C1055 C1060 1.490 . S
C1056 H1046 0.930 . S
C1056 C1055 1.400 . S
C1056 C1059 1.386 . S
H1057 C1073 0.930 . S
H1058 C1074 0.931 . S
C1059 H1047 0.929 . S
C1059 C1053 1.390 . S
C1059 C1056 1.386 . S
C1060 C1055 1.490 . S
C1060 C1062 1.395 . S
C1060 C1063 1.403 . S
H1061 C1067 0.930 . S
C1062 H1048 0.930 . S
C1062 C1060 1.395 . S
C1062 C1065 1.403 . S
C1063 C1060 1.403 . S
C1063 C1064 1.524 . S
C1063 C1067 1.400 . S
C1064 H1049 0.960 . S
C1064 H1050 0.960 . S
C1064 H1051 0.960 . S
C1064 C1063 1.524 . S
C1065 C1062 1.403 . S
C1065 C1066 1.392 . S
C1065 C1069 1.495 . S
C1066 C1065 1.392 . S
C1066 C1067 1.385 . S
C1066 C1068 1.478 . S
C1067 H1061 0.930 . S
C1067 C1063 1.400 . S
C1067 C1066 1.385 . S
C1068 C1066 1.478 . S
C1068 C1070 1.381 . S
C1068 C1074 1.383 . S
C1069 C1065 1.495 . S
C1069 H1075 0.959 . S
C1069 H1076 0.961 . S
C1069 H1077 0.960 . S
C1070 C1068 1.381 . S
C1070 C1071 1.394 . S
C1070 H1078 0.930 . S
C1071 C1070 1.394 . S
C1071 C1072 1.383 . S
C1071 H1079 0.929 . S
C1072 C1071 1.383 . S
C1072 C1073 1.377 . S
C1073 H1057 0.930 . S
C1073 C1072 1.377 . S
C1073 C1074 1.379 . S
C1074 H1058 0.931 . S
C1074 C1068 1.383 . S
C1074 C1073 1.379 . S
H1075 C1069 0.959 . S
H1076 C1069 0.961 . S
H1077 C1069 0.960 . S
H1078 C1070 0.930 . S
H1079 C1071 0.929 . S
H1080 C1088 0.929 . S
H1081 C1090 0.930 . S
H1082 C1092 0.930 . S
H1083 C1095 0.929 . S
H1084 C1098 0.930 . S
H1085 C1100 0.960 . S
H1086 C1100 0.960 . S
H1087 C1100 0.960 . S
C1088 H1080 0.929 . S
C1088 C1089 1.377 . S
C1088 C1090 1.384 . S
C1089 C1088 1.377 . S
C1089 C1095 1.390 . S
C1090 H1081 0.930 . S
C1090 C1088 1.384 . S
C1090 C1091 1.372 . S
C1091 C1090 1.372 . S
C1091 C1092 1.400 . S
C1091 C1096 1.490 . S
C1092 H1082 0.930 . S
C1092 C1091 1.400 . S
C1092 C1095 1.386 . S
H1093 C1109 0.930 . S
H1094 C1110 0.931 . S
C1095 H1083 0.929 . S
C1095 C1089 1.390 . S
C1095 C1092 1.386 . S
C1096 C1091 1.490 . S
C1096 C1098 1.395 . S
C1096 C1099 1.403 . S
H1097 C1103 0.930 . S
C1098 H1084 0.930 . S
C1098 C1096 1.395 . S
C1098 C1101 1.403 . S
C1099 C1096 1.403 . S
C1099 C1100 1.524 . S
C1099 C1103 1.400 . S
C1100 H1085 0.960 . S
C1100 H1086 0.960 . S
C1100 H1087 0.960 . S
C1100 C1099 1.524 . S
C1101 C1098 1.403 . S
C1101 C1102 1.392 . S
C1101 C1105 1.495 . S
C1102 C1101 1.392 . S
C1102 C1103 1.385 . S
C1102 C1104 1.478 . S
C1103 H1097 0.930 . S
C1103 C1099 1.400 . S
C1103 C1102 1.385 . S
C1104 C1102 1.478 . S
C1104 C1106 1.381 . S
C1104 C1110 1.383 . S
C1105 C1101 1.495 . S
C1105 H1111 0.959 . S
C1105 H1112 0.961 . S
C1105 H1113 0.960 . S
C1106 C1104 1.381 . S
C1106 C1107 1.394 . S
C1106 H1114 0.930 . S
C1107 C1106 1.394 . S
C1107 C1108 1.383 . S
C1107 H1115 0.929 . S
C1108 C1107 1.383 . S
C1108 C1109 1.377 . S
C1109 H1093 0.930 . S
C1109 C1108 1.377 . S
C1109 C1110 1.379 . S
C1110 H1094 0.931 . S
C1110 C1104 1.383 . S
C1110 C1109 1.379 . S
H1111 C1105 0.959 . S
H1112 C1105 0.961 . S
H1113 C1105 0.960 . S
H1114 C1106 0.930 . S
H1115 C1107 0.929 . S
H1116 C1124 0.929 . S
H1117 C1126 0.930 . S
H1118 C1128 0.930 . S
H1119 C1131 0.929 . S
H1120 C1134 0.930 . S
H1121 C1136 0.960 . S
H1122 C1136 0.960 . S
H1123 C1136 0.960 . S
C1124 H1116 0.929 . S
C1124 C1125 1.377 . S
C1124 C1126 1.384 . S
C1125 C1124 1.377 . S
C1125 C1131 1.390 . S
C1126 H1117 0.930 . S
C1126 C1124 1.384 . S
C1126 C1127 1.372 . S
C1127 C1126 1.372 . S
C1127 C1128 1.400 . S
C1127 C1132 1.490 . S
C1128 H1118 0.930 . S
C1128 C1127 1.400 . S
C1128 C1131 1.386 . S
H1129 C1145 0.930 . S
H1130 C1146 0.931 . S
C1131 H1119 0.929 . S
C1131 C1125 1.390 . S
C1131 C1128 1.386 . S
C1132 C1127 1.490 . S
C1132 C1134 1.395 . S
C1132 C1135 1.403 . S
H1133 C1139 0.930 . S
C1134 H1120 0.930 . S
C1134 C1132 1.395 . S
C1134 C1137 1.403 . S
C1135 C1132 1.403 . S
C1135 C1136 1.524 . S
C1135 C1139 1.400 . S
C1136 H1121 0.960 . S
C1136 H1122 0.960 . S
C1136 H1123 0.960 . S
C1136 C1135 1.524 . S
C1137 C1134 1.403 . S
C1137 C1138 1.392 . S
C1137 C1141 1.495 . S
C1138 C1137 1.392 . S
C1138 C1139 1.385 . S
C1138 C1140 1.478 . S
C1139 H1133 0.930 . S
C1139 C1135 1.400 . S
C1139 C1138 1.385 . S
C1140 C1138 1.478 . S
C1140 C1142 1.381 . S
C1140 C1146 1.383 . S
C1141 C1137 1.495 . S
C1141 H1147 0.959 . S
C1141 H1148 0.961 . S
C1141 H1149 0.960 . S
C1142 C1140 1.381 . S
C1142 C1143 1.394 . S
C1142 H1150 0.930 . S
C1143 C1142 1.394 . S
C1143 C1144 1.383 . S
C1143 H1151 0.929 . S
C1144 C1143 1.383 . S
C1144 C1145 1.377 . S
C1145 H1129 0.930 . S
C1145 C1144 1.377 . S
C1145 C1146 1.379 . S
C1146 H1130 0.931 . S
C1146 C1140 1.383 . S
C1146 C1145 1.379 . S
H1147 C1141 0.959 . S
H1148 C1141 0.961 . S
H1149 C1141 0.960 . S
H1150 C1142 0.930 . S
H1151 C1143 0.929 . S
H1152 C1160 0.929 . S
H1153 C1162 0.930 . S
H1154 C1164 0.930 . S
H1155 C1167 0.929 . S
H1156 C1170 0.930 . S
H1157 C1172 0.960 . S
H1158 C1172 0.960 . S
H1159 C1172 0.960 . S
C1160 H1152 0.929 . S
C1160 C1161 1.377 . S
C1160 C1162 1.384 . S
C1161 C1160 1.377 . S
C1161 C1167 1.390 . S
C1162 H1153 0.930 . S
C1162 C1160 1.384 . S
C1162 C1163 1.372 . S
C1163 C1162 1.372 . S
C1163 C1164 1.400 . S
C1163 C1168 1.490 . S
C1164 H1154 0.930 . S
C1164 C1163 1.400 . S
C1164 C1167 1.386 . S
H1165 C1181 0.930 . S
H1166 C1182 0.931 . S
C1167 H1155 0.929 . S
C1167 C1161 1.390 . S
C1167 C1164 1.386 . S
C1168 C1163 1.490 . S
C1168 C1170 1.395 . S
C1168 C1171 1.403 . S
H1169 C1175 0.930 . S
C1170 H1156 0.930 . S
C1170 C1168 1.395 . S
C1170 C1173 1.403 . S
C1171 C1168 1.403 . S
C1171 C1172 1.524 . S
C1171 C1175 1.400 . S
C1172 H1157 0.960 . S
C1172 H1158 0.960 . S
C1172 H1159 0.960 . S
C1172 C1171 1.524 . S
C1173 C1170 1.403 . S
C1173 C1174 1.392 . S
C1173 C1177 1.495 . S
C1174 C1173 1.392 . S
C1174 C1175 1.385 . S
C1174 C1176 1.478 . S
C1175 H1169 0.930 . S
C1175 C1171 1.400 . S
C1175 C1174 1.385 . S
C1176 C1174 1.478 . S
C1176 C1178 1.381 . S
C1176 C1182 1.383 . S
C1177 C1173 1.495 . S
C1177 H1183 0.959 . S
C1177 H1184 0.961 . S
C1177 H1185 0.960 . S
C1178 C1176 1.381 . S
C1178 C1179 1.394 . S
C1178 H1186 0.930 . S
C1179 C1178 1.394 . S
C1179 C1180 1.383 1_565 S
C1179 H1187 0.929 . S
C1180 C1179 1.383 1_545 S
C1180 C1181 1.377 . S
C1181 H1165 0.930 . S
C1181 C1180 1.377 . S
C1181 C1182 1.379 1_545 S
C1182 H1166 0.931 . S
C1182 C1176 1.383 . S
C1182 C1181 1.379 1_565 S
H1183 C1177 0.959 . S
H1184 C1177 0.961 . S
H1185 C1177 0.960 . S
H1186 C1178 0.930 . S
H1187 C1179 0.929 . S
H1188 C1196 0.929 . S
H1189 C1198 0.930 . S
H1190 C1200 0.930 . S
H1191 C1203 0.929 . S
H1192 C1206 0.930 . S
H1193 C1208 0.960 . S
H1194 C1208 0.960 . S
H1195 C1208 0.960 . S
C1196 H1188 0.929 . S
C1196 C1197 1.377 . S
C1196 C1198 1.384 . S
C1197 C1196 1.377 . S
C1197 C1203 1.390 . S
C1198 H1189 0.930 . S
C1198 C1196 1.384 . S
C1198 C1199 1.372 . S
C1199 C1198 1.372 . S
C1199 C1200 1.400 . S
C1199 C1204 1.490 . S
C1200 H1190 0.930 . S
C1200 C1199 1.400 . S
C1200 C1203 1.386 . S
H1201 C1217 0.930 . S
H1202 C1218 0.931 . S
C1203 H1191 0.929 . S
C1203 C1197 1.390 . S
C1203 C1200 1.386 . S
C1204 C1199 1.490 . S
C1204 C1206 1.395 . S
C1204 C1207 1.403 . S
H1205 C1211 0.930 . S
C1206 H1192 0.930 . S
C1206 C1204 1.395 . S
C1206 C1209 1.403 . S
C1207 C1204 1.403 . S
C1207 C1208 1.524 . S
C1207 C1211 1.400 . S
C1208 H1193 0.960 . S
C1208 H1194 0.960 . S
C1208 H1195 0.960 . S
C1208 C1207 1.524 . S
C1209 C1206 1.403 . S
C1209 C1210 1.392 . S
C1209 C1213 1.495 . S
C1210 C1209 1.392 . S
C1210 C1211 1.385 . S
C1210 C1212 1.478 . S
C1211 H1205 0.930 . S
C1211 C1207 1.400 . S
C1211 C1210 1.385 . S
C1212 C1210 1.478 . S
C1212 C1214 1.381 . S
C1212 C1218 1.383 . S
C1213 C1209 1.495 . S
C1213 H1219 0.959 . S
C1213 H1220 0.961 . S
C1213 H1221 0.960 . S
C1214 C1212 1.381 . S
C1214 C1215 1.394 . S
C1214 H1222 0.930 . S
C1215 C1214 1.394 . S
C1215 C1216 1.383 . S
C1215 H1223 0.929 . S
C1216 C1215 1.383 . S
C1216 C1217 1.377 . S
C1217 H1201 0.930 . S
C1217 C1216 1.377 . S
C1217 C1218 1.379 . S
C1218 H1202 0.931 . S
C1218 C1212 1.383 . S
C1218 C1217 1.379 . S
H1219 C1213 0.959 . S
H1220 C1213 0.961 . S
H1221 C1213 0.960 . S
H1222 C1214 0.930 . S
H1223 C1215 0.929 . S
H1224 C1232 0.929 . S
H1225 C1234 0.930 . S
H1226 C1236 0.930 . S
H1227 C1239 0.929 . S
H1228 C1242 0.930 . S
H1229 C1244 0.960 . S
H1230 C1244 0.960 . S
H1231 C1244 0.960 . S
C1232 H1224 0.929 . S
C1232 C1233 1.377 . S
C1232 C1234 1.384 . S
C1233 C1232 1.377 . S
C1233 C1239 1.390 . S
C1234 H1225 0.930 . S
C1234 C1232 1.384 . S
C1234 C1235 1.372 . S
C1235 C1234 1.372 . S
C1235 C1236 1.400 . S
C1235 C1240 1.490 . S
C1236 H1226 0.930 . S
C1236 C1235 1.400 . S
C1236 C1239 1.386 . S
H1237 C1253 0.930 . S
H1238 C1254 0.931 . S
C1239 H1227 0.929 . S
C1239 C1233 1.390 . S
C1239 C1236 1.386 . S
C1240 C1235 1.490 . S
C1240 C1242 1.395 . S
C1240 C1243 1.403 . S
H1241 C1247 0.930 . S
C1242 H1228 0.930 . S
C1242 C1240 1.395 . S
C1242 C1245 1.403 . S
C1243 C1240 1.403 . S
C1243 C1244 1.524 . S
C1243 C1247 1.400 . S
C1244 H1229 0.960 . S
C1244 H1230 0.960 . S
C1244 H1231 0.960 . S
C1244 C1243 1.524 . S
C1245 C1242 1.403 . S
C1245 C1246 1.392 . S
C1245 C1249 1.495 . S
C1246 C1245 1.392 . S
C1246 C1247 1.385 . S
C1246 C1248 1.478 . S
C1247 H1241 0.930 . S
C1247 C1243 1.400 . S
C1247 C1246 1.385 . S
C1248 C1246 1.478 . S
C1248 C1250 1.381 . S
C1248 C1254 1.383 . S
C1249 C1245 1.495 . S
C1249 H1255 0.959 . S
C1249 H1256 0.961 . S
C1249 H1257 0.960 . S
C1250 C1248 1.381 . S
C1250 C1251 1.394 . S
C1250 H1258 0.930 . S
C1251 C1250 1.394 . S
C1251 C1252 1.383 . S
C1251 H1259 0.929 . S
C1252 C1251 1.383 . S
C1252 C1253 1.377 . S
C1253 H1237 0.930 . S
C1253 C1252 1.377 . S
C1253 C1254 1.379 . S
C1254 H1238 0.931 . S
C1254 C1248 1.383 . S
C1254 C1253 1.379 . S
H1255 C1249 0.959 . S
H1256 C1249 0.961 . S
H1257 C1249 0.960 . S
H1258 C1250 0.930 . S
H1259 C1251 0.929 . S
H1260 C1268 0.929 . S
H1261 C1270 0.930 . S
H1262 C1272 0.930 . S
H1263 C1275 0.929 . S
H1264 C1278 0.930 . S
H1265 C1280 0.960 . S
H1266 C1280 0.960 . S
H1267 C1280 0.960 . S
C1268 H1260 0.929 . S
C1268 C1269 1.377 . S
C1268 C1270 1.384 . S
C1269 C1268 1.377 . S
C1269 C1275 1.390 . S
C1270 H1261 0.930 . S
C1270 C1268 1.384 . S
C1270 C1271 1.372 . S
C1271 C1270 1.372 . S
C1271 C1272 1.400 . S
C1271 C1276 1.490 . S
C1272 H1262 0.930 . S
C1272 C1271 1.400 . S
C1272 C1275 1.386 . S
H1273 C1289 0.930 . S
H1274 C1290 0.931 . S
C1275 H1263 0.929 . S
C1275 C1269 1.390 . S
C1275 C1272 1.386 . S
C1276 C1271 1.490 . S
C1276 C1278 1.395 . S
C1276 C1279 1.403 . S
H1277 C1283 0.930 . S
C1278 H1264 0.930 . S
C1278 C1276 1.395 . S
C1278 C1281 1.403 . S
C1279 C1276 1.403 . S
C1279 C1280 1.524 . S
C1279 C1283 1.400 . S
C1280 H1265 0.960 . S
C1280 H1266 0.960 . S
C1280 H1267 0.960 . S
C1280 C1279 1.524 . S
C1281 C1278 1.403 . S
C1281 C1282 1.392 . S
C1281 C1285 1.495 . S
C1282 C1281 1.392 . S
C1282 C1283 1.385 . S
C1282 C1284 1.478 . S
C1283 H1277 0.930 . S
C1283 C1279 1.400 . S
C1283 C1282 1.385 . S
C1284 C1282 1.478 . S
C1284 C1286 1.381 . S
C1284 C1290 1.383 . S
C1285 C1281 1.495 . S
C1285 H1291 0.959 . S
C1285 H1292 0.961 . S
C1285 H1293 0.960 . S
C1286 C1284 1.381 . S
C1286 C1287 1.406 . S
C1286 H1294 0.930 . S
C1287 C1286 1.406 . S
C1287 C1288 1.379 1_565 S
C1287 H1295 0.922 1_565 S
C1288 C1287 1.379 1_545 S
C1288 C1289 1.377 1_545 S
C1289 H1273 0.930 . S
C1289 C1288 1.377 1_565 S
C1289 C1290 1.379 . S
C1290 H1274 0.931 . S
C1290 C1284 1.383 . S
C1290 C1289 1.379 . S
H1291 C1285 0.959 . S
H1292 C1285 0.961 . S
H1293 C1285 0.960 . S
H1294 C1286 0.930 . S
H1295 C1287 0.922 1_545 S
H1296 C1304 0.929 . S
H1297 C1306 0.930 . S
H1298 C1308 0.930 . S
H1299 C1311 0.929 . S
H1300 C1314 0.930 . S
H1301 C1316 0.960 . S
H1302 C1316 0.960 . S
H1303 C1316 0.960 . S
C1304 H1296 0.929 . S
C1304 C1305 1.377 . S
C1304 C1306 1.384 . S
C1305 C1304 1.377 . S
C1305 C1311 1.390 . S
C1306 H1297 0.930 . S
C1306 C1304 1.384 . S
C1306 C1307 1.372 . S
C1307 C1306 1.372 . S
C1307 C1308 1.400 . S
C1307 C1312 1.490 . S
C1308 H1298 0.930 . S
C1308 C1307 1.400 . S
C1308 C1311 1.386 . S
H1309 C1325 0.930 . S
H1310 C1326 0.931 . S
C1311 H1299 0.929 . S
C1311 C1305 1.390 . S
C1311 C1308 1.386 . S
C1312 C1307 1.490 . S
C1312 C1314 1.395 . S
C1312 C1315 1.403 . S
H1313 C1319 0.930 . S
C1314 H1300 0.930 . S
C1314 C1312 1.395 . S
C1314 C1317 1.403 . S
C1315 C1312 1.403 . S
C1315 C1316 1.524 . S
C1315 C1319 1.400 . S
C1316 H1301 0.960 . S
C1316 H1302 0.960 . S
C1316 H1303 0.960 . S
C1316 C1315 1.524 . S
C1317 C1314 1.403 . S
C1317 C1318 1.392 . S
C1317 C1321 1.495 . S
C1318 C1317 1.392 . S
C1318 C1319 1.385 . S
C1318 C1320 1.478 . S
C1319 H1313 0.930 . S
C1319 C1315 1.400 . S
C1319 C1318 1.385 . S
C1320 C1318 1.478 . S
C1320 C1322 1.381 . S
C1320 C1326 1.383 . S
C1321 C1317 1.495 . S
C1321 H1327 0.959 . S
C1321 H1328 0.961 . S
C1321 H1329 0.960 . S
C1322 C1320 1.381 . S
C1322 C1323 1.394 . S
C1322 H1330 0.930 . S
C1323 C1322 1.394 . S
C1323 C1324 1.383 1_545 S
C1323 H1331 0.929 . S
C1324 C1323 1.383 1_565 S
C1324 C1325 1.377 . S
C1325 H1309 0.930 . S
C1325 C1324 1.377 . S
C1325 C1326 1.379 1_565 S
C1326 H1310 0.931 . S
C1326 C1320 1.383 . S
C1326 C1325 1.379 1_545 S
H1327 C1321 0.959 . S
H1328 C1321 0.961 . S
H1329 C1321 0.960 . S
H1330 C1322 0.930 . S
H1331 C1323 0.929 . S
H1332 C1340 0.929 . S
H1333 C1342 0.930 . S
H1334 C1344 0.930 . S
H1335 C1347 0.929 . S
H1336 C1350 0.930 . S
H1337 C1352 0.960 . S
H1338 C1352 0.960 . S
H1339 C1352 0.960 . S
C1340 H1332 0.929 . S
C1340 C1341 1.377 . S
C1340 C1342 1.384 . S
C1341 C1340 1.377 . S
C1341 C1347 1.390 . S
C1342 H1333 0.930 . S
C1342 C1340 1.384 . S
C1342 C1343 1.372 . S
C1343 C1342 1.372 . S
C1343 C1344 1.400 . S
C1343 C1348 1.490 . S
C1344 H1334 0.930 . S
C1344 C1343 1.400 . S
C1344 C1347 1.386 . S
H1345 C1361 0.930 . S
H1346 C1362 0.931 . S
C1347 H1335 0.929 . S
C1347 C1341 1.390 . S
C1347 C1344 1.386 . S
C1348 C1343 1.490 . S
C1348 C1350 1.395 . S
C1348 C1351 1.403 . S
H1349 C1355 0.930 . S
C1350 H1336 0.930 . S
C1350 C1348 1.395 . S
C1350 C1353 1.403 . S
C1351 C1348 1.403 . S
C1351 C1352 1.524 . S
C1351 C1355 1.400 . S
C1352 H1337 0.960 . S
C1352 H1338 0.960 . S
C1352 H1339 0.960 . S
C1352 C1351 1.524 . S
C1353 C1350 1.403 . S
C1353 C1354 1.392 . S
C1353 C1357 1.495 . S
C1354 C1353 1.392 . S
C1354 C1355 1.385 . S
C1354 C1356 1.478 . S
C1355 H1349 0.930 . S
C1355 C1351 1.400 . S
C1355 C1354 1.385 . S
C1356 C1354 1.478 . S
C1356 C1358 1.381 . S
C1356 C1362 1.383 . S
C1357 C1353 1.495 . S
C1357 H1363 0.959 . S
C1357 H1364 0.961 . S
C1357 H1365 0.960 . S
C1358 C1356 1.381 . S
C1358 C1359 1.394 . S
C1358 H1366 0.930 . S
C1359 C1358 1.394 . S
C1359 C1360 1.383 . S
C1359 H1367 0.929 . S
C1360 C1359 1.383 . S
C1360 C1361 1.377 . S
C1361 H1345 0.930 . S
C1361 C1360 1.377 . S
C1361 C1362 1.379 . S
C1362 H1346 0.931 . S
C1362 C1356 1.383 . S
C1362 C1361 1.379 . S
H1363 C1357 0.959 . S
H1364 C1357 0.961 . S
H1365 C1357 0.960 . S
H1366 C1358 0.930 . S
H1367 C1359 0.929 . S
H1368 C1376 0.929 . S
H1369 C1378 0.930 . S
H1370 C1380 0.930 . S
H1371 C1383 0.929 . S
H1372 C1386 0.930 . S
H1373 C1388 0.960 . S
H1374 C1388 0.960 . S
H1375 C1388 0.960 . S
C1376 H1368 0.929 . S
C1376 C1377 1.377 . S
C1376 C1378 1.384 . S
C1377 C1376 1.377 . S
C1377 C1383 1.390 . S
C1378 H1369 0.930 . S
C1378 C1376 1.384 . S
C1378 C1379 1.372 . S
C1379 C1378 1.372 . S
C1379 C1380 1.400 . S
C1379 C1384 1.490 . S
C1380 H1370 0.930 . S
C1380 C1379 1.400 . S
C1380 C1383 1.386 . S
H1381 C1397 0.930 . S
H1382 C1398 0.931 . S
C1383 H1371 0.929 . S
C1383 C1377 1.390 . S
C1383 C1380 1.386 . S
C1384 C1379 1.490 . S
C1384 C1386 1.395 . S
C1384 C1387 1.403 . S
H1385 C1391 0.930 . S
C1386 H1372 0.930 . S
C1386 C1384 1.395 . S
C1386 C1389 1.403 . S
C1387 C1384 1.403 . S
C1387 C1388 1.524 . S
C1387 C1391 1.400 . S
C1388 H1373 0.960 . S
C1388 H1374 0.960 . S
C1388 H1375 0.960 . S
C1388 C1387 1.524 . S
C1389 C1386 1.403 . S
C1389 C1390 1.392 . S
C1389 C1393 1.495 . S
C1390 C1389 1.392 . S
C1390 C1391 1.385 . S
C1390 C1392 1.478 . S
C1391 H1385 0.930 . S
C1391 C1387 1.400 . S
C1391 C1390 1.385 . S
C1392 C1390 1.478 . S
C1392 C1394 1.381 . S
C1392 C1398 1.383 . S
C1393 C1389 1.495 . S
C1393 H1399 0.959 . S
C1393 H1400 0.961 . S
C1393 H1401 0.960 . S
C1394 C1392 1.381 . S
C1394 C1395 1.394 . S
C1394 H1402 0.930 . S
C1395 C1394 1.394 . S
C1395 C1396 1.383 . S
C1395 H1403 0.929 . S
C1396 C1395 1.383 . S
C1396 C1397 1.377 . S
C1397 H1381 0.930 . S
C1397 C1396 1.377 . S
C1397 C1398 1.379 . S
C1398 H1382 0.931 . S
C1398 C1392 1.383 . S
C1398 C1397 1.379 . S
H1399 C1393 0.959 . S
H1400 C1393 0.961 . S
H1401 C1393 0.960 . S
H1402 C1394 0.930 . S
H1403 C1395 0.929 . S
H1404 C1412 0.929 . S
H1405 C1414 0.930 . S
H1406 C1416 0.930 . S
H1407 C1419 0.929 . S
H1408 C1422 0.930 . S
H1409 C1424 0.960 . S
H1410 C1424 0.960 . S
H1411 C1424 0.960 . S
C1412 H1404 0.929 . S
C1412 C1413 1.377 1_545 S
C1412 C1414 1.384 . S
C1413 C1412 1.377 1_565 S
C1413 C1419 1.390 . S
C1414 H1405 0.930 . S
C1414 C1412 1.384 . S
C1414 C1415 1.372 . S
C1415 C1414 1.372 . S
C1415 C1416 1.400 . S
C1415 C1420 1.490 . S
C1416 H1406 0.930 . S
C1416 C1415 1.400 . S
C1416 C1419 1.386 1_545 S
H1417 C1433 0.930 . S
H1418 C1434 0.931 . S
C1419 H1407 0.929 . S
C1419 C1413 1.390 . S
C1419 C1416 1.386 1_565 S
C1420 C1415 1.490 . S
C1420 C1422 1.395 . S
C1420 C1423 1.403 . S
H1421 C1427 0.930 . S
C1422 H1408 0.930 . S
C1422 C1420 1.395 . S
C1422 C1425 1.403 . S
C1423 C1420 1.403 . S
C1423 C1424 1.524 . S
C1423 C1427 1.400 . S
C1424 H1409 0.960 . S
C1424 H1410 0.960 . S
C1424 H1411 0.960 . S
C1424 C1423 1.524 . S
C1425 C1422 1.403 . S
C1425 C1426 1.392 . S
C1425 C1429 1.495 . S
C1426 C1425 1.392 . S
C1426 C1427 1.385 . S
C1426 C1428 1.478 . S
C1427 H1421 0.930 . S
C1427 C1423 1.400 . S
C1427 C1426 1.385 . S
C1428 C1426 1.478 . S
C1428 C1430 1.381 . S
C1428 C1434 1.383 . S
C1429 C1425 1.495 . S
C1429 H1435 0.959 . S
C1429 H1436 0.961 . S
C1429 H1437 0.960 . S
C1430 C1428 1.381 . S
C1430 C1431 1.394 . S
C1430 H1438 0.930 . S
C1431 C1430 1.394 . S
C1431 C1432 1.383 . S
C1431 H1439 0.929 . S
C1432 C1431 1.383 . S
C1432 C1433 1.377 . S
C1433 H1417 0.930 . S
C1433 C1432 1.377 . S
C1433 C1434 1.379 . S
C1434 H1418 0.931 . S
C1434 C1428 1.383 . S
C1434 C1433 1.379 . S
H1435 C1429 0.959 . S
H1436 C1429 0.961 . S
H1437 C1429 0.960 . S
H1438 C1430 0.930 . S
H1439 C1431 0.929 . S
H1440 C1448 0.929 . S
H1441 C1450 0.930 . S
H1442 C1452 0.930 . S
H1443 C1455 0.929 . S
H1444 C1458 0.930 . S
H1445 C1460 0.960 . S
H1446 C1460 0.960 . S
H1447 C1460 0.960 . S
C1448 H1440 0.929 . S
C1448 C1449 1.377 . S
C1448 C1450 1.384 . S
C1449 C1448 1.377 . S
C1449 C1455 1.390 . S
C1450 H1441 0.930 . S
C1450 C1448 1.384 . S
C1450 C1451 1.372 . S
C1451 C1450 1.372 . S
C1451 C1452 1.400 . S
C1451 C1456 1.490 . S
C1452 H1442 0.930 . S
C1452 C1451 1.400 . S
C1452 C1455 1.386 . S
H1453 C1469 0.930 . S
H1454 C1470 0.931 . S
C1455 H1443 0.929 . S
C1455 C1449 1.390 . S
C1455 C1452 1.386 . S
C1456 C1451 1.490 . S
C1456 C1458 1.395 . S
C1456 C1459 1.403 . S
H1457 C1463 0.930 . S
C1458 H1444 0.930 . S
C1458 C1456 1.395 . S
C1458 C1461 1.403 . S
C1459 C1456 1.403 . S
C1459 C1460 1.524 . S
C1459 C1463 1.400 . S
C1460 H1445 0.960 . S
C1460 H1446 0.960 . S
C1460 H1447 0.960 . S
C1460 C1459 1.524 . S
C1461 C1458 1.403 . S
C1461 C1462 1.392 . S
C1461 C1465 1.495 . S
C1462 C1461 1.392 . S
C1462 C1463 1.385 . S
C1462 C1464 1.478 . S
C1463 H1457 0.930 . S
C1463 C1459 1.400 . S
C1463 C1462 1.385 . S
C1464 C1462 1.478 . S
C1464 C1466 1.381 . S
C1464 C1470 1.383 . S
C1465 C1461 1.495 . S
C1465 H1471 0.959 . S
C1465 H1472 0.961 . S
C1465 H1473 0.960 . S
C1466 C1464 1.381 . S
C1466 C1467 1.401 . S
C1466 H1474 0.930 . S
C1467 C1466 1.401 . S
C1467 C1468 1.378 1_565 S
C1467 H1475 0.927 1_565 S
C1468 C1467 1.378 1_545 S
C1468 C1469 1.377 . S
C1469 H1453 0.930 . S
C1469 C1468 1.377 . S
C1469 C1470 1.379 1_545 S
C1470 H1454 0.931 . S
C1470 C1464 1.383 . S
C1470 C1469 1.379 1_565 S
H1471 C1465 0.959 . S
H1472 C1465 0.961 . S
H1473 C1465 0.960 . S
H1474 C1466 0.930 . S
H1475 C1467 0.927 1_545 S
H1476 C1484 0.929 . S
H1477 C1486 0.930 . S
H1478 C1488 0.930 . S
H1479 C1491 0.929 . S
H1480 C1494 0.930 . S
H1481 C1496 0.960 . S
H1482 C1496 0.960 . S
H1483 C1496 0.960 . S
C1484 H1476 0.929 . S
C1484 C1485 1.377 . S
C1484 C1486 1.384 . S
C1485 C1484 1.377 . S
C1485 C1491 1.390 . S
C1486 H1477 0.930 . S
C1486 C1484 1.384 . S
C1486 C1487 1.372 . S
C1487 C1486 1.372 . S
C1487 C1488 1.400 . S
C1487 C1492 1.490 . S
C1488 H1478 0.930 . S
C1488 C1487 1.400 . S
C1488 C1491 1.386 . S
H1489 C1505 0.930 . S
H1490 C1506 0.931 . S
C1491 H1479 0.929 . S
C1491 C1485 1.390 . S
C1491 C1488 1.386 . S
C1492 C1487 1.490 . S
C1492 C1494 1.395 . S
C1492 C1495 1.403 . S
H1493 C1499 0.930 . S
C1494 H1480 0.930 . S
C1494 C1492 1.395 . S
C1494 C1497 1.403 . S
C1495 C1492 1.403 . S
C1495 C1496 1.524 . S
C1495 C1499 1.400 . S
C1496 H1481 0.960 . S
C1496 H1482 0.960 . S
C1496 H1483 0.960 . S
C1496 C1495 1.524 . S
C1497 C1494 1.403 . S
C1497 C1498 1.392 . S
C1497 C1501 1.495 . S
C1498 C1497 1.392 . S
C1498 C1499 1.385 . S
C1498 C1500 1.478 . S
C1499 H1493 0.930 . S
C1499 C1495 1.400 . S
C1499 C1498 1.385 . S
C1500 C1498 1.478 . S
C1500 C1502 1.381 . S
C1500 C1506 1.383 . S
C1501 C1497 1.495 . S
C1501 H1507 0.959 . S
C1501 H1508 0.961 . S
C1501 H1509 0.960 . S
C1502 C1500 1.381 . S
C1502 C1503 1.394 . S
C1502 H1510 0.930 . S
C1503 C1502 1.394 . S
C1503 C1504 1.383 . S
C1503 H1511 0.929 . S
C1504 C1503 1.383 . S
C1504 C1505 1.377 . S
C1505 H1489 0.930 . S
C1505 C1504 1.377 . S
C1505 C1506 1.379 . S
C1506 H1490 0.931 . S
C1506 C1500 1.383 . S
C1506 C1505 1.379 . S
H1507 C1501 0.959 . S
H1508 C1501 0.961 . S
H1509 C1501 0.960 . S
H1510 C1502 0.930 . S
H1511 C1503 0.929 . S
H1512 C1520 0.929 . S
H1513 C1522 0.930 . S
H1514 C1524 0.930 . S
H1515 C1527 0.929 . S
H1516 C1530 0.930 . S
H1517 C1532 0.960 . S
H1518 C1532 0.960 . S
H1519 C1532 0.960 . S
C1520 H1512 0.929 . S
C1520 C1521 1.377 . S
C1520 C1522 1.384 . S
C1521 C1520 1.377 . S
C1521 C1527 1.390 . S
C1522 H1513 0.930 . S
C1522 C1520 1.384 . S
C1522 C1523 1.372 . S
C1523 C1522 1.372 . S
C1523 C1524 1.400 . S
C1523 C1528 1.490 . S
C1524 H1514 0.930 . S
C1524 C1523 1.400 . S
C1524 C1527 1.386 . S
H1525 C1541 0.930 . S
H1526 C1542 0.931 . S
C1527 H1515 0.929 . S
C1527 C1521 1.390 . S
C1527 C1524 1.386 . S
C1528 C1523 1.490 . S
C1528 C1530 1.395 . S
C1528 C1531 1.403 . S
H1529 C1535 0.930 . S
C1530 H1516 0.930 . S
C1530 C1528 1.395 . S
C1530 C1533 1.403 . S
C1531 C1528 1.403 . S
C1531 C1532 1.524 . S
C1531 C1535 1.400 . S
C1532 H1517 0.960 . S
C1532 H1518 0.960 . S
C1532 H1519 0.960 . S
C1532 C1531 1.524 . S
C1533 C1530 1.403 . S
C1533 C1534 1.392 . S
C1533 C1537 1.495 . S
C1534 C1533 1.392 . S
C1534 C1535 1.385 . S
C1534 C1536 1.478 . S
C1535 H1529 0.930 . S
C1535 C1531 1.400 . S
C1535 C1534 1.385 . S
C1536 C1534 1.478 . S
C1536 C1538 1.381 . S
C1536 C1542 1.383 . S
C1537 C1533 1.495 . S
C1537 H1543 0.959 . S
C1537 H1544 0.961 . S
C1537 H1545 0.960 . S
C1538 C1536 1.381 . S
C1538 C1539 1.394 . S
C1538 H1546 0.930 . S
C1539 C1538 1.394 . S
C1539 C1540 1.383 . S
C1539 H1547 0.929 . S
C1540 C1539 1.383 . S
C1540 C1541 1.377 . S
C1541 H1525 0.930 . S
C1541 C1540 1.377 . S
C1541 C1542 1.379 . S
C1542 H1526 0.931 . S
C1542 C1536 1.383 . S
C1542 C1541 1.379 . S
H1543 C1537 0.959 . S
H1544 C1537 0.961 . S
H1545 C1537 0.960 . S
H1546 C1538 0.930 . S
H1547 C1539 0.929 . S
H1548 C1556 0.929 . S
H1549 C1558 0.930 . S
H1550 C1560 0.930 . S
H1551 C1563 0.929 . S
H1552 C1566 0.930 . S
H1553 C1568 0.960 . S
H1554 C1568 0.960 . S
H1555 C1568 0.960 . S
C1556 H1548 0.929 . S
C1556 C1557 1.377 . S
C1556 C1558 1.384 . S
C1557 C1556 1.377 . S
C1557 C1563 1.390 . S
C1558 H1549 0.930 . S
C1558 C1556 1.384 . S
C1558 C1559 1.372 . S
C1559 C1558 1.372 . S
C1559 C1560 1.400 . S
C1559 C1564 1.490 . S
C1560 H1550 0.930 . S
C1560 C1559 1.400 . S
C1560 C1563 1.386 . S
H1561 C1577 0.930 1_545 S
H1562 C1578 0.931 . S
C1563 H1551 0.929 . S
C1563 C1557 1.390 . S
C1563 C1560 1.386 . S
C1564 C1559 1.490 . S
C1564 C1566 1.395 . S
C1564 C1567 1.403 . S
H1565 C1571 0.930 . S
C1566 H1552 0.930 . S
C1566 C1564 1.395 . S
C1566 C1569 1.403 . S
C1567 C1564 1.403 . S
C1567 C1568 1.524 . S
C1567 C1571 1.400 . S
C1568 H1553 0.960 . S
C1568 H1554 0.960 . S
C1568 H1555 0.960 . S
C1568 C1567 1.524 . S
C1569 C1566 1.403 . S
C1569 C1570 1.392 . S
C1569 C1573 1.495 . S
C1570 C1569 1.392 . S
C1570 C1571 1.385 . S
C1570 C1572 1.478 . S
C1571 H1565 0.930 . S
C1571 C1567 1.400 . S
C1571 C1570 1.385 . S
C1572 C1570 1.478 . S
C1572 C1574 1.381 . S
C1572 C1578 1.383 . S
C1573 C1569 1.495 . S
C1573 H1579 0.959 . S
C1573 H1580 0.961 . S
C1573 H1581 0.960 . S
C1574 C1572 1.381 . S
C1574 C1575 1.394 1_565 S
C1574 H1582 0.930 . S
C1575 C1574 1.394 1_545 S
C1575 C1576 1.383 . S
C1575 H1583 0.929 . S
C1576 C1575 1.383 . S
C1576 C1577 1.377 1_545 S
C1577 H1561 0.930 1_565 S
C1577 C1576 1.377 1_565 S
C1577 C1578 1.379 . S
C1578 H1562 0.931 . S
C1578 C1572 1.383 . S
C1578 C1577 1.379 . S
H1579 C1573 0.959 . S
H1580 C1573 0.961 . S
H1581 C1573 0.960 . S
H1582 C1574 0.930 . S
H1583 C1575 0.929 . S
H1584 C1592 0.929 . S
H1585 C1594 0.930 . S
H1586 C1596 0.930 . S
H1587 C1599 0.929 . S
H1588 C1602 0.930 . S
H1589 C1604 0.960 . S
H1590 C1604 0.960 . S
H1591 C1604 0.960 . S
C1592 H1584 0.929 . S
C1592 C1593 1.377 . S
C1592 C1594 1.384 . S
C1593 C1592 1.377 . S
C1593 C1599 1.390 . S
C1594 H1585 0.930 . S
C1594 C1592 1.384 . S
C1594 C1595 1.372 . S
C1595 C1594 1.372 . S
C1595 C1596 1.400 . S
C1595 C1600 1.490 . S
C1596 H1586 0.930 . S
C1596 C1595 1.400 . S
C1596 C1599 1.386 . S
H1597 C1613 0.930 . S
H1598 C1614 0.931 . S
C1599 H1587 0.929 . S
C1599 C1593 1.390 . S
C1599 C1596 1.386 . S
C1600 C1595 1.490 . S
C1600 C1602 1.395 . S
C1600 C1603 1.403 . S
H1601 C1607 0.930 . S
C1602 H1588 0.930 . S
C1602 C1600 1.395 . S
C1602 C1605 1.403 . S
C1603 C1600 1.403 . S
C1603 C1604 1.524 . S
C1603 C1607 1.400 . S
C1604 H1589 0.960 . S
C1604 H1590 0.960 . S
C1604 H1591 0.960 . S
C1604 C1603 1.524 . S
C1605 C1602 1.403 . S
C1605 C1606 1.392 . S
C1605 C1609 1.495 . S
C1606 C1605 1.392 . S
C1606 C1607 1.385 . S
C1606 C1608 1.478 . S
C1607 H1601 0.930 . S
C1607 C1603 1.400 . S
C1607 C1606 1.385 . S
C1608 C1606 1.478 . S
C1608 C1610 1.381 . S
C1608 C1614 1.383 . S
C1609 C1605 1.495 . S
C1609 H1615 0.959 . S
C1609 H1616 0.961 . S
C1609 H1617 0.960 . S
C1610 C1608 1.381 . S
C1610 C1611 1.394 1_545 S
C1610 H1618 0.930 . S
C1611 C1610 1.394 1_565 S
C1611 C1612 1.383 . S
C1611 H1619 0.929 . S
C1612 C1611 1.383 . S
C1612 C1613 1.377 . S
C1613 H1597 0.930 . S
C1613 C1612 1.377 . S
C1613 C1614 1.379 1_565 S
C1614 H1598 0.931 . S
C1614 C1608 1.383 . S
C1614 C1613 1.379 1_545 S
H1615 C1609 0.959 . S
H1616 C1609 0.961 . S
H1617 C1609 0.960 . S
H1618 C1610 0.930 . S
H1619 C1611 0.929 . S
H1620 C1628 0.929 . S
H1621 C1630 0.930 . S
H1622 C1632 0.930 . S
H1623 C1635 0.929 . S
H1624 C1638 0.930 . S
H1625 C1640 0.960 . S
H1626 C1640 0.960 . S
H1627 C1640 0.960 . S
C1628 H1620 0.929 . S
C1628 C1629 1.377 . S
C1628 C1630 1.384 . S
C1629 C1628 1.377 . S
C1629 C1635 1.390 . S
C1630 H1621 0.930 . S
C1630 C1628 1.384 . S
C1630 C1631 1.372 . S
C1631 C1630 1.372 . S
C1631 C1632 1.400 . S
C1631 C1636 1.490 . S
C1632 H1622 0.930 . S
C1632 C1631 1.400 . S
C1632 C1635 1.386 . S
H1633 C1649 0.930 . S
H1634 C1650 0.931 . S
C1635 H1623 0.929 . S
C1635 C1629 1.390 . S
C1635 C1632 1.386 . S
C1636 C1631 1.490 . S
C1636 C1638 1.395 . S
C1636 C1639 1.403 . S
H1637 C1643 0.930 . S
C1638 H1624 0.930 . S
C1638 C1636 1.395 . S
C1638 C1641 1.403 . S
C1639 C1636 1.403 . S
C1639 C1640 1.524 . S
C1639 C1643 1.400 . S
C1640 H1625 0.960 . S
C1640 H1626 0.960 . S
C1640 H1627 0.960 . S
C1640 C1639 1.524 . S
C1641 C1638 1.403 . S
C1641 C1642 1.392 . S
C1641 C1645 1.495 . S
C1642 C1641 1.392 . S
C1642 C1643 1.385 . S
C1642 C1644 1.478 . S
C1643 H1637 0.930 . S
C1643 C1639 1.400 . S
C1643 C1642 1.385 . S
C1644 C1642 1.478 . S
C1644 C1646 1.381 . S
C1644 C1650 1.383 . S
C1645 C1641 1.495 . S
C1645 H1651 0.959 . S
C1645 H1652 0.961 . S
C1645 H1653 0.960 . S
C1646 C1644 1.381 . S
C1646 C1647 1.394 . S
C1646 H1654 0.930 . S
C1647 C1646 1.394 . S
C1647 C1648 1.383 . S
C1647 H1655 0.929 . S
C1648 C1647 1.383 . S
C1648 C1649 1.377 . S
C1649 H1633 0.930 . S
C1649 C1648 1.377 . S
C1649 C1650 1.379 . S
C1650 H1634 0.931 . S
C1650 C1644 1.383 . S
C1650 C1649 1.379 . S
H1651 C1645 0.959 . S
H1652 C1645 0.961 . S
H1653 C1645 0.960 . S
H1654 C1646 0.930 . S
H1655 C1647 0.929 . S
H1656 C1664 0.929 . S
H1657 C1666 0.930 . S
H1658 C1668 0.930 . S
H1659 C1671 0.929 . S
H1660 C1674 0.930 . S
H1661 C1676 0.960 . S
H1662 C1676 0.960 . S
H1663 C1676 0.960 . S
C1664 H1656 0.929 . S
C1664 C1665 1.377 . S
C1664 C1666 1.384 . S
C1665 C1664 1.377 . S
C1665 C1671 1.390 . S
C1666 H1657 0.930 . S
C1666 C1664 1.384 . S
C1666 C1667 1.372 . S
C1667 C1666 1.372 . S
C1667 C1668 1.400 . S
C1667 C1672 1.490 . S
C1668 H1658 0.930 . S
C1668 C1667 1.400 . S
C1668 C1671 1.386 . S
H1669 C1685 0.930 . S
H1670 C1686 0.931 . S
C1671 H1659 0.929 . S
C1671 C1665 1.390 . S
C1671 C1668 1.386 . S
C1672 C1667 1.490 . S
C1672 C1674 1.395 . S
C1672 C1675 1.403 . S
H1673 C1679 0.930 . S
C1674 H1660 0.930 . S
C1674 C1672 1.395 . S
C1674 C1677 1.403 . S
C1675 C1672 1.403 . S
C1675 C1676 1.524 . S
C1675 C1679 1.400 . S
C1676 H1661 0.960 . S
C1676 H1662 0.960 . S
C1676 H1663 0.960 . S
C1676 C1675 1.524 . S
C1677 C1674 1.403 . S
C1677 C1678 1.392 . S
C1677 C1681 1.495 . S
C1678 C1677 1.392 . S
C1678 C1679 1.385 . S
C1678 C1680 1.478 . S
C1679 H1673 0.930 . S
C1679 C1675 1.400 . S
C1679 C1678 1.385 . S
C1680 C1678 1.478 . S
C1680 C1682 1.381 . S
C1680 C1686 1.383 . S
C1681 C1677 1.495 . S
C1681 H1687 0.959 . S
C1681 H1688 0.961 . S
C1681 H1689 0.960 . S
C1682 C1680 1.381 . S
C1682 C1683 1.394 . S
C1682 H1690 0.930 . S
C1683 C1682 1.394 . S
C1683 C1684 1.383 . S
C1683 H1691 0.929 . S
C1684 C1683 1.383 . S
C1684 C1685 1.377 . S
C1685 H1669 0.930 . S
C1685 C1684 1.377 . S
C1685 C1686 1.379 . S
C1686 H1670 0.931 . S
C1686 C1680 1.383 . S
C1686 C1685 1.379 . S
H1687 C1681 0.959 . S
H1688 C1681 0.961 . S
H1689 C1681 0.960 . S
H1690 C1682 0.930 . S
H1691 C1683 0.929 . S
H1692 C1700 0.929 . S
H1693 C1702 0.930 . S
H1694 C1704 0.930 . S
H1695 C1707 0.929 . S
H1696 C1710 0.930 . S
H1697 C1712 0.960 . S
H1698 C1712 0.960 . S
H1699 C1712 0.960 . S
C1700 H1692 0.929 . S
C1700 C1701 1.377 . S
C1700 C1702 1.384 . S
C1701 C1700 1.377 . S
C1701 C1707 1.390 . S
C1702 H1693 0.930 . S
C1702 C1700 1.384 . S
C1702 C1703 1.372 . S
C1703 C1702 1.372 . S
C1703 C1704 1.400 . S
C1703 C1708 1.490 . S
C1704 H1694 0.930 . S
C1704 C1703 1.400 . S
C1704 C1707 1.386 . S
H1705 C1721 0.930 . S
H1706 C1722 0.931 . S
C1707 H1695 0.929 . S
C1707 C1701 1.390 . S
C1707 C1704 1.386 . S
C1708 C1703 1.490 . S
C1708 C1710 1.395 . S
C1708 C1711 1.403 . S
H1709 C1715 0.930 . S
C1710 H1696 0.930 . S
C1710 C1708 1.395 . S
C1710 C1713 1.403 . S
C1711 C1708 1.403 . S
C1711 C1712 1.524 . S
C1711 C1715 1.400 . S
C1712 H1697 0.960 . S
C1712 H1698 0.960 . S
C1712 H1699 0.960 . S
C1712 C1711 1.524 . S
C1713 C1710 1.403 . S
C1713 C1714 1.392 . S
C1713 C1717 1.495 . S
C1714 C1713 1.392 . S
C1714 C1715 1.385 . S
C1714 C1716 1.478 . S
C1715 H1709 0.930 . S
C1715 C1711 1.400 . S
C1715 C1714 1.385 . S
C1716 C1714 1.478 . S
C1716 C1718 1.381 . S
C1716 C1722 1.383 . S
C1717 C1713 1.495 . S
C1717 H1723 0.959 . S
C1717 H1724 0.961 . S
C1717 H1725 0.960 . S
C1718 C1716 1.381 . S
C1718 C1719 1.394 . S
C1718 H1726 0.930 . S
C1719 C1718 1.394 . S
C1719 C1720 1.383 1_545 S
C1719 H1727 0.929 . S
C1720 C1719 1.383 1_565 S
C1720 C1721 1.377 . S
C1721 H1705 0.930 . S
C1721 C1720 1.377 . S
C1721 C1722 1.379 1_565 S
C1722 H1706 0.931 . S
C1722 C1716 1.383 . S
C1722 C1721 1.379 1_545 S
H1723 C1717 0.959 . S
H1724 C1717 0.961 . S
H1725 C1717 0.960 . S
H1726 C1718 0.930 . S
H1727 C1719 0.929 . S
C585 C518 1.454 . S
C604 C14 1.451 . S
C621 C75 1.495 . S
C640 C3 1.491 . S
C657 C410 1.447 . S
C676 C50 1.421 . S
C693 C39 1.496 . S
C712 C255 1.491 . S
C729 C86 1.452 . S
C748 C446 1.433 . S
C765 C338 1.453 . S
C784 C122 1.470 . S
C801 C111 1.495 . S
C820 C183 1.492 . S
C837 C374 1.444 . S
C856 C158 1.438 . S
C873 C147 1.495 . S
C892 C219 1.493 . S
C909 C554 1.451 . S
C928 C194 1.471 . S
C945 C302 1.446 . S
C964 C230 1.420 . S
C981 C482 1.450 . S
C1000 C266 1.427 . S
C1017 C291 1.496 . S
C1036 C363 1.493 . S
C1053 C543 1.496 . S
C1072 C327 1.494 . S
C1089 C399 1.496 . S
C1108 C471 1.492 . S
C1125 C507 1.496 . S
C1144 C435 1.493 . S
C1161 C182 1.275 . S
C1180 C2 1.291 . S
C1197 C4 1.349 . S
C1216 C184 1.349 . S
C1233 C38 1.276 . S
C1252 C146 1.291 . S
C1269 C148 1.351 . S
C1288 C40 1.351 . S
C1305 C254 1.280 . S
C1324 C74 1.265 . S
C1341 C256 1.352 . S
C1360 C76 1.347 . S
C1377 C218 1.279 . S
C1396 C110 1.262 . S
C1413 C112 1.349 . S
C1432 C220 1.347 . S
C1449 C470 1.276 . S
C1468 C290 1.283 . S
C1485 C292 1.351 . S
C1504 C472 1.354 . S
C1521 C326 1.282 . S
C1540 C434 1.258 . S
C1557 C436 1.351 . S
C1576 C328 1.341 . S
C1593 C542 1.275 . S
C1612 C362 1.260 . S
C1629 C544 1.353 . S
C1648 C364 1.349 . S
C1665 C398 1.281 . S
C1684 C506 1.292 . S
C1701 C508 1.353 . S
C1720 C400 1.351 . S
