# Generated by pormake.
# Topology fnh, (5)-cn, num edge types: 1
# Building blocks:
#     Node 0, Type 0, BuildingBlock: XOMCOT_clean_sbu_0, # of connection points: 5
#     Node 1, Type 0, BuildingBlock: XOMCOT_clean_sbu_0, # of connection points: 5
#     Node 2, Type 0, BuildingBlock: XOMCOT_clean_sbu_0, # of connection points: 5
#     Node 3, Type 0, BuildingBlock: XOMCOT_clean_sbu_0, # of connection points: 5
#     Node 4, Type 0, BuildingBlock: XOMCOT_clean_sbu_0, # of connection points: 5
#     Node 5, Type 0, BuildingBlock: XOMCOT_clean_sbu_0, # of connection points: 5
#     Node 6, Type 0, BuildingBlock: XOMCOT_clean_sbu_0, # of connection points: 5
#     Node 7, Type 0, BuildingBlock: XOMCOT_clean_sbu_0, # of connection points: 5
#     Node 8, Type 0, BuildingBlock: XOMCOT_clean_sbu_0, # of connection points: 5
#     Node 9, Type 0, BuildingBlock: XOMCOT_clean_sbu_0, # of connection points: 5
#     Node 10, Type 0, BuildingBlock: XOMCOT_clean_sbu_0, # of connection points: 5
#     Node 11, Type 0, BuildingBlock: XOMCOT_clean_sbu_0, # of connection points: 5
#     Node 12, Type 0, BuildingBlock: XOMCOT_clean_sbu_0, # of connection points: 5
#     Node 13, Type 0, BuildingBlock: XOMCOT_clean_sbu_0, # of connection points: 5
#     Node 14, Type 0, BuildingBlock: XOMCOT_clean_sbu_0, # of connection points: 5
#     Node 15, Type 0, BuildingBlock: XOMCOT_clean_sbu_0, # of connection points: 5
#     Node 16, Type 0, BuildingBlock: XOMCOT_clean_sbu_0, # of connection points: 5
#     Node 17, Type 0, BuildingBlock: XOMCOT_clean_sbu_0, # of connection points: 5
#     Edge 18, Type (0, 0), BuildingBlock: XUDNAN_clean_linker_2, # of connection points: 2
#     Edge 19, Type (0, 0), BuildingBlock: XUDNAN_clean_linker_2, # of connection points: 2
#     Edge 20, Type (0, 0), BuildingBlock: XUDNAN_clean_linker_2, # of connection points: 2
#     Edge 21, Type (0, 0), BuildingBlock: XUDNAN_clean_linker_2, # of connection points: 2
#     Edge 22, Type (0, 0), BuildingBlock: XUDNAN_clean_linker_2, # of connection points: 2
#     Edge 23, Type (0, 0), BuildingBlock: XUDNAN_clean_linker_2, # of connection points: 2
#     Edge 24, Type (0, 0), BuildingBlock: XUDNAN_clean_linker_2, # of connection points: 2
#     Edge 25, Type (0, 0), BuildingBlock: XUDNAN_clean_linker_2, # of connection points: 2
#     Edge 26, Type (0, 0), BuildingBlock: XUDNAN_clean_linker_2, # of connection points: 2
#     Edge 27, Type (0, 0), BuildingBlock: XUDNAN_clean_linker_2, # of connection points: 2
#     Edge 28, Type (0, 0), BuildingBlock: XUDNAN_clean_linker_2, # of connection points: 2
#     Edge 29, Type (0, 0), BuildingBlock: XUDNAN_clean_linker_2, # of connection points: 2
#     Edge 30, Type (0, 0), BuildingBlock: XUDNAN_clean_linker_2, # of connection points: 2
#     Edge 31, Type (0, 0), BuildingBlock: XUDNAN_clean_linker_2, # of connection points: 2
#     Edge 32, Type (0, 0), BuildingBlock: XUDNAN_clean_linker_2, # of connection points: 2
#     Edge 33, Type (0, 0), BuildingBlock: XUDNAN_clean_linker_2, # of connection points: 2
#     Edge 34, Type (0, 0), BuildingBlock: XUDNAN_clean_linker_2, # of connection points: 2
#     Edge 35, Type (0, 0), BuildingBlock: XUDNAN_clean_linker_2, # of connection points: 2
#     Edge 36, Type (0, 0), BuildingBlock: XUDNAN_clean_linker_2, # of connection points: 2
#     Edge 37, Type (0, 0), BuildingBlock: XUDNAN_clean_linker_2, # of connection points: 2
#     Edge 38, Type (0, 0), BuildingBlock: XUDNAN_clean_linker_2, # of connection points: 2
#     Edge 39, Type (0, 0), BuildingBlock: XUDNAN_clean_linker_2, # of connection points: 2
#     Edge 40, Type (0, 0), BuildingBlock: XUDNAN_clean_linker_2, # of connection points: 2
#     Edge 41, Type (0, 0), BuildingBlock: XUDNAN_clean_linker_2, # of connection points: 2
#     Edge 42, Type (0, 0), BuildingBlock: XUDNAN_clean_linker_2, # of connection points: 2
#     Edge 43, Type (0, 0), BuildingBlock: XUDNAN_clean_linker_2, # of connection points: 2
#     Edge 44, Type (0, 0), BuildingBlock: XUDNAN_clean_linker_2, # of connection points: 2
#     Edge 45, Type (0, 0), BuildingBlock: XUDNAN_clean_linker_2, # of connection points: 2
#     Edge 46, Type (0, 0), BuildingBlock: XUDNAN_clean_linker_2, # of connection points: 2
#     Edge 47, Type (0, 0), BuildingBlock: XUDNAN_clean_linker_2, # of connection points: 2
#     Edge 48, Type (0, 0), BuildingBlock: XUDNAN_clean_linker_2, # of connection points: 2
#     Edge 49, Type (0, 0), BuildingBlock: XUDNAN_clean_linker_2, # of connection points: 2
#     Edge 50, Type (0, 0), BuildingBlock: XUDNAN_clean_linker_2, # of connection points: 2
#     Edge 51, Type (0, 0), BuildingBlock: XUDNAN_clean_linker_2, # of connection points: 2
#     Edge 52, Type (0, 0), BuildingBlock: XUDNAN_clean_linker_2, # of connection points: 2
#     Edge 53, Type (0, 0), BuildingBlock: XUDNAN_clean_linker_2, # of connection points: 2
#     Edge 54, Type (0, 0), BuildingBlock: XUDNAN_clean_linker_2, # of connection points: 2
#     Edge 55, Type (0, 0), BuildingBlock: XUDNAN_clean_linker_2, # of connection points: 2
#     Edge 56, Type (0, 0), BuildingBlock: XUDNAN_clean_linker_2, # of connection points: 2
#     Edge 57, Type (0, 0), BuildingBlock: XUDNAN_clean_linker_2, # of connection points: 2
#     Edge 58, Type (0, 0), BuildingBlock: XUDNAN_clean_linker_2, # of connection points: 2
#     Edge 59, Type (0, 0), BuildingBlock: XUDNAN_clean_linker_2, # of connection points: 2
#     Edge 60, Type (0, 0), BuildingBlock: XUDNAN_clean_linker_2, # of connection points: 2
#     Edge 61, Type (0, 0), BuildingBlock: XUDNAN_clean_linker_2, # of connection points: 2
#     Edge 62, Type (0, 0), BuildingBlock: XUDNAN_clean_linker_2, # of connection points: 2
# Relax obj value: 0.209
# Max RMSD: 0.209
# Mean RMSD: 0.209
data_MOF--net-fnh--node1-XOMCOT_clean_sbu_0--edge1-XUDNAN_clean_linker_2
_symmetry_space_group_name_H-M    P1
_symmetry_Int_Tables_number       1
_symmetry_cell_setting            triclinic
loop_
_symmetry_equiv_pos_as_xyz
'x, y, z'
_cell_length_a     68.634724
_cell_length_b     68.522384
_cell_length_c     23.342011
_cell_angle_alpha  90.03044
_cell_angle_beta   90.010218
_cell_angle_gamma 119.93958
loop_
_atom_site_label
_atom_site_type_symbol
_atom_site_fract_x
_atom_site_fract_y
_atom_site_fract_z
_atom_type_partial_charge
Co0 Co 0.11309 0.19145 0.28964 0.0
C1 C 0.077 0.19775 0.33921 0.0
C2 C 0.06551 0.16353 0.31515 0.0
C3 C 0.04714 0.16547 0.3299 0.0
N4 N 0.08425 0.18379 0.32118 0.0
N5 N 0.05452 0.18708 0.34449 0.0
H6 H 0.08746 0.21557 0.34586 0.0
H7 H 0.06513 0.14861 0.29846 0.0
C8 C 0.08275 0.1883 0.18485 0.0
O9 O 0.07825 0.20246 0.21152 0.0
N10 N 0.14162 0.19899 0.25732 0.0
C11 C 0.1619 0.21301 0.28038 0.0
C12 C 0.17823 0.21494 0.24301 0.0
C13 C 0.14571 0.19254 0.2066 0.0
N14 N 0.16799 0.20208 0.1967 0.0
C15 C 0.12977 0.2354 0.33938 0.0
C16 C 0.13623 0.26038 0.24158 0.0
C17 C 0.14286 0.27195 0.29451 0.0
C18 C 0.13947 0.25886 0.34351 0.0
C19 C 0.12684 0.23664 0.23912 0.0
N20 N 0.12298 0.22419 0.28804 0.0
H21 H 0.12731 0.22617 0.37862 0.0
H22 H 0.12324 0.22849 0.19777 0.0
H23 H 0.16462 0.22146 0.3212 0.0
H24 H 0.13267 0.18156 0.17705 0.0
O25 O 0.12532 0.19086 0.36659 0.0
O26 O 0.10835 0.16116 0.3126 0.0
O27 O 0.09731 0.18365 0.20778 0.0
C28 C 0.11896 0.16975 0.36068 0.0
H29 H 0.02978 0.15206 0.33027 0.0
H30 H 0.1962 0.22497 0.24955 0.0
H31 H 0.13884 0.26966 0.20211 0.0
H32 H 0.14398 0.26665 0.38544 0.0
Co33 Co 0.85202 0.92564 0.31272 0.0
C34 C 0.83533 0.89012 0.39787 0.0
C35 C 0.86582 0.89451 0.36047 0.0
C36 C 0.85846 0.87771 0.4012 0.0
N37 N 0.85104 0.90197 0.35827 0.0
N38 N 0.83926 0.87507 0.42444 0.0
H39 H 0.82185 0.89315 0.40928 0.0
H40 H 0.88108 0.9012 0.33544 0.0
C41 C 0.85875 0.89492 0.21916 0.0
O42 O 0.84613 0.8764 0.2482 0.0
N43 N 0.85266 0.94923 0.26818 0.0
C44 C 0.84129 0.96029 0.27713 0.0
C45 C 0.84759 0.97663 0.2358 0.0
C46 C 0.86589 0.95905 0.22281 0.0
N47 N 0.86307 0.97575 0.20201 0.0
C48 C 0.80569 0.91104 0.34023 0.0
C49 C 0.78404 0.87625 0.26361 0.0
C50 C 0.77071 0.8789 0.30596 0.0
C51 C 0.78226 0.89711 0.3436 0.0
C52 C 0.80777 0.89055 0.26215 0.0
N53 N 0.81864 0.90732 0.30178 0.0
H54 H 0.8134 0.92423 0.37165 0.0
H55 H 0.81711 0.88788 0.22915 0.0
H56 H 0.82953 0.957 0.31153 0.0
H57 H 0.87717 0.9539 0.20497 0.0
O58 O 0.85228 0.94215 0.38332 0.0
O59 O 0.88285 0.94734 0.34199 0.0
O60 O 0.86113 0.91391 0.23817 0.0
C61 C 0.87404 0.95336 0.38308 0.0
H62 H 0.86734 0.86923 0.41533 0.0
H63 H 0.84144 0.98834 0.23126 0.0
H64 H 0.77633 0.86317 0.23153 0.0
H65 H 0.77356 0.90035 0.37761 0.0
Co66 Co 0.11494 0.93851 0.30765 0.0
C67 C 0.15095 0.95391 0.39151 0.0
C68 C 0.15544 0.98122 0.33743 0.0
C69 C 0.17395 0.98869 0.37247 0.0
N70 N 0.14118 0.95939 0.34941 0.0
N71 N 0.17112 0.9714 0.40593 0.0
H72 H 0.14372 0.93724 0.40999 0.0
H73 H 0.15279 0.99098 0.30519 0.0
C74 C 0.13649 0.96279 0.18806 0.0
O75 O 0.1423 0.9477 0.17581 0.0
N76 N 0.0883 0.91724 0.26566 0.0
C77 C 0.06727 0.90442 0.28655 0.0
C78 C 0.0539 0.88986 0.24512 0.0
C79 C 0.08723 0.91013 0.21123 0.0
N80 N 0.06637 0.89344 0.19765 0.0
C81 C 0.11905 0.89899 0.29633 0.0
C82 C 0.16516 0.91976 0.28349 0.0
C83 C 0.15338 0.89648 0.29509 0.0
C84 C 0.12988 0.8862 0.29995 0.0
C85 C 0.15354 0.93196 0.2787 0.0
N86 N 0.13066 0.92171 0.28642 0.0
H87 H 0.10127 0.89063 0.30555 0.0
H88 H 0.16328 0.94996 0.27232 0.0
H89 H 0.06159 0.90469 0.32931 0.0
H90 H 0.10143 0.91671 0.18258 0.0
O91 O 0.10115 0.92173 0.37963 0.0
O92 O 0.09693 0.94954 0.34985 0.0
O93 O 0.1259 0.96085 0.23601 0.0
C94 C 0.09225 0.93427 0.3893 0.0
H95 H 0.18803 1.00571 0.37454 0.0
H96 H 0.03641 0.87718 0.25038 0.0
H97 H 0.18327 0.92857 0.27882 0.0
H98 H 0.11988 0.8684 0.30947 0.0
Co99 Co 0.19734 0.10304 0.74732 0.0
C100 C 0.20186 0.06518 0.70186 0.0
C101 C 0.16744 0.05687 0.70846 0.0
C102 C 0.16805 0.03779 0.69328 0.0
N103 N 0.18868 0.07411 0.71359 0.0
N104 N 0.18976 0.04305 0.68989 0.0
H105 H 0.21988 0.07407 0.70607 0.0
H106 H 0.15245 0.05778 0.71734 0.0
C107 C 0.19255 0.07119 0.8505 0.0
O108 O 0.2052 0.06527 0.82177 0.0
N109 N 0.20593 0.13167 0.78108 0.0
C110 C 0.22054 0.15194 0.75887 0.0
C111 C 0.2232 0.16831 0.79724 0.0
C112 C 0.19985 0.1358 0.83227 0.0
N113 N 0.21021 0.1581 0.84332 0.0
C114 C 0.2406 0.11741 0.69655 0.0
C115 C 0.26589 0.12567 0.79464 0.0
C116 C 0.27733 0.13159 0.74147 0.0
C117 C 0.26407 0.12717 0.69226 0.0
C118 C 0.2422 0.11617 0.79721 0.0
N119 N 0.22966 0.11176 0.74831 0.0
H120 H 0.23115 0.11428 0.65738 0.0
H121 H 0.23411 0.11302 0.83857 0.0
H122 H 0.22891 0.15461 0.718 0.0
H123 H 0.18856 0.12275 0.86134 0.0
O124 O 0.19724 0.11601 0.67104 0.0
O125 O 0.16758 0.09973 0.7252 0.0
O126 O 0.18936 0.087 0.8292 0.0
C127 C 0.17634 0.11034 0.67725 0.0
H128 H 0.15357 0.02138 0.68538 0.0
H129 H 0.23382 0.18629 0.79153 0.0
H130 H 0.27524 0.12895 0.83422 0.0
H131 H 0.27172 0.13098 0.65018 0.0
Co132 Co 0.94449 0.10931 0.74024 0.0
C133 C 0.96639 0.1478 0.66305 0.0
C134 C 0.98996 0.13852 0.69518 0.0
C135 C 1.00126 0.15722 0.66069 0.0
N136 N 0.96818 0.13291 0.69692 0.0
N137 N 0.98632 0.16299 0.64091 0.0
H138 H 0.95083 0.14739 0.65361 0.0
H139 H 0.99705 0.12967 0.71742 0.0
C140 C 0.98117 0.13933 0.83483 0.0
O141 O 0.98739 0.15775 0.80496 0.0
N142 N 0.92076 0.08577 0.78294 0.0
C143 C 0.89846 0.07533 0.77281 0.0
C144 C 0.88783 0.05817 0.81185 0.0
C145 C 0.92352 0.07477 0.82667 0.0
N146 N 0.90372 0.0579 0.84524 0.0
C147 C 0.91365 0.12488 0.71095 0.0
C148 C 0.92688 0.15967 0.78783 0.0
C149 C 0.9111 0.15717 0.74526 0.0
C150 C 0.90432 0.13899 0.70755 0.0
C151 C 0.93585 0.14494 0.78998 0.0
N152 N 0.92994 0.1282 0.7502 0.0
H153 H 0.90825 0.11181 0.67921 0.0
H154 H 0.94752 0.14731 0.82358 0.0
H155 H 0.89045 0.07944 0.73882 0.0
H156 H 0.93972 0.07909 0.84459 0.0
O157 O 0.92889 0.09348 0.66844 0.0
O158 O 0.95319 0.08712 0.71172 0.0
O159 O 0.9645 0.12035 0.81614 0.0
C160 C 0.93886 0.08168 0.66962 0.0
H161 H 1.01884 0.16527 0.64896 0.0
H162 H 0.86992 0.0466 0.81488 0.0
H163 H 0.93235 0.17293 0.81948 0.0
H164 H 0.89246 0.13605 0.67348 0.0
Co165 Co 0.94285 0.84874 0.76257 0.0
C166 C 0.90096 0.84783 0.73103 0.0
C167 C 0.92912 0.8813 0.72665 0.0
C168 C 0.90975 0.88225 0.71798 0.0
N169 N 0.92359 0.85958 0.73395 0.0
N170 N 0.89217 0.86113 0.72116 0.0
H171 H 0.8907 0.82994 0.73783 0.0
H172 H 0.94593 0.89562 0.72886 0.0
C173 C 0.91513 0.84773 0.87199 0.0
O174 O 0.89691 0.8311 0.84925 0.0
N175 N 0.96189 0.83814 0.79203 0.0
C176 C 0.96822 0.82479 0.76495 0.0
C177 C 0.98323 0.82244 0.79938 0.0
C178 C 0.97281 0.84363 0.84216 0.0
N179 N 0.98584 0.83418 0.84779 0.0
C180 C 0.91141 0.80951 0.70111 0.0
C181 C 0.89805 0.77765 0.78688 0.0
C182 C 0.89008 0.77007 0.73074 0.0
C183 C 0.89727 0.7867 0.68802 0.0
C184 C 0.91237 0.80101 0.79841 0.0
N185 N 0.91857 0.81679 0.75576 0.0
H186 H 0.91684 0.82154 0.66645 0.0
H187 H 0.91896 0.80629 0.84122 0.0
H188 H 0.96256 0.81755 0.72285 0.0
H189 H 0.97181 0.85485 0.87314 0.0
O190 O 0.95637 0.85102 0.68569 0.0
O191 O 0.97013 0.87866 0.74691 0.0
O192 O 0.9343 0.85473 0.84585 0.0
C193 C 0.97215 0.87138 0.69674 0.0
H194 H 0.9087 0.89716 0.70857 0.0
H195 H 0.99152 0.8129 0.78982 0.0
H196 H 0.89335 0.76568 0.82164 0.0
H197 H 0.89252 0.78219 0.64369 0.0
Co198 Co 0.77802 0.52367 0.63662 0.0
C199 C 0.75187 0.53757 0.70822 0.0
C200 C 0.73111 0.50573 0.66704 0.0
C201 C 0.71746 0.51214 0.69416 0.0
N202 N 0.7526 0.52177 0.67553 0.0
N203 N 0.73052 0.53237 0.71933 0.0
H204 H 0.76667 0.55287 0.72186 0.0
H205 H 0.72573 0.49066 0.6418 0.0
C206 C 0.74823 0.4984 0.53205 0.0
O207 O 0.74905 0.48079 0.55106 0.0
N208 N 0.80357 0.52563 0.59662 0.0
C209 C 0.82146 0.52523 0.61955 0.0
C210 C 0.83594 0.52737 0.5765 0.0
C211 C 0.80772 0.52849 0.53994 0.0
N212 N 0.82727 0.52942 0.52671 0.0
C213 C 0.81197 0.57011 0.65362 0.0
C214 C 0.78868 0.59019 0.61185 0.0
C215 C 0.80962 0.6043 0.639 0.0
C216 C 0.82133 0.5936 0.65869 0.0
C217 C 0.7801 0.5667 0.60645 0.0
N218 N 0.79144 0.55675 0.62869 0.0
H219 H 0.82114 0.56254 0.67156 0.0
H220 H 0.76369 0.55638 0.58748 0.0
H221 H 0.82418 0.52367 0.6644 0.0
H222 H 0.79655 0.52942 0.50877 0.0
O223 O 0.79194 0.52367 0.71099 0.0
O224 O 0.76953 0.49281 0.66461 0.0
O225 O 0.75966 0.51732 0.55952 0.0
C226 C 0.7823 0.50189 0.70961 0.0
H227 H 0.6993 0.50237 0.69578 0.0
H228 H 0.85161 0.52732 0.58128 0.0
H229 H 0.77836 0.59689 0.59637 0.0
H230 H 0.83768 0.60314 0.67851 0.0
Co231 Co 0.52266 0.26381 0.63317 0.0
C232 C 0.51868 0.22016 0.65929 0.0
C233 C 0.55094 0.24701 0.68531 0.0
C234 C 0.54995 0.22677 0.69626 0.0
N235 N 0.53106 0.24277 0.66311 0.0
N236 N 0.52958 0.20997 0.67979 0.0
H237 H 0.50174 0.211 0.64291 0.0
H238 H 0.56513 0.26351 0.69376 0.0
C239 C 0.5213 0.23699 0.52087 0.0
O240 O 0.50262 0.21937 0.53815 0.0
N241 N 0.51434 0.28451 0.60241 0.0
C242 C 0.5014 0.2916 0.62822 0.0
C243 C 0.50099 0.30785 0.59446 0.0
C244 C 0.52149 0.29622 0.55348 0.0
N245 N 0.51354 0.31054 0.54764 0.0
C246 C 0.48243 0.23243 0.6905 0.0
C247 C 0.45129 0.22182 0.60403 0.0
C248 C 0.44324 0.21265 0.65904 0.0
C249 C 0.45952 0.21852 0.70218 0.0
C250 C 0.47478 0.23589 0.5939 0.0
N251 N 0.49019 0.24066 0.63683 0.0
H252 H 0.49418 0.23681 0.72555 0.0
H253 H 0.48047 0.24331 0.552 0.0
H254 H 0.49314 0.28563 0.66914 0.0
H255 H 0.53283 0.29485 0.52367 0.0
O256 O 0.5243 0.27694 0.71024 0.0
O257 O 0.55301 0.28979 0.65259 0.0
O258 O 0.52951 0.25553 0.55069 0.0
C259 C 0.54516 0.29195 0.70177 0.0
H260 H 0.56271 0.22458 0.71773 0.0
H261 H 0.4922 0.31696 0.60341 0.0
H262 H 0.43961 0.21818 0.56906 0.0
H263 H 0.45465 0.21285 0.74583 0.0
Co264 Co 0.78197 0.27322 0.64864 0.0
C265 C 0.81347 0.2878 0.74287 0.0
C266 C 0.81843 0.31614 0.6924 0.0
C267 C 0.83598 0.32322 0.73056 0.0
N268 N 0.8045 0.29391 0.7001 0.0
N269 N 0.83287 0.30527 0.76152 0.0
H270 H 0.80661 0.27065 0.7578 0.0
H271 H 0.81654 0.32634 0.65998 0.0
C272 C 0.8046 0.29809 0.5314 0.0
O273 O 0.80549 0.28032 0.51395 0.0
N274 N 0.75919 0.25208 0.59736 0.0
C275 C 0.74447 0.23006 0.60688 0.0
C276 C 0.73095 0.22122 0.55965 0.0
C277 C 0.75359 0.25653 0.54581 0.0
N278 N 0.73687 0.23794 0.52144 0.0
C279 C 0.79373 0.23819 0.65419 0.0
C280 C 0.83883 0.2642 0.62939 0.0
C281 C 0.83117 0.24223 0.65065 0.0
C282 C 0.80802 0.22917 0.66152 0.0
C283 C 0.82385 0.27261 0.62227 0.0
N284 N 0.80144 0.25974 0.63515 0.0
H285 H 0.77673 0.22819 0.6689 0.0
H286 H 0.8307 0.29005 0.61034 0.0
H287 H 0.74296 0.22096 0.64587 0.0
H288 H 0.76128 0.27295 0.52629 0.0
O289 O 0.76439 0.25414 0.71461 0.0
O290 O 0.75977 0.2811 0.67999 0.0
O291 O 0.79626 0.29755 0.58191 0.0
C292 C 0.75336 0.26494 0.71763 0.0
H293 H 0.84984 0.34025 0.73553 0.0
H294 H 0.71757 0.20398 0.55421 0.0
H295 H 0.85646 0.27521 0.61992 0.0
H296 H 0.80102 0.21243 0.67946 0.0
Co297 Co 0.86316 0.436 0.08935 0.0
C298 C 0.86686 0.39677 0.05076 0.0
C299 C 0.83267 0.38925 0.05624 0.0
C300 C 0.83282 0.36965 0.04498 0.0
N301 N 0.85405 0.40634 0.05963 0.0
N302 N 0.85439 0.37438 0.04237 0.0
H303 H 0.88489 0.4055 0.05469 0.0
H304 H 0.81787 0.39064 0.0638 0.0
C305 C 0.86055 0.40679 0.19569 0.0
O306 O 0.87416 0.40177 0.1684 0.0
N307 N 0.87199 0.46531 0.11901 0.0
C308 C 0.88529 0.48514 0.09265 0.0
C309 C 0.88622 0.50218 0.12582 0.0
C310 C 0.86515 0.47039 0.16773 0.0
N311 N 0.87365 0.49277 0.17285 0.0
C312 C 0.90573 0.44837 0.03685 0.0
C313 C 0.93233 0.46363 0.13336 0.0
C314 C 0.94325 0.46792 0.07955 0.0
C315 C 0.92929 0.4595 0.03119 0.0
C316 C 0.90858 0.45232 0.13722 0.0
N317 N 0.89543 0.44483 0.0892 0.0
H318 H 0.89567 0.44306 0.99833 0.0
H319 H 0.90085 0.45067 0.17862 0.0
H320 H 0.89349 0.48703 0.05181 0.0
H321 H 0.85373 0.45799 0.19801 0.0
O322 O 0.86217 0.44735 1.01167 0.0
O323 O 0.83322 0.43231 0.06873 0.0
O324 O 0.85623 0.42161 0.17289 0.0
C325 C 0.84141 0.44203 1.01951 0.0
H326 H 0.81809 0.35324 0.03913 0.0
H327 H 0.89543 0.52003 0.11645 0.0
H328 H 0.94201 0.46945 0.17251 0.0
H329 H 0.93641 0.46245 0.98858 0.0
Co330 Co 0.61224 0.43714 0.0853 0.0
C331 C 0.63946 0.47779 1.01663 0.0
C332 C 0.65946 0.46607 0.05906 0.0
C333 C 0.67358 0.48699 0.0366 0.0
N334 N 0.63811 0.46052 0.04733 0.0
N335 N 0.66093 0.49443 1.01083 0.0
H336 H 0.62503 0.47872 1.00154 0.0
H337 H 0.66438 0.45605 0.08443 0.0
C338 C 0.64188 0.44235 0.19141 0.0
O339 O 0.64176 0.42414 0.17328 0.0
N340 N 0.58632 0.41374 0.12459 0.0
C341 C 0.56837 0.39563 0.10127 0.0
C342 C 0.55374 0.38327 0.1441 0.0
C343 C 0.58207 0.41235 0.18124 0.0
N344 N 0.56239 0.39383 0.19409 0.0
C345 C 0.57911 0.4502 0.06443 0.0
C346 C 0.60169 0.49313 0.10951 0.0
C347 C 0.58166 0.48673 0.07851 0.0
C348 C 0.5702 0.46459 0.05731 0.0
C349 C 0.61 0.47804 0.11621 0.0
N350 N 0.59907 0.45702 0.0921 0.0
H351 H 0.57025 0.43368 0.04516 0.0
H352 H 0.62587 0.48378 0.13785 0.0
H353 H 0.56574 0.39144 0.05633 0.0
H354 H 0.59326 0.42428 0.21268 0.0
O355 O 0.59865 0.42337 1.01058 0.0
O356 O 0.62039 0.41436 0.05785 0.0
O357 O 0.63013 0.44923 0.16307 0.0
C358 C 0.60784 0.41086 1.01245 0.0
H359 H 0.69176 0.49604 0.03903 0.0
H360 H 0.538 0.36764 0.13903 0.0
H361 H 0.61117 0.50985 0.1277 0.0
H362 H 0.55488 0.4586 0.03272 0.0
Co363 Co 0.59951 0.17607 0.07754 0.0
C364 C 0.56195 0.16032 0.99831 0.0
C365 C 0.56826 0.19112 0.03839 0.0
C366 C 0.54974 0.18365 1.00307 0.0
N367 N 0.5755 0.17613 0.03592 0.0
N368 N 0.54588 0.16422 0.97848 0.0
H369 H 0.56415 0.14661 0.98368 0.0
H370 H 0.5759 0.20633 0.0639 0.0
C371 C 0.57001 0.18184 0.17496 0.0
O372 O 0.55143 0.16906 0.1463 0.0
N373 N 0.62351 0.17585 0.1181 0.0
C374 C 0.63282 0.16288 0.10808 0.0
C375 C 0.65187 0.17072 0.14101 0.0
C376 C 0.63704 0.19153 0.15578 0.0
N377 N 0.65448 0.18881 0.17038 0.0
C378 C 0.58363 0.1299 0.04468 0.0
C379 C 0.55051 0.10761 0.12504 0.0
C380 C 0.55246 0.0947 0.08039 0.0
C381 C 0.56979 0.10647 0.04085 0.0
C382 C 0.565 0.13134 0.12762 0.0
N383 N 0.5809 0.14254 0.08623 0.0
H384 H 0.59606 0.13783 1.01165 0.0
H385 H 0.5632 0.14038 0.16293 0.0
H386 H 0.6269 0.14933 0.07739 0.0
H387 H 0.63429 0.20483 0.17148 0.0
O388 O 0.61492 0.17681 1.00465 0.0
O389 O 0.62117 0.20715 0.04971 0.0
O390 O 0.58899 0.18462 0.15495 0.0
C391 C 0.62649 0.19857 1.00662 0.0
H392 H 0.54061 0.19237 0.99376 0.0
H393 H 0.66323 0.16407 0.14213 0.0
H394 H 0.53789 0.09949 0.158 0.0
H395 H 0.57224 0.09783 1.00516 0.0
Co396 Co 0.43619 0.85069 0.97464 0.0
C397 C 0.41818 0.86756 0.06136 0.0
C398 C 0.39157 0.84352 1.0077 0.0
C399 C 0.38291 0.85315 0.04407 0.0
N400 N 0.4137 0.85274 1.01864 0.0
N401 N 0.39978 0.86837 0.07724 0.0
H402 H 0.43481 0.87819 0.07896 0.0
H403 H 0.38244 0.83106 0.97507 0.0
C404 C 0.41278 0.84791 0.85326 0.0
O405 O 0.42923 0.86774 0.83755 0.0
N406 N 0.45965 0.84913 0.93126 0.0
C407 C 0.4789 0.85132 0.95349 0.0
C408 C 0.49307 0.85318 0.90998 0.0
C409 C 0.46236 0.84903 0.87396 0.0
N410 N 0.48267 0.85185 0.8603 0.0
C411 C 0.47195 0.8969 0.97651 0.0
C412 C 0.44636 0.9168 0.95447 0.0
C413 C 0.46833 0.93064 0.97604 0.0
C414 C 0.48128 0.92024 0.98495 0.0
C415 C 0.43767 0.89344 0.94617 0.0
N416 N 0.45019 0.88346 0.95876 0.0
H417 H 0.48188 0.88944 0.98918 0.0
H418 H 0.42022 0.88316 0.93401 0.0
H419 H 0.48328 0.85279 0.99828 0.0
H420 H 0.45037 0.84769 0.84243 0.0
O421 O 0.45269 0.85303 0.0467 0.0
O422 O 0.42737 0.82095 1.01033 0.0
O423 O 0.4139 0.83989 0.90304 0.0
C424 C 0.44196 0.83124 0.0513 0.0
H425 H 0.36549 0.84893 0.04682 0.0
H426 H 0.50995 0.85587 0.91436 0.0
H427 H 0.43555 0.92376 0.94592 0.0
H428 H 0.49812 0.92971 1.00227 0.0
Co429 Co 0.1872 0.59938 0.95824 0.0
C430 C 0.18543 0.55685 0.99081 0.0
C431 C 0.21842 0.58517 1.00229 0.0
C432 C 0.21924 0.56581 1.01225 0.0
N433 N 0.19709 0.57958 0.98935 0.0
N434 N 0.19845 0.54803 1.00445 0.0
H435 H 0.16789 0.5467 0.97991 0.0
H436 H 0.23268 0.60206 1.00308 0.0
C437 C 0.18797 0.57214 0.85035 0.0
O438 O 0.17202 0.55371 0.87397 0.0
N439 N 0.17778 0.61909 0.92613 0.0
C440 C 0.16299 0.6244 0.94882 0.0
C441 C 0.16076 0.63882 0.91188 0.0
C442 C 0.18448 0.63029 0.87631 0.0
N443 N 0.1743 0.64248 0.86638 0.0
C444 C 0.14722 0.56763 1.01549 0.0
C445 C 0.11628 0.55816 0.92906 0.0
C446 C 0.10814 0.55112 0.98527 0.0
C447 C 0.12421 0.55545 0.02788 0.0
C448 C 0.13985 0.57038 0.91813 0.0
N449 N 0.15512 0.57532 0.96152 0.0
H450 H 0.15891 0.57176 0.05057 0.0
H451 H 0.14573 0.57711 0.87573 0.0
H452 H 0.15433 0.6181 0.98915 0.0
H453 H 0.19626 0.62921 0.84756 0.0
O454 O 0.18784 0.61221 0.035 0.0
O455 O 0.21689 0.62632 0.97834 0.0
O456 O 0.19419 0.59134 0.87563 0.0
C457 C 0.20852 0.62779 1.02743 0.0
H458 H 0.23395 0.56499 1.02521 0.0
H459 H 0.15015 0.64615 0.91831 0.0
H460 H 0.10465 0.55551 0.89461 0.0
H461 H 0.11906 0.55033 0.07175 0.0
Co462 Co 0.4505 0.60092 0.97536 0.0
C463 C 0.48228 0.62092 0.06748 0.0
C464 C 0.4876 0.64629 1.00576 0.0
C465 C 0.5047 0.65551 0.04566 0.0
N466 N 0.4736 0.62461 1.01991 0.0
N467 N 0.50132 0.63938 0.084 0.0
H468 H 0.4752 0.60473 0.08849 0.0
H469 H 0.48595 0.65475 0.96863 0.0
C470 C 0.45834 0.63365 0.87535 0.0
O471 O 0.4416 0.63515 0.89776 0.0
N472 N 0.42752 0.57641 0.93211 0.0
C473 C 0.41599 0.55466 0.94906 0.0
C474 C 0.39782 0.54305 0.91372 0.0
C475 C 0.41623 0.57773 0.88669 0.0
N476 N 0.3981 0.55765 0.87491 0.0
C477 C 0.46555 0.56988 1.00798 0.0
C478 C 0.5041 0.58705 0.94299 0.0
C479 C 0.49969 0.56939 0.98158 0.0
C480 C 0.47983 0.56083 1.01364 0.0
C481 C 0.48913 0.59562 0.93821 0.0
N482 N 0.46997 0.58705 0.97064 0.0
H483 H 0.45136 0.56353 0.03646 0.0
H484 H 0.49349 0.60963 0.90978 0.0
H485 H 0.41941 0.54782 0.9868 0.0
H486 H 0.42016 0.59315 0.86491 0.0
O487 O 0.43376 0.58581 0.0463 0.0
O488 O 0.42809 0.60993 0.99933 0.0
O489 O 0.46421 0.62029 0.89999 0.0
C490 C 0.4222 0.59595 0.04243 0.0
H491 H 0.51833 0.67278 0.04687 0.0
H492 H 0.38501 0.52549 0.91726 0.0
H493 H 0.51914 0.59443 0.91691 0.0
H494 H 0.4757 0.5478 0.0453 0.0
Co495 Co 0.52676 0.76736 0.42539 0.0
C496 C 0.52755 0.72603 0.40369 0.0
C497 C 0.49819 0.72409 0.36535 0.0
C498 C 0.49766 0.70395 0.35677 0.0
N499 N 0.51721 0.73803 0.39394 0.0
N500 N 0.51617 0.70531 0.38092 0.0
H501 H 0.54333 0.73241 0.42634 0.0
H502 H 0.48564 0.72812 0.35116 0.0
C503 C 0.50502 0.73705 0.52969 0.0
O504 O 0.48608 0.73165 0.50336 0.0
N505 N 0.53617 0.79633 0.45806 0.0
C506 C 0.55179 0.8164 0.43684 0.0
C507 C 0.55198 0.83314 0.46978 0.0
C508 C 0.52681 0.80093 0.50268 0.0
N509 N 0.53618 0.82333 0.51081 0.0
C510 C 0.56598 0.77419 0.36405 0.0
C511 C 0.59767 0.79464 0.44965 0.0
C512 C 0.60528 0.79326 0.39444 0.0
C513 C 0.58884 0.78251 0.35188 0.0
C514 C 0.57434 0.78546 0.46061 0.0
N515 N 0.55875 0.77553 0.41778 0.0
H516 H 0.55393 0.76689 0.32955 0.0
H517 H 0.56892 0.78709 0.50296 0.0
H518 H 0.56198 0.81865 0.39937 0.0
H519 H 0.51337 0.78814 0.52833 0.0
O520 O 0.52427 0.77944 0.35045 0.0
O521 O 0.49636 0.76381 0.41076 0.0
O522 O 0.52361 0.75249 0.50649 0.0
C523 C 0.50373 0.77411 0.36155 0.0
H524 H 0.48529 0.68988 0.33179 0.0
H525 H 0.56252 0.85109 0.46326 0.0
H526 H 0.60961 0.80267 0.48416 0.0
H527 H 0.59366 0.78105 0.3086 0.0
Co528 Co 0.27249 0.77131 0.41523 0.0
C529 C 0.3127 0.81431 0.39047 0.0
C530 C 0.31478 0.78728 0.34981 0.0
C531 C 0.33448 0.80707 0.34009 0.0
N532 N 0.30108 0.7919 0.38121 0.0
N533 N 0.33308 0.82395 0.36584 0.0
H534 H 0.30639 0.82351 0.41449 0.0
H535 H 0.31098 0.77081 0.33501 0.0
C536 C 0.30753 0.78509 0.51235 0.0
O537 O 0.31906 0.78056 0.47514 0.0
N538 N 0.24408 0.75113 0.44983 0.0
C539 C 0.22365 0.74473 0.42761 0.0
C540 C 0.20759 0.73121 0.46675 0.0
C541 C 0.24034 0.74149 0.50178 0.0
N542 N 0.21813 0.72924 0.51336 0.0
C543 C 0.26277 0.80221 0.35745 0.0
C544 C 0.24203 0.8118 0.44569 0.0
C545 C 0.24029 0.81863 0.38976 0.0
C546 C 0.25148 0.81412 0.34599 0.0
C547 C 0.25357 0.79969 0.45552 0.0
N548 N 0.26331 0.79452 0.41119 0.0
H549 H 0.27013 0.79805 0.32192 0.0
H550 H 0.25342 0.79329 0.49796 0.0
H551 H 0.22067 0.74986 0.38624 0.0
H552 H 0.25359 0.74388 0.53097 0.0
O553 O 0.25976 0.75726 0.34015 0.0
O554 O 0.27662 0.74499 0.39649 0.0
O555 O 0.28791 0.78197 0.49681 0.0
C556 C 0.26576 0.74235 0.34829 0.0
H557 H 0.34835 0.8091 0.31369 0.0
H558 H 0.18958 0.72341 0.46118 0.0
H559 H 0.23339 0.81454 0.48085 0.0
H560 H 0.2506 0.81885 0.30219 0.0
Co561 Co 0.26749 0.51602 0.40109 0.0
C562 C 0.23621 0.49918 0.30628 0.0
C563 C 0.23022 0.5216 0.35808 0.0
C564 C 0.21318 0.51147 0.31833 0.0
N565 N 0.24447 0.51367 0.35047 0.0
N566 N 0.21696 0.49725 0.28648 0.0
H567 H 0.24356 0.48941 0.29074 0.0
H568 H 0.23162 0.53329 0.39112 0.0
C569 C 0.24285 0.51772 0.51569 0.0
O570 O 0.23852 0.49741 0.52997 0.0
N571 N 0.29096 0.51826 0.45125 0.0
C572 C 0.30885 0.51605 0.43651 0.0
C573 C 0.32246 0.52047 0.48344 0.0
C574 C 0.29418 0.52421 0.50685 0.0
N575 N 0.31303 0.52545 0.52726 0.0
C576 C 0.25778 0.46979 0.40465 0.0
C577 C 0.21161 0.44968 0.4113 0.0
C578 C 0.22079 0.436 0.3963 0.0
C579 C 0.24434 0.44639 0.39546 0.0
C580 C 0.22568 0.47298 0.42152 0.0
N581 N 0.2486 0.48313 0.41611 0.0
H582 H 0.2756 0.47732 0.39762 0.0
H583 H 0.2179 0.48311 0.42903 0.0
H584 H 0.31207 0.51159 0.39459 0.0
H585 H 0.28372 0.52845 0.53206 0.0
O586 O 0.28439 0.51417 0.33409 0.0
O587 O 0.2891 0.54592 0.3681 0.0
O588 O 0.25373 0.52648 0.46823 0.0
C589 C 0.29521 0.53599 0.33014 0.0
H590 H 0.1993 0.51458 0.31263 0.0
H591 H 0.33792 0.51987 0.48551 0.0
H592 H 0.19355 0.44262 0.41298 0.0
H593 H 0.2524 0.43685 0.3835 0.0
H594 H 0.1747 0.14135 0.91592 0.0
H595 H 0.24119 0.19876 0.88674 0.0
H596 H 0.2377 0.21653 0.97517 0.0
H597 H 0.14937 0.17175 0.97202 0.0
H598 H 0.1328 0.15057 1.02438 0.0
H599 H 0.14053 0.14259 0.95841 0.0
H600 H 0.15876 0.12337 1.01567 0.0
H601 H 0.15104 0.13125 0.08183 0.0
H602 H 0.17998 0.13939 0.06851 0.0
H603 H 0.22684 0.22784 0.06692 0.0
H604 H 0.20919 0.23208 0.15458 0.0
H605 H 0.15067 0.16636 0.12445 0.0
C606 C 0.18864 0.15755 0.92825 0.0
C607 C 0.20821 0.16866 0.8944 0.0
C608 C 0.2259 0.19007 0.91161 0.0
C609 C 0.22414 0.20022 0.96194 0.0
C610 C 0.20463 0.1887 0.9944 0.0
C611 C 0.18721 0.16784 0.97824 0.0
C612 C 0.16803 0.15893 1.02054 0.0
C613 C 0.14641 0.15578 0.99213 0.0
C614 C 0.16424 0.13694 0.04828 0.0
C615 C 0.17737 0.17809 0.06303 0.0
C616 C 0.19848 0.19509 0.04732 0.0
C617 C 0.21034 0.21459 0.07985 0.0
C618 C 0.20025 0.21678 0.12972 0.0
C619 C 0.17855 0.19955 0.14637 0.0
C620 C 0.16712 0.17996 0.11255 0.0
H621 H 0.86809 0.03985 0.9168 0.0
H622 H 0.93236 0.04434 0.88272 0.0
H623 H 0.92903 0.0239 0.97239 0.0
H624 H 0.87501 0.04876 0.06482 0.0
H625 H 0.84623 0.02895 0.08301 0.0
H626 H 0.85281 0.04269 1.01429 0.0
H627 H 0.83292 1.00396 0.96283 0.0
H628 H 0.82587 0.99009 0.03143 0.0
H629 H 0.84104 0.98332 0.97954 0.0
H630 H 0.91995 1.00539 0.06745 0.0
H631 H 0.904 0.98673 0.15966 0.0
H632 H 0.84517 0.99343 0.1298 0.0
C633 C 0.88119 0.03606 0.92756 0.0
C634 C 0.90052 0.04372 0.89332 0.0
C635 C 0.91757 0.03885 0.9091 0.0
C636 C 0.9158 0.02722 0.95967 0.0
C637 C 0.89683 0.02053 0.9934 0.0
C638 C 0.87968 0.02448 0.97777 0.0
C639 C 0.86131 1.01592 1.02231 0.0
C640 C 0.85871 0.03524 0.04759 0.0
C641 C 0.83897 0.9972 0.99754 0.0
C642 C 0.87097 1.00676 0.06568 0.0
C643 C 0.89147 1.00962 0.04821 0.0
C644 C 0.90378 1.00278 0.08143 0.0
C645 C 0.89458 0.99219 0.13353 0.0
C646 C 0.8733 0.98854 0.15144 0.0
C647 C 0.86156 0.99622 0.1174 0.0
H648 H 1.02348 0.87231 0.16025 0.0
H649 H 0.09113 0.88897 0.11215 0.0
H650 H 0.07672 0.87036 1.0184 0.0
H651 H 0.99384 0.81691 0.08862 0.0
H652 H 0.97077 0.82109 0.06906 0.0
H653 H 0.98627 0.83336 0.13409 0.0
H654 H 0.99443 0.87283 0.10047 0.0
H655 H 0.979 0.86074 0.03562 0.0
H656 H 1.00773 0.88339 0.03203 0.0
H657 H 0.05489 0.85309 0.92636 0.0
H658 H 0.02829 0.84102 0.84436 0.0
H659 H 0.97569 0.83495 0.95776 0.0
C660 C 0.03529 0.87151 0.13111 0.0
C661 C 0.0584 0.88193 0.14391 0.0
C662 C 0.07333 0.88119 0.10317 0.0
C663 C 0.06526 0.87044 0.05014 0.0
C664 C 0.04227 0.86035 0.03915 0.0
C665 C 0.02756 0.86079 0.07882 0.0
C666 C 1.004 0.85066 0.0557 0.0
C667 C 0.98777 0.82923 0.08884 0.0
C668 C 0.99584 0.86794 0.05595 0.0
C669 C 1.00781 0.84518 0.99581 0.0
C670 C 0.02984 0.85046 0.98697 0.0
C671 C 0.03751 0.8485 0.93311 0.0
C672 C 1.02237 0.8416 0.88697 0.0
C673 C 1.00012 0.83716 0.89543 0.0
C674 C 0.99267 0.83827 0.95066 0.0
H675 H 0.84785 0.85715 0.15061 0.0
H676 H 0.89706 0.92815 0.16269 0.0
H677 H 0.91764 0.92411 0.08006 0.0
H678 H 0.88523 0.83688 0.11007 0.0
H679 H 0.86587 0.81612 0.06033 0.0
H680 H 0.85535 0.82466 0.12034 0.0
H681 H 0.83268 0.83541 0.05162 0.0
H682 H 0.84296 0.8267 0.99146 0.0
H683 H 0.84695 0.85476 0.99372 0.0
H684 H 0.93458 0.91071 0.9944 0.0
H685 H 0.94218 0.8916 0.91401 0.0
H686 H 0.88045 0.83004 0.95324 0.0
C687 C 0.86291 0.872 0.13595 0.0
C688 C 0.87059 0.89312 0.16469 0.0
C689 C 0.89044 0.91182 0.14251 0.0
C690 C 0.90242 0.90958 0.09527 0.0
C691 C 0.89449 0.88851 0.06863 0.0
C692 C 0.87484 0.87013 0.08794 0.0
C693 C 0.8692 0.84945 0.05098 0.0
C694 C 0.86889 0.83066 0.08762 0.0
C695 C 0.8466 0.84108 1.02012 0.0
C696 C 0.88871 0.85877 1.00807 0.0
C697 C 0.90338 0.8813 1.01922 0.0
C698 C 0.92292 0.89312 0.98572 0.0
C699 C 0.92729 0.882 0.93988 0.0
C700 C 0.91217 0.85905 0.92602 0.0
C701 C 0.89262 0.84752 0.96166 0.0
H702 H 0.19327 0.03388 0.89557 0.0
H703 H 0.16718 0.07831 0.93505 0.0
H704 H 0.15032 0.05656 1.02458 0.0
H705 H 0.14544 0.98254 0.94648 0.0
H706 H 0.16223 0.97109 0.97366 0.0
H707 H 0.17225 0.99045 0.91429 0.0
H708 H 0.20879 1.01637 0.96997 0.0
H709 H 0.19888 0.99709 0.02953 0.0
H710 H 0.20704 0.02624 0.04035 0.0
H711 H 0.13585 0.02787 0.11539 0.0
H712 H 0.12601 0.99769 0.18776 0.0
H713 H 0.16119 0.97202 0.08639 0.0
C714 C 0.18411 0.0393 0.92283 0.0
C715 C 0.18193 0.05834 0.90684 0.0
C716 C 0.16943 0.06412 0.94498 0.0
C717 C 0.1597 0.05169 0.99648 0.0
C718 C 0.16225 0.03307 1.01056 0.0
C719 C 0.17421 0.02699 0.97413 0.0
C720 C 0.17451 1.00626 0.99755 0.0
C721 C 0.16292 0.98641 0.95549 0.0
C722 C 0.19875 1.01182 1.01008 0.0
C723 C 0.16097 1.00142 0.05302 0.0
C724 C 0.154 1.01704 0.06029 0.0
C725 C 0.14135 1.01571 0.10916 0.0
C726 C 0.13576 0.99833 0.15062 0.0
C727 C 0.14255 0.98193 0.14417 0.0
C728 C 0.15543 0.98391 0.0939 0.0
H729 H 1.00531 0.17665 0.90643 0.0
H730 H 0.98845 0.10704 0.88901 0.0
H731 H 1.01333 0.11186 0.97171 0.0
H732 H 0.06312 0.20015 0.94827 0.0
H733 H 0.06264 0.21951 0.99979 0.0
H734 H 0.04381 0.21055 0.9393 0.0
H735 H 1.00975 0.19671 1.00742 0.0
H736 H 0.02849 0.20585 0.06807 0.0
H737 H 1.0059 0.17709 0.06369 0.0
H738 H 0.04368 0.1262 0.0573 0.0
H739 H 0.06956 0.1457 0.13886 0.0
H740 H 0.06396 0.20487 0.10576 0.0
C741 C 1.00664 0.16226 0.92003 0.0
C742 C 0.99455 0.14132 0.88981 0.0
C743 C 0.99709 0.12319 0.9105 0.0
C744 C 1.01148 0.1259 0.95771 0.0
C745 C 1.02332 0.14682 0.9858 0.0
C746 C 1.02055 0.16455 0.96808 0.0
C747 C 0.03426 0.18509 1.0066 0.0
C748 C 0.052 0.205 0.97138 0.0
C749 C 1.01867 0.19156 0.03832 0.0
C750 C 0.04545 0.17646 0.04852 0.0
C751 C 0.03927 0.15443 0.03547 0.0
C752 C 0.04826 0.14337 0.06755 0.0
C753 C 0.06327 0.15473 0.11401 0.0
C754 C 0.06926 0.17707 0.12993 0.0
C755 C 0.06002 0.18786 0.0957 0.0
H756 H 0.8465 0.50561 0.49259 0.0
H757 H 0.8264 0.55298 0.43449 0.0
H758 H 0.83979 0.55164 0.33653 0.0
H759 H 0.89647 0.52493 0.40224 0.0
H760 H 0.89098 0.49665 0.39007 0.0
H761 H 0.88231 0.50361 0.45619 0.0
H762 H 0.84137 0.47155 0.43837 0.0
H763 H 0.84988 0.46454 0.37228 0.0
H764 H 0.82751 0.4711 0.37234 0.0
H765 H 0.85403 0.54356 0.24449 0.0
H766 H 0.86465 0.52683 0.16446 0.0
H767 H 0.87331 0.48362 0.28448 0.0
C768 C 0.84546 0.51612 0.45953 0.0
C769 C 0.83583 0.52966 0.47072 0.0
C770 C 0.83388 0.54259 0.42624 0.0
C771 C 0.84155 0.54203 0.37089 0.0
C772 C 0.85089 0.52833 0.3612 0.0
C773 C 0.85268 0.51548 0.40432 0.0
C774 C 0.86129 0.5005 0.38224 0.0
C775 C 0.88412 0.50681 0.40929 0.0
C776 C 0.84398 0.47545 0.39186 0.0
C777 C 0.8637 0.50658 0.31962 0.0
C778 C 0.85808 0.52297 0.30829 0.0
C779 C 0.85859 0.53082 0.25291 0.0
C780 C 0.86466 0.52134 0.20793 0.0
C781 C 0.86963 0.504 0.21895 0.0
C782 C 0.86943 0.4968 0.2754 0.0
H783 H 0.54296 0.35076 0.22813 0.0
H784 H 0.56305 0.41826 0.2861 0.0
H785 H 0.54931 0.40355 0.38384 0.0
H786 H 0.49269 0.32025 0.31703 0.0
H787 H 0.498 0.29738 0.32984 0.0
H788 H 0.50709 0.31303 0.26385 0.0
H789 H 0.54787 0.32175 0.28333 0.0
H790 H 0.53894 0.3062 0.34931 0.0
H791 H 0.56139 0.33509 0.34975 0.0
H792 H 0.53448 0.38121 0.4756 0.0
H793 H 0.52305 0.35379 0.55554 0.0
H794 H 0.51478 0.30182 0.43612 0.0
C795 C 0.54396 0.36232 0.26115 0.0
C796 C 0.55367 0.3855 0.24996 0.0
C797 C 0.55552 0.40039 0.29435 0.0
C798 C 0.54766 0.39217 0.34958 0.0
C799 C 0.53824 0.36912 0.35928 0.0
C800 C 0.53655 0.35447 0.31628 0.0
C801 C 0.52773 0.33085 0.33842 0.0
C802 C 0.50502 0.31441 0.31063 0.0
C803 C 0.54502 0.32303 0.3297 0.0
C804 C 0.52499 0.33451 0.40089 0.0
C805 C 0.53071 0.35655 0.4121 0.0
C806 C 0.52987 0.36389 0.46728 0.0
C807 C 0.52332 0.34828 0.51221 0.0
C808 C 0.51819 0.3259 0.50141 0.0
C809 C 0.51879 0.31893 0.44511 0.0
H810 H 0.72147 0.20191 0.45185 0.0
H811 H 0.73289 0.27001 0.46338 0.0
H812 H 0.71775 0.26661 0.36561 0.0
H813 H 0.73385 0.20306 0.29735 0.0
H814 H 0.71195 0.17424 0.2875 0.0
H815 H 0.72645 0.18316 0.35516 0.0
H816 H 0.68836 0.16867 0.40772 0.0
H817 H 0.67381 0.15955 0.34047 0.0
H818 H 0.66968 0.1786 0.38536 0.0
H819 H 0.6974 0.25421 0.27287 0.0
H820 H 0.67228 0.23329 0.19223 0.0
H821 H 0.67444 0.17347 0.24208 0.0
C822 C 0.72086 0.21612 0.43364 0.0
C823 C 0.72825 0.23617 0.4648 0.0
C824 C 0.72748 0.25457 0.43966 0.0
C825 C 0.719 0.25282 0.38426 0.0
C826 C 0.71171 0.23269 0.35476 0.0
C827 C 0.71262 0.21469 0.37851 0.0
C828 C 0.70203 0.19429 0.34002 0.0
C829 C 0.71963 0.18835 0.31874 0.0
C830 C 0.6823 0.17411 0.37019 0.0
C831 C 0.69403 0.20329 0.29206 0.0
C832 C 0.70012 0.22559 0.3008 0.0
C833 C 0.69285 0.23689 0.26493 0.0
C834 C 0.67849 0.22486 0.21968 0.0
C835 C 0.67157 0.20185 0.2113 0.0
C836 C 0.67996 0.19119 0.24691 0.0
H837 H 0.53191 0.17146 0.24052 0.0
H838 H 0.60344 0.21891 0.23538 0.0
H839 H 0.59925 0.23894 0.31924 0.0
H840 H 0.51337 0.21019 0.2813 0.0
H841 H 0.49144 0.19065 0.32822 0.0
H842 H 0.50023 0.18032 0.2683 0.0
H843 H 0.50848 0.15559 0.33645 0.0
H844 H 0.49953 0.16569 0.3965 0.0
H845 H 0.52705 0.16845 0.39661 0.0
H846 H 0.58573 0.25537 0.40581 0.0
H847 H 0.56616 0.26289 0.48509 0.0
H848 H 0.5039 0.20345 0.43656 0.0
C849 C 0.54685 0.186 0.25695 0.0
C850 C 0.56816 0.19335 0.22993 0.0
C851 C 0.58696 0.21256 0.25429 0.0
C852 C 0.58464 0.22421 0.30224 0.0
C853 C 0.56337 0.21661 0.32715 0.0
C854 C 0.54486 0.19762 0.30541 0.0
C855 C 0.52388 0.19231 0.34034 0.0
C856 C 0.50618 0.19343 0.30226 0.0
C857 C 0.51416 0.16913 0.36918 0.0
C858 C 0.53319 0.21122 0.385 0.0
C859 C 0.556 0.2253 0.37657 0.0
C860 C 0.56791 0.24419 0.41231 0.0
C861 C 0.55654 0.2485 0.45753 0.0
C862 C 0.53323 0.234 0.46835 0.0
C863 C 0.52165 0.21512 0.43054 0.0
H864 H 0.85899 0.36791 0.23627 0.0
H865 H 0.83795 0.41565 0.28433 0.0
H866 H 0.82214 0.39436 0.37504 0.0
H867 H 0.81004 0.31828 0.29164 0.0
H868 H 0.82579 0.30502 0.31416 0.0
H869 H 0.83553 0.32436 0.25472 0.0
H870 H 0.87385 0.3482 0.30526 0.0
H871 H 0.8642 0.32899 0.36495 0.0
H872 H 0.87465 0.35858 0.37671 0.0
H873 H 0.80877 0.36621 0.46629 0.0
H874 H 0.7985 0.33564 0.5376 0.0
H875 H 0.82721 0.30584 0.42678 0.0
C876 C 0.85114 0.37412 0.26569 0.0
C877 C 0.8501 0.39397 0.25193 0.0
C878 C 0.83923 0.40078 0.29259 0.0
C879 C 0.83017 0.38866 0.34477 0.0
C880 C 0.83165 0.36927 0.35675 0.0
C881 C 0.84179 0.36205 0.31753 0.0
C882 C 0.84095 0.34051 0.33883 0.0
C883 C 0.82727 0.32088 0.29737 0.0
C884 C 0.86483 0.3443 0.34691 0.0
C885 C 0.82892 0.33657 0.39644 0.0
C886 C 0.82373 0.35336 0.40656 0.0
C887 C 0.81283 0.35312 0.45783 0.0
C888 C 0.80704 0.33554 0.4987 0.0
C889 C 0.81183 0.31785 0.48913 0.0
C890 C 0.82306 0.31878 0.4366 0.0
H891 H 0.66494 0.42895 0.26607 0.0
H892 H 0.65372 0.48494 0.23577 0.0
H893 H 0.67951 0.5057 0.31647 0.0
H894 H 0.66713 0.43291 0.42175 0.0
H895 H 0.68852 0.4251 0.42808 0.0
H896 H 0.66932 0.41507 0.36838 0.0
H897 H 0.70292 0.43199 0.29816 0.0
H898 H 0.72223 0.44216 0.35765 0.0
H899 H 0.72369 0.46146 0.30311 0.0
H900 H 0.70897 0.52122 0.40401 0.0
H901 H 0.73504 0.5278 0.48522 0.0
H902 H 0.72608 0.46121 0.45922 0.0
C903 C 0.66772 0.44557 0.27623 0.0
C904 C 0.65683 0.45503 0.24326 0.0
C905 C 0.66141 0.47694 0.25943 0.0
C906 C 0.67626 0.48898 0.30558 0.0
C907 C 0.68674 0.47916 0.33668 0.0
C908 C 0.6824 0.45775 0.32251 0.0
C909 C 0.69541 0.4506 0.36251 0.0
C910 C 0.67913 0.42968 0.39723 0.0
C911 C 0.71205 0.4463 0.32831 0.0
C912 C 0.7079 0.47121 0.40147 0.0
C913 C 0.70285 0.48766 0.38596 0.0
C914 C 0.71277 0.50823 0.41597 0.0
C915 C 0.72779 0.51193 0.46243 0.0
C916 C 0.73307 0.49523 0.47995 0.0
C917 C 0.72274 0.47459 0.44804 0.0
H918 H 0.49549 0.80828 0.56046 0.0
H919 H 0.56459 0.86302 0.5617 0.0
H920 H 0.55621 0.87987 0.64473 0.0
H921 H 0.46937 0.84226 0.61161 0.0
H922 H 0.44898 0.81915 0.65426 0.0
H923 H 0.45922 0.81367 0.58855 0.0
H924 H 0.47126 0.78859 0.64387 0.0
H925 H 0.46115 0.79402 0.70955 0.0
H926 H 0.48988 0.80017 0.70449 0.0
H927 H 0.54261 0.88674 0.73617 0.0
H928 H 0.52398 0.8841 0.82876 0.0
H929 H 0.46335 0.82569 0.76786 0.0
C930 C 0.50872 0.82403 0.57763 0.0
C931 C 0.53069 0.83438 0.55488 0.0
C932 C 0.54759 0.855 0.57815 0.0
C933 C 0.54298 0.86469 0.62523 0.0
C934 C 0.52129 0.8537 0.64772 0.0
C935 C 0.50433 0.83397 0.62428 0.0
C936 C 0.48309 0.82437 0.65989 0.0
C937 C 0.46404 0.8249 0.62658 0.0
C938 C 0.47595 0.80038 0.68068 0.0
C939 C 0.49122 0.84104 0.70885 0.0
C940 C 0.51319 0.85802 0.70048 0.0
C941 C 0.52523 0.87393 0.74261 0.0
C942 C 0.51465 0.87222 0.79501 0.0
C943 C 0.49231 0.85482 0.80452 0.0
C944 C 0.48026 0.83941 0.76055 0.0
H945 H 0.21071 0.66246 0.79655 0.0
H946 H 0.14404 0.65324 0.82335 0.0
H947 H 0.14841 0.67556 0.73642 0.0
H948 H 0.23669 0.71915 0.74217 0.0
H949 H 0.25352 0.71464 0.69037 0.0
H950 H 0.24548 0.69882 0.75618 0.0
H951 H 0.2276 0.66148 0.69847 0.0
H952 H 0.23561 0.67718 0.63251 0.0
H953 H 0.20661 0.65633 0.64498 0.0
H954 H 0.1597 0.69787 0.64482 0.0
H955 H 0.17723 0.71892 0.55614 0.0
H956 H 0.23577 0.71195 0.58838 0.0
C957 C 0.19696 0.66501 0.78417 0.0
C958 C 0.17702 0.65607 0.81682 0.0
C959 C 0.15959 0.66016 0.79947 0.0
C960 C 0.16186 0.67271 0.74999 0.0
C961 C 0.18167 0.68104 0.71853 0.0
C962 C 0.19892 0.67739 0.73501 0.0
C963 C 0.2183 0.68774 0.6932 0.0
C964 C 0.23976 0.70618 0.72223 0.0
C965 C 0.22225 0.6696 0.66566 0.0
C966 C 0.20917 0.69765 0.6503 0.0
C967 C 0.18807 0.69368 0.66569 0.0
C968 C 0.17622 0.70108 0.63229 0.0
C969 C 0.18625 0.71287 0.58178 0.0
C970 C 0.20789 0.71709 0.56518 0.0
C971 C 0.21938 0.70932 0.60015 0.0
H972 H 0.35592 0.55234 0.55974 0.0
H973 H 0.28817 0.51009 0.62305 0.0
H974 H 0.30247 0.51682 0.72263 0.0
H975 H 0.38295 0.53477 0.65292 0.0
H976 H 0.40762 0.56199 0.66315 0.0
H977 H 0.39175 0.55594 0.59782 0.0
H978 H 0.38692 0.59074 0.61415 0.0
H979 H 0.4029 0.59697 0.67959 0.0
H980 H 0.37507 0.59348 0.68052 0.0
H981 H 0.3246 0.52351 0.81195 0.0
H982 H 0.35316 0.53257 0.88764 0.0
H983 H 0.40609 0.57233 0.7665 0.0
C984 C 0.34419 0.54482 0.59486 0.0
C985 C 0.3211 0.53068 0.58461 0.0
C986 C 0.30596 0.52109 0.63086 0.0
C987 C 0.3139 0.52483 0.6872 0.0
C988 C 0.3369 0.53859 0.69598 0.0
C989 C 0.35179 0.54877 0.65121 0.0
C990 C 0.37578 0.56194 0.67197 0.0
C991 C 0.39037 0.55312 0.64487 0.0
C992 C 0.38575 0.58729 0.66091 0.0
C993 C 0.37213 0.55664 0.73506 0.0
C994 C 0.34959 0.54325 0.74813 0.0
C995 C 0.34226 0.53442 0.80268 0.0
C996 C 0.35849 0.53943 0.84505 0.0
C997 C 0.38157 0.5532 0.83226 0.0
C998 C 0.38843 0.56215 0.77703 0.0
H999 H 0.18452 0.53312 0.80365 0.0
H1000 H 0.21665 0.60478 0.77057 0.0
H1001 H 0.2335 0.59932 0.68179 0.0
H1002 H 0.23074 0.52597 0.75567 0.0
H1003 H 0.21271 0.49841 0.72586 0.0
H1004 H 0.20309 0.50824 0.78512 0.0
H1005 H 0.16812 0.50101 0.72657 0.0
H1006 H 0.17766 0.49122 0.66706 0.0
H1007 H 0.17179 0.51386 0.65708 0.0
H1008 H 0.24677 0.58448 0.59087 0.0
H1009 H 0.25565 0.56356 0.51805 0.0
H1010 H 0.21584 0.50196 0.6136 0.0
C1011 C 0.19502 0.54782 0.77788 0.0
C1012 C 0.19888 0.56953 0.79525 0.0
C1013 C 0.21313 0.58799 0.75939 0.0
C1014 C 0.22282 0.58495 0.70833 0.0
C1015 C 0.21854 0.5633 0.6927 0.0
C1016 C 0.20502 0.5451 0.7272 0.0
C1017 C 0.20328 0.52356 0.70257 0.0
C1018 C 0.21303 0.51345 0.74482 0.0
C1019 C 0.17876 0.5064 0.68743 0.0
C1020 C 0.21775 0.53219 0.64853 0.0
C1021 C 0.22638 0.55516 0.64306 0.0
C1022 C 0.24001 0.56653 0.59565 0.0
C1023 C 0.24498 0.5544 0.55389 0.0
C1024 C 0.23665 0.53084 0.55878 0.0
C1025 C 0.22274 0.51987 0.60746 0.0
H1026 H 0.46814 0.71128 0.60025 0.0
H1027 H 0.53849 0.73127 0.58339 0.0
H1028 H 0.5347 0.70668 0.6661 0.0
H1029 H 0.46656 0.70986 0.75631 0.0
H1030 H 0.43841 0.6861 0.75918 0.0
H1031 H 0.44704 0.70507 0.69904 0.0
H1032 H 0.43555 0.67148 0.63013 0.0
H1033 H 0.42709 0.65244 0.69011 0.0
H1034 H 0.44745 0.65345 0.63966 0.0
H1035 H 0.52141 0.67659 0.753 0.0
H1036 H 0.50224 0.64996 0.83357 0.0
H1037 H 0.44131 0.65161 0.79594 0.0
C1038 C 0.48293 0.71073 0.6139 0.0
C1039 C 0.50378 0.72367 0.58405 0.0
C1040 C 0.52239 0.722 0.6047 0.0
C1041 C 0.52028 0.7078 0.65191 0.0
C1042 C 0.49942 0.69515 0.6797 0.0
C1043 C 0.48115 0.69686 0.66147 0.0
C1044 C 0.46062 0.68213 0.69879 0.0
C1045 C 0.45269 0.69665 0.73019 0.0
C1046 C 0.44155 0.6638 0.6625 0.0
C1047 C 0.46991 0.67171 0.74102 0.0
C1048 C 0.49227 0.67911 0.72918 0.0
C1049 C 0.50396 0.67104 0.76219 0.0
C1050 C 0.49283 0.65564 0.80814 0.0
C1051 C 0.47005 0.6483 0.82241 0.0
C1052 C 0.45869 0.65666 0.78733 0.0
H1053 H 0.41325 0.84844 0.7334 0.0
H1054 H 0.36718 0.81832 0.87537 0.0
H1055 H 0.33529 0.80063 0.80665 0.0
H1056 H 0.37796 0.85963 0.64136 0.0
H1057 H 0.38662 0.85203 0.57618 0.0
H1058 H 0.4055 0.86253 0.6365 0.0
H1059 H 0.40934 0.82688 0.63531 0.0
H1060 H 0.39067 0.81639 0.57459 0.0
H1061 H 0.3844 0.7995 0.63841 0.0
H1062 H 0.30689 0.78757 0.71672 0.0
H1063 H 0.28783 0.77697 0.62169 0.0
H1064 H 0.35277 0.81263 0.53859 0.0
C1065 C 0.39647 0.83803 0.75036 0.0
C1066 C 0.39314 0.83509 0.81102 0.0
C1067 C 0.37065 0.82102 0.82995 0.0
C1068 C 0.35225 0.81093 0.79073 0.0
C1069 C 0.35616 0.81443 0.73146 0.0
C1070 C 0.37795 0.82733 0.71156 0.0
C1071 C 0.37803 0.82773 0.64592 0.0
C1072 C 0.3876 0.85192 0.62369 0.0
C1073 C 0.3914 0.81699 0.62216 0.0
C1074 C 0.35298 0.81335 0.63152 0.0
C1075 C 0.34046 0.80606 0.68131 0.0
C1076 C 0.31683 0.79317 0.67794 0.0
C1077 C 0.30597 0.78731 0.62332 0.0
C1078 C 0.31844 0.79382 0.57142 0.0
C1079 C 0.3424 0.80718 0.57669 0.0
H1080 H 0.22375 0.39759 0.42201 0.0
H1081 H 0.18465 0.41951 0.32321 0.0
H1082 H 0.16159 0.38097 0.28486 0.0
H1083 H 0.2237 0.35843 0.31813 0.0
H1084 H 0.22058 0.33771 0.3704 0.0
H1085 H 0.23427 0.36706 0.38988 0.0
H1086 H 0.20622 0.35769 0.47348 0.0
H1087 H 0.19253 0.32831 0.45443 0.0
H1088 H 0.17644 0.3425 0.45905 0.0
H1089 H 0.14334 0.3396 0.25332 0.0
H1090 H 0.12936 0.29889 0.23974 0.0
H1091 H 0.17867 0.30271 0.36218 0.0
C1092 C 0.21031 0.39429 0.39238 0.0
C1093 C 0.20612 0.4119 0.37604 0.0
C1094 C 0.18817 0.40653 0.33731 0.0
C1095 C 0.17502 0.3846 0.31481 0.0
C1096 C 0.17963 0.36774 0.33157 0.0
C1097 C 0.19667 0.37226 0.37015 0.0
C1098 C 0.19763 0.35087 0.38249 0.0
C1099 C 0.2204 0.35369 0.36413 0.0
C1100 C 0.19292 0.34447 0.44614 0.0
C1101 C 0.17861 0.3337 0.3447 0.0
C1102 C 0.16861 0.34385 0.31513 0.0
C1103 C 0.15103 0.33154 0.27664 0.0
C1104 C 0.14325 0.30833 0.26882 0.0
C1105 C 0.1527 0.29724 0.29976 0.0
C1106 C 0.17079 0.3104 0.33805 0.0
H1107 H 0.73728 0.88621 0.35576 0.0
H1108 H 0.74561 0.83394 0.27308 0.0
H1109 H 0.70532 0.80728 0.28686 0.0
H1110 H 0.69868 0.84991 0.4649 0.0
H1111 H 0.6822 0.86375 0.46514 0.0
H1112 H 0.71158 0.87931 0.44641 0.0
H1113 H 0.70159 0.89078 0.35002 0.0
H1114 H 0.67219 0.87532 0.36849 0.0
H1115 H 0.68178 0.86924 0.30253 0.0
H1116 H 0.66326 0.78561 0.30959 0.0
H1117 H 0.62392 0.77118 0.33993 0.0
H1118 H 0.64256 0.83611 0.41463 0.0
C1119 C 0.73097 0.86917 0.34081 0.0
C1120 C 0.74542 0.86269 0.31269 0.0
C1121 C 0.73548 0.84001 0.29343 0.0
C1122 C 0.7124 0.82447 0.30167 0.0
C1123 C 0.69896 0.83144 0.32993 0.0
C1124 C 0.70792 0.85326 0.34942 0.0
C1125 C 0.68982 0.85632 0.3795 0.0
C1126 C 0.69594 0.8627 0.44275 0.0
C1127 C 0.68613 0.87396 0.34827 0.0
C1128 C 0.66925 0.83282 0.37386 0.0
C1129 C 0.67494 0.81879 0.34473 0.0
C1130 C 0.65877 0.7965 0.33265 0.0
C1131 C 0.63635 0.78841 0.35012 0.0
C1132 C 0.62988 0.8023 0.38021 0.0
C1133 C 0.64683 0.82485 0.39259 0.0
H1134 H 0.24117 0.85899 0.42044 0.0
H1135 H 0.20375 0.79777 0.32122 0.0
H1136 H 0.17845 0.81112 0.28671 0.0
H1137 H 0.19281 0.8656 0.46003 0.0
H1138 H 0.20791 0.89581 0.45267 0.0
H1139 H 0.22275 0.88126 0.47203 0.0
H1140 H 0.24953 0.8995 0.38598 0.0
H1141 H 0.23467 0.91398 0.36614 0.0
H1142 H 0.23796 0.89614 0.31493 0.0
H1143 H 0.15705 0.83081 0.26143 0.0
H1144 H 0.14086 0.85547 0.24734 0.0
H1145 H 0.19182 0.90552 0.35912 0.0
C1146 C 0.22745 0.84832 0.39207 0.0
C1147 C 0.22442 0.82709 0.37399 0.0
C1148 C 0.20645 0.81394 0.33595 0.0
C1149 C 0.19196 0.82143 0.31598 0.0
C1150 C 0.1955 0.8424 0.33372 0.0
C1151 C 0.21278 0.85575 0.37091 0.0
C1152 C 0.21294 0.87789 0.38169 0.0
C1153 C 0.20886 0.88028 0.4454 0.0
C1154 C 0.2351 0.89807 0.36095 0.0
C1155 C 0.19311 0.87481 0.34492 0.0
C1156 C 0.18332 0.85411 0.31792 0.0
C1157 C 0.16461 0.84705 0.28244 0.0
C1158 C 0.15546 0.86124 0.27472 0.0
C1159 C 0.16488 0.88259 0.30183 0.0
C1160 C 0.18424 0.88948 0.33708 0.0
H1161 H 0.4043 0.21283 0.61912 0.0
H1162 H 0.4253 0.17632 0.73177 0.0
H1163 H 0.38645 0.1531 0.76533 0.0
H1164 H 0.36267 0.21292 0.71251 0.0
H1165 H 0.34251 0.20807 0.65692 0.0
H1166 H 0.37208 0.22213 0.64031 0.0
H1167 H 0.36466 0.19254 0.56185 0.0
H1168 H 0.33504 0.17849 0.57796 0.0
H1169 H 0.34994 0.16304 0.58015 0.0
H1170 H 0.34529 0.13465 0.79211 0.0
H1171 H 0.30448 0.12001 0.80201 0.0
H1172 H 0.30806 0.16601 0.66933 0.0
C1173 C 0.40073 0.19978 0.65028 0.0
C1174 C 0.41848 0.19704 0.67337 0.0
C1175 C 0.41258 0.17955 0.71421 0.0
C1176 C 0.39034 0.16602 0.73354 0.0
C1177 C 0.37352 0.1696 0.71143 0.0
C1178 C 0.37828 0.18578 0.66997 0.0
C1179 C 0.35671 0.18571 0.65307 0.0
C1180 C 0.35861 0.20857 0.6665 0.0
C1181 C 0.35127 0.17958 0.58947 0.0
C1182 C 0.33927 0.16717 0.69173 0.0
C1183 C 0.34947 0.15826 0.72535 0.0
C1184 C 0.33714 0.14143 0.76561 0.0
C1185 C 0.31386 0.13328 0.7713 0.0
C1186 C 0.30265 0.14163 0.73666 0.0
C1187 C 0.31582 0.15894 0.69629 0.0
H1188 H 0.86898 0.14896 0.70629 0.0
H1189 H 0.93327 0.20312 0.76629 0.0
H1190 H 0.92023 0.23028 0.74865 0.0
H1191 H 0.86188 0.18004 0.59177 0.0
H1192 H 0.83192 0.16732 0.60129 0.0
H1193 H 0.84594 0.15197 0.62059 0.0
H1194 H 0.82975 0.14636 0.72321 0.0
H1195 H 0.81562 0.16163 0.70418 0.0
H1196 H 0.8345 0.17058 0.76458 0.0
H1197 H 0.90016 0.25227 0.7212 0.0
H1198 H 0.87484 0.26627 0.69158 0.0
H1199 H 0.82386 0.19812 0.64621 0.0
C1200 C 0.88049 0.16652 0.71566 0.0
C1201 C 0.90238 0.17358 0.73801 0.0
C1202 C 0.91639 0.19687 0.75018 0.0
C1203 C 0.90916 0.21259 0.73973 0.0
C1204 C 0.8877 0.20504 0.71699 0.0
C1205 C 0.87353 0.18248 0.70542 0.0
C1206 C 0.85128 0.1787 0.68097 0.0
C1207 C 0.84754 0.16893 0.62004 0.0
C1208 C 0.83163 0.16341 0.7206 0.0
C1209 C 0.85512 0.20263 0.68035 0.0
C1210 C 0.87627 0.21759 0.70121 0.0
C1211 C 0.88361 0.2406 0.70468 0.0
C1212 C 0.86905 0.24848 0.68705 0.0
C1213 C 0.8471 0.23356 0.66583 0.0
C1214 C 0.8403 0.21022 0.66247 0.0
H1215 H 0.88833 0.73043 0.77292 0.0
H1216 H 0.85565 0.75312 0.65226 0.0
H1217 H 0.83262 0.71445 0.61681 0.0
H1218 H 0.88972 0.68878 0.68257 0.0
H1219 H 0.88306 0.66816 0.73819 0.0
H1220 H 0.89714 0.69769 0.75591 0.0
H1221 H 0.86581 0.69039 0.82869 0.0
H1222 H 0.85174 0.6608 0.81151 0.0
H1223 H 0.8369 0.67623 0.8054 0.0
H1224 H 0.81448 0.67349 0.5885 0.0
H1225 H 0.80036 0.63314 0.57561 0.0
H1226 H 0.84129 0.63451 0.71967 0.0
C1227 C 0.87613 0.72727 0.7396 0.0
C1228 C 0.87445 0.74544 0.71491 0.0
C1229 C 0.85808 0.74007 0.67121 0.0
C1230 C 0.84466 0.71794 0.65078 0.0
C1231 C 0.8472 0.7007 0.67462 0.0
C1232 C 0.86225 0.70495 0.71874 0.0
C1233 C 0.86126 0.683 0.73679 0.0
C1234 C 0.88416 0.6845 0.72783 0.0
C1235 C 0.85346 0.67727 0.79932 0.0
C1236 C 0.8436 0.66598 0.6955 0.0
C1237 C 0.83585 0.67668 0.65993 0.0
C1238 C 0.82016 0.66488 0.61696 0.0
C1239 C 0.812 0.64161 0.61032 0.0
C1240 C 0.81908 0.62968 0.6468 0.0
C1241 C 0.83529 0.64248 0.69013 0.0
H1242 H 0.06806 0.51528 0.93852 0.0
H1243 H 0.09269 0.56579 0.0729 0.0
H1244 H 0.05427 0.55013 0.11035 0.0
H1245 H 1.01421 0.51412 0.91614 0.0
H1246 H 0.99825 0.48412 0.90469 0.0
H1247 H 0.02768 0.49957 0.88635 0.0
H1248 H 0.03489 0.47318 0.95098 0.0
H1249 H 1.00551 0.45773 0.96973 0.0
H1250 H 0.02654 0.46979 1.02518 0.0
H1251 H 1.01332 0.52869 0.13633 0.0
H1252 H 0.97252 0.50391 0.14651 0.0
H1253 H 0.97243 0.46586 0.99741 0.0
C1254 C 0.0653 0.52319 0.97535 0.0
C1255 C 0.08378 0.54186 1.00278 0.0
C1256 C 0.07916 0.55143 0.05126 0.0
C1257 C 0.05725 0.54265 0.07296 0.0
C1258 C 0.03959 0.52407 0.04608 0.0
C1259 C 0.04323 0.51445 0.99811 0.0
C1260 C 1.02097 0.49431 0.97843 0.0
C1261 C 1.01492 0.49827 0.91779 0.0
C1262 C 1.02205 0.47245 0.98125 0.0
C1263 C 1.00447 0.49417 1.02282 0.0
C1264 C 1.01571 0.51154 0.06136 0.0
C1265 C 1.00438 0.51498 0.1064 0.0
C1266 C 0.98101 0.50052 0.11221 0.0
C1267 C 0.9687 0.48246 0.07344 0.0
C1268 C 0.98092 0.47942 0.02798 0.0
H1269 H 0.4904 0.52573 1.00818 0.0
H1270 H 0.54627 0.59317 0.97885 0.0
H1271 H 0.57284 0.57977 1.0007 0.0
H1272 H 0.51498 0.51239 0.12741 0.0
H1273 H 0.50372 0.48333 0.10715 0.0
H1274 H 0.48905 0.49802 0.08756 0.0
H1275 H 0.49001 0.48813 0.98097 0.0
H1276 H 0.5046 0.47334 1.00025 0.0
H1277 H 0.51657 0.49561 0.9479 0.0
H1278 H 0.59383 0.55885 0.02944 0.0
H1279 H 0.60685 0.53241 0.05631 0.0
H1280 H 0.53748 0.47853 0.06885 0.0
C1281 C 0.50821 0.53781 1.00639 0.0
C1282 C 0.51597 0.56072 0.99141 0.0
C1283 C 0.53958 0.57556 0.9891 0.0
C1284 C 0.55492 0.56809 1.00204 0.0
C1285 C 0.54665 0.54558 1.01727 0.0
C1286 C 0.5238 0.53062 1.01909 0.0
C1287 C 0.51924 0.50725 0.03658 0.0
C1288 C 0.50596 0.49981 0.09303 0.0
C1289 C 0.50687 0.49007 0.98856 0.0
C1290 C 0.54305 0.51136 0.04453 0.0
C1291 C 0.55864 0.53361 0.03339 0.0
C1292 C 0.58167 0.54142 0.03824 0.0
C1293 C 0.58895 0.52619 0.05417 0.0
C1294 C 0.5734 0.50313 0.06524 0.0
C1295 C 0.55004 0.49586 0.06038 0.0
H1296 H 0.56092 0.06146 0.03708 0.0
H1297 H 0.50693 0.07029 0.1049 0.0
H1298 H 0.48004 0.03014 0.0858 0.0
H1299 H 0.52923 0.02412 0.92213 0.0
H1300 H 0.54233 1.00704 0.92814 0.0
H1301 H 0.55753 0.03623 0.94916 0.0
H1302 H 0.56424 0.02487 0.04979 0.0
H1303 H 0.54914 0.99564 0.02901 0.0
H1304 H 0.54054 1.00486 0.09154 0.0
H1305 H 0.45828 0.98845 0.05536 0.0
H1306 H 0.44443 0.94955 1.0222 0.0
H1307 H 0.51227 0.9676 0.9718 0.0
C1308 C 0.54345 0.05511 0.04795 0.0
C1309 C 0.53633 0.06956 0.07279 0.0
C1310 C 0.51319 0.05994 0.0868 0.0
C1311 C 0.49764 0.03702 0.07555 0.0
C1312 C 0.50523 0.02351 0.05026 0.0
C1313 C 0.52767 0.03221 0.03703 0.0
C1314 C 0.53151 1.01412 1.00997 0.0
C1315 C 0.54069 0.02078 0.94871 0.0
C1316 C 0.54729 1.00961 0.04731 0.0
C1317 C 0.50774 0.99388 1.00969 0.0
C1318 C 0.49281 0.99968 0.03299 0.0
C1319 C 0.46992 0.98387 0.03699 0.0
C1320 C 0.46213 0.96168 1.01733 0.0
C1321 C 0.47701 0.95503 0.99357 0.0
C1322 C 0.50023 0.97169 0.98987 0.0
H1323 H 0.15733 0.18382 0.42908 0.0
H1324 H 0.0918 0.1258 0.39705 0.0
H1325 H 0.09846 0.10506 0.47475 0.0
H1326 H 0.18534 0.15083 0.45454 0.0
H1327 H 0.2041 0.16979 0.5083 0.0
H1328 H 0.19371 0.18029 0.45228 0.0
H1329 H 0.17842 0.19657 0.52849 0.0
H1330 H 0.18865 0.18601 0.58473 0.0
H1331 H 0.1594 0.17825 0.58273 0.0
H1332 H 0.11189 0.09122 0.5639 0.0
H1333 H 0.13227 0.08402 0.64145 0.0
H1334 H 0.19118 0.14883 0.6085 0.0
C1335 C 0.14434 0.16672 0.43833 0.0
C1336 C 0.12378 0.15667 0.40642 0.0
C1337 C 0.10761 0.13408 0.42009 0.0
C1338 C 0.11127 0.12214 0.46472 0.0
C1339 C 0.13158 0.13255 0.49543 0.0
C1340 C 0.14808 0.15423 0.48172 0.0
C1341 C 0.16898 0.16112 0.51886 0.0
C1342 C 0.18924 0.16578 0.48125 0.0
C1343 C 0.17417 0.18171 0.55589 0.0
C1344 C 0.16168 0.14017 0.55617 0.0
C1345 C 0.13985 0.12402 0.54276 0.0
C1346 C 0.12909 0.10376 0.57369 0.0
C1347 C 0.14082 0.09979 0.61825 0.0
C1348 C 0.16354 0.11559 0.63165 0.0
C1349 C 0.17396 0.13612 0.59949 0.0
H1350 H 0.89937 0.05571 0.60619 0.0
H1351 H 0.96509 0.06335 0.63623 0.0
H1352 H 0.95635 0.03259 0.56686 0.0
H1353 H 0.86983 0.99433 0.59694 0.0
H1354 H 0.8504 0.99275 0.54268 0.0
H1355 H 0.86219 1.01593 0.59255 0.0
H1356 H 0.87684 0.04407 0.50812 0.0
H1357 H 0.86512 0.02097 0.45801 0.0
H1358 H 0.89457 0.0418 0.45467 0.0
H1359 H 0.94037 1.00092 0.48804 0.0
H1360 H 0.91816 0.97041 0.41834 0.0
H1361 H 0.86126 0.98034 0.44503 0.0
C1362 C 0.91203 0.05103 0.59804 0.0
C1363 C 0.93323 0.06253 0.62702 0.0
C1364 C 0.94887 0.05523 0.61514 0.0
C1365 C 0.94399 0.03764 0.57536 0.0
C1366 C 0.92305 0.02675 0.54763 0.0
C1367 C 0.90717 0.03302 0.55926 0.0
C1368 C 0.88553 0.01792 0.52572 0.0
C1369 C 0.86582 1.00444 0.56693 0.0
C1370 C 0.8802 0.03203 0.48417 0.0
C1371 C 0.89166 1.00232 0.49297 0.0
C1372 C 0.91352 1.00789 0.50562 0.0
C1373 C 0.92318 0.99643 0.47873 0.0
C1374 C 0.91037 0.97899 0.43875 0.0
C1375 C 0.88768 0.9724 0.42581 0.0
C1376 C 0.87838 0.98447 0.45396 0.0
H1377 H 0.06268 0.89308 0.44172 0.0
H1378 H 0.08294 0.96386 0.44792 0.0
H1379 H 0.05594 0.95608 0.52728 0.0
H1380 H 1.00314 0.87303 0.46535 0.0
H1381 H 0.9985 0.84892 0.50692 0.0
H1382 H 1.02029 0.86029 0.45331 0.0
H1383 H 0.04956 0.86478 0.52957 0.0
H1384 H 0.02787 0.85348 0.58345 0.0
H1385 H 0.05256 0.88067 0.59381 0.0
H1386 H 0.02678 0.94005 0.61207 0.0
H1387 H 0.99659 0.91763 0.68222 0.0
H1388 H 0.99178 0.85648 0.61479 0.0
C1389 C 0.0616 0.90703 0.45998 0.0
C1390 C 0.07552 0.92933 0.43823 0.0
C1391 C 0.07286 0.94675 0.46323 0.0
C1392 C 0.05745 0.94241 0.50876 0.0
C1393 C 0.04404 0.92033 0.52904 0.0
C1394 C 0.04572 0.90285 0.50454 0.0
C1395 C 0.02846 0.88043 0.5318 0.0
C1396 C 1.0116 0.86474 0.48665 0.0
C1397 C 0.04032 0.86917 0.56141 0.0
C1398 C 1.01692 0.88791 0.57583 0.0
C1399 C 0.02642 0.91107 0.57424 0.0
C1400 C 1.01919 0.92191 0.61273 0.0
C1401 C 1.00194 0.90896 0.65292 0.0
C1402 C 0.9913 0.88509 0.65454 0.0
C1403 C 0.99913 0.87461 0.61483 0.0
H1404 H 0.86664 0.82546 0.65645 0.0
H1405 H 0.86761 0.88097 0.74585 0.0
H1406 H 0.83445 0.87516 0.69163 0.0
H1407 H 0.86861 0.84042 0.53986 0.0
H1408 H 0.84949 0.81579 0.49912 0.0
H1409 H 0.86042 0.81243 0.56508 0.0
H1410 H 0.82031 0.78707 0.60353 0.0
H1411 H 0.80908 0.7902 0.53644 0.0
H1412 H 0.80026 0.79676 0.6029 0.0
H1413 H 0.81644 0.87659 0.60703 0.0
H1414 H 0.8215 0.88897 0.50772 0.0
H1415 H 0.83425 0.83555 0.45909 0.0
C1416 C 0.85875 0.83529 0.66668 0.0
C1417 C 0.86944 0.85365 0.7045 0.0
C1418 C 0.85953 0.86687 0.71658 0.0
C1419 C 0.8405 0.8634 0.68627 0.0
C1420 C 0.832 0.84705 0.64303 0.0
C1421 C 0.84058 0.83272 0.63403 0.0
C1422 C 0.83429 0.82196 0.57517 0.0
C1423 C 0.85443 0.82282 0.54301 0.0
C1424 C 0.81482 0.79756 0.57981 0.0
C1425 C 0.82622 0.83671 0.54809 0.0
C1426 C 0.82241 0.84901 0.58948 0.0
C1427 C 0.81886 0.8667 0.57461 0.0
C1428 C 0.82191 0.87376 0.51768 0.0
C1429 C 0.82877 0.86333 0.47638 0.0
C1430 C 0.82912 0.84361 0.49076 0.0
H1431 H 0.15596 0.94991 0.50547 0.0
H1432 H 0.21627 0.99695 0.41602 0.0
H1433 H 0.23594 1.01069 0.5075 0.0
H1434 H 0.14947 0.97844 0.58089 0.0
H1435 H 0.14195 0.96502 0.65025 0.0
H1436 H 0.13797 0.9484 0.5882 0.0
H1437 H 0.16237 0.93335 0.63181 0.0
H1438 H 0.16627 0.94999 0.69522 0.0
H1439 H 0.19031 0.95261 0.65726 0.0
H1440 H 0.24112 0.0321 0.59078 0.0
H1441 H 0.23124 0.05586 0.64648 0.0
H1442 H 0.1679 0.99761 0.69331 0.0
C1443 C 0.17374 0.962 0.50578 0.0
C1444 C 0.18454 0.97283 0.45459 0.0
C1445 C 0.20766 0.9888 0.45528 0.0
C1446 C 0.21899 0.99648 0.50733 0.0
C1447 C 0.20688 0.98818 0.55822 0.0
C1448 C 0.18483 0.97037 0.55801 0.0
C1449 C 0.17342 0.96877 0.61486 0.0
C1450 C 0.14935 0.96503 0.60796 0.0
C1451 C 0.1731 0.95009 0.65198 0.0
C1452 C 0.18981 0.99167 0.63929 0.0
C1453 C 0.20998 1.00149 0.60934 0.0
C1454 C 0.22573 0.02432 0.61549 0.0
C1455 C 0.21985 0.03787 0.64722 0.0
C1456 C 0.19835 0.02858 0.6727 0.0
C1457 C 0.18417 1.00504 0.67291 0.0
H1458 H 1.02398 0.20218 0.62184 0.0
H1459 H 0.95672 0.15889 0.5585 0.0
H1460 H 0.96712 0.17783 0.46611 0.0
H1461 H 0.03744 0.25188 0.49711 0.0
H1462 H 0.06598 0.25735 0.49668 0.0
H1463 H 0.05103 0.25235 0.56354 0.0
H1464 H 0.05971 0.22072 0.58708 0.0
H1465 H 0.07448 0.22565 0.52132 0.0
H1466 H 0.05151 0.19778 0.53706 0.0
H1467 H 0.98674 0.18246 0.37967 0.0
H1468 H 1.01168 0.17556 0.31813 0.0
H1469 H 0.06809 0.21841 0.42613 0.0
C1470 C 1.01138 0.1978 0.58893 0.0
C1471 C 0.98995 0.17886 0.59633 0.0
C1472 C 0.97338 0.17333 0.55374 0.0
C1473 C 0.97918 0.18421 0.50083 0.0
C1474 C 1.00151 0.2007 0.49136 0.0
C1475 C 1.01722 0.20852 0.53554 0.0
C1476 C 0.04087 0.22206 0.5121 0.0
C1477 C 0.04931 0.2474 0.51766 0.0
C1478 C 0.05753 0.21609 0.54099 0.0
C1479 C 0.0363 0.21493 0.44988 0.0
C1480 C 1.01346 0.20437 0.43763 0.0
C1481 C 1.00464 0.19141 0.38803 0.0
C1482 C 1.01882 0.18724 0.35356 0.0
C1483 C 0.04161 0.19629 0.36838 0.0
C1484 C 0.05072 0.21174 0.41391 0.0
H1485 H 0.82249 0.5133 0.76652 0.0
H1486 H 0.75274 0.46056 0.75801 0.0
H1487 H 0.75961 0.44018 0.83635 0.0
H1488 H 0.84415 0.47443 0.78893 0.0
H1489 H 0.86685 0.49366 0.83459 0.0
H1490 H 0.8561 0.50438 0.78 0.0
H1491 H 0.8487 0.52713 0.85672 0.0
H1492 H 0.85929 0.51638 0.91158 0.0
H1493 H 0.8315 0.51275 0.91799 0.0
H1494 H 0.77432 0.42658 0.92338 0.0
H1495 H 0.79572 0.41882 0.99692 0.0
H1496 H 0.85708 0.47767 0.94112 0.0
C1497 C 0.80861 0.49741 0.7809 0.0
C1498 C 0.78686 0.48877 0.75555 0.0
C1499 C 0.76947 0.46772 0.77597 0.0
C1500 C 0.77327 0.45601 0.82095 0.0
C1501 C 0.79483 0.46503 0.84499 0.0
C1502 C 0.81234 0.48506 0.8245 0.0
C1503 C 0.83425 0.4905 0.85505 0.0
C1504 C 0.85135 0.49076 0.81209 0.0
C1505 C 0.84401 0.51303 0.88724 0.0
C1506 C 0.82639 0.47078 0.89692 0.0
C1507 C 0.80349 0.45641 0.89107 0.0
C1508 C 0.79229 0.43765 0.92723 0.0
C1509 C 0.80464 0.43336 0.96937 0.0
C1510 C 0.82828 0.44731 0.97519 0.0
C1511 C 0.83913 0.46632 0.93782 0.0
H1512 H 0.56847 0.38561 0.9492 0.0
H1513 H 0.63514 0.39468 0.97116 0.0
H1514 H 0.62722 0.36674 0.89378 0.0
H1515 H 0.54084 0.32463 0.92686 0.0
H1516 H 0.52073 0.32409 0.87631 0.0
H1517 H 0.53214 0.34544 0.93118 0.0
H1518 H 0.54527 0.37636 0.85356 0.0
H1519 H 0.53403 0.35511 0.79843 0.0
H1520 H 0.56316 0.37688 0.7963 0.0
H1521 H 0.61197 0.3385 0.80599 0.0
H1522 H 0.59004 0.31022 0.73097 0.0
H1523 H 0.53157 0.31565 0.77389 0.0
C1524 C 0.58147 0.38174 0.93792 0.0
C1525 C 0.60269 0.39283 0.96683 0.0
C1526 C 0.61885 0.38673 0.95042 0.0
C1527 C 0.61445 0.37081 0.90598 0.0
C1528 C 0.59346 0.36033 0.87832 0.0
C1529 C 0.57705 0.36528 0.8948 0.0
C1530 C 0.5554 0.35078 0.8608 0.0
C1531 C 0.53614 0.33532 0.90119 0.0
C1532 C 0.54909 0.36567 0.82517 0.0
C1533 C 0.56211 0.33706 0.82199 0.0
C1534 C 0.5843 0.34312 0.83194 0.0
C1535 C 0.59452 0.33357 0.79894 0.0
C1536 C 0.5819 0.31746 0.75587 0.0
C1537 C 0.55885 0.31022 0.74607 0.0
C1538 C 0.54901 0.32037 0.78023 0.0
H1539 H 0.65181 0.18543 0.93912 0.0
H1540 H 0.64477 0.24348 0.97713 0.0
H1541 H 0.67522 0.26613 0.9079 0.0
H1542 H 0.71301 0.21684 0.9283 0.0
H1543 H 0.7142 0.1996 0.87161 0.0
H1544 H 0.69128 0.18775 0.92205 0.0
H1545 H 0.66283 0.1756 0.83852 0.0
H1546 H 0.68567 0.18744 0.78783 0.0
H1547 H 0.66501 0.19636 0.78756 0.0
H1548 H 0.70649 0.28257 0.82906 0.0
H1549 H 0.73667 0.29162 0.75805 0.0
H1550 H 0.72637 0.22419 0.77601 0.0
C1551 C 0.65655 0.20289 0.93272 0.0
C1552 C 0.64533 0.21241 0.9639 0.0
C1553 C 0.65269 0.23553 0.95428 0.0
C1554 C 0.6701 0.2486 0.91464 0.0
C1555 C 0.68072 0.23872 0.88474 0.0
C1556 C 0.67437 0.2164 0.89403 0.0
C1557 C 0.68918 0.21009 0.85829 0.0
C1558 C 0.70272 0.20316 0.8974 0.0
C1559 C 0.67481 0.19125 0.81552 0.0
C1560 C 0.70472 0.23217 0.82702 0.0
C1561 C 0.69935 0.24843 0.84238 0.0
C1562 C 0.71082 0.26991 0.81753 0.0
C1563 C 0.72806 0.27494 0.77679 0.0
C1564 C 0.73442 0.25889 0.76097 0.0
C1565 C 0.72237 0.23713 0.78709 0.0
H1566 H 0.55846 0.1532 0.88213 0.0
H1567 H 0.50223 0.15226 0.96661 0.0
H1568 H 0.48178 0.14348 0.87514 0.0
H1569 H 0.56723 0.18635 0.79462 0.0
H1570 H 0.57336 0.17602 0.72978 0.0
H1571 H 0.57658 0.16594 0.79724 0.0
H1572 H 0.54966 0.1251 0.76568 0.0
H1573 H 0.54642 0.13522 0.69698 0.0
H1574 H 0.52201 0.11707 0.73916 0.0
H1575 H 0.47527 0.15216 0.78191 0.0
H1576 H 0.48683 0.18356 0.71611 0.0
H1577 H 0.54936 0.18481 0.68424 0.0
C1578 C 0.54125 0.14967 0.88103 0.0
C1579 C 0.53172 0.15327 0.93032 0.0
C1580 C 0.50963 0.14949 0.92871 0.0
C1581 C 0.49787 0.14418 0.87688 0.0
C1582 C 0.50873 0.14343 0.82682 0.0
C1583 C 0.53003 0.14571 0.82873 0.0
C1584 C 0.54125 0.15194 0.7705 0.0
C1585 C 0.56601 0.17125 0.77336 0.0
C1586 C 0.53972 0.13109 0.74136 0.0
C1587 C 0.52588 0.15866 0.7408 0.0
C1588 C 0.50581 0.15071 0.77072 0.0
C1589 C 0.49069 0.1581 0.7579 0.0
C1590 C 0.49748 0.17615 0.72031 0.0
C1591 C 0.51935 0.18682 0.6968 0.0
C1592 C 0.53269 0.17669 0.70266 0.0
H1593 H 0.83131 0.32898 0.04889 0.0
H1594 H 0.89609 0.38539 1.00327 0.0
H1595 H 0.90473 0.36059 0.94861 0.0
H1596 H 0.85115 0.28142 1.00818 0.0
H1597 H 0.82285 0.26344 0.98302 0.0
H1598 H 0.82778 0.27938 0.04827 0.0
H1599 H 0.80454 0.29636 1.00827 0.0
H1600 H 0.79964 0.28066 0.94399 0.0
H1601 H 0.81221 0.31091 0.9403 0.0
H1602 H 0.89818 0.34029 0.86311 0.0
H1603 H 0.87804 0.32908 0.77159 0.0
H1604 H 0.81694 0.28286 0.8592 0.0
C1605 C 0.84761 0.33574 0.02894 0.0
C1606 C 0.86246 0.35918 0.02816 0.0
C1607 C 0.88406 0.36756 1.00397 0.0
C1608 C 0.88924 0.35336 0.97286 0.0
C1609 C 0.87267 0.33086 0.96576 0.0
C1610 C 0.85252 0.32168 0.99584 0.0
C1611 C 0.83528 0.29938 0.96988 0.0
C1612 C 0.83423 0.27976 1.00436 0.0
C1613 C 0.81159 0.29678 0.96518 0.0
C1614 C 0.84627 0.30128 0.91227 0.0
C1615 C 0.86876 0.31808 0.91318 0.0
C1616 C 0.88088 0.32676 0.86242 0.0
C1617 C 0.86931 0.32055 0.8104 0.0
C1618 C 0.84597 0.30549 0.80951 0.0
C1619 C 0.83491 0.29418 0.85991 0.0
H1620 H 0.64288 0.50075 0.91612 0.0
H1621 H 0.69777 0.53433 0.03544 0.0
H1622 H 0.71877 0.56406 0.96521 0.0
H1623 H 0.66434 0.49675 0.81629 0.0
H1624 H 0.65345 0.50448 0.75531 0.0
H1625 H 0.63764 0.49595 0.81987 0.0
H1626 H 0.63689 0.53313 0.82315 0.0
H1627 H 0.65282 0.54183 0.75742 0.0
H1628 H 0.66271 0.55973 0.81972 0.0
H1629 H 0.73968 0.57469 0.8795 0.0
H1630 H 0.75524 0.56471 0.7985 0.0
H1631 H 0.68903 0.52756 0.7227 0.0
C1632 C 0.65868 0.51528 0.92808 0.0
C1633 C 0.66908 0.51512 0.97983 0.0
C1634 C 0.68983 0.53398 0.99509 0.0
C1635 C 0.70171 0.55115 0.95552 0.0
C1636 C 0.69261 0.5492 0.90088 0.0
C1637 C 0.67089 0.53224 0.88785 0.0
C1638 C 0.66717 0.53013 0.8236 0.0
C1639 C 0.65503 0.50538 0.8027 0.0
C1640 C 0.65414 0.54192 0.80489 0.0
C1641 C 0.69135 0.54344 0.80367 0.0
C1642 C 0.70547 0.55613 0.84809 0.0
C1643 C 0.72876 0.56542 0.84414 0.0
C1644 C 0.73755 0.55946 0.79771 0.0
C1645 C 0.72309 0.54445 0.75545 0.0
C1646 C 0.70023 0.53844 0.75565 0.0
H1647 H 0.51831 0.81001 0.28475 0.0
H1648 H 0.45773 0.75054 0.34156 0.0
H1649 H 0.4357 0.75793 0.26904 0.0
H1650 H 0.49143 0.84421 0.26262 0.0
H1651 H 0.50855 0.85886 0.2015 0.0
H1652 H 0.51946 0.84844 0.25642 0.0
H1653 H 0.52774 0.82621 0.18002 0.0
H1654 H 0.51674 0.83647 0.12493 0.0
H1655 H 0.50534 0.80661 0.13416 0.0
H1656 H 0.42038 0.77103 0.18235 0.0
H1657 H 0.41297 0.79055 0.10296 0.0
H1658 H 0.48245 0.84402 0.10905 0.0
C1659 C 0.50037 0.79851 0.28212 0.0
C1660 C 0.48994 0.77944 0.31943 0.0
C1661 C 0.46632 0.7652 0.31425 0.0
C1662 C 0.45363 0.76928 0.27265 0.0
C1663 C 0.46445 0.78808 0.23644 0.0
C1664 C 0.4873 0.80274 0.24177 0.0
C1665 C 0.49477 0.82235 0.1996 0.0
C1666 C 0.50411 0.8448 0.23196 0.0
C1667 C 0.51218 0.82294 0.15717 0.0
C1668 C 0.47273 0.81639 0.169 0.0
C1669 C 0.45546 0.79634 0.19023 0.0
C1670 C 0.43385 0.78689 0.16643 0.0
C1671 C 0.42974 0.79812 0.12084 0.0
C1672 C 0.44689 0.8191 0.09929 0.0
C1673 C 0.46872 0.82823 0.12446 0.0
H1674 H 0.22744 0.71811 0.28068 0.0
H1675 H 0.29285 0.72528 0.31222 0.0
H1676 H 0.28628 0.69839 0.23308 0.0
H1677 H 0.19929 0.65722 0.25168 0.0
H1678 H 0.18072 0.65809 0.19841 0.0
H1679 H 0.19102 0.67835 0.25593 0.0
H1680 H 0.20659 0.71072 0.18197 0.0
H1681 H 0.19652 0.69056 0.12423 0.0
H1682 H 0.22578 0.71196 0.12744 0.0
H1683 H 0.27299 0.67199 0.14177 0.0
H1684 H 0.25266 0.64521 0.06254 0.0
H1685 H 0.19386 0.65106 0.09769 0.0
C1686 C 0.24038 0.71394 0.27124 0.0
C1687 C 0.26086 0.72419 0.30338 0.0
C1688 C 0.27705 0.71785 0.28919 0.0
C1689 C 0.27345 0.70258 0.24368 0.0
C1690 C 0.25321 0.69298 0.21264 0.0
C1691 C 0.2367 0.69807 0.22702 0.0
C1692 C 0.21591 0.68455 0.18926 0.0
C1693 C 0.19553 0.66861 0.22601 0.0
C1694 C 0.21091 0.7004 0.15362 0.0
C1695 C 0.22328 0.67128 0.15074 0.0
C1696 C 0.24505 0.67672 0.1641 0.0
C1697 C 0.25584 0.66751 0.13203 0.0
C1698 C 0.24415 0.65229 0.0865 0.0
C1699 C 0.22148 0.64562 0.07326 0.0
C1700 C 0.21106 0.65545 0.10648 0.0
H1701 H 0.32245 0.52233 0.27304 0.0
H1702 H 0.31105 0.57888 0.28732 0.0
H1703 H 0.34102 0.59979 0.21563 0.0
H1704 H 0.38348 0.55643 0.2615 0.0
H1705 H 0.38602 0.53762 0.21202 0.0
H1706 H 0.36308 0.52677 0.2624 0.0
H1707 H 0.33468 0.50946 0.17898 0.0
H1708 H 0.35754 0.5203 0.12835 0.0
H1709 H 0.33557 0.52725 0.121 0.0
H1710 H 0.37234 0.61446 0.13678 0.0
H1711 H 0.4031 0.62224 0.06848 0.0
H1712 H 0.39697 0.55784 0.11049 0.0
C1713 C 0.32615 0.53909 0.26095 0.0
C1714 C 0.31387 0.5487 0.28619 0.0
C1715 C 0.31985 0.5709 0.26918 0.0
C1716 C 0.33696 0.58297 0.22806 0.0
C1717 C 0.34867 0.57304 0.2041 0.0
C1718 C 0.34367 0.55165 0.22067 0.0
C1719 C 0.35945 0.54519 0.19033 0.0
C1720 C 0.37386 0.54127 0.23418 0.0
C1721 C 0.346 0.52431 0.15242 0.0
C1722 C 0.37398 0.5661 0.15382 0.0
C1723 C 0.3673 0.58189 0.1618 0.0
C1724 C 0.37771 0.60218 0.13103 0.0
C1725 C 0.39528 0.60651 0.09191 0.0
C1726 C 0.40297 0.59094 0.08375 0.0
C1727 C 0.39193 0.5704 0.1157 0.0
H1728 H 0.23513 0.49323 0.18982 0.0
H1729 H 0.17203 0.47571 0.27033 0.0
H1730 H 0.15373 0.46805 0.17633 0.0
H1731 H 0.24042 0.52729 0.11265 0.0
H1732 H 0.24999 0.52235 0.04497 0.0
H1733 H 0.25398 0.51049 0.10851 0.0
H1734 H 0.23277 0.4709 0.06387 0.0
H1735 H 0.22881 0.48287 0.9991 0.0
H1736 H 0.20495 0.46029 0.03488 0.0
H1737 H 0.14804 0.48201 0.08991 0.0
H1738 H 0.15653 0.51577 0.03653 0.0
H1739 H 0.22341 0.52777 1.00109 0.0
C1740 C 0.21715 0.48631 0.18689 0.0
C1741 C 0.20495 0.48536 0.23619 0.0
C1742 C 0.18161 0.47678 0.23244 0.0
C1743 C 0.1711 0.47213 0.17899 0.0
C1744 C 0.18427 0.47663 0.1297 0.0
C1745 C 0.20686 0.48274 0.13318 0.0
C1746 C 0.21894 0.49322 0.0775 0.0
C1747 C 0.24213 0.51462 0.08662 0.0
C1748 C 0.22149 0.47578 0.04173 0.0
C1749 C 0.20179 0.49807 0.05021 0.0
C1750 C 0.18105 0.48598 0.07711 0.0
C1751 C 0.16399 0.49109 0.0679 0.0
C1752 C 0.16904 0.51058 0.03749 0.0
C1753 C 0.19102 0.52477 1.01658 0.0
C1754 C 0.2067 0.51724 1.01811 0.0
H1755 H 0.4931 0.66045 0.37877 0.0
H1756 H 0.55891 0.71796 0.35214 0.0
H1757 H 0.56889 0.69574 0.2896 0.0
H1758 H 0.51424 0.61436 0.33149 0.0
H1759 H 0.48663 0.59729 0.30115 0.0
H1760 H 0.48988 0.61106 0.36927 0.0
H1761 H 0.46763 0.62934 0.33021 0.0
H1762 H 0.46447 0.61589 0.26299 0.0
H1763 H 0.47714 0.64616 0.26577 0.0
H1764 H 0.56357 0.67905 0.19765 0.0
H1765 H 0.5458 0.66747 0.10294 0.0
H1766 H 0.48398 0.61781 0.18258 0.0
C1767 C 0.51004 0.66752 0.36253 0.0
C1768 C 0.52498 0.69072 0.3686 0.0
C1769 C 0.54715 0.70011 0.34772 0.0
C1770 C 0.55297 0.68748 0.31203 0.0
C1771 C 0.53654 0.66544 0.2986 0.0
C1772 C 0.51582 0.65492 0.32625 0.0
C1773 C 0.49933 0.63354 0.29522 0.0
C1774 C 0.49743 0.61285 0.32611 0.0
C1775 C 0.47583 0.6312 0.288 0.0
C1776 C 0.5117 0.63729 0.23902 0.0
C1777 C 0.5338 0.65468 0.24327 0.0
C1778 C 0.54669 0.66484 0.19434 0.0
C1779 C 0.5364 0.65845 0.14055 0.0
C1780 C 0.5135 0.64192 0.13605 0.0
C1781 C 0.50166 0.63015 0.18533 0.0
H1782 H 0.37772 0.84609 0.36997 0.0
H1783 H 0.32038 0.85351 0.33254 0.0
H1784 H 0.34329 0.8853 0.26936 0.0
H1785 H 0.42391 0.91332 0.31892 0.0
H1786 H 0.44165 0.90267 0.29384 0.0
H1787 H 0.42725 0.89327 0.36155 0.0
H1788 H 0.4101 0.85213 0.32794 0.0
H1789 H 0.42421 0.86134 0.26117 0.0
H1790 H 0.39403 0.84334 0.26221 0.0
H1791 H 0.36077 0.89506 0.17834 0.0
H1792 H 0.37239 0.88602 0.08728 0.0
H1793 H 0.42187 0.87615 0.17616 0.0
C1794 C 0.37084 0.85582 0.35139 0.0
C1795 C 0.34757 0.8474 0.35446 0.0
C1796 C 0.33831 0.85983 0.33039 0.0
C1797 C 0.35134 0.87801 0.29432 0.0
C1798 C 0.3736 0.88365 0.28372 0.0
C1799 C 0.38387 0.87391 0.31476 0.0
C1800 C 0.40566 0.87856 0.2865 0.0
C1801 C 0.4258 0.89813 0.317 0.0
C1802 C 0.40856 0.85756 0.28418 0.0
C1803 C 0.40233 0.88598 0.22803 0.0
C1804 C 0.38488 0.89075 0.22868 0.0
C1805 C 0.37498 0.89231 0.17776 0.0
C1806 C 0.38142 0.88684 0.12607 0.0
C1807 C 0.39784 0.88023 0.12554 0.0
C1808 C 0.40961 0.88165 0.17613 0.0
loop_
_geom_bond_atom_site_label_1
_geom_bond_atom_site_label_2
_geom_bond_distance
_geom_bond_site_symmetry_2
_ccdc_geom_bond_type
Co0 N4 2.148 . S
Co0 N10 2.128 . S
Co0 N20 2.194 . S
Co0 O25 2.351 . S
Co0 O26 2.155 . S
Co0 O27 2.096 . S
C1 N4 1.301 . S
C1 N5 1.328 . S
C1 H6 0.930 . S
C2 C3 1.333 . S
C2 N4 1.317 . S
C2 H7 0.930 . S
C3 C2 1.333 . S
C3 N5 1.350 . S
C3 H29 0.931 . S
N4 Co0 2.148 . S
N4 C1 1.301 . S
N4 C2 1.317 . S
N5 C1 1.328 . S
N5 C3 1.350 . S
H6 C1 0.930 . S
H7 C2 0.930 . S
C8 O9 1.224 . S
C8 O27 1.247 . S
O9 C8 1.224 . S
N10 Co0 2.128 . S
N10 C11 1.355 . S
N10 C13 1.311 . S
C11 N10 1.355 . S
C11 C12 1.363 . S
C11 H23 0.929 . S
C12 C11 1.363 . S
C12 N14 1.375 . S
C12 H30 0.931 . S
C13 N10 1.311 . S
C13 N14 1.347 . S
C13 H24 0.929 . S
N14 C12 1.375 . S
N14 C13 1.347 . S
C15 C18 1.365 . S
C15 N20 1.328 . S
C15 H21 0.929 . S
C16 C17 1.362 . S
C16 C19 1.378 . S
C16 H31 0.929 . S
C17 C16 1.362 . S
C17 C18 1.366 . S
C18 C15 1.365 . S
C18 C17 1.366 . S
C18 H32 0.930 . S
C19 C16 1.378 . S
C19 N20 1.315 . S
C19 H22 0.930 . S
N20 Co0 2.194 . S
N20 C15 1.328 . S
N20 C19 1.315 . S
H21 C15 0.929 . S
H22 C19 0.930 . S
H23 C11 0.929 . S
H24 C13 0.929 . S
O25 Co0 2.351 . S
O25 C28 1.244 . S
O26 Co0 2.155 . S
O26 C28 1.240 . S
O27 Co0 2.096 . S
O27 C8 1.247 . S
C28 O25 1.244 . S
C28 O26 1.240 . S
H29 C3 0.931 . S
H30 C12 0.931 . S
H31 C16 0.929 . S
H32 C18 0.930 . S
Co33 N37 2.148 . S
Co33 N43 2.128 . S
Co33 N53 2.194 . S
Co33 O58 2.351 . S
Co33 O59 2.155 . S
Co33 O60 2.096 . S
C34 N37 1.301 . S
C34 N38 1.328 . S
C34 H39 0.930 . S
C35 C36 1.333 . S
C35 N37 1.317 . S
C35 H40 0.930 . S
C36 C35 1.333 . S
C36 N38 1.350 . S
C36 H62 0.931 . S
N37 Co33 2.148 . S
N37 C34 1.301 . S
N37 C35 1.317 . S
N38 C34 1.328 . S
N38 C36 1.350 . S
H39 C34 0.930 . S
H40 C35 0.930 . S
C41 O42 1.224 . S
C41 O60 1.247 . S
O42 C41 1.224 . S
N43 Co33 2.128 . S
N43 C44 1.355 . S
N43 C46 1.311 . S
C44 N43 1.355 . S
C44 C45 1.363 . S
C44 H56 0.929 . S
C45 C44 1.363 . S
C45 N47 1.375 . S
C45 H63 0.931 . S
C46 N43 1.311 . S
C46 N47 1.347 . S
C46 H57 0.929 . S
N47 C45 1.375 . S
N47 C46 1.347 . S
C48 C51 1.365 . S
C48 N53 1.328 . S
C48 H54 0.929 . S
C49 C50 1.362 . S
C49 C52 1.378 . S
C49 H64 0.929 . S
C50 C49 1.362 . S
C50 C51 1.366 . S
C51 C48 1.365 . S
C51 C50 1.366 . S
C51 H65 0.930 . S
C52 C49 1.378 . S
C52 N53 1.315 . S
C52 H55 0.930 . S
N53 Co33 2.194 . S
N53 C48 1.328 . S
N53 C52 1.315 . S
H54 C48 0.929 . S
H55 C52 0.930 . S
H56 C44 0.929 . S
H57 C46 0.929 . S
O58 Co33 2.351 . S
O58 C61 1.244 . S
O59 Co33 2.155 . S
O59 C61 1.240 . S
O60 Co33 2.096 . S
O60 C41 1.247 . S
C61 O58 1.244 . S
C61 O59 1.240 . S
H62 C36 0.931 . S
H63 C45 0.931 . S
H64 C49 0.929 . S
H65 C51 0.930 . S
Co66 N70 2.148 . S
Co66 N76 2.128 . S
Co66 N86 2.194 . S
Co66 O91 2.351 . S
Co66 O92 2.155 . S
Co66 O93 2.096 . S
C67 N70 1.301 . S
C67 N71 1.328 . S
C67 H72 0.930 . S
C68 C69 1.333 . S
C68 N70 1.317 . S
C68 H73 0.930 . S
C69 C68 1.333 . S
C69 N71 1.350 . S
C69 H95 0.931 . S
N70 Co66 2.148 . S
N70 C67 1.301 . S
N70 C68 1.317 . S
N71 C67 1.328 . S
N71 C69 1.350 . S
H72 C67 0.930 . S
H73 C68 0.930 . S
C74 O75 1.224 . S
C74 O93 1.247 . S
O75 C74 1.224 . S
N76 Co66 2.128 . S
N76 C77 1.355 . S
N76 C79 1.311 . S
C77 N76 1.355 . S
C77 C78 1.363 . S
C77 H89 0.929 . S
C78 C77 1.363 . S
C78 N80 1.375 . S
C78 H96 0.931 . S
C79 N76 1.311 . S
C79 N80 1.347 . S
C79 H90 0.929 . S
N80 C78 1.375 . S
N80 C79 1.347 . S
C81 C84 1.365 . S
C81 N86 1.328 . S
C81 H87 0.929 . S
C82 C83 1.362 . S
C82 C85 1.378 . S
C82 H97 0.929 . S
C83 C82 1.362 . S
C83 C84 1.366 . S
C84 C81 1.365 . S
C84 C83 1.366 . S
C84 H98 0.930 . S
C85 C82 1.378 . S
C85 N86 1.315 . S
C85 H88 0.930 . S
N86 Co66 2.194 . S
N86 C81 1.328 . S
N86 C85 1.315 . S
H87 C81 0.929 . S
H88 C85 0.930 . S
H89 C77 0.929 . S
H90 C79 0.929 . S
O91 Co66 2.351 . S
O91 C94 1.244 . S
O92 Co66 2.155 . S
O92 C94 1.240 . S
O93 Co66 2.096 . S
O93 C74 1.247 . S
C94 O91 1.244 . S
C94 O92 1.240 . S
H95 C69 0.931 . S
H96 C78 0.931 . S
H97 C82 0.929 . S
H98 C84 0.930 . S
Co99 N103 2.148 . S
Co99 N109 2.128 . S
Co99 N119 2.194 . S
Co99 O124 2.351 . S
Co99 O125 2.155 . S
Co99 O126 2.096 . S
C100 N103 1.301 . S
C100 N104 1.328 . S
C100 H105 0.930 . S
C101 C102 1.333 . S
C101 N103 1.317 . S
C101 H106 0.930 . S
C102 C101 1.333 . S
C102 N104 1.350 . S
C102 H128 0.931 . S
N103 Co99 2.148 . S
N103 C100 1.301 . S
N103 C101 1.317 . S
N104 C100 1.328 . S
N104 C102 1.350 . S
H105 C100 0.930 . S
H106 C101 0.930 . S
C107 O108 1.224 . S
C107 O126 1.247 . S
O108 C107 1.224 . S
N109 Co99 2.128 . S
N109 C110 1.355 . S
N109 C112 1.311 . S
C110 N109 1.355 . S
C110 C111 1.363 . S
C110 H122 0.929 . S
C111 C110 1.363 . S
C111 N113 1.375 . S
C111 H129 0.931 . S
C112 N109 1.311 . S
C112 N113 1.347 . S
C112 H123 0.929 . S
N113 C111 1.375 . S
N113 C112 1.347 . S
C114 C117 1.365 . S
C114 N119 1.328 . S
C114 H120 0.929 . S
C115 C116 1.362 . S
C115 C118 1.378 . S
C115 H130 0.929 . S
C116 C115 1.362 . S
C116 C117 1.366 . S
C117 C114 1.365 . S
C117 C116 1.366 . S
C117 H131 0.930 . S
C118 C115 1.378 . S
C118 N119 1.315 . S
C118 H121 0.930 . S
N119 Co99 2.194 . S
N119 C114 1.328 . S
N119 C118 1.315 . S
H120 C114 0.929 . S
H121 C118 0.930 . S
H122 C110 0.929 . S
H123 C112 0.929 . S
O124 Co99 2.351 . S
O124 C127 1.244 . S
O125 Co99 2.155 . S
O125 C127 1.240 . S
O126 Co99 2.096 . S
O126 C107 1.247 . S
C127 O124 1.244 . S
C127 O125 1.240 . S
H128 C102 0.931 . S
H129 C111 0.931 . S
H130 C115 0.929 . S
H131 C117 0.930 . S
Co132 N136 2.148 . S
Co132 N142 2.128 . S
Co132 N152 2.194 . S
Co132 O157 2.351 . S
Co132 O158 2.155 . S
Co132 O159 2.096 . S
C133 N136 1.301 . S
C133 N137 1.328 . S
C133 H138 0.930 . S
C134 C135 1.333 . S
C134 N136 1.317 . S
C134 H139 0.930 . S
C135 C134 1.333 . S
C135 N137 1.350 . S
C135 H161 0.931 . S
N136 Co132 2.148 . S
N136 C133 1.301 . S
N136 C134 1.317 . S
N137 C133 1.328 . S
N137 C135 1.350 . S
H138 C133 0.930 . S
H139 C134 0.930 . S
C140 O141 1.224 . S
C140 O159 1.247 . S
O141 C140 1.224 . S
N142 Co132 2.128 . S
N142 C143 1.355 . S
N142 C145 1.311 . S
C143 N142 1.355 . S
C143 C144 1.363 . S
C143 H155 0.929 . S
C144 C143 1.363 . S
C144 N146 1.375 . S
C144 H162 0.931 . S
C145 N142 1.311 . S
C145 N146 1.347 . S
C145 H156 0.929 . S
N146 C144 1.375 . S
N146 C145 1.347 . S
C147 C150 1.365 . S
C147 N152 1.328 . S
C147 H153 0.929 . S
C148 C149 1.362 . S
C148 C151 1.378 . S
C148 H163 0.929 . S
C149 C148 1.362 . S
C149 C150 1.366 . S
C150 C147 1.365 . S
C150 C149 1.366 . S
C150 H164 0.930 . S
C151 C148 1.378 . S
C151 N152 1.315 . S
C151 H154 0.930 . S
N152 Co132 2.194 . S
N152 C147 1.328 . S
N152 C151 1.315 . S
H153 C147 0.929 . S
H154 C151 0.930 . S
H155 C143 0.929 . S
H156 C145 0.929 . S
O157 Co132 2.351 . S
O157 C160 1.244 . S
O158 Co132 2.155 . S
O158 C160 1.240 . S
O159 Co132 2.096 . S
O159 C140 1.247 . S
C160 O157 1.244 . S
C160 O158 1.240 . S
H161 C135 0.931 . S
H162 C144 0.931 . S
H163 C148 0.929 . S
H164 C150 0.930 . S
Co165 N169 2.148 . S
Co165 N175 2.128 . S
Co165 N185 2.194 . S
Co165 O190 2.351 . S
Co165 O191 2.155 . S
Co165 O192 2.096 . S
C166 N169 1.301 . S
C166 N170 1.328 . S
C166 H171 0.930 . S
C167 C168 1.333 . S
C167 N169 1.317 . S
C167 H172 0.930 . S
C168 C167 1.333 . S
C168 N170 1.350 . S
C168 H194 0.931 . S
N169 Co165 2.148 . S
N169 C166 1.301 . S
N169 C167 1.317 . S
N170 C166 1.328 . S
N170 C168 1.350 . S
H171 C166 0.930 . S
H172 C167 0.930 . S
C173 O174 1.224 . S
C173 O192 1.247 . S
O174 C173 1.224 . S
N175 Co165 2.128 . S
N175 C176 1.355 . S
N175 C178 1.311 . S
C176 N175 1.355 . S
C176 C177 1.363 . S
C176 H188 0.929 . S
C177 C176 1.363 . S
C177 N179 1.375 . S
C177 H195 0.931 . S
C178 N175 1.311 . S
C178 N179 1.347 . S
C178 H189 0.929 . S
N179 C177 1.375 . S
N179 C178 1.347 . S
C180 C183 1.365 . S
C180 N185 1.328 . S
C180 H186 0.929 . S
C181 C182 1.362 . S
C181 C184 1.378 . S
C181 H196 0.929 . S
C182 C181 1.362 . S
C182 C183 1.366 . S
C183 C180 1.365 . S
C183 C182 1.366 . S
C183 H197 0.930 . S
C184 C181 1.378 . S
C184 N185 1.315 . S
C184 H187 0.930 . S
N185 Co165 2.194 . S
N185 C180 1.328 . S
N185 C184 1.315 . S
H186 C180 0.929 . S
H187 C184 0.930 . S
H188 C176 0.929 . S
H189 C178 0.929 . S
O190 Co165 2.351 . S
O190 C193 1.244 . S
O191 Co165 2.155 . S
O191 C193 1.240 . S
O192 Co165 2.096 . S
O192 C173 1.247 . S
C193 O190 1.244 . S
C193 O191 1.240 . S
H194 C168 0.931 . S
H195 C177 0.931 . S
H196 C181 0.929 . S
H197 C183 0.930 . S
Co198 N202 2.148 . S
Co198 N208 2.128 . S
Co198 N218 2.194 . S
Co198 O223 2.351 . S
Co198 O224 2.155 . S
Co198 O225 2.096 . S
C199 N202 1.301 . S
C199 N203 1.328 . S
C199 H204 0.930 . S
C200 C201 1.333 . S
C200 N202 1.317 . S
C200 H205 0.930 . S
C201 C200 1.333 . S
C201 N203 1.350 . S
C201 H227 0.931 . S
N202 Co198 2.148 . S
N202 C199 1.301 . S
N202 C200 1.317 . S
N203 C199 1.328 . S
N203 C201 1.350 . S
H204 C199 0.930 . S
H205 C200 0.930 . S
C206 O207 1.224 . S
C206 O225 1.247 . S
O207 C206 1.224 . S
N208 Co198 2.128 . S
N208 C209 1.355 . S
N208 C211 1.311 . S
C209 N208 1.355 . S
C209 C210 1.363 . S
C209 H221 0.929 . S
C210 C209 1.363 . S
C210 N212 1.375 . S
C210 H228 0.931 . S
C211 N208 1.311 . S
C211 N212 1.347 . S
C211 H222 0.929 . S
N212 C210 1.375 . S
N212 C211 1.347 . S
C213 C216 1.365 . S
C213 N218 1.328 . S
C213 H219 0.929 . S
C214 C215 1.362 . S
C214 C217 1.378 . S
C214 H229 0.929 . S
C215 C214 1.362 . S
C215 C216 1.366 . S
C216 C213 1.365 . S
C216 C215 1.366 . S
C216 H230 0.930 . S
C217 C214 1.378 . S
C217 N218 1.315 . S
C217 H220 0.930 . S
N218 Co198 2.194 . S
N218 C213 1.328 . S
N218 C217 1.315 . S
H219 C213 0.929 . S
H220 C217 0.930 . S
H221 C209 0.929 . S
H222 C211 0.929 . S
O223 Co198 2.351 . S
O223 C226 1.244 . S
O224 Co198 2.155 . S
O224 C226 1.240 . S
O225 Co198 2.096 . S
O225 C206 1.247 . S
C226 O223 1.244 . S
C226 O224 1.240 . S
H227 C201 0.931 . S
H228 C210 0.931 . S
H229 C214 0.929 . S
H230 C216 0.930 . S
Co231 N235 2.148 . S
Co231 N241 2.128 . S
Co231 N251 2.194 . S
Co231 O256 2.351 . S
Co231 O257 2.155 . S
Co231 O258 2.096 . S
C232 N235 1.301 . S
C232 N236 1.328 . S
C232 H237 0.930 . S
C233 C234 1.333 . S
C233 N235 1.317 . S
C233 H238 0.930 . S
C234 C233 1.333 . S
C234 N236 1.350 . S
C234 H260 0.931 . S
N235 Co231 2.148 . S
N235 C232 1.301 . S
N235 C233 1.317 . S
N236 C232 1.328 . S
N236 C234 1.350 . S
H237 C232 0.930 . S
H238 C233 0.930 . S
C239 O240 1.224 . S
C239 O258 1.247 . S
O240 C239 1.224 . S
N241 Co231 2.128 . S
N241 C242 1.355 . S
N241 C244 1.311 . S
C242 N241 1.355 . S
C242 C243 1.363 . S
C242 H254 0.929 . S
C243 C242 1.363 . S
C243 N245 1.375 . S
C243 H261 0.931 . S
C244 N241 1.311 . S
C244 N245 1.347 . S
C244 H255 0.929 . S
N245 C243 1.375 . S
N245 C244 1.347 . S
C246 C249 1.365 . S
C246 N251 1.328 . S
C246 H252 0.929 . S
C247 C248 1.362 . S
C247 C250 1.378 . S
C247 H262 0.929 . S
C248 C247 1.362 . S
C248 C249 1.366 . S
C249 C246 1.365 . S
C249 C248 1.366 . S
C249 H263 0.930 . S
C250 C247 1.378 . S
C250 N251 1.315 . S
C250 H253 0.930 . S
N251 Co231 2.194 . S
N251 C246 1.328 . S
N251 C250 1.315 . S
H252 C246 0.929 . S
H253 C250 0.930 . S
H254 C242 0.929 . S
H255 C244 0.929 . S
O256 Co231 2.351 . S
O256 C259 1.244 . S
O257 Co231 2.155 . S
O257 C259 1.240 . S
O258 Co231 2.096 . S
O258 C239 1.247 . S
C259 O256 1.244 . S
C259 O257 1.240 . S
H260 C234 0.931 . S
H261 C243 0.931 . S
H262 C247 0.929 . S
H263 C249 0.930 . S
Co264 N268 2.148 . S
Co264 N274 2.128 . S
Co264 N284 2.194 . S
Co264 O289 2.351 . S
Co264 O290 2.155 . S
Co264 O291 2.096 . S
C265 N268 1.301 . S
C265 N269 1.328 . S
C265 H270 0.930 . S
C266 C267 1.333 . S
C266 N268 1.317 . S
C266 H271 0.930 . S
C267 C266 1.333 . S
C267 N269 1.350 . S
C267 H293 0.931 . S
N268 Co264 2.148 . S
N268 C265 1.301 . S
N268 C266 1.317 . S
N269 C265 1.328 . S
N269 C267 1.350 . S
H270 C265 0.930 . S
H271 C266 0.930 . S
C272 O273 1.224 . S
C272 O291 1.247 . S
O273 C272 1.224 . S
N274 Co264 2.128 . S
N274 C275 1.355 . S
N274 C277 1.311 . S
C275 N274 1.355 . S
C275 C276 1.363 . S
C275 H287 0.929 . S
C276 C275 1.363 . S
C276 N278 1.375 . S
C276 H294 0.931 . S
C277 N274 1.311 . S
C277 N278 1.347 . S
C277 H288 0.929 . S
N278 C276 1.375 . S
N278 C277 1.347 . S
C279 C282 1.365 . S
C279 N284 1.328 . S
C279 H285 0.929 . S
C280 C281 1.362 . S
C280 C283 1.378 . S
C280 H295 0.929 . S
C281 C280 1.362 . S
C281 C282 1.366 . S
C282 C279 1.365 . S
C282 C281 1.366 . S
C282 H296 0.930 . S
C283 C280 1.378 . S
C283 N284 1.315 . S
C283 H286 0.930 . S
N284 Co264 2.194 . S
N284 C279 1.328 . S
N284 C283 1.315 . S
H285 C279 0.929 . S
H286 C283 0.930 . S
H287 C275 0.929 . S
H288 C277 0.929 . S
O289 Co264 2.351 . S
O289 C292 1.244 . S
O290 Co264 2.155 . S
O290 C292 1.240 . S
O291 Co264 2.096 . S
O291 C272 1.247 . S
C292 O289 1.244 . S
C292 O290 1.240 . S
H293 C267 0.931 . S
H294 C276 0.931 . S
H295 C280 0.929 . S
H296 C282 0.930 . S
Co297 N301 2.148 . S
Co297 N307 2.128 . S
Co297 N317 2.194 . S
Co297 O322 2.351 1_554 S
Co297 O323 2.155 . S
Co297 O324 2.096 . S
C298 N301 1.301 1_556 S
C298 N302 1.328 . S
C298 H303 0.930 . S
C299 C300 1.333 1_554 S
C299 N301 1.317 . S
C299 H304 0.930 . S
C300 C299 1.333 1_556 S
C300 N302 1.350 . S
C300 H326 0.931 . S
N301 Co297 2.148 . S
N301 C298 1.301 1_554 S
N301 C299 1.317 . S
N302 C298 1.328 . S
N302 C300 1.350 . S
H303 C298 0.930 . S
H304 C299 0.930 . S
C305 O306 1.224 . S
C305 O324 1.247 . S
O306 C305 1.224 . S
N307 Co297 2.128 . S
N307 C308 1.355 . S
N307 C310 1.311 . S
C308 N307 1.355 . S
C308 C309 1.363 . S
C308 H320 0.929 . S
C309 C308 1.363 . S
C309 N311 1.375 . S
C309 H327 0.931 . S
C310 N307 1.311 . S
C310 N311 1.347 . S
C310 H321 0.929 . S
N311 C309 1.375 . S
N311 C310 1.347 . S
C312 C315 1.365 . S
C312 N317 1.328 . S
C312 H318 0.929 1_554 S
C313 C314 1.362 . S
C313 C316 1.378 . S
C313 H328 0.929 . S
C314 C313 1.362 . S
C314 C315 1.366 . S
C315 C312 1.365 . S
C315 C314 1.366 . S
C315 H329 0.930 1_554 S
C316 C313 1.378 . S
C316 N317 1.315 . S
C316 H319 0.930 . S
N317 Co297 2.194 . S
N317 C312 1.328 . S
N317 C316 1.315 . S
H318 C312 0.929 1_556 S
H319 C316 0.930 . S
H320 C308 0.929 . S
H321 C310 0.929 . S
O322 Co297 2.351 1_556 S
O322 C325 1.245 . S
O323 Co297 2.155 . S
O323 C325 1.225 1_554 S
O324 Co297 2.096 . S
O324 C305 1.247 . S
C325 O322 1.245 . S
C325 O323 1.225 1_556 S
H326 C300 0.931 . S
H327 C309 0.931 . S
H328 C313 0.929 . S
H329 C315 0.930 1_556 S
Co330 N334 2.148 . S
Co330 N340 2.128 . S
Co330 N350 2.194 . S
Co330 O355 2.351 1_554 S
Co330 O356 2.155 . S
Co330 O357 2.096 . S
C331 N334 1.301 1_556 S
C331 N335 1.328 . S
C331 H336 0.930 . S
C332 C333 1.333 1_554 S
C332 N334 1.317 . S
C332 H337 0.930 . S
C333 C332 1.333 1_556 S
C333 N335 1.350 . S
C333 H359 0.931 . S
N334 Co330 2.148 . S
N334 C331 1.301 1_554 S
N334 C332 1.317 . S
N335 C331 1.328 . S
N335 C333 1.350 . S
H336 C331 0.930 . S
H337 C332 0.930 . S
C338 O339 1.224 . S
C338 O357 1.247 . S
O339 C338 1.224 . S
N340 Co330 2.128 . S
N340 C341 1.355 . S
N340 C343 1.311 . S
C341 N340 1.355 . S
C341 C342 1.363 . S
C341 H353 0.929 . S
C342 C341 1.363 . S
C342 N344 1.375 . S
C342 H360 0.931 . S
C343 N340 1.311 . S
C343 N344 1.347 . S
C343 H354 0.929 . S
N344 C342 1.375 . S
N344 C343 1.347 . S
C345 C348 1.365 . S
C345 N350 1.328 . S
C345 H351 0.929 1_554 S
C346 C347 1.362 . S
C346 C349 1.378 . S
C346 H361 0.929 . S
C347 C346 1.362 . S
C347 C348 1.366 . S
C348 C345 1.365 . S
C348 C347 1.366 . S
C348 H362 0.930 1_554 S
C349 C346 1.378 . S
C349 N350 1.315 . S
C349 H352 0.930 . S
N350 Co330 2.194 . S
N350 C345 1.328 . S
N350 C349 1.315 . S
H351 C345 0.929 1_556 S
H352 C349 0.930 . S
H353 C341 0.929 . S
H354 C343 0.929 . S
O355 Co330 2.351 1_556 S
O355 C358 1.245 . S
O356 Co330 2.155 . S
O356 C358 1.225 1_554 S
O357 Co330 2.096 . S
O357 C338 1.247 . S
C358 O355 1.245 . S
C358 O356 1.225 1_556 S
H359 C333 0.931 . S
H360 C342 0.931 . S
H361 C346 0.929 . S
H362 C348 0.930 1_556 S
Co363 N367 2.148 . S
Co363 N373 2.128 . S
Co363 N383 2.194 . S
Co363 O388 2.351 1_554 S
Co363 O389 2.155 . S
Co363 O390 2.096 . S
C364 N367 1.301 1_556 S
C364 N368 1.328 . S
C364 H369 0.930 . S
C365 C366 1.333 1_554 S
C365 N367 1.317 . S
C365 H370 0.930 . S
C366 C365 1.333 1_556 S
C366 N368 1.350 . S
C366 H392 0.931 . S
N367 Co363 2.148 . S
N367 C364 1.301 1_554 S
N367 C365 1.317 . S
N368 C364 1.328 . S
N368 C366 1.350 . S
H369 C364 0.930 . S
H370 C365 0.930 . S
C371 O372 1.224 . S
C371 O390 1.247 . S
O372 C371 1.224 . S
N373 Co363 2.128 . S
N373 C374 1.355 . S
N373 C376 1.311 . S
C374 N373 1.355 . S
C374 C375 1.363 . S
C374 H386 0.929 . S
C375 C374 1.363 . S
C375 N377 1.375 . S
C375 H393 0.931 . S
C376 N373 1.311 . S
C376 N377 1.347 . S
C376 H387 0.929 . S
N377 C375 1.375 . S
N377 C376 1.347 . S
C378 C381 1.365 . S
C378 N383 1.328 . S
C378 H384 0.929 1_554 S
C379 C380 1.362 . S
C379 C382 1.378 . S
C379 H394 0.929 . S
C380 C379 1.362 . S
C380 C381 1.366 . S
C381 C378 1.365 . S
C381 C380 1.366 . S
C381 H395 0.930 1_554 S
C382 C379 1.378 . S
C382 N383 1.315 . S
C382 H385 0.930 . S
N383 Co363 2.194 . S
N383 C378 1.328 . S
N383 C382 1.315 . S
H384 C378 0.929 1_556 S
H385 C382 0.930 . S
H386 C374 0.929 . S
H387 C376 0.929 . S
O388 Co363 2.351 1_556 S
O388 C391 1.245 . S
O389 Co363 2.155 . S
O389 C391 1.225 1_554 S
O390 Co363 2.096 . S
O390 C371 1.247 . S
C391 O388 1.245 . S
C391 O389 1.225 1_556 S
H392 C366 0.931 . S
H393 C375 0.931 . S
H394 C379 0.929 . S
H395 C381 0.930 1_556 S
Co396 N400 2.148 . S
Co396 N406 2.128 . S
Co396 N416 2.194 . S
Co396 O421 2.351 1_556 S
Co396 O422 2.155 . S
Co396 O423 2.096 . S
C397 N400 1.301 1_554 S
C397 N401 1.328 . S
C397 H402 0.930 . S
C398 C399 1.333 1_556 S
C398 N400 1.317 . S
C398 H403 0.930 . S
C399 C398 1.333 1_554 S
C399 N401 1.350 . S
C399 H425 0.931 . S
N400 Co396 2.148 . S
N400 C397 1.301 1_556 S
N400 C398 1.317 . S
N401 C397 1.328 . S
N401 C399 1.350 . S
H402 C397 0.930 . S
H403 C398 0.930 . S
C404 O405 1.224 . S
C404 O423 1.247 . S
O405 C404 1.224 . S
N406 Co396 2.128 . S
N406 C407 1.355 . S
N406 C409 1.311 . S
C407 N406 1.355 . S
C407 C408 1.363 . S
C407 H419 0.929 . S
C408 C407 1.363 . S
C408 N410 1.375 . S
C408 H426 0.931 . S
C409 N406 1.311 . S
C409 N410 1.347 . S
C409 H420 0.929 . S
N410 C408 1.375 . S
N410 C409 1.347 . S
C411 C414 1.365 . S
C411 N416 1.328 . S
C411 H417 0.929 1_556 S
C412 C413 1.362 . S
C412 C415 1.378 . S
C412 H427 0.929 . S
C413 C412 1.362 . S
C413 C414 1.366 . S
C414 C411 1.365 . S
C414 C413 1.366 . S
C414 H428 0.930 1_556 S
C415 C412 1.378 . S
C415 N416 1.315 . S
C415 H418 0.930 . S
N416 Co396 2.194 . S
N416 C411 1.328 . S
N416 C415 1.315 . S
H417 C411 0.929 1_554 S
H418 C415 0.930 . S
H419 C407 0.929 . S
H420 C409 0.929 . S
O421 Co396 2.351 1_554 S
O421 C424 1.245 . S
O422 Co396 2.155 . S
O422 C424 1.225 1_556 S
O423 Co396 2.096 . S
O423 C404 1.247 . S
C424 O421 1.245 . S
C424 O422 1.225 1_554 S
H425 C399 0.931 . S
H426 C408 0.931 . S
H427 C412 0.929 . S
H428 C414 0.930 1_554 S
Co429 N433 2.148 . S
Co429 N439 2.128 . S
Co429 N449 2.194 . S
Co429 O454 2.351 1_556 S
Co429 O455 2.155 . S
Co429 O456 2.096 . S
C430 N433 1.301 1_554 S
C430 N434 1.328 . S
C430 H435 0.930 . S
C431 C432 1.333 1_556 S
C431 N433 1.317 . S
C431 H436 0.930 . S
C432 C431 1.333 1_554 S
C432 N434 1.350 . S
C432 H458 0.931 . S
N433 Co429 2.148 . S
N433 C430 1.301 1_556 S
N433 C431 1.317 . S
N434 C430 1.328 . S
N434 C432 1.350 . S
H435 C430 0.930 . S
H436 C431 0.930 . S
C437 O438 1.224 . S
C437 O456 1.247 . S
O438 C437 1.224 . S
N439 Co429 2.128 . S
N439 C440 1.355 . S
N439 C442 1.311 . S
C440 N439 1.355 . S
C440 C441 1.363 . S
C440 H452 0.929 . S
C441 C440 1.363 . S
C441 N443 1.375 . S
C441 H459 0.931 . S
C442 N439 1.311 . S
C442 N443 1.347 . S
C442 H453 0.929 . S
N443 C441 1.375 . S
N443 C442 1.347 . S
C444 C447 1.365 . S
C444 N449 1.328 . S
C444 H450 0.929 1_556 S
C445 C446 1.362 . S
C445 C448 1.378 . S
C445 H460 0.929 . S
C446 C445 1.362 . S
C446 C447 1.366 . S
C447 C444 1.365 . S
C447 C446 1.366 . S
C447 H461 0.930 1_556 S
C448 C445 1.378 . S
C448 N449 1.315 . S
C448 H451 0.930 . S
N449 Co429 2.194 . S
N449 C444 1.328 . S
N449 C448 1.315 . S
H450 C444 0.929 1_554 S
H451 C448 0.930 . S
H452 C440 0.929 . S
H453 C442 0.929 . S
O454 Co429 2.351 1_554 S
O454 C457 1.245 . S
O455 Co429 2.155 . S
O455 C457 1.225 1_556 S
O456 Co429 2.096 . S
O456 C437 1.247 . S
C457 O454 1.245 . S
C457 O455 1.225 1_554 S
H458 C432 0.931 . S
H459 C441 0.931 . S
H460 C445 0.929 . S
H461 C447 0.930 1_554 S
Co462 N466 2.148 . S
Co462 N472 2.128 . S
Co462 N482 2.194 . S
Co462 O487 2.351 1_556 S
Co462 O488 2.155 . S
Co462 O489 2.096 . S
C463 N466 1.301 1_554 S
C463 N467 1.328 . S
C463 H468 0.930 . S
C464 C465 1.333 1_556 S
C464 N466 1.317 . S
C464 H469 0.930 . S
C465 C464 1.333 1_554 S
C465 N467 1.350 . S
C465 H491 0.931 . S
N466 Co462 2.148 . S
N466 C463 1.301 1_556 S
N466 C464 1.317 . S
N467 C463 1.328 . S
N467 C465 1.350 . S
H468 C463 0.930 . S
H469 C464 0.930 . S
C470 O471 1.224 . S
C470 O489 1.247 . S
O471 C470 1.224 . S
N472 Co462 2.128 . S
N472 C473 1.355 . S
N472 C475 1.311 . S
C473 N472 1.355 . S
C473 C474 1.363 . S
C473 H485 0.929 . S
C474 C473 1.363 . S
C474 N476 1.375 . S
C474 H492 0.931 . S
C475 N472 1.311 . S
C475 N476 1.347 . S
C475 H486 0.929 . S
N476 C474 1.375 . S
N476 C475 1.347 . S
C477 C480 1.365 . S
C477 N482 1.328 . S
C477 H483 0.929 1_556 S
C478 C479 1.362 . S
C478 C481 1.378 . S
C478 H493 0.929 . S
C479 C478 1.362 . S
C479 C480 1.366 . S
C480 C477 1.365 . S
C480 C479 1.366 . S
C480 H494 0.930 1_556 S
C481 C478 1.378 . S
C481 N482 1.315 . S
C481 H484 0.930 . S
N482 Co462 2.194 . S
N482 C477 1.328 . S
N482 C481 1.315 . S
H483 C477 0.929 1_554 S
H484 C481 0.930 . S
H485 C473 0.929 . S
H486 C475 0.929 . S
O487 Co462 2.351 1_554 S
O487 C490 1.245 . S
O488 Co462 2.155 . S
O488 C490 1.225 1_556 S
O489 Co462 2.096 . S
O489 C470 1.247 . S
C490 O487 1.245 . S
C490 O488 1.225 1_554 S
H491 C465 0.931 . S
H492 C474 0.931 . S
H493 C478 0.929 . S
H494 C480 0.930 1_554 S
Co495 N499 2.148 . S
Co495 N505 2.128 . S
Co495 N515 2.194 . S
Co495 O520 2.351 . S
Co495 O521 2.155 . S
Co495 O522 2.096 . S
C496 N499 1.301 . S
C496 N500 1.328 . S
C496 H501 0.930 . S
C497 C498 1.333 . S
C497 N499 1.317 . S
C497 H502 0.930 . S
C498 C497 1.333 . S
C498 N500 1.350 . S
C498 H524 0.931 . S
N499 Co495 2.148 . S
N499 C496 1.301 . S
N499 C497 1.317 . S
N500 C496 1.328 . S
N500 C498 1.350 . S
H501 C496 0.930 . S
H502 C497 0.930 . S
C503 O504 1.224 . S
C503 O522 1.247 . S
O504 C503 1.224 . S
N505 Co495 2.128 . S
N505 C506 1.355 . S
N505 C508 1.311 . S
C506 N505 1.355 . S
C506 C507 1.363 . S
C506 H518 0.929 . S
C507 C506 1.363 . S
C507 N509 1.375 . S
C507 H525 0.931 . S
C508 N505 1.311 . S
C508 N509 1.347 . S
C508 H519 0.929 . S
N509 C507 1.375 . S
N509 C508 1.347 . S
C510 C513 1.365 . S
C510 N515 1.328 . S
C510 H516 0.929 . S
C511 C512 1.362 . S
C511 C514 1.378 . S
C511 H526 0.929 . S
C512 C511 1.362 . S
C512 C513 1.366 . S
C513 C510 1.365 . S
C513 C512 1.366 . S
C513 H527 0.930 . S
C514 C511 1.378 . S
C514 N515 1.315 . S
C514 H517 0.930 . S
N515 Co495 2.194 . S
N515 C510 1.328 . S
N515 C514 1.315 . S
H516 C510 0.929 . S
H517 C514 0.930 . S
H518 C506 0.929 . S
H519 C508 0.929 . S
O520 Co495 2.351 . S
O520 C523 1.244 . S
O521 Co495 2.155 . S
O521 C523 1.240 . S
O522 Co495 2.096 . S
O522 C503 1.247 . S
C523 O520 1.244 . S
C523 O521 1.240 . S
H524 C498 0.931 . S
H525 C507 0.931 . S
H526 C511 0.929 . S
H527 C513 0.930 . S
Co528 N532 2.148 . S
Co528 N538 2.128 . S
Co528 N548 2.194 . S
Co528 O553 2.351 . S
Co528 O554 2.155 . S
Co528 O555 2.096 . S
C529 N532 1.301 . S
C529 N533 1.328 . S
C529 H534 0.930 . S
C530 C531 1.333 . S
C530 N532 1.317 . S
C530 H535 0.930 . S
C531 C530 1.333 . S
C531 N533 1.350 . S
C531 H557 0.931 . S
N532 Co528 2.148 . S
N532 C529 1.301 . S
N532 C530 1.317 . S
N533 C529 1.328 . S
N533 C531 1.350 . S
H534 C529 0.930 . S
H535 C530 0.930 . S
C536 O537 1.224 . S
C536 O555 1.247 . S
O537 C536 1.224 . S
N538 Co528 2.128 . S
N538 C539 1.355 . S
N538 C541 1.311 . S
C539 N538 1.355 . S
C539 C540 1.363 . S
C539 H551 0.929 . S
C540 C539 1.363 . S
C540 N542 1.375 . S
C540 H558 0.931 . S
C541 N538 1.311 . S
C541 N542 1.347 . S
C541 H552 0.929 . S
N542 C540 1.375 . S
N542 C541 1.347 . S
C543 C546 1.365 . S
C543 N548 1.328 . S
C543 H549 0.929 . S
C544 C545 1.362 . S
C544 C547 1.378 . S
C544 H559 0.929 . S
C545 C544 1.362 . S
C545 C546 1.366 . S
C546 C543 1.365 . S
C546 C545 1.366 . S
C546 H560 0.930 . S
C547 C544 1.378 . S
C547 N548 1.315 . S
C547 H550 0.930 . S
N548 Co528 2.194 . S
N548 C543 1.328 . S
N548 C547 1.315 . S
H549 C543 0.929 . S
H550 C547 0.930 . S
H551 C539 0.929 . S
H552 C541 0.929 . S
O553 Co528 2.351 . S
O553 C556 1.244 . S
O554 Co528 2.155 . S
O554 C556 1.240 . S
O555 Co528 2.096 . S
O555 C536 1.247 . S
C556 O553 1.244 . S
C556 O554 1.240 . S
H557 C531 0.931 . S
H558 C540 0.931 . S
H559 C544 0.929 . S
H560 C546 0.930 . S
Co561 N565 2.148 . S
Co561 N571 2.128 . S
Co561 N581 2.194 . S
Co561 O586 2.351 . S
Co561 O587 2.155 . S
Co561 O588 2.096 . S
C562 N565 1.301 . S
C562 N566 1.328 . S
C562 H567 0.930 . S
C563 C564 1.333 . S
C563 N565 1.317 . S
C563 H568 0.930 . S
C564 C563 1.333 . S
C564 N566 1.350 . S
C564 H590 0.931 . S
N565 Co561 2.148 . S
N565 C562 1.301 . S
N565 C563 1.317 . S
N566 C562 1.328 . S
N566 C564 1.350 . S
H567 C562 0.930 . S
H568 C563 0.930 . S
C569 O570 1.224 . S
C569 O588 1.247 . S
O570 C569 1.224 . S
N571 Co561 2.128 . S
N571 C572 1.355 . S
N571 C574 1.311 . S
C572 N571 1.355 . S
C572 C573 1.363 . S
C572 H584 0.929 . S
C573 C572 1.363 . S
C573 N575 1.375 . S
C573 H591 0.931 . S
C574 N571 1.311 . S
C574 N575 1.347 . S
C574 H585 0.929 . S
N575 C573 1.375 . S
N575 C574 1.347 . S
C576 C579 1.365 . S
C576 N581 1.328 . S
C576 H582 0.929 . S
C577 C578 1.362 . S
C577 C580 1.378 . S
C577 H592 0.929 . S
C578 C577 1.362 . S
C578 C579 1.366 . S
C579 C576 1.365 . S
C579 C578 1.366 . S
C579 H593 0.930 . S
C580 C577 1.378 . S
C580 N581 1.315 . S
C580 H583 0.930 . S
N581 Co561 2.194 . S
N581 C576 1.328 . S
N581 C580 1.315 . S
H582 C576 0.929 . S
H583 C580 0.930 . S
H584 C572 0.929 . S
H585 C574 0.929 . S
O586 Co561 2.351 . S
O586 C589 1.244 . S
O587 Co561 2.155 . S
O587 C589 1.240 . S
O588 Co561 2.096 . S
O588 C569 1.247 . S
C589 O586 1.244 . S
C589 O587 1.240 . S
H590 C564 0.931 . S
H591 C573 0.931 . S
H592 C577 0.929 . S
H593 C579 0.930 . S
H594 C606 0.930 . S
H595 C608 0.930 . S
H596 C609 0.930 . S
H597 C613 0.959 1_556 S
H598 C613 0.959 . S
H599 C613 0.961 . S
H600 C614 0.960 . S
H601 C614 0.961 . S
H602 C614 0.959 . S
H603 C617 0.929 1_556 S
H604 C618 0.931 . S
H605 C620 0.930 . S
C606 H594 0.930 . S
C606 C607 1.399 . S
C606 C611 1.399 . S
C607 C606 1.399 . S
C607 C608 1.376 . S
C608 H595 0.930 . S
C608 C607 1.376 . S
C608 C609 1.388 . S
C609 H596 0.930 . S
C609 C608 1.388 . S
C609 C610 1.390 . S
C610 C609 1.390 . S
C610 C611 1.394 . S
C610 C616 1.465 1_556 S
C611 C606 1.399 . S
C611 C610 1.394 . S
C611 C612 1.516 1_556 S
C612 C611 1.516 1_554 S
C612 C613 1.502 . S
C612 C614 1.561 . S
C612 C615 1.526 . S
C613 H597 0.959 1_554 S
C613 H598 0.959 . S
C613 H599 0.961 . S
C613 C612 1.502 . S
C614 H600 0.960 . S
C614 H601 0.961 . S
C614 H602 0.959 . S
C614 C612 1.561 . S
C615 C612 1.526 . S
C615 C616 1.396 . S
C615 C620 1.390 . S
C616 C610 1.465 1_554 S
C616 C615 1.396 . S
C616 C617 1.399 . S
C617 H603 0.929 1_554 S
C617 C616 1.399 . S
C617 C618 1.385 . S
C618 H604 0.931 . S
C618 C617 1.385 . S
C618 C619 1.389 . S
C619 C618 1.389 . S
C619 C620 1.387 . S
C620 H605 0.930 . S
C620 C615 1.390 . S
C620 C619 1.387 . S
H621 C633 0.930 . S
H622 C635 0.930 . S
H623 C636 0.930 . S
H624 C640 0.959 1_544 S
H625 C640 0.959 1_554 S
H626 C640 0.961 1_545 S
H627 C641 0.960 . S
H628 C641 0.961 . S
H629 C641 0.959 . S
H630 C644 0.929 . S
H631 C645 0.931 . S
H632 C647 0.930 . S
C633 H621 0.930 . S
C633 C634 1.399 . S
C633 C638 1.399 . S
C634 C633 1.399 . S
C634 C635 1.376 . S
C635 H622 0.930 . S
C635 C634 1.376 . S
C635 C636 1.388 . S
C636 H623 0.930 . S
C636 C635 1.388 . S
C636 C637 1.390 . S
C637 C636 1.390 . S
C637 C638 1.394 . S
C637 C643 1.465 1_546 S
C638 C633 1.399 . S
C638 C637 1.394 . S
C638 C639 1.516 1_545 S
C639 C638 1.516 1_565 S
C639 C640 1.502 . S
C639 C641 1.561 . S
C639 C642 1.526 1_556 S
C640 H624 0.959 1_566 S
C640 H625 0.959 1_556 S
C640 H626 0.961 1_565 S
C640 C639 1.502 . S
C641 H627 0.960 . S
C641 H628 0.961 . S
C641 H629 0.959 . S
C641 C639 1.561 . S
C642 C639 1.526 1_554 S
C642 C643 1.396 . S
C642 C647 1.390 . S
C643 C637 1.465 1_564 S
C643 C642 1.396 . S
C643 C644 1.399 . S
C644 H630 0.929 . S
C644 C643 1.399 . S
C644 C645 1.385 . S
C645 H631 0.931 . S
C645 C644 1.385 . S
C645 C646 1.389 . S
C646 C645 1.389 . S
C646 C647 1.387 . S
C647 H632 0.930 . S
C647 C642 1.390 . S
C647 C646 1.387 . S
H648 C660 0.930 . S
H649 C662 0.930 . S
H650 C663 0.930 . S
H651 C667 0.959 . S
H652 C667 0.959 . S
H653 C667 0.961 . S
H654 C668 0.960 . S
H655 C668 0.961 . S
H656 C668 0.959 . S
H657 C671 0.929 1_455 S
H658 C672 0.931 . S
H659 C674 0.930 . S
C660 H648 0.930 . S
C660 C661 1.399 . S
C660 C665 1.399 . S
C661 C660 1.399 . S
C661 C662 1.376 . S
C662 H649 0.930 . S
C662 C661 1.376 . S
C662 C663 1.388 1_554 S
C663 H650 0.930 . S
C663 C662 1.388 1_556 S
C663 C664 1.390 . S
C664 C663 1.390 . S
C664 C665 1.394 1_556 S
C664 C670 1.465 1_455 S
C665 C660 1.399 . S
C665 C664 1.394 1_554 S
C665 C666 1.516 1_455 S
C666 C665 1.516 1_655 S
C666 C667 1.502 . S
C666 C668 1.561 . S
C666 C669 1.526 1_554 S
C667 H651 0.959 . S
C667 H652 0.959 . S
C667 H653 0.961 . S
C667 C666 1.502 . S
C668 H654 0.960 . S
C668 H655 0.961 . S
C668 H656 0.959 . S
C668 C666 1.561 . S
C669 C666 1.526 1_556 S
C669 C670 1.396 . S
C669 C674 1.390 . S
C670 C664 1.465 1_655 S
C670 C669 1.396 . S
C670 C671 1.399 . S
C671 H657 0.929 1_655 S
C671 C670 1.399 . S
C671 C672 1.385 . S
C672 H658 0.931 . S
C672 C671 1.385 . S
C672 C673 1.389 . S
C673 C672 1.389 . S
C673 C674 1.387 . S
C674 H659 0.930 . S
C674 C669 1.390 . S
C674 C673 1.387 . S
H675 C687 0.930 . S
H676 C689 0.930 . S
H677 C690 0.930 . S
H678 C694 0.959 . S
H679 C694 0.959 . S
H680 C694 0.961 . S
H681 C695 0.960 . S
H682 C695 0.961 . S
H683 C695 0.959 . S
H684 C698 0.929 1_554 S
H685 C699 0.931 . S
H686 C701 0.930 . S
C687 H675 0.930 . S
C687 C688 1.399 . S
C687 C692 1.399 . S
C688 C687 1.399 . S
C688 C689 1.376 . S
C689 H676 0.930 . S
C689 C688 1.376 . S
C689 C690 1.388 . S
C690 H677 0.930 . S
C690 C689 1.388 . S
C690 C691 1.390 . S
C691 C690 1.390 . S
C691 C692 1.394 . S
C691 C697 1.465 1_554 S
C692 C687 1.399 . S
C692 C691 1.394 . S
C692 C693 1.516 1_554 S
C693 C692 1.516 1_556 S
C693 C694 1.502 . S
C693 C695 1.561 . S
C693 C696 1.526 . S
C694 H678 0.959 . S
C694 H679 0.959 . S
C694 H680 0.961 . S
C694 C693 1.502 . S
C695 H681 0.960 . S
C695 H682 0.961 . S
C695 H683 0.959 . S
C695 C693 1.561 . S
C696 C693 1.526 . S
C696 C697 1.396 . S
C696 C701 1.390 . S
C697 C691 1.465 1_556 S
C697 C696 1.396 . S
C697 C698 1.399 . S
C698 H684 0.929 1_556 S
C698 C697 1.399 . S
C698 C699 1.385 . S
C699 H685 0.931 . S
C699 C698 1.385 . S
C699 C700 1.389 . S
C700 C699 1.389 . S
C700 C701 1.387 . S
C701 H686 0.930 . S
C701 C696 1.390 . S
C701 C700 1.387 . S
H702 C714 0.930 . S
H703 C716 0.930 . S
H704 C717 0.930 1_554 S
H705 C721 0.959 . S
H706 C721 0.959 . S
H707 C721 0.961 . S
H708 C722 0.960 . S
H709 C722 0.961 . S
H710 C722 0.959 . S
H711 C725 0.929 . S
H712 C726 0.931 . S
H713 C728 0.930 . S
C714 H702 0.930 . S
C714 C715 1.399 . S
C714 C719 1.399 . S
C715 C714 1.399 . S
C715 C716 1.376 . S
C716 H703 0.930 . S
C716 C715 1.376 . S
C716 C717 1.388 . S
C717 H704 0.930 1_556 S
C717 C716 1.388 . S
C717 C718 1.390 . S
C718 C717 1.390 . S
C718 C719 1.394 . S
C718 C724 1.496 1_556 S
C719 C714 1.399 . S
C719 C718 1.394 . S
C719 C720 1.516 1_545 S
C720 C719 1.516 1_565 S
C720 C721 1.502 . S
C720 C722 1.561 . S
C720 C723 1.526 1_556 S
C721 H705 0.959 . S
C721 H706 0.959 . S
C721 H707 0.961 . S
C721 C720 1.502 . S
C722 H708 0.960 . S
C722 H709 0.961 . S
C722 H710 0.959 . S
C722 C720 1.561 . S
C723 C720 1.526 1_554 S
C723 C724 1.344 1_565 S
C723 C728 1.390 . S
C724 C718 1.496 1_554 S
C724 C723 1.344 1_545 S
C724 C725 1.414 . S
C725 H711 0.929 . S
C725 C724 1.414 . S
C725 C726 1.385 1_545 S
C726 H712 0.931 . S
C726 C725 1.385 1_565 S
C726 C727 1.389 . S
C727 C726 1.389 . S
C727 C728 1.387 . S
C728 H713 0.930 . S
C728 C723 1.390 . S
C728 C727 1.387 . S
H729 C741 0.930 . S
H730 C743 0.930 . S
H731 C744 0.930 . S
H732 C748 0.959 . S
H733 C748 0.959 . S
H734 C748 0.961 . S
H735 C749 0.960 1_556 S
H736 C749 0.961 1_455 S
H737 C749 0.959 . S
H738 C752 0.929 1_655 S
H739 C753 0.931 . S
H740 C755 0.930 . S
C741 H729 0.930 . S
C741 C742 1.399 . S
C741 C746 1.399 . S
C742 C741 1.399 . S
C742 C743 1.376 . S
C743 H730 0.930 . S
C743 C742 1.376 . S
C743 C744 1.388 . S
C744 H731 0.930 . S
C744 C743 1.388 . S
C744 C745 1.390 . S
C745 C744 1.390 . S
C745 C746 1.394 . S
C745 C751 1.465 1_656 S
C746 C741 1.399 . S
C746 C745 1.394 . S
C746 C747 1.516 1_655 S
C747 C746 1.516 1_455 S
C747 C748 1.502 . S
C747 C749 1.561 1_456 S
C747 C750 1.526 1_556 S
C748 H732 0.959 . S
C748 H733 0.959 . S
C748 H734 0.961 . S
C748 C747 1.502 . S
C749 H735 0.960 1_554 S
C749 H736 0.961 1_655 S
C749 H737 0.959 . S
C749 C747 1.561 1_654 S
C750 C747 1.526 1_554 S
C750 C751 1.396 . S
C750 C755 1.390 . S
C751 C745 1.465 1_454 S
C751 C750 1.396 . S
C751 C752 1.399 . S
C752 H738 0.929 1_455 S
C752 C751 1.399 . S
C752 C753 1.385 . S
C753 H739 0.931 . S
C753 C752 1.385 . S
C753 C754 1.389 . S
C754 C753 1.389 . S
C754 C755 1.387 . S
C755 H740 0.930 . S
C755 C750 1.390 . S
C755 C754 1.387 . S
H756 C768 0.930 . S
H757 C770 0.930 . S
H758 C771 0.930 . S
H759 C775 0.959 . S
H760 C775 0.959 . S
H761 C775 0.961 . S
H762 C776 0.960 . S
H763 C776 0.961 . S
H764 C776 0.959 . S
H765 C779 0.929 . S
H766 C780 0.931 . S
H767 C782 0.930 . S
C768 H756 0.930 . S
C768 C769 1.399 . S
C768 C773 1.399 . S
C769 C768 1.399 . S
C769 C770 1.376 . S
C770 H757 0.930 . S
C770 C769 1.376 . S
C770 C771 1.388 . S
C771 H758 0.930 . S
C771 C770 1.388 . S
C771 C772 1.390 . S
C772 C771 1.390 . S
C772 C773 1.394 . S
C772 C778 1.465 . S
C773 C768 1.399 . S
C773 C772 1.394 . S
C773 C774 1.516 . S
C774 C773 1.516 . S
C774 C775 1.502 . S
C774 C776 1.561 . S
C774 C777 1.526 . S
C775 H759 0.959 . S
C775 H760 0.959 . S
C775 H761 0.961 . S
C775 C774 1.502 . S
C776 H762 0.960 . S
C776 H763 0.961 . S
C776 H764 0.959 . S
C776 C774 1.561 . S
C777 C774 1.526 . S
C777 C778 1.396 . S
C777 C782 1.390 . S
C778 C772 1.465 . S
C778 C777 1.396 . S
C778 C779 1.399 . S
C779 H765 0.929 . S
C779 C778 1.399 . S
C779 C780 1.385 . S
C780 H766 0.931 . S
C780 C779 1.385 . S
C780 C781 1.389 . S
C781 C780 1.389 . S
C781 C782 1.387 . S
C782 H767 0.930 . S
C782 C777 1.390 . S
C782 C781 1.387 . S
H783 C795 0.930 . S
H784 C797 0.930 . S
H785 C798 0.930 . S
H786 C802 0.959 . S
H787 C802 0.959 . S
H788 C802 0.961 . S
H789 C803 0.960 . S
H790 C803 0.961 . S
H791 C803 0.959 . S
H792 C806 0.929 . S
H793 C807 0.931 . S
H794 C809 0.930 . S
C795 H783 0.930 . S
C795 C796 1.399 . S
C795 C800 1.399 . S
C796 C795 1.399 . S
C796 C797 1.376 . S
C797 H784 0.930 . S
C797 C796 1.376 . S
C797 C798 1.388 . S
C798 H785 0.930 . S
C798 C797 1.388 . S
C798 C799 1.390 . S
C799 C798 1.390 . S
C799 C800 1.394 . S
C799 C805 1.465 . S
C800 C795 1.399 . S
C800 C799 1.394 . S
C800 C801 1.516 . S
C801 C800 1.516 . S
C801 C802 1.502 . S
C801 C803 1.561 . S
C801 C804 1.526 . S
C802 H786 0.959 . S
C802 H787 0.959 . S
C802 H788 0.961 . S
C802 C801 1.502 . S
C803 H789 0.960 . S
C803 H790 0.961 . S
C803 H791 0.959 . S
C803 C801 1.561 . S
C804 C801 1.526 . S
C804 C805 1.396 . S
C804 C809 1.390 . S
C805 C799 1.465 . S
C805 C804 1.396 . S
C805 C806 1.399 . S
C806 H792 0.929 . S
C806 C805 1.399 . S
C806 C807 1.385 . S
C807 H793 0.931 . S
C807 C806 1.385 . S
C807 C808 1.389 . S
C808 C807 1.389 . S
C808 C809 1.387 . S
C809 H794 0.930 . S
C809 C804 1.390 . S
C809 C808 1.387 . S
H810 C822 0.930 . S
H811 C824 0.930 . S
H812 C825 0.930 . S
H813 C829 0.959 . S
H814 C829 0.959 . S
H815 C829 0.961 . S
H816 C830 0.960 . S
H817 C830 0.961 . S
H818 C830 0.959 . S
H819 C833 0.929 . S
H820 C834 0.931 . S
H821 C836 0.930 . S
C822 H810 0.930 . S
C822 C823 1.399 . S
C822 C827 1.399 . S
C823 C822 1.399 . S
C823 C824 1.376 . S
C824 H811 0.930 . S
C824 C823 1.376 . S
C824 C825 1.388 . S
C825 H812 0.930 . S
C825 C824 1.388 . S
C825 C826 1.390 . S
C826 C825 1.390 . S
C826 C827 1.394 . S
C826 C832 1.465 . S
C827 C822 1.399 . S
C827 C826 1.394 . S
C827 C828 1.516 . S
C828 C827 1.516 . S
C828 C829 1.502 . S
C828 C830 1.561 . S
C828 C831 1.526 . S
C829 H813 0.959 . S
C829 H814 0.959 . S
C829 H815 0.961 . S
C829 C828 1.502 . S
C830 H816 0.960 . S
C830 H817 0.961 . S
C830 H818 0.959 . S
C830 C828 1.561 . S
C831 C828 1.526 . S
C831 C832 1.396 . S
C831 C836 1.390 . S
C832 C826 1.465 . S
C832 C831 1.396 . S
C832 C833 1.399 . S
C833 H819 0.929 . S
C833 C832 1.399 . S
C833 C834 1.385 . S
C834 H820 0.931 . S
C834 C833 1.385 . S
C834 C835 1.389 . S
C835 C834 1.389 . S
C835 C836 1.387 . S
C836 H821 0.930 . S
C836 C831 1.390 . S
C836 C835 1.387 . S
H837 C849 0.930 . S
H838 C851 0.930 . S
H839 C852 0.930 . S
H840 C856 0.959 . S
H841 C856 0.959 . S
H842 C856 0.961 . S
H843 C857 0.960 . S
H844 C857 0.961 . S
H845 C857 0.959 . S
H846 C860 0.929 . S
H847 C861 0.931 . S
H848 C863 0.930 . S
C849 H837 0.930 . S
C849 C850 1.399 . S
C849 C854 1.399 . S
C850 C849 1.399 . S
C850 C851 1.376 . S
C851 H838 0.930 . S
C851 C850 1.376 . S
C851 C852 1.388 . S
C852 H839 0.930 . S
C852 C851 1.388 . S
C852 C853 1.390 . S
C853 C852 1.390 . S
C853 C854 1.394 . S
C853 C859 1.465 . S
C854 C849 1.399 . S
C854 C853 1.394 . S
C854 C855 1.516 . S
C855 C854 1.516 . S
C855 C856 1.502 . S
C855 C857 1.561 . S
C855 C858 1.526 . S
C856 H840 0.959 . S
C856 H841 0.959 . S
C856 H842 0.961 . S
C856 C855 1.502 . S
C857 H843 0.960 . S
C857 H844 0.961 . S
C857 H845 0.959 . S
C857 C855 1.561 . S
C858 C855 1.526 . S
C858 C859 1.396 . S
C858 C863 1.390 . S
C859 C853 1.465 . S
C859 C858 1.396 . S
C859 C860 1.399 . S
C860 H846 0.929 . S
C860 C859 1.399 . S
C860 C861 1.385 . S
C861 H847 0.931 . S
C861 C860 1.385 . S
C861 C862 1.389 . S
C862 C861 1.389 . S
C862 C863 1.387 . S
C863 H848 0.930 . S
C863 C858 1.390 . S
C863 C862 1.387 . S
H864 C876 0.930 . S
H865 C878 0.930 . S
H866 C879 0.930 . S
H867 C883 0.959 . S
H868 C883 0.959 . S
H869 C883 0.961 . S
H870 C884 0.960 . S
H871 C884 0.961 . S
H872 C884 0.959 . S
H873 C887 0.929 . S
H874 C888 0.931 . S
H875 C890 0.930 . S
C876 H864 0.930 . S
C876 C877 1.399 . S
C876 C881 1.399 . S
C877 C876 1.399 . S
C877 C878 1.376 . S
C878 H865 0.930 . S
C878 C877 1.376 . S
C878 C879 1.388 . S
C879 H866 0.930 . S
C879 C878 1.388 . S
C879 C880 1.390 . S
C880 C879 1.390 . S
C880 C881 1.394 . S
C880 C886 1.465 . S
C881 C876 1.399 . S
C881 C880 1.394 . S
C881 C882 1.516 . S
C882 C881 1.516 . S
C882 C883 1.502 . S
C882 C884 1.561 . S
C882 C885 1.526 . S
C883 H867 0.959 . S
C883 H868 0.959 . S
C883 H869 0.961 . S
C883 C882 1.502 . S
C884 H870 0.960 . S
C884 H871 0.961 . S
C884 H872 0.959 . S
C884 C882 1.561 . S
C885 C882 1.526 . S
C885 C886 1.396 . S
C885 C890 1.390 . S
C886 C880 1.465 . S
C886 C885 1.396 . S
C886 C887 1.399 . S
C887 H873 0.929 . S
C887 C886 1.399 . S
C887 C888 1.385 . S
C888 H874 0.931 . S
C888 C887 1.385 . S
C888 C889 1.389 . S
C889 C888 1.389 . S
C889 C890 1.387 . S
C890 H875 0.930 . S
C890 C885 1.390 . S
C890 C889 1.387 . S
H891 C903 0.930 . S
H892 C905 0.930 . S
H893 C906 0.930 . S
H894 C910 0.959 . S
H895 C910 0.959 . S
H896 C910 0.961 . S
H897 C911 0.960 . S
H898 C911 0.961 . S
H899 C911 0.959 . S
H900 C914 0.929 . S
H901 C915 0.931 . S
H902 C917 0.930 . S
C903 H891 0.930 . S
C903 C904 1.399 . S
C903 C908 1.399 . S
C904 C903 1.399 . S
C904 C905 1.376 . S
C905 H892 0.930 . S
C905 C904 1.376 . S
C905 C906 1.388 . S
C906 H893 0.930 . S
C906 C905 1.388 . S
C906 C907 1.390 . S
C907 C906 1.390 . S
C907 C908 1.394 . S
C907 C913 1.465 . S
C908 C903 1.399 . S
C908 C907 1.394 . S
C908 C909 1.516 . S
C909 C908 1.516 . S
C909 C910 1.502 . S
C909 C911 1.561 . S
C909 C912 1.526 . S
C910 H894 0.959 . S
C910 H895 0.959 . S
C910 H896 0.961 . S
C910 C909 1.502 . S
C911 H897 0.960 . S
C911 H898 0.961 . S
C911 H899 0.959 . S
C911 C909 1.561 . S
C912 C909 1.526 . S
C912 C913 1.396 . S
C912 C917 1.390 . S
C913 C907 1.465 . S
C913 C912 1.396 . S
C913 C914 1.399 . S
C914 H900 0.929 . S
C914 C913 1.399 . S
C914 C915 1.385 . S
C915 H901 0.931 . S
C915 C914 1.385 . S
C915 C916 1.389 . S
C916 C915 1.389 . S
C916 C917 1.387 . S
C917 H902 0.930 . S
C917 C912 1.390 . S
C917 C916 1.387 . S
H918 C930 0.930 . S
H919 C932 0.930 . S
H920 C933 0.930 . S
H921 C937 0.959 . S
H922 C937 0.959 . S
H923 C937 0.961 . S
H924 C938 0.960 . S
H925 C938 0.961 . S
H926 C938 0.959 . S
H927 C941 0.929 . S
H928 C942 0.931 . S
H929 C944 0.930 . S
C930 H918 0.930 . S
C930 C931 1.399 . S
C930 C935 1.399 . S
C931 C930 1.399 . S
C931 C932 1.376 . S
C932 H919 0.930 . S
C932 C931 1.376 . S
C932 C933 1.388 . S
C933 H920 0.930 . S
C933 C932 1.388 . S
C933 C934 1.390 . S
C934 C933 1.390 . S
C934 C935 1.394 . S
C934 C940 1.465 . S
C935 C930 1.399 . S
C935 C934 1.394 . S
C935 C936 1.516 . S
C936 C935 1.516 . S
C936 C937 1.502 . S
C936 C938 1.561 . S
C936 C939 1.526 . S
C937 H921 0.959 . S
C937 H922 0.959 . S
C937 H923 0.961 . S
C937 C936 1.502 . S
C938 H924 0.960 . S
C938 H925 0.961 . S
C938 H926 0.959 . S
C938 C936 1.561 . S
C939 C936 1.526 . S
C939 C940 1.396 . S
C939 C944 1.390 . S
C940 C934 1.465 . S
C940 C939 1.396 . S
C940 C941 1.399 . S
C941 H927 0.929 . S
C941 C940 1.399 . S
C941 C942 1.385 . S
C942 H928 0.931 . S
C942 C941 1.385 . S
C942 C943 1.389 . S
C943 C942 1.389 . S
C943 C944 1.387 . S
C944 H929 0.930 . S
C944 C939 1.390 . S
C944 C943 1.387 . S
H945 C957 0.930 . S
H946 C959 0.930 . S
H947 C960 0.930 . S
H948 C964 0.959 . S
H949 C964 0.959 . S
H950 C964 0.961 . S
H951 C965 0.960 . S
H952 C965 0.961 . S
H953 C965 0.959 . S
H954 C968 0.929 . S
H955 C969 0.931 . S
H956 C971 0.930 . S
C957 H945 0.930 . S
C957 C958 1.399 . S
C957 C962 1.399 . S
C958 C957 1.399 . S
C958 C959 1.376 . S
C959 H946 0.930 . S
C959 C958 1.376 . S
C959 C960 1.388 . S
C960 H947 0.930 . S
C960 C959 1.388 . S
C960 C961 1.390 . S
C961 C960 1.390 . S
C961 C962 1.394 . S
C961 C967 1.465 . S
C962 C957 1.399 . S
C962 C961 1.394 . S
C962 C963 1.516 . S
C963 C962 1.516 . S
C963 C964 1.502 . S
C963 C965 1.561 . S
C963 C966 1.526 . S
C964 H948 0.959 . S
C964 H949 0.959 . S
C964 H950 0.961 . S
C964 C963 1.502 . S
C965 H951 0.960 . S
C965 H952 0.961 . S
C965 H953 0.959 . S
C965 C963 1.561 . S
C966 C963 1.526 . S
C966 C967 1.396 . S
C966 C971 1.390 . S
C967 C961 1.465 . S
C967 C966 1.396 . S
C967 C968 1.399 . S
C968 H954 0.929 . S
C968 C967 1.399 . S
C968 C969 1.385 . S
C969 H955 0.931 . S
C969 C968 1.385 . S
C969 C970 1.389 . S
C970 C969 1.389 . S
C970 C971 1.387 . S
C971 H956 0.930 . S
C971 C966 1.390 . S
C971 C970 1.387 . S
H972 C984 0.930 . S
H973 C986 0.930 . S
H974 C987 0.930 . S
H975 C991 0.959 . S
H976 C991 0.959 . S
H977 C991 0.961 . S
H978 C992 0.960 . S
H979 C992 0.961 . S
H980 C992 0.959 . S
H981 C995 0.929 . S
H982 C996 0.931 . S
H983 C998 0.930 . S
C984 H972 0.930 . S
C984 C985 1.399 . S
C984 C989 1.399 . S
C985 C984 1.399 . S
C985 C986 1.376 . S
C986 H973 0.930 . S
C986 C985 1.376 . S
C986 C987 1.388 . S
C987 H974 0.930 . S
C987 C986 1.388 . S
C987 C988 1.390 . S
C988 C987 1.390 . S
C988 C989 1.394 . S
C988 C994 1.465 . S
C989 C984 1.399 . S
C989 C988 1.394 . S
C989 C990 1.516 . S
C990 C989 1.516 . S
C990 C991 1.502 . S
C990 C992 1.561 . S
C990 C993 1.526 . S
C991 H975 0.959 . S
C991 H976 0.959 . S
C991 H977 0.961 . S
C991 C990 1.502 . S
C992 H978 0.960 . S
C992 H979 0.961 . S
C992 H980 0.959 . S
C992 C990 1.561 . S
C993 C990 1.526 . S
C993 C994 1.396 . S
C993 C998 1.390 . S
C994 C988 1.465 . S
C994 C993 1.396 . S
C994 C995 1.399 . S
C995 H981 0.929 . S
C995 C994 1.399 . S
C995 C996 1.385 . S
C996 H982 0.931 . S
C996 C995 1.385 . S
C996 C997 1.389 . S
C997 C996 1.389 . S
C997 C998 1.387 . S
C998 H983 0.930 . S
C998 C993 1.390 . S
C998 C997 1.387 . S
H999 C1011 0.930 . S
H1000 C1013 0.930 . S
H1001 C1014 0.930 . S
H1002 C1018 0.959 . S
H1003 C1018 0.959 . S
H1004 C1018 0.961 . S
H1005 C1019 0.960 . S
H1006 C1019 0.961 . S
H1007 C1019 0.959 . S
H1008 C1022 0.929 . S
H1009 C1023 0.931 . S
H1010 C1025 0.930 . S
C1011 H999 0.930 . S
C1011 C1012 1.399 . S
C1011 C1016 1.399 . S
C1012 C1011 1.399 . S
C1012 C1013 1.376 . S
C1013 H1000 0.930 . S
C1013 C1012 1.376 . S
C1013 C1014 1.388 . S
C1014 H1001 0.930 . S
C1014 C1013 1.388 . S
C1014 C1015 1.390 . S
C1015 C1014 1.390 . S
C1015 C1016 1.394 . S
C1015 C1021 1.465 . S
C1016 C1011 1.399 . S
C1016 C1015 1.394 . S
C1016 C1017 1.516 . S
C1017 C1016 1.516 . S
C1017 C1018 1.502 . S
C1017 C1019 1.561 . S
C1017 C1020 1.526 . S
C1018 H1002 0.959 . S
C1018 H1003 0.959 . S
C1018 H1004 0.961 . S
C1018 C1017 1.502 . S
C1019 H1005 0.960 . S
C1019 H1006 0.961 . S
C1019 H1007 0.959 . S
C1019 C1017 1.561 . S
C1020 C1017 1.526 . S
C1020 C1021 1.396 . S
C1020 C1025 1.390 . S
C1021 C1015 1.465 . S
C1021 C1020 1.396 . S
C1021 C1022 1.399 . S
C1022 H1008 0.929 . S
C1022 C1021 1.399 . S
C1022 C1023 1.385 . S
C1023 H1009 0.931 . S
C1023 C1022 1.385 . S
C1023 C1024 1.389 . S
C1024 C1023 1.389 . S
C1024 C1025 1.387 . S
C1025 H1010 0.930 . S
C1025 C1020 1.390 . S
C1025 C1024 1.387 . S
H1026 C1038 0.930 . S
H1027 C1040 0.930 . S
H1028 C1041 0.930 . S
H1029 C1045 0.959 . S
H1030 C1045 0.959 . S
H1031 C1045 0.961 . S
H1032 C1046 0.960 . S
H1033 C1046 0.961 . S
H1034 C1046 0.959 . S
H1035 C1049 0.929 . S
H1036 C1050 0.931 . S
H1037 C1052 0.930 . S
C1038 H1026 0.930 . S
C1038 C1039 1.399 . S
C1038 C1043 1.399 . S
C1039 C1038 1.399 . S
C1039 C1040 1.376 . S
C1040 H1027 0.930 . S
C1040 C1039 1.376 . S
C1040 C1041 1.388 . S
C1041 H1028 0.930 . S
C1041 C1040 1.388 . S
C1041 C1042 1.390 . S
C1042 C1041 1.390 . S
C1042 C1043 1.394 . S
C1042 C1048 1.465 . S
C1043 C1038 1.399 . S
C1043 C1042 1.394 . S
C1043 C1044 1.516 . S
C1044 C1043 1.516 . S
C1044 C1045 1.502 . S
C1044 C1046 1.561 . S
C1044 C1047 1.526 . S
C1045 H1029 0.959 . S
C1045 H1030 0.959 . S
C1045 H1031 0.961 . S
C1045 C1044 1.502 . S
C1046 H1032 0.960 . S
C1046 H1033 0.961 . S
C1046 H1034 0.959 . S
C1046 C1044 1.561 . S
C1047 C1044 1.526 . S
C1047 C1048 1.396 . S
C1047 C1052 1.390 . S
C1048 C1042 1.465 . S
C1048 C1047 1.396 . S
C1048 C1049 1.399 . S
C1049 H1035 0.929 . S
C1049 C1048 1.399 . S
C1049 C1050 1.385 . S
C1050 H1036 0.931 . S
C1050 C1049 1.385 . S
C1050 C1051 1.389 . S
C1051 C1050 1.389 . S
C1051 C1052 1.387 . S
C1052 H1037 0.930 . S
C1052 C1047 1.390 . S
C1052 C1051 1.387 . S
H1053 C1065 0.930 . S
H1054 C1067 0.930 . S
H1055 C1068 0.930 . S
H1056 C1072 0.959 . S
H1057 C1072 0.959 . S
H1058 C1072 0.961 . S
H1059 C1073 0.960 . S
H1060 C1073 0.961 . S
H1061 C1073 0.959 . S
H1062 C1076 0.929 . S
H1063 C1077 0.931 . S
H1064 C1079 0.930 . S
C1065 H1053 0.930 . S
C1065 C1066 1.399 . S
C1065 C1070 1.399 . S
C1066 C1065 1.399 . S
C1066 C1067 1.376 . S
C1067 H1054 0.930 . S
C1067 C1066 1.376 . S
C1067 C1068 1.388 . S
C1068 H1055 0.930 . S
C1068 C1067 1.388 . S
C1068 C1069 1.390 . S
C1069 C1068 1.390 . S
C1069 C1070 1.394 . S
C1069 C1075 1.465 . S
C1070 C1065 1.399 . S
C1070 C1069 1.394 . S
C1070 C1071 1.516 . S
C1071 C1070 1.516 . S
C1071 C1072 1.502 . S
C1071 C1073 1.561 . S
C1071 C1074 1.526 . S
C1072 H1056 0.959 . S
C1072 H1057 0.959 . S
C1072 H1058 0.961 . S
C1072 C1071 1.502 . S
C1073 H1059 0.960 . S
C1073 H1060 0.961 . S
C1073 H1061 0.959 . S
C1073 C1071 1.561 . S
C1074 C1071 1.526 . S
C1074 C1075 1.396 . S
C1074 C1079 1.390 . S
C1075 C1069 1.465 . S
C1075 C1074 1.396 . S
C1075 C1076 1.399 . S
C1076 H1062 0.929 . S
C1076 C1075 1.399 . S
C1076 C1077 1.385 . S
C1077 H1063 0.931 . S
C1077 C1076 1.385 . S
C1077 C1078 1.389 . S
C1078 C1077 1.389 . S
C1078 C1079 1.387 . S
C1079 H1064 0.930 . S
C1079 C1074 1.390 . S
C1079 C1078 1.387 . S
H1080 C1092 0.930 . S
H1081 C1094 0.930 . S
H1082 C1095 0.930 . S
H1083 C1099 0.959 . S
H1084 C1099 0.959 . S
H1085 C1099 0.961 . S
H1086 C1100 0.960 . S
H1087 C1100 0.961 . S
H1088 C1100 0.959 . S
H1089 C1103 0.929 . S
H1090 C1104 0.931 . S
H1091 C1106 0.930 . S
C1092 H1080 0.930 . S
C1092 C1093 1.399 . S
C1092 C1097 1.399 . S
C1093 C1092 1.399 . S
C1093 C1094 1.376 . S
C1094 H1081 0.930 . S
C1094 C1093 1.376 . S
C1094 C1095 1.388 . S
C1095 H1082 0.930 . S
C1095 C1094 1.388 . S
C1095 C1096 1.390 . S
C1096 C1095 1.390 . S
C1096 C1097 1.394 . S
C1096 C1102 1.465 . S
C1097 C1092 1.399 . S
C1097 C1096 1.394 . S
C1097 C1098 1.516 . S
C1098 C1097 1.516 . S
C1098 C1099 1.502 . S
C1098 C1100 1.561 . S
C1098 C1101 1.526 . S
C1099 H1083 0.959 . S
C1099 H1084 0.959 . S
C1099 H1085 0.961 . S
C1099 C1098 1.502 . S
C1100 H1086 0.960 . S
C1100 H1087 0.961 . S
C1100 H1088 0.959 . S
C1100 C1098 1.561 . S
C1101 C1098 1.526 . S
C1101 C1102 1.396 . S
C1101 C1106 1.390 . S
C1102 C1096 1.465 . S
C1102 C1101 1.396 . S
C1102 C1103 1.399 . S
C1103 H1089 0.929 . S
C1103 C1102 1.399 . S
C1103 C1104 1.385 . S
C1104 H1090 0.931 . S
C1104 C1103 1.385 . S
C1104 C1105 1.389 . S
C1105 C1104 1.389 . S
C1105 C1106 1.387 . S
C1106 H1091 0.930 . S
C1106 C1101 1.390 . S
C1106 C1105 1.387 . S
H1107 C1119 0.930 . S
H1108 C1121 0.930 . S
H1109 C1122 0.930 . S
H1110 C1126 0.959 . S
H1111 C1126 0.959 . S
H1112 C1126 0.961 . S
H1113 C1127 0.960 . S
H1114 C1127 0.961 . S
H1115 C1127 0.959 . S
H1116 C1130 0.929 . S
H1117 C1131 0.931 . S
H1118 C1133 0.930 . S
C1119 H1107 0.930 . S
C1119 C1120 1.399 . S
C1119 C1124 1.399 . S
C1120 C1119 1.399 . S
C1120 C1121 1.376 . S
C1121 H1108 0.930 . S
C1121 C1120 1.376 . S
C1121 C1122 1.388 . S
C1122 H1109 0.930 . S
C1122 C1121 1.388 . S
C1122 C1123 1.390 . S
C1123 C1122 1.390 . S
C1123 C1124 1.394 . S
C1123 C1129 1.465 . S
C1124 C1119 1.399 . S
C1124 C1123 1.394 . S
C1124 C1125 1.516 . S
C1125 C1124 1.516 . S
C1125 C1126 1.502 . S
C1125 C1127 1.561 . S
C1125 C1128 1.526 . S
C1126 H1110 0.959 . S
C1126 H1111 0.959 . S
C1126 H1112 0.961 . S
C1126 C1125 1.502 . S
C1127 H1113 0.960 . S
C1127 H1114 0.961 . S
C1127 H1115 0.959 . S
C1127 C1125 1.561 . S
C1128 C1125 1.526 . S
C1128 C1129 1.396 . S
C1128 C1133 1.390 . S
C1129 C1123 1.465 . S
C1129 C1128 1.396 . S
C1129 C1130 1.399 . S
C1130 H1116 0.929 . S
C1130 C1129 1.399 . S
C1130 C1131 1.385 . S
C1131 H1117 0.931 . S
C1131 C1130 1.385 . S
C1131 C1132 1.389 . S
C1132 C1131 1.389 . S
C1132 C1133 1.387 . S
C1133 H1118 0.930 . S
C1133 C1128 1.390 . S
C1133 C1132 1.387 . S
H1134 C1146 0.930 . S
H1135 C1148 0.930 . S
H1136 C1149 0.930 . S
H1137 C1153 0.959 . S
H1138 C1153 0.959 . S
H1139 C1153 0.961 . S
H1140 C1154 0.960 . S
H1141 C1154 0.961 . S
H1142 C1154 0.959 . S
H1143 C1157 0.929 . S
H1144 C1158 0.931 . S
H1145 C1160 0.930 . S
C1146 H1134 0.930 . S
C1146 C1147 1.399 . S
C1146 C1151 1.399 . S
C1147 C1146 1.399 . S
C1147 C1148 1.376 . S
C1148 H1135 0.930 . S
C1148 C1147 1.376 . S
C1148 C1149 1.388 . S
C1149 H1136 0.930 . S
C1149 C1148 1.388 . S
C1149 C1150 1.390 . S
C1150 C1149 1.390 . S
C1150 C1151 1.394 . S
C1150 C1156 1.465 . S
C1151 C1146 1.399 . S
C1151 C1150 1.394 . S
C1151 C1152 1.516 . S
C1152 C1151 1.516 . S
C1152 C1153 1.502 . S
C1152 C1154 1.561 . S
C1152 C1155 1.526 . S
C1153 H1137 0.959 . S
C1153 H1138 0.959 . S
C1153 H1139 0.961 . S
C1153 C1152 1.502 . S
C1154 H1140 0.960 . S
C1154 H1141 0.961 . S
C1154 H1142 0.959 . S
C1154 C1152 1.561 . S
C1155 C1152 1.526 . S
C1155 C1156 1.396 . S
C1155 C1160 1.390 . S
C1156 C1150 1.465 . S
C1156 C1155 1.396 . S
C1156 C1157 1.399 . S
C1157 H1143 0.929 . S
C1157 C1156 1.399 . S
C1157 C1158 1.385 . S
C1158 H1144 0.931 . S
C1158 C1157 1.385 . S
C1158 C1159 1.389 . S
C1159 C1158 1.389 . S
C1159 C1160 1.387 . S
C1160 H1145 0.930 . S
C1160 C1155 1.390 . S
C1160 C1159 1.387 . S
H1161 C1173 0.930 . S
H1162 C1175 0.930 . S
H1163 C1176 0.930 . S
H1164 C1180 0.959 . S
H1165 C1180 0.959 . S
H1166 C1180 0.961 . S
H1167 C1181 0.960 . S
H1168 C1181 0.961 . S
H1169 C1181 0.959 . S
H1170 C1184 0.929 . S
H1171 C1185 0.931 . S
H1172 C1187 0.930 . S
C1173 H1161 0.930 . S
C1173 C1174 1.399 . S
C1173 C1178 1.399 . S
C1174 C1173 1.399 . S
C1174 C1175 1.376 . S
C1175 H1162 0.930 . S
C1175 C1174 1.376 . S
C1175 C1176 1.388 . S
C1176 H1163 0.930 . S
C1176 C1175 1.388 . S
C1176 C1177 1.390 . S
C1177 C1176 1.390 . S
C1177 C1178 1.394 . S
C1177 C1183 1.465 . S
C1178 C1173 1.399 . S
C1178 C1177 1.394 . S
C1178 C1179 1.516 . S
C1179 C1178 1.516 . S
C1179 C1180 1.502 . S
C1179 C1181 1.561 . S
C1179 C1182 1.526 . S
C1180 H1164 0.959 . S
C1180 H1165 0.959 . S
C1180 H1166 0.961 . S
C1180 C1179 1.502 . S
C1181 H1167 0.960 . S
C1181 H1168 0.961 . S
C1181 H1169 0.959 . S
C1181 C1179 1.561 . S
C1182 C1179 1.526 . S
C1182 C1183 1.396 . S
C1182 C1187 1.390 . S
C1183 C1177 1.465 . S
C1183 C1182 1.396 . S
C1183 C1184 1.399 . S
C1184 H1170 0.929 . S
C1184 C1183 1.399 . S
C1184 C1185 1.385 . S
C1185 H1171 0.931 . S
C1185 C1184 1.385 . S
C1185 C1186 1.389 . S
C1186 C1185 1.389 . S
C1186 C1187 1.387 . S
C1187 H1172 0.930 . S
C1187 C1182 1.390 . S
C1187 C1186 1.387 . S
H1188 C1200 0.930 . S
H1189 C1202 0.930 . S
H1190 C1203 0.930 . S
H1191 C1207 0.959 . S
H1192 C1207 0.959 . S
H1193 C1207 0.961 . S
H1194 C1208 0.960 . S
H1195 C1208 0.961 . S
H1196 C1208 0.959 . S
H1197 C1211 0.929 . S
H1198 C1212 0.931 . S
H1199 C1214 0.930 . S
C1200 H1188 0.930 . S
C1200 C1201 1.399 . S
C1200 C1205 1.399 . S
C1201 C1200 1.399 . S
C1201 C1202 1.376 . S
C1202 H1189 0.930 . S
C1202 C1201 1.376 . S
C1202 C1203 1.388 . S
C1203 H1190 0.930 . S
C1203 C1202 1.388 . S
C1203 C1204 1.390 . S
C1204 C1203 1.390 . S
C1204 C1205 1.394 . S
C1204 C1210 1.465 . S
C1205 C1200 1.399 . S
C1205 C1204 1.394 . S
C1205 C1206 1.516 . S
C1206 C1205 1.516 . S
C1206 C1207 1.502 . S
C1206 C1208 1.561 . S
C1206 C1209 1.526 . S
C1207 H1191 0.959 . S
C1207 H1192 0.959 . S
C1207 H1193 0.961 . S
C1207 C1206 1.502 . S
C1208 H1194 0.960 . S
C1208 H1195 0.961 . S
C1208 H1196 0.959 . S
C1208 C1206 1.561 . S
C1209 C1206 1.526 . S
C1209 C1210 1.396 . S
C1209 C1214 1.390 . S
C1210 C1204 1.465 . S
C1210 C1209 1.396 . S
C1210 C1211 1.399 . S
C1211 H1197 0.929 . S
C1211 C1210 1.399 . S
C1211 C1212 1.385 . S
C1212 H1198 0.931 . S
C1212 C1211 1.385 . S
C1212 C1213 1.389 . S
C1213 C1212 1.389 . S
C1213 C1214 1.387 . S
C1214 H1199 0.930 . S
C1214 C1209 1.390 . S
C1214 C1213 1.387 . S
H1215 C1227 0.930 . S
H1216 C1229 0.930 . S
H1217 C1230 0.930 . S
H1218 C1234 0.959 . S
H1219 C1234 0.959 . S
H1220 C1234 0.961 . S
H1221 C1235 0.960 . S
H1222 C1235 0.961 . S
H1223 C1235 0.959 . S
H1224 C1238 0.929 . S
H1225 C1239 0.931 . S
H1226 C1241 0.930 . S
C1227 H1215 0.930 . S
C1227 C1228 1.399 . S
C1227 C1232 1.399 . S
C1228 C1227 1.399 . S
C1228 C1229 1.376 . S
C1229 H1216 0.930 . S
C1229 C1228 1.376 . S
C1229 C1230 1.388 . S
C1230 H1217 0.930 . S
C1230 C1229 1.388 . S
C1230 C1231 1.390 . S
C1231 C1230 1.390 . S
C1231 C1232 1.394 . S
C1231 C1237 1.465 . S
C1232 C1227 1.399 . S
C1232 C1231 1.394 . S
C1232 C1233 1.516 . S
C1233 C1232 1.516 . S
C1233 C1234 1.502 . S
C1233 C1235 1.561 . S
C1233 C1236 1.526 . S
C1234 H1218 0.959 . S
C1234 H1219 0.959 . S
C1234 H1220 0.961 . S
C1234 C1233 1.502 . S
C1235 H1221 0.960 . S
C1235 H1222 0.961 . S
C1235 H1223 0.959 . S
C1235 C1233 1.561 . S
C1236 C1233 1.526 . S
C1236 C1237 1.396 . S
C1236 C1241 1.390 . S
C1237 C1231 1.465 . S
C1237 C1236 1.396 . S
C1237 C1238 1.399 . S
C1238 H1224 0.929 . S
C1238 C1237 1.399 . S
C1238 C1239 1.385 . S
C1239 H1225 0.931 . S
C1239 C1238 1.385 . S
C1239 C1240 1.389 . S
C1240 C1239 1.389 . S
C1240 C1241 1.387 . S
C1241 H1226 0.930 . S
C1241 C1236 1.390 . S
C1241 C1240 1.387 . S
H1242 C1254 0.930 . S
H1243 C1256 0.930 . S
H1244 C1257 0.932 . S
H1245 C1261 0.959 . S
H1246 C1261 0.959 . S
H1247 C1261 0.961 1_455 S
H1248 C1262 0.960 . S
H1249 C1262 0.961 1_655 S
H1250 C1262 0.959 . S
H1251 C1265 0.929 . S
H1252 C1266 0.931 . S
H1253 C1268 0.930 . S
C1254 H1242 0.930 . S
C1254 C1255 1.399 . S
C1254 C1259 1.399 . S
C1255 C1254 1.399 . S
C1255 C1256 1.376 . S
C1256 H1243 0.930 . S
C1256 C1255 1.376 . S
C1256 C1257 1.388 . S
C1257 H1244 0.932 . S
C1257 C1256 1.388 . S
C1257 C1258 1.390 . S
C1258 C1257 1.390 . S
C1258 C1259 1.394 . S
C1258 C1264 1.465 1_456 S
C1259 C1254 1.399 . S
C1259 C1258 1.394 . S
C1259 C1260 1.517 1_456 S
C1260 C1259 1.517 1_654 S
C1260 C1261 1.501 1_554 S
C1260 C1262 1.563 1_655 S
C1260 C1263 1.523 . S
C1261 H1245 0.959 . S
C1261 H1246 0.959 . S
C1261 H1247 0.961 1_655 S
C1261 C1260 1.501 1_556 S
C1262 H1248 0.960 . S
C1262 H1249 0.961 1_455 S
C1262 H1250 0.959 . S
C1262 C1260 1.563 1_455 S
C1263 C1260 1.523 . S
C1263 C1264 1.396 . S
C1263 C1268 1.390 . S
C1264 C1258 1.465 1_654 S
C1264 C1263 1.396 . S
C1264 C1265 1.399 . S
C1265 H1251 0.929 . S
C1265 C1264 1.399 . S
C1265 C1266 1.385 . S
C1266 H1252 0.931 . S
C1266 C1265 1.385 . S
C1266 C1267 1.389 . S
C1267 C1266 1.389 . S
C1267 C1268 1.387 . S
C1268 H1253 0.930 . S
C1268 C1263 1.390 . S
C1268 C1267 1.387 . S
H1269 C1281 0.930 . S
H1270 C1283 0.930 1_554 S
H1271 C1284 0.930 . S
H1272 C1288 0.959 . S
H1273 C1288 0.959 . S
H1274 C1288 0.961 . S
H1275 C1289 0.960 . S
H1276 C1289 0.961 . S
H1277 C1289 0.959 . S
H1278 C1292 0.929 . S
H1279 C1293 0.931 . S
H1280 C1295 0.930 1_556 S
C1281 H1269 0.930 . S
C1281 C1282 1.399 . S
C1281 C1286 1.399 . S
C1282 C1281 1.399 . S
C1282 C1283 1.376 . S
C1283 H1270 0.930 1_556 S
C1283 C1282 1.376 . S
C1283 C1284 1.388 1_556 S
C1284 H1271 0.930 . S
C1284 C1283 1.388 1_554 S
C1284 C1285 1.390 . S
C1285 C1284 1.390 . S
C1285 C1286 1.394 1_554 S
C1285 C1291 1.465 . S
C1286 C1281 1.399 . S
C1286 C1285 1.394 1_556 S
C1286 C1287 1.516 . S
C1287 C1286 1.516 . S
C1287 C1288 1.502 . S
C1287 C1289 1.561 . S
C1287 C1290 1.526 . S
C1288 H1272 0.959 . S
C1288 H1273 0.959 . S
C1288 H1274 0.961 . S
C1288 C1287 1.502 . S
C1289 H1275 0.960 . S
C1289 H1276 0.961 . S
C1289 H1277 0.959 . S
C1289 C1287 1.561 . S
C1290 C1287 1.526 . S
C1290 C1291 1.396 1_556 S
C1290 C1295 1.390 1_556 S
C1291 C1285 1.465 . S
C1291 C1290 1.396 1_554 S
C1291 C1292 1.399 . S
C1292 H1278 0.929 . S
C1292 C1291 1.399 . S
C1292 C1293 1.385 . S
C1293 H1279 0.931 . S
C1293 C1292 1.385 . S
C1293 C1294 1.389 . S
C1294 C1293 1.389 . S
C1294 C1295 1.387 . S
C1295 H1280 0.930 1_554 S
C1295 C1290 1.390 1_554 S
C1295 C1294 1.387 . S
H1296 C1308 0.930 1_556 S
H1297 C1310 0.930 . S
H1298 C1311 0.930 . S
H1299 C1315 0.959 . S
H1300 C1315 0.959 . S
H1301 C1315 0.961 . S
H1302 C1316 0.960 . S
H1303 C1316 0.961 . S
H1304 C1316 0.959 . S
H1305 C1319 0.929 . S
H1306 C1320 0.931 . S
H1307 C1322 0.930 . S
C1308 H1296 0.930 1_554 S
C1308 C1309 1.399 . S
C1308 C1313 1.399 1_554 S
C1309 C1308 1.399 . S
C1309 C1310 1.376 . S
C1310 H1297 0.930 . S
C1310 C1309 1.376 . S
C1310 C1311 1.388 . S
C1311 H1298 0.930 . S
C1311 C1310 1.388 . S
C1311 C1312 1.390 . S
C1312 C1311 1.390 . S
C1312 C1313 1.394 1_554 S
C1312 C1318 1.465 1_545 S
C1313 C1308 1.399 1_556 S
C1313 C1312 1.394 1_556 S
C1313 C1314 1.516 . S
C1314 C1313 1.516 . S
C1314 C1315 1.502 . S
C1314 C1316 1.561 . S
C1314 C1317 1.526 1_545 S
C1315 H1299 0.959 . S
C1315 H1300 0.959 . S
C1315 H1301 0.961 . S
C1315 C1314 1.502 . S
C1316 H1302 0.960 . S
C1316 H1303 0.961 . S
C1316 H1304 0.959 . S
C1316 C1314 1.561 . S
C1317 C1314 1.526 1_565 S
C1317 C1318 1.396 1_556 S
C1317 C1322 1.390 . S
C1318 C1312 1.465 1_565 S
C1318 C1317 1.396 1_554 S
C1318 C1319 1.399 . S
C1319 H1305 0.929 . S
C1319 C1318 1.399 . S
C1319 C1320 1.385 . S
C1320 H1306 0.931 . S
C1320 C1319 1.385 . S
C1320 C1321 1.389 1_554 S
C1321 C1320 1.389 1_556 S
C1321 C1322 1.387 . S
C1322 H1307 0.930 . S
C1322 C1317 1.390 . S
C1322 C1321 1.387 . S
H1323 C1335 0.930 . S
H1324 C1337 0.930 . S
H1325 C1338 0.930 . S
H1326 C1342 0.959 . S
H1327 C1342 0.959 . S
H1328 C1342 0.961 . S
H1329 C1343 0.960 . S
H1330 C1343 0.961 . S
H1331 C1343 0.959 . S
H1332 C1346 0.929 . S
H1333 C1347 0.931 . S
H1334 C1349 0.930 . S
C1335 H1323 0.930 . S
C1335 C1336 1.399 . S
C1335 C1340 1.399 . S
C1336 C1335 1.399 . S
C1336 C1337 1.376 . S
C1337 H1324 0.930 . S
C1337 C1336 1.376 . S
C1337 C1338 1.388 . S
C1338 H1325 0.930 . S
C1338 C1337 1.388 . S
C1338 C1339 1.390 . S
C1339 C1338 1.390 . S
C1339 C1340 1.394 . S
C1339 C1345 1.465 . S
C1340 C1335 1.399 . S
C1340 C1339 1.394 . S
C1340 C1341 1.516 . S
C1341 C1340 1.516 . S
C1341 C1342 1.502 . S
C1341 C1343 1.561 . S
C1341 C1344 1.526 . S
C1342 H1326 0.959 . S
C1342 H1327 0.959 . S
C1342 H1328 0.961 . S
C1342 C1341 1.502 . S
C1343 H1329 0.960 . S
C1343 H1330 0.961 . S
C1343 H1331 0.959 . S
C1343 C1341 1.561 . S
C1344 C1341 1.526 . S
C1344 C1345 1.396 . S
C1344 C1349 1.390 . S
C1345 C1339 1.465 . S
C1345 C1344 1.396 . S
C1345 C1346 1.399 . S
C1346 H1332 0.929 . S
C1346 C1345 1.399 . S
C1346 C1347 1.385 . S
C1347 H1333 0.931 . S
C1347 C1346 1.385 . S
C1347 C1348 1.389 . S
C1348 C1347 1.389 . S
C1348 C1349 1.387 . S
C1349 H1334 0.930 . S
C1349 C1344 1.390 . S
C1349 C1348 1.387 . S
H1350 C1362 0.930 . S
H1351 C1364 0.930 . S
H1352 C1365 0.930 . S
H1353 C1369 0.959 . S
H1354 C1369 0.959 . S
H1355 C1369 0.961 . S
H1356 C1370 0.960 . S
H1357 C1370 0.961 . S
H1358 C1370 0.959 . S
H1359 C1373 0.929 . S
H1360 C1374 0.931 . S
H1361 C1376 0.930 . S
C1362 H1350 0.930 . S
C1362 C1363 1.399 . S
C1362 C1367 1.399 . S
C1363 C1362 1.399 . S
C1363 C1364 1.376 . S
C1364 H1351 0.930 . S
C1364 C1363 1.376 . S
C1364 C1365 1.388 1_545 S
C1365 H1352 0.930 . S
C1365 C1364 1.388 1_565 S
C1365 C1366 1.398 . S
C1366 C1365 1.398 . S
C1366 C1367 1.353 1_565 S
C1366 C1372 1.494 . S
C1367 C1362 1.399 . S
C1367 C1366 1.353 1_545 S
C1367 C1368 1.516 . S
C1368 C1367 1.516 . S
C1368 C1369 1.502 . S
C1368 C1370 1.561 . S
C1368 C1371 1.526 1_545 S
C1369 H1353 0.959 . S
C1369 H1354 0.959 . S
C1369 H1355 0.961 . S
C1369 C1368 1.502 . S
C1370 H1356 0.960 . S
C1370 H1357 0.961 . S
C1370 H1358 0.959 . S
C1370 C1368 1.561 . S
C1371 C1368 1.526 1_565 S
C1371 C1372 1.396 . S
C1371 C1376 1.390 . S
C1372 C1366 1.494 . S
C1372 C1371 1.396 . S
C1372 C1373 1.399 . S
C1373 H1359 0.929 . S
C1373 C1372 1.399 . S
C1373 C1374 1.385 . S
C1374 H1360 0.931 . S
C1374 C1373 1.385 . S
C1374 C1375 1.389 . S
C1375 C1374 1.389 . S
C1375 C1376 1.387 . S
C1376 H1361 0.930 . S
C1376 C1371 1.390 . S
C1376 C1375 1.387 . S
H1377 C1389 0.930 . S
H1378 C1391 0.930 . S
H1379 C1392 0.930 . S
H1380 C1396 0.959 . S
H1381 C1396 0.959 . S
H1382 C1396 0.961 . S
H1383 C1397 0.960 . S
H1384 C1397 0.961 . S
H1385 C1397 0.959 . S
H1386 C1400 0.929 . S
H1387 C1401 0.931 . S
H1388 C1403 0.930 . S
C1389 H1377 0.930 . S
C1389 C1390 1.399 . S
C1389 C1394 1.399 . S
C1390 C1389 1.399 . S
C1390 C1391 1.376 . S
C1391 H1378 0.930 . S
C1391 C1390 1.376 . S
C1391 C1392 1.388 . S
C1392 H1379 0.930 . S
C1392 C1391 1.388 . S
C1392 C1393 1.390 . S
C1393 C1392 1.390 . S
C1393 C1394 1.394 . S
C1393 C1399 1.455 1_455 S
C1394 C1389 1.399 . S
C1394 C1393 1.394 . S
C1394 C1395 1.516 1_455 S
C1395 C1394 1.516 1_655 S
C1395 C1396 1.502 . S
C1395 C1397 1.561 . S
C1395 C1398 1.526 . S
C1396 H1380 0.959 . S
C1396 H1381 0.959 . S
C1396 H1382 0.961 . S
C1396 C1395 1.502 . S
C1397 H1383 0.960 . S
C1397 H1384 0.961 . S
C1397 H1385 0.959 . S
C1397 C1395 1.561 . S
C1398 C1395 1.526 . S
C1398 C1399 1.414 . S
C1398 C1403 1.390 . S
C1399 C1393 1.455 1_655 S
C1399 C1398 1.414 . S
C1399 C1400 1.394 1_655 S
C1400 H1386 0.929 . S
C1400 C1399 1.394 1_455 S
C1400 C1401 1.385 1_455 S
C1401 H1387 0.931 . S
C1401 C1400 1.385 1_655 S
C1401 C1402 1.389 . S
C1402 C1401 1.389 . S
C1402 C1403 1.387 . S
C1403 H1388 0.930 . S
C1403 C1398 1.390 . S
C1403 C1402 1.387 . S
H1404 C1416 0.930 . S
H1405 C1418 0.930 . S
H1406 C1419 0.930 . S
H1407 C1423 0.959 . S
H1408 C1423 0.959 . S
H1409 C1423 0.961 . S
H1410 C1424 0.960 . S
H1411 C1424 0.961 . S
H1412 C1424 0.959 . S
H1413 C1427 0.929 . S
H1414 C1428 0.931 . S
H1415 C1430 0.930 . S
C1416 H1404 0.930 . S
C1416 C1417 1.399 . S
C1416 C1421 1.399 . S
C1417 C1416 1.399 . S
C1417 C1418 1.376 . S
C1418 H1405 0.930 . S
C1418 C1417 1.376 . S
C1418 C1419 1.388 . S
C1419 H1406 0.930 . S
C1419 C1418 1.388 . S
C1419 C1420 1.390 . S
C1420 C1419 1.390 . S
C1420 C1421 1.394 . S
C1420 C1426 1.465 . S
C1421 C1416 1.399 . S
C1421 C1420 1.394 . S
C1421 C1422 1.516 . S
C1422 C1421 1.516 . S
C1422 C1423 1.502 . S
C1422 C1424 1.561 . S
C1422 C1425 1.526 . S
C1423 H1407 0.959 . S
C1423 H1408 0.959 . S
C1423 H1409 0.961 . S
C1423 C1422 1.502 . S
C1424 H1410 0.960 . S
C1424 H1411 0.961 . S
C1424 H1412 0.959 . S
C1424 C1422 1.561 . S
C1425 C1422 1.526 . S
C1425 C1426 1.396 . S
C1425 C1430 1.390 . S
C1426 C1420 1.465 . S
C1426 C1425 1.396 . S
C1426 C1427 1.399 . S
C1427 H1413 0.929 . S
C1427 C1426 1.399 . S
C1427 C1428 1.385 . S
C1428 H1414 0.931 . S
C1428 C1427 1.385 . S
C1428 C1429 1.389 . S
C1429 C1428 1.389 . S
C1429 C1430 1.387 . S
C1430 H1415 0.930 . S
C1430 C1425 1.390 . S
C1430 C1429 1.387 . S
H1431 C1443 0.930 . S
H1432 C1445 0.930 . S
H1433 C1446 0.930 . S
H1434 C1450 0.959 1_545 S
H1435 C1450 0.959 . S
H1436 C1450 0.961 . S
H1437 C1451 0.960 . S
H1438 C1451 0.961 . S
H1439 C1451 0.959 . S
H1440 C1454 0.929 . S
H1441 C1455 0.931 . S
H1442 C1457 0.930 . S
C1443 H1431 0.930 . S
C1443 C1444 1.399 . S
C1443 C1448 1.399 . S
C1444 C1443 1.399 . S
C1444 C1445 1.376 . S
C1445 H1432 0.930 . S
C1445 C1444 1.376 . S
C1445 C1446 1.388 . S
C1446 H1433 0.930 . S
C1446 C1445 1.388 . S
C1446 C1447 1.390 . S
C1447 C1446 1.390 . S
C1447 C1448 1.394 . S
C1447 C1453 1.465 1_565 S
C1448 C1443 1.399 . S
C1448 C1447 1.394 . S
C1448 C1449 1.516 . S
C1449 C1448 1.516 . S
C1449 C1450 1.502 . S
C1449 C1451 1.561 . S
C1449 C1452 1.526 1_565 S
C1450 H1434 0.959 1_565 S
C1450 H1435 0.959 . S
C1450 H1436 0.961 . S
C1450 C1449 1.502 . S
C1451 H1437 0.960 . S
C1451 H1438 0.961 . S
C1451 H1439 0.959 . S
C1451 C1449 1.561 . S
C1452 C1449 1.526 1_545 S
C1452 C1453 1.396 . S
C1452 C1457 1.390 . S
C1453 C1447 1.465 1_545 S
C1453 C1452 1.396 . S
C1453 C1454 1.399 . S
C1454 H1440 0.929 . S
C1454 C1453 1.399 . S
C1454 C1455 1.385 . S
C1455 H1441 0.931 . S
C1455 C1454 1.385 . S
C1455 C1456 1.389 . S
C1456 C1455 1.389 . S
C1456 C1457 1.387 . S
C1457 H1442 0.930 . S
C1457 C1452 1.390 . S
C1457 C1456 1.387 . S
H1458 C1470 0.930 . S
H1459 C1472 0.930 . S
H1460 C1473 0.930 . S
H1461 C1477 0.957 . S
H1462 C1477 0.959 . S
H1463 C1477 0.961 . S
H1464 C1478 0.960 . S
H1465 C1478 0.961 . S
H1466 C1478 0.959 . S
H1467 C1481 0.929 . S
H1468 C1482 0.931 . S
H1469 C1484 0.930 . S
C1470 H1458 0.930 . S
C1470 C1471 1.399 . S
C1470 C1475 1.399 . S
C1471 C1470 1.399 . S
C1471 C1472 1.376 . S
C1472 H1459 0.930 . S
C1472 C1471 1.376 . S
C1472 C1473 1.388 . S
C1473 H1460 0.930 . S
C1473 C1472 1.388 . S
C1473 C1474 1.390 . S
C1474 C1473 1.390 . S
C1474 C1475 1.394 . S
C1474 C1480 1.465 1_655 S
C1475 C1470 1.399 . S
C1475 C1474 1.394 . S
C1475 C1476 1.516 1_655 S
C1476 C1475 1.516 1_455 S
C1476 C1477 1.502 . S
C1476 C1478 1.561 . S
C1476 C1479 1.526 . S
C1477 H1461 0.957 . S
C1477 H1462 0.959 . S
C1477 H1463 0.961 . S
C1477 C1476 1.502 . S
C1478 H1464 0.960 . S
C1478 H1465 0.961 . S
C1478 H1466 0.959 . S
C1478 C1476 1.561 . S
C1479 C1476 1.526 . S
C1479 C1480 1.396 . S
C1479 C1484 1.390 . S
C1480 C1474 1.465 1_455 S
C1480 C1479 1.396 . S
C1480 C1481 1.399 . S
C1481 H1467 0.929 . S
C1481 C1480 1.399 . S
C1481 C1482 1.385 . S
C1482 H1468 0.931 . S
C1482 C1481 1.385 . S
C1482 C1483 1.389 . S
C1483 C1482 1.389 . S
C1483 C1484 1.387 . S
C1484 H1469 0.930 . S
C1484 C1479 1.390 . S
C1484 C1483 1.387 . S
H1485 C1497 0.930 . S
H1486 C1499 0.930 . S
H1487 C1500 0.930 . S
H1488 C1504 0.959 . S
H1489 C1504 0.959 . S
H1490 C1504 0.961 . S
H1491 C1505 0.960 . S
H1492 C1505 0.961 . S
H1493 C1505 0.959 . S
H1494 C1508 0.929 . S
H1495 C1509 0.931 . S
H1496 C1511 0.930 . S
C1497 H1485 0.930 . S
C1497 C1498 1.399 . S
C1497 C1502 1.399 . S
C1498 C1497 1.399 . S
C1498 C1499 1.376 . S
C1499 H1486 0.930 . S
C1499 C1498 1.376 . S
C1499 C1500 1.388 . S
C1500 H1487 0.930 . S
C1500 C1499 1.388 . S
C1500 C1501 1.390 . S
C1501 C1500 1.390 . S
C1501 C1502 1.394 . S
C1501 C1507 1.465 . S
C1502 C1497 1.399 . S
C1502 C1501 1.394 . S
C1502 C1503 1.516 . S
C1503 C1502 1.516 . S
C1503 C1504 1.502 . S
C1503 C1505 1.561 . S
C1503 C1506 1.526 . S
C1504 H1488 0.959 . S
C1504 H1489 0.959 . S
C1504 H1490 0.961 . S
C1504 C1503 1.502 . S
C1505 H1491 0.960 . S
C1505 H1492 0.961 . S
C1505 H1493 0.959 . S
C1505 C1503 1.561 . S
C1506 C1503 1.526 . S
C1506 C1507 1.396 . S
C1506 C1511 1.390 . S
C1507 C1501 1.465 . S
C1507 C1506 1.396 . S
C1507 C1508 1.399 . S
C1508 H1494 0.929 . S
C1508 C1507 1.399 . S
C1508 C1509 1.385 . S
C1509 H1495 0.931 . S
C1509 C1508 1.385 . S
C1509 C1510 1.389 . S
C1510 C1509 1.389 . S
C1510 C1511 1.387 . S
C1511 H1496 0.930 . S
C1511 C1506 1.390 . S
C1511 C1510 1.387 . S
H1512 C1524 0.930 . S
H1513 C1526 0.916 1_554 S
H1514 C1527 0.930 . S
H1515 C1531 0.959 . S
H1516 C1531 0.959 . S
H1517 C1531 0.961 . S
H1518 C1532 0.960 . S
H1519 C1532 0.961 . S
H1520 C1532 0.959 . S
H1521 C1535 0.929 . S
H1522 C1536 0.931 . S
H1523 C1538 0.930 . S
C1524 H1512 0.930 . S
C1524 C1525 1.399 . S
C1524 C1529 1.399 . S
C1525 C1524 1.399 . S
C1525 C1526 1.376 . S
C1526 H1513 0.916 1_556 S
C1526 C1525 1.376 . S
C1526 C1527 1.388 . S
C1527 H1514 0.930 . S
C1527 C1526 1.388 . S
C1527 C1528 1.390 . S
C1528 C1527 1.390 . S
C1528 C1529 1.394 . S
C1528 C1534 1.465 . S
C1529 C1524 1.399 . S
C1529 C1528 1.394 . S
C1529 C1530 1.516 . S
C1530 C1529 1.516 . S
C1530 C1531 1.502 . S
C1530 C1532 1.561 . S
C1530 C1533 1.526 . S
C1531 H1515 0.959 . S
C1531 H1516 0.959 . S
C1531 H1517 0.961 . S
C1531 C1530 1.502 . S
C1532 H1518 0.960 . S
C1532 H1519 0.961 . S
C1532 H1520 0.959 . S
C1532 C1530 1.561 . S
C1533 C1530 1.526 . S
C1533 C1534 1.396 . S
C1533 C1538 1.390 . S
C1534 C1528 1.465 . S
C1534 C1533 1.396 . S
C1534 C1535 1.399 . S
C1535 H1521 0.929 . S
C1535 C1534 1.399 . S
C1535 C1536 1.385 . S
C1536 H1522 0.931 . S
C1536 C1535 1.385 . S
C1536 C1537 1.389 . S
C1537 C1536 1.389 . S
C1537 C1538 1.387 . S
C1538 H1523 0.930 . S
C1538 C1533 1.390 . S
C1538 C1537 1.387 . S
H1539 C1551 0.930 . S
H1540 C1553 0.930 . S
H1541 C1554 0.930 . S
H1542 C1558 0.959 . S
H1543 C1558 0.959 . S
H1544 C1558 0.961 . S
H1545 C1559 0.960 . S
H1546 C1559 0.961 . S
H1547 C1559 0.959 . S
H1548 C1562 0.929 . S
H1549 C1563 0.931 . S
H1550 C1565 0.930 . S
C1551 H1539 0.930 . S
C1551 C1552 1.399 . S
C1551 C1556 1.399 . S
C1552 C1551 1.399 . S
C1552 C1553 1.376 . S
C1553 H1540 0.930 . S
C1553 C1552 1.376 . S
C1553 C1554 1.388 . S
C1554 H1541 0.930 . S
C1554 C1553 1.388 . S
C1554 C1555 1.390 . S
C1555 C1554 1.390 . S
C1555 C1556 1.394 . S
C1555 C1561 1.465 . S
C1556 C1551 1.399 . S
C1556 C1555 1.394 . S
C1556 C1557 1.516 . S
C1557 C1556 1.516 . S
C1557 C1558 1.502 . S
C1557 C1559 1.561 . S
C1557 C1560 1.526 . S
C1558 H1542 0.959 . S
C1558 H1543 0.959 . S
C1558 H1544 0.961 . S
C1558 C1557 1.502 . S
C1559 H1545 0.960 . S
C1559 H1546 0.961 . S
C1559 H1547 0.959 . S
C1559 C1557 1.561 . S
C1560 C1557 1.526 . S
C1560 C1561 1.396 . S
C1560 C1565 1.390 . S
C1561 C1555 1.465 . S
C1561 C1560 1.396 . S
C1561 C1562 1.399 . S
C1562 H1548 0.929 . S
C1562 C1561 1.399 . S
C1562 C1563 1.385 . S
C1563 H1549 0.931 . S
C1563 C1562 1.385 . S
C1563 C1564 1.389 . S
C1564 C1563 1.389 . S
C1564 C1565 1.387 . S
C1565 H1550 0.930 . S
C1565 C1560 1.390 . S
C1565 C1564 1.387 . S
H1566 C1578 0.930 . S
H1567 C1580 0.930 . S
H1568 C1581 0.930 . S
H1569 C1585 0.959 . S
H1570 C1585 0.959 . S
H1571 C1585 0.961 . S
H1572 C1586 0.960 . S
H1573 C1586 0.961 . S
H1574 C1586 0.959 . S
H1575 C1589 0.929 . S
H1576 C1590 0.931 . S
H1577 C1592 0.930 . S
C1578 H1566 0.930 . S
C1578 C1579 1.399 . S
C1578 C1583 1.399 . S
C1579 C1578 1.399 . S
C1579 C1580 1.376 . S
C1580 H1567 0.930 . S
C1580 C1579 1.376 . S
C1580 C1581 1.388 . S
C1581 H1568 0.930 . S
C1581 C1580 1.388 . S
C1581 C1582 1.390 . S
C1582 C1581 1.390 . S
C1582 C1583 1.394 . S
C1582 C1588 1.465 . S
C1583 C1578 1.399 . S
C1583 C1582 1.394 . S
C1583 C1584 1.516 . S
C1584 C1583 1.516 . S
C1584 C1585 1.502 . S
C1584 C1586 1.561 . S
C1584 C1587 1.526 . S
C1585 H1569 0.959 . S
C1585 H1570 0.959 . S
C1585 H1571 0.961 . S
C1585 C1584 1.502 . S
C1586 H1572 0.960 . S
C1586 H1573 0.961 . S
C1586 H1574 0.959 . S
C1586 C1584 1.561 . S
C1587 C1584 1.526 . S
C1587 C1588 1.396 . S
C1587 C1592 1.390 . S
C1588 C1582 1.465 . S
C1588 C1587 1.396 . S
C1588 C1589 1.399 . S
C1589 H1575 0.929 . S
C1589 C1588 1.399 . S
C1589 C1590 1.385 . S
C1590 H1576 0.931 . S
C1590 C1589 1.385 . S
C1590 C1591 1.389 . S
C1591 C1590 1.389 . S
C1591 C1592 1.387 . S
C1592 H1577 0.930 . S
C1592 C1587 1.390 . S
C1592 C1591 1.387 . S
H1593 C1605 0.930 . S
H1594 C1607 0.930 . S
H1595 C1608 0.930 . S
H1596 C1612 0.959 . S
H1597 C1612 0.959 . S
H1598 C1612 0.961 . S
H1599 C1613 0.960 . S
H1600 C1613 0.961 . S
H1601 C1613 0.959 . S
H1602 C1616 0.929 . S
H1603 C1617 0.931 . S
H1604 C1619 0.930 . S
C1605 H1593 0.930 . S
C1605 C1606 1.399 . S
C1605 C1610 1.399 . S
C1606 C1605 1.399 . S
C1606 C1607 1.376 . S
C1607 H1594 0.930 . S
C1607 C1606 1.376 . S
C1607 C1608 1.388 . S
C1608 H1595 0.930 . S
C1608 C1607 1.388 . S
C1608 C1609 1.390 . S
C1609 C1608 1.390 . S
C1609 C1610 1.394 . S
C1609 C1615 1.465 . S
C1610 C1605 1.399 . S
C1610 C1609 1.394 . S
C1610 C1611 1.516 . S
C1611 C1610 1.516 . S
C1611 C1612 1.502 . S
C1611 C1613 1.561 . S
C1611 C1614 1.526 . S
C1612 H1596 0.959 . S
C1612 H1597 0.959 . S
C1612 H1598 0.961 . S
C1612 C1611 1.502 . S
C1613 H1599 0.960 . S
C1613 H1600 0.961 . S
C1613 H1601 0.959 . S
C1613 C1611 1.561 . S
C1614 C1611 1.526 . S
C1614 C1615 1.396 . S
C1614 C1619 1.390 . S
C1615 C1609 1.465 . S
C1615 C1614 1.396 . S
C1615 C1616 1.399 . S
C1616 H1602 0.929 . S
C1616 C1615 1.399 . S
C1616 C1617 1.385 . S
C1617 H1603 0.931 . S
C1617 C1616 1.385 . S
C1617 C1618 1.389 . S
C1618 C1617 1.389 . S
C1618 C1619 1.387 . S
C1619 H1604 0.930 . S
C1619 C1614 1.390 . S
C1619 C1618 1.387 . S
H1620 C1632 0.930 . S
H1621 C1634 0.930 . S
H1622 C1635 0.930 . S
H1623 C1639 0.959 . S
H1624 C1639 0.959 . S
H1625 C1639 0.961 . S
H1626 C1640 0.960 . S
H1627 C1640 0.961 . S
H1628 C1640 0.959 . S
H1629 C1643 0.929 . S
H1630 C1644 0.931 . S
H1631 C1646 0.930 . S
C1632 H1620 0.930 . S
C1632 C1633 1.399 . S
C1632 C1637 1.399 . S
C1633 C1632 1.399 . S
C1633 C1634 1.376 . S
C1634 H1621 0.930 . S
C1634 C1633 1.376 . S
C1634 C1635 1.388 . S
C1635 H1622 0.930 . S
C1635 C1634 1.388 . S
C1635 C1636 1.390 . S
C1636 C1635 1.390 . S
C1636 C1637 1.394 . S
C1636 C1642 1.465 . S
C1637 C1632 1.399 . S
C1637 C1636 1.394 . S
C1637 C1638 1.516 . S
C1638 C1637 1.516 . S
C1638 C1639 1.502 . S
C1638 C1640 1.561 . S
C1638 C1641 1.526 . S
C1639 H1623 0.959 . S
C1639 H1624 0.959 . S
C1639 H1625 0.961 . S
C1639 C1638 1.502 . S
C1640 H1626 0.960 . S
C1640 H1627 0.961 . S
C1640 H1628 0.959 . S
C1640 C1638 1.561 . S
C1641 C1638 1.526 . S
C1641 C1642 1.396 . S
C1641 C1646 1.390 . S
C1642 C1636 1.465 . S
C1642 C1641 1.396 . S
C1642 C1643 1.399 . S
C1643 H1629 0.929 . S
C1643 C1642 1.399 . S
C1643 C1644 1.385 . S
C1644 H1630 0.931 . S
C1644 C1643 1.385 . S
C1644 C1645 1.389 . S
C1645 C1644 1.389 . S
C1645 C1646 1.387 . S
C1646 H1631 0.930 . S
C1646 C1641 1.390 . S
C1646 C1645 1.387 . S
H1647 C1659 0.930 . S
H1648 C1661 0.930 . S
H1649 C1662 0.930 . S
H1650 C1666 0.959 . S
H1651 C1666 0.959 . S
H1652 C1666 0.961 . S
H1653 C1667 0.960 . S
H1654 C1667 0.961 . S
H1655 C1667 0.959 . S
H1656 C1670 0.929 . S
H1657 C1671 0.931 . S
H1658 C1673 0.930 . S
C1659 H1647 0.930 . S
C1659 C1660 1.399 . S
C1659 C1664 1.399 . S
C1660 C1659 1.399 . S
C1660 C1661 1.376 . S
C1661 H1648 0.930 . S
C1661 C1660 1.376 . S
C1661 C1662 1.388 . S
C1662 H1649 0.930 . S
C1662 C1661 1.388 . S
C1662 C1663 1.390 . S
C1663 C1662 1.390 . S
C1663 C1664 1.394 . S
C1663 C1669 1.465 . S
C1664 C1659 1.399 . S
C1664 C1663 1.394 . S
C1664 C1665 1.516 . S
C1665 C1664 1.516 . S
C1665 C1666 1.502 . S
C1665 C1667 1.561 . S
C1665 C1668 1.526 . S
C1666 H1650 0.959 . S
C1666 H1651 0.959 . S
C1666 H1652 0.961 . S
C1666 C1665 1.502 . S
C1667 H1653 0.960 . S
C1667 H1654 0.961 . S
C1667 H1655 0.959 . S
C1667 C1665 1.561 . S
C1668 C1665 1.526 . S
C1668 C1669 1.396 . S
C1668 C1673 1.390 . S
C1669 C1663 1.465 . S
C1669 C1668 1.396 . S
C1669 C1670 1.399 . S
C1670 H1656 0.929 . S
C1670 C1669 1.399 . S
C1670 C1671 1.385 . S
C1671 H1657 0.931 . S
C1671 C1670 1.385 . S
C1671 C1672 1.389 . S
C1672 C1671 1.389 . S
C1672 C1673 1.387 . S
C1673 H1658 0.930 . S
C1673 C1668 1.390 . S
C1673 C1672 1.387 . S
H1674 C1686 0.930 . S
H1675 C1688 0.930 . S
H1676 C1689 0.930 . S
H1677 C1693 0.959 . S
H1678 C1693 0.959 . S
H1679 C1693 0.961 . S
H1680 C1694 0.960 . S
H1681 C1694 0.961 . S
H1682 C1694 0.959 . S
H1683 C1697 0.929 . S
H1684 C1698 0.931 . S
H1685 C1700 0.930 . S
C1686 H1674 0.930 . S
C1686 C1687 1.399 . S
C1686 C1691 1.399 . S
C1687 C1686 1.399 . S
C1687 C1688 1.376 . S
C1688 H1675 0.930 . S
C1688 C1687 1.376 . S
C1688 C1689 1.388 . S
C1689 H1676 0.930 . S
C1689 C1688 1.388 . S
C1689 C1690 1.390 . S
C1690 C1689 1.390 . S
C1690 C1691 1.394 . S
C1690 C1696 1.465 . S
C1691 C1686 1.399 . S
C1691 C1690 1.394 . S
C1691 C1692 1.516 . S
C1692 C1691 1.516 . S
C1692 C1693 1.502 . S
C1692 C1694 1.561 . S
C1692 C1695 1.526 . S
C1693 H1677 0.959 . S
C1693 H1678 0.959 . S
C1693 H1679 0.961 . S
C1693 C1692 1.502 . S
C1694 H1680 0.960 . S
C1694 H1681 0.961 . S
C1694 H1682 0.959 . S
C1694 C1692 1.561 . S
C1695 C1692 1.526 . S
C1695 C1696 1.396 . S
C1695 C1700 1.390 . S
C1696 C1690 1.465 . S
C1696 C1695 1.396 . S
C1696 C1697 1.399 . S
C1697 H1683 0.929 . S
C1697 C1696 1.399 . S
C1697 C1698 1.385 . S
C1698 H1684 0.931 . S
C1698 C1697 1.385 . S
C1698 C1699 1.389 . S
C1699 C1698 1.389 . S
C1699 C1700 1.387 . S
C1700 H1685 0.930 . S
C1700 C1695 1.390 . S
C1700 C1699 1.387 . S
H1701 C1713 0.930 . S
H1702 C1715 0.930 . S
H1703 C1716 0.930 . S
H1704 C1720 0.959 . S
H1705 C1720 0.959 . S
H1706 C1720 0.961 . S
H1707 C1721 0.960 . S
H1708 C1721 0.961 . S
H1709 C1721 0.959 . S
H1710 C1724 0.929 . S
H1711 C1725 0.931 . S
H1712 C1727 0.930 . S
C1713 H1701 0.930 . S
C1713 C1714 1.399 . S
C1713 C1718 1.399 . S
C1714 C1713 1.399 . S
C1714 C1715 1.376 . S
C1715 H1702 0.930 . S
C1715 C1714 1.376 . S
C1715 C1716 1.388 . S
C1716 H1703 0.930 . S
C1716 C1715 1.388 . S
C1716 C1717 1.390 . S
C1717 C1716 1.390 . S
C1717 C1718 1.394 . S
C1717 C1723 1.465 . S
C1718 C1713 1.399 . S
C1718 C1717 1.394 . S
C1718 C1719 1.516 . S
C1719 C1718 1.516 . S
C1719 C1720 1.502 . S
C1719 C1721 1.561 . S
C1719 C1722 1.526 . S
C1720 H1704 0.959 . S
C1720 H1705 0.959 . S
C1720 H1706 0.961 . S
C1720 C1719 1.502 . S
C1721 H1707 0.960 . S
C1721 H1708 0.961 . S
C1721 H1709 0.959 . S
C1721 C1719 1.561 . S
C1722 C1719 1.526 . S
C1722 C1723 1.396 . S
C1722 C1727 1.390 . S
C1723 C1717 1.465 . S
C1723 C1722 1.396 . S
C1723 C1724 1.399 . S
C1724 H1710 0.929 . S
C1724 C1723 1.399 . S
C1724 C1725 1.385 . S
C1725 H1711 0.931 . S
C1725 C1724 1.385 . S
C1725 C1726 1.389 . S
C1726 C1725 1.389 . S
C1726 C1727 1.387 . S
C1727 H1712 0.930 . S
C1727 C1722 1.390 . S
C1727 C1726 1.387 . S
H1728 C1740 0.930 . S
H1729 C1742 0.930 . S
H1730 C1743 0.930 . S
H1731 C1747 0.959 . S
H1732 C1747 0.959 . S
H1733 C1747 0.961 . S
H1734 C1748 0.960 . S
H1735 C1748 0.961 . S
H1736 C1748 0.959 . S
H1737 C1751 0.929 . S
H1738 C1752 0.931 . S
H1739 C1754 0.930 . S
C1740 H1728 0.930 . S
C1740 C1741 1.399 . S
C1740 C1745 1.399 . S
C1741 C1740 1.399 . S
C1741 C1742 1.376 . S
C1742 H1729 0.930 . S
C1742 C1741 1.376 . S
C1742 C1743 1.388 . S
C1743 H1730 0.930 . S
C1743 C1742 1.388 . S
C1743 C1744 1.390 . S
C1744 C1743 1.390 . S
C1744 C1745 1.394 . S
C1744 C1750 1.465 . S
C1745 C1740 1.399 . S
C1745 C1744 1.394 . S
C1745 C1746 1.516 . S
C1746 C1745 1.516 . S
C1746 C1747 1.502 . S
C1746 C1748 1.561 . S
C1746 C1749 1.526 . S
C1747 H1731 0.959 . S
C1747 H1732 0.959 . S
C1747 H1733 0.961 . S
C1747 C1746 1.502 . S
C1748 H1734 0.960 . S
C1748 H1735 0.961 . S
C1748 H1736 0.959 . S
C1748 C1746 1.561 . S
C1749 C1746 1.526 . S
C1749 C1750 1.396 . S
C1749 C1754 1.390 . S
C1750 C1744 1.465 . S
C1750 C1749 1.396 . S
C1750 C1751 1.399 . S
C1751 H1737 0.929 . S
C1751 C1750 1.399 . S
C1751 C1752 1.385 . S
C1752 H1738 0.931 . S
C1752 C1751 1.385 . S
C1752 C1753 1.389 . S
C1753 C1752 1.389 . S
C1753 C1754 1.387 . S
C1754 H1739 0.930 . S
C1754 C1749 1.390 . S
C1754 C1753 1.387 . S
H1755 C1767 0.930 . S
H1756 C1769 0.930 . S
H1757 C1770 0.930 . S
H1758 C1774 0.959 . S
H1759 C1774 0.959 . S
H1760 C1774 0.961 . S
H1761 C1775 0.960 . S
H1762 C1775 0.961 . S
H1763 C1775 0.959 . S
H1764 C1778 0.929 . S
H1765 C1779 0.931 . S
H1766 C1781 0.930 . S
C1767 H1755 0.930 . S
C1767 C1768 1.399 . S
C1767 C1772 1.399 . S
C1768 C1767 1.399 . S
C1768 C1769 1.376 . S
C1769 H1756 0.930 . S
C1769 C1768 1.376 . S
C1769 C1770 1.388 . S
C1770 H1757 0.930 . S
C1770 C1769 1.388 . S
C1770 C1771 1.390 . S
C1771 C1770 1.390 . S
C1771 C1772 1.394 . S
C1771 C1777 1.465 . S
C1772 C1767 1.399 . S
C1772 C1771 1.394 . S
C1772 C1773 1.516 . S
C1773 C1772 1.516 . S
C1773 C1774 1.502 . S
C1773 C1775 1.561 . S
C1773 C1776 1.526 . S
C1774 H1758 0.959 . S
C1774 H1759 0.959 . S
C1774 H1760 0.961 . S
C1774 C1773 1.502 . S
C1775 H1761 0.960 . S
C1775 H1762 0.961 . S
C1775 H1763 0.959 . S
C1775 C1773 1.561 . S
C1776 C1773 1.526 . S
C1776 C1777 1.396 . S
C1776 C1781 1.390 . S
C1777 C1771 1.465 . S
C1777 C1776 1.396 . S
C1777 C1778 1.399 . S
C1778 H1764 0.929 . S
C1778 C1777 1.399 . S
C1778 C1779 1.385 . S
C1779 H1765 0.931 . S
C1779 C1778 1.385 . S
C1779 C1780 1.389 . S
C1780 C1779 1.389 . S
C1780 C1781 1.387 . S
C1781 H1766 0.930 . S
C1781 C1776 1.390 . S
C1781 C1780 1.387 . S
H1782 C1794 0.930 . S
H1783 C1796 0.930 . S
H1784 C1797 0.930 . S
H1785 C1801 0.959 . S
H1786 C1801 0.959 . S
H1787 C1801 0.961 . S
H1788 C1802 0.960 . S
H1789 C1802 0.961 . S
H1790 C1802 0.959 . S
H1791 C1805 0.929 . S
H1792 C1806 0.931 . S
H1793 C1808 0.930 . S
C1794 H1782 0.930 . S
C1794 C1795 1.399 . S
C1794 C1799 1.399 . S
C1795 C1794 1.399 . S
C1795 C1796 1.376 . S
C1796 H1783 0.930 . S
C1796 C1795 1.376 . S
C1796 C1797 1.388 . S
C1797 H1784 0.930 . S
C1797 C1796 1.388 . S
C1797 C1798 1.390 . S
C1798 C1797 1.390 . S
C1798 C1799 1.394 . S
C1798 C1804 1.465 . S
C1799 C1794 1.399 . S
C1799 C1798 1.394 . S
C1799 C1800 1.516 . S
C1800 C1799 1.516 . S
C1800 C1801 1.502 . S
C1800 C1802 1.561 . S
C1800 C1803 1.526 . S
C1801 H1785 0.959 . S
C1801 H1786 0.959 . S
C1801 H1787 0.961 . S
C1801 C1800 1.502 . S
C1802 H1788 0.960 . S
C1802 H1789 0.961 . S
C1802 H1790 0.959 . S
C1802 C1800 1.561 . S
C1803 C1800 1.526 . S
C1803 C1804 1.396 . S
C1803 C1808 1.390 . S
C1804 C1798 1.465 . S
C1804 C1803 1.396 . S
C1804 C1805 1.399 . S
C1805 H1791 0.929 . S
C1805 C1804 1.399 . S
C1805 C1806 1.385 . S
C1806 H1792 0.931 . S
C1806 C1805 1.385 . S
C1806 C1807 1.389 . S
C1807 C1806 1.389 . S
C1807 C1808 1.387 . S
C1808 H1793 0.930 . S
C1808 C1803 1.390 . S
C1808 C1807 1.387 . S
C607 N113 1.195 . S
C619 N14 1.223 . S
C634 N146 1.198 . S
C646 N47 1.191 . S
C661 N80 1.245 . S
C673 N179 1.156 . S
C688 C41 2.232 . S
C700 C173 2.226 . S
C715 C107 2.217 . S
C727 C74 2.231 . S
C742 C140 2.224 . S
C754 C8 2.232 . S
C769 N212 1.246 . S
C781 N311 1.162 . S
C796 N344 1.246 . S
C808 N245 1.158 . S
C823 N278 1.212 . S
C835 N377 1.178 . S
C850 C371 2.228 . S
C862 C239 2.231 . S
C877 C305 2.229 . S
C889 C272 2.231 . S
C904 C338 2.223 . S
C916 C206 2.214 . S
C931 N509 1.209 . S
C943 N410 1.209 . S
C958 N443 1.175 . S
C970 N542 1.237 . S
C985 N575 1.234 . S
C997 N476 1.161 . S
C1012 C437 2.225 . S
C1024 C569 2.232 . S
C1039 C503 2.232 . S
C1051 C470 2.221 . S
C1066 C404 2.220 . S
C1078 C536 2.214 . S
C1093 C578 1.457 . S
C1105 C17 1.496 . S
C1120 C50 1.497 . S
C1132 C512 1.457 . S
C1147 C545 1.469 . S
C1159 C83 1.482 . S
C1174 C248 1.453 . S
C1186 C116 1.499 . S
C1201 C149 1.497 . S
C1213 C281 1.455 . S
C1228 C182 1.458 . S
C1240 C215 1.495 . S
C1255 C446 1.465 . S
C1267 C314 1.486 . S
C1282 C479 1.465 . S
C1294 C347 1.490 . S
C1309 C380 1.503 . S
C1321 C413 1.450 . S
C1336 C28 1.952 . S
C1348 C127 1.943 . S
C1363 C160 1.961 . S
C1375 C61 1.949 . S
C1390 C94 1.942 . S
C1402 C193 1.953 . S
C1417 N170 0.536 . S
C1429 N38 0.689 . S
C1444 N71 0.675 . S
C1456 N104 0.738 . S
C1471 N137 0.633 . S
C1483 N5 0.566 . S
C1498 C226 1.945 . S
C1510 C325 1.959 . S
C1525 C358 1.975 . S
C1537 C259 1.950 . S
C1552 C391 1.971 . S
C1564 C292 1.963 . S
C1579 N368 0.536 . S
C1591 N236 0.690 . S
C1606 N302 0.748 . S
C1618 N269 0.560 . S
C1633 N335 0.548 . S
C1645 N203 0.660 . S
C1660 C523 1.958 . S
C1672 C424 1.961 . S
C1687 C556 1.961 . S
C1699 C457 1.965 . S
C1714 C589 1.942 . S
C1726 C490 1.964 . S
C1741 N566 0.671 . S
C1753 N434 0.740 . S
C1768 N500 0.675 . S
C1780 N467 0.543 . S
C1795 N533 0.745 . S
C1807 N401 0.666 . S
