# Generated by pormake.
# Topology smd, (6)-cn, num edge types: 1
# Building blocks:
#     Node 0, Type 0, BuildingBlock: BETDIP_clean_sbu_0, # of connection points: 6
#     Node 1, Type 0, BuildingBlock: BETDIP_clean_sbu_0, # of connection points: 6
#     Node 2, Type 0, BuildingBlock: BETDIP_clean_sbu_0, # of connection points: 6
#     Node 3, Type 0, BuildingBlock: BETDIP_clean_sbu_0, # of connection points: 6
#     Node 4, Type 0, BuildingBlock: BETDIP_clean_sbu_0, # of connection points: 6
#     Node 5, Type 0, BuildingBlock: BETDIP_clean_sbu_0, # of connection points: 6
#     Node 6, Type 0, BuildingBlock: BETDIP_clean_sbu_0, # of connection points: 6
#     Node 7, Type 0, BuildingBlock: BETDIP_clean_sbu_0, # of connection points: 6
#     Node 8, Type 0, BuildingBlock: BETDIP_clean_sbu_0, # of connection points: 6
#     Node 9, Type 0, BuildingBlock: BETDIP_clean_sbu_0, # of connection points: 6
#     Node 10, Type 0, BuildingBlock: BETDIP_clean_sbu_0, # of connection points: 6
#     Node 11, Type 0, BuildingBlock: BETDIP_clean_sbu_0, # of connection points: 6
#     Node 12, Type 0, BuildingBlock: BETDIP_clean_sbu_0, # of connection points: 6
#     Node 13, Type 0, BuildingBlock: BETDIP_clean_sbu_0, # of connection points: 6
#     Node 14, Type 0, BuildingBlock: BETDIP_clean_sbu_0, # of connection points: 6
#     Node 15, Type 0, BuildingBlock: BETDIP_clean_sbu_0, # of connection points: 6
#     Node 16, Type 0, BuildingBlock: BETDIP_clean_sbu_0, # of connection points: 6
#     Node 17, Type 0, BuildingBlock: BETDIP_clean_sbu_0, # of connection points: 6
#     Edge 18, Type (0, 0), BuildingBlock: EZIPEK_clean_linker_0, # of connection points: 2
#     Edge 19, Type (0, 0), BuildingBlock: EZIPEK_clean_linker_0, # of connection points: 2
#     Edge 20, Type (0, 0), BuildingBlock: EZIPEK_clean_linker_0, # of connection points: 2
#     Edge 21, Type (0, 0), BuildingBlock: EZIPEK_clean_linker_0, # of connection points: 2
#     Edge 22, Type (0, 0), BuildingBlock: EZIPEK_clean_linker_0, # of connection points: 2
#     Edge 23, Type (0, 0), BuildingBlock: EZIPEK_clean_linker_0, # of connection points: 2
#     Edge 24, Type (0, 0), BuildingBlock: EZIPEK_clean_linker_0, # of connection points: 2
#     Edge 25, Type (0, 0), BuildingBlock: EZIPEK_clean_linker_0, # of connection points: 2
#     Edge 26, Type (0, 0), BuildingBlock: EZIPEK_clean_linker_0, # of connection points: 2
#     Edge 27, Type (0, 0), BuildingBlock: EZIPEK_clean_linker_0, # of connection points: 2
#     Edge 28, Type (0, 0), BuildingBlock: EZIPEK_clean_linker_0, # of connection points: 2
#     Edge 29, Type (0, 0), BuildingBlock: EZIPEK_clean_linker_0, # of connection points: 2
#     Edge 30, Type (0, 0), BuildingBlock: EZIPEK_clean_linker_0, # of connection points: 2
#     Edge 31, Type (0, 0), BuildingBlock: EZIPEK_clean_linker_0, # of connection points: 2
#     Edge 32, Type (0, 0), BuildingBlock: EZIPEK_clean_linker_0, # of connection points: 2
#     Edge 33, Type (0, 0), BuildingBlock: EZIPEK_clean_linker_0, # of connection points: 2
#     Edge 34, Type (0, 0), BuildingBlock: EZIPEK_clean_linker_0, # of connection points: 2
#     Edge 35, Type (0, 0), BuildingBlock: EZIPEK_clean_linker_0, # of connection points: 2
#     Edge 36, Type (0, 0), BuildingBlock: EZIPEK_clean_linker_0, # of connection points: 2
#     Edge 37, Type (0, 0), BuildingBlock: EZIPEK_clean_linker_0, # of connection points: 2
#     Edge 38, Type (0, 0), BuildingBlock: EZIPEK_clean_linker_0, # of connection points: 2
#     Edge 39, Type (0, 0), BuildingBlock: EZIPEK_clean_linker_0, # of connection points: 2
#     Edge 40, Type (0, 0), BuildingBlock: EZIPEK_clean_linker_0, # of connection points: 2
#     Edge 41, Type (0, 0), BuildingBlock: EZIPEK_clean_linker_0, # of connection points: 2
#     Edge 42, Type (0, 0), BuildingBlock: EZIPEK_clean_linker_0, # of connection points: 2
#     Edge 43, Type (0, 0), BuildingBlock: EZIPEK_clean_linker_0, # of connection points: 2
#     Edge 44, Type (0, 0), BuildingBlock: EZIPEK_clean_linker_0, # of connection points: 2
#     Edge 45, Type (0, 0), BuildingBlock: EZIPEK_clean_linker_0, # of connection points: 2
#     Edge 46, Type (0, 0), BuildingBlock: EZIPEK_clean_linker_0, # of connection points: 2
#     Edge 47, Type (0, 0), BuildingBlock: EZIPEK_clean_linker_0, # of connection points: 2
#     Edge 48, Type (0, 0), BuildingBlock: EZIPEK_clean_linker_0, # of connection points: 2
#     Edge 49, Type (0, 0), BuildingBlock: EZIPEK_clean_linker_0, # of connection points: 2
#     Edge 50, Type (0, 0), BuildingBlock: EZIPEK_clean_linker_0, # of connection points: 2
#     Edge 51, Type (0, 0), BuildingBlock: EZIPEK_clean_linker_0, # of connection points: 2
#     Edge 52, Type (0, 0), BuildingBlock: EZIPEK_clean_linker_0, # of connection points: 2
#     Edge 53, Type (0, 0), BuildingBlock: EZIPEK_clean_linker_0, # of connection points: 2
#     Edge 54, Type (0, 0), BuildingBlock: EZIPEK_clean_linker_0, # of connection points: 2
#     Edge 55, Type (0, 0), BuildingBlock: EZIPEK_clean_linker_0, # of connection points: 2
#     Edge 56, Type (0, 0), BuildingBlock: EZIPEK_clean_linker_0, # of connection points: 2
#     Edge 57, Type (0, 0), BuildingBlock: EZIPEK_clean_linker_0, # of connection points: 2
#     Edge 58, Type (0, 0), BuildingBlock: EZIPEK_clean_linker_0, # of connection points: 2
#     Edge 59, Type (0, 0), BuildingBlock: EZIPEK_clean_linker_0, # of connection points: 2
#     Edge 60, Type (0, 0), BuildingBlock: EZIPEK_clean_linker_0, # of connection points: 2
#     Edge 61, Type (0, 0), BuildingBlock: EZIPEK_clean_linker_0, # of connection points: 2
#     Edge 62, Type (0, 0), BuildingBlock: EZIPEK_clean_linker_0, # of connection points: 2
#     Edge 63, Type (0, 0), BuildingBlock: EZIPEK_clean_linker_0, # of connection points: 2
#     Edge 64, Type (0, 0), BuildingBlock: EZIPEK_clean_linker_0, # of connection points: 2
#     Edge 65, Type (0, 0), BuildingBlock: EZIPEK_clean_linker_0, # of connection points: 2
#     Edge 66, Type (0, 0), BuildingBlock: EZIPEK_clean_linker_0, # of connection points: 2
#     Edge 67, Type (0, 0), BuildingBlock: EZIPEK_clean_linker_0, # of connection points: 2
#     Edge 68, Type (0, 0), BuildingBlock: EZIPEK_clean_linker_0, # of connection points: 2
#     Edge 69, Type (0, 0), BuildingBlock: EZIPEK_clean_linker_0, # of connection points: 2
#     Edge 70, Type (0, 0), BuildingBlock: EZIPEK_clean_linker_0, # of connection points: 2
#     Edge 71, Type (0, 0), BuildingBlock: EZIPEK_clean_linker_0, # of connection points: 2
# Relax obj value: 0.311
# Max RMSD: 0.385
# Mean RMSD: 0.354
data_MOF--net-smd--node1-BETDIP_clean_sbu_0--edge1-EZIPEK_clean_linker_0
_symmetry_space_group_name_H-M    P1
_symmetry_Int_Tables_number       1
_symmetry_cell_setting            triclinic
loop_
_symmetry_equiv_pos_as_xyz
'x, y, z'
_cell_length_a     46.176004
_cell_length_b     46.497643
_cell_length_c     20.612041
_cell_angle_alpha  93.044268
_cell_angle_beta   92.974256
_cell_angle_gamma 119.9338
loop_
_atom_site_label
_atom_site_type_symbol
_atom_site_fract_x
_atom_site_fract_y
_atom_site_fract_z
_atom_type_partial_charge
Tb0 Tb 0.04944 0.27191 0.5985 0.0
Tb1 Tb 1.00744 0.24083 0.48355 0.0
C2 C 0.072 0.29537 0.71566 0.0
C3 C 0.05995 0.29026 0.78145 0.0
C4 C 1.02555 0.27374 0.79052 0.0
C5 C 1.0149 0.26848 0.85358 0.0
C6 C 0.03852 0.27947 0.90831 0.0
C7 C 0.07285 0.29655 0.89917 0.0
C8 C 0.08346 0.30197 0.83628 0.0
C9 C 0.08167 0.25308 0.51902 0.0
C10 C 0.98766 0.19353 0.58778 0.0
C11 C 0.97896 0.2228 0.36849 0.0
C12 C 0.98762 0.23236 0.30172 0.0
C13 C 1.0211 0.24974 0.28622 0.0
C14 C 1.02852 0.25857 0.22259 0.0
C15 C 1.0026 0.24994 0.17332 0.0
C16 C 0.96918 0.23279 0.18893 0.0
C17 C 0.96179 0.22421 0.25263 0.0
C18 C 0.98189 0.26504 0.57544 0.0
C19 C 0.06749 0.31165 0.47222 0.0
O20 O 0.05912 0.30771 0.67577 0.0
O21 O 0.07444 0.2712 0.68634 0.0
O22 O 0.04997 0.23623 0.52603 0.0
O23 O 0.09471 0.28031 0.55711 0.0
O24 O 1.00755 0.22193 0.62578 0.0
O25 O 0.98778 0.19413 0.52446 0.0
O26 O 0.9938 0.20867 0.3976 0.0
O27 O 0.97764 0.24485 0.40806 0.0
O28 O 1.01102 0.27844 0.55656 0.0
O29 O 0.966 0.23632 0.54177 0.0
O30 O 0.04861 0.28178 0.44285 0.0
O31 O 0.06968 0.31549 0.5373 0.0
H32 H 1.007 0.26461 0.74892 0.0
H33 H 0.98829 0.25522 0.85962 0.0
H34 H 0.09143 0.30521 0.94071 0.0
H35 H 0.11009 0.31496 0.8304 0.0
H36 H 0.0415 0.25628 0.323 0.0
H37 H 0.05446 0.27166 0.21148 0.0
H38 H 0.94883 0.22579 0.15163 0.0
H39 H 0.93581 0.21099 0.26351 0.0
Tb40 Tb 0.80199 0.77808 0.47786 0.0
Tb41 Tb 0.79474 0.80721 0.59433 0.0
C42 C 0.79363 0.74606 0.36866 0.0
C43 C 0.79712 0.7537 0.29973 0.0
C44 C 0.77876 0.76683 0.26943 0.0
C45 C 0.78095 0.77247 0.20358 0.0
C46 C 0.80181 0.76554 0.16682 0.0
C47 C 0.82049 0.7528 0.19689 0.0
C48 C 0.81791 0.74663 0.26276 0.0
C49 C 0.86175 0.81299 0.54615 0.0
C50 C 0.81957 0.85465 0.48767 0.0
C51 C 0.79263 0.82712 0.70876 0.0
C52 C 0.79553 0.81654 0.77404 0.0
C53 C 0.82285 0.81276 0.79503 0.0
C54 C 0.82502 0.80287 0.85723 0.0
C55 C 0.79976 0.79625 0.89894 0.0
C56 C 0.77216 0.79932 0.87761 0.0
C57 C 0.77012 0.80948 0.81572 0.0
C58 C 0.74271 0.78604 0.49968 0.0
C59 C 0.78077 0.73485 0.60467 0.0
O60 O 0.77031 0.74869 0.39631 0.0
O61 O 0.82091 0.75816 0.40789 0.0
O62 O 0.8335 0.79474 0.56918 0.0
O63 O 0.85525 0.81444 0.485 0.0
O64 O 0.80661 0.82637 0.44835 0.0
O65 O 0.82432 0.85314 0.55044 0.0
O66 O 0.81973 0.84061 0.67742 0.0
O67 O 0.76594 0.806 0.6707 0.0
O68 O 0.75864 0.77202 0.51798 0.0
O69 O 0.75679 0.81411 0.53561 0.0
O70 O 0.78313 0.76134 0.63547 0.0
O71 O 0.78674 0.73505 0.5416 0.0
H72 H 0.76257 0.7727 0.29639 0.0
H73 H 0.7665 0.78249 0.18128 0.0
H74 H 0.83687 0.74749 0.16926 0.0
H75 H 0.83209 0.73628 0.28484 0.0
H76 H 0.84262 0.81762 0.76368 0.0
H77 H 0.84652 0.8007 0.87313 0.0
H78 H 0.75253 0.79442 0.90938 0.0
H79 H 0.74874 0.81198 0.80045 0.0
Tb80 Tb 0.24995 1.0051 0.56431 0.0
Tb81 Tb 0.26649 0.04862 0.46735 0.0
C82 C 0.2451 0.97945 0.67146 0.0
C83 C 0.25026 0.9886 0.74283 0.0
C84 C 0.23475 1.00452 0.77341 0.0
C85 C 0.24031 1.01282 0.8411 0.0
C86 C 0.26072 1.00458 0.87948 0.0
C87 C 0.27591 0.98844 0.84897 0.0
C88 C 0.27088 0.9807 0.78134 0.0
C89 C 0.20047 0.9756 0.47149 0.0
C90 C 0.23746 0.07036 0.57259 0.0
C91 C 0.27333 0.07348 0.35899 0.0
C92 C 0.27381 0.06301 0.28954 0.0
C93 C 0.2439 0.04382 0.24907 0.0
C94 C 0.24445 0.0331 0.18453 0.0
C95 C 0.27478 0.03978 0.1584 0.0
C96 C 0.3047 0.06318 0.19687 0.0
C97 C 0.30421 0.0737 0.2617 0.0
C98 C 0.31155 0.07159 0.57493 0.0
C99 C 0.27676 0.98737 0.43499 0.0
O100 O 0.27198 0.99153 0.6398 0.0
O101 O 0.22035 0.97994 0.63886 0.0
O102 O 0.21661 1.00717 0.48991 0.0
O103 O 0.21495 0.96196 0.50157 0.0
O104 O 0.2403 0.04691 0.60336 0.0
O105 O 0.24316 0.07322 0.51153 0.0
O106 O 0.24473 0.05748 0.38462 0.0
O107 O 0.29854 0.07903 0.40004 0.0
O108 O 0.29709 0.043 0.54451 0.0
O109 O 0.30364 0.08963 0.54049 0.0
O110 O 0.2782 1.01444 0.41657 0.0
O111 O 0.26796 0.97902 0.49503 0.0
H112 H 0.21875 1.01096 0.74504 0.0
H113 H 0.22827 0.02516 0.86374 0.0
H114 H 0.29154 0.98164 0.87767 0.0
H115 H 0.28291 0.96824 0.75909 0.0
H116 H 0.21987 0.03684 0.2672 0.0
H117 H 0.2206 1.01928 0.15548 0.0
H118 H 0.32894 0.07453 0.17841 0.0
H119 H 0.32782 0.09059 0.28991 0.0
Tb120 Tb 0.05554 0.81766 0.60583 0.0
Tb121 Tb 1.01632 0.78274 0.48396 0.0
C122 C 0.07801 0.83951 0.72257 0.0
C123 C 0.06553 0.82906 0.78731 0.0
C124 C 0.04094 0.83495 0.81225 0.0
C125 C 1.02996 0.8254 0.87383 0.0
C126 C 0.04342 0.80991 0.91177 0.0
C127 C 0.06764 0.80365 0.88678 0.0
C128 C 0.07865 0.81321 0.82534 0.0
C129 C 0.08521 0.79629 0.5198 0.0
C130 C 1.00157 0.74265 0.61365 0.0
C131 C 0.99444 0.74946 0.3741 0.0
C132 C 0.99993 0.75865 0.30605 0.0
C133 C 1.03272 0.77741 0.28694 0.0
C134 C 0.038 0.78506 0.22243 0.0
C135 C 1.01073 0.77454 0.17556 0.0
C136 C 0.97794 0.756 0.19439 0.0
C137 C 0.9726 0.74797 0.25906 0.0
C138 C 0.9899 0.81553 0.5454 0.0
C139 C 0.07207 0.86072 0.49077 0.0
O140 O 0.06282 0.85119 0.68599 0.0
O141 O 0.08503 0.81955 0.68855 0.0
O142 O 0.05579 0.78222 0.53569 0.0
O143 O 0.10053 0.82441 0.55582 0.0
O144 O 1.0211 0.77196 0.64564 0.0
O145 O 0.99604 0.74022 0.54852 0.0
O146 O 1.0208 0.75365 0.40902 0.0
O147 O 0.97711 0.75925 0.40759 0.0
O148 O 1.00287 0.79973 0.57154 0.0
O149 O 0.99379 0.81425 0.48382 0.0
O150 O 0.05808 0.8313 0.45516 0.0
O151 O 0.06769 0.86084 0.5534 0.0
H152 H 1.03026 0.84709 0.78446 0.0
H153 H 1.01121 0.8304 0.89225 0.0
H154 H 0.07831 0.79169 0.91523 0.0
H155 H 0.09763 0.80834 0.8077 0.0
H156 H 0.05446 0.78611 0.32171 0.0
H157 H 0.06347 0.79935 0.20903 0.0
H158 H 0.95653 0.74762 0.15893 0.0
H159 H 0.94716 0.73334 0.27231 0.0
Tb160 Tb 0.26607 0.23984 0.48865 0.0
Tb161 Tb 0.25811 0.27152 0.59681 0.0
C162 C 0.2753 0.22141 0.37804 0.0
C163 C 0.27467 0.2304 0.31017 0.0
C164 C 0.24425 0.21897 0.27163 0.0
C165 C 0.24429 0.22668 0.20688 0.0
C166 C 0.27469 0.24574 0.17939 0.0
C167 C 0.30507 0.25744 0.21781 0.0
C168 C 0.30504 0.24985 0.28255 0.0
C169 C 0.31818 0.26455 0.58523 0.0
C170 C 0.27814 0.30988 0.46885 0.0
C171 C 0.26049 0.29531 0.71154 0.0
C172 C 0.26456 0.28796 0.77907 0.0
C173 C 0.28647 0.27645 0.79762 0.0
C174 C 0.28969 0.26978 0.86231 0.0
C175 C 0.27067 0.27406 0.90898 0.0
C176 C 0.24881 0.28551 0.89022 0.0
C177 C 0.24589 0.29252 0.8259 0.0
C178 C 0.20487 0.25243 0.51354 0.0
C179 C 0.23834 0.19251 0.59026 0.0
O180 O 0.2468 0.20622 0.40426 0.0
O181 O 0.2993 0.24407 0.41924 0.0
O182 O 0.30263 0.27814 0.56223 0.0
O183 O 0.30337 0.23516 0.55426 0.0
O184 O 0.2651 0.27965 0.44113 0.0
O185 O 0.2818 0.31442 0.53397 0.0
O186 O 0.28637 0.30549 0.67758 0.0
O187 O 0.23274 0.27376 0.67711 0.0
O188 O 0.21939 0.23531 0.52425 0.0
O189 O 0.22172 0.28084 0.54771 0.0
O190 O 0.2491 0.22121 0.62758 0.0
O191 O 0.23762 0.19314 0.52714 0.0
H192 H 0.22041 0.20387 0.2912 0.0
H193 H 0.22061 0.21751 0.17793 0.0
H194 H 0.32878 0.27226 0.19751 0.0
H195 H 0.32882 0.25901 0.31098 0.0
H196 H 0.30099 0.27253 0.76225 0.0
H197 H 0.30679 0.26108 0.87591 0.0
H198 H 0.23402 0.28906 0.92551 0.0
H199 H 0.22891 0.30141 0.8126 0.0
Tb200 Tb 0.7956 1.00391 0.60179 0.0
Tb201 Tb 0.80982 0.04319 0.49986 0.0
C202 C 0.77972 0.97527 0.70535 0.0
C203 C 0.7796 0.98411 0.77505 0.0
C204 C 0.80826 1.01008 0.81134 0.0
C205 C 0.80771 1.01682 0.87804 0.0
C206 C 0.7785 0.99791 0.90914 0.0
C207 C 0.74961 0.97257 0.8727 0.0
C208 C 0.7502 0.9657 0.8061 0.0
C209 C 0.74737 0.97774 0.49821 0.0
C210 C 0.78871 0.06615 0.62799 0.0
C211 C 0.81233 0.06529 0.3898 0.0
C212 C 0.80502 0.05276 0.32065 0.0
C213 C 0.78346 1.01881 0.30063 0.0
C214 C 0.77624 1.00777 0.23418 0.0
C215 C 0.79109 0.03052 0.18733 0.0
C216 C 0.81275 0.06437 0.2076 0.0
C217 C 0.81954 0.07542 0.27383 0.0
C218 C 0.86043 0.07626 0.59078 0.0
C219 C 0.8245 0.98053 0.4994 0.0
O220 O 0.80882 0.98558 0.68215 0.0
O221 O 0.75884 0.97851 0.66557 0.0
O222 O 0.76306 1.007 0.52543 0.0
O223 O 0.75958 0.96224 0.52924 0.0
O224 O 0.79761 0.0465 0.65446 0.0
O225 O 0.78756 0.06666 0.56331 0.0
O226 O 0.83761 0.06523 0.42099 0.0
O227 O 0.78656 0.05487 0.42413 0.0
O228 O 0.84492 0.04441 0.57621 0.0
O229 O 0.84633 0.0886 0.55534 0.0
O230 O 0.81656 0.99951 0.464 0.0
O231 O 0.82334 0.98274 0.56247 0.0
H232 H 0.83115 0.02486 0.78848 0.0
H233 H 0.83019 0.03648 0.90566 0.0
H234 H 0.72687 0.95781 0.89606 0.0
H235 H 0.72778 0.9457 0.7789 0.0
H236 H 0.77232 1.00095 0.33626 0.0
H237 H 0.75949 0.98154 0.21929 0.0
H238 H 0.82442 0.08219 0.17205 0.0
H239 H 0.8362 0.10168 0.28854 0.0
Tb240 Tb 0.68011 0.57705 0.79198 0.0
Tb241 Tb 0.72483 0.5964 0.90586 0.0
C242 C 0.65554 0.57274 0.67673 0.0
C243 C 0.66728 0.57942 0.61104 0.0
C244 C 0.70137 0.59325 0.60101 0.0
C245 C 0.71176 0.59854 0.53781 0.0
C246 C 0.68821 0.59029 0.48382 0.0
C247 C 0.65429 0.57759 0.49447 0.0
C248 C 0.64393 0.57207 0.55748 0.0
C249 C 0.65165 0.53064 0.87431 0.0
C250 C 0.74351 0.56316 0.80039 0.0
C251 C 0.75414 0.61296 1.01978 0.0
C252 C 0.74416 0.61051 0.08753 0.0
C253 C 0.72467 0.62398 0.10974 0.0
C254 C 0.71606 0.62164 0.17431 0.0
C255 C 0.72673 0.60579 0.21773 0.0
C256 C 0.74613 0.59235 0.19561 0.0
C257 C 0.75485 0.5948 0.13126 0.0
C258 C 0.74573 0.64029 0.81082 0.0
C259 C 0.66227 0.60286 0.92124 0.0
O260 O 0.66649 0.59877 0.71863 0.0
O261 O 0.65626 0.54813 0.70303 0.0
O262 O 0.68319 0.54651 0.86572 0.0
O263 O 0.63659 0.54077 0.83508 0.0
O264 O 0.72285 0.56918 0.76271 0.0
O265 O 0.74484 0.56793 0.86376 0.0
O266 O 0.74626 0.58502 0.98603 0.0
O267 O 0.74921 0.63295 0.98458 0.0
O268 O 0.71736 0.62412 0.83181 0.0
O269 O 0.76448 0.63303 0.84718 0.0
O270 O 0.6828 0.59491 0.9499 0.0
O271 O 0.6593 0.60163 0.85626 0.0
H272 H 0.71983 0.5997 0.64194 0.0
H273 H 0.73808 0.6086 0.53091 0.0
H274 H 0.63576 0.57141 0.45374 0.0
H275 H 0.61758 0.56182 0.56436 0.0
H276 H 0.71604 0.63629 0.07739 0.0
H277 H 0.70097 0.63207 0.19035 0.0
H278 H 0.75457 0.58 0.22831 0.0
H279 H 0.76999 0.58437 0.11558 0.0
Tb280 Tb 0.48318 0.12071 0.79385 0.0
Tb281 Tb 0.46556 0.14557 0.90207 0.0
C282 C 0.48281 0.09061 0.68656 0.0
C283 C 0.48057 0.09703 0.6166 0.0
C284 C 0.45299 0.07411 0.57318 0.0
C285 C 0.44979 0.08081 0.5083 0.0
C286 C 0.47408 0.11065 0.48541 0.0
C287 C 0.50187 0.13335 0.52824 0.0
C288 C 0.50507 0.12669 0.59301 0.0
C289 C 0.5381 0.15586 0.87398 0.0
C290 C 0.49563 0.19618 0.80301 0.0
C291 C 0.45899 0.16439 1.01529 0.0
C292 C 0.46098 0.15645 0.08434 0.0
C293 C 0.49087 0.17531 0.1256 0.0
C294 C 0.49284 0.1686 0.19083 0.0
C295 C 0.46503 0.14275 0.21665 0.0
C296 C 0.43479 0.1246 0.17633 0.0
C297 C 0.4328 0.13126 0.11098 0.0
C298 C 0.4217 0.12672 0.79184 0.0
C299 C 0.45639 0.07644 0.92032 0.0
O300 O 0.45628 0.08208 0.71783 0.0
O301 O 0.50983 0.11198 0.72284 0.0
O302 O 0.50839 0.13629 0.89067 0.0
O303 O 0.53516 0.15935 0.81268 0.0
O304 O 0.4883 0.16929 0.76354 0.0
O305 O 0.49528 0.19359 0.86581 0.0
O306 O 0.48704 0.1785 0.98709 0.0
O307 O 0.43388 0.14223 0.97493 0.0
O308 O 0.43609 0.11236 0.81587 0.0
O309 O 0.42953 0.15178 0.83416 0.0
O310 O 0.44731 0.09779 0.93884 0.0
O311 O 0.47177 0.08058 0.86502 0.0
H312 H 0.43348 0.0513 0.58978 0.0
H313 H 0.42819 0.06288 0.47611 0.0
H314 H 0.52097 0.15643 0.51161 0.0
H315 H 0.52659 0.14509 0.62478 0.0
H316 H 0.51288 0.19537 0.10745 0.0
H317 H 0.51627 0.18334 0.22108 0.0
H318 H 0.4128 0.10487 0.19524 0.0
H319 H 0.40916 0.11661 0.08136 0.0
Tb320 Tb 0.94237 0.37402 0.8128 0.0
Tb321 Tb 0.91701 0.33555 0.90993 0.0
C322 C 0.96269 0.39347 0.70313 0.0
C323 C 0.95821 0.37978 0.63459 0.0
C324 C 0.98672 0.38868 0.60068 0.0
C325 C 0.98337 0.37866 0.53417 0.0
C326 C 0.9514 0.35979 0.50046 0.0
C327 C 0.92285 0.34984 0.53465 0.0
C328 C 0.92619 0.35963 0.60134 0.0
C329 C 0.92845 0.41081 0.8919 0.0
C330 C 0.863 0.31451 0.80598 0.0
C331 C 0.90432 0.30532 1.0124 0.0
C332 C 0.91305 0.31409 0.08354 0.0
C333 C 0.88818 0.29831 0.12639 0.0
C334 C 0.89601 0.30562 0.19395 0.0
C335 C 0.92889 0.32876 0.21969 0.0
C336 C 0.95389 0.34439 0.17709 0.0
C337 C 0.94603 0.33719 0.10954 0.0
C338 C 0.93929 0.30947 0.81404 0.0
C339 C 0.98426 0.39715 0.95314 0.0
O340 O 0.97811 0.3845 0.74503 0.0
O341 O 0.93733 0.39411 0.72689 0.0
O342 O 0.91027 0.37845 0.88182 0.0
O343 O 0.95425 0.42117 0.85905 0.0
O344 O 0.8899 0.33162 0.77266 0.0
O345 O 0.86751 0.31764 0.86906 0.0
O346 O 0.88479 0.31469 0.98426 0.0
O347 O 0.92878 0.30997 0.97741 0.0
O348 O 0.95343 0.33826 0.84325 0.0
O349 O 0.91018 0.29462 0.83659 0.0
O350 O 0.95567 0.37584 0.97228 0.0
O351 O 0.98673 0.39907 0.88889 0.0
H352 H 1.01164 0.40415 0.62534 0.0
H353 H 1.00566 0.38656 0.50852 0.0
H354 H 0.898 0.33524 0.50929 0.0
H355 H 0.90378 0.35217 0.62634 0.0
H356 H 0.86266 0.28029 0.10754 0.0
H357 H 0.8764 0.2934 0.22619 0.0
H358 H 0.97941 0.36223 0.19615 0.0
H359 H 0.96582 0.34957 0.07782 0.0
Tb360 Tb 0.72769 0.15175 0.93533 0.0
Tb361 Tb 0.68425 0.1167 0.81502 0.0
C362 C 0.75079 0.17411 0.05187 0.0
C363 C 0.73944 0.16321 0.11742 0.0
C364 C 0.71624 0.17003 0.1463 0.0
C365 C 0.70651 0.16039 0.20864 0.0
C366 C 0.71977 0.1438 0.24365 0.0
C367 C 0.7427 0.13673 0.21488 0.0
C368 C 0.75248 0.14639 0.15266 0.0
C369 C 0.7538 0.12864 0.84491 0.0
C370 C 0.67023 0.07823 0.94733 0.0
C371 C 0.66022 0.08317 0.70543 0.0
C372 C 0.66863 0.09146 0.63735 0.0
C373 C 0.70207 0.10628 0.6209 0.0
C374 C 0.70986 0.11396 0.55689 0.0
C375 C 0.68453 0.10737 0.50771 0.0
C376 C 0.65111 0.09242 0.52386 0.0
C377 C 0.64325 0.08445 0.58791 0.0
C378 C 0.66248 0.15261 0.88136 0.0
C379 C 0.74346 0.1929 0.81618 0.0
O380 O 0.73401 0.18453 1.01632 0.0
O381 O 0.75899 0.15542 1.01671 0.0
O382 O 0.72459 0.11564 0.8624 0.0
O383 O 0.7709 0.15606 0.88284 0.0
O384 O 0.69638 0.10528 0.97584 0.0
O385 O 0.66027 0.07636 0.88391 0.0
O386 O 0.68324 0.08243 0.74343 0.0
O387 O 0.64634 0.09783 0.7362 0.0
O388 O 0.67503 0.13592 0.90507 0.0
O389 O 0.66401 0.15021 0.81889 0.0
O390 O 0.7261 0.16335 0.7815 0.0
O391 O 0.74199 0.19465 0.88001 0.0
H392 H 0.70573 0.18303 0.12099 0.0
H393 H 0.6888 0.16613 0.22987 0.0
H394 H 0.75329 0.12399 0.24093 0.0
H395 H 0.7705 0.14085 0.13228 0.0
H396 H 0.72236 0.11211 0.65753 0.0
H397 H 0.73578 0.12539 0.54583 0.0
H398 H 0.63111 0.08701 0.48684 0.0
H399 H 0.61732 0.07291 0.5989 0.0
Tb400 Tb 0.92679 0.60216 0.90855 0.0
Tb401 Tb 0.94621 0.57916 0.80425 0.0
C402 C 0.92199 0.62671 1.01722 0.0
C403 C 0.9294 0.62433 0.08678 0.0
C404 C 0.93025 0.59641 0.10738 0.0
C405 C 0.93631 0.59418 0.17377 0.0
C406 C 0.94192 0.61997 0.2206 0.0
C407 C 0.94196 0.64828 0.19975 0.0
C408 C 0.93553 0.65031 0.13344 0.0
C409 C 0.94799 0.64261 0.80792 0.0
C410 C 0.99319 0.60428 0.93795 0.0
C411 C 0.96185 0.57309 0.69017 0.0
C412 C 0.95846 0.58258 0.62347 0.0
C413 C 0.97688 0.61593 0.60806 0.0
C414 C 0.97526 0.62408 0.54395 0.0
C415 C 0.95536 0.59906 0.49388 0.0
C416 C 0.93673 0.5659 0.50908 0.0
C417 C 0.93836 0.55773 0.57313 0.0
C418 C 0.92979 0.53339 0.88686 0.0
C419 C 0.8687 0.56685 0.8096 0.0
O420 O 0.89745 0.59987 0.98482 0.0
O421 O 0.94787 0.64137 0.9834 0.0
O422 O 0.96108 0.62802 0.83546 0.0
O423 O 0.92192 0.63571 0.83864 0.0
O424 O 0.96497 0.59681 0.96172 0.0
O425 O 0.99374 0.60298 0.87313 0.0
O426 O 0.98117 0.59714 0.7346 0.0
O427 O 0.93485 0.55045 0.71374 0.0
O428 O 0.91438 0.5499 0.87748 0.0
O429 O 0.95397 0.543 0.84961 0.0
O430 O 0.89346 0.57043 0.7731 0.0
O431 O 0.8754 0.57354 0.87243 0.0
H432 H 0.9258 0.57614 0.07226 0.0
H433 H 0.93626 0.57218 0.18877 0.0
H434 H 0.94632 0.66848 0.23498 0.0
H435 H 0.93497 0.67205 0.11863 0.0
H436 H 0.99265 0.63582 0.6454 0.0
H437 H 0.98965 0.64985 0.53332 0.0
H438 H 0.92117 0.54626 0.47111 0.0
H439 H 0.92422 0.53185 0.58315 0.0
Tb440 Tb 0.46808 0.34014 0.9204 0.0
Tb441 Tb 0.47648 0.37842 0.81743 0.0
C442 C 0.46207 0.3137 1.02663 0.0
C443 C 0.45786 0.32099 0.09493 0.0
C444 C 0.47271 0.31215 0.14525 0.0
C445 C 0.4695 0.31902 0.21049 0.0
C446 C 0.45131 0.33479 0.22638 0.0
C447 C 0.4361 0.34337 0.17621 0.0
C448 C 0.43942 0.33661 0.11083 0.0
C449 C 0.41472 0.31338 0.82684 0.0
C450 C 0.46057 0.40255 0.95248 0.0
C451 C 0.47192 0.39793 0.70711 0.0
C452 C 0.46384 0.38465 0.63787 0.0
C453 C 0.44365 0.39229 0.59737 0.0
C454 C 0.43802 0.38253 0.53037 0.0
C455 C 0.45269 0.36512 0.50304 0.0
C456 C 0.47175 0.35629 0.5438 0.0
C457 C 0.47721 0.36587 0.61083 0.0
C458 C 0.53201 0.41086 0.89761 0.0
C459 C 0.4932 0.31738 0.81024 0.0
O460 O 0.49091 0.33394 1.00541 0.0
O461 O 0.43705 0.30604 0.98349 0.0
O462 O 0.43182 0.34295 0.85278 0.0
O463 O 0.42871 0.29799 0.85261 0.0
O464 O 0.46581 0.37974 0.9755 0.0
O465 O 0.46053 0.40495 0.88829 0.0
O466 O 0.44738 0.38511 0.74442 0.0
O467 O 0.49986 0.4024 0.73607 0.0
O468 O 0.51499 0.37902 0.88307 0.0
O469 O 0.5159 0.4236 0.86977 0.0
O470 O 0.4828 0.33523 0.77728 0.0
O471 O 0.49501 0.32018 0.87366 0.0
H472 H 0.487 0.30009 0.13405 0.0
H473 H 0.48149 0.31237 0.24868 0.0
H474 H 0.422 0.35559 0.18773 0.0
H475 H 0.42771 0.34367 0.07288 0.0
H476 H 0.43295 0.40658 0.61733 0.0
H477 H 0.4232 0.38947 0.49953 0.0
H478 H 0.48315 0.34279 0.5234 0.0
H479 H 0.49258 0.35936 0.64111 0.0
Tb480 Tb 0.38934 0.938 0.24747 0.0
Tb481 Tb 0.34874 0.90785 0.13008 0.0
C482 C 0.41243 0.97021 0.35878 0.0
C483 C 0.40402 0.96252 0.42707 0.0
C484 C 0.38824 0.97731 0.46061 0.0
C485 C 0.37886 0.96953 0.5238 0.0
C486 C 0.38523 0.94693 0.55542 0.0
C487 C 0.40175 0.93274 0.5227 0.0
C488 C 0.41092 0.94032 0.45918 0.0
C489 C 0.41369 0.90478 0.1839 0.0
C490 C 0.33191 0.86056 0.23266 0.0
C491 C 0.32151 0.88678 1.0146 0.0
C492 C 0.33031 0.89583 0.94715 0.0
C493 C 0.35981 0.89917 0.92353 0.0
C494 C 0.36743 0.90762 0.85973 0.0
C495 C 0.3456 0.91259 0.81793 0.0
C496 C 0.31602 0.90903 0.84115 0.0
C497 C 0.30852 0.90082 0.90512 0.0
C498 C 0.31995 0.92583 0.22568 0.0
C499 C 0.40846 0.97912 0.11717 0.0
O500 O 0.38963 0.97135 0.32084 0.0
O501 O 0.42592 0.95522 0.32793 0.0
O502 O 0.40168 0.9217 0.15797 0.0
O503 O 0.40869 0.90413 0.24518 0.0
O504 O 0.34635 0.88873 0.27248 0.0
O505 O 0.34069 0.86337 0.17312 0.0
O506 O 0.3376 0.87466 0.04674 0.0
O507 O 0.31751 0.90789 0.05195 0.0
O508 O 0.34893 0.94173 0.20692 0.0
O509 O 0.30475 0.89848 0.18742 0.0
O510 O 0.38083 0.95374 0.08894 0.0
O511 O 0.41764 0.97878 0.18022 0.0
H512 H 0.38272 0.99465 0.43755 0.0
H513 H 0.3663 0.98095 0.5479 0.0
H514 H 0.40719 0.91544 0.54611 0.0
H515 H 0.42315 0.92855 0.43515 0.0
H516 H 0.37705 0.89528 0.95432 0.0
H517 H 0.39035 0.91018 0.84281 0.0
H518 H 0.2988 0.91271 0.80978 0.0
H519 H 0.28554 0.89826 0.92178 0.0
Tb520 Tb 0.15678 0.46001 0.16522 0.0
Tb521 Tb 0.13884 0.48547 0.27603 0.0
C522 C 0.15668 0.42875 0.05981 0.0
C523 C 0.1554 0.43355 0.98898 0.0
C524 C 0.13358 0.40637 0.94397 0.0
C525 C 0.12983 0.41078 0.87775 0.0
C526 C 0.14801 0.44249 0.85494 0.0
C527 C 0.17041 0.46955 0.89965 0.0
C528 C 0.17405 0.46517 0.9659 0.0
C529 C 0.21029 0.49406 0.25007 0.0
C530 C 0.16856 0.53531 0.17472 0.0
C531 C 0.13233 0.50181 0.3907 0.0
C532 C 0.1334 0.48997 0.4565 0.0
C533 C 0.16419 0.49982 0.49258 0.0
C534 C 0.16505 0.49001 0.55558 0.0
C535 C 0.13521 0.47017 0.58433 0.0
C536 C 0.10441 0.45972 0.54812 0.0
C537 C 0.10352 0.46962 0.4851 0.0
C538 C 0.0951 0.46546 0.16615 0.0
C539 C 0.12611 0.4145 0.28759 0.0
O540 O 0.12987 0.42215 0.08852 0.0
O541 O 0.18369 0.44987 0.09672 0.0
O542 O 0.18011 0.47454 0.26357 0.0
O543 O 0.20891 0.49757 0.18845 0.0
O544 O 0.16191 0.50857 0.13545 0.0
O545 O 0.16804 0.53315 0.23782 0.0
O546 O 0.16057 0.51664 0.36307 0.0
O547 O 0.10694 0.4818 0.3485 0.0
O548 O 0.11045 0.4521 0.19012 0.0
O549 O 0.10147 0.48996 0.2089 0.0
O550 O 0.12115 0.4379 0.31182 0.0
O551 O 0.14056 0.41764 0.23123 0.0
H552 H 0.11873 0.38178 0.96037 0.0
H553 H 0.11229 0.38954 0.84447 0.0
H554 H 0.18466 0.49424 0.88338 0.0
H555 H 0.19083 0.48668 0.99932 0.0
H556 H 0.18775 0.5155 0.47256 0.0
H557 H 0.1891 0.49835 0.58242 0.0
H558 H 0.08104 0.44436 0.56911 0.0
H559 H 0.07937 0.46165 0.45905 0.0
Tb560 Tb 0.59482 0.67979 0.26106 0.0
Tb561 Tb 0.60284 0.71751 0.15262 0.0
C562 C 0.60235 0.65557 0.36355 0.0
C563 C 0.59828 0.65982 0.43385 0.0
C564 C 0.61722 0.69121 0.46979 0.0
C565 C 0.61474 0.69486 0.53663 0.0
C566 C 0.59314 0.66737 0.56915 0.0
C567 C 0.57384 0.63606 0.53355 0.0
C568 C 0.57659 0.63228 0.46649 0.0
C569 C 0.53547 0.65702 0.19428 0.0
C570 C 0.57804 0.73925 0.26743 0.0
C571 C 0.60695 0.74107 0.04421 0.0
C572 C 0.60287 0.7276 0.97555 0.0
C573 C 0.57645 0.69558 0.95254 0.0
C574 C 0.57334 0.68329 0.88743 0.0
C575 C 0.59682 0.70261 0.84465 0.0
C576 C 0.62347 0.73432 0.86784 0.0
C577 C 0.62641 0.74673 0.9327 0.0
C578 C 0.65488 0.74594 0.24927 0.0
C579 C 0.6143 0.65805 0.12421 0.0
O580 O 0.6259 0.68161 0.33997 0.0
O581 O 0.57542 0.64032 0.32276 0.0
O582 O 0.56358 0.66659 0.17014 0.0
O583 O 0.54182 0.66389 0.25676 0.0
O584 O 0.59161 0.72432 0.30106 0.0
O585 O 0.57273 0.73285 0.20388 0.0
O586 O 0.57993 0.72914 0.07582 0.0
O587 O 0.63279 0.74411 0.07972 0.0
O588 O 0.63809 0.7164 0.22408 0.0
O589 O 0.64177 0.76108 0.21932 0.0
O590 O 0.60978 0.68086 0.09932 0.0
O591 O 0.61087 0.65331 0.18771 0.0
H592 H 0.63417 0.71308 0.44654 0.0
H593 H 0.62966 0.71925 0.5631 0.0
H594 H 0.55685 0.61459 0.55777 0.0
H595 H 0.56189 0.60783 0.44019 0.0
H596 H 0.5582 0.68008 0.98475 0.0
H597 H 0.55261 0.65877 0.87033 0.0
H598 H 0.64176 0.74959 0.83545 0.0
H599 H 0.64712 0.77133 0.94946 0.0
Tb600 Tb 0.39233 0.47704 0.26961 0.0
Tb601 Tb 0.34793 0.45477 0.15281 0.0
C602 C 0.41634 0.49071 0.38736 0.0
C603 C 0.40321 0.47903 0.45159 0.0
C604 C 0.39524 0.49859 0.49321 0.0
C605 C 0.3839 0.4887 0.55444 0.0
C606 C 0.38042 0.45907 0.57612 0.0
C607 C 0.38827 0.43933 0.53482 0.0
C608 C 0.39948 0.44914 0.47321 0.0
C609 C 0.41577 0.45977 0.16365 0.0
C610 C 0.33047 0.40731 0.27395 0.0
C611 C 0.31571 0.42545 0.04264 0.0
C612 C 0.32254 0.4276 0.97212 0.0
C613 C 0.33296 0.40693 0.94132 0.0
C614 C 0.3401 0.40925 0.87575 0.0
C615 C 0.33749 0.43268 0.83935 0.0
C616 C 0.32602 0.45261 0.86907 0.0
C617 C 0.31853 0.45004 0.93453 0.0
C618 C 0.33153 0.48938 0.23395 0.0
C619 C 0.41187 0.5298 0.17382 0.0
O620 O 0.40476 0.50757 0.35732 0.0
O621 O 0.41926 0.46991 0.34657 0.0
O622 O 0.3866 0.44578 0.18167 0.0
O623 O 0.4341 0.48303 0.20998 0.0
O624 O 0.36038 0.42879 0.30043 0.0
O625 O 0.31902 0.41256 0.21707 0.0
O626 O 0.33118 0.41463 0.08002 0.0
O627 O 0.31493 0.45031 0.07297 0.0
O628 O 0.34077 0.46857 0.24941 0.0
O629 O 0.33459 0.49262 0.17248 0.0
O630 O 0.39265 0.50362 0.13086 0.0
O631 O 0.41026 0.52588 0.23621 0.0
H632 H 0.39806 0.52184 0.47867 0.0
H633 H 0.37826 0.50447 0.58548 0.0
H634 H 0.38601 0.41648 0.55054 0.0
H635 H 0.40552 0.43346 0.44289 0.0
H636 H 0.33673 0.38968 0.96858 0.0
H637 H 0.34891 0.3936 0.8541 0.0
H638 H 0.32363 0.47077 0.84197 0.0
H639 H 0.31012 0.46607 0.95595 0.0
Tb640 Tb 0.60525 0.90692 0.15593 0.0
Tb641 Tb 0.60033 0.94006 0.27278 0.0
C642 C 0.6074 0.88546 0.04212 0.0
C643 C 0.60392 0.89369 0.97476 0.0
C644 C 0.59268 0.91601 0.96123 0.0
C645 C 0.59161 0.92501 0.89767 0.0
C646 C 0.6011 0.91134 0.84623 0.0
C647 C 0.61175 0.88856 0.8596 0.0
C648 C 0.61335 0.88 0.92335 0.0
C649 C 0.65929 0.93228 0.24761 0.0
C650 C 0.62108 0.9795 0.14251 0.0
C651 C 0.60944 0.97207 0.38228 0.0
C652 C 0.60069 0.96235 0.44885 0.0
C653 C 0.58893 0.92926 0.46309 0.0
C654 C 0.58703 0.92119 0.52786 0.0
C655 C 0.59698 0.94606 0.57954 0.0
C656 C 0.60736 0.97887 0.56536 0.0
C657 C 0.60905 0.9869 0.50047 0.0
C658 C 0.53989 0.90387 0.20505 0.0
C659 C 0.58238 0.86337 0.26824 0.0
O660 O 0.58038 0.87249 0.07371 0.0
O661 O 0.63374 0.90813 0.07898 0.0
O662 O 0.64209 0.94475 0.22828 0.0
O663 O 0.64528 0.90325 0.21509 0.0
O664 O 0.61025 0.94998 0.11262 0.0
O665 O 0.6211 0.98274 0.20768 0.0
O666 O 0.63022 0.96364 0.35965 0.0
O667 O 0.58525 0.96595 0.33791 0.0
O668 O 0.56816 0.92113 0.18203 0.0
O669 O 0.54637 0.90517 0.26724 0.0
O670 O 0.596 0.8925 0.30465 0.0
O671 O 0.57629 0.86276 0.2051 0.0
H672 H 0.58477 0.92658 0.99953 0.0
H673 H 0.58328 0.94259 0.88852 0.0
H674 H 0.61914 0.87767 0.82071 0.0
H675 H 0.62216 0.86281 0.93259 0.0
H676 H 0.58259 0.90992 0.42422 0.0
H677 H 0.57892 0.89574 0.53778 0.0
H678 H 0.61501 0.9984 0.60454 0.0
H679 H 0.61801 1.01249 0.49087 0.0
Tb680 Tb 0.13523 0.67572 0.28007 0.0
Tb681 Tb 0.14672 0.71544 0.17713 0.0
C682 C 0.12365 0.64689 0.38407 0.0
C683 C 0.12317 0.65489 0.45402 0.0
C684 C 0.11528 0.67912 0.47567 0.0
C685 C 0.1149 0.68616 0.54235 0.0
C686 C 0.12243 0.66905 0.5882 0.0
C687 C 0.13006 0.64467 0.56663 0.0
C688 C 0.13042 0.63764 0.49996 0.0
C689 C 0.0863 0.64856 0.17767 0.0
C690 C 0.1256 0.73684 0.3067 0.0
C691 C 0.14612 0.73739 0.06769 0.0
C692 C 0.13917 0.72523 0.99831 0.0
C693 C 0.12598 0.69136 0.97802 0.0
C694 C 0.12081 0.68075 0.91141 0.0
C695 C 0.12872 0.70392 0.86471 0.0
C696 C 0.14095 0.73756 0.88521 0.0
C697 C 0.14616 0.74813 0.9516 0.0
C698 C 0.19987 0.74714 0.2646 0.0
C699 C 0.16501 0.65542 0.17453 0.0
O700 O 0.15295 0.66113 0.36079 0.0
O701 O 0.10061 0.64689 0.34458 0.0
O702 O 0.10147 0.67775 0.20544 0.0
O703 O 0.09921 0.63346 0.20812 0.0
O704 O 0.13523 0.71751 0.33253 0.0
O705 O 0.12452 0.738 0.2423 0.0
O706 O 0.12057 0.72461 0.10255 0.0
O707 O 0.17276 0.73962 0.09796 0.0
O708 O 0.18302 0.71557 0.24833 0.0
O709 O 0.18413 0.7599 0.23534 0.0
O710 O 0.15505 0.67309 0.13958 0.0
O711 O 0.16454 0.65739 0.23775 0.0
H712 H 0.10953 0.69265 0.44122 0.0
H713 H 0.1091 0.70515 0.55827 0.0
H714 H 0.13603 0.63133 0.60148 0.0
H715 H 0.13646 0.61879 0.48424 0.0
H716 H 0.12016 0.67333 1.01358 0.0
H717 H 0.11137 0.65469 0.89631 0.0
H718 H 0.14717 0.75571 0.84977 0.0
H719 H 0.15613 0.77431 0.96653 0.0
C720 C 0.13229 0.39037 0.39291 0.0
C721 C 0.11534 0.38557 0.32951 0.0
C722 C 0.06563 0.33832 0.3685 0.0
C723 C 0.08417 0.33967 0.42757 0.0
N724 N 0.13851 0.36449 0.488 0.0
N725 N 0.06667 0.35076 0.25531 0.0
C726 C 0.11853 0.36492 0.43741 0.0
C727 C 0.08248 0.35784 0.31667 0.0
N728 N 0.16064 0.42001 0.41271 0.0
N729 N 1.03138 0.32033 0.36366 0.0
H730 H 0.07809 0.36478 0.21676 0.0
H731 H 0.04377 0.3292 0.24171 0.0
H732 H 1.01797 0.30893 0.40285 0.0
H733 H 1.01643 0.3205 0.32423 0.0
H734 H 0.17199 0.42595 0.4603 0.0
H735 H 0.1709 0.43988 0.3838 0.0
H736 H 0.16444 0.3804 0.49342 0.0
H737 H 0.12965 0.34643 0.52111 0.0
C738 C 0.70506 0.79563 0.41509 0.0
C739 C 0.71704 0.77489 0.43931 0.0
C740 C 0.69164 0.73792 0.33681 0.0
C741 C 0.67948 0.75831 0.3117 0.0
N742 N 0.6861 0.81332 0.32118 0.0
N743 N 0.70464 0.71789 0.43346 0.0
C744 C 0.68928 0.78903 0.34935 0.0
C745 C 0.70538 0.74362 0.40317 0.0
N746 N 0.70608 0.82014 0.45638 0.0
N747 N 0.69235 0.71413 0.29632 0.0
H748 H 0.71085 0.71959 0.48336 0.0
H749 H 0.69347 0.69372 0.41081 0.0
H750 H 0.68606 0.71125 0.24629 0.0
H751 H 0.70364 0.70063 0.31106 0.0
H752 H 0.69493 0.83401 0.44414 0.0
H753 H 0.71345 0.82334 0.506 0.0
H754 H 0.69496 0.83696 0.34424 0.0
H755 H 0.67896 0.81188 0.27197 0.0
C756 C 0.29453 0.9436 0.39534 0.0
C757 C 0.28408 0.96712 0.38249 0.0
C758 C 0.29743 0.96335 0.2673 0.0
C759 C 0.30538 0.93825 0.27879 0.0
N760 N 0.29648 0.8955 0.34938 0.0
N761 N 0.26064 0.98402 0.29428 0.0
C762 C 0.29961 0.92573 0.34165 0.0
C763 C 0.28139 0.97275 0.31504 0.0
N764 N 0.30012 0.93817 0.45788 0.0
N765 N 0.30377 0.9776 0.20968 0.0
H766 H 0.24387 0.98601 0.32346 0.0
H767 H 0.25615 0.98607 0.24536 0.0
H768 H 0.31368 0.97036 0.17201 0.0
H769 H 0.30126 0.99821 0.20176 0.0
H770 H 0.31002 0.92303 0.46919 0.0
H771 H 0.29804 0.95108 0.49842 0.0
H772 H 0.29025 0.88398 0.3926 0.0
H773 H 0.29423 0.87992 0.30911 0.0
C774 C 0.37341 0.09752 0.61626 0.0
C775 C 0.3397 0.08463 0.63051 0.0
C776 C 0.35964 0.09964 0.74908 0.0
C777 C 0.39345 0.11186 0.73559 0.0
N778 N 0.43222 0.12337 0.65346 0.0
N779 N 0.30091 0.06458 0.71298 0.0
C780 C 0.40004 0.1106 0.6683 0.0
C781 C 0.33297 0.08346 0.69758 0.0
N782 N 0.37978 0.09543 0.55257 0.0
N783 N 0.35266 0.10349 0.81152 0.0
H784 H 0.28136 0.05032 0.67764 0.0
H785 H 0.29437 0.06032 0.76047 0.0
H786 H 0.3705 0.1122 0.85157 0.0
H787 H 0.32958 0.10021 0.82318 0.0
H788 H 0.40277 0.10032 0.53753 0.0
H789 H 0.36128 0.08677 0.51362 0.0
H790 H 0.44032 0.12986 0.60762 0.0
H791 H 0.45139 0.12914 0.68859 0.0
C792 C 0.93072 0.26488 0.72132 0.0
C793 C 0.95142 0.29704 0.7556 0.0
C794 C 0.99046 0.30974 0.66797 0.0
C795 C 0.96969 0.27758 0.63359 0.0
N796 N 0.91271 0.23123 0.61772 0.0
N797 N 1.00846 0.34299 0.77208 0.0
C798 C 0.93779 0.25702 0.65756 0.0
C799 C 0.98333 0.31757 0.7317 0.0
N800 N 0.90576 0.24029 0.75168 0.0
N801 N 1.01562 0.33425 0.63781 0.0
H802 H 1.00611 0.34707 0.82114 0.0
H803 H 0.03308 0.35663 0.75977 0.0
H804 H 1.01932 0.33125 0.58909 0.0
H805 H 1.02957 0.35889 0.65801 0.0
H806 H 0.89203 0.21565 0.73164 0.0
H807 H 0.90213 0.24305 0.80048 0.0
H808 H 0.88817 0.21751 0.63037 0.0
H809 H 0.91463 0.22688 0.56859 0.0
C810 C 0.73875 0.6907 0.6704 0.0
C811 C 0.77066 0.70528 0.64552 0.0
C812 C 0.78597 0.67476 0.72351 0.0
C813 C 0.75529 0.66353 0.75447 0.0
N814 N 0.70833 0.6727 0.76568 0.0
N815 N 0.82717 0.71586 0.65888 0.0
C816 C 0.73315 0.67454 0.72979 0.0
C817 C 0.79488 0.69844 0.6749 0.0
N818 N 0.71358 0.69296 0.63778 0.0
N819 N 0.80691 0.66289 0.73904 0.0
H820 H 0.83432 0.7327 0.62342 0.0
H821 H 0.84717 0.71568 0.68428 0.0
H822 H 0.80271 0.64605 0.77337 0.0
H823 H 0.82729 0.66745 0.71297 0.0
H824 H 0.68887 0.68032 0.64977 0.0
H825 H 0.71684 0.70459 0.59465 0.0
H826 H 0.69371 0.68315 0.7527 0.0
H827 H 0.70551 0.66553 0.81283 0.0
C828 C 1.00942 0.71488 0.711 0.0
C829 C 0.98841 0.71313 0.65551 0.0
C830 C 0.94502 0.65963 0.69063 0.0
C831 C 0.96243 0.66626 0.75398 0.0
N832 N 1.01281 0.70307 0.82342 0.0
N833 N 0.93347 0.68231 0.59617 0.0
C834 C 0.99517 0.69472 0.76367 0.0
C835 C 0.95538 0.68512 0.6464 0.0
N836 N 0.04346 0.73449 0.71195 0.0
N837 N 0.92121 0.62792 0.66885 0.0
H838 H 0.93984 0.69949 0.56163 0.0
H839 H 0.90819 0.66386 0.59192 0.0
H840 H 0.91723 0.60807 0.69514 0.0
H841 H 0.90967 0.62107 0.62134 0.0
H842 H 0.06011 0.73463 0.74826 0.0
H843 H 0.0551 0.74705 0.67208 0.0
H844 H 0.03555 0.7252 0.83481 0.0
H845 H 1.00313 0.68954 0.86328 0.0
C846 C 0.35573 0.25729 0.67426 0.0
C847 C 0.34486 0.27793 0.6449 0.0
C848 C 0.37602 0.32031 0.73985 0.0
C849 C 0.38733 0.2999 0.76841 0.0
N850 N 0.37315 0.24267 0.77414 0.0
N851 N 0.35758 0.33492 0.64116 0.0
C852 C 0.37303 0.26662 0.73876 0.0
C853 C 0.35852 0.31103 0.67547 0.0
N854 N 0.35221 0.22985 0.63902 0.0
N855 N 0.37898 0.34719 0.77628 0.0
H856 H 0.34907 0.33082 0.59194 0.0
H857 H 0.3698 0.36002 0.65861 0.0
H858 H 0.3879 0.35286 0.82539 0.0
H859 H 0.36814 0.36092 0.76061 0.0
H860 H 0.36213 0.21555 0.65595 0.0
H861 H 0.34428 0.2242 0.58956 0.0
H862 H 0.3606 0.21748 0.75737 0.0
H863 H 0.3811 0.24684 0.82363 0.0
C864 C 0.79176 0.13432 0.75018 0.0
C865 C 0.76476 0.11423 0.78848 0.0
C866 C 0.75024 0.06533 0.71083 0.0
C867 C 0.77759 0.08461 0.67425 0.0
N868 N 0.82237 0.13825 0.65392 0.0
N869 N 0.72755 0.05815 0.81537 0.0
C870 C 0.79784 0.1194 0.69268 0.0
C871 C 0.74647 0.07911 0.77123 0.0
N872 N 0.81272 0.16725 0.77017 0.0
N873 N 0.72704 0.03353 0.6869 0.0
H874 H 0.72719 0.0664 0.86312 0.0
H875 H 0.71621 0.03231 0.80801 0.0
H876 H 0.72868 0.02267 0.64261 0.0
H877 H 0.70435 1.01966 0.70702 0.0
H878 H 0.8346 0.18269 0.74927 0.0
H879 H 0.80937 0.17968 0.80968 0.0
H880 H 0.83684 0.16407 0.6596 0.0
H881 H 0.82683 0.1279 0.61223 0.0
C882 C 0.69724 0.97772 0.34011 0.0
C883 C 0.68582 0.94574 0.30693 0.0
C884 C 0.71431 0.93403 0.3989 0.0
C885 C 0.72367 0.96518 0.43458 0.0
N886 N 0.71235 1.01062 0.44404 0.0
N887 N 0.69948 0.90233 0.29292 0.0
C888 C 0.71209 0.98544 0.4063 0.0
C889 C 0.69905 0.92646 0.33284 0.0
N890 N 0.69635 1.00197 0.307 0.0
N891 N 0.71731 0.91011 0.42914 0.0
H892 H 0.69209 0.89842 0.24318 0.0
H893 H 0.71203 0.8899 0.30645 0.0
H894 H 0.72273 0.91142 0.47907 0.0
H895 H 0.70959 0.88662 0.40655 0.0
H896 H 0.70753 0.02669 0.32649 0.0
H897 H 0.68907 0.99861 0.2572 0.0
H898 H 0.70172 0.02432 0.42733 0.0
H899 H 0.71848 1.01464 0.49427 0.0
C900 C 0.12283 0.80369 0.42411 0.0
C901 C 0.09754 0.78277 0.46461 0.0
C902 C 0.08592 0.73426 0.38873 0.0
C903 C 0.11343 0.7543 0.35299 0.0
N904 N 0.16103 0.80817 0.34244 0.0
N905 N 0.06314 0.72635 0.49345 0.0
C906 C 0.13265 0.78909 0.37224 0.0
C907 C 0.08137 0.74756 0.44896 0.0
N908 N 0.13713 0.83748 0.43344 0.0
N909 N 0.06377 0.70213 0.36489 0.0
H910 H 0.06184 0.73452 0.54069 0.0
H911 H 0.0532 0.70065 0.48667 0.0
H912 H 0.06613 0.69176 0.32072 0.0
H913 H 0.04142 0.68719 0.38536 0.0
H914 H 0.15269 0.85361 0.40126 0.0
H915 H 0.13174 0.84958 0.47052 0.0
H916 H 0.17873 0.83265 0.3593 0.0
H917 H 0.16789 0.7987 0.30292 0.0
C918 C 0.28807 0.37892 0.35796 0.0
C919 C 0.31095 0.37835 0.31451 0.0
C920 C 0.31729 0.33924 0.38304 0.0
C921 C 0.29226 0.33744 0.42305 0.0
N922 N 0.25024 0.35228 0.44189 0.0
N923 N 0.34296 0.35333 0.2806 0.0
C924 C 0.2766 0.35635 0.40848 0.0
C925 C 0.32399 0.35688 0.32561 0.0
N926 N 0.27847 0.40216 0.35303 0.0
N927 N 0.33584 0.32509 0.40164 0.0
H928 H 0.34808 0.36572 0.23821 0.0
H929 H 0.35063 0.33574 0.28167 0.0
H930 H 0.33268 0.31327 0.44451 0.0
H931 H 0.35657 0.32805 0.37861 0.0
H932 H 0.26504 0.40667 0.38722 0.0
H933 H 0.2859 0.41844 0.31653 0.0
H934 H 0.23517 0.36222 0.42899 0.0
H935 H 0.24227 0.33716 0.48031 0.0
C936 C 1.00698 0.42521 0.07089 0.0
C937 C 1.01297 0.41687 1.00635 0.0
C938 C 0.07288 0.44407 0.04474 0.0
C939 C 0.06682 0.44924 0.11066 0.0
N940 N 1.02527 0.43689 0.1869 0.0
N941 N 0.05164 0.40947 0.94291 0.0
C942 C 0.03304 0.43763 0.12366 0.0
C943 C 0.04589 0.42398 0.99634 0.0
N944 N 0.97673 0.42215 0.08279 0.0
N945 N 0.10452 0.45896 1.02626 0.0
H946 H 1.03276 0.39195 0.90897 0.0
H947 H 0.07478 0.41142 0.93698 0.0
H948 H 0.12531 0.47114 0.05907 0.0
H949 H 0.10963 0.46071 0.97751 0.0
H950 H 0.97285 0.43181 0.1261 0.0
H951 H 0.95626 0.41329 0.04837 0.0
H952 H 1.00074 0.42498 0.20009 0.0
H953 H 0.04318 0.44509 0.22679 0.0
C954 C 0.66779 0.64997 0.99702 0.0
C955 C 0.6469 0.61722 0.9663 0.0
C956 C 0.60394 0.60978 0.0414 0.0
C957 C 0.62655 0.64093 0.07745 0.0
N958 N 0.68199 0.6892 0.09215 0.0
N959 N 0.59642 0.56409 0.96562 0.0
C960 C 0.65906 0.66048 0.05579 0.0
C961 C 0.61539 0.59656 0.99056 0.0
N962 N 0.69587 0.67155 0.96891 0.0
N963 N 0.57093 0.59366 0.05288 0.0
H964 H 0.60318 0.55424 0.92648 0.0
H965 H 0.57519 0.54665 0.98624 0.0
H966 H 0.5617 0.60339 0.08728 0.0
H967 H 0.55247 0.57263 1.02427 0.0
H968 H 0.70976 0.69698 0.98332 0.0
H969 H 0.70341 0.66458 0.927 0.0
H970 H 0.70716 0.70286 0.0834 0.0
H971 H 0.67646 0.69788 0.13468 0.0
C972 C 0.44065 1.01727 0.95496 0.0
C973 C 0.45277 0.05172 0.97076 0.0
C974 C 0.44339 0.04017 0.08738 0.0
C975 C 0.42959 1.00552 0.07134 0.0
N976 N 0.42806 0.96399 0.99362 0.0
N977 N 0.47959 0.09623 0.05695 0.0
C978 C 0.43224 0.99503 1.00614 0.0
C979 C 0.4584 0.06316 0.03866 0.0
N980 N 0.43629 1.00534 0.89122 0.0
N981 N 0.44119 0.05136 0.14835 0.0
H982 H 0.49312 0.1132 1.0238 0.0
H983 H 0.48698 0.10601 0.10528 0.0
H984 H 0.43059 0.03578 0.18517 0.0
H985 H 0.448 0.07593 0.16106 0.0
H986 H 0.42447 0.98006 0.87577 0.0
H987 H 0.44303 1.02073 0.85326 0.0
H988 H 0.4333 0.95599 0.94995 0.0
H989 H 0.42307 0.94756 1.02953 0.0
C990 C 0.63855 0.05676 0.04864 0.0
C991 C 0.65241 0.05078 0.99222 0.0
C992 C 0.65378 1.00528 0.04597 0.0
C993 C 0.63548 1.00786 0.09784 0.0
N994 N 0.60717 0.0349 0.14289 0.0
N995 N 0.66733 1.01466 0.93388 0.0
C996 C 0.62701 0.03336 0.09767 0.0
C997 C 0.65781 0.02334 0.98975 0.0
N998 N 0.63714 0.08537 0.05659 0.0
N999 N 0.6693 0.98695 0.05225 0.0
H1000 H 0.67016 0.02713 0.89204 0.0
H1001 H 0.66885 0.9931 0.92702 0.0
H1002 H 0.67014 0.97642 0.09527 0.0
H1003 H 0.68498 0.98595 1.01875 0.0
H1004 H 0.63146 0.09328 0.09988 0.0
H1005 H 0.64385 0.1024 1.02148 0.0
H1006 H 0.59674 0.05022 0.14063 0.0
H1007 H 0.59947 1.01935 0.18051 0.0
C1008 C 0.05107 0.60415 0.07888 0.0
C1009 C 0.06213 0.63596 0.11444 0.0
C1010 C 0.03462 0.64907 1.02288 0.0
C1011 C 1.02348 0.61769 0.98804 0.0
N1012 N 1.02587 0.56758 0.97732 0.0
N1013 N 0.04983 0.68066 0.12804 0.0
C1014 C 0.03331 0.596 1.01454 0.0
C1015 C 0.0502 0.6564 0.08824 0.0
N1016 N 0.05412 0.58013 0.10879 0.0
N1017 N 1.03045 0.67235 0.99284 0.0
H1018 H 0.05569 0.68375 0.17829 0.0
H1019 H 0.03874 0.6943 0.11322 0.0
H1020 H 1.01937 0.66765 0.94523 0.0
H1021 H 0.04141 0.6971 1.01205 0.0
H1022 H 0.04444 0.55585 0.08819 0.0
H1023 H 0.06241 0.58262 0.1576 0.0
H1024 H 0.035 0.55188 0.98889 0.0
H1025 H 1.01294 0.56141 0.93104 0.0
C1026 C 0.4509 0.43518 0.12144 0.0
C1027 C 0.42818 0.44665 0.10753 0.0
C1028 C 0.43259 0.43706 0.98813 0.0
C1029 C 0.45398 0.42398 1.00274 0.0
N1030 N 0.49457 0.4258 0.08383 0.0
N1031 N 0.40022 0.46154 1.02572 0.0
C1032 C 0.46625 0.42743 0.06969 0.0
C1033 C 0.41995 0.44839 0.04023 0.0
N1034 N 0.45712 0.43042 0.18432 0.0
N1035 N 0.42384 0.43853 0.92457 0.0
H1036 H 0.3846 0.46237 0.05857 0.0
H1037 H 0.39897 0.47116 0.98193 0.0
H1038 H 0.43569 0.43566 0.88548 0.0
H1039 H 0.40572 0.44426 0.90955 0.0
H1040 H 0.47056 0.41874 0.19692 0.0
H1041 H 0.44611 0.43513 0.22333 0.0
H1042 H 0.5067 0.43088 0.13055 0.0
H1043 H 0.50858 0.42416 0.04741 0.0
C1044 C 0.12701 0.25483 0.45149 0.0
C1045 C 0.10502 0.24006 0.50107 0.0
C1046 C 0.14446 0.22289 0.54699 0.0
C1047 C 0.16737 0.23942 0.49957 0.0
N1048 N 0.17639 0.26371 0.39763 0.0
N1049 N 0.08894 0.20267 0.58549 0.0
C1050 C 0.15702 0.25272 0.44867 0.0
C1051 C 0.11242 0.22141 0.54489 0.0
N1052 N 0.11986 0.27232 0.40863 0.0
N1053 N 0.15423 0.21054 0.59692 0.0
H1054 H 0.06577 0.2014 0.58544 0.0
H1055 H 0.09097 0.18604 0.61462 0.0
H1056 H 0.1764 0.20977 0.5987 0.0
H1057 H 0.1412 0.20236 0.63801 0.0
H1058 H 0.13646 0.28755 0.37669 0.0
H1059 H 0.09723 0.27229 0.40659 0.0
H1060 H 0.16967 0.2715 0.35598 0.0
H1061 H 0.19809 0.26216 0.39464 0.0
C1062 C 0.80618 0.92585 0.42781 0.0
C1063 C 0.83044 0.95274 0.47222 0.0
C1064 C 0.85558 0.91765 0.49701 0.0
C1065 C 0.82662 0.8886 0.46661 0.0
N1066 N 0.77556 0.86618 0.3955 0.0
N1067 N 0.88154 0.97532 0.54256 0.0
C1068 C 0.80264 0.89314 0.42862 0.0
C1069 C 0.85637 0.94894 0.50399 0.0
N1070 N 0.78688 0.93157 0.38402 0.0
N1071 N 0.88277 0.91525 0.51825 0.0
H1072 H 0.88457 0.99914 0.54399 0.0
H1073 H 0.89866 0.97347 0.57441 0.0
H1074 H 0.88319 0.89305 0.5114 0.0
H1075 H 0.90586 0.93561 0.53607 0.0
H1076 H 0.77136 0.91433 0.34565 0.0
H1077 H 0.78927 0.95494 0.38133 0.0
H1078 H 0.75508 0.86694 0.37416 0.0
H1079 H 0.77307 0.84267 0.39071 0.0
C1080 C 0.11679 0.8965 0.41258 0.0
C1081 C 0.09802 0.89404 0.46675 0.0
C1082 C 0.14076 0.95213 0.50681 0.0
C1083 C 0.16252 0.95293 0.45925 0.0
N1084 N 0.16998 0.92599 0.36398 0.0
N1085 N 0.08393 0.92648 0.53909 0.0
C1086 C 0.14969 0.92532 0.41048 0.0
C1087 C 0.1075 0.92414 0.50551 0.0
N1088 N 0.10251 0.87247 0.36141 0.0
N1089 N 0.15244 0.97651 0.55723 0.0
H1090 H 0.05885 0.90747 0.53449 0.0
H1091 H 0.08813 0.94858 0.56368 0.0
H1092 H 0.17616 0.99753 0.56126 0.0
H1093 H 0.13927 0.97466 0.59783 0.0
H1094 H 0.11373 0.87339 0.31851 0.0
H1095 H 0.07748 0.85365 0.35813 0.0
H1096 H 0.16485 0.90551 0.33228 0.0
H1097 H 0.19296 0.94719 0.35896 0.0
C1098 C 0.20288 0.12952 0.58541 0.0
C1099 C 0.23149 0.15942 0.61451 0.0
C1100 C 0.25886 0.12661 0.63972 0.0
C1101 C 0.23171 0.0973 0.60486 0.0
N1102 N 0.1744 0.06914 0.55993 0.0
N1103 N 0.28089 0.1832 0.68971 0.0
C1104 C 0.20248 0.0983 0.58332 0.0
C1105 C 0.25743 0.1568 0.64876 0.0
N1106 N 0.17651 0.13147 0.55742 0.0
N1107 N 0.28718 0.12634 0.66039 0.0
H1108 H 0.28017 0.20512 0.69788 0.0
H1109 H 0.29869 0.18206 0.72085 0.0
H1110 H 0.28824 0.10459 0.65684 0.0
H1111 H 0.30971 0.14756 0.67785 0.0
H1112 H 0.15635 0.11212 0.52847 0.0
H1113 H 0.17529 0.1533 0.56254 0.0
H1114 H 0.15121 0.06686 0.54713 0.0
H1115 H 0.17381 0.04642 0.55841 0.0
C1116 C 0.90618 0.12757 0.65687 0.0
C1117 C 0.89754 0.09974 0.61137 0.0
C1118 C 0.95551 0.13044 0.5785 0.0
C1119 C 0.96114 0.16073 0.61168 0.0
N1120 N 0.94169 0.18703 0.68817 0.0
N1121 N 0.91523 0.07535 0.52731 0.0
C1122 C 0.93677 0.15883 0.65378 0.0
C1123 C 0.92284 0.10107 0.57287 0.0
N1124 N 0.88451 0.12401 0.70261 0.0
N1125 N 0.98176 0.12989 0.55208 0.0
H1126 H 0.89236 0.05316 0.52265 0.0
H1127 H 0.93103 0.07674 0.49181 0.0
H1128 H 1.00589 0.15072 0.55681 0.0
H1129 H 0.98048 0.10817 0.53222 0.0
H1130 H 0.88974 0.14188 0.74093 0.0
H1131 H 0.86237 0.10148 0.70558 0.0
H1132 H 0.92336 0.18825 0.71338 0.0
H1133 H 0.96387 0.20976 0.69024 0.0
C1134 C 0.95601 0.84258 0.58282 0.0
C1135 C 0.95722 0.81331 0.56353 0.0
C1136 C 0.89509 0.78237 0.54456 0.0
C1137 C 0.89359 0.81155 0.56367 0.0
N1138 N 0.92251 0.86807 0.61159 0.0
N1139 N 0.92666 0.75363 0.53984 0.0
C1140 C 0.92412 0.84118 0.58644 0.0
C1141 C 0.92635 0.78275 0.54946 0.0
N1142 N 0.98552 0.87204 0.5957 0.0
N1143 N 0.86688 0.75454 0.51682 0.0
H1144 H 0.94859 0.7527 0.53831 0.0
H1145 H 0.90527 0.73018 0.53869 0.0
H1146 H 0.84335 0.75217 0.51521 0.0
H1147 H 0.86697 0.7345 0.49194 0.0
H1148 H 0.98717 0.89514 0.60283 0.0
H1149 H 1.00879 0.87336 0.5969 0.0
H1150 H 0.94309 0.8898 0.63387 0.0
H1151 H 0.89974 0.86752 0.61466 0.0
C1152 C 0.80529 0.53096 0.8064 0.0
C1153 C 0.83352 0.55849 0.78324 0.0
C1154 C 0.79441 0.57611 0.73801 0.0
C1155 C 0.76892 0.55433 0.77567 0.0
N1156 N 0.74817 0.50696 0.83833 0.0
N1157 N 0.85414 0.61007 0.73293 0.0
C1158 C 0.77373 0.53016 0.80672 0.0
C1159 C 0.8277 0.58136 0.7491 0.0
N1160 N 0.80889 0.50569 0.82875 0.0
N1161 N 0.78712 0.59211 0.69211 0.0
H1162 H 0.87861 0.61621 0.74591 0.0
H1163 H 0.85174 0.6291 0.71357 0.0
H1164 H 0.76299 0.58815 0.6823 0.0
H1165 H 0.80404 0.60611 0.65925 0.0
H1166 H 0.78909 0.48355 0.84171 0.0
H1167 H 0.83154 0.50581 0.82881 0.0
H1168 H 0.75073 0.49118 0.86909 0.0
H1169 H 0.72426 0.50424 0.83469 0.0
C1170 C 0.52868 0.29033 0.80415 0.0
C1171 C 0.49918 0.29034 0.78061 0.0
C1172 C 0.47376 0.23026 0.74424 0.0
C1173 C 0.50037 0.22893 0.78008 0.0
N1174 N 0.55529 0.25883 0.83773 0.0
N1175 N 0.44477 0.26092 0.72112 0.0
C1176 C 0.52869 0.25952 0.80714 0.0
C1177 C 0.4724 0.26061 0.74712 0.0
N1178 N 0.55677 0.32023 0.82386 0.0
N1179 N 0.44953 0.2024 0.70789 0.0
H1180 H 0.44395 0.28281 0.71842 0.0
H1181 H 0.42244 0.23968 0.70325 0.0
H1182 H 0.45002 0.18039 0.7049 0.0
H1183 H 0.43088 0.20167 0.67614 0.0
H1184 H 0.58014 0.32308 0.83739 0.0
H1185 H 0.55718 0.34279 0.82098 0.0
H1186 H 0.57506 0.27905 0.86574 0.0
H1187 H 0.5571 0.2373 0.8362 0.0
C1188 C 0.77062 0.25563 0.81268 0.0
C1189 C 0.7675 0.22511 0.78692 0.0
C1190 C 0.82289 0.25738 0.74325 0.0
C1191 C 0.82822 0.28712 0.77821 0.0
N1192 N 0.80266 0.31637 0.82444 0.0
N1193 N 0.783 0.20032 0.69954 0.0
C1194 C 0.80033 0.28667 0.80544 0.0
C1195 C 0.79115 0.22694 0.74304 0.0
N1196 N 0.74493 0.25468 0.84431 0.0
N1197 N 0.84851 0.2577 0.71264 0.0
H1198 H 0.75959 0.17875 0.6952 0.0
H1199 H 0.79789 0.20102 0.66272 0.0
H1200 H 0.87097 0.27959 0.70841 0.0
H1201 H 0.84775 0.23623 0.69289 0.0
H1202 H 0.74647 0.27492 0.87166 0.0
H1203 H 0.72159 0.23297 0.84275 0.0
H1204 H 0.78318 0.3189 0.84154 0.0
H1205 H 0.82376 0.33894 0.81725 0.0
C1206 C 0.89443 0.47014 0.86028 0.0
C1207 C 0.91552 0.49801 0.90609 0.0
C1208 C 0.93922 0.46542 0.95149 0.0
C1209 C 0.91776 0.43669 0.90714 0.0
N1210 N 0.87074 0.4112 0.82522 0.0
N1211 N 0.94887 0.51704 1.00843 0.0
C1212 C 0.89349 0.43871 0.86453 0.0
C1213 C 0.93413 0.49337 0.95678 0.0
N1214 N 0.87728 0.47448 0.80944 0.0
N1215 N 0.9671 0.46801 0.98364 0.0
H1216 H 0.94567 0.53775 1.01238 0.0
H1217 H 0.96096 0.5142 0.04964 0.0
H1218 H 0.9743 0.45033 0.97591 0.0
H1219 H 0.98526 0.48954 1.01147 0.0
H1220 H 0.86486 0.45702 0.76942 0.0
H1221 H 0.87696 0.4966 0.80596 0.0
H1222 H 0.8504 0.40978 0.79787 0.0
H1223 H 0.8709 0.38892 0.82366 0.0
C1224 C 0.58721 0.43837 0.844 0.0
C1225 C 0.5701 0.43281 0.90176 0.0
C1226 C 0.61552 0.48812 0.95096 0.0
C1227 C 0.63099 0.49488 0.89142 0.0
N1228 N 0.63727 0.47269 0.78878 0.0
N1229 N 0.57458 0.44705 1.0163 0.0
C1230 C 0.61878 0.46851 0.84074 0.0
C1231 C 0.58662 0.45606 0.95729 0.0
N1232 N 0.57228 0.41571 0.79077 0.0
N1233 N 0.62765 0.51292 1.00061 0.0
H1234 H 0.55503 0.423 1.02125 0.0
H1235 H 0.58607 0.46157 0.0602 0.0
H1236 H 0.64965 0.53564 0.99839 0.0
H1237 H 0.61545 0.51143 0.04245 0.0
H1238 H 0.58067 0.41991 0.74444 0.0
H1239 H 0.55058 0.39278 0.79267 0.0
H1240 H 0.63167 0.45388 0.75226 0.0
H1241 H 0.66019 0.49435 0.78564 0.0
C1242 C 0.60006 0.12285 0.89681 0.0
C1243 C 0.63158 0.15283 0.90415 0.0
C1244 C 0.60024 0.18338 0.91622 0.0
C1245 C 0.56919 0.15378 0.89557 0.0
N1246 N 0.54347 0.09669 0.84843 0.0
N1247 N 0.66161 0.21241 0.92382 0.0
C1248 C 0.57005 0.12377 0.88223 0.0
C1249 C 0.63156 0.18334 0.91541 0.0
N1250 N 0.59842 0.09302 0.90185 0.0
N1251 N 0.59978 0.21164 0.93582 0.0
H1252 H 0.68436 0.21267 0.92825 0.0
H1253 H 0.66401 0.23591 0.92459 0.0
H1254 H 0.57747 0.2122 0.93645 0.0
H1255 H 0.62088 0.23352 0.95619 0.0
H1256 H 0.57585 0.07071 0.90272 0.0
H1257 H 0.61945 0.09128 0.91404 0.0
H1258 H 0.544 0.07538 0.83196 0.0
H1259 H 0.52309 0.0975 0.82788 0.0
C1260 C 0.50719 0.93419 0.18153 0.0
C1261 C 0.50789 0.90388 0.18203 0.0
C1262 C 0.44546 0.87325 0.16821 0.0
C1263 C 0.44496 0.90364 0.16595 0.0
N1264 N 0.47705 0.96172 0.14726 0.0
N1265 N 0.47728 0.84429 0.16116 0.0
C1266 C 0.47634 0.93359 0.16489 0.0
C1267 C 0.47681 0.87333 0.17043 0.0
N1268 N 0.53552 0.96384 0.20129 0.0
N1269 N 0.41582 0.84421 0.17005 0.0
H1270 H 0.49965 0.84382 0.16157 0.0
H1271 H 0.45597 0.82129 0.14705 0.0
H1272 H 0.39264 0.84301 0.16446 0.0
H1273 H 0.41427 0.82176 0.17976 0.0
H1274 H 0.5355 0.98613 0.20973 0.0
H1275 H 0.55838 0.96581 0.2157 0.0
H1276 H 0.49912 0.98352 0.14032 0.0
H1277 H 0.45554 0.96163 0.13027 0.0
C1278 C 0.14809 0.60044 0.10882 0.0
C1279 C 0.17304 0.62942 0.14721 0.0
C1280 C 0.20199 0.59825 0.17589 0.0
C1281 C 0.17329 0.56771 0.1504 0.0
N1282 N 0.11916 0.54019 0.08841 0.0
N1283 N 0.22671 0.65747 0.20965 0.0
C1284 C 0.14676 0.56906 0.11424 0.0
C1285 C 0.20121 0.62879 0.1773 0.0
N1286 N 0.12562 0.60285 0.06714 0.0
N1287 N 0.23009 0.59783 0.19871 0.0
H1288 H 0.22781 0.68036 0.20732 0.0
H1289 H 0.24612 0.65861 0.23975 0.0
H1290 H 0.23124 0.57594 0.19698 0.0
H1291 H 0.25296 0.61911 0.21384 0.0
H1292 H 0.10859 0.58354 1.03326 0.0
H1293 H 0.1265 0.62539 0.06154 0.0
H1294 H 0.09693 0.53864 0.07011 0.0
H1295 H 0.11811 0.51739 0.08765 0.0
C1296 C 0.47195 0.62403 0.16561 0.0
C1297 C 0.50324 0.62479 0.17094 0.0
C1298 C 0.47169 0.56373 0.14652 0.0
C1299 C 0.44078 0.5622 0.15533 0.0
N1300 N 0.4117 0.59207 0.17591 0.0
N1301 N 0.52993 0.5918 0.18607 0.0
C1302 C 0.44096 0.59281 0.16526 0.0
C1303 C 0.5024 0.5937 0.16605 0.0
N1304 N 0.47187 0.65313 0.16086 0.0
N1305 N 0.47195 0.53648 0.1199 0.0
H1306 H 0.55244 0.61245 0.20494 0.0
H1307 H 0.52921 0.56915 0.18944 0.0
H1308 H 0.4499 0.51542 0.10026 0.0
H1309 H 0.49398 0.53687 0.10925 0.0
H1310 H 0.45004 0.65425 0.15238 0.0
H1311 H 0.494 0.67573 0.15869 0.0
H1312 H 0.41053 0.61323 0.19054 0.0
H1313 H 0.38876 0.56978 0.1729 0.0
C1314 C 0.545 0.76945 0.26831 0.0
C1315 C 0.57283 0.7673 0.29516 0.0
C1316 C 0.60183 0.82776 0.32973 0.0
C1317 C 0.57628 0.83073 0.29381 0.0
N1318 N 0.51846 0.80294 0.25173 0.0
N1319 N 0.61912 0.79127 0.37795 0.0
C1320 C 0.54616 0.80092 0.2705 0.0
C1321 C 0.59857 0.79546 0.33441 0.0
N1322 N 0.51747 0.74106 0.24018 0.0
N1323 N 0.62999 0.85569 0.35706 0.0
H1324 H 0.61631 0.76801 0.38462 0.0
H1325 H 0.63587 0.80989 0.41319 0.0
H1326 H 0.63255 0.87923 0.35946 0.0
H1327 H 0.65121 0.85552 0.37601 0.0
H1328 H 0.49778 0.74055 0.21221 0.0
H1329 H 0.51469 0.71762 0.24527 0.0
H1330 H 0.49488 0.78245 0.2375 0.0
H1331 H 0.51854 0.82545 0.25641 0.0
C1332 C 0.29112 0.81868 0.31041 0.0
C1333 C 0.3001 0.82816 0.24622 0.0
C1334 C 0.25129 0.7736 0.20399 0.0
C1335 C 0.23779 0.76825 0.26508 0.0
N1336 N 0.24519 0.78816 0.37808 0.0
N1337 N 0.27664 0.8165 0.13242 0.0
C1338 C 0.25794 0.7915 0.319 0.0
C1339 C 0.27721 0.80596 0.19283 0.0
N1340 N 0.31396 0.83498 0.36302 0.0
N1341 N 0.23786 0.74865 0.15465 0.0
H1342 H 0.28838 0.84149 0.12382 0.0
H1343 H 0.25918 0.80111 0.09395 0.0
H1344 H 0.21911 0.72457 0.16124 0.0
H1345 H 0.24827 0.75126 0.11007 0.0
H1346 H 0.30937 0.82764 0.41007 0.0
H1347 H 0.33858 0.85352 0.35858 0.0
H1348 H 0.257 0.80618 0.41755 0.0
H1349 H 0.22189 0.76797 0.3859 0.0
C1350 C 0.26861 0.46062 0.2447 0.0
C1351 C 0.30104 0.48937 0.25796 0.0
C1352 C 0.27287 0.52155 0.28485 0.0
C1353 C 0.24077 0.49201 0.27509 0.0
N1354 N 0.21195 0.43219 0.27439 0.0
N1355 N 0.33383 0.54673 0.30123 0.0
C1356 C 0.24001 0.46121 0.26513 0.0
C1357 C 0.30306 0.51965 0.28221 0.0
N1358 N 0.26412 0.43349 0.20689 0.0
N1359 N 0.27438 0.55157 0.29404 0.0
H1360 H 0.35597 0.54595 0.29884 0.0
H1361 H 0.33718 0.56885 0.32397 0.0
H1362 H 0.25293 0.55333 0.29932 0.0
H1363 H 0.29642 0.57438 0.29393 0.0
H1364 H 0.24045 0.4132 0.19158 0.0
H1365 H 0.28335 0.43318 0.18359 0.0
H1366 H 0.21093 0.40923 0.2712 0.0
H1367 H 0.19213 0.43216 0.29554 0.0
C1368 C 1.01273 0.28609 0.07989 0.0
C1369 C 1.01038 0.25706 0.10443 0.0
C1370 C 1.02239 0.24097 0.99786 0.0
C1371 C 1.02757 0.27136 0.97515 0.0
N1372 N 1.03063 0.32438 0.9949 0.0
N1373 N 1.01545 0.20803 0.08952 0.0
C1374 C 1.02353 0.29438 1.01633 0.0
C1375 C 1.01584 0.23479 0.06405 0.0
N1376 N 1.004 0.30535 0.117 0.0
N1377 N 1.02311 0.21768 0.95558 0.0
H1378 H 1.0091 0.20166 0.13658 0.0
H1379 H 1.02333 0.19319 0.06574 0.0
H1380 H 1.02887 0.22165 0.90743 0.0
H1381 H 1.01574 0.19349 0.9664 0.0
H1382 H 1.00269 0.32547 0.10064 0.0
H1383 H 0.99577 0.29988 0.16333 0.0
H1384 H 1.03184 0.3439 1.02436 0.0
H1385 H 0.03735 0.33065 0.94795 0.0
C1386 C 0.82098 0.80674 0.08282 0.0
C1387 C 0.80469 0.77299 0.09731 0.0
C1388 C 0.79052 0.75452 0.98019 0.0
C1389 C 0.8031 0.78817 0.96676 0.0
N1390 N 0.82834 0.84637 1.00441 0.0
N1391 N 0.77308 0.71435 0.06157 0.0
C1392 C 0.81794 0.81432 1.01784 0.0
C1393 C 0.7895 0.74669 0.04637 0.0
N1394 N 0.84026 0.8315 0.13109 0.0
N1395 N 0.77954 0.7302 0.92955 0.0
H1396 H 0.77138 0.70771 0.10933 0.0
H1397 H 0.75951 0.6939 1.02753 0.0
H1398 H 0.779 0.73506 0.88079 0.0
H1399 H 0.77295 0.70562 0.93503 0.0
H1400 H 0.85561 0.85634 0.12267 0.0
H1401 H 0.84342 0.82682 0.17912 0.0
H1402 H 0.83535 0.86589 0.04021 0.0
H1403 H 0.82796 0.85325 0.95716 0.0
C1404 C 0.30228 0.03724 0.05291 0.0
C1405 C 0.27401 0.02433 0.09007 0.0
C1406 C 0.2385 0.9916 0.98996 0.0
C1407 C 0.2652 1.01131 0.95206 0.0
N1408 N 0.32299 0.05442 0.94847 0.0
N1409 N 0.22296 0.97221 0.09606 0.0
C1410 C 0.29721 0.03463 0.98383 0.0
C1411 C 0.24394 0.99651 0.05932 0.0
N1412 N 0.33303 0.04533 0.08128 0.0
N1413 N 0.20788 0.96817 0.96 0.0
H1414 H 0.22886 0.97276 0.14569 0.0
H1415 H 0.20241 0.94967 0.07649 0.0
H1416 H 0.20341 0.96181 0.90977 0.0
H1417 H 0.18641 0.95636 0.98481 0.0
H1418 H 0.35399 0.05272 0.05511 0.0
H1419 H 0.33574 0.03822 0.12731 0.0
H1420 H 0.3459 0.07371 0.97042 0.0
H1421 H 0.32048 0.0533 0.89769 0.0
C1422 C 1.01312 0.76688 0.99023 0.0
C1423 C 1.03288 0.80089 0.97851 0.0
C1424 C 1.03259 0.81731 0.09359 0.0
C1425 C 1.0169 0.78336 0.10696 0.0
N1426 N 0.99734 0.72604 0.06934 0.0
N1427 N 0.06576 0.85861 1.02113 0.0
C1428 C 1.00842 0.75813 0.05556 0.0
C1429 C 0.04374 0.82619 1.03077 0.0
N1430 N 0.99811 0.74303 0.93882 0.0
N1431 N 0.03601 0.84102 0.14041 0.0
H1432 H 0.07463 0.86619 0.976 0.0
H1433 H 0.07746 0.87754 0.05902 0.0
H1434 H 1.02759 0.83541 0.18658 0.0
H1435 H 0.04416 0.86563 0.13144 0.0
H1436 H 0.98077 0.7182 0.94408 0.0
H1437 H 1.00042 0.74876 0.89043 0.0
H1438 H 0.99372 0.70722 1.03452 0.0
H1439 H 0.99476 0.71884 0.11672 0.0
C1440 C 0.285 0.28604 0.09455 0.0
C1441 C 0.2747 0.2531 0.10993 0.0
C1442 C 0.26063 0.23344 0.9935 0.0
C1443 C 0.27353 0.26681 0.97791 0.0
N1444 N 0.30471 0.32553 1.01278 0.0
N1445 N 0.25925 0.19665 0.07383 0.0
C1446 C 0.28773 0.29333 1.02829 0.0
C1447 C 0.26444 0.22712 0.05928 0.0
N1448 N 0.29091 0.31009 0.14296 0.0
N1449 N 0.24354 0.20766 0.94601 0.0
H1450 H 0.26203 0.19113 0.12135 0.0
H1451 H 0.25524 0.17788 0.03845 0.0
H1452 H 0.23996 0.21118 0.89734 0.0
H1453 H 0.23042 0.18277 0.9558 0.0
H1454 H 0.29516 0.33367 0.13401 0.0
H1455 H 0.28852 0.30552 0.19194 0.0
H1456 H 0.31855 0.34579 0.04738 0.0
H1457 H 0.30771 0.33165 0.9647 0.0
C1458 C 0.76599 0.02848 0.07504 0.0
C1459 C 0.7848 1.01916 0.1167 0.0
C1460 C 0.79396 0.99092 1.02298 0.0
C1461 C 0.77882 1.00374 0.98072 0.0
N1462 N 0.75243 0.03663 0.9646 0.0
N1463 N 0.82055 0.99538 0.1303 0.0
C1464 C 0.7652 0.02295 1.00623 0.0
C1465 C 0.79963 1.00118 0.09078 0.0
N1466 N 0.74853 0.04214 0.10155 0.0
N1467 N 0.80241 0.96848 0.99834 0.0
H1468 H 0.82558 1.00258 0.18024 0.0
H1469 H 0.83514 0.98588 0.11283 0.0
H1470 H 0.79891 0.96059 0.94877 0.0
H1471 H 0.81011 0.95545 1.02745 0.0
H1472 H 0.7324 0.04741 0.07437 0.0
H1473 H 0.74807 0.04586 0.15177 0.0
H1474 H 0.74533 0.05376 0.97967 0.0
H1475 H 0.75091 0.03246 0.91402 0.0
C1476 C 0.7322 0.63022 0.33375 0.0
C1477 C 0.71706 0.60243 0.28617 0.0
C1478 C 0.68625 0.56582 0.36974 0.0
C1479 C 0.69875 0.59412 0.41586 0.0
N1480 N 0.72938 0.65273 0.44174 0.0
N1481 N 0.67725 0.54572 0.25429 0.0
C1482 C 0.72081 0.6263 0.39752 0.0
C1483 C 0.69328 0.57064 0.30336 0.0
N1484 N 0.75833 0.65973 0.31883 0.0
N1485 N 0.66929 0.53453 0.39012 0.0
H1486 H 0.65753 0.52192 0.26001 0.0
H1487 H 0.65753 0.52192 0.26001 0.0
H1488 H 0.66471 0.53025 0.43869 0.0
H1489 H 0.66268 0.51292 0.36061 0.0
H1490 H 0.77364 0.67924 0.35383 0.0
H1491 H 0.7668 0.6635 0.27239 0.0
H1492 H 0.7434 0.67763 0.43225 0.0
H1493 H 0.7434 0.67763 0.43225 0.0
C1494 C 0.48301 0.1061 0.3663 0.0
C1495 C 0.47083 0.1182 0.41637 0.0
C1496 C 0.45289 0.14464 0.3351 0.0
C1497 C 0.4675 0.13476 0.28592 0.0
N1498 N 0.5023 0.11151 0.25827 0.0
N1499 N 0.44838 0.1529 0.45077 0.0
C1500 C 0.4842 0.117 0.30257 0.0
C1501 C 0.45687 0.13853 0.40135 0.0
N1502 N 0.49313 0.08378 0.37941 0.0
N1503 N 0.43515 0.15991 0.3185 0.0
H1504 H 0.45054 0.14872 0.49947 0.0
H1505 H 0.44159 0.17088 0.44446 0.0
H1506 H 0.43357 0.16688 0.27178 0.0
H1507 H 0.42035 0.16398 0.34991 0.0
H1508 H 0.49824 0.07078 0.3434 0.0
H1509 H 0.49387 0.07614 0.42583 0.0
H1510 H 0.51797 0.10204 0.26958 0.0
H1511 H 0.5042 0.11927 0.21155 0.0
C1512 C 0.93806 0.36684 0.31934 0.0
C1513 C 0.93673 0.33759 0.29141 0.0
C1514 C 0.94528 0.32276 0.40067 0.0
C1515 C 0.94772 0.35258 0.42832 0.0
N1516 N 0.95217 0.40581 0.41478 0.0
N1517 N 0.94421 0.29038 0.303 0.0
C1518 C 0.94588 0.37549 0.38779 0.0
C1519 C 0.94185 0.31629 0.33144 0.0
N1520 N 0.93058 0.3857 0.28061 0.0
N1521 N 0.94553 0.30034 0.44075 0.0
H1522 H 0.94175 0.28495 0.25256 0.0
H1523 H 0.95109 0.27575 0.32875 0.0
H1524 H 0.9493 0.30491 0.49147 0.0
H1525 H 0.94 0.27645 0.42437 0.0
H1526 H 0.92716 0.40502 0.29865 0.0
H1527 H 0.92541 0.38063 0.23011 0.0
H1528 H 0.95516 0.42517 0.38752 0.0
H1529 H 0.95698 0.4127 0.46487 0.0
C1530 C 0.72322 0.15942 0.36448 0.0
C1531 C 0.71025 0.13445 0.31109 0.0
C1532 C 0.68286 0.09149 0.38712 0.0
C1533 C 0.69319 0.11667 0.43963 0.0
N1534 N 0.71813 0.17502 0.47569 0.0
N1535 N 0.67324 0.07713 0.26986 0.0
C1536 C 0.71199 0.15078 0.42754 0.0
C1537 C 0.6887 0.10057 0.32195 0.0
N1538 N 0.74718 0.19129 0.35547 0.0
N1539 N 0.66876 0.05891 0.39986 0.0
H1540 H 0.67704 0.08282 0.22163 0.0
H1541 H 0.65452 0.05268 0.27398 0.0
H1542 H 0.66568 0.05158 0.44707 0.0
H1543 H 0.66328 0.03961 0.36461 0.0
H1544 H 0.76039 0.20971 0.39373 0.0
H1545 H 0.75605 0.19864 0.31023 0.0
H1546 H 0.72856 0.2001 0.46792 0.0
H1547 H 0.70999 0.16979 0.52213 0.0
C1548 C 0.97642 0.61827 0.31812 0.0
C1549 C 0.94655 0.61671 0.29169 0.0
C1550 C 0.92565 0.60953 0.40046 0.0
C1551 C 0.95363 0.60733 0.42524 0.0
N1552 N 1.00492 0.60747 0.40799 0.0
N1553 N 0.89053 0.60605 0.30538 0.0
C1554 C 0.97894 0.61125 0.38416 0.0
C1555 C 0.92064 0.61125 0.33235 0.0
N1556 N 1.00259 0.62715 0.28031 0.0
N1557 N 0.90415 0.61064 0.44239 0.0
H1558 H 0.88559 0.60668 0.2557 0.0
H1559 H 0.86943 0.59823 0.33113 0.0
H1560 H 0.90691 0.60921 0.49248 0.0
H1561 H 0.88544 0.61597 0.42863 0.0
H1562 H 1.02604 0.63122 0.29745 0.0
H1563 H 1.00174 0.6329 0.23227 0.0
H1564 H 1.02237 0.60651 0.37935 0.0
H1565 H 1.00801 0.60325 0.45639 0.0
C1566 C 0.42461 0.31958 0.33202 0.0
C1567 C 0.44961 0.34357 0.29601 0.0
C1568 C 0.4745 0.38271 0.39454 0.0
C1569 C 0.45037 0.35822 0.43109 0.0
N1570 N 0.3996 0.30575 0.43523 0.0
N1571 N 0.50027 0.39634 0.2924 0.0
C1572 C 0.42459 0.32726 0.39995 0.0
C1573 C 0.47488 0.37487 0.327 0.0
N1574 N 0.40184 0.28894 0.30154 0.0
N1575 N 0.49662 0.41374 0.42441 0.0
H1576 H 0.50113 0.39177 0.24265 0.0
H1577 H 0.52166 0.4178 0.31313 0.0
H1578 H 0.49793 0.42008 0.47419 0.0
H1579 H 0.51228 0.43403 0.39967 0.0
H1580 H 0.38579 0.26866 0.32584 0.0
H1581 H 0.40011 0.28309 0.2514 0.0
H1582 H 0.37817 0.28417 0.41504 0.0
H1583 H 0.39912 0.31057 0.48506 0.0
C1584 C 0.35028 0.90457 0.63286 0.0
C1585 C 0.37427 0.93795 0.62248 0.0
C1586 C 0.37354 0.95509 0.73709 0.0
C1587 C 0.35377 0.92127 0.74969 0.0
N1588 N 0.32563 0.8631 0.71049 0.0
N1589 N 0.41381 0.99381 0.6693 0.0
C1590 C 0.34284 0.89577 0.69778 0.0
C1591 C 0.38721 0.96295 0.67585 0.0
N1592 N 0.33345 0.88157 0.58063 0.0
N1593 N 0.37861 0.97982 0.78294 0.0
H1594 H 0.42574 0.99999 0.62643 0.0
H1595 H 0.42625 1.01188 0.70847 0.0
H1596 H 0.3689 0.97501 0.82826 0.0
H1597 H 0.38982 1.00479 0.77361 0.0
H1598 H 0.31336 0.8578 0.58478 0.0
H1599 H 0.3373 0.88725 0.53243 0.0
H1600 H 0.32031 0.84347 0.67614 0.0
H1601 H 0.3187 0.85573 0.75681 0.0
C1602 C 0.12758 0.4668 0.76888 0.0
C1603 C 0.14288 0.44776 0.7848 0.0
C1604 C 0.14754 0.43864 0.66776 0.0
C1605 C 0.13647 0.46131 0.65312 0.0
N1606 N 0.12047 0.50086 0.69171 0.0
N1607 N 0.1714 0.41889 0.74973 0.0
C1608 C 0.1276 0.47637 0.70424 0.0
C1609 C 0.15381 0.43443 0.73423 0.0
N1610 N 0.11196 0.47484 0.81504 0.0
N1611 N 0.1512 0.42041 0.61802 0.0
H1612 H 0.17674 0.41553 0.79758 0.0
H1613 H 0.18315 0.41184 0.71575 0.0
H1614 H 0.14654 0.42265 0.56903 0.0
H1615 H 0.15574 0.40095 0.62524 0.0
H1616 H 0.09731 0.48556 0.80467 0.0
H1617 H 0.11084 0.46776 0.86241 0.0
H1618 H 0.11756 0.51535 0.72821 0.0
H1619 H 0.12035 0.50877 0.64535 0.0
C1620 C 0.57721 0.70075 0.72767 0.0
C1621 C 0.59287 0.69037 0.77459 0.0
C1622 C 0.60593 0.66167 0.68708 0.0
C1623 C 0.59032 0.67222 0.64025 0.0
N1624 N 0.55452 0.69482 0.61569 0.0
N1625 N 0.61791 0.65732 0.80157 0.0
C1626 C 0.57399 0.6897 0.66059 0.0
C1627 C 0.60575 0.66947 0.75501 0.0
N1628 N 0.56614 0.7219 0.74719 0.0
N1629 N 0.62191 0.64523 0.66635 0.0
H1630 H 0.61922 0.66355 0.85143 0.0
H1631 H 0.62498 0.63963 0.79174 0.0
H1632 H 0.62253 0.63913 0.61724 0.0
H1633 H 0.63598 0.63885 0.69704 0.0
H1634 H 0.55847 0.73385 0.71508 0.0
H1635 H 0.56641 0.72919 0.79606 0.0
H1636 H 0.53913 0.70432 0.6278 0.0
H1637 H 0.55135 0.68675 0.56628 0.0
C1638 C 0.32792 0.41589 0.71726 0.0
C1639 C 0.34894 0.43794 0.77174 0.0
C1640 C 0.3926 0.46939 0.69864 0.0
C1641 C 0.3701 0.44998 0.6435 0.0
N1642 N 0.31529 0.40608 0.59933 0.0
N1643 N 0.40042 0.48753 0.81393 0.0
C1644 C 0.33754 0.42334 0.65257 0.0
C1645 C 0.38106 0.46519 0.76224 0.0
N1646 N 0.29877 0.38775 0.72741 0.0
N1647 N 0.4255 0.49111 0.69034 0.0
H1648 H 0.3937 0.48477 0.86167 0.0
H1649 H 0.42208 0.51005 0.80906 0.0
H1650 H 0.43496 0.49453 0.64475 0.0
H1651 H 0.44409 0.50338 0.7288 0.0
H1652 H 0.28411 0.36875 0.69095 0.0
H1653 H 0.29024 0.38221 0.77351 0.0
H1654 H 0.29008 0.38879 0.60214 0.0
H1655 H 0.32144 0.41062 0.55152 0.0
C1656 C 0.63036 0.93938 0.74853 0.0
C1657 C 0.60003 0.9209 0.77828 0.0
C1658 C 0.56809 0.92229 0.68026 0.0
C1659 C 0.59806 0.93793 0.64848 0.0
N1660 N 0.65693 0.95609 0.64805 0.0
N1661 N 0.53948 0.88965 0.76832 0.0
C1662 C 0.629 0.94501 0.68144 0.0
C1663 C 0.5687 0.91103 0.74306 0.0
N1664 N 0.66052 0.95256 0.78495 0.0
N1665 N 0.53912 0.91873 0.65086 0.0
H1666 H 0.53883 0.8804 0.81355 0.0
H1667 H 0.51602 0.87871 0.74213 0.0
H1668 H 0.53765 0.92624 0.60459 0.0
H1669 H 0.5173 0.91089 0.67434 0.0
H1670 H 0.68337 0.96888 0.76772 0.0
H1671 H 0.66261 0.94952 0.83442 0.0
H1672 H 0.67906 0.95762 0.66703 0.0
H1673 H 0.65719 0.96115 0.59931 0.0
C1674 C 0.1553 0.69722 0.69569 0.0
C1675 C 0.12372 0.67762 0.65917 0.0
C1676 C 0.09505 0.67637 0.75689 0.0
C1677 C 0.12661 0.69368 0.79432 0.0
N1678 N 0.18636 0.71515 0.80233 0.0
N1679 N 0.06356 0.64365 0.65624 0.0
C1680 C 0.15664 0.70254 0.76454 0.0
C1681 C 0.09355 0.66581 0.6901 0.0
N1682 N 0.18399 0.71163 0.66434 0.0
N1683 N 0.06668 0.67103 0.78451 0.0
H1684 H 0.06134 0.63585 0.60692 0.0
H1685 H 0.04142 0.63079 0.67855 0.0
H1686 H 0.06676 0.67809 0.83345 0.0
H1687 H 0.04358 0.66201 0.75779 0.0
H1688 H 0.20737 0.72919 0.68745 0.0
H1689 H 0.18408 0.70825 0.61392 0.0
H1690 H 0.20843 0.71871 0.78419 0.0
H1691 H 0.18838 0.71927 0.85303 0.0
loop_
_geom_bond_atom_site_label_1
_geom_bond_atom_site_label_2
_geom_bond_distance
_geom_bond_site_symmetry_2
_ccdc_geom_bond_type
Tb0 C2 2.809 . S
Tb0 O20 2.480 1_455 S
Tb0 O21 2.440 . S
Tb0 O22 2.658 . S
Tb0 O23 2.409 . S
Tb0 O24 2.378 1_455 S
Tb0 O28 2.325 1_455 S
Tb0 O31 2.341 . S
Tb1 C11 2.809 . S
Tb1 O22 2.325 1_655 S
Tb1 O25 2.341 . S
Tb1 O26 2.484 1_655 S
Tb1 O27 2.440 . S
Tb1 O28 2.658 . S
Tb1 O29 2.409 . S
Tb1 O30 2.378 1_655 S
C2 Tb0 2.809 . S
C2 C3 1.514 . S
C2 O20 1.242 1_455 S
C2 O21 1.266 . S
C3 C2 1.514 . S
C3 C4 1.359 1_455 S
C3 C8 1.348 . S
C4 C3 1.359 1_655 S
C4 C5 1.380 . S
C4 H32 0.929 . S
C5 C4 1.380 . S
C5 C6 1.347 1_655 S
C5 H33 0.931 . S
C6 C5 1.347 1_455 S
C6 C7 1.369 . S
C7 C6 1.369 . S
C7 C8 1.408 . S
C7 H34 0.930 . S
C8 C3 1.348 . S
C8 C7 1.408 . S
C8 H35 0.930 . S
C9 O22 1.281 . S
C9 O23 1.254 . S
C10 O24 1.236 . S
C10 O25 1.266 . S
C11 Tb1 2.809 . S
C11 C12 1.514 . S
C11 O26 1.248 1_655 S
C11 O27 1.266 . S
C12 C11 1.514 . S
C12 C13 1.359 1_655 S
C12 C17 1.348 . S
C13 C12 1.359 1_455 S
C13 C14 1.380 . S
C13 H36 0.929 . S
C14 C13 1.380 . S
C14 C15 1.347 . S
C14 H37 0.931 . S
C15 C14 1.347 . S
C15 C16 1.369 1_455 S
C16 C15 1.369 1_655 S
C16 C17 1.408 . S
C16 H38 0.930 . S
C17 C12 1.348 . S
C17 C16 1.408 . S
C17 H39 0.930 . S
C18 O28 1.281 . S
C18 O29 1.254 . S
C19 O30 1.236 . S
C19 O31 1.266 . S
O20 Tb0 2.480 1_655 S
O20 C2 1.242 1_655 S
O21 Tb0 2.440 . S
O21 C2 1.266 . S
O22 Tb0 2.658 . S
O22 Tb1 2.325 1_455 S
O22 C9 1.281 . S
O23 Tb0 2.409 . S
O23 C9 1.254 . S
O24 Tb0 2.378 1_655 S
O24 C10 1.236 . S
O25 Tb1 2.341 . S
O25 C10 1.266 . S
O26 Tb1 2.484 1_455 S
O26 C11 1.248 1_455 S
O27 Tb1 2.440 . S
O27 C11 1.266 . S
O28 Tb0 2.325 1_655 S
O28 Tb1 2.658 . S
O28 C18 1.281 . S
O29 Tb1 2.409 . S
O29 C18 1.254 . S
O30 Tb1 2.378 1_455 S
O30 C19 1.236 . S
O31 Tb0 2.341 . S
O31 C19 1.266 . S
H32 C4 0.929 . S
H33 C5 0.931 . S
H34 C7 0.930 . S
H35 C8 0.930 . S
H36 C13 0.929 . S
H37 C14 0.931 . S
H38 C16 0.930 . S
H39 C17 0.930 . S
Tb40 C42 2.809 . S
Tb40 O60 2.484 . S
Tb40 O61 2.440 . S
Tb40 O62 2.658 . S
Tb40 O63 2.409 . S
Tb40 O64 2.378 . S
Tb40 O68 2.325 . S
Tb40 O71 2.341 . S
Tb41 C51 2.809 . S
Tb41 O62 2.325 . S
Tb41 O65 2.341 . S
Tb41 O66 2.484 . S
Tb41 O67 2.440 . S
Tb41 O68 2.658 . S
Tb41 O69 2.409 . S
Tb41 O70 2.378 . S
C42 Tb40 2.809 . S
C42 C43 1.514 . S
C42 O60 1.248 . S
C42 O61 1.266 . S
C43 C42 1.514 . S
C43 C44 1.359 . S
C43 C48 1.348 . S
C44 C43 1.359 . S
C44 C45 1.380 . S
C44 H72 0.929 . S
C45 C44 1.380 . S
C45 C46 1.347 . S
C45 H73 0.931 . S
C46 C45 1.347 . S
C46 C47 1.369 . S
C47 C46 1.369 . S
C47 C48 1.408 . S
C47 H74 0.930 . S
C48 C43 1.348 . S
C48 C47 1.408 . S
C48 H75 0.930 . S
C49 O62 1.281 . S
C49 O63 1.254 . S
C50 O64 1.236 . S
C50 O65 1.266 . S
C51 Tb41 2.809 . S
C51 C52 1.514 . S
C51 O66 1.248 . S
C51 O67 1.266 . S
C52 C51 1.514 . S
C52 C53 1.359 . S
C52 C57 1.348 . S
C53 C52 1.359 . S
C53 C54 1.380 . S
C53 H76 0.929 . S
C54 C53 1.380 . S
C54 C55 1.347 . S
C54 H77 0.931 . S
C55 C54 1.347 . S
C55 C56 1.369 . S
C56 C55 1.369 . S
C56 C57 1.408 . S
C56 H78 0.930 . S
C57 C52 1.348 . S
C57 C56 1.408 . S
C57 H79 0.930 . S
C58 O68 1.281 . S
C58 O69 1.254 . S
C59 O70 1.236 . S
C59 O71 1.266 . S
O60 Tb40 2.484 . S
O60 C42 1.248 . S
O61 Tb40 2.440 . S
O61 C42 1.266 . S
O62 Tb40 2.658 . S
O62 Tb41 2.325 . S
O62 C49 1.281 . S
O63 Tb40 2.409 . S
O63 C49 1.254 . S
O64 Tb40 2.378 . S
O64 C50 1.236 . S
O65 Tb41 2.341 . S
O65 C50 1.266 . S
O66 Tb41 2.484 . S
O66 C51 1.248 . S
O67 Tb41 2.440 . S
O67 C51 1.266 . S
O68 Tb40 2.325 . S
O68 Tb41 2.658 . S
O68 C58 1.281 . S
O69 Tb41 2.409 . S
O69 C58 1.254 . S
O70 Tb41 2.378 . S
O70 C59 1.236 . S
O71 Tb40 2.341 . S
O71 C59 1.266 . S
H72 C44 0.929 . S
H73 C45 0.931 . S
H74 C47 0.930 . S
H75 C48 0.930 . S
H76 C53 0.929 . S
H77 C54 0.931 . S
H78 C56 0.930 . S
H79 C57 0.930 . S
Tb80 C82 2.809 . S
Tb80 O100 2.484 1_565 S
Tb80 O101 2.440 . S
Tb80 O102 2.658 . S
Tb80 O103 2.409 . S
Tb80 O104 2.378 1_565 S
Tb80 O108 2.325 1_565 S
Tb80 O111 2.341 . S
Tb81 C91 2.809 . S
Tb81 O102 2.325 1_545 S
Tb81 O105 2.341 . S
Tb81 O106 2.484 1_545 S
Tb81 O107 2.440 . S
Tb81 O108 2.658 . S
Tb81 O109 2.409 . S
Tb81 O110 2.378 1_545 S
C82 Tb80 2.809 . S
C82 C83 1.514 1_565 S
C82 O100 1.248 1_565 S
C82 O101 1.266 . S
C83 C82 1.514 1_545 S
C83 C84 1.359 . S
C83 C88 1.348 1_545 S
C84 C83 1.359 . S
C84 C85 1.380 . S
C84 H112 0.929 . S
C85 C84 1.380 . S
C85 C86 1.347 . S
C85 H113 0.931 . S
C86 C85 1.347 . S
C86 C87 1.369 1_545 S
C87 C86 1.369 1_565 S
C87 C88 1.408 . S
C87 H114 0.930 . S
C88 C83 1.348 1_565 S
C88 C87 1.408 . S
C88 H115 0.930 . S
C89 O102 1.281 . S
C89 O103 1.254 . S
C90 O104 1.236 . S
C90 O105 1.266 . S
C91 Tb81 2.809 . S
C91 C92 1.514 . S
C91 O106 1.248 1_545 S
C91 O107 1.266 . S
C92 C91 1.514 . S
C92 C93 1.358 1_545 S
C92 C97 1.349 . S
C93 C92 1.358 1_565 S
C93 C94 1.380 . S
C93 H116 0.929 . S
C94 C93 1.380 . S
C94 C95 1.347 . S
C94 H117 0.931 . S
C95 C94 1.347 . S
C95 C96 1.369 1_565 S
C96 C95 1.369 1_545 S
C96 C97 1.408 . S
C96 H118 0.930 . S
C97 C92 1.349 . S
C97 C96 1.408 . S
C97 H119 0.930 . S
C98 O108 1.281 . S
C98 O109 1.254 . S
C99 O110 1.236 . S
C99 O111 1.266 . S
O100 Tb80 2.484 1_545 S
O100 C82 1.248 1_545 S
O101 Tb80 2.440 . S
O101 C82 1.266 . S
O102 Tb80 2.658 . S
O102 Tb81 2.325 1_565 S
O102 C89 1.281 . S
O103 Tb80 2.409 . S
O103 C89 1.254 . S
O104 Tb80 2.378 1_545 S
O104 C90 1.236 . S
O105 Tb81 2.341 . S
O105 C90 1.266 . S
O106 Tb81 2.484 1_565 S
O106 C91 1.248 1_565 S
O107 Tb81 2.440 . S
O107 C91 1.266 . S
O108 Tb80 2.325 1_545 S
O108 Tb81 2.658 . S
O108 C98 1.281 . S
O109 Tb81 2.409 . S
O109 C98 1.254 . S
O110 Tb81 2.378 1_565 S
O110 C99 1.236 . S
O111 Tb80 2.341 . S
O111 C99 1.266 . S
H112 C84 0.929 . S
H113 C85 0.931 . S
H114 C87 0.930 . S
H115 C88 0.930 . S
H116 C93 0.929 . S
H117 C94 0.931 . S
H118 C96 0.930 . S
H119 C97 0.930 . S
Tb120 C122 2.809 . S
Tb120 O140 2.484 1_455 S
Tb120 O141 2.440 . S
Tb120 O142 2.658 . S
Tb120 O143 2.409 . S
Tb120 O144 2.378 1_455 S
Tb120 O148 2.325 1_455 S
Tb120 O151 2.341 . S
Tb121 C131 2.809 . S
Tb121 O142 2.325 1_655 S
Tb121 O145 2.341 . S
Tb121 O146 2.484 1_655 S
Tb121 O147 2.440 . S
Tb121 O148 2.658 . S
Tb121 O149 2.409 . S
Tb121 O150 2.378 1_655 S
C122 Tb120 2.809 . S
C122 C123 1.514 . S
C122 O140 1.248 1_455 S
C122 O141 1.266 . S
C123 C122 1.514 . S
C123 C124 1.359 1_455 S
C123 C128 1.348 . S
C124 C123 1.359 1_655 S
C124 C125 1.380 . S
C124 H152 0.929 . S
C125 C124 1.380 . S
C125 C126 1.347 1_655 S
C125 H153 0.931 . S
C126 C125 1.347 1_455 S
C126 C127 1.369 . S
C127 C126 1.369 . S
C127 C128 1.408 . S
C127 H154 0.930 . S
C128 C123 1.348 . S
C128 C127 1.408 . S
C128 H155 0.930 . S
C129 O142 1.281 . S
C129 O143 1.254 . S
C130 O144 1.236 . S
C130 O145 1.266 . S
C131 Tb121 2.809 . S
C131 C132 1.514 . S
C131 O146 1.248 1_655 S
C131 O147 1.266 . S
C132 C131 1.514 . S
C132 C133 1.359 1_655 S
C132 C137 1.348 . S
C133 C132 1.359 1_455 S
C133 C134 1.380 . S
C133 H156 0.929 . S
C134 C133 1.380 . S
C134 C135 1.347 . S
C134 H157 0.931 . S
C135 C134 1.347 . S
C135 C136 1.369 1_455 S
C136 C135 1.369 1_655 S
C136 C137 1.408 . S
C136 H158 0.930 . S
C137 C132 1.348 . S
C137 C136 1.408 . S
C137 H159 0.930 . S
C138 O148 1.281 . S
C138 O149 1.254 . S
C139 O150 1.236 . S
C139 O151 1.266 . S
O140 Tb120 2.484 1_655 S
O140 C122 1.248 1_655 S
O141 Tb120 2.440 . S
O141 C122 1.266 . S
O142 Tb120 2.658 . S
O142 Tb121 2.325 1_455 S
O142 C129 1.281 . S
O143 Tb120 2.409 . S
O143 C129 1.254 . S
O144 Tb120 2.378 1_655 S
O144 C130 1.236 . S
O145 Tb121 2.341 . S
O145 C130 1.266 . S
O146 Tb121 2.484 1_455 S
O146 C131 1.248 1_455 S
O147 Tb121 2.440 . S
O147 C131 1.266 . S
O148 Tb120 2.325 1_655 S
O148 Tb121 2.658 . S
O148 C138 1.281 . S
O149 Tb121 2.409 . S
O149 C138 1.254 . S
O150 Tb121 2.378 1_455 S
O150 C139 1.236 . S
O151 Tb120 2.341 . S
O151 C139 1.266 . S
H152 C124 0.929 . S
H153 C125 0.931 . S
H154 C127 0.930 . S
H155 C128 0.930 . S
H156 C133 0.929 . S
H157 C134 0.931 . S
H158 C136 0.930 . S
H159 C137 0.930 . S
Tb160 C162 2.809 . S
Tb160 O180 2.484 . S
Tb160 O181 2.440 . S
Tb160 O182 2.658 . S
Tb160 O183 2.409 . S
Tb160 O184 2.378 . S
Tb160 O188 2.325 . S
Tb160 O191 2.341 . S
Tb161 C171 2.809 . S
Tb161 O182 2.325 . S
Tb161 O185 2.341 . S
Tb161 O186 2.484 . S
Tb161 O187 2.440 . S
Tb161 O188 2.658 . S
Tb161 O189 2.409 . S
Tb161 O190 2.378 . S
C162 Tb160 2.809 . S
C162 C163 1.514 . S
C162 O180 1.248 . S
C162 O181 1.266 . S
C163 C162 1.514 . S
C163 C164 1.359 . S
C163 C168 1.348 . S
C164 C163 1.359 . S
C164 C165 1.380 . S
C164 H192 0.929 . S
C165 C164 1.380 . S
C165 C166 1.347 . S
C165 H193 0.931 . S
C166 C165 1.347 . S
C166 C167 1.369 . S
C167 C166 1.369 . S
C167 C168 1.408 . S
C167 H194 0.930 . S
C168 C163 1.348 . S
C168 C167 1.408 . S
C168 H195 0.930 . S
C169 O182 1.281 . S
C169 O183 1.254 . S
C170 O184 1.236 . S
C170 O185 1.266 . S
C171 Tb161 2.809 . S
C171 C172 1.514 . S
C171 O186 1.248 . S
C171 O187 1.266 . S
C172 C171 1.514 . S
C172 C173 1.359 . S
C172 C177 1.348 . S
C173 C172 1.359 . S
C173 C174 1.380 . S
C173 H196 0.929 . S
C174 C173 1.380 . S
C174 C175 1.347 . S
C174 H197 0.931 . S
C175 C174 1.347 . S
C175 C176 1.369 . S
C176 C175 1.369 . S
C176 C177 1.408 . S
C176 H198 0.930 . S
C177 C172 1.348 . S
C177 C176 1.408 . S
C177 H199 0.930 . S
C178 O188 1.281 . S
C178 O189 1.254 . S
C179 O190 1.236 . S
C179 O191 1.266 . S
O180 Tb160 2.484 . S
O180 C162 1.248 . S
O181 Tb160 2.440 . S
O181 C162 1.266 . S
O182 Tb160 2.658 . S
O182 Tb161 2.325 . S
O182 C169 1.281 . S
O183 Tb160 2.409 . S
O183 C169 1.254 . S
O184 Tb160 2.378 . S
O184 C170 1.236 . S
O185 Tb161 2.341 . S
O185 C170 1.266 . S
O186 Tb161 2.484 . S
O186 C171 1.248 . S
O187 Tb161 2.440 . S
O187 C171 1.266 . S
O188 Tb160 2.325 . S
O188 Tb161 2.658 . S
O188 C178 1.281 . S
O189 Tb161 2.409 . S
O189 C178 1.254 . S
O190 Tb161 2.378 . S
O190 C179 1.236 . S
O191 Tb160 2.341 . S
O191 C179 1.266 . S
H192 C164 0.929 . S
H193 C165 0.931 . S
H194 C167 0.930 . S
H195 C168 0.930 . S
H196 C173 0.929 . S
H197 C174 0.931 . S
H198 C176 0.930 . S
H199 C177 0.930 . S
Tb200 C202 2.809 . S
Tb200 O220 2.484 1_565 S
Tb200 O221 2.440 . S
Tb200 O222 2.658 . S
Tb200 O223 2.409 . S
Tb200 O224 2.378 1_565 S
Tb200 O228 2.325 1_565 S
Tb200 O231 2.341 . S
Tb201 C211 2.809 . S
Tb201 O222 2.325 1_545 S
Tb201 O225 2.341 . S
Tb201 O226 2.484 1_545 S
Tb201 O227 2.440 . S
Tb201 O228 2.658 . S
Tb201 O229 2.409 . S
Tb201 O230 2.378 1_545 S
C202 Tb200 2.809 . S
C202 C203 1.514 1_565 S
C202 O220 1.248 1_565 S
C202 O221 1.266 . S
C203 C202 1.514 1_545 S
C203 C204 1.359 . S
C203 C208 1.348 1_545 S
C204 C203 1.359 . S
C204 C205 1.380 . S
C204 H232 0.929 . S
C205 C204 1.380 . S
C205 C206 1.347 . S
C205 H233 0.931 . S
C206 C205 1.347 . S
C206 C207 1.369 1_545 S
C207 C206 1.369 1_565 S
C207 C208 1.408 . S
C207 H234 0.930 . S
C208 C203 1.348 1_565 S
C208 C207 1.408 . S
C208 H235 0.930 . S
C209 O222 1.281 . S
C209 O223 1.254 . S
C210 O224 1.236 . S
C210 O225 1.266 . S
C211 Tb201 2.809 . S
C211 C212 1.514 . S
C211 O226 1.248 1_545 S
C211 O227 1.266 . S
C212 C211 1.514 . S
C212 C213 1.359 1_545 S
C212 C217 1.348 . S
C213 C212 1.359 1_565 S
C213 C214 1.380 . S
C213 H236 0.929 . S
C214 C213 1.380 . S
C214 C215 1.347 . S
C214 H237 0.931 . S
C215 C214 1.347 . S
C215 C216 1.369 1_565 S
C216 C215 1.369 1_545 S
C216 C217 1.408 . S
C216 H238 0.930 . S
C217 C212 1.348 . S
C217 C216 1.408 . S
C217 H239 0.930 . S
C218 O228 1.281 . S
C218 O229 1.254 . S
C219 O230 1.236 . S
C219 O231 1.266 . S
O220 Tb200 2.484 1_545 S
O220 C202 1.248 1_545 S
O221 Tb200 2.440 . S
O221 C202 1.266 . S
O222 Tb200 2.658 . S
O222 Tb201 2.325 1_565 S
O222 C209 1.281 . S
O223 Tb200 2.409 . S
O223 C209 1.254 . S
O224 Tb200 2.378 1_545 S
O224 C210 1.236 . S
O225 Tb201 2.341 . S
O225 C210 1.266 . S
O226 Tb201 2.484 1_565 S
O226 C211 1.248 1_565 S
O227 Tb201 2.440 . S
O227 C211 1.266 . S
O228 Tb200 2.325 1_545 S
O228 Tb201 2.658 . S
O228 C218 1.281 . S
O229 Tb201 2.409 . S
O229 C218 1.254 . S
O230 Tb201 2.378 1_565 S
O230 C219 1.236 . S
O231 Tb200 2.341 . S
O231 C219 1.266 . S
H232 C204 0.929 . S
H233 C205 0.931 . S
H234 C207 0.930 . S
H235 C208 0.930 . S
H236 C213 0.929 . S
H237 C214 0.931 . S
H238 C216 0.930 . S
H239 C217 0.930 . S
Tb240 C242 2.809 . S
Tb240 O260 2.484 . S
Tb240 O261 2.440 . S
Tb240 O262 2.658 . S
Tb240 O263 2.409 . S
Tb240 O264 2.378 . S
Tb240 O268 2.325 . S
Tb240 O271 2.341 . S
Tb241 C251 2.809 . S
Tb241 O262 2.325 . S
Tb241 O265 2.341 . S
Tb241 O266 2.484 . S
Tb241 O267 2.440 . S
Tb241 O268 2.658 . S
Tb241 O269 2.409 . S
Tb241 O270 2.378 . S
C242 Tb240 2.809 . S
C242 C243 1.514 . S
C242 O260 1.248 . S
C242 O261 1.266 . S
C243 C242 1.514 . S
C243 C244 1.359 . S
C243 C248 1.348 . S
C244 C243 1.359 . S
C244 C245 1.380 . S
C244 H272 0.929 . S
C245 C244 1.380 . S
C245 C246 1.347 . S
C245 H273 0.931 . S
C246 C245 1.347 . S
C246 C247 1.369 . S
C247 C246 1.369 . S
C247 C248 1.408 . S
C247 H274 0.930 . S
C248 C243 1.348 . S
C248 C247 1.408 . S
C248 H275 0.930 . S
C249 O262 1.281 . S
C249 O263 1.254 . S
C250 O264 1.236 . S
C250 O265 1.266 . S
C251 Tb241 2.809 . S
C251 C252 1.514 1_556 S
C251 O266 1.248 . S
C251 O267 1.266 . S
C252 C251 1.514 1_554 S
C252 C253 1.359 . S
C252 C257 1.348 . S
C253 C252 1.359 . S
C253 C254 1.380 . S
C253 H276 0.929 . S
C254 C253 1.380 . S
C254 C255 1.347 . S
C254 H277 0.931 . S
C255 C254 1.347 . S
C255 C256 1.369 . S
C256 C255 1.369 . S
C256 C257 1.408 . S
C256 H278 0.930 . S
C257 C252 1.348 . S
C257 C256 1.408 . S
C257 H279 0.930 . S
C258 O268 1.281 . S
C258 O269 1.254 . S
C259 O270 1.236 . S
C259 O271 1.266 . S
O260 Tb240 2.484 . S
O260 C242 1.248 . S
O261 Tb240 2.440 . S
O261 C242 1.266 . S
O262 Tb240 2.658 . S
O262 Tb241 2.325 . S
O262 C249 1.281 . S
O263 Tb240 2.409 . S
O263 C249 1.254 . S
O264 Tb240 2.378 . S
O264 C250 1.236 . S
O265 Tb241 2.341 . S
O265 C250 1.266 . S
O266 Tb241 2.484 . S
O266 C251 1.248 . S
O267 Tb241 2.440 . S
O267 C251 1.266 . S
O268 Tb240 2.325 . S
O268 Tb241 2.658 . S
O268 C258 1.281 . S
O269 Tb241 2.409 . S
O269 C258 1.254 . S
O270 Tb241 2.378 . S
O270 C259 1.236 . S
O271 Tb240 2.341 . S
O271 C259 1.266 . S
H272 C244 0.929 . S
H273 C245 0.931 . S
H274 C247 0.930 . S
H275 C248 0.930 . S
H276 C253 0.929 . S
H277 C254 0.931 . S
H278 C256 0.930 . S
H279 C257 0.930 . S
Tb280 C282 2.809 . S
Tb280 O300 2.484 . S
Tb280 O301 2.440 . S
Tb280 O302 2.658 . S
Tb280 O303 2.409 . S
Tb280 O304 2.378 . S
Tb280 O308 2.325 . S
Tb280 O311 2.341 . S
Tb281 C291 2.809 . S
Tb281 O302 2.325 . S
Tb281 O305 2.341 . S
Tb281 O306 2.484 . S
Tb281 O307 2.440 . S
Tb281 O308 2.658 . S
Tb281 O309 2.409 . S
Tb281 O310 2.378 . S
C282 Tb280 2.809 . S
C282 C283 1.514 . S
C282 O300 1.248 . S
C282 O301 1.266 . S
C283 C282 1.514 . S
C283 C284 1.359 . S
C283 C288 1.348 . S
C284 C283 1.359 . S
C284 C285 1.380 . S
C284 H312 0.929 . S
C285 C284 1.380 . S
C285 C286 1.347 . S
C285 H313 0.931 . S
C286 C285 1.347 . S
C286 C287 1.369 . S
C287 C286 1.369 . S
C287 C288 1.408 . S
C287 H314 0.930 . S
C288 C283 1.348 . S
C288 C287 1.408 . S
C288 H315 0.930 . S
C289 O302 1.281 . S
C289 O303 1.254 . S
C290 O304 1.236 . S
C290 O305 1.266 . S
C291 Tb281 2.809 . S
C291 C292 1.514 1_556 S
C291 O306 1.248 . S
C291 O307 1.266 . S
C292 C291 1.514 1_554 S
C292 C293 1.359 . S
C292 C297 1.348 . S
C293 C292 1.359 . S
C293 C294 1.380 . S
C293 H316 0.929 . S
C294 C293 1.380 . S
C294 C295 1.347 . S
C294 H317 0.931 . S
C295 C294 1.347 . S
C295 C296 1.369 . S
C296 C295 1.369 . S
C296 C297 1.408 . S
C296 H318 0.930 . S
C297 C292 1.348 . S
C297 C296 1.408 . S
C297 H319 0.930 . S
C298 O308 1.281 . S
C298 O309 1.254 . S
C299 O310 1.236 . S
C299 O311 1.266 . S
O300 Tb280 2.484 . S
O300 C282 1.248 . S
O301 Tb280 2.440 . S
O301 C282 1.266 . S
O302 Tb280 2.658 . S
O302 Tb281 2.325 . S
O302 C289 1.281 . S
O303 Tb280 2.409 . S
O303 C289 1.254 . S
O304 Tb280 2.378 . S
O304 C290 1.236 . S
O305 Tb281 2.341 . S
O305 C290 1.266 . S
O306 Tb281 2.484 . S
O306 C291 1.248 . S
O307 Tb281 2.440 . S
O307 C291 1.266 . S
O308 Tb280 2.325 . S
O308 Tb281 2.658 . S
O308 C298 1.281 . S
O309 Tb281 2.409 . S
O309 C298 1.254 . S
O310 Tb281 2.378 . S
O310 C299 1.236 . S
O311 Tb280 2.341 . S
O311 C299 1.266 . S
H312 C284 0.929 . S
H313 C285 0.931 . S
H314 C287 0.930 . S
H315 C288 0.930 . S
H316 C293 0.929 . S
H317 C294 0.931 . S
H318 C296 0.930 . S
H319 C297 0.930 . S
Tb320 C322 2.809 . S
Tb320 O340 2.484 . S
Tb320 O341 2.440 . S
Tb320 O342 2.658 . S
Tb320 O343 2.409 . S
Tb320 O344 2.378 . S
Tb320 O348 2.325 . S
Tb320 O351 2.341 . S
Tb321 C331 2.809 . S
Tb321 O342 2.325 . S
Tb321 O345 2.341 . S
Tb321 O346 2.484 . S
Tb321 O347 2.440 . S
Tb321 O348 2.658 . S
Tb321 O349 2.409 . S
Tb321 O350 2.378 . S
C322 Tb320 2.809 . S
C322 C323 1.514 . S
C322 O340 1.248 . S
C322 O341 1.266 . S
C323 C322 1.514 . S
C323 C324 1.359 . S
C323 C328 1.348 . S
C324 C323 1.359 . S
C324 C325 1.380 . S
C324 H352 0.929 . S
C325 C324 1.380 . S
C325 C326 1.347 . S
C325 H353 0.931 . S
C326 C325 1.347 . S
C326 C327 1.369 . S
C327 C326 1.369 . S
C327 C328 1.408 . S
C327 H354 0.930 . S
C328 C323 1.348 . S
C328 C327 1.408 . S
C328 H355 0.930 . S
C329 O342 1.281 . S
C329 O343 1.254 . S
C330 O344 1.236 . S
C330 O345 1.266 . S
C331 Tb321 2.809 . S
C331 C332 1.514 1_556 S
C331 O346 1.248 . S
C331 O347 1.266 . S
C332 C331 1.514 1_554 S
C332 C333 1.359 . S
C332 C337 1.348 . S
C333 C332 1.359 . S
C333 C334 1.380 . S
C333 H356 0.929 . S
C334 C333 1.380 . S
C334 C335 1.347 . S
C334 H357 0.931 . S
C335 C334 1.347 . S
C335 C336 1.369 . S
C336 C335 1.369 . S
C336 C337 1.408 . S
C336 H358 0.930 . S
C337 C332 1.348 . S
C337 C336 1.408 . S
C337 H359 0.930 . S
C338 O348 1.281 . S
C338 O349 1.254 . S
C339 O350 1.236 . S
C339 O351 1.266 . S
O340 Tb320 2.484 . S
O340 C322 1.248 . S
O341 Tb320 2.440 . S
O341 C322 1.266 . S
O342 Tb320 2.658 . S
O342 Tb321 2.325 . S
O342 C329 1.281 . S
O343 Tb320 2.409 . S
O343 C329 1.254 . S
O344 Tb320 2.378 . S
O344 C330 1.236 . S
O345 Tb321 2.341 . S
O345 C330 1.266 . S
O346 Tb321 2.484 . S
O346 C331 1.248 . S
O347 Tb321 2.440 . S
O347 C331 1.266 . S
O348 Tb320 2.325 . S
O348 Tb321 2.658 . S
O348 C338 1.281 . S
O349 Tb321 2.409 . S
O349 C338 1.254 . S
O350 Tb321 2.378 . S
O350 C339 1.236 . S
O351 Tb320 2.341 . S
O351 C339 1.266 . S
H352 C324 0.929 . S
H353 C325 0.931 . S
H354 C327 0.930 . S
H355 C328 0.930 . S
H356 C333 0.929 . S
H357 C334 0.931 . S
H358 C336 0.930 . S
H359 C337 0.930 . S
Tb360 C362 2.800 1_556 S
Tb360 O380 2.484 . S
Tb360 O381 2.440 . S
Tb360 O382 2.658 . S
Tb360 O383 2.409 . S
Tb360 O384 2.378 . S
Tb360 O388 2.325 . S
Tb360 O391 2.341 . S
Tb361 C371 2.809 . S
Tb361 O382 2.325 . S
Tb361 O385 2.341 . S
Tb361 O386 2.484 . S
Tb361 O387 2.440 . S
Tb361 O388 2.658 . S
Tb361 O389 2.409 . S
Tb361 O390 2.378 . S
C362 Tb360 2.800 1_554 S
C362 C363 1.523 . S
C362 O380 1.244 1_554 S
C362 O381 1.262 1_554 S
C363 C362 1.523 . S
C363 C364 1.359 . S
C363 C368 1.348 . S
C364 C363 1.359 . S
C364 C365 1.380 . S
C364 H392 0.929 . S
C365 C364 1.380 . S
C365 C366 1.347 . S
C365 H393 0.931 . S
C366 C365 1.347 . S
C366 C367 1.369 . S
C367 C366 1.369 . S
C367 C368 1.408 . S
C367 H394 0.930 . S
C368 C363 1.348 . S
C368 C367 1.408 . S
C368 H395 0.930 . S
C369 O382 1.281 . S
C369 O383 1.254 . S
C370 O384 1.236 . S
C370 O385 1.266 . S
C371 Tb361 2.809 . S
C371 C372 1.514 . S
C371 O386 1.248 . S
C371 O387 1.266 . S
C372 C371 1.514 . S
C372 C373 1.359 . S
C372 C377 1.348 . S
C373 C372 1.359 . S
C373 C374 1.380 . S
C373 H396 0.929 . S
C374 C373 1.380 . S
C374 C375 1.347 . S
C374 H397 0.931 . S
C375 C374 1.347 . S
C375 C376 1.369 . S
C376 C375 1.369 . S
C376 C377 1.408 . S
C376 H398 0.930 . S
C377 C372 1.348 . S
C377 C376 1.408 . S
C377 H399 0.930 . S
C378 O388 1.281 . S
C378 O389 1.254 . S
C379 O390 1.236 . S
C379 O391 1.266 . S
O380 Tb360 2.484 . S
O380 C362 1.244 1_556 S
O381 Tb360 2.440 . S
O381 C362 1.262 1_556 S
O382 Tb360 2.658 . S
O382 Tb361 2.325 . S
O382 C369 1.281 . S
O383 Tb360 2.409 . S
O383 C369 1.254 . S
O384 Tb360 2.378 . S
O384 C370 1.236 . S
O385 Tb361 2.341 . S
O385 C370 1.266 . S
O386 Tb361 2.484 . S
O386 C371 1.248 . S
O387 Tb361 2.440 . S
O387 C371 1.266 . S
O388 Tb360 2.325 . S
O388 Tb361 2.658 . S
O388 C378 1.281 . S
O389 Tb361 2.409 . S
O389 C378 1.254 . S
O390 Tb361 2.378 . S
O390 C379 1.236 . S
O391 Tb360 2.341 . S
O391 C379 1.266 . S
H392 C364 0.929 . S
H393 C365 0.931 . S
H394 C367 0.930 . S
H395 C368 0.930 . S
H396 C373 0.929 . S
H397 C374 0.931 . S
H398 C376 0.930 . S
H399 C377 0.930 . S
Tb400 C402 2.809 1_556 S
Tb400 O420 2.484 . S
Tb400 O421 2.440 1_556 S
Tb400 O422 2.658 . S
Tb400 O423 2.409 . S
Tb400 O424 2.378 . S
Tb400 O428 2.325 . S
Tb400 O431 2.341 . S
Tb401 C411 2.809 . S
Tb401 O422 2.325 . S
Tb401 O425 2.341 . S
Tb401 O426 2.484 . S
Tb401 O427 2.440 . S
Tb401 O428 2.658 . S
Tb401 O429 2.409 . S
Tb401 O430 2.378 . S
C402 Tb400 2.809 1_554 S
C402 C403 1.514 . S
C402 O420 1.248 1_554 S
C402 O421 1.266 . S
C403 C402 1.514 . S
C403 C404 1.359 . S
C403 C408 1.348 . S
C404 C403 1.359 . S
C404 C405 1.380 . S
C404 H432 0.929 . S
C405 C404 1.380 . S
C405 C406 1.347 . S
C405 H433 0.931 . S
C406 C405 1.347 . S
C406 C407 1.369 . S
C407 C406 1.369 . S
C407 C408 1.408 . S
C407 H434 0.930 . S
C408 C403 1.348 . S
C408 C407 1.408 . S
C408 H435 0.930 . S
C409 O422 1.281 . S
C409 O423 1.254 . S
C410 O424 1.236 . S
C410 O425 1.266 . S
C411 Tb401 2.809 . S
C411 C412 1.514 . S
C411 O426 1.248 . S
C411 O427 1.266 . S
C412 C411 1.514 . S
C412 C413 1.359 . S
C412 C417 1.348 . S
C413 C412 1.359 . S
C413 C414 1.380 . S
C413 H436 0.929 . S
C414 C413 1.380 . S
C414 C415 1.347 . S
C414 H437 0.931 . S
C415 C414 1.347 . S
C415 C416 1.369 . S
C416 C415 1.369 . S
C416 C417 1.408 . S
C416 H438 0.930 . S
C417 C412 1.348 . S
C417 C416 1.408 . S
C417 H439 0.930 . S
C418 O428 1.281 . S
C418 O429 1.254 . S
C419 O430 1.236 . S
C419 O431 1.266 . S
O420 Tb400 2.484 . S
O420 C402 1.248 1_556 S
O421 Tb400 2.440 1_554 S
O421 C402 1.266 . S
O422 Tb400 2.658 . S
O422 Tb401 2.325 . S
O422 C409 1.281 . S
O423 Tb400 2.409 . S
O423 C409 1.254 . S
O424 Tb400 2.378 . S
O424 C410 1.236 . S
O425 Tb401 2.341 . S
O425 C410 1.266 . S
O426 Tb401 2.484 . S
O426 C411 1.248 . S
O427 Tb401 2.440 . S
O427 C411 1.266 . S
O428 Tb400 2.325 . S
O428 Tb401 2.658 . S
O428 C418 1.281 . S
O429 Tb401 2.409 . S
O429 C418 1.254 . S
O430 Tb401 2.378 . S
O430 C419 1.236 . S
O431 Tb400 2.341 . S
O431 C419 1.266 . S
H432 C404 0.929 . S
H433 C405 0.931 . S
H434 C407 0.930 . S
H435 C408 0.930 . S
H436 C413 0.929 . S
H437 C414 0.931 . S
H438 C416 0.930 . S
H439 C417 0.930 . S
Tb440 C442 2.808 . S
Tb440 O460 2.484 . S
Tb440 O461 2.440 . S
Tb440 O462 2.658 . S
Tb440 O463 2.409 . S
Tb440 O464 2.378 . S
Tb440 O468 2.325 . S
Tb440 O471 2.341 . S
Tb441 C451 2.809 . S
Tb441 O462 2.325 . S
Tb441 O465 2.341 . S
Tb441 O466 2.484 . S
Tb441 O467 2.440 . S
Tb441 O468 2.658 . S
Tb441 O469 2.409 . S
Tb441 O470 2.378 . S
C442 Tb440 2.808 . S
C442 C443 1.514 1_556 S
C442 O460 1.248 . S
C442 O461 1.266 . S
C443 C442 1.514 1_554 S
C443 C444 1.359 . S
C443 C448 1.348 . S
C444 C443 1.359 . S
C444 C445 1.380 . S
C444 H472 0.929 . S
C445 C444 1.380 . S
C445 C446 1.347 . S
C445 H473 0.931 . S
C446 C445 1.347 . S
C446 C447 1.369 . S
C447 C446 1.369 . S
C447 C448 1.408 . S
C447 H474 0.930 . S
C448 C443 1.348 . S
C448 C447 1.408 . S
C448 H475 0.930 . S
C449 O462 1.281 . S
C449 O463 1.254 . S
C450 O464 1.236 . S
C450 O465 1.266 . S
C451 Tb441 2.809 . S
C451 C452 1.514 . S
C451 O466 1.248 . S
C451 O467 1.266 . S
C452 C451 1.514 . S
C452 C453 1.359 . S
C452 C457 1.348 . S
C453 C452 1.359 . S
C453 C454 1.380 . S
C453 H476 0.929 . S
C454 C453 1.380 . S
C454 C455 1.347 . S
C454 H477 0.931 . S
C455 C454 1.347 . S
C455 C456 1.369 . S
C456 C455 1.369 . S
C456 C457 1.408 . S
C456 H478 0.930 . S
C457 C452 1.348 . S
C457 C456 1.408 . S
C457 H479 0.930 . S
C458 O468 1.281 . S
C458 O469 1.254 . S
C459 O470 1.236 . S
C459 O471 1.266 . S
O460 Tb440 2.484 . S
O460 C442 1.248 . S
O461 Tb440 2.440 . S
O461 C442 1.266 . S
O462 Tb440 2.658 . S
O462 Tb441 2.325 . S
O462 C449 1.281 . S
O463 Tb440 2.409 . S
O463 C449 1.254 . S
O464 Tb440 2.378 . S
O464 C450 1.236 . S
O465 Tb441 2.341 . S
O465 C450 1.266 . S
O466 Tb441 2.484 . S
O466 C451 1.248 . S
O467 Tb441 2.440 . S
O467 C451 1.266 . S
O468 Tb440 2.325 . S
O468 Tb441 2.658 . S
O468 C458 1.281 . S
O469 Tb441 2.409 . S
O469 C458 1.254 . S
O470 Tb441 2.378 . S
O470 C459 1.236 . S
O471 Tb440 2.341 . S
O471 C459 1.266 . S
H472 C444 0.929 . S
H473 C445 0.931 . S
H474 C447 0.930 . S
H475 C448 0.930 . S
H476 C453 0.929 . S
H477 C454 0.931 . S
H478 C456 0.930 . S
H479 C457 0.930 . S
Tb480 C482 2.809 . S
Tb480 O500 2.484 . S
Tb480 O501 2.440 . S
Tb480 O502 2.658 . S
Tb480 O503 2.409 . S
Tb480 O504 2.378 . S
Tb480 O508 2.325 . S
Tb480 O511 2.341 . S
Tb481 C491 2.809 1_554 S
Tb481 O502 2.325 . S
Tb481 O505 2.341 . S
Tb481 O506 2.484 1_554 S
Tb481 O507 2.440 1_554 S
Tb481 O508 2.658 . S
Tb481 O509 2.409 . S
Tb481 O510 2.378 . S
C482 Tb480 2.809 . S
C482 C483 1.514 . S
C482 O500 1.248 . S
C482 O501 1.266 . S
C483 C482 1.514 . S
C483 C484 1.359 . S
C483 C488 1.348 . S
C484 C483 1.359 . S
C484 C485 1.380 . S
C484 H512 0.929 . S
C485 C484 1.380 . S
C485 C486 1.347 . S
C485 H513 0.931 . S
C486 C485 1.347 . S
C486 C487 1.369 . S
C487 C486 1.369 . S
C487 C488 1.408 . S
C487 H514 0.930 . S
C488 C483 1.348 . S
C488 C487 1.408 . S
C488 H515 0.930 . S
C489 O502 1.281 . S
C489 O503 1.254 . S
C490 O504 1.236 . S
C490 O505 1.266 . S
C491 Tb481 2.809 1_556 S
C491 C492 1.514 . S
C491 O506 1.248 . S
C491 O507 1.266 . S
C492 C491 1.514 . S
C492 C493 1.359 . S
C492 C497 1.348 . S
C493 C492 1.359 . S
C493 C494 1.380 . S
C493 H516 0.929 . S
C494 C493 1.380 . S
C494 C495 1.347 . S
C494 H517 0.931 . S
C495 C494 1.347 . S
C495 C496 1.369 . S
C496 C495 1.369 . S
C496 C497 1.408 . S
C496 H518 0.930 . S
C497 C492 1.348 . S
C497 C496 1.408 . S
C497 H519 0.930 . S
C498 O508 1.281 . S
C498 O509 1.254 . S
C499 O510 1.236 . S
C499 O511 1.266 . S
O500 Tb480 2.484 . S
O500 C482 1.248 . S
O501 Tb480 2.440 . S
O501 C482 1.266 . S
O502 Tb480 2.658 . S
O502 Tb481 2.325 . S
O502 C489 1.281 . S
O503 Tb480 2.409 . S
O503 C489 1.254 . S
O504 Tb480 2.378 . S
O504 C490 1.236 . S
O505 Tb481 2.341 . S
O505 C490 1.266 . S
O506 Tb481 2.484 1_556 S
O506 C491 1.248 . S
O507 Tb481 2.440 1_556 S
O507 C491 1.266 . S
O508 Tb480 2.325 . S
O508 Tb481 2.658 . S
O508 C498 1.281 . S
O509 Tb481 2.409 . S
O509 C498 1.254 . S
O510 Tb481 2.378 . S
O510 C499 1.236 . S
O511 Tb480 2.341 . S
O511 C499 1.266 . S
H512 C484 0.929 . S
H513 C485 0.931 . S
H514 C487 0.930 . S
H515 C488 0.930 . S
H516 C493 0.929 . S
H517 C494 0.931 . S
H518 C496 0.930 . S
H519 C497 0.930 . S
Tb520 C522 2.809 1_554 S
Tb520 O540 2.484 1_554 S
Tb520 O541 2.440 1_554 S
Tb520 O542 2.658 . S
Tb520 O543 2.409 . S
Tb520 O544 2.378 . S
Tb520 O548 2.325 . S
Tb520 O551 2.341 . S
Tb521 C531 2.809 . S
Tb521 O542 2.325 . S
Tb521 O545 2.341 . S
Tb521 O546 2.484 . S
Tb521 O547 2.440 . S
Tb521 O548 2.658 . S
Tb521 O549 2.409 . S
Tb521 O550 2.378 . S
C522 Tb520 2.809 1_556 S
C522 C523 1.514 . S
C522 O540 1.248 . S
C522 O541 1.266 . S
C523 C522 1.514 . S
C523 C524 1.359 . S
C523 C528 1.348 . S
C524 C523 1.359 . S
C524 C525 1.380 . S
C524 H552 0.929 . S
C525 C524 1.380 . S
C525 C526 1.347 . S
C525 H553 0.931 . S
C526 C525 1.347 . S
C526 C527 1.369 . S
C527 C526 1.369 . S
C527 C528 1.408 . S
C527 H554 0.930 . S
C528 C523 1.348 . S
C528 C527 1.408 . S
C528 H555 0.930 . S
C529 O542 1.281 . S
C529 O543 1.254 . S
C530 O544 1.236 . S
C530 O545 1.266 . S
C531 Tb521 2.809 . S
C531 C532 1.514 . S
C531 O546 1.248 . S
C531 O547 1.266 . S
C532 C531 1.514 . S
C532 C533 1.359 . S
C532 C537 1.348 . S
C533 C532 1.359 . S
C533 C534 1.380 . S
C533 H556 0.929 . S
C534 C533 1.380 . S
C534 C535 1.347 . S
C534 H557 0.931 . S
C535 C534 1.347 . S
C535 C536 1.369 . S
C536 C535 1.369 . S
C536 C537 1.408 . S
C536 H558 0.930 . S
C537 C532 1.348 . S
C537 C536 1.408 . S
C537 H559 0.930 . S
C538 O548 1.281 . S
C538 O549 1.254 . S
C539 O550 1.236 . S
C539 O551 1.266 . S
O540 Tb520 2.484 1_556 S
O540 C522 1.248 . S
O541 Tb520 2.440 1_556 S
O541 C522 1.266 . S
O542 Tb520 2.658 . S
O542 Tb521 2.325 . S
O542 C529 1.281 . S
O543 Tb520 2.409 . S
O543 C529 1.254 . S
O544 Tb520 2.378 . S
O544 C530 1.236 . S
O545 Tb521 2.341 . S
O545 C530 1.266 . S
O546 Tb521 2.484 . S
O546 C531 1.248 . S
O547 Tb521 2.440 . S
O547 C531 1.266 . S
O548 Tb520 2.325 . S
O548 Tb521 2.658 . S
O548 C538 1.281 . S
O549 Tb521 2.409 . S
O549 C538 1.254 . S
O550 Tb521 2.378 . S
O550 C539 1.236 . S
O551 Tb520 2.341 . S
O551 C539 1.266 . S
H552 C524 0.929 . S
H553 C525 0.931 . S
H554 C527 0.930 . S
H555 C528 0.930 . S
H556 C533 0.929 . S
H557 C534 0.931 . S
H558 C536 0.930 . S
H559 C537 0.930 . S
Tb560 C562 2.809 . S
Tb560 O580 2.484 . S
Tb560 O581 2.440 . S
Tb560 O582 2.658 . S
Tb560 O583 2.409 . S
Tb560 O584 2.378 . S
Tb560 O588 2.325 . S
Tb560 O591 2.341 . S
Tb561 C571 2.809 1_554 S
Tb561 O582 2.325 . S
Tb561 O585 2.341 . S
Tb561 O586 2.484 . S
Tb561 O587 2.440 . S
Tb561 O588 2.658 . S
Tb561 O589 2.409 . S
Tb561 O590 2.378 . S
C562 Tb560 2.809 . S
C562 C563 1.514 . S
C562 O580 1.248 . S
C562 O581 1.266 . S
C563 C562 1.514 . S
C563 C564 1.359 . S
C563 C568 1.348 . S
C564 C563 1.359 . S
C564 C565 1.380 . S
C564 H592 0.929 . S
C565 C564 1.380 . S
C565 C566 1.347 . S
C565 H593 0.931 . S
C566 C565 1.347 . S
C566 C567 1.369 . S
C567 C566 1.369 . S
C567 C568 1.408 . S
C567 H594 0.930 . S
C568 C563 1.348 . S
C568 C567 1.408 . S
C568 H595 0.930 . S
C569 O582 1.281 . S
C569 O583 1.254 . S
C570 O584 1.236 . S
C570 O585 1.266 . S
C571 Tb561 2.809 1_556 S
C571 C572 1.514 . S
C571 O586 1.248 1_556 S
C571 O587 1.266 1_556 S
C572 C571 1.514 . S
C572 C573 1.359 . S
C572 C577 1.348 . S
C573 C572 1.359 . S
C573 C574 1.380 . S
C573 H596 0.929 . S
C574 C573 1.380 . S
C574 C575 1.347 . S
C574 H597 0.931 . S
C575 C574 1.347 . S
C575 C576 1.369 . S
C576 C575 1.369 . S
C576 C577 1.408 . S
C576 H598 0.930 . S
C577 C572 1.348 . S
C577 C576 1.408 . S
C577 H599 0.930 . S
C578 O588 1.281 . S
C578 O589 1.254 . S
C579 O590 1.236 . S
C579 O591 1.266 . S
O580 Tb560 2.484 . S
O580 C562 1.248 . S
O581 Tb560 2.440 . S
O581 C562 1.266 . S
O582 Tb560 2.658 . S
O582 Tb561 2.325 . S
O582 C569 1.281 . S
O583 Tb560 2.409 . S
O583 C569 1.254 . S
O584 Tb560 2.378 . S
O584 C570 1.236 . S
O585 Tb561 2.341 . S
O585 C570 1.266 . S
O586 Tb561 2.484 . S
O586 C571 1.248 1_554 S
O587 Tb561 2.440 . S
O587 C571 1.266 1_554 S
O588 Tb560 2.325 . S
O588 Tb561 2.658 . S
O588 C578 1.281 . S
O589 Tb561 2.409 . S
O589 C578 1.254 . S
O590 Tb561 2.378 . S
O590 C579 1.236 . S
O591 Tb560 2.341 . S
O591 C579 1.266 . S
H592 C564 0.929 . S
H593 C565 0.931 . S
H594 C567 0.930 . S
H595 C568 0.930 . S
H596 C573 0.929 . S
H597 C574 0.931 . S
H598 C576 0.930 . S
H599 C577 0.930 . S
Tb600 C602 2.809 . S
Tb600 O620 2.484 . S
Tb600 O621 2.440 . S
Tb600 O622 2.658 . S
Tb600 O623 2.409 . S
Tb600 O624 2.378 . S
Tb600 O628 2.325 . S
Tb600 O631 2.341 . S
Tb601 C611 2.809 1_554 S
Tb601 O622 2.325 . S
Tb601 O625 2.341 . S
Tb601 O626 2.484 . S
Tb601 O627 2.455 . S
Tb601 O628 2.658 . S
Tb601 O629 2.409 . S
Tb601 O630 2.378 . S
C602 Tb600 2.809 . S
C602 C603 1.514 . S
C602 O620 1.248 . S
C602 O621 1.266 . S
C603 C602 1.514 . S
C603 C604 1.359 . S
C603 C608 1.348 . S
C604 C603 1.359 . S
C604 C605 1.380 . S
C604 H632 0.929 . S
C605 C604 1.380 . S
C605 C606 1.347 . S
C605 H633 0.931 . S
C606 C605 1.347 . S
C606 C607 1.369 . S
C607 C606 1.369 . S
C607 C608 1.408 . S
C607 H634 0.930 . S
C608 C603 1.348 . S
C608 C607 1.408 . S
C608 H635 0.930 . S
C609 O622 1.281 . S
C609 O623 1.254 . S
C610 O624 1.236 . S
C610 O625 1.266 . S
C611 Tb601 2.809 1_556 S
C611 C612 1.514 . S
C611 O626 1.248 1_556 S
C611 O627 1.258 1_556 S
C612 C611 1.514 . S
C612 C613 1.359 . S
C612 C617 1.348 . S
C613 C612 1.359 . S
C613 C614 1.380 . S
C613 H636 0.929 . S
C614 C613 1.380 . S
C614 C615 1.347 . S
C614 H637 0.931 . S
C615 C614 1.347 . S
C615 C616 1.369 . S
C616 C615 1.369 . S
C616 C617 1.408 . S
C616 H638 0.930 . S
C617 C612 1.348 . S
C617 C616 1.408 . S
C617 H639 0.930 . S
C618 O628 1.281 . S
C618 O629 1.254 . S
C619 O630 1.236 . S
C619 O631 1.266 . S
O620 Tb600 2.484 . S
O620 C602 1.248 . S
O621 Tb600 2.440 . S
O621 C602 1.266 . S
O622 Tb600 2.658 . S
O622 Tb601 2.325 . S
O622 C609 1.281 . S
O623 Tb600 2.409 . S
O623 C609 1.254 . S
O624 Tb600 2.378 . S
O624 C610 1.236 . S
O625 Tb601 2.341 . S
O625 C610 1.266 . S
O626 Tb601 2.484 . S
O626 C611 1.248 1_554 S
O627 Tb601 2.455 . S
O627 C611 1.258 1_554 S
O628 Tb600 2.325 . S
O628 Tb601 2.658 . S
O628 C618 1.281 . S
O629 Tb601 2.409 . S
O629 C618 1.254 . S
O630 Tb601 2.378 . S
O630 C619 1.236 . S
O631 Tb600 2.341 . S
O631 C619 1.266 . S
H632 C604 0.929 . S
H633 C605 0.931 . S
H634 C607 0.930 . S
H635 C608 0.930 . S
H636 C613 0.929 . S
H637 C614 0.931 . S
H638 C616 0.930 . S
H639 C617 0.930 . S
Tb640 C642 2.809 . S
Tb640 O660 2.484 . S
Tb640 O661 2.440 . S
Tb640 O662 2.658 . S
Tb640 O663 2.409 . S
Tb640 O664 2.378 . S
Tb640 O668 2.325 . S
Tb640 O671 2.341 . S
Tb641 C651 2.809 . S
Tb641 O662 2.325 . S
Tb641 O665 2.341 . S
Tb641 O666 2.484 . S
Tb641 O667 2.440 . S
Tb641 O668 2.658 . S
Tb641 O669 2.409 . S
Tb641 O670 2.378 . S
C642 Tb640 2.809 . S
C642 C643 1.514 1_554 S
C642 O660 1.248 . S
C642 O661 1.266 . S
C643 C642 1.514 1_556 S
C643 C644 1.359 . S
C643 C648 1.348 . S
C644 C643 1.359 . S
C644 C645 1.380 . S
C644 H672 0.929 . S
C645 C644 1.380 . S
C645 C646 1.347 . S
C645 H673 0.931 . S
C646 C645 1.347 . S
C646 C647 1.369 . S
C647 C646 1.369 . S
C647 C648 1.408 . S
C647 H674 0.930 . S
C648 C643 1.348 . S
C648 C647 1.408 . S
C648 H675 0.930 . S
C649 O662 1.281 . S
C649 O663 1.254 . S
C650 O664 1.236 . S
C650 O665 1.266 . S
C651 Tb641 2.809 . S
C651 C652 1.514 . S
C651 O666 1.248 . S
C651 O667 1.266 . S
C652 C651 1.514 . S
C652 C653 1.359 . S
C652 C657 1.348 . S
C653 C652 1.359 . S
C653 C654 1.380 . S
C653 H676 0.929 . S
C654 C653 1.380 . S
C654 C655 1.347 . S
C654 H677 0.931 . S
C655 C654 1.347 . S
C655 C656 1.369 . S
C656 C655 1.369 . S
C656 C657 1.408 . S
C656 H678 0.930 . S
C657 C652 1.348 . S
C657 C656 1.408 . S
C657 H679 0.930 . S
C658 O668 1.281 . S
C658 O669 1.254 . S
C659 O670 1.236 . S
C659 O671 1.266 . S
O660 Tb640 2.484 . S
O660 C642 1.248 . S
O661 Tb640 2.440 . S
O661 C642 1.266 . S
O662 Tb640 2.658 . S
O662 Tb641 2.325 . S
O662 C649 1.281 . S
O663 Tb640 2.409 . S
O663 C649 1.254 . S
O664 Tb640 2.378 . S
O664 C650 1.236 . S
O665 Tb641 2.341 . S
O665 C650 1.266 . S
O666 Tb641 2.484 . S
O666 C651 1.248 . S
O667 Tb641 2.440 . S
O667 C651 1.266 . S
O668 Tb640 2.325 . S
O668 Tb641 2.658 . S
O668 C658 1.281 . S
O669 Tb641 2.409 . S
O669 C658 1.254 . S
O670 Tb641 2.378 . S
O670 C659 1.236 . S
O671 Tb640 2.341 . S
O671 C659 1.266 . S
H672 C644 0.929 . S
H673 C645 0.931 . S
H674 C647 0.930 . S
H675 C648 0.930 . S
H676 C653 0.929 . S
H677 C654 0.931 . S
H678 C656 0.930 . S
H679 C657 0.930 . S
Tb680 C682 2.809 . S
Tb680 O700 2.484 . S
Tb680 O701 2.440 . S
Tb680 O702 2.658 . S
Tb680 O703 2.409 . S
Tb680 O704 2.378 . S
Tb680 O708 2.325 . S
Tb680 O711 2.341 . S
Tb681 C691 2.809 . S
Tb681 O702 2.325 . S
Tb681 O705 2.341 . S
Tb681 O706 2.484 . S
Tb681 O707 2.440 . S
Tb681 O708 2.658 . S
Tb681 O709 2.409 . S
Tb681 O710 2.378 . S
C682 Tb680 2.809 . S
C682 C683 1.514 . S
C682 O700 1.248 . S
C682 O701 1.266 . S
C683 C682 1.514 . S
C683 C684 1.359 . S
C683 C688 1.348 . S
C684 C683 1.359 . S
C684 C685 1.380 . S
C684 H712 0.929 . S
C685 C684 1.380 . S
C685 C686 1.347 . S
C685 H713 0.931 . S
C686 C685 1.347 . S
C686 C687 1.369 . S
C687 C686 1.369 . S
C687 C688 1.408 . S
C687 H714 0.930 . S
C688 C683 1.348 . S
C688 C687 1.408 . S
C688 H715 0.930 . S
C689 O702 1.281 . S
C689 O703 1.254 . S
C690 O704 1.236 . S
C690 O705 1.266 . S
C691 Tb681 2.809 . S
C691 C692 1.514 1_554 S
C691 O706 1.248 . S
C691 O707 1.266 . S
C692 C691 1.514 1_556 S
C692 C693 1.359 . S
C692 C697 1.348 . S
C693 C692 1.359 . S
C693 C694 1.380 . S
C693 H716 0.929 . S
C694 C693 1.380 . S
C694 C695 1.347 . S
C694 H717 0.931 . S
C695 C694 1.347 . S
C695 C696 1.369 . S
C696 C695 1.369 . S
C696 C697 1.408 . S
C696 H718 0.930 . S
C697 C692 1.348 . S
C697 C696 1.408 . S
C697 H719 0.930 . S
C698 O708 1.281 . S
C698 O709 1.254 . S
C699 O710 1.236 . S
C699 O711 1.266 . S
O700 Tb680 2.484 . S
O700 C682 1.248 . S
O701 Tb680 2.440 . S
O701 C682 1.266 . S
O702 Tb680 2.658 . S
O702 Tb681 2.325 . S
O702 C689 1.281 . S
O703 Tb680 2.409 . S
O703 C689 1.254 . S
O704 Tb680 2.378 . S
O704 C690 1.236 . S
O705 Tb681 2.341 . S
O705 C690 1.266 . S
O706 Tb681 2.484 . S
O706 C691 1.248 . S
O707 Tb681 2.440 . S
O707 C691 1.266 . S
O708 Tb680 2.325 . S
O708 Tb681 2.658 . S
O708 C698 1.281 . S
O709 Tb681 2.409 . S
O709 C698 1.254 . S
O710 Tb681 2.378 . S
O710 C699 1.236 . S
O711 Tb680 2.341 . S
O711 C699 1.266 . S
H712 C684 0.929 . S
H713 C685 0.931 . S
H714 C687 0.930 . S
H715 C688 0.930 . S
H716 C693 0.929 . S
H717 C694 0.931 . S
H718 C696 0.930 . S
H719 C697 0.930 . S
C720 C721 1.363 . S
C720 C726 1.379 . S
C720 N728 1.356 . S
C721 C720 1.363 . S
C721 C727 1.363 . S
C722 C723 1.363 . S
C722 C727 1.379 . S
C722 N729 1.356 . S
C723 C722 1.363 . S
C723 C726 1.363 . S
N724 C726 1.356 . S
N724 H736 0.984 . S
N724 H737 0.985 . S
N725 C727 1.356 . S
N725 H730 0.984 . S
N725 H731 0.985 . S
C726 C720 1.379 . S
C726 C723 1.363 . S
C726 N724 1.356 . S
C727 C721 1.363 . S
C727 C722 1.379 . S
C727 N725 1.356 . S
N728 C720 1.356 . S
N728 H734 0.984 . S
N728 H735 0.984 . S
N729 C722 1.356 . S
N729 H732 0.984 . S
N729 H733 0.985 . S
H730 N725 0.984 . S
H731 N725 0.985 . S
H732 N729 0.984 . S
H733 N729 0.985 . S
H734 N728 0.984 . S
H735 N728 0.984 . S
H736 N724 0.984 . S
H737 N724 0.985 . S
C738 C739 1.363 . S
C738 C744 1.379 . S
C738 N746 1.356 . S
C739 C738 1.363 . S
C739 C745 1.363 . S
C740 C741 1.363 . S
C740 C745 1.379 . S
C740 N747 1.356 . S
C741 C740 1.363 . S
C741 C744 1.363 . S
N742 C744 1.356 . S
N742 H754 0.984 . S
N742 H755 0.985 . S
N743 C745 1.356 . S
N743 H748 0.984 . S
N743 H749 0.985 . S
C744 C738 1.379 . S
C744 C741 1.363 . S
C744 N742 1.356 . S
C745 C739 1.363 . S
C745 C740 1.379 . S
C745 N743 1.356 . S
N746 C738 1.356 . S
N746 H752 0.984 . S
N746 H753 0.984 . S
N747 C740 1.356 . S
N747 H750 0.984 . S
N747 H751 0.985 . S
H748 N743 0.984 . S
H749 N743 0.985 . S
H750 N747 0.984 . S
H751 N747 0.985 . S
H752 N746 0.984 . S
H753 N746 0.984 . S
H754 N742 0.984 . S
H755 N742 0.985 . S
C756 C757 1.363 . S
C756 C762 1.379 . S
C756 N764 1.356 . S
C757 C756 1.363 . S
C757 C763 1.363 . S
C758 C759 1.363 . S
C758 C763 1.379 . S
C758 N765 1.356 . S
C759 C758 1.363 . S
C759 C762 1.363 . S
N760 C762 1.356 . S
N760 H772 0.984 . S
N760 H773 0.985 . S
N761 C763 1.356 . S
N761 H766 0.984 . S
N761 H767 0.985 . S
C762 C756 1.379 . S
C762 C759 1.363 . S
C762 N760 1.356 . S
C763 C757 1.363 . S
C763 C758 1.379 . S
C763 N761 1.356 . S
N764 C756 1.356 . S
N764 H770 0.984 . S
N764 H771 0.984 . S
N765 C758 1.356 . S
N765 H768 0.984 . S
N765 H769 0.985 . S
H766 N761 0.984 . S
H767 N761 0.985 . S
H768 N765 0.984 . S
H769 N765 0.985 . S
H770 N764 0.984 . S
H771 N764 0.984 . S
H772 N760 0.984 . S
H773 N760 0.985 . S
C774 C775 1.363 . S
C774 C780 1.379 . S
C774 N782 1.356 . S
C775 C774 1.363 . S
C775 C781 1.363 . S
C776 C777 1.363 . S
C776 C781 1.379 . S
C776 N783 1.356 . S
C777 C776 1.363 . S
C777 C780 1.363 . S
N778 C780 1.356 . S
N778 H790 0.984 . S
N778 H791 0.985 . S
N779 C781 1.356 . S
N779 H784 0.984 . S
N779 H785 0.985 . S
C780 C774 1.379 . S
C780 C777 1.363 . S
C780 N778 1.356 . S
C781 C775 1.363 . S
C781 C776 1.379 . S
C781 N779 1.356 . S
N782 C774 1.356 . S
N782 H788 0.984 . S
N782 H789 0.984 . S
N783 C776 1.356 . S
N783 H786 0.984 . S
N783 H787 0.985 . S
H784 N779 0.984 . S
H785 N779 0.985 . S
H786 N783 0.984 . S
H787 N783 0.985 . S
H788 N782 0.984 . S
H789 N782 0.984 . S
H790 N778 0.984 . S
H791 N778 0.985 . S
C792 C793 1.363 . S
C792 C798 1.379 . S
C792 N800 1.356 . S
C793 C792 1.363 . S
C793 C799 1.363 . S
C794 C795 1.363 . S
C794 C799 1.379 . S
C794 N801 1.356 . S
C795 C794 1.363 . S
C795 C798 1.363 . S
N796 C798 1.356 . S
N796 H808 0.984 . S
N796 H809 0.985 . S
N797 C799 1.356 . S
N797 H802 0.984 . S
N797 H803 0.985 . S
C798 C792 1.379 . S
C798 C795 1.363 . S
C798 N796 1.356 . S
C799 C793 1.363 . S
C799 C794 1.379 . S
C799 N797 1.356 . S
N800 C792 1.356 . S
N800 H806 0.984 . S
N800 H807 0.984 . S
N801 C794 1.356 . S
N801 H804 0.984 . S
N801 H805 0.985 . S
H802 N797 0.984 . S
H803 N797 0.985 . S
H804 N801 0.984 . S
H805 N801 0.985 . S
H806 N800 0.984 . S
H807 N800 0.984 . S
H808 N796 0.984 . S
H809 N796 0.985 . S
C810 C811 1.363 . S
C810 C816 1.379 . S
C810 N818 1.356 . S
C811 C810 1.363 . S
C811 C817 1.363 . S
C812 C813 1.363 . S
C812 C817 1.379 . S
C812 N819 1.356 . S
C813 C812 1.363 . S
C813 C816 1.363 . S
N814 C816 1.356 . S
N814 H826 0.984 . S
N814 H827 0.985 . S
N815 C817 1.356 . S
N815 H820 0.984 . S
N815 H821 0.985 . S
C816 C810 1.379 . S
C816 C813 1.363 . S
C816 N814 1.356 . S
C817 C811 1.363 . S
C817 C812 1.379 . S
C817 N815 1.356 . S
N818 C810 1.356 . S
N818 H824 0.984 . S
N818 H825 0.984 . S
N819 C812 1.356 . S
N819 H822 0.984 . S
N819 H823 0.985 . S
H820 N815 0.984 . S
H821 N815 0.985 . S
H822 N819 0.984 . S
H823 N819 0.985 . S
H824 N818 0.984 . S
H825 N818 0.984 . S
H826 N814 0.984 . S
H827 N814 0.985 . S
C828 C829 1.363 . S
C828 C834 1.379 . S
C828 N836 1.356 . S
C829 C828 1.363 . S
C829 C835 1.363 . S
C830 C831 1.363 . S
C830 C835 1.379 . S
C830 N837 1.356 . S
C831 C830 1.363 . S
C831 C834 1.363 . S
N832 C834 1.356 . S
N832 H844 0.984 . S
N832 H845 0.985 . S
N833 C835 1.356 . S
N833 H838 0.984 . S
N833 H839 0.985 . S
C834 C828 1.379 . S
C834 C831 1.363 . S
C834 N832 1.356 . S
C835 C829 1.363 . S
C835 C830 1.379 . S
C835 N833 1.356 . S
N836 C828 1.356 . S
N836 H842 0.984 1_655 S
N836 H843 0.984 . S
N837 C830 1.356 . S
N837 H840 0.984 . S
N837 H841 0.985 . S
H838 N833 0.984 . S
H839 N833 0.985 . S
H840 N837 0.984 . S
H841 N837 0.985 . S
H842 N836 0.984 1_455 S
H843 N836 0.984 . S
H844 N832 0.984 . S
H845 N832 0.985 . S
C846 C847 1.363 . S
C846 C852 1.379 . S
C846 N854 1.356 . S
C847 C846 1.363 . S
C847 C853 1.363 . S
C848 C849 1.363 . S
C848 C853 1.379 . S
C848 N855 1.356 . S
C849 C848 1.363 . S
C849 C852 1.363 . S
N850 C852 1.356 . S
N850 H862 0.984 . S
N850 H863 0.985 . S
N851 C853 1.356 . S
N851 H856 0.984 . S
N851 H857 0.985 . S
C852 C846 1.379 . S
C852 C849 1.363 . S
C852 N850 1.356 . S
C853 C847 1.363 . S
C853 C848 1.379 . S
C853 N851 1.356 . S
N854 C846 1.356 . S
N854 H860 0.984 . S
N854 H861 0.984 . S
N855 C848 1.356 . S
N855 H858 0.984 . S
N855 H859 0.985 . S
H856 N851 0.984 . S
H857 N851 0.985 . S
H858 N855 0.984 . S
H859 N855 0.985 . S
H860 N854 0.984 . S
H861 N854 0.984 . S
H862 N850 0.984 . S
H863 N850 0.985 . S
C864 C865 1.363 . S
C864 C870 1.379 . S
C864 N872 1.356 . S
C865 C864 1.363 . S
C865 C871 1.363 . S
C866 C867 1.363 . S
C866 C871 1.379 . S
C866 N873 1.356 . S
C867 C866 1.363 . S
C867 C870 1.363 . S
N868 C870 1.356 . S
N868 H880 0.984 . S
N868 H881 0.985 . S
N869 C871 1.356 . S
N869 H874 0.984 . S
N869 H875 0.985 . S
C870 C864 1.379 . S
C870 C867 1.363 . S
C870 N868 1.356 . S
C871 C865 1.363 . S
C871 C866 1.379 . S
C871 N869 1.356 . S
N872 C864 1.356 . S
N872 H878 0.984 . S
N872 H879 0.984 . S
N873 C866 1.356 . S
N873 H876 0.984 . S
N873 H877 0.985 . S
H874 N869 0.984 . S
H875 N869 0.985 . S
H876 N873 0.984 . S
H877 N873 0.985 . S
H878 N872 0.984 . S
H879 N872 0.984 . S
H880 N868 0.984 . S
H881 N868 0.985 . S
C882 C883 1.363 . S
C882 C888 1.379 . S
C882 N890 1.356 . S
C883 C882 1.363 . S
C883 C889 1.363 . S
C884 C885 1.363 . S
C884 C889 1.379 . S
C884 N891 1.356 . S
C885 C884 1.363 . S
C885 C888 1.363 . S
N886 C888 1.356 . S
N886 H898 0.984 . S
N886 H899 0.985 . S
N887 C889 1.356 . S
N887 H892 0.984 . S
N887 H893 0.985 . S
C888 C882 1.379 . S
C888 C885 1.363 . S
C888 N886 1.356 . S
C889 C883 1.363 . S
C889 C884 1.379 . S
C889 N887 1.356 . S
N890 C882 1.356 . S
N890 H896 0.984 . S
N890 H897 0.984 . S
N891 C884 1.356 . S
N891 H894 0.984 . S
N891 H895 0.985 . S
H892 N887 0.984 . S
H893 N887 0.985 . S
H894 N891 0.984 . S
H895 N891 0.985 . S
H896 N890 0.984 . S
H897 N890 0.984 . S
H898 N886 0.984 . S
H899 N886 0.985 . S
C900 C901 1.363 . S
C900 C906 1.379 . S
C900 N908 1.356 . S
C901 C900 1.363 . S
C901 C907 1.363 . S
C902 C903 1.363 . S
C902 C907 1.379 . S
C902 N909 1.356 . S
C903 C902 1.363 . S
C903 C906 1.363 . S
N904 C906 1.356 . S
N904 H916 0.984 . S
N904 H917 0.985 . S
N905 C907 1.356 . S
N905 H910 0.984 . S
N905 H911 0.985 . S
C906 C900 1.379 . S
C906 C903 1.363 . S
C906 N904 1.356 . S
C907 C901 1.363 . S
C907 C902 1.379 . S
C907 N905 1.356 . S
N908 C900 1.356 . S
N908 H914 0.984 . S
N908 H915 0.984 . S
N909 C902 1.356 . S
N909 H912 0.984 . S
N909 H913 0.985 . S
H910 N905 0.984 . S
H911 N905 0.985 . S
H912 N909 0.984 . S
H913 N909 0.985 . S
H914 N908 0.984 . S
H915 N908 0.984 . S
H916 N904 0.984 . S
H917 N904 0.985 . S
C918 C919 1.363 . S
C918 C924 1.379 . S
C918 N926 1.356 . S
C919 C918 1.363 . S
C919 C925 1.363 . S
C920 C921 1.363 . S
C920 C925 1.379 . S
C920 N927 1.356 . S
C921 C920 1.363 . S
C921 C924 1.363 . S
N922 C924 1.356 . S
N922 H934 0.984 . S
N922 H935 0.985 . S
N923 C925 1.356 . S
N923 H928 0.984 . S
N923 H929 0.985 . S
C924 C918 1.379 . S
C924 C921 1.363 . S
C924 N922 1.356 . S
C925 C919 1.363 . S
C925 C920 1.379 . S
C925 N923 1.356 . S
N926 C918 1.356 . S
N926 H932 0.984 . S
N926 H933 0.984 . S
N927 C920 1.356 . S
N927 H930 0.984 . S
N927 H931 0.985 . S
H928 N923 0.984 . S
H929 N923 0.985 . S
H930 N927 0.984 . S
H931 N927 0.985 . S
H932 N926 0.984 . S
H933 N926 0.984 . S
H934 N922 0.984 . S
H935 N922 0.985 . S
C936 C937 1.363 . S
C936 C942 1.379 1_556 S
C936 N944 1.356 . S
C937 C936 1.363 . S
C937 C943 1.363 1_655 S
C938 C939 1.367 . S
C938 C943 1.375 1_554 S
C938 N945 1.357 . S
C939 C938 1.367 . S
C939 C942 1.363 1_455 S
N940 C942 1.356 . S
N940 H952 0.984 . S
N940 H953 0.985 1_655 S
N941 C943 1.356 . S
N941 H946 0.992 . S
N941 H947 0.985 . S
C942 C936 1.379 1_554 S
C942 C939 1.363 1_655 S
C942 N940 1.356 . S
C943 C937 1.363 1_455 S
C943 C938 1.375 1_556 S
C943 N941 1.356 . S
N944 C936 1.356 . S
N944 H950 0.984 . S
N944 H951 0.984 . S
N945 C938 1.357 . S
N945 H948 0.984 . S
N945 H949 0.985 1_554 S
H946 N941 0.992 . S
H947 N941 0.985 . S
H948 N945 0.984 . S
H949 N945 0.985 1_556 S
H950 N944 0.984 . S
H951 N944 0.984 . S
H952 N940 0.984 . S
H953 N940 0.985 1_455 S
C954 C955 1.363 . S
C954 C960 1.379 1_556 S
C954 N962 1.356 . S
C955 C954 1.363 . S
C955 C961 1.363 . S
C956 C957 1.363 . S
C956 C961 1.379 1_554 S
C956 N963 1.356 . S
C957 C956 1.363 . S
C957 C960 1.363 . S
N958 C960 1.356 . S
N958 H970 0.984 . S
N958 H971 0.985 . S
N959 C961 1.356 . S
N959 H964 0.984 . S
N959 H965 0.985 . S
C960 C954 1.379 1_554 S
C960 C957 1.363 . S
C960 N958 1.356 . S
C961 C955 1.363 . S
C961 C956 1.379 1_556 S
C961 N959 1.356 . S
N962 C954 1.356 . S
N962 H968 0.984 . S
N962 H969 0.984 . S
N963 C956 1.356 . S
N963 H966 0.984 . S
N963 H967 0.985 . S
H964 N959 0.984 . S
H965 N959 0.985 . S
H966 N963 0.984 . S
H967 N963 0.985 . S
H968 N962 0.984 . S
H969 N962 0.984 . S
H970 N958 0.984 . S
H971 N958 0.985 . S
C972 C973 1.363 1_565 S
C972 C978 1.379 . S
C972 N980 1.356 . S
C973 C972 1.363 1_545 S
C973 C979 1.363 . S
C974 C975 1.363 1_545 S
C974 C979 1.379 1_554 S
C974 N981 1.356 . S
C975 C974 1.363 1_565 S
C975 C978 1.363 1_554 S
N976 C978 1.356 . S
N976 H988 0.984 . S
N976 H989 0.985 1_556 S
N977 C979 1.356 . S
N977 H982 0.984 . S
N977 H983 0.985 . S
C978 C972 1.379 . S
C978 C975 1.363 1_556 S
C978 N976 1.356 . S
C979 C973 1.363 . S
C979 C974 1.379 1_556 S
C979 N977 1.356 . S
N980 C972 1.356 . S
N980 H986 0.984 . S
N980 H987 0.984 . S
N981 C974 1.356 . S
N981 H984 0.984 . S
N981 H985 0.985 . S
H982 N977 0.984 . S
H983 N977 0.985 . S
H984 N981 0.984 . S
H985 N981 0.985 . S
H986 N980 0.984 . S
H987 N980 0.984 . S
H988 N976 0.984 . S
H989 N976 0.985 1_554 S
C990 C991 1.363 1_565 S
C990 C996 1.379 1_556 S
C990 N998 1.356 . S
C991 C990 1.363 1_545 S
C991 C997 1.363 1_556 S
C992 C993 1.363 1_545 S
C992 C997 1.379 . S
C992 N999 1.356 . S
C993 C992 1.363 1_565 S
C993 C996 1.363 . S
N994 C996 1.356 . S
N994 H1006 0.984 . S
N994 H1007 0.985 . S
N995 C997 1.356 1_556 S
N995 H1000 0.984 . S
N995 H1001 0.985 1_556 S
C996 C990 1.379 1_554 S
C996 C993 1.363 . S
C996 N994 1.356 . S
C997 C991 1.363 1_554 S
C997 C992 1.379 . S
C997 N995 1.356 1_554 S
N998 C990 1.356 . S
N998 H1004 0.984 . S
N998 H1005 0.984 1_565 S
N999 C992 1.356 . S
N999 H1002 0.984 . S
N999 H1003 0.985 . S
H1000 N995 0.984 . S
H1001 N995 0.985 1_554 S
H1002 N999 0.984 . S
H1003 N999 0.985 . S
H1004 N998 0.984 . S
H1005 N998 0.984 1_545 S
H1006 N994 0.984 . S
H1007 N994 0.985 . S
C1008 C1009 1.363 . S
C1008 C1014 1.379 1_455 S
C1008 N1016 1.356 . S
C1009 C1008 1.363 . S
C1009 C1015 1.363 . S
C1010 C1011 1.363 1_454 S
C1010 C1015 1.379 . S
C1010 N1017 1.356 1_454 S
C1011 C1010 1.363 1_656 S
C1011 C1014 1.363 1_556 S
N1012 C1014 1.356 1_556 S
N1012 H1024 0.984 . S
N1012 H1025 0.985 . S
N1013 C1015 1.356 . S
N1013 H1018 0.984 . S
N1013 H1019 0.985 . S
C1014 C1008 1.379 1_655 S
C1014 C1011 1.363 1_554 S
C1014 N1012 1.356 1_554 S
C1015 C1009 1.363 . S
C1015 C1010 1.379 . S
C1015 N1013 1.356 . S
N1016 C1008 1.356 . S
N1016 H1022 0.984 . S
N1016 H1023 0.984 . S
N1017 C1010 1.356 1_656 S
N1017 H1020 0.984 . S
N1017 H1021 0.985 1_655 S
H1018 N1013 0.984 . S
H1019 N1013 0.985 . S
H1020 N1017 0.984 . S
H1021 N1017 0.985 1_455 S
H1022 N1016 0.984 . S
H1023 N1016 0.984 . S
H1024 N1012 0.984 . S
H1025 N1012 0.985 . S
C1026 C1027 1.363 . S
C1026 C1032 1.379 . S
C1026 N1034 1.356 . S
C1027 C1026 1.363 . S
C1027 C1033 1.363 . S
C1028 C1029 1.363 . S
C1028 C1033 1.379 1_556 S
C1028 N1035 1.356 . S
C1029 C1028 1.363 . S
C1029 C1032 1.363 1_556 S
N1030 C1032 1.356 1_556 S
N1030 H1042 0.984 1_556 S
N1030 H1043 0.985 . S
N1031 C1033 1.356 . S
N1031 H1036 0.984 . S
N1031 H1037 0.985 . S
C1032 C1026 1.379 . S
C1032 C1029 1.363 1_554 S
C1032 N1030 1.356 1_554 S
C1033 C1027 1.363 . S
C1033 C1028 1.379 1_554 S
C1033 N1031 1.356 . S
N1034 C1026 1.356 . S
N1034 H1040 0.984 . S
N1034 H1041 0.984 . S
N1035 C1028 1.356 . S
N1035 H1038 0.984 . S
N1035 H1039 0.985 . S
H1036 N1031 0.984 . S
H1037 N1031 0.985 . S
H1038 N1035 0.984 . S
H1039 N1035 0.985 . S
H1040 N1034 0.984 . S
H1041 N1034 0.984 . S
H1042 N1030 0.984 1_554 S
H1043 N1030 0.985 . S
C1044 C1045 1.363 . S
C1044 C1050 1.379 . S
C1044 N1052 1.356 . S
C1045 C1044 1.363 . S
C1045 C1051 1.363 . S
C1046 C1047 1.363 . S
C1046 C1051 1.379 . S
C1046 N1053 1.356 . S
C1047 C1046 1.363 . S
C1047 C1050 1.363 . S
N1048 C1050 1.356 . S
N1048 H1060 0.984 . S
N1048 H1061 0.985 . S
N1049 C1051 1.356 . S
N1049 H1054 0.984 . S
N1049 H1055 0.985 . S
C1050 C1044 1.379 . S
C1050 C1047 1.363 . S
C1050 N1048 1.356 . S
C1051 C1045 1.363 . S
C1051 C1046 1.379 . S
C1051 N1049 1.356 . S
N1052 C1044 1.356 . S
N1052 H1058 0.984 . S
N1052 H1059 0.984 . S
N1053 C1046 1.356 . S
N1053 H1056 0.984 . S
N1053 H1057 0.985 . S
H1054 N1049 0.984 . S
H1055 N1049 0.985 . S
H1056 N1053 0.984 . S
H1057 N1053 0.985 . S
H1058 N1052 0.984 . S
H1059 N1052 0.984 . S
H1060 N1048 0.984 . S
H1061 N1048 0.985 . S
C1062 C1063 1.363 . S
C1062 C1068 1.379 . S
C1062 N1070 1.356 . S
C1063 C1062 1.363 . S
C1063 C1069 1.363 . S
C1064 C1065 1.363 . S
C1064 C1069 1.379 . S
C1064 N1071 1.356 . S
C1065 C1064 1.363 . S
C1065 C1068 1.363 . S
N1066 C1068 1.356 . S
N1066 H1078 0.984 . S
N1066 H1079 0.985 . S
N1067 C1069 1.356 . S
N1067 H1072 0.984 . S
N1067 H1073 0.985 . S
C1068 C1062 1.379 . S
C1068 C1065 1.363 . S
C1068 N1066 1.356 . S
C1069 C1063 1.363 . S
C1069 C1064 1.379 . S
C1069 N1067 1.356 . S
N1070 C1062 1.356 . S
N1070 H1076 0.984 . S
N1070 H1077 0.984 . S
N1071 C1064 1.356 . S
N1071 H1074 0.984 . S
N1071 H1075 0.985 . S
H1072 N1067 0.984 . S
H1073 N1067 0.985 . S
H1074 N1071 0.984 . S
H1075 N1071 0.985 . S
H1076 N1070 0.984 . S
H1077 N1070 0.984 . S
H1078 N1066 0.984 . S
H1079 N1066 0.985 . S
C1080 C1081 1.363 . S
C1080 C1086 1.379 . S
C1080 N1088 1.356 . S
C1081 C1080 1.363 . S
C1081 C1087 1.363 . S
C1082 C1083 1.363 . S
C1082 C1087 1.379 . S
C1082 N1089 1.356 . S
C1083 C1082 1.363 . S
C1083 C1086 1.363 . S
N1084 C1086 1.356 . S
N1084 H1096 0.984 . S
N1084 H1097 0.985 . S
N1085 C1087 1.356 . S
N1085 H1090 0.984 . S
N1085 H1091 0.985 . S
C1086 C1080 1.379 . S
C1086 C1083 1.363 . S
C1086 N1084 1.356 . S
C1087 C1081 1.363 . S
C1087 C1082 1.379 . S
C1087 N1085 1.356 . S
N1088 C1080 1.356 . S
N1088 H1094 0.984 . S
N1088 H1095 0.984 . S
N1089 C1082 1.356 . S
N1089 H1092 0.984 . S
N1089 H1093 0.985 . S
H1090 N1085 0.984 . S
H1091 N1085 0.985 . S
H1092 N1089 0.984 . S
H1093 N1089 0.985 . S
H1094 N1088 0.984 . S
H1095 N1088 0.984 . S
H1096 N1084 0.984 . S
H1097 N1084 0.985 . S
C1098 C1099 1.363 . S
C1098 C1104 1.379 . S
C1098 N1106 1.356 . S
C1099 C1098 1.363 . S
C1099 C1105 1.363 . S
C1100 C1101 1.363 . S
C1100 C1105 1.379 . S
C1100 N1107 1.356 . S
C1101 C1100 1.363 . S
C1101 C1104 1.363 . S
N1102 C1104 1.356 . S
N1102 H1114 0.984 . S
N1102 H1115 0.985 . S
N1103 C1105 1.356 . S
N1103 H1108 0.984 . S
N1103 H1109 0.985 . S
C1104 C1098 1.379 . S
C1104 C1101 1.363 . S
C1104 N1102 1.356 . S
C1105 C1099 1.363 . S
C1105 C1100 1.379 . S
C1105 N1103 1.356 . S
N1106 C1098 1.356 . S
N1106 H1112 0.984 . S
N1106 H1113 0.984 . S
N1107 C1100 1.356 . S
N1107 H1110 0.984 . S
N1107 H1111 0.985 . S
H1108 N1103 0.984 . S
H1109 N1103 0.985 . S
H1110 N1107 0.984 . S
H1111 N1107 0.985 . S
H1112 N1106 0.984 . S
H1113 N1106 0.984 . S
H1114 N1102 0.984 . S
H1115 N1102 0.985 . S
C1116 C1117 1.363 . S
C1116 C1122 1.379 . S
C1116 N1124 1.356 . S
C1117 C1116 1.363 . S
C1117 C1123 1.363 . S
C1118 C1119 1.363 . S
C1118 C1123 1.379 . S
C1118 N1125 1.356 . S
C1119 C1118 1.363 . S
C1119 C1122 1.363 . S
N1120 C1122 1.356 . S
N1120 H1132 0.984 . S
N1120 H1133 0.985 . S
N1121 C1123 1.356 . S
N1121 H1126 0.984 . S
N1121 H1127 0.985 . S
C1122 C1116 1.379 . S
C1122 C1119 1.363 . S
C1122 N1120 1.356 . S
C1123 C1117 1.363 . S
C1123 C1118 1.379 . S
C1123 N1121 1.356 . S
N1124 C1116 1.356 . S
N1124 H1130 0.984 . S
N1124 H1131 0.984 . S
N1125 C1118 1.356 . S
N1125 H1128 0.984 . S
N1125 H1129 0.985 . S
H1126 N1121 0.984 . S
H1127 N1121 0.985 . S
H1128 N1125 0.984 . S
H1129 N1125 0.985 . S
H1130 N1124 0.984 . S
H1131 N1124 0.984 . S
H1132 N1120 0.984 . S
H1133 N1120 0.985 . S
C1134 C1135 1.363 . S
C1134 C1140 1.379 . S
C1134 N1142 1.356 . S
C1135 C1134 1.363 . S
C1135 C1141 1.363 . S
C1136 C1137 1.363 . S
C1136 C1141 1.379 . S
C1136 N1143 1.356 . S
C1137 C1136 1.363 . S
C1137 C1140 1.363 . S
N1138 C1140 1.356 . S
N1138 H1150 0.984 . S
N1138 H1151 0.985 . S
N1139 C1141 1.356 . S
N1139 H1144 0.984 . S
N1139 H1145 0.985 . S
C1140 C1134 1.379 . S
C1140 C1137 1.363 . S
C1140 N1138 1.356 . S
C1141 C1135 1.363 . S
C1141 C1136 1.379 . S
C1141 N1139 1.356 . S
N1142 C1134 1.356 . S
N1142 H1148 0.984 . S
N1142 H1149 0.984 . S
N1143 C1136 1.356 . S
N1143 H1146 0.984 . S
N1143 H1147 0.985 . S
H1144 N1139 0.984 . S
H1145 N1139 0.985 . S
H1146 N1143 0.984 . S
H1147 N1143 0.985 . S
H1148 N1142 0.984 . S
H1149 N1142 0.984 . S
H1150 N1138 0.984 . S
H1151 N1138 0.985 . S
C1152 C1153 1.363 . S
C1152 C1158 1.379 . S
C1152 N1160 1.356 . S
C1153 C1152 1.363 . S
C1153 C1159 1.363 . S
C1154 C1155 1.363 . S
C1154 C1159 1.379 . S
C1154 N1161 1.356 . S
C1155 C1154 1.363 . S
C1155 C1158 1.363 . S
N1156 C1158 1.356 . S
N1156 H1168 0.984 . S
N1156 H1169 0.985 . S
N1157 C1159 1.356 . S
N1157 H1162 0.984 . S
N1157 H1163 0.985 . S
C1158 C1152 1.379 . S
C1158 C1155 1.363 . S
C1158 N1156 1.356 . S
C1159 C1153 1.363 . S
C1159 C1154 1.379 . S
C1159 N1157 1.356 . S
N1160 C1152 1.356 . S
N1160 H1166 0.984 . S
N1160 H1167 0.984 . S
N1161 C1154 1.356 . S
N1161 H1164 0.984 . S
N1161 H1165 0.985 . S
H1162 N1157 0.984 . S
H1163 N1157 0.985 . S
H1164 N1161 0.984 . S
H1165 N1161 0.985 . S
H1166 N1160 0.984 . S
H1167 N1160 0.984 . S
H1168 N1156 0.984 . S
H1169 N1156 0.985 . S
C1170 C1171 1.363 . S
C1170 C1176 1.379 . S
C1170 N1178 1.356 . S
C1171 C1170 1.363 . S
C1171 C1177 1.363 . S
C1172 C1173 1.363 . S
C1172 C1177 1.379 . S
C1172 N1179 1.356 . S
C1173 C1172 1.363 . S
C1173 C1176 1.363 . S
N1174 C1176 1.356 . S
N1174 H1186 0.984 . S
N1174 H1187 0.985 . S
N1175 C1177 1.356 . S
N1175 H1180 0.984 . S
N1175 H1181 0.985 . S
C1176 C1170 1.379 . S
C1176 C1173 1.363 . S
C1176 N1174 1.356 . S
C1177 C1171 1.363 . S
C1177 C1172 1.379 . S
C1177 N1175 1.356 . S
N1178 C1170 1.356 . S
N1178 H1184 0.984 . S
N1178 H1185 0.984 . S
N1179 C1172 1.356 . S
N1179 H1182 0.984 . S
N1179 H1183 0.985 . S
H1180 N1175 0.984 . S
H1181 N1175 0.985 . S
H1182 N1179 0.984 . S
H1183 N1179 0.985 . S
H1184 N1178 0.984 . S
H1185 N1178 0.984 . S
H1186 N1174 0.984 . S
H1187 N1174 0.985 . S
C1188 C1189 1.363 . S
C1188 C1194 1.379 . S
C1188 N1196 1.356 . S
C1189 C1188 1.363 . S
C1189 C1195 1.363 . S
C1190 C1191 1.363 . S
C1190 C1195 1.379 . S
C1190 N1197 1.356 . S
C1191 C1190 1.363 . S
C1191 C1194 1.363 . S
N1192 C1194 1.356 . S
N1192 H1204 0.984 . S
N1192 H1205 0.985 . S
N1193 C1195 1.356 . S
N1193 H1198 0.984 . S
N1193 H1199 0.985 . S
C1194 C1188 1.379 . S
C1194 C1191 1.363 . S
C1194 N1192 1.356 . S
C1195 C1189 1.363 . S
C1195 C1190 1.379 . S
C1195 N1193 1.356 . S
N1196 C1188 1.356 . S
N1196 H1202 0.984 . S
N1196 H1203 0.984 . S
N1197 C1190 1.356 . S
N1197 H1200 0.984 . S
N1197 H1201 0.985 . S
H1198 N1193 0.984 . S
H1199 N1193 0.985 . S
H1200 N1197 0.984 . S
H1201 N1197 0.985 . S
H1202 N1196 0.984 . S
H1203 N1196 0.984 . S
H1204 N1192 0.984 . S
H1205 N1192 0.985 . S
C1206 C1207 1.363 . S
C1206 C1212 1.379 . S
C1206 N1214 1.356 . S
C1207 C1206 1.363 . S
C1207 C1213 1.363 . S
C1208 C1209 1.363 . S
C1208 C1213 1.379 . S
C1208 N1215 1.356 . S
C1209 C1208 1.363 . S
C1209 C1212 1.363 . S
N1210 C1212 1.356 . S
N1210 H1222 0.984 . S
N1210 H1223 0.985 . S
N1211 C1213 1.356 . S
N1211 H1216 0.984 . S
N1211 H1217 0.985 . S
C1212 C1206 1.379 . S
C1212 C1209 1.363 . S
C1212 N1210 1.356 . S
C1213 C1207 1.363 . S
C1213 C1208 1.379 . S
C1213 N1211 1.356 . S
N1214 C1206 1.356 . S
N1214 H1220 0.984 . S
N1214 H1221 0.984 . S
N1215 C1208 1.356 . S
N1215 H1218 0.984 . S
N1215 H1219 0.985 . S
H1216 N1211 0.984 . S
H1217 N1211 0.985 . S
H1218 N1215 0.984 . S
H1219 N1215 0.985 . S
H1220 N1214 0.984 . S
H1221 N1214 0.984 . S
H1222 N1210 0.984 . S
H1223 N1210 0.985 . S
C1224 C1225 1.363 . S
C1224 C1230 1.379 . S
C1224 N1232 1.356 . S
C1225 C1224 1.363 . S
C1225 C1231 1.363 . S
C1226 C1227 1.363 . S
C1226 C1231 1.379 . S
C1226 N1233 1.356 . S
C1227 C1226 1.363 . S
C1227 C1230 1.363 . S
N1228 C1230 1.356 . S
N1228 H1240 0.984 . S
N1228 H1241 0.985 . S
N1229 C1231 1.356 . S
N1229 H1234 0.984 . S
N1229 H1235 0.985 . S
C1230 C1224 1.379 . S
C1230 C1227 1.363 . S
C1230 N1228 1.356 . S
C1231 C1225 1.363 . S
C1231 C1226 1.379 . S
C1231 N1229 1.356 . S
N1232 C1224 1.356 . S
N1232 H1238 0.984 . S
N1232 H1239 0.984 . S
N1233 C1226 1.356 . S
N1233 H1236 0.984 . S
N1233 H1237 0.985 . S
H1234 N1229 0.984 . S
H1235 N1229 0.985 . S
H1236 N1233 0.984 . S
H1237 N1233 0.985 . S
H1238 N1232 0.984 . S
H1239 N1232 0.984 . S
H1240 N1228 0.984 . S
H1241 N1228 0.985 . S
C1242 C1243 1.363 . S
C1242 C1248 1.379 . S
C1242 N1250 1.356 . S
C1243 C1242 1.363 . S
C1243 C1249 1.363 . S
C1244 C1245 1.363 . S
C1244 C1249 1.379 . S
C1244 N1251 1.356 . S
C1245 C1244 1.363 . S
C1245 C1248 1.363 . S
N1246 C1248 1.356 . S
N1246 H1258 0.984 . S
N1246 H1259 0.985 . S
N1247 C1249 1.356 . S
N1247 H1252 0.984 . S
N1247 H1253 0.985 . S
C1248 C1242 1.379 . S
C1248 C1245 1.363 . S
C1248 N1246 1.356 . S
C1249 C1243 1.363 . S
C1249 C1244 1.379 . S
C1249 N1247 1.356 . S
N1250 C1242 1.356 . S
N1250 H1256 0.984 . S
N1250 H1257 0.984 . S
N1251 C1244 1.356 . S
N1251 H1254 0.984 . S
N1251 H1255 0.985 . S
H1252 N1247 0.984 . S
H1253 N1247 0.985 . S
H1254 N1251 0.984 . S
H1255 N1251 0.985 . S
H1256 N1250 0.984 . S
H1257 N1250 0.984 . S
H1258 N1246 0.984 . S
H1259 N1246 0.985 . S
C1260 C1261 1.363 . S
C1260 C1266 1.379 . S
C1260 N1268 1.356 . S
C1261 C1260 1.363 . S
C1261 C1267 1.363 . S
C1262 C1263 1.363 . S
C1262 C1267 1.379 . S
C1262 N1269 1.356 . S
C1263 C1262 1.363 . S
C1263 C1266 1.363 . S
N1264 C1266 1.356 . S
N1264 H1276 0.984 . S
N1264 H1277 0.985 . S
N1265 C1267 1.356 . S
N1265 H1270 0.984 . S
N1265 H1271 0.985 . S
C1266 C1260 1.379 . S
C1266 C1263 1.363 . S
C1266 N1264 1.356 . S
C1267 C1261 1.363 . S
C1267 C1262 1.379 . S
C1267 N1265 1.356 . S
N1268 C1260 1.356 . S
N1268 H1274 0.984 . S
N1268 H1275 0.984 . S
N1269 C1262 1.356 . S
N1269 H1272 0.984 . S
N1269 H1273 0.985 . S
H1270 N1265 0.984 . S
H1271 N1265 0.985 . S
H1272 N1269 0.984 . S
H1273 N1269 0.985 . S
H1274 N1268 0.984 . S
H1275 N1268 0.984 . S
H1276 N1264 0.984 . S
H1277 N1264 0.985 . S
C1278 C1279 1.363 . S
C1278 C1284 1.379 . S
C1278 N1286 1.356 . S
C1279 C1278 1.363 . S
C1279 C1285 1.363 . S
C1280 C1281 1.363 . S
C1280 C1285 1.379 . S
C1280 N1287 1.356 . S
C1281 C1280 1.363 . S
C1281 C1284 1.363 . S
N1282 C1284 1.356 . S
N1282 H1294 0.984 1_554 S
N1282 H1295 0.985 . S
N1283 C1285 1.356 . S
N1283 H1288 0.984 . S
N1283 H1289 0.985 . S
C1284 C1278 1.379 . S
C1284 C1281 1.363 . S
C1284 N1282 1.356 . S
C1285 C1279 1.363 . S
C1285 C1280 1.379 . S
C1285 N1283 1.356 . S
N1286 C1278 1.356 . S
N1286 H1292 0.984 1_554 S
N1286 H1293 0.984 . S
N1287 C1280 1.356 . S
N1287 H1290 0.984 . S
N1287 H1291 0.985 . S
H1288 N1283 0.984 . S
H1289 N1283 0.985 . S
H1290 N1287 0.984 . S
H1291 N1287 0.985 . S
H1292 N1286 0.984 1_556 S
H1293 N1286 0.984 . S
H1294 N1282 0.984 1_556 S
H1295 N1282 0.985 . S
C1296 C1297 1.363 . S
C1296 C1302 1.379 . S
C1296 N1304 1.356 . S
C1297 C1296 1.363 . S
C1297 C1303 1.363 . S
C1298 C1299 1.363 . S
C1298 C1303 1.379 . S
C1298 N1305 1.356 . S
C1299 C1298 1.363 . S
C1299 C1302 1.363 . S
N1300 C1302 1.356 . S
N1300 H1312 0.984 . S
N1300 H1313 0.985 . S
N1301 C1303 1.356 . S
N1301 H1306 0.984 . S
N1301 H1307 0.985 . S
C1302 C1296 1.379 . S
C1302 C1299 1.363 . S
C1302 N1300 1.356 . S
C1303 C1297 1.363 . S
C1303 C1298 1.379 . S
C1303 N1301 1.356 . S
N1304 C1296 1.356 . S
N1304 H1310 0.984 . S
N1304 H1311 0.984 . S
N1305 C1298 1.356 . S
N1305 H1308 0.984 . S
N1305 H1309 0.985 . S
H1306 N1301 0.984 . S
H1307 N1301 0.985 . S
H1308 N1305 0.984 . S
H1309 N1305 0.985 . S
H1310 N1304 0.984 . S
H1311 N1304 0.984 . S
H1312 N1300 0.984 . S
H1313 N1300 0.985 . S
C1314 C1315 1.363 . S
C1314 C1320 1.379 . S
C1314 N1322 1.356 . S
C1315 C1314 1.363 . S
C1315 C1321 1.363 . S
C1316 C1317 1.363 . S
C1316 C1321 1.379 . S
C1316 N1323 1.356 . S
C1317 C1316 1.363 . S
C1317 C1320 1.363 . S
N1318 C1320 1.356 . S
N1318 H1330 0.984 . S
N1318 H1331 0.985 . S
N1319 C1321 1.356 . S
N1319 H1324 0.984 . S
N1319 H1325 0.985 . S
C1320 C1314 1.379 . S
C1320 C1317 1.363 . S
C1320 N1318 1.356 . S
C1321 C1315 1.363 . S
C1321 C1316 1.379 . S
C1321 N1319 1.356 . S
N1322 C1314 1.356 . S
N1322 H1328 0.984 . S
N1322 H1329 0.984 . S
N1323 C1316 1.356 . S
N1323 H1326 0.984 . S
N1323 H1327 0.985 . S
H1324 N1319 0.984 . S
H1325 N1319 0.985 . S
H1326 N1323 0.984 . S
H1327 N1323 0.985 . S
H1328 N1322 0.984 . S
H1329 N1322 0.984 . S
H1330 N1318 0.984 . S
H1331 N1318 0.985 . S
C1332 C1333 1.363 . S
C1332 C1338 1.379 . S
C1332 N1340 1.356 . S
C1333 C1332 1.363 . S
C1333 C1339 1.363 . S
C1334 C1335 1.363 . S
C1334 C1339 1.379 . S
C1334 N1341 1.356 . S
C1335 C1334 1.363 . S
C1335 C1338 1.363 . S
N1336 C1338 1.356 . S
N1336 H1348 0.984 . S
N1336 H1349 0.985 . S
N1337 C1339 1.356 . S
N1337 H1342 0.984 . S
N1337 H1343 0.985 . S
C1338 C1332 1.379 . S
C1338 C1335 1.363 . S
C1338 N1336 1.356 . S
C1339 C1333 1.363 . S
C1339 C1334 1.379 . S
C1339 N1337 1.356 . S
N1340 C1332 1.356 . S
N1340 H1346 0.984 . S
N1340 H1347 0.984 . S
N1341 C1334 1.356 . S
N1341 H1344 0.984 . S
N1341 H1345 0.985 . S
H1342 N1337 0.984 . S
H1343 N1337 0.985 . S
H1344 N1341 0.984 . S
H1345 N1341 0.985 . S
H1346 N1340 0.984 . S
H1347 N1340 0.984 . S
H1348 N1336 0.984 . S
H1349 N1336 0.985 . S
C1350 C1351 1.363 . S
C1350 C1356 1.379 . S
C1350 N1358 1.356 . S
C1351 C1350 1.363 . S
C1351 C1357 1.363 . S
C1352 C1353 1.363 . S
C1352 C1357 1.379 . S
C1352 N1359 1.356 . S
C1353 C1352 1.363 . S
C1353 C1356 1.363 . S
N1354 C1356 1.356 . S
N1354 H1366 0.984 . S
N1354 H1367 0.985 . S
N1355 C1357 1.356 . S
N1355 H1360 0.984 . S
N1355 H1361 0.985 . S
C1356 C1350 1.379 . S
C1356 C1353 1.363 . S
C1356 N1354 1.356 . S
C1357 C1351 1.363 . S
C1357 C1352 1.379 . S
C1357 N1355 1.356 . S
N1358 C1350 1.356 . S
N1358 H1364 0.984 . S
N1358 H1365 0.984 . S
N1359 C1352 1.356 . S
N1359 H1362 0.984 . S
N1359 H1363 0.985 . S
H1360 N1355 0.984 . S
H1361 N1355 0.985 . S
H1362 N1359 0.984 . S
H1363 N1359 0.985 . S
H1364 N1358 0.984 . S
H1365 N1358 0.984 . S
H1366 N1354 0.984 . S
H1367 N1354 0.985 . S
C1368 C1369 1.363 . S
C1368 C1374 1.379 1_554 S
C1368 N1376 1.356 . S
C1369 C1368 1.363 . S
C1369 C1375 1.363 1_455 S
C1370 C1371 1.363 1_654 S
C1370 C1375 1.379 . S
C1370 N1377 1.356 1_554 S
C1371 C1370 1.363 1_456 S
C1371 C1374 1.363 . S
N1372 C1374 1.356 . S
N1372 H1384 0.984 . S
N1372 H1385 0.985 . S
N1373 C1375 1.356 . S
N1373 H1378 0.984 . S
N1373 H1379 0.985 . S
C1374 C1368 1.379 1_556 S
C1374 C1371 1.363 . S
C1374 N1372 1.356 . S
C1375 C1369 1.363 1_655 S
C1375 C1370 1.379 . S
C1375 N1373 1.356 . S
N1376 C1368 1.356 . S
N1376 H1382 0.984 . S
N1376 H1383 0.984 . S
N1377 C1370 1.356 1_556 S
N1377 H1380 0.984 . S
N1377 H1381 0.985 1_556 S
H1378 N1373 0.984 . S
H1379 N1373 0.985 . S
H1380 N1377 0.984 . S
H1381 N1377 0.985 1_554 S
H1382 N1376 0.984 . S
H1383 N1376 0.984 . S
H1384 N1372 0.984 . S
H1385 N1372 0.985 . S
C1386 C1387 1.363 . S
C1386 C1392 1.379 1_554 S
C1386 N1394 1.356 . S
C1387 C1386 1.363 . S
C1387 C1393 1.363 . S
C1388 C1389 1.363 . S
C1388 C1393 1.379 1_556 S
C1388 N1395 1.356 . S
C1389 C1388 1.363 . S
C1389 C1392 1.363 . S
N1390 C1392 1.356 . S
N1390 H1402 0.984 . S
N1390 H1403 0.985 . S
N1391 C1393 1.356 . S
N1391 H1396 0.984 . S
N1391 H1397 0.985 . S
C1392 C1386 1.379 1_556 S
C1392 C1389 1.363 . S
C1392 N1390 1.356 . S
C1393 C1387 1.363 . S
C1393 C1388 1.379 1_554 S
C1393 N1391 1.356 . S
N1394 C1386 1.356 . S
N1394 H1400 0.984 . S
N1394 H1401 0.984 . S
N1395 C1388 1.356 . S
N1395 H1398 0.984 . S
N1395 H1399 0.985 . S
H1396 N1391 0.984 . S
H1397 N1391 0.985 . S
H1398 N1395 0.984 . S
H1399 N1395 0.985 . S
H1400 N1394 0.984 . S
H1401 N1394 0.984 . S
H1402 N1390 0.984 . S
H1403 N1390 0.985 . S
C1404 C1405 1.363 1_545 S
C1404 C1410 1.379 1_554 S
C1404 N1412 1.356 . S
C1405 C1404 1.363 1_565 S
C1405 C1411 1.363 . S
C1406 C1407 1.363 1_565 S
C1406 C1411 1.379 1_556 S
C1406 N1413 1.356 . S
C1407 C1406 1.363 1_545 S
C1407 C1410 1.363 . S
N1408 C1410 1.356 . S
N1408 H1420 0.984 . S
N1408 H1421 0.985 . S
N1409 C1411 1.356 . S
N1409 H1414 0.984 . S
N1409 H1415 0.985 . S
C1410 C1404 1.379 1_556 S
C1410 C1407 1.363 . S
C1410 N1408 1.356 . S
C1411 C1405 1.363 . S
C1411 C1406 1.379 1_554 S
C1411 N1409 1.356 . S
N1412 C1404 1.356 . S
N1412 H1418 0.984 . S
N1412 H1419 0.984 . S
N1413 C1406 1.356 . S
N1413 H1416 0.984 . S
N1413 H1417 0.985 . S
H1414 N1409 0.984 . S
H1415 N1409 0.985 . S
H1416 N1413 0.984 . S
H1417 N1413 0.985 . S
H1418 N1412 0.984 . S
H1419 N1412 0.984 . S
H1420 N1408 0.984 . S
H1421 N1408 0.985 . S
C1422 C1423 1.363 1_654 S
C1422 C1428 1.379 . S
C1422 N1430 1.356 1_554 S
C1423 C1422 1.363 1_456 S
C1423 C1429 1.365 . S
C1424 C1425 1.363 . S
C1424 C1429 1.370 1_554 S
C1424 N1431 1.356 . S
C1425 C1424 1.363 . S
C1425 C1428 1.363 1_455 S
N1426 C1428 1.356 . S
N1426 H1438 0.984 . S
N1426 H1439 0.985 . S
N1427 C1429 1.366 . S
N1427 H1432 0.984 . S
N1427 H1433 0.985 . S
C1428 C1422 1.379 . S
C1428 C1425 1.363 1_655 S
C1428 N1426 1.356 . S
C1429 C1423 1.365 . S
C1429 C1424 1.370 1_556 S
C1429 N1427 1.366 . S
N1430 C1422 1.356 1_556 S
N1430 H1436 0.984 1_556 S
N1430 H1437 0.984 . S
N1431 C1424 1.356 . S
N1431 H1434 0.984 . S
N1431 H1435 0.985 . S
H1432 N1427 0.984 . S
H1433 N1427 0.985 . S
H1434 N1431 0.984 . S
H1435 N1431 0.985 . S
H1436 N1430 0.984 1_554 S
H1437 N1430 0.984 . S
H1438 N1426 0.984 . S
H1439 N1426 0.985 . S
C1440 C1441 1.363 . S
C1440 C1446 1.379 . S
C1440 N1448 1.356 . S
C1441 C1440 1.363 . S
C1441 C1447 1.363 . S
C1442 C1443 1.363 1_554 S
C1442 C1447 1.379 . S
C1442 N1449 1.356 . S
C1443 C1442 1.363 1_556 S
C1443 C1446 1.363 1_556 S
N1444 C1446 1.356 1_556 S
N1444 H1456 0.984 . S
N1444 H1457 0.985 . S
N1445 C1447 1.356 . S
N1445 H1450 0.984 . S
N1445 H1451 0.985 . S
C1446 C1440 1.379 . S
C1446 C1443 1.363 1_554 S
C1446 N1444 1.356 1_554 S
C1447 C1441 1.363 . S
C1447 C1442 1.379 . S
C1447 N1445 1.356 . S
N1448 C1440 1.356 . S
N1448 H1454 0.984 . S
N1448 H1455 0.984 . S
N1449 C1442 1.356 . S
N1449 H1452 0.984 1_554 S
N1449 H1453 0.985 . S
H1450 N1445 0.984 . S
H1451 N1445 0.985 . S
H1452 N1449 0.984 1_556 S
H1453 N1449 0.985 . S
H1454 N1448 0.984 . S
H1455 N1448 0.984 . S
H1456 N1444 0.984 . S
H1457 N1444 0.985 . S
C1458 C1459 1.363 1_545 S
C1458 C1464 1.379 . S
C1458 N1466 1.356 . S
C1459 C1458 1.363 1_565 S
C1459 C1465 1.363 . S
C1460 C1461 1.363 1_565 S
C1460 C1465 1.379 1_556 S
C1460 N1467 1.356 . S
C1461 C1460 1.363 1_545 S
C1461 C1464 1.363 1_556 S
N1462 C1464 1.356 . S
N1462 H1474 0.984 . S
N1462 H1475 0.985 1_554 S
N1463 C1465 1.356 . S
N1463 H1468 0.984 . S
N1463 H1469 0.985 1_554 S
C1464 C1458 1.379 . S
C1464 C1461 1.363 1_554 S
C1464 N1462 1.356 . S
C1465 C1459 1.363 . S
C1465 C1460 1.379 1_554 S
C1465 N1463 1.356 . S
N1466 C1458 1.356 . S
N1466 H1472 0.984 . S
N1466 H1473 0.984 . S
N1467 C1460 1.356 . S
N1467 H1470 0.984 . S
N1467 H1471 0.985 . S
H1468 N1463 0.984 . S
H1469 N1463 0.985 1_556 S
H1470 N1467 0.984 . S
H1471 N1467 0.985 . S
H1472 N1466 0.984 . S
H1473 N1466 0.984 . S
H1474 N1462 0.984 . S
H1475 N1462 0.985 1_556 S
C1476 C1477 1.363 . S
C1476 C1482 1.379 . S
C1476 N1484 1.356 . S
C1477 C1476 1.363 . S
C1477 C1483 1.363 . S
C1478 C1479 1.363 . S
C1478 C1483 1.379 . S
C1478 N1485 1.356 . S
C1479 C1478 1.363 . S
C1479 C1482 1.363 . S
N1480 C1482 1.356 . S
N1480 H1492 0.984 . S
N1480 H1493 0.985 . S
N1481 C1483 1.356 . S
N1481 H1486 0.984 . S
N1481 H1487 0.985 . S
C1482 C1476 1.379 . S
C1482 C1479 1.363 . S
C1482 N1480 1.356 . S
C1483 C1477 1.363 . S
C1483 C1478 1.379 . S
C1483 N1481 1.356 . S
N1484 C1476 1.356 . S
N1484 H1490 0.984 . S
N1484 H1491 0.984 . S
N1485 C1478 1.356 . S
N1485 H1488 0.984 . S
N1485 H1489 0.985 . S
H1486 N1481 0.984 . S
H1487 N1481 0.985 . S
H1488 N1485 0.984 . S
H1489 N1485 0.985 . S
H1490 N1484 0.984 . S
H1491 N1484 0.984 . S
H1492 N1480 0.984 . S
H1493 N1480 0.985 . S
C1494 C1495 1.363 . S
C1494 C1500 1.379 . S
C1494 N1502 1.356 . S
C1495 C1494 1.363 . S
C1495 C1501 1.363 . S
C1496 C1497 1.363 . S
C1496 C1501 1.379 . S
C1496 N1503 1.356 . S
C1497 C1496 1.363 . S
C1497 C1500 1.363 . S
N1498 C1500 1.356 . S
N1498 H1510 0.984 . S
N1498 H1511 0.985 . S
N1499 C1501 1.356 . S
N1499 H1504 0.984 . S
N1499 H1505 0.985 . S
C1500 C1494 1.379 . S
C1500 C1497 1.363 . S
C1500 N1498 1.356 . S
C1501 C1495 1.363 . S
C1501 C1496 1.379 . S
C1501 N1499 1.356 . S
N1502 C1494 1.356 . S
N1502 H1508 0.984 . S
N1502 H1509 0.984 . S
N1503 C1496 1.356 . S
N1503 H1506 0.984 . S
N1503 H1507 0.985 . S
H1504 N1499 0.984 . S
H1505 N1499 0.985 . S
H1506 N1503 0.984 . S
H1507 N1503 0.985 . S
H1508 N1502 0.984 . S
H1509 N1502 0.984 . S
H1510 N1498 0.984 . S
H1511 N1498 0.985 . S
C1512 C1513 1.363 . S
C1512 C1518 1.379 . S
C1512 N1520 1.356 . S
C1513 C1512 1.363 . S
C1513 C1519 1.363 . S
C1514 C1515 1.363 . S
C1514 C1519 1.379 . S
C1514 N1521 1.356 . S
C1515 C1514 1.363 . S
C1515 C1518 1.363 . S
N1516 C1518 1.356 . S
N1516 H1528 0.984 . S
N1516 H1529 0.985 . S
N1517 C1519 1.356 . S
N1517 H1522 0.984 . S
N1517 H1523 0.985 . S
C1518 C1512 1.379 . S
C1518 C1515 1.363 . S
C1518 N1516 1.356 . S
C1519 C1513 1.363 . S
C1519 C1514 1.379 . S
C1519 N1517 1.356 . S
N1520 C1512 1.356 . S
N1520 H1526 0.984 . S
N1520 H1527 0.984 . S
N1521 C1514 1.356 . S
N1521 H1524 0.984 . S
N1521 H1525 0.985 . S
H1522 N1517 0.984 . S
H1523 N1517 0.985 . S
H1524 N1521 0.984 . S
H1525 N1521 0.985 . S
H1526 N1520 0.984 . S
H1527 N1520 0.984 . S
H1528 N1516 0.984 . S
H1529 N1516 0.985 . S
C1530 C1531 1.363 . S
C1530 C1536 1.379 . S
C1530 N1538 1.356 . S
C1531 C1530 1.363 . S
C1531 C1537 1.363 . S
C1532 C1533 1.363 . S
C1532 C1537 1.379 . S
C1532 N1539 1.356 . S
C1533 C1532 1.363 . S
C1533 C1536 1.363 . S
N1534 C1536 1.356 . S
N1534 H1546 0.984 . S
N1534 H1547 0.985 . S
N1535 C1537 1.356 . S
N1535 H1540 0.984 . S
N1535 H1541 0.985 . S
C1536 C1530 1.379 . S
C1536 C1533 1.363 . S
C1536 N1534 1.356 . S
C1537 C1531 1.363 . S
C1537 C1532 1.379 . S
C1537 N1535 1.356 . S
N1538 C1530 1.356 . S
N1538 H1544 0.984 . S
N1538 H1545 0.984 . S
N1539 C1532 1.356 . S
N1539 H1542 0.984 . S
N1539 H1543 0.985 . S
H1540 N1535 0.984 . S
H1541 N1535 0.985 . S
H1542 N1539 0.984 . S
H1543 N1539 0.985 . S
H1544 N1538 0.984 . S
H1545 N1538 0.984 . S
H1546 N1534 0.984 . S
H1547 N1534 0.985 . S
C1548 C1549 1.363 . S
C1548 C1554 1.379 . S
C1548 N1556 1.356 . S
C1549 C1548 1.363 . S
C1549 C1555 1.363 . S
C1550 C1551 1.363 . S
C1550 C1555 1.379 . S
C1550 N1557 1.356 . S
C1551 C1550 1.363 . S
C1551 C1554 1.363 . S
N1552 C1554 1.356 . S
N1552 H1564 0.984 . S
N1552 H1565 0.985 . S
N1553 C1555 1.356 . S
N1553 H1558 0.984 . S
N1553 H1559 0.985 . S
C1554 C1548 1.379 . S
C1554 C1551 1.363 . S
C1554 N1552 1.356 . S
C1555 C1549 1.363 . S
C1555 C1550 1.379 . S
C1555 N1553 1.356 . S
N1556 C1548 1.356 . S
N1556 H1562 0.984 . S
N1556 H1563 0.984 . S
N1557 C1550 1.356 . S
N1557 H1560 0.984 . S
N1557 H1561 0.985 . S
H1558 N1553 0.984 . S
H1559 N1553 0.985 . S
H1560 N1557 0.984 . S
H1561 N1557 0.985 . S
H1562 N1556 0.984 . S
H1563 N1556 0.984 . S
H1564 N1552 0.984 . S
H1565 N1552 0.985 . S
C1566 C1567 1.363 . S
C1566 C1572 1.379 . S
C1566 N1574 1.356 . S
C1567 C1566 1.363 . S
C1567 C1573 1.363 . S
C1568 C1569 1.363 . S
C1568 C1573 1.379 . S
C1568 N1575 1.356 . S
C1569 C1568 1.363 . S
C1569 C1572 1.363 . S
N1570 C1572 1.356 . S
N1570 H1582 0.984 . S
N1570 H1583 0.985 . S
N1571 C1573 1.356 . S
N1571 H1576 0.984 . S
N1571 H1577 0.985 . S
C1572 C1566 1.379 . S
C1572 C1569 1.363 . S
C1572 N1570 1.356 . S
C1573 C1567 1.363 . S
C1573 C1568 1.379 . S
C1573 N1571 1.356 . S
N1574 C1566 1.356 . S
N1574 H1580 0.984 . S
N1574 H1581 0.984 . S
N1575 C1568 1.356 . S
N1575 H1578 0.984 . S
N1575 H1579 0.985 . S
H1576 N1571 0.984 . S
H1577 N1571 0.985 . S
H1578 N1575 0.984 . S
H1579 N1575 0.985 . S
H1580 N1574 0.984 . S
H1581 N1574 0.984 . S
H1582 N1570 0.984 . S
H1583 N1570 0.985 . S
C1584 C1585 1.363 . S
C1584 C1590 1.379 . S
C1584 N1592 1.356 . S
C1585 C1584 1.363 . S
C1585 C1591 1.363 . S
C1586 C1587 1.363 . S
C1586 C1591 1.379 . S
C1586 N1593 1.356 . S
C1587 C1586 1.363 . S
C1587 C1590 1.363 . S
N1588 C1590 1.356 . S
N1588 H1600 0.984 . S
N1588 H1601 0.985 . S
N1589 C1591 1.356 . S
N1589 H1594 0.984 . S
N1589 H1595 0.985 . S
C1590 C1584 1.379 . S
C1590 C1587 1.363 . S
C1590 N1588 1.356 . S
C1591 C1585 1.363 . S
C1591 C1586 1.379 . S
C1591 N1589 1.356 . S
N1592 C1584 1.356 . S
N1592 H1598 0.984 . S
N1592 H1599 0.984 . S
N1593 C1586 1.356 . S
N1593 H1596 0.984 . S
N1593 H1597 0.985 . S
H1594 N1589 0.984 . S
H1595 N1589 0.985 . S
H1596 N1593 0.984 . S
H1597 N1593 0.985 . S
H1598 N1592 0.984 . S
H1599 N1592 0.984 . S
H1600 N1588 0.984 . S
H1601 N1588 0.985 . S
C1602 C1603 1.363 . S
C1602 C1608 1.379 . S
C1602 N1610 1.356 . S
C1603 C1602 1.363 . S
C1603 C1609 1.363 . S
C1604 C1605 1.363 . S
C1604 C1609 1.379 . S
C1604 N1611 1.356 . S
C1605 C1604 1.363 . S
C1605 C1608 1.363 . S
N1606 C1608 1.356 . S
N1606 H1618 0.984 . S
N1606 H1619 0.985 . S
N1607 C1609 1.356 . S
N1607 H1612 0.984 . S
N1607 H1613 0.985 . S
C1608 C1602 1.379 . S
C1608 C1605 1.363 . S
C1608 N1606 1.356 . S
C1609 C1603 1.363 . S
C1609 C1604 1.379 . S
C1609 N1607 1.356 . S
N1610 C1602 1.356 . S
N1610 H1616 0.984 . S
N1610 H1617 0.984 . S
N1611 C1604 1.356 . S
N1611 H1614 0.984 . S
N1611 H1615 0.985 . S
H1612 N1607 0.984 . S
H1613 N1607 0.985 . S
H1614 N1611 0.984 . S
H1615 N1611 0.985 . S
H1616 N1610 0.984 . S
H1617 N1610 0.984 . S
H1618 N1606 0.984 . S
H1619 N1606 0.985 . S
C1620 C1621 1.363 . S
C1620 C1626 1.379 . S
C1620 N1628 1.356 . S
C1621 C1620 1.363 . S
C1621 C1627 1.363 . S
C1622 C1623 1.363 . S
C1622 C1627 1.379 . S
C1622 N1629 1.356 . S
C1623 C1622 1.363 . S
C1623 C1626 1.363 . S
N1624 C1626 1.356 . S
N1624 H1636 0.984 . S
N1624 H1637 0.985 . S
N1625 C1627 1.356 . S
N1625 H1630 0.984 . S
N1625 H1631 0.985 . S
C1626 C1620 1.379 . S
C1626 C1623 1.363 . S
C1626 N1624 1.356 . S
C1627 C1621 1.363 . S
C1627 C1622 1.379 . S
C1627 N1625 1.356 . S
N1628 C1620 1.356 . S
N1628 H1634 0.984 . S
N1628 H1635 0.984 . S
N1629 C1622 1.356 . S
N1629 H1632 0.984 . S
N1629 H1633 0.985 . S
H1630 N1625 0.984 . S
H1631 N1625 0.985 . S
H1632 N1629 0.984 . S
H1633 N1629 0.985 . S
H1634 N1628 0.984 . S
H1635 N1628 0.984 . S
H1636 N1624 0.984 . S
H1637 N1624 0.985 . S
C1638 C1639 1.363 . S
C1638 C1644 1.379 . S
C1638 N1646 1.356 . S
C1639 C1638 1.363 . S
C1639 C1645 1.363 . S
C1640 C1641 1.363 . S
C1640 C1645 1.379 . S
C1640 N1647 1.356 . S
C1641 C1640 1.363 . S
C1641 C1644 1.363 . S
N1642 C1644 1.356 . S
N1642 H1654 0.984 . S
N1642 H1655 0.985 . S
N1643 C1645 1.356 . S
N1643 H1648 0.984 . S
N1643 H1649 0.985 . S
C1644 C1638 1.379 . S
C1644 C1641 1.363 . S
C1644 N1642 1.356 . S
C1645 C1639 1.363 . S
C1645 C1640 1.379 . S
C1645 N1643 1.356 . S
N1646 C1638 1.356 . S
N1646 H1652 0.984 . S
N1646 H1653 0.984 . S
N1647 C1640 1.356 . S
N1647 H1650 0.984 . S
N1647 H1651 0.985 . S
H1648 N1643 0.984 . S
H1649 N1643 0.985 . S
H1650 N1647 0.984 . S
H1651 N1647 0.985 . S
H1652 N1646 0.984 . S
H1653 N1646 0.984 . S
H1654 N1642 0.984 . S
H1655 N1642 0.985 . S
C1656 C1657 1.363 . S
C1656 C1662 1.379 . S
C1656 N1664 1.356 . S
C1657 C1656 1.363 . S
C1657 C1663 1.363 . S
C1658 C1659 1.363 . S
C1658 C1663 1.379 . S
C1658 N1665 1.356 . S
C1659 C1658 1.363 . S
C1659 C1662 1.363 . S
N1660 C1662 1.356 . S
N1660 H1672 0.984 . S
N1660 H1673 0.985 . S
N1661 C1663 1.356 . S
N1661 H1666 0.984 . S
N1661 H1667 0.985 . S
C1662 C1656 1.379 . S
C1662 C1659 1.363 . S
C1662 N1660 1.356 . S
C1663 C1657 1.363 . S
C1663 C1658 1.379 . S
C1663 N1661 1.356 . S
N1664 C1656 1.356 . S
N1664 H1670 0.984 . S
N1664 H1671 0.984 . S
N1665 C1658 1.356 . S
N1665 H1668 0.984 . S
N1665 H1669 0.985 . S
H1666 N1661 0.984 . S
H1667 N1661 0.985 . S
H1668 N1665 0.984 . S
H1669 N1665 0.985 . S
H1670 N1664 0.984 . S
H1671 N1664 0.984 . S
H1672 N1660 0.984 . S
H1673 N1660 0.985 . S
C1674 C1675 1.363 . S
C1674 C1680 1.379 . S
C1674 N1682 1.356 . S
C1675 C1674 1.363 . S
C1675 C1681 1.363 . S
C1676 C1677 1.363 . S
C1676 C1681 1.379 . S
C1676 N1683 1.356 . S
C1677 C1676 1.363 . S
C1677 C1680 1.363 . S
N1678 C1680 1.356 . S
N1678 H1690 0.984 . S
N1678 H1691 0.985 . S
N1679 C1681 1.356 . S
N1679 H1684 0.984 . S
N1679 H1685 0.985 . S
C1680 C1674 1.379 . S
C1680 C1677 1.363 . S
C1680 N1678 1.356 . S
C1681 C1675 1.363 . S
C1681 C1676 1.379 . S
C1681 N1679 1.356 . S
N1682 C1674 1.356 . S
N1682 H1688 0.984 . S
N1682 H1689 0.984 . S
N1683 C1676 1.356 . S
N1683 H1686 0.984 . S
N1683 H1687 0.985 . S
H1684 N1679 0.984 . S
H1685 N1679 0.985 . S
H1686 N1683 0.984 . S
H1687 N1683 0.985 . S
H1688 N1682 0.984 . S
H1689 N1682 0.984 . S
H1690 N1678 0.984 . S
H1691 N1678 0.985 . S
C721 C539 2.495 . S
C723 C19 2.507 . S
C739 C58 2.036 . S
C741 C578 2.033 . S
C757 C99 2.277 . S
C759 C498 2.304 . S
C775 C98 1.889 . S
C777 C298 1.884 . S
C793 C338 2.192 . S
C795 C18 2.177 . S
C811 C59 2.351 . S
C813 C258 2.386 . S
C829 C130 2.274 . S
C831 C409 2.288 . S
C847 C169 1.755 . S
C849 C449 1.757 . S
C865 C369 2.005 . S
C867 C210 1.972 . S
C883 C649 2.041 . S
C885 C209 2.056 . S
C901 C129 2.303 . S
C903 C690 2.281 . S
C919 C610 2.523 . S
C921 C170 2.492 . S
C937 C339 2.159 . S
C939 C538 2.198 . S
C955 C259 2.394 . S
C957 C579 2.384 . S
C973 C299 2.644 . S
C975 C499 2.670 . S
C991 C370 2.776 . S
C993 C650 2.765 . S
C1009 C689 2.329 . S
C1011 C410 2.313 . S
C1027 C609 2.603 . S
C1029 C450 2.572 . S
C1045 C9 1.435 . S
C1047 C178 1.435 . S
C1063 C219 1.891 . S
C1065 C50 1.895 . S
C1081 C139 1.682 . S
C1083 C89 1.511 . S
C1099 C179 1.921 . S
C1101 C90 1.969 . S
C1117 C218 1.671 . S
C1119 C10 1.738 . S
C1135 C138 1.521 . S
C1137 C49 1.577 . S
C1153 C419 1.979 . S
C1155 C250 1.966 . S
C1171 C459 2.054 . S
C1173 C290 2.043 . S
C1189 C379 2.071 . S
C1191 C330 1.964 . S
C1207 C418 1.503 . S
C1209 C329 1.503 . S
C1225 C458 1.425 . S
C1227 C249 1.562 . S
C1243 C378 1.449 . S
C1245 C289 1.461 . S
C1261 C658 1.567 . S
C1263 C489 1.511 . S
C1279 C699 1.957 . S
C1281 C530 1.910 . S
C1297 C569 1.661 . S
C1299 C619 1.725 . S
C1315 C570 2.077 . S
C1317 C659 2.081 . S
C1333 C490 1.835 . S
C1335 C698 1.662 . S
C1351 C618 1.545 . S
C1353 C529 1.543 . S
C1369 C15 1.361 . S
C1371 C6 1.361 . S
C1387 C46 1.516 . S
C1389 C55 1.516 . S
C1405 C95 1.418 . S
C1407 C86 1.418 . S
C1423 C126 1.464 . S
C1425 C135 1.464 . S
C1441 C166 1.371 . S
C1443 C175 1.371 . S
C1459 C215 1.602 . S
C1461 C206 1.602 . S
C1477 C255 1.732 . S
C1479 C246 1.732 . S
C1495 C286 1.334 . S
C1497 C295 1.334 . S
C1513 C335 1.779 . S
C1515 C326 1.779 . S
C1531 C366 1.304 . S
C1533 C375 1.304 . S
C1549 C406 1.696 . S
C1551 C415 1.696 . S
C1567 C446 1.380 . S
C1569 C455 1.380 . S
C1585 C486 1.325 . S
C1587 C495 1.325 . S
C1603 C526 1.483 . S
C1605 C535 1.483 . S
C1621 C575 1.404 . S
C1623 C566 1.404 . S
C1639 C615 1.512 . S
C1641 C606 1.512 . S
C1657 C646 1.343 . S
C1659 C655 1.343 . S
C1675 C686 1.496 . S
C1677 C695 1.496 . S
