# Generated by pormake.
# Topology zfr, (5)-cn, num edge types: 1
# Building blocks:
#     Node 0, Type 0, BuildingBlock: XOMCOT_clean_sbu_1, # of connection points: 5
#     Node 1, Type 0, BuildingBlock: XOMCOT_clean_sbu_1, # of connection points: 5
#     Node 2, Type 0, BuildingBlock: XOMCOT_clean_sbu_1, # of connection points: 5
#     Node 3, Type 0, BuildingBlock: XOMCOT_clean_sbu_1, # of connection points: 5
#     Node 4, Type 0, BuildingBlock: XOMCOT_clean_sbu_1, # of connection points: 5
#     Node 5, Type 0, BuildingBlock: XOMCOT_clean_sbu_1, # of connection points: 5
#     Node 6, Type 0, BuildingBlock: XOMCOT_clean_sbu_1, # of connection points: 5
#     Node 7, Type 0, BuildingBlock: XOMCOT_clean_sbu_1, # of connection points: 5
#     Edge 8, Type (0, 0), BuildingBlock: OJICUG_clean_linker_0, # of connection points: 2
#     Edge 9, Type (0, 0), BuildingBlock: OJICUG_clean_linker_0, # of connection points: 2
#     Edge 10, Type (0, 0), BuildingBlock: OJICUG_clean_linker_0, # of connection points: 2
#     Edge 11, Type (0, 0), BuildingBlock: OJICUG_clean_linker_0, # of connection points: 2
#     Edge 12, Type (0, 0), BuildingBlock: OJICUG_clean_linker_0, # of connection points: 2
#     Edge 13, Type (0, 0), BuildingBlock: OJICUG_clean_linker_0, # of connection points: 2
#     Edge 14, Type (0, 0), BuildingBlock: OJICUG_clean_linker_0, # of connection points: 2
#     Edge 15, Type (0, 0), BuildingBlock: OJICUG_clean_linker_0, # of connection points: 2
#     Edge 16, Type (0, 0), BuildingBlock: OJICUG_clean_linker_0, # of connection points: 2
#     Edge 17, Type (0, 0), BuildingBlock: OJICUG_clean_linker_0, # of connection points: 2
#     Edge 18, Type (0, 0), BuildingBlock: OJICUG_clean_linker_0, # of connection points: 2
#     Edge 19, Type (0, 0), BuildingBlock: OJICUG_clean_linker_0, # of connection points: 2
#     Edge 20, Type (0, 0), BuildingBlock: OJICUG_clean_linker_0, # of connection points: 2
#     Edge 21, Type (0, 0), BuildingBlock: OJICUG_clean_linker_0, # of connection points: 2
#     Edge 22, Type (0, 0), BuildingBlock: OJICUG_clean_linker_0, # of connection points: 2
#     Edge 23, Type (0, 0), BuildingBlock: OJICUG_clean_linker_0, # of connection points: 2
#     Edge 24, Type (0, 0), BuildingBlock: OJICUG_clean_linker_0, # of connection points: 2
#     Edge 25, Type (0, 0), BuildingBlock: OJICUG_clean_linker_0, # of connection points: 2
#     Edge 26, Type (0, 0), BuildingBlock: OJICUG_clean_linker_0, # of connection points: 2
#     Edge 27, Type (0, 0), BuildingBlock: OJICUG_clean_linker_0, # of connection points: 2
# Relax obj value: 0.198
# Max RMSD: 0.181
# Mean RMSD: 0.181
data_MOF--net-zfr--node1-XOMCOT_clean_sbu_1--edge1-OJICUG_clean_linker_0
_symmetry_space_group_name_H-M    P1
_symmetry_Int_Tables_number       1
_symmetry_cell_setting            triclinic
loop_
_symmetry_equiv_pos_as_xyz
'x, y, z'
_cell_length_a     38.224422
_cell_length_b     38.221772
_cell_length_c     13.304627
_cell_angle_alpha  90.023505
_cell_angle_beta   90.015555
_cell_angle_gamma 89.997531
loop_
_atom_site_label
_atom_site_type_symbol
_atom_site_fract_x
_atom_site_fract_y
_atom_site_fract_z
_atom_type_partial_charge
C0 C 0.1689 0.32677 0.10038 0.0
C1 C 0.17164 0.32587 0.99691 0.0
N2 N 0.14461 0.30708 0.96064 0.0
N3 N 0.14022 0.30872 0.12845 0.0
C4 C 0.12663 0.29632 0.04185 0.0
H5 H 0.18534 0.34151 0.15126 0.0
Co6 Co 0.1195 0.30736 0.25499 0.0
C7 C 0.04442 0.31342 0.18838 0.0
O8 O 0.03787 0.33826 0.25407 0.0
N9 N 0.09928 0.3049 0.38384 0.0
C10 C 0.06765 0.28954 0.51737 0.0
C11 C 0.06829 0.29152 0.41409 0.0
C12 C 0.11737 0.30935 0.4702 0.0
N13 N 0.09875 0.30067 0.55255 0.0
O14 O 0.12922 0.25826 0.26462 0.0
H15 H 0.0482 0.28132 0.36519 0.0
H16 H 0.14448 0.31714 0.47247 0.0
O17 O 0.07421 0.29827 0.18873 0.0
C18 C 0.15879 0.255 0.30789 0.0
O19 O 0.17689 0.28331 0.32856 0.0
N20 N 0.11337 0.35672 0.24917 0.0
C21 C 0.11173 0.42985 0.24845 0.0
C22 C 0.09516 0.41077 0.17215 0.0
C23 C 0.0974 0.37418 0.17195 0.0
C24 C 0.13144 0.37525 0.3198 0.0
C25 C 0.13059 0.41169 0.32174 0.0
H26 H 0.08703 0.36003 0.10845 0.0
H27 H 0.14798 0.36202 0.3728 0.0
H28 H 0.10303 0.28083 0.03733 0.0
H29 H 0.19055 0.33993 0.95179 0.0
H30 H 0.04667 0.27877 0.56234 0.0
H31 H 0.08177 0.42404 0.11136 0.0
H32 H 0.14492 0.42558 0.3796 0.0
C33 C 0.68559 0.16932 0.35363 0.0
C34 C 0.68627 0.17299 0.2505 0.0
N35 N 0.70363 0.14546 0.21116 0.0
N36 N 0.70219 0.13951 0.37893 0.0
C37 C 0.71342 0.12601 0.29085 0.0
H38 H 0.67242 0.18635 0.40642 0.0
Co39 Co 0.7038 0.11893 0.50566 0.0
C40 C 0.6985 0.0435 0.4422 0.0
O41 O 0.67427 0.03689 0.50968 0.0
N42 N 0.70641 0.09898 0.63489 0.0
C43 C 0.72289 0.06826 0.76925 0.0
C44 C 0.72108 0.06864 0.66586 0.0
C45 C 0.70088 0.11696 0.72096 0.0
N46 N 0.71013 0.09882 0.80358 0.0
O47 O 0.75288 0.12877 0.51463 0.0
H48 H 0.73217 0.04892 0.61733 0.0
H49 H 0.69305 0.14408 0.72319 0.0
O50 O 0.71303 0.07359 0.44021 0.0
C51 C 0.75643 0.15826 0.55819 0.0
O52 O 0.7283 0.17636 0.58067 0.0
N53 N 0.6545 0.11263 0.50014 0.0
C54 C 0.58136 0.11103 0.49986 0.0
C55 C 0.6004 0.09351 0.42525 0.0
C56 C 0.63698 0.09571 0.42469 0.0
C57 C 0.63604 0.13161 0.56887 0.0
C58 C 0.5996 0.13078 0.57112 0.0
H59 H 0.65104 0.08459 0.36211 0.0
H60 H 0.64935 0.14885 0.61992 0.0
H61 H 0.72683 0.10125 0.28435 0.0
H62 H 0.67399 0.19376 0.20799 0.0
H63 H 0.7339 0.04763 0.81512 0.0
H64 H 0.58709 0.0794 0.36584 0.0
H65 H 0.58579 0.14583 0.6276 0.0
C66 C 0.84243 0.68573 0.60476 0.0
C67 C 0.83872 0.68648 0.50165 0.0
N68 N 0.86624 0.70384 0.46235 0.0
N69 N 0.87225 0.70229 0.6301 0.0
C70 C 0.88573 0.71357 0.54207 0.0
H71 H 0.8254 0.67257 0.65752 0.0
Co72 Co 0.8928 0.704 0.75689 0.0
C73 C 0.96816 0.69842 0.69365 0.0
O74 O 0.97469 0.67419 0.7612 0.0
N75 N 0.91267 0.70672 0.88615 0.0
C76 C 0.94342 0.72298 0.02073 0.0
C77 C 0.94313 0.72109 0.91735 0.0
C78 C 0.89453 0.70149 0.97204 0.0
N79 N 0.9127 0.71058 0.05479 0.0
O80 O 0.88302 0.75309 0.76543 0.0
H81 H 0.96305 0.7319 0.86897 0.0
H82 H 0.86733 0.69392 0.97398 0.0
O83 O 0.93815 0.7131 0.69161 0.0
C84 C 0.85328 0.75672 0.80742 0.0
O85 O 0.83499 0.72864 0.82913 0.0
N86 N 0.89906 0.65467 0.75175 0.0
C87 C 0.90061 0.58152 0.75163 0.0
C88 C 0.91798 0.60052 0.67669 0.0
C89 C 0.91581 0.63711 0.67609 0.0
C90 C 0.88026 0.63625 0.82093 0.0
C91 C 0.88107 0.59981 0.82325 0.0
H92 H 0.92684 0.65114 0.61334 0.0
H93 H 0.86318 0.64958 0.87233 0.0
H94 H 0.91048 0.72699 0.53565 0.0
H95 H 0.81791 0.67425 0.45911 0.0
H96 H 0.96414 0.73374 0.06678 0.0
H97 H 0.93193 0.58719 0.61706 0.0
H98 H 0.86617 0.58603 0.88007 0.0
C99 C 0.32709 0.84265 0.85151 0.0
C100 C 0.32617 0.83989 0.74803 0.0
N101 N 0.30732 0.86688 0.71183 0.0
N102 N 0.30898 0.8713 0.87964 0.0
C103 C 0.29654 0.88486 0.79308 0.0
H104 H 0.34185 0.82623 0.90235 0.0
Co105 Co 0.30751 0.892 0.00625 0.0
C106 C 0.31359 0.96706 0.93981 0.0
O107 O 0.3384 0.97362 0.00563 0.0
N108 N 0.30492 0.91219 0.13513 0.0
C109 C 0.28963 0.94383 0.26874 0.0
C110 C 0.29165 0.94322 0.16547 0.0
C111 C 0.30925 0.89404 0.2214 0.0
N112 N 0.30063 0.91268 0.30382 0.0
O113 O 0.25843 0.88225 0.01551 0.0
H114 H 0.28156 0.96337 0.11665 0.0
H115 H 0.31696 0.8669 0.22352 0.0
O116 O 0.29843 0.93728 0.9401 0.0
C117 C 0.25512 0.85255 0.05795 0.0
O118 O 0.2834 0.83438 0.07845 0.0
N119 N 0.35687 0.89819 1.00072 0.0
C120 C 0.42999 0.89992 1.00022 0.0
C121 C 0.41092 0.91639 0.92376 0.0
C122 C 0.37434 0.91412 0.92347 0.0
C123 C 0.37539 0.88024 0.07158 0.0
C124 C 0.41182 0.88114 0.07363 0.0
H125 H 0.36022 0.92444 0.85987 0.0
H126 H 0.36216 0.86375 0.12469 0.0
H127 H 0.281 0.90843 0.78862 0.0
H128 H 0.34024 0.821 0.70286 0.0
H129 H 0.27895 0.96486 0.31378 0.0
H130 H 0.4242 0.92973 0.8629 0.0
H131 H 0.4257 0.86689 0.13165 0.0
C132 C 0.16893 0.6839 0.40696 0.0
C133 C 0.17169 0.68482 0.51043 0.0
N134 N 0.14469 0.70366 0.54666 0.0
N135 N 0.14026 0.70199 0.37886 0.0
C136 C 0.1267 0.71442 0.46543 0.0
H137 H 0.18535 0.66915 0.3561 0.0
Co138 Co 0.11957 0.70348 0.25225 0.0
C139 C 0.04451 0.69734 0.31893 0.0
O140 O 0.03791 0.67249 0.25329 0.0
N141 N 0.09939 0.70608 0.1234 0.0
C142 C 0.06771 0.72123 0.98978 0.0
C143 C 0.06831 0.71921 0.09304 0.0
C144 C 0.11758 0.70183 0.03715 0.0
N145 N 0.09891 0.71037 0.95471 0.0
O146 O 0.12922 0.75258 0.24319 0.0
H147 H 0.0481 0.72919 0.14185 0.0
H148 H 0.14474 0.69422 0.03508 0.0
O149 O 0.07429 0.71249 0.31843 0.0
C150 C 0.15895 0.75606 0.20099 0.0
O151 O 0.17725 0.72789 0.18031 0.0
N152 N 0.11344 0.65411 0.2576 0.0
C153 C 0.11175 0.58098 0.25772 0.0
C154 C 0.09525 0.59999 0.33425 0.0
C155 C 0.09751 0.63658 0.33474 0.0
C156 C 0.13142 0.63563 0.18668 0.0
C157 C 0.13055 0.5992 0.18445 0.0
H158 H 0.08716 0.65066 0.39838 0.0
H159 H 0.1479 0.6489 0.13362 0.0
H160 H 0.10313 0.72996 0.46992 0.0
H161 H 0.1906 0.67077 0.55559 0.0
H162 H 0.04663 0.7318 0.94473 0.0
H163 H 0.0819 0.58667 0.395 0.0
H164 H 0.14482 0.58535 0.12638 0.0
C165 C 0.3258 0.1695 0.65451 0.0
C166 C 0.32512 0.17318 0.75765 0.0
N167 N 0.30781 0.14563 0.79696 0.0
N168 N 0.30926 0.13966 0.62919 0.0
C169 C 0.29805 0.12615 0.71725 0.0
H170 H 0.33894 0.18654 0.60174 0.0
Co171 Co 0.3077 0.11907 0.50241 0.0
C172 C 0.31299 0.04365 0.56548 0.0
O173 O 0.3372 0.03705 0.49793 0.0
N174 N 0.30514 0.09914 0.37312 0.0
C175 C 0.2886 0.06846 0.23867 0.0
C176 C 0.29042 0.06883 0.34205 0.0
C177 C 0.31069 0.11712 0.28711 0.0
N178 N 0.3014 0.099 0.20443 0.0
O179 O 0.25862 0.12889 0.49324 0.0
H180 H 0.27928 0.04912 0.39052 0.0
H181 H 0.31854 0.14424 0.28498 0.0
O182 O 0.29846 0.07374 0.56767 0.0
C183 C 0.25509 0.15842 0.44994 0.0
O184 O 0.28324 0.17656 0.42798 0.0
N185 N 0.357 0.11279 0.50809 0.0
C186 C 0.43013 0.11113 0.50843 0.0
C187 C 0.41108 0.09358 0.5829 0.0
C188 C 0.37449 0.09581 0.58344 0.0
C189 C 0.37548 0.1318 0.43951 0.0
C190 C 0.41191 0.13095 0.4373 0.0
H191 H 0.36042 0.08465 0.64591 0.0
H192 H 0.36218 0.14906 0.38854 0.0
H193 H 0.28469 0.10136 0.72374 0.0
H194 H 0.33737 0.19398 0.80019 0.0
H195 H 0.27755 0.04786 0.19275 0.0
H196 H 0.42437 0.07943 0.64221 0.0
H197 H 0.42575 0.14601 0.38093 0.0
C198 C 0.84159 0.32616 0.90396 0.0
C199 C 0.838 0.32564 0.00713 0.0
N200 N 0.86548 0.3082 0.04645 0.0
N201 N 0.87131 0.3094 0.87863 0.0
C202 C 0.88482 0.29821 0.96675 0.0
H203 H 0.82463 0.3394 0.85118 0.0
Co204 Co 0.89193 0.30791 0.75193 0.0
C205 C 0.96745 0.31256 0.8145 0.0
O206 O 0.97417 0.33655 0.74643 0.0
N207 N 0.91198 0.30547 0.62263 0.0
C208 C 0.94241 0.28812 0.4886 0.0
C209 C 0.94186 0.28981 0.59197 0.0
C210 C 0.89443 0.31178 0.53626 0.0
N211 N 0.91239 0.30196 0.45384 0.0
O212 O 0.88182 0.25887 0.74195 0.0
H213 H 0.96102 0.27789 0.64075 0.0
H214 H 0.86756 0.32041 0.53356 0.0
O215 O 0.93722 0.29835 0.8173 0.0
C216 C 0.85274 0.25576 0.69584 0.0
O217 O 0.83517 0.28418 0.67286 0.0
N218 N 0.89844 0.35715 0.75833 0.0
C219 C 0.90021 0.43028 0.75937 0.0
C220 C 0.91813 0.4111 0.83289 0.0
C221 C 0.91583 0.37452 0.83316 0.0
C222 C 0.87904 0.37574 0.6909 0.0
C223 C 0.87995 0.41218 0.689 0.0
H224 H 0.92722 0.36036 0.89514 0.0
H225 H 0.8614 0.36252 0.64079 0.0
H226 H 0.90956 0.28475 0.97331 0.0
H227 H 0.81736 0.33811 0.04971 0.0
H228 H 0.9627 0.27634 0.44303 0.0
H229 H 0.93262 0.42429 0.89174 0.0
H230 H 0.86458 0.4261 0.63349 0.0
C231 C 0.68406 0.8425 0.15572 0.0
C232 C 0.68489 0.83978 0.2592 0.0
N233 N 0.70372 0.86678 0.29552 0.0
N234 N 0.70221 0.87113 0.12769 0.0
C235 C 0.71459 0.88471 0.21433 0.0
H236 H 0.6693 0.8261 0.10481 0.0
Co237 Co 0.70355 0.89185 1.00119 0.0
C238 C 0.69786 0.96699 0.06752 0.0
O239 O 0.67316 0.97365 1.00151 0.0
N240 N 0.70597 0.91212 0.87232 0.0
C241 C 0.72168 0.94361 0.73885 0.0
C242 C 0.71978 0.94293 0.84214 0.0
C243 C 0.70114 0.89416 0.78587 0.0
N244 N 0.71006 0.9127 0.70358 0.0
O245 O 0.75262 0.88197 0.99118 0.0
H246 H 0.73037 0.9628 0.8911 0.0
H247 H 0.69299 0.86717 0.78344 0.0
O248 O 0.71283 0.93711 0.06743 0.0
C249 C 0.75566 0.85257 0.94674 0.0
O250 O 0.72721 0.83474 0.9258 0.0
N251 N 0.65423 0.89813 0.00738 0.0
C252 C 0.58112 0.89987 0.00849 0.0
C253 C 0.60026 0.91665 0.08426 0.0
C254 C 0.63684 0.91436 0.08432 0.0
C255 C 0.63564 0.87984 0.93737 0.0
C256 C 0.5992 0.88074 0.9356 0.0
H257 H 0.65103 0.92486 0.14756 0.0
H258 H 0.64882 0.86308 0.88485 0.0
H259 H 0.73013 0.90828 0.21888 0.0
H260 H 0.67074 0.82093 0.30428 0.0
H261 H 0.73278 0.96443 0.69391 0.0
H262 H 0.58705 0.93023 0.14481 0.0
H263 H 0.58526 0.86623 0.87821 0.0
C264 C 0.21441 0.17483 0.3134 0.0
C265 C 0.22112 0.17227 0.41706 0.0
H266 H 0.18772 0.20294 0.19648 0.0
C267 C 0.201 0.19206 0.48426 0.0
H268 H 0.23036 0.16042 0.26023 0.0
C269 C 0.17693 0.21657 0.44774 0.0
C270 C 0.17245 0.22129 0.34373 0.0
H271 H 0.20646 0.19123 0.56415 0.0
H272 H 0.1642 0.23406 0.50045 0.0
C273 C 0.19004 0.19908 0.27689 0.0
C274 C 0.83372 0.21745 0.55657 0.0
C275 C 0.83898 0.22202 0.66034 0.0
H276 H 0.80367 0.19193 0.44163 0.0
C277 C 0.82233 0.19937 0.72789 0.0
H278 H 0.8458 0.23521 0.50337 0.0
C279 C 0.798 0.17485 0.69249 0.0
C280 C 0.79049 0.17243 0.58924 0.0
H281 H 0.82531 0.20306 0.80819 0.0
H282 H 0.7827 0.16009 0.7464 0.0
C283 C 0.80975 0.19267 0.52116 0.0
C284 C 0.81757 0.80903 0.76986 0.0
C285 C 0.83898 0.79083 0.83741 0.0
H286 H 0.77418 0.8441 0.75324 0.0
C287 C 0.83757 0.79923 0.94025 0.0
H288 H 0.81752 0.80222 0.69078 0.0
C289 C 0.81295 0.8234 0.97609 0.0
C290 C 0.78922 0.83897 0.90941 0.0
H291 H 0.85321 0.7847 0.99386 0.0
H292 H 0.81009 0.82704 0.05643 0.0
C293 C 0.79274 0.83286 0.80571 0.0
C294 C 0.19166 0.81089 0.23372 0.0
C295 C 0.17265 0.78993 0.16675 0.0
H296 H 0.23298 0.84847 0.24978 0.0
C297 C 0.17582 0.79583 0.06285 0.0
H298 H 0.19036 0.80606 0.31388 0.0
C299 C 0.19993 0.82027 0.02611 0.0
C300 C 0.22137 0.83878 0.09298 0.0
H301 H 0.16202 0.77924 0.00993 0.0
H302 H 0.20432 0.82199 0.9458 0.0
C303 C 0.21602 0.83507 0.19698 0.0
C304 C 0.14642 0.30086 0.6794 0.0
C305 C 0.11046 0.30135 0.65573 0.0
H306 H 0.18542 0.30223 0.79542 0.0
C307 C 0.0861 0.3031 0.73465 0.0
H308 H 0.16601 0.29883 0.62112 0.0
C309 C 0.09736 0.30455 0.83436 0.0
C310 C 0.13326 0.30444 0.85774 0.0
H311 H 0.05831 0.3041 0.71952 0.0
H312 H 0.07787 0.3067 0.89306 0.0
C313 C 0.15766 0.30262 0.7793 0.0
C314 C 0.73243 0.11142 0.07598 0.0
C315 C 0.70668 0.13549 0.10677 0.0
H316 H 0.75376 0.08091 0.95582 0.0
C317 C 0.68262 0.1478 0.03508 0.0
H318 H 0.75181 0.1018 0.12839 0.0
C319 C 0.68389 0.13584 0.93585 0.0
C320 C 0.70916 0.11124 0.90586 0.0
H321 H 0.66209 0.16587 0.05599 0.0
H322 H 0.6645 0.14526 0.88308 0.0
C323 C 0.73355 0.09932 0.97692 0.0
C324 C 0.87553 0.68443 0.18677 0.0
C325 C 0.90026 0.70961 0.157 0.0
H326 H 0.84549 0.66263 0.30676 0.0
C327 C 0.91235 0.73385 0.22827 0.0
H328 H 0.86598 0.66517 0.13381 0.0
C329 C 0.9003 0.73267 0.32735 0.0
C330 C 0.87613 0.70699 0.35796 0.0
H331 H 0.93086 0.75398 0.20732 0.0
H332 H 0.91006 0.75194 0.37992 0.0
C333 C 0.86364 0.6831 0.28603 0.0
C334 C 0.30317 0.92535 0.48592 0.0
C335 C 0.30136 0.90098 0.40698 0.0
H336 H 0.30689 0.9336 0.64431 0.0
C337 C 0.30089 0.86502 0.43064 0.0
H338 H 0.30416 0.95315 0.47082 0.0
C339 C 0.30274 0.85379 0.53052 0.0
C340 C 0.30461 0.87821 0.60896 0.0
H341 H 0.29882 0.84541 0.37236 0.0
H342 H 0.30237 0.82603 0.54664 0.0
C343 C 0.3047 0.91411 0.5856 0.0
C344 C 0.14656 0.71016 0.82785 0.0
C345 C 0.11061 0.70964 0.85153 0.0
H346 H 0.18554 0.70871 0.71181 0.0
C347 C 0.08624 0.70777 0.77262 0.0
H348 H 0.16616 0.71228 0.8861 0.0
C349 C 0.09747 0.70623 0.67293 0.0
C350 C 0.13336 0.70637 0.64954 0.0
H351 H 0.05844 0.70673 0.78773 0.0
H352 H 0.07798 0.70399 0.61424 0.0
C353 C 0.15778 0.7083 0.72795 0.0
C354 C 0.32762 0.13603 0.07221 0.0
C355 C 0.30234 0.11144 0.1022 0.0
H356 H 0.34939 0.16604 0.95208 0.0
C357 C 0.27793 0.09953 0.03116 0.0
H358 H 0.34702 0.14544 0.12496 0.0
C359 C 0.27903 0.11162 0.93212 0.0
C360 C 0.30479 0.13568 0.90133 0.0
H361 H 0.25771 0.08113 0.05226 0.0
H362 H 0.25963 0.10201 0.87972 0.0
C363 C 0.32886 0.14799 0.973 0.0
C364 C 0.87591 0.32869 0.32105 0.0
C365 C 0.90001 0.30299 0.3515 0.0
H366 H 0.84616 0.35068 0.20062 0.0
C367 C 0.91135 0.27814 0.28088 0.0
H368 H 0.86695 0.34842 0.37341 0.0
C369 C 0.89917 0.27921 0.1819 0.0
C370 C 0.87555 0.30533 0.15076 0.0
H371 H 0.92934 0.25759 0.30227 0.0
H372 H 0.90833 0.2595 0.12981 0.0
C373 C 0.86384 0.32987 0.22193 0.0
C374 C 0.70641 0.91407 0.42176 0.0
C375 C 0.70632 0.87815 0.39842 0.0
H376 H 0.70703 0.95314 0.53659 0.0
C377 C 0.70787 0.85376 0.47692 0.0
H378 H 0.70445 0.93355 0.36302 0.0
C379 C 0.7096 0.86501 0.57681 0.0
C380 C 0.70934 0.90098 0.60042 0.0
H381 H 0.7081 0.82598 0.46086 0.0
H382 H 0.71143 0.84541 0.63513 0.0
C383 C 0.70784 0.92533 0.52147 0.0
C384 C 0.01419 0.28019 0.04941 0.0
C385 C 0.02357 0.31207 0.09477 0.0
H386 H 0.98798 0.25523 0.92505 0.0
C387 C 0.01569 0.34348 0.04506 0.0
H388 H 0.02039 0.25562 0.08583 0.0
C389 C 0.99932 0.34316 0.95134 0.0
C390 C 0.98896 0.3115 0.90692 0.0
H391 H 0.02297 0.36843 0.07757 0.0
H392 H 0.99369 0.36792 0.91511 0.0
C393 C 0.99612 0.27995 0.95728 0.0
C394 C 0.6677 0.99622 0.20988 0.0
C395 C 0.69917 0.98783 0.16115 0.0
H396 H 0.64311 0.01845 0.33928 0.0
C397 C 0.73101 0.99661 0.2077 0.0
H398 H 0.64276 0.98938 0.1765 0.0
C399 C 0.73118 0.01456 0.30004 0.0
C400 C 0.69956 0.02218 0.34943 0.0
H401 H 0.75562 0.99001 0.17209 0.0
H402 H 0.7559 0.0222 0.33324 0.0
C403 C 0.66791 0.01246 0.30379 0.0
C404 C 0.01477 0.73064 0.4585 0.0
C405 C 0.02374 0.69873 0.41261 0.0
H406 H 0.98908 0.75568 0.58355 0.0
C407 C 0.01562 0.66733 0.46201 0.0
H408 H 0.02117 0.7552 0.42234 0.0
C409 C 0.9994 0.66767 0.55593 0.0
C410 C 0.98949 0.69938 0.60093 0.0
H411 H 0.02263 0.64235 0.42914 0.0
H412 H 0.99357 0.64292 0.59191 0.0
C413 C 0.99688 0.73092 0.55087 0.0
C414 C 0.34378 0.99602 0.79711 0.0
C415 C 0.31231 0.98788 0.84619 0.0
H416 H 0.36835 0.01812 0.66756 0.0
C417 C 0.28047 0.9969 0.80006 0.0
H418 H 0.36871 0.98898 0.83017 0.0
C419 C 0.2803 0.01486 0.70779 0.0
C420 C 0.31191 0.02227 0.65808 0.0
H421 H 0.25586 0.99049 0.83595 0.0
H422 H 0.25559 0.02271 0.67494 0.0
C423 C 0.34355 0.01229 0.70329 0.0
C424 C 0.14303 0.48715 0.25126 0.0
C425 C 0.11136 0.46855 0.24904 0.0
H426 H 0.16782 0.53741 0.25518 0.0
C427 C 0.07964 0.4871 0.25061 0.0
H428 H 0.16781 0.47339 0.24995 0.0
C429 C 0.07964 0.52372 0.25571 0.0
C430 C 0.11138 0.54227 0.25688 0.0
H431 H 0.05492 0.47324 0.24958 0.0
H432 H 0.05493 0.53759 0.25713 0.0
C433 C 0.14304 0.52366 0.25417 0.0
C434 C 0.52402 0.14236 0.50292 0.0
C435 C 0.54262 0.11069 0.50055 0.0
H436 H 0.4738 0.1672 0.50689 0.0
C437 C 0.52404 0.07897 0.50165 0.0
H438 H 0.53777 0.16715 0.50183 0.0
C439 C 0.48741 0.079 0.50638 0.0
C440 C 0.46887 0.11074 0.50773 0.0
H441 H 0.53787 0.05424 0.50046 0.0
H442 H 0.47354 0.05428 0.50737 0.0
C443 C 0.48751 0.14239 0.5056 0.0
C444 C 0.86918 0.52425 0.75566 0.0
C445 C 0.90088 0.54278 0.75228 0.0
H446 H 0.84425 0.47408 0.7602 0.0
C447 C 0.93255 0.52412 0.7522 0.0
H448 H 0.84442 0.53805 0.75546 0.0
C449 C 0.93247 0.48749 0.7567 0.0
C450 C 0.90069 0.46902 0.75901 0.0
H451 H 0.95731 0.5379 0.75022 0.0
H452 H 0.95715 0.47356 0.75672 0.0
C453 C 0.86908 0.48774 0.75813 0.0
C454 C 0.52388 0.932 0.00625 0.0
C455 C 0.54241 0.90026 0.00814 0.0
H456 H 0.4734 0.95672 0.99974 0.0
C457 C 0.52379 0.8686 0.00649 0.0
H458 H 0.53776 0.95671 0.00684 0.0
C459 C 0.48728 0.86861 0.00382 0.0
C460 C 0.4687 0.90028 1.00081 0.0
H461 H 0.53753 0.84381 0.00807 0.0
H462 H 0.47352 0.84383 1.00323 0.0
C463 C 0.48726 0.932 1.0014 0.0
loop_
_geom_bond_atom_site_label_1
_geom_bond_atom_site_label_2
_geom_bond_distance
_geom_bond_site_symmetry_2
_ccdc_geom_bond_type
C0 C1 1.351 1_554 S
C0 N3 1.368 . S
C0 H5 0.931 . S
C1 C0 1.351 1_556 S
C1 N2 1.373 . S
C1 H29 0.930 . S
N2 C1 1.373 . S
N2 C4 1.340 . S
N3 C0 1.368 . S
N3 C4 1.321 1_554 S
N3 Co6 2.135 . S
C4 N2 1.340 . S
C4 N3 1.321 1_556 S
C4 H28 0.930 . S
H5 C0 0.931 . S
Co6 N3 2.135 . S
Co6 N9 2.121 . S
Co6 O14 2.055 . S
Co6 O17 2.039 . S
Co6 N20 2.140 . S
C7 O8 1.227 . S
C7 O17 1.265 . S
O8 C7 1.227 . S
N9 Co6 2.121 . S
N9 C11 1.375 . S
N9 C12 1.313 . S
C10 C11 1.338 . S
C10 N13 1.377 . S
C10 H30 0.930 . S
C11 N9 1.375 . S
C11 C10 1.338 . S
C11 H15 0.931 . S
C12 N9 1.313 . S
C12 N13 1.344 . S
C12 H16 0.930 . S
N13 C10 1.377 . S
N13 C12 1.344 . S
O14 Co6 2.055 . S
O14 C18 1.253 . S
H15 C11 0.931 . S
H16 C12 0.930 . S
O17 Co6 2.039 . S
O17 C7 1.265 . S
C18 O14 1.253 . S
C18 O19 1.227 . S
O19 C18 1.227 . S
N20 Co6 2.140 . S
N20 C23 1.346 . S
N20 C24 1.345 . S
C21 C22 1.387 . S
C21 C25 1.391 . S
C22 C21 1.387 . S
C22 C23 1.369 . S
C22 H31 0.929 . S
C23 N20 1.346 . S
C23 C22 1.369 . S
C23 H26 0.928 . S
C24 N20 1.345 . S
C24 C25 1.371 . S
C24 H27 0.931 . S
C25 C21 1.391 . S
C25 C24 1.371 . S
C25 H32 0.930 . S
H26 C23 0.928 . S
H27 C24 0.931 . S
H28 C4 0.930 . S
H29 C1 0.930 . S
H30 C10 0.930 . S
H31 C22 0.929 . S
H32 C25 0.930 . S
C33 C34 1.351 . S
C33 N36 1.368 . S
C33 H38 0.931 . S
C34 C33 1.351 . S
C34 N35 1.373 . S
C34 H62 0.930 . S
N35 C34 1.373 . S
N35 C37 1.340 . S
N36 C33 1.368 . S
N36 C37 1.321 . S
N36 Co39 2.135 . S
C37 N35 1.340 . S
C37 N36 1.321 . S
C37 H61 0.930 . S
H38 C33 0.931 . S
Co39 N36 2.135 . S
Co39 N42 2.121 . S
Co39 O47 2.055 . S
Co39 O50 2.039 . S
Co39 N53 2.140 . S
C40 O41 1.227 . S
C40 O50 1.265 . S
O41 C40 1.227 . S
N42 Co39 2.121 . S
N42 C44 1.375 . S
N42 C45 1.313 . S
C43 C44 1.338 . S
C43 N46 1.377 . S
C43 H63 0.930 . S
C44 N42 1.375 . S
C44 C43 1.338 . S
C44 H48 0.931 . S
C45 N42 1.313 . S
C45 N46 1.344 . S
C45 H49 0.930 . S
N46 C43 1.377 . S
N46 C45 1.344 . S
O47 Co39 2.055 . S
O47 C51 1.253 . S
H48 C44 0.931 . S
H49 C45 0.930 . S
O50 Co39 2.039 . S
O50 C40 1.265 . S
C51 O47 1.253 . S
C51 O52 1.227 . S
O52 C51 1.227 . S
N53 Co39 2.140 . S
N53 C56 1.346 . S
N53 C57 1.345 . S
C54 C55 1.387 . S
C54 C58 1.391 . S
C55 C54 1.387 . S
C55 C56 1.369 . S
C55 H64 0.929 . S
C56 N53 1.346 . S
C56 C55 1.369 . S
C56 H59 0.928 . S
C57 N53 1.345 . S
C57 C58 1.371 . S
C57 H60 0.931 . S
C58 C54 1.391 . S
C58 C57 1.371 . S
C58 H65 0.930 . S
H59 C56 0.928 . S
H60 C57 0.931 . S
H61 C37 0.930 . S
H62 C34 0.930 . S
H63 C43 0.930 . S
H64 C55 0.929 . S
H65 C58 0.930 . S
C66 C67 1.351 . S
C66 N69 1.368 . S
C66 H71 0.931 . S
C67 C66 1.351 . S
C67 N68 1.373 . S
C67 H95 0.930 . S
N68 C67 1.373 . S
N68 C70 1.340 . S
N69 C66 1.368 . S
N69 C70 1.321 . S
N69 Co72 2.135 . S
C70 N68 1.340 . S
C70 N69 1.321 . S
C70 H94 0.930 . S
H71 C66 0.931 . S
Co72 N69 2.135 . S
Co72 N75 2.121 . S
Co72 O80 2.055 . S
Co72 O83 2.039 . S
Co72 N86 2.140 . S
C73 O74 1.227 . S
C73 O83 1.265 . S
O74 C73 1.227 . S
N75 Co72 2.121 . S
N75 C77 1.375 . S
N75 C78 1.313 . S
C76 C77 1.338 . S
C76 N79 1.377 1_556 S
C76 H96 0.930 1_556 S
C77 N75 1.375 . S
C77 C76 1.338 . S
C77 H81 0.931 . S
C78 N75 1.313 . S
C78 N79 1.344 1_556 S
C78 H82 0.930 . S
N79 C76 1.377 1_554 S
N79 C78 1.344 1_554 S
O80 Co72 2.055 . S
O80 C84 1.253 . S
H81 C77 0.931 . S
H82 C78 0.930 . S
O83 Co72 2.039 . S
O83 C73 1.265 . S
C84 O80 1.253 . S
C84 O85 1.227 . S
O85 C84 1.227 . S
N86 Co72 2.140 . S
N86 C89 1.346 . S
N86 C90 1.345 . S
C87 C88 1.387 . S
C87 C91 1.391 . S
C88 C87 1.387 . S
C88 C89 1.369 . S
C88 H97 0.929 . S
C89 N86 1.346 . S
C89 C88 1.369 . S
C89 H92 0.928 . S
C90 N86 1.345 . S
C90 C91 1.371 . S
C90 H93 0.931 . S
C91 C87 1.391 . S
C91 C90 1.371 . S
C91 H98 0.930 . S
H92 C89 0.928 . S
H93 C90 0.931 . S
H94 C70 0.930 . S
H95 C67 0.930 . S
H96 C76 0.930 1_554 S
H97 C88 0.929 . S
H98 C91 0.930 . S
C99 C100 1.351 . S
C99 N102 1.368 . S
C99 H104 0.931 . S
C100 C99 1.351 . S
C100 N101 1.373 . S
C100 H128 0.930 . S
N101 C100 1.373 . S
N101 C103 1.340 . S
N102 C99 1.368 . S
N102 C103 1.321 . S
N102 Co105 2.135 . S
C103 N101 1.340 . S
C103 N102 1.321 . S
C103 H127 0.930 . S
H104 C99 0.931 . S
Co105 N102 2.135 . S
Co105 N108 2.121 1_556 S
Co105 O113 2.055 . S
Co105 O116 2.039 . S
Co105 N119 2.140 . S
C106 O107 1.227 . S
C106 O116 1.265 . S
O107 C106 1.227 . S
N108 Co105 2.121 1_554 S
N108 C110 1.375 . S
N108 C111 1.313 . S
C109 C110 1.338 . S
C109 N112 1.377 . S
C109 H129 0.930 . S
C110 N108 1.375 . S
C110 C109 1.338 . S
C110 H114 0.931 . S
C111 N108 1.313 . S
C111 N112 1.344 . S
C111 H115 0.930 . S
N112 C109 1.377 . S
N112 C111 1.344 . S
O113 Co105 2.055 . S
O113 C117 1.253 1_556 S
H114 C110 0.931 . S
H115 C111 0.930 . S
O116 Co105 2.039 . S
O116 C106 1.265 . S
C117 O113 1.253 1_554 S
C117 O118 1.227 . S
O118 C117 1.227 . S
N119 Co105 2.140 . S
N119 C122 1.346 . S
N119 C123 1.345 1_556 S
C120 C121 1.387 . S
C120 C124 1.391 1_556 S
C121 C120 1.387 . S
C121 C122 1.369 . S
C121 H130 0.929 . S
C122 N119 1.346 . S
C122 C121 1.369 . S
C122 H125 0.928 . S
C123 N119 1.345 1_554 S
C123 C124 1.371 . S
C123 H126 0.931 . S
C124 C120 1.391 1_554 S
C124 C123 1.371 . S
C124 H131 0.930 . S
H125 C122 0.928 . S
H126 C123 0.931 . S
H127 C103 0.930 . S
H128 C100 0.930 . S
H129 C109 0.930 . S
H130 C121 0.929 . S
H131 C124 0.930 . S
C132 C133 1.351 . S
C132 N135 1.368 . S
C132 H137 0.931 . S
C133 C132 1.351 . S
C133 N134 1.373 . S
C133 H161 0.930 . S
N134 C133 1.373 . S
N134 C136 1.340 . S
N135 C132 1.368 . S
N135 C136 1.321 . S
N135 Co138 2.135 . S
C136 N134 1.340 . S
C136 N135 1.321 . S
C136 H160 0.930 . S
H137 C132 0.931 . S
Co138 N135 2.135 . S
Co138 N141 2.121 . S
Co138 O146 2.055 . S
Co138 O149 2.039 . S
Co138 N152 2.140 . S
C139 O140 1.227 . S
C139 O149 1.265 . S
O140 C139 1.227 . S
N141 Co138 2.121 . S
N141 C143 1.375 . S
N141 C144 1.313 . S
C142 C143 1.338 . S
C142 N145 1.377 1_554 S
C142 H162 0.930 1_554 S
C143 N141 1.375 . S
C143 C142 1.338 . S
C143 H147 0.931 . S
C144 N141 1.313 . S
C144 N145 1.344 1_554 S
C144 H148 0.930 . S
N145 C142 1.377 1_556 S
N145 C144 1.344 1_556 S
O146 Co138 2.055 . S
O146 C150 1.253 . S
H147 C143 0.931 . S
H148 C144 0.930 . S
O149 Co138 2.039 . S
O149 C139 1.265 . S
C150 O146 1.253 . S
C150 O151 1.227 . S
O151 C150 1.227 . S
N152 Co138 2.140 . S
N152 C155 1.346 . S
N152 C156 1.345 . S
C153 C154 1.387 . S
C153 C157 1.391 . S
C154 C153 1.387 . S
C154 C155 1.369 . S
C154 H163 0.929 . S
C155 N152 1.346 . S
C155 C154 1.369 . S
C155 H158 0.928 . S
C156 N152 1.345 . S
C156 C157 1.371 . S
C156 H159 0.931 . S
C157 C153 1.391 . S
C157 C156 1.371 . S
C157 H164 0.930 . S
H158 C155 0.928 . S
H159 C156 0.931 . S
H160 C136 0.930 . S
H161 C133 0.930 . S
H162 C142 0.930 1_556 S
H163 C154 0.929 . S
H164 C157 0.930 . S
C165 C166 1.351 . S
C165 N168 1.368 . S
C165 H170 0.931 . S
C166 C165 1.351 . S
C166 N167 1.373 . S
C166 H194 0.930 . S
N167 C166 1.373 . S
N167 C169 1.340 . S
N168 C165 1.368 . S
N168 C169 1.321 . S
N168 Co171 2.135 . S
C169 N167 1.340 . S
C169 N168 1.321 . S
C169 H193 0.930 . S
H170 C165 0.931 . S
Co171 N168 2.135 . S
Co171 N174 2.121 . S
Co171 O179 2.055 . S
Co171 O182 2.039 . S
Co171 N185 2.140 . S
C172 O173 1.227 . S
C172 O182 1.265 . S
O173 C172 1.227 . S
N174 Co171 2.121 . S
N174 C176 1.375 . S
N174 C177 1.313 . S
C175 C176 1.338 . S
C175 N178 1.377 . S
C175 H195 0.930 . S
C176 N174 1.375 . S
C176 C175 1.338 . S
C176 H180 0.931 . S
C177 N174 1.313 . S
C177 N178 1.344 . S
C177 H181 0.930 . S
N178 C175 1.377 . S
N178 C177 1.344 . S
O179 Co171 2.055 . S
O179 C183 1.253 . S
H180 C176 0.931 . S
H181 C177 0.930 . S
O182 Co171 2.039 . S
O182 C172 1.265 . S
C183 O179 1.253 . S
C183 O184 1.227 . S
O184 C183 1.227 . S
N185 Co171 2.140 . S
N185 C188 1.346 . S
N185 C189 1.345 . S
C186 C187 1.387 . S
C186 C190 1.391 . S
C187 C186 1.387 . S
C187 C188 1.369 . S
C187 H196 0.929 . S
C188 N185 1.346 . S
C188 C187 1.369 . S
C188 H191 0.928 . S
C189 N185 1.345 . S
C189 C190 1.371 . S
C189 H192 0.931 . S
C190 C186 1.391 . S
C190 C189 1.371 . S
C190 H197 0.930 . S
H191 C188 0.928 . S
H192 C189 0.931 . S
H193 C169 0.930 . S
H194 C166 0.930 . S
H195 C175 0.930 . S
H196 C187 0.929 . S
H197 C190 0.930 . S
C198 C199 1.351 1_556 S
C198 N201 1.368 . S
C198 H203 0.931 . S
C199 C198 1.351 1_554 S
C199 N200 1.373 . S
C199 H227 0.930 . S
N200 C199 1.373 . S
N200 C202 1.340 . S
N201 C198 1.368 . S
N201 C202 1.321 1_556 S
N201 Co204 2.135 . S
C202 N200 1.340 . S
C202 N201 1.321 1_554 S
C202 H226 0.930 . S
H203 C198 0.931 . S
Co204 N201 2.135 . S
Co204 N207 2.121 . S
Co204 O212 2.055 . S
Co204 O215 2.039 . S
Co204 N218 2.140 . S
C205 O206 1.227 . S
C205 O215 1.265 . S
O206 C205 1.227 . S
N207 Co204 2.121 . S
N207 C209 1.375 . S
N207 C210 1.313 . S
C208 C209 1.338 . S
C208 N211 1.377 . S
C208 H228 0.930 . S
C209 N207 1.375 . S
C209 C208 1.338 . S
C209 H213 0.931 . S
C210 N207 1.313 . S
C210 N211 1.344 . S
C210 H214 0.930 . S
N211 C208 1.377 . S
N211 C210 1.344 . S
O212 Co204 2.055 . S
O212 C216 1.253 . S
H213 C209 0.931 . S
H214 C210 0.930 . S
O215 Co204 2.039 . S
O215 C205 1.265 . S
C216 O212 1.253 . S
C216 O217 1.227 . S
O217 C216 1.227 . S
N218 Co204 2.140 . S
N218 C221 1.346 . S
N218 C222 1.345 . S
C219 C220 1.387 . S
C219 C223 1.391 . S
C220 C219 1.387 . S
C220 C221 1.369 . S
C220 H229 0.929 . S
C221 N218 1.346 . S
C221 C220 1.369 . S
C221 H224 0.928 . S
C222 N218 1.345 . S
C222 C223 1.371 . S
C222 H225 0.931 . S
C223 C219 1.391 . S
C223 C222 1.371 . S
C223 H230 0.930 . S
H224 C221 0.928 . S
H225 C222 0.931 . S
H226 C202 0.930 . S
H227 C199 0.930 . S
H228 C208 0.930 . S
H229 C220 0.929 . S
H230 C223 0.930 . S
C231 C232 1.351 . S
C231 N234 1.368 . S
C231 H236 0.931 . S
C232 C231 1.351 . S
C232 N233 1.373 . S
C232 H260 0.930 . S
N233 C232 1.373 . S
N233 C235 1.340 . S
N234 C231 1.368 . S
N234 C235 1.321 . S
N234 Co237 2.135 . S
C235 N233 1.340 . S
C235 N234 1.321 . S
C235 H259 0.930 . S
H236 C231 0.931 . S
Co237 N234 2.135 . S
Co237 N240 2.121 1_554 S
Co237 O245 2.055 . S
Co237 O248 2.039 . S
Co237 N251 2.140 . S
C238 O239 1.227 . S
C238 O248 1.265 . S
O239 C238 1.227 . S
N240 Co237 2.121 1_556 S
N240 C242 1.375 . S
N240 C243 1.313 . S
C241 C242 1.338 . S
C241 N244 1.377 . S
C241 H261 0.930 . S
C242 N240 1.375 . S
C242 C241 1.338 . S
C242 H246 0.931 . S
C243 N240 1.313 . S
C243 N244 1.344 . S
C243 H247 0.930 . S
N244 C241 1.377 . S
N244 C243 1.344 . S
O245 Co237 2.055 . S
O245 C249 1.253 1_554 S
H246 C242 0.931 . S
H247 C243 0.930 . S
O248 Co237 2.039 . S
O248 C238 1.265 . S
C249 O245 1.253 1_556 S
C249 O250 1.227 . S
O250 C249 1.227 . S
N251 Co237 2.140 . S
N251 C254 1.346 . S
N251 C255 1.345 1_554 S
C252 C253 1.387 . S
C252 C256 1.391 1_554 S
C253 C252 1.387 . S
C253 C254 1.369 . S
C253 H262 0.929 . S
C254 N251 1.346 . S
C254 C253 1.369 . S
C254 H257 0.928 . S
C255 N251 1.345 1_556 S
C255 C256 1.371 . S
C255 H258 0.931 . S
C256 C252 1.391 1_556 S
C256 C255 1.371 . S
C256 H263 0.930 . S
H257 C254 0.928 . S
H258 C255 0.931 . S
H259 C235 0.930 . S
H260 C232 0.930 . S
H261 C241 0.930 . S
H262 C253 0.929 . S
H263 C256 0.930 . S
C264 C265 1.387 . S
C264 H268 0.950 . S
C264 C273 1.390 . S
C265 C264 1.387 . S
C265 C267 1.387 . S
H266 C273 0.950 . S
C267 C265 1.387 . S
C267 C269 1.390 . S
C267 H271 0.950 . S
H268 C264 0.950 . S
C269 C267 1.390 . S
C269 C270 1.387 . S
C269 H272 0.950 . S
C270 C269 1.387 . S
C270 C273 1.387 . S
H271 C267 0.950 . S
H272 C269 0.950 . S
C273 C264 1.390 . S
C273 H266 0.950 . S
C273 C270 1.387 . S
C274 C275 1.387 . S
C274 H278 0.950 . S
C274 C283 1.390 . S
C275 C274 1.387 . S
C275 C277 1.387 . S
H276 C283 0.950 . S
C277 C275 1.387 . S
C277 C279 1.390 . S
C277 H281 0.950 . S
H278 C274 0.950 . S
C279 C277 1.390 . S
C279 C280 1.387 . S
C279 H282 0.950 . S
C280 C279 1.387 . S
C280 C283 1.387 . S
H281 C277 0.950 . S
H282 C279 0.950 . S
C283 C274 1.390 . S
C283 H276 0.950 . S
C283 C280 1.387 . S
C284 C285 1.387 . S
C284 H288 0.950 . S
C284 C293 1.390 . S
C285 C284 1.387 . S
C285 C287 1.387 . S
H286 C293 0.950 . S
C287 C285 1.387 . S
C287 C289 1.390 . S
C287 H291 0.950 . S
H288 C284 0.950 . S
C289 C287 1.390 . S
C289 C290 1.387 . S
C289 H292 0.950 . S
C290 C289 1.387 . S
C290 C293 1.387 . S
H291 C287 0.950 . S
H292 C289 0.950 . S
C293 C284 1.390 . S
C293 H286 0.950 . S
C293 C290 1.387 . S
C294 C295 1.387 . S
C294 H298 0.950 . S
C294 C303 1.390 . S
C295 C294 1.387 . S
C295 C297 1.387 . S
H296 C303 0.950 . S
C297 C295 1.387 . S
C297 C299 1.390 . S
C297 H301 0.950 . S
H298 C294 0.950 . S
C299 C297 1.390 . S
C299 C300 1.387 . S
C299 H302 0.950 . S
C300 C299 1.387 . S
C300 C303 1.387 . S
H301 C297 0.950 . S
H302 C299 0.950 . S
C303 C294 1.390 . S
C303 H296 0.950 . S
C303 C300 1.387 . S
C304 C305 1.387 . S
C304 H308 0.950 . S
C304 C313 1.390 . S
C305 C304 1.387 . S
C305 C307 1.387 . S
H306 C313 0.950 . S
C307 C305 1.387 . S
C307 C309 1.390 . S
C307 H311 0.950 . S
H308 C304 0.950 . S
C309 C307 1.390 . S
C309 C310 1.387 . S
C309 H312 0.950 . S
C310 C309 1.387 . S
C310 C313 1.387 . S
H311 C307 0.950 . S
H312 C309 0.950 . S
C313 C304 1.390 . S
C313 H306 0.950 . S
C313 C310 1.387 . S
C314 C315 1.387 . S
C314 H318 0.950 . S
C314 C323 1.390 1_554 S
C315 C314 1.387 . S
C315 C317 1.387 1_554 S
H316 C323 0.950 . S
C317 C315 1.387 1_556 S
C317 C319 1.390 . S
C317 H321 0.950 . S
H318 C314 0.950 . S
C319 C317 1.390 . S
C319 C320 1.387 . S
C319 H322 0.950 . S
C320 C319 1.387 . S
C320 C323 1.387 . S
H321 C317 0.950 . S
H322 C319 0.950 . S
C323 C314 1.390 1_556 S
C323 H316 0.950 . S
C323 C320 1.387 . S
C324 C325 1.387 . S
C324 H328 0.950 . S
C324 C333 1.390 . S
C325 C324 1.387 . S
C325 C327 1.387 . S
H326 C333 0.950 . S
C327 C325 1.387 . S
C327 C329 1.390 . S
C327 H331 0.950 . S
H328 C324 0.950 . S
C329 C327 1.390 . S
C329 C330 1.387 . S
C329 H332 0.950 . S
C330 C329 1.387 . S
C330 C333 1.387 . S
H331 C327 0.950 . S
H332 C329 0.950 . S
C333 C324 1.390 . S
C333 H326 0.950 . S
C333 C330 1.387 . S
C334 C335 1.387 . S
C334 H338 0.950 . S
C334 C343 1.390 . S
C335 C334 1.387 . S
C335 C337 1.387 . S
H336 C343 0.950 . S
C337 C335 1.387 . S
C337 C339 1.390 . S
C337 H341 0.950 . S
H338 C334 0.950 . S
C339 C337 1.390 . S
C339 C340 1.387 . S
C339 H342 0.950 . S
C340 C339 1.387 . S
C340 C343 1.387 . S
H341 C337 0.950 . S
H342 C339 0.950 . S
C343 C334 1.390 . S
C343 H336 0.950 . S
C343 C340 1.387 . S
C344 C345 1.387 . S
C344 H348 0.950 . S
C344 C353 1.390 . S
C345 C344 1.387 . S
C345 C347 1.387 . S
H346 C353 0.950 . S
C347 C345 1.387 . S
C347 C349 1.390 . S
C347 H351 0.950 . S
H348 C344 0.950 . S
C349 C347 1.390 . S
C349 C350 1.387 . S
C349 H352 0.950 . S
C350 C349 1.387 . S
C350 C353 1.387 . S
H351 C347 0.950 . S
H352 C349 0.950 . S
C353 C344 1.390 . S
C353 H346 0.950 . S
C353 C350 1.387 . S
C354 C355 1.387 . S
C354 H358 0.950 . S
C354 C363 1.390 . S
C355 C354 1.387 . S
C355 C357 1.387 . S
H356 C363 0.950 . S
C357 C355 1.387 . S
C357 C359 1.390 1_554 S
C357 H361 0.950 . S
H358 C354 0.950 . S
C359 C357 1.390 1_556 S
C359 C360 1.387 . S
C359 H362 0.950 . S
C360 C359 1.387 . S
C360 C363 1.387 1_556 S
H361 C357 0.950 . S
H362 C359 0.950 . S
C363 C354 1.390 . S
C363 H356 0.950 . S
C363 C360 1.387 1_554 S
C364 C365 1.387 . S
C364 H368 0.950 . S
C364 C373 1.390 . S
C365 C364 1.387 . S
C365 C367 1.387 . S
H366 C373 0.950 . S
C367 C365 1.387 . S
C367 C369 1.390 . S
C367 H371 0.950 . S
H368 C364 0.950 . S
C369 C367 1.390 . S
C369 C370 1.387 . S
C369 H372 0.950 . S
C370 C369 1.387 . S
C370 C373 1.387 . S
H371 C367 0.950 . S
H372 C369 0.950 . S
C373 C364 1.390 . S
C373 H366 0.950 . S
C373 C370 1.387 . S
C374 C375 1.387 . S
C374 H378 0.950 . S
C374 C383 1.390 . S
C375 C374 1.387 . S
C375 C377 1.387 . S
H376 C383 0.950 . S
C377 C375 1.387 . S
C377 C379 1.390 . S
C377 H381 0.950 . S
H378 C374 0.950 . S
C379 C377 1.390 . S
C379 C380 1.387 . S
C379 H382 0.950 . S
C380 C379 1.387 . S
C380 C383 1.387 . S
H381 C377 0.950 . S
H382 C379 0.950 . S
C383 C374 1.390 . S
C383 H376 0.950 . S
C383 C380 1.387 . S
C384 C385 1.387 . S
C384 H388 0.950 . S
C384 C393 1.390 1_454 S
C385 C384 1.387 . S
C385 C387 1.387 . S
H386 C393 0.950 . S
C387 C385 1.387 . S
C387 C389 1.390 1_454 S
C387 H391 0.950 . S
H388 C384 0.950 . S
C389 C387 1.390 1_656 S
C389 C390 1.387 . S
C389 H392 0.950 . S
C390 C389 1.387 . S
C390 C393 1.387 . S
H391 C387 0.950 . S
H392 C389 0.950 . S
C393 C384 1.390 1_656 S
C393 H386 0.950 . S
C393 C390 1.387 . S
C394 C395 1.387 . S
C394 H398 0.950 . S
C394 C403 1.390 1_565 S
C395 C394 1.387 . S
C395 C397 1.387 . S
H396 C403 0.950 . S
C397 C395 1.387 . S
C397 C399 1.390 1_565 S
C397 H401 0.950 . S
H398 C394 0.950 . S
C399 C397 1.390 1_545 S
C399 C400 1.387 . S
C399 H402 0.950 . S
C400 C399 1.387 . S
C400 C403 1.387 . S
H401 C397 0.950 . S
H402 C399 0.950 . S
C403 C394 1.390 1_545 S
C403 H396 0.950 . S
C403 C400 1.387 . S
C404 C405 1.387 . S
C404 H408 0.950 . S
C404 C413 1.390 1_455 S
C405 C404 1.387 . S
C405 C407 1.387 . S
H406 C413 0.950 . S
C407 C405 1.387 . S
C407 C409 1.390 1_455 S
C407 H411 0.950 . S
H408 C404 0.950 . S
C409 C407 1.390 1_655 S
C409 C410 1.387 . S
C409 H412 0.950 . S
C410 C409 1.387 . S
C410 C413 1.387 . S
H411 C407 0.950 . S
H412 C409 0.950 . S
C413 C404 1.390 1_655 S
C413 H406 0.950 . S
C413 C410 1.387 . S
C414 C415 1.387 . S
C414 H418 0.950 . S
C414 C423 1.390 1_565 S
C415 C414 1.387 . S
C415 C417 1.387 . S
H416 C423 0.950 . S
C417 C415 1.387 . S
C417 C419 1.390 1_565 S
C417 H421 0.950 . S
H418 C414 0.950 . S
C419 C417 1.390 1_545 S
C419 C420 1.387 . S
C419 H422 0.950 . S
C420 C419 1.387 . S
C420 C423 1.387 . S
H421 C417 0.950 . S
H422 C419 0.950 . S
C423 C414 1.390 1_545 S
C423 H416 0.950 . S
C423 C420 1.387 . S
C424 C425 1.387 . S
C424 H428 0.950 . S
C424 C433 1.390 . S
C425 C424 1.387 . S
C425 C427 1.387 . S
H426 C433 0.950 . S
C427 C425 1.387 . S
C427 C429 1.390 . S
C427 H431 0.950 . S
H428 C424 0.950 . S
C429 C427 1.390 . S
C429 C430 1.387 . S
C429 H432 0.950 . S
C430 C429 1.387 . S
C430 C433 1.387 . S
H431 C427 0.950 . S
H432 C429 0.950 . S
C433 C424 1.390 . S
C433 H426 0.950 . S
C433 C430 1.387 . S
C434 C435 1.387 . S
C434 H438 0.950 . S
C434 C443 1.390 . S
C435 C434 1.387 . S
C435 C437 1.387 . S
H436 C443 0.950 . S
C437 C435 1.387 . S
C437 C439 1.390 . S
C437 H441 0.950 . S
H438 C434 0.950 . S
C439 C437 1.390 . S
C439 C440 1.387 . S
C439 H442 0.950 . S
C440 C439 1.387 . S
C440 C443 1.387 . S
H441 C437 0.950 . S
H442 C439 0.950 . S
C443 C434 1.390 . S
C443 H436 0.950 . S
C443 C440 1.387 . S
C444 C445 1.387 . S
C444 H448 0.950 . S
C444 C453 1.390 . S
C445 C444 1.387 . S
C445 C447 1.387 . S
H446 C453 0.950 . S
C447 C445 1.387 . S
C447 C449 1.390 . S
C447 H451 0.950 . S
H448 C444 0.950 . S
C449 C447 1.390 . S
C449 C450 1.387 . S
C449 H452 0.950 . S
C450 C449 1.387 . S
C450 C453 1.387 . S
H451 C447 0.950 . S
H452 C449 0.950 . S
C453 C444 1.390 . S
C453 H446 0.950 . S
C453 C450 1.387 . S
C454 C455 1.387 . S
C454 H458 0.950 . S
C454 C463 1.390 1_554 S
C455 C454 1.387 . S
C455 C457 1.387 . S
H456 C463 0.950 . S
C457 C455 1.387 . S
C457 C459 1.390 1_554 S
C457 H461 0.950 . S
H458 C454 0.950 . S
C459 C457 1.390 1_556 S
C459 C460 1.387 . S
C459 H462 0.950 . S
C460 C459 1.387 . S
C460 C463 1.387 . S
H461 C457 0.950 . S
H462 C459 0.950 . S
C463 C454 1.390 1_556 S
C463 H456 0.950 . S
C463 C460 1.387 . S
C265 C183 1.361 . S
C270 C18 1.361 . S
C275 C216 1.361 . S
C280 C51 1.361 . S
C285 C84 1.361 . S
C290 C249 1.361 . S
C295 C150 1.361 . S
C300 C117 1.362 . S
C305 N13 1.325 . S
C310 N2 1.325 . S
C315 N35 1.324 . S
C320 N46 1.324 . S
C325 N79 1.324 . S
C330 N68 1.324 . S
C335 N112 1.323 . S
C340 N101 1.323 . S
C345 N145 1.325 . S
C350 N134 1.325 . S
C355 N178 1.325 . S
C360 N167 1.325 . S
C365 N211 1.324 . S
C370 N200 1.324 . S
C375 N233 1.323 . S
C380 N244 1.323 . S
C385 C7 1.486 . S
C390 C205 1.486 . S
C395 C238 1.489 . S
C400 C40 1.489 . S
C405 C139 1.486 . S
C410 C73 1.486 . S
C415 C106 1.489 . S
C420 C172 1.489 . S
C425 C21 1.568 . S
C430 C153 1.568 . S
C435 C54 1.568 . S
C440 C186 1.568 . S
C445 C87 1.568 . S
C450 C219 1.568 . S
C455 C252 1.569 . S
C460 C120 1.569 . S
