# Generated by pormake.
# Topology snz, (6)-cn, num edge types: 1
# Building blocks:
#     Node 0, Type 0, BuildingBlock: VOLQOD_clean_sbu_1, # of connection points: 6
#     Node 1, Type 0, BuildingBlock: VOLQOD_clean_sbu_1, # of connection points: 6
#     Node 2, Type 0, BuildingBlock: VOLQOD_clean_sbu_1, # of connection points: 6
#     Node 3, Type 0, BuildingBlock: VOLQOD_clean_sbu_1, # of connection points: 6
#     Node 4, Type 0, BuildingBlock: VOLQOD_clean_sbu_1, # of connection points: 6
#     Node 5, Type 0, BuildingBlock: VOLQOD_clean_sbu_1, # of connection points: 6
#     Node 6, Type 0, BuildingBlock: VOLQOD_clean_sbu_1, # of connection points: 6
#     Node 7, Type 0, BuildingBlock: VOLQOD_clean_sbu_1, # of connection points: 6
#     Node 8, Type 0, BuildingBlock: VOLQOD_clean_sbu_1, # of connection points: 6
#     Edge 9, Type (0, 0), BuildingBlock: XIVTED_clean_linker_0, # of connection points: 2
#     Edge 10, Type (0, 0), BuildingBlock: XIVTED_clean_linker_0, # of connection points: 2
#     Edge 11, Type (0, 0), BuildingBlock: XIVTED_clean_linker_0, # of connection points: 2
#     Edge 12, Type (0, 0), BuildingBlock: XIVTED_clean_linker_0, # of connection points: 2
#     Edge 13, Type (0, 0), BuildingBlock: XIVTED_clean_linker_0, # of connection points: 2
#     Edge 14, Type (0, 0), BuildingBlock: XIVTED_clean_linker_0, # of connection points: 2
#     Edge 15, Type (0, 0), BuildingBlock: XIVTED_clean_linker_0, # of connection points: 2
#     Edge 16, Type (0, 0), BuildingBlock: XIVTED_clean_linker_0, # of connection points: 2
#     Edge 17, Type (0, 0), BuildingBlock: XIVTED_clean_linker_0, # of connection points: 2
#     Edge 18, Type (0, 0), BuildingBlock: XIVTED_clean_linker_0, # of connection points: 2
#     Edge 19, Type (0, 0), BuildingBlock: XIVTED_clean_linker_0, # of connection points: 2
#     Edge 20, Type (0, 0), BuildingBlock: XIVTED_clean_linker_0, # of connection points: 2
#     Edge 21, Type (0, 0), BuildingBlock: XIVTED_clean_linker_0, # of connection points: 2
#     Edge 22, Type (0, 0), BuildingBlock: XIVTED_clean_linker_0, # of connection points: 2
#     Edge 23, Type (0, 0), BuildingBlock: XIVTED_clean_linker_0, # of connection points: 2
#     Edge 24, Type (0, 0), BuildingBlock: XIVTED_clean_linker_0, # of connection points: 2
#     Edge 25, Type (0, 0), BuildingBlock: XIVTED_clean_linker_0, # of connection points: 2
#     Edge 26, Type (0, 0), BuildingBlock: XIVTED_clean_linker_0, # of connection points: 2
#     Edge 27, Type (0, 0), BuildingBlock: XIVTED_clean_linker_0, # of connection points: 2
#     Edge 28, Type (0, 0), BuildingBlock: XIVTED_clean_linker_0, # of connection points: 2
#     Edge 29, Type (0, 0), BuildingBlock: XIVTED_clean_linker_0, # of connection points: 2
#     Edge 30, Type (0, 0), BuildingBlock: XIVTED_clean_linker_0, # of connection points: 2
#     Edge 31, Type (0, 0), BuildingBlock: XIVTED_clean_linker_0, # of connection points: 2
#     Edge 32, Type (0, 0), BuildingBlock: XIVTED_clean_linker_0, # of connection points: 2
#     Edge 33, Type (0, 0), BuildingBlock: XIVTED_clean_linker_0, # of connection points: 2
#     Edge 34, Type (0, 0), BuildingBlock: XIVTED_clean_linker_0, # of connection points: 2
#     Edge 35, Type (0, 0), BuildingBlock: XIVTED_clean_linker_0, # of connection points: 2
# Relax obj value: 0.409
# Max RMSD: 0.302
# Mean RMSD: 0.293
data_MOF--net-snz--node1-VOLQOD_clean_sbu_1--edge1-XIVTED_clean_linker_0
_symmetry_space_group_name_H-M    P1
_symmetry_Int_Tables_number       1
_symmetry_cell_setting            triclinic
loop_
_symmetry_equiv_pos_as_xyz
'x, y, z'
_cell_length_a     53.011358
_cell_length_b     53.132142
_cell_length_c     15.930243
_cell_angle_alpha  90.207085
_cell_angle_beta   89.790658
_cell_angle_gamma 120.09275
loop_
_atom_site_label
_atom_site_type_symbol
_atom_site_fract_x
_atom_site_fract_y
_atom_site_fract_z
_atom_type_partial_charge
O0 O 0.10374 0.53394 0.88035 0.0
Zn1 Zn 0.09498 0.56514 0.84339 0.0
O2 O 0.05402 0.55223 0.85762 0.0
Zn3 Zn 0.03373 0.54246 0.75511 0.0
Zn4 Zn 0.03563 0.51911 0.92856 0.0
Zn5 Zn 0.05214 0.58435 0.90677 0.0
O6 O 0.00847 0.56004 0.74753 0.0
O7 O 0.01842 0.58768 0.86107 0.0
O8 O 0.10674 0.57637 0.72199 0.0
O9 O 0.0626 0.55757 0.66363 0.0
O10 O 0.00552 0.49985 0.74589 0.0
O11 O -0.00269 0.48838 0.88117 0.0
O12 O 0.03315 0.5315 0.0448 0.0
O13 O 0.11636 0.59945 0.92064 0.0
O14 O 0.04887 0.57865 0.03083 0.0
O15 O 0.09074 0.62083 0.89246 0.0
C16 C 0.0878 0.51028 0.91974 0.0
C17 C 0.0036 0.57649 0.79459 0.0
C18 C 0.99023 0.48245 0.80417 0.0
C19 C 0.09027 0.57099 0.65836 0.0
C20 C 0.04131 0.55642 0.07665 0.0
C21 C 0.11276 0.62135 0.92603 0.0
O22 O 0.06158 0.50228 0.9397 0.0
O23 O 0.52033 0.56754 0.19953 0.0
Zn24 Zn 0.50668 0.5287 0.14629 0.0
O25 O 0.52407 0.50953 0.20135 0.0
Zn26 Zn 0.54009 0.49365 0.12731 0.0
Zn27 Zn 0.55841 0.53677 0.25822 0.0
Zn28 Zn 0.49581 0.47809 0.26503 0.0
O29 O 0.51119 0.45306 0.09523 0.0
O30 O 0.48024 0.44024 0.20168 0.0
O31 O 0.52022 0.53568 0.02702 0.0
O32 O 0.54993 0.51735 0.02615 0.0
O33 O 0.57735 0.49773 0.16899 0.0
O34 O 0.59377 0.5442 0.19015 0.0
O35 O 0.55804 0.51838 0.36557 0.0
O36 O 0.46299 0.50446 0.15808 0.0
O37 O 0.51423 0.47821 0.37386 0.0
O38 O 0.46056 0.48234 0.2787 0.0
C39 C 0.5409 0.58274 0.25059 0.0
C40 C 0.48811 0.43433 0.13228 0.0
C41 C 0.59818 0.52386 0.16568 0.0
C42 C 0.53977 0.53195 -0.00797 0.0
C43 C 0.53941 0.49555 0.4041 0.0
C44 C 0.44846 0.48916 0.22095 0.0
O45 O 0.55758 0.57385 0.27873 0.0
O46 O 0.43956 0.98175 0.11552 0.0
Zn47 Zn 0.48011 0.00457 0.06594 0.0
O48 O 0.49923 0.04477 0.10327 0.0
Zn49 Zn 0.49775 0.06606 0.00946 0.0
Zn50 Zn 0.47774 0.0502 0.19074 0.0
Zn51 Zn 0.53936 0.05769 0.13355 0.0
O52 O 0.53664 0.08756 0.95555 0.0
O53 O 0.56737 0.08844 0.05208 0.0
O54 O 0.48154 0.0047 0.93884 0.0
O55 O 0.46981 0.03869 0.92579 0.0
O56 O 0.48467 0.09404 0.03748 0.0
O57 O 0.46448 0.07874 0.16241 0.0
O58 O 0.50259 0.06393 0.29138 0.0
O59 O 0.50239 0.98567 0.10439 0.0
O60 O 0.54616 0.07034 0.25572 0.0
O61 O 0.54645 0.02385 0.12721 0.0
C62 C 0.42909 0.98747 0.18037 0.0
C63 C 0.5624 0.09602 -0.01916 0.0
C64 C 0.47022 0.09536 0.0993 0.0
C65 C 0.47482 0.01992 0.89264 0.0
C66 C 0.52869 0.0711 0.30962 0.0
C67 C 0.52932 -0.00349 0.12084 0.0
O68 O 0.4424 0.01218 0.21648 0.0
O69 O 0.74577 0.92274 0.37947 0.0
Zn70 Zn 0.72007 0.88121 0.34036 0.0
O71 O 0.679 0.86756 0.36341 0.0
Zn72 Zn 0.6644 0.83909 0.44979 0.0
Zn73 Zn 0.67708 0.90072 0.40075 0.0
Zn74 Zn 0.65438 0.85063 0.26774 0.0
O75 O 0.6282 0.8025 0.41881 0.0
O76 O 0.62709 0.80751 0.2811 0.0
O77 O 0.73227 0.85439 0.39255 0.0
O78 O 0.69348 0.82687 0.47173 0.0
O79 O 0.65941 0.85535 0.55542 0.0
O80 O 0.67667 0.902 0.52636 0.0
O81 O 0.64236 0.90082 0.35314 0.0
O82 O 0.72596 0.882 0.21565 0.0
O83 O 0.63048 0.86979 0.24631 0.0
O84 O 0.67999 0.85772 0.17003 0.0
C85 C 0.73924 0.94264 0.37192 0.0
C86 C 0.61773 0.79201 0.34706 0.0
C87 C 0.66746 0.88119 0.57858 0.0
C88 C 0.71882 0.83387 0.44524 0.0
C89 C 0.62712 0.88831 0.28846 0.0
C90 C 0.70735 0.87064 0.15698 0.0
O91 O 0.71297 0.93685 0.36539 0.0
O92 O 0.084 0.82066 0.46522 0.0
Zn93 Zn 0.12396 0.84669 0.41848 0.0
O94 O 0.14811 0.82892 0.43325 0.0
Zn95 Zn 0.18073 0.85234 0.50414 0.0
Zn96 Zn 0.12433 0.79004 0.47856 0.0
Zn97 Zn 0.16496 0.827 0.33101 0.0
O98 O 0.21937 0.8592 0.45977 0.0
O99 O 0.20773 0.85326 0.32495 0.0
O100 O 0.14233 0.88627 0.474 0.0
O101 O 0.1847 0.89148 0.51624 0.0
O102 O 0.17153 0.83552 0.61829 0.0
O103 O 0.13047 0.79308 0.60373 0.0
O104 O 0.13292 0.7603 0.42213 0.0
O105 O 0.11774 0.85044 0.29445 0.0
O106 O 0.15956 0.78803 0.31628 0.0
O107 O 0.14607 0.83495 0.23795 0.0
C108 C 0.06955 0.79301 0.46998 0.0
C109 C 0.22669 0.86149 0.38274 0.0
C110 C 0.1501 0.81285 0.64975 0.0
C111 C 0.16755 0.90146 0.50632 0.0
C112 C 0.14768 0.76398 0.35514 0.0
C113 C 0.12819 0.84409 0.23109 0.0
O114 O 0.08187 0.7777 0.46431 0.0
O115 O 0.12535 0.25038 0.27215 0.0
Zn116 Zn 0.12204 0.27766 0.19238 0.0
O117 O 0.15482 0.31603 0.21141 0.0
Zn118 Zn 0.14295 0.33822 0.27823 0.0
Zn119 Zn 0.18213 0.30837 0.26608 0.0
Zn120 Zn 0.17406 0.33716 0.11403 0.0
O121 O 0.1558 0.37721 0.22548 0.0
O122 O 0.16334 0.36786 0.09422 0.0
O123 O 0.08417 0.27554 0.22006 0.0
O124 O 0.09939 0.31837 0.28143 0.0
O125 O 0.15448 0.33795 0.39818 0.0
O126 O 0.1776 0.31284 0.38574 0.0
O127 O 0.22315 0.3364 0.23629 0.0
O128 O 0.12309 0.26659 0.07265 0.0
O129 O 0.21796 0.35847 0.12571 0.0
O130 O 0.16072 0.30783 0.02275 0.0
C131 C 0.14766 0.24776 0.28257 0.0
C132 C 0.15944 0.38359 0.14746 0.0
C133 C 0.16673 0.32486 0.43043 0.0
C134 C 0.07897 0.29372 0.25703 0.0
C135 C 0.2341 0.35558 0.1792 0.0
C136 C 0.14085 0.28127 0.01421 0.0
O137 O 0.17228 0.26689 0.25376 0.0
O138 O 0.3464 0.23921 0.81007 0.0
Zn139 Zn 0.32784 0.19886 0.76706 0.0
O140 O 0.28673 0.17901 0.79658 0.0
Zn141 Zn 0.27653 0.14605 0.86871 0.0
Zn142 Zn 0.27561 0.20607 0.8432 0.0
Zn143 Zn 0.26504 0.16324 0.69828 0.0
O144 O 0.25007 0.10684 0.81405 0.0
O145 O 0.25238 0.12167 0.68294 0.0
O146 O 0.34836 0.18069 0.82386 0.0
O147 O 0.3132 0.14639 0.90197 0.0
O148 O 0.26054 0.15125 0.97592 0.0
O149 O 0.26517 0.19504 0.96289 0.0
O150 O 0.24123 0.20467 0.78076 0.0
O151 O 0.33494 0.20243 0.64218 0.0
O152 O 0.23027 0.16739 0.69594 0.0
O153 O 0.28895 0.18435 0.60149 0.0
C154 C 0.3377 0.25589 0.83885 0.0
C155 C 0.24523 0.10142 0.73595 0.0
C156 C 0.25989 0.17301 0.00715 0.0
C157 C 0.33978 0.16078 0.87906 0.0
C158 C 0.22442 0.18591 0.72696 0.0
C159 C 0.31607 0.19769 0.58613 0.0
O160 O 0.31066 0.24694 0.85031 0.0
O161 O 0.75196 0.21657 0.6 0.0
Zn162 Zn 0.79042 0.23616 0.53827 0.0
O163 O 0.80851 0.21262 0.55364 0.0
Zn164 Zn 0.84217 0.23048 0.62388 0.0
Zn165 Zn 0.78043 0.17675 0.60229 0.0
Zn166 Zn 0.82048 0.20441 0.45123 0.0
O167 O 0.87775 0.23309 0.56757 0.0
O168 O 0.86315 0.23039 0.43545 0.0
O169 O 0.81636 0.27668 0.58513 0.0
O170 O 0.85098 0.2708 0.6452 0.0
O171 O 0.83329 0.21309 0.73869 0.0
O172 O 0.78614 0.18105 0.72537 0.0
O173 O 0.78526 0.14365 0.56107 0.0
O174 O 0.78196 0.23771 0.41501 0.0
O175 O 0.81286 0.16355 0.44828 0.0
O176 O 0.79931 0.21061 0.36056 0.0
C177 C 0.73335 0.18945 0.6038 0.0
C178 C 0.88317 0.23665 0.48905 0.0
C179 C 0.80847 0.19588 0.77088 0.0
C180 C 0.83964 0.28634 0.62823 0.0
C181 C 0.79908 0.14208 0.49755 0.0
C182 C 0.78577 0.22458 0.35349 0.0
O183 O 0.74021 0.17029 0.58512 0.0
O184 O 0.80799 0.57767 0.61505 0.0
Zn185 Zn 0.77364 0.58218 0.5779 0.0
O186 O 0.78311 0.6221 0.59465 0.0
Zn187 Zn 0.74874 0.6201 0.6371 0.0
Zn188 Zn 0.81393 0.64256 0.67087 0.0
Zn189 Zn 0.79372 0.64374 0.49585 0.0
O190 O 0.74492 0.65378 0.59735 0.0
O191 O 0.77856 0.67143 0.49687 0.0
O192 O 0.73821 0.55838 0.65123 0.0
O193 O 0.71572 0.5811 0.60674 0.0
O194 O 0.75086 0.62003 0.76161 0.0
O195 O 0.79861 0.64323 0.78488 0.0
O196 O 0.84539 0.68072 0.6236 0.0
O197 O 0.76325 0.57171 0.45575 0.0
O198 O 0.83721 0.6673 0.48957 0.0
O199 O 0.77619 0.61555 0.40282 0.0
C200 C 0.82969 0.59503 0.66042 0.0
C201 C 0.75919 0.6727 0.54114 0.0
C202 C 0.7724 0.63036 0.81166 0.0
C203 C 0.71547 0.56084 0.64986 0.0
C204 C 0.8541 0.68354 0.54759 0.0
C205 C 0.765 0.58813 0.3951 0.0
O206 O 0.83321 0.61938 0.68478 0.0
H207 H 0.09997 0.61928 0.57615 0.0
H208 H 0.03841 0.51617 0.18774 0.0
H209 H 0.10336 0.54038 0.54964 0.0
H210 H 0.06391 0.60704 0.16834 0.0
H211 H 0.06217 0.52589 0.32329 0.0
H212 H 0.09175 0.61892 0.42504 0.0
C213 C 0.1007 0.60284 0.53743 0.0
C214 C 0.10226 0.57979 0.57444 0.0
C215 C 0.06264 0.54375 0.28936 0.0
C216 C 0.09116 0.57819 0.40416 0.0
C217 C 0.04855 0.53811 0.21253 0.0
C218 C 0.04918 0.56084 0.16627 0.0
C219 C 0.07714 0.57222 0.32114 0.0
C220 C 0.06282 0.58884 0.20191 0.0
C221 C 0.09544 0.6023 0.45162 0.0
C222 C 0.10237 0.55856 0.52275 0.0
N223 N 0.07631 0.59377 0.27748 0.0
N224 N 0.09597 0.55777 0.44018 0.0
H225 H 0.50365 0.5315 0.87176 0.0
H226 H 0.59139 0.52245 0.48759 0.0
H227 H 0.59027 0.54544 0.9119 0.0
H228 H 0.49871 0.46613 0.52418 0.0
H229 H 0.59576 0.53771 0.6345 0.0
H230 H 0.5069 0.52029 0.72499 0.0
C231 C 0.52378 0.53337 0.84881 0.0
C232 C 0.5464 0.53849 0.90354 0.0
C233 C 0.57466 0.52159 0.61024 0.0
C234 C 0.5498 0.52489 0.73871 0.0
C235 C 0.57216 0.51256 0.52723 0.0
C236 C 0.54445 0.49392 0.49337 0.0
C237 C 0.54924 0.51195 0.65773 0.0
C238 C 0.52036 0.48116 0.5473 0.0
C239 C 0.52536 0.52633 0.76591 0.0
C240 C 0.57216 0.54085 0.87109 0.0
N241 N 0.52315 0.49116 0.6267 0.0
N242 N 0.57301 0.53338 0.79032 0.0
H243 H 0.51024 0.00445 0.80719 0.0
H244 H 0.52029 0.10437 0.42185 0.0
H245 H 0.45848 0.04575 0.77538 0.0
H246 H 0.54979 0.04237 0.39981 0.0
H247 H 0.50992 0.09221 0.57006 0.0
H248 H 0.53262 0.02317 0.66929 0.0
C249 C 0.50305 0.01679 0.77046 0.0
C250 C 0.4825 0.02363 0.80283 0.0
C251 C 0.51929 0.0817 0.53342 0.0
C252 C 0.50882 0.04597 0.64798 0.0
C253 C 0.52576 0.08909 0.44941 0.0
C254 C 0.53565 0.07416 0.3991 0.0
C255 C 0.52238 0.05895 0.56662 0.0
C256 C 0.54221 0.05436 0.43714 0.0
C257 C 0.51619 0.02785 0.69264 0.0
C258 C 0.47432 0.04006 0.75312 0.0
N259 N 0.53474 0.0467 0.51872 0.0
N260 N 0.48772 0.0509 0.67873 0.0
H261 H 0.71107 0.92997 0.65377 0.0
H262 H 0.69581 0.83028 0.03839 0.0
H263 H 0.63718 0.84518 0.70599 0.0
H264 H 0.7366 0.92276 0.0789 0.0
H265 H 0.6887 0.83749 0.89119 0.0
H266 H 0.73004 0.93052 0.79492 0.0
C267 C 0.69832 0.91202 0.69598 0.0
C268 C 0.67275 0.88726 0.66835 0.0
C269 C 0.69994 0.85631 0.9318 0.0
C270 C 0.69492 0.88723 0.82547 0.0
C271 C 0.70452 0.85224 0.01496 0.0
C272 C 0.71653 0.87596 0.06978 0.0
C273 C 0.7071 0.88419 0.90448 0.0
C274 C 0.72727 0.90404 0.03751 0.0
C275 C 0.70945 0.91214 0.77542 0.0
C276 C 0.65718 0.86446 0.72473 0.0
N277 N 0.7216 0.90745 0.95656 0.0
N278 N 0.66885 0.86472 0.80012 0.0
H279 H 0.09983 0.77756 0.73787 0.0
H280 H 0.15572 0.88844 0.12268 0.0
H281 H 0.18664 0.8515 0.76609 0.0
H282 H 0.08295 0.80138 0.14657 0.0
H283 H 0.15795 0.88017 0.97266 0.0
H284 H 0.08701 0.78859 0.87576 0.0
C285 C 0.11638 0.79567 0.77361 0.0
C286 C 0.14434 0.81374 0.74002 0.0
C287 C 0.14088 0.86314 0.01016 0.0
C288 C 0.12935 0.82708 0.89507 0.0
C289 C 0.13917 0.86816 0.09516 0.0
C290 C 0.11914 0.84553 0.1461 0.0
C291 C 0.12261 0.83524 0.97701 0.0
C292 C 0.09856 0.81935 0.10843 0.0
C293 C 0.10885 0.80222 0.85147 0.0
C294 C 0.16477 0.83706 0.78895 0.0
N295 N 0.10125 0.81455 0.02599 0.0
N296 N 0.15675 0.84323 0.86346 0.0
H297 H 0.12465 0.32207 0.53523 0.0
H298 H 0.17878 0.27253 0.92353 0.0
H299 H 0.19807 0.30794 0.52503 0.0
H300 H 0.0946 0.26619 0.91411 0.0
H301 H 0.18229 0.27706 0.77121 0.0
H302 H 0.11156 0.29835 0.67206 0.0
C303 C 0.13839 0.31459 0.56272 0.0
C304 C 0.16269 0.31729 0.51955 0.0
C305 C 0.16258 0.27373 0.80185 0.0
C306 C 0.14725 0.28921 0.67379 0.0
C307 C 0.16043 0.27067 0.88849 0.0
C308 C 0.13656 0.26936 0.93013 0.0
C309 C 0.1411 0.27644 0.75822 0.0
C310 C 0.11337 0.26728 0.88325 0.0
C311 C 0.13051 0.30042 0.63973 0.0
C312 C 0.17931 0.30653 0.55681 0.0
N313 N 0.1166 0.27187 0.79933 0.0
N314 N 0.17129 0.29297 0.63196 0.0
H315 H 0.33106 0.16909 0.47548 0.0
H316 H 0.26917 0.22049 0.0999 0.0
H317 H 0.31538 0.24083 0.50046 0.0
H318 H 0.25928 0.13492 0.12286 0.0
H319 H 0.2924 0.23306 0.23758 0.0
H320 H 0.31671 0.16421 0.32802 0.0
C321 C 0.32617 0.18484 0.44836 0.0
C322 C 0.32424 0.2053 0.49907 0.0
C323 C 0.28486 0.21147 0.21247 0.0
C324 C 0.30633 0.19894 0.33376 0.0
C325 C 0.27112 0.20406 0.13464 0.0
C326 C 0.26282 0.17679 0.09882 0.0
C327 C 0.29031 0.1915 0.25412 0.0
C328 C 0.26573 0.15636 0.14717 0.0
C329 C 0.31722 0.18158 0.36514 0.0
C330 C 0.31716 0.22486 0.46234 0.0
N331 N 0.27976 0.16434 0.22176 0.0
N332 N 0.30775 0.2208 0.38183 0.0
H333 H 0.74025 0.18314 0.26692 0.0
H334 H 0.84608 0.23758 0.87954 0.0
H335 H 0.81419 0.26968 0.24793 0.0
H336 H 0.75951 0.16244 0.86459 0.0
H337 H 0.8338 0.24929 0.0158 0.0
H338 H 0.74305 0.17665 0.116 0.0
C339 C 0.75602 0.20136 0.22979 0.0
C340 C 0.77706 0.22693 0.26892 0.0
C341 C 0.81748 0.23024 -0.0173 0.0
C342 C 0.78163 0.21916 0.09874 0.0
C343 C 0.82467 0.22316 0.90561 0.0
C344 C 0.80381 0.19891 0.86059 0.0
C345 C 0.78935 0.21276 0.01559 0.0
C346 C 0.7763 0.18129 0.89726 0.0
C347 C 0.75802 0.19747 0.14408 0.0
C348 C 0.79753 0.24972 0.21927 0.0
N349 N 0.76985 0.18858 0.97277 0.0
N350 N 0.7999 0.24501 0.13669 0.0
H351 H 0.7912 0.56968 0.28542 0.0
H352 H 0.72057 0.60618 0.89828 0.0
H353 H 0.71793 0.583 0.31525 0.0
H354 H 0.81139 0.63126 0.92359 0.0
H355 H 0.71107 0.583 0.03689 0.0
H356 H 0.78792 0.57314 0.13301 0.0
C357 C 0.77347 0.57176 0.25937 0.0
C358 C 0.75489 0.57624 0.31169 0.0
C359 C 0.73296 0.59356 0.01137 0.0
C360 C 0.75174 0.58138 0.13987 0.0
C361 C 0.73853 0.60716 0.93328 0.0
C362 C 0.76692 0.62107 0.89991 0.0
C363 C 0.75581 0.5934 0.05492 0.0
C364 C 0.78927 0.62125 0.94721 0.0
C365 C 0.7719 0.57424 0.17286 0.0
C366 C 0.7326 0.57949 0.27589 0.0
N367 N 0.78318 0.60746 0.02207 0.0
N368 N 0.73197 0.58265 0.19167 0.0
H369 H 0.17306 0.40942 -0.00773 0.0
H370 H 0.06827 0.47262 0.05046 0.0
H371 H 0.13601 0.4118 0.2321 0.0
H372 H 0.13651 0.50922 0.86339 0.0
H373 H 0.09013 0.44587 0.10897 0.0
H374 H 0.15862 0.44331 0.93652 0.0
C375 C 0.16229 0.41737 0.03351 0.0
C376 C 0.15543 0.40752 0.11674 0.0
C377 C 0.1004 0.45981 0.05526 0.0
C378 C 0.13856 0.44567 0.053 0.0
C379 C 0.08776 0.47485 0.02114 0.0
C380 C 0.10051 0.49305 0.95154 0.0
C381 C 0.12573 0.46249 0.01887 0.0
C382 C 0.126 0.49536 0.91702 0.0
C383 C 0.15413 0.4367 0.00164 0.0
C384 C 0.14163 0.41867 0.16751 0.0
N385 N 0.13771 0.47998 0.95065 0.0
N386 N 0.13322 0.43677 0.1344 0.0
H387 H 0.57137 0.61578 0.38573 0.0
H388 H 0.58784 0.76082 0.20781 0.0
H389 H 0.5229 0.61607 0.16884 0.0
H390 H 0.60275 0.75085 0.46891 0.0
H391 H 0.5631 0.70793 0.19127 0.0
H392 H 0.5833 0.66562 0.41696 0.0
C393 C 0.56309 0.62627 0.34505 0.0
C394 C 0.54634 0.61189 0.27426 0.0
C395 C 0.57134 0.71736 0.25248 0.0
C396 C 0.56006 0.66886 0.30912 0.0
C397 C 0.58546 0.74752 0.26197 0.0
C398 C 0.59777 0.76032 0.33951 0.0
C399 C 0.57004 0.70005 0.32061 0.0
C400 C 0.59386 0.742 0.4077 0.0
C401 C 0.56973 0.65462 0.36315 0.0
C402 C 0.53594 0.6264 0.22401 0.0
N403 N 0.58082 0.71282 0.39626 0.0
N404 N 0.54334 0.65429 0.24168 0.0
H405 H 0.40747 0.98695 0.33602 0.0
H406 H 0.24883 0.85809 0.23128 0.0
H407 H 0.38663 0.93739 0.10573 0.0
H408 H 0.27489 0.8956 0.47876 0.0
H409 H 0.29961 0.88493 0.18636 0.0
H410 H 0.35966 0.95216 0.39137 0.0
C411 C 0.39284 0.96866 0.29708 0.0
C412 C 0.40088 0.96527 0.21558 0.0
C413 C 0.2943 0.88705 0.25075 0.0
C414 C 0.34602 0.92532 0.27883 0.0
C415 C 0.2653 0.87182 0.27642 0.0
C416 C 0.25762 0.87498 0.3586 0.0
C417 C 0.31575 0.90587 0.30732 0.0
C418 C 0.27986 0.8927 0.4147 0.0
C419 C 0.36559 0.9487 0.32903 0.0
C420 C 0.38122 0.94092 0.16864 0.0
N421 N 0.30793 0.90782 0.38765 0.0
N422 N 0.3545 0.92202 0.20061 0.0
H423 H 0.42286 0.09014 0.1846 0.0
H424 H 0.39805 0.18541 0.84402 0.0
H425 H 0.48498 0.14026 -0.00906 0.0
H426 H 0.33096 0.12433 0.01093 0.0
H427 H 0.43338 0.17624 0.91486 0.0
H428 H 0.39297 0.11106 0.14237 0.0
C429 C 0.43059 0.1061 0.13467 0.0
C430 C 0.45612 0.11305 0.09004 0.0
C431 C 0.41095 0.16496 0.93619 0.0
C432 C 0.42191 0.1366 0.04072 0.0
C433 C 0.39072 0.17006 0.8955 0.0
C434 C 0.36139 0.15529 0.92073 0.0
C435 C 0.40181 0.14498 0.00265 0.0
C436 C 0.35325 0.13591 -0.01147 0.0
C437 C 0.41339 0.11782 0.11009 0.0
C438 C 0.46514 0.13389 0.02599 0.0
N439 N 0.37333 0.1312 0.02685 0.0
N440 N 0.44783 0.14462 0.00242 0.0
H441 H 0.86196 0.30298 0.78336 0.0
H442 H 0.96337 0.46648 0.65114 0.0
H443 H 0.85091 0.33669 0.54913 0.0
H444 H 0.95616 0.4363 0.9063 0.0
H445 H 0.92057 0.42015 0.61388 0.0
H446 H 0.89395 0.35248 0.8325 0.0
C447 C 0.86601 0.32099 0.74285 0.0
C448 C 0.85419 0.316 0.66194 0.0
C449 C 0.92817 0.42381 0.67819 0.0
C450 C 0.89123 0.37259 0.71674 0.0
C451 C 0.95275 0.45015 0.69943 0.0
C452 C 0.96365 0.45507 0.78172 0.0
C453 C 0.91463 0.40215 0.73945 0.0
C454 C 0.94873 0.43334 0.84192 0.0
C455 C 0.88422 0.34921 0.77088 0.0
C456 C 0.85975 0.33985 0.61193 0.0
N457 N 0.92517 0.40768 0.81931 0.0
N458 N 0.87845 0.36728 0.63958 0.0
H459 H 0.67097 0.57094 0.68665 0.0
H460 H 0.61958 0.48871 0.11585 0.0
H461 H 0.71374 0.52537 0.7782 0.0
H462 H 0.62947 0.57351 0.07499 0.0
H463 H 0.64831 0.49506 -0.01191 0.0
H464 H 0.64594 0.56256 0.82089 0.0
C465 C 0.67473 0.55868 0.73423 0.0
C466 C 0.6949 0.54924 0.72137 0.0
C467 C 0.64454 0.51239 0.00838 0.0
C468 C 0.6664 0.53986 0.87532 0.0
C469 C 0.62842 0.50893 0.08131 0.0
C470 C 0.62196 0.53053 0.10567 0.0
C471 C 0.65344 0.5372 0.95896 0.0
C472 C 0.63387 0.55627 0.05869 0.0
C473 C 0.66069 0.55426 0.81116 0.0
C474 C 0.69856 0.53322 0.78554 0.0
N475 N 0.64848 0.55861 -0.01354 0.0
N476 N 0.68452 0.52913 0.86028 0.0
H477 H 0.8446 0.55773 0.5835 0.0
H478 H 0.98307 0.60707 0.88269 0.0
H479 H 0.86671 0.61724 0.79207 0.0
H480 H 0.96627 0.55353 0.66182 0.0
H481 H 0.93889 0.60903 0.85378 0.0
H482 H 0.88696 0.55254 0.61709 0.0
C483 C 0.8581 0.56935 0.63686 0.0
C484 C 0.85237 0.58815 0.68448 0.0
C485 C 0.94493 0.59691 0.81152 0.0
C486 C 0.90071 0.58263 0.72265 0.0
C487 C 0.97025 0.59593 0.82782 0.0
C488 C 0.97845 0.58017 0.77465 0.0
C489 C 0.92765 0.58197 0.74169 0.0
C490 C 0.96086 0.56601 0.7046 0.0
C491 C 0.88236 0.56659 0.65564 0.0
C492 C 0.87057 0.6028 0.75288 0.0
N493 N 0.93626 0.56718 0.69029 0.0
N494 N 0.89396 0.59985 0.76959 0.0
H495 H 0.49672 0.41563 -0.01935 0.0
H496 H 0.39517 0.28533 0.79678 0.0
H497 H 0.43331 0.39174 0.17992 0.0
H498 H 0.33159 0.29195 0.95094 0.0
H499 H 0.43363 0.32827 0.86447 0.0
H500 H 0.46108 0.37496 0.89806 0.0
C501 C 0.47549 0.4014 0.00796 0.0
C502 C 0.46814 0.40704 0.0878 0.0
C503 C 0.41132 0.32105 0.88215 0.0
C504 C 0.42703 0.3598 -0.00647 0.0
C505 C 0.38924 0.29629 0.84364 0.0
C506 C 0.36008 0.285 0.86825 0.0
C507 C 0.40427 0.33485 0.94576 0.0
C508 C 0.35375 0.30004 0.92961 0.0
C509 C 0.45505 0.37799 0.96062 0.0
C510 C 0.44007 0.38808 0.11907 0.0
N511 N 0.37575 0.32404 0.96704 0.0
N512 N 0.42048 0.36539 0.07162 0.0
H513 H 0.68148 0.14013 0.57341 0.0
H514 H 0.6191 0.13578 0.01952 0.0
H515 H 0.72219 0.21612 0.73261 0.0
H516 H 0.56071 0.09521 0.81049 0.0
H517 H 0.65924 0.16255 0.91961 0.0
H518 H 0.6378 0.12015 0.66233 0.0
C519 C 0.68094 0.1528 0.6261 0.0
C520 C 0.70527 0.17978 0.64581 0.0
C521 C 0.63751 0.14801 0.89604 0.0
C522 C 0.65621 0.15678 0.74863 0.0
C523 C 0.61476 0.13265 0.95276 0.0
C524 C 0.58668 0.11336 0.92302 0.0
C525 C 0.63214 0.14333 0.80953 0.0
C526 C 0.58206 0.11005 0.83592 0.0
C527 C 0.65614 0.14143 0.67668 0.0
C528 C 0.7037 0.19534 0.71502 0.0
N529 N 0.60469 0.12458 0.7821 0.0
N530 N 0.67974 0.18333 0.7652 0.0
H531 H 0.58149 0.00351 0.06989 0.0
H532 H 0.59005 0.89863 0.38095 0.0
H533 H 0.50314 0.94532 0.20593 0.0
H534 H 0.61981 0.90018 0.12765 0.0
H535 H 0.56189 0.92085 0.33096 0.0
H536 H 0.6012 0.97149 0.10199 0.0
C537 C 0.56847 0.98393 0.10617 0.0
C538 C 0.54078 0.9769 0.13562 0.0
C539 C 0.57422 0.91581 0.28639 0.0
C540 C 0.5632 0.94095 0.17343 0.0
C541 C 0.59024 0.90329 0.3147 0.0
C542 C 0.60706 0.89763 0.25802 0.0
C543 C 0.57603 0.9236 0.20171 0.0
C544 C 0.60685 0.90409 0.17289 0.0
C545 C 0.57957 0.96568 0.1238 0.0
C546 C 0.52458 0.9513 0.18205 0.0
N547 N 0.59206 0.91742 0.14736 0.0
N548 N 0.53629 0.93443 0.20113 0.0
H549 H 0.11102 0.70451 0.37022 0.0
H550 H 0.13855 0.6803 0.91823 0.0
H551 H 0.18954 0.76937 0.24711 0.0
H552 H 0.11782 0.60947 0.08801 0.0
H553 H 0.15385 0.71368 0.03858 0.0
H554 H 0.10947 0.66775 0.27208 0.0
C555 C 0.12831 0.71084 0.32443 0.0
C556 C 0.14998 0.7401 0.31522 0.0
C557 C 0.14655 0.69091 0.0491 0.0
C558 C 0.14794 0.69881 0.20312 0.0
C559 C 0.13796 0.67202 -0.0193 0.0
C560 C 0.12746 0.64241 -0.00631 0.0
C561 C 0.14341 0.67978 0.13076 0.0
C562 C 0.12637 0.63239 0.07589 0.0
C563 C 0.12738 0.68996 0.26853 0.0
C564 C 0.17194 0.74717 0.25487 0.0
N565 N 0.1336 0.65097 0.14199 0.0
N566 N 0.16992 0.72686 0.19961 0.0
H567 H 0.41091 0.45753 0.34684 0.0
H568 H 0.26692 0.40038 0.06963 0.0
H569 H 0.41274 0.4881 0.09472 0.0
H570 H 0.27337 0.35883 0.29474 0.0
H571 H 0.31881 0.43687 0.08308 0.0
H572 H 0.35829 0.42682 0.33663 0.0
C573 C 0.40022 0.45811 0.28965 0.0
C574 C 0.41635 0.47511 0.22106 0.0
C575 C 0.30875 0.41968 0.12924 0.0
C576 C 0.356 0.43958 0.20856 0.0
C577 C 0.27923 0.39879 0.12143 0.0
C578 C 0.26577 0.37645 0.18101 0.0
C579 C 0.32469 0.41827 0.19748 0.0
C580 C 0.28273 0.37555 0.24709 0.0
C581 C 0.37015 0.4404 0.28368 0.0
C582 C 0.40119 0.47517 0.14894 0.0
N583 N 0.31122 0.39619 0.25361 0.0
N584 N 0.37181 0.45737 0.14417 0.0
H585 H 0.72326 0.68562 0.63205 0.0
H586 H 0.76228 0.82833 0.36862 0.0
H587 H 0.7852 0.71709 0.42728 0.0
H588 H 0.70217 0.79671 0.57759 0.0
H589 H 0.77478 0.7906 0.3968 0.0
H590 H 0.71773 0.72821 0.61777 0.0
C591 C 0.73561 0.70141 0.58382 0.0
C592 C 0.75459 0.69768 0.5305 0.0
C593 C 0.7591 0.79218 0.43701 0.0
C594 C 0.74856 0.74669 0.51422 0.0
C595 C 0.75215 0.81384 0.42132 0.0
C596 C 0.73087 0.81535 0.47009 0.0
C597 C 0.74465 0.77206 0.50178 0.0
C598 C 0.71838 0.79602 0.53754 0.0
C599 C 0.73259 0.72585 0.57598 0.0
C600 C 0.7702 0.71901 0.46956 0.0
N601 N 0.72523 0.77501 0.55084 0.0
N602 N 0.76678 0.74258 0.4629 0.0
H603 H 0.20526 0.05052 0.81284 0.0
H604 H 0.2215 0.94816 0.48831 0.0
H605 H 0.25613 0.08454 0.58646 0.0
H606 H 0.13646 0.92189 0.5911 0.0
H607 H 0.23941 -0.00292 0.54512 0.0
H608 H 0.18402 0.00103 0.7537 0.0
C609 C 0.21198 0.04753 0.75109 0.0
C610 C 0.23237 0.07148 0.70423 0.0
C611 C 0.2168 0.98061 0.55477 0.0
C612 C 0.20877 0.01564 0.63776 0.0
C613 C 0.20661 0.95283 0.52254 0.0
C614 C 0.17749 0.93126 0.53474 0.0
C615 C 0.19793 0.98655 0.60153 0.0
C616 C 0.159 0.93821 0.57976 0.0
C617 C 0.19976 0.01949 0.71736 0.0
C618 C 0.24033 0.06662 0.62435 0.0
N619 N 0.16965 0.96532 0.61274 0.0
N620 N 0.22876 0.0392 0.59398 0.0
H621 H 0.91045 0.27533 0.36352 0.0
H622 H 0.0361 0.23966 0.30206 0.0
H623 H 0.92262 0.22154 0.54221 0.0
H624 H 0.05427 0.3279 0.27155 0.0
H625 H 0.9884 0.22661 0.3621 0.0
H626 H 0.9585 0.28987 0.30304 0.0
C627 C 0.92339 0.26676 0.39017 0.0
C628 C 0.91287 0.24737 0.45792 0.0
C629 C 0.00284 0.24873 0.34156 0.0
C630 C 0.96684 0.26305 0.38783 0.0
C631 C 0.02978 0.25611 0.3065 0.0
C632 C 0.04895 0.28485 0.28177 0.0
C633 C -0.00513 0.27009 0.34971 0.0
C634 C 0.04 0.3055 0.29001 0.0
C635 C 0.95063 0.27504 0.3558 0.0
C636 C 0.93024 0.23676 0.49041 0.0
N637 N 0.0134 0.29767 0.32288 0.0
N638 N 0.95635 0.24442 0.45412 0.0
H639 H 0.17951 0.14417 0.63614 0.0
H640 H 0.16718 0.2091 0.28177 0.0
H641 H 0.21507 0.2325 0.72439 0.0
H642 H 0.13023 0.24802 0.44169 0.0
H643 H 0.17541 0.18698 0.40612 0.0
H644 H 0.15099 0.15273 0.53216 0.0
C645 C 0.18071 0.16513 0.63536 0.0
C646 C 0.20046 0.18802 0.68711 0.0
C647 C 0.16468 0.19965 0.41344 0.0
C648 C 0.16782 0.19764 0.56879 0.0
C649 C 0.16007 0.21222 0.34283 0.0
C650 C 0.14756 0.22977 0.352 0.0
C651 C 0.15767 0.20568 0.49343 0.0
C652 C 0.13937 0.23399 0.43249 0.0
C653 C 0.16449 0.16992 0.57584 0.0
C654 C 0.20052 0.21445 0.68469 0.0
N655 N 0.14528 0.22262 0.50079 0.0
N656 N 0.18482 0.21878 0.62491 0.0
H657 H 0.75503 0.98494 0.25613 0.0
H658 H 0.78657 0.09756 0.60607 0.0
H659 H 0.7714 0.96934 0.50987 0.0
H660 H 0.81191 0.12479 0.34958 0.0
H661 H 0.78332 0.05108 0.57277 0.0
H662 H 0.77961 0.03712 0.286 0.0
C663 C 0.76484 0.99278 0.31723 0.0
C664 C 0.76149 0.97321 0.38069 0.0
C665 C 0.79008 0.06744 0.52418 0.0
C666 C 0.78817 0.03224 0.41657 0.0
C667 C 0.79161 0.09381 0.5429 0.0
C668 C 0.799 0.1148 0.48008 0.0
C669 C 0.79536 0.06184 0.44172 0.0
C670 C 0.80582 0.10905 0.39965 0.0
C671 C 0.77871 0.02245 0.33447 0.0
C672 C 0.77394 0.98403 0.45936 0.0
N673 N 0.8033 0.08286 0.38231 0.0
N674 N 0.78615 0.01291 0.47594 0.0
H675 H 0.88449 0.68135 0.41222 0.0
H676 H 0.03786 0.81479 0.54344 0.0
H677 H 0.89458 0.72979 0.64009 0.0
H678 H 0.02894 0.7384 0.41927 0.0
H679 H 0.98464 0.79031 0.55804 0.0
H680 H 0.93717 0.70958 0.39043 0.0
C681 C 0.89771 0.69825 0.45696 0.0
C682 C 0.88519 0.70315 0.52842 0.0
C683 C -0.00555 0.77903 0.52763 0.0
C684 C 0.94529 0.73538 0.50355 0.0
C685 C 0.02468 0.79292 0.5191 0.0
C686 C 0.03771 0.77848 0.48039 0.0
C687 C 0.97725 0.75087 0.49538 0.0
C688 C 0.01974 0.75016 0.45012 0.0
C689 C 0.92774 0.71413 0.44475 0.0
C690 C 0.90342 0.72522 0.58452 0.0
N691 N 0.99034 0.73733 0.45769 0.0
N692 N 0.93267 0.7406 0.57089 0.0
loop_
_geom_bond_atom_site_label_1
_geom_bond_atom_site_label_2
_geom_bond_distance
_geom_bond_site_symmetry_2
_ccdc_geom_bond_type
O0 Zn1 1.953 . S
O0 C16 1.225 1_556 S
Zn1 O0 1.953 . S
Zn1 O2 1.949 1_556 S
Zn1 O8 1.919 . S
Zn1 O13 1.924 1_556 S
O2 Zn1 1.949 1_554 S
O2 Zn3 1.923 1_454 S
O2 Zn4 1.950 . S
O2 Zn5 1.945 . S
Zn3 O2 1.923 1_656 S
Zn3 O6 1.933 . S
Zn3 O9 1.941 . S
Zn3 O10 1.965 . S
Zn4 O2 1.950 . S
Zn4 O11 1.938 1_455 S
Zn4 O12 1.906 1_455 S
Zn4 O22 1.953 . S
Zn5 O2 1.945 . S
Zn5 O7 1.932 1_455 S
Zn5 O14 1.977 1_455 S
Zn5 O15 1.910 . S
O6 Zn3 1.933 . S
O6 C17 1.226 . S
O7 Zn5 1.932 1_655 S
O7 C17 1.307 1_554 S
O8 Zn1 1.919 . S
O8 C19 1.253 . S
O9 Zn3 1.941 . S
O9 C19 1.283 1_655 S
O10 Zn3 1.965 . S
O10 C18 1.303 . S
O11 Zn4 1.938 1_655 S
O11 C18 1.247 1_554 S
O12 Zn4 1.906 1_655 S
O12 C20 1.304 . S
O13 Zn1 1.924 1_554 S
O13 C21 1.311 . S
O14 Zn5 1.977 1_655 S
O14 C20 1.272 . S
O15 Zn5 1.910 . S
O15 C21 1.231 . S
C16 O0 1.225 1_554 S
C16 O22 1.298 . S
C17 O6 1.226 . S
C17 O7 1.307 1_556 S
C18 O10 1.303 . S
C18 O11 1.247 1_556 S
C19 O8 1.253 . S
C19 O9 1.283 1_455 S
C20 O12 1.304 . S
C20 O14 1.272 . S
C21 O13 1.311 . S
C21 O15 1.231 . S
O22 Zn4 1.953 . S
O22 C16 1.298 . S
O23 Zn24 1.953 . S
O23 C39 1.225 1_556 S
Zn24 O23 1.953 . S
Zn24 O25 1.949 1_556 S
Zn24 O31 1.919 . S
Zn24 O36 1.924 1_556 S
O25 Zn24 1.949 1_554 S
O25 Zn26 1.923 1_554 S
O25 Zn27 1.950 . S
O25 Zn28 1.945 . S
Zn26 O25 1.923 1_556 S
Zn26 O29 1.933 . S
Zn26 O32 1.941 . S
Zn26 O33 1.965 . S
Zn27 O25 1.950 . S
Zn27 O34 1.938 . S
Zn27 O35 1.906 . S
Zn27 O45 1.953 . S
Zn28 O25 1.945 . S
Zn28 O30 1.932 . S
Zn28 O37 1.977 . S
Zn28 O38 1.910 . S
O29 Zn26 1.933 . S
O29 C40 1.226 . S
O30 Zn28 1.932 . S
O30 C40 1.307 1_554 S
O31 Zn24 1.919 . S
O31 C42 1.253 . S
O32 Zn26 1.941 . S
O32 C42 1.283 . S
O33 Zn26 1.965 . S
O33 C41 1.303 . S
O34 Zn27 1.938 . S
O34 C41 1.247 1_554 S
O35 Zn27 1.906 . S
O35 C43 1.304 . S
O36 Zn24 1.924 1_554 S
O36 C44 1.311 . S
O37 Zn28 1.977 . S
O37 C43 1.272 . S
O38 Zn28 1.910 . S
O38 C44 1.231 . S
C39 O23 1.225 1_554 S
C39 O45 1.298 . S
C40 O29 1.226 . S
C40 O30 1.307 1_556 S
C41 O33 1.303 . S
C41 O34 1.247 1_556 S
C42 O31 1.253 . S
C42 O32 1.283 . S
C43 O35 1.304 . S
C43 O37 1.272 . S
C44 O36 1.311 . S
C44 O38 1.231 . S
O45 Zn27 1.953 . S
O45 C39 1.298 . S
O46 Zn47 1.953 . S
O46 C62 1.225 1_556 S
Zn47 O46 1.953 . S
Zn47 O48 1.949 1_566 S
Zn47 O54 1.919 . S
Zn47 O59 1.924 1_556 S
O48 Zn47 1.949 1_544 S
O48 Zn49 1.923 1_554 S
O48 Zn50 1.950 . S
O48 Zn51 1.945 . S
Zn49 O48 1.923 1_556 S
Zn49 O52 1.933 . S
Zn49 O55 1.941 . S
Zn49 O56 1.965 . S
Zn50 O48 1.950 . S
Zn50 O57 1.938 . S
Zn50 O58 1.906 . S
Zn50 O68 1.953 1_545 S
Zn51 O48 1.945 . S
Zn51 O53 1.932 . S
Zn51 O60 1.977 . S
Zn51 O61 1.910 1_545 S
O52 Zn49 1.933 . S
O52 C63 1.226 . S
O53 Zn51 1.932 . S
O53 C63 1.307 1_554 S
O54 Zn47 1.919 . S
O54 C65 1.253 1_565 S
O55 Zn49 1.941 . S
O55 C65 1.283 . S
O56 Zn49 1.965 . S
O56 C64 1.303 . S
O57 Zn50 1.938 . S
O57 C64 1.247 1_554 S
O58 Zn50 1.906 . S
O58 C66 1.304 . S
O59 Zn47 1.924 1_554 S
O59 C67 1.311 . S
O60 Zn51 1.977 . S
O60 C66 1.272 . S
O61 Zn51 1.910 1_565 S
O61 C67 1.231 . S
C62 O46 1.225 1_554 S
C62 O68 1.298 . S
C63 O52 1.226 . S
C63 O53 1.307 1_556 S
C64 O56 1.303 . S
C64 O57 1.247 1_556 S
C65 O54 1.253 1_545 S
C65 O55 1.283 . S
C66 O58 1.304 . S
C66 O60 1.272 . S
C67 O59 1.311 . S
C67 O61 1.231 . S
O68 Zn50 1.953 1_565 S
O68 C62 1.298 . S
O69 Zn70 1.953 . S
O69 C85 1.225 . S
Zn70 O69 1.953 . S
Zn70 O71 1.949 . S
Zn70 O77 1.919 . S
Zn70 O82 1.924 . S
O71 Zn70 1.949 . S
O71 Zn72 1.923 . S
O71 Zn73 1.950 . S
O71 Zn74 1.945 . S
Zn72 O71 1.923 . S
Zn72 O75 1.933 . S
Zn72 O78 1.941 . S
Zn72 O79 1.965 . S
Zn73 O71 1.950 . S
Zn73 O80 1.938 . S
Zn73 O81 1.906 . S
Zn73 O91 1.953 . S
Zn74 O71 1.945 . S
Zn74 O76 1.932 . S
Zn74 O83 1.977 . S
Zn74 O84 1.910 . S
O75 Zn72 1.933 . S
O75 C86 1.226 . S
O76 Zn74 1.932 . S
O76 C86 1.307 . S
O77 Zn70 1.919 . S
O77 C88 1.253 . S
O78 Zn72 1.941 . S
O78 C88 1.283 . S
O79 Zn72 1.965 . S
O79 C87 1.303 . S
O80 Zn73 1.938 . S
O80 C87 1.247 . S
O81 Zn73 1.906 . S
O81 C89 1.304 . S
O82 Zn70 1.924 . S
O82 C90 1.311 . S
O83 Zn74 1.977 . S
O83 C89 1.272 . S
O84 Zn74 1.910 . S
O84 C90 1.231 . S
C85 O69 1.225 . S
C85 O91 1.298 . S
C86 O75 1.226 . S
C86 O76 1.307 . S
C87 O79 1.303 . S
C87 O80 1.247 . S
C88 O77 1.253 . S
C88 O78 1.283 . S
C89 O81 1.304 . S
C89 O83 1.272 . S
C90 O82 1.311 . S
C90 O84 1.231 . S
O91 Zn73 1.953 . S
O91 C85 1.298 . S
O92 Zn93 1.953 . S
O92 C108 1.225 . S
Zn93 O92 1.953 . S
Zn93 O94 1.949 . S
Zn93 O100 1.919 . S
Zn93 O105 1.924 . S
O94 Zn93 1.949 . S
O94 Zn95 1.923 . S
O94 Zn96 1.950 . S
O94 Zn97 1.945 . S
Zn95 O94 1.923 . S
Zn95 O98 1.933 . S
Zn95 O101 1.941 . S
Zn95 O102 1.965 . S
Zn96 O94 1.950 . S
Zn96 O103 1.938 . S
Zn96 O104 1.906 . S
Zn96 O114 1.953 . S
Zn97 O94 1.945 . S
Zn97 O99 1.932 . S
Zn97 O106 1.977 . S
Zn97 O107 1.910 . S
O98 Zn95 1.933 . S
O98 C109 1.226 . S
O99 Zn97 1.932 . S
O99 C109 1.307 . S
O100 Zn93 1.919 . S
O100 C111 1.253 . S
O101 Zn95 1.941 . S
O101 C111 1.283 . S
O102 Zn95 1.965 . S
O102 C110 1.303 . S
O103 Zn96 1.938 . S
O103 C110 1.247 . S
O104 Zn96 1.906 . S
O104 C112 1.304 . S
O105 Zn93 1.924 . S
O105 C113 1.311 . S
O106 Zn97 1.977 . S
O106 C112 1.272 . S
O107 Zn97 1.910 . S
O107 C113 1.231 . S
C108 O92 1.225 . S
C108 O114 1.298 . S
C109 O98 1.226 . S
C109 O99 1.307 . S
C110 O102 1.303 . S
C110 O103 1.247 . S
C111 O100 1.253 . S
C111 O101 1.283 . S
C112 O104 1.304 . S
C112 O106 1.272 . S
C113 O105 1.311 . S
C113 O107 1.231 . S
O114 Zn96 1.953 . S
O114 C108 1.298 . S
O115 Zn116 1.953 . S
O115 C131 1.225 . S
Zn116 O115 1.953 . S
Zn116 O117 1.949 . S
Zn116 O123 1.919 . S
Zn116 O128 1.924 . S
O117 Zn116 1.949 . S
O117 Zn118 1.923 . S
O117 Zn119 1.950 . S
O117 Zn120 1.945 . S
Zn118 O117 1.923 . S
Zn118 O121 1.933 . S
Zn118 O124 1.941 . S
Zn118 O125 1.965 . S
Zn119 O117 1.950 . S
Zn119 O126 1.938 . S
Zn119 O127 1.906 . S
Zn119 O137 1.953 . S
Zn120 O117 1.945 . S
Zn120 O122 1.932 . S
Zn120 O129 1.977 . S
Zn120 O130 1.910 . S
O121 Zn118 1.933 . S
O121 C132 1.226 . S
O122 Zn120 1.932 . S
O122 C132 1.307 . S
O123 Zn116 1.919 . S
O123 C134 1.253 . S
O124 Zn118 1.941 . S
O124 C134 1.283 . S
O125 Zn118 1.965 . S
O125 C133 1.303 . S
O126 Zn119 1.938 . S
O126 C133 1.247 . S
O127 Zn119 1.906 . S
O127 C135 1.304 . S
O128 Zn116 1.924 . S
O128 C136 1.311 . S
O129 Zn120 1.977 . S
O129 C135 1.272 . S
O130 Zn120 1.910 . S
O130 C136 1.231 . S
C131 O115 1.225 . S
C131 O137 1.298 . S
C132 O121 1.226 . S
C132 O122 1.307 . S
C133 O125 1.303 . S
C133 O126 1.247 . S
C134 O123 1.253 . S
C134 O124 1.283 . S
C135 O127 1.304 . S
C135 O129 1.272 . S
C136 O128 1.311 . S
C136 O130 1.231 . S
O137 Zn119 1.953 . S
O137 C131 1.298 . S
O138 Zn139 1.953 . S
O138 C154 1.225 . S
Zn139 O138 1.953 . S
Zn139 O140 1.949 . S
Zn139 O146 1.919 . S
Zn139 O151 1.924 . S
O140 Zn139 1.949 . S
O140 Zn141 1.923 . S
O140 Zn142 1.950 . S
O140 Zn143 1.945 . S
Zn141 O140 1.923 . S
Zn141 O144 1.933 . S
Zn141 O147 1.941 . S
Zn141 O148 1.965 . S
Zn142 O140 1.950 . S
Zn142 O149 1.938 . S
Zn142 O150 1.906 . S
Zn142 O160 1.953 . S
Zn143 O140 1.945 . S
Zn143 O145 1.932 . S
Zn143 O152 1.977 . S
Zn143 O153 1.910 . S
O144 Zn141 1.933 . S
O144 C155 1.226 . S
O145 Zn143 1.932 . S
O145 C155 1.307 . S
O146 Zn139 1.919 . S
O146 C157 1.253 . S
O147 Zn141 1.941 . S
O147 C157 1.283 . S
O148 Zn141 1.965 . S
O148 C156 1.303 . S
O149 Zn142 1.938 . S
O149 C156 1.247 . S
O150 Zn142 1.906 . S
O150 C158 1.304 . S
O151 Zn139 1.924 . S
O151 C159 1.311 . S
O152 Zn143 1.977 . S
O152 C158 1.272 . S
O153 Zn143 1.910 . S
O153 C159 1.231 . S
C154 O138 1.225 . S
C154 O160 1.298 . S
C155 O144 1.226 . S
C155 O145 1.307 . S
C156 O148 1.303 . S
C156 O149 1.247 . S
C157 O146 1.253 . S
C157 O147 1.283 . S
C158 O150 1.304 . S
C158 O152 1.272 . S
C159 O151 1.311 . S
C159 O153 1.231 . S
O160 Zn142 1.953 . S
O160 C154 1.298 . S
O161 Zn162 1.953 . S
O161 C177 1.225 . S
Zn162 O161 1.953 . S
Zn162 O163 1.949 . S
Zn162 O169 1.919 . S
Zn162 O174 1.924 . S
O163 Zn162 1.949 . S
O163 Zn164 1.923 . S
O163 Zn165 1.950 . S
O163 Zn166 1.945 . S
Zn164 O163 1.923 . S
Zn164 O167 1.933 . S
Zn164 O170 1.941 . S
Zn164 O171 1.965 . S
Zn165 O163 1.950 . S
Zn165 O172 1.938 . S
Zn165 O173 1.906 . S
Zn165 O183 1.953 . S
Zn166 O163 1.945 . S
Zn166 O168 1.932 . S
Zn166 O175 1.977 . S
Zn166 O176 1.910 . S
O167 Zn164 1.933 . S
O167 C178 1.226 . S
O168 Zn166 1.932 . S
O168 C178 1.307 . S
O169 Zn162 1.919 . S
O169 C180 1.253 . S
O170 Zn164 1.941 . S
O170 C180 1.283 . S
O171 Zn164 1.965 . S
O171 C179 1.303 . S
O172 Zn165 1.938 . S
O172 C179 1.247 . S
O173 Zn165 1.906 . S
O173 C181 1.304 . S
O174 Zn162 1.924 . S
O174 C182 1.311 . S
O175 Zn166 1.977 . S
O175 C181 1.272 . S
O176 Zn166 1.910 . S
O176 C182 1.231 . S
C177 O161 1.225 . S
C177 O183 1.298 . S
C178 O167 1.226 . S
C178 O168 1.307 . S
C179 O171 1.303 . S
C179 O172 1.247 . S
C180 O169 1.253 . S
C180 O170 1.283 . S
C181 O173 1.304 . S
C181 O175 1.272 . S
C182 O174 1.311 . S
C182 O176 1.231 . S
O183 Zn165 1.953 . S
O183 C177 1.298 . S
O184 Zn185 1.953 . S
O184 C200 1.225 . S
Zn185 O184 1.953 . S
Zn185 O186 1.949 . S
Zn185 O192 1.919 . S
Zn185 O197 1.924 . S
O186 Zn185 1.949 . S
O186 Zn187 1.923 . S
O186 Zn188 1.950 . S
O186 Zn189 1.945 . S
Zn187 O186 1.923 . S
Zn187 O190 1.933 . S
Zn187 O193 1.941 . S
Zn187 O194 1.965 . S
Zn188 O186 1.950 . S
Zn188 O195 1.938 . S
Zn188 O196 1.906 . S
Zn188 O206 1.953 . S
Zn189 O186 1.945 . S
Zn189 O191 1.932 . S
Zn189 O198 1.977 . S
Zn189 O199 1.910 . S
O190 Zn187 1.933 . S
O190 C201 1.226 . S
O191 Zn189 1.932 . S
O191 C201 1.307 . S
O192 Zn185 1.919 . S
O192 C203 1.253 . S
O193 Zn187 1.941 . S
O193 C203 1.283 . S
O194 Zn187 1.965 . S
O194 C202 1.303 . S
O195 Zn188 1.938 . S
O195 C202 1.247 . S
O196 Zn188 1.906 . S
O196 C204 1.304 . S
O197 Zn185 1.924 . S
O197 C205 1.311 . S
O198 Zn189 1.977 . S
O198 C204 1.272 . S
O199 Zn189 1.910 . S
O199 C205 1.231 . S
C200 O184 1.225 . S
C200 O206 1.298 . S
C201 O190 1.226 . S
C201 O191 1.307 . S
C202 O194 1.303 . S
C202 O195 1.247 . S
C203 O192 1.253 . S
C203 O193 1.283 . S
C204 O196 1.304 . S
C204 O198 1.272 . S
C205 O197 1.311 . S
C205 O199 1.231 . S
O206 Zn188 1.953 . S
O206 C200 1.298 . S
H207 C213 0.930 . S
H208 C217 0.930 . S
H209 C222 0.929 . S
H210 C220 0.929 . S
H211 C215 0.929 . S
H212 C221 0.929 . S
C213 H207 0.930 . S
C213 C214 1.367 . S
C213 C221 1.378 . S
C214 C213 1.367 . S
C214 C222 1.433 1_455 S
C215 H211 0.929 . S
C215 C217 1.378 . S
C215 C219 1.350 . S
C216 C219 1.463 1_455 S
C216 C221 1.350 . S
C216 N224 1.427 1_455 S
C217 H208 0.930 . S
C217 C215 1.378 . S
C217 C218 1.367 . S
C218 C217 1.367 . S
C218 C220 1.433 1_655 S
C219 C215 1.350 . S
C219 C216 1.463 1_655 S
C219 N223 1.427 1_655 S
C220 H210 0.929 . S
C220 C218 1.433 1_455 S
C220 N223 1.384 . S
C221 H212 0.929 . S
C221 C213 1.378 . S
C221 C216 1.350 . S
C222 H209 0.929 . S
C222 C214 1.433 1_655 S
C222 N224 1.384 . S
N223 C219 1.427 1_455 S
N223 C220 1.384 . S
N224 C216 1.427 1_655 S
N224 C222 1.384 . S
H225 C231 0.930 . S
H226 C235 0.930 . S
H227 C240 0.929 . S
H228 C238 0.929 . S
H229 C233 0.929 . S
H230 C239 0.929 . S
C231 H225 0.930 . S
C231 C232 1.367 . S
C231 C239 1.378 . S
C232 C231 1.367 . S
C232 C240 1.433 . S
C233 H229 0.929 . S
C233 C235 1.378 . S
C233 C237 1.350 . S
C234 C237 1.463 . S
C234 C239 1.350 . S
C234 N242 1.427 . S
C235 H226 0.930 . S
C235 C233 1.378 . S
C235 C236 1.367 . S
C236 C235 1.367 . S
C236 C238 1.433 . S
C237 C233 1.350 . S
C237 C234 1.463 . S
C237 N241 1.427 . S
C238 H228 0.929 . S
C238 C236 1.433 . S
C238 N241 1.384 . S
C239 H230 0.929 . S
C239 C231 1.378 . S
C239 C234 1.350 . S
C240 H227 0.929 . S
C240 C232 1.433 . S
C240 N242 1.384 . S
N241 C237 1.427 . S
N241 C238 1.384 . S
N242 C234 1.427 . S
N242 C240 1.384 . S
H243 C249 0.930 . S
H244 C253 0.930 . S
H245 C258 0.929 . S
H246 C256 0.929 . S
H247 C251 0.929 . S
H248 C257 0.929 . S
C249 H243 0.930 . S
C249 C250 1.367 1_565 S
C249 C257 1.378 . S
C250 C249 1.367 1_545 S
C250 C258 1.433 . S
C251 H247 0.929 . S
C251 C253 1.378 . S
C251 C255 1.350 . S
C252 C255 1.463 . S
C252 C257 1.350 1_545 S
C252 N260 1.427 . S
C253 H244 0.930 . S
C253 C251 1.378 . S
C253 C254 1.367 . S
C254 C253 1.367 . S
C254 C256 1.433 . S
C255 C251 1.350 . S
C255 C252 1.463 . S
C255 N259 1.427 . S
C256 H246 0.929 . S
C256 C254 1.433 . S
C256 N259 1.384 . S
C257 H248 0.929 . S
C257 C249 1.378 . S
C257 C252 1.350 1_565 S
C258 H245 0.929 . S
C258 C250 1.433 . S
C258 N260 1.384 . S
N259 C255 1.427 . S
N259 C256 1.384 . S
N260 C252 1.427 . S
N260 C258 1.384 . S
H261 C267 0.930 . S
H262 C271 0.930 . S
H263 C276 0.929 . S
H264 C274 0.929 . S
H265 C269 0.929 . S
H266 C275 0.929 . S
C267 H261 0.930 . S
C267 C268 1.367 . S
C267 C275 1.378 . S
C268 C267 1.367 . S
C268 C276 1.433 . S
C269 H265 0.929 . S
C269 C271 1.378 1_556 S
C269 C273 1.350 . S
C270 C273 1.463 . S
C270 C275 1.350 . S
C270 N278 1.427 . S
C271 H262 0.930 . S
C271 C269 1.378 1_554 S
C271 C272 1.367 . S
C272 C271 1.367 . S
C272 C274 1.433 . S
C273 C269 1.350 . S
C273 C270 1.463 . S
C273 N277 1.427 . S
C274 H264 0.929 . S
C274 C272 1.433 . S
C274 N277 1.384 1_554 S
C275 H266 0.929 . S
C275 C267 1.378 . S
C275 C270 1.350 . S
C276 H263 0.929 . S
C276 C268 1.433 . S
C276 N278 1.384 . S
N277 C273 1.427 . S
N277 C274 1.384 1_556 S
N278 C270 1.427 . S
N278 C276 1.384 . S
H279 C285 0.930 . S
H280 C289 0.930 . S
H281 C294 0.929 . S
H282 C292 0.929 . S
H283 C287 0.929 . S
H284 C293 0.929 . S
C285 H279 0.930 . S
C285 C286 1.367 . S
C285 C293 1.378 . S
C286 C285 1.367 . S
C286 C294 1.433 . S
C287 H283 0.929 . S
C287 C289 1.378 1_556 S
C287 C291 1.350 . S
C288 C291 1.463 . S
C288 C293 1.350 . S
C288 N296 1.427 . S
C289 H280 0.930 . S
C289 C287 1.378 1_554 S
C289 C290 1.367 . S
C290 C289 1.367 . S
C290 C292 1.433 . S
C291 C287 1.350 . S
C291 C288 1.463 . S
C291 N295 1.427 . S
C292 H282 0.929 . S
C292 C290 1.433 . S
C292 N295 1.384 1_554 S
C293 H284 0.929 . S
C293 C285 1.378 . S
C293 C288 1.350 . S
C294 H281 0.929 . S
C294 C286 1.433 . S
C294 N296 1.384 . S
N295 C291 1.427 . S
N295 C292 1.384 1_556 S
N296 C288 1.427 . S
N296 C294 1.384 . S
H297 C303 0.930 . S
H298 C307 0.930 . S
H299 C312 0.929 . S
H300 C310 0.929 . S
H301 C305 0.929 . S
H302 C311 0.929 . S
C303 H297 0.930 . S
C303 C304 1.367 . S
C303 C311 1.378 . S
C304 C303 1.367 . S
C304 C312 1.433 . S
C305 H301 0.929 . S
C305 C307 1.378 1_556 S
C305 C309 1.350 . S
C306 C309 1.463 . S
C306 C311 1.350 . S
C306 N314 1.427 . S
C307 H298 0.930 . S
C307 C305 1.378 1_554 S
C307 C308 1.367 . S
C308 C307 1.367 . S
C308 C310 1.433 . S
C309 C305 1.350 . S
C309 C306 1.463 . S
C309 N313 1.427 . S
C310 H300 0.929 . S
C310 C308 1.433 . S
C310 N313 1.384 1_554 S
C311 H302 0.929 . S
C311 C303 1.378 . S
C311 C306 1.350 . S
C312 H299 0.929 . S
C312 C304 1.433 . S
C312 N314 1.384 . S
N313 C309 1.427 . S
N313 C310 1.384 1_556 S
N314 C306 1.427 . S
N314 C312 1.384 . S
H315 C321 0.930 . S
H316 C325 0.930 1_556 S
H317 C330 0.929 . S
H318 C328 0.929 . S
H319 C323 0.929 . S
H320 C329 0.929 . S
C321 H315 0.930 . S
C321 C322 1.367 . S
C321 C329 1.378 . S
C322 C321 1.367 . S
C322 C330 1.433 . S
C323 H319 0.929 . S
C323 C325 1.378 . S
C323 C327 1.350 . S
C324 C327 1.463 . S
C324 C329 1.350 . S
C324 N332 1.427 . S
C325 H316 0.930 1_554 S
C325 C323 1.378 . S
C325 C326 1.367 . S
C326 C325 1.367 . S
C326 C328 1.433 . S
C327 C323 1.350 . S
C327 C324 1.463 . S
C327 N331 1.427 . S
C328 H318 0.929 . S
C328 C326 1.433 . S
C328 N331 1.384 . S
C329 H320 0.929 . S
C329 C321 1.378 . S
C329 C324 1.350 . S
C330 H317 0.929 . S
C330 C322 1.433 . S
C330 N332 1.384 . S
N331 C327 1.427 . S
N331 C328 1.384 . S
N332 C324 1.427 . S
N332 C330 1.384 . S
H333 C339 0.930 . S
H334 C343 0.930 . S
H335 C348 0.929 . S
H336 C346 0.929 . S
H337 C341 0.929 . S
H338 C347 0.929 . S
C339 H333 0.930 . S
C339 C340 1.367 . S
C339 C347 1.378 . S
C340 C339 1.367 . S
C340 C348 1.433 . S
C341 H337 0.929 . S
C341 C343 1.378 . S
C341 C345 1.350 . S
C342 C345 1.463 . S
C342 C347 1.350 . S
C342 N350 1.427 . S
C343 H334 0.930 . S
C343 C341 1.378 . S
C343 C344 1.367 . S
C344 C343 1.367 . S
C344 C346 1.433 . S
C345 C341 1.350 . S
C345 C342 1.463 . S
C345 N349 1.427 . S
C346 H336 0.929 . S
C346 C344 1.433 . S
C346 N349 1.384 . S
C347 H338 0.929 . S
C347 C339 1.378 . S
C347 C342 1.350 . S
C348 H335 0.929 . S
C348 C340 1.433 . S
C348 N350 1.384 . S
N349 C345 1.427 . S
N349 C346 1.384 . S
N350 C342 1.427 . S
N350 C348 1.384 . S
H351 C357 0.930 . S
H352 C361 0.930 1_556 S
H353 C366 0.929 . S
H354 C364 0.929 . S
H355 C359 0.929 . S
H356 C365 0.929 . S
C357 H351 0.930 . S
C357 C358 1.367 . S
C357 C365 1.378 . S
C358 C357 1.367 . S
C358 C366 1.433 . S
C359 H355 0.929 . S
C359 C361 1.378 . S
C359 C363 1.350 . S
C360 C363 1.463 . S
C360 C365 1.350 . S
C360 N368 1.427 . S
C361 H352 0.930 1_554 S
C361 C359 1.378 . S
C361 C362 1.367 . S
C362 C361 1.367 . S
C362 C364 1.433 . S
C363 C359 1.350 . S
C363 C360 1.463 . S
C363 N367 1.427 . S
C364 H354 0.929 . S
C364 C362 1.433 . S
C364 N367 1.384 . S
C365 H356 0.929 . S
C365 C357 1.378 . S
C365 C360 1.350 . S
C366 H353 0.929 . S
C366 C358 1.433 . S
C366 N368 1.384 . S
N367 C363 1.427 . S
N367 C364 1.384 . S
N368 C360 1.427 . S
N368 C366 1.384 . S
H369 C375 0.930 . S
H370 C379 0.930 . S
H371 C384 0.929 . S
H372 C382 0.929 1_556 S
H373 C377 0.929 . S
H374 C383 0.929 . S
C375 H369 0.930 . S
C375 C376 1.367 . S
C375 C383 1.378 . S
C376 C375 1.367 . S
C376 C384 1.433 . S
C377 H373 0.929 . S
C377 C379 1.378 . S
C377 C381 1.350 . S
C378 C381 1.463 . S
C378 C383 1.350 . S
C378 N386 1.427 . S
C379 H370 0.930 . S
C379 C377 1.378 . S
C379 C380 1.367 . S
C380 C379 1.367 . S
C380 C382 1.433 . S
C381 C377 1.350 . S
C381 C378 1.463 . S
C381 N385 1.427 . S
C382 H372 0.929 1_554 S
C382 C380 1.433 . S
C382 N385 1.384 . S
C383 H374 0.929 . S
C383 C375 1.378 . S
C383 C378 1.350 . S
C384 H371 0.929 . S
C384 C376 1.433 . S
C384 N386 1.384 . S
N385 C381 1.427 . S
N385 C382 1.384 . S
N386 C378 1.427 . S
N386 C384 1.384 . S
H387 C393 0.930 . S
H388 C397 0.930 . S
H389 C402 0.921 1_556 S
H390 C400 0.929 . S
H391 C395 0.929 . S
H392 C401 0.929 . S
C393 H387 0.930 . S
C393 C394 1.367 . S
C393 C401 1.378 . S
C394 C393 1.367 . S
C394 C402 1.433 . S
C395 H391 0.929 . S
C395 C397 1.378 . S
C395 C399 1.350 . S
C396 C399 1.463 . S
C396 C401 1.350 . S
C396 N404 1.427 . S
C397 H388 0.930 . S
C397 C395 1.378 . S
C397 C398 1.367 . S
C398 C397 1.367 . S
C398 C400 1.433 . S
C399 C395 1.350 . S
C399 C396 1.463 . S
C399 N403 1.427 . S
C400 H390 0.929 . S
C400 C398 1.433 . S
C400 N403 1.384 . S
C401 H392 0.929 . S
C401 C393 1.378 . S
C401 C396 1.350 . S
C402 H389 0.921 1_554 S
C402 C394 1.433 . S
C402 N404 1.384 . S
N403 C399 1.427 . S
N403 C400 1.384 . S
N404 C396 1.427 . S
N404 C402 1.384 . S
H405 C411 0.930 . S
H406 C415 0.930 . S
H407 C420 0.929 1_556 S
H408 C418 0.929 . S
H409 C413 0.929 . S
H410 C419 0.929 . S
C411 H405 0.930 . S
C411 C412 1.367 . S
C411 C419 1.378 . S
C412 C411 1.367 . S
C412 C420 1.433 . S
C413 H409 0.929 . S
C413 C415 1.378 . S
C413 C417 1.350 . S
C414 C417 1.463 . S
C414 C419 1.350 . S
C414 N422 1.427 . S
C415 H406 0.930 . S
C415 C413 1.378 . S
C415 C416 1.367 . S
C416 C415 1.367 . S
C416 C418 1.433 . S
C417 C413 1.350 . S
C417 C414 1.463 . S
C417 N421 1.427 . S
C418 H408 0.929 . S
C418 C416 1.433 . S
C418 N421 1.384 . S
C419 H410 0.929 . S
C419 C411 1.378 . S
C419 C414 1.350 . S
C420 H407 0.929 1_554 S
C420 C412 1.433 . S
C420 N422 1.384 . S
N421 C417 1.427 . S
N421 C418 1.384 . S
N422 C414 1.427 . S
N422 C420 1.384 . S
H423 C429 0.930 . S
H424 C433 0.930 . S
H425 C438 0.929 . S
H426 C436 0.929 . S
H427 C431 0.929 . S
H428 C437 0.929 1_554 S
C429 H423 0.930 . S
C429 C430 1.367 1_554 S
C429 C437 1.378 1_554 S
C430 C429 1.367 1_556 S
C430 C438 1.433 . S
C431 H427 0.929 . S
C431 C433 1.378 . S
C431 C435 1.350 . S
C432 C435 1.463 . S
C432 C437 1.350 . S
C432 N440 1.427 . S
C433 H424 0.930 . S
C433 C431 1.378 . S
C433 C434 1.367 . S
C434 C433 1.367 . S
C434 C436 1.433 . S
C435 C431 1.350 . S
C435 C432 1.463 . S
C435 N439 1.427 . S
C436 H426 0.929 . S
C436 C434 1.433 . S
C436 N439 1.384 . S
C437 H428 0.929 1_556 S
C437 C429 1.378 1_556 S
C437 C432 1.350 . S
C438 H425 0.929 . S
C438 C430 1.433 . S
C438 N440 1.384 . S
N439 C435 1.427 . S
N439 C436 1.384 . S
N440 C432 1.427 . S
N440 C438 1.384 . S
H441 C447 0.930 . S
H442 C451 0.930 1_554 S
H443 C456 0.929 . S
H444 C454 0.929 . S
H445 C449 0.929 . S
H446 C455 0.929 . S
C447 H441 0.930 . S
C447 C448 1.367 . S
C447 C455 1.378 . S
C448 C447 1.367 . S
C448 C456 1.433 . S
C449 H445 0.929 . S
C449 C451 1.378 . S
C449 C453 1.350 . S
C450 C453 1.463 . S
C450 C455 1.350 . S
C450 N458 1.427 . S
C451 H442 0.930 1_556 S
C451 C449 1.378 . S
C451 C452 1.367 . S
C452 C451 1.367 . S
C452 C454 1.433 . S
C453 C449 1.350 . S
C453 C450 1.463 . S
C453 N457 1.427 . S
C454 H444 0.929 . S
C454 C452 1.433 . S
C454 N457 1.384 . S
C455 H446 0.929 . S
C455 C447 1.378 . S
C455 C450 1.350 . S
C456 H443 0.929 . S
C456 C448 1.433 . S
C456 N458 1.384 . S
N457 C453 1.427 . S
N457 C454 1.384 . S
N458 C450 1.427 . S
N458 C456 1.384 . S
H459 C465 0.930 . S
H460 C469 0.930 1_554 S
H461 C474 0.929 . S
H462 C472 0.929 . S
H463 C467 0.929 . S
H464 C473 0.929 . S
C465 H459 0.930 . S
C465 C466 1.367 . S
C465 C473 1.378 . S
C466 C465 1.367 . S
C466 C474 1.433 . S
C467 H463 0.929 . S
C467 C469 1.378 . S
C467 C471 1.350 . S
C468 C471 1.463 . S
C468 C473 1.350 . S
C468 N476 1.427 . S
C469 H460 0.930 1_556 S
C469 C467 1.378 . S
C469 C470 1.367 . S
C470 C469 1.367 . S
C470 C472 1.433 . S
C471 C467 1.350 . S
C471 C468 1.463 . S
C471 N475 1.427 . S
C472 H462 0.929 . S
C472 C470 1.433 . S
C472 N475 1.384 . S
C473 H464 0.929 . S
C473 C465 1.378 . S
C473 C468 1.350 . S
C474 H461 0.929 . S
C474 C466 1.433 . S
C474 N476 1.384 . S
N475 C471 1.427 . S
N475 C472 1.384 . S
N476 C468 1.427 . S
N476 C474 1.384 . S
H477 C483 0.930 . S
H478 C487 0.930 1_554 S
H479 C492 0.929 . S
H480 C490 0.929 . S
H481 C485 0.929 . S
H482 C491 0.929 . S
C483 H477 0.930 . S
C483 C484 1.367 . S
C483 C491 1.378 . S
C484 C483 1.367 . S
C484 C492 1.433 . S
C485 H481 0.929 . S
C485 C487 1.378 . S
C485 C489 1.350 . S
C486 C489 1.463 . S
C486 C491 1.350 . S
C486 N494 1.427 . S
C487 H478 0.930 1_556 S
C487 C485 1.378 . S
C487 C488 1.367 . S
C488 C487 1.367 . S
C488 C490 1.433 . S
C489 C485 1.350 . S
C489 C486 1.463 . S
C489 N493 1.427 . S
C490 H480 0.929 . S
C490 C488 1.433 . S
C490 N493 1.384 . S
C491 H482 0.929 . S
C491 C483 1.378 . S
C491 C486 1.350 . S
C492 H479 0.929 . S
C492 C484 1.433 . S
C492 N494 1.384 . S
N493 C489 1.427 . S
N493 C490 1.384 . S
N494 C486 1.427 . S
N494 C492 1.384 . S
H495 C501 0.930 . S
H496 C505 0.930 . S
H497 C510 0.929 1_554 S
H498 C508 0.929 . S
H499 C503 0.929 . S
H500 C509 0.929 . S
C501 H495 0.930 . S
C501 C502 1.367 . S
C501 C509 1.378 . S
C502 C501 1.367 . S
C502 C510 1.433 . S
C503 H499 0.929 . S
C503 C505 1.378 . S
C503 C507 1.350 . S
C504 C507 1.463 . S
C504 C509 1.350 . S
C504 N512 1.427 . S
C505 H496 0.930 . S
C505 C503 1.378 . S
C505 C506 1.367 . S
C506 C505 1.367 . S
C506 C508 1.433 . S
C507 C503 1.350 . S
C507 C504 1.463 . S
C507 N511 1.427 . S
C508 H498 0.929 . S
C508 C506 1.433 . S
C508 N511 1.384 . S
C509 H500 0.929 . S
C509 C501 1.378 . S
C509 C504 1.350 . S
C510 H497 0.929 1_556 S
C510 C502 1.433 . S
C510 N512 1.384 . S
N511 C507 1.427 . S
N511 C508 1.384 . S
N512 C504 1.427 . S
N512 C510 1.384 . S
H513 C519 0.930 . S
H514 C523 0.930 . S
H515 C528 0.929 . S
H516 C526 0.929 . S
H517 C521 0.929 1_554 S
H518 C527 0.929 . S
C519 H513 0.930 . S
C519 C520 1.367 . S
C519 C527 1.378 . S
C520 C519 1.367 . S
C520 C528 1.433 . S
C521 H517 0.929 1_556 S
C521 C523 1.378 1_556 S
C521 C525 1.350 . S
C522 C525 1.463 . S
C522 C527 1.350 . S
C522 N530 1.427 . S
C523 H514 0.930 . S
C523 C521 1.378 1_554 S
C523 C524 1.367 1_554 S
C524 C523 1.367 1_556 S
C524 C526 1.433 . S
C525 C521 1.350 . S
C525 C522 1.463 . S
C525 N529 1.427 . S
C526 H516 0.929 . S
C526 C524 1.433 . S
C526 N529 1.384 . S
C527 H518 0.929 . S
C527 C519 1.378 . S
C527 C522 1.350 . S
C528 H515 0.929 . S
C528 C520 1.433 . S
C528 N530 1.384 . S
N529 C525 1.427 . S
N529 C526 1.384 . S
N530 C522 1.427 . S
N530 C528 1.384 . S
H531 C537 0.930 . S
H532 C541 0.930 . S
H533 C546 0.929 . S
H534 C544 0.929 . S
H535 C539 0.929 . S
H536 C545 0.929 . S
C537 H531 0.930 . S
C537 C538 1.367 . S
C537 C545 1.378 . S
C538 C537 1.367 . S
C538 C546 1.433 . S
C539 H535 0.929 . S
C539 C541 1.378 . S
C539 C543 1.350 . S
C540 C543 1.463 . S
C540 C545 1.350 . S
C540 N548 1.427 . S
C541 H532 0.930 . S
C541 C539 1.378 . S
C541 C542 1.367 . S
C542 C541 1.367 . S
C542 C544 1.433 . S
C543 C539 1.350 . S
C543 C540 1.463 . S
C543 N547 1.427 . S
C544 H534 0.929 . S
C544 C542 1.433 . S
C544 N547 1.384 . S
C545 H536 0.929 . S
C545 C537 1.378 . S
C545 C540 1.350 . S
C546 H533 0.929 . S
C546 C538 1.433 . S
C546 N548 1.384 . S
N547 C543 1.427 . S
N547 C544 1.384 . S
N548 C540 1.427 . S
N548 C546 1.384 . S
H549 C555 0.930 . S
H550 C559 0.930 . S
H551 C564 0.929 . S
H552 C562 0.929 . S
H553 C557 0.929 . S
H554 C563 0.929 . S
C555 H549 0.930 . S
C555 C556 1.367 . S
C555 C563 1.378 . S
C556 C555 1.367 . S
C556 C564 1.433 . S
C557 H553 0.929 . S
C557 C559 1.378 . S
C557 C561 1.350 . S
C558 C561 1.463 . S
C558 C563 1.350 . S
C558 N566 1.427 . S
C559 H550 0.930 . S
C559 C557 1.378 . S
C559 C560 1.367 . S
C560 C559 1.367 . S
C560 C562 1.433 . S
C561 C557 1.350 . S
C561 C558 1.463 . S
C561 N565 1.427 . S
C562 H552 0.929 . S
C562 C560 1.433 . S
C562 N565 1.384 . S
C563 H554 0.929 . S
C563 C555 1.378 . S
C563 C558 1.350 . S
C564 H551 0.929 . S
C564 C556 1.433 . S
C564 N566 1.384 . S
N565 C561 1.427 . S
N565 C562 1.384 . S
N566 C558 1.427 . S
N566 C564 1.384 . S
H567 C573 0.930 . S
H568 C577 0.930 . S
H569 C582 0.929 1_556 S
H570 C580 0.929 . S
H571 C575 0.929 . S
H572 C581 0.929 . S
C573 H567 0.930 . S
C573 C574 1.367 . S
C573 C581 1.378 . S
C574 C573 1.367 . S
C574 C582 1.433 . S
C575 H571 0.929 . S
C575 C577 1.378 . S
C575 C579 1.350 . S
C576 C579 1.463 . S
C576 C581 1.350 . S
C576 N584 1.427 . S
C577 H568 0.930 . S
C577 C575 1.378 . S
C577 C578 1.367 . S
C578 C577 1.367 . S
C578 C580 1.433 . S
C579 C575 1.350 . S
C579 C576 1.463 . S
C579 N583 1.427 . S
C580 H570 0.929 . S
C580 C578 1.433 . S
C580 N583 1.384 . S
C581 H572 0.929 . S
C581 C573 1.378 . S
C581 C576 1.350 . S
C582 H569 0.929 1_554 S
C582 C574 1.433 . S
C582 N584 1.384 . S
N583 C579 1.427 . S
N583 C580 1.384 . S
N584 C576 1.427 . S
N584 C582 1.384 . S
H585 C591 0.930 . S
H586 C595 0.930 . S
H587 C600 0.929 . S
H588 C598 0.929 . S
H589 C593 0.929 . S
H590 C599 0.929 . S
C591 H585 0.930 . S
C591 C592 1.367 . S
C591 C599 1.378 . S
C592 C591 1.367 . S
C592 C600 1.433 . S
C593 H589 0.929 . S
C593 C595 1.378 . S
C593 C597 1.350 . S
C594 C597 1.463 . S
C594 C599 1.350 . S
C594 N602 1.427 . S
C595 H586 0.930 . S
C595 C593 1.378 . S
C595 C596 1.367 . S
C596 C595 1.367 . S
C596 C598 1.433 . S
C597 C593 1.350 . S
C597 C594 1.463 . S
C597 N601 1.427 . S
C598 H588 0.929 . S
C598 C596 1.433 . S
C598 N601 1.384 . S
C599 H590 0.929 . S
C599 C591 1.378 . S
C599 C594 1.350 . S
C600 H587 0.929 . S
C600 C592 1.433 . S
C600 N602 1.384 . S
N601 C597 1.427 . S
N601 C598 1.384 . S
N602 C594 1.427 . S
N602 C600 1.384 . S
H603 C609 0.930 . S
H604 C613 0.930 . S
H605 C618 0.929 . S
H606 C616 0.929 . S
H607 C611 0.929 . S
H608 C617 0.929 . S
C609 H603 0.930 . S
C609 C610 1.367 . S
C609 C617 1.378 . S
C610 C609 1.367 . S
C610 C618 1.433 . S
C611 H607 0.929 . S
C611 C613 1.378 1_545 S
C611 C615 1.350 . S
C612 C615 1.463 . S
C612 C617 1.350 . S
C612 N620 1.427 . S
C613 H604 0.930 . S
C613 C611 1.378 1_565 S
C613 C614 1.367 . S
C614 C613 1.367 . S
C614 C616 1.433 . S
C615 C611 1.350 . S
C615 C612 1.463 . S
C615 N619 1.427 1_545 S
C616 H606 0.929 . S
C616 C614 1.433 . S
C616 N619 1.384 . S
C617 H608 0.929 . S
C617 C609 1.378 . S
C617 C612 1.350 . S
C618 H605 0.929 . S
C618 C610 1.433 . S
C618 N620 1.384 . S
N619 C615 1.427 1_565 S
N619 C616 1.384 . S
N620 C612 1.427 . S
N620 C618 1.384 . S
H621 C627 0.930 . S
H622 C631 0.930 . S
H623 C636 0.929 . S
H624 C634 0.929 . S
H625 C629 0.929 . S
H626 C635 0.929 . S
C627 H621 0.930 . S
C627 C628 1.367 . S
C627 C635 1.378 . S
C628 C627 1.367 . S
C628 C636 1.433 . S
C629 H625 0.929 . S
C629 C631 1.378 . S
C629 C633 1.350 . S
C630 C633 1.463 1_655 S
C630 C635 1.350 . S
C630 N638 1.427 . S
C631 H622 0.930 . S
C631 C629 1.378 . S
C631 C632 1.367 . S
C632 C631 1.367 . S
C632 C634 1.433 . S
C633 C629 1.350 . S
C633 C630 1.463 1_455 S
C633 N637 1.427 . S
C634 H624 0.929 . S
C634 C632 1.433 . S
C634 N637 1.384 . S
C635 H626 0.929 . S
C635 C627 1.378 . S
C635 C630 1.350 . S
C636 H623 0.929 . S
C636 C628 1.433 . S
C636 N638 1.384 . S
N637 C633 1.427 . S
N637 C634 1.384 . S
N638 C630 1.427 . S
N638 C636 1.384 . S
H639 C645 0.930 . S
H640 C649 0.930 . S
H641 C654 0.929 . S
H642 C652 0.929 . S
H643 C647 0.929 . S
H644 C653 0.929 . S
C645 H639 0.930 . S
C645 C646 1.367 . S
C645 C653 1.378 . S
C646 C645 1.367 . S
C646 C654 1.433 . S
C647 H643 0.929 . S
C647 C649 1.378 . S
C647 C651 1.350 . S
C648 C651 1.463 . S
C648 C653 1.350 . S
C648 N656 1.427 . S
C649 H640 0.930 . S
C649 C647 1.378 . S
C649 C650 1.367 . S
C650 C649 1.367 . S
C650 C652 1.433 . S
C651 C647 1.350 . S
C651 C648 1.463 . S
C651 N655 1.427 . S
C652 H642 0.929 . S
C652 C650 1.433 . S
C652 N655 1.384 . S
C653 H644 0.929 . S
C653 C645 1.378 . S
C653 C648 1.350 . S
C654 H641 0.929 . S
C654 C646 1.433 . S
C654 N656 1.384 . S
N655 C651 1.427 . S
N655 C652 1.384 . S
N656 C648 1.427 . S
N656 C654 1.384 . S
H657 C663 0.930 . S
H658 C667 0.930 . S
H659 C672 0.929 . S
H660 C670 0.929 . S
H661 C665 0.929 . S
H662 C671 0.929 . S
C663 H657 0.930 . S
C663 C664 1.367 . S
C663 C671 1.378 1_565 S
C664 C663 1.367 . S
C664 C672 1.433 . S
C665 H661 0.929 . S
C665 C667 1.378 . S
C665 C669 1.350 . S
C666 C669 1.463 . S
C666 C671 1.350 . S
C666 N674 1.427 1_545 S
C667 H658 0.930 . S
C667 C665 1.378 . S
C667 C668 1.367 . S
C668 C667 1.367 . S
C668 C670 1.433 . S
C669 C665 1.350 . S
C669 C666 1.463 . S
C669 N673 1.427 . S
C670 H660 0.929 . S
C670 C668 1.433 . S
C670 N673 1.384 . S
C671 H662 0.929 . S
C671 C663 1.378 1_545 S
C671 C666 1.350 . S
C672 H659 0.929 . S
C672 C664 1.433 . S
C672 N674 1.384 . S
N673 C669 1.427 . S
N673 C670 1.384 . S
N674 C666 1.427 1_565 S
N674 C672 1.384 . S
H675 C681 0.930 . S
H676 C685 0.930 . S
H677 C690 0.929 . S
H678 C688 0.929 . S
H679 C683 0.929 . S
H680 C689 0.929 . S
C681 H675 0.930 . S
C681 C682 1.367 . S
C681 C689 1.378 . S
C682 C681 1.367 . S
C682 C690 1.433 . S
C683 H679 0.929 . S
C683 C685 1.378 . S
C683 C687 1.350 . S
C684 C687 1.463 1_655 S
C684 C689 1.350 . S
C684 N692 1.427 . S
C685 H676 0.930 . S
C685 C683 1.378 . S
C685 C686 1.367 . S
C686 C685 1.367 . S
C686 C688 1.433 . S
C687 C683 1.350 . S
C687 C684 1.463 1_455 S
C687 N691 1.427 . S
C688 H678 0.929 . S
C688 C686 1.433 . S
C688 N691 1.384 . S
C689 H680 0.929 . S
C689 C681 1.378 . S
C689 C684 1.350 . S
C690 H677 0.929 . S
C690 C682 1.433 . S
C690 N692 1.384 . S
N691 C687 1.427 . S
N691 C688 1.384 . S
N692 C684 1.427 . S
N692 C690 1.384 . S
C214 C19 1.030 . S
C218 C20 0.972 . S
C232 C42 1.027 . S
C236 C43 0.974 . S
C250 C65 1.027 . S
C254 C66 0.974 . S
C268 C87 1.086 . S
C272 C90 0.994 . S
C286 C110 1.086 . S
C290 C113 0.990 . S
C304 C133 1.085 . S
C308 C136 1.014 . S
C322 C159 0.962 . S
C326 C156 1.048 1_554 S
C340 C182 0.988 . S
C344 C179 1.047 1_554 S
C358 C205 0.968 . S
C362 C202 1.047 1_554 S
C376 C132 1.450 . S
C380 C16 1.438 . S
C394 C39 1.434 . S
C398 C86 1.452 . S
C412 C62 1.438 . S
C416 C109 1.450 . S
C430 C64 1.208 . S
C434 C157 1.191 . S
C448 C180 1.189 . S
C452 C18 1.202 . S
C466 C203 1.190 . S
C470 C41 1.202 . S
C484 C200 1.015 . S
C488 C17 1.019 . S
C502 C40 1.015 . S
C506 C154 1.000 . S
C520 C177 1.010 . S
C524 C63 1.021 . S
C538 C67 1.190 . S
C542 C89 1.193 . S
C556 C112 1.193 . S
C560 C21 1.191 . S
C574 C44 1.186 . S
C578 C135 1.188 . S
C592 C201 1.308 . S
C596 C88 1.281 . S
C610 C155 1.308 . S
C614 C111 1.280 . S
C628 C178 1.300 . S
C632 C134 1.269 . S
C646 C158 1.059 . S
C650 C131 1.104 . S
C664 C85 1.109 . S
C668 C181 1.055 . S
C682 C204 1.034 . S
C686 C108 1.103 . S
