# Generated by pormake.
# Topology bsn, (6)-cn, num edge types: 1
# Building blocks:
#     Node 0, Type 0, BuildingBlock: MIDCAF_clean_sbu_0, # of connection points: 6
#     Node 1, Type 0, BuildingBlock: MIDCAF_clean_sbu_0, # of connection points: 6
#     Node 2, Type 0, BuildingBlock: MIDCAF_clean_sbu_0, # of connection points: 6
#     Node 3, Type 0, BuildingBlock: MIDCAF_clean_sbu_0, # of connection points: 6
#     Edge 4, Type (0, 0), BuildingBlock: CIFDUS_clean_linker_0, # of connection points: 2
#     Edge 5, Type (0, 0), BuildingBlock: CIFDUS_clean_linker_0, # of connection points: 2
#     Edge 6, Type (0, 0), BuildingBlock: CIFDUS_clean_linker_0, # of connection points: 2
#     Edge 7, Type (0, 0), BuildingBlock: CIFDUS_clean_linker_0, # of connection points: 2
#     Edge 8, Type (0, 0), BuildingBlock: CIFDUS_clean_linker_0, # of connection points: 2
#     Edge 9, Type (0, 0), BuildingBlock: CIFDUS_clean_linker_0, # of connection points: 2
#     Edge 10, Type (0, 0), BuildingBlock: CIFDUS_clean_linker_0, # of connection points: 2
#     Edge 11, Type (0, 0), BuildingBlock: CIFDUS_clean_linker_0, # of connection points: 2
#     Edge 12, Type (0, 0), BuildingBlock: CIFDUS_clean_linker_0, # of connection points: 2
#     Edge 13, Type (0, 0), BuildingBlock: CIFDUS_clean_linker_0, # of connection points: 2
#     Edge 14, Type (0, 0), BuildingBlock: CIFDUS_clean_linker_0, # of connection points: 2
#     Edge 15, Type (0, 0), BuildingBlock: CIFDUS_clean_linker_0, # of connection points: 2
# Relax obj value: 0.106
# Max RMSD: 0.165
# Mean RMSD: 0.164
data_MOF--net-bsn--node1-MIDCAF_clean_sbu_0--edge1-CIFDUS_clean_linker_0
_symmetry_space_group_name_H-M    P1
_symmetry_Int_Tables_number       1
_symmetry_cell_setting            triclinic
loop_
_symmetry_equiv_pos_as_xyz
'x, y, z'
_cell_length_a     26.240842
_cell_length_b     26.144262
_cell_length_c     13.633634
_cell_angle_alpha  90.415491
_cell_angle_beta   98.561425
_cell_angle_gamma 89.552361
loop_
_atom_site_label
_atom_site_type_symbol
_atom_site_fract_x
_atom_site_fract_y
_atom_site_fract_z
_atom_type_partial_charge
Zn0 Zn 0.95571 0.21536 0.33466 0.0
Zn1 Zn 0.08956 0.32733 0.46152 0.0
Zn2 Zn 0.02388 0.27744 0.39009 0.0
C3 C 0.0241 0.39353 0.35515 0.0
C4 C 0.13668 0.26303 0.35109 0.0
O5 O 0.03028 0.21631 0.50434 0.0
O6 O 0.98325 0.15694 0.41857 0.0
C7 C 0.90452 0.3052 0.34988 0.0
O8 O 0.99396 0.35734 0.37356 0.0
O9 O 0.07215 0.38611 0.37149 0.0
O10 O 0.14696 0.28319 0.43588 0.0
O11 O 0.08949 0.26262 0.30798 0.0
O12 O 0.89703 0.25868 0.36744 0.0
O13 O 0.95069 0.32048 0.34591 0.0
O14 O 0.044 0.24865 0.24749 0.0
O15 O 0.96874 0.21385 0.19256 0.0
C16 C 0.01247 0.22859 0.17612 0.0
O17 O 0.04271 0.26086 0.55533 0.0
O18 O 0.07966 0.334 0.60205 0.0
C19 C 0.01547 0.16944 0.49271 0.0
C20 C 0.06109 0.29223 0.62543 0.0
Zn21 Zn 0.96173 0.82234 0.54839 0.0
Zn22 Zn 0.10007 0.71294 0.672 0.0
Zn23 Zn 0.03295 0.77772 0.61276 0.0
C24 C 0.14848 0.80494 0.63291 0.0
C25 C 0.03547 0.66849 0.51389 0.0
O26 O 0.9714 0.76089 0.7015 0.0
O27 O 0.9112 0.76931 0.57228 0.0
C28 C 0.02528 0.89173 0.65047 0.0
O29 O 0.10354 0.82369 0.63791 0.0
O30 O 0.15508 0.75698 0.63057 0.0
O31 O 0.06712 0.65583 0.58882 0.0
O32 O 0.02311 0.71593 0.49919 0.0
O33 O 0.97853 0.87939 0.64592 0.0
O34 O 0.05706 0.85877 0.62276 0.0
O35 O 0.01277 0.76031 0.44931 0.0
O36 O 0.97333 0.83328 0.40964 0.0
C37 C 0.99425 0.79305 0.38248 0.0
O38 O 0.01849 0.75196 0.76156 0.0
O39 O 0.09216 0.71291 0.81562 0.0
C40 C 0.92486 0.75291 0.659 0.0
C41 C 0.04967 0.73122 0.83272 0.0
Zn42 Zn 0.47155 0.69334 0.76572 0.0
Zn43 Zn 0.60874 0.79561 0.93842 0.0
Zn44 Zn 0.5424 0.75192 0.84867 0.0
C45 C 0.56609 0.75639 0.07864 0.0
C46 C 0.55261 0.86608 0.82367 0.0
O47 O 0.57084 0.72827 0.7175 0.0
O48 O 0.49911 0.69498 0.63782 0.0
C49 C 0.51644 0.64159 0.93089 0.0
O50 O 0.55323 0.72804 0.00174 0.0
O51 O 0.58538 0.79984 0.06943 0.0
O52 O 0.59967 0.8547 0.84656 0.0
O53 O 0.5185 0.83277 0.83713 0.0
O54 O 0.4863 0.63262 0.85176 0.0
O55 O 0.5366 0.68613 0.94743 0.0
O56 O 0.47343 0.80235 0.81236 0.0
O57 O 0.41461 0.74182 0.78122 0.0
C58 C 0.42595 0.78854 0.79353 0.0
O59 O 0.61481 0.73811 0.78457 0.0
O60 O 0.66518 0.74664 0.92729 0.0
C61 C 0.5446 0.71047 0.63793 0.0
C62 C 0.65924 0.73178 0.83824 0.0
Zn63 Zn 0.59008 0.1928 0.14383 0.0
Zn64 Zn 0.4346 0.28434 0.9771 0.0
Zn65 Zn 0.51223 0.24933 0.08493 0.0
C66 C 0.47847 0.23935 0.84031 0.0
C67 C 0.49854 0.36428 0.07765 0.0
O68 O 0.48988 0.21578 0.21646 0.0
O69 O 0.56672 0.1851 0.27723 0.0
C70 C 0.54413 0.14106 -0.01345 0.0
O71 O 0.50404 0.22658 0.92503 0.0
O72 O 0.44143 0.27058 0.8366 0.0
O73 O 0.4536 0.35312 0.03613 0.0
O74 O 0.53336 0.32936 0.09359 0.0
O75 O 0.58129 0.13259 0.05439 0.0
O76 O 0.519 0.18361 -0.01535 0.0
O77 O 0.57969 0.3001 0.13543 0.0
O78 O 0.64331 0.24487 0.13003 0.0
C79 C 0.62831 0.29021 0.14175 0.0
O80 O 0.44384 0.24192 0.16159 0.0
O81 O 0.3812 0.24745 0.03426 0.0
C82 C 0.5204 0.1946 0.28728 0.0
C83 C 0.39559 0.23946 0.12531 0.0
H84 H 0.95391 0.45084 0.43703 0.0
H85 H 0.05876 0.45522 0.22243 0.0
H86 H 0.06348 0.54809 0.23662 0.0
H87 H 0.05699 0.62312 0.34468 0.0
H88 H 0.95363 0.61913 0.56162 0.0
H89 H 0.92858 0.5318 0.51173 0.0
C90 C 0.97552 0.47244 0.38966 0.0
C91 C 1.00667 0.44632 0.33024 0.0
C92 C 0.97956 0.526 0.40096 0.0
C93 C 0.03481 0.47466 0.26948 0.0
C94 C 0.03808 0.52778 0.27847 0.0
C95 C 0.027 0.60401 0.37705 0.0
C96 C 1.00708 0.62719 0.45637 0.0
C97 C 0.01356 0.55336 0.34918 0.0
C98 C 0.96909 0.60183 0.49971 0.0
C99 C 0.95516 0.55171 0.4719 0.0
H100 H 0.75769 0.73003 0.9314 0.0
H101 H 0.6652 0.6927 0.65208 0.0
H102 H 0.74271 0.68866 0.57227 0.0
H103 H 0.83425 0.71076 0.57831 0.0
H104 H 0.92536 0.74797 0.85877 0.0
H105 H 0.85111 0.73498 0.9434 0.0
C106 C 0.75429 0.72013 0.8533 0.0
C107 C 0.70535 0.71516 0.79572 0.0
C108 C 0.7989 0.71776 0.80872 0.0
C109 C 0.70207 0.70018 0.69604 0.0
C110 C 0.74648 0.69723 0.65091 0.0
C111 C 0.83808 0.71499 0.65829 0.0
C112 C 0.88497 0.73174 0.71239 0.0
C113 C 0.79473 0.70865 0.70567 0.0
C114 C 0.88979 0.73568 0.81584 0.0
C115 C 0.8471 0.7286 0.86397 0.0
H116 H 0.58177 0.42137 0.04844 0.0
H117 H 0.43621 0.42859 0.15879 0.0
H118 H 0.43401 0.52126 0.14278 0.0
H119 H 0.46209 0.59559 0.05703 0.0
H120 H 0.60647 0.59005 0.94361 0.0
H121 H 0.62112 0.50192 0.00174 0.0
C122 C 0.55085 0.44361 0.07284 0.0
C123 C 0.50861 0.41848 0.10232 0.0
C124 C 0.54903 0.49708 0.06057 0.0
C125 C 0.46868 0.4474 0.13414 0.0
C126 C 0.46719 0.50034 0.12443 0.0
C127 C 0.49775 0.57569 0.04934 0.0
C128 C 0.53308 0.59854 -0.00371 0.0
C129 C 0.50536 0.52505 0.08152 0.0
C130 C 0.57901 0.57278 -0.01482 0.0
C131 C 0.5871 0.52231 0.01748 0.0
H132 H 0.81994 0.33045 0.43382 0.0
H133 H 0.88571 0.34182 0.16383 0.0
H134 H 0.79971 0.35099 0.0682 0.0
H135 H 0.70704 0.33098 0.06013 0.0
H136 H 0.64109 0.3239 0.33041 0.0
H137 H 0.72548 0.3397 0.42765 0.0
C138 C 0.81547 0.33788 0.35481 0.0
C139 C 0.85893 0.33503 0.30571 0.0
C140 C 0.76571 0.34296 0.3002 0.0
C141 C 0.85281 0.34428 0.20327 0.0
C142 C 0.8035 0.34874 0.14831 0.0
C143 C 0.71069 0.33608 0.13991 0.0
C144 C 0.66808 0.32598 0.1882 0.0
C145 C 0.75965 0.34469 0.19544 0.0
C146 C 0.67325 0.33205 0.29162 0.0
C147 C 0.7218 0.34017 0.34742 0.0
H148 H 0.30007 0.20001 0.07634 0.0
H149 H 0.39982 0.27487 0.31366 0.0
H150 H 0.32875 0.28205 0.40972 0.0
H151 H 0.23744 0.2765 0.41739 0.0
H152 H 0.13423 0.20954 0.17508 0.0
H153 H 0.20762 0.1903 0.08843 0.0
C154 C 0.30631 0.21699 0.14996 0.0
C155 C 0.35539 0.23561 0.18936 0.0
C156 C 0.26457 0.2234 0.20238 0.0
C157 C 0.36287 0.25865 0.28351 0.0
C158 C 0.32209 0.2634 0.33772 0.0
C159 C 0.23069 0.25716 0.34601 0.0
C160 C 0.18016 0.24542 0.30166 0.0
C161 C 0.27263 0.24721 0.2966 0.0
C162 C 0.17253 0.22004 0.20965 0.0
C163 C 0.21452 0.20885 0.16048 0.0
H164 H 0.37617 0.82494 0.6221 0.0
H165 H 0.3764 0.82825 0.93759 0.0
H166 H 0.28464 0.85053 0.91244 0.0
H167 H 0.20197 0.84306 0.80055 0.0
H168 H 0.2017 0.83039 0.4857 0.0
H169 H 0.2953 0.83971 0.50927 0.0
C170 C 0.35663 0.83352 0.68513 0.0
C171 C 0.38276 0.82529 0.78147 0.0
C172 C 0.30332 0.84362 0.66959 0.0
C173 C 0.3571 0.83515 0.86288 0.0
C174 C 0.30439 0.84706 0.84829 0.0
C175 C 0.22227 0.8455 0.73697 0.0
C176 C 0.1952 0.83637 0.6415 0.0
C177 C 0.27649 0.8478 0.75197 0.0
C178 C 0.22178 0.8381 0.55962 0.0
C179 C 0.27545 0.84253 0.57338 0.0
H180 H 0.47213 0.92354 0.86986 0.0
H181 H 0.6065 0.92932 0.72282 0.0
H182 H 0.61004 0.02185 0.74286 0.0
H183 H 0.58939 0.09569 0.84289 0.0
H184 H 0.45529 0.09123 -0.01027 0.0
H185 H 0.43658 1.00415 0.92842 0.0
C186 C 0.50062 0.9454 0.83826 0.0
C187 C 0.54003 0.9198 0.79815 0.0
C188 C 0.50333 0.99872 0.85252 0.0
C189 C 0.57649 0.94839 0.75629 0.0
C190 C 0.57884 1.00127 0.76838 0.0
C191 C 0.55499 0.07621 0.85768 0.0
C192 C 0.52418 0.09877 0.92148 0.0
C193 C 0.54482 0.02617 0.82287 0.0
C194 C 0.47947 0.07395 0.94052 0.0
C195 C 0.46903 0.02409 0.90621 0.0
H196 H 0.09585 0.95056 0.57423 0.0
H197 H 0.98117 0.95576 0.77013 0.0
H198 H 0.97531 0.04843 0.75547 0.0
H199 H 0.98652 0.12377 0.65354 0.0
H200 H 0.10059 0.11956 0.4573 0.0
H201 H 0.12361 0.03158 0.50626 0.0
C202 C 0.07134 0.97224 0.61704 0.0
C203 C 0.03804 0.94624 0.67105 0.0
C204 C 0.06719 0.02585 0.60644 0.0
C205 C 1.00653 0.97488 0.72645 0.0
C206 C 1.00282 0.02794 0.71762 0.0
C207 C 0.01817 0.10436 0.62561 0.0
C208 C 0.04197 0.12781 0.5524 0.0
C209 C 0.03048 0.05339 0.65281 0.0
C210 C 0.08223 0.10216 0.51482 0.0
C211 C 0.09495 0.05162 0.54187 0.0
H212 H 0.07875 0.2886 0.09276 0.0
H213 H 0.97019 0.16581 0.02536 0.0
H214 H 0.97794 0.17156 0.84931 0.0
H215 H 0.00959 0.21713 0.71172 0.0
H216 H 0.11627 0.3416 0.78162 0.0
H217 H 0.11527 0.32934 0.95775 0.0
C218 C 0.05763 0.26238 0.03989 0.0
C219 C 0.02401 0.22685 0.07254 0.0
C220 C 0.06131 0.26666 0.93823 0.0
C221 C 0.99634 0.19366 0.00242 0.0
C222 C 1.00057 0.19702 0.90146 0.0
C223 C 0.03304 0.2411 0.76552 0.0
C224 C 0.06246 0.28056 0.73266 0.0
C225 C 0.03195 0.2343 0.86796 0.0
C226 C 0.09262 0.3113 0.80401 0.0
C227 C 0.09225 0.30431 0.90528 0.0
H228 H 0.99783 0.80388 0.92105 0.0
H229 H 0.07901 0.66075 0.97731 0.0
H230 H 0.0679 0.66565 0.15243 0.0
H231 H 0.03839 0.71328 0.29162 0.0
H232 H 0.95598 0.8559 0.231 0.0
H233 H 0.96363 0.84808 0.05628 0.0
C234 C 0.01205 0.77321 0.97123 0.0
C235 C 0.03833 0.73162 0.93596 0.0
C236 C 1.00558 0.77633 0.07156 0.0
C237 C 0.05812 0.69298 0.00257 0.0
C238 C 0.05187 0.6958 0.10273 0.0
C239 C 0.02169 0.7423 0.24005 0.0
C240 C 0.99689 0.78516 0.2752 0.0
C241 C 0.02615 0.73767 0.13848 0.0
C242 C 0.97555 0.82252 0.20683 0.0
C243 C 0.97987 0.8182 0.10643 0.0
H244 H 0.61787 0.78866 0.25259 0.0
H245 H 0.50163 0.68207 0.12389 0.0
H246 H 0.49222 0.65099 0.28813 0.0
H247 H 0.51077 0.66057 0.46788 0.0
H248 H 0.61934 0.77478 0.59594 0.0
H249 H 0.63916 0.7956 0.43225 0.0
C250 C 0.59054 0.7586 0.26067 0.0
C251 C 0.56064 0.73739 0.17688 0.0
C252 C 0.58433 0.7421 0.35504 0.0
C253 C 0.52572 0.69818 0.18761 0.0
C254 C 0.52007 0.68069 0.2814 0.0
C255 C 0.53939 0.68939 0.45991 0.0
C256 C 0.56388 0.71574 0.54338 0.0
C257 C 0.5485 0.70311 0.36554 0.0
C258 C 0.60069 0.75324 0.53264 0.0
C259 C 0.61156 0.76568 0.43908 0.0
H260 H 0.58184 0.19251 0.46519 0.0
H261 H 0.42362 0.17745 0.33054 0.0
H262 H 0.3952 0.18911 0.49288 0.0
H263 H 0.41629 0.21407 0.6698 0.0
H264 H 0.57548 0.21897 0.80563 0.0
H265 H 0.60312 0.19913 0.64608 0.0
C266 C 0.54116 0.19072 0.47148 0.0
C267 C 0.50427 0.18786 0.38557 0.0
C268 C 0.52562 0.19568 0.56508 0.0
C269 C 0.45206 0.18373 0.39527 0.0
C270 C 0.43605 0.18954 0.48803 0.0
C271 C 0.45695 0.21007 0.66434 0.0
C272 C 0.49394 0.21914 0.74813 0.0
C273 C 0.4725 0.19778 0.57284 0.0
C274 C 0.54645 0.21262 0.74147 0.0
C275 C 0.56225 0.20144 0.65038 0.0
loop_
_geom_bond_atom_site_label_1
_geom_bond_atom_site_label_2
_geom_bond_distance
_geom_bond_site_symmetry_2
_ccdc_geom_bond_type
Zn0 O6 1.920 . S
Zn0 O12 1.898 . S
Zn0 O15 1.901 1_655 S
Zn1 O9 1.905 . S
Zn1 O10 1.898 . S
Zn1 O18 1.920 . S
Zn2 O5 2.080 . S
Zn2 O8 2.114 . S
Zn2 O11 2.120 . S
Zn2 O13 2.120 1_455 S
Zn2 O14 2.114 . S
Zn2 O17 2.080 . S
C3 O8 1.166 . S
C3 O9 1.182 . S
C4 O10 1.167 . S
C4 O11 1.299 . S
O5 Zn2 2.080 . S
O5 C19 1.305 . S
O6 Zn0 1.920 . S
O6 C19 1.234 1_655 S
C7 O12 1.167 . S
C7 O13 1.299 . S
O8 Zn2 2.114 . S
O8 C3 1.166 . S
O9 Zn1 1.905 . S
O9 C3 1.182 . S
O10 Zn1 1.898 . S
O10 C4 1.167 . S
O11 Zn2 2.120 . S
O11 C4 1.299 . S
O12 Zn0 1.898 . S
O12 C7 1.167 . S
O13 Zn2 2.120 1_655 S
O13 C7 1.299 . S
O14 Zn2 2.114 . S
O14 C16 1.166 . S
O15 Zn0 1.901 1_455 S
O15 C16 1.186 . S
C16 O14 1.166 . S
C16 O15 1.186 . S
O17 Zn2 2.080 . S
O17 C20 1.305 . S
O18 Zn1 1.920 . S
O18 C20 1.234 . S
C19 O5 1.305 . S
C19 O6 1.234 1_455 S
C20 O17 1.305 . S
C20 O18 1.234 . S
Zn21 O27 1.920 . S
Zn21 O33 1.898 . S
Zn21 O36 1.905 . S
Zn22 O30 1.905 . S
Zn22 O31 1.898 . S
Zn22 O39 1.920 . S
Zn23 O26 2.080 1_455 S
Zn23 O29 2.114 . S
Zn23 O32 2.120 . S
Zn23 O34 2.120 . S
Zn23 O35 2.114 . S
Zn23 O38 2.080 . S
C24 O29 1.166 . S
C24 O30 1.182 . S
C25 O31 1.167 . S
C25 O32 1.299 . S
O26 Zn23 2.080 1_655 S
O26 C40 1.305 . S
O27 Zn21 1.920 . S
O27 C40 1.234 . S
C28 O33 1.167 1_455 S
C28 O34 1.299 . S
O29 Zn23 2.114 . S
O29 C24 1.166 . S
O30 Zn22 1.905 . S
O30 C24 1.182 . S
O31 Zn22 1.898 . S
O31 C25 1.167 . S
O32 Zn23 2.120 . S
O32 C25 1.299 . S
O33 Zn21 1.898 . S
O33 C28 1.167 1_655 S
O34 Zn23 2.120 . S
O34 C28 1.299 . S
O35 Zn23 2.114 . S
O35 C37 1.166 1_455 S
O36 Zn21 1.905 . S
O36 C37 1.182 . S
C37 O35 1.166 1_655 S
C37 O36 1.182 . S
O38 Zn23 2.080 . S
O38 C41 1.305 . S
O39 Zn22 1.920 . S
O39 C41 1.234 . S
C40 O26 1.305 . S
C40 O27 1.234 . S
C41 O38 1.305 . S
C41 O39 1.234 . S
Zn42 O48 1.920 . S
Zn42 O54 1.898 . S
Zn42 O57 1.905 . S
Zn43 O51 1.905 . S
Zn43 O52 1.898 1_554 S
Zn43 O60 1.920 1_554 S
Zn44 O47 2.080 . S
Zn44 O50 2.114 1_556 S
Zn44 O53 2.120 . S
Zn44 O55 2.120 . S
Zn44 O56 2.114 . S
Zn44 O59 2.080 . S
C45 O50 1.166 . S
C45 O51 1.182 . S
C46 O52 1.167 . S
C46 O53 1.299 . S
O47 Zn44 2.080 . S
O47 C61 1.305 . S
O48 Zn42 1.920 . S
O48 C61 1.234 . S
C49 O54 1.167 . S
C49 O55 1.299 . S
O50 Zn44 2.114 1_554 S
O50 C45 1.166 . S
O51 Zn43 1.905 . S
O51 C45 1.182 . S
O52 Zn43 1.898 1_556 S
O52 C46 1.167 . S
O53 Zn44 2.120 . S
O53 C46 1.299 . S
O54 Zn42 1.898 . S
O54 C49 1.167 . S
O55 Zn44 2.120 . S
O55 C49 1.299 . S
O56 Zn44 2.114 . S
O56 C58 1.166 . S
O57 Zn42 1.905 . S
O57 C58 1.182 . S
C58 O56 1.166 . S
C58 O57 1.182 . S
O59 Zn44 2.080 . S
O59 C62 1.305 . S
O60 Zn43 1.920 1_556 S
O60 C62 1.234 . S
C61 O47 1.305 . S
C61 O48 1.234 . S
C62 O59 1.305 . S
C62 O60 1.234 . S
Zn63 O69 1.920 . S
Zn63 O75 1.898 . S
Zn63 O78 1.905 . S
Zn64 O72 1.905 . S
Zn64 O73 1.898 1_556 S
Zn64 O81 1.920 1_556 S
Zn65 O68 2.080 . S
Zn65 O71 2.114 1_554 S
Zn65 O74 2.120 . S
Zn65 O76 2.120 . S
Zn65 O77 2.114 . S
Zn65 O80 2.080 . S
C66 O71 1.166 . S
C66 O72 1.182 . S
C67 O73 1.167 . S
C67 O74 1.299 . S
O68 Zn65 2.080 . S
O68 C82 1.305 . S
O69 Zn63 1.920 . S
O69 C82 1.234 . S
C70 O75 1.167 . S
C70 O76 1.299 . S
O71 Zn65 2.114 1_556 S
O71 C66 1.166 . S
O72 Zn64 1.905 . S
O72 C66 1.182 . S
O73 Zn64 1.898 1_554 S
O73 C67 1.167 . S
O74 Zn65 2.120 . S
O74 C67 1.299 . S
O75 Zn63 1.898 . S
O75 C70 1.167 . S
O76 Zn65 2.120 . S
O76 C70 1.299 . S
O77 Zn65 2.114 . S
O77 C79 1.166 . S
O78 Zn63 1.905 . S
O78 C79 1.182 . S
C79 O77 1.166 . S
C79 O78 1.182 . S
O80 Zn65 2.080 . S
O80 C83 1.305 . S
O81 Zn64 1.920 1_554 S
O81 C83 1.234 . S
C82 O68 1.305 . S
C82 O69 1.234 . S
C83 O80 1.305 . S
C83 O81 1.234 . S
H84 C90 0.930 . S
H85 C93 0.930 . S
H86 C94 0.930 . S
H87 C95 0.930 . S
H88 C98 0.930 . S
H89 C99 0.930 . S
C90 H84 0.930 . S
C90 C91 1.355 1_655 S
C90 C92 1.415 . S
C91 C90 1.355 1_455 S
C91 C93 1.419 . S
C92 C90 1.415 . S
C92 C97 1.425 1_655 S
C92 C99 1.409 . S
C93 H85 0.930 . S
C93 C91 1.419 . S
C93 C94 1.362 . S
C94 H86 0.930 . S
C94 C93 1.362 . S
C94 C97 1.409 . S
C95 H87 0.930 . S
C95 C96 1.355 . S
C95 C97 1.415 . S
C96 C95 1.355 . S
C96 C98 1.419 1_455 S
C97 C92 1.425 1_455 S
C97 C94 1.409 . S
C97 C95 1.415 . S
C98 H88 0.930 . S
C98 C96 1.419 1_655 S
C98 C99 1.362 . S
C99 H89 0.930 . S
C99 C92 1.409 . S
C99 C98 1.362 . S
H100 C106 0.930 . S
H101 C109 0.930 . S
H102 C110 0.930 . S
H103 C111 0.930 . S
H104 C114 0.930 . S
H105 C115 0.930 . S
C106 H100 0.930 . S
C106 C107 1.355 . S
C106 C108 1.415 . S
C107 C106 1.355 . S
C107 C109 1.419 . S
C108 C106 1.415 . S
C108 C113 1.425 . S
C108 C115 1.409 . S
C109 H101 0.930 . S
C109 C107 1.419 . S
C109 C110 1.362 . S
C110 H102 0.930 . S
C110 C109 1.362 . S
C110 C113 1.409 . S
C111 H103 0.930 . S
C111 C112 1.355 . S
C111 C113 1.415 . S
C112 C111 1.355 . S
C112 C114 1.419 . S
C113 C108 1.425 . S
C113 C110 1.409 . S
C113 C111 1.415 . S
C114 H104 0.930 . S
C114 C112 1.419 . S
C114 C115 1.362 . S
C115 H105 0.930 . S
C115 C108 1.409 . S
C115 C114 1.362 . S
H116 C122 0.930 . S
H117 C125 0.930 . S
H118 C126 0.930 . S
H119 C127 0.930 . S
H120 C130 0.930 . S
H121 C131 0.930 . S
C122 H116 0.930 . S
C122 C123 1.355 . S
C122 C124 1.415 1_554 S
C123 C122 1.355 . S
C123 C125 1.419 . S
C124 C122 1.415 1_556 S
C124 C129 1.425 1_556 S
C124 C131 1.409 . S
C125 H117 0.930 . S
C125 C123 1.419 . S
C125 C126 1.362 . S
C126 H118 0.930 . S
C126 C125 1.362 . S
C126 C129 1.409 . S
C127 H119 0.930 . S
C127 C128 1.355 . S
C127 C129 1.415 1_556 S
C128 C127 1.355 . S
C128 C130 1.419 . S
C129 C124 1.425 1_554 S
C129 C126 1.409 . S
C129 C127 1.415 1_554 S
C130 H120 0.930 . S
C130 C128 1.419 . S
C130 C131 1.362 . S
C131 H121 0.930 . S
C131 C124 1.409 . S
C131 C130 1.362 . S
H132 C138 0.930 . S
H133 C141 0.930 . S
H134 C142 0.930 . S
H135 C143 0.930 . S
H136 C146 0.930 . S
H137 C147 0.930 . S
C138 H132 0.930 . S
C138 C139 1.355 . S
C138 C140 1.415 . S
C139 C138 1.355 . S
C139 C141 1.419 . S
C140 C138 1.415 . S
C140 C145 1.425 . S
C140 C147 1.409 . S
C141 H133 0.930 . S
C141 C139 1.419 . S
C141 C142 1.362 . S
C142 H134 0.930 . S
C142 C141 1.362 . S
C142 C145 1.409 . S
C143 H135 0.930 . S
C143 C144 1.355 . S
C143 C145 1.415 . S
C144 C143 1.355 . S
C144 C146 1.419 . S
C145 C140 1.425 . S
C145 C142 1.409 . S
C145 C143 1.415 . S
C146 H136 0.930 . S
C146 C144 1.419 . S
C146 C147 1.362 . S
C147 H137 0.930 . S
C147 C140 1.409 . S
C147 C146 1.362 . S
H148 C154 0.930 . S
H149 C157 0.930 . S
H150 C158 0.930 . S
H151 C159 0.930 . S
H152 C162 0.930 . S
H153 C163 0.930 . S
C154 H148 0.930 . S
C154 C155 1.355 . S
C154 C156 1.415 . S
C155 C154 1.355 . S
C155 C157 1.419 . S
C156 C154 1.415 . S
C156 C161 1.425 . S
C156 C163 1.409 . S
C157 H149 0.930 . S
C157 C155 1.419 . S
C157 C158 1.362 . S
C158 H150 0.930 . S
C158 C157 1.362 . S
C158 C161 1.409 . S
C159 H151 0.930 . S
C159 C160 1.355 . S
C159 C161 1.415 . S
C160 C159 1.355 . S
C160 C162 1.419 . S
C161 C156 1.425 . S
C161 C158 1.409 . S
C161 C159 1.415 . S
C162 H152 0.930 . S
C162 C160 1.419 . S
C162 C163 1.362 . S
C163 H153 0.930 . S
C163 C156 1.409 . S
C163 C162 1.362 . S
H164 C170 0.930 . S
H165 C173 0.930 . S
H166 C174 0.930 . S
H167 C175 0.930 . S
H168 C178 0.930 . S
H169 C179 0.930 . S
C170 H164 0.930 . S
C170 C171 1.355 . S
C170 C172 1.415 . S
C171 C170 1.355 . S
C171 C173 1.419 . S
C172 C170 1.415 . S
C172 C177 1.425 . S
C172 C179 1.409 . S
C173 H165 0.930 . S
C173 C171 1.419 . S
C173 C174 1.362 . S
C174 H166 0.930 . S
C174 C173 1.362 . S
C174 C177 1.409 . S
C175 H167 0.930 . S
C175 C176 1.355 . S
C175 C177 1.415 . S
C176 C175 1.355 . S
C176 C178 1.419 . S
C177 C172 1.425 . S
C177 C174 1.409 . S
C177 C175 1.415 . S
C178 H168 0.930 . S
C178 C176 1.419 . S
C178 C179 1.362 . S
C179 H169 0.930 . S
C179 C172 1.409 . S
C179 C178 1.362 . S
H180 C186 0.930 . S
H181 C189 0.930 . S
H182 C190 0.930 1_545 S
H183 C191 0.930 . S
H184 C194 0.930 . S
H185 C195 0.930 1_565 S
C186 H180 0.930 . S
C186 C187 1.355 1_554 S
C186 C188 1.415 . S
C187 C186 1.355 1_556 S
C187 C189 1.419 . S
C188 C186 1.415 . S
C188 C193 1.425 1_564 S
C188 C195 1.409 1_565 S
C189 H181 0.930 . S
C189 C187 1.419 . S
C189 C190 1.362 . S
C190 H182 0.930 1_565 S
C190 C189 1.362 . S
C190 C193 1.409 1_565 S
C191 H183 0.930 . S
C191 C192 1.355 1_556 S
C191 C193 1.415 . S
C192 C191 1.355 1_554 S
C192 C194 1.419 . S
C193 C188 1.425 1_546 S
C193 C190 1.409 1_545 S
C193 C191 1.415 . S
C194 H184 0.930 . S
C194 C192 1.419 . S
C194 C195 1.362 . S
C195 H185 0.930 1_545 S
C195 C188 1.409 1_545 S
C195 C194 1.362 . S
H196 C202 0.930 . S
H197 C205 0.930 . S
H198 C206 0.930 . S
H199 C207 0.930 . S
H200 C210 0.930 . S
H201 C211 0.930 . S
C202 H196 0.930 . S
C202 C203 1.355 . S
C202 C204 1.415 . S
C203 C202 1.355 . S
C203 C205 1.419 1_455 S
C204 C202 1.415 . S
C204 C209 1.433 1_565 S
C204 C211 1.409 1_565 S
C205 H197 0.930 . S
C205 C203 1.419 1_655 S
C205 C206 1.362 . S
C206 H198 0.930 . S
C206 C205 1.362 . S
C206 C209 1.403 1_665 S
C207 H199 0.930 . S
C207 C208 1.355 1_655 S
C207 C209 1.413 1_655 S
C208 C207 1.355 1_455 S
C208 C210 1.419 . S
C209 C204 1.433 1_545 S
C209 C206 1.403 1_445 S
C209 C207 1.413 1_455 S
C210 H200 0.930 . S
C210 C208 1.419 . S
C210 C211 1.362 . S
C211 H201 0.930 . S
C211 C204 1.409 1_545 S
C211 C210 1.362 . S
H212 C218 0.930 . S
H213 C221 0.930 . S
H214 C222 0.930 . S
H215 C223 0.930 . S
H216 C226 0.930 . S
H217 C227 0.930 . S
C218 H212 0.930 . S
C218 C219 1.355 . S
C218 C220 1.415 1_554 S
C219 C218 1.355 . S
C219 C221 1.419 . S
C220 C218 1.415 1_556 S
C220 C225 1.425 . S
C220 C227 1.409 . S
C221 H213 0.930 . S
C221 C219 1.419 . S
C221 C222 1.362 1_554 S
C222 H214 0.930 . S
C222 C221 1.362 1_556 S
C222 C225 1.409 . S
C223 H215 0.930 . S
C223 C224 1.355 . S
C223 C225 1.415 . S
C224 C223 1.355 . S
C224 C226 1.419 . S
C225 C220 1.425 . S
C225 C222 1.409 . S
C225 C223 1.415 . S
C226 H216 0.930 . S
C226 C224 1.419 . S
C226 C227 1.362 . S
C227 H217 0.930 . S
C227 C220 1.409 . S
C227 C226 1.362 . S
H228 C234 0.930 1_556 S
H229 C237 0.930 . S
H230 C238 0.930 . S
H231 C239 0.930 . S
H232 C242 0.930 . S
H233 C243 0.930 . S
C234 H228 0.930 1_554 S
C234 C235 1.355 1_554 S
C234 C236 1.415 . S
C235 C234 1.355 1_556 S
C235 C237 1.419 . S
C236 C234 1.415 . S
C236 C241 1.425 . S
C236 C243 1.409 . S
C237 H229 0.930 . S
C237 C235 1.419 . S
C237 C238 1.362 1_556 S
C238 H230 0.930 . S
C238 C237 1.362 1_554 S
C238 C241 1.409 . S
C239 H231 0.930 . S
C239 C240 1.355 . S
C239 C241 1.415 . S
C240 C239 1.355 . S
C240 C242 1.419 . S
C241 C236 1.425 . S
C241 C238 1.409 . S
C241 C239 1.415 . S
C242 H232 0.930 . S
C242 C240 1.419 . S
C242 C243 1.362 . S
C243 H233 0.930 . S
C243 C236 1.409 . S
C243 C242 1.362 . S
H244 C250 0.930 . S
H245 C253 0.930 . S
H246 C254 0.930 . S
H247 C255 0.930 . S
H248 C258 0.930 . S
H249 C259 0.930 . S
C250 H244 0.930 . S
C250 C251 1.355 . S
C250 C252 1.415 . S
C251 C250 1.355 . S
C251 C253 1.419 . S
C252 C250 1.415 . S
C252 C257 1.425 . S
C252 C259 1.409 . S
C253 H245 0.930 . S
C253 C251 1.419 . S
C253 C254 1.362 . S
C254 H246 0.930 . S
C254 C253 1.362 . S
C254 C257 1.409 . S
C255 H247 0.930 . S
C255 C256 1.355 . S
C255 C257 1.415 . S
C256 C255 1.355 . S
C256 C258 1.419 . S
C257 C252 1.425 . S
C257 C254 1.409 . S
C257 C255 1.415 . S
C258 H248 0.930 . S
C258 C256 1.419 . S
C258 C259 1.362 . S
C259 H249 0.930 . S
C259 C252 1.409 . S
C259 C258 1.362 . S
H260 C266 0.930 . S
H261 C269 0.930 . S
H262 C270 0.930 . S
H263 C271 0.930 . S
H264 C274 0.930 . S
H265 C275 0.930 . S
C266 H260 0.930 . S
C266 C267 1.355 . S
C266 C268 1.415 . S
C267 C266 1.355 . S
C267 C269 1.419 . S
C268 C266 1.415 . S
C268 C273 1.425 . S
C268 C275 1.409 . S
C269 H261 0.930 . S
C269 C267 1.419 . S
C269 C270 1.362 . S
C270 H262 0.930 . S
C270 C269 1.362 . S
C270 C273 1.409 . S
C271 H263 0.930 . S
C271 C272 1.355 . S
C271 C273 1.415 . S
C272 C271 1.355 . S
C272 C274 1.419 . S
C273 C268 1.425 . S
C273 C270 1.409 . S
C273 C271 1.415 . S
C274 H264 0.930 . S
C274 C272 1.419 . S
C274 C275 1.362 . S
C275 H265 0.930 . S
C275 C268 1.409 . S
C275 C274 1.362 . S
C91 C3 1.322 . S
C96 C25 1.541 . S
C107 C62 1.325 . S
C112 C40 1.320 . S
C123 C67 1.323 . S
C128 C49 1.500 . S
C139 C7 1.556 . S
C144 C79 1.647 . S
C155 C83 1.290 . S
C160 C4 1.330 . S
C171 C58 1.681 . S
C176 C24 1.605 . S
C187 C46 1.396 . S
C192 C70 1.482 . S
C203 C28 1.278 . S
C208 C19 1.538 . S
C219 C16 1.124 . S
C224 C20 1.094 . S
C235 C41 1.124 1_655 S
C240 C37 1.094 . S
C251 C45 1.219 . S
C256 C61 1.188 . S
C267 C82 1.211 . S
C272 C66 1.225 . S
