# Generated by pormake.
# Topology qtz-e, (6)-cn, num edge types: 1
# Building blocks:
#     Node 0, Type 0, BuildingBlock: PAMTUU_clean_sbu_0, # of connection points: 6
#     Node 1, Type 0, BuildingBlock: PAMTUU_clean_sbu_0, # of connection points: 6
#     Node 2, Type 0, BuildingBlock: PAMTUU_clean_sbu_0, # of connection points: 6
#     Node 3, Type 0, BuildingBlock: PAMTUU_clean_sbu_0, # of connection points: 6
#     Node 4, Type 0, BuildingBlock: PAMTUU_clean_sbu_0, # of connection points: 6
#     Node 5, Type 0, BuildingBlock: PAMTUU_clean_sbu_0, # of connection points: 6
#     Edge 6, Type (0, 0), BuildingBlock: XIVTED_clean_linker_0, # of connection points: 2
#     Edge 7, Type (0, 0), BuildingBlock: XIVTED_clean_linker_0, # of connection points: 2
#     Edge 8, Type (0, 0), BuildingBlock: XIVTED_clean_linker_0, # of connection points: 2
#     Edge 9, Type (0, 0), BuildingBlock: XIVTED_clean_linker_0, # of connection points: 2
#     Edge 10, Type (0, 0), BuildingBlock: XIVTED_clean_linker_0, # of connection points: 2
#     Edge 11, Type (0, 0), BuildingBlock: XIVTED_clean_linker_0, # of connection points: 2
#     Edge 12, Type (0, 0), BuildingBlock: XIVTED_clean_linker_0, # of connection points: 2
#     Edge 13, Type (0, 0), BuildingBlock: XIVTED_clean_linker_0, # of connection points: 2
#     Edge 14, Type (0, 0), BuildingBlock: XIVTED_clean_linker_0, # of connection points: 2
#     Edge 15, Type (0, 0), BuildingBlock: XIVTED_clean_linker_0, # of connection points: 2
#     Edge 16, Type (0, 0), BuildingBlock: XIVTED_clean_linker_0, # of connection points: 2
#     Edge 17, Type (0, 0), BuildingBlock: XIVTED_clean_linker_0, # of connection points: 2
#     Edge 18, Type (0, 0), BuildingBlock: XIVTED_clean_linker_0, # of connection points: 2
#     Edge 19, Type (0, 0), BuildingBlock: XIVTED_clean_linker_0, # of connection points: 2
#     Edge 20, Type (0, 0), BuildingBlock: XIVTED_clean_linker_0, # of connection points: 2
#     Edge 21, Type (0, 0), BuildingBlock: XIVTED_clean_linker_0, # of connection points: 2
#     Edge 22, Type (0, 0), BuildingBlock: XIVTED_clean_linker_0, # of connection points: 2
#     Edge 23, Type (0, 0), BuildingBlock: XIVTED_clean_linker_0, # of connection points: 2
# Relax obj value: 0.194
# Max RMSD: 0.211
# Mean RMSD: 0.211
data_MOF--net-qtz-e--node1-PAMTUU_clean_sbu_0--edge1-XIVTED_clean_linker_0
_symmetry_space_group_name_H-M    P1
_symmetry_Int_Tables_number       1
_symmetry_cell_setting            triclinic
loop_
_symmetry_equiv_pos_as_xyz
'x, y, z'
_cell_length_a     27.04264
_cell_length_b     27.007125
_cell_length_c     51.232806
_cell_angle_alpha  90.18535
_cell_angle_beta   89.695085
_cell_angle_gamma 120.04423
loop_
_atom_site_label
_atom_site_type_symbol
_atom_site_fract_x
_atom_site_fract_y
_atom_site_fract_z
_atom_type_partial_charge
Tb0 Tb 0.22439 0.34346 0.10585 0.0
Tb1 Tb 0.27098 0.4675 0.07536 0.0
C2 C 0.35134 0.44252 0.10866 0.0
C3 C 0.15201 0.23276 0.15606 0.0
C4 C 0.09408 0.20264 0.20479 0.0
C5 C 0.13267 0.18397 0.19791 0.0
C6 C 0.16118 0.19882 0.17381 0.0
C7 C 0.11352 0.25142 0.16272 0.0
C8 C 0.08463 0.23623 0.1867 0.0
C9 C 0.18575 0.25189 0.13162 0.0
O10 O 0.2326 0.40353 0.13625 0.0
O11 O 0.24342 0.48203 0.1131 0.0
O12 O 0.18286 0.40904 0.06524 0.0
O13 O 0.15491 0.36164 0.10367 0.0
O14 O 0.33935 0.54278 0.06036 0.0
O15 O 0.25268 0.52524 0.0562 0.0
O16 O 0.2937 0.41606 0.05078 0.0
O17 O 0.22659 0.32566 0.06422 0.0
O18 O 0.31787 0.3872 0.10479 0.0
O19 O 0.33398 0.47891 0.10388 0.0
C20 C 0.23504 0.45345 0.13501 0.0
O21 O 0.16033 0.25769 0.11122 0.0
O22 O 0.23748 0.29496 0.13412 0.0
C23 C 0.14444 0.38505 0.08369 0.0
C24 C 0.31736 0.57442 0.02209 0.0
C25 C 0.35059 0.61066 0.97041 0.0
C26 C 0.3405 0.64474 0.988 0.0
C27 C 0.32418 0.62676 0.01371 0.0
C28 C 0.32494 0.5391 1.00433 0.0
C29 C 0.34167 0.55721 0.97868 0.0
C30 C 0.30595 0.55872 0.04969 0.0
C31 C 0.26407 0.36052 0.04695 0.0
H32 H 0.14204 0.15901 0.21139 0.0
H33 H 0.19133 0.18469 0.16924 0.0
H34 H 0.1062 0.2783 0.14949 0.0
H35 H 0.05477 0.25082 0.191 0.0
H36 H 0.34752 0.68631 0.98219 0.0
H37 H 0.31847 0.65444 0.02724 0.0
H38 H 0.31947 0.49831 0.01048 0.0
H39 H 0.3485 0.52985 0.96542 0.0
Tb40 Tb 0.75701 0.10274 0.47773 0.0
Tb41 Tb 0.69671 0.17046 0.50552 0.0
C42 C 0.62812 0.06105 0.47306 0.0
C43 C 0.83796 0.07088 0.42924 0.0
C44 C 0.89699 0.09978 0.38079 0.0
C45 C 0.86391 0.04223 0.3887 0.0
C46 C 0.83483 0.02802 0.41267 0.0
C47 C 0.87095 0.12835 0.42155 0.0
C48 C 0.9004 0.14265 0.3977 0.0
C49 C 0.80343 0.05511 0.45345 0.0
O50 O 0.74462 0.1491 0.44607 0.0
O51 O 0.72378 0.21186 0.46782 0.0
O52 O 0.78602 0.21356 0.51644 0.0
O53 O 0.82037 0.19299 0.47982 0.0
O54 O 0.6214 0.16568 0.51935 0.0
O55 O 0.70236 0.24428 0.52218 0.0
O56 O 0.68288 0.10121 0.53168 0.0
O57 O 0.75746 0.08791 0.51964 0.0
O58 O 0.66452 0.04483 0.48007 0.0
O59 O 0.64036 0.11407 0.47573 0.0
C60 C 0.73669 0.19345 0.44648 0.0
O61 O 0.82635 0.08853 0.47361 0.0
O62 O 0.75029 0.04153 0.45038 0.0
C63 C 0.82632 0.22815 0.49883 0.0
C64 C 0.63356 0.2244 0.55518 0.0
C65 C 0.59725 0.22777 0.60631 0.0
C66 C 0.64603 0.2229 0.60201 0.0
C67 C 0.66388 0.22081 0.57655 0.0
C68 C 0.58589 0.23077 0.55944 0.0
C69 C 0.5678 0.23237 0.58479 0.0
C70 C 0.64826 0.21778 0.52834 0.0
C71 C 0.71772 0.08163 0.53643 0.0
H72 H 0.85921 0.00786 0.37613 0.0
H73 H 0.80892 0.98339 0.41803 0.0
H74 H 0.87348 0.16223 0.43387 0.0
H75 H 0.92595 0.18743 0.39259 0.0
H76 H 0.6692 0.21886 0.61828 0.0
H77 H 0.7005 0.21525 0.57355 0.0
H78 H 0.56195 0.23336 0.54313 0.0
H79 H 0.53046 0.23681 0.58758 0.0
Tb80 Tb 0.64927 0.85694 0.76685 0.0
Tb81 Tb 0.5214 0.79903 0.73927 0.0
C82 C 0.5753 0.91574 0.76364 0.0
C83 C 0.76042 0.886 0.81585 0.0
C84 C 0.79009 0.86203 0.86534 0.0
C85 C 0.8285 0.91152 0.85133 0.0
C86 C 0.81371 0.9234 0.82689 0.0
C87 C 0.72226 0.8362 0.82949 0.0
C88 C 0.73683 0.82437 0.85395 0.0
C89 C 0.74358 0.90051 0.7909 0.0
O90 O 0.59022 0.79901 0.79594 0.0
O91 O 0.50572 0.79027 0.78115 0.0
O92 O 0.5305 0.72736 0.74998 0.0
O93 O 0.62814 0.7702 0.75559 0.0
O94 O 0.44519 0.80091 0.7351 0.0
O95 O 0.45894 0.73885 0.71445 0.0
O96 O 0.58307 0.82138 0.70794 0.0
O97 O 0.66259 0.89409 0.72751 0.0
O98 O 0.60504 0.90214 0.77918 0.0
O99 O 0.55921 0.89058 0.74102 0.0
C100 C 0.5363 0.78408 0.79938 0.0
O101 O 0.72954 0.86338 0.77205 0.0
O102 O 0.70739 0.91876 0.7929 0.0
C103 C 0.57714 0.72461 0.75277 0.0
C104 C 0.4062 0.77314 0.69326 0.0
C105 C 0.3691 0.78903 0.64467 0.0
C106 C 0.33012 0.74824 0.66234 0.0
C107 C 0.34865 0.74027 0.68646 0.0
C108 C 0.44509 0.81509 0.67609 0.0
C109 C 0.4267 0.82282 0.65183 0.0
C110 C 0.42586 0.76068 0.71747 0.0
C111 C 0.63283 0.86857 0.70639 0.0
H112 H 0.87019 0.94111 0.85918 0.0
H113 H 0.84375 0.96211 0.8167 0.0
H114 H 0.68079 0.80681 0.82138 0.0
H115 H 0.70571 0.7863 0.86418 0.0
H116 H 0.28565 0.72108 0.65716 0.0
H117 H 0.31834 0.70752 0.69953 0.0
H118 H 0.48972 0.84093 0.68129 0.0
H119 H 0.45746 0.85481 0.63863 0.0
Tb120 Tb 0.87528 0.64758 0.14459 0.0
Tb121 Tb 0.79456 0.52138 0.17311 0.0
C122 C 0.90084 0.5472 0.1398 0.0
C123 C 0.91452 0.75785 0.0948 0.0
C124 C 0.88752 0.78496 0.04544 0.0
C125 C 0.94324 0.81662 0.05559 0.0
C126 C 0.95662 0.80299 0.07998 0.0
C127 C 0.85863 0.72701 0.08504 0.0
C128 C 0.84528 0.74032 0.06064 0.0
C129 C 0.92953 0.73982 0.11929 0.0
O130 O 0.82284 0.58906 0.11388 0.0
O131 O 0.75088 0.51277 0.13664 0.0
O132 O 0.76787 0.58133 0.18517 0.0
O133 O 0.78867 0.63219 0.14779 0.0
O134 O 0.78195 0.441 0.18357 0.0
O135 O 0.72125 0.46666 0.19507 0.0
O136 O 0.86894 0.56932 0.19752 0.0
O137 O 0.89463 0.66163 0.18641 0.0
O138 O 0.92345 0.60226 0.14462 0.0
O139 O 0.84652 0.51134 0.14389 0.0
C140 C 0.77271 0.54175 0.11496 0.0
O141 O 0.89756 0.73367 0.1396 0.0
O142 O 0.93845 0.69687 0.11688 0.0
C143 C 0.75426 0.60741 0.16759 0.0
C144 C 0.73887 0.41114 0.22478 0.0
C145 C 0.74124 0.37315 0.27551 0.0
C146 C 0.6891 0.35247 0.26233 0.0
C147 C 0.68799 0.3712 0.23706 0.0
C148 C 0.79082 0.43317 0.23822 0.0
C149 C 0.79203 0.41402 0.26333 0.0
C150 C 0.73744 0.42901 0.19791 0.0
C151 C 0.89513 0.6243 0.2028 0.0
H152 H 0.97697 0.85086 0.04434 0.0
H153 H 0.00012 0.82694 0.08702 0.0
H154 H 0.82543 0.69191 0.09614 0.0
H155 H 0.8018 0.71553 0.05368 0.0
H156 H 0.64942 0.32068 0.27127 0.0
H157 H 0.64754 0.354 0.227 0.0
H158 H 0.83056 0.46461 0.2292 0.0
H159 H 0.83266 0.4311 0.27323 0.0
Tb160 Tb 0.09653 0.75922 0.43862 0.0
Tb161 Tb 0.18282 0.71988 0.41035 0.0
C162 C 0.07027 0.63209 0.43963 0.0
C163 C 0.05534 0.82764 0.48898 0.0
C164 C 0.08339 0.88142 0.53862 0.0
C165 C 0.02608 0.84379 0.53176 0.0
C166 C 0.01224 0.81729 0.50717 0.0
C167 C 0.11259 0.8652 0.49577 0.0
C168 C 0.12641 0.89206 0.52022 0.0
C169 C 0.041 0.79549 0.46406 0.0
O170 O 0.14224 0.74442 0.46959 0.0
O171 O 0.22062 0.74967 0.44852 0.0
O172 O 0.20503 0.80687 0.40144 0.0
O173 O 0.18351 0.83054 0.43989 0.0
O174 O 0.20842 0.66036 0.40103 0.0
O175 O 0.25429 0.74613 0.38579 0.0
O176 O 0.10962 0.69135 0.38514 0.0
O177 O 0.08026 0.75524 0.3964 0.0
O178 O 0.04852 0.66587 0.43668 0.0
O179 O 0.12428 0.64939 0.43481 0.0
C180 C 0.19354 0.75007 0.46987 0.0
O181 O 0.07318 0.82214 0.44391 0.0
O182 O 0.03171 0.74338 0.46582 0.0
C183 C 0.21979 0.84318 0.4207 0.0
C184 C 0.24271 0.67199 0.35794 0.0
C185 C 0.23541 0.62936 0.30707 0.0
C186 C 0.28893 0.66641 0.31822 0.0
C187 C 0.29251 0.68743 0.34353 0.0
C188 C 0.18917 0.63589 0.34666 0.0
C189 C 0.18556 0.61449 0.32149 0.0
C190 C 0.24681 0.6947 0.38441 0.0
C191 C 0.08183 0.71841 0.37986 0.0
H192 H 0.99188 0.83492 0.54539 0.0
H193 H 0.96788 0.78795 0.50252 0.0
H194 H 0.14685 0.87305 0.48236 0.0
H195 H 0.17099 0.92004 0.52496 0.0
H196 H 0.328 0.6782 0.30758 0.0
H197 H 0.33413 0.71559 0.35188 0.0
H198 H 0.15013 0.62408 0.35734 0.0
H199 H 0.14378 0.58658 0.31323 0.0
Tb200 Tb 0.32985 0.19551 0.81683 0.0
Tb201 Tb 0.45879 0.26326 0.84383 0.0
C202 C 0.40815 0.32851 0.81859 0.0
C203 C 0.21722 0.1161 0.76732 0.0
C204 C 0.18615 0.06191 0.71775 0.0
C205 C 0.18239 0.11108 0.72301 0.0
C206 C 0.19747 0.13763 0.74751 0.0
C207 C 0.22077 0.06672 0.76217 0.0
C208 C 0.20511 0.03979 0.73772 0.0
C209 C 0.23577 0.14701 0.79264 0.0
O210 O 0.38697 0.19318 0.78769 0.0
O211 O 0.47394 0.26677 0.80188 0.0
O212 O 0.44526 0.1802 0.83405 0.0
O213 O 0.34739 0.12796 0.82867 0.0
O214 O 0.5371 0.33948 0.84827 0.0
O215 O 0.51976 0.26204 0.86837 0.0
O216 O 0.39766 0.2298 0.87567 0.0
O217 O 0.31811 0.22227 0.85584 0.0
O218 O 0.37668 0.28425 0.80368 0.0
O219 O 0.42597 0.3211 0.84106 0.0
C220 C 0.44145 0.23004 0.78388 0.0
O221 O 0.24843 0.12298 0.81149 0.0
O222 O 0.27263 0.20143 0.79112 0.0
C223 C 0.39749 0.13159 0.83167 0.0
C224 C 0.57417 0.34759 0.89077 0.0
C225 C 0.60422 0.39473 0.94097 0.0
C226 C 0.62676 0.36181 0.93081 0.0
C227 C 0.61203 0.33865 0.90583 0.0
C228 C 0.55209 0.38119 0.90071 0.0
C229 C 0.56756 0.40515 0.92563 0.0
C230 C 0.55428 0.31689 0.86599 0.0
C231 C 0.34848 0.22842 0.87694 0.0
H232 H 0.16735 0.12888 0.70821 0.0
H233 H 0.19423 0.17553 0.75091 0.0
H234 H 0.23625 0.04919 0.7769 0.0
H235 H 0.20904 0.00232 0.73426 0.0
H236 H 0.65559 0.35379 0.94227 0.0
H237 H 0.62903 0.31245 0.89852 0.0
H238 H 0.52201 0.38781 0.88952 0.0
H239 H 0.5496 0.43028 0.93321 0.0
H240 H 0.29287 0.68502 0.26264 0.0
H241 H 0.18836 0.39872 0.181 0.0
H242 H 0.16946 0.51815 0.29182 0.0
H243 H 0.26869 0.56566 0.14501 0.0
H244 H 0.18434 0.44194 0.22228 0.0
H245 H 0.28847 0.64252 0.21977 0.0
C246 C 0.26484 0.63946 0.25998 0.0
C247 C 0.23159 0.60496 0.28076 0.0
C248 C 0.20251 0.46908 0.20532 0.0
C249 C 0.22641 0.55617 0.23197 0.0
C250 C 0.20505 0.44449 0.18177 0.0
C251 C 0.22927 0.47875 0.15959 0.0
C252 C 0.22507 0.52847 0.20681 0.0
C253 C 0.24967 0.53769 0.16165 0.0
C254 C 0.26207 0.61532 0.23552 0.0
C255 C 0.19549 0.54629 0.27624 0.0
N256 N 0.24763 0.56082 0.18495 0.0
N257 N 0.19421 0.52365 0.25239 0.0
H258 H 0.5527 0.29714 0.76747 0.0
H259 H 0.48751 0.16481 0.62352 0.0
H260 H 0.38802 0.1611 0.74205 0.0
H261 H 0.65739 0.28604 0.64979 0.0
H262 H 0.45078 0.16419 0.66712 0.0
H263 H 0.59249 0.29512 0.72472 0.0
C264 C 0.52491 0.26684 0.75296 0.0
C265 C 0.46685 0.22941 0.75836 0.0
C266 C 0.49613 0.19091 0.66345 0.0
C267 C 0.5121 0.22693 0.7095 0.0
C268 C 0.51704 0.19149 0.63852 0.0
C269 C 0.57545 0.22592 0.63304 0.0
C270 C 0.53381 0.22531 0.6831 0.0
C271 C 0.61205 0.2588 0.65329 0.0
C272 C 0.54771 0.26566 0.72859 0.0
C273 C 0.43296 0.19096 0.73882 0.0
N274 N 0.59055 0.258 0.67745 0.0
N275 N 0.45607 0.19088 0.71528 0.0
H276 H 0.31647 0.66418 0.93548 0.0
H277 H 0.57561 0.74182 0.83737 0.0
H278 H 0.43888 0.60787 0.94588 0.0
H279 H 0.43356 0.76573 0.81827 0.0
H280 H 0.52845 0.69711 0.87838 0.0
H281 H 0.36069 0.70558 0.89329 0.0
C282 C 0.35252 0.66041 0.92881 0.0
C283 C 0.37407 0.63257 0.94412 0.0
C284 C 0.50754 0.71204 0.8652 0.0
C285 C 0.42491 0.6799 0.89613 0.0
C286 C 0.5346 0.7379 0.84184 0.0
C287 C 0.50854 0.75769 0.8244 0.0
C288 C 0.45424 0.70633 0.87129 0.0
C289 C 0.45513 0.75096 0.83113 0.0
C290 C 0.37759 0.68382 0.90475 0.0
C291 C 0.42055 0.62842 0.93454 0.0
N292 N 0.42981 0.72601 0.85412 0.0
N293 N 0.44466 0.65217 0.91123 0.0
H294 H 0.7886 0.18974 0.40114 0.0
H295 H 0.67381 0.35952 0.31794 0.0
H296 H 0.69469 0.26435 0.43546 0.0
H297 H 0.81215 0.33514 0.29194 0.0
H298 H 0.67523 0.31849 0.36032 0.0
H299 H 0.79246 0.23676 0.35986 0.0
C300 C 0.76881 0.216 0.39999 0.0
C301 C 0.74108 0.22299 0.42171 0.0
C302 C 0.70549 0.32247 0.34538 0.0
C303 C 0.74511 0.27653 0.37461 0.0
C304 C 0.70447 0.34554 0.32122 0.0
C305 C 0.7429 0.3506 0.30152 0.0
C306 C 0.74464 0.30358 0.34967 0.0
C307 C 0.78213 0.33234 0.30674 0.0
C308 C 0.77127 0.24302 0.37648 0.0
C309 C 0.7166 0.2579 0.4192 0.0
N310 N 0.78172 0.3092 0.33028 0.0
N311 N 0.71879 0.28302 0.39599 0.0
H312 H 0.42087 0.79621 0.59767 0.0
H313 H 0.15404 0.7625 0.51706 0.0
H314 H 0.27286 0.79212 0.63209 0.0
H315 H 0.29908 0.76339 0.48068 0.0
H316 H 0.20127 0.78069 0.55892 0.0
H317 H 0.38201 0.79315 0.55426 0.0
C318 C 0.38063 0.79556 0.59605 0.0
C319 C 0.34968 0.79389 0.61843 0.0
C320 C 0.22291 0.77692 0.54183 0.0
C321 C 0.3048 0.7896 0.56907 0.0
C322 C 0.1958 0.76622 0.51784 0.0
C323 C 0.22229 0.76054 0.49531 0.0
C324 C 0.27695 0.78186 0.54347 0.0
C325 C 0.27682 0.76678 0.49761 0.0
C326 C 0.35832 0.7934 0.57132 0.0
C327 C 0.29758 0.79251 0.61531 0.0
N328 N 0.30231 0.77683 0.52135 0.0
N329 N 0.27662 0.79003 0.59109 0.0
H330 H 0.68102 0.43563 0.10538 0.0
H331 H 0.64751 0.50511 0.95719 0.0
H332 H 0.78894 0.59998 0.06929 0.0
H333 H 0.594 0.33514 0.98522 0.0
H334 H 0.68086 0.54258 1.00128 0.0
H335 H 0.6304 0.40036 0.06401 0.0
C336 C 0.6938 0.46441 0.08885 0.0
C337 C 0.73974 0.5206 0.09066 0.0
C338 C 0.66129 0.49703 0.99777 0.0
C339 C 0.68175 0.48077 0.04359 0.0
C340 C 0.64211 0.47574 0.97276 0.0
C341 C 0.61878 0.41725 0.96773 0.0
C342 C 0.65622 0.45928 0.01776 0.0
C343 C 0.61261 0.38069 0.9884 0.0
C344 C 0.66495 0.44425 0.0653 0.0
C345 C 0.75427 0.55615 0.06867 0.0
N346 N 0.63145 0.40235 0.01256 0.0
N347 N 0.72542 0.53557 0.04599 0.0
H348 H 0.39771 0.38732 0.1358 0.0
H349 H 0.71102 0.6582 0.13645 0.0
H350 H 0.43836 0.55209 0.10493 0.0
H351 H 0.65938 0.51849 0.19058 0.0
H352 H 0.61149 0.61835 0.12356 0.0
H353 H 0.4948 0.4313 0.15396 0.0
C354 C 0.42703 0.4325 0.13274 0.0
C355 C 0.40995 0.46605 0.11885 0.0
C356 C 0.6218 0.59678 0.13853 0.0
C357 C 0.52028 0.5164 0.13951 0.0
C358 C 0.67861 0.61975 0.14602 0.0
C359 C 0.69371 0.59151 0.16451 0.0
C360 C 0.57977 0.54462 0.14926 0.0
C361 C 0.64982 0.54164 0.17619 0.0
C362 C 0.4821 0.45765 0.14329 0.0
C363 C 0.44949 0.52454 0.11561 0.0
N364 N 0.59489 0.5192 0.16805 0.0
N365 N 0.50272 0.54768 0.12572 0.0
H366 H 0.96643 0.58538 0.46507 0.0
H367 H 0.9259 0.27231 0.47118 0.0
H368 H 0.0929 0.54456 0.43736 0.0
H369 H 0.82535 0.32253 0.51814 0.0
H370 H 0.98707 0.37193 0.45823 0.0
H371 H 0.91136 0.48844 0.48323 0.0
C372 C 0.98244 0.55603 0.46267 0.0
C373 C 0.0343 0.57312 0.44963 0.0
C374 C 0.95215 0.36137 0.47168 0.0
C375 C 0.97189 0.46261 0.47044 0.0
C376 C 0.91741 0.30451 0.4792 0.0
C377 C 0.87047 0.28903 0.49578 0.0
C378 C 0.93934 0.40307 0.48041 0.0
C379 C 0.86128 0.33254 0.50545 0.0
C380 C 0.95129 0.50094 0.47323 0.0
C381 C 0.05325 0.53343 0.44731 0.0
N382 N 0.89489 0.38751 0.49731 0.0
N383 N 0.022 0.48012 0.45749 0.0
H384 H 0.45972 0.09924 0.86058 0.0
H385 H 0.49716 0.93596 0.73934 0.0
H386 H 0.35561 0.05515 0.79159 0.0
H387 H 0.58593 0.96207 0.8124 0.0
H388 H 0.44181 0.97551 0.75878 0.0
H389 H 0.49913 0.04049 0.84511 0.0
C390 C 0.44363 0.07528 0.8426 0.0
C391 C 0.40417 0.08151 0.8274 0.0
C392 C 0.47335 0.97255 0.77057 0.0
C393 C 0.45103 0.01659 0.80889 0.0
C394 C 0.50549 0.95053 0.7594 0.0
C395 C 0.54664 0.946 0.77421 0.0
C396 C 0.48251 0.99049 0.79672 0.0
C397 C 0.55503 0.96511 0.80017 0.0
C398 C 0.46668 0.0424 0.83358 0.0
C399 C 0.38536 0.05062 0.80404 0.0
N400 N 0.52331 0.98658 0.81057 0.0
N401 N 0.40984 0.02029 0.7952 0.0
H402 H 0.62592 0.69097 0.79009 0.0
H403 H 0.38808 0.36143 0.77117 0.0
H404 H 0.50507 0.62766 0.72685 0.0
H405 H 0.48989 0.42855 0.8408 0.0
H406 H 0.43914 0.45684 0.75186 0.0
H407 H 0.58825 0.59226 0.8052 0.0
C408 C 0.59297 0.65608 0.77885 0.0
C409 C 0.56853 0.6671 0.7572 0.0
C410 C 0.45024 0.45069 0.77138 0.0
C411 C 0.52417 0.55493 0.77469 0.0
C412 C 0.42078 0.39628 0.7825 0.0
C413 C 0.43434 0.38697 0.80772 0.0
C414 C 0.49378 0.49617 0.78553 0.0
C415 C 0.4776 0.43375 0.82137 0.0
C416 C 0.57081 0.59992 0.7877 0.0
C417 C 0.52496 0.62069 0.74365 0.0
N418 N 0.5058 0.48629 0.81008 0.0
N419 N 0.50377 0.56667 0.75275 0.0
H420 H 0.05031 0.33477 0.11521 0.0
H421 H 0.00466 0.60295 0.11416 0.0
H422 H 0.13771 0.47251 0.05998 0.0
H423 H 0.87649 0.43679 0.14224 0.0
H424 H 0.05922 0.55951 0.09675 0.0
H425 H 0.98876 0.37351 0.12718 0.0
C426 C 0.05584 0.37254 0.10524 0.0
C427 C 0.09939 0.40051 0.08664 0.0
C428 C 0.01895 0.53272 0.10662 0.0
C429 C 0.03029 0.44612 0.10083 0.0
C430 C 0.98815 0.55754 0.11673 0.0
C431 C 0.93602 0.52348 0.12966 0.0
C432 C -0.00217 0.47378 0.10994 0.0
C433 C 0.91634 0.46472 0.13231 0.0
C434 C 0.02092 0.39483 0.11217 0.0
C435 C 0.10477 0.44954 0.07443 0.0
N436 N 0.9474 0.44188 0.12272 0.0
N437 N 0.07127 0.47139 0.08206 0.0
H438 H 0.30994 0.88674 0.38624 0.0
H439 H 0.54284 0.9661 0.4967 0.0
H440 H 0.27009 0.88208 0.46825 0.0
H441 H 0.58473 0.06718 0.42658 0.0
H442 H 0.44234 0.91258 0.48265 0.0
H443 H 0.41212 0.93541 0.39732 0.0
C444 C 0.32263 0.89654 0.40647 0.0
C445 C 0.28137 0.88056 0.4263 0.0
C446 C 0.4739 0.94584 0.47018 0.0
C447 C 0.39727 0.93349 0.43904 0.0
C448 C 0.53104 0.97567 0.478 0.0
C449 C 0.57163 0.0204 0.46258 0.0
C450 C 0.45794 0.96043 0.44662 0.0
C451 C 0.55435 0.03246 0.43881 0.0
C452 C 0.3807 0.92381 0.41275 0.0
C453 C 0.30022 0.89383 0.45226 0.0
N454 N 0.49868 0.00253 0.43147 0.0
N455 N 0.35669 0.91874 0.4579 0.0
H456 H 0.24144 0.20552 0.89399 0.0
H457 H 0.36172 0.40715 0.01786 0.0
H458 H 0.41705 0.2819 0.91859 0.0
H459 H 0.19079 0.26191 0.01999 0.0
H460 H 0.37941 0.37109 0.97716 0.0
H461 H 0.21816 0.23376 0.93617 0.0
C462 C 0.27492 0.22777 0.90823 0.0
C463 C 0.33122 0.24096 0.90271 0.0
C464 C 0.33805 0.34698 0.98655 0.0
C465 C 0.30517 0.27446 0.95051 0.0
C466 C 0.32781 0.36761 0.00977 0.0
C467 C 0.27475 0.33737 0.02249 0.0
C468 C 0.29456 0.29631 0.97542 0.0
C469 C 0.23248 0.28631 0.01096 0.0
C470 C 0.26158 0.24372 0.93227 0.0
C471 C 0.37294 0.27017 0.92193 0.0
N472 N 0.24306 0.26761 0.98792 0.0
N473 N 0.35922 0.28642 0.9447 0.0
H474 H 0.94808 0.0472 0.35488 0.0
H475 H 0.06596 0.26846 0.236 0.0
H476 H 0.91458 0.18696 0.34722 0.0
H477 H 0.05503 0.10338 0.23342 0.0
H478 H 0.01789 0.24356 0.27838 0.0
H479 H 0.99488 0.07146 0.31219 0.0
C480 C 0.95015 0.08278 0.34426 0.0
C481 C 0.92695 0.11487 0.35489 0.0
C482 C 0.02595 0.21277 0.26849 0.0
C483 C 0.98184 0.14361 0.30594 0.0
C484 C 0.05314 0.22678 0.24414 0.0
C485 C 0.06466 0.18798 0.23081 0.0
C486 C 0.01048 0.15975 0.27993 0.0
C487 C 0.04804 0.13518 0.24293 0.0
C488 C 0.97724 0.09677 0.31987 0.0
C489 C 0.93243 0.16137 0.34021 0.0
N490 N 0.02201 0.12275 0.26675 0.0
N491 N 0.95932 0.17432 0.3166 0.0
H492 H 0.57143 0.83691 0.66117 0.0
H493 H 0.79838 0.07305 0.56581 0.0
H494 H 0.73516 0.9641 0.69165 0.0
H495 H 0.61851 0.01696 0.56318 0.0
H496 H 0.78228 0.02037 0.60722 0.0
H497 H 0.59495 0.88824 0.61991 0.0
C498 C 0.61269 0.87534 0.65922 0.0
C499 C 0.65107 0.89641 0.68026 0.0
C500 C 0.74656 0.01977 0.59746 0.0
C501 C 0.67855 0.95507 0.63241 0.0
C502 C 0.75557 0.04944 0.57383 0.0
C503 C 0.70969 0.04946 0.56105 0.0
C504 C 0.69107 0.98859 0.60785 0.0
C505 C 0.65516 0.01844 0.5724 0.0
C506 C 0.62591 0.9047 0.63557 0.0
C507 C 0.70409 0.94637 0.67611 0.0
N508 N 0.64732 0.98888 0.59493 0.0
N509 N 0.71637 0.97403 0.65262 0.0
H510 H 0.764 0.7581 0.88674 0.0
H511 H 0.92352 0.88974 0.02248 0.0
H512 H 0.85035 0.93855 0.90462 0.0
H513 H 0.82019 0.70863 1.00767 0.0
H514 H 0.90086 0.90876 0.97875 0.0
H515 H 0.78706 0.73951 0.93033 0.0
C516 C 0.78756 0.79389 0.89981 0.0
C517 C 0.80506 0.85008 0.89179 0.0
C518 C 0.88307 0.86485 0.98508 0.0
C519 C 0.83244 0.82893 0.94193 0.0
C520 C 0.89626 0.85393 0.01003 0.0
C521 C 0.87372 0.79745 0.01891 0.0
C522 C 0.84732 0.81901 0.96868 0.0
C523 C 0.838 0.75287 1.0019 0.0
C524 C 0.801 0.7832 0.92472 0.0
C525 C 0.83654 0.89461 0.90963 0.0
N526 N 0.82608 0.76459 0.97768 0.0
N527 N 0.84914 0.88308 0.93376 0.0
H528 H 0.0567 0.62881 0.3476 0.0
H529 H 0.93414 0.72744 0.22893 0.0
H530 H 0.03987 0.77923 0.35326 0.0
H531 H 0.92416 0.56332 0.23518 0.0
H532 H 0.97858 0.7526 0.2725 0.0
H533 H 0.01362 0.60944 0.30478 0.0
C534 C 0.04383 0.65792 0.33989 0.0
C535 C 0.05213 0.70588 0.35424 0.0
C536 C 0.96659 0.71117 0.26421 0.0
C537 C 0.00218 0.68363 0.30447 0.0
C538 C 0.94158 0.69691 0.2393 0.0
C539 C 0.92522 0.64311 0.22829 0.0
C540 C 0.97575 0.67151 0.278 0.0
C541 C 0.93559 0.60516 0.24275 0.0
C542 C 0.01898 0.64667 0.31528 0.0
C543 C 0.03406 0.74161 0.34299 0.0
N544 N 0.96009 0.62011 0.26666 0.0
N545 N 0.01013 0.72993 0.31868 0.0
H546 H 0.12357 0.94726 0.7059 0.0
H547 H 0.16175 0.99275 0.55094 0.0
H548 H 0.21394 0.11346 0.66959 0.0
H549 H 0.03988 0.83252 0.58646 0.0
H550 H 0.18718 0.03636 0.59435 0.0
H551 H 0.09849 0.90315 0.66251 0.0
C552 C 0.13838 0.97448 0.68882 0.0
C553 C 0.17082 0.03424 0.69147 0.0
C554 C 0.15477 0.99169 0.59266 0.0
C555 C 0.14218 0.98393 0.64162 0.0
C556 C 0.14042 0.96666 0.56787 0.0
C557 C 0.09849 0.90881 0.56497 0.0
C558 C 0.12754 0.95863 0.61489 0.0
C559 C 0.07194 0.87737 0.58768 0.0
C560 C 0.12374 0.94928 0.66404 0.0
C561 C 0.18829 0.06731 0.66855 0.0
N562 N 0.08707 0.90255 0.61163 0.0
N563 N 0.17397 0.04177 0.64467 0.0
loop_
_geom_bond_atom_site_label_1
_geom_bond_atom_site_label_2
_geom_bond_distance
_geom_bond_site_symmetry_2
_ccdc_geom_bond_type
Tb0 C9 2.764 . S
Tb0 O10 2.325 . S
Tb0 O13 2.303 . S
Tb0 O17 2.322 . S
Tb0 O18 2.349 . S
Tb0 O21 2.415 . S
Tb0 O22 2.399 . S
Tb1 O11 2.322 . S
Tb1 O12 2.349 . S
Tb1 O14 2.415 . S
Tb1 O15 2.399 . S
Tb1 O16 2.325 . S
Tb1 O19 2.303 . S
Tb1 C30 2.764 . S
C2 O18 1.261 . S
C2 O19 1.257 . S
C3 C6 1.358 . S
C3 C7 1.332 . S
C3 C9 1.504 . S
C4 C5 1.373 . S
C4 C8 1.308 . S
C5 C4 1.373 . S
C5 C6 1.429 . S
C5 H32 0.932 . S
C6 C3 1.358 . S
C6 C5 1.429 . S
C6 H33 0.930 . S
C7 C3 1.332 . S
C7 C8 1.394 . S
C7 H34 0.932 . S
C8 C4 1.308 . S
C8 C7 1.394 . S
C8 H35 0.929 . S
C9 Tb0 2.764 . S
C9 C3 1.504 . S
C9 O21 1.239 . S
C9 O22 1.263 . S
O10 Tb0 2.325 . S
O10 C20 1.236 . S
O11 Tb1 2.322 . S
O11 C20 1.257 . S
O12 Tb1 2.349 . S
O12 C23 1.261 . S
O13 Tb0 2.303 . S
O13 C23 1.257 . S
O14 Tb1 2.415 . S
O14 C30 1.239 . S
O15 Tb1 2.399 . S
O15 C30 1.263 . S
O16 Tb1 2.325 . S
O16 C31 1.236 . S
O17 Tb0 2.322 . S
O17 C31 1.257 . S
O18 Tb0 2.349 . S
O18 C2 1.261 . S
O19 Tb1 2.303 . S
O19 C2 1.257 . S
C20 O10 1.236 . S
C20 O11 1.257 . S
O21 Tb0 2.415 . S
O21 C9 1.239 . S
O22 Tb0 2.399 . S
O22 C9 1.263 . S
C23 O12 1.261 . S
C23 O13 1.257 . S
C24 C27 1.358 . S
C24 C28 1.332 . S
C24 C30 1.504 1_556 S
C25 C26 1.373 . S
C25 C29 1.308 . S
C26 C25 1.373 . S
C26 C27 1.429 . S
C26 H36 0.932 . S
C27 C24 1.358 . S
C27 C26 1.429 . S
C27 H37 0.930 . S
C28 C24 1.332 . S
C28 C29 1.394 . S
C28 H38 0.932 . S
C29 C25 1.308 . S
C29 C28 1.394 . S
C29 H39 0.929 . S
C30 Tb1 2.764 . S
C30 O14 1.239 . S
C30 O15 1.263 . S
C30 C24 1.504 1_554 S
C31 O16 1.236 . S
C31 O17 1.257 . S
H32 C5 0.932 . S
H33 C6 0.930 . S
H34 C7 0.932 . S
H35 C8 0.929 . S
H36 C26 0.932 . S
H37 C27 0.930 . S
H38 C28 0.932 . S
H39 C29 0.929 . S
Tb40 C49 2.764 . S
Tb40 O50 2.325 . S
Tb40 O53 2.303 . S
Tb40 O57 2.322 . S
Tb40 O58 2.349 . S
Tb40 O61 2.415 . S
Tb40 O62 2.399 . S
Tb41 O51 2.322 . S
Tb41 O52 2.349 . S
Tb41 O54 2.415 . S
Tb41 O55 2.399 . S
Tb41 O56 2.325 . S
Tb41 O59 2.303 . S
Tb41 C70 2.764 . S
C42 O58 1.261 . S
C42 O59 1.257 . S
C43 C46 1.358 . S
C43 C47 1.332 . S
C43 C49 1.504 . S
C44 C45 1.373 . S
C44 C48 1.308 . S
C45 C44 1.373 . S
C45 C46 1.429 . S
C45 H72 0.932 . S
C46 C43 1.358 . S
C46 C45 1.429 . S
C46 H73 0.930 . S
C47 C43 1.332 . S
C47 C48 1.394 . S
C47 H74 0.932 . S
C48 C44 1.308 . S
C48 C47 1.394 . S
C48 H75 0.929 . S
C49 Tb40 2.764 . S
C49 C43 1.504 . S
C49 O61 1.239 . S
C49 O62 1.263 . S
O50 Tb40 2.325 . S
O50 C60 1.236 . S
O51 Tb41 2.322 . S
O51 C60 1.257 . S
O52 Tb41 2.349 . S
O52 C63 1.261 . S
O53 Tb40 2.303 . S
O53 C63 1.257 . S
O54 Tb41 2.415 . S
O54 C70 1.239 . S
O55 Tb41 2.399 . S
O55 C70 1.263 . S
O56 Tb41 2.325 . S
O56 C71 1.236 . S
O57 Tb40 2.322 . S
O57 C71 1.257 . S
O58 Tb40 2.349 . S
O58 C42 1.261 . S
O59 Tb41 2.303 . S
O59 C42 1.257 . S
C60 O50 1.236 . S
C60 O51 1.257 . S
O61 Tb40 2.415 . S
O61 C49 1.239 . S
O62 Tb40 2.399 . S
O62 C49 1.263 . S
C63 O52 1.261 . S
C63 O53 1.257 . S
C64 C67 1.358 . S
C64 C68 1.332 . S
C64 C70 1.504 . S
C65 C66 1.373 . S
C65 C69 1.308 . S
C66 C65 1.373 . S
C66 C67 1.429 . S
C66 H76 0.932 . S
C67 C64 1.358 . S
C67 C66 1.429 . S
C67 H77 0.930 . S
C68 C64 1.332 . S
C68 C69 1.394 . S
C68 H78 0.932 . S
C69 C65 1.308 . S
C69 C68 1.394 . S
C69 H79 0.929 . S
C70 Tb41 2.764 . S
C70 O54 1.239 . S
C70 O55 1.263 . S
C70 C64 1.504 . S
C71 O56 1.236 . S
C71 O57 1.257 . S
H72 C45 0.932 . S
H73 C46 0.930 . S
H74 C47 0.932 . S
H75 C48 0.929 . S
H76 C66 0.932 . S
H77 C67 0.930 . S
H78 C68 0.932 . S
H79 C69 0.929 . S
Tb80 C89 2.764 . S
Tb80 O90 2.325 . S
Tb80 O93 2.303 . S
Tb80 O97 2.322 . S
Tb80 O98 2.349 . S
Tb80 O101 2.415 . S
Tb80 O102 2.399 . S
Tb81 O91 2.322 . S
Tb81 O92 2.349 . S
Tb81 O94 2.415 . S
Tb81 O95 2.399 . S
Tb81 O96 2.325 . S
Tb81 O99 2.303 . S
Tb81 C110 2.764 . S
C82 O98 1.261 . S
C82 O99 1.257 . S
C83 C86 1.358 . S
C83 C87 1.332 . S
C83 C89 1.504 . S
C84 C85 1.373 . S
C84 C88 1.308 . S
C85 C84 1.373 . S
C85 C86 1.429 . S
C85 H112 0.932 . S
C86 C83 1.358 . S
C86 C85 1.429 . S
C86 H113 0.930 . S
C87 C83 1.332 . S
C87 C88 1.394 . S
C87 H114 0.932 . S
C88 C84 1.308 . S
C88 C87 1.394 . S
C88 H115 0.929 . S
C89 Tb80 2.764 . S
C89 C83 1.504 . S
C89 O101 1.239 . S
C89 O102 1.263 . S
O90 Tb80 2.325 . S
O90 C100 1.236 . S
O91 Tb81 2.322 . S
O91 C100 1.257 . S
O92 Tb81 2.349 . S
O92 C103 1.261 . S
O93 Tb80 2.303 . S
O93 C103 1.257 . S
O94 Tb81 2.415 . S
O94 C110 1.239 . S
O95 Tb81 2.399 . S
O95 C110 1.263 . S
O96 Tb81 2.325 . S
O96 C111 1.236 . S
O97 Tb80 2.322 . S
O97 C111 1.257 . S
O98 Tb80 2.349 . S
O98 C82 1.261 . S
O99 Tb81 2.303 . S
O99 C82 1.257 . S
C100 O90 1.236 . S
C100 O91 1.257 . S
O101 Tb80 2.415 . S
O101 C89 1.239 . S
O102 Tb80 2.399 . S
O102 C89 1.263 . S
C103 O92 1.261 . S
C103 O93 1.257 . S
C104 C107 1.358 . S
C104 C108 1.332 . S
C104 C110 1.504 . S
C105 C106 1.373 . S
C105 C109 1.308 . S
C106 C105 1.373 . S
C106 C107 1.429 . S
C106 H116 0.932 . S
C107 C104 1.358 . S
C107 C106 1.429 . S
C107 H117 0.930 . S
C108 C104 1.332 . S
C108 C109 1.394 . S
C108 H118 0.932 . S
C109 C105 1.308 . S
C109 C108 1.394 . S
C109 H119 0.929 . S
C110 Tb81 2.764 . S
C110 O94 1.239 . S
C110 O95 1.263 . S
C110 C104 1.504 . S
C111 O96 1.236 . S
C111 O97 1.257 . S
H112 C85 0.932 . S
H113 C86 0.930 . S
H114 C87 0.932 . S
H115 C88 0.929 . S
H116 C106 0.932 . S
H117 C107 0.930 . S
H118 C108 0.932 . S
H119 C109 0.929 . S
Tb120 C129 2.764 . S
Tb120 O130 2.325 . S
Tb120 O133 2.303 . S
Tb120 O137 2.322 . S
Tb120 O138 2.349 . S
Tb120 O141 2.415 . S
Tb120 O142 2.399 . S
Tb121 O131 2.322 . S
Tb121 O132 2.349 . S
Tb121 O134 2.415 . S
Tb121 O135 2.399 . S
Tb121 O136 2.325 . S
Tb121 O139 2.303 . S
Tb121 C150 2.764 . S
C122 O138 1.261 . S
C122 O139 1.257 . S
C123 C126 1.358 . S
C123 C127 1.332 . S
C123 C129 1.504 . S
C124 C125 1.373 . S
C124 C128 1.308 . S
C125 C124 1.373 . S
C125 C126 1.429 . S
C125 H152 0.932 . S
C126 C123 1.358 . S
C126 C125 1.429 . S
C126 H153 0.930 . S
C127 C123 1.332 . S
C127 C128 1.394 . S
C127 H154 0.932 . S
C128 C124 1.308 . S
C128 C127 1.394 . S
C128 H155 0.929 . S
C129 Tb120 2.764 . S
C129 C123 1.504 . S
C129 O141 1.239 . S
C129 O142 1.263 . S
O130 Tb120 2.325 . S
O130 C140 1.236 . S
O131 Tb121 2.322 . S
O131 C140 1.257 . S
O132 Tb121 2.349 . S
O132 C143 1.261 . S
O133 Tb120 2.303 . S
O133 C143 1.257 . S
O134 Tb121 2.415 . S
O134 C150 1.239 . S
O135 Tb121 2.399 . S
O135 C150 1.263 . S
O136 Tb121 2.325 . S
O136 C151 1.236 . S
O137 Tb120 2.322 . S
O137 C151 1.257 . S
O138 Tb120 2.349 . S
O138 C122 1.261 . S
O139 Tb121 2.303 . S
O139 C122 1.257 . S
C140 O130 1.236 . S
C140 O131 1.257 . S
O141 Tb120 2.415 . S
O141 C129 1.239 . S
O142 Tb120 2.399 . S
O142 C129 1.263 . S
C143 O132 1.261 . S
C143 O133 1.257 . S
C144 C147 1.358 . S
C144 C148 1.332 . S
C144 C150 1.504 . S
C145 C146 1.373 . S
C145 C149 1.308 . S
C146 C145 1.373 . S
C146 C147 1.429 . S
C146 H156 0.932 . S
C147 C144 1.358 . S
C147 C146 1.429 . S
C147 H157 0.930 . S
C148 C144 1.332 . S
C148 C149 1.394 . S
C148 H158 0.932 . S
C149 C145 1.308 . S
C149 C148 1.394 . S
C149 H159 0.929 . S
C150 Tb121 2.764 . S
C150 O134 1.239 . S
C150 O135 1.263 . S
C150 C144 1.504 . S
C151 O136 1.236 . S
C151 O137 1.257 . S
H152 C125 0.932 . S
H153 C126 0.930 . S
H154 C127 0.932 . S
H155 C128 0.929 . S
H156 C146 0.932 . S
H157 C147 0.930 . S
H158 C148 0.932 . S
H159 C149 0.929 . S
Tb160 C169 2.764 . S
Tb160 O170 2.325 . S
Tb160 O173 2.303 . S
Tb160 O177 2.322 . S
Tb160 O178 2.349 . S
Tb160 O181 2.415 . S
Tb160 O182 2.399 . S
Tb161 O171 2.322 . S
Tb161 O172 2.349 . S
Tb161 O174 2.415 . S
Tb161 O175 2.399 . S
Tb161 O176 2.325 . S
Tb161 O179 2.303 . S
Tb161 C190 2.764 . S
C162 O178 1.261 . S
C162 O179 1.257 . S
C163 C166 1.358 . S
C163 C167 1.332 . S
C163 C169 1.504 . S
C164 C165 1.373 . S
C164 C168 1.308 . S
C165 C164 1.373 . S
C165 C166 1.429 . S
C165 H192 0.932 . S
C166 C163 1.358 . S
C166 C165 1.429 . S
C166 H193 0.930 . S
C167 C163 1.332 . S
C167 C168 1.394 . S
C167 H194 0.932 . S
C168 C164 1.308 . S
C168 C167 1.394 . S
C168 H195 0.929 . S
C169 Tb160 2.764 . S
C169 C163 1.504 . S
C169 O181 1.239 . S
C169 O182 1.263 . S
O170 Tb160 2.325 . S
O170 C180 1.236 . S
O171 Tb161 2.322 . S
O171 C180 1.257 . S
O172 Tb161 2.349 . S
O172 C183 1.261 . S
O173 Tb160 2.303 . S
O173 C183 1.257 . S
O174 Tb161 2.415 . S
O174 C190 1.239 . S
O175 Tb161 2.399 . S
O175 C190 1.263 . S
O176 Tb161 2.325 . S
O176 C191 1.236 . S
O177 Tb160 2.322 . S
O177 C191 1.257 . S
O178 Tb160 2.349 . S
O178 C162 1.261 . S
O179 Tb161 2.303 . S
O179 C162 1.257 . S
C180 O170 1.236 . S
C180 O171 1.257 . S
O181 Tb160 2.415 . S
O181 C169 1.239 . S
O182 Tb160 2.399 . S
O182 C169 1.263 . S
C183 O172 1.261 . S
C183 O173 1.257 . S
C184 C187 1.358 . S
C184 C188 1.332 . S
C184 C190 1.504 . S
C185 C186 1.373 . S
C185 C189 1.308 . S
C186 C185 1.373 . S
C186 C187 1.429 . S
C186 H196 0.932 . S
C187 C184 1.358 . S
C187 C186 1.429 . S
C187 H197 0.930 . S
C188 C184 1.332 . S
C188 C189 1.394 . S
C188 H198 0.932 . S
C189 C185 1.308 . S
C189 C188 1.394 . S
C189 H199 0.929 . S
C190 Tb161 2.764 . S
C190 O174 1.239 . S
C190 O175 1.263 . S
C190 C184 1.504 . S
C191 O176 1.236 . S
C191 O177 1.257 . S
H192 C165 0.932 . S
H193 C166 0.930 . S
H194 C167 0.932 . S
H195 C168 0.929 . S
H196 C186 0.932 . S
H197 C187 0.930 . S
H198 C188 0.932 . S
H199 C189 0.929 . S
Tb200 C209 2.764 . S
Tb200 O210 2.325 . S
Tb200 O213 2.303 . S
Tb200 O217 2.322 . S
Tb200 O218 2.349 . S
Tb200 O221 2.415 . S
Tb200 O222 2.399 . S
Tb201 O211 2.322 . S
Tb201 O212 2.349 . S
Tb201 O214 2.415 . S
Tb201 O215 2.399 . S
Tb201 O216 2.325 . S
Tb201 O219 2.303 . S
Tb201 C230 2.764 . S
C202 O218 1.261 . S
C202 O219 1.257 . S
C203 C206 1.358 . S
C203 C207 1.332 . S
C203 C209 1.504 . S
C204 C205 1.373 . S
C204 C208 1.308 . S
C205 C204 1.373 . S
C205 C206 1.429 . S
C205 H232 0.932 . S
C206 C203 1.358 . S
C206 C205 1.429 . S
C206 H233 0.930 . S
C207 C203 1.332 . S
C207 C208 1.394 . S
C207 H234 0.932 . S
C208 C204 1.308 . S
C208 C207 1.394 . S
C208 H235 0.929 . S
C209 Tb200 2.764 . S
C209 C203 1.504 . S
C209 O221 1.239 . S
C209 O222 1.263 . S
O210 Tb200 2.325 . S
O210 C220 1.236 . S
O211 Tb201 2.322 . S
O211 C220 1.257 . S
O212 Tb201 2.349 . S
O212 C223 1.261 . S
O213 Tb200 2.303 . S
O213 C223 1.257 . S
O214 Tb201 2.415 . S
O214 C230 1.239 . S
O215 Tb201 2.399 . S
O215 C230 1.263 . S
O216 Tb201 2.325 . S
O216 C231 1.236 . S
O217 Tb200 2.322 . S
O217 C231 1.257 . S
O218 Tb200 2.349 . S
O218 C202 1.261 . S
O219 Tb201 2.303 . S
O219 C202 1.257 . S
C220 O210 1.236 . S
C220 O211 1.257 . S
O221 Tb200 2.415 . S
O221 C209 1.239 . S
O222 Tb200 2.399 . S
O222 C209 1.263 . S
C223 O212 1.261 . S
C223 O213 1.257 . S
C224 C227 1.358 . S
C224 C228 1.332 . S
C224 C230 1.504 . S
C225 C226 1.373 . S
C225 C229 1.308 . S
C226 C225 1.373 . S
C226 C227 1.429 . S
C226 H236 0.932 . S
C227 C224 1.358 . S
C227 C226 1.429 . S
C227 H237 0.930 . S
C228 C224 1.332 . S
C228 C229 1.394 . S
C228 H238 0.932 . S
C229 C225 1.308 . S
C229 C228 1.394 . S
C229 H239 0.929 . S
C230 Tb201 2.764 . S
C230 O214 1.239 . S
C230 O215 1.263 . S
C230 C224 1.504 . S
C231 O216 1.236 . S
C231 O217 1.257 . S
H232 C205 0.932 . S
H233 C206 0.930 . S
H234 C207 0.932 . S
H235 C208 0.929 . S
H236 C226 0.932 . S
H237 C227 0.930 . S
H238 C228 0.932 . S
H239 C229 0.929 . S
H240 C246 0.930 . S
H241 C250 0.930 . S
H242 C255 0.929 . S
H243 C253 0.929 . S
H244 C248 0.929 . S
H245 C254 0.929 . S
C246 H240 0.930 . S
C246 C247 1.367 . S
C246 C254 1.378 . S
C247 C246 1.367 . S
C247 C255 1.433 . S
C248 H244 0.929 . S
C248 C250 1.378 . S
C248 C252 1.350 . S
C249 C252 1.463 . S
C249 C254 1.350 . S
C249 N257 1.427 . S
C250 H241 0.930 . S
C250 C248 1.378 . S
C250 C251 1.367 . S
C251 C250 1.367 . S
C251 C253 1.433 . S
C252 C248 1.350 . S
C252 C249 1.463 . S
C252 N256 1.427 . S
C253 H243 0.929 . S
C253 C251 1.433 . S
C253 N256 1.384 . S
C254 H245 0.929 . S
C254 C246 1.378 . S
C254 C249 1.350 . S
C255 H242 0.929 . S
C255 C247 1.433 . S
C255 N257 1.384 . S
N256 C252 1.427 . S
N256 C253 1.384 . S
N257 C249 1.427 . S
N257 C255 1.384 . S
H258 C264 0.930 . S
H259 C268 0.930 . S
H260 C273 0.929 . S
H261 C271 0.929 . S
H262 C266 0.929 . S
H263 C272 0.929 . S
C264 H258 0.930 . S
C264 C265 1.367 . S
C264 C272 1.378 . S
C265 C264 1.367 . S
C265 C273 1.433 . S
C266 H262 0.929 . S
C266 C268 1.378 . S
C266 C270 1.350 . S
C267 C270 1.463 . S
C267 C272 1.350 . S
C267 N275 1.427 . S
C268 H259 0.930 . S
C268 C266 1.378 . S
C268 C269 1.367 . S
C269 C268 1.367 . S
C269 C271 1.433 . S
C270 C266 1.350 . S
C270 C267 1.463 . S
C270 N274 1.427 . S
C271 H261 0.929 . S
C271 C269 1.433 . S
C271 N274 1.384 . S
C272 H263 0.929 . S
C272 C264 1.378 . S
C272 C267 1.350 . S
C273 H260 0.929 . S
C273 C265 1.433 . S
C273 N275 1.384 . S
N274 C270 1.427 . S
N274 C271 1.384 . S
N275 C267 1.427 . S
N275 C273 1.384 . S
H276 C282 0.930 . S
H277 C286 0.930 . S
H278 C291 0.929 . S
H279 C289 0.929 . S
H280 C284 0.929 . S
H281 C290 0.929 . S
C282 H276 0.930 . S
C282 C283 1.367 . S
C282 C290 1.378 . S
C283 C282 1.367 . S
C283 C291 1.433 . S
C284 H280 0.929 . S
C284 C286 1.378 . S
C284 C288 1.350 . S
C285 C288 1.463 . S
C285 C290 1.350 . S
C285 N293 1.427 . S
C286 H277 0.930 . S
C286 C284 1.378 . S
C286 C287 1.367 . S
C287 C286 1.367 . S
C287 C289 1.433 . S
C288 C284 1.350 . S
C288 C285 1.463 . S
C288 N292 1.427 . S
C289 H279 0.929 . S
C289 C287 1.433 . S
C289 N292 1.384 . S
C290 H281 0.929 . S
C290 C282 1.378 . S
C290 C285 1.350 . S
C291 H278 0.929 . S
C291 C283 1.433 . S
C291 N293 1.384 . S
N292 C288 1.427 . S
N292 C289 1.384 . S
N293 C285 1.427 . S
N293 C291 1.384 . S
H294 C300 0.930 . S
H295 C304 0.930 . S
H296 C309 0.929 . S
H297 C307 0.929 . S
H298 C302 0.929 . S
H299 C308 0.929 . S
C300 H294 0.930 . S
C300 C301 1.367 . S
C300 C308 1.378 . S
C301 C300 1.367 . S
C301 C309 1.433 . S
C302 H298 0.929 . S
C302 C304 1.378 . S
C302 C306 1.350 . S
C303 C306 1.463 . S
C303 C308 1.350 . S
C303 N311 1.427 . S
C304 H295 0.930 . S
C304 C302 1.378 . S
C304 C305 1.367 . S
C305 C304 1.367 . S
C305 C307 1.433 . S
C306 C302 1.350 . S
C306 C303 1.463 . S
C306 N310 1.427 . S
C307 H297 0.929 . S
C307 C305 1.433 . S
C307 N310 1.384 . S
C308 H299 0.929 . S
C308 C300 1.378 . S
C308 C303 1.350 . S
C309 H296 0.929 . S
C309 C301 1.433 . S
C309 N311 1.384 . S
N310 C306 1.427 . S
N310 C307 1.384 . S
N311 C303 1.427 . S
N311 C309 1.384 . S
H312 C318 0.930 . S
H313 C322 0.930 . S
H314 C327 0.929 . S
H315 C325 0.929 . S
H316 C320 0.929 . S
H317 C326 0.929 . S
C318 H312 0.930 . S
C318 C319 1.367 . S
C318 C326 1.378 . S
C319 C318 1.367 . S
C319 C327 1.433 . S
C320 H316 0.929 . S
C320 C322 1.378 . S
C320 C324 1.350 . S
C321 C324 1.463 . S
C321 C326 1.350 . S
C321 N329 1.427 . S
C322 H313 0.930 . S
C322 C320 1.378 . S
C322 C323 1.367 . S
C323 C322 1.367 . S
C323 C325 1.433 . S
C324 C320 1.350 . S
C324 C321 1.463 . S
C324 N328 1.427 . S
C325 H315 0.929 . S
C325 C323 1.433 . S
C325 N328 1.384 . S
C326 H317 0.929 . S
C326 C318 1.378 . S
C326 C321 1.350 . S
C327 H314 0.929 . S
C327 C319 1.433 . S
C327 N329 1.384 . S
N328 C324 1.427 . S
N328 C325 1.384 . S
N329 C321 1.427 . S
N329 C327 1.384 . S
H330 C336 0.930 . S
H331 C340 0.930 . S
H332 C345 0.929 . S
H333 C343 0.929 . S
H334 C338 0.929 . S
H335 C344 0.929 . S
C336 H330 0.930 . S
C336 C337 1.367 . S
C336 C344 1.378 . S
C337 C336 1.367 . S
C337 C345 1.433 . S
C338 H334 0.929 . S
C338 C340 1.378 1_554 S
C338 C342 1.350 . S
C339 C342 1.463 . S
C339 C344 1.350 . S
C339 N347 1.427 . S
C340 H331 0.930 . S
C340 C338 1.378 1_556 S
C340 C341 1.367 . S
C341 C340 1.367 . S
C341 C343 1.433 . S
C342 C338 1.350 . S
C342 C339 1.463 . S
C342 N346 1.427 . S
C343 H333 0.929 . S
C343 C341 1.433 . S
C343 N346 1.384 1_556 S
C344 H335 0.929 . S
C344 C336 1.378 . S
C344 C339 1.350 . S
C345 H332 0.929 . S
C345 C337 1.433 . S
C345 N347 1.384 . S
N346 C342 1.427 . S
N346 C343 1.384 1_554 S
N347 C339 1.427 . S
N347 C345 1.384 . S
H348 C354 0.930 . S
H349 C358 0.930 . S
H350 C363 0.929 . S
H351 C361 0.929 . S
H352 C356 0.929 . S
H353 C362 0.929 . S
C354 H348 0.930 . S
C354 C355 1.367 . S
C354 C362 1.378 . S
C355 C354 1.367 . S
C355 C363 1.433 . S
C356 H352 0.929 . S
C356 C358 1.378 . S
C356 C360 1.350 . S
C357 C360 1.463 . S
C357 C362 1.350 . S
C357 N365 1.427 . S
C358 H349 0.930 . S
C358 C356 1.378 . S
C358 C359 1.367 . S
C359 C358 1.367 . S
C359 C361 1.433 . S
C360 C356 1.350 . S
C360 C357 1.463 . S
C360 N364 1.427 . S
C361 H351 0.929 . S
C361 C359 1.433 . S
C361 N364 1.384 . S
C362 H353 0.929 . S
C362 C354 1.378 . S
C362 C357 1.350 . S
C363 H350 0.929 . S
C363 C355 1.433 . S
C363 N365 1.384 . S
N364 C360 1.427 . S
N364 C361 1.384 . S
N365 C357 1.427 . S
N365 C363 1.384 . S
H366 C372 0.930 . S
H367 C376 0.930 . S
H368 C381 0.929 . S
H369 C379 0.929 . S
H370 C374 0.929 . S
H371 C380 0.929 . S
C372 H366 0.930 . S
C372 C373 1.367 . S
C372 C380 1.378 . S
C373 C372 1.367 . S
C373 C381 1.433 . S
C374 H370 0.929 . S
C374 C376 1.378 . S
C374 C378 1.350 . S
C375 C378 1.463 . S
C375 C380 1.350 . S
C375 N383 1.427 . S
C376 H367 0.930 . S
C376 C374 1.378 . S
C376 C377 1.367 . S
C377 C376 1.367 . S
C377 C379 1.433 . S
C378 C374 1.350 . S
C378 C375 1.463 . S
C378 N382 1.427 . S
C379 H369 0.929 . S
C379 C377 1.433 . S
C379 N382 1.384 . S
C380 H371 0.929 . S
C380 C372 1.378 . S
C380 C375 1.350 . S
C381 H368 0.929 . S
C381 C373 1.433 . S
C381 N383 1.384 . S
N382 C378 1.427 . S
N382 C379 1.384 . S
N383 C375 1.427 . S
N383 C381 1.384 . S
H384 C390 0.930 . S
H385 C394 0.930 . S
H386 C399 0.929 . S
H387 C397 0.929 . S
H388 C392 0.929 1_565 S
H389 C398 0.929 . S
C390 H384 0.930 . S
C390 C391 1.367 . S
C390 C398 1.378 . S
C391 C390 1.367 . S
C391 C399 1.433 . S
C392 H388 0.929 1_545 S
C392 C394 1.378 1_545 S
C392 C396 1.350 . S
C393 C396 1.463 . S
C393 C398 1.350 . S
C393 N401 1.427 . S
C394 H385 0.930 . S
C394 C392 1.378 1_565 S
C394 C395 1.367 1_565 S
C395 C394 1.367 1_545 S
C395 C397 1.433 . S
C396 C392 1.350 . S
C396 C393 1.463 . S
C396 N400 1.427 . S
C397 H387 0.929 . S
C397 C395 1.433 . S
C397 N400 1.384 . S
C398 H389 0.929 . S
C398 C390 1.378 . S
C398 C393 1.350 . S
C399 H386 0.929 . S
C399 C391 1.433 . S
C399 N401 1.384 . S
N400 C396 1.427 . S
N400 C397 1.384 . S
N401 C393 1.427 . S
N401 C399 1.384 . S
H402 C408 0.930 . S
H403 C412 0.930 . S
H404 C417 0.929 . S
H405 C415 0.929 . S
H406 C410 0.929 . S
H407 C416 0.929 . S
C408 H402 0.930 . S
C408 C409 1.367 . S
C408 C416 1.378 . S
C409 C408 1.367 . S
C409 C417 1.433 . S
C410 H406 0.929 . S
C410 C412 1.378 . S
C410 C414 1.350 . S
C411 C414 1.463 . S
C411 C416 1.350 . S
C411 N419 1.427 . S
C412 H403 0.930 . S
C412 C410 1.378 . S
C412 C413 1.367 . S
C413 C412 1.367 . S
C413 C415 1.433 . S
C414 C410 1.350 . S
C414 C411 1.463 . S
C414 N418 1.427 . S
C415 H405 0.929 . S
C415 C413 1.433 . S
C415 N418 1.384 . S
C416 H407 0.929 . S
C416 C408 1.378 . S
C416 C411 1.350 . S
C417 H404 0.929 . S
C417 C409 1.433 . S
C417 N419 1.384 . S
N418 C414 1.427 . S
N418 C415 1.384 . S
N419 C411 1.427 . S
N419 C417 1.384 . S
H420 C426 0.930 . S
H421 C430 0.930 1_655 S
H422 C435 0.929 . S
H423 C433 0.929 . S
H424 C428 0.929 . S
H425 C434 0.929 . S
C426 H420 0.930 . S
C426 C427 1.367 . S
C426 C434 1.378 . S
C427 C426 1.367 . S
C427 C435 1.433 . S
C428 H424 0.929 . S
C428 C430 1.378 . S
C428 C432 1.350 . S
C429 C432 1.463 . S
C429 C434 1.350 . S
C429 N437 1.427 . S
C430 H421 0.930 1_455 S
C430 C428 1.378 . S
C430 C431 1.367 . S
C431 C430 1.367 . S
C431 C433 1.433 . S
C432 C428 1.350 . S
C432 C429 1.463 . S
C432 N436 1.427 . S
C433 H423 0.929 . S
C433 C431 1.433 . S
C433 N436 1.384 . S
C434 H425 0.929 . S
C434 C426 1.378 . S
C434 C429 1.350 . S
C435 H422 0.929 . S
C435 C427 1.433 . S
C435 N437 1.384 . S
N436 C432 1.427 . S
N436 C433 1.384 . S
N437 C429 1.427 . S
N437 C435 1.384 . S
H438 C444 0.930 . S
H439 C448 0.930 . S
H440 C453 0.929 . S
H441 C451 0.928 1_545 S
H442 C446 0.929 . S
H443 C452 0.929 . S
C444 H438 0.930 . S
C444 C445 1.367 . S
C444 C452 1.378 . S
C445 C444 1.367 . S
C445 C453 1.433 . S
C446 H442 0.929 . S
C446 C448 1.378 . S
C446 C450 1.350 . S
C447 C450 1.463 . S
C447 C452 1.350 . S
C447 N455 1.427 . S
C448 H439 0.930 . S
C448 C446 1.378 . S
C448 C449 1.367 . S
C449 C448 1.367 . S
C449 C451 1.434 . S
C450 C446 1.350 . S
C450 C447 1.463 . S
C450 N454 1.427 . S
C451 H441 0.928 1_565 S
C451 C449 1.434 . S
C451 N454 1.384 . S
C452 H443 0.929 . S
C452 C444 1.378 . S
C452 C447 1.350 . S
C453 H440 0.929 . S
C453 C445 1.433 . S
C453 N455 1.384 . S
N454 C450 1.427 . S
N454 C451 1.384 . S
N455 C447 1.427 . S
N455 C453 1.384 . S
H456 C462 0.930 . S
H457 C466 0.930 . S
H458 C471 0.929 . S
H459 C469 0.929 1_554 S
H460 C464 0.929 . S
H461 C470 0.929 . S
C462 H456 0.930 . S
C462 C463 1.367 . S
C462 C470 1.378 . S
C463 C462 1.367 . S
C463 C471 1.433 . S
C464 H460 0.929 . S
C464 C466 1.378 1_556 S
C464 C468 1.350 . S
C465 C468 1.463 . S
C465 C470 1.350 . S
C465 N473 1.427 . S
C466 H457 0.930 . S
C466 C464 1.378 1_554 S
C466 C467 1.367 . S
C467 C466 1.367 . S
C467 C469 1.433 1_554 S
C468 C464 1.350 . S
C468 C465 1.463 . S
C468 N472 1.427 . S
C469 H459 0.929 1_556 S
C469 C467 1.433 1_556 S
C469 N472 1.384 . S
C470 H461 0.929 . S
C470 C462 1.378 . S
C470 C465 1.350 . S
C471 H458 0.929 . S
C471 C463 1.433 . S
C471 N473 1.384 . S
N472 C468 1.427 . S
N472 C469 1.384 . S
N473 C465 1.427 . S
N473 C471 1.384 . S
H474 C480 0.930 . S
H475 C484 0.930 . S
H476 C489 0.929 . S
H477 C487 0.929 . S
H478 C482 0.929 1_655 S
H479 C488 0.929 . S
C480 H474 0.930 . S
C480 C481 1.367 . S
C480 C488 1.378 . S
C481 C480 1.367 . S
C481 C489 1.433 . S
C482 H478 0.929 1_455 S
C482 C484 1.378 . S
C482 C486 1.350 . S
C483 C486 1.463 1_655 S
C483 C488 1.350 . S
C483 N491 1.427 . S
C484 H475 0.930 . S
C484 C482 1.378 . S
C484 C485 1.367 . S
C485 C484 1.367 . S
C485 C487 1.433 . S
C486 C482 1.350 . S
C486 C483 1.463 1_455 S
C486 N490 1.427 . S
C487 H477 0.929 . S
C487 C485 1.433 . S
C487 N490 1.384 . S
C488 H479 0.929 . S
C488 C480 1.378 . S
C488 C483 1.350 . S
C489 H476 0.929 . S
C489 C481 1.433 . S
C489 N491 1.384 . S
N490 C486 1.427 . S
N490 C487 1.384 . S
N491 C483 1.427 . S
N491 C489 1.384 . S
H492 C498 0.930 . S
H493 C502 0.930 . S
H494 C507 0.929 . S
H495 C505 0.929 . S
H496 C500 0.929 . S
H497 C506 0.929 . S
C498 H492 0.930 . S
C498 C499 1.367 . S
C498 C506 1.378 . S
C499 C498 1.367 . S
C499 C507 1.433 . S
C500 H496 0.929 . S
C500 C502 1.378 . S
C500 C504 1.350 . S
C501 C504 1.463 1_565 S
C501 C506 1.350 . S
C501 N509 1.427 . S
C502 H493 0.930 . S
C502 C500 1.378 . S
C502 C503 1.367 . S
C503 C502 1.367 . S
C503 C505 1.433 . S
C504 C500 1.350 . S
C504 C501 1.463 1_545 S
C504 N508 1.427 1_545 S
C505 H495 0.929 . S
C505 C503 1.433 . S
C505 N508 1.384 1_545 S
C506 H497 0.929 . S
C506 C498 1.378 . S
C506 C501 1.350 . S
C507 H494 0.929 . S
C507 C499 1.433 . S
C507 N509 1.384 . S
N508 C504 1.427 1_565 S
N508 C505 1.384 1_565 S
N509 C501 1.427 . S
N509 C507 1.384 . S
H510 C516 0.930 . S
H511 C520 0.930 . S
H512 C525 0.929 . S
H513 C523 0.929 . S
H514 C518 0.929 . S
H515 C524 0.929 . S
C516 H510 0.930 . S
C516 C517 1.367 . S
C516 C524 1.378 . S
C517 C516 1.367 . S
C517 C525 1.433 . S
C518 H514 0.929 . S
C518 C520 1.378 1_556 S
C518 C522 1.350 . S
C519 C522 1.463 . S
C519 C524 1.350 . S
C519 N527 1.427 . S
C520 H511 0.930 . S
C520 C518 1.378 1_554 S
C520 C521 1.367 . S
C521 C520 1.367 . S
C521 C523 1.433 1_554 S
C522 C518 1.350 . S
C522 C519 1.463 . S
C522 N526 1.427 . S
C523 H513 0.929 . S
C523 C521 1.433 1_556 S
C523 N526 1.384 . S
C524 H515 0.929 . S
C524 C516 1.378 . S
C524 C519 1.350 . S
C525 H512 0.929 . S
C525 C517 1.433 . S
C525 N527 1.384 . S
N526 C522 1.427 . S
N526 C523 1.384 . S
N527 C519 1.427 . S
N527 C525 1.384 . S
H528 C534 0.930 . S
H529 C538 0.930 1_455 S
H530 C543 0.929 . S
H531 C541 0.929 . S
H532 C536 0.929 . S
H533 C542 0.929 . S
C534 H528 0.930 . S
C534 C535 1.367 1_655 S
C534 C542 1.378 . S
C535 C534 1.367 1_455 S
C535 C543 1.433 . S
C536 H532 0.929 . S
C536 C538 1.378 1_455 S
C536 C540 1.350 1_455 S
C537 C540 1.468 . S
C537 C542 1.356 . S
C537 N545 1.415 1_655 S
C538 H529 0.930 1_655 S
C538 C536 1.378 1_655 S
C538 C539 1.367 . S
C539 C538 1.367 . S
C539 C541 1.433 . S
C540 C536 1.350 1_655 S
C540 C537 1.468 . S
C540 N544 1.427 . S
C541 H531 0.929 . S
C541 C539 1.433 . S
C541 N544 1.384 . S
C542 H533 0.929 . S
C542 C534 1.378 . S
C542 C537 1.356 . S
C543 H530 0.929 . S
C543 C535 1.433 . S
C543 N545 1.384 . S
N544 C540 1.427 . S
N544 C541 1.384 . S
N545 C537 1.415 1_455 S
N545 C543 1.384 . S
H546 C552 0.930 1_565 S
H547 C556 0.930 . S
H548 C561 0.929 . S
H549 C559 0.929 . S
H550 C554 0.929 1_545 S
H551 C560 0.929 . S
C552 H546 0.930 1_545 S
C552 C553 1.367 . S
C552 C560 1.378 1_545 S
C553 C552 1.367 . S
C553 C561 1.433 . S
C554 H550 0.929 1_565 S
C554 C556 1.378 . S
C554 C558 1.350 . S
C555 C558 1.463 1_545 S
C555 C560 1.350 1_545 S
C555 N563 1.427 . S
C556 H547 0.930 . S
C556 C554 1.378 . S
C556 C557 1.367 . S
C557 C556 1.367 . S
C557 C559 1.433 . S
C558 C554 1.350 . S
C558 C555 1.463 1_565 S
C558 N562 1.427 . S
C559 H549 0.929 . S
C559 C557 1.433 . S
C559 N562 1.384 . S
C560 H551 0.929 . S
C560 C552 1.378 1_565 S
C560 C555 1.350 1_565 S
C561 H548 0.929 . S
C561 C553 1.433 . S
C561 N563 1.384 . S
N562 C558 1.427 . S
N562 C559 1.384 . S
N563 C555 1.427 . S
N563 C561 1.384 . S
C247 C185 1.363 . S
C251 C20 1.368 . S
C265 C220 1.377 . S
C269 C65 1.373 . S
C283 C25 1.364 . S
C287 C100 1.369 . S
C301 C60 1.367 . S
C305 C145 1.363 . S
C319 C105 1.368 . S
C323 C180 1.373 . S
C337 C140 1.377 . S
C341 C225 1.374 . S
C355 C2 1.674 . S
C359 C143 1.595 . S
C373 C162 1.671 1_655 S
C377 C63 1.590 . S
C391 C223 1.580 . S
C395 C82 1.677 1_545 S
C409 C103 1.581 . S
C413 C202 1.670 . S
C427 C23 1.588 . S
C431 C122 1.670 1_455 S
C445 C183 1.595 . S
C449 C42 1.683 1_565 S
C463 C231 1.581 . S
C467 C31 1.576 . S
C481 C44 0.785 . S
C485 C4 0.765 . S
C499 C111 1.575 . S
C503 C71 1.579 . S
C517 C84 0.767 . S
C521 C124 0.782 . S
C535 C191 1.579 . S
C539 C151 1.582 . S
C553 C204 0.776 . S
C557 C164 0.772 . S
