# Generated by pormake.
# Topology svb, (7)-cn, num edge types: 1
# Building blocks:
#     Node 0, Type 0, BuildingBlock: NUHQUE_clean_sbu_2, # of connection points: 7
#     Node 1, Type 0, BuildingBlock: NUHQUE_clean_sbu_2, # of connection points: 7
#     Node 2, Type 0, BuildingBlock: NUHQUE_clean_sbu_2, # of connection points: 7
#     Node 3, Type 0, BuildingBlock: NUHQUE_clean_sbu_2, # of connection points: 7
#     Node 4, Type 0, BuildingBlock: NUHQUE_clean_sbu_2, # of connection points: 7
#     Node 5, Type 0, BuildingBlock: NUHQUE_clean_sbu_2, # of connection points: 7
#     Node 6, Type 0, BuildingBlock: NUHQUE_clean_sbu_2, # of connection points: 7
#     Node 7, Type 0, BuildingBlock: NUHQUE_clean_sbu_2, # of connection points: 7
#     Node 8, Type 0, BuildingBlock: NUHQUE_clean_sbu_2, # of connection points: 7
#     Node 9, Type 0, BuildingBlock: NUHQUE_clean_sbu_2, # of connection points: 7
#     Node 10, Type 0, BuildingBlock: NUHQUE_clean_sbu_2, # of connection points: 7
#     Node 11, Type 0, BuildingBlock: NUHQUE_clean_sbu_2, # of connection points: 7
#     Node 12, Type 0, BuildingBlock: NUHQUE_clean_sbu_2, # of connection points: 7
#     Node 13, Type 0, BuildingBlock: NUHQUE_clean_sbu_2, # of connection points: 7
#     Node 14, Type 0, BuildingBlock: NUHQUE_clean_sbu_2, # of connection points: 7
#     Node 15, Type 0, BuildingBlock: NUHQUE_clean_sbu_2, # of connection points: 7
#     Edge 16, Type (0, 0), BuildingBlock: UVAHIK_clean_linker_0, # of connection points: 2
#     Edge 17, Type (0, 0), BuildingBlock: UVAHIK_clean_linker_0, # of connection points: 2
#     Edge 18, Type (0, 0), BuildingBlock: UVAHIK_clean_linker_0, # of connection points: 2
#     Edge 19, Type (0, 0), BuildingBlock: UVAHIK_clean_linker_0, # of connection points: 2
#     Edge 20, Type (0, 0), BuildingBlock: UVAHIK_clean_linker_0, # of connection points: 2
#     Edge 21, Type (0, 0), BuildingBlock: UVAHIK_clean_linker_0, # of connection points: 2
#     Edge 22, Type (0, 0), BuildingBlock: UVAHIK_clean_linker_0, # of connection points: 2
#     Edge 23, Type (0, 0), BuildingBlock: UVAHIK_clean_linker_0, # of connection points: 2
#     Edge 24, Type (0, 0), BuildingBlock: UVAHIK_clean_linker_0, # of connection points: 2
#     Edge 25, Type (0, 0), BuildingBlock: UVAHIK_clean_linker_0, # of connection points: 2
#     Edge 26, Type (0, 0), BuildingBlock: UVAHIK_clean_linker_0, # of connection points: 2
#     Edge 27, Type (0, 0), BuildingBlock: UVAHIK_clean_linker_0, # of connection points: 2
#     Edge 28, Type (0, 0), BuildingBlock: UVAHIK_clean_linker_0, # of connection points: 2
#     Edge 29, Type (0, 0), BuildingBlock: UVAHIK_clean_linker_0, # of connection points: 2
#     Edge 30, Type (0, 0), BuildingBlock: UVAHIK_clean_linker_0, # of connection points: 2
#     Edge 31, Type (0, 0), BuildingBlock: UVAHIK_clean_linker_0, # of connection points: 2
#     Edge 32, Type (0, 0), BuildingBlock: UVAHIK_clean_linker_0, # of connection points: 2
#     Edge 33, Type (0, 0), BuildingBlock: UVAHIK_clean_linker_0, # of connection points: 2
#     Edge 34, Type (0, 0), BuildingBlock: UVAHIK_clean_linker_0, # of connection points: 2
#     Edge 35, Type (0, 0), BuildingBlock: UVAHIK_clean_linker_0, # of connection points: 2
#     Edge 36, Type (0, 0), BuildingBlock: UVAHIK_clean_linker_0, # of connection points: 2
#     Edge 37, Type (0, 0), BuildingBlock: UVAHIK_clean_linker_0, # of connection points: 2
#     Edge 38, Type (0, 0), BuildingBlock: UVAHIK_clean_linker_0, # of connection points: 2
#     Edge 39, Type (0, 0), BuildingBlock: UVAHIK_clean_linker_0, # of connection points: 2
#     Edge 40, Type (0, 0), BuildingBlock: UVAHIK_clean_linker_0, # of connection points: 2
#     Edge 41, Type (0, 0), BuildingBlock: UVAHIK_clean_linker_0, # of connection points: 2
#     Edge 42, Type (0, 0), BuildingBlock: UVAHIK_clean_linker_0, # of connection points: 2
#     Edge 43, Type (0, 0), BuildingBlock: UVAHIK_clean_linker_0, # of connection points: 2
#     Edge 44, Type (0, 0), BuildingBlock: UVAHIK_clean_linker_0, # of connection points: 2
#     Edge 45, Type (0, 0), BuildingBlock: UVAHIK_clean_linker_0, # of connection points: 2
#     Edge 46, Type (0, 0), BuildingBlock: UVAHIK_clean_linker_0, # of connection points: 2
#     Edge 47, Type (0, 0), BuildingBlock: UVAHIK_clean_linker_0, # of connection points: 2
#     Edge 48, Type (0, 0), BuildingBlock: UVAHIK_clean_linker_0, # of connection points: 2
#     Edge 49, Type (0, 0), BuildingBlock: UVAHIK_clean_linker_0, # of connection points: 2
#     Edge 50, Type (0, 0), BuildingBlock: UVAHIK_clean_linker_0, # of connection points: 2
#     Edge 51, Type (0, 0), BuildingBlock: UVAHIK_clean_linker_0, # of connection points: 2
#     Edge 52, Type (0, 0), BuildingBlock: UVAHIK_clean_linker_0, # of connection points: 2
#     Edge 53, Type (0, 0), BuildingBlock: UVAHIK_clean_linker_0, # of connection points: 2
#     Edge 54, Type (0, 0), BuildingBlock: UVAHIK_clean_linker_0, # of connection points: 2
#     Edge 55, Type (0, 0), BuildingBlock: UVAHIK_clean_linker_0, # of connection points: 2
#     Edge 56, Type (0, 0), BuildingBlock: UVAHIK_clean_linker_0, # of connection points: 2
#     Edge 57, Type (0, 0), BuildingBlock: UVAHIK_clean_linker_0, # of connection points: 2
#     Edge 58, Type (0, 0), BuildingBlock: UVAHIK_clean_linker_0, # of connection points: 2
#     Edge 59, Type (0, 0), BuildingBlock: UVAHIK_clean_linker_0, # of connection points: 2
#     Edge 60, Type (0, 0), BuildingBlock: UVAHIK_clean_linker_0, # of connection points: 2
#     Edge 61, Type (0, 0), BuildingBlock: UVAHIK_clean_linker_0, # of connection points: 2
#     Edge 62, Type (0, 0), BuildingBlock: UVAHIK_clean_linker_0, # of connection points: 2
#     Edge 63, Type (0, 0), BuildingBlock: UVAHIK_clean_linker_0, # of connection points: 2
#     Edge 64, Type (0, 0), BuildingBlock: UVAHIK_clean_linker_0, # of connection points: 2
#     Edge 65, Type (0, 0), BuildingBlock: UVAHIK_clean_linker_0, # of connection points: 2
#     Edge 66, Type (0, 0), BuildingBlock: UVAHIK_clean_linker_0, # of connection points: 2
#     Edge 67, Type (0, 0), BuildingBlock: UVAHIK_clean_linker_0, # of connection points: 2
#     Edge 68, Type (0, 0), BuildingBlock: UVAHIK_clean_linker_0, # of connection points: 2
#     Edge 69, Type (0, 0), BuildingBlock: UVAHIK_clean_linker_0, # of connection points: 2
#     Edge 70, Type (0, 0), BuildingBlock: UVAHIK_clean_linker_0, # of connection points: 2
#     Edge 71, Type (0, 0), BuildingBlock: UVAHIK_clean_linker_0, # of connection points: 2
# Relax obj value: 0.352
# Max RMSD: 0.314
# Mean RMSD: 0.297
data_MOF--net-svb--node1-NUHQUE_clean_sbu_2--edge1-UVAHIK_clean_linker_0
_symmetry_space_group_name_H-M    P1
_symmetry_Int_Tables_number       1
_symmetry_cell_setting            triclinic
loop_
_symmetry_equiv_pos_as_xyz
'x, y, z'
_cell_length_a     73.967591
_cell_length_b     72.863508
_cell_length_c     32.839323
_cell_angle_alpha  95.845126
_cell_angle_beta   93.108954
_cell_angle_gamma 89.971461
loop_
_atom_site_label
_atom_site_type_symbol
_atom_site_fract_x
_atom_site_fract_y
_atom_site_fract_z
_atom_type_partial_charge
O0 O 0.05139 0.34784 0.2016 0.0
Tb1 Tb 0.07255 0.34017 0.15896 0.0
Eu2 Eu 0.11198 0.3411 0.09939 0.0
C3 C 0.05547 0.35407 0.24012 0.0
O4 O 0.07251 0.35752 0.25167 0.0
C5 C 0.10892 0.32996 0.18956 0.0
O6 O 0.1197 0.32155 0.04456 0.0
C7 C 0.13574 0.36752 0.11682 0.0
C8 C 0.10721 0.31078 0.02425 0.0
O9 O 0.0906 0.31172 0.03643 0.0
C10 C 0.06995 0.35471 0.07079 0.0
C11 C 0.14645 0.38425 0.1103 0.0
C12 C 0.14252 0.40136 0.13198 0.0
C13 C 0.15397 0.41676 0.13134 0.0
C14 C 0.16961 0.41485 0.10871 0.0
C15 C 0.17407 0.39788 0.08703 0.0
C16 C 0.16224 0.38271 0.08784 0.0
O17 O 0.09821 0.34434 0.19327 0.0
O18 O 0.11285 0.32328 0.15229 0.0
O19 O 0.06354 0.31287 0.17087 0.0
O20 O 0.07837 0.31547 0.11814 0.0
C21 C 0.07075 0.30393 0.13963 0.0
O22 O 0.08666 0.34934 0.06273 0.0
O23 O 0.06334 0.35521 0.1076 0.0
O24 O 0.13928 0.35166 0.09597 0.0
O25 O 0.11885 0.36898 0.12766 0.0
H26 H 0.13072 0.40261 0.15022 0.0
H27 H 0.17881 0.42647 0.10981 0.0
H28 H 0.16554 0.36954 0.07164 0.0
O29 O 0.90946 0.8107 0.48472 0.0
Tb30 Tb 0.92053 0.82867 0.44305 0.0
Eu31 Eu 0.92544 0.86522 0.38899 0.0
C32 C 0.91664 0.81135 0.52243 0.0
O33 O 0.9297 0.82331 0.53371 0.0
C34 C 0.93865 0.86329 0.48118 0.0
O35 O 0.94381 0.87328 0.33947 0.0
C36 C 0.89821 0.88667 0.40734 0.0
C37 C 0.95263 0.85995 0.31842 0.0
O38 O 0.95035 0.84297 0.32723 0.0
C39 C 0.90582 0.82606 0.35197 0.0
C40 C 0.88067 0.89559 0.39636 0.0
C41 C 0.86443 0.89099 0.41409 0.0
C42 C 0.84837 0.9013 0.40846 0.0
C43 C 0.84902 0.91646 0.38495 0.0
C44 C 0.86506 0.92131 0.36751 0.0
C45 C 0.88064 0.91067 0.37292 0.0
O46 O 0.92326 0.85439 0.4826 0.0
O47 O 0.9447 0.86544 0.44501 0.0
O48 O 0.94458 0.8123 0.45444 0.0
O49 O 0.94487 0.83099 0.40888 0.0
C50 C 0.9544 0.81933 0.4283 0.0
O51 O 0.91607 0.84029 0.34634 0.0
O52 O 0.90243 0.82179 0.38895 0.0
O53 O 0.91306 0.89226 0.39169 0.0
O54 O 0.89849 0.86908 0.4134 0.0
H55 H 0.86444 0.87957 0.43278 0.0
H56 H 0.83725 0.92516 0.3818 0.0
H57 H 0.89299 0.91455 0.3596 0.0
O58 O 0.40877 0.69492 0.53526 0.0
Tb59 Tb 0.41926 0.67565 0.57733 0.0
Eu60 Eu 0.424 0.63997 0.63858 0.0
C61 C 0.40142 0.68921 0.49874 0.0
O62 O 0.39879 0.67146 0.48886 0.0
C63 C 0.43284 0.63907 0.54625 0.0
O64 O 0.4424 0.63248 0.69191 0.0
C65 C 0.39616 0.61819 0.62484 0.0
C66 C 0.45328 0.64534 0.71073 0.0
O67 O 0.45294 0.66177 0.69768 0.0
C68 C 0.40697 0.68073 0.66742 0.0
C69 C 0.3799 0.61094 0.64239 0.0
C70 C 0.36255 0.6165 0.62898 0.0
C71 C 0.34696 0.60803 0.64127 0.0
C72 C 0.34882 0.59395 0.66732 0.0
C73 C 0.36601 0.58782 0.67985 0.0
C74 C 0.38147 0.59654 0.66778 0.0
O75 O 0.41775 0.64852 0.5441 0.0
O76 O 0.44065 0.63764 0.58274 0.0
O77 O 0.44469 0.68768 0.56204 0.0
O78 O 0.44424 0.67346 0.61533 0.0
C79 C 0.45445 0.68202 0.59232 0.0
O80 O 0.41672 0.66637 0.67649 0.0
O81 O 0.40324 0.68448 0.62937 0.0
O82 O 0.41209 0.61289 0.63907 0.0
O83 O 0.39594 0.6354 0.61578 0.0
H84 H 0.36116 0.62696 0.6078 0.0
H85 H 0.33688 0.58674 0.67515 0.0
H86 H 0.39472 0.59154 0.677 0.0
O87 O 0.55023 0.15784 0.82252 0.0
Tb88 Tb 0.57088 0.16481 0.87199 0.0
Eu89 Eu 0.612 0.1698 0.92994 0.0
C90 C 0.55402 0.14876 0.78722 0.0
O91 O 0.57045 0.1423 0.78259 0.0
C92 C 0.60438 0.181 0.83862 0.0
O93 O 0.62185 0.18873 0.98726 0.0
C94 C 0.63228 0.14136 0.91043 0.0
C95 C 0.61119 0.20232 1.00116 0.0
O96 O 0.59568 0.20442 0.98102 0.0
C97 C 0.57463 0.15085 0.95644 0.0
C98 C 0.64242 0.12421 0.91799 0.0
C99 C 0.63799 0.10727 0.89451 0.0
C100 C 0.6491 0.09163 0.89742 0.0
C101 C 0.66495 0.09327 0.92314 0.0
C102 C 0.66991 0.1101 0.94579 0.0
C103 C 0.6583 0.12532 0.94378 0.0
O104 O 0.59361 0.16645 0.83327 0.0
O105 O 0.61075 0.18719 0.87588 0.0
O106 O 0.55277 0.18802 0.88733 0.0
O107 O 0.58034 0.18985 0.90833 0.0
C108 C 0.56509 0.19844 0.90784 0.0
O109 O 0.58812 0.16265 0.96626 0.0
O110 O 0.56971 0.1455 0.91785 0.0
O111 O 0.63853 0.15729 0.92829 0.0
O112 O 0.61455 0.14097 0.90364 0.0
H113 H 0.62615 0.10634 0.87347 0.0
H114 H 0.67399 0.08157 0.9236 0.0
H115 H 0.66203 0.13829 0.96133 0.0
O116 O 0.06181 0.65184 0.30984 0.0
Tb117 Tb 0.07947 0.66274 0.36217 0.0
Eu118 Eu 0.11425 0.66661 0.43624 0.0
C119 C 0.06545 0.65656 0.27347 0.0
O120 O 0.07997 0.66659 0.27062 0.0
C121 C 0.11498 0.6787 0.34848 0.0
O122 O 0.12266 0.68342 0.4967 0.0
C123 C 0.13328 0.63745 0.41583 0.0
C124 C 0.11703 0.70065 0.50262 0.0
O125 O 0.10795 0.70752 0.47223 0.0
C126 C 0.07372 0.65056 0.44945 0.0
C127 C 0.1419 0.61938 0.42162 0.0
C128 C 0.13675 0.60342 0.39533 0.0
C129 C 0.14682 0.58698 0.39604 0.0
C130 C 0.16235 0.58682 0.42258 0.0
C131 C 0.16794 0.60267 0.44796 0.0
C132 C 0.15742 0.61869 0.44817 0.0
O133 O 0.10648 0.66282 0.33979 0.0
O134 O 0.116 0.68576 0.38698 0.0
O135 O 0.06946 0.68903 0.34446 0.0
O136 O 0.07973 0.68761 0.40577 0.0
C137 C 0.07324 0.69842 0.37955 0.0
O138 O 0.08814 0.66017 0.46439 0.0
O139 O 0.06997 0.64669 0.4096 0.0
O140 O 0.13994 0.65243 0.43731 0.0
O141 O 0.11582 0.63839 0.40601 0.0
H142 H 0.12525 0.60393 0.37359 0.0
H143 H 0.17063 0.57452 0.42212 0.0
H144 H 0.16214 0.63104 0.46694 0.0
O145 O 0.55788 0.84723 0.74465 0.0
Tb146 Tb 0.57843 0.83795 0.70166 0.0
Eu147 Eu 0.61711 0.83861 0.63853 0.0
C148 C 0.56106 0.84612 0.78423 0.0
O149 O 0.57695 0.8402 0.79693 0.0
C150 C 0.61486 0.82578 0.72807 0.0
O151 O 0.62216 0.81716 0.58498 0.0
C152 C 0.64291 0.86341 0.6513 0.0
C153 C 0.60831 0.80851 0.56438 0.0
O154 O 0.59191 0.81231 0.57603 0.0
C155 C 0.57511 0.85375 0.61382 0.0
C156 C 0.65248 0.88059 0.6423 0.0
C157 C 0.64758 0.89799 0.66144 0.0
C158 C 0.65788 0.91395 0.65765 0.0
C159 C 0.67326 0.91236 0.63407 0.0
C160 C 0.67899 0.89512 0.61569 0.0
C161 C 0.66831 0.87935 0.61976 0.0
O162 O 0.60475 0.84057 0.73397 0.0
O163 O 0.61832 0.8199 0.69001 0.0
O164 O 0.57089 0.81058 0.71622 0.0
O165 O 0.58097 0.81357 0.65778 0.0
C166 C 0.57545 0.8019 0.68185 0.0
O167 O 0.59188 0.84899 0.60491 0.0
O168 O 0.5686 0.85306 0.65053 0.0
O169 O 0.64406 0.84827 0.62609 0.0
O170 O 0.62749 0.86474 0.66971 0.0
H171 H 0.63591 0.89909 0.68011 0.0
H172 H 0.68113 0.92463 0.63117 0.0
H173 H 0.67278 0.86592 0.60706 0.0
O174 O 0.41336 0.30439 0.96941 0.0
Tb175 Tb 0.42159 0.32559 0.93163 0.0
Eu176 Eu 0.42698 0.36512 0.89016 0.0
C177 C 0.40419 0.30847 1.0024 0.0
O178 O 0.39894 0.32556 1.01137 0.0
C179 C 0.43913 0.35896 0.98217 0.0
O180 O 0.44436 0.3752 0.84102 0.0
C181 C 0.39821 0.38408 0.90886 0.0
C182 C 0.4616 0.37035 0.84038 0.0
O183 O 0.46839 0.36166 0.87074 0.0
C184 C 0.40655 0.32888 0.84479 0.0
C185 C 0.38086 0.39229 0.8947 0.0
C186 C 0.3645 0.38867 0.91304 0.0
C187 C 0.34858 0.3987 0.90441 0.0
C188 C 0.34931 0.41209 0.87646 0.0
C189 C 0.36554 0.4162 0.85915 0.0
C190 C 0.38108 0.40598 0.86759 0.0
O191 O 0.42486 0.34803 0.98048 0.0
O192 O 0.44507 0.36438 0.94815 0.0
O193 O 0.44415 0.30668 0.92003 0.0
O194 O 0.44572 0.33384 0.90277 0.0
C195 C 0.45413 0.31834 0.90372 0.0
O196 O 0.41938 0.34125 0.84269 0.0
O197 O 0.40169 0.32443 0.8805 0.0
O198 O 0.41342 0.39144 0.89866 0.0
O199 O 0.39911 0.36609 0.91001 0.0
H200 H 0.36443 0.37878 0.93555 0.0
H201 H 0.33736 0.42007 0.86958 0.0
H202 H 0.3936 0.40935 0.85429 0.0
O203 O 0.91043 0.19177 0.99865 0.0
Tb204 Tb 0.92213 0.17193 0.03822 0.0
Eu205 Eu 0.92956 0.1359 0.10157 0.0
C206 C 0.90386 0.18646 0.9612 0.0
O207 O 0.90317 0.16874 0.94884 0.0
C208 C 0.93786 0.13609 1.00859 0.0
O209 O 0.94908 0.13057 0.15482 0.0
C210 C 0.90256 0.11276 0.09175 0.0
C211 C 0.96509 0.1387 0.15876 0.0
O212 O 0.96983 0.14851 0.12965 0.0
C213 C 0.9105 0.17563 0.12924 0.0
C214 C 0.88621 0.10597 0.11021 0.0
C215 C 0.86897 0.11274 0.09909 0.0
C216 C 0.85321 0.10521 0.11293 0.0
C217 C 0.85478 0.09073 0.1379 0.0
C218 C 0.8717 0.08316 0.14796 0.0
C219 C 0.88741 0.09106 0.13453 0.0
O220 O 0.92207 0.14439 1.00685 0.0
O221 O 0.94576 0.13451 0.04498 0.0
O222 O 0.94799 0.18106 0.01864 0.0
O223 O 0.94642 0.17396 0.07958 0.0
C224 C 0.95712 0.17917 0.05279 0.0
O225 O 0.92175 0.16236 0.13815 0.0
O226 O 0.90592 0.17894 0.09118 0.0
O227 O 0.91859 0.10868 0.10778 0.0
O228 O 0.90192 0.12929 0.07874 0.0
H229 H 0.86772 0.12362 0.07894 0.0
H230 H 0.84259 0.08478 0.14812 0.0
H231 H 0.90047 0.08502 0.14133 0.0
O232 O 0.95008 0.65574 0.80059 0.0
Tb233 Tb 0.93086 0.66746 0.8443 0.0
Eu234 Eu 0.89463 0.67311 0.90858 0.0
C235 C 0.94486 0.64907 0.76296 0.0
O236 O 0.92748 0.64744 0.75289 0.0
C237 C 0.89513 0.68195 0.8168 0.0
O238 O 0.88591 0.6911 0.96477 0.0
C239 C 0.87531 0.64324 0.89359 0.0
C240 C 0.89712 0.7042 0.98129 0.0
O241 O 0.91251 0.70623 0.96421 0.0
C242 C 0.93479 0.65775 0.93469 0.0
C243 C 0.86798 0.62715 0.91152 0.0
C244 C 0.87132 0.60923 0.89321 0.0
C245 C 0.86249 0.59382 0.90587 0.0
C246 C 0.85066 0.59657 0.93801 0.0
C247 C 0.84673 0.61436 0.95563 0.0
C248 C 0.85561 0.62957 0.94269 0.0
O249 O 0.90453 0.66661 0.81209 0.0
O250 O 0.89292 0.68967 0.85419 0.0
O251 O 0.94405 0.69252 0.82961 0.0
O252 O 0.92843 0.69376 0.88219 0.0
C253 C 0.93789 0.70331 0.85957 0.0
O254 O 0.92095 0.6685 0.94401 0.0
O255 O 0.9383 0.65211 0.89639 0.0
O256 O 0.86855 0.65953 0.90529 0.0
O257 O 0.89277 0.64366 0.88757 0.0
H258 H 0.88 0.60744 0.86756 0.0
H259 H 0.84365 0.58489 0.94788 0.0
H260 H 0.85231 0.64331 0.95592 0.0
O261 O 0.10587 0.2088 0.54254 0.0
Tb262 Tb 0.10013 0.18815 0.58443 0.0
Eu263 Eu 0.09136 0.14632 0.62629 0.0
C264 C 0.11248 0.20435 0.50633 0.0
O265 O 0.11725 0.18718 0.49632 0.0
C266 C 0.07858 0.15573 0.53522 0.0
O267 O 0.07172 0.13982 0.67358 0.0
C268 C 0.11525 0.12028 0.61485 0.0
C269 C 0.05484 0.14559 0.67158 0.0
O270 O 0.04918 0.15427 0.64018 0.0
C271 C 0.11622 0.18094 0.667 0.0
C272 C 0.13136 0.11131 0.63362 0.0
C273 C 0.14879 0.11575 0.62223 0.0
C274 C 0.16427 0.10662 0.63672 0.0
C275 C 0.16204 0.09296 0.66345 0.0
C276 C 0.14477 0.08774 0.67424 0.0
C277 C 0.12946 0.097 0.65912 0.0
O278 O 0.09306 0.1663 0.53578 0.0
O279 O 0.07337 0.14935 0.56897 0.0
O280 O 0.08747 0.21055 0.62115 0.0
O281 O 0.07429 0.18437 0.61213 0.0
C282 C 0.07372 0.20104 0.63035 0.0
O283 O 0.10246 0.16983 0.67075 0.0
O284 O 0.12144 0.1837 0.63029 0.0
O285 O 0.09933 0.11767 0.62944 0.0
O286 O 0.11731 0.13701 0.60372 0.0
H287 H 0.15019 0.12587 0.60061 0.0
H288 H 0.1738 0.08589 0.67513 0.0
H289 H 0.1161 0.09294 0.66698 0.0
O290 O 0.60093 0.31086 0.50059 0.0
Tb291 Tb 0.59285 0.33094 0.45769 0.0
Eu292 Eu 0.59099 0.37009 0.40557 0.0
C293 C 0.5923 0.31086 0.53475 0.0
O294 O 0.57966 0.32326 0.54188 0.0
C295 C 0.57897 0.36672 0.49716 0.0
O296 O 0.57148 0.3761 0.35302 0.0
C297 C 0.61666 0.39496 0.41738 0.0
C298 C 0.55384 0.37446 0.35525 0.0
O299 O 0.5474 0.37077 0.39002 0.0
C300 C 0.60744 0.3291 0.37017 0.0
C301 C 0.63271 0.40464 0.40332 0.0
C302 C 0.65022 0.40052 0.41885 0.0
C303 C 0.66543 0.411 0.41096 0.0
C304 C 0.66293 0.42578 0.38671 0.0
C305 C 0.64554 0.43061 0.37135 0.0
C306 C 0.63055 0.41979 0.3797 0.0
O307 O 0.59316 0.35593 0.49974 0.0
O308 O 0.57326 0.37122 0.46074 0.0
O309 O 0.56699 0.3168 0.45846 0.0
O310 O 0.5696 0.33716 0.41718 0.0
C311 C 0.55858 0.32567 0.43087 0.0
O312 O 0.59877 0.34457 0.36375 0.0
O313 O 0.6105 0.32391 0.40737 0.0
O314 O 0.60049 0.39805 0.40075 0.0
O315 O 0.61849 0.37812 0.42852 0.0
H316 H 0.652 0.38932 0.43799 0.0
H317 H 0.67459 0.43387 0.38067 0.0
H318 H 0.61706 0.42367 0.36936 0.0
O319 O 0.40488 0.8068 0.05926 0.0
Tb320 Tb 0.41614 0.82537 0.11073 0.0
Eu321 Eu 0.42026 0.8604 0.18957 0.0
C322 C 0.40253 0.81233 0.02238 0.0
O323 O 0.40553 0.82971 0.01766 0.0
C324 C 0.43121 0.86205 0.09857 0.0
O325 O 0.43716 0.86796 0.24959 0.0
C326 C 0.38997 0.87792 0.18178 0.0
C327 C 0.45505 0.86744 0.25041 0.0
O328 O 0.46284 0.86458 0.21534 0.0
C329 C 0.40571 0.81897 0.19879 0.0
C330 C 0.37283 0.88864 0.17842 0.0
C331 C 0.3576 0.8822 0.15273 0.0
C332 C 0.34186 0.89321 0.15002 0.0
C333 C 0.34166 0.91067 0.1724 0.0
C334 C 0.35663 0.91723 0.19758 0.0
C335 C 0.372 0.90612 0.20072 0.0
O336 O 0.41597 0.85274 0.0905 0.0
O337 O 0.43784 0.86425 0.13681 0.0
O338 O 0.44093 0.81244 0.08964 0.0
O339 O 0.44147 0.82768 0.14846 0.0
C340 C 0.45113 0.81847 0.12161 0.0
O341 O 0.41637 0.83284 0.21355 0.0
O342 O 0.40055 0.81618 0.1595 0.0
O343 O 0.40429 0.88493 0.2036 0.0
O344 O 0.39199 0.86097 0.16446 0.0
H345 H 0.35794 0.8688 0.13518 0.0
H346 H 0.3297 0.91921 0.17023 0.0
H347 H 0.38358 0.91142 0.22002 0.0
O348 O 0.89614 0.29753 0.52847 0.0
Tb349 Tb 0.90458 0.3143 0.58514 0.0
Eu350 Eu 0.91425 0.35344 0.648 0.0
C351 C 0.90851 0.2941 0.50132 0.0
O352 O 0.92497 0.30052 0.51069 0.0
C353 C 0.92885 0.34467 0.5592 0.0
O354 O 0.93178 0.36226 0.70611 0.0
C355 C 0.88918 0.37652 0.6278 0.0
C356 C 0.94917 0.35802 0.7074 0.0
O357 O 0.95596 0.35022 0.67378 0.0
C358 C 0.88924 0.31942 0.6688 0.0
C359 C 0.87267 0.38733 0.63856 0.0
C360 C 0.8561 0.38397 0.61536 0.0
C361 C 0.84104 0.39559 0.62238 0.0
C362 C 0.84293 0.41089 0.65204 0.0
C363 C 0.8594 0.41475 0.67467 0.0
C364 C 0.87402 0.40266 0.66831 0.0
O365 O 0.91321 0.33627 0.55019 0.0
O366 O 0.93418 0.34912 0.59782 0.0
O367 O 0.91899 0.28941 0.59866 0.0
O368 O 0.92899 0.31549 0.62584 0.0
C369 C 0.93125 0.29773 0.6238 0.0
O370 O 0.90297 0.33057 0.68091 0.0
O371 O 0.88387 0.31661 0.62963 0.0
O372 O 0.90468 0.38153 0.64752 0.0
O373 O 0.88776 0.35857 0.618 0.0
H374 H 0.85498 0.37251 0.59156 0.0
H375 H 0.83172 0.42037 0.65596 0.0
H376 H 0.88669 0.40555 0.68591 0.0
O377 O 0.44333 0.15569 0.29823 0.0
Tb378 Tb 0.42763 0.16771 0.34882 0.0
Eu379 Eu 0.38981 0.17656 0.40695 0.0
C380 C 0.44475 0.16537 0.26669 0.0
O381 O 0.43594 0.18103 0.26685 0.0
C382 C 0.39329 0.18446 0.31454 0.0
O383 O 0.38212 0.19696 0.45952 0.0
C384 C 0.36667 0.14953 0.39554 0.0
C385 C 0.39176 0.21212 0.4686 0.0
O386 O 0.40504 0.21538 0.44535 0.0
C387 C 0.42774 0.15802 0.43847 0.0
C388 C 0.35813 0.13371 0.4124 0.0
C389 C 0.36193 0.11576 0.3953 0.0
C390 C 0.35248 0.10052 0.40641 0.0
C391 C 0.33909 0.10329 0.43498 0.0
C392 C 0.33479 0.12111 0.45232 0.0
C393 C 0.34451 0.1363 0.44097 0.0
O394 O 0.40258 0.16901 0.31143 0.0
O395 O 0.38966 0.19231 0.35109 0.0
O396 O 0.44913 0.18826 0.35055 0.0
O397 O 0.42405 0.19619 0.37517 0.0
C398 C 0.43993 0.20196 0.36711 0.0
O399 O 0.4148 0.1702 0.44594 0.0
O400 O 0.43127 0.15148 0.40077 0.0
O401 O 0.36247 0.16631 0.41065 0.0
O402 O 0.38359 0.14791 0.38487 0.0
H403 H 0.37194 0.11365 0.37237 0.0
H404 H 0.33125 0.09152 0.44177 0.0
H405 H 0.3412 0.15011 0.45369 0.0
O406 O 0.55998 0.65093 0.20361 0.0
Tb407 Tb 0.5768 0.66204 0.15946 0.0
Eu408 Eu 0.612 0.66846 0.10405 0.0
C409 C 0.55921 0.66007 0.24019 0.0
O410 O 0.56928 0.67495 0.249 0.0
C411 C 0.61057 0.68127 0.19835 0.0
O412 O 0.62055 0.68726 0.05608 0.0
C413 C 0.63091 0.63938 0.11637 0.0
C414 C 0.60795 0.69754 0.03926 0.0
O415 O 0.59144 0.69673 0.05182 0.0
C416 C 0.57427 0.64876 0.06753 0.0
C417 C 0.64229 0.62288 0.12301 0.0
C418 C 0.63588 0.60748 0.14153 0.0
C419 C 0.64745 0.59234 0.14791 0.0
C420 C 0.66544 0.59309 0.13622 0.0
C421 C 0.672 0.6084 0.11897 0.0
C422 C 0.66039 0.62307 0.11224 0.0
O423 O 0.60147 0.66575 0.1987 0.0
O424 O 0.61334 0.68751 0.16294 0.0
O425 O 0.55785 0.68481 0.16875 0.0
O426 O 0.58012 0.68778 0.13182 0.0
C427 C 0.56624 0.69599 0.14775 0.0
O428 O 0.58706 0.66085 0.06321 0.0
O429 O 0.5712 0.64352 0.10381 0.0
O430 O 0.63712 0.65325 0.09813 0.0
O431 O 0.61399 0.64104 0.12668 0.0
H432 H 0.62204 0.60722 0.15066 0.0
H433 H 0.67467 0.58195 0.14194 0.0
H434 H 0.66561 0.63477 0.09858 0.0
O435 O 0.10212 0.80568 1.0071 0.0
Tb436 Tb 0.09324 0.82643 0.96684 0.0
Eu437 Eu 0.0923 0.86411 0.9074 0.0
C438 C 0.10052 0.80898 0.04694 0.0
O439 O 0.09425 0.82507 0.0614 0.0
C440 C 0.07979 0.86313 0.99798 0.0
O441 O 0.07287 0.871 0.85478 0.0
C442 C 0.11907 0.88749 0.92406 0.0
C443 C 0.0632 0.85758 0.83399 0.0
O444 O 0.065 0.84082 0.84494 0.0
C445 C 0.10802 0.82222 0.87759 0.0
C446 C 0.13626 0.89617 0.91321 0.0
C447 C 0.15311 0.89112 0.93109 0.0
C448 C 0.16914 0.90097 0.92578 0.0
C449 C 0.16802 0.91607 0.9021 0.0
C450 C 0.15134 0.92165 0.88454 0.0
C451 C 0.13562 0.91147 0.89009 0.0
O452 O 0.0945 0.8532 1.00236 0.0
O453 O 0.07381 0.86564 0.96046 0.0
O454 O 0.06613 0.81829 0.98082 0.0
O455 O 0.0701 0.8282 0.9232 0.0
C456 C 0.05822 0.82254 0.94683 0.0
O457 O 0.10085 0.83813 0.86921 0.0
O458 O 0.10959 0.81704 0.91516 0.0
O459 O 0.10383 0.89134 0.90413 0.0
O460 O 0.11936 0.87068 0.93562 0.0
H461 H 0.1537 0.87972 0.94986 0.0
H462 H 0.18016 0.92387 0.89824 0.0
H463 H 0.12265 0.91607 0.87806 0.0
C464 C 0.9876 0.17991 0.0251 0.0
C465 C 0.97675 0.18154 0.05898 0.0
C466 C 1.00607 0.18389 0.03022 0.0
C467 C 0.0427 0.19979 0.1098 0.0
H468 H 0.05038 0.23578 0.03329 0.0
C469 C 0.06219 0.27297 0.15744 0.0
C470 C 0.07037 0.28378 0.13061 0.0
C471 C 0.0598 0.25409 0.147 0.0
C472 C 0.04899 0.22544 0.0544 0.0
H473 H 0.9766 0.18708 0.12492 0.0
H474 H 0.00857 0.19513 0.13394 0.0
H475 H 0.02789 0.21205 1.01613 0.0
H476 H 0.08428 0.28322 0.07418 0.0
H477 H 0.0797 0.25016 0.05519 0.0
H478 H 0.06275 0.21461 0.14973 0.0
C479 C 1.00315 0.19029 0.10346 0.0
C480 C 0.03597 0.2117 0.04453 0.0
C481 C 0.98475 0.18594 0.09835 0.0
C482 C 0.07751 0.27522 0.09481 0.0
C483 C 0.07504 0.2563 0.08418 0.0
C484 C 0.05569 0.21366 0.11981 0.0
C485 C 0.01389 0.19005 0.06922 0.0
C486 C 0.03173 0.19959 0.07341 0.0
C487 C 0.06549 0.2457 0.10941 0.0
C488 C 0.05793 0.22741 0.09341 0.0
H489 H 0.98172 0.17599 0.9945 0.0
H490 H 0.01401 0.18311 1.00335 0.0
H491 H 0.04019 0.19025 0.13211 0.0
H492 H 0.05687 0.27922 0.18565 0.0
H493 H 0.0522 0.24642 0.16696 0.0
C494 C 0.07386 0.72917 0.35401 0.0
C495 C 0.07204 0.71849 0.38671 0.0
C496 C 0.07087 0.74812 0.35924 0.0
C497 C 0.05552 0.78602 0.43629 0.0
H498 H 0.02173 0.79406 0.3455 0.0
C499 C 0.98318 0.8059 0.45326 0.0
C500 C 0.9739 0.81626 0.42522 0.0
C501 C 1.00159 0.80247 0.45018 0.0
C502 C 0.03147 0.79251 0.37077 0.0
H503 H 0.06739 0.71904 0.45122 0.0
H504 H 0.06054 0.7518 0.4599 0.0
H505 H 0.04482 0.77104 0.33592 0.0
H506 H 0.97666 0.83231 0.37387 0.0
H507 H 0.00886 0.82557 0.3672 0.0
H508 H 0.04044 0.80626 0.47214 0.0
C509 C 0.06492 0.74596 0.43046 0.0
C510 C 0.04486 0.77922 0.36533 0.0
C511 C 0.06855 0.72709 0.42549 0.0
C512 C 0.98346 0.82393 0.39525 0.0
C513 C 1.00189 0.82029 0.39178 0.0
C514 C 0.04189 0.79915 0.44187 0.0
C515 C 0.06523 0.75656 0.39685 0.0
C516 C 0.05616 0.77483 0.39886 0.0
C517 C 0.01101 0.80919 0.41873 0.0
C518 C 0.02899 0.8015 0.40985 0.0
H519 H 0.07715 0.72279 0.32406 0.0
H520 H 0.0719 0.75591 0.33308 0.0
H521 H 0.06447 0.78352 0.46232 0.0
H522 H 0.97615 0.8001 0.47711 0.0
H523 H 0.00817 0.79358 0.47092 0.0
C524 C 0.57577 0.77036 0.70381 0.0
C525 C 0.57447 0.78188 0.67213 0.0
C526 C 0.57222 0.75153 0.69553 0.0
C527 C 0.55608 0.71565 0.61033 0.0
H528 H 0.52174 0.7061 0.69077 0.0
C529 C 0.48377 0.67667 0.63049 0.0
C530 C 0.47416 0.68438 0.59843 0.0
C531 C 0.50221 0.68038 0.63838 0.0
C532 C 0.53158 0.70808 0.66833 0.0
H533 H 0.57025 0.78289 0.60673 0.0
H534 H 0.56259 0.75039 0.59235 0.0
H535 H 0.54518 0.72874 0.70878 0.0
H536 H 0.47644 0.70043 0.54691 0.0
H537 H 0.50854 0.70717 0.56088 0.0
H538 H 0.54085 0.69617 0.56863 0.0
C539 C 0.56693 0.75546 0.62346 0.0
C540 C 0.5452 0.72115 0.6787 0.0
C541 C 0.57107 0.7742 0.63165 0.0
C542 C 0.48351 0.69459 0.5723 0.0
C543 C 0.50195 0.69821 0.57994 0.0
C544 C 0.54222 0.70274 0.59977 0.0
C545 C 0.56657 0.74405 0.65565 0.0
C546 C 0.55684 0.72604 0.64897 0.0
C547 C 0.51133 0.6917 0.61395 0.0
C548 C 0.52919 0.69977 0.62798 0.0
H549 H 0.57893 0.77603 0.7352 0.0
H550 H 0.57276 0.74308 0.72085 0.0
H551 H 0.56523 0.71855 0.58714 0.0
H552 H 0.47699 0.66822 0.65017 0.0
H553 H 0.50915 0.6751 0.66461 0.0
C554 C 0.48559 0.32965 0.91747 0.0
C555 C 0.47349 0.31615 0.89847 0.0
C556 C 0.50416 0.32617 0.91966 0.0
C557 C 0.53248 0.29949 0.95462 0.0
H558 H 0.55891 0.27361 0.86779 0.0
C559 C 0.54632 0.22486 0.93348 0.0
C560 C 0.56307 0.218 0.92157 0.0
C561 C 0.54385 0.24381 0.94117 0.0
C562 C 0.55226 0.28133 0.89266 0.0
H563 H 0.47088 0.28918 0.86464 0.0
H564 H 0.50343 0.28322 0.86723 0.0
H565 H 0.53734 0.29749 0.85159 0.0
H566 H 0.59067 0.22509 0.90983 0.0
H567 H 0.58593 0.25852 0.92098 0.0
H568 H 0.5452 0.28121 0.99438 0.0
C569 C 0.49866 0.29649 0.88028 0.0
C570 C 0.53992 0.29495 0.88332 0.0
C571 C 0.48009 0.29975 0.87911 0.0
C572 C 0.57762 0.2302 0.91929 0.0
C573 C 0.57501 0.24922 0.92585 0.0
C574 C 0.54453 0.28559 0.96377 0.0
C575 C 0.51073 0.30935 0.90195 0.0
C576 C 0.52894 0.30298 0.91368 0.0
C577 C 0.55798 0.25612 0.93594 0.0
C578 C 0.55333 0.27547 0.93213 0.0
H579 H 0.48061 0.34226 0.93335 0.0
H580 H 0.51322 0.33605 0.93722 0.0
H581 H 0.52409 0.30551 0.97848 0.0
H582 H 0.53498 0.21563 0.93539 0.0
H583 H 0.53048 0.24891 0.94811 0.0
C584 C 0.95149 0.732 0.83952 0.0
C585 C 0.94057 0.72339 0.86557 0.0
C586 C 0.95529 0.75081 0.84705 0.0
C587 C 0.96383 0.78247 0.93541 0.0
H588 H 0.97743 0.81422 0.85424 0.0
C589 C 0.02687 0.82457 0.96976 0.0
C590 C 0.03865 0.82188 0.93773 0.0
C591 C 0.0083 0.82182 0.96197 0.0
C592 C 0.97365 0.80562 0.87744 0.0
H593 H 0.92349 0.72789 0.91705 0.0
H594 H 0.93064 0.7607 0.9313 0.0
H595 H 0.95465 0.79014 0.83579 0.0
H596 H 0.04056 0.81586 0.87229 0.0
H597 H 0.00845 0.80958 0.85873 0.0
H598 H 0.98398 0.79617 0.97574 0.0
C599 C 0.9363 0.7529 0.90518 0.0
C600 C 0.9605 0.79195 0.86691 0.0
C601 C 0.93242 0.73409 0.89741 0.0
C602 C 0.03163 0.81779 0.89744 0.0
C603 C 0.01313 0.81446 0.88974 0.0
C604 C 0.97713 0.79588 0.94572 0.0
C605 C 0.94827 0.7613 0.88087 0.0
C606 C 0.95643 0.77948 0.89505 0.0
C607 C 1.00133 0.81559 0.92223 0.0
C608 C 0.98315 0.8067 0.91593 0.0
H609 H 0.9577 0.72408 0.81428 0.0
H610 H 0.96477 0.75682 0.82808 0.0
H611 H 0.96097 0.77308 0.95782 0.0
H612 H 0.03206 0.8283 1.00101 0.0
H613 H 0.99959 0.82348 0.98753 0.0
C614 C 0.04241 0.20104 0.65434 0.0
C615 C 0.06003 0.2082 0.65825 0.0
C616 C 0.0288 0.20992 0.67655 0.0
C617 C 0.01933 0.2574 0.71142 0.0
H618 H 0.97233 0.23619 0.72537 0.0
C619 C 0.95599 0.29835 0.67859 0.0
C620 C 0.94455 0.2883 0.64891 0.0
C621 C 0.96897 0.28925 0.70151 0.0
C622 C 0.98543 0.24237 0.72222 0.0
H623 H 0.07804 0.22853 0.69181 0.0
H624 H 0.05437 0.24385 0.73139 0.0
H625 H 0.99934 0.21701 0.72918 0.0
H626 H 0.93677 0.26096 0.62145 0.0
H627 H 0.95971 0.24511 0.66021 0.0
H628 H 1.00547 0.28226 0.70127 0.0
C629 C 0.05083 0.23181 0.71032 0.0
C630 C 1.00087 0.23141 0.72438 0.0
C631 C 0.06434 0.22313 0.68757 0.0
C632 C 0.94562 0.26902 0.64385 0.0
C633 C 0.95856 0.25993 0.66662 0.0
C634 C 1.00395 0.26832 0.70933 0.0
C635 C 0.03272 0.22597 0.70328 0.0
C636 C 0.0178 0.23849 0.71609 0.0
C637 C 0.97068 0.26997 0.69499 0.0
C638 C 0.98674 0.26055 0.71179 0.0
H639 H 0.03887 0.18947 0.63197 0.0
H640 H 0.015 0.20508 0.67003 0.0
H641 H 0.03211 0.26339 0.70481 0.0
H642 H 0.95513 0.31323 0.6836 0.0
H643 H 0.97804 0.29734 0.72335 0.0
C644 C 0.433 0.23563 0.37788 0.0
C645 C 0.44531 0.22137 0.36813 0.0
C646 C 0.4379 0.25401 0.37543 0.0
C647 C 0.47263 0.28242 0.33303 0.0
H648 H 0.47137 0.31297 0.43645 0.0
C649 C 0.52797 0.31589 0.44604 0.0
C650 C 0.53921 0.32371 0.41948 0.0
C651 C 0.50987 0.31233 0.43456 0.0
C652 C 0.47155 0.30485 0.40694 0.0
H653 H 0.47215 0.2149 0.34769 0.0
H654 H 0.48083 0.24678 0.34411 0.0
H655 H 0.451 0.28659 0.42257 0.0
H656 H 0.54036 0.33505 0.36125 0.0
H657 H 0.50844 0.32868 0.34066 0.0
H658 H 0.4947 0.29908 0.31946 0.0
C659 C 0.46729 0.24391 0.35289 0.0
C660 C 0.45977 0.2898 0.39888 0.0
C661 C 0.46246 0.22566 0.35563 0.0
C662 C 0.53186 0.329 0.3822 0.0
C663 C 0.51363 0.32537 0.37049 0.0
C664 C 0.48455 0.29728 0.34131 0.0
C665 C 0.45507 0.25829 0.3626 0.0
C666 C 0.4614 0.27756 0.36342 0.0
C667 C 0.5026 0.31638 0.39601 0.0
C668 C 0.48526 0.30752 0.38001 0.0
H669 H 0.41954 0.23259 0.38676 0.0
H670 H 0.4283 0.26485 0.38338 0.0
H671 H 0.47367 0.27349 0.30479 0.0
H672 H 0.53333 0.31192 0.47523 0.0
H673 H 0.50199 0.30509 0.45479 0.0
C674 C 0.54769 0.72311 0.16916 0.0
C675 C 0.56246 0.71574 0.14832 0.0
C676 C 0.54445 0.74196 0.17208 0.0
C677 C 0.54921 0.78106 0.11575 0.0
H678 H 0.52288 0.80196 0.20809 0.0
C679 C 0.48102 0.82465 0.15938 0.0
C680 C 0.47084 0.81638 0.12513 0.0
C681 C 0.49967 0.82174 0.1634 0.0
C682 C 0.53062 0.79697 0.18222 0.0
H683 H 0.58586 0.72218 0.11526 0.0
H684 H 0.5798 0.7554 0.11924 0.0
H685 H 0.54423 0.77745 0.21716 0.0
H686 H 0.47208 0.79981 0.06679 0.0
H687 H 0.50411 0.79368 0.07462 0.0
H688 H 0.53508 0.80011 0.08037 0.0
C689 C 0.57083 0.74653 0.13348 0.0
C690 C 0.54278 0.7827 0.18745 0.0
C691 C 0.57414 0.72756 0.13079 0.0
C692 C 0.47963 0.80609 0.09384 0.0
C693 C 0.49815 0.80292 0.09806 0.0
C694 C 0.53734 0.79565 0.11069 0.0
C695 C 0.55594 0.75389 0.15424 0.0
C696 C 0.55064 0.7734 0.15331 0.0
C697 C 0.50834 0.81014 0.1336 0.0
C698 C 0.52646 0.80229 0.14281 0.0
H699 H 0.53856 0.71429 0.18318 0.0
H700 H 0.53254 0.7471 0.18724 0.0
H701 H 0.55546 0.77444 0.08904 0.0
H702 H 0.47451 0.83287 0.18363 0.0
H703 H 0.50709 0.82778 0.19082 0.0
C704 C 0.32487 0.37925 0.93415 0.0
C705 C 0.33147 0.39662 0.92626 0.0
C706 C 0.308 0.37766 0.95157 0.0
C707 C 0.2643 0.40168 0.95965 0.0
H708 H 0.25657 0.37464 0.05289 0.0
C709 C 0.19847 0.41068 0.04643 0.0
C710 C 0.19155 0.39593 0.06554 0.0
C711 C 0.21526 0.40939 0.02854 0.0
C712 C 0.25832 0.38201 0.02637 0.0
H713 H 0.32589 0.42602 0.93398 0.0
H714 H 0.29662 0.42312 0.96271 0.0
H715 H 0.28639 0.37437 0.02403 0.0
H716 H 0.19727 0.36804 0.08007 0.0
H717 H 0.22605 0.36548 0.04729 0.0
H718 H 0.23638 0.4091 0.96099 0.0
C719 C 0.30426 0.4107 0.95475 0.0
C720 C 0.2755 0.38188 1.00993 0.0
C721 C 0.32109 0.41232 0.938 0.0
C722 C 0.20189 0.37966 0.0653 0.0
C723 C 0.21865 0.3783 0.04699 0.0
C724 C 0.24712 0.40161 0.97561 0.0
C725 C 0.29731 0.39337 0.96114 0.0
C726 C 0.27878 0.39201 0.97684 0.0
C727 C 0.2257 0.3932 0.02852 0.0
C728 C 0.24387 0.39209 1.00979 0.0
H729 H 0.33245 0.36686 0.92567 0.0
H730 H 0.30305 0.36409 0.95627 0.0
H731 H 0.26627 0.40938 0.93368 0.0
H732 H 0.19092 0.42337 0.04532 0.0
H733 H 0.22017 0.42135 1.01538 0.0
C734 C 0.85247 0.9418 0.31563 0.0
C735 C 0.86596 0.93813 0.34547 0.0
C736 C 0.85371 0.9574 0.29426 0.0
C737 C 0.87498 1.00352 0.2999 0.0
H738 H 0.86506 0.99839 0.18219 0.0
C739 C 0.88584 0.06401 0.20124 0.0
C740 C 0.87255 0.06618 0.16984 0.0
C741 C 0.88597 0.04821 0.22238 0.0
C742 C 0.86768 1.00016 0.21511 0.0
H743 H 0.89102 0.94826 0.37719 0.0
H744 H 0.8932 0.97542 0.33993 0.0
H745 H 0.8627 0.97154 0.22015 0.0
H746 H 0.84948 0.053 0.13496 0.0
H747 H 0.84934 0.02601 0.17237 0.0
H748 H 0.87966 0.0322 0.29504 0.0
C749 C 0.88168 0.96624 0.33293 0.0
C750 C 0.86633 0.98473 0.23686 0.0
C751 C 0.88052 0.95058 0.354 0.0
C752 C 0.8597 0.05201 0.15952 0.0
C753 C 0.85979 0.03632 0.18063 0.0
C754 C 0.87621 0.01901 0.27818 0.0
C755 C 0.86837 0.96978 0.30261 0.0
C756 C 0.86988 0.98623 0.27954 0.0
C757 C 0.87286 0.0342 0.21248 0.0
C758 C 0.87246 0.01756 0.2355 0.0
H759 H 0.84111 0.93244 0.30834 0.0
H760 H 0.84313 0.95985 0.27137 0.0
H761 H 0.87765 0.00518 0.33283 0.0
H762 H 0.89592 0.07466 0.20997 0.0
H763 H 0.89639 0.04695 0.24639 0.0
C764 C 0.20132 0.59766 0.44893 0.0
C765 C 0.18596 0.60325 0.47014 0.0
C766 C 0.21855 0.59923 0.46849 0.0
C767 C 0.24397 0.62277 0.56019 0.0
H768 H 0.28026 0.58631 0.52919 0.0
C769 C 0.31383 0.61441 0.64732 0.0
C770 C 0.3288 0.61186 0.62278 0.0
C771 C 0.29631 0.6152 0.6293 0.0
C772 C 0.2703 0.59668 0.53787 0.0
H773 H 0.17649 0.61471 0.52852 0.0
H774 H 0.20658 0.6168 0.5635 0.0
H775 H 0.24969 0.58292 0.49815 0.0
H776 H 0.33726 0.60862 0.56032 0.0
H777 H 0.30662 0.60983 0.52883 0.0
H778 H 0.26471 0.63609 0.60113 0.0
C779 C 0.2054 0.61162 0.53138 0.0
C780 C 0.25276 0.5948 0.52001 0.0
C781 C 0.18814 0.6103 0.51152 0.0
C782 C 0.32599 0.6108 0.57996 0.0
C783 C 0.30847 0.61131 0.56196 0.0
C784 C 0.2615 0.62448 0.57858 0.0
C785 C 0.22087 0.6062 0.51003 0.0
C786 C 0.23937 0.60791 0.53055 0.0
C787 C 0.29345 0.61314 0.58644 0.0
C788 C 0.27485 0.61154 0.56725 0.0
H789 H 0.20006 0.59255 0.41673 0.0
H790 H 0.23008 0.59534 0.45064 0.0
H791 H 0.23415 0.6333 0.56871 0.0
H792 H 0.31565 0.61524 0.68041 0.0
H793 H 0.28494 0.61655 0.64882 0.0
C794 C 0.64974 0.93325 0.72239 0.0
C795 C 0.65353 0.93214 0.68067 0.0
C796 C 0.64732 0.9504 0.74504 0.0
C797 C 0.63685 0.99982 0.73628 0.0
H798 H 0.66232 0.00763 0.84287 0.0
C799 C 0.64348 0.07263 0.82905 0.0
C800 C 0.64527 0.07368 0.87206 0.0
C801 C 0.64284 0.05542 0.80526 0.0
C802 C 0.65476 0.00572 0.81358 0.0
H803 H 0.65706 0.94835 0.62987 0.0
H804 H 0.65267 0.97824 0.66926 0.0
H805 H 0.6639 0.97781 0.80283 0.0
H806 H 0.64681 0.05749 0.92381 0.0
H807 H 0.64483 0.02767 0.88292 0.0
H808 H 0.62751 0.02767 0.74718 0.0
C809 C 0.65163 0.96581 0.68451 0.0
C810 C 0.65577 0.98851 0.79044 0.0
C811 C 0.65427 0.94866 0.66197 0.0
C812 C 0.64553 0.05714 0.89072 0.0
C813 C 0.64462 0.04 0.86708 0.0
C814 C 0.63566 0.01702 0.75968 0.0
C815 C 0.64841 0.96695 0.72656 0.0
C816 C 0.64688 0.9853 0.75141 0.0
C817 C 0.64378 0.03878 0.82388 0.0
C818 C 0.64463 0.0203 0.79878 0.0
H819 H 0.64923 0.92086 0.73796 0.0
H820 H 0.64469 0.9507 0.77723 0.0
H821 H 0.6297 0.99782 0.7065 0.0
H822 H 0.64348 0.08512 0.81375 0.0
H823 H 0.64236 0.05524 0.77222 0.0
C824 C 0.81729 0.62896 0.97341 0.0
C825 C 0.83142 0.61698 0.98288 0.0
C826 C 0.80135 0.62926 0.99437 0.0
C827 C 0.77486 0.59946 0.05413 0.0
H828 H 0.74486 0.643 0.0683 0.0
C829 C 0.69901 0.59483 0.08438 0.0
C830 C 0.6912 0.60934 0.10869 0.0
C831 C 0.71693 0.59613 0.07335 0.0
C832 C 0.75313 0.63073 0.06523 0.0
H833 H 0.84045 0.5967 0.02322 0.0
H834 H 0.81286 0.59767 0.06105 0.0
H835 H 0.77519 0.64563 0.04468 0.0
H836 H 0.69606 0.63626 0.14192 0.0
H837 H 0.72748 0.63834 0.12393 0.0
H838 H 0.753 0.58466 0.0758 0.0
C839 C 0.81383 0.60645 0.03657 0.0
C840 C 0.77049 0.6322 0.05106 0.0
C841 C 0.82969 0.60599 1.0152 0.0
C842 C 0.70173 0.62499 0.12264 0.0
C843 C 0.7197 0.62619 0.11215 0.0
C844 C 0.75759 0.59803 0.06879 0.0
C845 C 0.79924 0.61771 0.02565 0.0
C846 C 0.78148 0.61653 0.04462 0.0
C847 C 0.7275 0.61188 0.08694 0.0
C848 C 0.74636 0.61359 0.07389 0.0
H849 H 0.81812 0.63735 0.94816 0.0
H850 H 0.79037 0.63789 0.98456 0.0
H851 H 0.78278 0.58702 0.04911 0.0
H852 H 0.69111 0.58268 0.07302 0.0
H853 H 0.72231 0.58496 0.05333 0.0
C854 C 0.13829 0.93973 0.82782 0.0
C855 C 0.15016 0.93876 0.86258 0.0
C856 C 0.13693 0.95591 0.80801 0.0
C857 C 0.16186 0.99909 0.79562 0.0
H858 H 0.11508 0.01653 0.75724 0.0
C859 C 0.15488 0.07026 0.73378 0.0
C860 C 0.14303 0.07187 0.69937 0.0
C861 C 0.15481 0.05442 0.75461 0.0
C862 C 0.12829 0.01178 0.76731 0.0
H863 H 0.1696 0.95454 0.904 0.0
H864 H 0.16744 0.98247 0.86928 0.0
H865 H 0.11701 0.98804 0.79054 0.0
H866 H 0.12145 0.05813 0.66062 0.0
H867 H 0.1214 0.03038 0.69666 0.0
H868 H 0.17323 0.02257 0.77209 0.0
C869 C 0.15933 0.97061 0.85694 0.0
C870 C 0.1294 0.9954 0.78647 0.0
C871 C 0.16062 0.95449 0.87684 0.0
C872 C 0.13063 0.05745 0.68725 0.0
C873 C 0.13064 0.04149 0.70798 0.0
C874 C 0.16078 0.01537 0.77633 0.0
C875 C 0.14747 0.97158 0.82224 0.0
C876 C 0.1462 0.98887 0.80109 0.0
C877 C 0.14297 0.03959 0.74154 0.0
C878 C 0.14397 0.02207 0.76206 0.0
H879 H 0.13015 0.92788 0.81555 0.0
H880 H 0.12781 0.95604 0.78111 0.0
H881 H 0.17508 0.99435 0.80574 0.0
H882 H 0.16443 0.08122 0.74433 0.0
H883 H 0.16419 0.05377 0.78091 0.0
C884 C 0.69942 0.4074 0.40752 0.0
C885 C 0.68377 0.40719 0.43004 0.0
C886 C 0.71661 0.40428 0.4259 0.0
C887 C 0.73944 0.3863 0.51901 0.0
H888 H 0.78099 0.41301 0.48792 0.0
C889 C 0.80702 0.39364 0.61764 0.0
C890 C 0.82344 0.39279 0.5978 0.0
C891 C 0.79036 0.39342 0.59515 0.0
C892 C 0.76959 0.40524 0.49663 0.0
H893 H 0.67416 0.40385 0.49002 0.0
H894 H 0.70391 0.3988 0.52215 0.0
H895 H 0.75144 0.41687 0.45321 0.0
H896 H 0.83512 0.3907 0.53848 0.0
H897 H 0.80593 0.3904 0.49899 0.0
H898 H 0.75757 0.37514 0.5633 0.0
C899 C 0.70299 0.40083 0.48991 0.0
C900 C 0.75256 0.40743 0.47662 0.0
C901 C 0.68583 0.40378 0.47145 0.0
C902 C 0.82273 0.39121 0.55468 0.0
C903 C 0.806 0.39124 0.53211 0.0
C904 C 0.75642 0.38426 0.53925 0.0
C905 C 0.71871 0.40102 0.4675 0.0
C906 C 0.73714 0.39812 0.4877 0.0
C907 C 0.78958 0.39257 0.55209 0.0
C908 C 0.77172 0.39381 0.52861 0.0
H909 H 0.69837 0.4098 0.37547 0.0
H910 H 0.72823 0.40425 0.40722 0.0
H911 H 0.72812 0.3785 0.52796 0.0
H912 H 0.8071 0.39489 0.65081 0.0
H913 H 0.77806 0.39461 0.61168 0.0
C914 C 0.35149 0.95125 0.19917 0.0
C915 C 0.35645 0.93593 0.21995 0.0
C916 C 0.35198 0.969 0.21986 0.0
C917 C 0.34961 0.99415 0.32134 0.0
H918 H 0.37358 0.0336 0.27401 0.0
C919 C 0.35759 0.06664 0.40869 0.0
C920 C 0.35541 0.0818 0.38575 0.0
C921 C 0.35899 0.0488 0.38903 0.0
C922 C 0.36662 0.02283 0.28746 0.0
H923 H 0.36548 0.92704 0.27863 0.0
H924 H 0.36604 0.95811 0.31505 0.0
H925 H 0.37281 1.00256 0.23825 0.0
H926 H 0.35299 0.09027 0.32437 0.0
H927 H 0.35493 0.05916 0.28992 0.0
H928 H 0.34286 0.01436 0.36985 0.0
C929 C 0.3619 0.95637 0.28273 0.0
C930 C 0.36624 0.00504 0.26699 0.0
C931 C 0.36167 0.93865 0.26191 0.0
C932 C 0.35493 0.07884 0.34279 0.0
C933 C 0.35609 0.06098 0.32309 0.0
C934 C 0.34976 0.01198 0.34156 0.0
C935 C 0.35719 0.97172 0.26183 0.0
C936 C 0.35772 0.99054 0.28371 0.0
C937 C 0.35797 0.04569 0.34593 0.0
C938 C 0.35826 0.02658 0.32489 0.0
H939 H 0.34755 0.94953 0.16675 0.0
H940 H 0.34815 0.98059 0.20311 0.0
H941 H 0.34278 0.98325 0.33468 0.0
H942 H 0.35813 0.06859 0.44188 0.0
H943 H 0.36081 0.03744 0.40768 0.0
C944 C 0.83139 0.89125 0.46807 0.0
C945 C 0.83112 0.89722 0.42854 0.0
C946 C 0.81523 0.889 0.48784 0.0
C947 C 0.76425 0.88673 0.46927 0.0
H948 H 0.76499 0.89843 0.58701 0.0
C949 C 0.69893 0.88091 0.5598 0.0
C950 C 0.69662 0.89366 0.59438 0.0
C951 C 0.71538 0.8799 0.53996 0.0
C952 C 0.76436 0.8953 0.55404 0.0
H953 H 0.8131 0.90457 0.37844 0.0
H954 H 0.78535 0.90153 0.41316 0.0
H955 H 0.7929 0.89959 0.55189 0.0
H956 H 0.71059 0.91492 0.63558 0.0
H957 H 0.73847 0.91385 0.60026 0.0
H958 H 0.73555 0.88337 0.47121 0.0
C959 C 0.79797 0.89826 0.42899 0.0
C960 C 0.7806 0.89564 0.53378 0.0
C961 C 0.81408 0.90032 0.40912 0.0
C962 C 0.71145 0.90518 0.60859 0.0
C963 C 0.72776 0.90431 0.58859 0.0
C964 C 0.74797 0.88659 0.48949 0.0
C965 C 0.7982 0.89275 0.46893 0.0
C966 C 0.78087 0.8915 0.49093 0.0
C967 C 0.7301 0.89166 0.55387 0.0
C968 C 0.74767 0.89102 0.53226 0.0
H969 H 0.84413 0.8888 0.48441 0.0
H970 H 0.81617 0.88438 0.51817 0.0
H971 H 0.76371 0.88308 0.43645 0.0
H972 H 0.68794 0.87183 0.54757 0.0
H973 H 0.71654 0.86974 0.51381 0.0
C974 C 0.35371 0.43654 0.8064 0.0
C975 C 0.36683 0.43283 0.83698 0.0
C976 C 0.35425 0.45312 0.7884 0.0
C977 C 0.36981 0.5008 0.81063 0.0
H978 H 0.36459 0.5029 0.69306 0.0
C979 C 0.35719 0.56831 0.73434 0.0
C980 C 0.36769 0.57083 0.70096 0.0
C981 C 0.35764 0.55156 0.75169 0.0
C982 C 0.36612 0.50249 0.72595 0.0
H983 H 0.39077 0.44348 0.87271 0.0
H984 H 0.39168 0.47236 0.84132 0.0
H985 H 0.36428 0.47297 0.72078 0.0
H986 H 0.38688 0.55788 0.65953 0.0
H987 H 0.38764 0.52863 0.68985 0.0
H988 H 0.37154 0.53031 0.81585 0.0
C989 C 0.38104 0.46247 0.8312 0.0
C990 C 0.36581 0.48541 0.74176 0.0
C991 C 0.38063 0.44586 0.8488 0.0
C992 C 0.37883 0.5564 0.68561 0.0
C993 C 0.37911 0.53961 0.70261 0.0
C994 C 0.36989 0.51789 0.79485 0.0
C995 C 0.36775 0.46635 0.80118 0.0
C996 C 0.36776 0.48441 0.78424 0.0
C997 C 0.36839 0.53697 0.73555 0.0
C998 C 0.36815 0.51888 0.75236 0.0
H999 H 0.34294 0.42672 0.79679 0.0
H1000 H 0.3438 0.45583 0.7654 0.0
H1001 H 0.37117 0.50041 0.84354 0.0
H1002 H 0.34848 0.57923 0.74668 0.0
H1003 H 0.34918 0.54984 0.77697 0.0
C1004 C 0.69843 0.12823 0.96756 0.0
C1005 C 0.68798 0.11215 0.9685 0.0
C1006 C 0.71593 0.12965 0.98602 0.0
C1007 C 0.74761 0.108 0.0593 0.0
H1008 H 0.78424 0.13187 1.00269 0.0
C1009 C 0.82119 0.11433 0.12615 0.0
C1010 C 0.8349 0.11094 0.09841 0.0
C1011 C 0.80329 0.11693 0.11202 0.0
C1012 C 0.77423 0.12505 0.01882 0.0
H1013 H 0.68773 0.08517 0.99092 0.0
H1014 H 0.71841 0.08735 0.02174 0.0
H1015 H 0.75303 0.13083 0.97516 0.0
H1016 H 0.84072 0.10814 0.03418 0.0
H1017 H 0.80948 0.11234 1.00931 0.0
H1018 H 0.76893 0.10138 0.10178 0.0
C1019 C 0.71298 0.09904 1.00733 0.0
C1020 C 0.75621 0.12468 1.00331 0.0
C1021 C 0.69541 0.09768 0.98915 0.0
C1022 C 0.83047 0.11097 0.05629 0.0
C1023 C 0.81252 0.11338 0.04209 0.0
C1024 C 0.76563 0.10823 0.07461 0.0
C1025 C 0.72357 0.11497 1.00565 0.0
C1026 C 0.74266 0.11604 0.02317 0.0
C1027 C 0.79861 0.11599 0.06973 0.0
C1028 C 0.77924 0.11667 0.05447 0.0
H1029 H 0.69333 0.13958 0.95147 0.0
H1030 H 0.72351 0.14225 0.98462 0.0
H1031 H 0.73756 0.10144 0.07582 0.0
H1032 H 0.82427 0.11451 0.15883 0.0
H1033 H 0.79307 0.11936 0.13431 0.0
C1034 C 0.14197 0.55276 0.3815 0.0
C1035 C 0.1425 0.57025 0.36699 0.0
C1036 C 0.14062 0.53669 0.35418 0.0
C1037 C 0.15228 0.51885 0.25041 0.0
H1038 H 0.12238 0.47703 0.26811 0.0
C1039 C 0.15199 0.45152 0.13955 0.0
C1040 C 0.15029 0.43461 0.1562 0.0
C1041 C 0.14935 0.4683 0.1634 0.0
C1042 C 0.13103 0.48844 0.26289 0.0
H1043 H 0.14167 0.58457 0.31231 0.0
H1044 H 0.13945 0.55642 0.26438 0.0
H1045 H 0.12044 0.50573 0.31283 0.0
H1046 H 0.14458 0.42218 0.2113 0.0
H1047 H 0.14046 0.45129 0.25319 0.0
H1048 H 0.16343 0.50152 0.2016 0.0
C1049 C 0.14002 0.55518 0.29701 0.0
C1050 C 0.12981 0.50498 0.2885 0.0
C1051 C 0.14109 0.57131 0.32442 0.0
C1052 C 0.14574 0.43493 0.19729 0.0
C1053 C 0.14331 0.45171 0.22132 0.0
C1054 C 0.15368 0.50225 0.22511 0.0
C1055 C 0.14005 0.53764 0.31156 0.0
C1056 C 0.14048 0.52038 0.28275 0.0
C1057 C 0.14516 0.46871 0.20487 0.0
C1058 C 0.14316 0.4867 0.23105 0.0
H1059 H 0.1431 0.55151 0.41413 0.0
H1060 H 0.14081 0.52345 0.3665 0.0
H1061 H 0.16091 0.53033 0.24546 0.0
H1062 H 0.1553 0.45177 0.10788 0.0
H1063 H 0.15054 0.48096 0.14912 0.0
C1064 C 0.31559 0.1104 0.50649 0.0
C1065 C 0.31918 0.12359 0.47947 0.0
C1066 C 0.29967 0.11109 0.52762 0.0
C1067 C 0.25317 0.13097 0.52335 0.0
H1068 H 0.2504 0.10937 0.62598 0.0
C1069 C 0.18742 0.12849 0.61358 0.0
C1070 C 0.18263 0.11063 0.6223 0.0
C1071 C 0.20439 0.13195 0.59881 0.0
C1072 C 0.251 0.11547 0.59734 0.0
H1073 H 0.30902 0.14851 0.45549 0.0
H1074 H 0.28177 0.15031 0.49407 0.0
H1075 H 0.27978 0.11307 0.59755 0.0
H1076 H 0.19225 0.08238 0.62133 0.0
H1077 H 0.22198 0.08871 0.59769 0.0
H1078 H 0.22427 0.13364 0.524 0.0
C1079 C 0.29098 0.13898 0.49779 0.0
C1080 C 0.26783 0.11749 0.58078 0.0
C1081 C 0.30684 0.13814 0.47612 0.0
C1082 C 0.19545 0.09642 0.61622 0.0
C1083 C 0.21251 0.09998 0.60232 0.0
C1084 C 0.23636 0.12927 0.54039 0.0
C1085 C 0.28692 0.1252 0.5231 0.0
C1086 C 0.26917 0.12488 0.54301 0.0
C1087 C 0.21713 0.11774 0.59322 0.0
C1088 C 0.23508 0.12115 0.57711 0.0
H1089 H 0.3249 0.09918 0.51055 0.0
H1090 H 0.29711 0.10006 0.5463 0.0
H1091 H 0.25346 0.13646 0.49397 0.0
H1092 H 0.17812 0.13989 0.61838 0.0
H1093 H 0.20766 0.14579 0.59221 0.0
C1094 C 0.63021 0.44783 0.31525 0.0
C1095 C 0.64308 0.44747 0.34843 0.0
C1096 C 0.62817 0.46355 0.29378 0.0
C1097 C 0.63978 0.5142 0.30095 0.0
H1098 H 0.62985 0.50771 0.18334 0.0
C1099 C 0.63326 0.57747 0.20535 0.0
C1100 C 0.64164 0.57575 0.16769 0.0
C1101 C 0.63089 0.56195 0.22697 0.0
C1102 C 0.63272 0.50987 0.21616 0.0
H1103 H 0.66349 0.46402 0.38538 0.0
H1104 H 0.6604 0.49088 0.3475 0.0
H1105 H 0.63145 0.48085 0.22173 0.0
H1106 H 0.65307 0.55606 0.12232 0.0
H1107 H 0.64914 0.52935 0.15959 0.0
H1108 H 0.64179 0.54317 0.2951 0.0
C1109 C 0.65166 0.47912 0.33816 0.0
C1110 C 0.63341 0.49436 0.23841 0.0
C1111 C 0.65366 0.46347 0.35963 0.0
C1112 C 0.64666 0.55797 0.15133 0.0
C1113 C 0.64428 0.54254 0.17274 0.0
C1114 C 0.63915 0.52971 0.27866 0.0
C1115 C 0.63892 0.47947 0.30474 0.0
C1116 C 0.63718 0.4962 0.28117 0.0
C1117 C 0.63671 0.54426 0.21139 0.0
C1118 C 0.63585 0.52782 0.23576 0.0
H1119 H 0.62183 0.43585 0.30537 0.0
H1120 H 0.61803 0.46321 0.26867 0.0
H1121 H 0.6424 0.51638 0.33384 0.0
H1122 H 0.62932 0.59093 0.21903 0.0
H1123 H 0.62473 0.5639 0.25625 0.0
C1124 C 0.18782 0.89205 0.98772 0.0
C1125 C 0.18691 0.89639 0.94684 0.0
C1126 C 0.20456 0.88922 1.00843 0.0
C1127 C 0.25363 0.87967 0.99281 0.0
H1128 H 0.25997 0.90106 0.10559 0.0
C1129 C 0.32444 0.88785 0.08173 0.0
C1130 C 0.32523 0.88722 0.12441 0.0
C1131 C 0.3077 0.88666 0.05901 0.0
C1132 C 0.25845 0.89467 0.07436 0.0
H1133 H 0.20318 0.90041 0.89547 0.0
H1134 H 0.23226 0.89569 0.93156 0.0
H1135 H 0.23084 0.90332 0.06864 0.0
H1136 H 0.30923 0.88419 0.17649 0.0
H1137 H 0.28025 0.88132 0.1371 0.0
H1138 H 0.28136 0.87112 0.99857 0.0
C1139 C 0.22001 0.8944 0.94768 0.0
C1140 C 0.24163 0.89601 0.05302 0.0
C1141 C 0.20327 0.8973 0.92703 0.0
C1142 C 0.30905 0.8845 0.14355 0.0
C1143 C 0.29239 0.88317 0.12094 0.0
C1144 C 0.2705 0.87826 1.01425 0.0
C1145 C 0.22095 0.89056 0.98892 0.0
C1146 C 0.23892 0.88858 1.01186 0.0
C1147 C 0.29133 0.88484 0.07847 0.0
C1148 C 0.27321 0.88576 0.05543 0.0
H1149 H 0.1756 0.89137 1.00425 0.0
H1150 H 0.20463 0.88604 0.03994 0.0
H1151 H 0.25209 0.87357 0.96134 0.0
H1152 H 0.33665 0.89037 0.06631 0.0
H1153 H 0.30756 0.88816 0.02653 0.0
C1154 C 0.84868 0.56366 0.87575 0.0
C1155 C 0.86408 0.5751 0.88331 0.0
C1156 C 0.84991 0.54598 0.85545 0.0
C1157 C 0.87598 0.51725 0.78275 0.0
H1158 H 0.85216 0.47689 0.82727 0.0
C1159 C 0.87774 0.44259 0.70404 0.0
C1160 C 0.86168 0.43214 0.7027 0.0
C1161 C 0.8795 0.45947 0.72834 0.0
C1162 C 0.85872 0.48801 0.81412 0.0
H1163 H 0.89282 0.57693 0.8742 0.0
H1164 H 0.89486 0.54598 0.83761 0.0
H1165 H 0.85262 0.50755 0.86467 0.0
H1166 H 0.83503 0.43119 0.7269 0.0
H1167 H 0.83781 0.46086 0.76804 0.0
H1168 H 0.88156 0.49792 0.7315 0.0
C1169 C 0.88188 0.55081 0.84802 0.0
C1170 C 0.85906 0.50556 0.83569 0.0
C1171 C 0.88069 0.56852 0.86886 0.0
C1172 C 0.84752 0.43892 0.72682 0.0
C1173 C 0.84923 0.45587 0.75088 0.0
C1174 C 0.8755 0.4997 0.76091 0.0
C1175 C 0.86651 0.5393 0.84154 0.0
C1176 C 0.86749 0.52042 0.82002 0.0
C1177 C 0.86519 0.46645 0.75176 0.0
C1178 C 0.86667 0.48489 0.77608 0.0
H1179 H 0.83552 0.56842 0.88509 0.0
H1180 H 0.83775 0.53761 0.85007 0.0
H1181 H 0.88243 0.52848 0.76975 0.0
H1182 H 0.88885 0.43797 0.68547 0.0
H1183 H 0.89209 0.46707 0.72862 0.0
C1184 C 0.11558 0.19055 0.74213 0.0
C1185 C 0.12151 0.19406 0.7036 0.0
C1186 C 0.11677 0.2041 0.77543 0.0
C1187 C 0.13829 0.24391 0.8281 0.0
H1188 H 0.09041 0.25889 0.86048 0.0
C1189 C 0.12647 0.30023 0.96487 0.0
C1190 C 0.11129 0.29785 0.98785 0.0
C1191 C 0.12924 0.28852 0.92893 0.0
C1192 C 0.10392 0.25476 0.85244 0.0
H1193 H 0.13452 0.2144 0.67102 0.0
H1194 H 0.13709 0.23808 0.73026 0.0
H1195 H 0.0936 0.23662 0.80091 0.0
H1196 H 0.08763 0.28074 0.9921 0.0
H1197 H 0.09275 0.26012 0.93124 0.0
H1198 H 0.14866 0.26138 0.88078 0.0
C1199 C 0.13132 0.22474 0.73401 0.0
C1200 C 0.10571 0.24212 0.81792 0.0
C1201 C 0.12991 0.21115 0.7002 0.0
C1202 C 0.09933 0.28318 0.97487 0.0
C1203 C 0.1022 0.2714 0.93953 0.0
C1204 C 0.13651 0.25642 0.86323 0.0
C1205 C 0.12422 0.22147 0.77152 0.0
C1206 C 0.12287 0.23637 0.80569 0.0
C1207 C 0.11698 0.27405 0.91542 0.0
C1208 C 0.11925 0.26177 0.87639 0.0
H1209 H 0.10915 0.17755 0.74619 0.0
H1210 H 0.1113 0.20121 0.80407 0.0
H1211 H 0.15167 0.2396 0.81936 0.0
H1212 H 0.13592 0.31143 0.974 0.0
H1213 H 0.14073 0.29113 0.91127 0.0
C1214 C 0.04865 0.86951 0.02341 0.0
C1215 C 0.06714 0.8661 0.03212 0.0
C1216 C 0.03629 0.8708 0.05446 0.0
C1217 C 0.03204 0.87831 0.16757 0.0
H1218 H 0.98632 0.85257 0.14228 0.0
C1219 C 0.97264 0.88044 0.28085 0.0
C1220 C 0.96483 0.86315 0.2849 0.0
C1221 C 0.985 0.88241 0.25022 0.0
C1222 C 0.999 0.85987 0.14996 0.0
H1223 H 0.08708 0.86209 0.08114 0.0
H1224 H 0.06548 0.86442 0.13552 0.0
H1225 H 0.00833 0.85278 0.0898 0.0
H1226 H 0.96378 0.83449 0.25914 0.0
H1227 H 0.98478 0.83798 0.20628 0.0
H1228 H 0.02263 0.88513 0.22814 0.0
C1229 C 0.06057 0.86606 0.10444 0.0
C1230 C 0.01162 0.86011 0.11965 0.0
C1231 C 0.07296 0.86459 0.07318 0.0
C1232 C 0.96945 0.84806 0.25717 0.0
C1233 C 0.98149 0.85006 0.22651 0.0
C1234 C 0.01927 0.87822 0.19789 0.0
C1235 C 0.04198 0.8689 0.09542 0.0
C1236 C 0.02841 0.8692 0.12799 0.0
C1237 C 0.98955 0.8672 0.22255 0.0
C1238 C 1.00265 0.86879 0.18965 0.0
H1239 H 0.04356 0.87073 0.99226 0.0
H1240 H 0.02217 0.87323 0.04625 0.0
H1241 H 0.04473 0.88558 0.17509 0.0
H1242 H 0.96948 0.89233 0.30176 0.0
H1243 H 0.99089 0.89585 0.24798 0.0
C1244 C 0.40144 0.72136 0.47724 0.0
C1245 C 0.3978 0.70243 0.46767 0.0
C1246 C 0.39937 0.73359 0.44708 0.0
C1247 C 0.39856 0.73477 0.33463 0.0
H1248 H 0.38096 0.78448 0.36038 0.0
C1249 C 0.39393 0.78789 0.21366 0.0
C1250 C 0.40069 0.80558 0.22765 0.0
C1251 C 0.39097 0.77493 0.24152 0.0
C1252 C 0.38599 0.77067 0.35269 0.0
H1253 H 0.38868 0.68163 0.41888 0.0
H1254 H 0.38493 0.70297 0.36647 0.0
H1255 H 0.38078 0.76267 0.41194 0.0
H1256 H 0.40899 0.82366 0.28216 0.0
H1257 H 0.40394 0.80127 0.3301 0.0
H1258 H 0.4041 0.7429 0.27562 0.0
C1259 C 0.38961 0.70834 0.3972 0.0
C1260 C 0.3859 0.75816 0.38232 0.0
C1261 C 0.39164 0.69611 0.42739 0.0
C1262 C 0.40383 0.81017 0.27012 0.0
C1263 C 0.40079 0.79733 0.29781 0.0
C1264 C 0.39865 0.7473 0.30497 0.0
C1265 C 0.39362 0.72722 0.40653 0.0
C1266 C 0.39246 0.74012 0.37394 0.0
C1267 C 0.39455 0.77945 0.28396 0.0
C1268 C 0.39266 0.76552 0.31385 0.0
H1269 H 0.40627 0.72672 0.50788 0.0
H1270 H 0.4028 0.74799 0.45533 0.0
H1271 H 0.4039 0.72106 0.32719 0.0
H1272 H 0.3914 0.78387 0.18119 0.0
H1273 H 0.38599 0.76132 0.22982 0.0
C1274 C 0.45605 0.14366 0.46803 0.0
C1275 C 0.43973 0.15326 0.47387 0.0
C1276 C 0.46806 0.141 0.50154 0.0
C1277 C 0.4712 0.14276 0.61599 0.0
H1278 H 0.52236 0.15065 0.6039 0.0
C1279 C 0.52296 0.15455 0.75565 0.0
C1280 C 0.54035 0.14696 0.75196 0.0
C1281 C 0.5105 0.15375 0.72172 0.0
C1282 C 0.50816 0.14815 0.60777 0.0
H1283 H 0.42309 0.16704 0.52008 0.0
H1284 H 0.4439 0.16251 0.57786 0.0
H1285 H 0.50107 0.1515 0.54483 0.0
H1286 H 0.5581 0.13226 0.7095 0.0
H1287 H 0.5364 0.13071 0.65068 0.0
H1288 H 0.47828 0.13965 0.67907 0.0
C1289 C 0.44745 0.15688 0.54756 0.0
C1290 C 0.49591 0.1486 0.57376 0.0
C1291 C 0.4355 0.15957 0.51419 0.0
C1292 C 0.54485 0.13829 0.71358 0.0
C1293 C 0.53243 0.13752 0.67966 0.0
C1294 C 0.48345 0.14232 0.65 0.0
C1295 C 0.46403 0.14778 0.54176 0.0
C1296 C 0.47723 0.14609 0.57743 0.0
C1297 C 0.51511 0.14536 0.68312 0.0
C1298 C 0.50209 0.14516 0.64649 0.0
H1299 H 0.45979 0.1386 0.43749 0.0
H1300 H 0.48058 0.1337 0.49587 0.0
H1301 H 0.45698 0.14045 0.61995 0.0
H1302 H 0.51902 0.1614 0.78464 0.0
H1303 H 0.4974 0.16013 0.72555 0.0
C1304 C 0.11199 0.81477 0.802 0.0
C1305 C 0.11321 0.80914 0.84186 0.0
C1306 C 0.11489 0.80231 0.76761 0.0
C1307 C 0.11492 0.75207 0.73169 0.0
H1308 H 0.13583 0.76946 0.63686 0.0
C1309 C 0.12495 0.70437 0.57933 0.0
C1310 C 0.11968 0.71212 0.54297 0.0
C1311 C 0.12604 0.71534 0.61734 0.0
C1312 C 0.12986 0.76435 0.66294 0.0
H1313 H 0.11883 0.78572 0.87623 0.0
H1314 H 0.1242 0.76401 0.81614 0.0
H1315 H 0.13475 0.78994 0.7 0.0
H1316 H 0.11172 0.73763 0.51837 0.0
H1317 H 0.11379 0.75654 0.58379 0.0
H1318 H 0.11001 0.72643 0.69415 0.0
C1319 C 0.12075 0.77812 0.81157 0.0
C1320 C 0.1292 0.77616 0.69932 0.0
C1321 C 0.11785 0.79066 0.84619 0.0
C1322 C 0.11588 0.73112 0.54557 0.0
C1323 C 0.11716 0.74206 0.58325 0.0
C1324 C 0.11568 0.74018 0.69522 0.0
C1325 C 0.11916 0.78373 0.77164 0.0
C1326 C 0.12137 0.77038 0.7341 0.0
C1327 C 0.12214 0.73437 0.61981 0.0
C1328 C 0.12284 0.74628 0.66003 0.0
H1329 H 0.10835 0.8288 0.79703 0.0
H1330 H 0.11319 0.80722 0.73762 0.0
H1331 H 0.10864 0.74707 0.7575 0.0
H1332 H 0.12788 0.68978 0.57857 0.0
H1333 H 0.13002 0.70894 0.64477 0.0
C1334 C 0.46234 0.86533 0.07312 0.0
C1335 C 0.4435 0.86411 0.06481 0.0
C1336 C 0.47418 0.86524 0.04124 0.0
C1337 C 0.47672 0.85188 0.92907 0.0
H1338 H 0.52196 0.87916 0.94532 0.0
C1339 C 0.52867 0.85301 0.80149 0.0
C1340 C 0.54689 0.85048 0.81428 0.0
C1341 C 0.51536 0.85607 0.83038 0.0
C1342 C 0.50943 0.87137 0.94031 0.0
H1343 H 0.42236 0.86258 1.01631 0.0
H1344 H 0.44298 0.86278 0.96061 0.0
H1345 H 0.50006 0.88232 0.99831 0.0
H1346 H 0.56535 0.84948 0.86766 0.0
H1347 H 0.54232 0.85492 0.91759 0.0
H1348 H 0.48622 0.84097 0.87091 0.0
C1349 C 0.44866 0.86336 0.9918 0.0
C1350 C 0.49684 0.87314 0.97083 0.0
C1351 C 0.43679 0.86334 0.02378 0.0
C1352 C 0.55148 0.8514 0.85659 0.0
C1353 C 0.53826 0.85463 0.88534 0.0
C1354 C 0.48929 0.85021 0.89838 0.0
C1355 C 0.46756 0.8641 1.00002 0.0
C1356 C 0.48041 0.8632 0.96603 0.0
C1357 C 0.51999 0.85689 0.87272 0.0
C1358 C 0.50594 0.85972 0.90386 0.0
H1359 H 0.46806 0.86569 0.10426 0.0
H1360 H 0.4886 0.86549 0.04901 0.0
H1361 H 0.46437 0.84381 0.9243 0.0
H1362 H 0.52464 0.85233 0.76917 0.0
H1363 H 0.50144 0.85788 0.81957 0.0
C1364 C 0.39256 0.29915 0.06776 0.0
C1365 C 0.40079 0.29427 0.03061 0.0
C1366 C 0.39013 0.28608 0.09544 0.0
C1367 C 0.4074 0.24096 0.12371 0.0
H1368 H 0.36506 0.24263 0.1886 0.0
C1369 C 0.39571 0.18768 0.23935 0.0
C1370 C 0.39061 0.19506 0.2783 0.0
C1371 C 0.39545 0.19862 0.20658 0.0
C1372 C 0.37701 0.24203 0.17088 0.0
H1373 H 0.41263 0.27162 0.99319 0.0
H1374 H 0.40812 0.24874 0.04113 0.0
H1375 H 0.36751 0.26377 0.13614 0.0
H1376 H 0.38037 0.21956 0.3126 0.0
H1377 H 0.37974 0.23847 0.25558 0.0
H1378 H 0.41692 0.21928 0.15869 0.0
C1379 C 0.4038 0.26278 0.04923 0.0
C1380 C 0.37845 0.2542 0.14081 0.0
C1381 C 0.40628 0.27589 0.02155 0.0
C1382 C 0.38439 0.21337 0.28309 0.0
C1383 C 0.38399 0.22424 0.25029 0.0
C1384 C 0.40592 0.22874 0.15367 0.0
C1385 C 0.3958 0.26772 0.08672 0.0
C1386 C 0.39377 0.254 0.11712 0.0
C1387 C 0.38984 0.21713 0.21181 0.0
C1388 C 0.3908 0.22926 0.17798 0.0
H1389 H 0.38824 0.31318 0.07592 0.0
H1390 H 0.38419 0.29053 0.1242 0.0
H1391 H 0.41952 0.24054 0.10658 0.0
H1392 H 0.40042 0.1736 0.2344 0.0
H1393 H 0.39979 0.19261 0.1772 0.0
C1394 C 0.99396 0.14733 0.20004 0.0
C1395 C 0.97709 0.13822 0.19663 0.0
C1396 C 1.00488 0.1481 0.23636 0.0
C1397 C 0.01257 0.12673 0.33424 0.0
H1398 H 0.03768 0.17282 0.36911 0.0
C1399 C 0.05117 0.14168 0.4942 0.0
C1400 C 0.06744 0.15183 0.49598 0.0
C1401 C 0.04017 0.13915 0.45779 0.0
C1402 C 0.03098 0.15974 0.35968 0.0
H1403 H 0.95869 0.12247 0.22889 0.0
H1404 H 0.97772 0.12391 0.2925 0.0
H1405 H 0.01859 0.16996 0.30613 0.0
H1406 H 0.08498 0.1669 0.46008 0.0
H1407 H 0.06606 0.16232 0.39697 0.0
H1408 H 0.02498 0.11659 0.38813 0.0
C1409 C 0.98258 0.13033 0.26683 0.0
C1410 C 0.01998 0.1581 0.32339 0.0
C1411 C 0.97161 0.12955 0.23035 0.0
C1412 C 0.07256 0.15906 0.46012 0.0
C1413 C 0.06159 0.15655 0.42384 0.0
C1414 C 0.0236 0.12839 0.37066 0.0
C1415 C 0.99928 0.13983 0.27053 0.0
C1416 C 0.01071 0.14153 0.3099 0.0
C1417 C 0.04512 0.14675 0.4222 0.0
C1418 C 0.03307 0.14489 0.38376 0.0
H1419 H 0.9987 0.15411 0.17473 0.0
H1420 H 0.01777 0.15522 0.23759 0.0
H1421 H 1.00581 0.1137 0.32475 0.0
H1422 H 0.04672 0.13595 0.52116 0.0
H1423 H 0.02755 0.13165 0.45789 0.0
C1424 C 0.90369 0.8183 0.2757 0.0
C1425 C 0.89954 0.81372 0.31477 0.0
C1426 C 0.89973 0.80618 0.2406 0.0
C1427 C 0.8907 0.75669 0.2061 0.0
H1428 H 0.88057 0.77625 0.1018 0.0
C1429 C 0.88175 0.71092 0.04818 0.0
C1430 C 0.89312 0.71648 0.01867 0.0
C1431 C 0.87955 0.72224 0.08494 0.0
C1432 C 0.88334 0.77055 0.13069 0.0
H1433 H 0.88741 0.79271 0.34698 0.0
H1434 H 0.88007 0.77161 0.28529 0.0
H1435 H 0.88141 0.79697 0.1649 0.0
H1436 H 0.91061 0.7385 1.00408 0.0
H1437 H 0.90637 0.75829 0.06712 0.0
H1438 H 0.89258 0.73018 0.17124 0.0
C1439 C 0.88672 0.78457 0.28206 0.0
C1440 C 0.88394 0.78245 0.16698 0.0
C1441 C 0.89078 0.79676 0.31747 0.0
C1442 C 0.90177 0.73377 0.02615 0.0
C1443 C 0.89928 0.74518 0.06225 0.0
C1444 C 0.88985 0.74471 0.16967 0.0
C1445 C 0.89132 0.78904 0.2431 0.0
C1446 C 0.8882 0.77583 0.20519 0.0
C1447 C 0.88832 0.73951 0.09233 0.0
C1448 C 0.88666 0.7516 0.13146 0.0
H1449 H 0.91052 0.83113 0.27209 0.0
H1450 H 0.90388 0.81008 0.21155 0.0
H1451 H 0.89413 0.75102 0.23472 0.0
H1452 H 0.87501 0.69762 0.04342 0.0
H1453 H 0.87099 0.71753 0.10754 0.0
C1454 C 0.02444 0.14904 0.70211 0.0
C1455 C 0.04254 0.14318 0.70508 0.0
C1456 C 0.01293 0.14737 0.73403 0.0
C1457 C 0.00799 0.1234 0.82818 0.0
H1458 H 0.97301 0.16202 0.85311 0.0
C1459 C 0.96737 0.12925 0.97559 0.0
C1460 C 0.94905 0.13441 0.972 0.0
C1461 C 0.97846 0.12942 0.94236 0.0
C1462 C 0.98255 0.151 0.84628 0.0
H1463 H 0.0627 0.13096 0.7443 0.0
H1464 H 0.04277 0.12833 0.80027 0.0
H1465 H 0.99304 0.16431 0.79736 0.0
H1466 H 0.92798 0.14317 0.92984 0.0
H1467 H 0.94732 0.14353 0.872 0.0
H1468 H 0.99763 0.1103 0.87777 0.0
C1469 C 0.03732 0.13392 0.77289 0.0
C1470 C 0.99407 0.15228 0.81417 0.0
C1471 C 0.04882 0.13552 0.74081 0.0
C1472 C 0.94202 0.13927 0.93392 0.0
C1473 C 0.95315 0.13956 0.90076 0.0
C1474 C 0.99654 0.12218 0.8605 0.0
C1475 C 0.0192 0.13988 0.77006 0.0
C1476 C 0.00695 0.13849 0.80453 0.0
C1477 C 0.97157 0.13483 0.90466 0.0
C1478 C 0.98365 0.13595 0.86993 0.0
H1479 H 0.01911 0.155 0.67506 0.0
H1480 H 0.99903 0.15183 0.73024 0.0
H1481 H 0.01748 0.11234 0.82141 0.0
H1482 H 0.97332 0.12549 1.00443 0.0
H1483 H 0.99261 0.12584 0.94663 0.0
C1484 C 0.61678 0.2087 0.80876 0.0
C1485 C 0.60656 0.19225 0.80368 0.0
C1486 C 0.6171 0.22029 0.77714 0.0
C1487 C 0.58904 0.2324 0.68778 0.0
H1488 H 0.6317 0.25865 0.66089 0.0
C1489 C 0.584 0.29561 0.59617 0.0
C1490 C 0.59566 0.29671 0.56401 0.0
C1491 C 0.58643 0.28219 0.62345 0.0
C1492 C 0.6197 0.25131 0.66785 0.0
H1493 H 0.58917 0.17487 0.76042 0.0
H1494 H 0.58972 0.19501 0.70569 0.0
H1495 H 0.63438 0.23613 0.71161 0.0
H1496 H 0.61932 0.2846 0.536 0.0
H1497 H 0.62375 0.26114 0.58438 0.0
H1498 H 0.5743 0.24767 0.64464 0.0
C1499 C 0.59738 0.19904 0.73424 0.0
C1500 C 0.6212 0.23853 0.69715 0.0
C1501 C 0.59717 0.18742 0.76565 0.0
C1502 C 0.61007 0.28413 0.56033 0.0
C1503 C 0.61265 0.27075 0.58813 0.0
C1504 C 0.58751 0.24528 0.65895 0.0
C1505 C 0.60708 0.2158 0.73977 0.0
C1506 C 0.60585 0.22896 0.7076 0.0
C1507 C 0.60071 0.2695 0.61977 0.0
C1508 C 0.60277 0.25502 0.6488 0.0
H1509 H 0.62415 0.21292 0.8376 0.0
H1510 H 0.62462 0.23313 0.78259 0.0
H1511 H 0.5769 0.22545 0.69529 0.0
H1512 H 0.57277 0.30505 0.60017 0.0
H1513 H 0.57714 0.28182 0.64775 0.0
C1514 C 0.45897 0.86898 0.32837 0.0
C1515 C 0.46654 0.86846 0.2898 0.0
C1516 C 0.47011 0.86856 0.36459 0.0
C1517 C 0.517 0.85527 0.40004 0.0
H1518 H 0.50603 0.88285 0.50285 0.0
C1519 C 0.56881 0.85951 0.53959 0.0
C1520 C 0.56246 0.85867 0.57908 0.0
C1521 C 0.55683 0.86171 0.50575 0.0
C1522 C 0.50926 0.87489 0.47455 0.0
H1523 H 0.492 0.86755 0.25985 0.0
H1524 H 0.51115 0.86714 0.32216 0.0
H1525 H 0.4857 0.88461 0.44206 0.0
H1526 H 0.53815 0.86004 0.6133 0.0
H1527 H 0.51732 0.86385 0.55443 0.0
H1528 H 0.54042 0.84544 0.4322 0.0
C1529 C 0.49662 0.86748 0.32473 0.0
C1530 C 0.49752 0.8759 0.4395 0.0
C1531 C 0.48555 0.8679 0.28875 0.0
C1532 C 0.54369 0.86074 0.58365 0.0
C1533 C 0.53167 0.86294 0.54967 0.0
C1534 C 0.52868 0.85426 0.43493 0.0
C1535 C 0.48915 0.86755 0.36332 0.0
C1536 C 0.50128 0.86622 0.40149 0.0
C1537 C 0.538 0.86312 0.50993 0.0
C1538 C 0.52514 0.86416 0.47281 0.0
H1539 H 0.44441 0.86932 0.33053 0.0
H1540 H 0.46373 0.86853 0.39349 0.0
H1541 H 0.52026 0.84719 0.37189 0.0
H1542 H 0.5831 0.85803 0.53443 0.0
H1543 H 0.56242 0.8622 0.47608 0.0
C1544 C 0.90602 0.18261 0.20422 0.0
C1545 C 0.90412 0.18805 0.16431 0.0
C1546 C 0.9022 0.19481 0.23825 0.0
C1547 C 0.90121 0.24446 0.27144 0.0
H1548 H 0.88277 0.22777 0.36979 0.0
C1549 C 0.91759 0.28231 0.43127 0.0
C1550 C 0.90447 0.2834 0.46085 0.0
C1551 C 0.91441 0.27196 0.39338 0.0
C1552 C 0.8877 0.23277 0.34248 0.0
H1553 H 0.89593 0.21049 0.12895 0.0
H1554 H 0.88919 0.2319 0.18863 0.0
H1555 H 0.88174 0.20711 0.30635 0.0
H1556 H 0.87752 0.27463 0.47338 0.0
H1557 H 0.87193 0.25638 0.40683 0.0
H1558 H 0.90736 0.27004 0.30764 0.0
C1559 C 0.89381 0.21815 0.19346 0.0
C1560 C 0.88729 0.22085 0.30615 0.0
C1561 C 0.89755 0.20583 0.15921 0.0
C1562 C 0.88792 0.27404 0.45131 0.0
C1563 C 0.88476 0.26353 0.41326 0.0
C1564 C 0.90165 0.25636 0.30776 0.0
C1565 C 0.8964 0.21288 0.23349 0.0
C1566 C 0.89445 0.22637 0.27041 0.0
C1567 C 0.89802 0.26233 0.38385 0.0
C1568 C 0.89534 0.25052 0.34404 0.0
H1569 H 0.91095 0.169 0.20942 0.0
H1570 H 0.90458 0.19029 0.26848 0.0
H1571 H 0.90695 0.24918 0.24469 0.0
H1572 H 0.93048 0.28937 0.43741 0.0
H1573 H 0.92506 0.27114 0.37191 0.0
C1574 C 0.56767 0.15308 0.03066 0.0
C1575 C 0.56279 0.14662 0.98966 0.0
C1576 C 0.55548 0.15211 0.06146 0.0
C1577 C 0.51285 0.13124 0.08971 0.0
H1578 H 0.50816 0.17794 0.15629 0.0
C1579 C 0.4678 0.14404 0.23252 0.0
C1580 C 0.45734 0.16021 0.23357 0.0
C1581 C 0.48055 0.14032 0.20249 0.0
C1582 C 0.50929 0.16479 0.13801 0.0
H1583 H 0.5415 0.13297 0.94966 0.0
H1584 H 0.52021 0.13118 1.00376 0.0
H1585 H 0.53092 0.17459 0.10525 0.0
H1586 H 0.45174 0.18479 0.20283 0.0
H1587 H 0.47391 0.17842 0.15145 0.0
H1588 H 0.49098 0.12159 0.12275 0.0
C1589 C 0.53354 0.13704 1.01186 0.0
C1590 C 0.52245 0.16281 0.10895 0.0
C1591 C 0.54575 0.13809 0.98082 0.0
C1592 C 0.4596 0.17226 0.20332 0.0
C1593 C 0.47239 0.16866 0.17382 0.0
C1594 C 0.49976 0.13316 0.11936 0.0
C1595 C 0.53807 0.14458 0.0523 0.0
C1596 C 0.52435 0.14608 0.0842 0.0
C1597 C 0.48322 0.15282 0.17334 0.0
C1598 C 0.49771 0.15006 0.14347 0.0
H1599 H 0.5807 0.15958 0.03889 0.0
H1600 H 0.55953 0.15774 0.09241 0.0
H1601 H 0.51401 0.11816 0.07123 0.0
H1602 H 0.46638 0.13445 0.25529 0.0
H1603 H 0.48873 0.128 0.2029 0.0
C1604 C 0.62845 0.71675 0.99951 0.0
C1605 C 0.61128 0.70955 1.00587 0.0
C1606 C 0.63054 0.72908 0.96944 0.0
C1607 C 0.60811 0.74386 0.87356 0.0
H1608 H 0.63526 0.78945 0.89878 0.0
C1609 C 0.61922 0.79367 0.74956 0.0
C1610 C 0.61682 0.81269 0.76051 0.0
C1611 C 0.61983 0.78107 0.77928 0.0
C1612 C 0.62759 0.7768 0.89121 0.0
H1613 H 0.58298 0.70948 0.98452 0.0
H1614 H 0.58668 0.73033 0.93247 0.0
H1615 H 0.63439 0.76721 0.95002 0.0
H1616 H 0.61373 0.83326 0.81204 0.0
H1617 H 0.61501 0.8113 0.86403 0.0
H1618 H 0.60114 0.75337 0.81507 0.0
C1619 C 0.59856 0.72665 0.95057 0.0
C1620 C 0.62725 0.76394 0.9205 0.0
C1621 C 0.59644 0.71469 0.98078 0.0
C1622 C 0.6155 0.81874 0.80236 0.0
C1623 C 0.61636 0.80613 0.83225 0.0
C1624 C 0.60864 0.75656 0.84418 0.0
C1625 C 0.61558 0.73418 0.94446 0.0
C1626 C 0.61731 0.74735 0.91231 0.0
C1627 C 0.61831 0.78704 0.82112 0.0
C1628 C 0.61825 0.77333 0.85257 0.0
H1629 H 0.64016 0.71321 0.01832 0.0
H1630 H 0.64388 0.73453 0.96554 0.0
H1631 H 0.6004 0.73123 0.86588 0.0
H1632 H 0.6202 0.78837 0.71773 0.0
H1633 H 0.62152 0.76657 0.76936 0.0
C1634 C 0.96966 0.86956 0.51484 0.0
C1635 C 0.95107 0.86648 0.51859 0.0
C1636 C 0.98181 0.87069 0.54926 0.0
C1637 C 0.98574 0.8786 0.66268 0.0
H1638 H 0.02919 0.84913 0.65134 0.0
C1639 C 0.0449 0.87832 0.78984 0.0
C1640 C 0.05073 0.86061 0.79808 0.0
C1641 C 0.03276 0.88055 0.75614 0.0
C1642 C 0.01715 0.85747 0.65503 0.0
H1643 H 0.93065 0.8629 0.56204 0.0
H1644 H 0.95188 0.86509 0.62232 0.0
H1645 H 0.00779 0.85045 0.59253 0.0
H1646 H 0.04842 0.83145 0.77695 0.0
H1647 H 0.02778 0.8354 0.71845 0.0
H1648 H 0.99518 0.88547 0.72551 0.0
C1649 C 0.95703 0.86658 0.59258 0.0
C1650 C 1.00492 0.85834 0.62121 0.0
C1651 C 0.94486 0.86525 0.55799 0.0
C1652 C 0.04428 0.84531 0.77169 0.0
C1653 C 0.03246 0.84756 0.7379 0.0
C1654 C 0.99815 0.87794 0.69649 0.0
C1655 C 0.97572 0.86897 0.58854 0.0
C1656 C 0.98896 0.86876 0.6246 0.0
C1657 C 0.02651 0.86517 0.72961 0.0
C1658 C 0.0139 0.86717 0.69319 0.0
H1659 H 0.97499 0.87056 0.48506 0.0
H1660 H 0.99606 0.87274 0.54504 0.0
H1661 H 0.97364 0.88685 0.66629 0.0
H1662 H 0.04954 0.89039 0.8096 0.0
H1663 H 0.02847 0.89432 0.75049 0.0
C1664 C 0.61869 0.71219 0.23574 0.0
C1665 C 0.61425 0.69349 0.23712 0.0
C1666 C 0.62005 0.72437 0.27161 0.0
C1667 C 0.62601 0.72765 0.38466 0.0
H1668 H 0.59965 0.77348 0.38008 0.0
C1669 C 0.62773 0.78798 0.51776 0.0
C1670 C 0.61066 0.79513 0.52767 0.0
C1671 C 0.62948 0.77532 0.48289 0.0
C1672 C 0.6071 0.76076 0.38188 0.0
H1673 H 0.6085 0.67285 0.2778 0.0
H1674 H 0.61113 0.69413 0.34061 0.0
H1675 H 0.60068 0.75173 0.31865 0.0
H1676 H 0.58209 0.79452 0.50849 0.0
H1677 H 0.58523 0.7729 0.44788 0.0
H1678 H 0.63233 0.73678 0.44819 0.0
C1679 C 0.6135 0.69933 0.31161 0.0
C1680 C 0.60781 0.74835 0.34658 0.0
C1681 C 0.61194 0.68714 0.27558 0.0
C1682 C 0.59546 0.78935 0.50191 0.0
C1683 C 0.59725 0.77699 0.46695 0.0
C1684 C 0.62553 0.74024 0.41995 0.0
C1685 C 0.61721 0.71817 0.30994 0.0
C1686 C 0.61714 0.73156 0.34754 0.0
C1687 C 0.61426 0.76983 0.45689 0.0
C1688 C 0.61587 0.75686 0.41906 0.0
H1689 H 0.62054 0.71762 0.20675 0.0
H1690 H 0.62312 0.73875 0.26928 0.0
H1691 H 0.63339 0.71488 0.38636 0.0
H1692 H 0.63969 0.79209 0.537 0.0
H1693 H 0.64278 0.77008 0.47585 0.0
C1694 C 0.57315 0.36559 0.57221 0.0
C1695 C 0.56722 0.37016 0.53304 0.0
C1696 C 0.56158 0.36729 0.605 0.0
C1697 C 0.5125 0.37045 0.62812 0.0
H1698 H 0.53178 0.38486 0.73879 0.0
C1699 C 0.46616 0.37936 0.7685 0.0
C1700 C 0.47319 0.37302 0.80523 0.0
C1701 C 0.47722 0.38042 0.73504 0.0
C1702 C 0.52611 0.38062 0.70819 0.0
H1703 H 0.5443 0.38049 0.49837 0.0
H1704 H 0.5243 0.38371 0.55542 0.0
H1705 H 0.55167 0.384 0.68198 0.0
H1706 H 0.4976 0.36298 0.83512 0.0
H1707 H 0.51652 0.36472 0.77766 0.0
H1708 H 0.48694 0.36693 0.65454 0.0
C1709 C 0.53785 0.37852 0.56076 0.0
C1710 C 0.53761 0.38012 0.67539 0.0
C1711 C 0.54945 0.37686 0.52798 0.0
C1712 C 0.4916 0.36805 0.80761 0.0
C1713 C 0.50259 0.36915 0.77446 0.0
C1714 C 0.50098 0.37094 0.66101 0.0
C1715 C 0.54365 0.37363 0.59982 0.0
C1716 C 0.53108 0.37485 0.63477 0.0
C1717 C 0.49564 0.37527 0.73745 0.0
C1718 C 0.50762 0.37584 0.70173 0.0
H1719 H 0.58669 0.36036 0.57746 0.0
H1720 H 0.5666 0.36314 0.63424 0.0
H1721 H 0.50689 0.36611 0.59753 0.0
H1722 H 0.45205 0.38323 0.76534 0.0
H1723 H 0.47132 0.38536 0.70733 0.0
C1724 C 0.90058 0.21924 0.94344 0.0
C1725 C 0.89851 0.20018 0.9321 0.0
C1726 C 0.89657 0.232 0.915 0.0
C1727 C 0.89193 0.23545 0.80273 0.0
H1728 H 0.87064 0.28294 0.83535 0.0
C1729 C 0.87774 0.28858 0.68525 0.0
C1730 C 0.88357 0.30668 0.69844 0.0
C1731 C 0.8765 0.27544 0.71349 0.0
C1732 C 0.87667 0.26977 0.8257 0.0
H1733 H 0.89016 0.17971 0.88197 0.0
H1734 H 0.883 0.20187 0.83281 0.0
H1735 H 0.87487 0.26044 0.88521 0.0
H1736 H 0.89155 0.32542 0.75195 0.0
H1737 H 0.8893 0.30274 0.80083 0.0
H1738 H 0.89403 0.24487 0.74347 0.0
C1739 C 0.888 0.207 0.86346 0.0
C1740 C 0.87914 0.25686 0.8544 0.0
C1741 C 0.89199 0.19426 0.89184 0.0
C1742 C 0.88698 0.31161 0.74071 0.0
C1743 C 0.88564 0.29856 0.76885 0.0
C1744 C 0.88945 0.24835 0.77405 0.0
C1745 C 0.8904 0.22606 0.87445 0.0
C1746 C 0.88698 0.23958 0.84346 0.0
C1747 C 0.88093 0.28014 0.75558 0.0
C1748 C 0.88197 0.26579 0.78521 0.0
H1749 H 0.90562 0.22432 0.97409 0.0
H1750 H 0.8988 0.24653 0.92456 0.0
H1751 H 0.89826 0.22243 0.7932 0.0
H1752 H 0.87517 0.28426 0.65291 0.0
H1753 H 0.87256 0.26146 0.70219 0.0
C1754 C 0.03723 0.64158 0.23768 0.0
C1755 C 0.0527 0.65277 0.23703 0.0
C1756 C 0.02474 0.63941 0.20369 0.0
C1757 C 0.00708 0.66497 0.12135 0.0
H1758 H 0.98863 0.61864 0.0659 0.0
C1759 C 0.94511 0.66205 1.00887 0.0
C1760 C 0.94759 0.65356 0.96908 0.0
C1761 C 0.95776 0.65986 0.04105 0.0
C1762 C 0.99374 0.63164 0.08112 0.0
H1763 H 0.06736 0.66999 0.1996 0.0
H1764 H 0.04551 0.6665 0.14133 0.0
H1765 H 0.0113 0.61851 0.12377 0.0
H1766 H 0.96506 0.63533 0.9327 0.0
H1767 H 0.98718 0.63126 0.98973 0.0
H1768 H 0.98943 0.67817 0.07962 0.0
C1769 C 0.04307 0.65937 0.1679 0.0
C1770 C 0.00656 0.63157 0.11429 0.0
C1771 C 0.0556 0.66131 0.20137 0.0
C1772 C 0.96274 0.64212 0.96285 0.0
C1773 C 0.97536 0.63973 0.99546 0.0
C1774 C 0.9941 0.66504 0.0889 0.0
C1775 C 0.02739 0.64863 0.16885 0.0
C1776 C 0.01341 0.64827 0.13452 0.0
C1777 C 0.97316 0.64895 0.03463 0.0
C1778 C 0.9873 0.64841 0.06838 0.0
H1779 H 0.03463 0.63479 0.26462 0.0
H1780 H 0.0127 0.63111 0.20523 0.0
H1781 H 0.01205 0.67804 0.1365 0.0
H1782 H 0.93362 0.67091 1.01519 0.0
H1783 H 0.95563 0.66699 0.071 0.0
C1784 C 0.60723 0.32083 0.29351 0.0
C1785 C 0.61215 0.31634 0.33334 0.0
C1786 C 0.6099 0.30838 0.25886 0.0
C1787 C 0.61789 0.2582 0.22611 0.0
H1788 H 0.62611 0.2769 0.12232 0.0
C1789 C 0.62624 0.21006 0.07265 0.0
C1790 C 0.61567 0.21526 0.03879 0.0
C1791 C 0.62819 0.22199 0.10941 0.0
C1792 C 0.62377 0.27139 0.151 0.0
H1793 H 0.62421 0.29496 0.36716 0.0
H1794 H 0.62932 0.27343 0.30673 0.0
H1795 H 0.62538 0.29821 0.18424 0.0
H1796 H 0.59938 0.23738 1.01693 0.0
H1797 H 0.60311 0.25803 0.07974 0.0
H1798 H 0.6164 0.23128 0.19231 0.0
C1799 C 0.62302 0.28655 0.30231 0.0
C1800 C 0.62324 0.28369 0.18674 0.0
C1801 C 0.62025 0.29903 0.33716 0.0
C1802 C 0.60766 0.23286 0.04224 0.0
C1803 C 0.60985 0.2448 0.07839 0.0
C1804 C 0.61861 0.24584 0.19027 0.0
C1805 C 0.61774 0.29093 0.26248 0.0
C1806 C 0.61989 0.27741 0.22489 0.0
C1807 C 0.61993 0.23953 0.11282 0.0
C1808 C 0.62118 0.25229 0.15199 0.0
H1809 H 0.60081 0.33388 0.28893 0.0
H1810 H 0.60526 0.31233 0.22918 0.0
H1811 H 0.61512 0.25267 0.25452 0.0
H1812 H 0.63246 0.19657 0.07126 0.0
H1813 H 0.63612 0.21747 0.1352 0.0
C1814 C 0.95844 0.35533 0.53475 0.0
C1815 C 0.94101 0.34778 0.52574 0.0
C1816 C 0.97029 0.35713 0.50344 0.0
C1817 C 0.97208 0.35767 0.39018 0.0
H1818 H 0.02258 0.34569 0.41084 0.0
C1819 C 0.02358 0.34936 0.26119 0.0
C1820 C 0.04146 0.35548 0.27126 0.0
C1821 C 0.01092 0.34932 0.29158 0.0
C1822 C 0.00858 0.34935 0.4046 0.0
H1823 H 0.92235 0.33648 0.47625 0.0
H1824 H 0.943 0.33946 0.42191 0.0
H1825 H 1.00149 0.34414 0.46473 0.0
H1826 H 0.05979 0.36688 0.32125 0.0
H1827 H 0.0378 0.36709 0.37372 0.0
H1828 H 0.97922 0.36279 0.32989 0.0
C1829 C 0.94748 0.3442 0.45315 0.0
C1830 C 0.99644 0.34845 0.43565 0.0
C1831 C 0.93564 0.3424 0.48445 0.0
C1832 C 0.04619 0.36198 0.31227 0.0
C1833 C 0.03357 0.36196 0.34255 0.0
C1834 C 0.98425 0.35857 0.35908 0.0
C1835 C 0.96506 0.35143 0.4622 0.0
C1836 C 0.978 0.35261 0.42897 0.0
C1837 C 0.01581 0.35538 0.33284 0.0
C1838 C 1.0027 0.35446 0.36585 0.0
H1839 H 0.96306 0.35966 0.56612 0.0
H1840 H 0.98359 0.36302 0.51162 0.0
H1841 H 0.95804 0.36119 0.38397 0.0
H1842 H 0.01945 0.34418 0.22999 0.0
H1843 H 0.99744 0.34402 0.28288 0.0
C1844 C 0.90031 0.68861 0.74461 0.0
C1845 C 0.89223 0.69333 0.782 0.0
C1846 C 0.89992 0.70086 0.71436 0.0
C1847 C 0.89533 0.7508 0.70465 0.0
H1848 H 0.8952 0.73519 0.58819 0.0
C1849 C 0.91997 0.79865 0.59033 0.0
C1850 C 0.9112 0.79816 0.55117 0.0
C1851 C 0.91561 0.78588 0.61723 0.0
C1852 C 0.89502 0.73983 0.62055 0.0
H1853 H 0.8763 0.71412 0.81565 0.0
H1854 H 0.87518 0.73519 0.76263 0.0
H1855 H 0.89022 0.71248 0.63622 0.0
H1856 H 0.89076 0.78394 0.50978 0.0
H1857 H 0.8829 0.76172 0.55719 0.0
H1858 H 0.8999 0.77813 0.68914 0.0
C1859 C 0.88233 0.72228 0.75708 0.0
C1860 C 0.89239 0.72676 0.64818 0.0
C1861 C 0.88284 0.71011 0.78741 0.0
C1862 C 0.89778 0.78468 0.53972 0.0
C1863 C 0.89336 0.77188 0.5668 0.0
C1864 C 0.89788 0.76384 0.67709 0.0
C1865 C 0.89131 0.71807 0.72062 0.0
C1866 C 0.89273 0.73203 0.69066 0.0
C1867 C 0.90227 0.7723 0.6059 0.0
C1868 C 0.89807 0.75852 0.63473 0.0
H1869 H 0.90764 0.67584 0.7393 0.0
H1870 H 0.90711 0.69715 0.68688 0.0
H1871 H 0.89593 0.75541 0.7371 0.0
H1872 H 0.93045 0.80876 0.60016 0.0
H1873 H 0.92302 0.78645 0.6467 0.0
C1874 C 0.56502 0.65014 0.99361 0.0
C1875 C 0.56176 0.64333 0.03118 0.0
C1876 C 0.55233 0.64768 0.96052 0.0
C1877 C 0.51534 0.62117 0.90876 0.0
H1878 H 0.50027 0.66794 0.87159 0.0
C1879 C 0.46225 0.62783 0.77132 0.0
C1880 C 0.46546 0.64205 0.74667 0.0
C1881 C 0.47308 0.62622 0.80735 0.0
C1882 C 0.50444 0.65471 0.88109 0.0
H1883 H 0.54289 0.62755 0.06226 0.0
H1884 H 0.5207 0.62291 1.00335 0.0
H1885 H 0.52091 0.66755 0.93163 0.0
H1886 H 0.48319 0.66501 0.73913 0.0
H1887 H 0.50223 0.66189 0.80037 0.0
H1888 H 0.4994 0.6083 0.85699 0.0
C1889 C 0.53315 0.63033 1.00021 0.0
C1890 C 0.51616 0.65453 0.91579 0.0
C1891 C 0.54584 0.633 0.03385 0.0
C1892 C 0.48013 0.65408 0.75777 0.0
C1893 C 0.491 0.65237 0.79323 0.0
C1894 C 0.5037 0.62133 0.87345 0.0
C1895 C 0.5361 0.63814 0.96367 0.0
C1896 C 0.52202 0.6378 0.92957 0.0
C1897 C 0.4874 0.63874 0.81918 0.0
C1898 C 0.49845 0.63814 0.8586 0.0
H1899 H 0.57713 0.65803 0.98999 0.0
H1900 H 0.55503 0.65367 0.93256 0.0
H1901 H 0.5197 0.60809 0.91877 0.0
H1902 H 0.45103 0.61835 0.76355 0.0
H1903 H 0.46988 0.61556 0.82651 0.0
C1904 C 0.40499 0.323 0.7683 0.0
C1905 C 0.39966 0.3181 0.80622 0.0
C1906 C 0.40036 0.31195 0.73198 0.0
C1907 C 0.38812 0.26396 0.69361 0.0
H1908 H 0.37991 0.28531 0.59077 0.0
C1909 C 0.37797 0.21934 0.53676 0.0
C1910 C 0.38872 0.22474 0.50595 0.0
C1911 C 0.37634 0.23082 0.57331 0.0
C1912 C 0.3822 0.27913 0.61923 0.0
H1913 H 0.38462 0.29798 0.83533 0.0
H1914 H 0.37629 0.27874 0.7716 0.0
H1915 H 0.38171 0.30533 0.65503 0.0
H1916 H 0.40575 0.24663 0.48893 0.0
H1917 H 0.40276 0.26664 0.55225 0.0
H1918 H 0.38881 0.23775 0.65751 0.0
C1919 C 0.38432 0.29106 0.77017 0.0
C1920 C 0.38327 0.29061 0.65611 0.0
C1921 C 0.38898 0.30217 0.80669 0.0
C1922 C 0.39737 0.24204 0.51201 0.0
C1923 C 0.39557 0.25358 0.54825 0.0
C1924 C 0.38692 0.25246 0.65667 0.0
C1925 C 0.39019 0.29568 0.7324 0.0
C1926 C 0.38671 0.28324 0.69374 0.0
C1927 C 0.38521 0.24803 0.57954 0.0
C1928 C 0.38438 0.25996 0.619 0.0
H1929 H 0.41322 0.33517 0.76663 0.0
H1930 H 0.40538 0.31586 0.7037 0.0
H1931 H 0.39097 0.25778 0.72188 0.0
H1932 H 0.37117 0.20607 0.53308 0.0
H1933 H 0.36817 0.22622 0.59675 0.0
C1934 C 0.46149 0.62912 0.51296 0.0
C1935 C 0.44375 0.636 0.50955 0.0
C1936 C 0.47279 0.62884 0.48007 0.0
C1937 C 0.47999 0.65439 0.39259 0.0
H1938 H 0.51382 0.61546 0.36115 0.0
C1939 C 0.54286 0.66729 0.30444 0.0
C1940 C 0.54605 0.65501 0.2697 0.0
C1941 C 0.52974 0.66335 0.3313 0.0
C1942 C 0.50435 0.62637 0.36943 0.0
H1943 H 0.42364 0.64674 0.46778 0.0
H1944 H 0.44342 0.64646 0.4107 0.0
H1945 H 0.4914 0.61059 0.41147 0.0
H1946 H 0.53825 0.62869 0.2366 0.0
H1947 H 0.51541 0.62162 0.28435 0.0
H1948 H 0.49315 0.67034 0.35149 0.0
C1949 C 0.44862 0.64149 0.43901 0.0
C1950 C 0.49161 0.62364 0.39835 0.0
C1951 C 0.43727 0.64161 0.47174 0.0
C1952 C 0.53609 0.63844 0.26305 0.0
C1953 C 0.52307 0.63436 0.29038 0.0
C1954 C 0.49284 0.6572 0.36419 0.0
C1955 C 0.46664 0.63552 0.44314 0.0
C1956 C 0.47937 0.63768 0.41043 0.0
C1957 C 0.5196 0.64694 0.32443 0.0
C1958 C 0.50528 0.64331 0.35262 0.0
H1959 H 0.46692 0.62462 0.54157 0.0
H1960 H 0.48664 0.62424 0.48427 0.0
H1961 H 0.47089 0.66555 0.40157 0.0
H1962 H 0.55028 0.68018 0.31059 0.0
H1963 H 0.52753 0.67317 0.35758 0.0
C1964 C 0.11786 0.71024 0.32524 0.0
C1965 C 0.11729 0.69099 0.31562 0.0
C1966 C 0.11812 0.72206 0.29428 0.0
C1967 C 0.1067 0.72365 0.18316 0.0
H1968 H 0.13251 0.77031 0.20192 0.0
C1969 C 0.10793 0.77625 0.06062 0.0
C1970 C 0.10482 0.79473 0.07534 0.0
C1971 C 0.11101 0.76282 0.08799 0.0
C1972 C 0.12515 0.75737 0.19624 0.0
H1973 H 0.11743 0.66908 0.26588 0.0
H1974 H 0.11818 0.68972 0.21165 0.0
H1975 H 0.13547 0.74827 0.25285 0.0
H1976 H 0.10279 0.81358 0.13047 0.0
H1977 H 0.10825 0.79033 0.1778 0.0
H1978 H 0.09636 0.73291 0.12647 0.0
C1979 C 0.11799 0.6957 0.24319 0.0
C1980 C 0.12681 0.74472 0.22554 0.0
C1981 C 0.11767 0.68385 0.27427 0.0
C1982 C 0.10516 0.7995 0.11797 0.0
C1983 C 0.1084 0.78616 0.14521 0.0
C1984 C 0.10513 0.7363 0.15369 0.0
C1985 C 0.11801 0.71499 0.25274 0.0
C1986 C 0.11737 0.7278 0.21981 0.0
C1987 C 0.11126 0.76762 0.13066 0.0
C1988 C 0.11409 0.75346 0.16019 0.0
H1989 H 0.11743 0.71628 0.35671 0.0
H1990 H 0.1178 0.73679 0.30298 0.0
H1991 H 0.09904 0.7109 0.1778 0.0
H1992 H 0.10771 0.77209 0.02798 0.0
H1993 H 0.11328 0.74868 0.07576 0.0
C1994 C 0.06356 0.35698 0.99511 0.0
C1995 C 0.05749 0.35882 0.03526 0.0
C1996 C 0.05153 0.35843 0.96109 0.0
C1997 C 1.00556 0.37446 0.92776 0.0
H1998 H 0.01204 0.3387 0.83405 0.0
C1999 C 0.95381 0.3651 0.78474 0.0
C2000 C 0.96094 0.36051 0.74613 0.0
C2001 C 0.96508 0.36587 0.82094 0.0
C2002 C 0.01011 0.34901 0.85958 0.0
H2003 H 0.03374 0.36431 0.0705 0.0
H2004 H 0.01281 0.36689 1.01115 0.0
H2005 H 0.03251 0.33875 0.8944 0.0
H2006 H 0.98575 0.35379 0.71568 0.0
H2007 H 1.00519 0.35552 0.77781 0.0
H2008 H 0.9831 0.38473 0.89258 0.0
C2009 C 0.02698 0.36437 1.00608 0.0
C2010 C 0.02192 0.34902 0.89443 0.0
C2011 C 0.03904 0.36286 0.04024 0.0
C2012 C 0.97966 0.35722 0.74472 0.0
C2013 C 0.99086 0.35806 0.78064 0.0
C2014 C 0.99373 0.37451 0.89267 0.0
C2015 C 0.03297 0.36178 0.96589 0.0
C2016 C 0.01998 0.36182 0.929 0.0
C2017 C 0.98378 0.36208 0.81947 0.0
C2018 C 0.99591 0.36187 0.85781 0.0
H2019 H 0.07761 0.35391 0.98968 0.0
H2020 H 0.05679 0.35671 0.93081 0.0
H2021 H 1.00364 0.38461 0.95361 0.0
H2022 H 0.93946 0.36764 0.7871 0.0
H2023 H 0.95902 0.36891 0.85013 0.0
C2024 C 0.40298 0.6889 0.74244 0.0
C2025 C 0.40147 0.69391 0.70212 0.0
C2026 C 0.3999 0.70178 0.77587 0.0
C2027 C 0.40189 0.75168 0.80625 0.0
H2028 H 0.37851 0.73893 0.90251 0.0
C2029 C 0.39523 0.80507 0.94695 0.0
C2030 C 0.39851 0.79888 0.98585 0.0
C2031 C 0.39313 0.79251 0.91182 0.0
C2032 C 0.38523 0.74269 0.87605 0.0
H2033 H 0.39492 0.71639 0.66547 0.0
H2034 H 0.38955 0.73893 0.72397 0.0
H2035 H 0.37892 0.71662 0.84186 0.0
H2036 H 0.4017 0.77453 0.01832 0.0
H2037 H 0.39836 0.75262 0.95707 0.0
H2038 H 0.40868 0.7775 0.84058 0.0
C2039 C 0.39324 0.72499 0.72961 0.0
C2040 C 0.3854 0.7299 0.84119 0.0
C2041 C 0.39618 0.71202 0.69604 0.0
C2042 C 0.39911 0.77978 0.98888 0.0
C2043 C 0.39711 0.7672 0.95367 0.0
C2044 C 0.4018 0.76442 0.84113 0.0
C2045 C 0.39535 0.72009 0.76998 0.0
C2046 C 0.39389 0.73416 0.80597 0.0
C2047 C 0.39437 0.77339 0.91455 0.0
C2048 C 0.3936 0.76007 0.87669 0.0
H2049 H 0.40698 0.67508 0.74839 0.0
H2050 H 0.40181 0.69756 0.80648 0.0
H2051 H 0.40881 0.75532 0.77996 0.0
H2052 H 0.39456 0.81968 0.94347 0.0
H2053 H 0.39067 0.79783 0.88243 0.0
C2054 C 0.97697 0.64782 0.7409 0.0
C2055 C 0.95833 0.64545 0.731 0.0
C2056 C 0.98947 0.6461 0.71016 0.0
C2057 C 0.9951 0.62888 0.60026 0.0
H2058 H 0.03433 0.66456 0.61117 0.0
C2059 C 0.0424 0.64146 0.46813 0.0
C2060 C 0.06068 0.64553 0.4796 0.0
C2061 C 0.02984 0.63951 0.49811 0.0
C2062 C 0.02361 0.65431 0.60777 0.0
H2063 H 0.93833 0.6389 0.68082 0.0
H2064 H 0.96003 0.63615 0.62736 0.0
H2065 H 0.01294 0.66472 0.66474 0.0
H2066 H 0.08022 0.6495 0.53157 0.0
H2067 H 0.05858 0.64587 0.58311 0.0
H2068 H 1.00577 0.6187 0.54273 0.0
C2069 C 0.96507 0.63911 0.65892 0.0
C2070 C 0.01131 0.65438 0.63867 0.0
C2071 C 0.95258 0.64078 0.68968 0.0
C2072 C 0.06623 0.64663 0.52147 0.0
C2073 C 0.05376 0.64466 0.55121 0.0
C2074 C 0.00742 0.62885 0.56917 0.0
C2075 C 0.98368 0.64204 0.66861 0.0
C2076 C 0.9969 0.64163 0.63554 0.0
C2077 C 0.03531 0.64159 0.54013 0.0
C2078 C 0.02191 0.64151 0.57265 0.0
H2079 H 0.98191 0.65135 0.77237 0.0
H2080 H 1.0037 0.6481 0.719 0.0
H2081 H 0.98429 0.61873 0.59685 0.0
H2082 H 0.03764 0.64059 0.43622 0.0
H2083 H 0.01573 0.63717 0.48844 0.0
C2084 C 0.10647 0.32449 0.26382 0.0
C2085 C 0.11114 0.31805 0.22392 0.0
C2086 C 0.10716 0.31276 0.29527 0.0
C2087 C 0.10732 0.26282 0.31156 0.0
H2088 H 0.12264 0.28057 0.42341 0.0
C2089 C 0.11924 0.2128 0.43626 0.0
C2090 C 0.11342 0.21815 0.47581 0.0
C2091 C 0.11925 0.22532 0.40658 0.0
C2092 C 0.11813 0.27541 0.39243 0.0
H2093 H 0.12071 0.29417 0.18636 0.0
H2094 H 0.12222 0.27392 0.24101 0.0
H2095 H 0.12236 0.30165 0.37011 0.0
H2096 H 0.10324 0.24115 0.51505 0.0
H2097 H 0.10324 0.26302 0.46323 0.0
H2098 H 0.1031 0.23661 0.33376 0.0
C2099 C 0.11766 0.28795 0.24799 0.0
C2100 C 0.11797 0.28753 0.36176 0.0
C2101 C 0.11698 0.29968 0.21662 0.0
C2102 C 0.10787 0.23652 0.48501 0.0
C2103 C 0.10794 0.24911 0.45527 0.0
C2104 C 0.10752 0.25072 0.34215 0.0
C2105 C 0.11257 0.29423 0.28773 0.0
C2106 C 0.11264 0.2814 0.32078 0.0
C2107 C 0.11347 0.24364 0.41545 0.0
C2108 C 0.11301 0.25678 0.38304 0.0
H2109 H 0.10206 0.33856 0.27074 0.0
H2110 H 0.10301 0.31812 0.32528 0.0
H2111 H 0.10273 0.25762 0.28067 0.0
H2112 H 0.12364 0.19881 0.42793 0.0
H2113 H 0.1239 0.22063 0.3766 0.0
C2114 C 0.46731 0.37083 0.0227 0.0
C2115 C 0.44983 0.36313 0.02173 0.0
C2116 C 0.47803 0.37326 0.05939 0.0
C2117 C 0.48268 0.35654 0.16298 0.0
H2118 H 0.51591 0.39787 0.18641 0.0
C2119 C 0.52305 0.37051 0.31909 0.0
C2120 C 0.54148 0.37512 0.31813 0.0
C2121 C 0.5116 0.3699 0.28358 0.0
C2122 C 0.5068 0.38617 0.18019 0.0
H2123 H 0.42978 0.35244 0.05906 0.0
H2124 H 0.44822 0.35713 0.12306 0.0
H2125 H 0.49626 0.39555 0.12394 0.0
H2126 H 0.56218 0.38309 0.27899 0.0
H2127 H 0.54216 0.38219 0.21711 0.0
H2128 H 0.49317 0.34724 0.21937 0.0
C2129 C 0.45387 0.3609 0.09532 0.0
C2130 C 0.49553 0.3848 0.14426 0.0
C2131 C 0.44319 0.35835 0.05859 0.0
C2132 C 0.54807 0.37952 0.2809 0.0
C2133 C 0.53656 0.37907 0.24543 0.0
C2134 C 0.49386 0.35797 0.19899 0.0
C2135 C 0.47155 0.36816 0.09621 0.0
C2136 C 0.48333 0.36993 0.13503 0.0
C2137 C 0.51821 0.37406 0.2462 0.0
C2138 C 0.50611 0.37277 0.20805 0.0
H2139 H 0.47295 0.37452 0.99487 0.0
H2140 H 0.49163 0.37865 0.05854 0.0
H2141 H 0.47379 0.34468 0.15672 0.0
H2142 H 0.51747 0.36704 0.34718 0.0
H2143 H 0.49751 0.36621 0.28546 0.0
loop_
_geom_bond_atom_site_label_1
_geom_bond_atom_site_label_2
_geom_bond_distance
_geom_bond_site_symmetry_2
_ccdc_geom_bond_type
O0 Tb1 2.292 . S
O0 C3 1.255 . S
Tb1 O0 2.292 . S
Tb1 O17 2.326 . S
Tb1 O19 2.500 . S
Tb1 O20 2.473 . S
Tb1 O23 2.324 . S
Eu2 O6 2.292 . S
Eu2 C7 2.852 . S
Eu2 O18 2.324 . S
Eu2 O22 2.326 . S
Eu2 O24 2.500 . S
Eu2 O25 2.473 . S
C3 O0 1.255 . S
C3 O4 1.247 . S
O4 C3 1.247 . S
C5 O17 1.242 . S
C5 O18 1.258 . S
O6 Eu2 2.292 . S
O6 C8 1.255 1_554 S
C7 Eu2 2.852 . S
C7 C11 1.503 . S
C7 O24 1.273 . S
C7 O25 1.257 . S
C8 O6 1.255 1_556 S
C8 O9 1.247 . S
O9 C8 1.247 . S
C10 O22 1.242 . S
C10 O23 1.258 . S
C11 C7 1.503 . S
C11 C12 1.379 . S
C11 C16 1.392 . S
C12 C11 1.379 . S
C12 C13 1.404 . S
C12 H26 0.929 . S
C13 C12 1.404 . S
C13 C14 1.389 . S
C14 C13 1.389 . S
C14 C15 1.399 . S
C14 H27 0.931 . S
C15 C14 1.399 . S
C15 C16 1.390 . S
C16 C11 1.392 . S
C16 C15 1.390 . S
C16 H28 0.929 . S
O17 Tb1 2.326 . S
O17 C5 1.242 . S
O18 Eu2 2.324 . S
O18 C5 1.258 . S
O19 Tb1 2.500 . S
O19 C21 1.273 . S
O20 Tb1 2.473 . S
O20 C21 1.257 . S
C21 O19 1.273 . S
C21 O20 1.257 . S
O22 Eu2 2.326 . S
O22 C10 1.242 . S
O23 Tb1 2.324 . S
O23 C10 1.258 . S
O24 Eu2 2.500 . S
O24 C7 1.273 . S
O25 Eu2 2.473 . S
O25 C7 1.257 . S
H26 C12 0.929 . S
H27 C14 0.931 . S
H28 C16 0.929 . S
O29 Tb30 2.292 . S
O29 C32 1.255 . S
Tb30 O29 2.292 . S
Tb30 O46 2.326 . S
Tb30 O48 2.500 . S
Tb30 O49 2.473 . S
Tb30 O52 2.324 . S
Eu31 O35 2.292 . S
Eu31 C36 2.852 . S
Eu31 O47 2.324 . S
Eu31 O51 2.326 . S
Eu31 O53 2.500 . S
Eu31 O54 2.473 . S
C32 O29 1.255 . S
C32 O33 1.247 . S
O33 C32 1.247 . S
C34 O46 1.242 . S
C34 O47 1.258 . S
O35 Eu31 2.292 . S
O35 C37 1.255 . S
C36 Eu31 2.852 . S
C36 C40 1.503 . S
C36 O53 1.273 . S
C36 O54 1.257 . S
C37 O35 1.255 . S
C37 O38 1.247 . S
O38 C37 1.247 . S
C39 O51 1.242 . S
C39 O52 1.258 . S
C40 C36 1.503 . S
C40 C41 1.379 . S
C40 C45 1.392 . S
C41 C40 1.379 . S
C41 C42 1.404 . S
C41 H55 0.929 . S
C42 C41 1.404 . S
C42 C43 1.389 . S
C43 C42 1.389 . S
C43 C44 1.399 . S
C43 H56 0.931 . S
C44 C43 1.399 . S
C44 C45 1.390 . S
C45 C40 1.392 . S
C45 C44 1.390 . S
C45 H57 0.929 . S
O46 Tb30 2.326 . S
O46 C34 1.242 . S
O47 Eu31 2.324 . S
O47 C34 1.258 . S
O48 Tb30 2.500 . S
O48 C50 1.273 . S
O49 Tb30 2.473 . S
O49 C50 1.257 . S
C50 O48 1.273 . S
C50 O49 1.257 . S
O51 Eu31 2.326 . S
O51 C39 1.242 . S
O52 Tb30 2.324 . S
O52 C39 1.258 . S
O53 Eu31 2.500 . S
O53 C36 1.273 . S
O54 Eu31 2.473 . S
O54 C36 1.257 . S
H55 C41 0.929 . S
H56 C43 0.931 . S
H57 C45 0.929 . S
O58 Tb59 2.292 . S
O58 C61 1.255 . S
Tb59 O58 2.292 . S
Tb59 O75 2.326 . S
Tb59 O77 2.500 . S
Tb59 O78 2.473 . S
Tb59 O81 2.324 . S
Eu60 O64 2.292 . S
Eu60 C65 2.852 . S
Eu60 O76 2.324 . S
Eu60 O80 2.326 . S
Eu60 O82 2.500 . S
Eu60 O83 2.473 . S
C61 O58 1.255 . S
C61 O62 1.247 . S
O62 C61 1.247 . S
C63 O75 1.242 . S
C63 O76 1.258 . S
O64 Eu60 2.292 . S
O64 C66 1.255 . S
C65 Eu60 2.852 . S
C65 C69 1.503 . S
C65 O82 1.273 . S
C65 O83 1.257 . S
C66 O64 1.255 . S
C66 O67 1.247 . S
O67 C66 1.247 . S
C68 O80 1.242 . S
C68 O81 1.258 . S
C69 C65 1.503 . S
C69 C70 1.379 . S
C69 C74 1.392 . S
C70 C69 1.379 . S
C70 C71 1.404 . S
C70 H84 0.929 . S
C71 C70 1.404 . S
C71 C72 1.389 . S
C72 C71 1.389 . S
C72 C73 1.399 . S
C72 H85 0.931 . S
C73 C72 1.399 . S
C73 C74 1.390 . S
C74 C69 1.392 . S
C74 C73 1.390 . S
C74 H86 0.929 . S
O75 Tb59 2.326 . S
O75 C63 1.242 . S
O76 Eu60 2.324 . S
O76 C63 1.258 . S
O77 Tb59 2.500 . S
O77 C79 1.273 . S
O78 Tb59 2.473 . S
O78 C79 1.257 . S
C79 O77 1.273 . S
C79 O78 1.257 . S
O80 Eu60 2.326 . S
O80 C68 1.242 . S
O81 Tb59 2.324 . S
O81 C68 1.258 . S
O82 Eu60 2.500 . S
O82 C65 1.273 . S
O83 Eu60 2.473 . S
O83 C65 1.257 . S
H84 C70 0.929 . S
H85 C72 0.931 . S
H86 C74 0.929 . S
O87 Tb88 2.292 . S
O87 C90 1.255 . S
Tb88 O87 2.292 . S
Tb88 O104 2.326 . S
Tb88 O106 2.500 . S
Tb88 O107 2.473 . S
Tb88 O110 2.324 . S
Eu89 O93 2.292 . S
Eu89 C94 2.852 . S
Eu89 O105 2.324 . S
Eu89 O109 2.326 . S
Eu89 O111 2.500 . S
Eu89 O112 2.473 . S
C90 O87 1.255 . S
C90 O91 1.247 . S
O91 C90 1.247 . S
C92 O104 1.242 . S
C92 O105 1.258 . S
O93 Eu89 2.292 . S
O93 C95 1.255 1_556 S
C94 Eu89 2.852 . S
C94 C98 1.503 . S
C94 O111 1.273 . S
C94 O112 1.257 . S
C95 O93 1.255 1_554 S
C95 O96 1.247 . S
O96 C95 1.247 . S
C97 O109 1.242 . S
C97 O110 1.258 . S
C98 C94 1.503 . S
C98 C99 1.379 . S
C98 C103 1.392 . S
C99 C98 1.379 . S
C99 C100 1.404 . S
C99 H113 0.929 . S
C100 C99 1.404 . S
C100 C101 1.389 . S
C101 C100 1.389 . S
C101 C102 1.399 . S
C101 H114 0.931 . S
C102 C101 1.399 . S
C102 C103 1.390 . S
C103 C98 1.392 . S
C103 C102 1.390 . S
C103 H115 0.929 . S
O104 Tb88 2.326 . S
O104 C92 1.242 . S
O105 Eu89 2.324 . S
O105 C92 1.258 . S
O106 Tb88 2.500 . S
O106 C108 1.273 . S
O107 Tb88 2.473 . S
O107 C108 1.257 . S
C108 O106 1.273 . S
C108 O107 1.257 . S
O109 Eu89 2.326 . S
O109 C97 1.242 . S
O110 Tb88 2.324 . S
O110 C97 1.258 . S
O111 Eu89 2.500 . S
O111 C94 1.273 . S
O112 Eu89 2.473 . S
O112 C94 1.257 . S
H113 C99 0.929 . S
H114 C101 0.931 . S
H115 C103 0.929 . S
O116 Tb117 2.292 . S
O116 C119 1.255 . S
Tb117 O116 2.292 . S
Tb117 O133 2.326 . S
Tb117 O135 2.500 . S
Tb117 O136 2.473 . S
Tb117 O139 2.324 . S
Eu118 O122 2.292 . S
Eu118 C123 2.852 . S
Eu118 O134 2.324 . S
Eu118 O138 2.326 . S
Eu118 O140 2.500 . S
Eu118 O141 2.473 . S
C119 O116 1.255 . S
C119 O120 1.247 . S
O120 C119 1.247 . S
C121 O133 1.242 . S
C121 O134 1.258 . S
O122 Eu118 2.292 . S
O122 C124 1.255 . S
C123 Eu118 2.852 . S
C123 C127 1.503 . S
C123 O140 1.273 . S
C123 O141 1.257 . S
C124 O122 1.255 . S
C124 O125 1.247 . S
O125 C124 1.247 . S
C126 O138 1.242 . S
C126 O139 1.258 . S
C127 C123 1.503 . S
C127 C128 1.379 . S
C127 C132 1.392 . S
C128 C127 1.379 . S
C128 C129 1.404 . S
C128 H142 0.929 . S
C129 C128 1.404 . S
C129 C130 1.389 . S
C130 C129 1.389 . S
C130 C131 1.399 . S
C130 H143 0.931 . S
C131 C130 1.399 . S
C131 C132 1.390 . S
C132 C127 1.392 . S
C132 C131 1.390 . S
C132 H144 0.929 . S
O133 Tb117 2.326 . S
O133 C121 1.242 . S
O134 Eu118 2.324 . S
O134 C121 1.258 . S
O135 Tb117 2.500 . S
O135 C137 1.273 . S
O136 Tb117 2.473 . S
O136 C137 1.257 . S
C137 O135 1.273 . S
C137 O136 1.257 . S
O138 Eu118 2.326 . S
O138 C126 1.242 . S
O139 Tb117 2.324 . S
O139 C126 1.258 . S
O140 Eu118 2.500 . S
O140 C123 1.273 . S
O141 Eu118 2.473 . S
O141 C123 1.257 . S
H142 C128 0.929 . S
H143 C130 0.931 . S
H144 C132 0.929 . S
O145 Tb146 2.292 . S
O145 C148 1.255 . S
Tb146 O145 2.292 . S
Tb146 O162 2.326 . S
Tb146 O164 2.500 . S
Tb146 O165 2.473 . S
Tb146 O168 2.324 . S
Eu147 O151 2.292 . S
Eu147 C152 2.852 . S
Eu147 O163 2.324 . S
Eu147 O167 2.326 . S
Eu147 O169 2.500 . S
Eu147 O170 2.473 . S
C148 O145 1.255 . S
C148 O149 1.247 . S
O149 C148 1.247 . S
C150 O162 1.242 . S
C150 O163 1.258 . S
O151 Eu147 2.292 . S
O151 C153 1.255 . S
C152 Eu147 2.852 . S
C152 C156 1.503 . S
C152 O169 1.273 . S
C152 O170 1.257 . S
C153 O151 1.255 . S
C153 O154 1.247 . S
O154 C153 1.247 . S
C155 O167 1.242 . S
C155 O168 1.258 . S
C156 C152 1.503 . S
C156 C157 1.379 . S
C156 C161 1.392 . S
C157 C156 1.379 . S
C157 C158 1.404 . S
C157 H171 0.929 . S
C158 C157 1.404 . S
C158 C159 1.389 . S
C159 C158 1.389 . S
C159 C160 1.399 . S
C159 H172 0.931 . S
C160 C159 1.399 . S
C160 C161 1.390 . S
C161 C156 1.392 . S
C161 C160 1.390 . S
C161 H173 0.929 . S
O162 Tb146 2.326 . S
O162 C150 1.242 . S
O163 Eu147 2.324 . S
O163 C150 1.258 . S
O164 Tb146 2.500 . S
O164 C166 1.273 . S
O165 Tb146 2.473 . S
O165 C166 1.257 . S
C166 O164 1.273 . S
C166 O165 1.257 . S
O167 Eu147 2.326 . S
O167 C155 1.242 . S
O168 Tb146 2.324 . S
O168 C155 1.258 . S
O169 Eu147 2.500 . S
O169 C152 1.273 . S
O170 Eu147 2.473 . S
O170 C152 1.257 . S
H171 C157 0.929 . S
H172 C159 0.931 . S
H173 C161 0.929 . S
O174 Tb175 2.292 . S
O174 C177 1.255 1_556 S
Tb175 O174 2.292 . S
Tb175 O191 2.326 . S
Tb175 O193 2.500 . S
Tb175 O194 2.473 . S
Tb175 O197 2.324 . S
Eu176 O180 2.292 . S
Eu176 C181 2.852 . S
Eu176 O192 2.324 . S
Eu176 O196 2.326 . S
Eu176 O198 2.500 . S
Eu176 O199 2.473 . S
C177 O174 1.255 1_554 S
C177 O178 1.247 . S
O178 C177 1.247 . S
C179 O191 1.242 . S
C179 O192 1.258 . S
O180 Eu176 2.292 . S
O180 C182 1.255 . S
C181 Eu176 2.852 . S
C181 C185 1.503 . S
C181 O198 1.273 . S
C181 O199 1.257 . S
C182 O180 1.255 . S
C182 O183 1.247 . S
O183 C182 1.247 . S
C184 O196 1.242 . S
C184 O197 1.258 . S
C185 C181 1.503 . S
C185 C186 1.379 . S
C185 C190 1.392 . S
C186 C185 1.379 . S
C186 C187 1.404 . S
C186 H200 0.929 . S
C187 C186 1.404 . S
C187 C188 1.389 . S
C188 C187 1.389 . S
C188 C189 1.399 . S
C188 H201 0.931 . S
C189 C188 1.399 . S
C189 C190 1.390 . S
C190 C185 1.392 . S
C190 C189 1.390 . S
C190 H202 0.929 . S
O191 Tb175 2.326 . S
O191 C179 1.242 . S
O192 Eu176 2.324 . S
O192 C179 1.258 . S
O193 Tb175 2.500 . S
O193 C195 1.273 . S
O194 Tb175 2.473 . S
O194 C195 1.257 . S
C195 O193 1.273 . S
C195 O194 1.257 . S
O196 Eu176 2.326 . S
O196 C184 1.242 . S
O197 Tb175 2.324 . S
O197 C184 1.258 . S
O198 Eu176 2.500 . S
O198 C181 1.273 . S
O199 Eu176 2.473 . S
O199 C181 1.257 . S
H200 C186 0.929 . S
H201 C188 0.931 . S
H202 C190 0.929 . S
O203 Tb204 2.282 1_556 S
O203 C206 1.263 . S
Tb204 O203 2.282 1_554 S
Tb204 O220 2.326 . S
Tb204 O222 2.500 . S
Tb204 O223 2.473 . S
Tb204 O226 2.324 . S
Eu205 O209 2.292 . S
Eu205 C210 2.852 . S
Eu205 O221 2.324 . S
Eu205 O225 2.326 . S
Eu205 O227 2.500 . S
Eu205 O228 2.473 . S
C206 O203 1.263 . S
C206 O207 1.247 . S
O207 C206 1.247 . S
C208 O220 1.242 . S
C208 O221 1.258 . S
O209 Eu205 2.292 . S
O209 C211 1.255 . S
C210 Eu205 2.852 . S
C210 C214 1.503 . S
C210 O227 1.273 . S
C210 O228 1.257 . S
C211 O209 1.255 . S
C211 O212 1.247 . S
O212 C211 1.247 . S
C213 O225 1.242 . S
C213 O226 1.258 . S
C214 C210 1.503 . S
C214 C215 1.379 . S
C214 C219 1.392 . S
C215 C214 1.379 . S
C215 C216 1.404 . S
C215 H229 0.929 . S
C216 C215 1.404 . S
C216 C217 1.389 . S
C217 C216 1.389 . S
C217 C218 1.399 . S
C217 H230 0.931 . S
C218 C217 1.399 . S
C218 C219 1.390 . S
C219 C214 1.392 . S
C219 C218 1.390 . S
C219 H231 0.929 . S
O220 Tb204 2.326 . S
O220 C208 1.242 . S
O221 Eu205 2.324 . S
O221 C208 1.258 . S
O222 Tb204 2.500 . S
O222 C224 1.273 . S
O223 Tb204 2.473 . S
O223 C224 1.257 . S
C224 O222 1.273 . S
C224 O223 1.257 . S
O225 Eu205 2.326 . S
O225 C213 1.242 . S
O226 Tb204 2.324 . S
O226 C213 1.258 . S
O227 Eu205 2.500 . S
O227 C210 1.273 . S
O228 Eu205 2.473 . S
O228 C210 1.257 . S
H229 C215 0.929 . S
H230 C217 0.931 . S
H231 C219 0.929 . S
O232 Tb233 2.292 . S
O232 C235 1.255 . S
Tb233 O232 2.292 . S
Tb233 O249 2.326 . S
Tb233 O251 2.500 . S
Tb233 O252 2.473 . S
Tb233 O255 2.324 . S
Eu234 O238 2.292 . S
Eu234 C239 2.852 . S
Eu234 O250 2.324 . S
Eu234 O254 2.326 . S
Eu234 O256 2.500 . S
Eu234 O257 2.473 . S
C235 O232 1.255 . S
C235 O236 1.247 . S
O236 C235 1.247 . S
C237 O249 1.242 . S
C237 O250 1.258 . S
O238 Eu234 2.292 . S
O238 C240 1.256 1_556 S
C239 Eu234 2.852 . S
C239 C243 1.503 . S
C239 O256 1.273 . S
C239 O257 1.257 . S
C240 O238 1.256 1_554 S
C240 O241 1.249 . S
O241 C240 1.249 . S
C242 O254 1.242 . S
C242 O255 1.258 . S
C243 C239 1.503 . S
C243 C244 1.379 . S
C243 C248 1.392 . S
C244 C243 1.379 . S
C244 C245 1.404 . S
C244 H258 0.929 . S
C245 C244 1.404 . S
C245 C246 1.389 . S
C246 C245 1.389 . S
C246 C247 1.399 . S
C246 H259 0.931 . S
C247 C246 1.399 . S
C247 C248 1.390 . S
C248 C243 1.392 . S
C248 C247 1.390 . S
C248 H260 0.929 . S
O249 Tb233 2.326 . S
O249 C237 1.242 . S
O250 Eu234 2.324 . S
O250 C237 1.258 . S
O251 Tb233 2.500 . S
O251 C253 1.273 . S
O252 Tb233 2.473 . S
O252 C253 1.257 . S
C253 O251 1.273 . S
C253 O252 1.257 . S
O254 Eu234 2.326 . S
O254 C242 1.242 . S
O255 Tb233 2.324 . S
O255 C242 1.258 . S
O256 Eu234 2.500 . S
O256 C239 1.273 . S
O257 Eu234 2.473 . S
O257 C239 1.257 . S
H258 C244 0.929 . S
H259 C246 0.931 . S
H260 C248 0.929 . S
O261 Tb262 2.292 . S
O261 C264 1.255 . S
Tb262 O261 2.292 . S
Tb262 O278 2.326 . S
Tb262 O280 2.500 . S
Tb262 O281 2.473 . S
Tb262 O284 2.324 . S
Eu263 O267 2.292 . S
Eu263 C268 2.852 . S
Eu263 O279 2.324 . S
Eu263 O283 2.326 . S
Eu263 O285 2.500 . S
Eu263 O286 2.473 . S
C264 O261 1.255 . S
C264 O265 1.247 . S
O265 C264 1.247 . S
C266 O278 1.242 . S
C266 O279 1.258 . S
O267 Eu263 2.292 . S
O267 C269 1.255 . S
C268 Eu263 2.852 . S
C268 C272 1.503 . S
C268 O285 1.273 . S
C268 O286 1.257 . S
C269 O267 1.255 . S
C269 O270 1.247 . S
O270 C269 1.247 . S
C271 O283 1.242 . S
C271 O284 1.258 . S
C272 C268 1.503 . S
C272 C273 1.379 . S
C272 C277 1.392 . S
C273 C272 1.379 . S
C273 C274 1.404 . S
C273 H287 0.929 . S
C274 C273 1.404 . S
C274 C275 1.389 . S
C275 C274 1.389 . S
C275 C276 1.399 . S
C275 H288 0.931 . S
C276 C275 1.399 . S
C276 C277 1.390 . S
C277 C272 1.392 . S
C277 C276 1.390 . S
C277 H289 0.929 . S
O278 Tb262 2.326 . S
O278 C266 1.242 . S
O279 Eu263 2.324 . S
O279 C266 1.258 . S
O280 Tb262 2.500 . S
O280 C282 1.273 . S
O281 Tb262 2.473 . S
O281 C282 1.257 . S
C282 O280 1.273 . S
C282 O281 1.257 . S
O283 Eu263 2.326 . S
O283 C271 1.242 . S
O284 Tb262 2.324 . S
O284 C271 1.258 . S
O285 Eu263 2.500 . S
O285 C268 1.273 . S
O286 Eu263 2.473 . S
O286 C268 1.257 . S
H287 C273 0.929 . S
H288 C275 0.931 . S
H289 C277 0.929 . S
O290 Tb291 2.292 . S
O290 C293 1.255 . S
Tb291 O290 2.292 . S
Tb291 O307 2.326 . S
Tb291 O309 2.500 . S
Tb291 O310 2.473 . S
Tb291 O313 2.324 . S
Eu292 O296 2.292 . S
Eu292 C297 2.852 . S
Eu292 O308 2.324 . S
Eu292 O312 2.326 . S
Eu292 O314 2.500 . S
Eu292 O315 2.473 . S
C293 O290 1.255 . S
C293 O294 1.247 . S
O294 C293 1.247 . S
C295 O307 1.242 . S
C295 O308 1.258 . S
O296 Eu292 2.292 . S
O296 C298 1.255 . S
C297 Eu292 2.852 . S
C297 C301 1.503 . S
C297 O314 1.273 . S
C297 O315 1.257 . S
C298 O296 1.255 . S
C298 O299 1.247 . S
O299 C298 1.247 . S
C300 O312 1.242 . S
C300 O313 1.258 . S
C301 C297 1.503 . S
C301 C302 1.379 . S
C301 C306 1.392 . S
C302 C301 1.379 . S
C302 C303 1.404 . S
C302 H316 0.929 . S
C303 C302 1.404 . S
C303 C304 1.389 . S
C304 C303 1.389 . S
C304 C305 1.399 . S
C304 H317 0.931 . S
C305 C304 1.399 . S
C305 C306 1.390 . S
C306 C301 1.392 . S
C306 C305 1.390 . S
C306 H318 0.929 . S
O307 Tb291 2.326 . S
O307 C295 1.242 . S
O308 Eu292 2.324 . S
O308 C295 1.258 . S
O309 Tb291 2.500 . S
O309 C311 1.273 . S
O310 Tb291 2.473 . S
O310 C311 1.257 . S
C311 O309 1.273 . S
C311 O310 1.257 . S
O312 Eu292 2.326 . S
O312 C300 1.242 . S
O313 Tb291 2.324 . S
O313 C300 1.258 . S
O314 Eu292 2.500 . S
O314 C297 1.273 . S
O315 Eu292 2.473 . S
O315 C297 1.257 . S
H316 C302 0.929 . S
H317 C304 0.931 . S
H318 C306 0.929 . S
O319 Tb320 2.292 . S
O319 C322 1.255 . S
Tb320 O319 2.292 . S
Tb320 O336 2.326 . S
Tb320 O338 2.500 . S
Tb320 O339 2.473 . S
Tb320 O342 2.324 . S
Eu321 O325 2.292 . S
Eu321 C326 2.852 . S
Eu321 O337 2.324 . S
Eu321 O341 2.326 . S
Eu321 O343 2.500 . S
Eu321 O344 2.473 . S
C322 O319 1.255 . S
C322 O323 1.247 . S
O323 C322 1.247 . S
C324 O336 1.242 . S
C324 O337 1.258 . S
O325 Eu321 2.292 . S
O325 C327 1.255 . S
C326 Eu321 2.852 . S
C326 C330 1.503 . S
C326 O343 1.273 . S
C326 O344 1.257 . S
C327 O325 1.255 . S
C327 O328 1.247 . S
O328 C327 1.247 . S
C329 O341 1.242 . S
C329 O342 1.258 . S
C330 C326 1.503 . S
C330 C331 1.379 . S
C330 C335 1.392 . S
C331 C330 1.379 . S
C331 C332 1.404 . S
C331 H345 0.929 . S
C332 C331 1.404 . S
C332 C333 1.389 . S
C333 C332 1.389 . S
C333 C334 1.399 . S
C333 H346 0.931 . S
C334 C333 1.399 . S
C334 C335 1.390 . S
C335 C330 1.392 . S
C335 C334 1.390 . S
C335 H347 0.929 . S
O336 Tb320 2.326 . S
O336 C324 1.242 . S
O337 Eu321 2.324 . S
O337 C324 1.258 . S
O338 Tb320 2.500 . S
O338 C340 1.273 . S
O339 Tb320 2.473 . S
O339 C340 1.257 . S
C340 O338 1.273 . S
C340 O339 1.257 . S
O341 Eu321 2.326 . S
O341 C329 1.242 . S
O342 Tb320 2.324 . S
O342 C329 1.258 . S
O343 Eu321 2.500 . S
O343 C326 1.273 . S
O344 Eu321 2.473 . S
O344 C326 1.257 . S
H345 C331 0.929 . S
H346 C333 0.931 . S
H347 C335 0.929 . S
O348 Tb349 2.292 . S
O348 C351 1.255 . S
Tb349 O348 2.292 . S
Tb349 O365 2.326 . S
Tb349 O367 2.500 . S
Tb349 O368 2.473 . S
Tb349 O371 2.324 . S
Eu350 O354 2.292 . S
Eu350 C355 2.852 . S
Eu350 O366 2.324 . S
Eu350 O370 2.326 . S
Eu350 O372 2.500 . S
Eu350 O373 2.473 . S
C351 O348 1.255 . S
C351 O352 1.247 . S
O352 C351 1.247 . S
C353 O365 1.242 . S
C353 O366 1.258 . S
O354 Eu350 2.292 . S
O354 C356 1.255 . S
C355 Eu350 2.852 . S
C355 C359 1.503 . S
C355 O372 1.273 . S
C355 O373 1.257 . S
C356 O354 1.255 . S
C356 O357 1.247 . S
O357 C356 1.247 . S
C358 O370 1.242 . S
C358 O371 1.258 . S
C359 C355 1.503 . S
C359 C360 1.379 . S
C359 C364 1.392 . S
C360 C359 1.379 . S
C360 C361 1.404 . S
C360 H374 0.929 . S
C361 C360 1.404 . S
C361 C362 1.389 . S
C362 C361 1.389 . S
C362 C363 1.399 . S
C362 H375 0.931 . S
C363 C362 1.399 . S
C363 C364 1.390 . S
C364 C359 1.392 . S
C364 C363 1.390 . S
C364 H376 0.929 . S
O365 Tb349 2.326 . S
O365 C353 1.242 . S
O366 Eu350 2.324 . S
O366 C353 1.258 . S
O367 Tb349 2.500 . S
O367 C369 1.273 . S
O368 Tb349 2.473 . S
O368 C369 1.257 . S
C369 O367 1.273 . S
C369 O368 1.257 . S
O370 Eu350 2.326 . S
O370 C358 1.242 . S
O371 Tb349 2.324 . S
O371 C358 1.258 . S
O372 Eu350 2.500 . S
O372 C355 1.273 . S
O373 Eu350 2.473 . S
O373 C355 1.257 . S
H374 C360 0.929 . S
H375 C362 0.931 . S
H376 C364 0.929 . S
O377 Tb378 2.292 . S
O377 C380 1.255 . S
Tb378 O377 2.292 . S
Tb378 O394 2.326 . S
Tb378 O396 2.500 . S
Tb378 O397 2.473 . S
Tb378 O400 2.324 . S
Eu379 O383 2.292 . S
Eu379 C384 2.852 . S
Eu379 O395 2.324 . S
Eu379 O399 2.326 . S
Eu379 O401 2.500 . S
Eu379 O402 2.473 . S
C380 O377 1.255 . S
C380 O381 1.247 . S
O381 C380 1.247 . S
C382 O394 1.242 . S
C382 O395 1.258 . S
O383 Eu379 2.292 . S
O383 C385 1.255 . S
C384 Eu379 2.852 . S
C384 C388 1.503 . S
C384 O401 1.273 . S
C384 O402 1.257 . S
C385 O383 1.255 . S
C385 O386 1.247 . S
O386 C385 1.247 . S
C387 O399 1.242 . S
C387 O400 1.258 . S
C388 C384 1.503 . S
C388 C389 1.379 . S
C388 C393 1.392 . S
C389 C388 1.379 . S
C389 C390 1.404 . S
C389 H403 0.929 . S
C390 C389 1.404 . S
C390 C391 1.389 . S
C391 C390 1.389 . S
C391 C392 1.399 . S
C391 H404 0.931 . S
C392 C391 1.399 . S
C392 C393 1.390 . S
C393 C388 1.392 . S
C393 C392 1.390 . S
C393 H405 0.929 . S
O394 Tb378 2.326 . S
O394 C382 1.242 . S
O395 Eu379 2.324 . S
O395 C382 1.258 . S
O396 Tb378 2.500 . S
O396 C398 1.273 . S
O397 Tb378 2.473 . S
O397 C398 1.257 . S
C398 O396 1.273 . S
C398 O397 1.257 . S
O399 Eu379 2.326 . S
O399 C387 1.242 . S
O400 Tb378 2.324 . S
O400 C387 1.258 . S
O401 Eu379 2.500 . S
O401 C384 1.273 . S
O402 Eu379 2.473 . S
O402 C384 1.257 . S
H403 C389 0.929 . S
H404 C391 0.931 . S
H405 C393 0.929 . S
O406 Tb407 2.292 . S
O406 C409 1.255 . S
Tb407 O406 2.292 . S
Tb407 O423 2.326 . S
Tb407 O425 2.500 . S
Tb407 O426 2.473 . S
Tb407 O429 2.324 . S
Eu408 O412 2.292 . S
Eu408 C413 2.852 . S
Eu408 O424 2.324 . S
Eu408 O428 2.326 . S
Eu408 O430 2.500 . S
Eu408 O431 2.473 . S
C409 O406 1.255 . S
C409 O410 1.247 . S
O410 C409 1.247 . S
C411 O423 1.242 . S
C411 O424 1.258 . S
O412 Eu408 2.292 . S
O412 C414 1.275 . S
C413 Eu408 2.852 . S
C413 C417 1.503 . S
C413 O430 1.273 . S
C413 O431 1.257 . S
C414 O412 1.275 . S
C414 O415 1.249 . S
O415 C414 1.249 . S
C416 O428 1.242 . S
C416 O429 1.258 . S
C417 C413 1.503 . S
C417 C418 1.379 . S
C417 C422 1.392 . S
C418 C417 1.379 . S
C418 C419 1.404 . S
C418 H432 0.929 . S
C419 C418 1.404 . S
C419 C420 1.389 . S
C420 C419 1.389 . S
C420 C421 1.399 . S
C420 H433 0.931 . S
C421 C420 1.399 . S
C421 C422 1.390 . S
C422 C417 1.392 . S
C422 C421 1.390 . S
C422 H434 0.929 . S
O423 Tb407 2.326 . S
O423 C411 1.242 . S
O424 Eu408 2.324 . S
O424 C411 1.258 . S
O425 Tb407 2.500 . S
O425 C427 1.273 . S
O426 Tb407 2.473 . S
O426 C427 1.257 . S
C427 O425 1.273 . S
C427 O426 1.257 . S
O428 Eu408 2.326 . S
O428 C416 1.242 . S
O429 Tb407 2.324 . S
O429 C416 1.258 . S
O430 Eu408 2.500 . S
O430 C413 1.273 . S
O431 Eu408 2.473 . S
O431 C413 1.257 . S
H432 C418 0.929 . S
H433 C420 0.931 . S
H434 C422 0.929 . S
O435 Tb436 2.309 . S
O435 C438 1.242 1_556 S
Tb436 O435 2.309 . S
Tb436 O452 2.326 . S
Tb436 O454 2.500 . S
Tb436 O455 2.473 . S
Tb436 O458 2.324 . S
Eu437 O441 2.292 . S
Eu437 C442 2.852 . S
Eu437 O453 2.324 . S
Eu437 O457 2.326 . S
Eu437 O459 2.500 . S
Eu437 O460 2.473 . S
C438 O435 1.242 1_554 S
C438 O439 1.247 . S
O439 C438 1.247 . S
C440 O452 1.242 . S
C440 O453 1.258 . S
O441 Eu437 2.292 . S
O441 C443 1.255 . S
C442 Eu437 2.852 . S
C442 C446 1.503 . S
C442 O459 1.273 . S
C442 O460 1.257 . S
C443 O441 1.255 . S
C443 O444 1.247 . S
O444 C443 1.247 . S
C445 O457 1.242 . S
C445 O458 1.258 . S
C446 C442 1.503 . S
C446 C447 1.379 . S
C446 C451 1.392 . S
C447 C446 1.379 . S
C447 C448 1.404 . S
C447 H461 0.929 . S
C448 C447 1.404 . S
C448 C449 1.389 . S
C449 C448 1.389 . S
C449 C450 1.399 . S
C449 H462 0.931 . S
C450 C449 1.399 . S
C450 C451 1.390 . S
C451 C446 1.392 . S
C451 C450 1.390 . S
C451 H463 0.929 . S
O452 Tb436 2.326 . S
O452 C440 1.242 . S
O453 Eu437 2.324 . S
O453 C440 1.258 . S
O454 Tb436 2.500 . S
O454 C456 1.273 . S
O455 Tb436 2.473 . S
O455 C456 1.257 . S
C456 O454 1.273 . S
C456 O455 1.257 . S
O457 Eu437 2.326 . S
O457 C445 1.242 . S
O458 Tb436 2.324 . S
O458 C445 1.258 . S
O459 Eu437 2.500 . S
O459 C442 1.273 . S
O460 Eu437 2.473 . S
O460 C442 1.257 . S
H461 C447 0.929 . S
H462 C449 0.931 . S
H463 C451 0.929 . S
C464 C465 1.349 . S
C464 C466 1.327 . S
C464 H489 0.950 . S
C465 C464 1.349 . S
C465 C481 1.349 . S
C466 C464 1.327 . S
C466 C485 1.429 . S
C466 H490 0.950 . S
C467 C484 1.574 1_655 S
C467 C486 1.368 . S
C467 H491 0.949 . S
H468 C472 0.949 1_455 S
C469 C470 1.349 . S
C469 C471 1.327 . S
C469 H492 0.950 . S
C470 C469 1.349 . S
C470 C482 1.349 . S
C471 C469 1.327 . S
C471 C487 1.429 . S
C471 H493 0.950 . S
C472 H468 0.949 1_655 S
C472 C480 1.574 . S
C472 C488 1.368 1_655 S
H473 C481 0.950 . S
H474 C479 0.950 . S
H475 C480 0.949 . S
H476 C482 0.950 . S
H477 C483 0.950 . S
H478 C484 0.949 . S
C479 H474 0.950 . S
C479 C481 1.327 . S
C479 C485 1.429 . S
C480 C472 1.574 . S
C480 H475 0.949 . S
C480 C486 1.368 . S
C481 C465 1.349 . S
C481 H473 0.950 . S
C481 C479 1.327 . S
C482 C470 1.349 . S
C482 H476 0.950 . S
C482 C483 1.327 . S
C483 H477 0.950 . S
C483 C482 1.327 . S
C483 C487 1.429 . S
C484 C467 1.574 1_455 S
C484 H478 0.949 . S
C484 C488 1.368 . S
C485 C466 1.429 . S
C485 C479 1.429 . S
C485 C486 1.523 . S
C486 C467 1.368 . S
C486 C480 1.368 . S
C486 C485 1.523 . S
C487 C471 1.429 . S
C487 C483 1.429 . S
C487 C488 1.523 . S
C488 C472 1.368 1_455 S
C488 C484 1.368 . S
C488 C487 1.523 . S
H489 C464 0.950 . S
H490 C466 0.950 . S
H491 C467 0.949 . S
H492 C469 0.950 . S
H493 C471 0.950 . S
C494 C495 1.349 . S
C494 C496 1.327 . S
C494 H519 0.950 . S
C495 C494 1.349 . S
C495 C511 1.349 . S
C496 C494 1.327 . S
C496 C515 1.429 . S
C496 H520 0.950 . S
C497 C514 1.574 1_455 S
C497 C516 1.368 . S
C497 H521 0.949 . S
H498 C502 0.949 . S
C499 C500 1.349 . S
C499 C501 1.327 . S
C499 H522 0.950 . S
C500 C499 1.349 . S
C500 C512 1.349 . S
C501 C499 1.327 . S
C501 C517 1.429 . S
C501 H523 0.950 . S
C502 H498 0.949 . S
C502 C510 1.574 . S
C502 C518 1.368 . S
H503 C511 0.950 . S
H504 C509 0.950 . S
H505 C510 0.949 . S
H506 C512 0.950 . S
H507 C513 0.950 . S
H508 C514 0.949 . S
C509 H504 0.950 . S
C509 C511 1.327 . S
C509 C515 1.429 . S
C510 C502 1.574 . S
C510 H505 0.949 . S
C510 C516 1.368 1_655 S
C511 C495 1.349 . S
C511 H503 0.950 . S
C511 C509 1.327 . S
C512 C500 1.349 . S
C512 H506 0.950 . S
C512 C513 1.327 . S
C513 H507 0.950 . S
C513 C512 1.327 . S
C513 C517 1.429 . S
C514 C497 1.574 1_655 S
C514 H508 0.949 . S
C514 C518 1.368 . S
C515 C496 1.429 . S
C515 C509 1.429 . S
C515 C516 1.523 . S
C516 C497 1.368 . S
C516 C510 1.368 1_455 S
C516 C515 1.523 . S
C517 C501 1.429 . S
C517 C513 1.429 . S
C517 C518 1.523 . S
C518 C502 1.368 . S
C518 C514 1.368 . S
C518 C517 1.523 . S
H519 C494 0.950 . S
H520 C496 0.950 . S
H521 C497 0.949 . S
H522 C499 0.950 . S
H523 C501 0.950 . S
C524 C525 1.349 . S
C524 C526 1.327 . S
C524 H549 0.950 . S
C525 C524 1.349 . S
C525 C541 1.349 . S
C526 C524 1.327 . S
C526 C545 1.429 . S
C526 H550 0.950 . S
C527 C544 1.574 . S
C527 C546 1.368 . S
C527 H551 0.949 . S
H528 C532 0.949 . S
C529 C530 1.349 . S
C529 C531 1.327 . S
C529 H552 0.950 . S
C530 C529 1.349 . S
C530 C542 1.349 . S
C531 C529 1.327 . S
C531 C547 1.429 . S
C531 H553 0.950 . S
C532 H528 0.949 . S
C532 C540 1.574 . S
C532 C548 1.368 . S
H533 C541 0.950 . S
H534 C539 0.950 . S
H535 C540 0.949 . S
H536 C542 0.950 . S
H537 C543 0.950 . S
H538 C544 0.949 . S
C539 H534 0.950 . S
C539 C541 1.327 . S
C539 C545 1.429 . S
C540 C532 1.574 . S
C540 H535 0.949 . S
C540 C546 1.368 . S
C541 C525 1.349 . S
C541 H533 0.950 . S
C541 C539 1.327 . S
C542 C530 1.349 . S
C542 H536 0.950 . S
C542 C543 1.327 . S
C543 H537 0.950 . S
C543 C542 1.327 . S
C543 C547 1.429 . S
C544 C527 1.574 . S
C544 H538 0.949 . S
C544 C548 1.368 . S
C545 C526 1.429 . S
C545 C539 1.429 . S
C545 C546 1.523 . S
C546 C527 1.368 . S
C546 C540 1.368 . S
C546 C545 1.523 . S
C547 C531 1.429 . S
C547 C543 1.429 . S
C547 C548 1.523 . S
C548 C532 1.368 . S
C548 C544 1.368 . S
C548 C547 1.523 . S
H549 C524 0.950 . S
H550 C526 0.950 . S
H551 C527 0.949 . S
H552 C529 0.950 . S
H553 C531 0.950 . S
C554 C555 1.349 . S
C554 C556 1.327 . S
C554 H579 0.950 . S
C555 C554 1.349 . S
C555 C571 1.349 . S
C556 C554 1.327 . S
C556 C575 1.429 . S
C556 H580 0.950 . S
C557 C574 1.574 . S
C557 C576 1.368 . S
C557 H581 0.949 . S
H558 C562 0.949 . S
C559 C560 1.349 . S
C559 C561 1.327 . S
C559 H582 0.950 . S
C560 C559 1.349 . S
C560 C572 1.349 . S
C561 C559 1.327 . S
C561 C577 1.429 . S
C561 H583 0.950 . S
C562 H558 0.949 . S
C562 C570 1.574 . S
C562 C578 1.368 . S
H563 C571 0.950 . S
H564 C569 0.950 . S
H565 C570 0.949 . S
H566 C572 0.950 . S
H567 C573 0.950 . S
H568 C574 0.949 . S
C569 H564 0.950 . S
C569 C571 1.327 . S
C569 C575 1.429 . S
C570 C562 1.574 . S
C570 H565 0.949 . S
C570 C576 1.368 . S
C571 C555 1.349 . S
C571 H563 0.950 . S
C571 C569 1.327 . S
C572 C560 1.349 . S
C572 H566 0.950 . S
C572 C573 1.327 . S
C573 H567 0.950 . S
C573 C572 1.327 . S
C573 C577 1.429 . S
C574 C557 1.574 . S
C574 H568 0.949 . S
C574 C578 1.368 . S
C575 C556 1.429 . S
C575 C569 1.429 . S
C575 C576 1.523 . S
C576 C557 1.368 . S
C576 C570 1.368 . S
C576 C575 1.523 . S
C577 C561 1.429 . S
C577 C573 1.429 . S
C577 C578 1.523 . S
C578 C562 1.368 . S
C578 C574 1.368 . S
C578 C577 1.523 . S
H579 C554 0.950 . S
H580 C556 0.950 . S
H581 C557 0.949 . S
H582 C559 0.950 . S
H583 C561 0.950 . S
C584 C585 1.349 . S
C584 C586 1.327 . S
C584 H609 0.950 . S
C585 C584 1.349 . S
C585 C601 1.349 . S
C586 C584 1.327 . S
C586 C605 1.429 . S
C586 H610 0.950 . S
C587 C604 1.574 . S
C587 C606 1.368 1_455 S
C587 H611 0.949 . S
H588 C592 0.949 . S
C589 C590 1.349 . S
C589 C591 1.327 . S
C589 H612 0.950 . S
C590 C589 1.349 . S
C590 C602 1.349 . S
C591 C589 1.327 . S
C591 C607 1.429 . S
C591 H613 0.950 . S
C592 H588 0.949 . S
C592 C600 1.574 1_455 S
C592 C608 1.368 . S
H593 C601 0.950 . S
H594 C599 0.950 . S
H595 C600 0.949 . S
H596 C602 0.950 . S
H597 C603 0.950 . S
H598 C604 0.949 . S
C599 H594 0.950 . S
C599 C601 1.327 . S
C599 C605 1.429 . S
C600 C592 1.574 1_655 S
C600 H595 0.949 . S
C600 C606 1.368 . S
C601 C585 1.349 . S
C601 H593 0.950 . S
C601 C599 1.327 . S
C602 C590 1.349 . S
C602 H596 0.950 . S
C602 C603 1.327 . S
C603 H597 0.950 . S
C603 C602 1.327 . S
C603 C607 1.429 . S
C604 C587 1.574 . S
C604 H598 0.949 . S
C604 C608 1.368 . S
C605 C586 1.429 . S
C605 C599 1.429 . S
C605 C606 1.523 . S
C606 C587 1.368 1_655 S
C606 C600 1.368 . S
C606 C605 1.523 . S
C607 C591 1.429 . S
C607 C603 1.429 . S
C607 C608 1.523 . S
C608 C592 1.368 . S
C608 C604 1.368 . S
C608 C607 1.523 . S
H609 C584 0.950 . S
H610 C586 0.950 . S
H611 C587 0.949 . S
H612 C589 0.950 . S
H613 C591 0.950 . S
C614 C615 1.349 . S
C614 C616 1.327 . S
C614 H639 0.950 . S
C615 C614 1.349 . S
C615 C631 1.349 . S
C616 C614 1.327 . S
C616 C635 1.429 . S
C616 H640 0.950 . S
C617 C634 1.574 . S
C617 C636 1.368 . S
C617 H641 0.949 . S
H618 C622 0.949 . S
C619 C620 1.349 . S
C619 C621 1.327 . S
C619 H642 0.950 . S
C620 C619 1.349 . S
C620 C632 1.349 . S
C621 C619 1.327 . S
C621 C637 1.429 . S
C621 H643 0.950 . S
C622 H618 0.949 . S
C622 C630 1.574 1_655 S
C622 C638 1.368 . S
H623 C631 0.950 . S
H624 C629 0.950 . S
H625 C630 0.949 . S
H626 C632 0.950 . S
H627 C633 0.950 . S
H628 C634 0.950 . S
C629 H624 0.950 . S
C629 C631 1.327 . S
C629 C635 1.429 . S
C630 C622 1.574 1_455 S
C630 H625 0.949 . S
C630 C636 1.368 . S
C631 C615 1.349 . S
C631 H623 0.950 . S
C631 C629 1.327 . S
C632 C620 1.349 . S
C632 H626 0.950 . S
C632 C633 1.327 . S
C633 H627 0.950 . S
C633 C632 1.327 . S
C633 C637 1.429 . S
C634 C617 1.574 . S
C634 H628 0.950 . S
C634 C638 1.368 1_455 S
C635 C616 1.429 . S
C635 C629 1.429 . S
C635 C636 1.523 . S
C636 C617 1.368 . S
C636 C630 1.368 . S
C636 C635 1.523 . S
C637 C621 1.429 . S
C637 C633 1.429 . S
C637 C638 1.523 . S
C638 C622 1.368 . S
C638 C634 1.368 1_655 S
C638 C637 1.523 . S
H639 C614 0.950 . S
H640 C616 0.950 . S
H641 C617 0.949 . S
H642 C619 0.950 . S
H643 C621 0.950 . S
C644 C645 1.349 . S
C644 C646 1.327 . S
C644 H669 0.950 . S
C645 C644 1.349 . S
C645 C661 1.349 . S
C646 C644 1.327 . S
C646 C665 1.429 . S
C646 H670 0.950 . S
C647 C664 1.574 . S
C647 C666 1.368 . S
C647 H671 0.949 . S
H648 C652 0.949 . S
C649 C650 1.349 . S
C649 C651 1.327 . S
C649 H672 0.950 . S
C650 C649 1.349 . S
C650 C662 1.349 . S
C651 C649 1.327 . S
C651 C667 1.429 . S
C651 H673 0.950 . S
C652 H648 0.949 . S
C652 C660 1.574 . S
C652 C668 1.368 . S
H653 C661 0.950 . S
H654 C659 0.950 . S
H655 C660 0.949 . S
H656 C662 0.950 . S
H657 C663 0.950 . S
H658 C664 0.949 . S
C659 H654 0.950 . S
C659 C661 1.327 . S
C659 C665 1.429 . S
C660 C652 1.574 . S
C660 H655 0.949 . S
C660 C666 1.368 . S
C661 C645 1.349 . S
C661 H653 0.950 . S
C661 C659 1.327 . S
C662 C650 1.349 . S
C662 H656 0.950 . S
C662 C663 1.327 . S
C663 H657 0.950 . S
C663 C662 1.327 . S
C663 C667 1.429 . S
C664 C647 1.574 . S
C664 H658 0.949 . S
C664 C668 1.368 . S
C665 C646 1.429 . S
C665 C659 1.429 . S
C665 C666 1.523 . S
C666 C647 1.368 . S
C666 C660 1.368 . S
C666 C665 1.523 . S
C667 C651 1.429 . S
C667 C663 1.429 . S
C667 C668 1.523 . S
C668 C652 1.368 . S
C668 C664 1.368 . S
C668 C667 1.523 . S
H669 C644 0.950 . S
H670 C646 0.950 . S
H671 C647 0.949 . S
H672 C649 0.950 . S
H673 C651 0.950 . S
C674 C675 1.349 . S
C674 C676 1.327 . S
C674 H699 0.950 . S
C675 C674 1.349 . S
C675 C691 1.349 . S
C676 C674 1.327 . S
C676 C695 1.429 . S
C676 H700 0.950 . S
C677 C694 1.574 . S
C677 C696 1.368 . S
C677 H701 0.949 . S
H678 C682 0.949 . S
C679 C680 1.349 . S
C679 C681 1.327 . S
C679 H702 0.950 . S
C680 C679 1.349 . S
C680 C692 1.349 . S
C681 C679 1.327 . S
C681 C697 1.429 . S
C681 H703 0.950 . S
C682 H678 0.949 . S
C682 C690 1.574 . S
C682 C698 1.368 . S
H683 C691 0.950 . S
H684 C689 0.950 . S
H685 C690 0.949 . S
H686 C692 0.950 . S
H687 C693 0.950 . S
H688 C694 0.949 . S
C689 H684 0.950 . S
C689 C691 1.327 . S
C689 C695 1.429 . S
C690 C682 1.574 . S
C690 H685 0.949 . S
C690 C696 1.368 . S
C691 C675 1.349 . S
C691 H683 0.950 . S
C691 C689 1.327 . S
C692 C680 1.349 . S
C692 H686 0.950 . S
C692 C693 1.327 . S
C693 H687 0.950 . S
C693 C692 1.327 . S
C693 C697 1.429 . S
C694 C677 1.574 . S
C694 H688 0.949 . S
C694 C698 1.368 . S
C695 C676 1.429 . S
C695 C689 1.429 . S
C695 C696 1.523 . S
C696 C677 1.368 . S
C696 C690 1.368 . S
C696 C695 1.523 . S
C697 C681 1.429 . S
C697 C693 1.429 . S
C697 C698 1.523 . S
C698 C682 1.368 . S
C698 C694 1.368 . S
C698 C697 1.523 . S
H699 C674 0.950 . S
H700 C676 0.950 . S
H701 C677 0.949 . S
H702 C679 0.950 . S
H703 C681 0.950 . S
C704 C705 1.349 . S
C704 C706 1.327 . S
C704 H729 0.950 . S
C705 C704 1.349 . S
C705 C721 1.349 . S
C706 C704 1.327 . S
C706 C725 1.429 . S
C706 H730 0.950 . S
C707 C724 1.574 . S
C707 C726 1.368 . S
C707 H731 0.949 . S
H708 C712 0.949 . S
C709 C710 1.349 . S
C709 C711 1.316 1_554 S
C709 H732 0.950 . S
C710 C709 1.349 . S
C710 C722 1.349 . S
C711 C709 1.316 1_556 S
C711 C727 1.420 1_556 S
C711 H733 0.971 . S
C712 H708 0.949 . S
C712 C720 1.574 1_554 S
C712 C728 1.368 1_554 S
H713 C721 0.950 . S
H714 C719 0.950 . S
H715 C720 0.949 1_554 S
H716 C722 0.950 . S
H717 C723 0.950 . S
H718 C724 0.949 . S
C719 H714 0.950 . S
C719 C721 1.327 . S
C719 C725 1.429 . S
C720 C712 1.574 1_556 S
C720 H715 0.949 1_556 S
C720 C726 1.368 . S
C721 C705 1.349 . S
C721 H713 0.950 . S
C721 C719 1.327 . S
C722 C710 1.349 . S
C722 H716 0.950 . S
C722 C723 1.327 . S
C723 H717 0.950 . S
C723 C722 1.327 . S
C723 C727 1.429 . S
C724 C707 1.574 . S
C724 H718 0.949 . S
C724 C728 1.368 . S
C725 C706 1.429 . S
C725 C719 1.429 . S
C725 C726 1.523 . S
C726 C707 1.368 . S
C726 C720 1.368 . S
C726 C725 1.523 . S
C727 C711 1.420 1_554 S
C727 C723 1.429 . S
C727 C728 1.523 1_554 S
C728 C712 1.368 1_556 S
C728 C724 1.368 . S
C728 C727 1.523 1_556 S
H729 C704 0.950 . S
H730 C706 0.950 . S
H731 C707 0.949 . S
H732 C709 0.950 . S
H733 C711 0.971 . S
C734 C735 1.349 . S
C734 C736 1.327 . S
C734 H759 0.950 . S
C735 C734 1.349 . S
C735 C751 1.349 . S
C736 C734 1.327 . S
C736 C755 1.429 . S
C736 H760 0.950 . S
C737 C754 1.528 1_565 S
C737 C756 1.396 . S
C737 H761 0.968 . S
H738 C742 0.949 . S
C739 C740 1.349 . S
C739 C741 1.327 . S
C739 H762 0.950 . S
C740 C739 1.349 . S
C740 C752 1.349 . S
C741 C739 1.327 . S
C741 C757 1.429 . S
C741 H763 0.950 . S
C742 H738 0.949 . S
C742 C750 1.574 1_545 S
C742 C758 1.368 . S
H743 C751 0.950 . S
H744 C749 0.950 . S
H745 C750 0.949 . S
H746 C752 0.950 . S
H747 C753 0.950 . S
H748 C754 0.949 . S
C749 H744 0.950 . S
C749 C751 1.327 . S
C749 C755 1.429 . S
C750 C742 1.574 1_565 S
C750 H745 0.949 . S
C750 C756 1.368 . S
C751 C735 1.349 . S
C751 H743 0.950 . S
C751 C749 1.327 . S
C752 C740 1.349 . S
C752 H746 0.950 . S
C752 C753 1.327 . S
C753 H747 0.950 . S
C753 C752 1.327 . S
C753 C757 1.429 . S
C754 C737 1.528 1_545 S
C754 H748 0.949 . S
C754 C758 1.368 . S
C755 C736 1.429 . S
C755 C749 1.429 . S
C755 C756 1.523 . S
C756 C737 1.396 . S
C756 C750 1.368 . S
C756 C755 1.523 . S
C757 C741 1.429 . S
C757 C753 1.429 . S
C757 C758 1.523 . S
C758 C742 1.368 . S
C758 C754 1.368 . S
C758 C757 1.523 . S
H759 C734 0.950 . S
H760 C736 0.950 . S
H761 C737 0.968 . S
H762 C739 0.950 . S
H763 C741 0.950 . S
C764 C765 1.349 . S
C764 C766 1.327 . S
C764 H789 0.950 . S
C765 C764 1.349 . S
C765 C781 1.349 . S
C766 C764 1.327 . S
C766 C785 1.429 . S
C766 H790 0.950 . S
C767 C784 1.574 . S
C767 C786 1.368 . S
C767 H791 0.949 . S
H768 C772 0.949 . S
C769 C770 1.349 . S
C769 C771 1.327 . S
C769 H792 0.950 . S
C770 C769 1.349 . S
C770 C782 1.349 . S
C771 C769 1.327 . S
C771 C787 1.429 . S
C771 H793 0.950 . S
C772 H768 0.949 . S
C772 C780 1.574 . S
C772 C788 1.368 . S
H773 C781 0.950 . S
H774 C779 0.950 . S
H775 C780 0.949 . S
H776 C782 0.950 . S
H777 C783 0.950 . S
H778 C784 0.949 . S
C779 H774 0.950 . S
C779 C781 1.327 . S
C779 C785 1.429 . S
C780 C772 1.574 . S
C780 H775 0.949 . S
C780 C786 1.368 . S
C781 C765 1.349 . S
C781 H773 0.950 . S
C781 C779 1.327 . S
C782 C770 1.349 . S
C782 H776 0.950 . S
C782 C783 1.327 . S
C783 H777 0.950 . S
C783 C782 1.327 . S
C783 C787 1.429 . S
C784 C767 1.574 . S
C784 H778 0.949 . S
C784 C788 1.368 . S
C785 C766 1.429 . S
C785 C779 1.429 . S
C785 C786 1.523 . S
C786 C767 1.368 . S
C786 C780 1.368 . S
C786 C785 1.523 . S
C787 C771 1.429 . S
C787 C783 1.429 . S
C787 C788 1.523 . S
C788 C772 1.368 . S
C788 C784 1.368 . S
C788 C787 1.523 . S
H789 C764 0.950 . S
H790 C766 0.950 . S
H791 C767 0.949 . S
H792 C769 0.950 . S
H793 C771 0.950 . S
C794 C795 1.349 . S
C794 C796 1.327 . S
C794 H819 0.950 . S
C795 C794 1.349 . S
C795 C811 1.349 . S
C796 C794 1.327 . S
C796 C815 1.429 . S
C796 H820 0.950 . S
C797 C814 1.574 1_565 S
C797 C816 1.368 . S
C797 H821 0.949 . S
H798 C802 0.949 . S
C799 C800 1.349 . S
C799 C801 1.327 . S
C799 H822 0.950 . S
C800 C799 1.349 . S
C800 C812 1.349 . S
C801 C799 1.327 . S
C801 C817 1.429 . S
C801 H823 0.950 . S
C802 H798 0.949 . S
C802 C810 1.574 1_545 S
C802 C818 1.368 . S
H803 C811 0.950 . S
H804 C809 0.950 . S
H805 C810 0.949 . S
H806 C812 0.950 . S
H807 C813 0.950 . S
H808 C814 0.949 . S
C809 H804 0.950 . S
C809 C811 1.327 . S
C809 C815 1.429 . S
C810 C802 1.574 1_565 S
C810 H805 0.949 . S
C810 C816 1.368 . S
C811 C795 1.349 . S
C811 H803 0.950 . S
C811 C809 1.327 . S
C812 C800 1.349 . S
C812 H806 0.950 . S
C812 C813 1.327 . S
C813 H807 0.950 . S
C813 C812 1.327 . S
C813 C817 1.429 . S
C814 C797 1.574 1_545 S
C814 H808 0.949 . S
C814 C818 1.368 . S
C815 C796 1.429 . S
C815 C809 1.429 . S
C815 C816 1.523 . S
C816 C797 1.368 . S
C816 C810 1.368 . S
C816 C815 1.523 . S
C817 C801 1.429 . S
C817 C813 1.429 . S
C817 C818 1.523 . S
C818 C802 1.368 . S
C818 C814 1.368 . S
C818 C817 1.523 . S
H819 C794 0.950 . S
H820 C796 0.950 . S
H821 C797 0.949 . S
H822 C799 0.950 . S
H823 C801 0.950 . S
C824 C825 1.349 . S
C824 C826 1.327 . S
C824 H849 0.950 . S
C825 C824 1.349 . S
C825 C841 1.349 . S
C826 C824 1.327 . S
C826 C845 1.429 . S
C826 H850 0.950 . S
C827 C844 1.574 . S
C827 C846 1.368 . S
C827 H851 0.949 . S
H828 C832 0.949 . S
C829 C830 1.349 . S
C829 C831 1.327 . S
C829 H852 0.950 . S
C830 C829 1.349 . S
C830 C842 1.349 . S
C831 C829 1.327 . S
C831 C847 1.429 . S
C831 H853 0.950 . S
C832 H828 0.949 . S
C832 C840 1.574 . S
C832 C848 1.368 . S
H833 C841 0.950 . S
H834 C839 0.950 . S
H835 C840 0.949 . S
H836 C842 0.950 . S
H837 C843 0.958 . S
H838 C844 0.940 1_554 S
C839 H834 0.950 . S
C839 C841 1.327 . S
C839 C845 1.429 . S
C840 C832 1.574 . S
C840 H835 0.949 . S
C840 C846 1.368 . S
C841 C825 1.349 . S
C841 H833 0.950 . S
C841 C839 1.327 . S
C842 C830 1.349 . S
C842 H836 0.950 . S
C842 C843 1.327 . S
C843 H837 0.958 . S
C843 C842 1.327 . S
C843 C847 1.429 . S
C844 C827 1.574 . S
C844 H838 0.940 1_556 S
C844 C848 1.368 . S
C845 C826 1.429 . S
C845 C839 1.429 . S
C845 C846 1.523 . S
C846 C827 1.368 . S
C846 C840 1.368 . S
C846 C845 1.523 . S
C847 C831 1.429 . S
C847 C843 1.429 . S
C847 C848 1.523 1_554 S
C848 C832 1.368 . S
C848 C844 1.368 . S
C848 C847 1.523 1_556 S
H849 C824 0.950 . S
H850 C826 0.950 . S
H851 C827 0.949 . S
H852 C829 0.950 . S
H853 C831 0.950 . S
C854 C855 1.349 . S
C854 C856 1.327 . S
C854 H879 0.950 . S
C855 C854 1.349 . S
C855 C871 1.349 . S
C856 C854 1.327 . S
C856 C875 1.429 . S
C856 H880 0.950 . S
C857 C874 1.574 1_565 S
C857 C876 1.368 . S
C857 H881 0.949 . S
H858 C862 0.949 . S
C859 C860 1.349 . S
C859 C861 1.327 . S
C859 H882 0.950 . S
C860 C859 1.349 . S
C860 C872 1.349 . S
C861 C859 1.327 . S
C861 C877 1.429 . S
C861 H883 0.950 . S
C862 H858 0.949 . S
C862 C870 1.574 1_545 S
C862 C878 1.368 . S
H863 C871 0.950 . S
H864 C869 0.950 . S
H865 C870 0.949 . S
H866 C872 0.950 . S
H867 C873 0.950 . S
H868 C874 0.949 . S
C869 H864 0.950 . S
C869 C871 1.327 . S
C869 C875 1.429 . S
C870 C862 1.574 1_565 S
C870 H865 0.949 . S
C870 C876 1.368 . S
C871 C855 1.349 . S
C871 H863 0.950 . S
C871 C869 1.327 . S
C872 C860 1.349 . S
C872 H866 0.950 . S
C872 C873 1.327 . S
C873 H867 0.950 . S
C873 C872 1.327 . S
C873 C877 1.429 . S
C874 C857 1.574 1_545 S
C874 H868 0.949 . S
C874 C878 1.368 . S
C875 C856 1.429 . S
C875 C869 1.429 . S
C875 C876 1.523 . S
C876 C857 1.368 . S
C876 C870 1.368 . S
C876 C875 1.523 . S
C877 C861 1.429 . S
C877 C873 1.429 . S
C877 C878 1.523 . S
C878 C862 1.368 . S
C878 C874 1.368 . S
C878 C877 1.523 . S
H879 C854 0.950 . S
H880 C856 0.950 . S
H881 C857 0.949 . S
H882 C859 0.950 . S
H883 C861 0.950 . S
C884 C885 1.349 . S
C884 C886 1.327 . S
C884 H909 0.950 . S
C885 C884 1.349 . S
C885 C901 1.349 . S
C886 C884 1.327 . S
C886 C905 1.429 . S
C886 H910 0.950 . S
C887 C904 1.574 . S
C887 C906 1.368 . S
C887 H911 0.949 . S
H888 C892 0.949 . S
C889 C890 1.349 . S
C889 C891 1.327 . S
C889 H912 0.950 . S
C890 C889 1.349 . S
C890 C902 1.349 . S
C891 C889 1.327 . S
C891 C907 1.429 . S
C891 H913 0.950 . S
C892 H888 0.949 . S
C892 C900 1.574 . S
C892 C908 1.368 . S
H893 C901 0.950 . S
H894 C899 0.950 . S
H895 C900 0.949 . S
H896 C902 0.950 . S
H897 C903 0.950 . S
H898 C904 0.949 . S
C899 H894 0.950 . S
C899 C901 1.327 . S
C899 C905 1.429 . S
C900 C892 1.574 . S
C900 H895 0.949 . S
C900 C906 1.368 . S
C901 C885 1.349 . S
C901 H893 0.950 . S
C901 C899 1.327 . S
C902 C890 1.349 . S
C902 H896 0.950 . S
C902 C903 1.327 . S
C903 H897 0.950 . S
C903 C902 1.327 . S
C903 C907 1.429 . S
C904 C887 1.574 . S
C904 H898 0.949 . S
C904 C908 1.368 . S
C905 C886 1.429 . S
C905 C899 1.429 . S
C905 C906 1.523 . S
C906 C887 1.368 . S
C906 C900 1.368 . S
C906 C905 1.523 . S
C907 C891 1.429 . S
C907 C903 1.429 . S
C907 C908 1.523 . S
C908 C892 1.368 . S
C908 C904 1.368 . S
C908 C907 1.523 . S
H909 C884 0.950 . S
H910 C886 0.950 . S
H911 C887 0.949 . S
H912 C889 0.950 . S
H913 C891 0.950 . S
C914 C915 1.349 . S
C914 C916 1.327 . S
C914 H939 0.950 . S
C915 C914 1.349 . S
C915 C931 1.349 . S
C916 C914 1.327 . S
C916 C935 1.429 . S
C916 H940 0.950 . S
C917 C934 1.574 1_565 S
C917 C936 1.368 . S
C917 H941 0.949 . S
H918 C922 0.949 . S
C919 C920 1.349 . S
C919 C921 1.327 . S
C919 H942 0.950 . S
C920 C919 1.349 . S
C920 C932 1.349 . S
C921 C919 1.327 . S
C921 C937 1.429 . S
C921 H943 0.950 . S
C922 H918 0.949 . S
C922 C930 1.574 1_545 S
C922 C938 1.368 . S
H923 C931 0.950 . S
H924 C929 0.950 . S
H925 C930 0.949 . S
H926 C932 0.950 . S
H927 C933 0.950 . S
H928 C934 0.949 . S
C929 H924 0.950 . S
C929 C931 1.327 . S
C929 C935 1.429 . S
C930 C922 1.574 1_565 S
C930 H925 0.949 . S
C930 C936 1.368 . S
C931 C915 1.349 . S
C931 H923 0.950 . S
C931 C929 1.327 . S
C932 C920 1.349 . S
C932 H926 0.950 . S
C932 C933 1.327 . S
C933 H927 0.950 . S
C933 C932 1.327 . S
C933 C937 1.429 . S
C934 C917 1.574 1_545 S
C934 H928 0.949 . S
C934 C938 1.368 . S
C935 C916 1.429 . S
C935 C929 1.429 . S
C935 C936 1.523 . S
C936 C917 1.368 . S
C936 C930 1.368 . S
C936 C935 1.523 . S
C937 C921 1.429 . S
C937 C933 1.429 . S
C937 C938 1.523 . S
C938 C922 1.368 . S
C938 C934 1.368 . S
C938 C937 1.523 . S
H939 C914 0.950 . S
H940 C916 0.950 . S
H941 C917 0.949 . S
H942 C919 0.950 . S
H943 C921 0.950 . S
C944 C945 1.349 . S
C944 C946 1.327 . S
C944 H969 0.950 . S
C945 C944 1.349 . S
C945 C961 1.349 . S
C946 C944 1.327 . S
C946 C965 1.429 . S
C946 H970 0.950 . S
C947 C964 1.574 . S
C947 C966 1.368 . S
C947 H971 0.949 . S
H948 C952 0.949 . S
C949 C950 1.349 . S
C949 C951 1.327 . S
C949 H972 0.950 . S
C950 C949 1.349 . S
C950 C962 1.349 . S
C951 C949 1.327 . S
C951 C967 1.429 . S
C951 H973 0.950 . S
C952 H948 0.949 . S
C952 C960 1.574 . S
C952 C968 1.368 . S
H953 C961 0.950 . S
H954 C959 0.950 . S
H955 C960 0.949 . S
H956 C962 0.950 . S
H957 C963 0.950 . S
H958 C964 0.949 . S
C959 H954 0.950 . S
C959 C961 1.327 . S
C959 C965 1.429 . S
C960 C952 1.574 . S
C960 H955 0.949 . S
C960 C966 1.368 . S
C961 C945 1.349 . S
C961 H953 0.950 . S
C961 C959 1.327 . S
C962 C950 1.349 . S
C962 H956 0.950 . S
C962 C963 1.327 . S
C963 H957 0.950 . S
C963 C962 1.327 . S
C963 C967 1.429 . S
C964 C947 1.574 . S
C964 H958 0.949 . S
C964 C968 1.368 . S
C965 C946 1.429 . S
C965 C959 1.429 . S
C965 C966 1.523 . S
C966 C947 1.368 . S
C966 C960 1.368 . S
C966 C965 1.523 . S
C967 C951 1.429 . S
C967 C963 1.429 . S
C967 C968 1.523 . S
C968 C952 1.368 . S
C968 C964 1.368 . S
C968 C967 1.523 . S
H969 C944 0.950 . S
H970 C946 0.950 . S
H971 C947 0.949 . S
H972 C949 0.950 . S
H973 C951 0.950 . S
C974 C975 1.349 . S
C974 C976 1.327 . S
C974 H999 0.950 . S
C975 C974 1.349 . S
C975 C991 1.349 . S
C976 C974 1.327 . S
C976 C995 1.429 . S
C976 H1000 0.950 . S
C977 C994 1.574 . S
C977 C996 1.368 . S
C977 H1001 0.949 . S
H978 C982 0.949 . S
C979 C980 1.349 . S
C979 C981 1.327 . S
C979 H1002 0.950 . S
C980 C979 1.349 . S
C980 C992 1.349 . S
C981 C979 1.327 . S
C981 C997 1.429 . S
C981 H1003 0.950 . S
C982 H978 0.949 . S
C982 C990 1.574 . S
C982 C998 1.368 . S
H983 C991 0.950 . S
H984 C989 0.950 . S
H985 C990 0.949 . S
H986 C992 0.950 . S
H987 C993 0.950 . S
H988 C994 0.949 . S
C989 H984 0.950 . S
C989 C991 1.327 . S
C989 C995 1.429 . S
C990 C982 1.574 . S
C990 H985 0.949 . S
C990 C996 1.368 . S
C991 C975 1.349 . S
C991 H983 0.950 . S
C991 C989 1.327 . S
C992 C980 1.349 . S
C992 H986 0.950 . S
C992 C993 1.327 . S
C993 H987 0.950 . S
C993 C992 1.327 . S
C993 C997 1.429 . S
C994 C977 1.574 . S
C994 H988 0.949 . S
C994 C998 1.368 . S
C995 C976 1.429 . S
C995 C989 1.429 . S
C995 C996 1.523 . S
C996 C977 1.368 . S
C996 C990 1.368 . S
C996 C995 1.523 . S
C997 C981 1.429 . S
C997 C993 1.429 . S
C997 C998 1.523 . S
C998 C982 1.368 . S
C998 C994 1.368 . S
C998 C997 1.523 . S
H999 C974 0.950 . S
H1000 C976 0.950 . S
H1001 C977 0.949 . S
H1002 C979 0.950 . S
H1003 C981 0.950 . S
C1004 C1005 1.349 . S
C1004 C1006 1.327 . S
C1004 H1029 0.950 . S
C1005 C1004 1.349 . S
C1005 C1021 1.349 . S
C1006 C1004 1.327 . S
C1006 C1025 1.429 . S
C1006 H1030 0.950 . S
C1007 C1024 1.574 . S
C1007 C1026 1.368 1_554 S
C1007 H1031 0.949 . S
H1008 C1012 0.949 . S
C1009 C1010 1.349 . S
C1009 C1011 1.327 . S
C1009 H1032 0.950 . S
C1010 C1009 1.349 . S
C1010 C1022 1.349 . S
C1011 C1009 1.327 . S
C1011 C1027 1.429 . S
C1011 H1033 0.950 . S
C1012 H1008 0.949 . S
C1012 C1020 1.574 . S
C1012 C1028 1.368 1_556 S
H1013 C1021 0.950 1_554 S
H1014 C1019 0.950 . S
H1015 C1020 0.949 . S
H1016 C1022 0.950 1_556 S
H1017 C1023 0.950 1_556 S
H1018 C1024 0.949 . S
C1019 H1014 0.950 . S
C1019 C1021 1.327 1_554 S
C1019 C1025 1.429 1_554 S
C1020 C1012 1.574 . S
C1020 H1015 0.949 . S
C1020 C1026 1.368 . S
C1021 C1005 1.349 . S
C1021 H1013 0.950 1_556 S
C1021 C1019 1.327 1_556 S
C1022 C1010 1.349 . S
C1022 H1016 0.950 1_554 S
C1022 C1023 1.327 . S
C1023 H1017 0.950 1_554 S
C1023 C1022 1.327 . S
C1023 C1027 1.429 . S
C1024 C1007 1.574 . S
C1024 H1018 0.949 . S
C1024 C1028 1.368 . S
C1025 C1006 1.429 . S
C1025 C1019 1.429 1_556 S
C1025 C1026 1.523 . S
C1026 C1007 1.368 1_556 S
C1026 C1020 1.368 . S
C1026 C1025 1.523 . S
C1027 C1011 1.429 . S
C1027 C1023 1.429 . S
C1027 C1028 1.523 . S
C1028 C1012 1.368 1_554 S
C1028 C1024 1.368 . S
C1028 C1027 1.523 . S
H1029 C1004 0.950 . S
H1030 C1006 0.950 . S
H1031 C1007 0.949 . S
H1032 C1009 0.950 . S
H1033 C1011 0.950 . S
C1034 C1035 1.349 . S
C1034 C1036 1.327 . S
C1034 H1059 0.950 . S
C1035 C1034 1.349 . S
C1035 C1051 1.349 . S
C1036 C1034 1.327 . S
C1036 C1055 1.429 . S
C1036 H1060 0.950 . S
C1037 C1054 1.574 . S
C1037 C1056 1.368 . S
C1037 H1061 0.949 . S
H1038 C1042 0.949 . S
C1039 C1040 1.349 . S
C1039 C1041 1.327 . S
C1039 H1062 0.950 . S
C1040 C1039 1.349 . S
C1040 C1052 1.349 . S
C1041 C1039 1.327 . S
C1041 C1057 1.429 . S
C1041 H1063 0.950 . S
C1042 H1038 0.949 . S
C1042 C1050 1.574 . S
C1042 C1058 1.368 . S
H1043 C1051 0.950 . S
H1044 C1049 0.950 . S
H1045 C1050 0.949 . S
H1046 C1052 0.950 . S
H1047 C1053 0.950 . S
H1048 C1054 0.949 . S
C1049 H1044 0.950 . S
C1049 C1051 1.327 . S
C1049 C1055 1.429 . S
C1050 C1042 1.574 . S
C1050 H1045 0.949 . S
C1050 C1056 1.368 . S
C1051 C1035 1.349 . S
C1051 H1043 0.950 . S
C1051 C1049 1.327 . S
C1052 C1040 1.349 . S
C1052 H1046 0.950 . S
C1052 C1053 1.327 . S
C1053 H1047 0.950 . S
C1053 C1052 1.327 . S
C1053 C1057 1.429 . S
C1054 C1037 1.574 . S
C1054 H1048 0.949 . S
C1054 C1058 1.368 . S
C1055 C1036 1.429 . S
C1055 C1049 1.429 . S
C1055 C1056 1.523 . S
C1056 C1037 1.368 . S
C1056 C1050 1.368 . S
C1056 C1055 1.523 . S
C1057 C1041 1.429 . S
C1057 C1053 1.429 . S
C1057 C1058 1.523 . S
C1058 C1042 1.368 . S
C1058 C1054 1.368 . S
C1058 C1057 1.523 . S
H1059 C1034 0.950 . S
H1060 C1036 0.950 . S
H1061 C1037 0.949 . S
H1062 C1039 0.950 . S
H1063 C1041 0.950 . S
C1064 C1065 1.349 . S
C1064 C1066 1.327 . S
C1064 H1089 0.950 . S
C1065 C1064 1.349 . S
C1065 C1081 1.349 . S
C1066 C1064 1.327 . S
C1066 C1085 1.429 . S
C1066 H1090 0.950 . S
C1067 C1084 1.574 . S
C1067 C1086 1.368 . S
C1067 H1091 0.949 . S
H1068 C1072 0.949 . S
C1069 C1070 1.349 . S
C1069 C1071 1.327 . S
C1069 H1092 0.950 . S
C1070 C1069 1.349 . S
C1070 C1082 1.349 . S
C1071 C1069 1.327 . S
C1071 C1087 1.429 . S
C1071 H1093 0.950 . S
C1072 H1068 0.949 . S
C1072 C1080 1.574 . S
C1072 C1088 1.368 . S
H1073 C1081 0.950 . S
H1074 C1079 0.950 . S
H1075 C1080 0.949 . S
H1076 C1082 0.950 . S
H1077 C1083 0.950 . S
H1078 C1084 0.949 . S
C1079 H1074 0.950 . S
C1079 C1081 1.327 . S
C1079 C1085 1.429 . S
C1080 C1072 1.574 . S
C1080 H1075 0.949 . S
C1080 C1086 1.368 . S
C1081 C1065 1.349 . S
C1081 H1073 0.950 . S
C1081 C1079 1.327 . S
C1082 C1070 1.349 . S
C1082 H1076 0.950 . S
C1082 C1083 1.327 . S
C1083 H1077 0.950 . S
C1083 C1082 1.327 . S
C1083 C1087 1.429 . S
C1084 C1067 1.574 . S
C1084 H1078 0.949 . S
C1084 C1088 1.368 . S
C1085 C1066 1.429 . S
C1085 C1079 1.429 . S
C1085 C1086 1.523 . S
C1086 C1067 1.368 . S
C1086 C1080 1.368 . S
C1086 C1085 1.523 . S
C1087 C1071 1.429 . S
C1087 C1083 1.429 . S
C1087 C1088 1.523 . S
C1088 C1072 1.368 . S
C1088 C1084 1.368 . S
C1088 C1087 1.523 . S
H1089 C1064 0.950 . S
H1090 C1066 0.950 . S
H1091 C1067 0.949 . S
H1092 C1069 0.950 . S
H1093 C1071 0.950 . S
C1094 C1095 1.349 . S
C1094 C1096 1.327 . S
C1094 H1119 0.950 . S
C1095 C1094 1.349 . S
C1095 C1111 1.349 . S
C1096 C1094 1.327 . S
C1096 C1115 1.429 . S
C1096 H1120 0.950 . S
C1097 C1114 1.574 . S
C1097 C1116 1.368 . S
C1097 H1121 0.949 . S
H1098 C1102 0.949 . S
C1099 C1100 1.349 . S
C1099 C1101 1.327 . S
C1099 H1122 0.950 . S
C1100 C1099 1.349 . S
C1100 C1112 1.349 . S
C1101 C1099 1.327 . S
C1101 C1117 1.429 . S
C1101 H1123 0.950 . S
C1102 H1098 0.949 . S
C1102 C1110 1.574 . S
C1102 C1118 1.368 . S
H1103 C1111 0.950 . S
H1104 C1109 0.950 . S
H1105 C1110 0.949 . S
H1106 C1112 0.950 . S
H1107 C1113 0.950 . S
H1108 C1114 0.949 . S
C1109 H1104 0.950 . S
C1109 C1111 1.327 . S
C1109 C1115 1.429 . S
C1110 C1102 1.574 . S
C1110 H1105 0.949 . S
C1110 C1116 1.368 . S
C1111 C1095 1.349 . S
C1111 H1103 0.950 . S
C1111 C1109 1.327 . S
C1112 C1100 1.349 . S
C1112 H1106 0.950 . S
C1112 C1113 1.327 . S
C1113 H1107 0.950 . S
C1113 C1112 1.327 . S
C1113 C1117 1.429 . S
C1114 C1097 1.574 . S
C1114 H1108 0.949 . S
C1114 C1118 1.368 . S
C1115 C1096 1.429 . S
C1115 C1109 1.429 . S
C1115 C1116 1.523 . S
C1116 C1097 1.368 . S
C1116 C1110 1.368 . S
C1116 C1115 1.523 . S
C1117 C1101 1.429 . S
C1117 C1113 1.429 . S
C1117 C1118 1.523 . S
C1118 C1102 1.368 . S
C1118 C1114 1.368 . S
C1118 C1117 1.523 . S
H1119 C1094 0.950 . S
H1120 C1096 0.950 . S
H1121 C1097 0.949 . S
H1122 C1099 0.950 . S
H1123 C1101 0.950 . S
C1124 C1125 1.349 1_554 S
C1124 C1126 1.327 . S
C1124 H1149 0.950 . S
C1125 C1124 1.349 1_556 S
C1125 C1141 1.349 . S
C1126 C1124 1.327 . S
C1126 C1145 1.429 1_554 S
C1126 H1150 0.950 . S
C1127 C1144 1.574 1_556 S
C1127 C1146 1.368 1_556 S
C1127 H1151 0.949 . S
H1128 C1132 0.949 . S
C1129 C1130 1.349 . S
C1129 C1131 1.327 . S
C1129 H1152 0.950 . S
C1130 C1129 1.349 . S
C1130 C1142 1.349 . S
C1131 C1129 1.327 . S
C1131 C1147 1.429 . S
C1131 H1153 0.950 . S
C1132 H1128 0.949 . S
C1132 C1140 1.574 . S
C1132 C1148 1.368 . S
H1133 C1141 0.950 . S
H1134 C1139 0.950 . S
H1135 C1140 0.949 . S
H1136 C1142 0.950 . S
H1137 C1143 0.950 . S
H1138 C1144 0.949 1_556 S
C1139 H1134 0.950 . S
C1139 C1141 1.327 . S
C1139 C1145 1.429 . S
C1140 C1132 1.574 . S
C1140 H1135 0.949 . S
C1140 C1146 1.368 . S
C1141 C1125 1.349 . S
C1141 H1133 0.950 . S
C1141 C1139 1.327 . S
C1142 C1130 1.349 . S
C1142 H1136 0.950 . S
C1142 C1143 1.327 . S
C1143 H1137 0.950 . S
C1143 C1142 1.327 . S
C1143 C1147 1.429 . S
C1144 C1127 1.574 1_554 S
C1144 H1138 0.949 1_554 S
C1144 C1148 1.368 . S
C1145 C1126 1.429 1_556 S
C1145 C1139 1.429 . S
C1145 C1146 1.523 1_556 S
C1146 C1127 1.368 1_554 S
C1146 C1140 1.368 . S
C1146 C1145 1.523 1_554 S
C1147 C1131 1.429 . S
C1147 C1143 1.429 . S
C1147 C1148 1.523 . S
C1148 C1132 1.368 . S
C1148 C1144 1.368 . S
C1148 C1147 1.523 . S
H1149 C1124 0.950 . S
H1150 C1126 0.950 . S
H1151 C1127 0.949 . S
H1152 C1129 0.950 . S
H1153 C1131 0.950 . S
C1154 C1155 1.349 . S
C1154 C1156 1.327 . S
C1154 H1179 0.950 . S
C1155 C1154 1.349 . S
C1155 C1171 1.349 . S
C1156 C1154 1.327 . S
C1156 C1175 1.429 . S
C1156 H1180 0.950 . S
C1157 C1174 1.574 . S
C1157 C1176 1.368 . S
C1157 H1181 0.949 . S
H1158 C1162 0.949 . S
C1159 C1160 1.349 . S
C1159 C1161 1.327 . S
C1159 H1182 0.950 . S
C1160 C1159 1.349 . S
C1160 C1172 1.349 . S
C1161 C1159 1.327 . S
C1161 C1177 1.429 . S
C1161 H1183 0.950 . S
C1162 H1158 0.949 . S
C1162 C1170 1.574 . S
C1162 C1178 1.368 . S
H1163 C1171 0.950 . S
H1164 C1169 0.950 . S
H1165 C1170 0.949 . S
H1166 C1172 0.950 . S
H1167 C1173 0.950 . S
H1168 C1174 0.949 . S
C1169 H1164 0.950 . S
C1169 C1171 1.327 . S
C1169 C1175 1.429 . S
C1170 C1162 1.574 . S
C1170 H1165 0.949 . S
C1170 C1176 1.368 . S
C1171 C1155 1.349 . S
C1171 H1163 0.950 . S
C1171 C1169 1.327 . S
C1172 C1160 1.349 . S
C1172 H1166 0.950 . S
C1172 C1173 1.327 . S
C1173 H1167 0.950 . S
C1173 C1172 1.327 . S
C1173 C1177 1.429 . S
C1174 C1157 1.574 . S
C1174 H1168 0.949 . S
C1174 C1178 1.368 . S
C1175 C1156 1.429 . S
C1175 C1169 1.429 . S
C1175 C1176 1.523 . S
C1176 C1157 1.368 . S
C1176 C1170 1.368 . S
C1176 C1175 1.523 . S
C1177 C1161 1.429 . S
C1177 C1173 1.429 . S
C1177 C1178 1.523 . S
C1178 C1162 1.368 . S
C1178 C1174 1.368 . S
C1178 C1177 1.523 . S
H1179 C1154 0.950 . S
H1180 C1156 0.950 . S
H1181 C1157 0.949 . S
H1182 C1159 0.950 . S
H1183 C1161 0.950 . S
C1184 C1185 1.349 . S
C1184 C1186 1.327 . S
C1184 H1209 0.950 . S
C1185 C1184 1.349 . S
C1185 C1201 1.349 . S
C1186 C1184 1.327 . S
C1186 C1205 1.429 . S
C1186 H1210 0.950 . S
C1187 C1204 1.574 . S
C1187 C1206 1.368 . S
C1187 H1211 0.949 . S
H1188 C1192 0.949 . S
C1189 C1190 1.349 . S
C1189 C1191 1.327 . S
C1189 H1212 0.950 . S
C1190 C1189 1.349 . S
C1190 C1202 1.349 . S
C1191 C1189 1.327 . S
C1191 C1207 1.429 . S
C1191 H1213 0.950 . S
C1192 H1188 0.949 . S
C1192 C1200 1.574 . S
C1192 C1208 1.368 . S
H1193 C1201 0.950 . S
H1194 C1199 0.950 . S
H1195 C1200 0.949 . S
H1196 C1202 0.950 . S
H1197 C1203 0.950 . S
H1198 C1204 0.949 . S
C1199 H1194 0.950 . S
C1199 C1201 1.327 . S
C1199 C1205 1.429 . S
C1200 C1192 1.574 . S
C1200 H1195 0.949 . S
C1200 C1206 1.368 . S
C1201 C1185 1.349 . S
C1201 H1193 0.950 . S
C1201 C1199 1.327 . S
C1202 C1190 1.349 . S
C1202 H1196 0.950 . S
C1202 C1203 1.327 . S
C1203 H1197 0.950 . S
C1203 C1202 1.327 . S
C1203 C1207 1.429 . S
C1204 C1187 1.574 . S
C1204 H1198 0.949 . S
C1204 C1208 1.368 . S
C1205 C1186 1.429 . S
C1205 C1199 1.429 . S
C1205 C1206 1.523 . S
C1206 C1187 1.368 . S
C1206 C1200 1.368 . S
C1206 C1205 1.523 . S
C1207 C1191 1.429 . S
C1207 C1203 1.429 . S
C1207 C1208 1.523 . S
C1208 C1192 1.368 . S
C1208 C1204 1.368 . S
C1208 C1207 1.523 . S
H1209 C1184 0.950 . S
H1210 C1186 0.950 . S
H1211 C1187 0.949 . S
H1212 C1189 0.950 . S
H1213 C1191 0.950 . S
C1214 C1215 1.349 . S
C1214 C1216 1.327 . S
C1214 H1239 0.950 1_554 S
C1215 C1214 1.349 . S
C1215 C1231 1.349 . S
C1216 C1214 1.327 . S
C1216 C1235 1.429 . S
C1216 H1240 0.950 . S
C1217 C1234 1.574 . S
C1217 C1236 1.368 . S
C1217 H1241 0.949 . S
H1218 C1222 0.949 . S
C1219 C1220 1.349 . S
C1219 C1221 1.327 . S
C1219 H1242 0.950 . S
C1220 C1219 1.349 . S
C1220 C1232 1.349 . S
C1221 C1219 1.327 . S
C1221 C1237 1.429 . S
C1221 H1243 0.950 . S
C1222 H1218 0.949 . S
C1222 C1230 1.574 1_655 S
C1222 C1238 1.368 . S
H1223 C1231 0.950 . S
H1224 C1229 0.950 . S
H1225 C1230 0.949 . S
H1226 C1232 0.950 . S
H1227 C1233 0.950 . S
H1228 C1234 0.949 . S
C1229 H1224 0.950 . S
C1229 C1231 1.327 . S
C1229 C1235 1.429 . S
C1230 C1222 1.574 1_455 S
C1230 H1225 0.949 . S
C1230 C1236 1.368 . S
C1231 C1215 1.349 . S
C1231 H1223 0.950 . S
C1231 C1229 1.327 . S
C1232 C1220 1.349 . S
C1232 H1226 0.950 . S
C1232 C1233 1.327 . S
C1233 H1227 0.950 . S
C1233 C1232 1.327 . S
C1233 C1237 1.429 . S
C1234 C1217 1.574 . S
C1234 H1228 0.949 . S
C1234 C1238 1.368 1_455 S
C1235 C1216 1.429 . S
C1235 C1229 1.429 . S
C1235 C1236 1.523 . S
C1236 C1217 1.368 . S
C1236 C1230 1.368 . S
C1236 C1235 1.523 . S
C1237 C1221 1.429 . S
C1237 C1233 1.429 . S
C1237 C1238 1.523 . S
C1238 C1222 1.368 . S
C1238 C1234 1.368 1_655 S
C1238 C1237 1.523 . S
H1239 C1214 0.950 1_556 S
H1240 C1216 0.950 . S
H1241 C1217 0.949 . S
H1242 C1219 0.950 . S
H1243 C1221 0.950 . S
C1244 C1245 1.349 . S
C1244 C1246 1.327 . S
C1244 H1269 0.950 . S
C1245 C1244 1.349 . S
C1245 C1261 1.349 . S
C1246 C1244 1.327 . S
C1246 C1265 1.429 . S
C1246 H1270 0.950 . S
C1247 C1264 1.574 . S
C1247 C1266 1.368 . S
C1247 H1271 0.949 . S
H1248 C1252 0.949 . S
C1249 C1250 1.349 . S
C1249 C1251 1.327 . S
C1249 H1272 0.950 . S
C1250 C1249 1.349 . S
C1250 C1262 1.349 . S
C1251 C1249 1.327 . S
C1251 C1267 1.429 . S
C1251 H1273 0.950 . S
C1252 H1248 0.949 . S
C1252 C1260 1.574 . S
C1252 C1268 1.368 . S
H1253 C1261 0.950 . S
H1254 C1259 0.950 . S
H1255 C1260 0.949 . S
H1256 C1262 0.950 . S
H1257 C1263 0.950 . S
H1258 C1264 0.949 . S
C1259 H1254 0.950 . S
C1259 C1261 1.327 . S
C1259 C1265 1.429 . S
C1260 C1252 1.574 . S
C1260 H1255 0.949 . S
C1260 C1266 1.368 . S
C1261 C1245 1.349 . S
C1261 H1253 0.950 . S
C1261 C1259 1.327 . S
C1262 C1250 1.349 . S
C1262 H1256 0.950 . S
C1262 C1263 1.327 . S
C1263 H1257 0.950 . S
C1263 C1262 1.327 . S
C1263 C1267 1.429 . S
C1264 C1247 1.574 . S
C1264 H1258 0.949 . S
C1264 C1268 1.368 . S
C1265 C1246 1.429 . S
C1265 C1259 1.429 . S
C1265 C1266 1.523 . S
C1266 C1247 1.368 . S
C1266 C1260 1.368 . S
C1266 C1265 1.523 . S
C1267 C1251 1.429 . S
C1267 C1263 1.429 . S
C1267 C1268 1.523 . S
C1268 C1252 1.368 . S
C1268 C1264 1.368 . S
C1268 C1267 1.523 . S
H1269 C1244 0.950 . S
H1270 C1246 0.950 . S
H1271 C1247 0.949 . S
H1272 C1249 0.950 . S
H1273 C1251 0.950 . S
C1274 C1275 1.349 . S
C1274 C1276 1.327 . S
C1274 H1299 0.950 . S
C1275 C1274 1.349 . S
C1275 C1291 1.349 . S
C1276 C1274 1.327 . S
C1276 C1295 1.429 . S
C1276 H1300 0.950 . S
C1277 C1294 1.574 . S
C1277 C1296 1.368 . S
C1277 H1301 0.949 . S
H1278 C1282 0.949 . S
C1279 C1280 1.349 . S
C1279 C1281 1.327 . S
C1279 H1302 0.950 . S
C1280 C1279 1.349 . S
C1280 C1292 1.349 . S
C1281 C1279 1.327 . S
C1281 C1297 1.429 . S
C1281 H1303 0.950 . S
C1282 H1278 0.949 . S
C1282 C1290 1.574 . S
C1282 C1298 1.368 . S
H1283 C1291 0.950 . S
H1284 C1289 0.950 . S
H1285 C1290 0.949 . S
H1286 C1292 0.950 . S
H1287 C1293 0.950 . S
H1288 C1294 0.949 . S
C1289 H1284 0.950 . S
C1289 C1291 1.327 . S
C1289 C1295 1.429 . S
C1290 C1282 1.574 . S
C1290 H1285 0.949 . S
C1290 C1296 1.368 . S
C1291 C1275 1.349 . S
C1291 H1283 0.950 . S
C1291 C1289 1.327 . S
C1292 C1280 1.349 . S
C1292 H1286 0.950 . S
C1292 C1293 1.327 . S
C1293 H1287 0.950 . S
C1293 C1292 1.327 . S
C1293 C1297 1.429 . S
C1294 C1277 1.574 . S
C1294 H1288 0.949 . S
C1294 C1298 1.368 . S
C1295 C1276 1.429 . S
C1295 C1289 1.429 . S
C1295 C1296 1.523 . S
C1296 C1277 1.368 . S
C1296 C1290 1.368 . S
C1296 C1295 1.523 . S
C1297 C1281 1.429 . S
C1297 C1293 1.429 . S
C1297 C1298 1.523 . S
C1298 C1282 1.368 . S
C1298 C1294 1.368 . S
C1298 C1297 1.523 . S
H1299 C1274 0.950 . S
H1300 C1276 0.950 . S
H1301 C1277 0.949 . S
H1302 C1279 0.950 . S
H1303 C1281 0.950 . S
C1304 C1305 1.349 . S
C1304 C1306 1.327 . S
C1304 H1329 0.950 . S
C1305 C1304 1.349 . S
C1305 C1321 1.349 . S
C1306 C1304 1.327 . S
C1306 C1325 1.429 . S
C1306 H1330 0.950 . S
C1307 C1324 1.574 . S
C1307 C1326 1.368 . S
C1307 H1331 0.949 . S
H1308 C1312 0.949 . S
C1309 C1310 1.349 . S
C1309 C1311 1.327 . S
C1309 H1332 0.950 . S
C1310 C1309 1.349 . S
C1310 C1322 1.349 . S
C1311 C1309 1.327 . S
C1311 C1327 1.429 . S
C1311 H1333 0.950 . S
C1312 H1308 0.949 . S
C1312 C1320 1.574 . S
C1312 C1328 1.368 . S
H1313 C1321 0.950 . S
H1314 C1319 0.950 . S
H1315 C1320 0.949 . S
H1316 C1322 0.950 . S
H1317 C1323 0.950 . S
H1318 C1324 0.949 . S
C1319 H1314 0.950 . S
C1319 C1321 1.327 . S
C1319 C1325 1.429 . S
C1320 C1312 1.574 . S
C1320 H1315 0.949 . S
C1320 C1326 1.368 . S
C1321 C1305 1.349 . S
C1321 H1313 0.950 . S
C1321 C1319 1.327 . S
C1322 C1310 1.349 . S
C1322 H1316 0.950 . S
C1322 C1323 1.327 . S
C1323 H1317 0.950 . S
C1323 C1322 1.327 . S
C1323 C1327 1.429 . S
C1324 C1307 1.574 . S
C1324 H1318 0.949 . S
C1324 C1328 1.368 . S
C1325 C1306 1.429 . S
C1325 C1319 1.429 . S
C1325 C1326 1.523 . S
C1326 C1307 1.368 . S
C1326 C1320 1.368 . S
C1326 C1325 1.523 . S
C1327 C1311 1.429 . S
C1327 C1323 1.429 . S
C1327 C1328 1.523 . S
C1328 C1312 1.368 . S
C1328 C1324 1.368 . S
C1328 C1327 1.523 . S
H1329 C1304 0.950 . S
H1330 C1306 0.950 . S
H1331 C1307 0.949 . S
H1332 C1309 0.950 . S
H1333 C1311 0.950 . S
C1334 C1335 1.349 . S
C1334 C1336 1.327 . S
C1334 H1359 0.950 . S
C1335 C1334 1.349 . S
C1335 C1351 1.349 1_554 S
C1336 C1334 1.327 . S
C1336 C1355 1.429 1_554 S
C1336 H1360 0.950 . S
C1337 C1354 1.574 . S
C1337 C1356 1.368 . S
C1337 H1361 0.949 . S
H1338 C1342 0.949 . S
C1339 C1340 1.349 . S
C1339 C1341 1.327 . S
C1339 H1362 0.950 . S
C1340 C1339 1.349 . S
C1340 C1352 1.349 . S
C1341 C1339 1.327 . S
C1341 C1357 1.429 . S
C1341 H1363 0.950 . S
C1342 H1338 0.949 . S
C1342 C1350 1.574 . S
C1342 C1358 1.368 . S
H1343 C1351 0.950 . S
H1344 C1349 0.950 . S
H1345 C1350 0.949 . S
H1346 C1352 0.950 . S
H1347 C1353 0.950 . S
H1348 C1354 0.949 . S
C1349 H1344 0.950 . S
C1349 C1351 1.327 . S
C1349 C1355 1.429 . S
C1350 C1342 1.574 . S
C1350 H1345 0.949 . S
C1350 C1356 1.368 . S
C1351 C1335 1.349 1_556 S
C1351 H1343 0.950 . S
C1351 C1349 1.327 . S
C1352 C1340 1.349 . S
C1352 H1346 0.950 . S
C1352 C1353 1.327 . S
C1353 H1347 0.950 . S
C1353 C1352 1.327 . S
C1353 C1357 1.429 . S
C1354 C1337 1.574 . S
C1354 H1348 0.949 . S
C1354 C1358 1.368 . S
C1355 C1336 1.429 1_556 S
C1355 C1349 1.429 . S
C1355 C1356 1.523 . S
C1356 C1337 1.368 . S
C1356 C1350 1.368 . S
C1356 C1355 1.523 . S
C1357 C1341 1.429 . S
C1357 C1353 1.429 . S
C1357 C1358 1.523 . S
C1358 C1342 1.368 . S
C1358 C1354 1.368 . S
C1358 C1357 1.523 . S
H1359 C1334 0.950 . S
H1360 C1336 0.950 . S
H1361 C1337 0.949 . S
H1362 C1339 0.950 . S
H1363 C1341 0.950 . S
C1364 C1365 1.349 . S
C1364 C1366 1.327 . S
C1364 H1389 0.950 . S
C1365 C1364 1.349 . S
C1365 C1381 1.349 . S
C1366 C1364 1.327 . S
C1366 C1385 1.429 . S
C1366 H1390 0.950 . S
C1367 C1384 1.574 . S
C1367 C1386 1.368 . S
C1367 H1391 0.949 . S
H1368 C1372 0.949 . S
C1369 C1370 1.349 . S
C1369 C1371 1.327 . S
C1369 H1392 0.950 . S
C1370 C1369 1.349 . S
C1370 C1382 1.349 . S
C1371 C1369 1.327 . S
C1371 C1387 1.429 . S
C1371 H1393 0.950 . S
C1372 H1368 0.949 . S
C1372 C1380 1.574 . S
C1372 C1388 1.368 . S
H1373 C1381 0.950 . S
H1374 C1379 0.950 . S
H1375 C1380 0.949 . S
H1376 C1382 0.950 . S
H1377 C1383 0.950 . S
H1378 C1384 0.949 . S
C1379 H1374 0.950 . S
C1379 C1381 1.327 . S
C1379 C1385 1.429 . S
C1380 C1372 1.574 . S
C1380 H1375 0.949 . S
C1380 C1386 1.368 . S
C1381 C1365 1.349 . S
C1381 H1373 0.950 . S
C1381 C1379 1.327 . S
C1382 C1370 1.349 . S
C1382 H1376 0.950 . S
C1382 C1383 1.327 . S
C1383 H1377 0.950 . S
C1383 C1382 1.327 . S
C1383 C1387 1.429 . S
C1384 C1367 1.574 . S
C1384 H1378 0.949 . S
C1384 C1388 1.368 . S
C1385 C1366 1.429 . S
C1385 C1379 1.429 . S
C1385 C1386 1.523 . S
C1386 C1367 1.368 . S
C1386 C1380 1.368 . S
C1386 C1385 1.523 . S
C1387 C1371 1.429 . S
C1387 C1383 1.429 . S
C1387 C1388 1.523 . S
C1388 C1372 1.368 . S
C1388 C1384 1.368 . S
C1388 C1387 1.523 . S
H1389 C1364 0.950 . S
H1390 C1366 0.950 . S
H1391 C1367 0.949 . S
H1392 C1369 0.950 . S
H1393 C1371 0.950 . S
C1394 C1395 1.349 . S
C1394 C1396 1.327 . S
C1394 H1419 0.950 . S
C1395 C1394 1.349 . S
C1395 C1411 1.349 . S
C1396 C1394 1.327 . S
C1396 C1415 1.429 . S
C1396 H1420 0.950 . S
C1397 C1414 1.574 1_655 S
C1397 C1416 1.368 . S
C1397 H1421 0.949 . S
H1398 C1402 0.949 . S
C1399 C1400 1.349 . S
C1399 C1401 1.327 . S
C1399 H1422 0.950 . S
C1400 C1399 1.349 . S
C1400 C1412 1.349 . S
C1401 C1399 1.327 . S
C1401 C1417 1.429 . S
C1401 H1423 0.950 . S
C1402 H1398 0.949 . S
C1402 C1410 1.574 . S
C1402 C1418 1.368 . S
H1403 C1411 0.950 . S
H1404 C1409 0.950 . S
H1405 C1410 0.949 . S
H1406 C1412 0.950 . S
H1407 C1413 0.950 . S
H1408 C1414 0.950 . S
C1409 H1404 0.950 . S
C1409 C1411 1.327 . S
C1409 C1415 1.429 . S
C1410 C1402 1.574 . S
C1410 H1405 0.949 . S
C1410 C1416 1.368 1_455 S
C1411 C1395 1.349 . S
C1411 H1403 0.950 . S
C1411 C1409 1.327 . S
C1412 C1400 1.349 . S
C1412 H1406 0.950 . S
C1412 C1413 1.327 . S
C1413 H1407 0.950 . S
C1413 C1412 1.327 . S
C1413 C1417 1.429 . S
C1414 C1397 1.574 1_455 S
C1414 H1408 0.950 . S
C1414 C1418 1.368 . S
C1415 C1396 1.429 . S
C1415 C1409 1.429 . S
C1415 C1416 1.523 . S
C1416 C1397 1.368 . S
C1416 C1410 1.368 1_655 S
C1416 C1415 1.523 . S
C1417 C1401 1.429 . S
C1417 C1413 1.429 . S
C1417 C1418 1.523 . S
C1418 C1402 1.368 . S
C1418 C1414 1.368 . S
C1418 C1417 1.523 . S
H1419 C1394 0.950 . S
H1420 C1396 0.950 . S
H1421 C1397 0.949 . S
H1422 C1399 0.950 . S
H1423 C1401 0.950 . S
C1424 C1425 1.349 . S
C1424 C1426 1.327 . S
C1424 H1449 0.950 . S
C1425 C1424 1.349 . S
C1425 C1441 1.349 . S
C1426 C1424 1.327 . S
C1426 C1445 1.429 . S
C1426 H1450 0.950 . S
C1427 C1444 1.574 . S
C1427 C1446 1.368 . S
C1427 H1451 0.949 . S
H1428 C1432 0.949 . S
C1429 C1430 1.349 . S
C1429 C1431 1.327 . S
C1429 H1452 0.950 . S
C1430 C1429 1.349 . S
C1430 C1442 1.349 . S
C1431 C1429 1.327 . S
C1431 C1447 1.429 . S
C1431 H1453 0.950 . S
C1432 H1428 0.949 . S
C1432 C1440 1.574 . S
C1432 C1448 1.368 . S
H1433 C1441 0.950 . S
H1434 C1439 0.950 . S
H1435 C1440 0.949 . S
H1436 C1442 0.950 . S
H1437 C1443 0.950 . S
H1438 C1444 0.949 . S
C1439 H1434 0.950 . S
C1439 C1441 1.327 . S
C1439 C1445 1.429 . S
C1440 C1432 1.574 . S
C1440 H1435 0.949 . S
C1440 C1446 1.368 . S
C1441 C1425 1.349 . S
C1441 H1433 0.950 . S
C1441 C1439 1.327 . S
C1442 C1430 1.349 . S
C1442 H1436 0.950 . S
C1442 C1443 1.327 . S
C1443 H1437 0.950 . S
C1443 C1442 1.327 . S
C1443 C1447 1.429 . S
C1444 C1427 1.574 . S
C1444 H1438 0.949 . S
C1444 C1448 1.368 . S
C1445 C1426 1.429 . S
C1445 C1439 1.429 . S
C1445 C1446 1.523 . S
C1446 C1427 1.368 . S
C1446 C1440 1.368 . S
C1446 C1445 1.523 . S
C1447 C1431 1.429 . S
C1447 C1443 1.429 . S
C1447 C1448 1.523 . S
C1448 C1432 1.368 . S
C1448 C1444 1.368 . S
C1448 C1447 1.523 . S
H1449 C1424 0.950 . S
H1450 C1426 0.950 . S
H1451 C1427 0.949 . S
H1452 C1429 0.950 . S
H1453 C1431 0.950 . S
C1454 C1455 1.349 . S
C1454 C1456 1.327 . S
C1454 H1479 0.950 . S
C1455 C1454 1.349 . S
C1455 C1471 1.349 . S
C1456 C1454 1.327 . S
C1456 C1475 1.429 . S
C1456 H1480 0.950 . S
C1457 C1474 1.574 1_455 S
C1457 C1476 1.368 . S
C1457 H1481 0.949 . S
H1458 C1462 0.949 . S
C1459 C1460 1.349 . S
C1459 C1461 1.327 . S
C1459 H1482 0.950 . S
C1460 C1459 1.349 . S
C1460 C1472 1.349 . S
C1461 C1459 1.327 . S
C1461 C1477 1.429 . S
C1461 H1483 0.950 . S
C1462 H1458 0.949 . S
C1462 C1470 1.574 . S
C1462 C1478 1.368 . S
H1463 C1471 0.950 . S
H1464 C1469 0.950 . S
H1465 C1470 0.949 . S
H1466 C1472 0.950 . S
H1467 C1473 0.950 . S
H1468 C1474 0.949 . S
C1469 H1464 0.950 . S
C1469 C1471 1.327 . S
C1469 C1475 1.429 . S
C1470 C1462 1.574 . S
C1470 H1465 0.949 . S
C1470 C1476 1.368 1_655 S
C1471 C1455 1.349 . S
C1471 H1463 0.950 . S
C1471 C1469 1.327 . S
C1472 C1460 1.349 . S
C1472 H1466 0.950 . S
C1472 C1473 1.327 . S
C1473 H1467 0.950 . S
C1473 C1472 1.327 . S
C1473 C1477 1.429 . S
C1474 C1457 1.574 1_655 S
C1474 H1468 0.949 . S
C1474 C1478 1.368 . S
C1475 C1456 1.429 . S
C1475 C1469 1.429 . S
C1475 C1476 1.523 . S
C1476 C1457 1.368 . S
C1476 C1470 1.368 1_455 S
C1476 C1475 1.523 . S
C1477 C1461 1.429 . S
C1477 C1473 1.429 . S
C1477 C1478 1.523 . S
C1478 C1462 1.368 . S
C1478 C1474 1.368 . S
C1478 C1477 1.523 . S
H1479 C1454 0.950 . S
H1480 C1456 0.950 . S
H1481 C1457 0.949 . S
H1482 C1459 0.950 . S
H1483 C1461 0.950 . S
C1484 C1485 1.349 . S
C1484 C1486 1.327 . S
C1484 H1509 0.950 . S
C1485 C1484 1.349 . S
C1485 C1501 1.349 . S
C1486 C1484 1.327 . S
C1486 C1505 1.429 . S
C1486 H1510 0.950 . S
C1487 C1504 1.574 . S
C1487 C1506 1.368 . S
C1487 H1511 0.949 . S
H1488 C1492 0.949 . S
C1489 C1490 1.349 . S
C1489 C1491 1.327 . S
C1489 H1512 0.950 . S
C1490 C1489 1.349 . S
C1490 C1502 1.349 . S
C1491 C1489 1.327 . S
C1491 C1507 1.429 . S
C1491 H1513 0.950 . S
C1492 H1488 0.949 . S
C1492 C1500 1.574 . S
C1492 C1508 1.368 . S
H1493 C1501 0.950 . S
H1494 C1499 0.950 . S
H1495 C1500 0.949 . S
H1496 C1502 0.950 . S
H1497 C1503 0.950 . S
H1498 C1504 0.949 . S
C1499 H1494 0.950 . S
C1499 C1501 1.327 . S
C1499 C1505 1.429 . S
C1500 C1492 1.574 . S
C1500 H1495 0.949 . S
C1500 C1506 1.368 . S
C1501 C1485 1.349 . S
C1501 H1493 0.950 . S
C1501 C1499 1.327 . S
C1502 C1490 1.349 . S
C1502 H1496 0.950 . S
C1502 C1503 1.327 . S
C1503 H1497 0.950 . S
C1503 C1502 1.327 . S
C1503 C1507 1.429 . S
C1504 C1487 1.574 . S
C1504 H1498 0.949 . S
C1504 C1508 1.368 . S
C1505 C1486 1.429 . S
C1505 C1499 1.429 . S
C1505 C1506 1.523 . S
C1506 C1487 1.368 . S
C1506 C1500 1.368 . S
C1506 C1505 1.523 . S
C1507 C1491 1.429 . S
C1507 C1503 1.429 . S
C1507 C1508 1.523 . S
C1508 C1492 1.368 . S
C1508 C1504 1.368 . S
C1508 C1507 1.523 . S
H1509 C1484 0.950 . S
H1510 C1486 0.950 . S
H1511 C1487 0.949 . S
H1512 C1489 0.950 . S
H1513 C1491 0.950 . S
C1514 C1515 1.349 . S
C1514 C1516 1.327 . S
C1514 H1539 0.950 . S
C1515 C1514 1.349 . S
C1515 C1531 1.349 . S
C1516 C1514 1.327 . S
C1516 C1535 1.429 . S
C1516 H1540 0.950 . S
C1517 C1534 1.574 . S
C1517 C1536 1.368 . S
C1517 H1541 0.949 . S
H1518 C1522 0.949 . S
C1519 C1520 1.349 . S
C1519 C1521 1.327 . S
C1519 H1542 0.950 . S
C1520 C1519 1.349 . S
C1520 C1532 1.349 . S
C1521 C1519 1.327 . S
C1521 C1537 1.429 . S
C1521 H1543 0.950 . S
C1522 H1518 0.949 . S
C1522 C1530 1.574 . S
C1522 C1538 1.368 . S
H1523 C1531 0.950 . S
H1524 C1529 0.950 . S
H1525 C1530 0.949 . S
H1526 C1532 0.950 . S
H1527 C1533 0.950 . S
H1528 C1534 0.949 . S
C1529 H1524 0.950 . S
C1529 C1531 1.327 . S
C1529 C1535 1.429 . S
C1530 C1522 1.574 . S
C1530 H1525 0.949 . S
C1530 C1536 1.368 . S
C1531 C1515 1.349 . S
C1531 H1523 0.950 . S
C1531 C1529 1.327 . S
C1532 C1520 1.349 . S
C1532 H1526 0.950 . S
C1532 C1533 1.327 . S
C1533 H1527 0.950 . S
C1533 C1532 1.327 . S
C1533 C1537 1.429 . S
C1534 C1517 1.574 . S
C1534 H1528 0.949 . S
C1534 C1538 1.368 . S
C1535 C1516 1.429 . S
C1535 C1529 1.429 . S
C1535 C1536 1.523 . S
C1536 C1517 1.368 . S
C1536 C1530 1.368 . S
C1536 C1535 1.523 . S
C1537 C1521 1.429 . S
C1537 C1533 1.429 . S
C1537 C1538 1.523 . S
C1538 C1522 1.368 . S
C1538 C1534 1.368 . S
C1538 C1537 1.523 . S
H1539 C1514 0.950 . S
H1540 C1516 0.950 . S
H1541 C1517 0.949 . S
H1542 C1519 0.950 . S
H1543 C1521 0.950 . S
C1544 C1545 1.349 . S
C1544 C1546 1.327 . S
C1544 H1569 0.950 . S
C1545 C1544 1.349 . S
C1545 C1561 1.349 . S
C1546 C1544 1.327 . S
C1546 C1565 1.429 . S
C1546 H1570 0.950 . S
C1547 C1564 1.574 . S
C1547 C1566 1.368 . S
C1547 H1571 0.949 . S
H1548 C1552 0.949 . S
C1549 C1550 1.349 . S
C1549 C1551 1.327 . S
C1549 H1572 0.950 . S
C1550 C1549 1.349 . S
C1550 C1562 1.349 . S
C1551 C1549 1.327 . S
C1551 C1567 1.429 . S
C1551 H1573 0.950 . S
C1552 H1548 0.949 . S
C1552 C1560 1.574 . S
C1552 C1568 1.368 . S
H1553 C1561 0.950 . S
H1554 C1559 0.950 . S
H1555 C1560 0.949 . S
H1556 C1562 0.950 . S
H1557 C1563 0.950 . S
H1558 C1564 0.949 . S
C1559 H1554 0.950 . S
C1559 C1561 1.327 . S
C1559 C1565 1.429 . S
C1560 C1552 1.574 . S
C1560 H1555 0.949 . S
C1560 C1566 1.368 . S
C1561 C1545 1.349 . S
C1561 H1553 0.950 . S
C1561 C1559 1.327 . S
C1562 C1550 1.349 . S
C1562 H1556 0.950 . S
C1562 C1563 1.327 . S
C1563 H1557 0.950 . S
C1563 C1562 1.327 . S
C1563 C1567 1.429 . S
C1564 C1547 1.574 . S
C1564 H1558 0.949 . S
C1564 C1568 1.368 . S
C1565 C1546 1.429 . S
C1565 C1559 1.429 . S
C1565 C1566 1.523 . S
C1566 C1547 1.368 . S
C1566 C1560 1.368 . S
C1566 C1565 1.523 . S
C1567 C1551 1.429 . S
C1567 C1563 1.429 . S
C1567 C1568 1.523 . S
C1568 C1552 1.368 . S
C1568 C1564 1.368 . S
C1568 C1567 1.523 . S
H1569 C1544 0.950 . S
H1570 C1546 0.950 . S
H1571 C1547 0.949 . S
H1572 C1549 0.950 . S
H1573 C1551 0.950 . S
C1574 C1575 1.349 1_554 S
C1574 C1576 1.327 . S
C1574 H1599 0.950 1_554 S
C1575 C1574 1.349 1_556 S
C1575 C1591 1.349 1_556 S
C1576 C1574 1.327 . S
C1576 C1595 1.429 . S
C1576 H1600 0.950 . S
C1577 C1594 1.574 . S
C1577 C1596 1.368 . S
C1577 H1601 0.949 . S
H1578 C1582 0.949 . S
C1579 C1580 1.349 . S
C1579 C1581 1.327 . S
C1579 H1602 0.950 . S
C1580 C1579 1.349 . S
C1580 C1592 1.349 . S
C1581 C1579 1.327 . S
C1581 C1597 1.429 . S
C1581 H1603 0.950 . S
C1582 H1578 0.949 . S
C1582 C1590 1.574 . S
C1582 C1598 1.368 . S
H1583 C1591 0.950 . S
H1584 C1589 0.950 . S
H1585 C1590 0.949 . S
H1586 C1592 0.950 . S
H1587 C1593 0.950 . S
H1588 C1594 0.949 . S
C1589 H1584 0.950 . S
C1589 C1591 1.327 . S
C1589 C1595 1.429 . S
C1590 C1582 1.574 . S
C1590 H1585 0.949 . S
C1590 C1596 1.368 . S
C1591 C1575 1.349 1_554 S
C1591 H1583 0.950 . S
C1591 C1589 1.327 . S
C1592 C1580 1.349 . S
C1592 H1586 0.950 . S
C1592 C1593 1.327 . S
C1593 H1587 0.950 . S
C1593 C1592 1.327 . S
C1593 C1597 1.429 . S
C1594 C1577 1.574 . S
C1594 H1588 0.949 . S
C1594 C1598 1.368 . S
C1595 C1576 1.429 . S
C1595 C1589 1.429 . S
C1595 C1596 1.523 . S
C1596 C1577 1.368 . S
C1596 C1590 1.368 . S
C1596 C1595 1.523 . S
C1597 C1581 1.429 . S
C1597 C1593 1.429 . S
C1597 C1598 1.523 . S
C1598 C1582 1.368 . S
C1598 C1594 1.368 . S
C1598 C1597 1.523 . S
H1599 C1574 0.950 1_556 S
H1600 C1576 0.950 . S
H1601 C1577 0.949 . S
H1602 C1579 0.950 . S
H1603 C1581 0.950 . S
C1604 C1605 1.349 . S
C1604 C1606 1.327 . S
C1604 H1629 0.950 . S
C1605 C1604 1.349 . S
C1605 C1621 1.349 . S
C1606 C1604 1.327 . S
C1606 C1625 1.429 . S
C1606 H1630 0.950 . S
C1607 C1624 1.574 . S
C1607 C1626 1.368 . S
C1607 H1631 0.949 . S
H1608 C1612 0.949 . S
C1609 C1610 1.349 . S
C1609 C1611 1.327 . S
C1609 H1632 0.950 . S
C1610 C1609 1.349 . S
C1610 C1622 1.349 . S
C1611 C1609 1.327 . S
C1611 C1627 1.429 . S
C1611 H1633 0.950 . S
C1612 H1608 0.949 . S
C1612 C1620 1.574 . S
C1612 C1628 1.368 . S
H1613 C1621 0.950 . S
H1614 C1619 0.950 . S
H1615 C1620 0.949 . S
H1616 C1622 0.950 . S
H1617 C1623 0.950 . S
H1618 C1624 0.949 . S
C1619 H1614 0.950 . S
C1619 C1621 1.327 . S
C1619 C1625 1.429 . S
C1620 C1612 1.574 . S
C1620 H1615 0.949 . S
C1620 C1626 1.368 . S
C1621 C1605 1.349 . S
C1621 H1613 0.950 . S
C1621 C1619 1.327 . S
C1622 C1610 1.349 . S
C1622 H1616 0.950 . S
C1622 C1623 1.327 . S
C1623 H1617 0.950 . S
C1623 C1622 1.327 . S
C1623 C1627 1.429 . S
C1624 C1607 1.574 . S
C1624 H1618 0.949 . S
C1624 C1628 1.368 . S
C1625 C1606 1.429 . S
C1625 C1619 1.429 . S
C1625 C1626 1.523 . S
C1626 C1607 1.368 . S
C1626 C1620 1.368 . S
C1626 C1625 1.523 . S
C1627 C1611 1.429 . S
C1627 C1623 1.429 . S
C1627 C1628 1.523 . S
C1628 C1612 1.368 . S
C1628 C1624 1.368 . S
C1628 C1627 1.523 . S
H1629 C1604 0.950 . S
H1630 C1606 0.950 . S
H1631 C1607 0.949 . S
H1632 C1609 0.950 . S
H1633 C1611 0.950 . S
C1634 C1635 1.349 . S
C1634 C1636 1.327 . S
C1634 H1659 0.950 . S
C1635 C1634 1.349 . S
C1635 C1651 1.349 . S
C1636 C1634 1.327 . S
C1636 C1655 1.429 . S
C1636 H1660 0.950 . S
C1637 C1654 1.574 . S
C1637 C1656 1.368 . S
C1637 H1661 0.949 . S
H1638 C1642 0.949 . S
C1639 C1640 1.349 . S
C1639 C1641 1.327 . S
C1639 H1662 0.950 . S
C1640 C1639 1.349 . S
C1640 C1652 1.349 . S
C1641 C1639 1.327 . S
C1641 C1657 1.429 . S
C1641 H1663 0.950 . S
C1642 H1638 0.949 . S
C1642 C1650 1.574 1_455 S
C1642 C1658 1.368 . S
H1643 C1651 0.950 . S
H1644 C1649 0.950 . S
H1645 C1650 0.949 . S
H1646 C1652 0.950 . S
H1647 C1653 0.950 . S
H1648 C1654 0.949 . S
C1649 H1644 0.950 . S
C1649 C1651 1.327 . S
C1649 C1655 1.429 . S
C1650 C1642 1.574 1_655 S
C1650 H1645 0.949 . S
C1650 C1656 1.368 . S
C1651 C1635 1.349 . S
C1651 H1643 0.950 . S
C1651 C1649 1.327 . S
C1652 C1640 1.349 . S
C1652 H1646 0.950 . S
C1652 C1653 1.327 . S
C1653 H1647 0.950 . S
C1653 C1652 1.327 . S
C1653 C1657 1.429 . S
C1654 C1637 1.574 . S
C1654 H1648 0.949 . S
C1654 C1658 1.368 1_655 S
C1655 C1636 1.429 . S
C1655 C1649 1.429 . S
C1655 C1656 1.523 . S
C1656 C1637 1.368 . S
C1656 C1650 1.368 . S
C1656 C1655 1.523 . S
C1657 C1641 1.429 . S
C1657 C1653 1.429 . S
C1657 C1658 1.523 . S
C1658 C1642 1.368 . S
C1658 C1654 1.368 1_455 S
C1658 C1657 1.523 . S
H1659 C1634 0.950 . S
H1660 C1636 0.950 . S
H1661 C1637 0.949 . S
H1662 C1639 0.950 . S
H1663 C1641 0.950 . S
C1664 C1665 1.349 . S
C1664 C1666 1.327 . S
C1664 H1689 0.950 . S
C1665 C1664 1.349 . S
C1665 C1681 1.349 . S
C1666 C1664 1.327 . S
C1666 C1685 1.429 . S
C1666 H1690 0.950 . S
C1667 C1684 1.574 . S
C1667 C1686 1.368 . S
C1667 H1691 0.949 . S
H1668 C1672 0.949 . S
C1669 C1670 1.349 . S
C1669 C1671 1.327 . S
C1669 H1692 0.950 . S
C1670 C1669 1.349 . S
C1670 C1682 1.349 . S
C1671 C1669 1.327 . S
C1671 C1687 1.429 . S
C1671 H1693 0.950 . S
C1672 H1668 0.949 . S
C1672 C1680 1.574 . S
C1672 C1688 1.368 . S
H1673 C1681 0.950 . S
H1674 C1679 0.950 . S
H1675 C1680 0.949 . S
H1676 C1682 0.950 . S
H1677 C1683 0.950 . S
H1678 C1684 0.949 . S
C1679 H1674 0.950 . S
C1679 C1681 1.327 . S
C1679 C1685 1.429 . S
C1680 C1672 1.574 . S
C1680 H1675 0.949 . S
C1680 C1686 1.368 . S
C1681 C1665 1.349 . S
C1681 H1673 0.950 . S
C1681 C1679 1.327 . S
C1682 C1670 1.349 . S
C1682 H1676 0.950 . S
C1682 C1683 1.327 . S
C1683 H1677 0.950 . S
C1683 C1682 1.327 . S
C1683 C1687 1.429 . S
C1684 C1667 1.574 . S
C1684 H1678 0.949 . S
C1684 C1688 1.368 . S
C1685 C1666 1.429 . S
C1685 C1679 1.429 . S
C1685 C1686 1.523 . S
C1686 C1667 1.368 . S
C1686 C1680 1.368 . S
C1686 C1685 1.523 . S
C1687 C1671 1.429 . S
C1687 C1683 1.429 . S
C1687 C1688 1.523 . S
C1688 C1672 1.368 . S
C1688 C1684 1.368 . S
C1688 C1687 1.523 . S
H1689 C1664 0.950 . S
H1690 C1666 0.950 . S
H1691 C1667 0.949 . S
H1692 C1669 0.950 . S
H1693 C1671 0.950 . S
C1694 C1695 1.349 . S
C1694 C1696 1.327 . S
C1694 H1719 0.950 . S
C1695 C1694 1.349 . S
C1695 C1711 1.349 . S
C1696 C1694 1.327 . S
C1696 C1715 1.429 . S
C1696 H1720 0.950 . S
C1697 C1714 1.574 . S
C1697 C1716 1.368 . S
C1697 H1721 0.949 . S
H1698 C1702 0.949 . S
C1699 C1700 1.349 . S
C1699 C1701 1.327 . S
C1699 H1722 0.950 . S
C1700 C1699 1.349 . S
C1700 C1712 1.349 . S
C1701 C1699 1.327 . S
C1701 C1717 1.429 . S
C1701 H1723 0.950 . S
C1702 H1698 0.949 . S
C1702 C1710 1.574 . S
C1702 C1718 1.368 . S
H1703 C1711 0.950 . S
H1704 C1709 0.950 . S
H1705 C1710 0.949 . S
H1706 C1712 0.950 . S
H1707 C1713 0.950 . S
H1708 C1714 0.949 . S
C1709 H1704 0.950 . S
C1709 C1711 1.327 . S
C1709 C1715 1.429 . S
C1710 C1702 1.574 . S
C1710 H1705 0.949 . S
C1710 C1716 1.368 . S
C1711 C1695 1.349 . S
C1711 H1703 0.950 . S
C1711 C1709 1.327 . S
C1712 C1700 1.349 . S
C1712 H1706 0.950 . S
C1712 C1713 1.327 . S
C1713 H1707 0.950 . S
C1713 C1712 1.327 . S
C1713 C1717 1.429 . S
C1714 C1697 1.574 . S
C1714 H1708 0.949 . S
C1714 C1718 1.368 . S
C1715 C1696 1.429 . S
C1715 C1709 1.429 . S
C1715 C1716 1.523 . S
C1716 C1697 1.368 . S
C1716 C1710 1.368 . S
C1716 C1715 1.523 . S
C1717 C1701 1.429 . S
C1717 C1713 1.429 . S
C1717 C1718 1.523 . S
C1718 C1702 1.368 . S
C1718 C1714 1.368 . S
C1718 C1717 1.523 . S
H1719 C1694 0.950 . S
H1720 C1696 0.950 . S
H1721 C1697 0.949 . S
H1722 C1699 0.950 . S
H1723 C1701 0.950 . S
C1724 C1725 1.349 . S
C1724 C1726 1.327 . S
C1724 H1749 0.950 . S
C1725 C1724 1.349 . S
C1725 C1741 1.349 . S
C1726 C1724 1.327 . S
C1726 C1745 1.429 . S
C1726 H1750 0.950 . S
C1727 C1744 1.574 . S
C1727 C1746 1.368 . S
C1727 H1751 0.949 . S
H1728 C1732 0.949 . S
C1729 C1730 1.349 . S
C1729 C1731 1.327 . S
C1729 H1752 0.950 . S
C1730 C1729 1.349 . S
C1730 C1742 1.349 . S
C1731 C1729 1.327 . S
C1731 C1747 1.429 . S
C1731 H1753 0.950 . S
C1732 H1728 0.949 . S
C1732 C1740 1.574 . S
C1732 C1748 1.368 . S
H1733 C1741 0.950 . S
H1734 C1739 0.950 . S
H1735 C1740 0.949 . S
H1736 C1742 0.950 . S
H1737 C1743 0.950 . S
H1738 C1744 0.949 . S
C1739 H1734 0.950 . S
C1739 C1741 1.327 . S
C1739 C1745 1.429 . S
C1740 C1732 1.574 . S
C1740 H1735 0.949 . S
C1740 C1746 1.368 . S
C1741 C1725 1.349 . S
C1741 H1733 0.950 . S
C1741 C1739 1.327 . S
C1742 C1730 1.349 . S
C1742 H1736 0.950 . S
C1742 C1743 1.327 . S
C1743 H1737 0.950 . S
C1743 C1742 1.327 . S
C1743 C1747 1.429 . S
C1744 C1727 1.574 . S
C1744 H1738 0.949 . S
C1744 C1748 1.368 . S
C1745 C1726 1.429 . S
C1745 C1739 1.429 . S
C1745 C1746 1.523 . S
C1746 C1727 1.368 . S
C1746 C1740 1.368 . S
C1746 C1745 1.523 . S
C1747 C1731 1.429 . S
C1747 C1743 1.429 . S
C1747 C1748 1.523 . S
C1748 C1732 1.368 . S
C1748 C1744 1.368 . S
C1748 C1747 1.523 . S
H1749 C1724 0.950 . S
H1750 C1726 0.950 . S
H1751 C1727 0.949 . S
H1752 C1729 0.950 . S
H1753 C1731 0.950 . S
C1754 C1755 1.349 . S
C1754 C1756 1.327 . S
C1754 H1779 0.950 . S
C1755 C1754 1.349 . S
C1755 C1771 1.349 . S
C1756 C1754 1.327 . S
C1756 C1775 1.429 . S
C1756 H1780 0.950 . S
C1757 C1774 1.549 1_455 S
C1757 C1776 1.368 . S
C1757 H1781 0.973 . S
H1758 C1762 0.949 . S
C1759 C1760 1.349 . S
C1759 C1761 1.327 1_556 S
C1759 H1782 0.950 . S
C1760 C1759 1.349 . S
C1760 C1772 1.349 . S
C1761 C1759 1.327 1_554 S
C1761 C1777 1.429 . S
C1761 H1783 0.950 . S
C1762 H1758 0.949 . S
C1762 C1770 1.574 . S
C1762 C1778 1.368 . S
H1763 C1771 0.950 . S
H1764 C1769 0.950 . S
H1765 C1770 0.949 . S
H1766 C1772 0.950 . S
H1767 C1773 0.950 . S
H1768 C1774 0.949 . S
C1769 H1764 0.950 . S
C1769 C1771 1.327 . S
C1769 C1775 1.429 . S
C1770 C1762 1.574 . S
C1770 H1765 0.949 . S
C1770 C1776 1.353 1_655 S
C1771 C1755 1.349 . S
C1771 H1763 0.950 . S
C1771 C1769 1.327 . S
C1772 C1760 1.349 . S
C1772 H1766 0.950 . S
C1772 C1773 1.327 1_556 S
C1773 H1767 0.950 . S
C1773 C1772 1.327 1_554 S
C1773 C1777 1.429 . S
C1774 C1757 1.549 1_655 S
C1774 H1768 0.949 . S
C1774 C1778 1.368 . S
C1775 C1756 1.429 . S
C1775 C1769 1.429 . S
C1775 C1776 1.543 . S
C1776 C1757 1.368 . S
C1776 C1770 1.353 1_455 S
C1776 C1775 1.543 . S
C1777 C1761 1.429 . S
C1777 C1773 1.429 . S
C1777 C1778 1.523 . S
C1778 C1762 1.368 . S
C1778 C1774 1.368 . S
C1778 C1777 1.523 . S
H1779 C1754 0.950 . S
H1780 C1756 0.950 . S
H1781 C1757 0.973 . S
H1782 C1759 0.950 . S
H1783 C1761 0.950 . S
C1784 C1785 1.349 . S
C1784 C1786 1.327 . S
C1784 H1809 0.950 . S
C1785 C1784 1.349 . S
C1785 C1801 1.349 . S
C1786 C1784 1.327 . S
C1786 C1805 1.429 . S
C1786 H1810 0.950 . S
C1787 C1804 1.574 . S
C1787 C1806 1.368 . S
C1787 H1811 0.949 . S
H1788 C1792 0.949 . S
C1789 C1790 1.349 . S
C1789 C1791 1.327 . S
C1789 H1812 0.950 . S
C1790 C1789 1.349 . S
C1790 C1802 1.349 . S
C1791 C1789 1.327 . S
C1791 C1807 1.429 . S
C1791 H1813 0.950 . S
C1792 H1788 0.949 . S
C1792 C1800 1.574 . S
C1792 C1808 1.368 . S
H1793 C1801 0.950 . S
H1794 C1799 0.950 . S
H1795 C1800 0.949 . S
H1796 C1802 0.950 . S
H1797 C1803 0.950 . S
H1798 C1804 0.949 . S
C1799 H1794 0.950 . S
C1799 C1801 1.327 . S
C1799 C1805 1.429 . S
C1800 C1792 1.574 . S
C1800 H1795 0.949 . S
C1800 C1806 1.368 . S
C1801 C1785 1.349 . S
C1801 H1793 0.950 . S
C1801 C1799 1.327 . S
C1802 C1790 1.349 . S
C1802 H1796 0.950 . S
C1802 C1803 1.327 . S
C1803 H1797 0.950 . S
C1803 C1802 1.327 . S
C1803 C1807 1.429 . S
C1804 C1787 1.574 . S
C1804 H1798 0.949 . S
C1804 C1808 1.368 . S
C1805 C1786 1.429 . S
C1805 C1799 1.429 . S
C1805 C1806 1.523 . S
C1806 C1787 1.368 . S
C1806 C1800 1.368 . S
C1806 C1805 1.523 . S
C1807 C1791 1.429 . S
C1807 C1803 1.429 . S
C1807 C1808 1.523 . S
C1808 C1792 1.368 . S
C1808 C1804 1.368 . S
C1808 C1807 1.523 . S
H1809 C1784 0.950 . S
H1810 C1786 0.950 . S
H1811 C1787 0.949 . S
H1812 C1789 0.950 . S
H1813 C1791 0.950 . S
C1814 C1815 1.349 . S
C1814 C1816 1.327 . S
C1814 H1839 0.950 . S
C1815 C1814 1.349 . S
C1815 C1831 1.349 . S
C1816 C1814 1.327 . S
C1816 C1835 1.429 . S
C1816 H1840 0.950 . S
C1817 C1834 1.574 . S
C1817 C1836 1.368 . S
C1817 H1841 0.949 . S
H1818 C1822 0.949 . S
C1819 C1820 1.349 . S
C1819 C1821 1.327 . S
C1819 H1842 0.950 . S
C1820 C1819 1.349 . S
C1820 C1832 1.349 . S
C1821 C1819 1.327 . S
C1821 C1837 1.429 . S
C1821 H1843 0.950 . S
C1822 H1818 0.949 . S
C1822 C1830 1.574 . S
C1822 C1838 1.368 . S
H1823 C1831 0.950 . S
H1824 C1829 0.950 . S
H1825 C1830 0.949 . S
H1826 C1832 0.950 . S
H1827 C1833 0.950 . S
H1828 C1834 0.949 . S
C1829 H1824 0.950 . S
C1829 C1831 1.327 . S
C1829 C1835 1.429 . S
C1830 C1822 1.574 . S
C1830 H1825 0.949 . S
C1830 C1836 1.368 1_455 S
C1831 C1815 1.349 . S
C1831 H1823 0.950 . S
C1831 C1829 1.327 . S
C1832 C1820 1.349 . S
C1832 H1826 0.950 . S
C1832 C1833 1.327 . S
C1833 H1827 0.950 . S
C1833 C1832 1.327 . S
C1833 C1837 1.429 . S
C1834 C1817 1.574 . S
C1834 H1828 0.949 . S
C1834 C1838 1.368 1_655 S
C1835 C1816 1.429 . S
C1835 C1829 1.429 . S
C1835 C1836 1.523 . S
C1836 C1817 1.368 . S
C1836 C1830 1.368 1_655 S
C1836 C1835 1.523 . S
C1837 C1821 1.429 . S
C1837 C1833 1.429 . S
C1837 C1838 1.523 . S
C1838 C1822 1.368 . S
C1838 C1834 1.368 1_455 S
C1838 C1837 1.523 . S
H1839 C1814 0.950 . S
H1840 C1816 0.950 . S
H1841 C1817 0.949 . S
H1842 C1819 0.950 . S
H1843 C1821 0.950 . S
C1844 C1845 1.349 . S
C1844 C1846 1.327 . S
C1844 H1869 0.950 . S
C1845 C1844 1.349 . S
C1845 C1861 1.349 . S
C1846 C1844 1.327 . S
C1846 C1865 1.429 . S
C1846 H1870 0.950 . S
C1847 C1864 1.574 . S
C1847 C1866 1.368 . S
C1847 H1871 0.949 . S
H1848 C1852 0.949 . S
C1849 C1850 1.349 . S
C1849 C1851 1.327 . S
C1849 H1872 0.950 . S
C1850 C1849 1.349 . S
C1850 C1862 1.349 . S
C1851 C1849 1.327 . S
C1851 C1867 1.429 . S
C1851 H1873 0.950 . S
C1852 H1848 0.949 . S
C1852 C1860 1.574 . S
C1852 C1868 1.368 . S
H1853 C1861 0.950 . S
H1854 C1859 0.950 . S
H1855 C1860 0.949 . S
H1856 C1862 0.950 . S
H1857 C1863 0.950 . S
H1858 C1864 0.949 . S
C1859 H1854 0.950 . S
C1859 C1861 1.327 . S
C1859 C1865 1.429 . S
C1860 C1852 1.574 . S
C1860 H1855 0.949 . S
C1860 C1866 1.368 . S
C1861 C1845 1.349 . S
C1861 H1853 0.950 . S
C1861 C1859 1.327 . S
C1862 C1850 1.349 . S
C1862 H1856 0.950 . S
C1862 C1863 1.327 . S
C1863 H1857 0.950 . S
C1863 C1862 1.327 . S
C1863 C1867 1.429 . S
C1864 C1847 1.574 . S
C1864 H1858 0.949 . S
C1864 C1868 1.368 . S
C1865 C1846 1.429 . S
C1865 C1859 1.429 . S
C1865 C1866 1.523 . S
C1866 C1847 1.368 . S
C1866 C1860 1.368 . S
C1866 C1865 1.523 . S
C1867 C1851 1.429 . S
C1867 C1863 1.429 . S
C1867 C1868 1.523 . S
C1868 C1852 1.368 . S
C1868 C1864 1.368 . S
C1868 C1867 1.523 . S
H1869 C1844 0.950 . S
H1870 C1846 0.950 . S
H1871 C1847 0.949 . S
H1872 C1849 0.950 . S
H1873 C1851 0.950 . S
C1874 C1875 1.349 . S
C1874 C1876 1.327 1_554 S
C1874 H1899 0.950 . S
C1875 C1874 1.349 . S
C1875 C1891 1.349 1_554 S
C1876 C1874 1.327 1_556 S
C1876 C1895 1.429 . S
C1876 H1900 0.950 . S
C1877 C1894 1.574 . S
C1877 C1896 1.368 . S
C1877 H1901 0.949 . S
H1878 C1882 0.949 . S
C1879 C1880 1.349 . S
C1879 C1881 1.327 . S
C1879 H1902 0.950 . S
C1880 C1879 1.349 . S
C1880 C1892 1.349 . S
C1881 C1879 1.327 . S
C1881 C1897 1.429 . S
C1881 H1903 0.950 . S
C1882 H1878 0.949 . S
C1882 C1890 1.574 . S
C1882 C1898 1.368 . S
H1883 C1891 0.950 . S
H1884 C1889 0.950 . S
H1885 C1890 0.949 . S
H1886 C1892 0.950 . S
H1887 C1893 0.950 . S
H1888 C1894 0.949 . S
C1889 H1884 0.950 . S
C1889 C1891 1.327 . S
C1889 C1895 1.429 . S
C1890 C1882 1.574 . S
C1890 H1885 0.949 . S
C1890 C1896 1.368 . S
C1891 C1875 1.349 1_556 S
C1891 H1883 0.950 . S
C1891 C1889 1.327 . S
C1892 C1880 1.349 . S
C1892 H1886 0.950 . S
C1892 C1893 1.327 . S
C1893 H1887 0.950 . S
C1893 C1892 1.327 . S
C1893 C1897 1.429 . S
C1894 C1877 1.574 . S
C1894 H1888 0.949 . S
C1894 C1898 1.368 . S
C1895 C1876 1.429 . S
C1895 C1889 1.429 . S
C1895 C1896 1.523 . S
C1896 C1877 1.368 . S
C1896 C1890 1.368 . S
C1896 C1895 1.523 . S
C1897 C1881 1.429 . S
C1897 C1893 1.429 . S
C1897 C1898 1.523 . S
C1898 C1882 1.368 . S
C1898 C1894 1.368 . S
C1898 C1897 1.523 . S
H1899 C1874 0.950 . S
H1900 C1876 0.950 . S
H1901 C1877 0.949 . S
H1902 C1879 0.950 . S
H1903 C1881 0.950 . S
C1904 C1905 1.349 . S
C1904 C1906 1.327 . S
C1904 H1929 0.950 . S
C1905 C1904 1.349 . S
C1905 C1921 1.349 . S
C1906 C1904 1.327 . S
C1906 C1925 1.429 . S
C1906 H1930 0.950 . S
C1907 C1924 1.574 . S
C1907 C1926 1.368 . S
C1907 H1931 0.949 . S
H1908 C1912 0.949 . S
C1909 C1910 1.349 . S
C1909 C1911 1.327 . S
C1909 H1932 0.950 . S
C1910 C1909 1.349 . S
C1910 C1922 1.349 . S
C1911 C1909 1.327 . S
C1911 C1927 1.429 . S
C1911 H1933 0.950 . S
C1912 H1908 0.949 . S
C1912 C1920 1.574 . S
C1912 C1928 1.368 . S
H1913 C1921 0.950 . S
H1914 C1919 0.950 . S
H1915 C1920 0.949 . S
H1916 C1922 0.950 . S
H1917 C1923 0.950 . S
H1918 C1924 0.949 . S
C1919 H1914 0.950 . S
C1919 C1921 1.327 . S
C1919 C1925 1.429 . S
C1920 C1912 1.574 . S
C1920 H1915 0.949 . S
C1920 C1926 1.368 . S
C1921 C1905 1.349 . S
C1921 H1913 0.950 . S
C1921 C1919 1.327 . S
C1922 C1910 1.349 . S
C1922 H1916 0.950 . S
C1922 C1923 1.327 . S
C1923 H1917 0.950 . S
C1923 C1922 1.327 . S
C1923 C1927 1.429 . S
C1924 C1907 1.574 . S
C1924 H1918 0.949 . S
C1924 C1928 1.368 . S
C1925 C1906 1.429 . S
C1925 C1919 1.429 . S
C1925 C1926 1.523 . S
C1926 C1907 1.368 . S
C1926 C1920 1.368 . S
C1926 C1925 1.523 . S
C1927 C1911 1.429 . S
C1927 C1923 1.429 . S
C1927 C1928 1.523 . S
C1928 C1912 1.368 . S
C1928 C1924 1.368 . S
C1928 C1927 1.523 . S
H1929 C1904 0.950 . S
H1930 C1906 0.950 . S
H1931 C1907 0.949 . S
H1932 C1909 0.950 . S
H1933 C1911 0.950 . S
C1934 C1935 1.349 . S
C1934 C1936 1.327 . S
C1934 H1959 0.950 . S
C1935 C1934 1.349 . S
C1935 C1951 1.349 . S
C1936 C1934 1.327 . S
C1936 C1955 1.429 . S
C1936 H1960 0.950 . S
C1937 C1954 1.574 . S
C1937 C1956 1.368 . S
C1937 H1961 0.949 . S
H1938 C1942 0.949 . S
C1939 C1940 1.349 . S
C1939 C1941 1.327 . S
C1939 H1962 0.950 . S
C1940 C1939 1.349 . S
C1940 C1952 1.349 . S
C1941 C1939 1.327 . S
C1941 C1957 1.429 . S
C1941 H1963 0.950 . S
C1942 H1938 0.949 . S
C1942 C1950 1.574 . S
C1942 C1958 1.368 . S
H1943 C1951 0.950 . S
H1944 C1949 0.950 . S
H1945 C1950 0.949 . S
H1946 C1952 0.950 . S
H1947 C1953 0.950 . S
H1948 C1954 0.949 . S
C1949 H1944 0.950 . S
C1949 C1951 1.327 . S
C1949 C1955 1.429 . S
C1950 C1942 1.574 . S
C1950 H1945 0.949 . S
C1950 C1956 1.368 . S
C1951 C1935 1.349 . S
C1951 H1943 0.950 . S
C1951 C1949 1.327 . S
C1952 C1940 1.349 . S
C1952 H1946 0.950 . S
C1952 C1953 1.327 . S
C1953 H1947 0.950 . S
C1953 C1952 1.327 . S
C1953 C1957 1.429 . S
C1954 C1937 1.574 . S
C1954 H1948 0.949 . S
C1954 C1958 1.368 . S
C1955 C1936 1.429 . S
C1955 C1949 1.429 . S
C1955 C1956 1.523 . S
C1956 C1937 1.368 . S
C1956 C1950 1.368 . S
C1956 C1955 1.523 . S
C1957 C1941 1.429 . S
C1957 C1953 1.429 . S
C1957 C1958 1.523 . S
C1958 C1942 1.368 . S
C1958 C1954 1.368 . S
C1958 C1957 1.523 . S
H1959 C1934 0.950 . S
H1960 C1936 0.950 . S
H1961 C1937 0.949 . S
H1962 C1939 0.950 . S
H1963 C1941 0.950 . S
C1964 C1965 1.349 . S
C1964 C1966 1.327 . S
C1964 H1989 0.950 . S
C1965 C1964 1.349 . S
C1965 C1981 1.349 . S
C1966 C1964 1.327 . S
C1966 C1985 1.429 . S
C1966 H1990 0.950 . S
C1967 C1984 1.574 . S
C1967 C1986 1.368 . S
C1967 H1991 0.949 . S
H1968 C1972 0.949 . S
C1969 C1970 1.349 . S
C1969 C1971 1.327 . S
C1969 H1992 0.950 . S
C1970 C1969 1.349 . S
C1970 C1982 1.349 . S
C1971 C1969 1.327 . S
C1971 C1987 1.429 . S
C1971 H1993 0.950 . S
C1972 H1968 0.949 . S
C1972 C1980 1.574 . S
C1972 C1988 1.368 . S
H1973 C1981 0.950 . S
H1974 C1979 0.950 . S
H1975 C1980 0.949 . S
H1976 C1982 0.950 . S
H1977 C1983 0.950 . S
H1978 C1984 0.949 . S
C1979 H1974 0.950 . S
C1979 C1981 1.327 . S
C1979 C1985 1.429 . S
C1980 C1972 1.574 . S
C1980 H1975 0.949 . S
C1980 C1986 1.368 . S
C1981 C1965 1.349 . S
C1981 H1973 0.950 . S
C1981 C1979 1.327 . S
C1982 C1970 1.349 . S
C1982 H1976 0.950 . S
C1982 C1983 1.327 . S
C1983 H1977 0.950 . S
C1983 C1982 1.327 . S
C1983 C1987 1.429 . S
C1984 C1967 1.574 . S
C1984 H1978 0.949 . S
C1984 C1988 1.368 . S
C1985 C1966 1.429 . S
C1985 C1979 1.429 . S
C1985 C1986 1.523 . S
C1986 C1967 1.368 . S
C1986 C1980 1.368 . S
C1986 C1985 1.523 . S
C1987 C1971 1.429 . S
C1987 C1983 1.429 . S
C1987 C1988 1.523 . S
C1988 C1972 1.368 . S
C1988 C1984 1.368 . S
C1988 C1987 1.523 . S
H1989 C1964 0.950 . S
H1990 C1966 0.950 . S
H1991 C1967 0.949 . S
H1992 C1969 0.950 . S
H1993 C1971 0.950 . S
C1994 C1995 1.349 1_556 S
C1994 C1996 1.327 . S
C1994 H2019 0.950 1_556 S
C1995 C1994 1.349 1_554 S
C1995 C2011 1.350 1_554 S
C1996 C1994 1.327 . S
C1996 C2015 1.429 . S
C1996 H2020 0.950 . S
C1997 C2014 1.574 . S
C1997 C2016 1.368 . S
C1997 H2021 0.949 . S
H1998 C2002 0.949 1_655 S
C1999 C2000 1.349 . S
C1999 C2001 1.327 . S
C1999 H2022 0.950 . S
C2000 C1999 1.349 . S
C2000 C2012 1.349 . S
C2001 C1999 1.327 . S
C2001 C2017 1.429 . S
C2001 H2023 0.919 1_655 S
C2002 H1998 0.949 1_455 S
C2002 C2010 1.574 . S
C2002 C2018 1.368 . S
H2003 C2011 0.950 . S
H2004 C2009 0.950 . S
H2005 C2010 0.949 . S
H2006 C2012 0.950 . S
H2007 C2013 0.950 . S
H2008 C2014 0.949 . S
C2009 H2004 0.950 . S
C2009 C2011 1.327 . S
C2009 C2015 1.429 . S
C2010 C2002 1.574 . S
C2010 H2005 0.949 . S
C2010 C2016 1.368 . S
C2011 C1995 1.350 1_556 S
C2011 H2003 0.950 . S
C2011 C2009 1.327 . S
C2012 C2000 1.349 . S
C2012 H2006 0.950 . S
C2012 C2013 1.327 . S
C2013 H2007 0.950 . S
C2013 C2012 1.327 . S
C2013 C2017 1.429 . S
C2014 C1997 1.574 . S
C2014 H2008 0.949 . S
C2014 C2018 1.368 . S
C2015 C1996 1.429 . S
C2015 C2009 1.429 . S
C2015 C2016 1.523 . S
C2016 C1997 1.368 . S
C2016 C2010 1.368 . S
C2016 C2015 1.523 . S
C2017 C2001 1.429 . S
C2017 C2013 1.429 . S
C2017 C2018 1.523 1_655 S
C2018 C2002 1.368 . S
C2018 C2014 1.368 . S
C2018 C2017 1.523 1_455 S
H2019 C1994 0.950 1_554 S
H2020 C1996 0.950 . S
H2021 C1997 0.949 . S
H2022 C1999 0.950 . S
H2023 C2001 0.919 1_455 S
C2024 C2025 1.349 . S
C2024 C2026 1.327 . S
C2024 H2049 0.950 . S
C2025 C2024 1.349 . S
C2025 C2041 1.349 . S
C2026 C2024 1.327 . S
C2026 C2045 1.429 . S
C2026 H2050 0.950 . S
C2027 C2044 1.574 . S
C2027 C2046 1.368 . S
C2027 H2051 0.949 . S
H2028 C2032 0.949 . S
C2029 C2030 1.349 . S
C2029 C2031 1.327 . S
C2029 H2052 0.950 . S
C2030 C2029 1.349 . S
C2030 C2042 1.349 . S
C2031 C2029 1.327 . S
C2031 C2047 1.429 . S
C2031 H2053 0.950 . S
C2032 H2028 0.949 . S
C2032 C2040 1.574 . S
C2032 C2048 1.368 . S
H2033 C2041 0.950 . S
H2034 C2039 0.950 . S
H2035 C2040 0.949 . S
H2036 C2042 0.950 . S
H2037 C2043 0.950 . S
H2038 C2044 0.949 . S
C2039 H2034 0.950 . S
C2039 C2041 1.327 . S
C2039 C2045 1.429 . S
C2040 C2032 1.574 . S
C2040 H2035 0.949 . S
C2040 C2046 1.368 . S
C2041 C2025 1.349 . S
C2041 H2033 0.950 . S
C2041 C2039 1.327 . S
C2042 C2030 1.349 . S
C2042 H2036 0.950 . S
C2042 C2043 1.327 . S
C2043 H2037 0.950 . S
C2043 C2042 1.327 . S
C2043 C2047 1.429 . S
C2044 C2027 1.574 . S
C2044 H2038 0.949 . S
C2044 C2048 1.368 . S
C2045 C2026 1.429 . S
C2045 C2039 1.429 . S
C2045 C2046 1.523 . S
C2046 C2027 1.368 . S
C2046 C2040 1.368 . S
C2046 C2045 1.523 . S
C2047 C2031 1.429 . S
C2047 C2043 1.429 . S
C2047 C2048 1.523 . S
C2048 C2032 1.368 . S
C2048 C2044 1.368 . S
C2048 C2047 1.523 . S
H2049 C2024 0.950 . S
H2050 C2026 0.950 . S
H2051 C2027 0.949 . S
H2052 C2029 0.950 . S
H2053 C2031 0.950 . S
C2054 C2055 1.349 . S
C2054 C2056 1.327 . S
C2054 H2079 0.950 . S
C2055 C2054 1.349 . S
C2055 C2071 1.349 . S
C2056 C2054 1.327 . S
C2056 C2075 1.429 . S
C2056 H2080 0.950 . S
C2057 C2074 1.574 1_655 S
C2057 C2076 1.368 . S
C2057 H2081 0.949 . S
H2058 C2062 0.949 . S
C2059 C2060 1.349 . S
C2059 C2061 1.327 . S
C2059 H2082 0.950 . S
C2060 C2059 1.349 . S
C2060 C2072 1.349 . S
C2061 C2059 1.327 . S
C2061 C2077 1.429 . S
C2061 H2083 0.950 . S
C2062 H2058 0.949 . S
C2062 C2070 1.574 . S
C2062 C2078 1.368 . S
H2063 C2071 0.950 . S
H2064 C2069 0.950 . S
H2065 C2070 0.949 . S
H2066 C2072 0.950 . S
H2067 C2073 0.950 . S
H2068 C2074 0.949 . S
C2069 H2064 0.950 . S
C2069 C2071 1.327 . S
C2069 C2075 1.429 . S
C2070 C2062 1.574 . S
C2070 H2065 0.949 . S
C2070 C2076 1.368 1_455 S
C2071 C2055 1.349 . S
C2071 H2063 0.950 . S
C2071 C2069 1.327 . S
C2072 C2060 1.349 . S
C2072 H2066 0.950 . S
C2072 C2073 1.327 . S
C2073 H2067 0.950 . S
C2073 C2072 1.327 . S
C2073 C2077 1.429 . S
C2074 C2057 1.574 1_455 S
C2074 H2068 0.949 . S
C2074 C2078 1.368 . S
C2075 C2056 1.429 . S
C2075 C2069 1.429 . S
C2075 C2076 1.523 . S
C2076 C2057 1.368 . S
C2076 C2070 1.368 1_655 S
C2076 C2075 1.523 . S
C2077 C2061 1.429 . S
C2077 C2073 1.429 . S
C2077 C2078 1.523 . S
C2078 C2062 1.368 . S
C2078 C2074 1.368 . S
C2078 C2077 1.523 . S
H2079 C2054 0.950 . S
H2080 C2056 0.950 . S
H2081 C2057 0.949 . S
H2082 C2059 0.950 . S
H2083 C2061 0.950 . S
C2084 C2085 1.349 . S
C2084 C2086 1.327 . S
C2084 H2109 0.950 . S
C2085 C2084 1.349 . S
C2085 C2101 1.349 . S
C2086 C2084 1.327 . S
C2086 C2105 1.429 . S
C2086 H2110 0.950 . S
C2087 C2104 1.574 . S
C2087 C2106 1.368 . S
C2087 H2111 0.949 . S
H2088 C2092 0.949 . S
C2089 C2090 1.349 . S
C2089 C2091 1.327 . S
C2089 H2112 0.950 . S
C2090 C2089 1.349 . S
C2090 C2102 1.349 . S
C2091 C2089 1.327 . S
C2091 C2107 1.429 . S
C2091 H2113 0.950 . S
C2092 H2088 0.949 . S
C2092 C2100 1.574 . S
C2092 C2108 1.368 . S
H2093 C2101 0.950 . S
H2094 C2099 0.950 . S
H2095 C2100 0.949 . S
H2096 C2102 0.950 . S
H2097 C2103 0.950 . S
H2098 C2104 0.949 . S
C2099 H2094 0.950 . S
C2099 C2101 1.327 . S
C2099 C2105 1.429 . S
C2100 C2092 1.574 . S
C2100 H2095 0.949 . S
C2100 C2106 1.368 . S
C2101 C2085 1.349 . S
C2101 H2093 0.950 . S
C2101 C2099 1.327 . S
C2102 C2090 1.349 . S
C2102 H2096 0.950 . S
C2102 C2103 1.327 . S
C2103 H2097 0.950 . S
C2103 C2102 1.327 . S
C2103 C2107 1.429 . S
C2104 C2087 1.574 . S
C2104 H2098 0.949 . S
C2104 C2108 1.368 . S
C2105 C2086 1.429 . S
C2105 C2099 1.429 . S
C2105 C2106 1.523 . S
C2106 C2087 1.368 . S
C2106 C2100 1.368 . S
C2106 C2105 1.523 . S
C2107 C2091 1.429 . S
C2107 C2103 1.429 . S
C2107 C2108 1.523 . S
C2108 C2092 1.368 . S
C2108 C2104 1.368 . S
C2108 C2107 1.523 . S
H2109 C2084 0.950 . S
H2110 C2086 0.950 . S
H2111 C2087 0.949 . S
H2112 C2089 0.950 . S
H2113 C2091 0.950 . S
C2114 C2115 1.349 . S
C2114 C2116 1.327 1_556 S
C2114 H2139 0.950 . S
C2115 C2114 1.349 . S
C2115 C2131 1.349 1_556 S
C2116 C2114 1.327 1_554 S
C2116 C2135 1.429 . S
C2116 H2140 0.950 . S
C2117 C2134 1.574 . S
C2117 C2136 1.368 . S
C2117 H2141 0.949 . S
H2118 C2122 0.949 . S
C2119 C2120 1.349 . S
C2119 C2121 1.327 . S
C2119 H2142 0.950 . S
C2120 C2119 1.349 . S
C2120 C2132 1.349 . S
C2121 C2119 1.327 . S
C2121 C2137 1.429 . S
C2121 H2143 0.950 . S
C2122 H2118 0.949 . S
C2122 C2130 1.574 . S
C2122 C2138 1.368 . S
H2123 C2131 0.950 . S
H2124 C2129 0.950 . S
H2125 C2130 0.949 . S
H2126 C2132 0.950 . S
H2127 C2133 0.950 . S
H2128 C2134 0.949 . S
C2129 H2124 0.950 . S
C2129 C2131 1.327 . S
C2129 C2135 1.429 . S
C2130 C2122 1.574 . S
C2130 H2125 0.949 . S
C2130 C2136 1.368 . S
C2131 C2115 1.349 1_554 S
C2131 H2123 0.950 . S
C2131 C2129 1.327 . S
C2132 C2120 1.349 . S
C2132 H2126 0.950 . S
C2132 C2133 1.327 . S
C2133 H2127 0.950 . S
C2133 C2132 1.327 . S
C2133 C2137 1.429 . S
C2134 C2117 1.574 . S
C2134 H2128 0.949 . S
C2134 C2138 1.368 . S
C2135 C2116 1.429 . S
C2135 C2129 1.429 . S
C2135 C2136 1.523 . S
C2136 C2117 1.368 . S
C2136 C2130 1.368 . S
C2136 C2135 1.523 . S
C2137 C2121 1.429 . S
C2137 C2133 1.429 . S
C2137 C2138 1.523 . S
C2138 C2122 1.368 . S
C2138 C2134 1.368 . S
C2138 C2137 1.523 . S
H2139 C2114 0.950 . S
H2140 C2116 0.950 . S
H2141 C2117 0.949 . S
H2142 C2119 0.950 . S
H2143 C2121 0.950 . S
C465 C224 0.663 . S
C470 C21 0.768 . S
C495 C137 0.612 . S
C500 C50 0.651 . S
C525 C166 0.731 . S
C530 C79 0.753 . S
C555 C195 0.765 . S
C560 C108 0.730 . S
C585 C253 0.668 . S
C590 C456 0.688 . S
C615 C282 0.607 . S
C620 C369 0.585 . S
C645 C398 0.766 . S
C650 C311 0.774 . S
C675 C427 0.655 . S
C680 C340 0.683 . S
C705 C187 2.341 . S
C710 C15 2.283 . S
C735 C44 2.740 . S
C740 C218 2.728 . S
C765 C131 2.367 . S
C770 C71 2.438 . S
C795 C158 2.385 . S
C800 C100 2.367 . S
C825 C247 2.519 . S
C830 C421 2.499 . S
C855 C450 2.660 . S
C860 C276 2.666 . S
C885 C303 2.399 . S
C890 C361 2.376 . S
C915 C334 2.329 . S
C920 C390 2.393 . S
C945 C42 2.657 . S
C950 C160 2.590 . S
C975 C189 2.427 . S
C980 C73 2.443 . S
C1005 C102 2.080 . S
C1010 C216 2.148 . S
C1035 C129 2.698 . S
C1040 C13 2.716 . S
C1065 C392 2.410 . S
C1070 C274 2.479 . S
C1095 C305 2.620 . S
C1100 C419 2.675 . S
C1125 C448 2.415 . S
C1130 C332 2.393 . S
C1155 C245 2.402 . S
C1160 C363 2.346 . S
C1185 C271 1.547 . S
C1190 C8 1.504 . S
C1215 C440 1.746 1_554 S
C1220 C37 1.627 . S
C1245 C61 2.162 . S
C1250 C329 2.029 . S
C1275 C387 1.347 . S
C1280 C90 1.449 . S
C1305 C445 1.528 . S
C1310 C124 1.484 . S
C1335 C324 1.869 . S
C1340 C148 1.893 . S
C1365 C177 2.171 . S
C1370 C382 2.146 . S
C1395 C211 1.257 . S
C1400 C266 1.336 . S
C1425 C39 1.484 . S
C1430 C240 1.459 . S
C1455 C269 1.931 . S
C1460 C208 2.062 1_556 S
C1485 C92 2.056 . S
C1490 C293 2.076 . S
C1515 C327 1.361 . S
C1520 C155 1.393 . S
C1545 C213 1.198 . S
C1550 C351 1.280 . S
C1575 C97 1.998 . S
C1580 C380 2.134 . S
C1605 C414 1.821 1_556 S
C1610 C150 1.989 . S
C1635 C34 1.630 . S
C1640 C443 1.526 . S
C1665 C411 1.362 . S
C1670 C153 1.259 . S
C1695 C295 1.879 . S
C1700 C182 1.760 . S
C1725 C206 2.332 . S
C1730 C358 2.210 . S
C1755 C119 1.678 . S
C1760 C242 1.562 . S
C1785 C300 1.302 . S
C1790 C95 1.260 . S
C1815 C353 1.675 . S
C1820 C3 1.702 . S
C1845 C237 2.017 . S
C1850 C32 2.042 . S
C1875 C416 1.505 . S
C1880 C66 1.515 . S
C1905 C184 1.247 . S
C1910 C385 1.228 . S
C1935 C63 1.914 . S
C1940 C409 1.947 . S
C1965 C121 1.909 . S
C1970 C438 1.929 . S
C1995 C10 1.675 . S
C2000 C356 1.637 . S
C2025 C68 1.444 . S
C2030 C322 1.544 1_556 S
C2055 C235 1.976 . S
C2060 C126 1.841 . S
C2085 C5 1.852 . S
C2090 C264 1.875 . S
C2115 C179 1.395 . S
C2120 C298 1.305 . S
