# Generated by pormake.
# Topology ukf, (4)-cn, num edge types: 1
# Building blocks:
#     Node 0, Type 0, BuildingBlock: NAHDIM_clean_sbu_0, # of connection points: 4
#     Node 1, Type 0, BuildingBlock: NAHDIM_clean_sbu_0, # of connection points: 4
#     Node 2, Type 0, BuildingBlock: NAHDIM_clean_sbu_0, # of connection points: 4
#     Node 3, Type 0, BuildingBlock: NAHDIM_clean_sbu_0, # of connection points: 4
#     Node 4, Type 0, BuildingBlock: NAHDIM_clean_sbu_0, # of connection points: 4
#     Node 5, Type 0, BuildingBlock: NAHDIM_clean_sbu_0, # of connection points: 4
#     Node 6, Type 0, BuildingBlock: NAHDIM_clean_sbu_0, # of connection points: 4
#     Node 7, Type 0, BuildingBlock: NAHDIM_clean_sbu_0, # of connection points: 4
#     Node 8, Type 0, BuildingBlock: NAHDIM_clean_sbu_0, # of connection points: 4
#     Node 9, Type 0, BuildingBlock: NAHDIM_clean_sbu_0, # of connection points: 4
#     Node 10, Type 0, BuildingBlock: NAHDIM_clean_sbu_0, # of connection points: 4
#     Node 11, Type 0, BuildingBlock: NAHDIM_clean_sbu_0, # of connection points: 4
#     Edge 12, Type (0, 0), BuildingBlock: TEMPAE_clean_linker_10, # of connection points: 2
#     Edge 13, Type (0, 0), BuildingBlock: TEMPAE_clean_linker_10, # of connection points: 2
#     Edge 14, Type (0, 0), BuildingBlock: TEMPAE_clean_linker_10, # of connection points: 2
#     Edge 15, Type (0, 0), BuildingBlock: TEMPAE_clean_linker_10, # of connection points: 2
#     Edge 16, Type (0, 0), BuildingBlock: TEMPAE_clean_linker_10, # of connection points: 2
#     Edge 17, Type (0, 0), BuildingBlock: TEMPAE_clean_linker_10, # of connection points: 2
#     Edge 18, Type (0, 0), BuildingBlock: TEMPAE_clean_linker_10, # of connection points: 2
#     Edge 19, Type (0, 0), BuildingBlock: TEMPAE_clean_linker_10, # of connection points: 2
#     Edge 20, Type (0, 0), BuildingBlock: TEMPAE_clean_linker_10, # of connection points: 2
#     Edge 21, Type (0, 0), BuildingBlock: TEMPAE_clean_linker_10, # of connection points: 2
#     Edge 22, Type (0, 0), BuildingBlock: TEMPAE_clean_linker_10, # of connection points: 2
#     Edge 23, Type (0, 0), BuildingBlock: TEMPAE_clean_linker_10, # of connection points: 2
#     Edge 24, Type (0, 0), BuildingBlock: TEMPAE_clean_linker_10, # of connection points: 2
#     Edge 25, Type (0, 0), BuildingBlock: TEMPAE_clean_linker_10, # of connection points: 2
#     Edge 26, Type (0, 0), BuildingBlock: TEMPAE_clean_linker_10, # of connection points: 2
#     Edge 27, Type (0, 0), BuildingBlock: TEMPAE_clean_linker_10, # of connection points: 2
#     Edge 28, Type (0, 0), BuildingBlock: TEMPAE_clean_linker_10, # of connection points: 2
#     Edge 29, Type (0, 0), BuildingBlock: TEMPAE_clean_linker_10, # of connection points: 2
#     Edge 30, Type (0, 0), BuildingBlock: TEMPAE_clean_linker_10, # of connection points: 2
#     Edge 31, Type (0, 0), BuildingBlock: TEMPAE_clean_linker_10, # of connection points: 2
#     Edge 32, Type (0, 0), BuildingBlock: TEMPAE_clean_linker_10, # of connection points: 2
#     Edge 33, Type (0, 0), BuildingBlock: TEMPAE_clean_linker_10, # of connection points: 2
#     Edge 34, Type (0, 0), BuildingBlock: TEMPAE_clean_linker_10, # of connection points: 2
#     Edge 35, Type (0, 0), BuildingBlock: TEMPAE_clean_linker_10, # of connection points: 2
# Relax obj value: 0.169
# Max RMSD: 0.176
# Mean RMSD: 0.169
data_MOF--net-ukf--node1-NAHDIM_clean_sbu_0--edge1-TEMPAE_clean_linker_10
_symmetry_space_group_name_H-M    P1
_symmetry_Int_Tables_number       1
_symmetry_cell_setting            triclinic
loop_
_symmetry_equiv_pos_as_xyz
'x, y, z'
_cell_length_a     33.260063
_cell_length_b     32.763401
_cell_length_c     62.100536
_cell_angle_alpha  89.979531
_cell_angle_beta   90.00716
_cell_angle_gamma 120.47489
loop_
_atom_site_label
_atom_site_type_symbol
_atom_site_fract_x
_atom_site_fract_y
_atom_site_fract_z
_atom_type_partial_charge
C0 C 0.42945 0.31914 0.02623 0.0
O1 O 0.441 0.30049 0.0104 0.0
O2 O 0.46101 0.23479 0.03141 0.0
Zn3 Zn 0.40634 0.23158 0.04675 0.0
O4 O 0.41061 0.22063 0.07842 0.0
C5 C 0.35179 0.13909 0.03362 0.0
O6 O 0.39009 0.14161 0.04089 0.0
O7 O 0.4104 0.29447 0.04298 0.0
C8 C 0.37534 0.19048 0.08911 0.0
O9 O 0.33485 0.16605 0.07939 0.0
C10 C 0.50321 0.264 0.03618 0.0
O11 O 0.5125 0.29352 0.05227 0.0
O12 O 0.34849 0.17608 0.03425 0.0
C13 C 0.11559 0.4492 0.38068 0.0
O14 O 0.14886 0.46797 0.39519 0.0
O15 O 0.22484 0.45819 0.36088 0.0
Zn16 Zn 0.16523 0.40302 0.37237 0.0
O17 O 0.17165 0.39475 0.40396 0.0
C18 C 0.17041 0.34587 0.33884 0.0
O19 O 0.19227 0.38701 0.32897 0.0
O20 O 0.11383 0.41765 0.36815 0.0
C21 C 0.20517 0.39081 0.4113 0.0
O22 O 0.23634 0.39209 0.39788 0.0
C23 C 0.25317 0.49365 0.37213 0.0
O24 O 0.24459 0.49493 0.39268 0.0
O25 O 0.15302 0.34338 0.35734 0.0
C26 C 0.85264 0.14224 0.69139 0.0
O27 O 0.84759 0.13573 0.71231 0.0
O28 O 0.78906 0.16547 0.72859 0.0
Zn29 Zn 0.77719 0.16074 0.69653 0.0
O30 O 0.78602 0.22279 0.68615 0.0
C31 C 0.68766 0.06948 0.69404 0.0
O32 O 0.70924 0.04921 0.70267 0.0
O33 O 0.82391 0.14953 0.681 0.0
C34 C 0.76956 0.24387 0.69699 0.0
O35 O 0.74892 0.2257 0.71546 0.0
C36 C 0.75715 0.14681 0.74275 0.0
O37 O 0.71331 0.12284 0.73667 0.0
O38 O 0.7105 0.11345 0.68985 0.0
C39 C 0.57896 0.67058 0.04663 0.0
O40 O 0.61432 0.69043 0.06005 0.0
O41 O 0.52974 0.77271 0.03945 0.0
Zn42 Zn 0.57831 0.759 0.05067 0.0
O43 O 0.57984 0.76102 0.08309 0.0
C44 C 0.65053 0.8513 0.04548 0.0
O45 O 0.62491 0.85475 0.06068 0.0
O46 O 0.56025 0.69392 0.04025 0.0
C47 C 0.61711 0.77328 0.09356 0.0
O48 O 0.6555 0.7842 0.08299 0.0
C49 C 0.50121 0.77866 0.05068 0.0
O50 O 0.50171 0.77534 0.07175 0.0
O51 O 0.639 0.81038 0.03842 0.0
C52 C 0.8749 0.5489 0.38293 0.0
O53 O 0.8373 0.52299 0.39452 0.0
O54 O 0.76891 0.53694 0.36592 0.0
Zn55 Zn 0.8248 0.59469 0.37842 0.0
O56 O 0.81654 0.59764 0.41033 0.0
C57 C 0.79651 0.65029 0.35502 0.0
O58 O 0.75784 0.60892 0.3548 0.0
O59 O 0.87962 0.58571 0.37367 0.0
C60 C 0.78725 0.6072 0.4185 0.0
O61 O 0.76143 0.61649 0.40571 0.0
C62 C 0.73742 0.50314 0.37693 0.0
O63 O 0.7404 0.50451 0.39804 0.0
O64 O 0.83235 0.65396 0.36425 0.0
C65 C 0.16921 0.86565 0.70318 0.0
O66 O 0.17535 0.87147 0.72409 0.0
O67 O 0.23524 0.83836 0.7378 0.0
Zn68 Zn 0.24537 0.8469 0.70579 0.0
O69 O 0.23721 0.78686 0.69319 0.0
C70 C 0.3414 0.91803 0.71354 0.0
O71 O 0.32768 0.91208 0.73371 0.0
O72 O 0.1972 0.85852 0.69208 0.0
C73 C 0.26545 0.77336 0.69862 0.0
O74 O 0.29773 0.798 0.71304 0.0
C75 C 0.20139 0.80056 0.74549 0.0
O76 O 0.17305 0.76694 0.73223 0.0
O77 O 0.31142 0.89657 0.69881 0.0
C78 C 0.68364 0.61075 0.62484 0.0
O79 O 0.70055 0.63736 0.60759 0.0
O80 O 0.77648 0.55419 0.63301 0.0
Zn81 Zn 0.7706 0.61008 0.62408 0.0
O82 O 0.77403 0.61622 0.5918 0.0
C83 C 0.86324 0.66878 0.6347 0.0
O84 O 0.86325 0.63413 0.62405 0.0
O85 O 0.70863 0.5979 0.63487 0.0
C86 C 0.74544 0.58271 0.57971 0.0
O87 O 0.71266 0.54334 0.58852 0.0
C88 C 0.74142 0.51299 0.63576 0.0
O89 O 0.69934 0.50562 0.63212 0.0
O90 O 0.82499 0.6682 0.63699 0.0
C91 C 0.06881 0.66844 0.94964 0.0
O92 O 0.06079 0.68517 0.93195 0.0
O93 O 0.21597 0.76354 0.96425 0.0
Zn94 Zn 0.15851 0.75687 0.95025 0.0
O95 O 0.16573 0.75778 0.91807 0.0
C96 C 0.14283 0.81685 0.97891 0.0
O97 O 0.1321 0.78247 0.99275 0.0
O98 O 0.10624 0.69395 0.96004 0.0
C99 C 0.14647 0.77419 0.90595 0.0
O100 O 0.12112 0.79016 0.91469 0.0
C101 C 0.24967 0.80218 0.97138 0.0
O102 O 0.24903 0.84165 0.96881 0.0
O103 O 0.15186 0.81167 0.95959 0.0
C104 C 0.28578 0.13329 0.2972 0.0
O105 O 0.28107 0.11738 0.2774 0.0
O106 O 0.37535 0.15305 0.26117 0.0
Zn107 Zn 0.3799 0.14987 0.29336 0.0
O108 O 0.43403 0.21157 0.30337 0.0
C109 C 0.38108 0.06063 0.29289 0.0
O110 O 0.3498 0.04698 0.27748 0.0
O111 O 0.32318 0.14477 0.3074 0.0
C112 C 0.47503 0.21794 0.30363 0.0
O113 O 0.48195 0.18431 0.29642 0.0
C114 C 0.40066 0.14602 0.24813 0.0
O115 O 0.43094 0.13513 0.25567 0.0
O116 O 0.39447 0.0999 0.30225 0.0
C117 C 0.33588 0.44417 0.63959 0.0
O118 O 0.31403 0.45738 0.65297 0.0
O119 O 0.24604 0.46315 0.6281 0.0
Zn120 Zn 0.25109 0.40942 0.61553 0.0
O121 O 0.24652 0.41102 0.58338 0.0
C122 C 0.15885 0.34831 0.62517 0.0
O123 O 0.15905 0.38464 0.61608 0.0
O124 O 0.31431 0.41973 0.62314 0.0
C125 C 0.23433 0.37408 0.57221 0.0
O126 O 0.22437 0.33447 0.582 0.0
C127 C 0.27091 0.50547 0.62149 0.0
O128 O 0.30036 0.51456 0.6056 0.0
O129 O 0.19713 0.34873 0.62691 0.0
C130 C 0.88177 0.31595 0.96709 0.0
O131 O 0.84847 0.29368 0.98137 0.0
O132 O 0.77051 0.22888 0.95624 0.0
Zn133 Zn 0.82676 0.22991 0.94391 0.0
O134 O 0.8186 0.22109 0.91186 0.0
C135 C 0.79236 0.13631 0.95396 0.0
O136 O 0.76066 0.13587 0.94116 0.0
O137 O 0.88202 0.29399 0.95026 0.0
C138 C 0.83285 0.19787 0.90112 0.0
O139 O 0.85446 0.17914 0.91112 0.0
C140 C 0.75941 0.25953 0.95136 0.0
O141 O 0.78425 0.29206 0.93694 0.0
O142 O 0.82919 0.17568 0.9577 0.0
C143 C 0.71066 0.87458 0.29961 0.0
O144 O 0.71419 0.88539 0.27906 0.0
O145 O 0.62016 0.84775 0.26254 0.0
Zn146 Zn 0.61502 0.85321 0.29454 0.0
O147 O 0.56296 0.79094 0.30529 0.0
C148 C 0.59431 0.92783 0.28742 0.0
O149 O 0.61178 0.92965 0.26823 0.0
O150 O 0.67322 0.86414 0.30955 0.0
C151 C 0.52095 0.7799 0.30192 0.0
O152 O 0.51259 0.80901 0.29088 0.0
C153 C 0.61716 0.81044 0.25476 0.0
O154 O 0.61157 0.77652 0.26792 0.0
O155 O 0.5959 0.90079 0.30163 0.0
C156 C 0.17585 0.90317 0.97216 0.0
C157 C 0.15629 0.8649 0.9866 0.0
C158 C 0.20016 0.94995 0.97965 0.0
C159 C 0.20452 0.95858 0.00209 0.0
C160 C 0.1802 0.92041 0.01661 0.0
C161 C 0.15641 0.87387 0.00868 0.0
C162 C 0.22538 0.98961 0.96359 0.0
C163 C 0.18319 0.92824 0.04064 0.0
C164 C 0.32225 0.05675 0.02104 0.0
C165 C 0.31357 0.09358 0.0253 0.0
C166 C 0.28695 0.01286 0.01348 0.0
C167 C 0.24152 0.0053 0.01028 0.0
C168 C 0.23231 0.04222 0.01458 0.0
C169 C 0.26863 0.08619 0.02195 0.0
C170 C 0.29846 0.97458 0.00886 0.0
C171 C 0.18415 0.03513 0.01154 0.0
H172 H 0.17527 0.89664 0.95502 0.0
H173 H 0.14073 0.84456 0.01994 0.0
H174 H 0.22236 0.02074 0.96799 0.0
H175 H 0.26302 0.00106 0.96363 0.0
H176 H 0.21178 0.97838 0.94699 0.0
H177 H 0.15538 0.89697 0.04933 0.0
H178 H 0.21751 0.93483 0.0465 0.0
H179 H 0.18053 0.95973 0.04476 0.0
H180 H 0.35694 0.06226 0.02348 0.0
H181 H 0.26172 0.11451 0.02535 0.0
H182 H 0.29063 0.9633 0.99179 0.0
H183 H 0.27655 0.94304 0.019 0.0
H184 H 0.33569 0.98645 0.012 0.0
H185 H 0.17269 0.02513 0.99462 0.0
H186 H 0.18276 0.06742 0.01556 0.0
H187 H 0.15881 0.00557 0.02186 0.0
C188 C 0.14716 0.26015 0.3396 0.0
C189 C 0.17377 0.30541 0.3305 0.0
C190 C 0.15538 0.22343 0.33405 0.0
C191 C 0.19177 0.23268 0.31949 0.0
C192 C 0.21696 0.27756 0.3094 0.0
C193 C 0.20728 0.31318 0.31485 0.0
C194 C 0.12681 0.17563 0.34463 0.0
C195 C 0.25636 0.28907 0.2939 0.0
C196 C 0.26536 0.17554 0.32458 0.0
C197 C 0.25402 0.14894 0.30553 0.0
C198 C 0.24288 0.20044 0.33014 0.0
C199 C 0.20759 0.19798 0.31652 0.0
C200 C 0.19266 0.16735 0.29848 0.0
C201 C 0.2163 0.14337 0.2931 0.0
C202 C 0.25989 0.23265 0.34955 0.0
C203 C 0.1541 0.16259 0.28399 0.0
H204 H 0.12084 0.25377 0.35155 0.0
H205 H 0.22795 0.34801 0.30772 0.0
H206 H 0.11708 0.14673 0.3328 0.0
H207 H 0.14779 0.17156 0.35743 0.0
H208 H 0.09452 0.17136 0.35208 0.0
H209 H 0.27074 0.32471 0.28655 0.0
H210 H 0.28497 0.28784 0.30252 0.0
H211 H 0.24427 0.2624 0.28082 0.0
H212 H 0.29403 0.1796 0.33447 0.0
H213 H 0.20682 0.12234 0.27851 0.0
H214 H 0.23009 0.22695 0.35973 0.0
H215 H 0.27816 0.27012 0.34414 0.0
H216 H 0.28434 0.22706 0.35959 0.0
H217 H 0.12489 0.1603 0.29359 0.0
H218 H 0.14043 0.13088 0.27346 0.0
H219 H 0.16764 0.19438 0.27356 0.0
C220 C 0.93769 0.17117 0.69373 0.0
C221 C 0.89733 0.154 0.68111 0.0
C222 C 0.98208 0.19492 0.68425 0.0
C223 C 0.98597 0.20053 0.66161 0.0
C224 C 0.9453 0.17806 0.64869 0.0
C225 C 0.90133 0.15553 0.65862 0.0
C226 C 0.02443 0.21868 0.69867 0.0
C227 C 0.94801 0.18184 0.62445 0.0
C228 C 0.08052 0.31943 0.64087 0.0
C229 C 0.11515 0.30975 0.6344 0.0
C230 C 0.03868 0.28416 0.64989 0.0
C231 C 0.03066 0.23756 0.652 0.0
C232 C 0.06524 0.22727 0.64525 0.0
C233 C 0.10754 0.2638 0.63676 0.0
C234 C 0.00319 0.29701 0.6573 0.0
C235 C 0.05729 0.17774 0.64674 0.0
H236 H 0.93488 0.16989 0.71114 0.0
H237 H 0.87018 0.14159 0.64878 0.0
H238 H 0.05331 0.21476 0.69215 0.0
H239 H 0.03693 0.25715 0.6995 0.0
H240 H 0.01647 0.20414 0.71529 0.0
H241 H 0.91507 0.15456 0.61676 0.0
H242 H 0.9545 0.21725 0.61954 0.0
H243 H 0.97726 0.17809 0.61825 0.0
H244 H 0.08648 0.35504 0.63924 0.0
H245 H 0.13424 0.25625 0.63159 0.0
H246 H 0.9948 0.28779 0.67456 0.0
H247 H 0.97035 0.27647 0.64806 0.0
H248 H 0.0157 0.33531 0.65524 0.0
H249 H 0.05011 0.16514 0.66365 0.0
H250 H 0.08771 0.17562 0.64083 0.0
H251 H 0.02617 0.15317 0.63712 0.0
C252 C 0.69246 0.93865 0.04023 0.0
C253 C 0.68625 0.89451 0.03433 0.0
C254 C 0.71855 0.97872 0.02736 0.0
C255 C 0.73959 0.97471 0.00829 0.0
C256 C 0.73737 0.93141 0.00338 0.0
C257 C 0.71035 0.89158 0.0164 0.0
C258 C 0.71996 0.0242 0.03319 0.0
C259 C 0.76058 0.9262 0.98355 0.0
C260 C 0.73785 0.05222 0.96377 0.0
C261 C 0.78214 0.09278 0.9657 0.0
C262 C 0.72453 0.0126 0.97684 0.0
C263 C 0.75658 0.01315 0.99201 0.0
C264 C 0.80249 0.05261 0.99299 0.0
C265 C 0.81467 0.09229 0.97993 0.0
C266 C 0.67509 0.97134 0.97532 0.0
C267 C 0.83798 0.05393 0.00855 0.0
H268 H 0.67454 0.94145 0.05423 0.0
H269 H 0.70631 0.85773 0.01192 0.0
H270 H 0.75614 0.05465 0.03229 0.0
H271 H 0.69866 0.03082 0.02149 0.0
H272 H 0.70616 0.02294 0.04962 0.0
H273 H 0.76392 0.89418 0.9844 0.0
H274 H 0.73945 0.92308 0.96915 0.0
H275 H 0.79573 0.9578 0.98128 0.0
H276 H 0.71259 0.05209 0.9527 0.0
H277 H 0.84915 0.12334 0.98133 0.0
H278 H 0.65633 0.96813 0.99058 0.0
H279 H 0.67508 0.93779 0.973 0.0
H280 H 0.65536 0.97539 0.96186 0.0
H281 H 0.82989 0.06062 0.02505 0.0
H282 H 0.87397 0.08232 0.00443 0.0
H283 H 0.83673 0.01944 0.00881 0.0
C284 C 0.77379 0.85472 0.29655 0.0
C285 C 0.74317 0.86162 0.30951 0.0
C286 C 0.79433 0.82926 0.3043 0.0
C287 C 0.78397 0.81054 0.32544 0.0
C288 C 0.75806 0.82275 0.33939 0.0
C289 C 0.73793 0.84819 0.33124 0.0
C290 C 0.82273 0.81799 0.28908 0.0
C291 C 0.74695 0.80432 0.36218 0.0
C292 C 0.75781 0.68523 0.33396 0.0
C293 C 0.79653 0.69198 0.34585 0.0
C294 C 0.75437 0.7237 0.32665 0.0
C295 C 0.79062 0.77037 0.33131 0.0
C296 C 0.83082 0.77766 0.34252 0.0
C297 C 0.83329 0.73825 0.34972 0.0
C298 C 0.71096 0.7142 0.31458 0.0
C299 C 0.87029 0.82684 0.34765 0.0
H300 H 0.7787 0.86564 0.27982 0.0
H301 H 0.71514 0.85432 0.3415 0.0
H302 H 0.85265 0.81907 0.29753 0.0
H303 H 0.8005 0.78164 0.28265 0.0
H304 H 0.83609 0.84299 0.27527 0.0
H305 H 0.73379 0.82351 0.37196 0.0
H306 H 0.71972 0.76621 0.36191 0.0
H307 H 0.77819 0.80745 0.37019 0.0
H308 H 0.72948 0.64963 0.33068 0.0
H309 H 0.86337 0.74371 0.35889 0.0
H310 H 0.72056 0.73294 0.29887 0.0
H311 H 0.69188 0.72788 0.32395 0.0
H312 H 0.68692 0.67586 0.31154 0.0
H313 H 0.87868 0.85067 0.33356 0.0
H314 H 0.9023 0.82675 0.35266 0.0
H315 H 0.85964 0.84185 0.36099 0.0
C316 C 0.94116 0.69489 0.65029 0.0
C317 C 0.90666 0.70558 0.64489 0.0
C318 C 0.98278 0.72856 0.66008 0.0
C319 C 0.9907 0.77462 0.66411 0.0
C320 C 0.95618 0.78591 0.65853 0.0
C321 C 0.91411 0.75091 0.64921 0.0
C322 C 0.01823 0.71464 0.66618 0.0
C323 C 0.964 0.83497 0.66211 0.0
C324 C 0.084 0.83515 0.70635 0.0
C325 C 0.12423 0.85466 0.69353 0.0
C326 C 0.03951 0.81238 0.69695 0.0
C327 C 0.03543 0.81016 0.67423 0.0
C328 C 0.07593 0.8348 0.66133 0.0
C329 C 0.11998 0.85628 0.67114 0.0
C330 C 0.99732 0.78617 0.71131 0.0
C331 C 0.07299 0.83458 0.63707 0.0
H332 H 0.93531 0.65972 0.64716 0.0
H333 H 0.8875 0.75926 0.6449 0.0
H334 H 0.05111 0.7366 0.65715 0.0
H335 H 0.02656 0.72115 0.6836 0.0
H336 H 0.00572 0.67677 0.66276 0.0
H337 H 0.93336 0.83779 0.65723 0.0
H338 H 0.97165 0.84494 0.67932 0.0
H339 H 0.99481 0.86106 0.65273 0.0
H340 H 0.08704 0.83387 0.72369 0.0
H341 H 0.15107 0.87197 0.66119 0.0
H342 H 0.98507 0.74774 0.71077 0.0
H343 H 0.96824 0.79077 0.70568 0.0
H344 H 0.00537 0.79816 0.72831 0.0
H345 H 0.06633 0.79994 0.63086 0.0
H346 H 0.10588 0.86289 0.62976 0.0
H347 H 0.04374 0.83926 0.63175 0.0
C348 C 0.70779 0.29348 0.95765 0.0
C349 C 0.72121 0.26053 0.9631 0.0
C350 C 0.67259 0.29557 0.9692 0.0
C351 C 0.65057 0.26417 0.98665 0.0
C352 C 0.66392 0.23082 0.99219 0.0
C353 C 0.69895 0.2293 0.98031 0.0
C354 C 0.65895 0.33135 0.96274 0.0
C355 C 0.64132 0.19685 0.01075 0.0
C356 C 0.58798 0.29428 0.02935 0.0
C357 C 0.54119 0.26496 0.02337 0.0
C358 C 0.62407 0.29483 0.01739 0.0
C359 C 0.61303 0.26556 -0.00103 0.0
C360 C 0.56593 0.23639 0.9927 0.0
C361 C 0.53059 0.23634 0.005 0.0
C362 C 0.67395 0.3262 0.02461 0.0
C363 C 0.55282 0.20486 0.97311 0.0
H364 H 0.72484 0.31773 0.94438 0.0
H365 H 0.7092 0.20384 0.9847 0.0
H366 H 0.62134 0.31296 0.95854 0.0
H367 H 0.66426 0.35525 0.97646 0.0
H368 H 0.6794 0.35318 0.94876 0.0
H369 H 0.6561 0.17344 0.01313 0.0
H370 H 0.64595 0.21687 0.02585 0.0
H371 H 0.60326 0.17437 0.0079 0.0
H372 H 0.59644 0.31651 0.0435 0.0
H373 H 0.49454 0.21373 0.00019 0.0
H374 H 0.69495 0.35048 0.01139 0.0
H375 H 0.6896 0.30419 0.02853 0.0
H376 H 0.67674 0.34768 0.03898 0.0
H377 H 0.57103 0.22626 0.95867 0.0
H378 H 0.51466 0.18551 0.96999 0.0
H379 H 0.56416 0.17858 0.97528 0.0
C380 C 0.32151 0.5762 0.37333 0.0
C381 C 0.29421 0.53407 0.36186 0.0
C382 C 0.35914 0.61559 0.36347 0.0
C383 C 0.36988 0.61262 0.34168 0.0
C384 C 0.34307 0.5699 0.33014 0.0
C385 C 0.30544 0.53116 0.34036 0.0
C386 C 0.38687 0.66067 0.37626 0.0
C387 C 0.35375 0.56533 0.30693 0.0
C388 C 0.43632 0.72749 0.31035 0.0
C389 C 0.4821 0.73609 0.3113 0.0
C390 C 0.3994 0.68723 0.32005 0.0
C391 C 0.40848 0.65465 0.33082 0.0
C392 C 0.45446 0.66266 0.33151 0.0
C393 C 0.49077 0.70339 0.32179 0.0
C394 C 0.35081 0.67993 0.31906 0.0
C395 C 0.46537 0.6285 0.34272 0.0
H396 H 0.31303 0.57876 0.38994 0.0
H397 H 0.28464 0.49864 0.33141 0.0
H398 H 0.42432 0.67141 0.37634 0.0
H399 H 0.38418 0.68977 0.36856 0.0
H400 H 0.37463 0.65687 0.39318 0.0
H401 H 0.33061 0.52912 0.30048 0.0
H402 H 0.34961 0.59091 0.29683 0.0
H403 H 0.39051 0.5741 0.30534 0.0
H404 H 0.42934 0.75263 0.30232 0.0
H405 H 0.52605 0.70971 0.32253 0.0
H406 H 0.33783 0.67918 0.3356 0.0
H407 H 0.32658 0.64529 0.3115 0.0
H408 H 0.34952 0.70825 0.30978 0.0
H409 H 0.45649 0.6263 0.36007 0.0
H410 H 0.50272 0.63915 0.34125 0.0
H411 H 0.44377 0.59246 0.33587 0.0
C412 C 0.78202 0.29903 0.66652 0.0
C413 C 0.77014 0.28608 0.68814 0.0
C414 C 0.77928 0.33681 0.6575 0.0
C415 C 0.76483 0.36253 0.67048 0.0
C416 C 0.75415 0.35055 0.69247 0.0
C417 C 0.7567 0.31228 0.70101 0.0
C418 C 0.79061 0.34837 0.63394 0.0
C419 C 0.73919 0.37758 0.70688 0.0
C420 C 0.7913 0.48416 0.65203 0.0
C421 C 0.7479 0.47429 0.64391 0.0
C422 C 0.79742 0.44809 0.66065 0.0
C423 C 0.75937 0.401 0.66092 0.0
C424 C 0.71571 0.39067 0.65239 0.0
C425 C 0.71043 0.4275 0.64409 0.0
C426 C 0.84435 0.46048 0.66979 0.0
C427 C 0.67447 0.34075 0.65219 0.0
H428 H 0.79231 0.27886 0.65645 0.0
H429 H 0.74773 0.30264 0.71776 0.0
H430 H 0.75919 0.34313 0.62524 0.0
H431 H 0.81802 0.38609 0.63198 0.0
H432 H 0.8028 0.32596 0.62624 0.0
H433 H 0.73441 0.36532 0.72387 0.0
H434 H 0.76551 0.41595 0.70642 0.0
H435 H 0.70581 0.37339 0.70098 0.0
H436 H 0.82039 0.52028 0.65201 0.0
H437 H 0.67687 0.4196 0.63775 0.0
H438 H 0.8577 0.43965 0.66159 0.0
H439 H 0.84074 0.45108 0.68713 0.0
H440 H 0.87058 0.49874 0.66806 0.0
H441 H 0.68369 0.31695 0.64357 0.0
H442 H 0.64337 0.33844 0.64433 0.0
H443 H 0.66506 0.32735 0.66892 0.0
C444 C 0.32555 0.84417 0.99141 0.0
C445 C 0.28814 0.80199 0.98329 0.0
C446 C 0.3617 0.84397 0.00303 0.0
C447 C 0.36023 0.80056 0.00662 0.0
C448 C 0.32247 0.7579 0.99854 0.0
C449 C 0.28698 0.75915 0.98695 0.0
C450 C 0.40157 0.89016 0.01133 0.0
C451 C 0.31961 0.71086 0.00208 0.0
C452 C 0.47011 0.79632 0.01757 0.0
C453 C 0.46686 0.78773 0.03983 0.0
C454 C 0.43654 0.80234 0.00671 0.0
C455 C 0.39862 0.79945 0.01835 0.0
C456 C 0.39582 0.79221 0.04091 0.0
C457 C 0.4301 0.78656 0.05141 0.0
C458 C 0.4409 0.81032 0.98265 0.0
C459 C 0.35579 0.78882 0.05383 0.0
H460 H 0.32665 0.87741 0.98871 0.0
H461 H 0.25815 0.72634 0.98081 0.0
H462 H 0.40481 0.88823 0.02903 0.0
H463 H 0.43484 0.89674 0.0041 0.0
H464 H 0.39698 0.92072 0.00758 0.0
H465 H 0.28738 0.6808 0.99514 0.0
H466 H 0.35021 0.71142 0.99464 0.0
H467 H 0.32053 0.70443 0.01957 0.0
H468 H 0.49865 0.79774 0.00851 0.0
H469 H 0.42743 0.78008 0.06861 0.0
H470 H 0.43872 0.84207 0.97849 0.0
H471 H 0.41157 0.7796 0.97441 0.0
H472 H 0.47419 0.81507 0.97625 0.0
H473 H 0.3521 0.82011 0.05073 0.0
H474 H 0.3604 0.78637 0.07141 0.0
H475 H 0.32273 0.75703 0.04877 0.0
C476 C 0.55796 0.26608 0.31566 0.0
C477 C 0.51388 0.26137 0.31324 0.0
C478 C 0.59449 0.30594 0.32576 0.0
C479 C 0.58676 0.34199 0.33353 0.0
C480 C 0.54261 0.33787 0.33082 0.0
C481 C 0.50664 0.29754 0.32073 0.0
C482 C 0.64117 0.30915 0.32839 0.0
C483 C 0.53322 0.37578 0.33881 0.0
C484 C 0.66652 0.42218 0.37769 0.0
C485 C 0.69827 0.46228 0.36594 0.0
C486 C 0.62988 0.38282 0.36734 0.0
C487 C 0.6248 0.38376 0.34474 0.0
C488 C 0.65637 0.42433 0.33283 0.0
C489 C 0.69282 0.46307 0.34356 0.0
C490 C 0.59689 0.34004 0.38055 0.0
C491 C 0.65182 0.42668 0.30872 0.0
H492 H 0.56383 0.23828 0.30994 0.0
H493 H 0.47269 0.29421 0.31889 0.0
H494 H 0.66897 0.34203 0.32074 0.0
H495 H 0.64987 0.311 0.34574 0.0
H496 H 0.64166 0.27839 0.32116 0.0
H497 H 0.4973 0.36774 0.33496 0.0
H498 H 0.53812 0.37962 0.35652 0.0
H499 H 0.55846 0.41043 0.33153 0.0
H500 H 0.67053 0.4213 0.39497 0.0
H501 H 0.71709 0.49403 0.33438 0.0
H502 H 0.59823 0.30858 0.37496 0.0
H503 H 0.56053 0.33212 0.37833 0.0
H504 H 0.60535 0.34515 0.398 0.0
H505 H 0.65507 0.39812 0.30083 0.0
H506 H 0.6787 0.46124 0.30189 0.0
H507 H 0.61682 0.42086 0.30462 0.0
C508 C 0.23887 0.53434 0.65027 0.0
C509 C 0.26814 0.54416 0.63236 0.0
C510 C 0.23697 0.57072 0.66125 0.0
C511 C 0.26488 0.61802 0.6541 0.0
C512 C 0.29404 0.62814 0.63588 0.0
C513 C 0.29538 0.59107 0.62524 0.0
C514 C 0.20551 0.55859 0.68064 0.0
C515 C 0.32414 0.6782 0.62775 0.0
C516 C 0.2321 0.70864 0.67112 0.0
C517 C 0.26395 0.73234 0.68784 0.0
C518 C 0.23186 0.6712 0.66005 0.0
C519 C 0.26411 0.65704 0.6659 0.0
C520 C 0.29586 0.68032 0.68297 0.0
C521 C 0.29544 0.71775 0.69372 0.0
C522 C 0.1975 0.64717 0.64192 0.0
C523 C 0.33059 0.66598 0.68974 0.0
H524 H 0.21769 0.49819 0.6559 0.0
H525 H 0.31802 0.59893 0.6114 0.0
H526 H 0.22661 0.57688 0.6951 0.0
H527 H 0.18056 0.57121 0.67821 0.0
H528 H 0.18543 0.51991 0.6839 0.0
H529 H 0.34411 0.67998 0.61309 0.0
H530 H 0.30216 0.69382 0.624 0.0
H531 H 0.34917 0.70045 0.64045 0.0
H532 H 0.20767 0.71971 0.66645 0.0
H533 H 0.32011 0.73582 0.70663 0.0
H534 H 0.17555 0.60869 0.64522 0.0
H535 H 0.21653 0.65106 0.62668 0.0
H536 H 0.17431 0.66203 0.63955 0.0
H537 H 0.31204 0.62798 0.69428 0.0
H538 H 0.35236 0.68714 0.70358 0.0
H539 H 0.35393 0.67047 0.67606 0.0
C540 C 0.34442 0.1429 0.1228 0.0
C541 C 0.37971 0.18298 0.11226 0.0
C542 C 0.34783 0.13541 0.1448 0.0
C543 C 0.38715 0.16918 0.15658 0.0
C544 C 0.42294 0.20968 0.14603 0.0
C545 C 0.41896 0.21591 0.12394 0.0
C546 C 0.30928 0.09146 0.15544 0.0
C547 C 0.46509 0.24677 0.15815 0.0
C548 C 0.37359 0.17412 0.217 0.0
C549 C 0.39672 0.15124 0.22471 0.0
C550 C 0.37046 0.1804 0.19486 0.0
C551 C 0.3903 0.16272 0.18007 0.0
C552 C 0.41317 0.13905 0.18773 0.0
C553 C 0.41644 0.13392 0.20999 0.0
C554 C 0.3463 0.20636 0.18731 0.0
C555 C 0.4341 0.11909 0.1724 0.0
H556 H 0.31415 0.11714 0.11382 0.0
H557 H 0.44628 0.24704 0.1159 0.0
H558 H 0.32389 0.07135 0.16327 0.0
H559 H 0.29269 0.10153 0.16825 0.0
H560 H 0.28192 0.06779 0.14383 0.0
H561 H 0.48997 0.27607 0.14754 0.0
H562 H 0.45386 0.26191 0.17121 0.0
H563 H 0.48364 0.23044 0.16585 0.0
H564 H 0.35848 0.18781 0.22831 0.0
H565 H 0.43412 0.11597 0.21586 0.0
H566 H 0.31645 0.18305 0.17674 0.0
H567 H 0.37075 0.23772 0.17763 0.0
H568 H 0.33316 0.21837 0.20091 0.0
H569 H 0.40687 0.09361 0.16123 0.0
H570 H 0.44984 0.10077 0.18094 0.0
H571 H 0.46143 0.14794 0.16244 0.0
C572 C 0.25012 0.38953 0.44337 0.0
C573 C 0.20968 0.38644 0.43477 0.0
C574 C 0.25525 0.38687 0.46568 0.0
C575 C 0.2189 0.38059 0.47964 0.0
C576 C 0.17773 0.37676 0.47103 0.0
C577 C 0.1737 0.37992 0.4487 0.0
C578 C 0.29979 0.39144 0.47432 0.0
C579 C 0.13808 0.36973 0.48542 0.0
C580 C 0.21312 0.33412 0.53626 0.0
C581 C 0.23124 0.37575 0.54849 0.0
C582 C 0.20928 0.3352 0.51378 0.0
C583 C 0.22417 0.37898 0.50333 0.0
C584 C 0.24303 0.42119 0.51555 0.0
C585 C 0.2462 0.41905 0.53799 0.0
C586 C 0.18873 0.28945 0.50126 0.0
C587 C 0.25952 0.46858 0.50493 0.0
H588 H 0.27812 0.3947 0.4327 0.0
H589 H 0.14225 0.37732 0.44218 0.0
H590 H 0.31738 0.42264 0.48513 0.0
H591 H 0.29179 0.3598 0.48406 0.0
H592 H 0.32441 0.39544 0.46129 0.0
H593 H 0.10791 0.36611 0.47612 0.0
H594 H 0.12607 0.33754 0.49543 0.0
H595 H 0.15027 0.40021 0.49656 0.0
H596 H 0.20146 0.30053 0.54425 0.0
H597 H 0.26043 0.45141 0.54732 0.0
H598 H 0.21381 0.29183 0.48884 0.0
H599 H 0.15678 0.28318 0.49272 0.0
H600 H 0.17962 0.2585 0.51177 0.0
H601 H 0.28626 0.4753 0.49256 0.0
H602 H 0.27463 0.49825 0.51668 0.0
H603 H 0.22994 0.46839 0.49658 0.0
C604 C 0.8075 0.21685 0.86654 0.0
C605 C 0.82368 0.19078 0.87772 0.0
C606 C 0.79762 0.20984 0.84445 0.0
C607 C 0.80357 0.17557 0.83334 0.0
C608 C 0.82004 0.14923 0.8445 0.0
C609 C 0.83017 0.15735 0.86656 0.0
C610 C 0.7806 0.23897 0.83303 0.0
C611 C 0.8264 0.11209 0.8332 0.0
C612 C 0.73516 0.12747 0.78148 0.0
C613 C 0.76931 0.15321 0.76589 0.0
C614 C 0.74605 0.1338 0.8035 0.0
C615 C 0.79206 0.16702 0.81006 0.0
C616 C 0.82677 0.19291 0.79442 0.0
C617 C 0.81503 0.18551 0.7725 0.0
C618 C 0.70823 0.10522 0.81974 0.0
C619 C 0.87611 0.22896 0.80083 0.0
H620 H 0.80261 0.2429 0.87504 0.0
H621 H 0.84248 0.13694 0.87512 0.0
H622 H 0.80404 0.25837 0.81935 0.0
H623 H 0.74532 0.21538 0.82627 0.0
H624 H 0.77894 0.26501 0.8439 0.0
H625 H 0.83976 0.09485 0.84416 0.0
H626 H 0.79263 0.08442 0.82635 0.0
H627 H 0.85112 0.12826 0.81957 0.0
H628 H 0.69983 0.10226 0.77648 0.0
H629 H 0.8416 0.2056 0.76055 0.0
H630 H 0.70241 0.12926 0.83015 0.0
H631 H 0.7192 0.08539 0.83037 0.0
H632 H 0.67464 0.07963 0.81196 0.0
H633 H 0.87612 0.25722 0.81068 0.0
H634 H 0.89915 0.24559 0.78667 0.0
H635 H 0.89109 0.212 0.81093 0.0
C636 C 0.6594 0.7938 0.1288 0.0
C637 C 0.61761 0.77702 0.11732 0.0
C638 C 0.66061 0.79897 0.15127 0.0
C639 C 0.61901 0.78692 0.1625 0.0
C640 C 0.5766 0.7694 0.15104 0.0
C641 C 0.57642 0.76472 0.12859 0.0
C642 C 0.70649 0.81784 0.16296 0.0
C643 C 0.5315 0.75602 0.16249 0.0
C644 C 0.6121 0.76227 0.22253 0.0
C645 C 0.61894 0.80488 0.2312 0.0
C646 C 0.6124 0.75605 0.20019 0.0
C647 C 0.61988 0.79338 0.18621 0.0
C648 C 0.6274 0.83668 0.19485 0.0
C649 C 0.62676 0.84188 0.21724 0.0
C650 C 0.60414 0.70933 0.19154 0.0
C651 C 0.6357 0.87736 0.18042 0.0
H652 H 0.69138 0.80341 0.12023 0.0
H653 H 0.54395 0.75165 0.11985 0.0
H654 H 0.71543 0.8513 0.17134 0.0
H655 H 0.70355 0.79223 0.17544 0.0
H656 H 0.73554 0.82475 0.1519 0.0
H657 H 0.50134 0.74195 0.15128 0.0
H658 H 0.52418 0.72884 0.17495 0.0
H659 H 0.53461 0.78742 0.17086 0.0
H660 H 0.60603 0.7335 0.2332 0.0
H661 H 0.6322 0.87496 0.2238 0.0
H662 H 0.63384 0.71516 0.18124 0.0
H663 H 0.57243 0.69276 0.1813 0.0
H664 H 0.5997 0.68416 0.20458 0.0
H665 H 0.66622 0.88739 0.16985 0.0
H666 H 0.64202 0.90906 0.18971 0.0
H667 H 0.60506 0.86639 0.16981 0.0
C668 C 0.72203 0.54879 0.54267 0.0
C669 C 0.74977 0.58765 0.556 0.0
C670 C 0.72698 0.55249 0.5202 0.0
C671 C 0.76028 0.59618 0.51085 0.0
C672 C 0.78773 0.63579 0.52419 0.0
C673 C 0.78225 0.63102 0.54661 0.0
C674 C 0.69724 0.5094 0.50648 0.0
C675 C 0.82341 0.68302 0.51478 0.0
C676 C 0.80703 0.59312 0.45555 0.0
C677 C 0.78097 0.60559 0.44215 0.0
C678 C 0.80072 0.59013 0.47793 0.0
C679 C 0.76762 0.59993 0.48717 0.0
C680 C 0.74146 0.6129 0.47378 0.0
C681 C 0.74842 0.61554 0.4514 0.0
C682 C 0.82924 0.57611 0.49169 0.0
C683 C 0.70594 0.62371 0.48309 0.0
H684 H 0.69686 0.51515 0.54979 0.0
H685 H 0.80366 0.6613 0.5568 0.0
H686 H 0.67766 0.51747 0.49441 0.0
H687 H 0.71984 0.49948 0.49749 0.0
H688 H 0.67195 0.47847 0.51621 0.0
H689 H 0.84058 0.71085 0.5273 0.0
H690 H 0.85065 0.67944 0.50613 0.0
H691 H 0.80664 0.69489 0.50286 0.0
H692 H 0.83223 0.58532 0.44855 0.0
H693 H 0.72815 0.6252 0.44117 0.0
H694 H 0.80579 0.54329 0.50076 0.0
H695 H 0.84965 0.60421 0.5037 0.0
H696 H 0.85375 0.56995 0.482 0.0
H697 H 0.67855 0.59225 0.49179 0.0
H698 H 0.68896 0.63398 0.47052 0.0
H699 H 0.72287 0.6529 0.49498 0.0
C700 C 0.18052 0.7593 0.87301 0.0
C701 C 0.15319 0.77605 0.88232 0.0
C702 C 0.18807 0.76189 0.8507 0.0
C703 C 0.16781 0.78172 0.83739 0.0
C704 C 0.13979 0.79823 0.84664 0.0
C705 C 0.1328 0.79519 0.86901 0.0
C706 C 0.21812 0.74387 0.84138 0.0
C707 C 0.1176 0.8196 0.83295 0.0
C708 C 0.22318 0.83164 0.78304 0.0
C709 C 0.19318 0.79528 0.76901 0.0
C710 C 0.21541 0.82756 0.80534 0.0
C711 C 0.17673 0.78614 0.81382 0.0
C712 C 0.14646 0.74919 0.79978 0.0
C713 C 0.15505 0.7542 0.77753 0.0
C714 C 0.24846 0.86772 0.81982 0.0
C715 C 0.10487 0.70448 0.80826 0.0
H716 H 0.19635 0.74438 0.88317 0.0
H717 H 0.11159 0.80817 0.87605 0.0
H718 H 0.19829 0.71643 0.82903 0.0
H719 H 0.24896 0.77323 0.83326 0.0
H720 H 0.23046 0.72847 0.85387 0.0
H721 H 0.09598 0.82986 0.84258 0.0
H722 H 0.14506 0.85149 0.82453 0.0
H723 H 0.09527 0.79401 0.82039 0.0
H724 H 0.25275 0.8635 0.77661 0.0
H725 H 0.13171 0.72595 0.7668 0.0
H726 H 0.26399 0.8547 0.83187 0.0
H727 H 0.22911 0.88157 0.82884 0.0
H728 H 0.27714 0.89736 0.81069 0.0
H729 H 0.11648 0.68706 0.82001 0.0
H730 H 0.085 0.67886 0.79522 0.0
H731 H 0.08105 0.71328 0.81689 0.0
C732 C 0.57727 0.59337 0.0481 0.0
C733 C 0.55789 0.62005 0.04064 0.0
C734 C 0.55538 0.54457 0.04403 0.0
C735 C 0.51304 0.52193 0.03228 0.0
C736 C 0.49403 0.54888 0.02415 0.0
C737 C 0.51673 0.59763 0.02839 0.0
C738 C 0.5769 0.51701 0.05282 0.0
C739 C 0.44896 0.52596 0.01156 0.0
C740 C 0.47594 0.39994 0.01003 0.0
C741 C 0.44584 0.37044 0.02625 0.0
C742 C 0.49707 0.44937 0.01143 0.0
C743 C 0.48766 0.46969 0.02942 0.0
C744 C 0.4556 0.44004 0.04532 0.0
C745 C 0.43511 0.39077 0.04356 0.0
C746 C 0.53098 0.47987 0.99413 0.0
C747 C 0.44431 0.46042 0.06464 0.0
H748 H 0.60912 0.61041 0.0575 0.0
H749 H 0.50151 0.61796 0.02251 0.0
H750 H 0.55309 0.49078 0.06483 0.0
H751 H 0.58182 0.49699 0.03969 0.0
H752 H 0.61115 0.54026 0.06065 0.0
H753 H 0.44029 0.55232 0.00525 0.0
H754 H 0.45111 0.50551 0.99783 0.0
H755 H 0.41993 0.50061 0.02203 0.0
H756 H 0.48444 0.38456 0.99659 0.0
H757 H 0.41173 0.36824 0.05611 0.0
H758 H 0.5666 0.50029 0.00104 0.0
H759 H 0.52175 0.50585 0.98798 0.0
H760 H 0.53177 0.45859 0.98039 0.0
H761 H 0.47605 0.48071 0.07465 0.0
H762 H 0.41643 0.43254 0.07482 0.0
H763 H 0.43301 0.48541 0.05939 0.0
C764 C 0.9041 0.49417 0.39154 0.0
C765 C 0.91042 0.53468 0.38078 0.0
C766 C 0.93736 0.48012 0.39012 0.0
C767 C 0.97798 0.50718 0.37761 0.0
C768 C 0.98429 0.54765 0.36637 0.0
C769 C 0.9504 0.561 0.36812 0.0
C770 C 0.92945 0.43683 0.40241 0.0
C771 C 0.02718 0.57723 0.35283 0.0
C772 C 0.08275 0.49804 0.39402 0.0
C773 C 0.08111 0.46492 0.3792 0.0
C774 C 0.05004 0.51291 0.39332 0.0
C775 C 0.01486 0.49435 0.37735 0.0
C776 C 0.01347 0.46162 0.36205 0.0
C777 C 0.04661 0.44717 0.36319 0.0
C778 C 0.0525 0.54768 0.41 0.0
C779 C 0.97648 0.44124 0.34477 0.0
H780 H 0.87323 0.47349 0.4013 0.0
H781 H 0.95539 0.5922 0.35968 0.0
H782 H 0.93133 0.41131 0.39132 0.0
H783 H 0.9573 0.44716 0.41463 0.0
H784 H 0.89513 0.41862 0.41072 0.0
H785 H 0.02563 0.60608 0.34417 0.0
H786 H 0.05866 0.59325 0.36322 0.0
H787 H 0.03146 0.55459 0.34086 0.0
H788 H 0.10935 0.51206 0.40642 0.0
H789 H 0.04529 0.42177 0.35161 0.0
H790 H 0.02047 0.53079 0.42003 0.0
H791 H 0.05419 0.57881 0.40201 0.0
H792 H 0.08324 0.56029 0.42076 0.0
H793 H 0.94158 0.41987 0.35228 0.0
H794 H 0.98188 0.41838 0.33333 0.0
H795 H 0.97624 0.47018 0.33559 0.0
C796 C 0.6138 0.06861 0.68575 0.0
C797 C 0.63608 0.04431 0.69283 0.0
C798 C 0.56534 0.04819 0.68734 0.0
C799 C 0.53837 0.00216 0.69603 0.0
C800 C 0.56023 0.97639 0.70212 0.0
C801 C 0.60894 0.99786 0.7005 0.0
C802 C 0.54333 0.07683 0.6807 0.0
C803 C 0.5324 0.92692 0.7112 0.0
C804 C 0.4248 0.97015 0.72409 0.0
C805 C 0.39174 0.94299 0.70835 0.0
C806 C 0.47267 0.99012 0.72015 0.0
C807 C 0.48778 0.98231 0.70006 0.0
C808 C 0.45466 0.95567 0.68395 0.0
C809 C 0.40701 0.93655 0.68824 0.0
C810 C 0.50705 0.01899 0.73761 0.0
C811 C 0.46951 0.94641 0.66239 0.0
H812 H 0.6344 0.10446 0.67967 0.0
H813 H 0.62582 0.97878 0.70592 0.0
H814 H 0.51393 0.05621 0.66946 0.0
H815 H 0.52886 0.08495 0.69509 0.0
H816 H 0.5687 0.11073 0.67281 0.0
H817 H 0.55398 0.91017 0.7134 0.0
H818 H 0.51758 0.92807 0.72704 0.0
H819 H 0.50271 0.90424 0.70042 0.0
H820 H 0.41323 0.97533 0.73964 0.0
H821 H 0.38165 0.91527 0.67605 0.0
H822 H 0.5324 0.05481 0.73144 0.0
H823 H 0.52719 0.00195 0.74248 0.0
H824 H 0.48967 0.02284 0.7521 0.0
H825 H 0.49442 0.98037 0.65448 0.0
H826 H 0.43945 0.92592 0.65141 0.0
H827 H 0.48787 0.92638 0.66472 0.0
C828 C 0.6054 0.60264 0.61937 0.0
C829 C 0.63386 0.58986 0.63066 0.0
C830 C 0.5571 0.57904 0.62297 0.0
C831 C 0.53681 0.54163 0.63815 0.0
C832 C 0.56554 0.5298 0.6502 0.0
C833 C 0.61376 0.55417 0.64637 0.0
C834 C 0.52757 0.59298 0.60996 0.0
C835 C 0.54516 0.49008 0.66649 0.0
C836 C 0.41305 0.50211 0.65569 0.0
C837 C 0.38692 0.46466 0.64138 0.0
C838 C 0.46199 0.52667 0.65531 0.0
C839 C 0.48526 0.51316 0.64039 0.0
C840 C 0.4591 0.47384 0.62668 0.0
C841 C 0.41023 0.45014 0.6273 0.0
C842 C 0.48873 0.56843 0.67017 0.0
C843 C 0.48271 0.45798 0.61074 0.0
H844 H 0.62066 0.63029 0.60728 0.0
H845 H 0.63546 0.54402 0.65519 0.0
H846 H 0.50397 0.56332 0.59923 0.0
H847 H 0.50533 0.60016 0.62078 0.0
H848 H 0.54901 0.62487 0.5999 0.0
H849 H 0.57255 0.48772 0.6757 0.0
H850 H 0.52243 0.49495 0.678 0.0
H851 H 0.52306 0.45586 0.65813 0.0
H852 H 0.39534 0.51362 0.66661 0.0
H853 H 0.39029 0.42107 0.61628 0.0
H854 H 0.50685 0.60149 0.66054 0.0
H855 H 0.51589 0.56511 0.67903 0.0
H856 H 0.46565 0.57193 0.68202 0.0
H857 H 0.50147 0.48605 0.59849 0.0
H858 H 0.45749 0.42477 0.60233 0.0
H859 H 0.50898 0.45222 0.61902 0.0
C860 C 0.99744 0.58892 0.94422 0.0
C861 C 0.03852 0.61811 0.95569 0.0
C862 C 0.97152 0.54 0.94814 0.0
C863 C 0.98734 0.51986 0.96377 0.0
C864 C 0.0277 0.54937 0.97601 0.0
C865 C 0.05268 0.59818 0.97191 0.0
C866 C 0.92818 0.50964 0.93499 0.0
C867 C 0.04573 0.52915 0.99276 0.0
C868 C 0.90161 0.39464 0.98218 0.0
C869 C 0.91268 0.36789 0.96834 0.0
C870 C 0.92631 0.44429 0.98125 0.0
C871 C 0.96325 0.46762 0.96632 0.0
C872 C 0.97606 0.44088 0.95307 0.0
C873 C 0.95045 0.3913 0.95416 0.0
C874 C 0.91153 0.47163 0.99555 0.0
C875 C 0.0158 0.46458 0.93719 0.0
H876 H 0.98612 0.60407 0.93177 0.0
H877 H 0.08436 0.62045 0.9809 0.0
H878 H 0.93388 0.48565 0.92448 0.0
H879 H 0.89835 0.48708 0.94573 0.0
H880 H 0.91858 0.53112 0.92469 0.0
H881 H 0.07555 0.55722 0.00201 0.0
H882 H 0.01757 0.50637 0.00421 0.0
H883 H 0.05728 0.50653 0.98479 0.0
H884 H 0.87229 0.37681 0.99311 0.0
H885 H 0.95929 0.37081 0.94351 0.0
H886 H 0.89751 0.48959 0.9855 0.0
H887 H 0.94195 0.49957 0.00448 0.0
H888 H 0.88432 0.44843 0.00733 0.0
H889 H 0.0072 0.48316 0.92469 0.0
H890 H 0.02326 0.4389 0.92909 0.0
H891 H 0.04794 0.49162 0.94547 0.0
C892 C 0.5338 0.93468 0.30834 0.0
C893 C 0.56571 0.94999 0.2912 0.0
C894 C 0.50223 0.95088 0.31058 0.0
C895 C 0.50305 0.98365 0.29549 0.0
C896 C 0.53633 0.00057 0.27863 0.0
C897 C 0.56706 0.98329 0.2766 0.0
C898 C 0.46702 0.93177 0.32867 0.0
C899 C 0.53878 0.03617 0.26243 0.0
C900 C 0.39665 0.99491 0.28493 0.0
C901 C 0.40823 0.03662 0.29612 0.0
C902 C 0.4263 0.97605 0.28535 0.0
C903 C 0.4687 -0.00019 0.29703 0.0
C904 C 0.47953 0.04068 0.30913 0.0
C905 C 0.44901 0.05837 0.30866 0.0
C906 C 0.41321 0.93184 0.27256 0.0
C907 C 0.52453 0.06719 0.32167 0.0
H908 H 0.53225 0.90864 0.3196 0.0
H909 H 0.59169 0.99532 0.26335 0.0
H910 H 0.4693 0.96131 0.33835 0.0
H911 H 0.43125 0.91191 0.32189 0.0
H912 H 0.47213 0.90782 0.33952 0.0
H913 H 0.56805 0.04737 0.25088 0.0
H914 H 0.50568 0.02069 0.25321 0.0
H915 H 0.54308 0.06802 0.27083 0.0
H916 H 0.36514 0.97777 0.27529 0.0
H917 H 0.45833 0.09061 0.3174 0.0
H918 H 0.41586 0.90551 0.28278 0.0
H919 H 0.4379 0.94068 0.25896 0.0
H920 H 0.37725 0.91527 0.26596 0.0
H921 H 0.52868 0.04273 0.33256 0.0
H922 H 0.52623 0.09644 0.33142 0.0
H923 H 0.5545 0.08238 0.31036 0.0
loop_
_geom_bond_atom_site_label_1
_geom_bond_atom_site_label_2
_geom_bond_distance
_geom_bond_site_symmetry_2
_ccdc_geom_bond_type
C0 O1 1.160 . S
C0 O7 1.185 . S
O1 C0 1.160 . S
O2 Zn3 1.899 . S
O2 C10 1.284 . S
Zn3 O2 1.899 . S
Zn3 O4 2.032 . S
Zn3 O7 2.086 . S
Zn3 O12 1.977 . S
O4 Zn3 2.032 . S
O4 C8 1.278 . S
C5 O6 1.203 . S
C5 O12 1.267 . S
O6 C5 1.203 . S
O7 C0 1.185 . S
O7 Zn3 2.086 . S
C8 O4 1.278 . S
C8 O9 1.211 . S
O9 C8 1.211 . S
C10 O2 1.284 . S
C10 O11 1.273 . S
O11 C10 1.273 . S
O12 Zn3 1.977 . S
O12 C5 1.267 . S
C13 O14 1.160 . S
C13 O20 1.185 . S
O14 C13 1.160 . S
O15 Zn16 1.899 . S
O15 C23 1.284 . S
Zn16 O15 1.899 . S
Zn16 O17 2.032 . S
Zn16 O20 2.086 . S
Zn16 O25 1.977 . S
O17 Zn16 2.032 . S
O17 C21 1.278 . S
C18 O19 1.203 . S
C18 O25 1.267 . S
O19 C18 1.203 . S
O20 C13 1.185 . S
O20 Zn16 2.086 . S
C21 O17 1.278 . S
C21 O22 1.211 . S
O22 C21 1.211 . S
C23 O15 1.284 . S
C23 O24 1.273 . S
O24 C23 1.273 . S
O25 Zn16 1.977 . S
O25 C18 1.267 . S
C26 O27 1.160 . S
C26 O33 1.185 . S
O27 C26 1.160 . S
O28 Zn29 1.899 . S
O28 C36 1.284 . S
Zn29 O28 1.899 . S
Zn29 O30 2.032 . S
Zn29 O33 2.086 . S
Zn29 O38 1.977 . S
O30 Zn29 2.032 . S
O30 C34 1.278 . S
C31 O32 1.203 . S
C31 O38 1.267 . S
O32 C31 1.203 . S
O33 C26 1.185 . S
O33 Zn29 2.086 . S
C34 O30 1.278 . S
C34 O35 1.211 . S
O35 C34 1.211 . S
C36 O28 1.284 . S
C36 O37 1.273 . S
O37 C36 1.273 . S
O38 Zn29 1.977 . S
O38 C31 1.267 . S
C39 O40 1.160 . S
C39 O46 1.185 . S
O40 C39 1.160 . S
O41 Zn42 1.899 . S
O41 C49 1.284 . S
Zn42 O41 1.899 . S
Zn42 O43 2.032 . S
Zn42 O46 2.086 . S
Zn42 O51 1.977 . S
O43 Zn42 2.032 . S
O43 C47 1.278 . S
C44 O45 1.203 . S
C44 O51 1.267 . S
O45 C44 1.203 . S
O46 C39 1.185 . S
O46 Zn42 2.086 . S
C47 O43 1.278 . S
C47 O48 1.211 . S
O48 C47 1.211 . S
C49 O41 1.284 . S
C49 O50 1.273 . S
O50 C49 1.273 . S
O51 Zn42 1.977 . S
O51 C44 1.267 . S
C52 O53 1.160 . S
C52 O59 1.185 . S
O53 C52 1.160 . S
O54 Zn55 1.899 . S
O54 C62 1.284 . S
Zn55 O54 1.899 . S
Zn55 O56 2.032 . S
Zn55 O59 2.086 . S
Zn55 O64 1.977 . S
O56 Zn55 2.032 . S
O56 C60 1.278 . S
C57 O58 1.203 . S
C57 O64 1.267 . S
O58 C57 1.203 . S
O59 C52 1.185 . S
O59 Zn55 2.086 . S
C60 O56 1.278 . S
C60 O61 1.211 . S
O61 C60 1.211 . S
C62 O54 1.284 . S
C62 O63 1.273 . S
O63 C62 1.273 . S
O64 Zn55 1.977 . S
O64 C57 1.267 . S
C65 O66 1.160 . S
C65 O72 1.185 . S
O66 C65 1.160 . S
O67 Zn68 1.899 . S
O67 C75 1.284 . S
Zn68 O67 1.899 . S
Zn68 O69 2.032 . S
Zn68 O72 2.086 . S
Zn68 O77 1.977 . S
O69 Zn68 2.032 . S
O69 C73 1.278 . S
C70 O71 1.203 . S
C70 O77 1.267 . S
O71 C70 1.203 . S
O72 C65 1.185 . S
O72 Zn68 2.086 . S
C73 O69 1.278 . S
C73 O74 1.211 . S
O74 C73 1.211 . S
C75 O67 1.284 . S
C75 O76 1.273 . S
O76 C75 1.273 . S
O77 Zn68 1.977 . S
O77 C70 1.267 . S
C78 O79 1.160 . S
C78 O85 1.185 . S
O79 C78 1.160 . S
O80 Zn81 1.899 . S
O80 C88 1.284 . S
Zn81 O80 1.899 . S
Zn81 O82 2.032 . S
Zn81 O85 2.086 . S
Zn81 O90 1.977 . S
O82 Zn81 2.032 . S
O82 C86 1.278 . S
C83 O84 1.203 . S
C83 O90 1.267 . S
O84 C83 1.203 . S
O85 C78 1.185 . S
O85 Zn81 2.086 . S
C86 O82 1.278 . S
C86 O87 1.211 . S
O87 C86 1.211 . S
C88 O80 1.284 . S
C88 O89 1.273 . S
O89 C88 1.273 . S
O90 Zn81 1.977 . S
O90 C83 1.267 . S
C91 O92 1.160 . S
C91 O98 1.185 . S
O92 C91 1.160 . S
O93 Zn94 1.899 . S
O93 C101 1.284 . S
Zn94 O93 1.899 . S
Zn94 O95 2.032 . S
Zn94 O98 2.086 . S
Zn94 O103 1.977 . S
O95 Zn94 2.032 . S
O95 C99 1.278 . S
C96 O97 1.203 . S
C96 O103 1.267 . S
O97 C96 1.203 . S
O98 C91 1.185 . S
O98 Zn94 2.086 . S
C99 O95 1.278 . S
C99 O100 1.211 . S
O100 C99 1.211 . S
C101 O93 1.284 . S
C101 O102 1.273 . S
O102 C101 1.273 . S
O103 Zn94 1.977 . S
O103 C96 1.267 . S
C104 O105 1.160 . S
C104 O111 1.185 . S
O105 C104 1.160 . S
O106 Zn107 1.899 . S
O106 C114 1.284 . S
Zn107 O106 1.899 . S
Zn107 O108 2.032 . S
Zn107 O111 2.086 . S
Zn107 O116 1.977 . S
O108 Zn107 2.032 . S
O108 C112 1.278 . S
C109 O110 1.203 . S
C109 O116 1.267 . S
O110 C109 1.203 . S
O111 C104 1.185 . S
O111 Zn107 2.086 . S
C112 O108 1.278 . S
C112 O113 1.211 . S
O113 C112 1.211 . S
C114 O106 1.284 . S
C114 O115 1.273 . S
O115 C114 1.273 . S
O116 Zn107 1.977 . S
O116 C109 1.267 . S
C117 O118 1.160 . S
C117 O124 1.185 . S
O118 C117 1.160 . S
O119 Zn120 1.899 . S
O119 C127 1.284 . S
Zn120 O119 1.899 . S
Zn120 O121 2.032 . S
Zn120 O124 2.086 . S
Zn120 O129 1.977 . S
O121 Zn120 2.032 . S
O121 C125 1.278 . S
C122 O123 1.203 . S
C122 O129 1.267 . S
O123 C122 1.203 . S
O124 C117 1.185 . S
O124 Zn120 2.086 . S
C125 O121 1.278 . S
C125 O126 1.211 . S
O126 C125 1.211 . S
C127 O119 1.284 . S
C127 O128 1.273 . S
O128 C127 1.273 . S
O129 Zn120 1.977 . S
O129 C122 1.267 . S
C130 O131 1.160 . S
C130 O137 1.185 . S
O131 C130 1.160 . S
O132 Zn133 1.899 . S
O132 C140 1.284 . S
Zn133 O132 1.899 . S
Zn133 O134 2.032 . S
Zn133 O137 2.086 . S
Zn133 O142 1.977 . S
O134 Zn133 2.032 . S
O134 C138 1.278 . S
C135 O136 1.203 . S
C135 O142 1.267 . S
O136 C135 1.203 . S
O137 C130 1.185 . S
O137 Zn133 2.086 . S
C138 O134 1.278 . S
C138 O139 1.211 . S
O139 C138 1.211 . S
C140 O132 1.284 . S
C140 O141 1.273 . S
O141 C140 1.273 . S
O142 Zn133 1.977 . S
O142 C135 1.267 . S
C143 O144 1.160 . S
C143 O150 1.185 . S
O144 C143 1.160 . S
O145 Zn146 1.899 . S
O145 C153 1.284 . S
Zn146 O145 1.899 . S
Zn146 O147 2.032 . S
Zn146 O150 2.086 . S
Zn146 O155 1.977 . S
O147 Zn146 2.032 . S
O147 C151 1.278 . S
C148 O149 1.203 . S
C148 O155 1.267 . S
O149 C148 1.203 . S
O150 C143 1.185 . S
O150 Zn146 2.086 . S
C151 O147 1.278 . S
C151 O152 1.211 . S
O152 C151 1.211 . S
C153 O145 1.284 . S
C153 O154 1.273 . S
O154 C153 1.273 . S
O155 Zn146 1.977 . S
O155 C148 1.267 . S
C156 C157 1.391 . S
C156 C158 1.394 . S
C156 H172 0.931 . S
C157 C156 1.391 . S
C157 C161 1.376 . S
C158 C156 1.394 . S
C158 C159 1.369 . S
C158 C162 1.531 . S
C159 C158 1.369 . S
C159 C160 1.410 . S
C159 C167 1.489 1_566 S
C160 C159 1.410 . S
C160 C161 1.392 . S
C160 C163 1.511 1_556 S
C161 C157 1.376 . S
C161 C160 1.392 . S
C161 H173 0.929 . S
C162 C158 1.531 . S
C162 H174 0.960 1_565 S
C162 H175 0.962 . S
C162 H176 0.960 . S
C163 C160 1.511 1_554 S
C163 H177 0.961 . S
C163 H178 0.961 . S
C163 H179 0.964 . S
C164 C165 1.370 . S
C164 C166 1.363 . S
C164 H180 0.931 . S
C165 C164 1.370 . S
C165 C169 1.408 1_554 S
C166 C164 1.363 . S
C166 C167 1.407 . S
C166 C170 1.524 1_545 S
C167 C159 1.489 1_544 S
C167 C166 1.407 . S
C167 C168 1.382 1_554 S
C168 C167 1.382 1_556 S
C168 C169 1.404 . S
C168 C171 1.539 . S
C169 C165 1.408 1_556 S
C169 C168 1.404 . S
C169 H181 0.930 . S
C170 C166 1.524 1_565 S
C170 H182 0.956 . S
C170 H183 0.961 . S
C170 H184 0.961 1_565 S
C171 C168 1.539 . S
C171 H185 0.958 . S
C171 H186 0.961 . S
C171 H187 0.960 . S
H172 C156 0.931 . S
H173 C161 0.929 . S
H174 C162 0.960 1_545 S
H175 C162 0.962 . S
H176 C162 0.960 . S
H177 C163 0.961 . S
H178 C163 0.961 . S
H179 C163 0.964 . S
H180 C164 0.931 . S
H181 C169 0.930 . S
H182 C170 0.956 . S
H183 C170 0.961 . S
H184 C170 0.961 1_545 S
H185 C171 0.958 . S
H186 C171 0.961 . S
H187 C171 0.960 . S
C188 C189 1.391 . S
C188 C190 1.394 . S
C188 H204 0.931 . S
C189 C188 1.391 . S
C189 C193 1.376 . S
C190 C188 1.394 . S
C190 C191 1.369 . S
C190 C194 1.531 . S
C191 C190 1.369 . S
C191 C192 1.410 . S
C191 C199 1.503 . S
C192 C191 1.410 . S
C192 C193 1.392 . S
C192 C195 1.511 . S
C193 C189 1.376 . S
C193 C192 1.392 . S
C193 H205 0.929 . S
C194 C190 1.531 . S
C194 H206 0.960 . S
C194 H207 0.962 . S
C194 H208 0.960 . S
C195 C192 1.511 . S
C195 H209 0.961 . S
C195 H210 0.961 . S
C195 H211 0.961 . S
C196 C197 1.370 . S
C196 C198 1.363 . S
C196 H212 0.931 . S
C197 C196 1.370 . S
C197 C201 1.408 . S
C198 C196 1.363 . S
C198 C199 1.370 . S
C198 C202 1.524 . S
C199 C191 1.503 . S
C199 C198 1.370 . S
C199 C200 1.403 . S
C200 C199 1.403 . S
C200 C201 1.404 . S
C200 C203 1.539 . S
C201 C197 1.408 . S
C201 C200 1.404 . S
C201 H213 0.930 . S
C202 C198 1.524 . S
C202 H214 0.956 . S
C202 H215 0.961 . S
C202 H216 0.961 . S
C203 C200 1.539 . S
C203 H217 0.958 . S
C203 H218 0.961 . S
C203 H219 0.960 . S
H204 C188 0.931 . S
H205 C193 0.929 . S
H206 C194 0.960 . S
H207 C194 0.962 . S
H208 C194 0.960 . S
H209 C195 0.961 . S
H210 C195 0.961 . S
H211 C195 0.961 . S
H212 C196 0.931 . S
H213 C201 0.930 . S
H214 C202 0.956 . S
H215 C202 0.961 . S
H216 C202 0.961 . S
H217 C203 0.958 . S
H218 C203 0.961 . S
H219 C203 0.960 . S
C220 C221 1.391 . S
C220 C222 1.394 . S
C220 H236 0.931 . S
C221 C220 1.391 . S
C221 C225 1.376 . S
C222 C220 1.394 . S
C222 C223 1.369 . S
C222 C226 1.531 1_655 S
C223 C222 1.369 . S
C223 C224 1.410 . S
C223 C231 1.503 1_655 S
C224 C223 1.410 . S
C224 C225 1.392 . S
C224 C227 1.511 . S
C225 C221 1.376 . S
C225 C224 1.392 . S
C225 H237 0.929 . S
C226 C222 1.531 1_455 S
C226 H238 0.960 . S
C226 H239 0.962 . S
C226 H240 0.960 1_455 S
C227 C224 1.511 . S
C227 H241 0.961 . S
C227 H242 0.961 . S
C227 H243 0.961 . S
C228 C229 1.370 . S
C228 C230 1.363 . S
C228 H244 0.931 . S
C229 C228 1.370 . S
C229 C233 1.408 . S
C230 C228 1.363 . S
C230 C231 1.370 . S
C230 C234 1.524 . S
C231 C223 1.503 1_455 S
C231 C230 1.370 . S
C231 C232 1.403 . S
C232 C231 1.403 . S
C232 C233 1.404 . S
C232 C235 1.539 . S
C233 C229 1.408 . S
C233 C232 1.404 . S
C233 H245 0.930 . S
C234 C230 1.524 . S
C234 H246 0.956 . S
C234 H247 0.961 1_455 S
C234 H248 0.961 . S
C235 C232 1.539 . S
C235 H249 0.958 . S
C235 H250 0.961 . S
C235 H251 0.960 . S
H236 C220 0.931 . S
H237 C225 0.929 . S
H238 C226 0.960 . S
H239 C226 0.962 . S
H240 C226 0.960 1_655 S
H241 C227 0.961 . S
H242 C227 0.961 . S
H243 C227 0.961 . S
H244 C228 0.931 . S
H245 C233 0.930 . S
H246 C234 0.956 . S
H247 C234 0.961 1_655 S
H248 C234 0.961 . S
H249 C235 0.958 . S
H250 C235 0.961 . S
H251 C235 0.960 . S
C252 C253 1.391 . S
C252 C254 1.394 . S
C252 H268 0.931 . S
C253 C252 1.391 . S
C253 C257 1.376 . S
C254 C252 1.394 . S
C254 C255 1.369 . S
C254 C258 1.531 . S
C255 C254 1.369 . S
C255 C256 1.410 . S
C255 C263 1.497 1_564 S
C256 C255 1.410 . S
C256 C257 1.392 . S
C256 C259 1.511 . S
C257 C253 1.376 . S
C257 C256 1.392 . S
C257 H269 0.929 . S
C258 C254 1.531 . S
C258 H270 0.960 1_565 S
C258 H271 0.962 1_554 S
C258 H272 0.960 . S
C259 C256 1.511 . S
C259 H273 0.961 . S
C259 H274 0.922 1_564 S
C259 H275 0.961 . S
C260 C261 1.370 . S
C260 C262 1.363 . S
C260 H276 0.931 . S
C261 C260 1.370 . S
C261 C265 1.408 1_556 S
C262 C260 1.363 . S
C262 C263 1.388 . S
C262 C266 1.524 1_545 S
C263 C255 1.497 1_546 S
C263 C262 1.388 . S
C263 C264 1.391 1_556 S
C264 C263 1.391 1_554 S
C264 C265 1.404 . S
C264 C267 1.539 . S
C265 C261 1.408 1_554 S
C265 C264 1.404 . S
C265 H277 0.930 . S
C266 C262 1.524 1_565 S
C266 H278 0.956 . S
C266 H279 0.961 . S
C266 H280 0.961 1_565 S
C267 C264 1.539 . S
C267 H281 0.958 . S
C267 H282 0.961 . S
C267 H283 0.960 . S
H268 C252 0.931 . S
H269 C257 0.929 . S
H270 C258 0.960 1_545 S
H271 C258 0.962 1_556 S
H272 C258 0.960 . S
H273 C259 0.961 . S
H274 C259 0.922 1_546 S
H275 C259 0.961 . S
H276 C260 0.931 . S
H277 C265 0.930 . S
H278 C266 0.956 . S
H279 C266 0.961 . S
H280 C266 0.961 1_545 S
H281 C267 0.958 . S
H282 C267 0.961 . S
H283 C267 0.960 . S
C284 C285 1.391 . S
C284 C286 1.394 . S
C284 H300 0.931 . S
C285 C284 1.391 . S
C285 C289 1.376 . S
C286 C284 1.394 . S
C286 C287 1.369 . S
C286 C290 1.531 . S
C287 C286 1.369 . S
C287 C288 1.410 . S
C287 C295 1.503 . S
C288 C287 1.410 . S
C288 C289 1.392 . S
C288 C291 1.511 . S
C289 C285 1.376 . S
C289 C288 1.392 . S
C289 H301 0.929 . S
C290 C286 1.531 . S
C290 H302 0.960 . S
C290 H303 0.962 . S
C290 H304 0.960 . S
C291 C288 1.511 . S
C291 H305 0.961 . S
C291 H306 0.961 . S
C291 H307 0.961 . S
C292 C293 1.370 . S
C292 C294 1.363 . S
C292 H308 0.931 . S
C293 C292 1.370 . S
C293 C297 1.408 . S
C294 C292 1.363 . S
C294 C295 1.370 . S
C294 C298 1.524 . S
C295 C287 1.503 . S
C295 C294 1.370 . S
C295 C296 1.403 . S
C296 C295 1.403 . S
C296 C297 1.404 . S
C296 C299 1.539 . S
C297 C293 1.408 . S
C297 C296 1.404 . S
C297 H309 0.930 . S
C298 C294 1.524 . S
C298 H310 0.956 . S
C298 H311 0.961 . S
C298 H312 0.961 . S
C299 C296 1.539 . S
C299 H313 0.958 . S
C299 H314 0.961 . S
C299 H315 0.960 . S
H300 C284 0.931 . S
H301 C289 0.929 . S
H302 C290 0.960 . S
H303 C290 0.962 . S
H304 C290 0.960 . S
H305 C291 0.961 . S
H306 C291 0.961 . S
H307 C291 0.961 . S
H308 C292 0.931 . S
H309 C297 0.930 . S
H310 C298 0.956 . S
H311 C298 0.961 . S
H312 C298 0.961 . S
H313 C299 0.958 . S
H314 C299 0.961 . S
H315 C299 0.960 . S
C316 C317 1.391 . S
C316 C318 1.394 . S
C316 H332 0.931 . S
C317 C316 1.391 . S
C317 C321 1.376 . S
C318 C316 1.394 . S
C318 C319 1.369 . S
C318 C322 1.531 . S
C319 C318 1.369 . S
C319 C320 1.410 . S
C319 C327 1.503 1_655 S
C320 C319 1.410 . S
C320 C321 1.392 . S
C320 C323 1.511 . S
C321 C317 1.376 . S
C321 C320 1.392 . S
C321 H333 0.929 . S
C322 C318 1.531 . S
C322 H334 0.960 1_655 S
C322 H335 0.962 1_655 S
C322 H336 0.960 . S
C323 C320 1.511 . S
C323 H337 0.961 . S
C323 H338 0.961 . S
C323 H339 0.961 . S
C324 C325 1.370 . S
C324 C326 1.363 . S
C324 H340 0.931 . S
C325 C324 1.370 . S
C325 C329 1.408 . S
C326 C324 1.363 . S
C326 C327 1.370 . S
C326 C330 1.524 . S
C327 C319 1.503 1_455 S
C327 C326 1.370 . S
C327 C328 1.403 . S
C328 C327 1.403 . S
C328 C329 1.404 . S
C328 C331 1.539 . S
C329 C325 1.408 . S
C329 C328 1.404 . S
C329 H341 0.930 . S
C330 C326 1.524 . S
C330 H342 0.956 1_455 S
C330 H343 0.961 1_455 S
C330 H344 0.961 . S
C331 C328 1.539 . S
C331 H345 0.958 . S
C331 H346 0.961 . S
C331 H347 0.960 . S
H332 C316 0.931 . S
H333 C321 0.929 . S
H334 C322 0.960 1_455 S
H335 C322 0.962 1_455 S
H336 C322 0.960 . S
H337 C323 0.961 . S
H338 C323 0.961 . S
H339 C323 0.961 . S
H340 C324 0.931 . S
H341 C329 0.930 . S
H342 C330 0.956 1_655 S
H343 C330 0.961 1_655 S
H344 C330 0.961 . S
H345 C331 0.958 . S
H346 C331 0.961 . S
H347 C331 0.960 . S
C348 C349 1.391 . S
C348 C350 1.394 . S
C348 H364 0.931 . S
C349 C348 1.391 . S
C349 C353 1.376 . S
C350 C348 1.394 . S
C350 C351 1.369 . S
C350 C354 1.531 . S
C351 C350 1.369 . S
C351 C352 1.410 . S
C351 C359 1.503 1_556 S
C352 C351 1.410 . S
C352 C353 1.392 . S
C352 C355 1.511 1_556 S
C353 C349 1.376 . S
C353 C352 1.392 . S
C353 H365 0.929 . S
C354 C350 1.531 . S
C354 H366 0.960 . S
C354 H367 0.962 . S
C354 H368 0.960 . S
C355 C352 1.511 1_554 S
C355 H369 0.961 . S
C355 H370 0.961 . S
C355 H371 0.961 . S
C356 C357 1.370 . S
C356 C358 1.363 . S
C356 H372 0.931 . S
C357 C356 1.370 . S
C357 C361 1.408 . S
C358 C356 1.363 . S
C358 C359 1.370 . S
C358 C362 1.524 . S
C359 C351 1.503 1_554 S
C359 C358 1.370 . S
C359 C360 1.403 1_554 S
C360 C359 1.403 1_556 S
C360 C361 1.404 1_556 S
C360 C363 1.539 . S
C361 C357 1.408 . S
C361 C360 1.404 1_554 S
C361 H373 0.919 1_554 S
C362 C358 1.524 . S
C362 H374 0.956 . S
C362 H375 0.961 . S
C362 H376 0.961 . S
C363 C360 1.539 . S
C363 H377 0.958 . S
C363 H378 0.961 . S
C363 H379 0.960 . S
H364 C348 0.931 . S
H365 C353 0.929 . S
H366 C354 0.960 . S
H367 C354 0.962 . S
H368 C354 0.960 . S
H369 C355 0.961 . S
H370 C355 0.961 . S
H371 C355 0.961 . S
H372 C356 0.931 . S
H373 C361 0.919 1_556 S
H374 C362 0.956 . S
H375 C362 0.961 . S
H376 C362 0.961 . S
H377 C363 0.958 . S
H378 C363 0.961 . S
H379 C363 0.960 . S
C380 C381 1.391 . S
C380 C382 1.394 . S
C380 H396 0.931 . S
C381 C380 1.391 . S
C381 C385 1.376 . S
C382 C380 1.394 . S
C382 C383 1.369 . S
C382 C386 1.531 . S
C383 C382 1.369 . S
C383 C384 1.410 . S
C383 C391 1.503 . S
C384 C383 1.410 . S
C384 C385 1.392 . S
C384 C387 1.511 . S
C385 C381 1.376 . S
C385 C384 1.392 . S
C385 H397 0.929 . S
C386 C382 1.531 . S
C386 H398 0.960 . S
C386 H399 0.962 . S
C386 H400 0.960 . S
C387 C384 1.511 . S
C387 H401 0.961 . S
C387 H402 0.961 . S
C387 H403 0.961 . S
C388 C389 1.370 . S
C388 C390 1.363 . S
C388 H404 0.931 . S
C389 C388 1.370 . S
C389 C393 1.408 . S
C390 C388 1.363 . S
C390 C391 1.370 . S
C390 C394 1.524 . S
C391 C383 1.503 . S
C391 C390 1.370 . S
C391 C392 1.403 . S
C392 C391 1.403 . S
C392 C393 1.404 . S
C392 C395 1.539 . S
C393 C389 1.408 . S
C393 C392 1.404 . S
C393 H405 0.930 . S
C394 C390 1.524 . S
C394 H406 0.956 . S
C394 H407 0.961 . S
C394 H408 0.961 . S
C395 C392 1.539 . S
C395 H409 0.958 . S
C395 H410 0.961 . S
C395 H411 0.960 . S
H396 C380 0.931 . S
H397 C385 0.929 . S
H398 C386 0.960 . S
H399 C386 0.962 . S
H400 C386 0.960 . S
H401 C387 0.961 . S
H402 C387 0.961 . S
H403 C387 0.961 . S
H404 C388 0.931 . S
H405 C393 0.930 . S
H406 C394 0.956 . S
H407 C394 0.961 . S
H408 C394 0.961 . S
H409 C395 0.958 . S
H410 C395 0.961 . S
H411 C395 0.960 . S
C412 C413 1.391 . S
C412 C414 1.394 . S
C412 H428 0.931 . S
C413 C412 1.391 . S
C413 C417 1.376 . S
C414 C412 1.394 . S
C414 C415 1.369 . S
C414 C418 1.531 . S
C415 C414 1.369 . S
C415 C416 1.410 . S
C415 C423 1.503 . S
C416 C415 1.410 . S
C416 C417 1.392 . S
C416 C419 1.511 . S
C417 C413 1.376 . S
C417 C416 1.392 . S
C417 H429 0.929 . S
C418 C414 1.531 . S
C418 H430 0.960 . S
C418 H431 0.962 . S
C418 H432 0.960 . S
C419 C416 1.511 . S
C419 H433 0.961 . S
C419 H434 0.961 . S
C419 H435 0.961 . S
C420 C421 1.370 . S
C420 C422 1.363 . S
C420 H436 0.931 . S
C421 C420 1.370 . S
C421 C425 1.408 . S
C422 C420 1.363 . S
C422 C423 1.370 . S
C422 C426 1.524 . S
C423 C415 1.503 . S
C423 C422 1.370 . S
C423 C424 1.403 . S
C424 C423 1.403 . S
C424 C425 1.404 . S
C424 C427 1.539 . S
C425 C421 1.408 . S
C425 C424 1.404 . S
C425 H437 0.930 . S
C426 C422 1.524 . S
C426 H438 0.956 . S
C426 H439 0.961 . S
C426 H440 0.961 . S
C427 C424 1.539 . S
C427 H441 0.958 . S
C427 H442 0.961 . S
C427 H443 0.960 . S
H428 C412 0.931 . S
H429 C417 0.929 . S
H430 C418 0.960 . S
H431 C418 0.962 . S
H432 C418 0.960 . S
H433 C419 0.961 . S
H434 C419 0.961 . S
H435 C419 0.961 . S
H436 C420 0.931 . S
H437 C425 0.930 . S
H438 C426 0.956 . S
H439 C426 0.961 . S
H440 C426 0.961 . S
H441 C427 0.958 . S
H442 C427 0.961 . S
H443 C427 0.960 . S
C444 C445 1.391 . S
C444 C446 1.394 . S
C444 H460 0.931 . S
C445 C444 1.391 . S
C445 C449 1.376 . S
C446 C444 1.394 . S
C446 C447 1.396 . S
C446 C450 1.531 . S
C447 C446 1.396 . S
C447 C448 1.406 1_556 S
C447 C455 1.486 1_556 S
C448 C447 1.406 1_554 S
C448 C449 1.392 1_554 S
C448 C451 1.511 . S
C449 C445 1.376 . S
C449 C448 1.392 1_556 S
C449 H461 0.929 . S
C450 C446 1.531 . S
C450 H462 0.960 . S
C450 H463 0.962 . S
C450 H464 0.960 . S
C451 C448 1.511 . S
C451 H465 0.961 . S
C451 H466 0.961 . S
C451 H467 0.961 . S
C452 C453 1.370 . S
C452 C454 1.363 1_554 S
C452 H468 0.931 1_554 S
C453 C452 1.370 . S
C453 C457 1.408 . S
C454 C452 1.363 1_556 S
C454 C455 1.370 1_556 S
C454 C458 1.524 . S
C455 C447 1.486 1_554 S
C455 C454 1.370 1_554 S
C455 C456 1.403 . S
C456 C455 1.403 . S
C456 C457 1.404 . S
C456 C459 1.539 . S
C457 C453 1.408 . S
C457 C456 1.404 . S
C457 H469 0.930 . S
C458 C454 1.524 . S
C458 H470 0.956 . S
C458 H471 0.961 . S
C458 H472 0.961 . S
C459 C456 1.539 . S
C459 H473 0.958 . S
C459 H474 0.961 . S
C459 H475 0.960 . S
H460 C444 0.931 . S
H461 C449 0.929 . S
H462 C450 0.960 . S
H463 C450 0.962 . S
H464 C450 0.960 . S
H465 C451 0.961 . S
H466 C451 0.961 . S
H467 C451 0.961 . S
H468 C452 0.931 1_556 S
H469 C457 0.930 . S
H470 C458 0.956 . S
H471 C458 0.961 . S
H472 C458 0.961 . S
H473 C459 0.958 . S
H474 C459 0.961 . S
H475 C459 0.960 . S
C476 C477 1.391 . S
C476 C478 1.394 . S
C476 H492 0.931 . S
C477 C476 1.391 . S
C477 C481 1.376 . S
C478 C476 1.394 . S
C478 C479 1.369 . S
C478 C482 1.531 . S
C479 C478 1.369 . S
C479 C480 1.410 . S
C479 C487 1.503 . S
C480 C479 1.410 . S
C480 C481 1.392 . S
C480 C483 1.511 . S
C481 C477 1.376 . S
C481 C480 1.392 . S
C481 H493 0.929 . S
C482 C478 1.531 . S
C482 H494 0.960 . S
C482 H495 0.962 . S
C482 H496 0.960 . S
C483 C480 1.511 . S
C483 H497 0.961 . S
C483 H498 0.961 . S
C483 H499 0.961 . S
C484 C485 1.370 . S
C484 C486 1.363 . S
C484 H500 0.931 . S
C485 C484 1.370 . S
C485 C489 1.408 . S
C486 C484 1.363 . S
C486 C487 1.370 . S
C486 C490 1.524 . S
C487 C479 1.503 . S
C487 C486 1.370 . S
C487 C488 1.403 . S
C488 C487 1.403 . S
C488 C489 1.404 . S
C488 C491 1.539 . S
C489 C485 1.408 . S
C489 C488 1.404 . S
C489 H501 0.930 . S
C490 C486 1.524 . S
C490 H502 0.956 . S
C490 H503 0.961 . S
C490 H504 0.961 . S
C491 C488 1.539 . S
C491 H505 0.958 . S
C491 H506 0.961 . S
C491 H507 0.960 . S
H492 C476 0.931 . S
H493 C481 0.929 . S
H494 C482 0.960 . S
H495 C482 0.962 . S
H496 C482 0.960 . S
H497 C483 0.961 . S
H498 C483 0.961 . S
H499 C483 0.961 . S
H500 C484 0.931 . S
H501 C489 0.930 . S
H502 C490 0.956 . S
H503 C490 0.961 . S
H504 C490 0.961 . S
H505 C491 0.958 . S
H506 C491 0.961 . S
H507 C491 0.960 . S
C508 C509 1.391 . S
C508 C510 1.394 . S
C508 H524 0.931 . S
C509 C508 1.391 . S
C509 C513 1.376 . S
C510 C508 1.394 . S
C510 C511 1.369 . S
C510 C514 1.531 . S
C511 C510 1.369 . S
C511 C512 1.410 . S
C511 C519 1.503 . S
C512 C511 1.410 . S
C512 C513 1.392 . S
C512 C515 1.511 . S
C513 C509 1.376 . S
C513 C512 1.392 . S
C513 H525 0.929 . S
C514 C510 1.531 . S
C514 H526 0.960 . S
C514 H527 0.962 . S
C514 H528 0.960 . S
C515 C512 1.511 . S
C515 H529 0.961 . S
C515 H530 0.961 . S
C515 H531 0.961 . S
C516 C517 1.370 . S
C516 C518 1.363 . S
C516 H532 0.931 . S
C517 C516 1.370 . S
C517 C521 1.408 . S
C518 C516 1.363 . S
C518 C519 1.370 . S
C518 C522 1.524 . S
C519 C511 1.503 . S
C519 C518 1.370 . S
C519 C520 1.403 . S
C520 C519 1.403 . S
C520 C521 1.404 . S
C520 C523 1.539 . S
C521 C517 1.408 . S
C521 C520 1.404 . S
C521 H533 0.930 . S
C522 C518 1.524 . S
C522 H534 0.956 . S
C522 H535 0.961 . S
C522 H536 0.961 . S
C523 C520 1.539 . S
C523 H537 0.958 . S
C523 H538 0.961 . S
C523 H539 0.960 . S
H524 C508 0.931 . S
H525 C513 0.929 . S
H526 C514 0.960 . S
H527 C514 0.962 . S
H528 C514 0.960 . S
H529 C515 0.961 . S
H530 C515 0.961 . S
H531 C515 0.961 . S
H532 C516 0.931 . S
H533 C521 0.930 . S
H534 C522 0.956 . S
H535 C522 0.961 . S
H536 C522 0.961 . S
H537 C523 0.958 . S
H538 C523 0.961 . S
H539 C523 0.960 . S
C540 C541 1.391 . S
C540 C542 1.394 . S
C540 H556 0.931 . S
C541 C540 1.391 . S
C541 C545 1.376 . S
C542 C540 1.394 . S
C542 C543 1.369 . S
C542 C546 1.531 . S
C543 C542 1.369 . S
C543 C544 1.410 . S
C543 C551 1.503 . S
C544 C543 1.410 . S
C544 C545 1.392 . S
C544 C547 1.511 . S
C545 C541 1.376 . S
C545 C544 1.392 . S
C545 H557 0.929 . S
C546 C542 1.531 . S
C546 H558 0.960 . S
C546 H559 0.962 . S
C546 H560 0.960 . S
C547 C544 1.511 . S
C547 H561 0.961 . S
C547 H562 0.961 . S
C547 H563 0.961 . S
C548 C549 1.370 . S
C548 C550 1.363 . S
C548 H564 0.931 . S
C549 C548 1.370 . S
C549 C553 1.408 . S
C550 C548 1.363 . S
C550 C551 1.370 . S
C550 C554 1.524 . S
C551 C543 1.503 . S
C551 C550 1.370 . S
C551 C552 1.403 . S
C552 C551 1.403 . S
C552 C553 1.404 . S
C552 C555 1.539 . S
C553 C549 1.408 . S
C553 C552 1.404 . S
C553 H565 0.930 . S
C554 C550 1.524 . S
C554 H566 0.956 . S
C554 H567 0.961 . S
C554 H568 0.961 . S
C555 C552 1.539 . S
C555 H569 0.958 . S
C555 H570 0.961 . S
C555 H571 0.960 . S
H556 C540 0.931 . S
H557 C545 0.929 . S
H558 C546 0.960 . S
H559 C546 0.962 . S
H560 C546 0.960 . S
H561 C547 0.961 . S
H562 C547 0.961 . S
H563 C547 0.961 . S
H564 C548 0.931 . S
H565 C553 0.930 . S
H566 C554 0.956 . S
H567 C554 0.961 . S
H568 C554 0.961 . S
H569 C555 0.958 . S
H570 C555 0.961 . S
H571 C555 0.960 . S
C572 C573 1.391 . S
C572 C574 1.394 . S
C572 H588 0.931 . S
C573 C572 1.391 . S
C573 C577 1.376 . S
C574 C572 1.394 . S
C574 C575 1.369 . S
C574 C578 1.531 . S
C575 C574 1.369 . S
C575 C576 1.410 . S
C575 C583 1.503 . S
C576 C575 1.410 . S
C576 C577 1.392 . S
C576 C579 1.511 . S
C577 C573 1.376 . S
C577 C576 1.392 . S
C577 H589 0.929 . S
C578 C574 1.531 . S
C578 H590 0.960 . S
C578 H591 0.962 . S
C578 H592 0.960 . S
C579 C576 1.511 . S
C579 H593 0.961 . S
C579 H594 0.961 . S
C579 H595 0.961 . S
C580 C581 1.370 . S
C580 C582 1.363 . S
C580 H596 0.931 . S
C581 C580 1.370 . S
C581 C585 1.408 . S
C582 C580 1.363 . S
C582 C583 1.370 . S
C582 C586 1.524 . S
C583 C575 1.503 . S
C583 C582 1.370 . S
C583 C584 1.403 . S
C584 C583 1.403 . S
C584 C585 1.404 . S
C584 C587 1.539 . S
C585 C581 1.408 . S
C585 C584 1.404 . S
C585 H597 0.930 . S
C586 C582 1.524 . S
C586 H598 0.956 . S
C586 H599 0.961 . S
C586 H600 0.961 . S
C587 C584 1.539 . S
C587 H601 0.958 . S
C587 H602 0.961 . S
C587 H603 0.960 . S
H588 C572 0.931 . S
H589 C577 0.929 . S
H590 C578 0.960 . S
H591 C578 0.962 . S
H592 C578 0.960 . S
H593 C579 0.961 . S
H594 C579 0.961 . S
H595 C579 0.961 . S
H596 C580 0.931 . S
H597 C585 0.930 . S
H598 C586 0.956 . S
H599 C586 0.961 . S
H600 C586 0.961 . S
H601 C587 0.958 . S
H602 C587 0.961 . S
H603 C587 0.960 . S
C604 C605 1.391 . S
C604 C606 1.394 . S
C604 H620 0.931 . S
C605 C604 1.391 . S
C605 C609 1.376 . S
C606 C604 1.394 . S
C606 C607 1.369 . S
C606 C610 1.531 . S
C607 C606 1.369 . S
C607 C608 1.410 . S
C607 C615 1.503 . S
C608 C607 1.410 . S
C608 C609 1.392 . S
C608 C611 1.511 . S
C609 C605 1.376 . S
C609 C608 1.392 . S
C609 H621 0.929 . S
C610 C606 1.531 . S
C610 H622 0.960 . S
C610 H623 0.962 . S
C610 H624 0.960 . S
C611 C608 1.511 . S
C611 H625 0.961 . S
C611 H626 0.961 . S
C611 H627 0.961 . S
C612 C613 1.370 . S
C612 C614 1.363 . S
C612 H628 0.931 . S
C613 C612 1.370 . S
C613 C617 1.408 . S
C614 C612 1.363 . S
C614 C615 1.370 . S
C614 C618 1.524 . S
C615 C607 1.503 . S
C615 C614 1.370 . S
C615 C616 1.403 . S
C616 C615 1.403 . S
C616 C617 1.404 . S
C616 C619 1.539 . S
C617 C613 1.408 . S
C617 C616 1.404 . S
C617 H629 0.930 . S
C618 C614 1.524 . S
C618 H630 0.956 . S
C618 H631 0.961 . S
C618 H632 0.961 . S
C619 C616 1.539 . S
C619 H633 0.958 . S
C619 H634 0.961 . S
C619 H635 0.960 . S
H620 C604 0.931 . S
H621 C609 0.929 . S
H622 C610 0.960 . S
H623 C610 0.962 . S
H624 C610 0.960 . S
H625 C611 0.961 . S
H626 C611 0.961 . S
H627 C611 0.961 . S
H628 C612 0.931 . S
H629 C617 0.930 . S
H630 C618 0.956 . S
H631 C618 0.961 . S
H632 C618 0.961 . S
H633 C619 0.958 . S
H634 C619 0.961 . S
H635 C619 0.960 . S
C636 C637 1.391 . S
C636 C638 1.394 . S
C636 H652 0.931 . S
C637 C636 1.391 . S
C637 C641 1.376 . S
C638 C636 1.394 . S
C638 C639 1.369 . S
C638 C642 1.531 . S
C639 C638 1.369 . S
C639 C640 1.410 . S
C639 C647 1.503 . S
C640 C639 1.410 . S
C640 C641 1.392 . S
C640 C643 1.511 . S
C641 C637 1.376 . S
C641 C640 1.392 . S
C641 H653 0.929 . S
C642 C638 1.531 . S
C642 H654 0.960 . S
C642 H655 0.962 . S
C642 H656 0.960 . S
C643 C640 1.511 . S
C643 H657 0.961 . S
C643 H658 0.961 . S
C643 H659 0.961 . S
C644 C645 1.370 . S
C644 C646 1.363 . S
C644 H660 0.931 . S
C645 C644 1.370 . S
C645 C649 1.408 . S
C646 C644 1.363 . S
C646 C647 1.370 . S
C646 C650 1.524 . S
C647 C639 1.503 . S
C647 C646 1.370 . S
C647 C648 1.403 . S
C648 C647 1.403 . S
C648 C649 1.404 . S
C648 C651 1.539 . S
C649 C645 1.408 . S
C649 C648 1.404 . S
C649 H661 0.930 . S
C650 C646 1.524 . S
C650 H662 0.956 . S
C650 H663 0.961 . S
C650 H664 0.961 . S
C651 C648 1.539 . S
C651 H665 0.958 . S
C651 H666 0.961 . S
C651 H667 0.960 . S
H652 C636 0.931 . S
H653 C641 0.929 . S
H654 C642 0.960 . S
H655 C642 0.962 . S
H656 C642 0.960 . S
H657 C643 0.961 . S
H658 C643 0.961 . S
H659 C643 0.961 . S
H660 C644 0.931 . S
H661 C649 0.930 . S
H662 C650 0.956 . S
H663 C650 0.961 . S
H664 C650 0.961 . S
H665 C651 0.958 . S
H666 C651 0.961 . S
H667 C651 0.960 . S
C668 C669 1.391 . S
C668 C670 1.394 . S
C668 H684 0.931 . S
C669 C668 1.391 . S
C669 C673 1.376 . S
C670 C668 1.394 . S
C670 C671 1.369 . S
C670 C674 1.531 . S
C671 C670 1.369 . S
C671 C672 1.410 . S
C671 C679 1.503 . S
C672 C671 1.410 . S
C672 C673 1.392 . S
C672 C675 1.511 . S
C673 C669 1.376 . S
C673 C672 1.392 . S
C673 H685 0.929 . S
C674 C670 1.531 . S
C674 H686 0.960 . S
C674 H687 0.962 . S
C674 H688 0.960 . S
C675 C672 1.511 . S
C675 H689 0.961 . S
C675 H690 0.961 . S
C675 H691 0.961 . S
C676 C677 1.370 . S
C676 C678 1.363 . S
C676 H692 0.931 . S
C677 C676 1.370 . S
C677 C681 1.408 . S
C678 C676 1.363 . S
C678 C679 1.370 . S
C678 C682 1.524 . S
C679 C671 1.503 . S
C679 C678 1.370 . S
C679 C680 1.403 . S
C680 C679 1.403 . S
C680 C681 1.404 . S
C680 C683 1.539 . S
C681 C677 1.408 . S
C681 C680 1.404 . S
C681 H693 0.930 . S
C682 C678 1.524 . S
C682 H694 0.956 . S
C682 H695 0.961 . S
C682 H696 0.961 . S
C683 C680 1.539 . S
C683 H697 0.958 . S
C683 H698 0.961 . S
C683 H699 0.960 . S
H684 C668 0.931 . S
H685 C673 0.929 . S
H686 C674 0.960 . S
H687 C674 0.962 . S
H688 C674 0.960 . S
H689 C675 0.961 . S
H690 C675 0.961 . S
H691 C675 0.961 . S
H692 C676 0.931 . S
H693 C681 0.930 . S
H694 C682 0.956 . S
H695 C682 0.961 . S
H696 C682 0.961 . S
H697 C683 0.958 . S
H698 C683 0.961 . S
H699 C683 0.960 . S
C700 C701 1.391 . S
C700 C702 1.394 . S
C700 H716 0.931 . S
C701 C700 1.391 . S
C701 C705 1.376 . S
C702 C700 1.394 . S
C702 C703 1.369 . S
C702 C706 1.531 . S
C703 C702 1.369 . S
C703 C704 1.410 . S
C703 C711 1.503 . S
C704 C703 1.410 . S
C704 C705 1.392 . S
C704 C707 1.511 . S
C705 C701 1.376 . S
C705 C704 1.392 . S
C705 H717 0.929 . S
C706 C702 1.531 . S
C706 H718 0.960 . S
C706 H719 0.962 . S
C706 H720 0.960 . S
C707 C704 1.511 . S
C707 H721 0.961 . S
C707 H722 0.961 . S
C707 H723 0.961 . S
C708 C709 1.370 . S
C708 C710 1.363 . S
C708 H724 0.931 . S
C709 C708 1.370 . S
C709 C713 1.408 . S
C710 C708 1.363 . S
C710 C711 1.370 . S
C710 C714 1.524 . S
C711 C703 1.503 . S
C711 C710 1.370 . S
C711 C712 1.403 . S
C712 C711 1.403 . S
C712 C713 1.404 . S
C712 C715 1.539 . S
C713 C709 1.408 . S
C713 C712 1.404 . S
C713 H725 0.930 . S
C714 C710 1.524 . S
C714 H726 0.956 . S
C714 H727 0.961 . S
C714 H728 0.961 . S
C715 C712 1.539 . S
C715 H729 0.958 . S
C715 H730 0.961 . S
C715 H731 0.960 . S
H716 C700 0.931 . S
H717 C705 0.929 . S
H718 C706 0.960 . S
H719 C706 0.962 . S
H720 C706 0.960 . S
H721 C707 0.961 . S
H722 C707 0.961 . S
H723 C707 0.961 . S
H724 C708 0.931 . S
H725 C713 0.930 . S
H726 C714 0.956 . S
H727 C714 0.961 . S
H728 C714 0.961 . S
H729 C715 0.958 . S
H730 C715 0.961 . S
H731 C715 0.960 . S
C732 C733 1.391 . S
C732 C734 1.394 . S
C732 H748 0.931 . S
C733 C732 1.391 . S
C733 C737 1.376 . S
C734 C732 1.394 . S
C734 C735 1.369 . S
C734 C738 1.531 . S
C735 C734 1.369 . S
C735 C736 1.410 . S
C735 C743 1.503 . S
C736 C735 1.410 . S
C736 C737 1.392 . S
C736 C739 1.511 . S
C737 C733 1.376 . S
C737 C736 1.392 . S
C737 H749 0.929 . S
C738 C734 1.531 . S
C738 H750 0.960 . S
C738 H751 0.962 . S
C738 H752 0.960 . S
C739 C736 1.511 . S
C739 H753 0.961 . S
C739 H754 0.961 . S
C739 H755 0.961 . S
C740 C741 1.370 . S
C740 C742 1.363 . S
C740 H756 0.931 . S
C741 C740 1.370 . S
C741 C745 1.408 . S
C742 C740 1.363 . S
C742 C743 1.370 . S
C742 C746 1.524 . S
C743 C735 1.503 . S
C743 C742 1.370 . S
C743 C744 1.403 . S
C744 C743 1.403 . S
C744 C745 1.404 . S
C744 C747 1.539 . S
C745 C741 1.408 . S
C745 C744 1.404 . S
C745 H757 0.930 . S
C746 C742 1.524 . S
C746 H758 0.956 1_554 S
C746 H759 0.961 . S
C746 H760 0.961 1_554 S
C747 C744 1.539 . S
C747 H761 0.958 . S
C747 H762 0.961 . S
C747 H763 0.960 . S
H748 C732 0.931 . S
H749 C737 0.929 . S
H750 C738 0.960 . S
H751 C738 0.962 . S
H752 C738 0.960 . S
H753 C739 0.961 . S
H754 C739 0.961 . S
H755 C739 0.961 . S
H756 C740 0.931 . S
H757 C745 0.930 . S
H758 C746 0.956 1_556 S
H759 C746 0.961 . S
H760 C746 0.961 1_556 S
H761 C747 0.958 . S
H762 C747 0.961 . S
H763 C747 0.960 . S
C764 C765 1.391 . S
C764 C766 1.394 . S
C764 H780 0.931 . S
C765 C764 1.391 . S
C765 C769 1.376 . S
C766 C764 1.394 . S
C766 C767 1.369 . S
C766 C770 1.531 . S
C767 C766 1.369 . S
C767 C768 1.410 1_655 S
C767 C775 1.503 1_655 S
C768 C767 1.410 1_455 S
C768 C769 1.392 1_455 S
C768 C771 1.511 . S
C769 C765 1.376 . S
C769 C768 1.392 1_655 S
C769 H781 0.929 1_655 S
C770 C766 1.531 . S
C770 H782 0.960 . S
C770 H783 0.962 . S
C770 H784 0.960 . S
C771 C768 1.511 . S
C771 H785 0.961 . S
C771 H786 0.961 . S
C771 H787 0.961 . S
C772 C773 1.370 . S
C772 C774 1.363 . S
C772 H788 0.931 . S
C773 C772 1.370 . S
C773 C777 1.408 . S
C774 C772 1.363 . S
C774 C775 1.370 . S
C774 C778 1.524 . S
C775 C767 1.503 1_455 S
C775 C774 1.370 . S
C775 C776 1.403 . S
C776 C775 1.403 . S
C776 C777 1.404 . S
C776 C779 1.539 . S
C777 C773 1.408 . S
C777 C776 1.404 . S
C777 H789 0.930 . S
C778 C774 1.524 . S
C778 H790 0.956 1_455 S
C778 H791 0.961 . S
C778 H792 0.961 . S
C779 C776 1.539 . S
C779 H793 0.958 1_455 S
C779 H794 0.961 . S
C779 H795 0.960 . S
H780 C764 0.931 . S
H781 C769 0.929 1_455 S
H782 C770 0.960 . S
H783 C770 0.962 . S
H784 C770 0.960 . S
H785 C771 0.961 . S
H786 C771 0.961 . S
H787 C771 0.961 . S
H788 C772 0.931 . S
H789 C777 0.930 . S
H790 C778 0.956 1_655 S
H791 C778 0.961 . S
H792 C778 0.961 . S
H793 C779 0.958 1_655 S
H794 C779 0.961 . S
H795 C779 0.960 . S
C796 C797 1.391 . S
C796 C798 1.394 . S
C796 H812 0.931 . S
C797 C796 1.391 . S
C797 C801 1.376 . S
C798 C796 1.394 . S
C798 C799 1.369 . S
C798 C802 1.531 . S
C799 C798 1.369 . S
C799 C800 1.410 1_545 S
C799 C807 1.503 1_545 S
C800 C799 1.410 1_565 S
C800 C801 1.392 1_565 S
C800 C803 1.511 . S
C801 C797 1.376 . S
C801 C800 1.392 1_545 S
C801 H813 0.929 . S
C802 C798 1.531 . S
C802 H814 0.960 . S
C802 H815 0.962 . S
C802 H816 0.960 . S
C803 C800 1.511 . S
C803 H817 0.961 . S
C803 H818 0.961 . S
C803 H819 0.961 . S
C804 C805 1.370 . S
C804 C806 1.363 1_565 S
C804 H820 0.931 1_565 S
C805 C804 1.370 . S
C805 C809 1.408 . S
C806 C804 1.363 1_545 S
C806 C807 1.370 1_545 S
C806 C810 1.524 . S
C807 C799 1.503 1_565 S
C807 C806 1.370 1_565 S
C807 C808 1.403 . S
C808 C807 1.403 . S
C808 C809 1.404 . S
C808 C811 1.539 . S
C809 C805 1.408 . S
C809 C808 1.404 . S
C809 H821 0.930 . S
C810 C806 1.524 . S
C810 H822 0.956 . S
C810 H823 0.961 . S
C810 H824 0.961 . S
C811 C808 1.539 . S
C811 H825 0.958 . S
C811 H826 0.961 . S
C811 H827 0.960 . S
H812 C796 0.931 . S
H813 C801 0.929 . S
H814 C802 0.960 . S
H815 C802 0.962 . S
H816 C802 0.960 . S
H817 C803 0.961 . S
H818 C803 0.961 . S
H819 C803 0.961 . S
H820 C804 0.931 1_545 S
H821 C809 0.930 . S
H822 C810 0.956 . S
H823 C810 0.961 . S
H824 C810 0.961 . S
H825 C811 0.958 . S
H826 C811 0.961 . S
H827 C811 0.960 . S
C828 C829 1.391 . S
C828 C830 1.394 . S
C828 H844 0.931 . S
C829 C828 1.391 . S
C829 C833 1.376 . S
C830 C828 1.394 . S
C830 C831 1.369 . S
C830 C834 1.531 . S
C831 C830 1.369 . S
C831 C832 1.410 . S
C831 C839 1.503 . S
C832 C831 1.410 . S
C832 C833 1.392 . S
C832 C835 1.511 . S
C833 C829 1.376 . S
C833 C832 1.392 . S
C833 H845 0.929 . S
C834 C830 1.531 . S
C834 H846 0.960 . S
C834 H847 0.962 . S
C834 H848 0.960 . S
C835 C832 1.511 . S
C835 H849 0.961 . S
C835 H850 0.961 . S
C835 H851 0.961 . S
C836 C837 1.370 . S
C836 C838 1.363 . S
C836 H852 0.931 . S
C837 C836 1.370 . S
C837 C841 1.408 . S
C838 C836 1.363 . S
C838 C839 1.370 . S
C838 C842 1.524 . S
C839 C831 1.503 . S
C839 C838 1.370 . S
C839 C840 1.403 . S
C840 C839 1.403 . S
C840 C841 1.404 . S
C840 C843 1.539 . S
C841 C837 1.408 . S
C841 C840 1.404 . S
C841 H853 0.930 . S
C842 C838 1.524 . S
C842 H854 0.956 . S
C842 H855 0.961 . S
C842 H856 0.961 . S
C843 C840 1.539 . S
C843 H857 0.958 . S
C843 H858 0.961 . S
C843 H859 0.960 . S
H844 C828 0.931 . S
H845 C833 0.929 . S
H846 C834 0.960 . S
H847 C834 0.962 . S
H848 C834 0.960 . S
H849 C835 0.961 . S
H850 C835 0.961 . S
H851 C835 0.961 . S
H852 C836 0.931 . S
H853 C841 0.930 . S
H854 C842 0.956 . S
H855 C842 0.961 . S
H856 C842 0.961 . S
H857 C843 0.958 . S
H858 C843 0.961 . S
H859 C843 0.960 . S
C860 C861 1.391 . S
C860 C862 1.394 . S
C860 H876 0.931 . S
C861 C860 1.391 . S
C861 C865 1.376 . S
C862 C860 1.394 . S
C862 C863 1.369 . S
C862 C866 1.531 . S
C863 C862 1.369 . S
C863 C864 1.410 . S
C863 C871 1.503 1_455 S
C864 C863 1.410 . S
C864 C865 1.392 . S
C864 C867 1.511 1_556 S
C865 C861 1.376 . S
C865 C864 1.392 . S
C865 H877 0.929 . S
C866 C862 1.531 . S
C866 H878 0.960 . S
C866 H879 0.962 1_455 S
C866 H880 0.960 . S
C867 C864 1.511 1_554 S
C867 H881 0.961 . S
C867 H882 0.952 1_455 S
C867 H883 0.961 . S
C868 C869 1.370 . S
C868 C870 1.363 . S
C868 H884 0.931 . S
C869 C868 1.370 . S
C869 C873 1.408 . S
C870 C868 1.363 . S
C870 C871 1.370 . S
C870 C874 1.524 . S
C871 C863 1.503 1_655 S
C871 C870 1.370 . S
C871 C872 1.403 1_655 S
C872 C871 1.403 1_455 S
C872 C873 1.404 1_455 S
C872 C875 1.539 . S
C873 C869 1.408 . S
C873 C872 1.404 1_655 S
C873 H885 0.930 1_655 S
C874 C870 1.524 . S
C874 H886 0.956 . S
C874 H887 0.961 . S
C874 H888 0.961 . S
C875 C872 1.539 . S
C875 H889 0.958 . S
C875 H890 0.961 . S
C875 H891 0.960 . S
H876 C860 0.931 . S
H877 C865 0.929 . S
H878 C866 0.960 . S
H879 C866 0.962 1_655 S
H880 C866 0.960 . S
H881 C867 0.961 . S
H882 C867 0.952 1_655 S
H883 C867 0.961 . S
H884 C868 0.931 . S
H885 C873 0.930 1_455 S
H886 C874 0.956 . S
H887 C874 0.961 . S
H888 C874 0.961 . S
H889 C875 0.958 . S
H890 C875 0.961 . S
H891 C875 0.960 . S
C892 C893 1.391 . S
C892 C894 1.394 . S
C892 H908 0.931 . S
C893 C892 1.391 . S
C893 C897 1.376 . S
C894 C892 1.394 . S
C894 C895 1.369 . S
C894 C898 1.531 . S
C895 C894 1.369 . S
C895 C896 1.410 1_565 S
C895 C903 1.503 1_565 S
C896 C895 1.410 1_545 S
C896 C897 1.392 1_545 S
C896 C899 1.511 . S
C897 C893 1.376 . S
C897 C896 1.392 1_565 S
C897 H909 0.929 1_565 S
C898 C894 1.531 . S
C898 H910 0.960 . S
C898 H911 0.962 . S
C898 H912 0.960 . S
C899 C896 1.511 . S
C899 H913 0.961 . S
C899 H914 0.961 . S
C899 H915 0.961 . S
C900 C901 1.370 . S
C900 C902 1.363 . S
C900 H916 0.931 . S
C901 C900 1.370 . S
C901 C905 1.408 . S
C902 C900 1.363 . S
C902 C903 1.370 . S
C902 C906 1.524 . S
C903 C895 1.503 1_545 S
C903 C902 1.370 . S
C903 C904 1.403 1_545 S
C904 C903 1.403 1_565 S
C904 C905 1.404 1_565 S
C904 C907 1.539 . S
C905 C901 1.408 . S
C905 C904 1.404 1_545 S
C905 H917 0.930 . S
C906 C902 1.524 . S
C906 H918 0.956 . S
C906 H919 0.961 . S
C906 H920 0.961 . S
C907 C904 1.539 . S
C907 H921 0.958 . S
C907 H922 0.961 . S
C907 H923 0.960 . S
H908 C892 0.931 . S
H909 C897 0.929 1_545 S
H910 C898 0.960 . S
H911 C898 0.962 . S
H912 C898 0.960 . S
H913 C899 0.961 . S
H914 C899 0.961 . S
H915 C899 0.961 . S
H916 C900 0.931 . S
H917 C905 0.930 . S
H918 C906 0.956 . S
H919 C906 0.961 . S
H920 C906 0.961 . S
H921 C907 0.958 . S
H922 C907 0.961 . S
H923 C907 0.960 . S
C157 C96 1.146 . S
C165 C5 1.151 . S
C189 C18 1.274 . S
C197 C104 1.270 . S
C221 C26 1.294 . S
C229 C122 1.292 . S
C253 C44 1.118 . S
C261 C135 1.142 . S
C285 C143 1.308 . S
C293 C57 1.291 . S
C317 C83 1.295 . S
C325 C65 1.304 . S
C349 C140 1.090 . S
C357 C10 1.111 . S
C381 C23 1.156 . S
C389 C151 1.173 . S
C413 C34 1.146 . S
C421 C88 1.174 . S
C445 C101 1.118 . S
C453 C49 1.102 . S
C477 C112 1.191 . S
C485 C62 1.173 . S
C509 C127 1.191 . S
C517 C73 1.167 . S
C541 C8 1.569 . S
C549 C114 1.570 . S
C573 C21 1.566 . S
C581 C125 1.561 . S
C605 C138 1.578 . S
C613 C36 1.576 . S
C637 C47 1.551 . S
C645 C153 1.578 . S
C669 C86 1.574 . S
C677 C60 1.555 . S
C701 C99 1.587 . S
C709 C75 1.571 . S
C733 C39 1.286 . S
C741 C0 1.256 . S
C765 C52 1.244 . S
C773 C13 1.247 . S
C797 C31 1.410 . S
C805 C70 1.353 . S
C829 C78 1.199 . S
C837 C117 1.273 . S
C861 C91 1.203 . S
C869 C130 1.283 . S
C893 C148 1.364 . S
C901 C109 1.382 . S
