# Generated by pormake.
# Topology vby, (6)-cn, num edge types: 1
# Building blocks:
#     Node 0, Type 0, BuildingBlock: INOVEN_clean_sbu_0, # of connection points: 6
#     Node 1, Type 0, BuildingBlock: INOVEN_clean_sbu_0, # of connection points: 6
#     Node 2, Type 0, BuildingBlock: INOVEN_clean_sbu_0, # of connection points: 6
#     Node 3, Type 0, BuildingBlock: INOVEN_clean_sbu_0, # of connection points: 6
#     Node 4, Type 0, BuildingBlock: INOVEN_clean_sbu_0, # of connection points: 6
#     Node 5, Type 0, BuildingBlock: INOVEN_clean_sbu_0, # of connection points: 6
#     Node 6, Type 0, BuildingBlock: INOVEN_clean_sbu_0, # of connection points: 6
#     Node 7, Type 0, BuildingBlock: INOVEN_clean_sbu_0, # of connection points: 6
#     Edge 8, Type (0, 0), BuildingBlock: XUDNAN_clean_linker_2, # of connection points: 2
#     Edge 9, Type (0, 0), BuildingBlock: XUDNAN_clean_linker_2, # of connection points: 2
#     Edge 10, Type (0, 0), BuildingBlock: XUDNAN_clean_linker_2, # of connection points: 2
#     Edge 11, Type (0, 0), BuildingBlock: XUDNAN_clean_linker_2, # of connection points: 2
#     Edge 12, Type (0, 0), BuildingBlock: XUDNAN_clean_linker_2, # of connection points: 2
#     Edge 13, Type (0, 0), BuildingBlock: XUDNAN_clean_linker_2, # of connection points: 2
#     Edge 14, Type (0, 0), BuildingBlock: XUDNAN_clean_linker_2, # of connection points: 2
#     Edge 15, Type (0, 0), BuildingBlock: XUDNAN_clean_linker_2, # of connection points: 2
#     Edge 16, Type (0, 0), BuildingBlock: XUDNAN_clean_linker_2, # of connection points: 2
#     Edge 17, Type (0, 0), BuildingBlock: XUDNAN_clean_linker_2, # of connection points: 2
#     Edge 18, Type (0, 0), BuildingBlock: XUDNAN_clean_linker_2, # of connection points: 2
#     Edge 19, Type (0, 0), BuildingBlock: XUDNAN_clean_linker_2, # of connection points: 2
#     Edge 20, Type (0, 0), BuildingBlock: XUDNAN_clean_linker_2, # of connection points: 2
#     Edge 21, Type (0, 0), BuildingBlock: XUDNAN_clean_linker_2, # of connection points: 2
#     Edge 22, Type (0, 0), BuildingBlock: XUDNAN_clean_linker_2, # of connection points: 2
#     Edge 23, Type (0, 0), BuildingBlock: XUDNAN_clean_linker_2, # of connection points: 2
#     Edge 24, Type (0, 0), BuildingBlock: XUDNAN_clean_linker_2, # of connection points: 2
#     Edge 25, Type (0, 0), BuildingBlock: XUDNAN_clean_linker_2, # of connection points: 2
#     Edge 26, Type (0, 0), BuildingBlock: XUDNAN_clean_linker_2, # of connection points: 2
#     Edge 27, Type (0, 0), BuildingBlock: XUDNAN_clean_linker_2, # of connection points: 2
#     Edge 28, Type (0, 0), BuildingBlock: XUDNAN_clean_linker_2, # of connection points: 2
#     Edge 29, Type (0, 0), BuildingBlock: XUDNAN_clean_linker_2, # of connection points: 2
#     Edge 30, Type (0, 0), BuildingBlock: XUDNAN_clean_linker_2, # of connection points: 2
#     Edge 31, Type (0, 0), BuildingBlock: XUDNAN_clean_linker_2, # of connection points: 2
# Relax obj value: 0.201
# Max RMSD: 0.220
# Mean RMSD: 0.220
data_MOF--net-vby--node1-INOVEN_clean_sbu_0--edge1-XUDNAN_clean_linker_2
_symmetry_space_group_name_H-M    P1
_symmetry_Int_Tables_number       1
_symmetry_cell_setting            triclinic
loop_
_symmetry_equiv_pos_as_xyz
'x, y, z'
_cell_length_a     15.622875
_cell_length_b     103.82576
_cell_length_c     29.439193
_cell_angle_alpha  89.949927
_cell_angle_beta   83.782697
_cell_angle_gamma 89.98216
loop_
_atom_site_label
_atom_site_type_symbol
_atom_site_fract_x
_atom_site_fract_y
_atom_site_fract_z
_atom_type_partial_charge
Gd0 Gd 0.08672 0.40113 0.00601 0.0
Gd1 Gd 0.08011 0.37254 0.01039 0.0
C2 C 0.89976 0.3871 0.0104 0.0
C3 C 0.08355 0.4256 0.98614 0.0
C4 C 0.05939 0.43918 0.99783 0.0
C5 C 0.11343 0.44709 0.0212 0.0
C6 C 0.98926 0.4449 0.97948 0.0
C7 C 1.02776 0.46611 0.00727 0.0
C8 C 0.97366 0.45815 0.98413 0.0
C9 C 0.09776 0.46037 0.0259 0.0
C10 C 0.08235 0.39174 0.09341 0.0
C11 C 0.26559 0.38666 0.9974 0.0
C12 C 0.08853 0.34781 0.02394 0.0
C13 C 0.1382 0.33566 0.02735 0.0
C14 C 0.15693 0.32775 0.98866 0.0
C15 C 0.15383 0.33079 0.07019 0.0
C16 C 0.1979 0.30998 0.03622 0.0
C17 C 0.18385 0.31817 0.07452 0.0
C18 C 0.18651 0.31509 0.99301 0.0
C19 C 0.06066 0.38199 0.92632 0.0
O20 O 0.94711 0.39737 0.99847 0.0
O21 O 0.93579 0.37638 0.02398 0.0
O22 O 0.14379 0.42014 0.0069 0.0
O23 O 1.02467 0.41744 0.97599 0.0
O24 O 0.12151 0.40213 0.07863 0.0
O25 O 0.04096 0.38734 0.06239 0.0
O26 O 0.22267 0.37668 0.01619 0.0
O27 O 0.22333 0.39634 0.98139 0.0
O28 O 0.08823 0.35313 0.98379 0.0
O29 O 0.08345 0.35624 0.05719 0.0
O30 O 1.01984 0.37225 0.94533 0.0
O31 O 0.11473 0.38634 0.95195 0.0
H32 H 0.16923 0.44309 0.03496 0.0
H33 H 0.94774 0.43921 0.96019 0.0
H34 H 0.92016 0.4622 0.96843 0.0
H35 H 0.14048 0.46613 0.04422 0.0
H36 H 0.14444 0.33109 0.95514 0.0
H37 H 0.13934 0.33652 0.10078 0.0
H38 H 0.19364 0.31471 0.10828 0.0
H39 H 0.19585 0.30912 0.96275 0.0
Gd40 Gd 0.99754 0.65607 0.01226 0.0
Gd41 Gd 0.99101 0.62773 0.01119 0.0
C42 C 0.80899 0.64205 0.01898 0.0
C43 C 0.98762 0.68078 0.99793 0.0
C44 C 0.93856 0.69311 0.00295 0.0
C45 C 0.96971 0.70318 0.02853 0.0
C46 C 0.86896 0.69565 0.97777 0.0
C47 C 0.86783 0.71837 1.00061 0.0
C48 C 0.83374 0.70808 0.97689 0.0
C49 C 0.93495 0.71563 0.02741 0.0
C50 C 1.01586 0.64571 0.09536 0.0
C51 C 0.17605 0.64216 0.00554 0.0
C52 C 1.00274 0.60298 0.01867 0.0
C53 C 1.0096 0.58875 0.02289 0.0
C54 C 0.05965 0.58147 0.9895 0.0
C55 C 0.9604 0.58221 0.05846 0.0
C56 C 1.00608 0.56142 0.02546 0.0
C57 C 0.95851 0.56874 0.05965 0.0
C58 C 0.05833 0.56794 0.99092 0.0
C59 C 0.97878 0.63887 0.92847 0.0
O60 O 0.85512 0.65271 0.01373 0.0
O61 O 0.84634 0.63071 0.02223 0.0
O62 O 1.01619 0.67579 0.0341 0.0
O63 O 0.96611 0.67205 0.96917 0.0
O64 O 0.05478 0.65589 0.07837 0.0
O65 O 0.9636 0.64158 0.06848 0.0
O66 O 0.13184 0.63194 0.02168 0.0
O67 O 0.13566 0.65209 0.98986 0.0
O68 O 0.03883 0.60933 0.98331 0.0
O69 O 0.96281 0.61019 0.05077 0.0
O70 O 0.93243 0.62928 0.94471 0.0
O71 O 1.03079 0.64213 0.95638 0.0
H72 H 1.02396 0.70158 0.04785 0.0
H73 H 0.84337 0.68815 0.95754 0.0
H74 H 0.78072 0.70965 0.95671 0.0
H75 H 0.96381 0.72321 0.04586 0.0
H76 H 0.09799 0.58621 0.9615 0.0
H77 H 0.92096 0.5875 0.08465 0.0
H78 H 0.91822 0.56401 0.08697 0.0
H79 H 0.09518 0.5626 0.96391 0.0
Gd80 Gd 0.08602 0.65651 0.50632 0.0
Gd81 Gd 0.0937 0.62798 0.50918 0.0
C82 C 0.27177 0.64227 0.49968 0.0
C83 C 0.09297 0.68138 0.51687 0.0
C84 C 0.14071 0.69374 0.51943 0.0
C85 C 0.15548 0.70172 0.48062 0.0
C86 C 0.15839 0.6987 0.56181 0.0
C87 C 0.19675 0.71968 0.52728 0.0
C88 C 0.18659 0.71143 0.56561 0.0
C89 C 0.18327 0.7145 0.48445 0.0
C90 C 0.07568 0.64531 0.4239 0.0
C91 C 0.90566 0.64171 0.5105 0.0
C92 C 0.09278 0.60321 0.49572 0.0
C93 C 0.06461 0.5898 0.50662 0.0
C94 C 0.06865 0.58448 0.55022 0.0
C95 C 0.04552 0.58165 0.471 0.0
C96 C 0.03746 0.563 0.52195 0.0
C97 C 1.03205 0.56842 0.47851 0.0
C98 C 0.05544 0.57127 0.55775 0.0
C99 C 0.08488 0.63934 0.59365 0.0
O100 O 0.22842 0.65266 0.51472 0.0
O101 O 0.23039 0.63235 0.485 0.0
O102 O 0.09365 0.6757 0.47727 0.0
O103 O 0.08811 0.67323 0.55108 0.0
O104 O 1.03495 0.6556 0.43836 0.0
O105 O 0.1262 0.6417 0.45246 0.0
O106 O 0.9529 0.6312 0.50279 0.0
O107 O 0.94182 0.65291 0.51857 0.0
O108 O 0.14071 0.60899 0.52316 0.0
O109 O 0.04302 0.61113 0.47604 0.0
O110 O 0.13091 0.62933 0.58143 0.0
O111 O 0.04326 0.64256 0.56109 0.0
H112 H 0.1413 0.69832 0.44748 0.0
H113 H 0.14698 0.69292 0.59251 0.0
H114 H 0.19816 0.71491 0.59905 0.0
H115 H 0.18963 0.72049 0.45416 0.0
H116 H 0.08464 0.59045 0.57825 0.0
H117 H 0.04345 0.58546 0.43686 0.0
H118 H 1.01746 0.56245 0.4502 0.0
H119 H 0.0618 0.56749 0.5915 0.0
Gd120 Gd 0.99064 0.40132 0.51248 0.0
Gd121 Gd 0.99565 0.37296 0.51924 0.0
C122 C 0.17627 0.38667 0.51116 0.0
C123 C 1.00255 0.42605 0.52022 0.0
C124 C 1.00925 0.44026 0.52382 0.0
C125 C 1.005 0.44816 0.48529 0.0
C126 C 1.01691 0.44609 0.56613 0.0
C127 C 1.01166 0.46753 0.53193 0.0
C128 C 1.01897 0.45951 0.57006 0.0
C129 C 1.00585 0.46163 0.48929 0.0
C130 C 0.98498 0.38943 0.43057 0.0
C131 C 0.80878 0.38718 0.52003 0.0
C132 C 0.98626 0.34798 0.51253 0.0
C133 C 0.93668 0.33573 0.51271 0.0
C134 C 0.94963 0.32624 0.54543 0.0
C135 C 0.88689 0.33257 0.47733 0.0
C136 C 0.87053 0.31034 0.50525 0.0
C137 C 0.85377 0.32008 0.47386 0.0
C138 C 0.91706 0.31373 0.54181 0.0
C139 C 1.00795 0.38526 0.59998 0.0
O140 O 0.13287 0.39748 0.5208 0.0
O141 O 0.13617 0.37602 0.50153 0.0
O142 O 1.01605 0.42008 0.48108 0.0
O143 O 0.98435 0.4185 0.55561 0.0
O144 O 0.9414 0.3996 0.44397 0.0
O145 O 1.03221 0.38608 0.46098 0.0
O146 O 0.85419 0.37644 0.5149 0.0
O147 O 0.84645 0.39846 0.52377 0.0
O148 O 0.99082 0.354 0.55113 0.0
O149 O 0.98715 0.35582 0.47761 0.0
O150 O 0.05333 0.37536 0.58559 0.0
O151 O 0.95623 0.38814 0.57115 0.0
H152 H 0.99878 0.44394 0.45217 0.0
H153 H 1.021 0.44027 0.59637 0.0
H154 H 1.02607 0.46358 0.60327 0.0
H155 H 0.9993 0.46738 0.45917 0.0
H156 H 0.98867 0.32833 0.57278 0.0
H157 H 0.87583 0.3396 0.45139 0.0
H158 H 0.81651 0.31801 0.4458 0.0
H159 H 0.93224 0.30658 0.56649 0.0
Gd160 Gd 0.59697 0.9012 0.00549 0.0
Gd161 Gd 0.58705 0.87318 0.01553 0.0
C162 C 0.40885 0.88751 0.01816 0.0
C163 C 0.59486 0.92554 0.98294 0.0
C164 C 0.57006 0.93906 0.99428 0.0
C165 C 0.55124 0.9433 0.03951 0.0
C166 C 0.57629 0.94821 0.95897 0.0
C167 C 0.55157 0.96584 0.01388 0.0
C168 C 0.56751 0.96141 0.96853 0.0
C169 C 0.54126 0.95652 0.04914 0.0
C170 C 0.5914 0.89324 0.09548 0.0
C171 C 0.77484 0.88664 0.00594 0.0
C172 C 0.59522 0.84897 0.03843 0.0
C173 C 0.63826 0.83634 0.02963 0.0
C174 C 0.67697 0.8328 0.98618 0.0
C175 C 0.63273 0.82717 0.06485 0.0
C176 C 0.69793 0.81071 0.01273 0.0
C177 C 0.66185 0.81452 0.05659 0.0
C178 C 0.707 0.82017 0.97793 0.0
C179 C 0.58275 0.88109 0.92751 0.0
O180 O 0.45417 0.89717 0.99827 0.0
O181 O 0.44868 0.87799 0.03688 0.0
O182 O 0.65239 0.92028 0.00594 0.0
O183 O 0.53686 0.91732 0.97248 0.0
O184 O 0.63562 0.90271 0.07674 0.0
O185 O 0.5475 0.88869 0.06562 0.0
O186 O 0.72665 0.8771 0.0237 0.0
O187 O 0.73869 0.8965 0.987 0.0
O188 O 0.54865 0.85334 0.00758 0.0
O189 O 0.63638 0.85809 0.05754 0.0
O190 O 0.54348 0.87112 0.94567 0.0
O191 O 0.63088 0.88587 0.95509 0.0
H192 H 0.54656 0.93645 0.06745 0.0
H193 H 0.59183 0.94518 0.92383 0.0
H194 H 0.5771 0.96811 0.94029 0.0
H195 H 0.52677 0.95939 0.08446 0.0
H196 H 0.68215 0.83969 0.95837 0.0
H197 H 0.60264 0.82966 0.0986 0.0
H198 H 0.65256 0.80764 0.08429 0.0
H199 H 0.73632 0.8178 0.94396 0.0
Gd200 Gd 0.49455 0.15637 0.01972 0.0
Gd201 Gd 0.49379 0.1277 0.01672 0.0
C202 C 0.31348 0.14214 0.01906 0.0
C203 C 0.50544 0.18112 0.00658 0.0
C204 C 0.45976 0.19361 0.01507 0.0
C205 C 0.44118 0.19865 0.05932 0.0
C206 C 0.4408 0.20117 0.97773 0.0
C207 C 0.38667 0.21863 0.02857 0.0
C208 C 0.40463 0.21348 0.98434 0.0
C209 C 0.40548 0.21099 0.06594 0.0
C210 C 0.46849 0.14505 0.10514 0.0
C211 C 0.67884 0.14209 0.01487 0.0
C212 C 0.50475 0.10295 0.02332 0.0
C213 C 0.51148 0.08868 0.02646 0.0
C214 C 0.53962 0.08124 0.98773 0.0
C215 C 0.48749 0.08232 0.06798 0.0
C216 C 0.52189 0.06138 0.03243 0.0
C217 C 0.49266 0.06888 0.07094 0.0
C218 C 0.54447 0.06776 0.99062 0.0
C219 C 0.48749 0.13941 0.93332 0.0
O220 O 0.35995 0.1521 0.00326 0.0
O221 O 0.35116 0.13197 0.03534 0.0
O222 O 0.53518 0.17522 0.04099 0.0
O223 O 0.47501 0.17314 0.97788 0.0
O224 O 0.42731 0.15498 0.09179 0.0
O225 O 0.51917 0.14144 0.07129 0.0
O226 O 0.63643 0.13111 0.02283 0.0
O227 O 0.63804 0.15297 0.00801 0.0
O228 O 0.54178 0.10942 0.98841 0.0
O229 O 0.46362 0.11003 0.05552 0.0
O230 O 0.4418 0.12951 0.9475 0.0
O231 O 0.53286 0.14256 0.96433 0.0
H232 H 0.45563 0.19318 0.08887 0.0
H233 H 0.45512 0.19759 0.94318 0.0
H234 H 0.39029 0.21892 0.95469 0.0
H235 H 0.39437 0.21463 0.10052 0.0
H236 H 0.55782 0.08584 0.95507 0.0
H237 H 0.46488 0.08773 0.09837 0.0
H238 H 0.47323 0.06434 0.10356 0.0
H239 H 0.56775 0.06236 0.96031 0.0
Gd240 Gd 0.5725 0.15581 0.51644 0.0
Gd241 Gd 0.58158 0.12782 0.51299 0.0
C242 C 0.76242 0.14159 0.50469 0.0
C243 C 0.58337 0.18028 0.53565 0.0
C244 C 0.627 0.19284 0.52406 0.0
C245 C 0.60909 0.19988 0.48538 0.0
C246 C 0.67762 0.19872 0.55495 0.0
C247 C 0.68997 0.21847 0.50911 0.0
C248 C 0.70892 0.21134 0.54755 0.0
C249 C 0.63965 0.21248 0.47817 0.0
C250 C 0.56423 0.14663 0.42986 0.0
C251 C 0.39645 0.14141 0.51467 0.0
C252 C 0.5693 0.10306 0.50562 0.0
C253 C 0.56167 0.08882 0.50222 0.0
C254 C 0.53086 0.0814 0.54059 0.0
C255 C 0.58794 0.08245 0.46102 0.0
C256 C 0.55079 0.06154 0.49621 0.0
C257 C 0.58275 0.06902 0.45808 0.0
C258 C 0.52556 0.06794 0.53766 0.0
C259 C 0.59177 0.13784 0.59745 0.0
O260 O 0.71833 0.15225 0.51623 0.0
O261 O 0.72246 0.13085 0.49614 0.0
O262 O 0.53373 0.17555 0.50688 0.0
O263 O 0.6244 0.17131 0.55579 0.0
O264 O 0.52554 0.15678 0.44704 0.0
O265 O 0.61337 0.14236 0.45801 0.0
O266 O 0.44662 0.13206 0.49696 0.0
O267 O 0.43073 0.15126 0.53457 0.0
O268 O 0.53781 0.1094 0.54194 0.0
O269 O 0.60505 0.11028 0.47238 0.0
O270 O 0.64235 0.12906 0.57859 0.0
O271 O 0.53848 0.14135 0.57047 0.0
H272 H 0.56904 0.19584 0.46118 0.0
H273 H 0.69143 0.19366 0.58551 0.0
H274 H 0.74796 0.21548 0.57202 0.0
H275 H 0.62147 0.21764 0.44872 0.0
H276 H 0.51081 0.086 0.57301 0.0
H277 H 0.61284 0.08785 0.43096 0.0
H278 H 0.60457 0.06448 0.42578 0.0
H279 H 0.50006 0.06258 0.56768 0.0
Gd280 Gd 0.47816 0.90161 0.52417 0.0
Gd281 Gd 0.4896 0.87401 0.51227 0.0
C282 C 0.66707 0.88819 0.50759 0.0
C283 C 0.47984 0.92583 0.54817 0.0
C284 C 0.50481 0.93934 0.53723 0.0
C285 C 0.53076 0.94347 0.49245 0.0
C286 C 0.49138 0.94859 0.57198 0.0
C287 C 0.52362 0.96608 0.51714 0.0
C288 C 0.5003 0.96177 0.56216 0.0
C289 C 0.5409 0.95667 0.48261 0.0
C290 C 0.47708 0.89474 0.43402 0.0
C291 C 0.30063 0.88696 0.52407 0.0
C292 C 0.47988 0.84975 0.48999 0.0
C293 C 0.43569 0.83721 0.50022 0.0
C294 C 0.42288 0.83217 0.54476 0.0
C295 C 0.41382 0.82954 0.46389 0.0
C296 C 0.36909 0.81186 0.5161 0.0
C297 C 0.38093 0.81706 0.47165 0.0
C298 C 0.3903 0.81966 0.55255 0.0
C299 C 0.49662 0.88143 0.60077 0.0
O300 O 0.62254 0.89781 0.52821 0.0
O301 O 0.62603 0.87883 0.48898 0.0
O302 O 0.42279 0.9207 0.52466 0.0
O303 O 0.53768 0.91754 0.55837 0.0
O304 O 0.43159 0.9036 0.45564 0.0
O305 O 0.52502 0.88972 0.46134 0.0
O306 O 0.3498 0.87755 0.50638 0.0
O307 O 0.33611 0.89693 0.54258 0.0
O308 O 0.52917 0.85417 0.51946 0.0
O309 O 0.43837 0.85889 0.47112 0.0
O310 O 0.53827 0.87189 0.58104 0.0
O311 O 0.44637 0.88617 0.57422 0.0
H312 H 0.54089 0.93653 0.46492 0.0
H313 H 0.47013 0.94565 0.6067 0.0
H314 H 0.48509 0.96854 0.58975 0.0
H315 H 0.56101 0.95947 0.44766 0.0
H316 H 0.43982 0.83776 0.57351 0.0
H317 H 0.42377 0.83314 0.42916 0.0
H318 H 0.36448 0.81151 0.44272 0.0
H319 H 0.38375 0.81602 0.58722 0.0
H320 H 0.38473 0.37186 0.04062 0.0
H321 H 0.36603 0.40354 0.94553 0.0
H322 H 0.52226 0.40636 0.93934 0.0
H323 H 0.55576 0.38621 0.09867 0.0
H324 H 0.61165 0.37129 0.10597 0.0
H325 H 0.49694 0.37124 0.10323 0.0
H326 H 0.51623 0.35496 0.03633 0.0
H327 H 0.631 0.35497 0.03891 0.0
H328 H 0.58818 0.3588 0.98607 0.0
H329 H 0.67693 0.4065 0.94302 0.0
H330 H 0.82752 0.40396 0.95614 0.0
H331 H 0.75889 0.37203 0.04865 0.0
C332 C 0.41379 0.37928 0.01815 0.0
C333 C 0.36198 0.38742 0.99331 0.0
C334 C 0.40306 0.39714 0.9649 0.0
C335 C 0.49233 0.39885 0.96107 0.0
C336 C 0.54116 0.3908 0.98589 0.0
C337 C 0.50417 0.3812 0.01395 0.0
C338 C 0.57371 0.37417 0.03723 0.0
C339 C 0.55858 0.37583 0.08938 0.0
C340 C 0.57749 0.35987 0.02383 0.0
C341 C 0.65493 0.3813 0.01738 0.0
C342 C 0.63336 0.39088 0.98806 0.0
C343 C 0.69475 0.39904 0.96591 0.0
C344 C 0.78064 0.39752 0.97391 0.0
C345 C 0.80614 0.38784 0.00376 0.0
C346 C 0.742 0.3795 0.02557 0.0
H347 H 0.30545 0.62326 0.00622 0.0
H348 H 0.25986 0.66454 0.01416 0.0
H349 H 0.41281 0.66825 0.02014 0.0
H350 H 0.4712 0.62208 0.08455 0.0
H351 H 0.53777 0.61046 0.05184 0.0
H352 H 0.42303 0.61057 0.04918 0.0
H353 H 0.44778 0.61286 0.96118 0.0
H354 H 0.56259 0.61274 0.96355 0.0
H355 H 0.51296 0.62592 0.93635 0.0
H356 H 0.5662 0.66814 0.02545 0.0
H357 H 0.71976 0.6644 0.02712 0.0
H358 H 0.67995 0.62317 0.0135 0.0
C359 C 0.32798 0.63305 0.00941 0.0
C360 C 0.27 0.64362 0.00951 0.0
C361 C 0.30235 0.65627 0.01345 0.0
C362 C 0.38944 0.65851 0.01711 0.0
C363 C 0.44481 0.64802 0.01648 0.0
C364 C 0.41636 0.63553 0.01244 0.0
C365 C 0.49237 0.62621 0.0112 0.0
C366 C 0.48035 0.61677 0.05161 0.0
C367 C 0.50465 0.619 0.96534 0.0
C368 C 0.567 0.63548 0.01582 0.0
C369 C 0.53677 0.64798 0.01883 0.0
C370 C 0.59092 0.6584 0.02308 0.0
C371 C 0.67872 0.65612 0.02397 0.0
C372 C 0.71328 0.64347 0.0205 0.0
C373 C 0.65603 0.63295 0.01659 0.0
H374 H 0.77593 0.66072 0.51205 0.0
H375 H 0.81806 0.61928 0.5093 0.0
H376 H 0.66459 0.61572 0.50663 0.0
H377 H 0.56875 0.65972 0.58344 0.0
H378 H 0.51971 0.67234 0.55306 0.0
H379 H 0.63464 0.67221 0.55507 0.0
H380 H 0.65845 0.67268 0.4667 0.0
H381 H 0.54362 0.6728 0.46437 0.0
H382 H 0.60898 0.6605 0.43462 0.0
H383 H 0.5113 0.61588 0.50244 0.0
H384 H 0.35816 0.61977 0.49906 0.0
H385 H 0.40096 0.66108 0.5059 0.0
C386 C 0.75253 0.65092 0.5112 0.0
C387 C 0.81032 0.64029 0.51083 0.0
C388 C 0.77654 0.62764 0.50942 0.0
C389 C 0.68881 0.62546 0.50792 0.0
C390 C 0.63408 0.63599 0.50793 0.0
C391 C 0.66361 0.6485 0.50967 0.0
C392 C 0.58836 0.6579 0.5089 0.0
C393 C 0.57722 0.66603 0.55273 0.0
C394 C 0.60061 0.66648 0.4661 0.0
C395 C 0.5128 0.64864 0.50679 0.0
C396 C 0.54207 0.63609 0.50597 0.0
C397 C 0.4873 0.62567 0.50312 0.0
C398 C 0.39991 0.62803 0.50099 0.0
C399 C 0.36649 0.64075 0.50191 0.0
C400 C 0.42408 0.65125 0.5052 0.0
H401 H 0.68444 0.40472 0.49572 0.0
H402 H 0.71637 0.36665 0.55288 0.0
H403 H 0.56058 0.36311 0.55754 0.0
H404 H 0.47966 0.41258 0.56177 0.0
H405 H 0.43373 0.42024 0.51506 0.0
H406 H 0.54871 0.42031 0.51677 0.0
H407 H 0.56985 0.40987 0.43647 0.0
H408 H 0.45491 0.40977 0.43456 0.0
H409 H 0.51533 0.395 0.4266 0.0
H410 H 0.40543 0.36292 0.55469 0.0
H411 H 0.25294 0.36619 0.5452 0.0
H412 H 0.31046 0.40445 0.49043 0.0
C413 C 0.6582 0.39573 0.50969 0.0
C414 C 0.71315 0.38596 0.52408 0.0
C415 C 0.67627 0.37425 0.54143 0.0
C416 C 0.58753 0.37214 0.54433 0.0
C417 C 0.5354 0.38178 0.5295 0.0
C418 C 0.56858 0.39335 0.5124 0.0
C419 C 0.49639 0.40178 0.49751 0.0
C420 C 0.48922 0.41448 0.52439 0.0
C421 C 0.50995 0.40426 0.44571 0.0
C422 C 0.41798 0.39321 0.51007 0.0
C423 C 0.44314 0.38169 0.52799 0.0
C424 C 0.38472 0.37191 0.54084 0.0
C425 C 0.29806 0.37386 0.53512 0.0
C426 C 0.26942 0.38556 0.51704 0.0
C427 C 0.33028 0.39546 0.50473 0.0
H428 H 0.92073 0.89554 0.9495 0.0
H429 H 0.84019 0.87769 0.08059 0.0
H430 H 0.9906 0.87669 0.09726 0.0
H431 H 0.11616 0.87573 0.92799 0.0
H432 H 0.18077 0.88836 0.89972 0.0
H433 H 0.06594 0.88818 0.89739 0.0
H434 H 0.05488 0.91128 0.9305 0.0
H435 H 0.16966 0.91151 0.93289 0.0
H436 H 0.0976 0.91463 0.98376 0.0
H437 H 0.14711 0.87692 0.10061 0.0
H438 H 0.30509 0.87844 0.09032 0.0
H439 H 0.29447 0.8961 0.95736 0.0
C440 C 0.93505 0.89153 0.98178 0.0
C441 C 0.86794 0.88669 0.0138 0.0
C442 C 0.88984 0.88136 0.05535 0.0
C443 C 0.97538 0.88078 0.06528 0.0
C444 C 0.03986 0.88543 0.03318 0.0
C445 C 1.02154 0.89064 0.99209 0.0
C446 C 0.10521 0.89436 0.96322 0.0
C447 C 0.11775 0.88617 0.91948 0.0
C448 C 0.1069 0.90881 0.95194 0.0
C449 C 0.17228 0.89091 0.9954 0.0
C450 C 0.13236 0.88561 0.03523 0.0
C451 C 0.17915 0.88114 0.06971 0.0
C452 C 0.26913 0.88205 0.06351 0.0
C453 C 0.31259 0.88754 0.02341 0.0
C454 C 0.26316 0.8921 0.98886 0.0
H455 H 0.16858 0.13592 0.07995 0.0
H456 H 0.24814 0.14818 0.94092 0.0
H457 H 0.09637 0.14908 0.92537 0.0
H458 H 0.98556 0.11634 0.05831 0.0
H459 H 0.91693 0.12175 0.1078 0.0
H460 H 1.0321 0.12166 0.10851 0.0
H461 H 1.02829 0.14589 0.12931 0.0
H462 H 0.91306 0.14603 0.12856 0.0
H463 H 0.97931 0.15714 0.09329 0.0
H464 H 0.93751 0.14936 0.92438 0.0
H465 H 0.77878 0.14866 0.93799 0.0
H466 H 0.79488 0.13612 0.07726 0.0
C467 C 0.15371 0.13863 0.04616 0.0
C468 C 0.22055 0.14187 0.0114 0.0
C469 C 0.19832 0.14566 0.96798 0.0
C470 C 0.11214 0.14619 0.9588 0.0
C471 C 0.04777 0.1431 0.9936 0.0
C472 C 0.06692 0.13947 0.03656 0.0
C473 C 0.98396 0.13725 0.06809 0.0
C474 C 0.97941 0.12342 0.08677 0.0
C475 C 0.97569 0.14716 0.10713 0.0
C476 C 0.91598 0.13961 0.03548 0.0
C477 C 0.95476 0.14321 0.99294 0.0
C478 C 0.90647 0.14646 0.95744 0.0
C479 C 0.8163 0.14602 0.96543 0.0
C480 C 0.77461 0.14213 0.00826 0.0
C481 C 0.82523 0.13887 0.04384 0.0
H482 H 0.25329 0.15376 0.56281 0.0
H483 H 0.32752 0.12793 0.44926 0.0
H484 H 0.17678 0.12593 0.43491 0.0
H485 H 0.05424 0.13655 0.60152 0.0
H486 H 0.99285 0.15083 0.61768 0.0
H487 H 0.10775 0.15071 0.61974 0.0
H488 H 0.12321 0.17069 0.5669 0.0
H489 H 1.00837 0.17088 0.56468 0.0
H490 H 0.08019 0.17021 0.5125 0.0
H491 H 1.0208 0.12584 0.43261 0.0
H492 H 0.86331 0.12804 0.44186 0.0
H493 H 0.87932 0.15415 0.55572 0.0
C494 C 0.23758 0.14777 0.53482 0.0
C495 C 0.30316 0.14096 0.50733 0.0
C496 C 0.27934 0.13314 0.47125 0.0
C497 C 0.19346 0.13196 0.46259 0.0
C498 C 0.1306 0.1386 0.4903 0.0
C499 C 0.15075 0.14634 0.52577 0.0
C500 C 0.06845 0.15206 0.55066 0.0
C501 C 0.05504 0.14725 0.60035 0.0
C502 C 0.07019 0.16684 0.54854 0.0
C503 C 1.00001 0.14655 0.52274 0.0
C504 C 0.0382 0.1387 0.48849 0.0
C505 C 0.99006 0.13205 0.45904 0.0
C506 C 0.90038 0.13337 0.46459 0.0
C507 C 0.85858 0.14141 0.49897 0.0
C508 C 0.90941 0.14817 0.52841 0.0
H509 H 0.78603 0.90353 0.54942 0.0
H510 H 0.76746 0.87048 0.46024 0.0
H511 H 0.92242 0.86719 0.45691 0.0
H512 H 0.99331 0.9151 0.49324 0.0
H513 H 1.03511 0.91987 0.54541 0.0
H514 H 0.92064 0.92009 0.5418 0.0
H515 H 0.89682 0.90523 0.61267 0.0
H516 H 1.01121 0.90496 0.61649 0.0
H517 H 0.95314 0.89007 0.61257 0.0
H518 H 0.07471 0.86655 0.46298 0.0
H519 H 0.22483 0.86896 0.47579 0.0
H520 H 0.16065 0.90279 0.55998 0.0
C521 C 0.81492 0.8957 0.52888 0.0
C522 C 0.76324 0.88731 0.50495 0.0
C523 C 0.80415 0.8771 0.47891 0.0
C524 C 0.89281 0.8751 0.47675 0.0
C525 C 0.94145 0.88338 0.50066 0.0
C526 C 0.90502 0.89352 0.52612 0.0
C527 C 0.97495 0.90081 0.54824 0.0
C528 C 0.98138 0.9148 0.53115 0.0
C529 C 0.95799 0.90023 0.60061 0.0
C530 C 0.05555 0.89311 0.53096 0.0
C531 C 1.03314 0.88309 0.50382 0.0
C532 C 0.09335 0.87438 0.48407 0.0
C533 C 0.1792 0.87586 0.49188 0.0
C534 C 0.20613 0.88605 0.51919 0.0
C535 C 0.14283 0.89487 0.53902 0.0
H536 H 0.13142 0.54236 0.01214 0.0
H537 H 0.85509 0.54822 0.03532 0.0
H538 H 0.83234 0.52476 0.03369 0.0
H539 H 0.1288 0.51524 0.93553 0.0
H540 H 0.21473 0.50672 0.95874 0.0
H541 H 0.21036 0.52404 0.96141 0.0
H542 H 0.21305 0.52308 0.04919 0.0
H543 H 0.2172 0.50574 0.04681 0.0
H544 H 0.13318 0.51366 0.08329 0.0
H545 H 0.83766 0.50095 0.02911 0.0
H546 H 0.87051 0.47782 0.02322 0.0
H547 H 0.14394 0.48659 0.00303 0.0
C548 C 0.06623 0.53867 0.01669 0.0
C549 C 0.99492 0.54716 0.02412 0.0
C550 C 0.91067 0.54194 0.03022 0.0
C551 C 0.89705 0.52862 0.02913 0.0
C552 C 0.96831 0.52053 0.02214 0.0
C553 C 0.05135 0.52529 0.01622 0.0
C554 C 0.11622 0.51431 0.01035 0.0
C555 C 0.17074 0.51513 0.96373 0.0
C556 C 0.1733 0.5142 0.04975 0.0
C557 C 0.05636 0.5027 0.01293 0.0
C558 C 0.97142 0.50658 0.0199 0.0
C559 C 0.90393 0.49777 0.02351 0.0
C560 C 0.92337 0.48461 0.01977 0.0
C561 C 1.00977 0.48025 0.01223 0.0
C562 C 0.07717 0.48952 0.0091 0.0
H563 H 0.07299 0.48675 0.47035 0.0
H564 H 0.93656 0.48112 0.60568 0.0
H565 H 0.93031 0.50451 0.61688 0.0
H566 H 0.19782 0.51407 0.497 0.0
H567 H 0.18799 0.52242 0.44409 0.0
H568 H 0.1832 0.50509 0.44603 0.0
H569 H 1.03551 0.50562 0.41389 0.0
H570 H 0.03981 0.52296 0.41178 0.0
H571 H 0.94895 0.51499 0.44274 0.0
H572 H 0.93754 0.52831 0.61463 0.0
H573 H 0.95673 0.55141 0.5986 0.0
H574 H 0.08654 0.54237 0.46429 0.0
C575 C 0.04102 0.4904 0.50221 0.0
C576 C 1.00662 0.48189 0.53741 0.0
C577 C 0.96591 0.48724 0.57857 0.0
C578 C 0.96107 0.50059 0.58518 0.0
C579 C 0.996 0.50862 0.55014 0.0
C580 C 1.03473 0.50379 0.5093 0.0
C581 C 0.06652 0.5147 0.47726 0.0
C582 C 0.16472 0.51403 0.46542 0.0
C583 C 1.01991 0.51456 0.43385 0.0
C584 C 0.04034 0.52636 0.50687 0.0
C585 C 0.99956 0.52255 0.54866 0.0
C586 C 0.96957 0.53143 0.58205 0.0
C587 C 0.98152 0.54458 0.5727 0.0
C588 C 1.02386 0.54886 0.53033 0.0
C589 C 0.05319 0.53952 0.4969 0.0
H590 H 0.49909 0.98646 0.96205 0.0
H591 H 0.60492 0.97784 0.08938 0.0
H592 H 0.60566 1.0009 0.10736 0.0
H593 H 0.627 0.01519 0.93598 0.0
H594 H 0.54218 0.02376 0.91197 0.0
H595 H 0.54639 1.00644 0.9092 0.0
H596 H 0.39076 1.00519 0.94939 0.0
H597 H 0.38616 0.02251 0.9523 0.0
H598 H 0.36492 1.01307 0.00369 0.0
H599 H 0.597 0.0248 0.11226 0.0
H600 H 0.58154 0.0482 0.10302 0.0
H601 H 0.48603 0.04205 0.97155 0.0
C602 C 0.52308 0.98934 0.99362 0.0
C603 C 0.5507 0.98005 0.02451 0.0
C604 C 0.58078 0.9845 0.06553 0.0
C605 C 0.58247 0.99768 0.07595 0.0
C606 C 0.55492 1.00647 0.0449 0.0
C607 C 0.52618 1.00254 0.00444 0.0
C608 C 0.50124 1.01412 0.97689 0.0
C609 C 0.55758 0.01492 0.93078 0.0
C610 C 0.40505 1.01369 0.97018 0.0
C611 C 0.5207 0.02513 0.00829 0.0
C612 C 0.55125 0.02043 0.04738 0.0
C613 C 0.57299 0.02859 0.08182 0.0
C614 C 0.56331 0.04191 0.07637 0.0
C615 C 0.53188 0.04708 0.03676 0.0
C616 C 0.51078 0.03849 0.00214 0.0
H617 H 0.57744 0.04239 0.55963 0.0
H618 H 0.50171 0.0481 0.42331 0.0
H619 H 0.48899 0.02467 0.41425 0.0
H620 H 0.7023 1.01367 0.53464 0.0
H621 H 0.66817 1.00593 0.58838 0.0
H622 H 0.67162 0.02324 0.58485 0.0
H623 H 0.51124 0.02439 0.61762 0.0
H624 H 0.50723 1.00707 0.62129 0.0
H625 H 0.43207 0.0156 0.5899 0.0
H626 H 0.48234 1.00076 0.41938 0.0
H627 H 0.48238 0.97774 0.43826 0.0
H628 H 0.56525 0.98689 0.57087 0.0
C629 C 0.55744 0.03874 0.52801 0.0
C630 C 0.54154 0.04723 0.49197 0.0
C631 C 0.51624 0.04192 0.45109 0.0
C632 C 0.50805 0.02858 0.4457 0.0
C633 C 0.52474 0.02053 0.48155 0.0
C634 C 0.54872 0.02537 0.522 0.0
C635 C 0.56318 1.01447 0.55494 0.0
C636 C 0.6569 1.01432 0.56636 0.0
C637 C 0.49964 0.01544 0.59851 0.0
C638 C 0.54388 1.00281 0.52648 0.0
C639 C 0.52161 1.00658 0.48437 0.0
C640 C 0.50034 0.99766 0.45215 0.0
C641 C 0.5016 0.98452 0.46313 0.0
C642 C 0.52501 0.98024 0.50592 0.0
C643 C 0.54639 0.98965 0.53793 0.0
H644 H 0.30469 0.29391 0.9792 0.0
H645 H 0.13372 0.29404 0.1059 0.0
H646 H 0.16341 0.27108 0.11662 0.0
H647 H 0.24462 0.26202 0.94221 0.0
H648 H 0.35215 0.25785 0.9183 0.0
H649 H 0.31821 0.27445 0.92002 0.0
H650 H 0.44722 0.28044 0.96408 0.0
H651 H 0.48157 0.26387 0.9625 0.0
H652 H 0.46194 0.27213 0.01647 0.0
H653 H 0.20852 0.24815 0.11404 0.0
H654 H 0.2693 0.22656 0.09919 0.0
H655 H 0.41418 0.2407 0.97472 0.0
C656 C 0.27307 0.28911 0.00909 0.0
C657 C 0.2176 0.29598 0.04203 0.0
C658 C 0.17814 0.28922 0.08069 0.0
C659 C 0.19387 0.27609 0.08692 0.0
C660 C 0.24886 0.26967 0.05409 0.0
C661 C 0.28796 0.2759 0.01589 0.0
C662 C 0.34506 0.26664 0.9862 0.0
C663 C 0.31307 0.26515 0.93888 0.0
C664 C 0.43956 0.27103 0.98209 0.0
C665 C 0.33195 0.25428 0.01393 0.0
C666 C 0.27583 0.2563 0.05281 0.0
C667 C 0.25303 0.24645 0.08385 0.0
C668 C 0.28874 0.23419 0.07524 0.0
C669 C 0.34776 0.23179 0.03606 0.0
C670 C 0.36895 0.24206 0.00487 0.0
H671 H 0.76101 0.79231 0.06995 0.0
H672 H 0.68598 0.79731 0.93303 0.0
H673 H 0.72256 0.77471 0.91585 0.0
H674 H 0.93783 0.77072 0.04023 0.0
H675 H 0.91627 0.76079 0.09041 0.0
H676 H 0.886 0.77754 0.09243 0.0
H677 H 0.72851 0.77128 0.11995 0.0
H678 H 0.75836 0.75451 0.11827 0.0
H679 H 0.67274 0.76008 0.0868 0.0
H680 H 0.76712 0.75164 0.91251 0.0
H681 H 0.81557 0.72947 0.92346 0.0
H682 H 0.85356 0.73847 0.06407 0.0
C683 C 0.75153 0.78869 0.0364 0.0
C684 C 0.72144 0.79686 0.00272 0.0
C685 C 0.71108 0.79155 0.95922 0.0
C686 C 0.73086 0.77861 0.94917 0.0
C687 C 0.76025 0.77091 0.98298 0.0
C688 C 0.77023 0.7757 0.02582 0.0
C689 C 0.80235 0.76522 0.05599 0.0
C690 C 0.89088 0.76878 0.07062 0.0
C691 C 0.73655 0.76262 0.09772 0.0
C692 C 0.80886 0.75384 0.02327 0.0
C693 C 0.78431 0.7574 0.98138 0.0
C694 C 0.78564 0.7487 0.94534 0.0
C695 C 0.81257 0.73602 0.95215 0.0
C696 C 0.83741 0.73196 0.99489 0.0
C697 C 0.83548 0.74113 0.03086 0.0
H698 H 0.29642 0.73622 0.46828 0.0
H699 H 0.13592 0.73536 0.5984 0.0
H700 H 0.16346 0.75838 0.60893 0.0
H701 H 0.45427 0.75855 0.50195 0.0
H702 H 0.46778 0.76692 0.44798 0.0
H703 H 0.43631 0.75022 0.4501 0.0
H704 H 0.3019 0.75575 0.40965 0.0
H705 H 0.33292 0.77247 0.40735 0.0
H706 H 0.22784 0.76788 0.43372 0.0
H707 H 0.20543 0.78149 0.60589 0.0
H708 H 0.26081 0.80334 0.58976 0.0
H709 H 0.3963 0.78988 0.46184 0.0
C710 C 0.26663 0.74086 0.49889 0.0
C711 C 0.21485 0.73376 0.53282 0.0
C712 C 0.17768 0.74034 0.57238 0.0
C713 C 0.1922 0.75352 0.57854 0.0
C714 C 0.24363 0.76016 0.54476 0.0
C715 C 0.2803 0.75411 0.50564 0.0
C716 C 0.33334 0.76362 0.47487 0.0
C717 C 0.42858 0.75959 0.46835 0.0
C718 C 0.2968 0.76501 0.42866 0.0
C719 C 0.32056 0.77591 0.50296 0.0
C720 C 0.26839 0.77364 0.54306 0.0
C721 C 0.24679 0.78338 0.57469 0.0
C722 C 0.27939 0.7958 0.56532 0.0
C723 C 0.33401 0.79849 0.52471 0.0
C724 C 0.35429 0.78831 0.49306 0.0
H725 H 0.81754 0.29145 0.57004 0.0
H726 H 0.8678 0.29773 0.42355 0.0
H727 H 0.82771 0.27533 0.40993 0.0
H728 H 0.9038 0.25881 0.56834 0.0
H729 H 0.82425 0.25299 0.61249 0.0
H730 H 0.85593 0.26969 0.61157 0.0
H731 H 0.69683 0.27654 0.61081 0.0
H732 H 0.66465 0.25988 0.61173 0.0
H733 H 0.63571 0.27038 0.56704 0.0
H734 H 0.78604 0.25228 0.41099 0.0
H735 H 0.74085 0.22995 0.42653 0.0
H736 H 0.71406 0.2379 0.57238 0.0
C737 C 0.82061 0.28813 0.53506 0.0
C738 C 0.8449 0.29661 0.49789 0.0
C739 C 0.84735 0.29172 0.45275 0.0
C740 C 0.82553 0.27889 0.44457 0.0
C741 C 0.80185 0.27089 0.48175 0.0
C742 C 0.79923 0.27526 0.52615 0.0
C743 C 0.7713 0.2645 0.55976 0.0
C744 C 0.8431 0.26131 0.58981 0.0
C745 C 0.6871 0.26804 0.58906 0.0
C746 C 0.7579 0.25349 0.52712 0.0
C747 C 0.77662 0.25744 0.48236 0.0
C748 C 0.77045 0.24909 0.44591 0.0
C749 C 0.74381 0.23639 0.4552 0.0
C750 C 0.72217 0.23201 0.5007 0.0
C751 C 0.73028 0.24077 0.53715 0.0
H752 H 0.09277 0.40773 0.16664 0.0
H753 H 1.03074 0.3685 0.13251 0.0
H754 H 1.00749 0.36307 0.21503 0.0
H755 H 0.20026 0.40124 0.26602 0.0
H756 H 0.15431 0.41492 0.2975 0.0
H757 H 0.17038 0.41541 0.23599 0.0
H758 H 1.00876 0.42068 0.23334 0.0
H759 H 0.99244 0.42033 0.29482 0.0
H760 H 0.92831 0.4102 0.26211 0.0
H761 H 0.99657 0.36197 0.30356 0.0
H762 H 0.97882 0.36605 0.38732 0.0
H763 H 1.03389 0.40645 0.3621 0.0
C764 C 0.0748 0.39796 0.17647 0.0
C765 C 0.06529 0.38845 0.14295 0.0
C766 C 0.03959 0.37589 0.15742 0.0
C767 C 1.02634 0.37273 0.20432 0.0
C768 C 0.03707 0.38232 0.23653 0.0
C769 C 0.05902 0.39476 0.22303 0.0
C770 C 0.06118 0.40355 0.26402 0.0
C771 C 0.15193 0.4091 0.26599 0.0
C772 C 0.99365 0.41432 0.26353 0.0
C773 C 0.03763 0.39416 0.30285 0.0
C774 C 1.02538 0.38188 0.28653 0.0
C775 C 1.00535 0.37157 0.31648 0.0
C776 C 0.99587 0.37394 0.364 0.0
C777 C 1.00467 0.38654 0.38109 0.0
C778 C 1.02639 0.39671 0.34995 0.0
H779 H 0.06723 0.66103 0.16144 0.0
H780 H 0.97015 0.62266 0.14043 0.0
H781 H 0.98576 0.61737 0.22182 0.0
H782 H 0.22305 0.65282 0.23643 0.0
H783 H 0.20328 0.66704 0.27108 0.0
H784 H 0.18579 0.66739 0.21161 0.0
H785 H 1.02802 0.67485 0.23303 0.0
H786 H 0.04553 0.67476 0.29243 0.0
H787 H 0.95841 0.66554 0.27344 0.0
H788 H 1.01744 0.61668 0.30816 0.0
H789 H 0.04188 0.62147 0.38862 0.0
H790 H 0.11042 0.66064 0.35001 0.0
C791 C 0.04907 0.65148 0.17372 0.0
C792 C 1.01787 0.64223 0.14439 0.0
C793 C 0.99403 0.62991 0.16226 0.0
C794 C 1.00329 0.62683 0.20839 0.0
C795 C 1.03561 0.63621 0.23621 0.0
C796 C 0.05666 0.64836 0.21932 0.0
C797 C 0.08636 0.65707 0.25566 0.0
C798 C 0.18019 0.66133 0.24292 0.0
C799 C 1.02597 0.66874 0.26414 0.0
C800 C 0.07884 0.64804 0.29617 0.0
C801 C 0.05085 0.63595 0.28455 0.0
C802 C 0.03939 0.62612 0.31724 0.0
C803 C 0.05431 0.62886 0.3628 0.0
C804 C 0.07932 0.64137 0.37529 0.0
C805 C 0.09259 0.65095 0.34126 0.0
H806 H 0.12006 0.63766 0.86368 0.0
H807 H 0.84865 0.64712 0.88259 0.0
H808 H 0.84962 0.65036 0.7992 0.0
H809 H 0.18179 0.65936 0.76428 0.0
H810 H 0.25517 0.64774 0.73621 0.0
H811 H 0.2367 0.64811 0.79774 0.0
H812 H 0.19367 0.62399 0.79849 0.0
H813 H 0.21161 0.62355 0.73708 0.0
H814 H 0.10871 0.61881 0.76585 0.0
H815 H 0.87858 0.65161 0.71302 0.0
H816 H 0.92939 0.64883 0.63102 0.0
H817 H 0.17865 0.63652 0.66684 0.0
C818 C 0.06174 0.64082 0.85022 0.0
C819 C 0.98463 0.64253 0.87955 0.0
C820 C 0.90858 0.64607 0.86067 0.0
C821 C 0.90861 0.64791 0.81336 0.0
C822 C 0.9851 0.64596 0.78507 0.0
C823 C 0.06023 0.6424 0.80273 0.0
C824 C 0.13128 0.63966 0.76444 0.0
C825 C 0.20566 0.64929 0.76576 0.0
C826 C 0.16316 0.62567 0.76661 0.0
C827 C 0.08389 0.64189 0.72267 0.0
C828 C 1.00026 0.64584 0.73533 0.0
C829 C 0.94402 0.64854 0.70278 0.0
C830 C 0.97352 0.64697 0.65622 0.0
C831 C 0.05791 0.64244 0.64249 0.0
C832 C 0.1138 0.63999 0.67631 0.0
H833 H 0.13419 0.39043 0.65503 0.0
H834 H 0.85772 0.38682 0.65669 0.0
H835 H 0.84168 0.38833 0.74118 0.0
H836 H 0.16557 0.37245 0.74871 0.0
H837 H 0.2433 0.38275 0.77163 0.0
H838 H 0.23217 0.38308 0.71148 0.0
H839 H 0.20384 0.40765 0.71545 0.0
H840 H 0.21558 0.40744 0.77576 0.0
H841 H 0.11908 0.41385 0.75591 0.0
H842 H 0.85756 0.38716 0.82477 0.0
H843 H 0.9018 0.38411 0.90163 0.0
H844 H 0.16891 0.38974 0.8486 0.0
C845 C 0.07016 0.39036 0.67328 0.0
C846 C 0.99694 0.38867 0.64933 0.0
C847 C 0.91431 0.3884 0.67422 0.0
C848 C 0.90478 0.3892 0.72225 0.0
C849 C 0.97834 0.39066 0.74494 0.0
C850 C 0.05936 0.39154 0.72126 0.0
C851 C 0.12788 0.39277 0.75416 0.0
C852 C 0.19622 0.38212 0.74601 0.0
C853 C 0.16909 0.40622 0.75007 0.0
C854 C 0.07375 0.39124 0.80008 0.0
C855 C 0.98735 0.39038 0.79371 0.0
C856 C 0.92468 0.38814 0.83014 0.0
C857 C 0.95059 0.38647 0.87387 0.0
C858 C 0.03853 0.387 0.88157 0.0
C859 C 0.10102 0.38971 0.84417 0.0
H860 H 0.5967 0.87496 0.16568 0.0
H861 H 0.51796 0.91397 0.13727 0.0
H862 H 0.48413 0.91794 0.21949 0.0
H863 H 0.43003 0.86993 0.26588 0.0
H864 H 0.50101 0.86075 0.29785 0.0
H865 H 0.5148 0.86038 0.23625 0.0
H866 H 0.67317 0.86754 0.23687 0.0
H867 H 0.65958 0.8681 0.29842 0.0
H868 H 0.69685 0.88215 0.26609 0.0
H869 H 0.46867 0.91875 0.30189 0.0
H870 H 0.45563 0.91594 0.38442 0.0
H871 H 0.53969 0.87613 0.36737 0.0
C872 C 0.57045 0.8842 0.177 0.0
C873 C 0.55948 0.89418 0.14491 0.0
C874 C 0.52651 0.90621 0.16104 0.0
C875 C 0.50736 0.90857 0.20776 0.0
C876 C 0.52096 0.89879 0.23855 0.0
C877 C 0.55029 0.88676 0.22432 0.0
C878 C 0.55915 0.87818 0.26598 0.0
C879 C 0.49759 0.86662 0.26652 0.0
C880 C 0.65277 0.87373 0.26688 0.0
C881 C 0.53187 0.88743 0.30544 0.0
C882 C 0.51043 0.89922 0.288 0.0
C883 C 0.48418 0.90953 0.31605 0.0
C884 C 0.47703 0.90778 0.36326 0.0
C885 C 0.49583 0.89579 0.38309 0.0
C886 C 0.52509 0.88544 0.35355 0.0
H887 H 0.41204 0.13111 0.18391 0.0
H888 H 0.59544 0.16008 0.13012 0.0
H889 H 0.64975 0.16192 0.20561 0.0
H890 H 0.35844 0.14513 0.29355 0.0
H891 H 0.35213 0.13015 0.32475 0.0
H892 H 0.33123 0.13044 0.26581 0.0
H893 H 0.44887 0.11307 0.24684 0.0
H894 H 0.4707 0.11284 0.30576 0.0
H895 H 0.5565 0.11597 0.26112 0.0
H896 H 0.67993 0.16155 0.28754 0.0
H897 H 0.67805 0.15981 0.37149 0.0
H898 H 0.47558 0.13125 0.37472 0.0
C899 C 0.46395 0.13775 0.18818 0.0
C900 C 0.49966 0.14549 0.15116 0.0
C901 C 0.5674 0.15408 0.158 0.0
C902 C 0.59885 0.15515 0.20074 0.0
C903 C 0.56258 0.14747 0.23665 0.0
C904 C 0.49661 0.13893 0.23099 0.0
C905 C 0.46763 0.13214 0.27598 0.0
C906 C 0.37166 0.13462 0.29089 0.0
C907 C 0.48705 0.11764 0.27219 0.0
C908 C 0.5247 0.13864 0.30804 0.0
C909 C 0.58033 0.14724 0.28426 0.0
C910 C 0.63755 0.1547 0.30636 0.0
C911 C 0.63662 0.15358 0.35403 0.0
C912 C 0.57867 0.14514 0.37941 0.0
C913 C 0.52255 0.13748 0.35595 0.0
H914 H 0.389 0.14003 0.86038 0.0
H915 H 0.65118 0.14327 0.89462 0.0
H916 H 0.70403 0.14468 0.81275 0.0
H917 H 0.42831 0.12122 0.76105 0.0
H918 H 0.35437 0.12955 0.7283 0.0
H919 H 0.33595 0.1294 0.78974 0.0
H920 H 0.33258 0.15435 0.79068 0.0
H921 H 0.35086 0.15458 0.72912 0.0
H922 H 0.42228 0.16321 0.76242 0.0
H923 H 0.73051 0.14327 0.7278 0.0
H924 H 0.72837 0.14099 0.64449 0.0
H925 H 0.44933 0.14077 0.66216 0.0
C926 C 0.45734 0.14121 0.85047 0.0
C927 C 0.51604 0.14154 0.88397 0.0
C928 C 0.60497 0.14311 0.86974 0.0
C929 C 0.63567 0.14389 0.82322 0.0
C930 C 0.57656 0.14343 0.79102 0.0
C931 C 0.4891 0.14239 0.80389 0.0
C932 C 0.4399 0.14226 0.76193 0.0
C933 C 0.38649 0.12987 0.76016 0.0
C934 C 0.38299 0.15432 0.76099 0.0
C935 C 0.51361 0.14267 0.72357 0.0
C936 C 0.59182 0.1434 0.7414 0.0
C937 C 0.66966 0.143 0.71342 0.0
C938 C 0.66785 0.14171 0.66612 0.0
C939 C 0.58896 0.141 0.64679 0.0
C940 C 0.51059 0.14169 0.6759 0.0
H941 H 0.52322 0.8647 0.66864 0.0
H942 H 0.48028 0.90518 0.64383 0.0
H943 H 0.50604 0.9101 0.72407 0.0
H944 H 0.41385 0.86433 0.7841 0.0
H945 H 0.48695 0.85258 0.80326 0.0
H946 H 0.46532 0.85277 0.74442 0.0
H947 H 0.62918 0.85472 0.71926 0.0
H948 H 0.65116 0.85482 0.77805 0.0
H949 H 0.68884 0.86785 0.74059 0.0
H950 H 0.54849 0.91023 0.80841 0.0
H951 H 0.57721 0.90526 0.88816 0.0
H952 H 0.57888 0.86455 0.85657 0.0
C953 C 0.51834 0.87461 0.68017 0.0
C954 C 0.49996 0.88457 0.64995 0.0
C955 C 0.49372 0.89738 0.66648 0.0
C956 C 0.50899 0.90025 0.71192 0.0
C957 C 0.52879 0.89016 0.74066 0.0
C958 C 0.53122 0.87756 0.72539 0.0
C959 C 0.55022 0.86829 0.76275 0.0
C960 C 0.47458 0.85895 0.77432 0.0
C961 C 0.63488 0.86099 0.74935 0.0
C962 C 0.559 0.87755 0.80163 0.0
C963 C 0.54807 0.89018 0.78839 0.0
C964 C 0.55623 0.90034 0.81892 0.0
C965 C 0.57335 0.89746 0.86408 0.0
C966 C 0.58042 0.88452 0.87854 0.0
C967 C 0.57386 0.87454 0.84654 0.0
loop_
_geom_bond_atom_site_label_1
_geom_bond_atom_site_label_2
_geom_bond_distance
_geom_bond_site_symmetry_2
_ccdc_geom_bond_type
Gd0 C3 2.818 1_455 S
Gd0 O20 2.377 1_455 S
Gd0 O22 2.448 . S
Gd0 O23 2.506 1_554 S
Gd0 O24 2.435 . S
Gd0 O25 2.717 . S
Gd0 O27 2.395 . S
Gd0 O31 2.327 1_554 S
Gd1 C12 2.818 . S
Gd1 O21 2.395 1_455 S
Gd1 O25 2.327 . S
Gd1 O26 2.377 1_554 S
Gd1 O28 2.448 1_554 S
Gd1 O29 2.506 . S
Gd1 O30 2.435 1_554 S
Gd1 O31 2.717 1_554 S
C2 O20 1.240 . S
C2 O21 1.240 . S
C3 Gd0 2.818 1_655 S
C3 C4 1.510 . S
C3 O22 1.249 1_655 S
C3 O23 1.252 1_654 S
C4 C3 1.510 . S
C4 C5 1.404 . S
C4 C6 1.352 1_554 S
C5 C4 1.404 . S
C5 C9 1.389 . S
C5 H32 0.930 . S
C6 C4 1.352 1_556 S
C6 C8 1.374 . S
C6 H33 0.931 . S
C7 C8 1.359 . S
C7 C9 1.364 1_556 S
C8 C6 1.374 . S
C8 C7 1.359 . S
C8 H34 0.931 . S
C9 C5 1.389 . S
C9 C7 1.364 1_554 S
C9 H35 0.931 . S
C10 O24 1.256 . S
C10 O25 1.257 . S
C11 O26 1.240 1_554 S
C11 O27 1.240 . S
C12 Gd1 2.818 . S
C12 C13 1.510 . S
C12 O28 1.249 1_554 S
C12 O29 1.252 . S
C13 C12 1.510 . S
C13 C14 1.404 1_554 S
C13 C15 1.352 . S
C14 C13 1.404 1_556 S
C14 C18 1.389 . S
C14 H36 0.930 . S
C15 C13 1.352 . S
C15 C17 1.374 . S
C15 H37 0.931 . S
C16 C17 1.359 . S
C16 C18 1.364 1_554 S
C17 C15 1.374 . S
C17 C16 1.359 . S
C17 H38 0.931 . S
C18 C14 1.389 . S
C18 C16 1.364 1_556 S
C18 H39 0.931 . S
C19 O30 1.256 . S
C19 O31 1.257 . S
O20 Gd0 2.377 1_655 S
O20 C2 1.240 . S
O21 Gd1 2.395 1_655 S
O21 C2 1.240 . S
O22 Gd0 2.448 . S
O22 C3 1.249 1_455 S
O23 Gd0 2.506 1_556 S
O23 C3 1.252 1_456 S
O24 Gd0 2.435 . S
O24 C10 1.256 . S
O25 Gd0 2.717 . S
O25 Gd1 2.327 . S
O25 C10 1.257 . S
O26 Gd1 2.377 1_556 S
O26 C11 1.240 1_556 S
O27 Gd0 2.395 . S
O27 C11 1.240 . S
O28 Gd1 2.448 1_556 S
O28 C12 1.249 1_556 S
O29 Gd1 2.506 . S
O29 C12 1.252 . S
O30 Gd1 2.435 1_556 S
O30 C19 1.256 . S
O31 Gd0 2.327 1_556 S
O31 Gd1 2.717 1_556 S
O31 C19 1.257 . S
H32 C5 0.930 . S
H33 C6 0.931 . S
H34 C8 0.931 . S
H35 C9 0.931 . S
H36 C14 0.930 . S
H37 C15 0.931 . S
H38 C17 0.931 . S
H39 C18 0.931 . S
Gd40 C43 2.818 . S
Gd40 O60 2.377 . S
Gd40 O62 2.448 . S
Gd40 O63 2.506 1_554 S
Gd40 O64 2.435 . S
Gd40 O65 2.717 . S
Gd40 O67 2.395 1_655 S
Gd40 O71 2.327 1_554 S
Gd41 C52 2.819 1_655 S
Gd41 O61 2.395 . S
Gd41 O65 2.327 . S
Gd41 O66 2.377 1_654 S
Gd41 O68 2.448 1_554 S
Gd41 O69 2.506 . S
Gd41 O70 2.435 1_554 S
Gd41 O71 2.717 1_554 S
C42 O60 1.240 . S
C42 O61 1.240 . S
C43 Gd40 2.818 . S
C43 C44 1.510 . S
C43 O62 1.249 . S
C43 O63 1.252 1_554 S
C44 C43 1.510 . S
C44 C45 1.404 . S
C44 C46 1.352 1_554 S
C45 C44 1.404 . S
C45 C49 1.389 . S
C45 H72 0.930 . S
C46 C44 1.352 1_556 S
C46 C48 1.374 . S
C46 H73 0.931 . S
C47 C48 1.355 1_554 S
C47 C49 1.368 . S
C48 C46 1.374 . S
C48 C47 1.355 1_556 S
C48 H74 0.931 . S
C49 C45 1.389 . S
C49 C47 1.368 . S
C49 H75 0.931 . S
C50 O64 1.256 . S
C50 O65 1.257 . S
C51 O66 1.240 1_554 S
C51 O67 1.240 . S
C52 Gd41 2.819 1_455 S
C52 C53 1.510 . S
C52 O68 1.249 1_454 S
C52 O69 1.252 1_455 S
C53 C52 1.510 . S
C53 C54 1.404 1_554 S
C53 C55 1.352 . S
C54 C53 1.404 1_556 S
C54 C58 1.389 . S
C54 H76 0.930 . S
C55 C53 1.352 . S
C55 C57 1.374 . S
C55 H77 0.931 . S
C56 C57 1.359 . S
C56 C58 1.364 1_554 S
C57 C55 1.374 . S
C57 C56 1.359 . S
C57 H78 0.931 . S
C58 C54 1.389 . S
C58 C56 1.364 1_556 S
C58 H79 0.931 . S
C59 O70 1.256 . S
C59 O71 1.257 . S
O60 Gd40 2.377 . S
O60 C42 1.240 . S
O61 Gd41 2.395 . S
O61 C42 1.240 . S
O62 Gd40 2.448 . S
O62 C43 1.249 . S
O63 Gd40 2.506 1_556 S
O63 C43 1.252 1_556 S
O64 Gd40 2.435 . S
O64 C50 1.256 . S
O65 Gd40 2.717 . S
O65 Gd41 2.327 . S
O65 C50 1.257 . S
O66 Gd41 2.377 1_456 S
O66 C51 1.240 1_556 S
O67 Gd40 2.395 1_455 S
O67 C51 1.240 . S
O68 Gd41 2.448 1_556 S
O68 C52 1.249 1_656 S
O69 Gd41 2.506 . S
O69 C52 1.252 1_655 S
O70 Gd41 2.435 1_556 S
O70 C59 1.256 . S
O71 Gd40 2.327 1_556 S
O71 Gd41 2.717 1_556 S
O71 C59 1.257 . S
H72 C45 0.930 . S
H73 C46 0.931 . S
H74 C48 0.931 . S
H75 C49 0.931 . S
H76 C54 0.930 . S
H77 C55 0.931 . S
H78 C57 0.931 . S
H79 C58 0.931 . S
Gd80 C83 2.818 . S
Gd80 O100 2.377 . S
Gd80 O102 2.448 . S
Gd80 O103 2.506 . S
Gd80 O104 2.435 . S
Gd80 O105 2.717 . S
Gd80 O107 2.395 1_455 S
Gd80 O111 2.327 . S
Gd81 C92 2.818 . S
Gd81 O101 2.395 . S
Gd81 O105 2.327 . S
Gd81 O106 2.377 1_455 S
Gd81 O108 2.448 . S
Gd81 O109 2.506 . S
Gd81 O110 2.435 . S
Gd81 O111 2.717 . S
C82 O100 1.240 . S
C82 O101 1.240 . S
C83 Gd80 2.818 . S
C83 C84 1.510 . S
C83 O102 1.249 . S
C83 O103 1.252 . S
C84 C83 1.510 . S
C84 C85 1.404 . S
C84 C86 1.352 . S
C85 C84 1.404 . S
C85 C89 1.389 . S
C85 H112 0.930 . S
C86 C84 1.352 . S
C86 C88 1.374 . S
C86 H113 0.931 . S
C87 C88 1.359 . S
C87 C89 1.364 . S
C88 C86 1.374 . S
C88 C87 1.359 . S
C88 H114 0.931 . S
C89 C85 1.389 . S
C89 C87 1.364 . S
C89 H115 0.931 . S
C90 O104 1.256 . S
C90 O105 1.257 . S
C91 O106 1.240 . S
C91 O107 1.240 . S
C92 Gd81 2.818 . S
C92 C93 1.511 1_455 S
C92 O108 1.248 . S
C92 O109 1.252 . S
C93 C92 1.511 1_655 S
C93 C94 1.404 . S
C93 C95 1.352 . S
C94 C93 1.404 . S
C94 C98 1.389 . S
C94 H116 0.930 . S
C95 C93 1.352 . S
C95 C97 1.374 . S
C95 H117 0.931 . S
C96 C97 1.359 . S
C96 C98 1.364 . S
C97 C95 1.374 . S
C97 C96 1.359 . S
C97 H118 0.931 . S
C98 C94 1.389 . S
C98 C96 1.364 . S
C98 H119 0.931 . S
C99 O110 1.256 . S
C99 O111 1.257 . S
O100 Gd80 2.377 . S
O100 C82 1.240 . S
O101 Gd81 2.395 . S
O101 C82 1.240 . S
O102 Gd80 2.448 . S
O102 C83 1.249 . S
O103 Gd80 2.506 . S
O103 C83 1.252 . S
O104 Gd80 2.435 . S
O104 C90 1.256 . S
O105 Gd80 2.717 . S
O105 Gd81 2.327 . S
O105 C90 1.257 . S
O106 Gd81 2.377 1_655 S
O106 C91 1.240 . S
O107 Gd80 2.395 1_655 S
O107 C91 1.240 . S
O108 Gd81 2.448 . S
O108 C92 1.248 . S
O109 Gd81 2.506 . S
O109 C92 1.252 . S
O110 Gd81 2.435 . S
O110 C99 1.256 . S
O111 Gd80 2.327 . S
O111 Gd81 2.717 . S
O111 C99 1.257 . S
H112 C85 0.930 . S
H113 C86 0.931 . S
H114 C88 0.931 . S
H115 C89 0.931 . S
H116 C94 0.930 . S
H117 C95 0.931 . S
H118 C97 0.931 . S
H119 C98 0.931 . S
Gd120 C123 2.818 . S
Gd120 O140 2.377 1_655 S
Gd120 O142 2.448 . S
Gd120 O143 2.506 . S
Gd120 O144 2.435 . S
Gd120 O145 2.717 . S
Gd120 O147 2.395 . S
Gd120 O151 2.327 . S
Gd121 C132 2.818 . S
Gd121 O141 2.395 1_655 S
Gd121 O145 2.327 . S
Gd121 O146 2.377 . S
Gd121 O148 2.448 . S
Gd121 O149 2.506 . S
Gd121 O150 2.435 . S
Gd121 O151 2.717 . S
C122 O140 1.240 . S
C122 O141 1.240 . S
C123 Gd120 2.818 . S
C123 C124 1.510 1_655 S
C123 O142 1.249 . S
C123 O143 1.252 . S
C124 C123 1.510 1_455 S
C124 C125 1.404 . S
C124 C126 1.352 . S
C125 C124 1.404 . S
C125 C129 1.389 . S
C125 H152 0.930 . S
C126 C124 1.352 . S
C126 C128 1.374 . S
C126 H153 0.931 . S
C127 C128 1.359 . S
C127 C129 1.364 . S
C128 C126 1.374 . S
C128 C127 1.359 . S
C128 H154 0.931 . S
C129 C125 1.389 . S
C129 C127 1.364 . S
C129 H155 0.931 . S
C130 O144 1.256 . S
C130 O145 1.257 . S
C131 O146 1.240 . S
C131 O147 1.240 . S
C132 Gd121 2.818 . S
C132 C133 1.510 . S
C132 O148 1.249 . S
C132 O149 1.252 . S
C133 C132 1.510 . S
C133 C134 1.404 . S
C133 C135 1.352 . S
C134 C133 1.404 . S
C134 C138 1.389 . S
C134 H156 0.930 . S
C135 C133 1.352 . S
C135 C137 1.374 . S
C135 H157 0.931 . S
C136 C137 1.359 . S
C136 C138 1.364 . S
C137 C135 1.374 . S
C137 C136 1.359 . S
C137 H158 0.931 . S
C138 C134 1.389 . S
C138 C136 1.364 . S
C138 H159 0.931 . S
C139 O150 1.256 . S
C139 O151 1.257 . S
O140 Gd120 2.377 1_455 S
O140 C122 1.240 . S
O141 Gd121 2.395 1_455 S
O141 C122 1.240 . S
O142 Gd120 2.448 . S
O142 C123 1.249 . S
O143 Gd120 2.506 . S
O143 C123 1.252 . S
O144 Gd120 2.435 . S
O144 C130 1.256 . S
O145 Gd120 2.717 . S
O145 Gd121 2.327 . S
O145 C130 1.257 . S
O146 Gd121 2.377 . S
O146 C131 1.240 . S
O147 Gd120 2.395 . S
O147 C131 1.240 . S
O148 Gd121 2.448 . S
O148 C132 1.249 . S
O149 Gd121 2.506 . S
O149 C132 1.252 . S
O150 Gd121 2.435 . S
O150 C139 1.256 . S
O151 Gd120 2.327 . S
O151 Gd121 2.717 . S
O151 C139 1.257 . S
H152 C125 0.930 . S
H153 C126 0.931 . S
H154 C128 0.931 . S
H155 C129 0.931 . S
H156 C134 0.930 . S
H157 C135 0.931 . S
H158 C137 0.931 . S
H159 C138 0.931 . S
Gd160 C163 2.818 . S
Gd160 O180 2.377 . S
Gd160 O182 2.448 . S
Gd160 O183 2.506 1_554 S
Gd160 O184 2.435 . S
Gd160 O185 2.717 . S
Gd160 O187 2.395 . S
Gd160 O191 2.327 1_554 S
Gd161 C172 2.818 . S
Gd161 O181 2.395 . S
Gd161 O185 2.327 . S
Gd161 O186 2.377 1_554 S
Gd161 O188 2.448 1_554 S
Gd161 O189 2.506 . S
Gd161 O190 2.435 1_554 S
Gd161 O191 2.717 1_554 S
C162 O180 1.240 . S
C162 O181 1.240 . S
C163 Gd160 2.818 . S
C163 C164 1.510 . S
C163 O182 1.249 . S
C163 O183 1.252 1_554 S
C164 C163 1.510 . S
C164 C165 1.404 . S
C164 C166 1.352 1_554 S
C165 C164 1.404 . S
C165 C169 1.389 . S
C165 H192 0.930 . S
C166 C164 1.352 1_556 S
C166 C168 1.374 . S
C166 H193 0.931 . S
C167 C168 1.359 . S
C167 C169 1.364 1_556 S
C168 C166 1.374 . S
C168 C167 1.359 . S
C168 H194 0.931 . S
C169 C165 1.389 . S
C169 C167 1.364 1_554 S
C169 H195 0.931 . S
C170 O184 1.256 . S
C170 O185 1.257 . S
C171 O186 1.240 1_554 S
C171 O187 1.240 . S
C172 Gd161 2.818 . S
C172 C173 1.510 . S
C172 O188 1.249 1_554 S
C172 O189 1.252 . S
C173 C172 1.510 . S
C173 C174 1.404 1_554 S
C173 C175 1.352 . S
C174 C173 1.404 1_556 S
C174 C178 1.389 . S
C174 H196 0.930 . S
C175 C173 1.352 . S
C175 C177 1.374 . S
C175 H197 0.931 . S
C176 C177 1.359 . S
C176 C178 1.364 1_554 S
C177 C175 1.374 . S
C177 C176 1.359 . S
C177 H198 0.931 . S
C178 C174 1.389 . S
C178 C176 1.364 1_556 S
C178 H199 0.931 . S
C179 O190 1.256 . S
C179 O191 1.257 . S
O180 Gd160 2.377 . S
O180 C162 1.240 . S
O181 Gd161 2.395 . S
O181 C162 1.240 . S
O182 Gd160 2.448 . S
O182 C163 1.249 . S
O183 Gd160 2.506 1_556 S
O183 C163 1.252 1_556 S
O184 Gd160 2.435 . S
O184 C170 1.256 . S
O185 Gd160 2.717 . S
O185 Gd161 2.327 . S
O185 C170 1.257 . S
O186 Gd161 2.377 1_556 S
O186 C171 1.240 1_556 S
O187 Gd160 2.395 . S
O187 C171 1.240 . S
O188 Gd161 2.448 1_556 S
O188 C172 1.249 1_556 S
O189 Gd161 2.506 . S
O189 C172 1.252 . S
O190 Gd161 2.435 1_556 S
O190 C179 1.256 . S
O191 Gd160 2.327 1_556 S
O191 Gd161 2.717 1_556 S
O191 C179 1.257 . S
H192 C165 0.930 . S
H193 C166 0.931 . S
H194 C168 0.931 . S
H195 C169 0.931 . S
H196 C174 0.930 . S
H197 C175 0.931 . S
H198 C177 0.931 . S
H199 C178 0.931 . S
Gd200 C203 2.818 . S
Gd200 O220 2.377 . S
Gd200 O222 2.448 . S
Gd200 O223 2.506 1_554 S
Gd200 O224 2.435 . S
Gd200 O225 2.717 . S
Gd200 O227 2.395 . S
Gd200 O231 2.327 1_554 S
Gd201 C212 2.818 . S
Gd201 O221 2.395 . S
Gd201 O225 2.327 . S
Gd201 O226 2.377 1_554 S
Gd201 O228 2.448 1_554 S
Gd201 O229 2.506 . S
Gd201 O230 2.435 1_554 S
Gd201 O231 2.717 1_554 S
C202 O220 1.240 . S
C202 O221 1.240 . S
C203 Gd200 2.818 . S
C203 C204 1.510 . S
C203 O222 1.249 . S
C203 O223 1.252 1_554 S
C204 C203 1.510 . S
C204 C205 1.404 . S
C204 C206 1.352 1_554 S
C205 C204 1.404 . S
C205 C209 1.389 . S
C205 H232 0.930 . S
C206 C204 1.352 1_556 S
C206 C208 1.374 . S
C206 H233 0.931 . S
C207 C208 1.355 1_554 S
C207 C209 1.368 . S
C208 C206 1.374 . S
C208 C207 1.355 1_556 S
C208 H234 0.931 . S
C209 C205 1.389 . S
C209 C207 1.368 . S
C209 H235 0.931 . S
C210 O224 1.256 . S
C210 O225 1.257 . S
C211 O226 1.240 1_554 S
C211 O227 1.240 . S
C212 Gd201 2.818 . S
C212 C213 1.510 . S
C212 O228 1.249 1_554 S
C212 O229 1.252 . S
C213 C212 1.510 . S
C213 C214 1.404 1_554 S
C213 C215 1.352 . S
C214 C213 1.404 1_556 S
C214 C218 1.389 . S
C214 H236 0.930 . S
C215 C213 1.352 . S
C215 C217 1.374 . S
C215 H237 0.931 . S
C216 C217 1.359 . S
C216 C218 1.364 1_554 S
C217 C215 1.374 . S
C217 C216 1.359 . S
C217 H238 0.931 . S
C218 C214 1.389 . S
C218 C216 1.364 1_556 S
C218 H239 0.931 . S
C219 O230 1.256 . S
C219 O231 1.257 . S
O220 Gd200 2.377 . S
O220 C202 1.240 . S
O221 Gd201 2.395 . S
O221 C202 1.240 . S
O222 Gd200 2.448 . S
O222 C203 1.249 . S
O223 Gd200 2.506 1_556 S
O223 C203 1.252 1_556 S
O224 Gd200 2.435 . S
O224 C210 1.256 . S
O225 Gd200 2.717 . S
O225 Gd201 2.327 . S
O225 C210 1.257 . S
O226 Gd201 2.377 1_556 S
O226 C211 1.240 1_556 S
O227 Gd200 2.395 . S
O227 C211 1.240 . S
O228 Gd201 2.448 1_556 S
O228 C212 1.249 1_556 S
O229 Gd201 2.506 . S
O229 C212 1.252 . S
O230 Gd201 2.435 1_556 S
O230 C219 1.256 . S
O231 Gd200 2.327 1_556 S
O231 Gd201 2.717 1_556 S
O231 C219 1.257 . S
H232 C205 0.930 . S
H233 C206 0.931 . S
H234 C208 0.931 . S
H235 C209 0.931 . S
H236 C214 0.930 . S
H237 C215 0.931 . S
H238 C217 0.931 . S
H239 C218 0.931 . S
Gd240 C243 2.818 . S
Gd240 O260 2.377 . S
Gd240 O262 2.448 . S
Gd240 O263 2.506 . S
Gd240 O264 2.435 . S
Gd240 O265 2.717 . S
Gd240 O267 2.395 . S
Gd240 O271 2.327 . S
Gd241 C252 2.818 . S
Gd241 O261 2.395 . S
Gd241 O265 2.327 . S
Gd241 O266 2.377 . S
Gd241 O268 2.448 . S
Gd241 O269 2.506 . S
Gd241 O270 2.435 . S
Gd241 O271 2.717 . S
C242 O260 1.240 . S
C242 O261 1.240 . S
C243 Gd240 2.818 . S
C243 C244 1.510 . S
C243 O262 1.249 . S
C243 O263 1.252 . S
C244 C243 1.510 . S
C244 C245 1.404 . S
C244 C246 1.352 . S
C245 C244 1.404 . S
C245 C249 1.389 . S
C245 H272 0.930 . S
C246 C244 1.352 . S
C246 C248 1.374 . S
C246 H273 0.931 . S
C247 C248 1.359 . S
C247 C249 1.364 . S
C248 C246 1.374 . S
C248 C247 1.359 . S
C248 H274 0.931 . S
C249 C245 1.389 . S
C249 C247 1.364 . S
C249 H275 0.931 . S
C250 O264 1.256 . S
C250 O265 1.257 . S
C251 O266 1.240 . S
C251 O267 1.240 . S
C252 Gd241 2.818 . S
C252 C253 1.510 . S
C252 O268 1.249 . S
C252 O269 1.252 . S
C253 C252 1.510 . S
C253 C254 1.404 . S
C253 C255 1.352 . S
C254 C253 1.404 . S
C254 C258 1.389 . S
C254 H276 0.930 . S
C255 C253 1.352 . S
C255 C257 1.374 . S
C255 H277 0.931 . S
C256 C257 1.359 . S
C256 C258 1.364 . S
C257 C255 1.374 . S
C257 C256 1.359 . S
C257 H278 0.931 . S
C258 C254 1.389 . S
C258 C256 1.364 . S
C258 H279 0.931 . S
C259 O270 1.256 . S
C259 O271 1.257 . S
O260 Gd240 2.377 . S
O260 C242 1.240 . S
O261 Gd241 2.395 . S
O261 C242 1.240 . S
O262 Gd240 2.448 . S
O262 C243 1.249 . S
O263 Gd240 2.506 . S
O263 C243 1.252 . S
O264 Gd240 2.435 . S
O264 C250 1.256 . S
O265 Gd240 2.717 . S
O265 Gd241 2.327 . S
O265 C250 1.257 . S
O266 Gd241 2.377 . S
O266 C251 1.240 . S
O267 Gd240 2.395 . S
O267 C251 1.240 . S
O268 Gd241 2.448 . S
O268 C252 1.249 . S
O269 Gd241 2.506 . S
O269 C252 1.252 . S
O270 Gd241 2.435 . S
O270 C259 1.256 . S
O271 Gd240 2.327 . S
O271 Gd241 2.717 . S
O271 C259 1.257 . S
H272 C245 0.930 . S
H273 C246 0.931 . S
H274 C248 0.931 . S
H275 C249 0.931 . S
H276 C254 0.930 . S
H277 C255 0.931 . S
H278 C257 0.931 . S
H279 C258 0.931 . S
Gd280 C283 2.818 . S
Gd280 O300 2.377 . S
Gd280 O302 2.448 . S
Gd280 O303 2.506 . S
Gd280 O304 2.435 . S
Gd280 O305 2.717 . S
Gd280 O307 2.395 . S
Gd280 O311 2.327 . S
Gd281 C292 2.818 . S
Gd281 O301 2.395 . S
Gd281 O305 2.327 . S
Gd281 O306 2.377 . S
Gd281 O308 2.448 . S
Gd281 O309 2.506 . S
Gd281 O310 2.435 . S
Gd281 O311 2.717 . S
C282 O300 1.240 . S
C282 O301 1.240 . S
C283 Gd280 2.818 . S
C283 C284 1.510 . S
C283 O302 1.249 . S
C283 O303 1.252 . S
C284 C283 1.510 . S
C284 C285 1.404 . S
C284 C286 1.352 . S
C285 C284 1.404 . S
C285 C289 1.389 . S
C285 H312 0.930 . S
C286 C284 1.352 . S
C286 C288 1.374 . S
C286 H313 0.931 . S
C287 C288 1.359 . S
C287 C289 1.364 . S
C288 C286 1.374 . S
C288 C287 1.359 . S
C288 H314 0.931 . S
C289 C285 1.389 . S
C289 C287 1.364 . S
C289 H315 0.931 . S
C290 O304 1.256 . S
C290 O305 1.257 . S
C291 O306 1.240 . S
C291 O307 1.240 . S
C292 Gd281 2.818 . S
C292 C293 1.510 . S
C292 O308 1.249 . S
C292 O309 1.252 . S
C293 C292 1.510 . S
C293 C294 1.404 . S
C293 C295 1.352 . S
C294 C293 1.404 . S
C294 C298 1.389 . S
C294 H316 0.930 . S
C295 C293 1.352 . S
C295 C297 1.374 . S
C295 H317 0.931 . S
C296 C297 1.359 . S
C296 C298 1.364 . S
C297 C295 1.374 . S
C297 C296 1.359 . S
C297 H318 0.931 . S
C298 C294 1.389 . S
C298 C296 1.364 . S
C298 H319 0.931 . S
C299 O310 1.256 . S
C299 O311 1.257 . S
O300 Gd280 2.377 . S
O300 C282 1.240 . S
O301 Gd281 2.395 . S
O301 C282 1.240 . S
O302 Gd280 2.448 . S
O302 C283 1.249 . S
O303 Gd280 2.506 . S
O303 C283 1.252 . S
O304 Gd280 2.435 . S
O304 C290 1.256 . S
O305 Gd280 2.717 . S
O305 Gd281 2.327 . S
O305 C290 1.257 . S
O306 Gd281 2.377 . S
O306 C291 1.240 . S
O307 Gd280 2.395 . S
O307 C291 1.240 . S
O308 Gd281 2.448 . S
O308 C292 1.249 . S
O309 Gd281 2.506 . S
O309 C292 1.252 . S
O310 Gd281 2.435 . S
O310 C299 1.256 . S
O311 Gd280 2.327 . S
O311 Gd281 2.717 . S
O311 C299 1.257 . S
H312 C285 0.930 . S
H313 C286 0.931 . S
H314 C288 0.931 . S
H315 C289 0.931 . S
H316 C294 0.930 . S
H317 C295 0.931 . S
H318 C297 0.931 . S
H319 C298 0.931 . S
H320 C332 0.930 . S
H321 C334 0.930 . S
H322 C335 0.930 . S
H323 C339 0.959 . S
H324 C339 0.959 . S
H325 C339 0.961 . S
H326 C340 0.960 . S
H327 C340 0.961 . S
H328 C340 0.959 . S
H329 C343 0.929 . S
H330 C344 0.931 . S
H331 C346 0.930 . S
C332 H320 0.930 . S
C332 C333 1.399 . S
C332 C337 1.399 . S
C333 C332 1.399 . S
C333 C334 1.376 1_554 S
C334 H321 0.930 . S
C334 C333 1.376 1_556 S
C334 C335 1.388 . S
C335 H322 0.930 . S
C335 C334 1.388 . S
C335 C336 1.390 . S
C336 C335 1.390 . S
C336 C337 1.394 1_556 S
C336 C342 1.465 . S
C337 C332 1.399 . S
C337 C336 1.394 1_554 S
C337 C338 1.516 . S
C338 C337 1.516 . S
C338 C339 1.502 . S
C338 C340 1.561 . S
C338 C341 1.526 . S
C339 H323 0.959 . S
C339 H324 0.959 . S
C339 H325 0.961 . S
C339 C338 1.502 . S
C340 H326 0.960 . S
C340 H327 0.961 . S
C340 H328 0.959 . S
C340 C338 1.561 . S
C341 C338 1.526 . S
C341 C342 1.396 1_554 S
C341 C346 1.390 . S
C342 C336 1.465 . S
C342 C341 1.396 1_556 S
C342 C343 1.399 . S
C343 H329 0.929 . S
C343 C342 1.399 . S
C343 C344 1.385 . S
C344 H330 0.931 . S
C344 C343 1.385 . S
C344 C345 1.389 1_556 S
C345 C344 1.389 1_554 S
C345 C346 1.387 . S
C346 H331 0.930 . S
C346 C341 1.390 . S
C346 C345 1.387 . S
H347 C359 0.930 1_556 S
H348 C361 0.930 . S
H349 C362 0.930 . S
H350 C366 0.959 . S
H351 C366 0.959 . S
H352 C366 0.961 . S
H353 C367 0.960 . S
H354 C367 0.961 . S
H355 C367 0.959 . S
H356 C370 0.929 . S
H357 C371 0.931 . S
H358 C373 0.930 1_556 S
C359 H347 0.930 1_554 S
C359 C360 1.399 . S
C359 C364 1.399 . S
C360 C359 1.399 . S
C360 C361 1.376 . S
C361 H348 0.930 . S
C361 C360 1.376 . S
C361 C362 1.388 . S
C362 H349 0.930 . S
C362 C361 1.388 . S
C362 C363 1.390 . S
C363 C362 1.390 . S
C363 C364 1.394 . S
C363 C369 1.465 . S
C364 C359 1.399 . S
C364 C363 1.394 . S
C364 C365 1.516 1_554 S
C365 C364 1.516 1_556 S
C365 C366 1.502 1_556 S
C365 C367 1.561 . S
C365 C368 1.526 1_556 S
C366 H350 0.959 . S
C366 H351 0.959 . S
C366 H352 0.961 . S
C366 C365 1.502 1_554 S
C367 H353 0.960 . S
C367 H354 0.961 . S
C367 H355 0.959 . S
C367 C365 1.561 . S
C368 C365 1.526 1_554 S
C368 C369 1.396 . S
C368 C373 1.390 . S
C369 C363 1.465 . S
C369 C368 1.396 . S
C369 C370 1.399 . S
C370 H356 0.929 . S
C370 C369 1.399 . S
C370 C371 1.385 . S
C371 H357 0.931 . S
C371 C370 1.385 . S
C371 C372 1.389 . S
C372 C371 1.389 . S
C372 C373 1.387 . S
C373 H358 0.930 1_554 S
C373 C368 1.390 . S
C373 C372 1.387 . S
H374 C386 0.930 . S
H375 C388 0.930 . S
H376 C389 0.930 . S
H377 C393 0.959 . S
H378 C393 0.959 . S
H379 C393 0.961 . S
H380 C394 0.960 . S
H381 C394 0.961 . S
H382 C394 0.959 . S
H383 C397 0.929 . S
H384 C398 0.931 . S
H385 C400 0.930 . S
C386 H374 0.930 . S
C386 C387 1.399 . S
C386 C391 1.399 . S
C387 C386 1.399 . S
C387 C388 1.376 . S
C388 H375 0.930 . S
C388 C387 1.376 . S
C388 C389 1.388 . S
C389 H376 0.930 . S
C389 C388 1.388 . S
C389 C390 1.390 . S
C390 C389 1.390 . S
C390 C391 1.394 . S
C390 C396 1.465 . S
C391 C386 1.399 . S
C391 C390 1.394 . S
C391 C392 1.516 . S
C392 C391 1.516 . S
C392 C393 1.502 . S
C392 C394 1.561 . S
C392 C395 1.526 . S
C393 H377 0.959 . S
C393 H378 0.959 . S
C393 H379 0.961 . S
C393 C392 1.502 . S
C394 H380 0.960 . S
C394 H381 0.961 . S
C394 H382 0.959 . S
C394 C392 1.561 . S
C395 C392 1.526 . S
C395 C396 1.396 . S
C395 C400 1.390 . S
C396 C390 1.465 . S
C396 C395 1.396 . S
C396 C397 1.399 . S
C397 H383 0.929 . S
C397 C396 1.399 . S
C397 C398 1.385 . S
C398 H384 0.931 . S
C398 C397 1.385 . S
C398 C399 1.389 . S
C399 C398 1.389 . S
C399 C400 1.387 . S
C400 H385 0.930 . S
C400 C395 1.390 . S
C400 C399 1.387 . S
H401 C413 0.930 . S
H402 C415 0.930 . S
H403 C416 0.930 . S
H404 C420 0.959 . S
H405 C420 0.959 . S
H406 C420 0.961 . S
H407 C421 0.960 . S
H408 C421 0.961 . S
H409 C421 0.959 . S
H410 C424 0.929 . S
H411 C425 0.931 . S
H412 C427 0.930 . S
C413 H401 0.930 . S
C413 C414 1.399 . S
C413 C418 1.399 . S
C414 C413 1.399 . S
C414 C415 1.376 . S
C415 H402 0.930 . S
C415 C414 1.376 . S
C415 C416 1.388 . S
C416 H403 0.930 . S
C416 C415 1.388 . S
C416 C417 1.390 . S
C417 C416 1.390 . S
C417 C418 1.394 . S
C417 C423 1.465 . S
C418 C413 1.399 . S
C418 C417 1.394 . S
C418 C419 1.516 . S
C419 C418 1.516 . S
C419 C420 1.502 . S
C419 C421 1.561 . S
C419 C422 1.526 . S
C420 H404 0.959 . S
C420 H405 0.959 . S
C420 H406 0.961 . S
C420 C419 1.502 . S
C421 H407 0.960 . S
C421 H408 0.961 . S
C421 H409 0.959 . S
C421 C419 1.561 . S
C422 C419 1.526 . S
C422 C423 1.396 . S
C422 C427 1.390 . S
C423 C417 1.465 . S
C423 C422 1.396 . S
C423 C424 1.399 . S
C424 H410 0.929 . S
C424 C423 1.399 . S
C424 C425 1.385 . S
C425 H411 0.931 . S
C425 C424 1.385 . S
C425 C426 1.389 . S
C426 C425 1.389 . S
C426 C427 1.387 . S
C427 H412 0.930 . S
C427 C422 1.390 . S
C427 C426 1.387 . S
H428 C440 0.930 . S
H429 C442 0.930 . S
H430 C443 0.930 . S
H431 C447 0.959 . S
H432 C447 0.959 . S
H433 C447 0.961 . S
H434 C448 0.960 . S
H435 C448 0.961 . S
H436 C448 0.959 . S
H437 C451 0.929 . S
H438 C452 0.931 . S
H439 C454 0.930 . S
C440 H428 0.930 . S
C440 C441 1.399 1_556 S
C440 C445 1.399 . S
C441 C440 1.399 1_554 S
C441 C442 1.376 . S
C442 H429 0.930 . S
C442 C441 1.376 . S
C442 C443 1.388 . S
C443 H430 0.930 . S
C443 C442 1.388 . S
C443 C444 1.390 1_655 S
C444 C443 1.390 1_455 S
C444 C445 1.394 1_454 S
C444 C450 1.465 . S
C445 C440 1.399 . S
C445 C444 1.394 1_656 S
C445 C446 1.516 1_655 S
C446 C445 1.516 1_455 S
C446 C447 1.502 . S
C446 C448 1.561 . S
C446 C449 1.526 . S
C447 H431 0.959 . S
C447 H432 0.959 . S
C447 H433 0.961 . S
C447 C446 1.502 . S
C448 H434 0.960 . S
C448 H435 0.961 . S
C448 H436 0.959 . S
C448 C446 1.561 . S
C449 C446 1.526 . S
C449 C450 1.396 1_556 S
C449 C454 1.390 . S
C450 C444 1.465 . S
C450 C449 1.396 1_554 S
C450 C451 1.399 . S
C451 H437 0.929 . S
C451 C450 1.399 . S
C451 C452 1.385 . S
C452 H438 0.931 . S
C452 C451 1.385 . S
C452 C453 1.389 . S
C453 C452 1.389 . S
C453 C454 1.387 1_554 S
C454 H439 0.930 . S
C454 C449 1.390 . S
C454 C453 1.387 1_556 S
H455 C467 0.930 . S
H456 C469 0.930 . S
H457 C470 0.930 . S
H458 C474 0.959 . S
H459 C474 0.959 . S
H460 C474 0.961 . S
H461 C475 0.960 . S
H462 C475 0.961 . S
H463 C475 0.959 . S
H464 C478 0.929 . S
H465 C479 0.931 . S
H466 C481 0.930 . S
C467 H455 0.930 . S
C467 C468 1.399 . S
C467 C472 1.399 . S
C468 C467 1.399 . S
C468 C469 1.376 1_554 S
C469 H456 0.930 . S
C469 C468 1.376 1_556 S
C469 C470 1.388 . S
C470 H457 0.930 . S
C470 C469 1.388 . S
C470 C471 1.390 1_455 S
C471 C470 1.390 1_655 S
C471 C472 1.394 1_656 S
C471 C477 1.465 . S
C472 C467 1.399 . S
C472 C471 1.394 1_454 S
C472 C473 1.516 1_455 S
C473 C472 1.516 1_655 S
C473 C474 1.502 . S
C473 C475 1.561 . S
C473 C476 1.526 . S
C474 H458 0.959 . S
C474 H459 0.959 . S
C474 H460 0.961 . S
C474 C473 1.502 . S
C475 H461 0.960 . S
C475 H462 0.961 . S
C475 H463 0.959 . S
C475 C473 1.561 . S
C476 C473 1.526 . S
C476 C477 1.396 1_554 S
C476 C481 1.390 . S
C477 C471 1.465 . S
C477 C476 1.396 1_556 S
C477 C478 1.399 . S
C478 H464 0.929 . S
C478 C477 1.399 . S
C478 C479 1.385 . S
C479 H465 0.931 . S
C479 C478 1.385 . S
C479 C480 1.389 1_556 S
C480 C479 1.389 1_554 S
C480 C481 1.387 . S
C481 H466 0.930 . S
C481 C476 1.390 . S
C481 C480 1.387 . S
H482 C494 0.930 . S
H483 C496 0.930 . S
H484 C497 0.930 . S
H485 C501 0.959 . S
H486 C501 0.959 1_655 S
H487 C501 0.961 . S
H488 C502 0.960 . S
H489 C502 0.961 . S
H490 C502 0.959 . S
H491 C505 0.929 1_455 S
H492 C506 0.931 . S
H493 C508 0.930 . S
C494 H482 0.930 . S
C494 C495 1.399 . S
C494 C499 1.399 . S
C495 C494 1.399 . S
C495 C496 1.376 . S
C496 H483 0.930 . S
C496 C495 1.376 . S
C496 C497 1.388 . S
C497 H484 0.930 . S
C497 C496 1.388 . S
C497 C498 1.390 . S
C498 C497 1.390 . S
C498 C499 1.394 . S
C498 C504 1.465 . S
C499 C494 1.399 . S
C499 C498 1.394 . S
C499 C500 1.516 . S
C500 C499 1.516 . S
C500 C501 1.502 . S
C500 C502 1.561 . S
C500 C503 1.526 1_455 S
C501 H485 0.959 . S
C501 H486 0.959 1_455 S
C501 H487 0.961 . S
C501 C500 1.502 . S
C502 H488 0.960 . S
C502 H489 0.961 . S
C502 H490 0.959 . S
C502 C500 1.561 . S
C503 C500 1.526 1_655 S
C503 C504 1.396 1_655 S
C503 C508 1.390 . S
C504 C498 1.465 . S
C504 C503 1.396 1_455 S
C504 C505 1.399 1_455 S
C505 H491 0.929 1_655 S
C505 C504 1.399 1_655 S
C505 C506 1.385 . S
C506 H492 0.931 . S
C506 C505 1.385 . S
C506 C507 1.389 . S
C507 C506 1.389 . S
C507 C508 1.387 . S
C508 H493 0.930 . S
C508 C503 1.390 . S
C508 C507 1.387 . S
H509 C521 0.930 . S
H510 C523 0.930 . S
H511 C524 0.930 . S
H512 C528 0.959 . S
H513 C528 0.959 . S
H514 C528 0.961 . S
H515 C529 0.960 . S
H516 C529 0.961 . S
H517 C529 0.959 . S
H518 C532 0.929 . S
H519 C533 0.931 . S
H520 C535 0.930 . S
C521 H509 0.930 . S
C521 C522 1.399 . S
C521 C526 1.399 . S
C522 C521 1.399 . S
C522 C523 1.376 . S
C523 H510 0.930 . S
C523 C522 1.376 . S
C523 C524 1.388 . S
C524 H511 0.930 . S
C524 C523 1.388 . S
C524 C525 1.390 . S
C525 C524 1.390 . S
C525 C526 1.394 . S
C525 C531 1.465 . S
C526 C521 1.399 . S
C526 C525 1.394 . S
C526 C527 1.516 . S
C527 C526 1.516 . S
C527 C528 1.502 . S
C527 C529 1.561 . S
C527 C530 1.526 1_655 S
C528 H512 0.959 . S
C528 H513 0.959 . S
C528 H514 0.961 . S
C528 C527 1.502 . S
C529 H515 0.960 . S
C529 H516 0.961 . S
C529 H517 0.959 . S
C529 C527 1.561 . S
C530 C527 1.526 1_455 S
C530 C531 1.396 1_455 S
C530 C535 1.390 . S
C531 C525 1.465 . S
C531 C530 1.396 1_655 S
C531 C532 1.399 1_655 S
C532 H518 0.929 . S
C532 C531 1.399 1_455 S
C532 C533 1.385 . S
C533 H519 0.931 . S
C533 C532 1.385 . S
C533 C534 1.389 . S
C534 C533 1.389 . S
C534 C535 1.387 . S
C535 H520 0.930 . S
C535 C530 1.390 . S
C535 C534 1.387 . S
H536 C548 0.930 . S
H537 C550 0.930 1_655 S
H538 C551 0.930 . S
H539 C555 0.959 . S
H540 C555 0.959 . S
H541 C555 0.961 . S
H542 C556 0.960 . S
H543 C556 0.961 . S
H544 C556 0.959 . S
H545 C559 0.929 . S
H546 C560 0.931 . S
H547 C562 0.930 1_456 S
C548 H536 0.930 . S
C548 C549 1.399 . S
C548 C553 1.399 . S
C549 C548 1.399 . S
C549 C550 1.376 . S
C550 H537 0.930 1_455 S
C550 C549 1.376 . S
C550 C551 1.388 1_455 S
C551 H538 0.930 . S
C551 C550 1.388 1_655 S
C551 C552 1.390 . S
C552 C551 1.390 . S
C552 C553 1.394 1_655 S
C552 C558 1.465 . S
C553 C548 1.399 . S
C553 C552 1.394 1_455 S
C553 C554 1.516 . S
C554 C553 1.516 . S
C554 C555 1.502 1_554 S
C554 C556 1.561 . S
C554 C557 1.526 . S
C555 H539 0.959 . S
C555 H540 0.959 . S
C555 H541 0.961 . S
C555 C554 1.502 1_556 S
C556 H542 0.960 . S
C556 H543 0.961 . S
C556 H544 0.959 . S
C556 C554 1.561 . S
C557 C554 1.526 . S
C557 C558 1.396 1_455 S
C557 C562 1.390 1_455 S
C558 C552 1.465 . S
C558 C557 1.396 1_655 S
C558 C559 1.399 . S
C559 H545 0.929 . S
C559 C558 1.399 . S
C559 C560 1.385 . S
C560 H546 0.931 . S
C560 C559 1.385 . S
C560 C561 1.389 . S
C561 C560 1.389 . S
C561 C562 1.387 . S
C562 H547 0.930 1_654 S
C562 C557 1.390 1_655 S
C562 C561 1.387 . S
H563 C575 0.930 . S
H564 C577 0.930 . S
H565 C578 0.930 . S
H566 C582 0.959 . S
H567 C582 0.959 . S
H568 C582 0.961 . S
H569 C583 0.960 1_455 S
H570 C583 0.961 . S
H571 C583 0.959 . S
H572 C586 0.929 . S
H573 C587 0.931 . S
H574 C589 0.930 . S
C575 H563 0.930 . S
C575 C576 1.399 . S
C575 C580 1.399 . S
C576 C575 1.399 . S
C576 C577 1.376 . S
C577 H564 0.930 . S
C577 C576 1.376 . S
C577 C578 1.388 1_455 S
C578 H565 0.930 . S
C578 C577 1.388 1_655 S
C578 C579 1.390 . S
C579 C578 1.390 . S
C579 C580 1.394 1_655 S
C579 C585 1.465 . S
C580 C575 1.399 . S
C580 C579 1.394 1_455 S
C580 C581 1.516 . S
C581 C580 1.516 . S
C581 C582 1.502 . S
C581 C583 1.561 1_455 S
C581 C584 1.526 1_455 S
C582 H566 0.959 . S
C582 H567 0.959 . S
C582 H568 0.961 . S
C582 C581 1.502 . S
C583 H569 0.960 1_655 S
C583 H570 0.961 . S
C583 H571 0.959 . S
C583 C581 1.561 1_655 S
C584 C581 1.526 1_655 S
C584 C585 1.396 . S
C584 C589 1.390 . S
C585 C579 1.465 . S
C585 C584 1.396 . S
C585 C586 1.399 . S
C586 H572 0.929 . S
C586 C585 1.399 . S
C586 C587 1.385 . S
C587 H573 0.931 . S
C587 C586 1.385 . S
C587 C588 1.389 . S
C588 C587 1.389 . S
C588 C589 1.387 . S
C589 H574 0.930 . S
C589 C584 1.390 . S
C589 C588 1.387 . S
H590 C602 0.930 . S
H591 C604 0.930 . S
H592 C605 0.930 . S
H593 C609 0.996 . S
H594 C609 0.959 . S
H595 C609 0.916 1_565 S
H596 C610 0.960 . S
H597 C610 0.961 . S
H598 C610 0.959 1_554 S
H599 C613 0.929 . S
H600 C614 0.931 . S
H601 C616 0.930 . S
C602 H590 0.930 . S
C602 C603 1.399 1_556 S
C602 C607 1.399 . S
C603 C602 1.399 1_554 S
C603 C604 1.376 . S
C604 H591 0.930 . S
C604 C603 1.376 . S
C604 C605 1.388 . S
C605 H592 0.930 . S
C605 C604 1.388 . S
C605 C606 1.390 . S
C606 C605 1.390 . S
C606 C607 1.394 1_554 S
C606 C612 1.465 1_565 S
C607 C602 1.399 . S
C607 C606 1.394 1_556 S
C607 C608 1.516 1_565 S
C608 C607 1.516 1_545 S
C608 C609 1.502 . S
C608 C610 1.561 . S
C608 C611 1.525 1_556 S
C609 H593 0.996 . S
C609 H594 0.959 . S
C609 H595 0.916 1_545 S
C609 C608 1.502 . S
C610 H596 0.960 . S
C610 H597 0.961 . S
C610 H598 0.959 1_556 S
C610 C608 1.561 . S
C611 C608 1.525 1_554 S
C611 C612 1.397 . S
C611 C616 1.389 1_554 S
C612 C606 1.465 1_545 S
C612 C611 1.397 . S
C612 C613 1.399 . S
C613 H599 0.929 . S
C613 C612 1.399 . S
C613 C614 1.385 . S
C614 H600 0.931 . S
C614 C613 1.385 . S
C614 C615 1.389 . S
C615 C614 1.389 . S
C615 C616 1.387 1_554 S
C616 H601 0.930 . S
C616 C611 1.389 1_556 S
C616 C615 1.387 1_556 S
H617 C629 0.930 . S
H618 C631 0.930 . S
H619 C632 0.930 . S
H620 C636 0.959 . S
H621 C636 0.959 . S
H622 C636 0.961 . S
H623 C637 0.935 1_545 S
H624 C637 0.977 . S
H625 C637 0.975 . S
H626 C640 0.929 . S
H627 C641 0.931 . S
H628 C643 0.930 . S
C629 H617 0.930 . S
C629 C630 1.399 . S
C629 C634 1.399 . S
C630 C629 1.399 . S
C630 C631 1.376 . S
C631 H618 0.930 . S
C631 C630 1.376 . S
C631 C632 1.388 . S
C632 H619 0.930 . S
C632 C631 1.388 . S
C632 C633 1.390 . S
C633 C632 1.390 . S
C633 C634 1.394 . S
C633 C639 1.465 1_545 S
C634 C629 1.399 . S
C634 C633 1.394 . S
C634 C635 1.516 . S
C635 C634 1.516 . S
C635 C636 1.502 . S
C635 C637 1.554 1_545 S
C635 C638 1.526 1_545 S
C636 H620 0.959 . S
C636 H621 0.959 . S
C636 H622 0.961 . S
C636 C635 1.502 . S
C637 H623 0.935 1_565 S
C637 H624 0.977 . S
C637 H625 0.975 . S
C637 C635 1.554 1_565 S
C638 C635 1.526 1_565 S
C638 C639 1.396 . S
C638 C643 1.390 . S
C639 C633 1.465 1_565 S
C639 C638 1.396 . S
C639 C640 1.399 . S
C640 H626 0.929 . S
C640 C639 1.399 . S
C640 C641 1.385 . S
C641 H627 0.931 . S
C641 C640 1.385 . S
C641 C642 1.389 . S
C642 C641 1.389 . S
C642 C643 1.387 . S
C643 H628 0.930 . S
C643 C638 1.390 . S
C643 C642 1.387 . S
H644 C656 0.930 . S
H645 C658 0.930 . S
H646 C659 0.930 . S
H647 C663 0.959 . S
H648 C663 0.959 . S
H649 C663 0.961 . S
H650 C664 0.960 . S
H651 C664 0.961 . S
H652 C664 0.959 1_554 S
H653 C667 0.929 . S
H654 C668 0.931 . S
H655 C670 0.930 . S
C656 H644 0.930 . S
C656 C657 1.399 1_556 S
C656 C661 1.399 1_556 S
C657 C656 1.399 1_554 S
C657 C658 1.376 . S
C658 H645 0.930 . S
C658 C657 1.376 . S
C658 C659 1.388 . S
C659 H646 0.930 . S
C659 C658 1.388 . S
C659 C660 1.390 . S
C660 C659 1.390 . S
C660 C661 1.394 . S
C660 C666 1.465 . S
C661 C656 1.399 1_554 S
C661 C660 1.394 . S
C661 C662 1.516 1_554 S
C662 C661 1.516 1_556 S
C662 C663 1.502 . S
C662 C664 1.561 . S
C662 C665 1.526 . S
C663 H647 0.959 . S
C663 H648 0.959 . S
C663 H649 0.961 . S
C663 C662 1.502 . S
C664 H650 0.960 . S
C664 H651 0.961 . S
C664 H652 0.959 1_556 S
C664 C662 1.561 . S
C665 C662 1.526 . S
C665 C666 1.396 1_556 S
C665 C670 1.390 . S
C666 C660 1.465 . S
C666 C665 1.396 1_554 S
C666 C667 1.399 . S
C667 H653 0.929 . S
C667 C666 1.399 . S
C667 C668 1.385 . S
C668 H654 0.931 . S
C668 C667 1.385 . S
C668 C669 1.389 . S
C669 C668 1.389 . S
C669 C670 1.387 1_554 S
C670 H655 0.930 . S
C670 C665 1.390 . S
C670 C669 1.387 1_556 S
H671 C683 0.930 . S
H672 C685 0.930 . S
H673 C686 0.930 . S
H674 C690 0.959 . S
H675 C690 0.959 . S
H676 C690 0.961 . S
H677 C691 0.960 . S
H678 C691 0.961 . S
H679 C691 0.959 . S
H680 C694 0.929 . S
H681 C695 0.931 . S
H682 C697 0.930 . S
C683 H671 0.930 . S
C683 C684 1.399 . S
C683 C688 1.399 . S
C684 C683 1.399 . S
C684 C685 1.376 1_554 S
C685 H672 0.930 . S
C685 C684 1.376 1_556 S
C685 C686 1.388 . S
C686 H673 0.930 . S
C686 C685 1.388 . S
C686 C687 1.390 . S
C687 C686 1.390 . S
C687 C688 1.394 1_556 S
C687 C693 1.465 . S
C688 C683 1.399 . S
C688 C687 1.394 1_554 S
C688 C689 1.516 . S
C689 C688 1.516 . S
C689 C690 1.502 . S
C689 C691 1.561 . S
C689 C692 1.526 . S
C690 H674 0.959 . S
C690 H675 0.959 . S
C690 H676 0.961 . S
C690 C689 1.502 . S
C691 H677 0.960 . S
C691 H678 0.961 . S
C691 H679 0.959 . S
C691 C689 1.561 . S
C692 C689 1.526 . S
C692 C693 1.396 1_554 S
C692 C697 1.390 . S
C693 C687 1.465 . S
C693 C692 1.396 1_556 S
C693 C694 1.399 . S
C694 H680 0.929 . S
C694 C693 1.399 . S
C694 C695 1.385 . S
C695 H681 0.931 . S
C695 C694 1.385 . S
C695 C696 1.403 . S
C696 C695 1.403 . S
C696 C697 1.374 1_556 S
C697 H682 0.930 . S
C697 C692 1.390 . S
C697 C696 1.374 1_554 S
H698 C710 0.930 . S
H699 C712 0.930 . S
H700 C713 0.930 . S
H701 C717 0.959 . S
H702 C717 0.959 . S
H703 C717 0.961 . S
H704 C718 0.960 . S
H705 C718 0.961 . S
H706 C718 0.959 . S
H707 C721 0.929 . S
H708 C722 0.931 . S
H709 C724 0.930 . S
C710 H698 0.930 . S
C710 C711 1.399 . S
C710 C715 1.399 . S
C711 C710 1.399 . S
C711 C712 1.376 . S
C712 H699 0.930 . S
C712 C711 1.376 . S
C712 C713 1.388 . S
C713 H700 0.930 . S
C713 C712 1.388 . S
C713 C714 1.390 . S
C714 C713 1.390 . S
C714 C715 1.394 . S
C714 C720 1.465 . S
C715 C710 1.399 . S
C715 C714 1.394 . S
C715 C716 1.516 . S
C716 C715 1.516 . S
C716 C717 1.502 . S
C716 C718 1.561 . S
C716 C719 1.526 . S
C717 H701 0.959 . S
C717 H702 0.959 . S
C717 H703 0.961 . S
C717 C716 1.502 . S
C718 H704 0.960 . S
C718 H705 0.961 . S
C718 H706 0.959 . S
C718 C716 1.561 . S
C719 C716 1.526 . S
C719 C720 1.396 . S
C719 C724 1.390 . S
C720 C714 1.465 . S
C720 C719 1.396 . S
C720 C721 1.399 . S
C721 H707 0.929 . S
C721 C720 1.399 . S
C721 C722 1.385 . S
C722 H708 0.931 . S
C722 C721 1.385 . S
C722 C723 1.389 . S
C723 C722 1.389 . S
C723 C724 1.387 . S
C724 H709 0.930 . S
C724 C719 1.390 . S
C724 C723 1.387 . S
H725 C737 0.930 . S
H726 C739 0.930 . S
H727 C740 0.930 . S
H728 C744 0.959 . S
H729 C744 0.959 . S
H730 C744 0.961 . S
H731 C745 0.960 . S
H732 C745 0.961 . S
H733 C745 0.959 . S
H734 C748 0.929 . S
H735 C749 0.931 . S
H736 C751 0.930 . S
C737 H725 0.930 . S
C737 C738 1.399 . S
C737 C742 1.399 . S
C738 C737 1.399 . S
C738 C739 1.376 . S
C739 H726 0.930 . S
C739 C738 1.376 . S
C739 C740 1.388 . S
C740 H727 0.930 . S
C740 C739 1.388 . S
C740 C741 1.390 . S
C741 C740 1.390 . S
C741 C742 1.394 . S
C741 C747 1.465 . S
C742 C737 1.399 . S
C742 C741 1.394 . S
C742 C743 1.516 . S
C743 C742 1.516 . S
C743 C744 1.502 . S
C743 C745 1.561 . S
C743 C746 1.526 . S
C744 H728 0.959 . S
C744 H729 0.959 . S
C744 H730 0.961 . S
C744 C743 1.502 . S
C745 H731 0.960 . S
C745 H732 0.961 . S
C745 H733 0.959 . S
C745 C743 1.561 . S
C746 C743 1.526 . S
C746 C747 1.396 . S
C746 C751 1.390 . S
C747 C741 1.465 . S
C747 C746 1.396 . S
C747 C748 1.399 . S
C748 H734 0.929 . S
C748 C747 1.399 . S
C748 C749 1.385 . S
C749 H735 0.931 . S
C749 C748 1.385 . S
C749 C750 1.389 . S
C750 C749 1.389 . S
C750 C751 1.387 . S
C751 H736 0.930 . S
C751 C746 1.390 . S
C751 C750 1.387 . S
H752 C764 0.930 . S
H753 C766 0.930 . S
H754 C767 0.930 . S
H755 C771 0.959 . S
H756 C771 0.959 . S
H757 C771 0.961 . S
H758 C772 0.960 . S
H759 C772 0.961 . S
H760 C772 0.959 . S
H761 C775 0.929 . S
H762 C776 0.931 . S
H763 C778 0.930 . S
C764 H752 0.930 . S
C764 C765 1.399 . S
C764 C769 1.399 . S
C765 C764 1.399 . S
C765 C766 1.376 . S
C766 H753 0.930 . S
C766 C765 1.376 . S
C766 C767 1.388 1_455 S
C767 H754 0.930 . S
C767 C766 1.388 1_655 S
C767 C768 1.390 . S
C768 C767 1.390 . S
C768 C769 1.394 1_655 S
C768 C774 1.465 . S
C769 C764 1.399 . S
C769 C768 1.394 1_455 S
C769 C770 1.516 . S
C770 C769 1.516 . S
C770 C771 1.502 . S
C770 C772 1.561 1_455 S
C770 C773 1.526 1_455 S
C771 H755 0.959 . S
C771 H756 0.959 . S
C771 H757 0.961 . S
C771 C770 1.502 . S
C772 H758 0.960 . S
C772 H759 0.961 . S
C772 H760 0.959 . S
C772 C770 1.561 1_655 S
C773 C770 1.526 1_655 S
C773 C774 1.396 . S
C773 C778 1.390 . S
C774 C768 1.465 . S
C774 C773 1.396 . S
C774 C775 1.399 . S
C775 H761 0.929 . S
C775 C774 1.399 . S
C775 C776 1.385 . S
C776 H762 0.931 . S
C776 C775 1.385 . S
C776 C777 1.389 . S
C777 C776 1.389 . S
C777 C778 1.387 . S
C778 H763 0.930 . S
C778 C773 1.390 . S
C778 C777 1.387 . S
H779 C791 0.930 1_455 S
H780 C793 0.930 . S
H781 C794 0.930 . S
H782 C798 0.959 . S
H783 C798 0.959 . S
H784 C798 0.961 . S
H785 C799 0.960 . S
H786 C799 0.961 1_455 S
H787 C799 0.959 . S
H788 C802 0.929 . S
H789 C803 0.931 1_655 S
H790 C805 0.930 . S
C791 H779 0.930 1_655 S
C791 C792 1.399 . S
C791 C796 1.399 . S
C792 C791 1.399 . S
C792 C793 1.376 . S
C793 H780 0.930 . S
C793 C792 1.376 . S
C793 C794 1.388 . S
C794 H781 0.930 . S
C794 C793 1.388 . S
C794 C795 1.390 . S
C795 C794 1.390 . S
C795 C796 1.394 . S
C795 C801 1.465 . S
C796 C791 1.399 . S
C796 C795 1.394 . S
C796 C797 1.516 1_655 S
C797 C796 1.516 1_455 S
C797 C798 1.502 . S
C797 C799 1.561 1_455 S
C797 C800 1.526 . S
C798 H782 0.959 . S
C798 H783 0.959 . S
C798 H784 0.961 . S
C798 C797 1.502 . S
C799 H785 0.960 . S
C799 H786 0.961 1_655 S
C799 H787 0.959 . S
C799 C797 1.561 1_655 S
C800 C797 1.526 . S
C800 C801 1.396 1_455 S
C800 C805 1.390 . S
C801 C795 1.465 . S
C801 C800 1.396 1_655 S
C801 C802 1.399 . S
C802 H788 0.929 . S
C802 C801 1.399 . S
C802 C803 1.385 1_655 S
C803 H789 0.931 1_455 S
C803 C802 1.385 1_455 S
C803 C804 1.389 . S
C804 C803 1.389 . S
C804 C805 1.387 . S
C805 H790 0.930 . S
C805 C800 1.390 . S
C805 C804 1.387 . S
H806 C818 0.930 . S
H807 C820 0.930 . S
H808 C821 0.930 . S
H809 C825 0.959 . S
H810 C825 0.959 . S
H811 C825 0.961 . S
H812 C826 0.960 . S
H813 C826 0.961 . S
H814 C826 0.959 . S
H815 C829 0.929 . S
H816 C830 0.931 . S
H817 C832 0.930 . S
C818 H806 0.930 . S
C818 C819 1.399 1_455 S
C818 C823 1.399 . S
C819 C818 1.399 1_655 S
C819 C820 1.376 . S
C820 H807 0.930 . S
C820 C819 1.376 . S
C820 C821 1.388 . S
C821 H808 0.930 . S
C821 C820 1.388 . S
C821 C822 1.390 . S
C822 C821 1.390 . S
C822 C823 1.394 1_655 S
C822 C828 1.465 . S
C823 C818 1.399 . S
C823 C822 1.394 1_455 S
C823 C824 1.516 . S
C824 C823 1.516 . S
C824 C825 1.502 . S
C824 C826 1.561 . S
C824 C827 1.526 . S
C825 H809 0.959 . S
C825 H810 0.959 . S
C825 H811 0.961 . S
C825 C824 1.502 . S
C826 H812 0.960 . S
C826 H813 0.961 . S
C826 H814 0.959 . S
C826 C824 1.561 . S
C827 C824 1.526 . S
C827 C828 1.396 1_455 S
C827 C832 1.390 . S
C828 C822 1.465 . S
C828 C827 1.396 1_655 S
C828 C829 1.399 . S
C829 H815 0.929 . S
C829 C828 1.399 . S
C829 C830 1.385 . S
C830 H816 0.931 . S
C830 C829 1.385 . S
C830 C831 1.389 1_655 S
C831 C830 1.389 1_455 S
C831 C832 1.387 . S
C832 H817 0.930 . S
C832 C827 1.390 . S
C832 C831 1.387 . S
H833 C845 0.930 . S
H834 C847 0.930 . S
H835 C848 0.930 . S
H836 C852 0.959 . S
H837 C852 0.959 . S
H838 C852 0.961 . S
H839 C853 0.960 . S
H840 C853 0.961 . S
H841 C853 0.959 . S
H842 C856 0.929 . S
H843 C857 0.931 . S
H844 C859 0.930 . S
C845 H833 0.930 . S
C845 C846 1.399 . S
C845 C850 1.399 . S
C846 C845 1.399 . S
C846 C847 1.376 . S
C847 H834 0.930 . S
C847 C846 1.376 . S
C847 C848 1.388 . S
C848 H835 0.930 . S
C848 C847 1.388 . S
C848 C849 1.390 . S
C849 C848 1.390 . S
C849 C850 1.394 . S
C849 C855 1.465 . S
C850 C845 1.399 . S
C850 C849 1.394 . S
C850 C851 1.516 1_655 S
C851 C850 1.516 1_455 S
C851 C852 1.502 . S
C851 C853 1.561 1_455 S
C851 C854 1.526 . S
C852 H836 0.959 . S
C852 H837 0.959 . S
C852 H838 0.961 . S
C852 C851 1.502 . S
C853 H839 0.960 . S
C853 H840 0.961 . S
C853 H841 0.959 . S
C853 C851 1.561 1_655 S
C854 C851 1.526 . S
C854 C855 1.396 1_455 S
C854 C859 1.390 . S
C855 C849 1.465 . S
C855 C854 1.396 1_655 S
C855 C856 1.399 . S
C856 H842 0.929 . S
C856 C855 1.399 . S
C856 C857 1.385 1_655 S
C857 H843 0.931 . S
C857 C856 1.385 1_455 S
C857 C858 1.389 . S
C858 C857 1.389 . S
C858 C859 1.387 . S
C859 H844 0.930 . S
C859 C854 1.390 . S
C859 C858 1.387 . S
H860 C872 0.930 . S
H861 C874 0.930 . S
H862 C875 0.930 . S
H863 C879 0.959 . S
H864 C879 0.959 . S
H865 C879 0.961 . S
H866 C880 0.960 . S
H867 C880 0.961 . S
H868 C880 0.959 . S
H869 C883 0.929 . S
H870 C884 0.931 . S
H871 C886 0.930 . S
C872 H860 0.930 . S
C872 C873 1.399 . S
C872 C877 1.399 . S
C873 C872 1.399 . S
C873 C874 1.376 . S
C874 H861 0.930 . S
C874 C873 1.376 . S
C874 C875 1.388 . S
C875 H862 0.930 . S
C875 C874 1.388 . S
C875 C876 1.390 . S
C876 C875 1.390 . S
C876 C877 1.394 . S
C876 C882 1.465 . S
C877 C872 1.399 . S
C877 C876 1.394 . S
C877 C878 1.516 . S
C878 C877 1.516 . S
C878 C879 1.502 . S
C878 C880 1.561 . S
C878 C881 1.526 . S
C879 H863 0.959 . S
C879 H864 0.959 . S
C879 H865 0.961 . S
C879 C878 1.502 . S
C880 H866 0.960 . S
C880 H867 0.961 . S
C880 H868 0.959 . S
C880 C878 1.561 . S
C881 C878 1.526 . S
C881 C882 1.396 . S
C881 C886 1.390 . S
C882 C876 1.465 . S
C882 C881 1.396 . S
C882 C883 1.399 . S
C883 H869 0.929 . S
C883 C882 1.399 . S
C883 C884 1.385 . S
C884 H870 0.931 . S
C884 C883 1.385 . S
C884 C885 1.389 . S
C885 C884 1.389 . S
C885 C886 1.387 . S
C886 H871 0.930 . S
C886 C881 1.390 . S
C886 C885 1.387 . S
H887 C899 0.930 . S
H888 C901 0.930 . S
H889 C902 0.930 . S
H890 C906 0.959 . S
H891 C906 0.959 . S
H892 C906 0.961 . S
H893 C907 0.960 . S
H894 C907 0.961 . S
H895 C907 0.959 . S
H896 C910 0.929 . S
H897 C911 0.931 . S
H898 C913 0.930 . S
C899 H887 0.930 . S
C899 C900 1.399 . S
C899 C904 1.399 . S
C900 C899 1.399 . S
C900 C901 1.376 . S
C901 H888 0.930 . S
C901 C900 1.376 . S
C901 C902 1.388 . S
C902 H889 0.930 . S
C902 C901 1.388 . S
C902 C903 1.390 . S
C903 C902 1.390 . S
C903 C904 1.394 . S
C903 C909 1.465 . S
C904 C899 1.399 . S
C904 C903 1.394 . S
C904 C905 1.516 . S
C905 C904 1.516 . S
C905 C906 1.502 . S
C905 C907 1.561 . S
C905 C908 1.526 . S
C906 H890 0.959 . S
C906 H891 0.959 . S
C906 H892 0.961 . S
C906 C905 1.502 . S
C907 H893 0.960 . S
C907 H894 0.961 . S
C907 H895 0.959 . S
C907 C905 1.561 . S
C908 C905 1.526 . S
C908 C909 1.396 . S
C908 C913 1.390 . S
C909 C903 1.465 . S
C909 C908 1.396 . S
C909 C910 1.399 . S
C910 H896 0.929 . S
C910 C909 1.399 . S
C910 C911 1.385 . S
C911 H897 0.931 . S
C911 C910 1.385 . S
C911 C912 1.389 . S
C912 C911 1.389 . S
C912 C913 1.387 . S
C913 H898 0.930 . S
C913 C908 1.390 . S
C913 C912 1.387 . S
H914 C926 0.930 . S
H915 C928 0.930 . S
H916 C929 0.930 . S
H917 C933 0.959 . S
H918 C933 0.959 . S
H919 C933 0.961 . S
H920 C934 0.960 . S
H921 C934 0.961 . S
H922 C934 0.959 . S
H923 C937 0.929 . S
H924 C938 0.931 . S
H925 C940 0.930 . S
C926 H914 0.930 . S
C926 C927 1.399 . S
C926 C931 1.399 . S
C927 C926 1.399 . S
C927 C928 1.376 . S
C928 H915 0.930 . S
C928 C927 1.376 . S
C928 C929 1.388 . S
C929 H916 0.930 . S
C929 C928 1.388 . S
C929 C930 1.390 . S
C930 C929 1.390 . S
C930 C931 1.394 . S
C930 C936 1.465 . S
C931 C926 1.399 . S
C931 C930 1.394 . S
C931 C932 1.516 . S
C932 C931 1.516 . S
C932 C933 1.502 . S
C932 C934 1.561 . S
C932 C935 1.526 . S
C933 H917 0.959 . S
C933 H918 0.959 . S
C933 H919 0.961 . S
C933 C932 1.502 . S
C934 H920 0.960 . S
C934 H921 0.961 . S
C934 H922 0.959 . S
C934 C932 1.561 . S
C935 C932 1.526 . S
C935 C936 1.396 . S
C935 C940 1.390 . S
C936 C930 1.465 . S
C936 C935 1.396 . S
C936 C937 1.399 . S
C937 H923 0.929 . S
C937 C936 1.399 . S
C937 C938 1.385 . S
C938 H924 0.931 . S
C938 C937 1.385 . S
C938 C939 1.389 . S
C939 C938 1.389 . S
C939 C940 1.387 . S
C940 H925 0.930 . S
C940 C935 1.390 . S
C940 C939 1.387 . S
H941 C953 0.930 . S
H942 C955 0.930 . S
H943 C956 0.930 . S
H944 C960 0.959 . S
H945 C960 0.959 . S
H946 C960 0.961 . S
H947 C961 0.960 . S
H948 C961 0.961 . S
H949 C961 0.959 . S
H950 C964 0.929 . S
H951 C965 0.931 . S
H952 C967 0.930 . S
C953 H941 0.930 . S
C953 C954 1.399 . S
C953 C958 1.399 . S
C954 C953 1.399 . S
C954 C955 1.376 . S
C955 H942 0.930 . S
C955 C954 1.376 . S
C955 C956 1.388 . S
C956 H943 0.930 . S
C956 C955 1.388 . S
C956 C957 1.390 . S
C957 C956 1.390 . S
C957 C958 1.394 . S
C957 C963 1.465 . S
C958 C953 1.399 . S
C958 C957 1.394 . S
C958 C959 1.516 . S
C959 C958 1.516 . S
C959 C960 1.502 . S
C959 C961 1.561 . S
C959 C962 1.526 . S
C960 H944 0.959 . S
C960 H945 0.959 . S
C960 H946 0.961 . S
C960 C959 1.502 . S
C961 H947 0.960 . S
C961 H948 0.961 . S
C961 H949 0.959 . S
C961 C959 1.561 . S
C962 C959 1.526 . S
C962 C963 1.396 . S
C962 C967 1.390 . S
C963 C957 1.465 . S
C963 C962 1.396 . S
C963 C964 1.399 . S
C964 H950 0.929 . S
C964 C963 1.399 . S
C964 C965 1.385 . S
C965 H951 0.931 . S
C965 C964 1.385 . S
C965 C966 1.389 . S
C966 C965 1.389 . S
C966 C967 1.387 . S
C967 H952 0.930 . S
C967 C962 1.390 . S
C967 C966 1.387 . S
C333 C11 2.308 . S
C345 C2 2.328 . S
C360 C51 2.293 . S
C372 C42 2.335 . S
C387 C91 2.337 . S
C399 C82 2.294 . S
C414 C131 2.332 . S
C426 C122 2.303 . S
C441 C171 2.307 . S
C453 C162 2.317 . S
C468 C202 2.328 . S
C480 C211 2.308 . S
C495 C251 2.312 . S
C507 C242 2.312 . S
C522 C282 2.293 . S
C534 C291 2.335 . S
C549 C56 2.622 . S
C561 C7 2.681 1_554 S
C576 C127 2.627 . S
C588 C96 2.660 . S
C603 C167 2.644 1_554 S
C615 C216 2.663 . S
C630 C256 2.676 . S
C642 C287 2.631 . S
C657 C16 1.853 . S
C669 C207 1.867 . S
C684 C176 1.828 . S
C696 C47 1.875 1_556 S
C711 C87 1.830 . S
C723 C296 1.873 . S
C738 C136 1.881 . S
C750 C247 1.837 . S
C765 C10 1.468 . S
C777 C130 1.484 . S
C792 C50 1.651 . S
C804 C90 1.632 . S
C819 C59 1.434 . S
C831 C99 1.427 . S
C846 C139 1.604 . S
C858 C19 1.578 . S
C873 C170 1.414 . S
C885 C290 1.410 . S
C900 C210 1.578 . S
C912 C250 1.595 . S
C927 C219 1.436 . S
C939 C259 1.445 . S
C954 C299 1.638 . S
C966 C179 1.650 . S
