# Generated by pormake.
# Topology uod, (4)-cn, num edge types: 1
# Building blocks:
#     Node 0, Type 0, BuildingBlock: KUFVIS_clean_sbu_0, # of connection points: 4
#     Node 1, Type 0, BuildingBlock: KUFVIS_clean_sbu_0, # of connection points: 4
#     Node 2, Type 0, BuildingBlock: KUFVIS_clean_sbu_0, # of connection points: 4
#     Node 3, Type 0, BuildingBlock: KUFVIS_clean_sbu_0, # of connection points: 4
#     Node 4, Type 0, BuildingBlock: KUFVIS_clean_sbu_0, # of connection points: 4
#     Node 5, Type 0, BuildingBlock: KUFVIS_clean_sbu_0, # of connection points: 4
#     Node 6, Type 0, BuildingBlock: KUFVIS_clean_sbu_0, # of connection points: 4
#     Node 7, Type 0, BuildingBlock: KUFVIS_clean_sbu_0, # of connection points: 4
#     Node 8, Type 0, BuildingBlock: KUFVIS_clean_sbu_0, # of connection points: 4
#     Node 9, Type 0, BuildingBlock: KUFVIS_clean_sbu_0, # of connection points: 4
#     Node 10, Type 0, BuildingBlock: KUFVIS_clean_sbu_0, # of connection points: 4
#     Node 11, Type 0, BuildingBlock: KUFVIS_clean_sbu_0, # of connection points: 4
#     Node 12, Type 0, BuildingBlock: KUFVIS_clean_sbu_0, # of connection points: 4
#     Node 13, Type 0, BuildingBlock: KUFVIS_clean_sbu_0, # of connection points: 4
#     Node 14, Type 0, BuildingBlock: KUFVIS_clean_sbu_0, # of connection points: 4
#     Node 15, Type 0, BuildingBlock: KUFVIS_clean_sbu_0, # of connection points: 4
#     Node 16, Type 0, BuildingBlock: KUFVIS_clean_sbu_0, # of connection points: 4
#     Node 17, Type 0, BuildingBlock: KUFVIS_clean_sbu_0, # of connection points: 4
#     Node 18, Type 0, BuildingBlock: KUFVIS_clean_sbu_0, # of connection points: 4
#     Node 19, Type 0, BuildingBlock: KUFVIS_clean_sbu_0, # of connection points: 4
#     Node 20, Type 0, BuildingBlock: KUFVIS_clean_sbu_0, # of connection points: 4
#     Node 21, Type 0, BuildingBlock: KUFVIS_clean_sbu_0, # of connection points: 4
#     Node 22, Type 0, BuildingBlock: KUFVIS_clean_sbu_0, # of connection points: 4
#     Node 23, Type 0, BuildingBlock: KUFVIS_clean_sbu_0, # of connection points: 4
#     Node 24, Type 0, BuildingBlock: KUFVIS_clean_sbu_0, # of connection points: 4
#     Node 25, Type 0, BuildingBlock: KUFVIS_clean_sbu_0, # of connection points: 4
#     Node 26, Type 0, BuildingBlock: KUFVIS_clean_sbu_0, # of connection points: 4
#     Node 27, Type 0, BuildingBlock: KUFVIS_clean_sbu_0, # of connection points: 4
#     Node 28, Type 0, BuildingBlock: KUFVIS_clean_sbu_0, # of connection points: 4
#     Node 29, Type 0, BuildingBlock: KUFVIS_clean_sbu_0, # of connection points: 4
#     Node 30, Type 0, BuildingBlock: KUFVIS_clean_sbu_0, # of connection points: 4
#     Node 31, Type 0, BuildingBlock: KUFVIS_clean_sbu_0, # of connection points: 4
#     Edge 32, Type (0, 0), BuildingBlock: OJICUG_clean_linker_0, # of connection points: 2
#     Edge 33, Type (0, 0), BuildingBlock: OJICUG_clean_linker_0, # of connection points: 2
#     Edge 34, Type (0, 0), BuildingBlock: OJICUG_clean_linker_0, # of connection points: 2
#     Edge 35, Type (0, 0), BuildingBlock: OJICUG_clean_linker_0, # of connection points: 2
#     Edge 36, Type (0, 0), BuildingBlock: OJICUG_clean_linker_0, # of connection points: 2
#     Edge 37, Type (0, 0), BuildingBlock: OJICUG_clean_linker_0, # of connection points: 2
#     Edge 38, Type (0, 0), BuildingBlock: OJICUG_clean_linker_0, # of connection points: 2
#     Edge 39, Type (0, 0), BuildingBlock: OJICUG_clean_linker_0, # of connection points: 2
#     Edge 40, Type (0, 0), BuildingBlock: OJICUG_clean_linker_0, # of connection points: 2
#     Edge 41, Type (0, 0), BuildingBlock: OJICUG_clean_linker_0, # of connection points: 2
#     Edge 42, Type (0, 0), BuildingBlock: OJICUG_clean_linker_0, # of connection points: 2
#     Edge 43, Type (0, 0), BuildingBlock: OJICUG_clean_linker_0, # of connection points: 2
#     Edge 44, Type (0, 0), BuildingBlock: OJICUG_clean_linker_0, # of connection points: 2
#     Edge 45, Type (0, 0), BuildingBlock: OJICUG_clean_linker_0, # of connection points: 2
#     Edge 46, Type (0, 0), BuildingBlock: OJICUG_clean_linker_0, # of connection points: 2
#     Edge 47, Type (0, 0), BuildingBlock: OJICUG_clean_linker_0, # of connection points: 2
#     Edge 48, Type (0, 0), BuildingBlock: OJICUG_clean_linker_0, # of connection points: 2
#     Edge 49, Type (0, 0), BuildingBlock: OJICUG_clean_linker_0, # of connection points: 2
#     Edge 50, Type (0, 0), BuildingBlock: OJICUG_clean_linker_0, # of connection points: 2
#     Edge 51, Type (0, 0), BuildingBlock: OJICUG_clean_linker_0, # of connection points: 2
#     Edge 52, Type (0, 0), BuildingBlock: OJICUG_clean_linker_0, # of connection points: 2
#     Edge 53, Type (0, 0), BuildingBlock: OJICUG_clean_linker_0, # of connection points: 2
#     Edge 54, Type (0, 0), BuildingBlock: OJICUG_clean_linker_0, # of connection points: 2
#     Edge 55, Type (0, 0), BuildingBlock: OJICUG_clean_linker_0, # of connection points: 2
#     Edge 56, Type (0, 0), BuildingBlock: OJICUG_clean_linker_0, # of connection points: 2
#     Edge 57, Type (0, 0), BuildingBlock: OJICUG_clean_linker_0, # of connection points: 2
#     Edge 58, Type (0, 0), BuildingBlock: OJICUG_clean_linker_0, # of connection points: 2
#     Edge 59, Type (0, 0), BuildingBlock: OJICUG_clean_linker_0, # of connection points: 2
#     Edge 60, Type (0, 0), BuildingBlock: OJICUG_clean_linker_0, # of connection points: 2
#     Edge 61, Type (0, 0), BuildingBlock: OJICUG_clean_linker_0, # of connection points: 2
#     Edge 62, Type (0, 0), BuildingBlock: OJICUG_clean_linker_0, # of connection points: 2
#     Edge 63, Type (0, 0), BuildingBlock: OJICUG_clean_linker_0, # of connection points: 2
#     Edge 64, Type (0, 0), BuildingBlock: OJICUG_clean_linker_0, # of connection points: 2
#     Edge 65, Type (0, 0), BuildingBlock: OJICUG_clean_linker_0, # of connection points: 2
#     Edge 66, Type (0, 0), BuildingBlock: OJICUG_clean_linker_0, # of connection points: 2
#     Edge 67, Type (0, 0), BuildingBlock: OJICUG_clean_linker_0, # of connection points: 2
#     Edge 68, Type (0, 0), BuildingBlock: OJICUG_clean_linker_0, # of connection points: 2
#     Edge 69, Type (0, 0), BuildingBlock: OJICUG_clean_linker_0, # of connection points: 2
#     Edge 70, Type (0, 0), BuildingBlock: OJICUG_clean_linker_0, # of connection points: 2
#     Edge 71, Type (0, 0), BuildingBlock: OJICUG_clean_linker_0, # of connection points: 2
#     Edge 72, Type (0, 0), BuildingBlock: OJICUG_clean_linker_0, # of connection points: 2
#     Edge 73, Type (0, 0), BuildingBlock: OJICUG_clean_linker_0, # of connection points: 2
#     Edge 74, Type (0, 0), BuildingBlock: OJICUG_clean_linker_0, # of connection points: 2
#     Edge 75, Type (0, 0), BuildingBlock: OJICUG_clean_linker_0, # of connection points: 2
#     Edge 76, Type (0, 0), BuildingBlock: OJICUG_clean_linker_0, # of connection points: 2
#     Edge 77, Type (0, 0), BuildingBlock: OJICUG_clean_linker_0, # of connection points: 2
#     Edge 78, Type (0, 0), BuildingBlock: OJICUG_clean_linker_0, # of connection points: 2
#     Edge 79, Type (0, 0), BuildingBlock: OJICUG_clean_linker_0, # of connection points: 2
#     Edge 80, Type (0, 0), BuildingBlock: OJICUG_clean_linker_0, # of connection points: 2
#     Edge 81, Type (0, 0), BuildingBlock: OJICUG_clean_linker_0, # of connection points: 2
#     Edge 82, Type (0, 0), BuildingBlock: OJICUG_clean_linker_0, # of connection points: 2
#     Edge 83, Type (0, 0), BuildingBlock: OJICUG_clean_linker_0, # of connection points: 2
#     Edge 84, Type (0, 0), BuildingBlock: OJICUG_clean_linker_0, # of connection points: 2
#     Edge 85, Type (0, 0), BuildingBlock: OJICUG_clean_linker_0, # of connection points: 2
#     Edge 86, Type (0, 0), BuildingBlock: OJICUG_clean_linker_0, # of connection points: 2
#     Edge 87, Type (0, 0), BuildingBlock: OJICUG_clean_linker_0, # of connection points: 2
#     Edge 88, Type (0, 0), BuildingBlock: OJICUG_clean_linker_0, # of connection points: 2
#     Edge 89, Type (0, 0), BuildingBlock: OJICUG_clean_linker_0, # of connection points: 2
#     Edge 90, Type (0, 0), BuildingBlock: OJICUG_clean_linker_0, # of connection points: 2
#     Edge 91, Type (0, 0), BuildingBlock: OJICUG_clean_linker_0, # of connection points: 2
#     Edge 92, Type (0, 0), BuildingBlock: OJICUG_clean_linker_0, # of connection points: 2
#     Edge 93, Type (0, 0), BuildingBlock: OJICUG_clean_linker_0, # of connection points: 2
#     Edge 94, Type (0, 0), BuildingBlock: OJICUG_clean_linker_0, # of connection points: 2
#     Edge 95, Type (0, 0), BuildingBlock: OJICUG_clean_linker_0, # of connection points: 2
# Relax obj value: 0.202
# Max RMSD: 0.181
# Mean RMSD: 0.175
data_MOF--net-uod--node1-KUFVIS_clean_sbu_0--edge1-OJICUG_clean_linker_0
_symmetry_space_group_name_H-M    P1
_symmetry_Int_Tables_number       1
_symmetry_cell_setting            triclinic
loop_
_symmetry_equiv_pos_as_xyz
'x, y, z'
_cell_length_a     62.269872
_cell_length_b     19.594986
_cell_length_c     46.793868
_cell_angle_alpha  90.022231
_cell_angle_beta   90.005945
_cell_angle_gamma 89.994679
loop_
_atom_site_label
_atom_site_type_symbol
_atom_site_fract_x
_atom_site_fract_y
_atom_site_fract_z
_atom_type_partial_charge
Mn0 Mn 0.0473 0.39262 0.08929 0.0
Mn1 Mn 0.04862 0.39552 0.16113 0.0
C2 C 0.05401 0.49201 0.11283 0.0
C3 C 0.02484 0.41698 0.04948 0.0
C4 C 0.08698 0.35266 0.12533 0.0
O5 O 0.03442 0.29983 0.09923 0.0
O6 O 0.03686 0.3073 0.14715 0.0
C7 C 1.00143 0.39799 0.16899 0.0
N8 N 0.02101 0.42736 0.17313 0.0
C9 C 0.00498 0.52431 0.19648 0.0
C10 C 0.98467 0.49485 0.19263 0.0
C11 C 0.98289 0.43142 0.17882 0.0
C12 C 0.02289 0.4885 0.18631 0.0
H13 H 0.99997 0.34956 0.15815 0.0
C14 C 0.03219 0.27456 0.12427 0.0
O15 O 0.04301 0.38515 0.04586 0.0
O16 O 0.01926 0.42668 0.07551 0.0
N17 N 0.05954 0.47768 0.17784 0.0
C18 C 0.08038 0.49747 0.18111 0.0
C19 C 0.08499 0.55938 0.19496 0.0
C20 C 0.06815 0.59988 0.20554 0.0
C21 C 0.04688 0.57733 0.20274 0.0
C22 C 0.0433 0.51476 0.18908 0.0
H23 H 0.09336 0.46665 0.1729 0.0
O24 O 0.05905 0.48584 0.08627 0.0
O25 O 0.04443 0.44051 0.12473 0.0
O26 O 0.07789 0.35755 0.10054 0.0
O27 O 0.07738 0.36566 0.14896 0.0
C28 C 0.0291 0.61441 0.21301 0.0
C29 C 0.00816 0.58798 0.20985 0.0
H30 H 0.97033 0.52056 0.20012 0.0
H31 H 0.96726 0.40849 0.17566 0.0
H32 H 0.10146 0.57611 0.19727 0.0
H33 H 0.07174 0.64796 0.21594 0.0
H34 H 0.03137 0.66327 0.22335 0.0
H35 H 0.99461 0.61695 0.21781 0.0
Mn36 Mn 0.2183 0.86 0.08561 0.0
Mn37 Mn 0.21786 0.85717 0.15746 0.0
C38 C 0.2118 0.76063 0.10925 0.0
C39 C 0.24051 0.83528 0.04549 0.0
C40 C 0.17907 0.90019 0.12248 0.0
O41 O 0.23127 0.95289 0.09533 0.0
O42 O 0.22961 0.94527 0.14329 0.0
C43 C 0.26513 0.85369 0.16431 0.0
N44 N 0.24554 0.82475 0.16887 0.0
C45 C 0.26164 0.72747 0.19187 0.0
C46 C 0.28197 0.75648 0.18759 0.0
C47 C 0.28371 0.81986 0.17374 0.0
C48 C 0.2437 0.76364 0.18206 0.0
H49 H 0.26656 0.90208 0.15345 0.0
C50 C 0.23392 0.9781 0.12032 0.0
O51 O 0.2223 0.86696 0.04206 0.0
O52 O 0.24626 0.8259 0.07146 0.0
N53 N 0.20697 0.7752 0.17435 0.0
C54 C 0.18613 0.75591 0.17809 0.0
C55 C 0.18156 0.69414 0.19205 0.0
C56 C 0.19843 0.65329 0.20228 0.0
C57 C 0.21971 0.67535 0.19902 0.0
C58 C 0.22326 0.73779 0.18526 0.0
H59 H 0.17312 0.78703 0.17018 0.0
O60 O 0.20652 0.76676 0.08278 0.0
O61 O 0.22153 0.81212 0.12096 0.0
O62 O 0.18778 0.89495 0.09746 0.0
O63 O 0.18904 0.88754 0.14587 0.0
C64 C 0.23753 0.63795 0.20896 0.0
C65 C 0.25849 0.66393 0.20533 0.0
H66 H 0.29635 0.73048 0.19477 0.0
H67 H 0.29935 0.84244 0.17025 0.0
H68 H 0.16508 0.6778 0.19472 0.0
H69 H 0.19486 0.60534 0.21277 0.0
H70 H 0.23529 0.58924 0.21943 0.0
H71 H 0.27207 0.63475 0.21304 0.0
Mn72 Mn 0.04746 0.86599 0.17298 0.0
Mn73 Mn 0.0476 0.86136 0.10108 0.0
C74 C 0.05343 0.76579 0.14976 0.0
C75 C 0.02569 0.84421 0.21367 0.0
C76 C 0.08671 0.90334 0.13561 0.0
O77 O 0.03485 0.95907 0.16295 0.0
O78 O 0.03625 0.95022 0.11501 0.0
C79 C 1.0003 0.8597 0.09452 0.0
N80 N 0.01975 0.82987 0.08994 0.0
C81 C 1.00321 0.73311 0.06711 0.0
C82 C 0.98301 0.76303 0.07141 0.0
C83 C 0.98156 0.82659 0.08519 0.0
C84 C 0.02132 0.76856 0.07683 0.0
H85 H 0.99909 0.90827 0.10531 0.0
C86 C 0.03216 0.98372 0.13789 0.0
O87 O 0.04409 0.87517 0.21643 0.0
O88 O 0.01948 0.83391 0.18791 0.0
N89 N 0.05811 0.77866 0.08437 0.0
C90 C 0.07886 0.75855 0.08049 0.0
C91 C 0.08314 0.69649 0.06657 0.0
C92 C 0.06608 0.65625 0.05648 0.0
C93 C 0.0449 0.67918 0.05984 0.0
C94 C 0.04164 0.74183 0.07359 0.0
H95 H 0.09202 0.78922 0.08826 0.0
O96 O 0.05879 0.77236 0.17619 0.0
O97 O 0.04386 0.81731 0.13782 0.0
O98 O 0.07806 0.8991 0.16069 0.0
O99 O 0.0766 0.89075 0.11233 0.0
C100 C 0.02691 0.64251 0.04999 0.0
C101 C 0.00607 0.66937 0.05367 0.0
H102 H 0.96851 0.73761 0.06428 0.0
H103 H 0.96602 0.84989 0.08869 0.0
H104 H 0.09955 0.6795 0.06381 0.0
H105 H 0.06943 0.60811 0.046 0.0
H106 H 0.02894 0.59368 0.03953 0.0
H107 H 0.99235 0.64074 0.04601 0.0
Mn108 Mn 0.21986 0.38752 0.16935 0.0
Mn109 Mn 0.21737 0.3903 0.09757 0.0
C110 C 0.2128 0.48695 0.14608 0.0
C111 C 0.24314 0.41186 0.20835 0.0
C112 C 0.17954 0.34816 0.13451 0.0
O113 O 0.23237 0.29437 0.15899 0.0
O114 O 0.22943 0.30209 0.11114 0.0
C115 C 0.26441 0.3933 0.08831 0.0
N116 N 0.24473 0.42244 0.08475 0.0
C117 C 0.26024 0.51958 0.06096 0.0
C118 C 0.28066 0.49037 0.0642 0.0
C119 C 0.28274 0.42697 0.07794 0.0
C120 C 0.24256 0.48358 0.07167 0.0
H121 H 0.26611 0.3449 0.09909 0.0
C122 C 0.23431 0.26917 0.13389 0.0
O123 O 0.22501 0.38036 0.21263 0.0
O124 O 0.24825 0.42107 0.18213 0.0
N125 N 0.20607 0.47232 0.08121 0.0
C126 C 0.18516 0.49172 0.07847 0.0
C127 C 0.18024 0.55351 0.06473 0.0
C128 C 0.19684 0.59426 0.0537 0.0
C129 C 0.21818 0.57206 0.05592 0.0
C130 C 0.22207 0.5096 0.0695 0.0
H131 H 0.17235 0.46068 0.08699 0.0
O132 O 0.20834 0.48091 0.17282 0.0
O133 O 0.22213 0.43538 0.13385 0.0
O134 O 0.18896 0.35329 0.15908 0.0
O135 O 0.18888 0.36033 0.11062 0.0
C136 C 0.23574 0.60931 0.04511 0.0
C137 C 0.25676 0.58316 0.04767 0.0
H138 H 0.29484 0.51623 0.05629 0.0
H139 H 0.29845 0.40423 0.08063 0.0
H140 H 0.1637 0.56995 0.06286 0.0
H141 H 0.19301 0.64223 0.04339 0.0
H142 H 0.23322 0.65804 0.03476 0.0
H143 H 0.27013 0.61223 0.03928 0.0
Mn144 Mn 0.9618 0.64821 0.9161 0.0
Mn145 Mn 0.92451 0.56144 0.95437 0.0
C146 C 0.92556 0.65756 0.90294 0.0
C147 C 0.98229 0.74535 0.90636 0.0
C148 C 0.95033 0.49782 0.90761 0.0
O149 O 0.97982 0.61493 0.95047 0.0
O150 O 0.95322 0.55847 0.97215 0.0
C151 C 0.92475 0.65985 1.00229 0.0
N152 N 0.91368 0.62255 0.98264 0.0
C153 C 0.87982 0.66028 1.00157 0.0
C154 C 0.89082 0.69898 0.02213 0.0
C155 C 0.9134 0.69899 0.02239 0.0
C156 C 0.89202 0.62288 0.98194 0.0
H157 H 0.9421 0.65948 1.00262 0.0
C158 C 0.97292 0.5755 0.97018 0.0
O159 O 0.98761 0.68597 0.89629 0.0
O160 O 0.96654 0.74685 0.9245 0.0
N161 N 0.89552 0.5546 0.94145 0.0
C162 C 0.88743 0.51371 0.92049 0.0
C163 C 0.86507 0.50655 0.91773 0.0
C164 C 0.85132 0.54089 0.93669 0.0
C165 C 0.86001 0.58123 0.95854 0.0
C166 C 0.88239 0.58529 0.96061 0.0
H167 H 0.89801 0.48611 0.90632 0.0
O168 O 0.94103 0.67449 0.88607 0.0
O169 O 0.93149 0.63918 0.92884 0.0
O170 O 0.96167 0.55008 0.90151 0.0
O171 O 0.93511 0.4967 0.92589 0.0
C172 C 0.84735 0.61762 0.97832 0.0
C173 C 0.85725 0.65749 0.99971 0.0
H174 H 0.88211 0.72897 0.03774 0.0
H175 H 0.92201 0.72879 0.03814 0.0
H176 H 0.85844 0.47393 0.90134 0.0
H177 H 0.83412 0.53578 0.93447 0.0
H178 H 0.82998 0.61564 0.97716 0.0
H179 H 0.84736 0.68569 0.01465 0.0
Mn180 Mn 0.80304 0.10278 0.91466 0.0
Mn181 Mn 0.84093 0.18916 0.9521 0.0
C182 C 0.83919 0.0895 0.90142 0.0
C183 C 0.78171 0.00725 0.9059 0.0
C184 C 0.81553 0.2518 0.90475 0.0
O185 O 0.78525 0.13885 0.94872 0.0
O186 O 0.81219 0.19493 0.96968 0.0
C187 C 0.83986 0.09293 1.00073 0.0
N188 N 0.85126 0.12913 0.98107 0.0
C189 C 0.88479 0.0922 1.00124 0.0
C190 C 0.87346 0.05465 0.02183 0.0
C191 C 0.85088 0.05475 0.02147 0.0
C192 C 0.87292 0.12858 0.98094 0.0
H193 H 0.82251 0.09346 1.00059 0.0
C194 C 0.7924 0.17901 0.96799 0.0
O195 O 0.77688 0.06649 0.89532 0.0
O196 O 0.79754 0.00514 0.92392 0.0
N197 N 0.87007 0.19441 0.93966 0.0
C198 C 0.8785 0.23461 0.91873 0.0
C199 C 0.9009 0.24163 0.91653 0.0
C200 C 0.91434 0.20821 0.93617 0.0
C201 C 0.9053 0.16894 0.95808 0.0
C202 C 0.88289 0.16494 0.95952 0.0
H203 H 0.86817 0.26207 0.90425 0.0
O204 O 0.82347 0.07323 0.88484 0.0
O205 O 0.83354 0.11016 0.92719 0.0
O206 O 0.80379 0.20006 0.89926 0.0
O207 O 0.83083 0.25282 0.92293 0.0
C208 C 0.91763 0.13361 0.97854 0.0
C209 C 0.90739 0.09486 1.0 0.0
H210 H 0.88191 0.02545 0.03794 0.0
H211 H 0.84201 0.02582 0.03724 0.0
H212 H 0.9078 0.27344 0.90004 0.0
H213 H 0.93157 0.21319 0.93442 0.0
H214 H 0.93501 0.13557 0.97787 0.0
H215 H 0.91704 0.06746 0.01546 0.0
Mn216 Mn 0.96165 0.09717 0.83987 0.0
Mn217 Mn 0.92479 0.1859 0.80139 0.0
C218 C 0.92533 0.08713 0.8528 0.0
C219 C 0.98209 -0.00044 0.84906 0.0
C220 C 0.95124 0.248 0.8482 0.0
O221 O 0.97977 0.13141 0.80586 0.0
O222 O 0.9532 0.18468 0.78264 0.0
C223 C 0.92278 0.08641 0.75398 0.0
N224 N 0.91261 0.12626 0.77359 0.0
C225 C 0.87794 0.0966 0.75474 0.0
C226 C 0.888 0.05527 0.73423 0.0
C227 C 0.91052 0.0499 0.73394 0.0
C228 C 0.89101 0.13117 0.7743 0.0
H229 H 0.9401 0.0829 0.75361 0.0
C230 C 0.97294 0.16852 0.78535 0.0
O231 O 0.98741 0.05858 0.85946 0.0
O232 O 0.96634 -0.00129 0.83088 0.0
N233 N 0.89613 0.19783 0.81496 0.0
C234 C 0.88903 0.24026 0.83602 0.0
C235 C 0.8669 0.25251 0.83892 0.0
C236 C 0.85235 0.22172 0.81994 0.0
C237 C 0.86006 0.17986 0.79792 0.0
C238 C 0.88229 0.17082 0.7957 0.0
H239 H 0.90022 0.26577 0.85001 0.0
O240 O 0.94085 0.06975 0.86953 0.0
O241 O 0.93129 0.10726 0.82707 0.0
O242 O 0.96172 0.19464 0.85521 0.0
O243 O 0.93659 0.2501 0.82916 0.0
C244 C 0.84657 0.1466 0.77814 0.0
C245 C 0.8555 0.10463 0.75668 0.0
H246 H 0.8786 0.02729 0.71866 0.0
H247 H 0.9184 0.01808 0.7182 0.0
H248 H 0.86105 0.2865 0.85539 0.0
H249 H 0.83532 0.23087 0.82228 0.0
H250 H 0.8293 0.15249 0.77939 0.0
H251 H 0.84496 0.07876 0.74178 0.0
Mn252 Mn 0.80215 0.6544 0.84376 0.0
Mn253 Mn 0.83636 0.5683 0.80171 0.0
C254 C 0.83898 0.66552 0.85507 0.0
C255 C 0.78101 0.75083 0.85135 0.0
C256 C 0.80891 0.50551 0.8483 0.0
O257 O 0.78335 0.61064 0.81193 0.0
O258 O 0.81026 0.59947 0.78162 0.0
C259 C 0.84848 0.67524 0.76007 0.0
N260 N 0.85422 0.62474 0.77853 0.0
C261 C 0.89127 0.63252 0.76438 0.0
C262 C 0.88578 0.68453 0.74512 0.0
C263 C 0.86431 0.70616 0.74305 0.0
C264 C 0.8748 0.60352 0.78069 0.0
H265 H 0.83195 0.69146 0.7583 0.0
C266 C 0.79094 0.58652 0.78868 0.0
O267 O 0.77654 0.69296 0.8634 0.0
O268 O 0.79625 0.75068 0.83239 0.0
N269 N 0.8625 0.53469 0.81782 0.0
C270 C 0.8653 0.48721 0.83875 0.0
C271 C 0.8859 0.46111 0.84407 0.0
C272 C 0.90338 0.48374 0.82768 0.0
C273 C 0.90012 0.53204 0.80604 0.0
C274 C 0.87916 0.55513 0.80133 0.0
H275 H 0.85187 0.46822 0.85088 0.0
O276 O 0.82389 0.6879 0.87153 0.0
O277 O 0.83217 0.64241 0.83024 0.0
O278 O 0.80361 0.5603 0.86109 0.0
O279 O 0.81904 0.50376 0.82457 0.0
C280 C 0.91688 0.55888 0.78921 0.0
C281 C 0.91247 0.60933 0.7685 0.0
H282 H 0.89795 0.70866 0.73202 0.0
H283 H 0.85997 0.74639 0.72829 0.0
H284 H 0.88827 0.42297 0.8605 0.0
H285 H 0.9192 0.46346 0.83178 0.0
H286 H 0.93327 0.54195 0.79239 0.0
H287 H 0.92555 0.63055 0.75609 0.0
Mn288 Mn 0.04798 0.87609 0.5837 0.0
Mn289 Mn 0.04776 0.87933 0.65563 0.0
C290 C 0.05378 0.97584 0.6073 0.0
C291 C 0.02634 0.89841 0.54289 0.0
C292 C 0.08721 0.83939 0.6214 0.0
O293 O 0.03551 0.78254 0.59324 0.0
O294 O 0.03696 0.79027 0.64119 0.0
C295 C 1.00039 0.87843 0.6614 0.0
N296 N 0.01964 0.90917 0.66641 0.0
C297 C 1.00238 0.00461 0.68928 0.0
C298 C 0.98238 0.97375 0.68452 0.0
C299 C 0.98139 0.91041 0.6705 0.0
C300 C 0.02076 0.97031 0.67974 0.0
H301 H 0.99953 0.83002 0.65044 0.0
C302 C 0.03294 0.75718 0.61819 0.0
O303 O 0.04481 0.86783 0.54018 0.0
O304 O 0.02001 0.90804 0.56864 0.0
N305 N 0.05768 0.96209 0.67291 0.0
C306 C 0.07828 0.98287 0.67744 0.0
C307 C 0.08212 0.04478 0.69171 0.0
C308 C 0.06475 0.08411 0.70152 0.0
C309 C 0.04372 0.06035 0.69757 0.0
C310 C 0.04091 -0.00206 0.68347 0.0
H311 H 0.09168 0.95287 0.6699 0.0
O312 O 0.05919 0.96986 0.58087 0.0
O313 O 0.04415 0.92411 0.61902 0.0
O314 O 0.0786 0.8433 0.59626 0.0
O315 O 0.077 0.85166 0.64465 0.0
C316 C 0.02545 0.09591 0.70724 0.0
C317 C 0.00479 0.06815 0.70305 0.0
H318 H 0.96769 -0.00172 0.69149 0.0
H319 H 0.96601 0.88639 0.66665 0.0
H320 H 0.09841 0.06235 0.69497 0.0
H321 H 0.06776 0.13211 0.71229 0.0
H322 H 0.02713 0.14451 0.71799 0.0
H323 H 0.99086 0.09589 0.7106 0.0
Mn324 Mn 0.2214 0.3549 0.58675 0.0
Mn325 Mn 0.22014 0.35398 0.65862 0.0
C326 C 0.21487 0.25605 0.6107 0.0
C327 C 0.24393 0.32993 0.54706 0.0
C328 C 0.18152 0.39357 0.62271 0.0
O329 O 0.2339 0.4486 0.5962 0.0
O330 O 0.23134 0.44236 0.64411 0.0
C331 C 0.26737 0.35454 0.6661 0.0
N332 N 0.24799 0.32413 0.67054 0.0
C333 C 0.2647 0.22877 0.69416 0.0
C334 C 0.28482 0.2593 0.68999 0.0
C335 C 0.28615 0.32245 0.6759 0.0
C336 C 0.24654 0.26323 0.68398 0.0
H337 H 0.2685 0.40277 0.65505 0.0
C338 C 0.23593 0.4747 0.62113 0.0
O339 O 0.22565 0.36101 0.54327 0.0
O340 O 0.24958 0.32151 0.57314 0.0
N341 N 0.20977 0.27186 0.67593 0.0
C342 C 0.18906 0.25144 0.67982 0.0
C343 C 0.18487 0.18978 0.69409 0.0
C344 C 0.202 0.1503 0.70451 0.0
C345 C 0.22313 0.17371 0.7012 0.0
C346 C 0.22629 0.23594 0.68711 0.0
H347 H 0.17585 0.28151 0.67176 0.0
O348 O 0.20998 0.26131 0.58407 0.0
O349 O 0.22439 0.30796 0.62243 0.0
O350 O 0.19065 0.38886 0.59793 0.0
O351 O 0.19119 0.38166 0.6464 0.0
C352 C 0.24118 0.13793 0.71144 0.0
C353 C 0.26195 0.16537 0.70789 0.0
H354 H 0.29934 0.23465 0.69747 0.0
H355 H 0.30163 0.34621 0.6725 0.0
H356 H 0.1685 0.17248 0.69684 0.0
H357 H 0.19873 0.10244 0.71524 0.0
H358 H 0.23923 0.08936 0.72211 0.0
H359 H 0.27571 0.13746 0.71588 0.0
Mn360 Mn 0.04898 0.34917 0.66741 0.0
Mn361 Mn 0.05114 0.34526 0.59564 0.0
C362 C 0.05597 0.24942 0.64427 0.0
C363 C 0.0259 0.32519 0.70664 0.0
C364 C 0.08896 0.38964 0.6322 0.0
O365 O 0.03615 0.44166 0.65689 0.0
O366 O 0.03876 0.43323 0.609 0.0
C367 C 0.00411 0.34021 0.58652 0.0
N368 N 0.02389 0.31179 0.58299 0.0
C369 C 0.00873 0.21351 0.5596 0.0
C370 C 0.98821 0.24197 0.56281 0.0
C371 C 0.9859 0.30559 0.57633 0.0
C372 C 0.02628 0.2505 0.57009 0.0
H373 H 1.00224 0.38876 0.59715 0.0
C374 C 0.03392 0.46631 0.63174 0.0
O375 O 0.044 0.35712 0.7107 0.0
O376 O 0.02074 0.31515 0.68049 0.0
N377 N 0.06273 0.26325 0.57961 0.0
C378 C 0.0837 0.24422 0.57717 0.0
C379 C 0.08884 0.18221 0.56373 0.0
C380 C 0.07238 0.14077 0.55274 0.0
C381 C 0.05097 0.16242 0.55476 0.0
C382 C 0.04687 0.22518 0.56801 0.0
H383 H 0.0964 0.27575 0.5857 0.0
O384 O 0.06072 0.25597 0.67091 0.0
O385 O 0.04658 0.30086 0.63207 0.0
O386 O 0.0797 0.38424 0.65685 0.0
O387 O 0.07955 0.37673 0.60843 0.0
C388 C 0.03354 0.12421 0.54416 0.0
C389 C 0.01243 0.14966 0.54663 0.0
H390 H 0.97411 0.21533 0.55506 0.0
H391 H 0.9701 0.32775 0.57899 0.0
H392 H 0.10542 0.16613 0.56207 0.0
H393 H 0.07637 0.0926 0.5427 0.0
H394 H 0.03622 0.07517 0.53414 0.0
H395 H 0.99915 0.11977 0.53847 0.0
Mn396 Mn 0.21927 0.88228 0.67067 0.0
Mn397 Mn 0.21801 0.8875 0.59884 0.0
C398 C 0.21271 0.9826 0.64774 0.0
C399 C 0.24193 0.9051 0.71056 0.0
C400 C 0.17966 0.84293 0.63437 0.0
O401 O 0.23204 0.78972 0.66006 0.0
O402 O 0.23024 0.79926 0.61214 0.0
C403 C 0.26514 0.89282 0.59073 0.0
N404 N 0.2454 0.92123 0.58688 0.0
C405 C 0.26079 0.01972 0.56394 0.0
C406 C 0.28128 0.99127 0.56748 0.0
C407 C 0.28346 0.92756 0.58094 0.0
C408 C 0.24313 0.98265 0.57405 0.0
H409 H 0.26691 0.84417 0.6013 0.0
C410 C 0.23467 0.76561 0.63488 0.0
O411 O 0.22369 0.87364 0.71405 0.0
O412 O 0.24747 0.91539 0.68456 0.0
N413 N 0.20659 0.96974 0.58283 0.0
C414 C 0.18564 0.98867 0.57996 0.0
C415 C 0.18063 0.05074 0.5665 0.0
C416 C 0.19719 0.09231 0.5559 0.0
C417 C 0.21859 0.07074 0.55834 0.0
C418 C 0.22257 0.00795 0.57161 0.0
H419 H 0.17285 0.95701 0.58815 0.0
O420 O 0.20768 0.97568 0.67427 0.0
O421 O 0.22216 0.93122 0.63555 0.0
O422 O 0.18855 0.8481 0.65928 0.0
O423 O 0.18945 0.8558 0.61089 0.0
C424 C 0.23611 0.10902 0.5481 0.0
C425 C 0.25721 0.0836 0.55095 0.0
H426 H 0.29545 0.01797 0.56002 0.0
H427 H 0.29923 0.9054 0.58386 0.0
H428 H 0.16407 0.06674 0.5645 0.0
H429 H 0.1933 0.14049 0.54581 0.0
H430 H 0.23353 0.15804 0.53803 0.0
H431 H 0.27056 0.1135 0.54305 0.0
Mn432 Mn 0.96757 0.14745 0.412 0.0
Mn433 Mn 0.93315 0.06244 0.45404 0.0
C434 C 0.93079 0.16025 0.40103 0.0
C435 C 0.98919 0.24252 0.40458 0.0
C436 C 0.96004 -0.00077 0.40683 0.0
O437 O 0.98633 0.10244 0.44353 0.0
O438 O 0.95961 0.09058 0.47418 0.0
C439 C 0.92222 0.16958 0.49621 0.0
N440 N 0.91593 0.11986 0.47769 0.0
C441 C 0.87905 0.13091 0.4922 0.0
C442 C 0.8851 0.18209 0.51156 0.0
C443 C 0.90677 0.20172 0.51347 0.0
C444 C 0.89515 0.10071 0.47561 0.0
H445 H 0.9389 0.18428 0.49786 0.0
C446 C 0.97892 0.07824 0.46686 0.0
O447 O 0.99327 0.18468 0.39226 0.0
O448 O 0.97401 0.24305 0.42364 0.0
N449 N 0.90663 0.03127 0.4382 0.0
C450 C 0.90334 0.98361 0.41746 0.0
C451 C 0.8825 0.95904 0.41247 0.0
C452 C 0.86531 0.98333 0.42897 0.0
C453 C 0.86909 0.03153 0.4505 0.0
C454 C 0.89026 0.05299 0.45491 0.0
H455 H 0.91657 0.96323 0.40531 0.0
O456 O 0.94586 0.18236 0.3845 0.0
O457 O 0.93761 0.13681 0.42579 0.0
O458 O 0.96564 0.05399 0.39432 0.0
O459 O 0.94985 -0.00256 0.43055 0.0
C460 C 0.85267 0.05965 0.46756 0.0
C461 C 0.85763 0.10959 0.48828 0.0
H462 H 0.87323 0.20712 0.52485 0.0
H463 H 0.91156 0.24132 0.52829 0.0
H464 H 0.87974 0.92073 0.39624 0.0
H465 H 0.84931 0.96424 0.4251 0.0
H466 H 0.83613 0.04403 0.46459 0.0
H467 H 0.84482 0.13176 0.5009 0.0
Mn468 Mn 0.80767 0.59684 0.41718 0.0
Mn469 Mn 0.84463 0.68546 0.45542 0.0
C470 C 0.84395 0.58878 0.40402 0.0
C471 C 0.78744 0.4991 0.40765 0.0
C472 C 0.81825 0.74758 0.40878 0.0
O473 O 0.78958 0.63014 0.45144 0.0
O474 O 0.81605 0.68623 0.47367 0.0
C475 C 0.84563 0.58665 0.50313 0.0
N476 N 0.85621 0.62504 0.48339 0.0
C477 C 0.89055 0.59021 0.50176 0.0
C478 C 0.88006 0.55038 0.5224 0.0
C479 C 0.85749 0.54836 0.52299 0.0
C480 C 0.87786 0.62666 0.48238 0.0
H481 H 0.82829 0.58554 0.50371 0.0
C482 C 0.79636 0.6691 0.4714 0.0
O483 O 0.78196 0.55821 0.39751 0.0
O484 O 0.80324 0.49815 0.42576 0.0
N485 N 0.87343 0.69478 0.44204 0.0
C486 C 0.88097 0.73691 0.42117 0.0
C487 C 0.90322 0.7465 0.41821 0.0
C488 C 0.91746 0.71305 0.4368 0.0
C489 C 0.90931 0.67146 0.45861 0.0
C490 C 0.88699 0.66523 0.46097 0.0
H491 H 0.87003 0.76398 0.40731 0.0
O492 O 0.82854 0.57086 0.38721 0.0
O493 O 0.83795 0.60732 0.42988 0.0
O494 O 0.8074 0.69455 0.40236 0.0
O495 O 0.83331 0.74965 0.42728 0.0
C496 C 0.92245 0.63604 0.47815 0.0
C497 C 0.91307 0.59506 0.49959 0.0
H498 H 0.88916 0.52104 0.53783 0.0
H499 H 0.84928 0.51769 0.53881 0.0
H500 H 0.90941 0.78052 0.40202 0.0
H501 H 0.93459 0.72014 0.43433 0.0
H502 H 0.93978 0.63966 0.47677 0.0
H503 H 0.92333 0.56763 0.51434 0.0
Mn504 Mn 0.96728 0.59572 0.34497 0.0
Mn505 Mn 0.93275 0.6812 0.30323 0.0
C506 C 0.93053 0.58293 0.35613 0.0
C507 C 0.98893 0.50062 0.35214 0.0
C508 C 0.95988 0.74391 0.35031 0.0
O509 O 0.9859 0.64084 0.31334 0.0
O510 O 0.95907 0.65275 0.28287 0.0
C511 C 0.92146 0.5746 0.26099 0.0
N512 N 0.91534 0.62421 0.27966 0.0
C513 C 0.87838 0.61404 0.26536 0.0
C514 C 0.88427 0.56295 0.24586 0.0
C515 C 0.9059 0.54295 0.24377 0.0
C516 C 0.89461 0.64375 0.28189 0.0
H517 H 0.93811 0.55963 0.2592 0.0
C518 C 0.97842 0.66495 0.29004 0.0
O519 O 0.99305 0.5584 0.36449 0.0
O520 O 0.97367 0.50017 0.3332 0.0
N521 N 0.90635 0.71268 0.31933 0.0
C522 C 0.90323 0.76025 0.34015 0.0
C523 C 0.88246 0.78515 0.34533 0.0
C524 C 0.86515 0.7613 0.32892 0.0
C525 C 0.86876 0.71321 0.30728 0.0
C526 C 0.88988 0.69138 0.3027 0.0
H527 H 0.91654 0.78034 0.35222 0.0
O528 O 0.94566 0.5607 0.37256 0.0
O529 O 0.93727 0.60656 0.33136 0.0
O530 O 0.96544 0.68905 0.36278 0.0
O531 O 0.94965 0.74589 0.32663 0.0
C532 C 0.85223 0.68556 0.29029 0.0
C533 C 0.85702 0.63574 0.26944 0.0
H534 H 0.8723 0.53831 0.2326 0.0
H535 H 0.91056 0.50343 0.22884 0.0
H536 H 0.87983 0.82337 0.36163 0.0
H537 H 0.84921 0.78066 0.33292 0.0
H538 H 0.83573 0.70149 0.29338 0.0
H539 H 0.84412 0.61395 0.25687 0.0
Mn540 Mn 0.80769 0.14686 0.34074 0.0
Mn541 Mn 0.84437 0.05782 0.30217 0.0
C542 C 0.84403 0.15453 0.35364 0.0
C543 C 0.78754 0.24477 0.35032 0.0
C544 C 0.81798 0.99596 0.34893 0.0
O545 O 0.78945 0.11361 0.30663 0.0
O546 O 0.81579 0.0581 0.28384 0.0
C547 C 0.84576 0.15701 0.25462 0.0
N548 N 0.85618 0.11806 0.27431 0.0
C549 C 0.89066 0.15155 0.25598 0.0
C550 C 0.88033 0.19194 0.23538 0.0
C551 C 0.85777 0.19492 0.2348 0.0
C552 C 0.87782 0.11551 0.27532 0.0
H553 H 0.82842 0.15882 0.25405 0.0
C554 C 0.79612 0.07516 0.28643 0.0
O555 O 0.78208 0.18573 0.36053 0.0
O556 O 0.80329 0.24559 0.33214 0.0
N557 N 0.87312 0.04745 0.31562 0.0
C558 C 0.88049 0.00503 0.33649 0.0
C559 C 0.9027 0.99455 0.33947 0.0
C560 C 0.91707 0.02745 0.32089 0.0
C561 C 0.9091 0.06938 0.29908 0.0
C562 C 0.8868 0.07648 0.29671 0.0
H563 H 0.86945 0.97838 0.35034 0.0
O564 O 0.8287 0.17274 0.37054 0.0
O565 O 0.8379 0.13597 0.32783 0.0
O566 O 0.80737 0.04926 0.35564 0.0
O567 O 0.83285 0.99364 0.33016 0.0
C568 C 0.92237 0.10433 0.27957 0.0
C569 C 0.91316 0.14577 0.25815 0.0
H570 H 0.88955 0.22099 0.21998 0.0
H571 H 0.84968 0.22603 0.21901 0.0
H572 H 0.90875 0.96022 0.35563 0.0
H573 H 0.93417 0.01964 0.32336 0.0
H574 H 0.93968 0.10002 0.28096 0.0
H575 H 0.92353 0.17285 0.24344 0.0
Mn576 Mn 0.55229 0.3842 0.58599 0.0
Mn577 Mn 0.55339 0.38759 0.65783 0.0
C578 C 0.55869 0.48396 0.60949 0.0
C579 C 0.52972 0.40792 0.54616 0.0
C580 C 0.59186 0.34438 0.62218 0.0
O581 O 0.53951 0.29123 0.59608 0.0
O582 O 0.54126 0.29962 0.64405 0.0
C583 C 0.50623 0.39215 0.66577 0.0
N584 N 0.52594 0.4207 0.66985 0.0
C585 C 0.51035 0.5185 0.69311 0.0
C586 C 0.4899 0.48989 0.68933 0.0
C587 C 0.48785 0.42645 0.67559 0.0
C588 C 0.52808 0.48186 0.68294 0.0
H589 H 0.50455 0.34372 0.65498 0.0
C590 C 0.53682 0.26655 0.62116 0.0
O591 O 0.54797 0.37659 0.54254 0.0
O592 O 0.52415 0.4176 0.57219 0.0
N593 N 0.56466 0.4696 0.67429 0.0
C594 C 0.58558 0.48874 0.67733 0.0
C595 C 0.59047 0.55055 0.69109 0.0
C596 C 0.57382 0.59169 0.70178 0.0
C597 C 0.55246 0.56991 0.69915 0.0
C598 C 0.54861 0.50737 0.68559 0.0
H599 H 0.59843 0.45742 0.66907 0.0
O600 O 0.56384 0.4778 0.58296 0.0
O601 O 0.54927 0.43215 0.62134 0.0
O602 O 0.58297 0.34993 0.59729 0.0
O603 O 0.58203 0.35656 0.64572 0.0
C604 C 0.53485 0.60775 0.70947 0.0
C605 C 0.5138 0.58214 0.7064 0.0
H606 H 0.47568 0.51627 0.69681 0.0
H607 H 0.47212 0.40418 0.67248 0.0
H608 H 0.60701 0.56672 0.69324 0.0
H609 H 0.57763 0.63969 0.71209 0.0
H610 H 0.53733 0.65658 0.71979 0.0
H611 H 0.50039 0.61172 0.71437 0.0
Mn612 Mn 0.72077 0.852 0.58912 0.0
Mn613 Mn 0.71941 0.84806 0.6609 0.0
C614 C 0.71424 0.75217 0.61237 0.0
C615 C 0.74355 0.82798 0.54952 0.0
C616 C 0.68103 0.89129 0.62515 0.0
O617 O 0.73363 0.94459 0.59935 0.0
O618 O 0.73131 0.93637 0.64726 0.0
C619 C 0.76658 0.84507 0.66893 0.0
N620 N 0.74697 0.81579 0.67291 0.0
C621 C 0.76288 0.71807 0.69579 0.0
C622 C 0.78323 0.74741 0.69212 0.0
C623 C 0.78508 0.81119 0.67863 0.0
C624 C 0.74502 0.75437 0.6858 0.0
H625 H 0.76811 0.89373 0.65831 0.0
C626 C 0.73601 0.96934 0.62447 0.0
O627 O 0.72536 0.85951 0.54569 0.0
O628 O 0.74893 0.81833 0.5756 0.0
N629 N 0.70839 0.76558 0.67718 0.0
C630 C 0.68755 0.74557 0.68005 0.0
C631 C 0.68287 0.68325 0.69352 0.0
C632 C 0.69966 0.64249 0.70406 0.0
C633 C 0.72094 0.66513 0.70158 0.0
C634 C 0.72458 0.72816 0.68835 0.0
H635 H 0.6746 0.77654 0.67184 0.0
O636 O 0.70911 0.75867 0.58585 0.0
O637 O 0.72368 0.80376 0.62438 0.0
O638 O 0.6901 0.8866 0.60033 0.0
O639 O 0.6907 0.87833 0.64873 0.0
C640 C 0.73868 0.62759 0.71165 0.0
C641 C 0.75964 0.65397 0.70873 0.0
H642 H 0.79754 0.72133 0.69947 0.0
H643 H 0.80074 0.83404 0.6756 0.0
H644 H 0.6664 0.66638 0.69553 0.0
H645 H 0.69602 0.59406 0.71411 0.0
H646 H 0.73635 0.57832 0.7216 0.0
H647 H 0.77316 0.62458 0.71649 0.0
Mn648 Mn 0.54808 0.85653 0.67032 0.0
Mn649 Mn 0.55024 0.85384 0.59843 0.0
C650 C 0.55484 0.75702 0.64695 0.0
C651 C 0.52501 0.8333 0.70971 0.0
C652 C 0.58841 0.89452 0.63503 0.0
O653 O 0.5359 0.95021 0.66011 0.0
O654 O 0.53867 0.94246 0.61225 0.0
C655 C 0.50313 0.85285 0.58975 0.0
N656 N 0.52266 0.82292 0.58591 0.0
C657 C 0.5066 0.72682 0.56199 0.0
C658 C 0.48633 0.75684 0.56553 0.0
C659 C 0.4846 0.82011 0.57948 0.0
C660 C 0.52449 0.76187 0.57265 0.0
H661 H 0.5017 0.90119 0.60067 0.0
C662 C 0.53405 0.9756 0.63504 0.0
O663 O 0.5433 0.86419 0.71364 0.0
O664 O 0.51963 0.82402 0.68356 0.0
N665 N 0.56109 0.77162 0.58171 0.0
C666 C 0.58193 0.75189 0.57832 0.0
C667 C 0.58652 0.69029 0.56422 0.0
C668 C 0.56967 0.65018 0.55341 0.0
C669 C 0.54842 0.67291 0.55617 0.0
C670 C 0.54486 0.7351 0.57013 0.0
H671 H 0.59492 0.78251 0.58663 0.0
O672 O 0.55929 0.76281 0.6737 0.0
O673 O 0.54557 0.80874 0.63475 0.0
O674 O 0.57907 0.88974 0.65968 0.0
O675 O 0.57893 0.88256 0.61121 0.0
C676 C 0.53065 0.63656 0.54543 0.0
C677 C 0.50974 0.66342 0.54838 0.0
H678 H 0.472 0.73172 0.55766 0.0
H679 H 0.469 0.84348 0.58239 0.0
H680 H 0.60298 0.67353 0.56188 0.0
H681 H 0.57325 0.60239 0.54278 0.0
H682 H 0.53291 0.58806 0.53479 0.0
H683 H 0.4962 0.63509 0.54 0.0
Mn684 Mn 0.72356 0.37899 0.6726 0.0
Mn685 Mn 0.72384 0.38252 0.60068 0.0
C686 C 0.71781 0.47877 0.64911 0.0
C687 C 0.74501 0.40116 0.71354 0.0
C688 C 0.68432 0.343 0.63477 0.0
O689 O 0.73598 0.28544 0.66304 0.0
O690 O 0.73432 0.29317 0.6151 0.0
C691 C 0.77122 0.38007 0.59511 0.0
N692 N 0.75208 0.41146 0.59004 0.0
C693 C 0.7697 0.50634 0.5673 0.0
C694 C 0.78959 0.47481 0.57212 0.0
C695 C 0.79034 0.41142 0.5861 0.0
C696 C 0.75119 0.47264 0.57675 0.0
H697 H 0.7719 0.33161 0.60604 0.0
C698 C 0.73835 0.26 0.63806 0.0
O699 O 0.72654 0.37054 0.7161 0.0
O700 O 0.75148 0.41073 0.68785 0.0
N701 N 0.71422 0.46556 0.58336 0.0
C702 C 0.69369 0.48688 0.57865 0.0
C703 C 0.69009 0.54892 0.56439 0.0
C704 C 0.70761 0.58777 0.55474 0.0
C705 C 0.72855 0.56338 0.55882 0.0
C706 C 0.73113 0.50091 0.57293 0.0
H707 H 0.68019 0.45723 0.58607 0.0
O708 O 0.71238 0.4727 0.67553 0.0
O709 O 0.72747 0.42715 0.63733 0.0
O710 O 0.69297 0.34636 0.6599 0.0
O711 O 0.69451 0.35569 0.61155 0.0
C712 C 0.74696 0.59835 0.54928 0.0
C713 C 0.76753 0.56994 0.55355 0.0
H714 H 0.80438 0.49885 0.56522 0.0
H715 H 0.80564 0.38688 0.59 0.0
H716 H 0.67387 0.56696 0.56102 0.0
H717 H 0.70479 0.63586 0.54396 0.0
H718 H 0.74545 0.64698 0.53855 0.0
H719 H 0.78157 0.59724 0.54607 0.0
Mn720 Mn 0.46619 0.6426 0.41429 0.0
Mn721 Mn 0.42859 0.55736 0.45262 0.0
C722 C 0.42995 0.65565 0.40144 0.0
C723 C 0.48744 0.73806 0.40494 0.0
C724 C 0.45349 0.49334 0.4051 0.0
O725 O 0.48426 0.60725 0.44822 0.0
O726 O 0.45751 0.55157 0.46975 0.0
C727 C 0.43027 0.65473 0.50086 0.0
N728 N 0.41863 0.61826 0.48153 0.0
C729 C 0.38535 0.65651 0.50202 0.0
C730 C 0.39695 0.69436 0.52227 0.0
C731 C 0.41952 0.69372 0.52159 0.0
C732 C 0.39698 0.61931 0.48171 0.0
H733 H 0.44762 0.65382 0.50046 0.0
C734 C 0.47729 0.5674 0.4677 0.0
O735 O 0.49219 0.67864 0.39445 0.0
O736 O 0.47175 0.74042 0.42317 0.0
N737 N 0.39933 0.55226 0.44071 0.0
C738 C 0.39062 0.5117 0.42008 0.0
C739 C 0.36819 0.50521 0.41821 0.0
C740 C 0.35499 0.53947 0.43789 0.0
C741 C 0.36431 0.57909 0.4595 0.0
C742 C 0.38674 0.58258 0.46061 0.0
H743 H 0.40077 0.48365 0.40557 0.0
O744 O 0.44556 0.67154 0.38463 0.0
O745 O 0.43578 0.63563 0.42723 0.0
O746 O 0.46525 0.54484 0.39928 0.0
O747 O 0.43832 0.49297 0.42348 0.0
C748 C 0.35223 0.61528 0.47998 0.0
C749 C 0.36274 0.65436 0.50111 0.0
H750 H 0.3887 0.72419 0.53838 0.0
H751 H 0.42859 0.72287 0.5371 0.0
H752 H 0.36109 0.47327 0.4019 0.0
H753 H 0.33773 0.53494 0.43638 0.0
H754 H 0.33484 0.61373 0.47957 0.0
H755 H 0.35329 0.68241 0.5166 0.0
Mn756 Mn 0.30704 0.09335 0.41556 0.0
Mn757 Mn 0.34455 0.17841 0.45411 0.0
C758 C 0.34326 0.08297 0.40245 0.0
C759 C 0.28628 -0.00316 0.40569 0.0
C760 C 0.31917 0.24339 0.40734 0.0
O761 O 0.28901 0.12716 0.44984 0.0
O762 O 0.31573 0.18303 0.47151 0.0
C763 C 0.34342 0.07969 0.50186 0.0
N764 N 0.35484 0.1165 0.48242 0.0
C765 C 0.38834 0.07628 0.50158 0.0
C766 C 0.37697 0.03806 0.52192 0.0
C767 C 0.3544 0.03954 0.52197 0.0
C768 C 0.37649 0.11472 0.48192 0.0
H769 H 0.32607 0.08118 0.50201 0.0
C770 C 0.29597 0.16684 0.46944 0.0
O771 O 0.28116 0.05637 0.3956 0.0
O772 O 0.30199 0.99489 0.42388 0.0
N773 N 0.37366 0.18379 0.4416 0.0
C774 C 0.38212 0.22466 0.42092 0.0
C775 C 0.40454 0.23047 0.41841 0.0
C776 C 0.41797 0.19491 0.43739 0.0
C777 C 0.4089 0.15471 0.459 0.0
C778 C 0.38649 0.15197 0.4608 0.0
H779 H 0.3718 0.25318 0.40675 0.0
O780 O 0.32776 0.06651 0.38554 0.0
O781 O 0.33735 0.10127 0.42838 0.0
O782 O 0.30756 0.19168 0.4012 0.0
O783 O 0.33445 0.24366 0.42556 0.0
C784 C 0.42121 0.1172 0.4788 0.0
C785 C 0.41093 0.07765 0.49996 0.0
H786 H 0.3854 0.0073 0.53754 0.0
H787 H 0.34551 0.01011 0.53755 0.0
H788 H 0.41146 0.26286 0.40217 0.0
H789 H 0.43522 0.19889 0.43534 0.0
H790 H 0.43859 0.11812 0.47784 0.0
H791 H 0.42056 0.04861 0.51493 0.0
Mn792 Mn 0.46653 0.0907 0.34305 0.0
Mn793 Mn 0.43208 0.17735 0.30157 0.0
C794 C 0.42977 0.07831 0.35435 0.0
C795 C 0.48784 0.99443 0.35028 0.0
C796 C 0.4595 0.23939 0.34837 0.0
O797 O 0.48514 0.13535 0.31127 0.0
O798 O 0.45821 0.14805 0.28096 0.0
C799 C 0.42012 0.07172 0.25923 0.0
N800 N 0.41431 0.12134 0.27807 0.0
C801 C 0.37725 0.11338 0.26395 0.0
C802 C 0.38282 0.06227 0.24429 0.0
C803 C 0.40433 0.04116 0.24201 0.0
C804 C 0.39369 0.14206 0.28043 0.0
H805 H 0.43668 0.05594 0.2573 0.0
C806 C 0.47762 0.15977 0.28803 0.0
O807 O 0.49224 0.05221 0.36247 0.0
O808 O 0.47259 0.99471 0.33132 0.0
N809 N 0.4059 0.20962 0.31804 0.0
C810 C 0.40304 0.25618 0.33933 0.0
C811 C 0.38239 0.28161 0.3449 0.0
C812 C 0.36493 0.25927 0.32839 0.0
C813 C 0.36826 0.21197 0.30637 0.0
C814 C 0.38927 0.18953 0.30143 0.0
H815 H 0.41645 0.27498 0.35156 0.0
O816 O 0.44494 0.05613 0.37072 0.0
O817 O 0.43649 0.10225 0.3296 0.0
O818 O 0.46493 0.18437 0.36086 0.0
O819 O 0.44931 0.24159 0.3247 0.0
C820 C 0.35153 0.18546 0.28938 0.0
C821 C 0.35601 0.13596 0.26828 0.0
H822 H 0.37068 0.03842 0.23105 0.0
H823 H 0.40874 0.00164 0.22695 0.0
H824 H 0.37998 0.31903 0.36161 0.0
H825 H 0.34907 0.27899 0.3327 0.0
H826 H 0.33511 0.20191 0.29272 0.0
H827 H 0.34296 0.11498 0.25575 0.0
Mn828 Mn 0.30734 0.64475 0.34026 0.0
Mn829 Mn 0.34431 0.55589 0.30201 0.0
C830 C 0.34367 0.65593 0.35309 0.0
C831 C 0.28667 0.74214 0.34893 0.0
C832 C 0.31784 0.49437 0.34895 0.0
O833 O 0.28929 0.60879 0.30647 0.0
O834 O 0.31601 0.55702 0.28291 0.0
C835 C 0.34671 0.65478 0.25445 0.0
N836 N 0.35671 0.61504 0.27424 0.0
C837 C 0.39152 0.64374 0.25562 0.0
C838 C 0.38164 0.68497 0.23493 0.0
C839 C 0.35913 0.69077 0.23444 0.0
C840 C 0.37831 0.60969 0.27513 0.0
H841 H 0.3294 0.65858 0.25394 0.0
C842 C 0.2962 0.57205 0.28587 0.0
O843 O 0.2815 0.68332 0.35964 0.0
O844 O 0.3024 0.7428 0.33074 0.0
N845 N 0.37287 0.54393 0.31595 0.0
C846 C 0.3798 0.50199 0.33727 0.0
C847 C 0.40189 0.48946 0.34043 0.0
C848 C 0.41658 0.51954 0.32146 0.0
C849 C 0.40905 0.56098 0.2992 0.0
C850 C 0.38685 0.57028 0.29673 0.0
H851 H 0.3685 0.47708 0.35129 0.0
O852 O 0.32814 0.67365 0.36974 0.0
O853 O 0.3377 0.63486 0.32748 0.0
O854 O 0.30749 0.54787 0.35614 0.0
O855 O 0.33231 0.49198 0.32971 0.0
C856 C 0.4227 0.59366 0.27946 0.0
C857 C 0.41395 0.63539 0.25779 0.0
H858 H 0.39117 0.71256 0.21939 0.0
H859 H 0.35139 0.72252 0.21857 0.0
H860 H 0.4076 0.45578 0.35709 0.0
H861 H 0.43358 0.5102 0.32401 0.0
H862 H 0.43995 0.58755 0.2809 0.0
H863 H 0.42461 0.66085 0.24293 0.0
Mn864 Mn 0.54722 0.88953 0.08787 0.0
Mn865 Mn 0.54795 0.89209 0.15977 0.0
C866 C 0.55353 0.98894 0.11158 0.0
C867 C 0.5251 0.91327 0.04765 0.0
C868 C 0.58676 0.85088 0.12452 0.0
O869 O 0.53451 0.79627 0.09756 0.0
O870 O 0.53662 0.80359 0.1455 0.0
C871 C 0.50068 0.8928 0.16681 0.0
N872 N 0.52011 0.92285 0.17133 0.0
C873 C 0.50352 0.01899 0.19455 0.0
C874 C 0.48335 0.98885 0.19031 0.0
C875 C 0.48193 0.92549 0.17638 0.0
C876 C 0.52164 0.98394 0.18462 0.0
H877 H 0.49949 0.84441 0.15589 0.0
C878 C 0.53217 0.77083 0.12256 0.0
O879 O 0.54338 0.88191 0.04437 0.0
O880 O 0.51922 0.92285 0.07358 0.0
N881 N 0.55842 0.97444 0.17681 0.0
C882 C 0.57916 0.99471 0.18064 0.0
C883 C 0.58341 0.05657 0.19473 0.0
C884 C 0.56633 0.09648 0.20501 0.0
C885 C 0.54517 0.07334 0.2017 0.0
C886 C 0.54194 0.01087 0.18781 0.0
H887 H 0.59233 0.96434 0.17268 0.0
O888 O 0.55873 0.98305 0.08507 0.0
O889 O 0.54395 0.93721 0.12333 0.0
O890 O 0.57783 0.85539 0.09961 0.0
O891 O 0.57692 0.8634 0.14803 0.0
C892 C 0.52716 0.10969 0.2117 0.0
C893 C 0.50634 0.0826 0.2081 0.0
H894 H 0.46885 0.01396 0.1976 0.0
H895 H 0.46642 0.90202 0.17292 0.0
H896 H 0.5998 0.07371 0.19746 0.0
H897 H 0.56965 0.1445 0.2156 0.0
H898 H 0.52916 0.15847 0.22219 0.0
H899 H 0.49262 0.11099 0.21588 0.0
Mn900 Mn 0.71861 0.36434 0.08676 0.0
Mn901 Mn 0.71811 0.36162 0.15862 0.0
C902 C 0.71225 0.26496 0.11037 0.0
C903 C 0.74079 0.34037 0.04664 0.0
C904 C 0.67922 0.40327 0.12356 0.0
O905 O 0.7314 0.45742 0.09645 0.0
O906 O 0.72956 0.45006 0.1444 0.0
C907 C 0.76539 0.35993 0.16543 0.0
N908 N 0.74592 0.33026 0.17001 0.0
C909 C 0.76239 0.2336 0.19299 0.0
C910 C 0.78261 0.26336 0.18868 0.0
C911 C 0.78411 0.3268 0.17483 0.0
C912 C 0.74431 0.26908 0.1832 0.0
H913 H 0.76664 0.40837 0.15457 0.0
C914 C 0.73391 0.48281 0.12142 0.0
O915 O 0.72251 0.37168 0.04326 0.0
O916 O 0.74662 0.33092 0.07259 0.0
N917 N 0.70753 0.27933 0.17558 0.0
C918 C 0.68677 0.25937 0.17943 0.0
C919 C 0.68244 0.19745 0.19342 0.0
C920 C 0.69947 0.15718 0.20358 0.0
C921 C 0.72067 0.17997 0.20023 0.0
C922 C 0.72397 0.2425 0.18644 0.0
H923 H 0.67363 0.29004 0.17158 0.0
O924 O 0.70702 0.27097 0.08387 0.0
O925 O 0.72191 0.31653 0.12214 0.0
O926 O 0.68803 0.39857 0.09858 0.0
O927 O 0.68916 0.39084 0.147 0.0
C928 C 0.73863 0.14324 0.21014 0.0
C929 C 0.75949 0.16996 0.20647 0.0
H930 H 0.79709 0.2379 0.19585 0.0
H931 H 0.79966 0.34997 0.17132 0.0
H932 H 0.66602 0.18057 0.19617 0.0
H933 H 0.69609 0.10912 0.21409 0.0
H934 H 0.73657 0.09448 0.22063 0.0
H935 H 0.77318 0.14131 0.21417 0.0
Mn936 Mn 0.54724 0.36268 0.17197 0.0
Mn937 Mn 0.54825 0.35783 0.10008 0.0
C938 C 0.55364 0.26249 0.14887 0.0
C939 C 0.52505 0.34026 0.21221 0.0
C940 C 0.58678 0.40137 0.13544 0.0
O941 O 0.53455 0.45551 0.16159 0.0
O942 O 0.53639 0.44633 0.11366 0.0
C943 C 0.50106 0.35419 0.09238 0.0
N944 N 0.52069 0.32516 0.08828 0.0
C945 C 0.50485 0.22765 0.0651 0.0
C946 C 0.48448 0.25676 0.0689 0.0
C947 C 0.48258 0.32028 0.08262 0.0
C948 C 0.52268 0.26388 0.07524 0.0
H949 H 0.49951 0.40272 0.10312 0.0
C950 C 0.53204 0.47993 0.13644 0.0
O951 O 0.54333 0.3717 0.21534 0.0
O952 O 0.51915 0.32992 0.18633 0.0
N953 N 0.55931 0.27543 0.08372 0.0
C954 C 0.58018 0.25603 0.08047 0.0
C955 C 0.58491 0.1941 0.06671 0.0
C956 C 0.56816 0.1532 0.05616 0.0
C957 C 0.54685 0.17535 0.05893 0.0
C958 C 0.54314 0.23794 0.07253 0.0
H959 H 0.59311 0.2872 0.08859 0.0
O960 O 0.55874 0.26921 0.17538 0.0
O961 O 0.54414 0.3139 0.13676 0.0
O962 O 0.57789 0.39658 0.16035 0.0
O963 O 0.57698 0.38846 0.11197 0.0
C964 C 0.52914 0.13791 0.04865 0.0
C965 C 0.50815 0.16396 0.05178 0.0
H966 H 0.47018 0.23072 0.06145 0.0
H967 H 0.46691 0.34294 0.08574 0.0
H968 H 0.60142 0.17769 0.06442 0.0
H969 H 0.57185 0.10515 0.04582 0.0
H970 H 0.53151 0.0891 0.03828 0.0
H971 H 0.49467 0.13473 0.04381 0.0
Mn972 Mn 0.71935 0.89164 0.17011 0.0
Mn973 Mn 0.71722 0.8948 0.09834 0.0
C974 C 0.71227 0.9911 0.14688 0.0
C975 C 0.7426 0.91619 0.20916 0.0
C976 C 0.67929 0.85151 0.13491 0.0
O977 O 0.73205 0.79885 0.15978 0.0
O978 O 0.72939 0.80672 0.1119 0.0
C979 C 0.76429 0.89885 0.08944 0.0
N980 N 0.74457 0.92761 0.08578 0.0
C981 C 0.75998 0.02531 0.06228 0.0
C982 C 0.78044 0.99648 0.06562 0.0
C983 C 0.78259 0.93299 0.07927 0.0
C984 C 0.74233 0.98882 0.07277 0.0
H985 H 0.76604 0.85038 0.10016 0.0
C986 C 0.73419 0.7738 0.13468 0.0
O987 O 0.72449 0.88454 0.21343 0.0
O988 O 0.74766 0.92559 0.18295 0.0
N989 N 0.70582 0.97676 0.08204 0.0
C990 C 0.68488 0.9959 0.07929 0.0
C991 C 0.6799 0.0578 0.06567 0.0
C992 C 0.69647 0.09893 0.05479 0.0
C993 C 0.71784 0.07705 0.05706 0.0
C994 C 0.7218 0.01447 0.07051 0.0
H995 H 0.6721 0.96458 0.08771 0.0
O996 O 0.70765 0.98484 0.17357 0.0
O997 O 0.72171 0.93969 0.1347 0.0
O998 O 0.68855 0.85685 0.15958 0.0
O999 O 0.68873 0.86407 0.11113 0.0
C1000 C 0.73537 0.11478 0.04646 0.0
C1001 C 0.75643 0.089 0.0491 0.0
H1002 H 0.7946 0.02273 0.05787 0.0
H1003 H 0.79833 0.91055 0.08204 0.0
H1004 H 0.66335 0.07401 0.06378 0.0
H1005 H 0.69259 0.14699 0.04459 0.0
H1006 H 0.7328 0.16363 0.03624 0.0
H1007 H 0.76978 0.11846 0.04089 0.0
Mn1008 Mn 0.46253 0.1426 0.91301 0.0
Mn1009 Mn 0.425 0.05659 0.95113 0.0
C1010 C 0.42631 0.15337 0.89982 0.0
C1011 C 0.48341 0.2389 0.90359 0.0
C1012 C 0.45051 0.99283 0.90403 0.0
O1013 O 0.48047 0.10855 0.94734 0.0
O1014 O 0.45373 0.05258 0.96887 0.0
C1015 C 0.42566 0.15458 0.99921 0.0
N1016 N 0.41443 0.11769 0.97959 0.0
C1017 C 0.38073 0.15593 0.99886 0.0
C1018 C 0.3919 0.19419 0.01939 0.0
C1019 C 0.41448 0.19376 0.01947 0.0
C1020 C 0.39277 0.1185 0.97905 0.0
H1021 H 0.44301 0.15388 0.9994 0.0
C1022 C 0.47346 0.06924 0.96702 0.0
O1023 O 0.48848 0.17953 0.89332 0.0
O1024 O 0.46761 0.24084 0.92166 0.0
N1025 N 0.39596 0.0506 0.93841 0.0
C1026 C 0.3877 0.00973 0.91758 0.0
C1027 C 0.36532 0.00286 0.91503 0.0
C1028 C 0.35171 0.03745 0.9341 0.0
C1029 C 0.36058 0.07761 0.95588 0.0
C1030 C 0.38297 0.08133 0.95774 0.0
H1031 H 0.39817 0.98176 0.90343 0.0
O1032 O 0.44187 0.16995 0.88302 0.0
O1033 O 0.43216 0.13446 0.9257 0.0
O1034 O 0.46208 0.04473 0.89817 0.0
O1035 O 0.43534 0.99193 0.92241 0.0
C1036 C 0.34808 0.11404 0.97583 0.0
C1037 C 0.35815 0.15356 0.99719 0.0
H1038 H 0.38332 0.22419 0.03513 0.0
H1039 H 0.42323 0.22324 0.0352 0.0
H1040 H 0.35856 0.97021 0.89874 0.0
H1041 H 0.3345 0.03256 0.93206 0.0
H1042 H 0.3307 0.11232 0.97483 0.0
H1043 H 0.34838 0.18178 0.01227 0.0
Mn1044 Mn 0.30322 0.60009 0.91281 0.0
Mn1045 Mn 0.34084 0.68608 0.95081 0.0
C1046 C 0.33944 0.58861 0.89969 0.0
C1047 C 0.2822 0.50398 0.90358 0.0
C1048 C 0.31552 0.74949 0.90351 0.0
O1049 O 0.28527 0.63515 0.94696 0.0
O1050 O 0.31205 0.69129 0.96831 0.0
C1051 C 0.33974 0.58889 0.99912 0.0
N1052 N 0.35114 0.62516 0.97949 0.0
C1053 C 0.38466 0.58615 0.99904 0.0
C1054 C 0.37331 0.54851 0.01958 0.0
C1055 C 0.35073 0.54963 0.01952 0.0
C1056 C 0.3728 0.62366 0.97908 0.0
H1057 H 0.32239 0.59012 0.9992 0.0
C1058 C 0.29229 0.67507 0.96643 0.0
O1059 O 0.27723 0.56328 0.89316 0.0
O1060 O 0.29797 0.50209 0.9217 0.0
N1061 N 0.36995 0.69115 0.9383 0.0
C1062 C 0.3784 0.73169 0.91751 0.0
C1063 C 0.4008 0.73795 0.9151 0.0
C1064 C 0.41425 0.70314 0.9343 0.0
C1065 C 0.4052 0.66339 0.95606 0.0
C1066 C 0.38278 0.66027 0.95776 0.0
H1067 H 0.36805 0.75985 0.90327 0.0
O1068 O 0.32387 0.5719 0.88293 0.0
O1069 O 0.3336 0.60797 0.92552 0.0
O1070 O 0.30385 0.69773 0.89778 0.0
O1071 O 0.33074 0.75039 0.92183 0.0
C1072 C 0.41752 0.62684 0.97615 0.0
C1073 C 0.40726 0.58786 0.99752 0.0
H1074 H 0.38175 0.51847 0.03544 0.0
H1075 H 0.34185 0.52064 0.03526 0.0
H1076 H 0.40771 0.77028 0.89882 0.0
H1077 H 0.43149 0.70756 0.93236 0.0
H1078 H 0.4349 0.62808 0.97528 0.0
H1079 H 0.41689 0.55955 0.01271 0.0
Mn1080 Mn 0.46273 0.59138 0.84052 0.0
Mn1081 Mn 0.42831 0.67765 0.79866 0.0
C1082 C 0.42597 0.57959 0.85158 0.0
C1083 C 0.4839 0.49499 0.84834 0.0
C1084 C 0.45526 0.74046 0.8458 0.0
O1085 O 0.48153 0.63505 0.80879 0.0
O1086 O 0.45489 0.65157 0.77813 0.0
C1087 C 0.41772 0.57128 0.75603 0.0
N1088 N 0.41127 0.62036 0.77475 0.0
C1089 C 0.37444 0.60869 0.76008 0.0
C1090 C 0.38067 0.55818 0.74051 0.0
C1091 C 0.40239 0.53918 0.73857 0.0
C1092 C 0.39044 0.63893 0.77683 0.0
H1093 H 0.43444 0.55706 0.75439 0.0
C1094 C 0.47441 0.66037 0.78548 0.0
O1095 O 0.4883 0.55299 0.86036 0.0
O1096 O 0.46876 0.49505 0.82922 0.0
N1097 N 0.40168 0.70756 0.81463 0.0
C1098 C 0.39818 0.75385 0.83585 0.0
C1099 C 0.37722 0.77708 0.84112 0.0
C1100 C 0.36013 0.75314 0.82434 0.0
C1101 C 0.36413 0.70639 0.80232 0.0
C1102 C 0.38539 0.686 0.79772 0.0
H1103 H 0.41132 0.77397 0.84825 0.0
O1104 O 0.44103 0.55767 0.86816 0.0
O1105 O 0.43279 0.60265 0.82672 0.0
O1106 O 0.46115 0.68549 0.85798 0.0
O1107 O 0.4448 0.74262 0.82233 0.0
C1108 C 0.34781 0.67827 0.78508 0.0
C1109 C 0.35295 0.62922 0.76406 0.0
H1110 H 0.36888 0.53316 0.72707 0.0
H1111 H 0.40731 0.50008 0.7236 0.0
H1112 H 0.37425 0.81403 0.85783 0.0
H1113 H 0.34402 0.77107 0.8285 0.0
H1114 H 0.33121 0.69309 0.78816 0.0
H1115 H 0.34022 0.60699 0.75132 0.0
Mn1116 Mn 0.30295 0.15121 0.84085 0.0
Mn1117 Mn 0.3373 0.06518 0.79881 0.0
C1118 C 0.33975 0.16305 0.85183 0.0
C1119 C 0.28174 0.24752 0.84865 0.0
C1120 C 0.31037 0.00225 0.84592 0.0
O1121 O 0.28408 0.10709 0.80925 0.0
O1122 O 0.31073 0.09229 0.77856 0.0
C1123 C 0.34798 0.17169 0.75631 0.0
N1124 N 0.35439 0.12245 0.77497 0.0
C1125 C 0.39122 0.13372 0.76026 0.0
C1126 C 0.38504 0.18442 0.74076 0.0
C1127 C 0.36333 0.20368 0.73887 0.0
C1128 C 0.3752 0.10356 0.77699 0.0
H1129 H 0.33127 0.18611 0.75469 0.0
C1130 C 0.29132 0.08179 0.78601 0.0
O1131 O 0.2774 0.18958 0.86073 0.0
O1132 O 0.29685 0.24743 0.8295 0.0
N1133 N 0.36391 0.03471 0.81466 0.0
C1134 C 0.36737 0.98835 0.83584 0.0
C1135 C 0.38832 0.96495 0.8411 0.0
C1136 C 0.40543 0.98879 0.82434 0.0
C1137 C 0.40146 0.03564 0.80235 0.0
C1138 C 0.38021 0.05625 0.79779 0.0
H1139 H 0.35422 0.96835 0.84824 0.0
O1140 O 0.32471 0.18515 0.86842 0.0
O1141 O 0.33289 0.1399 0.82701 0.0
O1142 O 0.30461 0.05715 0.85829 0.0
O1143 O 0.32075 0.00022 0.82238 0.0
C1144 C 0.41779 0.06371 0.78514 0.0
C1145 C 0.41269 0.11292 0.76419 0.0
H1146 H 0.39684 0.20937 0.72735 0.0
H1147 H 0.35845 0.24291 0.72394 0.0
H1148 H 0.39126 0.928 0.8578 0.0
H1149 H 0.42153 0.97075 0.82849 0.0
H1150 H 0.43438 0.04871 0.78819 0.0
H1151 H 0.42543 0.13509 0.75147 0.0
C1152 C 0.07319 0.66359 0.13507 0.0
C1153 C 0.05361 0.69789 0.13791 0.0
H1154 H 0.08855 0.5697 0.12369 0.0
C1155 C 0.03416 0.66295 0.13471 0.0
H1156 H 0.08827 0.68996 0.13848 0.0
C1157 C 0.03433 0.5938 0.12815 0.0
C1158 C 0.05395 0.55992 0.12467 0.0
H1159 H 0.01896 0.68878 0.1379 0.0
H1160 H 0.01924 0.56716 0.12516 0.0
C1161 C 0.07335 0.59525 0.12729 0.0
C1162 C 0.1926 0.65763 0.1243 0.0
C1163 C 0.21199 0.69274 0.12107 0.0
H1164 H 0.17779 0.56308 0.13598 0.0
C1165 C 0.23162 0.65861 0.12384 0.0
H1166 H 0.17736 0.68336 0.12122 0.0
C1167 C 0.23183 0.58943 0.1303 0.0
C1168 C 0.21241 0.55472 0.13416 0.0
H1169 H 0.24667 0.68508 0.12037 0.0
H1170 H 0.24706 0.56343 0.13294 0.0
C1171 C 0.19283 0.58926 0.13203 0.0
C1172 C 0.95617 0.37284 0.84812 0.0
C1173 C 0.95553 0.31122 0.86334 0.0
H1174 H 0.95595 0.48193 0.85081 0.0
C1175 C 0.95644 0.31145 0.89318 0.0
H1176 H 0.95576 0.37318 0.82496 0.0
C1177 C 0.95549 0.3731 0.90782 0.0
C1178 C 0.95471 0.43463 0.89256 0.0
H1179 H 0.95647 0.26412 0.90505 0.0
H1180 H 0.95471 0.37276 0.93095 0.0
C1181 C 0.95627 0.43456 0.86276 0.0
C1182 C 0.80441 0.37978 0.84732 0.0
C1183 C 0.80594 0.4407 0.86302 0.0
H1184 H 0.8055 0.27055 0.84887 0.0
C1185 C 0.80796 0.43847 0.89279 0.0
H1186 H 0.80259 0.38064 0.8243 0.0
C1187 C 0.81072 0.37628 0.90643 0.0
C1188 C 0.81055 0.31569 0.89053 0.0
H1189 H 0.80881 0.48486 0.90526 0.0
H1190 H 0.81344 0.37557 0.92931 0.0
C1191 C 0.80627 0.31726 0.86119 0.0
C1192 C 0.03512 0.07948 0.62264 0.0
C1193 C 0.05434 0.04327 0.61955 0.0
H1194 H 0.0208 0.17629 0.63199 0.0
C1195 C 0.07413 0.07623 0.62261 0.0
H1196 H 0.01976 0.05472 0.61927 0.0
C1197 C 0.07471 0.14455 0.63039 0.0
C1198 C 0.05554 0.18119 0.63278 0.0
H1199 H 0.08905 0.04888 0.61927 0.0
H1200 H 0.09006 0.1691 0.63408 0.0
C1201 C 0.03572 0.1486 0.62919 0.0
C1202 C 0.23296 0.08387 0.63322 0.0
C1203 C 0.21316 0.05092 0.63637 0.0
H1204 H 0.24886 0.17799 0.62359 0.0
C1205 C 0.19395 0.08723 0.6336 0.0
H1206 H 0.24789 0.05644 0.63631 0.0
C1207 C 0.1945 0.15553 0.6258 0.0
C1208 C 0.21426 0.18882 0.62312 0.0
H1209 H 0.17861 0.0624 0.63697 0.0
H1210 H 0.17957 0.18257 0.6221 0.0
C1211 C 0.23351 0.15299 0.62666 0.0
C1212 C 0.96467 0.87381 0.40844 0.0
C1213 C 0.96403 0.93439 0.3925 0.0
H1214 H 0.96457 0.76497 0.40722 0.0
C1215 C 0.96509 0.93184 0.36261 0.0
H1216 H 0.96422 0.87478 0.43159 0.0
C1217 C 0.96479 0.86922 0.34873 0.0
C1218 C 0.96396 0.80866 0.36466 0.0
H1219 H 0.9649 0.97805 0.34994 0.0
H1220 H 0.96442 0.86824 0.32558 0.0
C1221 C 0.96491 0.81118 0.39456 0.0
C1222 C 0.81221 0.81 0.36382 0.0
C1223 C 0.81368 0.81039 0.39362 0.0
H1224 H 0.81308 0.87078 0.32589 0.0
C1225 C 0.81298 0.87213 0.40875 0.0
H1226 H 0.81247 0.76245 0.35198 0.0
C1227 C 0.8124 0.93358 0.39398 0.0
C1228 C 0.81348 0.93319 0.36415 0.0
H1229 H 0.81376 0.8728 0.43189 0.0
H1230 H 0.81281 0.98112 0.40581 0.0
C1231 C 0.81259 0.87145 0.34904 0.0
C1232 C 0.53689 0.65305 0.63063 0.0
C1233 C 0.55592 0.68972 0.63463 0.0
H1234 H 0.52307 0.55598 0.62045 0.0
C1235 C 0.57587 0.65733 0.63236 0.0
H1236 H 0.52139 0.67734 0.63338 0.0
C1237 C 0.57683 0.58917 0.62439 0.0
C1238 C 0.55783 0.55206 0.62108 0.0
H1239 H 0.59062 0.68503 0.63643 0.0
H1240 H 0.59232 0.56511 0.62127 0.0
C1241 C 0.53784 0.58404 0.62394 0.0
C1242 C 0.69605 0.64653 0.62636 0.0
C1243 C 0.71505 0.68392 0.62375 0.0
H1244 H 0.68219 0.55025 0.63755 0.0
C1245 C 0.73504 0.65214 0.62702 0.0
H1246 H 0.68058 0.67048 0.62292 0.0
C1247 C 0.73598 0.58303 0.63352 0.0
C1248 C 0.71692 0.54607 0.63682 0.0
H1249 H 0.74982 0.68045 0.62405 0.0
H1250 H 0.75145 0.5589 0.63669 0.0
C1251 C 0.69698 0.57822 0.63404 0.0
C1252 C 0.4631 0.42733 0.36174 0.0
C1253 C 0.45818 0.42906 0.39091 0.0
H1254 H 0.46715 0.36392 0.32488 0.0
C1255 C 0.4571 0.3683 0.40664 0.0
H1256 H 0.46454 0.47404 0.34954 0.0
C1257 C 0.45966 0.30601 0.39297 0.0
C1258 C 0.46245 0.30389 0.36332 0.0
H1259 H 0.45384 0.36896 0.42939 0.0
H1260 H 0.45805 0.25958 0.40526 0.0
C1261 C 0.46478 0.36478 0.34782 0.0
C1262 C 0.31195 0.37006 0.34871 0.0
C1263 C 0.3136 0.43126 0.36411 0.0
H1264 H 0.31159 0.26094 0.35096 0.0
C1265 C 0.31393 0.43047 0.39395 0.0
H1266 H 0.31145 0.37026 0.32555 0.0
C1267 C 0.31504 0.36847 0.40826 0.0
C1268 C 0.31482 0.30721 0.39274 0.0
H1269 H 0.31478 0.47752 0.40596 0.0
H1270 H 0.31672 0.36831 0.43132 0.0
C1271 C 0.31206 0.30803 0.3631 0.0
C1272 C 0.57316 0.15948 0.13451 0.0
C1273 C 0.55369 0.19444 0.13716 0.0
H1274 H 0.58826 0.06518 0.1231 0.0
C1275 C 0.53414 0.16021 0.13368 0.0
H1276 H 0.58831 0.1853 0.13812 0.0
C1277 C 0.5341 0.09113 0.12699 0.0
C1278 C 0.55362 0.05661 0.12366 0.0
H1279 H 0.51901 0.18657 0.1367 0.0
H1280 H 0.51894 0.06507 0.12376 0.0
C1281 C 0.57313 0.09122 0.1266 0.0
C1282 C 0.73168 0.09326 0.13158 0.0
C1283 C 0.71214 0.05906 0.13515 0.0
H1284 H 0.74686 0.18854 0.12192 0.0
C1285 C 0.69267 0.09417 0.13288 0.0
H1286 H 0.74683 0.06678 0.13433 0.0
C1287 C 0.69269 0.16261 0.12528 0.0
C1288 C 0.7122 0.19719 0.12229 0.0
H1289 H 0.67753 0.06837 0.13661 0.0
H1290 H 0.67755 0.18879 0.12206 0.0
C1291 C 0.73171 0.16249 0.12522 0.0
C1292 C 0.45962 0.86632 0.84543 0.0
C1293 C 0.45838 0.80492 0.86081 0.0
H1294 H 0.45876 0.97552 0.84763 0.0
C1295 C 0.45724 0.80624 0.89069 0.0
H1296 H 0.46073 0.86621 0.82232 0.0
C1297 C 0.45515 0.8681 0.90486 0.0
C1298 C 0.45511 0.92921 0.88933 0.0
H1299 H 0.45662 0.75945 0.9029 0.0
H1300 H 0.45307 0.86818 0.92785 0.0
C1301 C 0.45842 0.92844 0.85976 0.0
C1302 C 0.30734 0.81418 0.85944 0.0
C1303 C 0.31083 0.81316 0.88897 0.0
H1304 H 0.30479 0.8768 0.82216 0.0
C1305 C 0.31073 0.87407 0.90465 0.0
H1306 H 0.30697 0.76722 0.84721 0.0
C1307 C 0.30847 0.93603 0.89065 0.0
C1308 C 0.30725 0.93767 0.86079 0.0
H1309 H 0.31289 0.87375 0.92763 0.0
H1310 H 0.30904 0.98268 0.90297 0.0
C1311 C 0.306 0.87644 0.84526 0.0
C1312 C 0.00895 0.52112 0.98328 0.0
C1313 C 0.98772 0.53982 0.99047 0.0
H1314 H 0.03747 0.46542 0.99577 0.0
C1315 C 0.97901 0.51373 0.01594 0.0
H1316 H 0.01605 0.53903 0.96354 0.0
C1317 C 0.99082 0.4705 0.03357 0.0
C1318 C 0.01199 0.45159 0.02676 0.0
H1319 H 0.96274 0.52626 0.02228 0.0
H1320 H 0.98335 0.45278 0.05312 0.0
C1321 C 0.02101 0.47737 1.0013 0.0
C1322 C 0.25618 0.72922 0.97968 0.0
C1323 C 0.27759 0.71192 0.98656 0.0
H1324 H 0.22753 0.78398 0.99236 0.0
C1325 C 0.28647 0.7398 0.01161 0.0
H1326 H 0.24892 0.70986 0.96028 0.0
C1327 C 0.27464 0.78325 0.02915 0.0
C1328 C 0.25329 0.80066 0.02267 0.0
H1329 H 0.30286 0.72838 0.01774 0.0
H1330 H 0.28225 0.80226 0.04841 0.0
C1331 C 0.24412 0.77325 0.9976 0.0
C1332 C 0.99194 0.79286 0.23177 0.0
C1333 C 0.01355 0.8094 0.23699 0.0
H1334 H 0.96449 0.73436 0.24336 0.0
C1335 C 0.02374 0.77921 0.26073 0.0
H1336 H 0.98356 0.81453 0.21361 0.0
C1337 C 0.01264 0.73163 0.27806 0.0
C1338 C 0.99123 0.71299 0.27181 0.0
H1339 H 0.04052 0.78949 0.265 0.0
H1340 H 0.02093 0.70861 0.29597 0.0
C1341 C 0.98104 0.74564 0.24871 0.0
C1342 C 0.27741 0.46602 0.22307 0.0
C1343 C 0.25638 0.447 0.23056 0.0
H1344 H 0.30565 0.5221 0.23346 0.0
C1345 C 0.24777 0.47305 0.25621 0.0
H1346 H 0.28456 0.44809 0.20334 0.0
C1347 C 0.26007 0.51713 0.27377 0.0
C1348 C 0.28117 0.53594 0.26595 0.0
H1349 H 0.23142 0.46103 0.26225 0.0
H1350 H 0.25327 0.53521 0.29367 0.0
C1351 C 0.28949 0.50958 0.24028 0.0
C1352 C 0.78683 0.24586 0.01268 0.0
C1353 C 0.77781 0.21659 0.98799 0.0
H1354 H 0.7827 0.30966 0.04909 0.0
C1355 C 0.75631 0.23298 0.98128 0.0
H1356 H 0.80331 0.23519 0.01866 0.0
C1357 C 0.74426 0.27733 0.99906 0.0
C1358 C 0.75355 0.30597 0.0238 0.0
H1359 H 0.74894 0.21252 0.96215 0.0
H1360 H 0.72758 0.28723 0.99402 0.0
C1361 C 0.77502 0.28965 0.03007 0.0
C1362 C 0.97968 0.22821 0.73921 0.0
C1363 C 0.98799 0.20344 0.76515 0.0
H1364 H 0.98458 0.28779 0.70176 0.0
C1365 C 0.00904 0.22295 0.77289 0.0
H1366 H 0.96356 0.21507 0.73246 0.0
C1367 C 0.02132 0.26625 0.75498 0.0
C1368 C 0.01272 0.29078 0.72907 0.0
H1369 H 0.01581 0.20611 0.793 0.0
H1370 H 0.03763 0.2789 0.76099 0.0
C1371 C 0.99173 0.27102 0.72167 0.0
C1372 C 0.77853 0.45321 0.73206 0.0
C1373 C 0.75684 0.43698 0.73687 0.0
H1374 H 0.80575 0.51295 0.74361 0.0
C1375 C 0.7463 0.46875 0.75997 0.0
H1376 H 0.78719 0.43027 0.71441 0.0
C1377 C 0.75708 0.51781 0.77693 0.0
C1378 C 0.77854 0.53632 0.77096 0.0
H1379 H 0.72945 0.45873 0.76389 0.0
H1380 H 0.74849 0.54223 0.79426 0.0
C1381 C 0.78913 0.50187 0.74865 0.0
C1382 C 0.98156 0.99644 0.5078 0.0
C1383 C 0.99178 0.03001 0.48497 0.0
H1384 H 0.98411 0.92676 0.54264 0.0
C1385 C 0.01328 0.0122 0.47886 0.0
H1386 H 0.96494 0.00702 0.51302 0.0
C1387 C 0.02443 0.96452 0.49609 0.0
C1388 C 0.01422 0.93344 0.5196 0.0
H1389 H 0.02159 0.03597 0.46115 0.0
H1390 H 0.04127 0.95489 0.49195 0.0
C1391 C 0.99252 0.94915 0.52466 0.0
C1392 C 0.28997 0.2329 0.51423 0.0
C1393 C 0.28118 0.20415 0.48929 0.0
H1394 H 0.28564 0.29684 0.55055 0.0
C1395 C 0.25983 0.22142 0.4821 0.0
H1396 H 0.30632 0.22159 0.52058 0.0
C1397 C 0.24773 0.26622 0.49963 0.0
C1398 C 0.25681 0.29449 0.52459 0.0
H1399 H 0.25265 0.20146 0.46275 0.0
H1400 H 0.23117 0.27691 0.49417 0.0
C1401 C 0.27811 0.27716 0.53136 0.0
C1402 C 0.24516 0.969 0.75787 0.0
C1403 C 0.25465 0.93999 0.73336 0.0
H1404 H 0.24898 0.03786 0.79357 0.0
C1405 C 0.27605 0.95735 0.72709 0.0
H1406 H 0.22855 0.95811 0.76299 0.0
C1407 C 0.28741 0.00393 0.74384 0.0
C1408 C 0.27792 0.03518 0.76779 0.0
H1409 H 0.2839 0.93664 0.70832 0.0
H1410 H 0.30376 0.01572 0.73769 0.0
C1411 C 0.25672 0.01598 0.77499 0.0
C1412 C 0.76016 0.72321 0.48382 0.0
C1413 C 0.78136 0.70491 0.4914 0.0
H1414 H 0.73145 0.77863 0.49572 0.0
C1415 C 0.78983 0.73171 0.51689 0.0
H1416 H 0.75325 0.70481 0.46403 0.0
C1417 C 0.77781 0.7752 0.53417 0.0
C1418 C 0.75666 0.79356 0.52701 0.0
H1419 H 0.80606 0.71959 0.5235 0.0
H1420 H 0.7851 0.79347 0.55376 0.0
C1421 C 0.74789 0.76712 0.50151 0.0
C1422 C 0.74741 0.97726 0.25702 0.0
C1423 C 0.75592 0.95105 0.23134 0.0
H1424 H 0.75312 0.03937 0.29446 0.0
C1425 C 0.77696 0.96971 0.22376 0.0
H1426 H 0.73105 0.96552 0.26314 0.0
C1427 C 0.78915 0.0131 0.2409 0.0
C1428 C 0.78093 0.03962 0.26658 0.0
H1429 H 0.78405 0.95161 0.20401 0.0
H1430 H 0.80531 0.02534 0.23401 0.0
C1431 C 0.75983 0.02118 0.27452 0.0
C1432 C 0.48334 0.50196 0.51265 0.0
C1433 C 0.49208 0.53027 0.4876 0.0
H1434 H 0.48787 0.43947 0.54937 0.0
C1435 C 0.51348 0.51343 0.48054 0.0
H1436 H 0.46695 0.51299 0.51891 0.0
C1437 C 0.52571 0.4696 0.49832 0.0
C1438 C 0.51672 0.44195 0.52344 0.0
H1439 H 0.52063 0.53313 0.46113 0.0
H1440 H 0.54232 0.45932 0.49296 0.0
C1441 C 0.49534 0.45872 0.53007 0.0
C1442 C 0.52124 0.76977 0.75704 0.0
C1443 C 0.51205 0.7981 0.7322 0.0
H1444 H 0.51689 0.70273 0.7932 0.0
C1445 C 0.49074 0.78053 0.72553 0.0
H1446 H 0.53778 0.78078 0.76247 0.0
C1447 C 0.4791 0.73492 0.74241 0.0
C1448 C 0.48821 0.70487 0.76688 0.0
H1449 H 0.48312 0.80059 0.70648 0.0
H1450 H 0.46279 0.72318 0.73603 0.0
C1451 C 0.5094 0.72375 0.77426 0.0
C1452 C 0.48041 0.23976 0.24645 0.0
C1453 C 0.49046 0.20791 0.26985 0.0
H1454 H 0.48307 0.30827 0.21123 0.0
C1455 C 0.51171 0.22759 0.2765 0.0
H1456 H 0.46399 0.22763 0.24076 0.0
C1457 C 0.5228 0.27548 0.25932 0.0
C1458 C 0.51278 0.30489 0.23528 0.0
H1459 H 0.51987 0.20525 0.29466 0.0
H1460 H 0.53947 0.28663 0.26394 0.0
C1461 C 0.49131 0.28723 0.22962 0.0
C1462 C 0.50953 0.01598 0.98088 0.0
C1463 C 0.48815 0.03393 0.9876 0.0
H1464 H 0.53812 0.96159 0.99409 0.0
C1465 C 0.47928 0.008 0.013 0.0
H1466 H 0.51678 0.03387 0.96124 0.0
C1467 C 0.49107 0.96558 0.03101 0.0
C1468 C 0.51237 0.94733 0.02464 0.0
H1469 H 0.4629 0.02006 0.01902 0.0
H1470 H 0.48346 0.94793 0.05048 0.0
C1471 C 0.52156 0.97302 0.99928 0.0
C1472 C 0.14581 0.33073 0.10575 0.0
C1473 C 0.15595 0.33522 0.13274 0.0
H1474 H 0.11632 0.33264 0.08206 0.0
C1475 C 0.14297 0.33584 0.15722 0.0
H1476 H 0.15519 0.32931 0.08627 0.0
C1477 C 0.12055 0.33695 0.15469 0.0
C1478 C 0.11046 0.33808 0.12759 0.0
H1479 H 0.15008 0.33896 0.1783 0.0
H1480 H 0.11119 0.34032 0.17414 0.0
C1481 C 0.1234 0.33248 0.1032 0.0
C1482 C 0.11971 0.918 0.10504 0.0
C1483 C 0.11025 0.91612 0.13253 0.0
H1484 H 0.14862 0.91462 0.08013 0.0
C1485 C 0.12382 0.91863 0.1564 0.0
H1486 H 0.10985 0.91695 0.08597 0.0
C1487 C 0.14617 0.91815 0.1529 0.0
C1488 C 0.15562 0.91452 0.12544 0.0
H1489 H 0.11726 0.91766 0.17782 0.0
H1490 H 0.15601 0.91727 0.17198 0.0
C1491 C 0.14206 0.9169 0.10154 0.0
C1492 C 0.87959 0.66413 0.84935 0.0
C1493 C 0.86141 0.66638 0.86666 0.0
H1494 H 0.91369 0.65174 0.84704 0.0
C1495 C 0.86475 0.67746 0.89622 0.0
H1496 H 0.87797 0.67078 0.82676 0.0
C1497 C 0.88551 0.67864 0.90795 0.0
C1498 C 0.90326 0.66122 0.89121 0.0
H1499 H 0.85131 0.68664 0.9104 0.0
H1500 H 0.88769 0.69352 0.92997 0.0
C1501 C 0.90014 0.65745 0.86134 0.0
C1502 C 0.90009 0.07473 0.89444 0.0
C1503 C 0.90304 0.08148 0.86459 0.0
H1504 H 0.87758 0.05957 0.92877 0.0
C1505 C 0.88486 0.07401 0.84748 0.0
H1506 H 0.91374 0.07106 0.90868 0.0
C1507 C 0.86425 0.07893 0.85951 0.0
C1508 C 0.86138 0.08282 0.88945 0.0
H1509 H 0.8866 0.06358 0.82502 0.0
H1510 H 0.85056 0.07847 0.84526 0.0
C1511 C 0.87944 0.07132 0.90642 0.0
C1512 C 0.14263 0.82754 0.65554 0.0
C1513 C 0.15618 0.82855 0.63161 0.0
H1514 H 0.11044 0.82861 0.67114 0.0
C1515 C 0.14669 0.82374 0.6042 0.0
H1516 H 0.14923 0.83086 0.67691 0.0
C1517 C 0.12434 0.82335 0.60074 0.0
C1518 C 0.11078 0.82711 0.62459 0.0
H1519 H 0.15652 0.82356 0.5851 0.0
H1520 H 0.11775 0.82326 0.57931 0.0
C1521 C 0.12027 0.82653 0.65208 0.0
C1522 C 0.12248 0.40822 0.60312 0.0
C1523 C 0.11244 0.40433 0.6302 0.0
H1524 H 0.15193 0.40804 0.57935 0.0
C1525 C 0.12545 0.40661 0.65462 0.0
H1526 H 0.11306 0.40744 0.58367 0.0
C1527 C 0.14787 0.40783 0.65202 0.0
C1528 C 0.15792 0.40615 0.62491 0.0
H1529 H 0.11842 0.40412 0.67576 0.0
H1530 H 0.15729 0.40668 0.67146 0.0
C1531 C 0.14489 0.4088 0.60052 0.0
C1532 C 0.86958 0.15504 0.39511 0.0
C1533 C 0.86638 0.1573 0.36523 0.0
H1534 H 0.89192 0.16883 0.4295 0.0
C1535 C 0.8842 0.17253 0.34825 0.0
H1536 H 0.85604 0.151 0.40953 0.0
C1537 C 0.90499 0.1706 0.35987 0.0
C1538 C 0.90834 0.16124 0.38953 0.0
H1539 H 0.88205 0.1866 0.32615 0.0
H1540 H 0.91844 0.17807 0.34555 0.0
C1541 C 0.8902 0.16114 0.40695 0.0
C1542 C 0.88992 0.58251 0.35042 0.0
C1543 C 0.90811 0.5818 0.36775 0.0
H1544 H 0.85576 0.59317 0.34807 0.0
C1545 C 0.90485 0.57182 0.39739 0.0
H1546 H 0.89157 0.57523 0.32785 0.0
C1547 C 0.8841 0.57 0.40912 0.0
C1548 C 0.86625 0.58585 0.39229 0.0
H1549 H 0.91834 0.56387 0.41161 0.0
H1550 H 0.882 0.55563 0.4312 0.0
C1551 C 0.86935 0.58865 0.3624 0.0
C1552 C 0.62492 0.32535 0.65215 0.0
C1553 C 0.61537 0.3306 0.6248 0.0
H1554 H 0.65392 0.32504 0.67691 0.0
C1555 C 0.62886 0.33078 0.60082 0.0
H1556 H 0.61514 0.3243 0.67128 0.0
C1557 C 0.65123 0.33046 0.60417 0.0
C1558 C 0.66077 0.33049 0.63162 0.0
H1559 H 0.62221 0.33452 0.57949 0.0
H1560 H 0.66101 0.33341 0.58508 0.0
C1561 C 0.64728 0.3256 0.65552 0.0
C1562 C 0.62511 0.90727 0.65741 0.0
C1563 C 0.61202 0.90725 0.63304 0.0
H1564 H 0.65698 0.90382 0.67409 0.0
C1565 C 0.62204 0.91142 0.60595 0.0
H1566 H 0.6181 0.90441 0.67856 0.0
C1567 C 0.64444 0.91017 0.60324 0.0
C1568 C 0.65752 0.90537 0.62753 0.0
H1569 H 0.61257 0.91236 0.58654 0.0
H1570 H 0.65143 0.90981 0.58204 0.0
C1571 C 0.64753 0.90665 0.6547 0.0
C1572 C 0.38966 0.67371 0.40653 0.0
C1573 C 0.4077 0.66177 0.38957 0.0
H1574 H 0.35534 0.67396 0.40888 0.0
C1575 C 0.40474 0.66473 0.35962 0.0
H1576 H 0.39156 0.6862 0.42881 0.0
C1577 C 0.38411 0.66922 0.34763 0.0
C1578 C 0.36597 0.66217 0.36482 0.0
H1579 H 0.41841 0.66484 0.34531 0.0
H1580 H 0.38233 0.67899 0.32513 0.0
C1581 C 0.36898 0.66988 0.39463 0.0
C1582 C 0.38914 0.07882 0.34868 0.0
C1583 C 0.40734 0.07605 0.36593 0.0
H1584 H 0.35501 0.09103 0.34656 0.0
C1585 C 0.40405 0.06321 0.39538 0.0
H1586 H 0.39073 0.07321 0.32604 0.0
C1587 C 0.3833 0.06135 0.40715 0.0
C1588 C 0.36553 0.07964 0.39062 0.0
H1589 H 0.41751 0.05336 0.40943 0.0
H1590 H 0.38117 0.04547 0.42905 0.0
C1591 C 0.3686 0.08474 0.36078 0.0
C1592 C 0.64261 0.83719 0.15714 0.0
C1593 C 0.65577 0.83751 0.13284 0.0
H1594 H 0.61068 0.83959 0.17364 0.0
C1595 C 0.64585 0.83261 0.1057 0.0
H1596 H 0.64955 0.84057 0.17832 0.0
C1597 C 0.62345 0.83299 0.10287 0.0
C1598 C 0.6103 0.8376 0.12709 0.0
H1599 H 0.65537 0.83187 0.08634 0.0
H1600 H 0.61653 0.83288 0.08163 0.0
C1601 C 0.6202 0.83692 0.15431 0.0
C1602 C 0.64602 0.41861 0.15368 0.0
C1603 C 0.65569 0.41639 0.12632 0.0
H1604 H 0.61692 0.41578 0.17818 0.0
C1605 C 0.6423 0.4189 0.10226 0.0
H1606 H 0.65573 0.41756 0.17288 0.0
C1607 C 0.61993 0.41873 0.10545 0.0
C1608 C 0.61027 0.41542 0.13278 0.0
H1609 H 0.64903 0.41769 0.08093 0.0
H1610 H 0.61023 0.41782 0.08624 0.0
C1611 C 0.62365 0.41783 0.15686 0.0
C1612 C 0.40095 0.15622 0.8581 0.0
C1613 C 0.40403 0.15806 0.88802 0.0
H1614 H 0.37879 0.17104 0.82355 0.0
C1615 C 0.38624 0.17443 0.90485 0.0
H1616 H 0.41454 0.15161 0.84378 0.0
C1617 C 0.36549 0.17344 0.89308 0.0
C1618 C 0.3622 0.16382 0.86341 0.0
H1619 H 0.38837 0.18846 0.92696 0.0
H1620 H 0.35202 0.18163 0.90731 0.0
C1621 C 0.3804 0.16323 0.84611 0.0
C1622 C 0.3853 0.5789 0.84589 0.0
C1623 C 0.40352 0.57849 0.86317 0.0
H1624 H 0.35115 0.59029 0.84362 0.0
C1625 C 0.40026 0.5687 0.89283 0.0
H1626 H 0.3869 0.57112 0.82332 0.0
C1627 C 0.37952 0.56756 0.90464 0.0
C1628 C 0.3617 0.58391 0.88785 0.0
H1629 H 0.41374 0.56055 0.90704 0.0
H1630 H 0.37741 0.5535 0.92674 0.0
C1631 C 0.36475 0.58576 0.85792 0.0
C1632 C 0.02577 0.0868 0.10709 0.0
C1633 C 0.02681 0.05734 0.13456 0.0
H1634 H 0.02645 0.1784 0.08215 0.0
C1635 C 0.02568 0.10058 0.15845 0.0
H1636 H 0.02627 0.05522 0.0881 0.0
C1637 C 0.0256 0.1715 0.15496 0.0
C1638 C 0.02677 0.20098 0.1275 0.0
H1639 H 0.02619 0.07993 0.17991 0.0
H1640 H 0.02596 0.20308 0.17396 0.0
C1641 C 0.02581 0.15774 0.1036 0.0
C1642 C 0.24014 0.09491 0.09953 0.0
C1643 C 0.23941 0.05171 0.12345 0.0
H1644 H 0.2396 0.1974 0.08402 0.0
C1645 C 0.24092 0.08129 0.15088 0.0
H1646 H 0.23924 0.0742 0.0781 0.0
C1647 C 0.24096 0.15226 0.15436 0.0
C1648 C 0.23961 0.19547 0.13049 0.0
H1649 H 0.24073 0.04976 0.16988 0.0
H1650 H 0.2407 0.17297 0.17582 0.0
C1651 C 0.24029 0.16587 0.10301 0.0
C1652 C 0.99025 0.87053 0.90744 0.0
C1653 C 0.98924 0.80906 0.89211 0.0
H1654 H 0.98994 0.97975 0.90545 0.0
C1655 C 0.99005 0.81128 0.86207 0.0
H1656 H 0.98939 0.87028 0.93057 0.0
C1657 C 0.98953 0.87395 0.84764 0.0
C1658 C 0.98907 0.93546 0.863 0.0
H1659 H 0.98892 0.7647 0.84968 0.0
H1660 H 0.98812 0.87423 0.82456 0.0
C1661 C 0.99061 0.93317 0.893 0.0
C1662 C 0.7726 0.88323 0.90817 0.0
C1663 C 0.77417 0.94362 0.89225 0.0
H1664 H 0.77236 0.77407 0.90729 0.0
C1665 C 0.77351 0.93982 0.86223 0.0
H1666 H 0.77331 0.88477 0.9313 0.0
C1667 C 0.77379 0.87637 0.84842 0.0
C1668 C 0.77392 0.81581 0.86441 0.0
H1669 H 0.77502 0.98561 0.84941 0.0
H1670 H 0.77542 0.87471 0.82538 0.0
C1671 C 0.77203 0.81988 0.89435 0.0
C1672 C 0.02632 0.65376 0.64866 0.0
C1673 C 0.02784 0.68333 0.62125 0.0
H1674 H 0.02682 0.56217 0.67359 0.0
C1675 C 0.02745 0.6401 0.59731 0.0
H1676 H 0.02624 0.68532 0.66767 0.0
C1677 C 0.02762 0.56917 0.60078 0.0
C1678 C 0.0283 0.53969 0.62827 0.0
H1679 H 0.02836 0.66084 0.5759 0.0
H1680 H 0.02856 0.53765 0.5818 0.0
C1681 C 0.0266 0.58284 0.65213 0.0
C1682 C 0.24119 0.59188 0.60023 0.0
C1683 C 0.24101 0.5486 0.62414 0.0
H1684 H 0.23979 0.69437 0.58481 0.0
C1685 C 0.24262 0.57817 0.65155 0.0
H1686 H 0.24017 0.57115 0.57881 0.0
C1687 C 0.24222 0.64907 0.65508 0.0
C1688 C 0.24033 0.69226 0.63127 0.0
H1689 H 0.24288 0.54657 0.67054 0.0
H1690 H 0.2421 0.66968 0.67656 0.0
C1691 C 0.24091 0.66283 0.60375 0.0
C1692 C 0.99728 0.37617 0.34842 0.0
C1693 C 0.99645 0.43593 0.36487 0.0
H1694 H 0.99679 0.26701 0.34851 0.0
C1695 C 0.99795 0.43083 0.39482 0.0
H1696 H 0.996 0.37871 0.32535 0.0
C1697 C 0.99759 0.36693 0.40815 0.0
C1698 C 0.9966 0.30717 0.39172 0.0
H1699 H 0.9971 0.47609 0.40807 0.0
H1700 H 0.99654 0.3644 0.43124 0.0
C1701 C 0.99778 0.31227 0.36175 0.0
C1702 C 0.77998 0.37025 0.34904 0.0
C1703 C 0.78066 0.30879 0.36439 0.0
H1704 H 0.78043 0.47948 0.35108 0.0
C1705 C 0.77939 0.31105 0.39441 0.0
H1706 H 0.78118 0.36996 0.32594 0.0
C1707 C 0.7798 0.3737 0.40886 0.0
C1708 C 0.78058 0.43516 0.39352 0.0
H1709 H 0.78023 0.26447 0.40682 0.0
H1710 H 0.78086 0.37399 0.43197 0.0
C1711 C 0.7795 0.4329 0.36349 0.0
C1712 C 0.52872 0.09318 0.65553 0.0
C1713 C 0.52933 0.0497 0.63168 0.0
H1714 H 0.53015 0.1957 0.67095 0.0
C1715 C 0.52862 0.07918 0.60419 0.0
H1716 H 0.52905 0.07259 0.67701 0.0
C1717 C 0.52945 0.15007 0.60064 0.0
C1718 C 0.53088 0.19333 0.6245 0.0
H1719 H 0.52877 0.04747 0.58523 0.0
H1720 H 0.53026 0.17054 0.57917 0.0
C1721 C 0.52943 0.16409 0.65198 0.0
C1722 C 0.74345 0.1428 0.65885 0.0
C1723 C 0.74313 0.186 0.63493 0.0
H1724 H 0.74191 0.04044 0.67435 0.0
C1725 C 0.74433 0.15637 0.60749 0.0
H1726 H 0.74278 0.16358 0.68028 0.0
C1727 C 0.74365 0.0855 0.60401 0.0
C1728 C 0.74187 0.04249 0.62788 0.0
H1729 H 0.74446 0.18792 0.58849 0.0
H1730 H 0.74319 0.06483 0.58254 0.0
C1731 C 0.74289 0.0719 0.65537 0.0
C1732 C 0.49521 0.80527 0.36107 0.0
C1733 C 0.49489 0.80156 0.3911 0.0
H1734 H 0.49297 0.87029 0.32424 0.0
C1735 C 0.49671 0.862 0.40696 0.0
H1736 H 0.49348 0.75945 0.3483 0.0
C1737 C 0.49721 0.92531 0.39311 0.0
C1738 C 0.49499 0.92934 0.36321 0.0
H1739 H 0.49627 0.86055 0.4301 0.0
H1740 H 0.49709 0.97115 0.40606 0.0
C1741 C 0.49485 0.8687 0.34724 0.0
C1742 C 0.27933 0.86781 0.34708 0.0
C1743 C 0.27953 0.80649 0.36257 0.0
H1744 H 0.28013 0.97707 0.34892 0.0
C1745 C 0.27759 0.8092 0.39252 0.0
H1746 H 0.28103 0.86721 0.32404 0.0
C1747 C 0.27788 0.87202 0.40685 0.0
C1748 C 0.27921 0.93326 0.39143 0.0
H1749 H 0.27803 0.76278 0.40509 0.0
H1750 H 0.27847 0.87254 0.42999 0.0
C1751 C 0.27874 0.93068 0.36138 0.0
C1752 C 0.52531 0.59692 0.15674 0.0
C1753 C 0.52671 0.55353 0.13292 0.0
H1754 H 0.52542 0.6995 0.17216 0.0
C1755 C 0.52602 0.58288 0.1054 0.0
H1756 H 0.52555 0.57639 0.17823 0.0
C1757 C 0.52613 0.65381 0.10185 0.0
C1758 C 0.5268 0.69717 0.12573 0.0
H1759 H 0.52676 0.5512 0.08645 0.0
H1760 H 0.52703 0.67436 0.0804 0.0
C1761 C 0.52529 0.66782 0.15318 0.0
C1762 C 0.74013 0.59946 0.10051 0.0
C1763 C 0.73936 0.55643 0.12448 0.0
H1764 H 0.7396 0.70185 0.08488 0.0
C1765 C 0.74085 0.58615 0.15188 0.0
H1766 H 0.73925 0.57861 0.0791 0.0
C1767 C 0.74089 0.65712 0.15527 0.0
C1768 C 0.73955 0.70017 0.13135 0.0
H1769 H 0.74065 0.55473 0.17092 0.0
H1770 H 0.74062 0.67795 0.17671 0.0
C1771 C 0.74028 0.67044 0.1039 0.0
C1772 C 0.49227 0.36321 0.90549 0.0
C1773 C 0.49073 0.30254 0.88972 0.0
H1774 H 0.49249 0.47238 0.90437 0.0
C1775 C 0.49131 0.30594 0.85969 0.0
H1776 H 0.49162 0.36201 0.92862 0.0
C1777 C 0.49099 0.36922 0.84573 0.0
C1778 C 0.4909 0.43006 0.86157 0.0
H1779 H 0.48981 0.25994 0.84698 0.0
H1780 H 0.48934 0.37053 0.82269 0.0
C1781 C 0.4928 0.42638 0.89152 0.0
C1782 C 0.27457 0.3732 0.84589 0.0
C1783 C 0.27469 0.31251 0.86181 0.0
H1784 H 0.27571 0.48247 0.84701 0.0
C1785 C 0.2728 0.31642 0.89175 0.0
H1786 H 0.2762 0.3717 0.82285 0.0
C1787 C 0.27331 0.37971 0.90564 0.0
C1788 C 0.27483 0.44025 0.8898 0.0
H1789 H 0.27313 0.27053 0.90465 0.0
H1790 H 0.27398 0.38111 0.92877 0.0
C1791 C 0.27422 0.4366 0.85977 0.0
loop_
_geom_bond_atom_site_label_1
_geom_bond_atom_site_label_2
_geom_bond_distance
_geom_bond_site_symmetry_2
_ccdc_geom_bond_type
Mn0 O5 2.095 . S
Mn0 O15 2.162 . S
Mn0 O16 2.297 . S
Mn0 O24 2.385 . S
Mn0 O25 2.209 . S
Mn0 O26 2.094 . S
Mn1 O6 2.121 . S
Mn1 N8 2.257 . S
Mn1 N17 2.282 . S
Mn1 O25 2.215 . S
Mn1 O27 2.117 . S
C2 O24 1.234 . S
C2 O25 1.283 . S
C3 O15 1.281 . S
C3 O16 1.236 . S
C4 O26 1.240 . S
C4 O27 1.264 . S
O5 Mn0 2.095 . S
O5 C14 1.250 . S
O6 Mn1 2.121 . S
O6 C14 1.258 . S
C7 N8 1.326 . S
C7 C11 1.460 1_455 S
C7 H13 0.929 . S
N8 Mn1 2.257 . S
N8 C7 1.326 . S
N8 C12 1.362 . S
C9 C10 1.258 . S
C9 C12 1.431 . S
C9 C29 1.449 . S
C10 C9 1.258 . S
C10 C11 1.477 1_455 S
C10 H30 0.931 1_455 S
C11 C7 1.460 1_655 S
C11 C10 1.477 1_655 S
C11 H31 0.930 . S
C12 N8 1.362 . S
C12 C9 1.431 . S
C12 C22 1.476 . S
H13 C7 0.929 . S
C14 O5 1.250 . S
C14 O6 1.258 . S
O15 Mn0 2.162 . S
O15 C3 1.281 . S
O16 Mn0 2.297 . S
O16 C3 1.236 . S
N17 Mn1 2.282 . S
N17 C18 1.328 . S
N17 C22 1.318 . S
C18 N17 1.328 . S
C18 C19 1.457 . S
C18 H23 0.929 . S
C19 C18 1.457 . S
C19 C20 1.291 . S
C19 H32 0.931 . S
C20 C19 1.291 . S
C20 C21 1.373 . S
C20 H33 0.929 . S
C21 C20 1.373 . S
C21 C22 1.396 . S
C21 C28 1.403 . S
C22 C12 1.476 . S
C22 N17 1.318 . S
C22 C21 1.396 . S
H23 C18 0.929 . S
O24 Mn0 2.385 . S
O24 C2 1.234 . S
O25 Mn0 2.209 . S
O25 Mn1 2.215 . S
O25 C2 1.283 . S
O26 Mn0 2.094 . S
O26 C4 1.240 . S
O27 Mn1 2.117 . S
O27 C4 1.264 . S
C28 C21 1.403 . S
C28 C29 1.399 . S
C28 H34 0.929 . S
C29 C9 1.449 . S
C29 C28 1.399 . S
C29 H35 0.930 . S
H30 C10 0.931 1_655 S
H31 C11 0.930 . S
H32 C19 0.931 . S
H33 C20 0.929 . S
H34 C28 0.929 . S
H35 C29 0.930 . S
Mn36 O41 2.095 . S
Mn36 O51 2.162 . S
Mn36 O52 2.297 . S
Mn36 O60 2.385 . S
Mn36 O61 2.209 . S
Mn36 O62 2.094 . S
Mn37 O42 2.121 . S
Mn37 N44 2.257 . S
Mn37 N53 2.282 . S
Mn37 O61 2.215 . S
Mn37 O63 2.117 . S
C38 O60 1.234 . S
C38 O61 1.283 . S
C39 O51 1.281 . S
C39 O52 1.236 . S
C40 O62 1.240 . S
C40 O63 1.264 . S
O41 Mn36 2.095 . S
O41 C50 1.250 . S
O42 Mn37 2.121 . S
O42 C50 1.258 . S
C43 N44 1.326 . S
C43 C47 1.460 . S
C43 H49 0.929 . S
N44 Mn37 2.257 . S
N44 C43 1.326 . S
N44 C48 1.362 . S
C45 C46 1.258 . S
C45 C48 1.431 . S
C45 C65 1.449 . S
C46 C45 1.258 . S
C46 C47 1.477 . S
C46 H66 0.931 . S
C47 C43 1.460 . S
C47 C46 1.477 . S
C47 H67 0.930 . S
C48 N44 1.362 . S
C48 C45 1.431 . S
C48 C58 1.476 . S
H49 C43 0.929 . S
C50 O41 1.250 . S
C50 O42 1.258 . S
O51 Mn36 2.162 . S
O51 C39 1.281 . S
O52 Mn36 2.297 . S
O52 C39 1.236 . S
N53 Mn37 2.282 . S
N53 C54 1.328 . S
N53 C58 1.318 . S
C54 N53 1.328 . S
C54 C55 1.457 . S
C54 H59 0.929 . S
C55 C54 1.457 . S
C55 C56 1.291 . S
C55 H68 0.931 . S
C56 C55 1.291 . S
C56 C57 1.373 . S
C56 H69 0.929 . S
C57 C56 1.373 . S
C57 C58 1.396 . S
C57 C64 1.403 . S
C58 C48 1.476 . S
C58 N53 1.318 . S
C58 C57 1.396 . S
H59 C54 0.929 . S
O60 Mn36 2.385 . S
O60 C38 1.234 . S
O61 Mn36 2.209 . S
O61 Mn37 2.215 . S
O61 C38 1.283 . S
O62 Mn36 2.094 . S
O62 C40 1.240 . S
O63 Mn37 2.117 . S
O63 C40 1.264 . S
C64 C57 1.403 . S
C64 C65 1.399 . S
C64 H70 0.929 . S
C65 C45 1.449 . S
C65 C64 1.399 . S
C65 H71 0.930 . S
H66 C46 0.931 . S
H67 C47 0.930 . S
H68 C55 0.931 . S
H69 C56 0.929 . S
H70 C64 0.929 . S
H71 C65 0.930 . S
Mn72 O77 2.095 . S
Mn72 O87 2.162 . S
Mn72 O88 2.297 . S
Mn72 O96 2.385 . S
Mn72 O97 2.209 . S
Mn72 O98 2.094 . S
Mn73 O78 2.121 . S
Mn73 N80 2.257 . S
Mn73 N89 2.282 . S
Mn73 O97 2.215 . S
Mn73 O99 2.117 . S
C74 O96 1.234 . S
C74 O97 1.283 . S
C75 O87 1.281 . S
C75 O88 1.236 . S
C76 O98 1.240 . S
C76 O99 1.264 . S
O77 Mn72 2.095 . S
O77 C86 1.250 . S
O78 Mn73 2.121 . S
O78 C86 1.258 . S
C79 N80 1.326 . S
C79 C83 1.460 1_455 S
C79 H85 0.929 . S
N80 Mn73 2.257 . S
N80 C79 1.326 . S
N80 C84 1.362 . S
C81 C82 1.258 . S
C81 C84 1.431 . S
C81 C101 1.449 1_554 S
C82 C81 1.258 . S
C82 C83 1.477 1_455 S
C82 H102 0.931 1_454 S
C83 C79 1.460 1_655 S
C83 C82 1.477 1_655 S
C83 H103 0.930 . S
C84 N80 1.362 . S
C84 C81 1.431 . S
C84 C94 1.476 . S
H85 C79 0.929 . S
C86 O77 1.250 . S
C86 O78 1.258 . S
O87 Mn72 2.162 . S
O87 C75 1.281 . S
O88 Mn72 2.297 . S
O88 C75 1.236 . S
N89 Mn73 2.282 . S
N89 C90 1.328 . S
N89 C94 1.318 . S
C90 N89 1.328 . S
C90 C91 1.457 . S
C90 H95 0.929 . S
C91 C90 1.457 . S
C91 C92 1.291 . S
C91 H104 0.931 . S
C92 C91 1.291 . S
C92 C93 1.373 . S
C92 H105 0.929 . S
C93 C92 1.373 . S
C93 C94 1.396 . S
C93 C100 1.403 . S
C94 C84 1.476 . S
C94 N89 1.318 . S
C94 C93 1.396 . S
H95 C90 0.929 . S
O96 Mn72 2.385 . S
O96 C74 1.234 . S
O97 Mn72 2.209 . S
O97 Mn73 2.215 . S
O97 C74 1.283 . S
O98 Mn72 2.094 . S
O98 C76 1.240 . S
O99 Mn73 2.117 . S
O99 C76 1.264 . S
C100 C93 1.403 . S
C100 C101 1.399 1_554 S
C100 H106 0.929 1_554 S
C101 C81 1.449 1_556 S
C101 C100 1.399 1_556 S
C101 H107 0.930 . S
H102 C82 0.931 1_656 S
H103 C83 0.930 . S
H104 C91 0.931 . S
H105 C92 0.929 . S
H106 C100 0.929 1_556 S
H107 C101 0.930 . S
Mn108 O113 2.095 . S
Mn108 O123 2.162 . S
Mn108 O124 2.297 . S
Mn108 O132 2.385 . S
Mn108 O133 2.209 . S
Mn108 O134 2.094 . S
Mn109 O114 2.121 . S
Mn109 N116 2.257 . S
Mn109 N125 2.282 . S
Mn109 O133 2.215 . S
Mn109 O135 2.117 . S
C110 O132 1.234 . S
C110 O133 1.283 . S
C111 O123 1.281 . S
C111 O124 1.236 . S
C112 O134 1.240 . S
C112 O135 1.264 . S
O113 Mn108 2.095 . S
O113 C122 1.250 . S
O114 Mn109 2.121 . S
O114 C122 1.258 . S
C115 N116 1.326 . S
C115 C119 1.460 . S
C115 H121 0.929 . S
N116 Mn109 2.257 . S
N116 C115 1.326 . S
N116 C120 1.362 . S
C117 C118 1.258 . S
C117 C120 1.431 . S
C117 C137 1.449 1_554 S
C118 C117 1.258 . S
C118 C119 1.477 . S
C118 H138 0.931 1_554 S
C119 C115 1.460 . S
C119 C118 1.477 . S
C119 H139 0.930 . S
C120 N116 1.362 . S
C120 C117 1.431 . S
C120 C130 1.476 . S
H121 C115 0.929 . S
C122 O113 1.250 . S
C122 O114 1.258 . S
O123 Mn108 2.162 . S
O123 C111 1.281 . S
O124 Mn108 2.297 . S
O124 C111 1.236 . S
N125 Mn109 2.282 . S
N125 C126 1.328 . S
N125 C130 1.318 . S
C126 N125 1.328 . S
C126 C127 1.457 . S
C126 H131 0.929 . S
C127 C126 1.457 . S
C127 C128 1.291 . S
C127 H140 0.931 . S
C128 C127 1.291 . S
C128 C129 1.373 . S
C128 H141 0.929 . S
C129 C128 1.373 . S
C129 C130 1.396 . S
C129 C136 1.403 . S
C130 C120 1.476 . S
C130 N125 1.318 . S
C130 C129 1.396 . S
H131 C126 0.929 . S
O132 Mn108 2.385 . S
O132 C110 1.234 . S
O133 Mn108 2.209 . S
O133 Mn109 2.215 . S
O133 C110 1.283 . S
O134 Mn108 2.094 . S
O134 C112 1.240 . S
O135 Mn109 2.117 . S
O135 C112 1.264 . S
C136 C129 1.403 . S
C136 C137 1.399 1_554 S
C136 H142 0.929 1_554 S
C137 C117 1.449 1_556 S
C137 C136 1.399 1_556 S
C137 H143 0.930 . S
H138 C118 0.931 1_556 S
H139 C119 0.930 . S
H140 C127 0.931 . S
H141 C128 0.929 . S
H142 C136 0.929 1_556 S
H143 C137 0.930 . S
Mn144 O149 2.095 . S
Mn144 O159 2.162 . S
Mn144 O160 2.297 . S
Mn144 O168 2.385 . S
Mn144 O169 2.209 . S
Mn144 O170 2.094 . S
Mn145 O150 2.121 . S
Mn145 N152 2.257 . S
Mn145 N161 2.282 . S
Mn145 O169 2.215 . S
Mn145 O171 2.117 . S
C146 O168 1.234 . S
C146 O169 1.283 . S
C147 O159 1.281 . S
C147 O160 1.236 . S
C148 O170 1.240 . S
C148 O171 1.264 . S
O149 Mn144 2.095 . S
O149 C158 1.250 . S
O150 Mn145 2.121 . S
O150 C158 1.258 . S
C151 N152 1.326 . S
C151 C155 1.460 1_556 S
C151 H157 0.929 . S
N152 Mn145 2.257 . S
N152 C151 1.326 . S
N152 C156 1.362 . S
C153 C154 1.258 . S
C153 C156 1.431 . S
C153 C173 1.449 . S
C154 C153 1.258 . S
C154 C155 1.477 1_556 S
C154 H174 0.931 1_556 S
C155 C151 1.460 1_554 S
C155 C154 1.477 1_554 S
C155 H175 0.930 . S
C156 N152 1.362 . S
C156 C153 1.431 . S
C156 C166 1.476 . S
H157 C151 0.929 . S
C158 O149 1.250 . S
C158 O150 1.258 . S
O159 Mn144 2.162 . S
O159 C147 1.281 . S
O160 Mn144 2.297 . S
O160 C147 1.236 . S
N161 Mn145 2.282 . S
N161 C162 1.328 . S
N161 C166 1.318 . S
C162 N161 1.328 . S
C162 C163 1.457 . S
C162 H167 0.929 . S
C163 C162 1.457 . S
C163 C164 1.291 . S
C163 H176 0.931 . S
C164 C163 1.291 . S
C164 C165 1.373 . S
C164 H177 0.929 . S
C165 C164 1.373 . S
C165 C166 1.396 . S
C165 C172 1.403 . S
C166 C156 1.476 . S
C166 N161 1.318 . S
C166 C165 1.396 . S
H167 C162 0.929 . S
O168 Mn144 2.385 . S
O168 C146 1.234 . S
O169 Mn144 2.209 . S
O169 Mn145 2.215 . S
O169 C146 1.283 . S
O170 Mn144 2.094 . S
O170 C148 1.240 . S
O171 Mn145 2.117 . S
O171 C148 1.264 . S
C172 C165 1.403 . S
C172 C173 1.399 . S
C172 H178 0.929 . S
C173 C153 1.449 . S
C173 C172 1.399 . S
C173 H179 0.930 . S
H174 C154 0.931 1_554 S
H175 C155 0.930 . S
H176 C163 0.931 . S
H177 C164 0.929 . S
H178 C172 0.929 . S
H179 C173 0.930 . S
Mn180 O185 2.095 . S
Mn180 O195 2.162 . S
Mn180 O196 2.297 . S
Mn180 O204 2.385 . S
Mn180 O205 2.209 . S
Mn180 O206 2.094 . S
Mn181 O186 2.121 . S
Mn181 N188 2.257 . S
Mn181 N197 2.282 . S
Mn181 O205 2.215 . S
Mn181 O207 2.117 . S
C182 O204 1.234 . S
C182 O205 1.283 . S
C183 O195 1.281 . S
C183 O196 1.236 . S
C184 O206 1.240 . S
C184 O207 1.264 . S
O185 Mn180 2.095 . S
O185 C194 1.250 . S
O186 Mn181 2.121 . S
O186 C194 1.258 . S
C187 N188 1.326 . S
C187 C191 1.460 1_556 S
C187 H193 0.929 . S
N188 Mn181 2.257 . S
N188 C187 1.326 . S
N188 C192 1.362 . S
C189 C190 1.258 . S
C189 C192 1.431 . S
C189 C209 1.449 . S
C190 C189 1.258 . S
C190 C191 1.477 1_556 S
C190 H210 0.931 1_556 S
C191 C187 1.460 1_554 S
C191 C190 1.477 1_554 S
C191 H211 0.930 . S
C192 N188 1.362 . S
C192 C189 1.431 . S
C192 C202 1.476 . S
H193 C187 0.929 . S
C194 O185 1.250 . S
C194 O186 1.258 . S
O195 Mn180 2.162 . S
O195 C183 1.281 . S
O196 Mn180 2.297 . S
O196 C183 1.236 . S
N197 Mn181 2.282 . S
N197 C198 1.328 . S
N197 C202 1.318 . S
C198 N197 1.328 . S
C198 C199 1.457 . S
C198 H203 0.929 . S
C199 C198 1.457 . S
C199 C200 1.291 . S
C199 H212 0.931 . S
C200 C199 1.291 . S
C200 C201 1.373 . S
C200 H213 0.929 . S
C201 C200 1.373 . S
C201 C202 1.396 . S
C201 C208 1.403 . S
C202 C192 1.476 . S
C202 N197 1.318 . S
C202 C201 1.396 . S
H203 C198 0.929 . S
O204 Mn180 2.385 . S
O204 C182 1.234 . S
O205 Mn180 2.209 . S
O205 Mn181 2.215 . S
O205 C182 1.283 . S
O206 Mn180 2.094 . S
O206 C184 1.240 . S
O207 Mn181 2.117 . S
O207 C184 1.264 . S
C208 C201 1.403 . S
C208 C209 1.399 . S
C208 H214 0.929 . S
C209 C189 1.449 . S
C209 C208 1.399 . S
C209 H215 0.930 . S
H210 C190 0.931 1_554 S
H211 C191 0.930 . S
H212 C199 0.931 . S
H213 C200 0.929 . S
H214 C208 0.929 . S
H215 C209 0.930 . S
Mn216 O221 2.095 . S
Mn216 O231 2.162 . S
Mn216 O232 2.297 . S
Mn216 O240 2.385 . S
Mn216 O241 2.209 . S
Mn216 O242 2.094 . S
Mn217 O222 2.121 . S
Mn217 N224 2.257 . S
Mn217 N233 2.282 . S
Mn217 O241 2.215 . S
Mn217 O243 2.117 . S
C218 O240 1.234 . S
C218 O241 1.283 . S
C219 O231 1.281 . S
C219 O232 1.236 . S
C220 O242 1.240 . S
C220 O243 1.264 . S
O221 Mn216 2.095 . S
O221 C230 1.250 . S
O222 Mn217 2.121 . S
O222 C230 1.258 . S
C223 N224 1.326 . S
C223 C227 1.460 . S
C223 H229 0.929 . S
N224 Mn217 2.257 . S
N224 C223 1.326 . S
N224 C228 1.362 . S
C225 C226 1.258 . S
C225 C228 1.431 . S
C225 C245 1.449 . S
C226 C225 1.258 . S
C226 C227 1.477 . S
C226 H246 0.931 . S
C227 C223 1.460 . S
C227 C226 1.477 . S
C227 H247 0.930 . S
C228 N224 1.362 . S
C228 C225 1.431 . S
C228 C238 1.476 . S
H229 C223 0.929 . S
C230 O221 1.250 . S
C230 O222 1.258 . S
O231 Mn216 2.162 . S
O231 C219 1.281 . S
O232 Mn216 2.297 . S
O232 C219 1.236 . S
N233 Mn217 2.282 . S
N233 C234 1.328 . S
N233 C238 1.318 . S
C234 N233 1.328 . S
C234 C235 1.457 . S
C234 H239 0.929 . S
C235 C234 1.457 . S
C235 C236 1.291 . S
C235 H248 0.931 . S
C236 C235 1.291 . S
C236 C237 1.373 . S
C236 H249 0.929 . S
C237 C236 1.373 . S
C237 C238 1.396 . S
C237 C244 1.403 . S
C238 C228 1.476 . S
C238 N233 1.318 . S
C238 C237 1.396 . S
H239 C234 0.929 . S
O240 Mn216 2.385 . S
O240 C218 1.234 . S
O241 Mn216 2.209 . S
O241 Mn217 2.215 . S
O241 C218 1.283 . S
O242 Mn216 2.094 . S
O242 C220 1.240 . S
O243 Mn217 2.117 . S
O243 C220 1.264 . S
C244 C237 1.403 . S
C244 C245 1.399 . S
C244 H250 0.929 . S
C245 C225 1.449 . S
C245 C244 1.399 . S
C245 H251 0.930 . S
H246 C226 0.931 . S
H247 C227 0.930 . S
H248 C235 0.931 . S
H249 C236 0.929 . S
H250 C244 0.929 . S
H251 C245 0.930 . S
Mn252 O257 2.095 . S
Mn252 O267 2.162 . S
Mn252 O268 2.297 . S
Mn252 O276 2.385 . S
Mn252 O277 2.209 . S
Mn252 O278 2.094 . S
Mn253 O258 2.121 . S
Mn253 N260 2.257 . S
Mn253 N269 2.282 . S
Mn253 O277 2.215 . S
Mn253 O279 2.117 . S
C254 O276 1.234 . S
C254 O277 1.283 . S
C255 O267 1.281 . S
C255 O268 1.236 . S
C256 O278 1.240 . S
C256 O279 1.264 . S
O257 Mn252 2.095 . S
O257 C266 1.250 . S
O258 Mn253 2.121 . S
O258 C266 1.258 . S
C259 N260 1.326 . S
C259 C263 1.460 . S
C259 H265 0.929 . S
N260 Mn253 2.257 . S
N260 C259 1.326 . S
N260 C264 1.362 . S
C261 C262 1.258 . S
C261 C264 1.431 . S
C261 C281 1.449 . S
C262 C261 1.258 . S
C262 C263 1.477 . S
C262 H282 0.931 . S
C263 C259 1.460 . S
C263 C262 1.477 . S
C263 H283 0.930 . S
C264 N260 1.362 . S
C264 C261 1.431 . S
C264 C274 1.476 . S
H265 C259 0.929 . S
C266 O257 1.250 . S
C266 O258 1.258 . S
O267 Mn252 2.162 . S
O267 C255 1.281 . S
O268 Mn252 2.297 . S
O268 C255 1.236 . S
N269 Mn253 2.282 . S
N269 C270 1.328 . S
N269 C274 1.318 . S
C270 N269 1.328 . S
C270 C271 1.457 . S
C270 H275 0.929 . S
C271 C270 1.457 . S
C271 C272 1.291 . S
C271 H284 0.931 . S
C272 C271 1.291 . S
C272 C273 1.373 . S
C272 H285 0.929 . S
C273 C272 1.373 . S
C273 C274 1.396 . S
C273 C280 1.403 . S
C274 C264 1.476 . S
C274 N269 1.318 . S
C274 C273 1.396 . S
H275 C270 0.929 . S
O276 Mn252 2.385 . S
O276 C254 1.234 . S
O277 Mn252 2.209 . S
O277 Mn253 2.215 . S
O277 C254 1.283 . S
O278 Mn252 2.094 . S
O278 C256 1.240 . S
O279 Mn253 2.117 . S
O279 C256 1.264 . S
C280 C273 1.403 . S
C280 C281 1.399 . S
C280 H286 0.929 . S
C281 C261 1.449 . S
C281 C280 1.399 . S
C281 H287 0.930 . S
H282 C262 0.931 . S
H283 C263 0.930 . S
H284 C271 0.931 . S
H285 C272 0.929 . S
H286 C280 0.929 . S
H287 C281 0.930 . S
Mn288 O293 2.095 . S
Mn288 O303 2.162 . S
Mn288 O304 2.297 . S
Mn288 O312 2.385 1_565 S
Mn288 O313 2.209 . S
Mn288 O314 2.094 . S
Mn289 O294 2.121 . S
Mn289 N296 2.257 . S
Mn289 N305 2.282 . S
Mn289 O313 2.215 . S
Mn289 O315 2.117 . S
C290 O312 1.234 . S
C290 O313 1.283 1_545 S
C291 O303 1.281 . S
C291 O304 1.236 . S
C292 O314 1.240 . S
C292 O315 1.264 . S
O293 Mn288 2.095 . S
O293 C302 1.250 . S
O294 Mn289 2.121 . S
O294 C302 1.258 . S
C295 N296 1.326 . S
C295 C299 1.460 1_455 S
C295 H301 0.929 . S
N296 Mn289 2.257 . S
N296 C295 1.326 . S
N296 C300 1.362 . S
C297 C298 1.258 . S
C297 C300 1.431 . S
C297 C317 1.449 1_565 S
C298 C297 1.258 . S
C298 C299 1.477 1_455 S
C298 H318 0.931 1_455 S
C299 C295 1.460 1_655 S
C299 C298 1.477 1_655 S
C299 H319 0.930 . S
C300 N296 1.362 . S
C300 C297 1.431 . S
C300 C310 1.476 1_565 S
H301 C295 0.929 . S
C302 O293 1.250 . S
C302 O294 1.258 . S
O303 Mn288 2.162 . S
O303 C291 1.281 . S
O304 Mn288 2.297 . S
O304 C291 1.236 . S
N305 Mn289 2.282 . S
N305 C306 1.328 1_565 S
N305 C310 1.318 1_565 S
C306 N305 1.328 1_545 S
C306 C307 1.457 . S
C306 H311 0.929 . S
C307 C306 1.457 . S
C307 C308 1.291 . S
C307 H320 0.931 . S
C308 C307 1.291 . S
C308 C309 1.373 . S
C308 H321 0.929 . S
C309 C308 1.373 . S
C309 C310 1.396 . S
C309 C316 1.403 . S
C310 C300 1.476 1_545 S
C310 N305 1.318 1_545 S
C310 C309 1.396 . S
H311 C306 0.929 . S
O312 Mn288 2.385 1_545 S
O312 C290 1.234 . S
O313 Mn288 2.209 . S
O313 Mn289 2.215 . S
O313 C290 1.283 1_565 S
O314 Mn288 2.094 . S
O314 C292 1.240 . S
O315 Mn289 2.117 . S
O315 C292 1.264 . S
C316 C309 1.403 . S
C316 C317 1.399 . S
C316 H322 0.929 . S
C317 C297 1.449 1_545 S
C317 C316 1.399 . S
C317 H323 0.930 . S
H318 C298 0.931 1_655 S
H319 C299 0.930 . S
H320 C307 0.931 . S
H321 C308 0.929 . S
H322 C316 0.929 . S
H323 C317 0.930 . S
Mn324 O329 2.095 . S
Mn324 O339 2.162 . S
Mn324 O340 2.297 . S
Mn324 O348 2.385 . S
Mn324 O349 2.209 . S
Mn324 O350 2.094 . S
Mn325 O330 2.121 . S
Mn325 N332 2.257 . S
Mn325 N341 2.282 . S
Mn325 O349 2.215 . S
Mn325 O351 2.117 . S
C326 O348 1.234 . S
C326 O349 1.283 . S
C327 O339 1.281 . S
C327 O340 1.236 . S
C328 O350 1.240 . S
C328 O351 1.264 . S
O329 Mn324 2.095 . S
O329 C338 1.250 . S
O330 Mn325 2.121 . S
O330 C338 1.258 . S
C331 N332 1.326 . S
C331 C335 1.460 . S
C331 H337 0.929 . S
N332 Mn325 2.257 . S
N332 C331 1.326 . S
N332 C336 1.362 . S
C333 C334 1.258 . S
C333 C336 1.431 . S
C333 C353 1.449 . S
C334 C333 1.258 . S
C334 C335 1.477 . S
C334 H354 0.931 . S
C335 C331 1.460 . S
C335 C334 1.477 . S
C335 H355 0.930 . S
C336 N332 1.362 . S
C336 C333 1.431 . S
C336 C346 1.476 . S
H337 C331 0.929 . S
C338 O329 1.250 . S
C338 O330 1.258 . S
O339 Mn324 2.162 . S
O339 C327 1.281 . S
O340 Mn324 2.297 . S
O340 C327 1.236 . S
N341 Mn325 2.282 . S
N341 C342 1.328 . S
N341 C346 1.318 . S
C342 N341 1.328 . S
C342 C343 1.457 . S
C342 H347 0.929 . S
C343 C342 1.457 . S
C343 C344 1.291 . S
C343 H356 0.931 . S
C344 C343 1.291 . S
C344 C345 1.373 . S
C344 H357 0.929 . S
C345 C344 1.373 . S
C345 C346 1.396 . S
C345 C352 1.403 . S
C346 C336 1.476 . S
C346 N341 1.318 . S
C346 C345 1.396 . S
H347 C342 0.929 . S
O348 Mn324 2.385 . S
O348 C326 1.234 . S
O349 Mn324 2.209 . S
O349 Mn325 2.215 . S
O349 C326 1.283 . S
O350 Mn324 2.094 . S
O350 C328 1.240 . S
O351 Mn325 2.117 . S
O351 C328 1.264 . S
C352 C345 1.403 . S
C352 C353 1.399 . S
C352 H358 0.929 . S
C353 C333 1.449 . S
C353 C352 1.399 . S
C353 H359 0.930 . S
H354 C334 0.931 . S
H355 C335 0.930 . S
H356 C343 0.931 . S
H357 C344 0.929 . S
H358 C352 0.929 . S
H359 C353 0.930 . S
Mn360 O365 2.095 . S
Mn360 O375 2.162 . S
Mn360 O376 2.297 . S
Mn360 O384 2.385 . S
Mn360 O385 2.209 . S
Mn360 O386 2.094 . S
Mn361 O366 2.121 . S
Mn361 N368 2.257 . S
Mn361 N377 2.282 . S
Mn361 O385 2.215 . S
Mn361 O387 2.117 . S
C362 O384 1.234 . S
C362 O385 1.283 . S
C363 O375 1.281 . S
C363 O376 1.236 . S
C364 O386 1.240 . S
C364 O387 1.264 . S
O365 Mn360 2.095 . S
O365 C374 1.250 . S
O366 Mn361 2.121 . S
O366 C374 1.258 . S
C367 N368 1.326 . S
C367 C371 1.460 1_455 S
C367 H373 0.929 . S
N368 Mn361 2.257 . S
N368 C367 1.326 . S
N368 C372 1.362 . S
C369 C370 1.258 . S
C369 C372 1.431 . S
C369 C389 1.449 . S
C370 C369 1.258 . S
C370 C371 1.477 1_455 S
C370 H390 0.931 1_455 S
C371 C367 1.460 1_655 S
C371 C370 1.477 1_655 S
C371 H391 0.930 . S
C372 N368 1.362 . S
C372 C369 1.431 . S
C372 C382 1.476 . S
H373 C367 0.929 . S
C374 O365 1.250 . S
C374 O366 1.258 . S
O375 Mn360 2.162 . S
O375 C363 1.281 . S
O376 Mn360 2.297 . S
O376 C363 1.236 . S
N377 Mn361 2.282 . S
N377 C378 1.328 . S
N377 C382 1.318 . S
C378 N377 1.328 . S
C378 C379 1.457 . S
C378 H383 0.929 . S
C379 C378 1.457 . S
C379 C380 1.291 . S
C379 H392 0.931 . S
C380 C379 1.291 . S
C380 C381 1.373 . S
C380 H393 0.929 . S
C381 C380 1.373 . S
C381 C382 1.396 . S
C381 C388 1.403 . S
C382 C372 1.476 . S
C382 N377 1.318 . S
C382 C381 1.396 . S
H383 C378 0.929 . S
O384 Mn360 2.385 . S
O384 C362 1.234 . S
O385 Mn360 2.209 . S
O385 Mn361 2.215 . S
O385 C362 1.283 . S
O386 Mn360 2.094 . S
O386 C364 1.240 . S
O387 Mn361 2.117 . S
O387 C364 1.264 . S
C388 C381 1.403 . S
C388 C389 1.399 . S
C388 H394 0.929 . S
C389 C369 1.449 . S
C389 C388 1.399 . S
C389 H395 0.930 . S
H390 C370 0.931 1_655 S
H391 C371 0.930 . S
H392 C379 0.931 . S
H393 C380 0.929 . S
H394 C388 0.929 . S
H395 C389 0.930 . S
Mn396 O401 2.095 . S
Mn396 O411 2.162 . S
Mn396 O412 2.297 . S
Mn396 O420 2.385 1_565 S
Mn396 O421 2.209 . S
Mn396 O422 2.094 . S
Mn397 O402 2.121 . S
Mn397 N404 2.257 . S
Mn397 N413 2.282 . S
Mn397 O421 2.215 . S
Mn397 O423 2.117 . S
C398 O420 1.234 . S
C398 O421 1.283 1_545 S
C399 O411 1.281 . S
C399 O412 1.236 . S
C400 O422 1.240 . S
C400 O423 1.264 . S
O401 Mn396 2.095 . S
O401 C410 1.250 . S
O402 Mn397 2.121 . S
O402 C410 1.258 . S
C403 N404 1.326 . S
C403 C407 1.460 . S
C403 H409 0.929 . S
N404 Mn397 2.257 . S
N404 C403 1.326 . S
N404 C408 1.362 . S
C405 C406 1.258 . S
C405 C408 1.431 . S
C405 C425 1.449 1_565 S
C406 C405 1.258 . S
C406 C407 1.477 . S
C406 H426 0.931 . S
C407 C403 1.460 . S
C407 C406 1.477 . S
C407 H427 0.930 . S
C408 N404 1.362 . S
C408 C405 1.431 . S
C408 C418 1.476 1_565 S
H409 C403 0.929 . S
C410 O401 1.250 . S
C410 O402 1.258 . S
O411 Mn396 2.162 . S
O411 C399 1.281 . S
O412 Mn396 2.297 . S
O412 C399 1.236 . S
N413 Mn397 2.282 . S
N413 C414 1.328 1_565 S
N413 C418 1.318 1_565 S
C414 N413 1.328 1_545 S
C414 C415 1.457 . S
C414 H419 0.929 . S
C415 C414 1.457 . S
C415 C416 1.291 . S
C415 H428 0.931 . S
C416 C415 1.291 . S
C416 C417 1.373 . S
C416 H429 0.929 . S
C417 C416 1.373 . S
C417 C418 1.396 . S
C417 C424 1.403 . S
C418 C408 1.476 1_545 S
C418 N413 1.318 1_545 S
C418 C417 1.396 . S
H419 C414 0.929 . S
O420 Mn396 2.385 1_545 S
O420 C398 1.234 . S
O421 Mn396 2.209 . S
O421 Mn397 2.215 . S
O421 C398 1.283 1_565 S
O422 Mn396 2.094 . S
O422 C400 1.240 . S
O423 Mn397 2.117 . S
O423 C400 1.264 . S
C424 C417 1.403 . S
C424 C425 1.399 . S
C424 H430 0.929 . S
C425 C405 1.449 1_545 S
C425 C424 1.399 . S
C425 H431 0.930 . S
H426 C406 0.931 . S
H427 C407 0.930 . S
H428 C415 0.931 . S
H429 C416 0.929 . S
H430 C424 0.929 . S
H431 C425 0.930 . S
Mn432 O437 2.095 . S
Mn432 O447 2.162 . S
Mn432 O448 2.297 . S
Mn432 O456 2.385 . S
Mn432 O457 2.209 . S
Mn432 O458 2.094 . S
Mn433 O438 2.121 1_565 S
Mn433 N440 2.257 . S
Mn433 N449 2.282 . S
Mn433 O457 2.215 1_565 S
Mn433 O459 2.117 . S
C434 O456 1.234 . S
C434 O457 1.283 . S
C435 O447 1.281 . S
C435 O448 1.236 . S
C436 O458 1.240 1_565 S
C436 O459 1.264 . S
O437 Mn432 2.095 . S
O437 C446 1.250 . S
O438 Mn433 2.121 1_545 S
O438 C446 1.258 . S
C439 N440 1.326 1_545 S
C439 C443 1.460 . S
C439 H445 0.929 . S
N440 Mn433 2.257 . S
N440 C439 1.326 1_565 S
N440 C444 1.362 . S
C441 C442 1.258 . S
C441 C444 1.431 . S
C441 C461 1.449 . S
C442 C441 1.258 . S
C442 C443 1.477 1_565 S
C442 H462 0.931 . S
C443 C439 1.460 . S
C443 C442 1.477 1_545 S
C443 H463 0.930 . S
C444 N440 1.362 . S
C444 C441 1.431 . S
C444 C454 1.476 . S
H445 C439 0.929 . S
C446 O437 1.250 . S
C446 O438 1.258 . S
O447 Mn432 2.162 . S
O447 C435 1.281 . S
O448 Mn432 2.297 . S
O448 C435 1.236 . S
N449 Mn433 2.282 . S
N449 C450 1.328 . S
N449 C454 1.318 . S
C450 N449 1.328 . S
C450 C451 1.457 . S
C450 H455 0.929 . S
C451 C450 1.457 . S
C451 C452 1.291 . S
C451 H464 0.931 . S
C452 C451 1.291 . S
C452 C453 1.373 . S
C452 H465 0.929 . S
C453 C452 1.373 . S
C453 C454 1.396 . S
C453 C460 1.403 . S
C454 C444 1.476 . S
C454 N449 1.318 . S
C454 C453 1.396 . S
H455 C450 0.929 . S
O456 Mn432 2.385 . S
O456 C434 1.234 . S
O457 Mn432 2.209 . S
O457 Mn433 2.215 1_545 S
O457 C434 1.283 . S
O458 Mn432 2.094 . S
O458 C436 1.240 1_545 S
O459 Mn433 2.117 . S
O459 C436 1.264 . S
C460 C453 1.403 . S
C460 C461 1.399 . S
C460 H466 0.929 . S
C461 C441 1.449 . S
C461 C460 1.399 . S
C461 H467 0.930 . S
H462 C442 0.931 . S
H463 C443 0.930 . S
H464 C451 0.931 . S
H465 C452 0.929 . S
H466 C460 0.929 . S
H467 C461 0.930 . S
Mn468 O473 2.095 . S
Mn468 O483 2.162 . S
Mn468 O484 2.297 . S
Mn468 O492 2.385 . S
Mn468 O493 2.209 . S
Mn468 O494 2.094 . S
Mn469 O474 2.121 . S
Mn469 N476 2.257 . S
Mn469 N485 2.282 . S
Mn469 O493 2.215 . S
Mn469 O495 2.117 . S
C470 O492 1.234 . S
C470 O493 1.283 . S
C471 O483 1.281 . S
C471 O484 1.236 . S
C472 O494 1.240 . S
C472 O495 1.264 . S
O473 Mn468 2.095 . S
O473 C482 1.250 . S
O474 Mn469 2.121 . S
O474 C482 1.258 . S
C475 N476 1.326 . S
C475 C479 1.460 . S
C475 H481 0.929 . S
N476 Mn469 2.257 . S
N476 C475 1.326 . S
N476 C480 1.362 . S
C477 C478 1.258 . S
C477 C480 1.431 . S
C477 C497 1.449 . S
C478 C477 1.258 . S
C478 C479 1.477 . S
C478 H498 0.931 . S
C479 C475 1.460 . S
C479 C478 1.477 . S
C479 H499 0.930 . S
C480 N476 1.362 . S
C480 C477 1.431 . S
C480 C490 1.476 . S
H481 C475 0.929 . S
C482 O473 1.250 . S
C482 O474 1.258 . S
O483 Mn468 2.162 . S
O483 C471 1.281 . S
O484 Mn468 2.297 . S
O484 C471 1.236 . S
N485 Mn469 2.282 . S
N485 C486 1.328 . S
N485 C490 1.318 . S
C486 N485 1.328 . S
C486 C487 1.457 . S
C486 H491 0.929 . S
C487 C486 1.457 . S
C487 C488 1.291 . S
C487 H500 0.931 . S
C488 C487 1.291 . S
C488 C489 1.373 . S
C488 H501 0.929 . S
C489 C488 1.373 . S
C489 C490 1.396 . S
C489 C496 1.403 . S
C490 C480 1.476 . S
C490 N485 1.318 . S
C490 C489 1.396 . S
H491 C486 0.929 . S
O492 Mn468 2.385 . S
O492 C470 1.234 . S
O493 Mn468 2.209 . S
O493 Mn469 2.215 . S
O493 C470 1.283 . S
O494 Mn468 2.094 . S
O494 C472 1.240 . S
O495 Mn469 2.117 . S
O495 C472 1.264 . S
C496 C489 1.403 . S
C496 C497 1.399 . S
C496 H502 0.929 . S
C497 C477 1.449 . S
C497 C496 1.399 . S
C497 H503 0.930 . S
H498 C478 0.931 . S
H499 C479 0.930 . S
H500 C487 0.931 . S
H501 C488 0.929 . S
H502 C496 0.929 . S
H503 C497 0.930 . S
Mn504 O509 2.095 . S
Mn504 O519 2.162 . S
Mn504 O520 2.297 . S
Mn504 O528 2.385 . S
Mn504 O529 2.209 . S
Mn504 O530 2.094 . S
Mn505 O510 2.121 . S
Mn505 N512 2.257 . S
Mn505 N521 2.282 . S
Mn505 O529 2.215 . S
Mn505 O531 2.117 . S
C506 O528 1.234 . S
C506 O529 1.283 . S
C507 O519 1.281 . S
C507 O520 1.236 . S
C508 O530 1.240 . S
C508 O531 1.264 . S
O509 Mn504 2.095 . S
O509 C518 1.250 . S
O510 Mn505 2.121 . S
O510 C518 1.258 . S
C511 N512 1.326 . S
C511 C515 1.460 . S
C511 H517 0.929 . S
N512 Mn505 2.257 . S
N512 C511 1.326 . S
N512 C516 1.362 . S
C513 C514 1.258 . S
C513 C516 1.431 . S
C513 C533 1.449 . S
C514 C513 1.258 . S
C514 C515 1.477 . S
C514 H534 0.931 . S
C515 C511 1.460 . S
C515 C514 1.477 . S
C515 H535 0.930 . S
C516 N512 1.362 . S
C516 C513 1.431 . S
C516 C526 1.476 . S
H517 C511 0.929 . S
C518 O509 1.250 . S
C518 O510 1.258 . S
O519 Mn504 2.162 . S
O519 C507 1.281 . S
O520 Mn504 2.297 . S
O520 C507 1.236 . S
N521 Mn505 2.282 . S
N521 C522 1.328 . S
N521 C526 1.318 . S
C522 N521 1.328 . S
C522 C523 1.457 . S
C522 H527 0.929 . S
C523 C522 1.457 . S
C523 C524 1.291 . S
C523 H536 0.931 . S
C524 C523 1.291 . S
C524 C525 1.373 . S
C524 H537 0.929 . S
C525 C524 1.373 . S
C525 C526 1.396 . S
C525 C532 1.403 . S
C526 C516 1.476 . S
C526 N521 1.318 . S
C526 C525 1.396 . S
H527 C522 0.929 . S
O528 Mn504 2.385 . S
O528 C506 1.234 . S
O529 Mn504 2.209 . S
O529 Mn505 2.215 . S
O529 C506 1.283 . S
O530 Mn504 2.094 . S
O530 C508 1.240 . S
O531 Mn505 2.117 . S
O531 C508 1.264 . S
C532 C525 1.403 . S
C532 C533 1.399 . S
C532 H538 0.929 . S
C533 C513 1.449 . S
C533 C532 1.399 . S
C533 H539 0.930 . S
H534 C514 0.931 . S
H535 C515 0.930 . S
H536 C523 0.931 . S
H537 C524 0.929 . S
H538 C532 0.929 . S
H539 C533 0.930 . S
Mn540 O545 2.095 . S
Mn540 O555 2.162 . S
Mn540 O556 2.297 . S
Mn540 O564 2.385 . S
Mn540 O565 2.209 . S
Mn540 O566 2.094 . S
Mn541 O546 2.121 1_565 S
Mn541 N548 2.257 . S
Mn541 N557 2.282 . S
Mn541 O565 2.215 1_565 S
Mn541 O567 2.117 . S
C542 O564 1.234 . S
C542 O565 1.283 . S
C543 O555 1.281 . S
C543 O556 1.236 . S
C544 O566 1.240 1_565 S
C544 O567 1.264 . S
O545 Mn540 2.095 . S
O545 C554 1.250 . S
O546 Mn541 2.121 1_545 S
O546 C554 1.258 . S
C547 N548 1.326 1_545 S
C547 C551 1.460 . S
C547 H553 0.929 . S
N548 Mn541 2.257 . S
N548 C547 1.326 1_565 S
N548 C552 1.362 . S
C549 C550 1.258 . S
C549 C552 1.431 . S
C549 C569 1.449 . S
C550 C549 1.258 . S
C550 C551 1.477 1_565 S
C550 H570 0.931 . S
C551 C547 1.460 . S
C551 C550 1.477 1_545 S
C551 H571 0.930 . S
C552 N548 1.362 . S
C552 C549 1.431 . S
C552 C562 1.476 . S
H553 C547 0.929 . S
C554 O545 1.250 . S
C554 O546 1.258 . S
O555 Mn540 2.162 . S
O555 C543 1.281 . S
O556 Mn540 2.297 . S
O556 C543 1.236 . S
N557 Mn541 2.282 . S
N557 C558 1.328 . S
N557 C562 1.318 . S
C558 N557 1.328 . S
C558 C559 1.457 . S
C558 H563 0.929 . S
C559 C558 1.457 . S
C559 C560 1.291 . S
C559 H572 0.931 . S
C560 C559 1.291 . S
C560 C561 1.373 . S
C560 H573 0.929 . S
C561 C560 1.373 . S
C561 C562 1.396 . S
C561 C568 1.403 . S
C562 C552 1.476 . S
C562 N557 1.318 . S
C562 C561 1.396 . S
H563 C558 0.929 . S
O564 Mn540 2.385 . S
O564 C542 1.234 . S
O565 Mn540 2.209 . S
O565 Mn541 2.215 1_545 S
O565 C542 1.283 . S
O566 Mn540 2.094 . S
O566 C544 1.240 1_545 S
O567 Mn541 2.117 . S
O567 C544 1.264 . S
C568 C561 1.403 . S
C568 C569 1.399 . S
C568 H574 0.929 . S
C569 C549 1.449 . S
C569 C568 1.399 . S
C569 H575 0.930 . S
H570 C550 0.931 . S
H571 C551 0.930 . S
H572 C559 0.931 . S
H573 C560 0.929 . S
H574 C568 0.929 . S
H575 C569 0.930 . S
Mn576 O581 2.095 . S
Mn576 O591 2.162 . S
Mn576 O592 2.297 . S
Mn576 O600 2.385 . S
Mn576 O601 2.209 . S
Mn576 O602 2.094 . S
Mn577 O582 2.121 . S
Mn577 N584 2.257 . S
Mn577 N593 2.282 . S
Mn577 O601 2.215 . S
Mn577 O603 2.117 . S
C578 O600 1.234 . S
C578 O601 1.283 . S
C579 O591 1.281 . S
C579 O592 1.236 . S
C580 O602 1.240 . S
C580 O603 1.264 . S
O581 Mn576 2.095 . S
O581 C590 1.250 . S
O582 Mn577 2.121 . S
O582 C590 1.258 . S
C583 N584 1.326 . S
C583 C587 1.460 . S
C583 H589 0.929 . S
N584 Mn577 2.257 . S
N584 C583 1.326 . S
N584 C588 1.362 . S
C585 C586 1.258 . S
C585 C588 1.431 . S
C585 C605 1.449 . S
C586 C585 1.258 . S
C586 C587 1.477 . S
C586 H606 0.931 . S
C587 C583 1.460 . S
C587 C586 1.477 . S
C587 H607 0.930 . S
C588 N584 1.362 . S
C588 C585 1.431 . S
C588 C598 1.476 . S
H589 C583 0.929 . S
C590 O581 1.250 . S
C590 O582 1.258 . S
O591 Mn576 2.162 . S
O591 C579 1.281 . S
O592 Mn576 2.297 . S
O592 C579 1.236 . S
N593 Mn577 2.282 . S
N593 C594 1.328 . S
N593 C598 1.318 . S
C594 N593 1.328 . S
C594 C595 1.457 . S
C594 H599 0.929 . S
C595 C594 1.457 . S
C595 C596 1.291 . S
C595 H608 0.931 . S
C596 C595 1.291 . S
C596 C597 1.373 . S
C596 H609 0.929 . S
C597 C596 1.373 . S
C597 C598 1.396 . S
C597 C604 1.403 . S
C598 C588 1.476 . S
C598 N593 1.318 . S
C598 C597 1.396 . S
H599 C594 0.929 . S
O600 Mn576 2.385 . S
O600 C578 1.234 . S
O601 Mn576 2.209 . S
O601 Mn577 2.215 . S
O601 C578 1.283 . S
O602 Mn576 2.094 . S
O602 C580 1.240 . S
O603 Mn577 2.117 . S
O603 C580 1.264 . S
C604 C597 1.403 . S
C604 C605 1.399 . S
C604 H610 0.929 . S
C605 C585 1.449 . S
C605 C604 1.399 . S
C605 H611 0.930 . S
H606 C586 0.931 . S
H607 C587 0.930 . S
H608 C595 0.931 . S
H609 C596 0.929 . S
H610 C604 0.929 . S
H611 C605 0.930 . S
Mn612 O617 2.095 . S
Mn612 O627 2.162 . S
Mn612 O628 2.297 . S
Mn612 O636 2.385 . S
Mn612 O637 2.209 . S
Mn612 O638 2.094 . S
Mn613 O618 2.121 . S
Mn613 N620 2.257 . S
Mn613 N629 2.282 . S
Mn613 O637 2.215 . S
Mn613 O639 2.117 . S
C614 O636 1.234 . S
C614 O637 1.283 . S
C615 O627 1.281 . S
C615 O628 1.236 . S
C616 O638 1.240 . S
C616 O639 1.264 . S
O617 Mn612 2.095 . S
O617 C626 1.250 . S
O618 Mn613 2.121 . S
O618 C626 1.258 . S
C619 N620 1.326 . S
C619 C623 1.460 . S
C619 H625 0.929 . S
N620 Mn613 2.257 . S
N620 C619 1.326 . S
N620 C624 1.362 . S
C621 C622 1.258 . S
C621 C624 1.431 . S
C621 C641 1.449 . S
C622 C621 1.258 . S
C622 C623 1.477 . S
C622 H642 0.931 . S
C623 C619 1.460 . S
C623 C622 1.477 . S
C623 H643 0.930 . S
C624 N620 1.362 . S
C624 C621 1.431 . S
C624 C634 1.476 . S
H625 C619 0.929 . S
C626 O617 1.250 . S
C626 O618 1.258 . S
O627 Mn612 2.162 . S
O627 C615 1.281 . S
O628 Mn612 2.297 . S
O628 C615 1.236 . S
N629 Mn613 2.282 . S
N629 C630 1.328 . S
N629 C634 1.318 . S
C630 N629 1.328 . S
C630 C631 1.457 . S
C630 H635 0.929 . S
C631 C630 1.457 . S
C631 C632 1.291 . S
C631 H644 0.931 . S
C632 C631 1.291 . S
C632 C633 1.373 . S
C632 H645 0.929 . S
C633 C632 1.373 . S
C633 C634 1.396 . S
C633 C640 1.403 . S
C634 C624 1.476 . S
C634 N629 1.318 . S
C634 C633 1.396 . S
H635 C630 0.929 . S
O636 Mn612 2.385 . S
O636 C614 1.234 . S
O637 Mn612 2.209 . S
O637 Mn613 2.215 . S
O637 C614 1.283 . S
O638 Mn612 2.094 . S
O638 C616 1.240 . S
O639 Mn613 2.117 . S
O639 C616 1.264 . S
C640 C633 1.403 . S
C640 C641 1.399 . S
C640 H646 0.929 . S
C641 C621 1.449 . S
C641 C640 1.399 . S
C641 H647 0.930 . S
H642 C622 0.931 . S
H643 C623 0.930 . S
H644 C631 0.931 . S
H645 C632 0.929 . S
H646 C640 0.929 . S
H647 C641 0.930 . S
Mn648 O653 2.095 . S
Mn648 O663 2.162 . S
Mn648 O664 2.297 . S
Mn648 O672 2.385 . S
Mn648 O673 2.209 . S
Mn648 O674 2.094 . S
Mn649 O654 2.121 . S
Mn649 N656 2.257 . S
Mn649 N665 2.282 . S
Mn649 O673 2.215 . S
Mn649 O675 2.117 . S
C650 O672 1.234 . S
C650 O673 1.283 . S
C651 O663 1.281 . S
C651 O664 1.236 . S
C652 O674 1.240 . S
C652 O675 1.264 . S
O653 Mn648 2.095 . S
O653 C662 1.250 . S
O654 Mn649 2.121 . S
O654 C662 1.258 . S
C655 N656 1.326 . S
C655 C659 1.460 . S
C655 H661 0.929 . S
N656 Mn649 2.257 . S
N656 C655 1.326 . S
N656 C660 1.362 . S
C657 C658 1.258 . S
C657 C660 1.431 . S
C657 C677 1.449 . S
C658 C657 1.258 . S
C658 C659 1.477 . S
C658 H678 0.931 . S
C659 C655 1.460 . S
C659 C658 1.477 . S
C659 H679 0.930 . S
C660 N656 1.362 . S
C660 C657 1.431 . S
C660 C670 1.476 . S
H661 C655 0.929 . S
C662 O653 1.250 . S
C662 O654 1.258 . S
O663 Mn648 2.162 . S
O663 C651 1.281 . S
O664 Mn648 2.297 . S
O664 C651 1.236 . S
N665 Mn649 2.282 . S
N665 C666 1.328 . S
N665 C670 1.318 . S
C666 N665 1.328 . S
C666 C667 1.457 . S
C666 H671 0.929 . S
C667 C666 1.457 . S
C667 C668 1.291 . S
C667 H680 0.931 . S
C668 C667 1.291 . S
C668 C669 1.373 . S
C668 H681 0.929 . S
C669 C668 1.373 . S
C669 C670 1.396 . S
C669 C676 1.403 . S
C670 C660 1.476 . S
C670 N665 1.318 . S
C670 C669 1.396 . S
H671 C666 0.929 . S
O672 Mn648 2.385 . S
O672 C650 1.234 . S
O673 Mn648 2.209 . S
O673 Mn649 2.215 . S
O673 C650 1.283 . S
O674 Mn648 2.094 . S
O674 C652 1.240 . S
O675 Mn649 2.117 . S
O675 C652 1.264 . S
C676 C669 1.403 . S
C676 C677 1.399 . S
C676 H682 0.929 . S
C677 C657 1.449 . S
C677 C676 1.399 . S
C677 H683 0.930 . S
H678 C658 0.931 . S
H679 C659 0.930 . S
H680 C667 0.931 . S
H681 C668 0.929 . S
H682 C676 0.929 . S
H683 C677 0.930 . S
Mn684 O689 2.095 . S
Mn684 O699 2.162 . S
Mn684 O700 2.297 . S
Mn684 O708 2.385 . S
Mn684 O709 2.209 . S
Mn684 O710 2.094 . S
Mn685 O690 2.121 . S
Mn685 N692 2.257 . S
Mn685 N701 2.282 . S
Mn685 O709 2.215 . S
Mn685 O711 2.117 . S
C686 O708 1.234 . S
C686 O709 1.283 . S
C687 O699 1.281 . S
C687 O700 1.236 . S
C688 O710 1.240 . S
C688 O711 1.264 . S
O689 Mn684 2.095 . S
O689 C698 1.250 . S
O690 Mn685 2.121 . S
O690 C698 1.258 . S
C691 N692 1.326 . S
C691 C695 1.460 . S
C691 H697 0.929 . S
N692 Mn685 2.257 . S
N692 C691 1.326 . S
N692 C696 1.362 . S
C693 C694 1.258 . S
C693 C696 1.431 . S
C693 C713 1.449 . S
C694 C693 1.258 . S
C694 C695 1.477 . S
C694 H714 0.931 . S
C695 C691 1.460 . S
C695 C694 1.477 . S
C695 H715 0.930 . S
C696 N692 1.362 . S
C696 C693 1.431 . S
C696 C706 1.476 . S
H697 C691 0.929 . S
C698 O689 1.250 . S
C698 O690 1.258 . S
O699 Mn684 2.162 . S
O699 C687 1.281 . S
O700 Mn684 2.297 . S
O700 C687 1.236 . S
N701 Mn685 2.282 . S
N701 C702 1.328 . S
N701 C706 1.318 . S
C702 N701 1.328 . S
C702 C703 1.457 . S
C702 H707 0.929 . S
C703 C702 1.457 . S
C703 C704 1.291 . S
C703 H716 0.931 . S
C704 C703 1.291 . S
C704 C705 1.373 . S
C704 H717 0.929 . S
C705 C704 1.373 . S
C705 C706 1.396 . S
C705 C712 1.403 . S
C706 C696 1.476 . S
C706 N701 1.318 . S
C706 C705 1.396 . S
H707 C702 0.929 . S
O708 Mn684 2.385 . S
O708 C686 1.234 . S
O709 Mn684 2.209 . S
O709 Mn685 2.215 . S
O709 C686 1.283 . S
O710 Mn684 2.094 . S
O710 C688 1.240 . S
O711 Mn685 2.117 . S
O711 C688 1.264 . S
C712 C705 1.403 . S
C712 C713 1.399 . S
C712 H718 0.929 . S
C713 C693 1.449 . S
C713 C712 1.399 . S
C713 H719 0.930 . S
H714 C694 0.931 . S
H715 C695 0.930 . S
H716 C703 0.931 . S
H717 C704 0.929 . S
H718 C712 0.929 . S
H719 C713 0.930 . S
Mn720 O725 2.095 . S
Mn720 O735 2.162 . S
Mn720 O736 2.297 . S
Mn720 O744 2.385 . S
Mn720 O745 2.209 . S
Mn720 O746 2.094 . S
Mn721 O726 2.121 . S
Mn721 N728 2.257 . S
Mn721 N737 2.282 . S
Mn721 O745 2.215 . S
Mn721 O747 2.117 . S
C722 O744 1.234 . S
C722 O745 1.283 . S
C723 O735 1.281 . S
C723 O736 1.236 . S
C724 O746 1.240 . S
C724 O747 1.264 . S
O725 Mn720 2.095 . S
O725 C734 1.250 . S
O726 Mn721 2.121 . S
O726 C734 1.258 . S
C727 N728 1.326 . S
C727 C731 1.460 . S
C727 H733 0.929 . S
N728 Mn721 2.257 . S
N728 C727 1.326 . S
N728 C732 1.362 . S
C729 C730 1.258 . S
C729 C732 1.431 . S
C729 C749 1.449 . S
C730 C729 1.258 . S
C730 C731 1.477 . S
C730 H750 0.931 . S
C731 C727 1.460 . S
C731 C730 1.477 . S
C731 H751 0.930 . S
C732 N728 1.362 . S
C732 C729 1.431 . S
C732 C742 1.476 . S
H733 C727 0.929 . S
C734 O725 1.250 . S
C734 O726 1.258 . S
O735 Mn720 2.162 . S
O735 C723 1.281 . S
O736 Mn720 2.297 . S
O736 C723 1.236 . S
N737 Mn721 2.282 . S
N737 C738 1.328 . S
N737 C742 1.318 . S
C738 N737 1.328 . S
C738 C739 1.457 . S
C738 H743 0.929 . S
C739 C738 1.457 . S
C739 C740 1.291 . S
C739 H752 0.931 . S
C740 C739 1.291 . S
C740 C741 1.373 . S
C740 H753 0.929 . S
C741 C740 1.373 . S
C741 C742 1.396 . S
C741 C748 1.403 . S
C742 C732 1.476 . S
C742 N737 1.318 . S
C742 C741 1.396 . S
H743 C738 0.929 . S
O744 Mn720 2.385 . S
O744 C722 1.234 . S
O745 Mn720 2.209 . S
O745 Mn721 2.215 . S
O745 C722 1.283 . S
O746 Mn720 2.094 . S
O746 C724 1.240 . S
O747 Mn721 2.117 . S
O747 C724 1.264 . S
C748 C741 1.403 . S
C748 C749 1.399 . S
C748 H754 0.929 . S
C749 C729 1.449 . S
C749 C748 1.399 . S
C749 H755 0.930 . S
H750 C730 0.931 . S
H751 C731 0.930 . S
H752 C739 0.931 . S
H753 C740 0.929 . S
H754 C748 0.929 . S
H755 C749 0.930 . S
Mn756 O761 2.095 . S
Mn756 O771 2.162 . S
Mn756 O772 2.297 . S
Mn756 O780 2.385 . S
Mn756 O781 2.209 . S
Mn756 O782 2.094 . S
Mn757 O762 2.121 . S
Mn757 N764 2.257 . S
Mn757 N773 2.282 . S
Mn757 O781 2.215 . S
Mn757 O783 2.117 . S
C758 O780 1.234 . S
C758 O781 1.283 . S
C759 O771 1.281 . S
C759 O772 1.236 . S
C760 O782 1.240 . S
C760 O783 1.264 . S
O761 Mn756 2.095 . S
O761 C770 1.250 . S
O762 Mn757 2.121 . S
O762 C770 1.258 . S
C763 N764 1.326 . S
C763 C767 1.460 . S
C763 H769 0.929 . S
N764 Mn757 2.257 . S
N764 C763 1.326 . S
N764 C768 1.362 . S
C765 C766 1.258 . S
C765 C768 1.431 . S
C765 C785 1.449 . S
C766 C765 1.258 . S
C766 C767 1.477 . S
C766 H786 0.931 . S
C767 C763 1.460 . S
C767 C766 1.477 . S
C767 H787 0.930 . S
C768 N764 1.362 . S
C768 C765 1.431 . S
C768 C778 1.476 . S
H769 C763 0.929 . S
C770 O761 1.250 . S
C770 O762 1.258 . S
O771 Mn756 2.162 . S
O771 C759 1.281 . S
O772 Mn756 2.297 . S
O772 C759 1.236 . S
N773 Mn757 2.282 . S
N773 C774 1.328 . S
N773 C778 1.318 . S
C774 N773 1.328 . S
C774 C775 1.457 . S
C774 H779 0.929 . S
C775 C774 1.457 . S
C775 C776 1.291 . S
C775 H788 0.931 . S
C776 C775 1.291 . S
C776 C777 1.373 . S
C776 H789 0.929 . S
C777 C776 1.373 . S
C777 C778 1.396 . S
C777 C784 1.403 . S
C778 C768 1.476 . S
C778 N773 1.318 . S
C778 C777 1.396 . S
H779 C774 0.929 . S
O780 Mn756 2.385 . S
O780 C758 1.234 . S
O781 Mn756 2.209 . S
O781 Mn757 2.215 . S
O781 C758 1.283 . S
O782 Mn756 2.094 . S
O782 C760 1.240 . S
O783 Mn757 2.117 . S
O783 C760 1.264 . S
C784 C777 1.403 . S
C784 C785 1.399 . S
C784 H790 0.929 . S
C785 C765 1.449 . S
C785 C784 1.399 . S
C785 H791 0.930 . S
H786 C766 0.931 . S
H787 C767 0.930 . S
H788 C775 0.931 . S
H789 C776 0.929 . S
H790 C784 0.929 . S
H791 C785 0.930 . S
Mn792 O797 2.095 . S
Mn792 O807 2.162 . S
Mn792 O808 2.297 . S
Mn792 O816 2.385 . S
Mn792 O817 2.209 . S
Mn792 O818 2.094 . S
Mn793 O798 2.121 . S
Mn793 N800 2.257 . S
Mn793 N809 2.282 . S
Mn793 O817 2.215 . S
Mn793 O819 2.117 . S
C794 O816 1.234 . S
C794 O817 1.283 . S
C795 O807 1.281 . S
C795 O808 1.236 . S
C796 O818 1.240 . S
C796 O819 1.264 . S
O797 Mn792 2.095 . S
O797 C806 1.250 . S
O798 Mn793 2.121 . S
O798 C806 1.258 . S
C799 N800 1.326 . S
C799 C803 1.460 . S
C799 H805 0.929 . S
N800 Mn793 2.257 . S
N800 C799 1.326 . S
N800 C804 1.362 . S
C801 C802 1.258 . S
C801 C804 1.431 . S
C801 C821 1.449 . S
C802 C801 1.258 . S
C802 C803 1.477 . S
C802 H822 0.931 . S
C803 C799 1.460 . S
C803 C802 1.477 . S
C803 H823 0.930 . S
C804 N800 1.362 . S
C804 C801 1.431 . S
C804 C814 1.476 . S
H805 C799 0.929 . S
C806 O797 1.250 . S
C806 O798 1.258 . S
O807 Mn792 2.162 . S
O807 C795 1.281 . S
O808 Mn792 2.297 . S
O808 C795 1.236 . S
N809 Mn793 2.282 . S
N809 C810 1.328 . S
N809 C814 1.318 . S
C810 N809 1.328 . S
C810 C811 1.457 . S
C810 H815 0.929 . S
C811 C810 1.457 . S
C811 C812 1.291 . S
C811 H824 0.931 . S
C812 C811 1.291 . S
C812 C813 1.373 . S
C812 H825 0.929 . S
C813 C812 1.373 . S
C813 C814 1.396 . S
C813 C820 1.403 . S
C814 C804 1.476 . S
C814 N809 1.318 . S
C814 C813 1.396 . S
H815 C810 0.929 . S
O816 Mn792 2.385 . S
O816 C794 1.234 . S
O817 Mn792 2.209 . S
O817 Mn793 2.215 . S
O817 C794 1.283 . S
O818 Mn792 2.094 . S
O818 C796 1.240 . S
O819 Mn793 2.117 . S
O819 C796 1.264 . S
C820 C813 1.403 . S
C820 C821 1.399 . S
C820 H826 0.929 . S
C821 C801 1.449 . S
C821 C820 1.399 . S
C821 H827 0.930 . S
H822 C802 0.931 . S
H823 C803 0.930 . S
H824 C811 0.931 . S
H825 C812 0.929 . S
H826 C820 0.929 . S
H827 C821 0.930 . S
Mn828 O833 2.095 . S
Mn828 O843 2.162 . S
Mn828 O844 2.297 . S
Mn828 O852 2.385 . S
Mn828 O853 2.209 . S
Mn828 O854 2.094 . S
Mn829 O834 2.121 . S
Mn829 N836 2.257 . S
Mn829 N845 2.282 . S
Mn829 O853 2.215 . S
Mn829 O855 2.117 . S
C830 O852 1.234 . S
C830 O853 1.283 . S
C831 O843 1.281 . S
C831 O844 1.236 . S
C832 O854 1.240 . S
C832 O855 1.264 . S
O833 Mn828 2.095 . S
O833 C842 1.250 . S
O834 Mn829 2.121 . S
O834 C842 1.258 . S
C835 N836 1.326 . S
C835 C839 1.460 . S
C835 H841 0.929 . S
N836 Mn829 2.257 . S
N836 C835 1.326 . S
N836 C840 1.362 . S
C837 C838 1.258 . S
C837 C840 1.431 . S
C837 C857 1.449 . S
C838 C837 1.258 . S
C838 C839 1.477 . S
C838 H858 0.931 . S
C839 C835 1.460 . S
C839 C838 1.477 . S
C839 H859 0.930 . S
C840 N836 1.362 . S
C840 C837 1.431 . S
C840 C850 1.476 . S
H841 C835 0.929 . S
C842 O833 1.250 . S
C842 O834 1.258 . S
O843 Mn828 2.162 . S
O843 C831 1.281 . S
O844 Mn828 2.297 . S
O844 C831 1.236 . S
N845 Mn829 2.282 . S
N845 C846 1.328 . S
N845 C850 1.318 . S
C846 N845 1.328 . S
C846 C847 1.457 . S
C846 H851 0.929 . S
C847 C846 1.457 . S
C847 C848 1.291 . S
C847 H860 0.931 . S
C848 C847 1.291 . S
C848 C849 1.373 . S
C848 H861 0.929 . S
C849 C848 1.373 . S
C849 C850 1.396 . S
C849 C856 1.403 . S
C850 C840 1.476 . S
C850 N845 1.318 . S
C850 C849 1.396 . S
H851 C846 0.929 . S
O852 Mn828 2.385 . S
O852 C830 1.234 . S
O853 Mn828 2.209 . S
O853 Mn829 2.215 . S
O853 C830 1.283 . S
O854 Mn828 2.094 . S
O854 C832 1.240 . S
O855 Mn829 2.117 . S
O855 C832 1.264 . S
C856 C849 1.403 . S
C856 C857 1.399 . S
C856 H862 0.929 . S
C857 C837 1.449 . S
C857 C856 1.399 . S
C857 H863 0.930 . S
H858 C838 0.931 . S
H859 C839 0.930 . S
H860 C847 0.931 . S
H861 C848 0.929 . S
H862 C856 0.929 . S
H863 C857 0.930 . S
Mn864 O869 2.095 . S
Mn864 O879 2.162 . S
Mn864 O880 2.297 . S
Mn864 O888 2.385 1_565 S
Mn864 O889 2.209 . S
Mn864 O890 2.094 . S
Mn865 O870 2.121 . S
Mn865 N872 2.257 . S
Mn865 N881 2.282 . S
Mn865 O889 2.215 . S
Mn865 O891 2.117 . S
C866 O888 1.234 . S
C866 O889 1.283 1_545 S
C867 O879 1.281 . S
C867 O880 1.236 . S
C868 O890 1.240 . S
C868 O891 1.264 . S
O869 Mn864 2.095 . S
O869 C878 1.250 . S
O870 Mn865 2.121 . S
O870 C878 1.258 . S
C871 N872 1.326 . S
C871 C875 1.460 . S
C871 H877 0.929 . S
N872 Mn865 2.257 . S
N872 C871 1.326 . S
N872 C876 1.362 . S
C873 C874 1.258 . S
C873 C876 1.431 . S
C873 C893 1.449 1_565 S
C874 C873 1.258 . S
C874 C875 1.477 . S
C874 H894 0.931 . S
C875 C871 1.460 . S
C875 C874 1.477 . S
C875 H895 0.930 . S
C876 N872 1.362 . S
C876 C873 1.431 . S
C876 C886 1.476 1_565 S
H877 C871 0.929 . S
C878 O869 1.250 . S
C878 O870 1.258 . S
O879 Mn864 2.162 . S
O879 C867 1.281 . S
O880 Mn864 2.297 . S
O880 C867 1.236 . S
N881 Mn865 2.282 . S
N881 C882 1.328 1_565 S
N881 C886 1.318 1_565 S
C882 N881 1.328 1_545 S
C882 C883 1.457 . S
C882 H887 0.929 . S
C883 C882 1.457 . S
C883 C884 1.291 . S
C883 H896 0.931 . S
C884 C883 1.291 . S
C884 C885 1.373 . S
C884 H897 0.929 . S
C885 C884 1.373 . S
C885 C886 1.396 . S
C885 C892 1.403 . S
C886 C876 1.476 1_545 S
C886 N881 1.318 1_545 S
C886 C885 1.396 . S
H887 C882 0.929 . S
O888 Mn864 2.385 1_545 S
O888 C866 1.234 . S
O889 Mn864 2.209 . S
O889 Mn865 2.215 . S
O889 C866 1.283 1_565 S
O890 Mn864 2.094 . S
O890 C868 1.240 . S
O891 Mn865 2.117 . S
O891 C868 1.264 . S
C892 C885 1.403 . S
C892 C893 1.399 . S
C892 H898 0.929 . S
C893 C873 1.449 1_545 S
C893 C892 1.399 . S
C893 H899 0.930 . S
H894 C874 0.931 . S
H895 C875 0.930 . S
H896 C883 0.931 . S
H897 C884 0.929 . S
H898 C892 0.929 . S
H899 C893 0.930 . S
Mn900 O905 2.095 . S
Mn900 O915 2.162 . S
Mn900 O916 2.297 . S
Mn900 O924 2.385 . S
Mn900 O925 2.209 . S
Mn900 O926 2.094 . S
Mn901 O906 2.121 . S
Mn901 N908 2.257 . S
Mn901 N917 2.282 . S
Mn901 O925 2.215 . S
Mn901 O927 2.117 . S
C902 O924 1.234 . S
C902 O925 1.283 . S
C903 O915 1.281 . S
C903 O916 1.236 . S
C904 O926 1.240 . S
C904 O927 1.264 . S
O905 Mn900 2.095 . S
O905 C914 1.250 . S
O906 Mn901 2.121 . S
O906 C914 1.258 . S
C907 N908 1.326 . S
C907 C911 1.460 . S
C907 H913 0.929 . S
N908 Mn901 2.257 . S
N908 C907 1.326 . S
N908 C912 1.362 . S
C909 C910 1.258 . S
C909 C912 1.431 . S
C909 C929 1.449 . S
C910 C909 1.258 . S
C910 C911 1.477 . S
C910 H930 0.931 . S
C911 C907 1.460 . S
C911 C910 1.477 . S
C911 H931 0.930 . S
C912 N908 1.362 . S
C912 C909 1.431 . S
C912 C922 1.476 . S
H913 C907 0.929 . S
C914 O905 1.250 . S
C914 O906 1.258 . S
O915 Mn900 2.162 . S
O915 C903 1.281 . S
O916 Mn900 2.297 . S
O916 C903 1.236 . S
N917 Mn901 2.282 . S
N917 C918 1.328 . S
N917 C922 1.318 . S
C918 N917 1.328 . S
C918 C919 1.457 . S
C918 H923 0.929 . S
C919 C918 1.457 . S
C919 C920 1.291 . S
C919 H932 0.931 . S
C920 C919 1.291 . S
C920 C921 1.373 . S
C920 H933 0.929 . S
C921 C920 1.373 . S
C921 C922 1.396 . S
C921 C928 1.403 . S
C922 C912 1.476 . S
C922 N917 1.318 . S
C922 C921 1.396 . S
H923 C918 0.929 . S
O924 Mn900 2.385 . S
O924 C902 1.234 . S
O925 Mn900 2.209 . S
O925 Mn901 2.215 . S
O925 C902 1.283 . S
O926 Mn900 2.094 . S
O926 C904 1.240 . S
O927 Mn901 2.117 . S
O927 C904 1.264 . S
C928 C921 1.403 . S
C928 C929 1.399 . S
C928 H934 0.929 . S
C929 C909 1.449 . S
C929 C928 1.399 . S
C929 H935 0.930 . S
H930 C910 0.931 . S
H931 C911 0.930 . S
H932 C919 0.931 . S
H933 C920 0.929 . S
H934 C928 0.929 . S
H935 C929 0.930 . S
Mn936 O941 2.095 . S
Mn936 O951 2.162 . S
Mn936 O952 2.297 . S
Mn936 O960 2.385 . S
Mn936 O961 2.209 . S
Mn936 O962 2.094 . S
Mn937 O942 2.121 . S
Mn937 N944 2.257 . S
Mn937 N953 2.282 . S
Mn937 O961 2.215 . S
Mn937 O963 2.117 . S
C938 O960 1.234 . S
C938 O961 1.283 . S
C939 O951 1.281 . S
C939 O952 1.236 . S
C940 O962 1.240 . S
C940 O963 1.264 . S
O941 Mn936 2.095 . S
O941 C950 1.250 . S
O942 Mn937 2.121 . S
O942 C950 1.258 . S
C943 N944 1.326 . S
C943 C947 1.460 . S
C943 H949 0.929 . S
N944 Mn937 2.257 . S
N944 C943 1.326 . S
N944 C948 1.362 . S
C945 C946 1.258 . S
C945 C948 1.431 . S
C945 C965 1.449 1_554 S
C946 C945 1.258 . S
C946 C947 1.477 . S
C946 H966 0.931 1_554 S
C947 C943 1.460 . S
C947 C946 1.477 . S
C947 H967 0.930 . S
C948 N944 1.362 . S
C948 C945 1.431 . S
C948 C958 1.476 . S
H949 C943 0.929 . S
C950 O941 1.250 . S
C950 O942 1.258 . S
O951 Mn936 2.162 . S
O951 C939 1.281 . S
O952 Mn936 2.297 . S
O952 C939 1.236 . S
N953 Mn937 2.282 . S
N953 C954 1.328 . S
N953 C958 1.318 . S
C954 N953 1.328 . S
C954 C955 1.457 . S
C954 H959 0.929 . S
C955 C954 1.457 . S
C955 C956 1.291 . S
C955 H968 0.931 . S
C956 C955 1.291 . S
C956 C957 1.373 . S
C956 H969 0.929 . S
C957 C956 1.373 . S
C957 C958 1.396 . S
C957 C964 1.403 . S
C958 C948 1.476 . S
C958 N953 1.318 . S
C958 C957 1.396 . S
H959 C954 0.929 . S
O960 Mn936 2.385 . S
O960 C938 1.234 . S
O961 Mn936 2.209 . S
O961 Mn937 2.215 . S
O961 C938 1.283 . S
O962 Mn936 2.094 . S
O962 C940 1.240 . S
O963 Mn937 2.117 . S
O963 C940 1.264 . S
C964 C957 1.403 . S
C964 C965 1.399 1_554 S
C964 H970 0.929 1_554 S
C965 C945 1.449 1_556 S
C965 C964 1.399 1_556 S
C965 H971 0.930 . S
H966 C946 0.931 1_556 S
H967 C947 0.930 . S
H968 C955 0.931 . S
H969 C956 0.929 . S
H970 C964 0.929 1_556 S
H971 C965 0.930 . S
Mn972 O977 2.095 . S
Mn972 O987 2.162 . S
Mn972 O988 2.297 . S
Mn972 O996 2.385 1_565 S
Mn972 O997 2.209 . S
Mn972 O998 2.094 . S
Mn973 O978 2.121 . S
Mn973 N980 2.257 . S
Mn973 N989 2.282 . S
Mn973 O997 2.215 . S
Mn973 O999 2.117 . S
C974 O996 1.234 . S
C974 O997 1.283 1_545 S
C975 O987 1.281 . S
C975 O988 1.236 . S
C976 O998 1.240 . S
C976 O999 1.264 . S
O977 Mn972 2.095 . S
O977 C986 1.250 . S
O978 Mn973 2.121 . S
O978 C986 1.258 . S
C979 N980 1.326 . S
C979 C983 1.460 . S
C979 H985 0.929 . S
N980 Mn973 2.257 . S
N980 C979 1.326 . S
N980 C984 1.362 . S
C981 C982 1.258 . S
C981 C984 1.431 . S
C981 C1001 1.449 1_564 S
C982 C981 1.258 . S
C982 C983 1.477 . S
C982 H1002 0.931 1_554 S
C983 C979 1.460 . S
C983 C982 1.477 . S
C983 H1003 0.930 . S
C984 N980 1.362 . S
C984 C981 1.431 . S
C984 C994 1.476 1_565 S
H985 C979 0.929 . S
C986 O977 1.250 . S
C986 O978 1.258 . S
O987 Mn972 2.162 . S
O987 C975 1.281 . S
O988 Mn972 2.297 . S
O988 C975 1.236 . S
N989 Mn973 2.282 . S
N989 C990 1.328 1_565 S
N989 C994 1.318 1_565 S
C990 N989 1.328 1_545 S
C990 C991 1.457 . S
C990 H995 0.929 . S
C991 C990 1.457 . S
C991 C992 1.291 . S
C991 H1004 0.931 . S
C992 C991 1.291 . S
C992 C993 1.373 . S
C992 H1005 0.929 . S
C993 C992 1.373 . S
C993 C994 1.396 . S
C993 C1000 1.403 . S
C994 C984 1.476 1_545 S
C994 N989 1.318 1_545 S
C994 C993 1.396 . S
H995 C990 0.929 . S
O996 Mn972 2.385 1_545 S
O996 C974 1.234 . S
O997 Mn972 2.209 . S
O997 Mn973 2.215 . S
O997 C974 1.283 1_565 S
O998 Mn972 2.094 . S
O998 C976 1.240 . S
O999 Mn973 2.117 . S
O999 C976 1.264 . S
C1000 C993 1.403 . S
C1000 C1001 1.399 1_554 S
C1000 H1006 0.929 1_554 S
C1001 C981 1.449 1_546 S
C1001 C1000 1.399 1_556 S
C1001 H1007 0.930 . S
H1002 C982 0.931 1_556 S
H1003 C983 0.930 . S
H1004 C991 0.931 . S
H1005 C992 0.929 . S
H1006 C1000 0.929 1_556 S
H1007 C1001 0.930 . S
Mn1008 O1013 2.095 . S
Mn1008 O1023 2.162 . S
Mn1008 O1024 2.297 . S
Mn1008 O1032 2.385 . S
Mn1008 O1033 2.209 . S
Mn1008 O1034 2.094 . S
Mn1009 O1014 2.121 1_565 S
Mn1009 N1016 2.257 . S
Mn1009 N1025 2.282 . S
Mn1009 O1033 2.215 1_565 S
Mn1009 O1035 2.117 . S
C1010 O1032 1.234 . S
C1010 O1033 1.283 . S
C1011 O1023 1.281 . S
C1011 O1024 1.236 . S
C1012 O1034 1.240 1_565 S
C1012 O1035 1.264 . S
O1013 Mn1008 2.095 . S
O1013 C1022 1.250 . S
O1014 Mn1009 2.121 1_545 S
O1014 C1022 1.258 . S
C1015 N1016 1.326 1_545 S
C1015 C1019 1.460 1_556 S
C1015 H1021 0.929 . S
N1016 Mn1009 2.257 . S
N1016 C1015 1.326 1_565 S
N1016 C1020 1.362 . S
C1017 C1018 1.258 . S
C1017 C1020 1.431 . S
C1017 C1037 1.449 . S
C1018 C1017 1.258 . S
C1018 C1019 1.477 1_566 S
C1018 H1038 0.931 1_556 S
C1019 C1015 1.460 1_554 S
C1019 C1018 1.477 1_544 S
C1019 H1039 0.930 . S
C1020 N1016 1.362 . S
C1020 C1017 1.431 . S
C1020 C1030 1.476 . S
H1021 C1015 0.929 . S
C1022 O1013 1.250 . S
C1022 O1014 1.258 . S
O1023 Mn1008 2.162 . S
O1023 C1011 1.281 . S
O1024 Mn1008 2.297 . S
O1024 C1011 1.236 . S
N1025 Mn1009 2.282 . S
N1025 C1026 1.328 . S
N1025 C1030 1.318 . S
C1026 N1025 1.328 . S
C1026 C1027 1.457 . S
C1026 H1031 0.929 . S
C1027 C1026 1.457 . S
C1027 C1028 1.291 . S
C1027 H1040 0.931 . S
C1028 C1027 1.291 . S
C1028 C1029 1.373 . S
C1028 H1041 0.929 . S
C1029 C1028 1.373 . S
C1029 C1030 1.396 . S
C1029 C1036 1.403 . S
C1030 C1020 1.476 . S
C1030 N1025 1.318 . S
C1030 C1029 1.396 . S
H1031 C1026 0.929 . S
O1032 Mn1008 2.385 . S
O1032 C1010 1.234 . S
O1033 Mn1008 2.209 . S
O1033 Mn1009 2.215 1_545 S
O1033 C1010 1.283 . S
O1034 Mn1008 2.094 . S
O1034 C1012 1.240 1_545 S
O1035 Mn1009 2.117 . S
O1035 C1012 1.264 . S
C1036 C1029 1.403 . S
C1036 C1037 1.399 . S
C1036 H1042 0.929 . S
C1037 C1017 1.449 . S
C1037 C1036 1.399 . S
C1037 H1043 0.930 . S
H1038 C1018 0.931 1_554 S
H1039 C1019 0.930 . S
H1040 C1027 0.931 . S
H1041 C1028 0.929 . S
H1042 C1036 0.929 . S
H1043 C1037 0.930 . S
Mn1044 O1049 2.095 . S
Mn1044 O1059 2.162 . S
Mn1044 O1060 2.297 . S
Mn1044 O1068 2.385 . S
Mn1044 O1069 2.209 . S
Mn1044 O1070 2.094 . S
Mn1045 O1050 2.121 . S
Mn1045 N1052 2.257 . S
Mn1045 N1061 2.282 . S
Mn1045 O1069 2.215 . S
Mn1045 O1071 2.117 . S
C1046 O1068 1.234 . S
C1046 O1069 1.283 . S
C1047 O1059 1.281 . S
C1047 O1060 1.236 . S
C1048 O1070 1.240 . S
C1048 O1071 1.264 . S
O1049 Mn1044 2.095 . S
O1049 C1058 1.250 . S
O1050 Mn1045 2.121 . S
O1050 C1058 1.258 . S
C1051 N1052 1.326 . S
C1051 C1055 1.460 1_556 S
C1051 H1057 0.929 . S
N1052 Mn1045 2.257 . S
N1052 C1051 1.326 . S
N1052 C1056 1.362 . S
C1053 C1054 1.258 . S
C1053 C1056 1.431 . S
C1053 C1073 1.449 . S
C1054 C1053 1.258 . S
C1054 C1055 1.477 1_556 S
C1054 H1074 0.931 1_556 S
C1055 C1051 1.460 1_554 S
C1055 C1054 1.477 1_554 S
C1055 H1075 0.930 . S
C1056 N1052 1.362 . S
C1056 C1053 1.431 . S
C1056 C1066 1.476 . S
H1057 C1051 0.929 . S
C1058 O1049 1.250 . S
C1058 O1050 1.258 . S
O1059 Mn1044 2.162 . S
O1059 C1047 1.281 . S
O1060 Mn1044 2.297 . S
O1060 C1047 1.236 . S
N1061 Mn1045 2.282 . S
N1061 C1062 1.328 . S
N1061 C1066 1.318 . S
C1062 N1061 1.328 . S
C1062 C1063 1.457 . S
C1062 H1067 0.929 . S
C1063 C1062 1.457 . S
C1063 C1064 1.291 . S
C1063 H1076 0.931 . S
C1064 C1063 1.291 . S
C1064 C1065 1.373 . S
C1064 H1077 0.929 . S
C1065 C1064 1.373 . S
C1065 C1066 1.396 . S
C1065 C1072 1.403 . S
C1066 C1056 1.476 . S
C1066 N1061 1.318 . S
C1066 C1065 1.396 . S
H1067 C1062 0.929 . S
O1068 Mn1044 2.385 . S
O1068 C1046 1.234 . S
O1069 Mn1044 2.209 . S
O1069 Mn1045 2.215 . S
O1069 C1046 1.283 . S
O1070 Mn1044 2.094 . S
O1070 C1048 1.240 . S
O1071 Mn1045 2.117 . S
O1071 C1048 1.264 . S
C1072 C1065 1.403 . S
C1072 C1073 1.399 . S
C1072 H1078 0.929 . S
C1073 C1053 1.449 . S
C1073 C1072 1.399 . S
C1073 H1079 0.930 . S
H1074 C1054 0.931 1_554 S
H1075 C1055 0.930 . S
H1076 C1063 0.931 . S
H1077 C1064 0.929 . S
H1078 C1072 0.929 . S
H1079 C1073 0.930 . S
Mn1080 O1085 2.095 . S
Mn1080 O1095 2.162 . S
Mn1080 O1096 2.297 . S
Mn1080 O1104 2.385 . S
Mn1080 O1105 2.209 . S
Mn1080 O1106 2.094 . S
Mn1081 O1086 2.121 . S
Mn1081 N1088 2.257 . S
Mn1081 N1097 2.282 . S
Mn1081 O1105 2.215 . S
Mn1081 O1107 2.117 . S
C1082 O1104 1.234 . S
C1082 O1105 1.283 . S
C1083 O1095 1.281 . S
C1083 O1096 1.236 . S
C1084 O1106 1.240 . S
C1084 O1107 1.264 . S
O1085 Mn1080 2.095 . S
O1085 C1094 1.250 . S
O1086 Mn1081 2.121 . S
O1086 C1094 1.258 . S
C1087 N1088 1.326 . S
C1087 C1091 1.460 . S
C1087 H1093 0.929 . S
N1088 Mn1081 2.257 . S
N1088 C1087 1.326 . S
N1088 C1092 1.362 . S
C1089 C1090 1.258 . S
C1089 C1092 1.431 . S
C1089 C1109 1.449 . S
C1090 C1089 1.258 . S
C1090 C1091 1.477 . S
C1090 H1110 0.931 . S
C1091 C1087 1.460 . S
C1091 C1090 1.477 . S
C1091 H1111 0.930 . S
C1092 N1088 1.362 . S
C1092 C1089 1.431 . S
C1092 C1102 1.476 . S
H1093 C1087 0.929 . S
C1094 O1085 1.250 . S
C1094 O1086 1.258 . S
O1095 Mn1080 2.162 . S
O1095 C1083 1.281 . S
O1096 Mn1080 2.297 . S
O1096 C1083 1.236 . S
N1097 Mn1081 2.282 . S
N1097 C1098 1.328 . S
N1097 C1102 1.318 . S
C1098 N1097 1.328 . S
C1098 C1099 1.457 . S
C1098 H1103 0.929 . S
C1099 C1098 1.457 . S
C1099 C1100 1.291 . S
C1099 H1112 0.931 . S
C1100 C1099 1.291 . S
C1100 C1101 1.373 . S
C1100 H1113 0.929 . S
C1101 C1100 1.373 . S
C1101 C1102 1.396 . S
C1101 C1108 1.403 . S
C1102 C1092 1.476 . S
C1102 N1097 1.318 . S
C1102 C1101 1.396 . S
H1103 C1098 0.929 . S
O1104 Mn1080 2.385 . S
O1104 C1082 1.234 . S
O1105 Mn1080 2.209 . S
O1105 Mn1081 2.215 . S
O1105 C1082 1.283 . S
O1106 Mn1080 2.094 . S
O1106 C1084 1.240 . S
O1107 Mn1081 2.117 . S
O1107 C1084 1.264 . S
C1108 C1101 1.403 . S
C1108 C1109 1.399 . S
C1108 H1114 0.929 . S
C1109 C1089 1.449 . S
C1109 C1108 1.399 . S
C1109 H1115 0.930 . S
H1110 C1090 0.931 . S
H1111 C1091 0.930 . S
H1112 C1099 0.931 . S
H1113 C1100 0.929 . S
H1114 C1108 0.929 . S
H1115 C1109 0.930 . S
Mn1116 O1121 2.095 . S
Mn1116 O1131 2.162 . S
Mn1116 O1132 2.297 . S
Mn1116 O1140 2.385 . S
Mn1116 O1141 2.209 . S
Mn1116 O1142 2.094 . S
Mn1117 O1122 2.121 1_565 S
Mn1117 N1124 2.257 . S
Mn1117 N1133 2.282 . S
Mn1117 O1141 2.215 1_565 S
Mn1117 O1143 2.117 . S
C1118 O1140 1.234 . S
C1118 O1141 1.283 . S
C1119 O1131 1.281 . S
C1119 O1132 1.236 . S
C1120 O1142 1.240 1_565 S
C1120 O1143 1.264 . S
O1121 Mn1116 2.095 . S
O1121 C1130 1.250 . S
O1122 Mn1117 2.121 1_545 S
O1122 C1130 1.258 . S
C1123 N1124 1.326 1_545 S
C1123 C1127 1.460 . S
C1123 H1129 0.929 . S
N1124 Mn1117 2.257 . S
N1124 C1123 1.326 1_565 S
N1124 C1128 1.362 . S
C1125 C1126 1.258 . S
C1125 C1128 1.431 . S
C1125 C1145 1.449 . S
C1126 C1125 1.258 . S
C1126 C1127 1.477 1_565 S
C1126 H1146 0.931 . S
C1127 C1123 1.460 . S
C1127 C1126 1.477 1_545 S
C1127 H1147 0.930 . S
C1128 N1124 1.362 . S
C1128 C1125 1.431 . S
C1128 C1138 1.476 . S
H1129 C1123 0.929 . S
C1130 O1121 1.250 . S
C1130 O1122 1.258 . S
O1131 Mn1116 2.162 . S
O1131 C1119 1.281 . S
O1132 Mn1116 2.297 . S
O1132 C1119 1.236 . S
N1133 Mn1117 2.282 . S
N1133 C1134 1.328 . S
N1133 C1138 1.318 . S
C1134 N1133 1.328 . S
C1134 C1135 1.457 . S
C1134 H1139 0.929 . S
C1135 C1134 1.457 . S
C1135 C1136 1.291 . S
C1135 H1148 0.931 . S
C1136 C1135 1.291 . S
C1136 C1137 1.373 . S
C1136 H1149 0.929 . S
C1137 C1136 1.373 . S
C1137 C1138 1.396 . S
C1137 C1144 1.403 . S
C1138 C1128 1.476 . S
C1138 N1133 1.318 . S
C1138 C1137 1.396 . S
H1139 C1134 0.929 . S
O1140 Mn1116 2.385 . S
O1140 C1118 1.234 . S
O1141 Mn1116 2.209 . S
O1141 Mn1117 2.215 1_545 S
O1141 C1118 1.283 . S
O1142 Mn1116 2.094 . S
O1142 C1120 1.240 1_545 S
O1143 Mn1117 2.117 . S
O1143 C1120 1.264 . S
C1144 C1137 1.403 . S
C1144 C1145 1.399 . S
C1144 H1150 0.929 . S
C1145 C1125 1.449 . S
C1145 C1144 1.399 . S
C1145 H1151 0.930 . S
H1146 C1126 0.931 . S
H1147 C1127 0.930 . S
H1148 C1135 0.931 . S
H1149 C1136 0.929 . S
H1150 C1144 0.929 . S
H1151 C1145 0.930 . S
C1152 C1153 1.387 . S
C1152 H1156 0.950 . S
C1152 C1161 1.390 . S
C1153 C1152 1.387 . S
C1153 C1155 1.387 . S
H1154 C1161 0.950 . S
C1155 C1153 1.387 . S
C1155 C1157 1.390 . S
C1155 H1159 0.950 1_455 S
H1156 C1152 0.950 . S
C1157 C1155 1.390 . S
C1157 C1158 1.387 . S
C1157 H1160 0.950 1_455 S
C1158 C1157 1.387 . S
C1158 C1161 1.387 . S
H1159 C1155 0.950 1_655 S
H1160 C1157 0.950 1_655 S
C1161 C1152 1.390 . S
C1161 H1154 0.950 . S
C1161 C1158 1.387 . S
C1162 C1163 1.387 . S
C1162 H1166 0.950 . S
C1162 C1171 1.390 . S
C1163 C1162 1.387 . S
C1163 C1165 1.387 . S
H1164 C1171 0.950 . S
C1165 C1163 1.387 . S
C1165 C1167 1.390 . S
C1165 H1169 0.950 . S
H1166 C1162 0.950 . S
C1167 C1165 1.390 . S
C1167 C1168 1.387 . S
C1167 H1170 0.950 . S
C1168 C1167 1.387 . S
C1168 C1171 1.387 . S
H1169 C1165 0.950 . S
H1170 C1167 0.950 . S
C1171 C1162 1.390 . S
C1171 H1164 0.950 . S
C1171 C1168 1.387 . S
C1172 C1173 1.387 . S
C1172 H1176 0.950 . S
C1172 C1181 1.390 . S
C1173 C1172 1.387 . S
C1173 C1175 1.387 . S
H1174 C1181 0.950 . S
C1175 C1173 1.387 . S
C1175 C1177 1.390 . S
C1175 H1179 0.950 1_655 S
H1176 C1172 0.950 . S
C1177 C1175 1.390 . S
C1177 C1178 1.387 . S
C1177 H1180 0.950 1_655 S
C1178 C1177 1.387 . S
C1178 C1181 1.387 . S
H1179 C1175 0.950 1_455 S
H1180 C1177 0.950 1_455 S
C1181 C1172 1.390 . S
C1181 H1174 0.950 . S
C1181 C1178 1.387 . S
C1182 C1183 1.387 . S
C1182 H1186 0.950 . S
C1182 C1191 1.390 . S
C1183 C1182 1.387 . S
C1183 C1185 1.387 . S
H1184 C1191 0.950 . S
C1185 C1183 1.387 . S
C1185 C1187 1.390 . S
C1185 H1189 0.950 . S
H1186 C1182 0.950 . S
C1187 C1185 1.390 . S
C1187 C1188 1.387 . S
C1187 H1190 0.950 . S
C1188 C1187 1.387 . S
C1188 C1191 1.387 . S
H1189 C1185 0.950 . S
H1190 C1187 0.950 . S
C1191 C1182 1.390 . S
C1191 H1184 0.950 . S
C1191 C1188 1.387 . S
C1192 C1193 1.387 . S
C1192 H1196 0.950 1_455 S
C1192 C1201 1.390 . S
C1193 C1192 1.387 . S
C1193 C1195 1.387 . S
H1194 C1201 0.950 1_655 S
C1195 C1193 1.387 . S
C1195 C1197 1.390 . S
C1195 H1199 0.950 . S
H1196 C1192 0.950 1_655 S
C1197 C1195 1.390 . S
C1197 C1198 1.387 . S
C1197 H1200 0.950 . S
C1198 C1197 1.387 . S
C1198 C1201 1.387 . S
H1199 C1195 0.950 . S
H1200 C1197 0.950 . S
C1201 C1192 1.390 . S
C1201 H1194 0.950 1_455 S
C1201 C1198 1.387 . S
C1202 C1203 1.387 . S
C1202 H1206 0.950 . S
C1202 C1211 1.390 . S
C1203 C1202 1.387 . S
C1203 C1205 1.387 . S
H1204 C1211 0.950 . S
C1205 C1203 1.387 . S
C1205 C1207 1.390 . S
C1205 H1209 0.950 . S
H1206 C1202 0.950 . S
C1207 C1205 1.390 . S
C1207 C1208 1.387 . S
C1207 H1210 0.950 . S
C1208 C1207 1.387 . S
C1208 C1211 1.387 . S
H1209 C1205 0.950 . S
H1210 C1207 0.950 . S
C1211 C1202 1.390 . S
C1211 H1204 0.950 . S
C1211 C1208 1.387 . S
C1212 C1213 1.387 . S
C1212 H1216 0.950 1_655 S
C1212 C1221 1.390 . S
C1213 C1212 1.387 . S
C1213 C1215 1.387 . S
H1214 C1221 0.950 1_455 S
C1215 C1213 1.387 . S
C1215 C1217 1.390 . S
C1215 H1219 0.950 . S
H1216 C1212 0.950 1_455 S
C1217 C1215 1.390 . S
C1217 C1218 1.387 . S
C1217 H1220 0.950 . S
C1218 C1217 1.387 . S
C1218 C1221 1.387 . S
H1219 C1215 0.950 . S
H1220 C1217 0.950 . S
C1221 C1212 1.390 . S
C1221 H1214 0.950 1_655 S
C1221 C1218 1.387 . S
C1222 C1223 1.387 . S
C1222 H1226 0.950 . S
C1222 C1231 1.390 . S
C1223 C1222 1.387 . S
C1223 C1225 1.387 . S
H1224 C1231 0.950 . S
C1225 C1223 1.387 . S
C1225 C1227 1.390 . S
C1225 H1229 0.950 . S
H1226 C1222 0.950 . S
C1227 C1225 1.390 . S
C1227 C1228 1.387 . S
C1227 H1230 0.950 . S
C1228 C1227 1.387 . S
C1228 C1231 1.387 . S
H1229 C1225 0.950 . S
H1230 C1227 0.950 . S
C1231 C1222 1.390 . S
C1231 H1224 0.950 . S
C1231 C1228 1.387 . S
C1232 C1233 1.387 . S
C1232 H1236 0.950 . S
C1232 C1241 1.390 . S
C1233 C1232 1.387 . S
C1233 C1235 1.387 . S
H1234 C1241 0.950 . S
C1235 C1233 1.387 . S
C1235 C1237 1.390 . S
C1235 H1239 0.950 . S
H1236 C1232 0.950 . S
C1237 C1235 1.390 . S
C1237 C1238 1.387 . S
C1237 H1240 0.950 . S
C1238 C1237 1.387 . S
C1238 C1241 1.387 . S
H1239 C1235 0.950 . S
H1240 C1237 0.950 . S
C1241 C1232 1.390 . S
C1241 H1234 0.950 . S
C1241 C1238 1.387 . S
C1242 C1243 1.387 . S
C1242 H1246 0.950 . S
C1242 C1251 1.390 . S
C1243 C1242 1.387 . S
C1243 C1245 1.387 . S
H1244 C1251 0.950 . S
C1245 C1243 1.387 . S
C1245 C1247 1.390 . S
C1245 H1249 0.950 . S
H1246 C1242 0.950 . S
C1247 C1245 1.390 . S
C1247 C1248 1.387 . S
C1247 H1250 0.950 . S
C1248 C1247 1.387 . S
C1248 C1251 1.387 . S
H1249 C1245 0.950 . S
H1250 C1247 0.950 . S
C1251 C1242 1.390 . S
C1251 H1244 0.950 . S
C1251 C1248 1.387 . S
C1252 C1253 1.387 . S
C1252 H1256 0.950 . S
C1252 C1261 1.390 . S
C1253 C1252 1.387 . S
C1253 C1255 1.387 . S
H1254 C1261 0.950 . S
C1255 C1253 1.387 . S
C1255 C1257 1.390 . S
C1255 H1259 0.950 . S
H1256 C1252 0.950 . S
C1257 C1255 1.390 . S
C1257 C1258 1.387 . S
C1257 H1260 0.950 . S
C1258 C1257 1.387 . S
C1258 C1261 1.387 . S
H1259 C1255 0.950 . S
H1260 C1257 0.950 . S
C1261 C1252 1.390 . S
C1261 H1254 0.950 . S
C1261 C1258 1.387 . S
C1262 C1263 1.387 . S
C1262 H1266 0.950 . S
C1262 C1271 1.390 . S
C1263 C1262 1.387 . S
C1263 C1265 1.387 . S
H1264 C1271 0.950 . S
C1265 C1263 1.387 . S
C1265 C1267 1.390 . S
C1265 H1269 0.950 . S
H1266 C1262 0.950 . S
C1267 C1265 1.390 . S
C1267 C1268 1.387 . S
C1267 H1270 0.950 . S
C1268 C1267 1.387 . S
C1268 C1271 1.387 . S
H1269 C1265 0.950 . S
H1270 C1267 0.950 . S
C1271 C1262 1.390 . S
C1271 H1264 0.950 . S
C1271 C1268 1.387 . S
C1272 C1273 1.387 . S
C1272 H1276 0.950 . S
C1272 C1281 1.390 . S
C1273 C1272 1.387 . S
C1273 C1275 1.387 . S
H1274 C1281 0.950 . S
C1275 C1273 1.387 . S
C1275 C1277 1.390 . S
C1275 H1279 0.950 . S
H1276 C1272 0.950 . S
C1277 C1275 1.390 . S
C1277 C1278 1.387 . S
C1277 H1280 0.950 . S
C1278 C1277 1.387 . S
C1278 C1281 1.387 . S
H1279 C1275 0.950 . S
H1280 C1277 0.950 . S
C1281 C1272 1.390 . S
C1281 H1274 0.950 . S
C1281 C1278 1.387 . S
C1282 C1283 1.387 . S
C1282 H1286 0.950 . S
C1282 C1291 1.390 . S
C1283 C1282 1.387 . S
C1283 C1285 1.387 . S
H1284 C1291 0.950 . S
C1285 C1283 1.387 . S
C1285 C1287 1.390 . S
C1285 H1289 0.950 . S
H1286 C1282 0.950 . S
C1287 C1285 1.390 . S
C1287 C1288 1.387 . S
C1287 H1290 0.950 . S
C1288 C1287 1.387 . S
C1288 C1291 1.387 . S
H1289 C1285 0.950 . S
H1290 C1287 0.950 . S
C1291 C1282 1.390 . S
C1291 H1284 0.950 . S
C1291 C1288 1.387 . S
C1292 C1293 1.387 . S
C1292 H1296 0.950 . S
C1292 C1301 1.390 . S
C1293 C1292 1.387 . S
C1293 C1295 1.387 . S
H1294 C1301 0.950 . S
C1295 C1293 1.387 . S
C1295 C1297 1.390 . S
C1295 H1299 0.950 . S
H1296 C1292 0.950 . S
C1297 C1295 1.390 . S
C1297 C1298 1.387 . S
C1297 H1300 0.950 . S
C1298 C1297 1.387 . S
C1298 C1301 1.387 . S
H1299 C1295 0.950 . S
H1300 C1297 0.950 . S
C1301 C1292 1.390 . S
C1301 H1294 0.950 . S
C1301 C1298 1.387 . S
C1302 C1303 1.387 . S
C1302 H1306 0.950 . S
C1302 C1311 1.390 . S
C1303 C1302 1.387 . S
C1303 C1305 1.387 . S
H1304 C1311 0.950 . S
C1305 C1303 1.387 . S
C1305 C1307 1.390 . S
C1305 H1309 0.950 . S
H1306 C1302 0.950 . S
C1307 C1305 1.390 . S
C1307 C1308 1.387 . S
C1307 H1310 0.950 . S
C1308 C1307 1.387 . S
C1308 C1311 1.387 . S
H1309 C1305 0.950 . S
H1310 C1307 0.950 . S
C1311 C1302 1.390 . S
C1311 H1304 0.950 . S
C1311 C1308 1.387 . S
C1312 C1313 1.387 1_455 S
C1312 H1316 0.950 . S
C1312 C1321 1.390 1_556 S
C1313 C1312 1.387 1_655 S
C1313 C1315 1.387 . S
H1314 C1321 0.950 . S
C1315 C1313 1.387 . S
C1315 C1317 1.390 1_556 S
C1315 H1319 0.950 . S
H1316 C1312 0.950 . S
C1317 C1315 1.390 1_554 S
C1317 C1318 1.387 1_655 S
C1317 H1320 0.950 . S
C1318 C1317 1.387 1_455 S
C1318 C1321 1.387 . S
H1319 C1315 0.950 . S
H1320 C1317 0.950 . S
C1321 C1312 1.390 1_554 S
C1321 H1314 0.950 . S
C1321 C1318 1.387 . S
C1322 C1323 1.387 . S
C1322 H1326 0.950 . S
C1322 C1331 1.390 1_556 S
C1323 C1322 1.387 . S
C1323 C1325 1.387 . S
H1324 C1331 0.950 . S
C1325 C1323 1.387 . S
C1325 C1327 1.390 1_556 S
C1325 H1329 0.950 . S
H1326 C1322 0.950 . S
C1327 C1325 1.390 1_554 S
C1327 C1328 1.387 . S
C1327 H1330 0.950 . S
C1328 C1327 1.387 . S
C1328 C1331 1.387 . S
H1329 C1325 0.950 . S
H1330 C1327 0.950 . S
C1331 C1322 1.390 1_554 S
C1331 H1324 0.950 . S
C1331 C1328 1.387 . S
C1332 C1333 1.387 1_655 S
C1332 H1336 0.950 . S
C1332 C1341 1.390 . S
C1333 C1332 1.387 1_455 S
C1333 C1335 1.387 . S
H1334 C1341 0.950 . S
C1335 C1333 1.387 . S
C1335 C1337 1.390 . S
C1335 H1339 0.950 . S
H1336 C1332 0.950 . S
C1337 C1335 1.390 . S
C1337 C1338 1.387 1_455 S
C1337 H1340 0.950 . S
C1338 C1337 1.387 1_655 S
C1338 C1341 1.387 . S
H1339 C1335 0.950 . S
H1340 C1337 0.950 . S
C1341 C1332 1.390 . S
C1341 H1334 0.950 . S
C1341 C1338 1.387 . S
C1342 C1343 1.387 . S
C1342 H1346 0.950 . S
C1342 C1351 1.390 . S
C1343 C1342 1.387 . S
C1343 C1345 1.387 . S
H1344 C1351 0.950 . S
C1345 C1343 1.387 . S
C1345 C1347 1.390 . S
C1345 H1349 0.950 . S
H1346 C1342 0.950 . S
C1347 C1345 1.390 . S
C1347 C1348 1.387 . S
C1347 H1350 0.950 . S
C1348 C1347 1.387 . S
C1348 C1351 1.387 . S
H1349 C1345 0.950 . S
H1350 C1347 0.950 . S
C1351 C1342 1.390 . S
C1351 H1344 0.950 . S
C1351 C1348 1.387 . S
C1352 C1353 1.387 1_554 S
C1352 H1356 0.950 . S
C1352 C1361 1.390 . S
C1353 C1352 1.387 1_556 S
C1353 C1355 1.387 . S
H1354 C1361 0.950 . S
C1355 C1353 1.387 . S
C1355 C1357 1.390 . S
C1355 H1359 0.950 . S
H1356 C1352 0.950 . S
C1357 C1355 1.390 . S
C1357 C1358 1.387 1_556 S
C1357 H1360 0.950 . S
C1358 C1357 1.387 1_554 S
C1358 C1361 1.387 . S
H1359 C1355 0.950 . S
H1360 C1357 0.950 . S
C1361 C1352 1.390 . S
C1361 H1354 0.950 . S
C1361 C1358 1.387 . S
C1362 C1363 1.387 1_455 S
C1362 H1366 0.950 . S
C1362 C1371 1.390 . S
C1363 C1362 1.387 1_655 S
C1363 C1365 1.387 . S
H1364 C1371 0.950 . S
C1365 C1363 1.387 . S
C1365 C1367 1.390 . S
C1365 H1369 0.950 . S
H1366 C1362 0.950 . S
C1367 C1365 1.390 . S
C1367 C1368 1.387 1_655 S
C1367 H1370 0.950 . S
C1368 C1367 1.387 1_455 S
C1368 C1371 1.387 . S
H1369 C1365 0.950 . S
H1370 C1367 0.950 . S
C1371 C1362 1.390 . S
C1371 H1364 0.950 . S
C1371 C1368 1.387 . S
C1372 C1373 1.387 . S
C1372 H1376 0.950 . S
C1372 C1381 1.390 . S
C1373 C1372 1.387 . S
C1373 C1375 1.387 . S
H1374 C1381 0.950 . S
C1375 C1373 1.387 . S
C1375 C1377 1.390 . S
C1375 H1379 0.950 . S
H1376 C1372 0.950 . S
C1377 C1375 1.390 . S
C1377 C1378 1.387 . S
C1377 H1380 0.950 . S
C1378 C1377 1.387 . S
C1378 C1381 1.387 . S
H1379 C1375 0.950 . S
H1380 C1377 0.950 . S
C1381 C1372 1.390 . S
C1381 H1374 0.950 . S
C1381 C1378 1.387 . S
C1382 C1383 1.387 . S
C1382 H1386 0.950 . S
C1382 C1391 1.390 1_545 S
C1383 C1382 1.387 . S
C1383 C1385 1.387 1_655 S
H1384 C1391 0.950 . S
C1385 C1383 1.387 1_455 S
C1385 C1387 1.390 1_545 S
C1385 H1389 0.950 . S
H1386 C1382 0.950 . S
C1387 C1385 1.390 1_565 S
C1387 C1388 1.387 . S
C1387 H1390 0.950 . S
C1388 C1387 1.387 . S
C1388 C1391 1.387 1_455 S
H1389 C1385 0.950 . S
H1390 C1387 0.950 . S
C1391 C1382 1.390 1_565 S
C1391 H1384 0.950 . S
C1391 C1388 1.387 1_655 S
C1392 C1393 1.387 . S
C1392 H1396 0.950 . S
C1392 C1401 1.390 . S
C1393 C1392 1.387 . S
C1393 C1395 1.387 . S
H1394 C1401 0.950 . S
C1395 C1393 1.387 . S
C1395 C1397 1.390 . S
C1395 H1399 0.950 . S
H1396 C1392 0.950 . S
C1397 C1395 1.390 . S
C1397 C1398 1.387 . S
C1397 H1400 0.950 . S
C1398 C1397 1.387 . S
C1398 C1401 1.387 . S
H1399 C1395 0.950 . S
H1400 C1397 0.950 . S
C1401 C1392 1.390 . S
C1401 H1394 0.950 . S
C1401 C1398 1.387 . S
C1402 C1403 1.387 . S
C1402 H1406 0.950 . S
C1402 C1411 1.390 . S
C1403 C1402 1.387 . S
C1403 C1405 1.387 1_565 S
H1404 C1411 0.950 . S
C1405 C1403 1.387 1_545 S
C1405 C1407 1.390 . S
C1405 H1409 0.950 . S
H1406 C1402 0.950 . S
C1407 C1405 1.390 . S
C1407 C1408 1.387 . S
C1407 H1410 0.950 . S
C1408 C1407 1.387 . S
C1408 C1411 1.387 1_545 S
H1409 C1405 0.950 . S
H1410 C1407 0.950 . S
C1411 C1402 1.390 . S
C1411 H1404 0.950 . S
C1411 C1408 1.387 1_565 S
C1412 C1413 1.387 . S
C1412 H1416 0.950 . S
C1412 C1421 1.390 . S
C1413 C1412 1.387 . S
C1413 C1415 1.387 . S
H1414 C1421 0.950 . S
C1415 C1413 1.387 . S
C1415 C1417 1.390 . S
C1415 H1419 0.950 . S
H1416 C1412 0.950 . S
C1417 C1415 1.390 . S
C1417 C1418 1.387 . S
C1417 H1420 0.950 . S
C1418 C1417 1.387 . S
C1418 C1421 1.387 . S
H1419 C1415 0.950 . S
H1420 C1417 0.950 . S
C1421 C1412 1.390 . S
C1421 H1414 0.950 . S
C1421 C1418 1.387 . S
C1422 C1423 1.387 . S
C1422 H1426 0.950 . S
C1422 C1431 1.390 . S
C1423 C1422 1.387 . S
C1423 C1425 1.387 1_565 S
H1424 C1431 0.950 . S
C1425 C1423 1.387 1_545 S
C1425 C1427 1.390 . S
C1425 H1429 0.950 . S
H1426 C1422 0.950 . S
C1427 C1425 1.390 . S
C1427 C1428 1.387 . S
C1427 H1430 0.950 . S
C1428 C1427 1.387 . S
C1428 C1431 1.387 1_545 S
H1429 C1425 0.950 . S
H1430 C1427 0.950 . S
C1431 C1422 1.390 . S
C1431 H1424 0.950 . S
C1431 C1428 1.387 1_565 S
C1432 C1433 1.387 . S
C1432 H1436 0.950 . S
C1432 C1441 1.390 . S
C1433 C1432 1.387 . S
C1433 C1435 1.387 . S
H1434 C1441 0.950 . S
C1435 C1433 1.387 . S
C1435 C1437 1.390 . S
C1435 H1439 0.950 . S
H1436 C1432 0.950 . S
C1437 C1435 1.390 . S
C1437 C1438 1.387 . S
C1437 H1440 0.950 . S
C1438 C1437 1.387 . S
C1438 C1441 1.387 . S
H1439 C1435 0.950 . S
H1440 C1437 0.950 . S
C1441 C1432 1.390 . S
C1441 H1434 0.950 . S
C1441 C1438 1.387 . S
C1442 C1443 1.387 . S
C1442 H1446 0.950 . S
C1442 C1451 1.390 . S
C1443 C1442 1.387 . S
C1443 C1445 1.387 . S
H1444 C1451 0.950 . S
C1445 C1443 1.387 . S
C1445 C1447 1.390 . S
C1445 H1449 0.950 . S
H1446 C1442 0.950 . S
C1447 C1445 1.390 . S
C1447 C1448 1.387 . S
C1447 H1450 0.950 . S
C1448 C1447 1.387 . S
C1448 C1451 1.387 . S
H1449 C1445 0.950 . S
H1450 C1447 0.950 . S
C1451 C1442 1.390 . S
C1451 H1444 0.950 . S
C1451 C1448 1.387 . S
C1452 C1453 1.387 . S
C1452 H1456 0.950 . S
C1452 C1461 1.390 . S
C1453 C1452 1.387 . S
C1453 C1455 1.387 . S
H1454 C1461 0.950 . S
C1455 C1453 1.387 . S
C1455 C1457 1.390 . S
C1455 H1459 0.950 . S
H1456 C1452 0.950 . S
C1457 C1455 1.390 . S
C1457 C1458 1.387 . S
C1457 H1460 0.950 . S
C1458 C1457 1.387 . S
C1458 C1461 1.387 . S
H1459 C1455 0.950 . S
H1460 C1457 0.950 . S
C1461 C1452 1.390 . S
C1461 H1454 0.950 . S
C1461 C1458 1.387 . S
C1462 C1463 1.387 . S
C1462 H1466 0.950 . S
C1462 C1471 1.390 1_556 S
C1463 C1462 1.387 . S
C1463 C1465 1.393 . S
H1464 C1471 0.950 . S
C1465 C1463 1.393 . S
C1465 C1467 1.385 1_546 S
C1465 H1469 0.949 1_545 S
H1466 C1462 0.950 . S
C1467 C1465 1.385 1_564 S
C1467 C1468 1.387 . S
C1467 H1470 0.950 . S
C1468 C1467 1.387 . S
C1468 C1471 1.387 1_565 S
H1469 C1465 0.949 1_565 S
H1470 C1467 0.950 . S
C1471 C1462 1.390 1_554 S
C1471 H1464 0.950 . S
C1471 C1468 1.387 1_545 S
C1472 C1473 1.387 . S
C1472 H1476 0.950 . S
C1472 C1481 1.390 . S
C1473 C1472 1.387 . S
C1473 C1475 1.387 . S
H1474 C1481 0.950 . S
C1475 C1473 1.387 . S
C1475 C1477 1.390 . S
C1475 H1479 0.950 . S
H1476 C1472 0.950 . S
C1477 C1475 1.390 . S
C1477 C1478 1.387 . S
C1477 H1480 0.950 . S
C1478 C1477 1.387 . S
C1478 C1481 1.387 . S
H1479 C1475 0.950 . S
H1480 C1477 0.950 . S
C1481 C1472 1.390 . S
C1481 H1474 0.950 . S
C1481 C1478 1.387 . S
C1482 C1483 1.387 . S
C1482 H1486 0.950 . S
C1482 C1491 1.390 . S
C1483 C1482 1.387 . S
C1483 C1485 1.387 . S
H1484 C1491 0.950 . S
C1485 C1483 1.387 . S
C1485 C1487 1.390 . S
C1485 H1489 0.950 . S
H1486 C1482 0.950 . S
C1487 C1485 1.390 . S
C1487 C1488 1.387 . S
C1487 H1490 0.950 . S
C1488 C1487 1.387 . S
C1488 C1491 1.387 . S
H1489 C1485 0.950 . S
H1490 C1487 0.950 . S
C1491 C1482 1.390 . S
C1491 H1484 0.950 . S
C1491 C1488 1.387 . S
C1492 C1493 1.387 . S
C1492 H1496 0.950 . S
C1492 C1501 1.390 . S
C1493 C1492 1.387 . S
C1493 C1495 1.387 . S
H1494 C1501 0.950 . S
C1495 C1493 1.387 . S
C1495 C1497 1.390 . S
C1495 H1499 0.950 . S
H1496 C1492 0.950 . S
C1497 C1495 1.390 . S
C1497 C1498 1.387 . S
C1497 H1500 0.950 . S
C1498 C1497 1.387 . S
C1498 C1501 1.387 . S
H1499 C1495 0.950 . S
H1500 C1497 0.950 . S
C1501 C1492 1.390 . S
C1501 H1494 0.950 . S
C1501 C1498 1.387 . S
C1502 C1503 1.387 . S
C1502 H1506 0.950 . S
C1502 C1511 1.390 . S
C1503 C1502 1.387 . S
C1503 C1505 1.387 . S
H1504 C1511 0.950 . S
C1505 C1503 1.387 . S
C1505 C1507 1.390 . S
C1505 H1509 0.950 . S
H1506 C1502 0.950 . S
C1507 C1505 1.390 . S
C1507 C1508 1.387 . S
C1507 H1510 0.950 . S
C1508 C1507 1.387 . S
C1508 C1511 1.387 . S
H1509 C1505 0.950 . S
H1510 C1507 0.950 . S
C1511 C1502 1.390 . S
C1511 H1504 0.950 . S
C1511 C1508 1.387 . S
C1512 C1513 1.387 . S
C1512 H1516 0.950 1_565 S
C1512 C1521 1.390 . S
C1513 C1512 1.387 . S
C1513 C1515 1.387 . S
H1514 C1521 0.950 1_545 S
C1515 C1513 1.387 . S
C1515 C1517 1.390 . S
C1515 H1519 0.950 . S
H1516 C1512 0.950 1_545 S
C1517 C1515 1.390 . S
C1517 C1518 1.387 . S
C1517 H1520 0.950 . S
C1518 C1517 1.387 . S
C1518 C1521 1.387 . S
H1519 C1515 0.950 . S
H1520 C1517 0.950 . S
C1521 C1512 1.390 . S
C1521 H1514 0.950 1_565 S
C1521 C1518 1.387 . S
C1522 C1523 1.387 . S
C1522 H1526 0.950 . S
C1522 C1531 1.390 . S
C1523 C1522 1.387 . S
C1523 C1525 1.387 . S
H1524 C1531 0.950 . S
C1525 C1523 1.387 . S
C1525 C1527 1.390 . S
C1525 H1529 0.950 . S
H1526 C1522 0.950 . S
C1527 C1525 1.390 . S
C1527 C1528 1.387 . S
C1527 H1530 0.950 . S
C1528 C1527 1.387 . S
C1528 C1531 1.387 . S
H1529 C1525 0.950 . S
H1530 C1527 0.950 . S
C1531 C1522 1.390 . S
C1531 H1524 0.950 . S
C1531 C1528 1.387 . S
C1532 C1533 1.387 . S
C1532 H1536 0.950 . S
C1532 C1541 1.390 . S
C1533 C1532 1.387 . S
C1533 C1535 1.387 . S
H1534 C1541 0.950 . S
C1535 C1533 1.387 . S
C1535 C1537 1.390 . S
C1535 H1539 0.950 . S
H1536 C1532 0.950 . S
C1537 C1535 1.390 . S
C1537 C1538 1.387 . S
C1537 H1540 0.950 . S
C1538 C1537 1.387 . S
C1538 C1541 1.387 . S
H1539 C1535 0.950 . S
H1540 C1537 0.950 . S
C1541 C1532 1.390 . S
C1541 H1534 0.950 . S
C1541 C1538 1.387 . S
C1542 C1543 1.387 . S
C1542 H1546 0.950 . S
C1542 C1551 1.390 . S
C1543 C1542 1.387 . S
C1543 C1545 1.387 . S
H1544 C1551 0.950 . S
C1545 C1543 1.387 . S
C1545 C1547 1.390 . S
C1545 H1549 0.950 . S
H1546 C1542 0.950 . S
C1547 C1545 1.390 . S
C1547 C1548 1.387 . S
C1547 H1550 0.950 . S
C1548 C1547 1.387 . S
C1548 C1551 1.387 . S
H1549 C1545 0.950 . S
H1550 C1547 0.950 . S
C1551 C1542 1.390 . S
C1551 H1544 0.950 . S
C1551 C1548 1.387 . S
C1552 C1553 1.387 . S
C1552 H1556 0.950 . S
C1552 C1561 1.390 . S
C1553 C1552 1.387 . S
C1553 C1555 1.387 . S
H1554 C1561 0.950 . S
C1555 C1553 1.387 . S
C1555 C1557 1.390 . S
C1555 H1559 0.950 . S
H1556 C1552 0.950 . S
C1557 C1555 1.390 . S
C1557 C1558 1.387 . S
C1557 H1560 0.950 . S
C1558 C1557 1.387 . S
C1558 C1561 1.387 . S
H1559 C1555 0.950 . S
H1560 C1557 0.950 . S
C1561 C1552 1.390 . S
C1561 H1554 0.950 . S
C1561 C1558 1.387 . S
C1562 C1563 1.387 . S
C1562 H1566 0.950 . S
C1562 C1571 1.390 . S
C1563 C1562 1.387 . S
C1563 C1565 1.387 . S
H1564 C1571 0.950 . S
C1565 C1563 1.387 . S
C1565 C1567 1.390 . S
C1565 H1569 0.950 . S
H1566 C1562 0.950 . S
C1567 C1565 1.390 . S
C1567 C1568 1.387 . S
C1567 H1570 0.950 . S
C1568 C1567 1.387 . S
C1568 C1571 1.387 . S
H1569 C1565 0.950 . S
H1570 C1567 0.950 . S
C1571 C1562 1.390 . S
C1571 H1564 0.950 . S
C1571 C1568 1.387 . S
C1572 C1573 1.387 . S
C1572 H1576 0.950 . S
C1572 C1581 1.390 . S
C1573 C1572 1.387 . S
C1573 C1575 1.387 . S
H1574 C1581 0.950 . S
C1575 C1573 1.387 . S
C1575 C1577 1.390 . S
C1575 H1579 0.950 . S
H1576 C1572 0.950 . S
C1577 C1575 1.390 . S
C1577 C1578 1.387 . S
C1577 H1580 0.950 . S
C1578 C1577 1.387 . S
C1578 C1581 1.387 . S
H1579 C1575 0.950 . S
H1580 C1577 0.950 . S
C1581 C1572 1.390 . S
C1581 H1574 0.950 . S
C1581 C1578 1.387 . S
C1582 C1583 1.387 . S
C1582 H1586 0.950 . S
C1582 C1591 1.390 . S
C1583 C1582 1.387 . S
C1583 C1585 1.387 . S
H1584 C1591 0.950 . S
C1585 C1583 1.387 . S
C1585 C1587 1.390 . S
C1585 H1589 0.950 . S
H1586 C1582 0.950 . S
C1587 C1585 1.390 . S
C1587 C1588 1.387 . S
C1587 H1590 0.950 . S
C1588 C1587 1.387 . S
C1588 C1591 1.387 . S
H1589 C1585 0.950 . S
H1590 C1587 0.950 . S
C1591 C1582 1.390 . S
C1591 H1584 0.950 . S
C1591 C1588 1.387 . S
C1592 C1593 1.387 . S
C1592 H1596 0.950 1_565 S
C1592 C1601 1.390 . S
C1593 C1592 1.387 . S
C1593 C1595 1.387 . S
H1594 C1601 0.950 1_545 S
C1595 C1593 1.387 . S
C1595 C1597 1.390 . S
C1595 H1599 0.950 . S
H1596 C1592 0.950 1_545 S
C1597 C1595 1.390 . S
C1597 C1598 1.387 . S
C1597 H1600 0.950 . S
C1598 C1597 1.387 . S
C1598 C1601 1.387 . S
H1599 C1595 0.950 . S
H1600 C1597 0.950 . S
C1601 C1592 1.390 . S
C1601 H1594 0.950 1_565 S
C1601 C1598 1.387 . S
C1602 C1603 1.387 . S
C1602 H1606 0.950 . S
C1602 C1611 1.390 . S
C1603 C1602 1.387 . S
C1603 C1605 1.387 . S
H1604 C1611 0.950 . S
C1605 C1603 1.387 . S
C1605 C1607 1.390 . S
C1605 H1609 0.950 . S
H1606 C1602 0.950 . S
C1607 C1605 1.390 . S
C1607 C1608 1.387 . S
C1607 H1610 0.950 . S
C1608 C1607 1.387 . S
C1608 C1611 1.387 . S
H1609 C1605 0.950 . S
H1610 C1607 0.950 . S
C1611 C1602 1.390 . S
C1611 H1604 0.950 . S
C1611 C1608 1.387 . S
C1612 C1613 1.387 . S
C1612 H1616 0.950 . S
C1612 C1621 1.390 . S
C1613 C1612 1.387 . S
C1613 C1615 1.387 . S
H1614 C1621 0.950 . S
C1615 C1613 1.387 . S
C1615 C1617 1.390 . S
C1615 H1619 0.950 . S
H1616 C1612 0.950 . S
C1617 C1615 1.390 . S
C1617 C1618 1.387 . S
C1617 H1620 0.950 . S
C1618 C1617 1.387 . S
C1618 C1621 1.387 . S
H1619 C1615 0.950 . S
H1620 C1617 0.950 . S
C1621 C1612 1.390 . S
C1621 H1614 0.950 . S
C1621 C1618 1.387 . S
C1622 C1623 1.387 . S
C1622 H1626 0.950 . S
C1622 C1631 1.390 . S
C1623 C1622 1.387 . S
C1623 C1625 1.387 . S
H1624 C1631 0.950 . S
C1625 C1623 1.387 . S
C1625 C1627 1.390 . S
C1625 H1629 0.950 . S
H1626 C1622 0.950 . S
C1627 C1625 1.390 . S
C1627 C1628 1.387 . S
C1627 H1630 0.950 . S
C1628 C1627 1.387 . S
C1628 C1631 1.387 . S
H1629 C1625 0.950 . S
H1630 C1627 0.950 . S
C1631 C1622 1.390 . S
C1631 H1624 0.950 . S
C1631 C1628 1.387 . S
C1632 C1633 1.387 . S
C1632 H1636 0.950 . S
C1632 C1641 1.390 . S
C1633 C1632 1.387 . S
C1633 C1635 1.387 . S
H1634 C1641 0.950 . S
C1635 C1633 1.387 . S
C1635 C1637 1.390 . S
C1635 H1639 0.950 1_455 S
H1636 C1632 0.950 . S
C1637 C1635 1.390 . S
C1637 C1638 1.387 . S
C1637 H1640 0.950 1_455 S
C1638 C1637 1.387 . S
C1638 C1641 1.387 . S
H1639 C1635 0.950 1_655 S
H1640 C1637 0.950 1_655 S
C1641 C1632 1.390 . S
C1641 H1634 0.950 . S
C1641 C1638 1.387 . S
C1642 C1643 1.387 . S
C1642 H1646 0.950 . S
C1642 C1651 1.390 . S
C1643 C1642 1.387 . S
C1643 C1645 1.387 . S
H1644 C1651 0.950 . S
C1645 C1643 1.387 . S
C1645 C1647 1.390 . S
C1645 H1649 0.950 . S
H1646 C1642 0.950 . S
C1647 C1645 1.390 . S
C1647 C1648 1.387 . S
C1647 H1650 0.950 . S
C1648 C1647 1.387 . S
C1648 C1651 1.387 . S
H1649 C1645 0.950 . S
H1650 C1647 0.950 . S
C1651 C1642 1.390 . S
C1651 H1644 0.950 . S
C1651 C1648 1.387 . S
C1652 C1653 1.387 . S
C1652 H1656 0.950 . S
C1652 C1661 1.390 . S
C1653 C1652 1.387 . S
C1653 C1655 1.387 . S
H1654 C1661 0.950 . S
C1655 C1653 1.387 . S
C1655 C1657 1.390 . S
C1655 H1659 0.950 1_655 S
H1656 C1652 0.950 . S
C1657 C1655 1.390 . S
C1657 C1658 1.387 . S
C1657 H1660 0.950 1_655 S
C1658 C1657 1.387 . S
C1658 C1661 1.387 . S
H1659 C1655 0.950 1_455 S
H1660 C1657 0.950 1_455 S
C1661 C1652 1.390 . S
C1661 H1654 0.950 . S
C1661 C1658 1.387 . S
C1662 C1663 1.387 . S
C1662 H1666 0.950 . S
C1662 C1671 1.390 . S
C1663 C1662 1.387 . S
C1663 C1665 1.387 . S
H1664 C1671 0.950 . S
C1665 C1663 1.387 . S
C1665 C1667 1.390 . S
C1665 H1669 0.950 . S
H1666 C1662 0.950 . S
C1667 C1665 1.390 . S
C1667 C1668 1.387 . S
C1667 H1670 0.950 . S
C1668 C1667 1.387 . S
C1668 C1671 1.387 . S
H1669 C1665 0.950 . S
H1670 C1667 0.950 . S
C1671 C1662 1.390 . S
C1671 H1664 0.950 . S
C1671 C1668 1.387 . S
C1672 C1673 1.387 . S
C1672 H1676 0.950 1_455 S
C1672 C1681 1.390 . S
C1673 C1672 1.387 . S
C1673 C1675 1.387 . S
H1674 C1681 0.950 1_655 S
C1675 C1673 1.387 . S
C1675 C1677 1.390 . S
C1675 H1679 0.950 . S
H1676 C1672 0.950 1_655 S
C1677 C1675 1.390 . S
C1677 C1678 1.387 . S
C1677 H1680 0.950 . S
C1678 C1677 1.387 . S
C1678 C1681 1.387 . S
H1679 C1675 0.950 . S
H1680 C1677 0.950 . S
C1681 C1672 1.390 . S
C1681 H1674 0.950 1_455 S
C1681 C1678 1.387 . S
C1682 C1683 1.387 . S
C1682 H1686 0.950 . S
C1682 C1691 1.390 . S
C1683 C1682 1.387 . S
C1683 C1685 1.387 . S
H1684 C1691 0.950 . S
C1685 C1683 1.387 . S
C1685 C1687 1.390 . S
C1685 H1689 0.950 . S
H1686 C1682 0.950 . S
C1687 C1685 1.390 . S
C1687 C1688 1.387 . S
C1687 H1690 0.950 . S
C1688 C1687 1.387 . S
C1688 C1691 1.387 . S
H1689 C1685 0.950 . S
H1690 C1687 0.950 . S
C1691 C1682 1.390 . S
C1691 H1684 0.950 . S
C1691 C1688 1.387 . S
C1692 C1693 1.387 . S
C1692 H1696 0.950 1_655 S
C1692 C1701 1.390 . S
C1693 C1692 1.387 . S
C1693 C1695 1.387 . S
H1694 C1701 0.950 1_455 S
C1695 C1693 1.387 . S
C1695 C1697 1.390 . S
C1695 H1699 0.950 . S
H1696 C1692 0.950 1_455 S
C1697 C1695 1.390 . S
C1697 C1698 1.387 . S
C1697 H1700 0.950 . S
C1698 C1697 1.387 . S
C1698 C1701 1.387 . S
H1699 C1695 0.950 . S
H1700 C1697 0.950 . S
C1701 C1692 1.390 . S
C1701 H1694 0.950 1_655 S
C1701 C1698 1.387 . S
C1702 C1703 1.387 . S
C1702 H1706 0.950 . S
C1702 C1711 1.390 . S
C1703 C1702 1.387 . S
C1703 C1705 1.387 . S
H1704 C1711 0.950 . S
C1705 C1703 1.387 . S
C1705 C1707 1.390 . S
C1705 H1709 0.950 . S
H1706 C1702 0.950 . S
C1707 C1705 1.390 . S
C1707 C1708 1.387 . S
C1707 H1710 0.950 . S
C1708 C1707 1.387 . S
C1708 C1711 1.387 . S
H1709 C1705 0.950 . S
H1710 C1707 0.950 . S
C1711 C1702 1.390 . S
C1711 H1704 0.950 . S
C1711 C1708 1.387 . S
C1712 C1713 1.387 . S
C1712 H1716 0.950 . S
C1712 C1721 1.390 . S
C1713 C1712 1.387 . S
C1713 C1715 1.387 . S
H1714 C1721 0.950 . S
C1715 C1713 1.387 . S
C1715 C1717 1.390 . S
C1715 H1719 0.950 . S
H1716 C1712 0.950 . S
C1717 C1715 1.390 . S
C1717 C1718 1.387 . S
C1717 H1720 0.950 . S
C1718 C1717 1.387 . S
C1718 C1721 1.387 . S
H1719 C1715 0.950 . S
H1720 C1717 0.950 . S
C1721 C1712 1.390 . S
C1721 H1714 0.950 . S
C1721 C1718 1.387 . S
C1722 C1723 1.387 . S
C1722 H1726 0.950 . S
C1722 C1731 1.390 . S
C1723 C1722 1.387 . S
C1723 C1725 1.387 . S
H1724 C1731 0.950 . S
C1725 C1723 1.387 . S
C1725 C1727 1.390 . S
C1725 H1729 0.950 . S
H1726 C1722 0.950 . S
C1727 C1725 1.390 . S
C1727 C1728 1.387 . S
C1727 H1730 0.950 . S
C1728 C1727 1.387 . S
C1728 C1731 1.387 . S
H1729 C1725 0.950 . S
H1730 C1727 0.950 . S
C1731 C1722 1.390 . S
C1731 H1724 0.950 . S
C1731 C1728 1.387 . S
C1732 C1733 1.387 . S
C1732 H1736 0.950 . S
C1732 C1741 1.390 . S
C1733 C1732 1.387 . S
C1733 C1735 1.387 . S
H1734 C1741 0.950 . S
C1735 C1733 1.387 . S
C1735 C1737 1.390 . S
C1735 H1739 0.950 . S
H1736 C1732 0.950 . S
C1737 C1735 1.390 . S
C1737 C1738 1.387 . S
C1737 H1740 0.950 . S
C1738 C1737 1.387 . S
C1738 C1741 1.387 . S
H1739 C1735 0.950 . S
H1740 C1737 0.950 . S
C1741 C1732 1.390 . S
C1741 H1734 0.950 . S
C1741 C1738 1.387 . S
C1742 C1743 1.387 . S
C1742 H1746 0.950 . S
C1742 C1751 1.390 . S
C1743 C1742 1.387 . S
C1743 C1745 1.387 . S
H1744 C1751 0.950 . S
C1745 C1743 1.387 . S
C1745 C1747 1.390 . S
C1745 H1749 0.950 . S
H1746 C1742 0.950 . S
C1747 C1745 1.390 . S
C1747 C1748 1.387 . S
C1747 H1750 0.950 . S
C1748 C1747 1.387 . S
C1748 C1751 1.387 . S
H1749 C1745 0.950 . S
H1750 C1747 0.950 . S
C1751 C1742 1.390 . S
C1751 H1744 0.950 . S
C1751 C1748 1.387 . S
C1752 C1753 1.387 . S
C1752 H1756 0.950 . S
C1752 C1761 1.390 . S
C1753 C1752 1.387 . S
C1753 C1755 1.387 . S
H1754 C1761 0.950 . S
C1755 C1753 1.387 . S
C1755 C1757 1.390 . S
C1755 H1759 0.950 . S
H1756 C1752 0.950 . S
C1757 C1755 1.390 . S
C1757 C1758 1.387 . S
C1757 H1760 0.950 . S
C1758 C1757 1.387 . S
C1758 C1761 1.387 . S
H1759 C1755 0.950 . S
H1760 C1757 0.950 . S
C1761 C1752 1.390 . S
C1761 H1754 0.950 . S
C1761 C1758 1.387 . S
C1762 C1763 1.387 . S
C1762 H1766 0.950 . S
C1762 C1771 1.390 . S
C1763 C1762 1.387 . S
C1763 C1765 1.387 . S
H1764 C1771 0.950 . S
C1765 C1763 1.387 . S
C1765 C1767 1.390 . S
C1765 H1769 0.950 . S
H1766 C1762 0.950 . S
C1767 C1765 1.390 . S
C1767 C1768 1.387 . S
C1767 H1770 0.950 . S
C1768 C1767 1.387 . S
C1768 C1771 1.387 . S
H1769 C1765 0.950 . S
H1770 C1767 0.950 . S
C1771 C1762 1.390 . S
C1771 H1764 0.950 . S
C1771 C1768 1.387 . S
C1772 C1773 1.387 . S
C1772 H1776 0.950 . S
C1772 C1781 1.390 . S
C1773 C1772 1.387 . S
C1773 C1775 1.387 . S
H1774 C1781 0.950 . S
C1775 C1773 1.387 . S
C1775 C1777 1.390 . S
C1775 H1779 0.950 . S
H1776 C1772 0.950 . S
C1777 C1775 1.390 . S
C1777 C1778 1.387 . S
C1777 H1780 0.950 . S
C1778 C1777 1.387 . S
C1778 C1781 1.387 . S
H1779 C1775 0.950 . S
H1780 C1777 0.950 . S
C1781 C1772 1.390 . S
C1781 H1774 0.950 . S
C1781 C1778 1.387 . S
C1782 C1783 1.387 . S
C1782 H1786 0.950 . S
C1782 C1791 1.390 . S
C1783 C1782 1.387 . S
C1783 C1785 1.387 . S
H1784 C1791 0.950 . S
C1785 C1783 1.387 . S
C1785 C1787 1.390 . S
C1785 H1789 0.950 . S
H1786 C1782 0.950 . S
C1787 C1785 1.390 . S
C1787 C1788 1.387 . S
C1787 H1790 0.950 . S
C1788 C1787 1.387 . S
C1788 C1791 1.387 . S
H1789 C1785 0.950 . S
H1790 C1787 0.950 . S
C1791 C1782 1.390 . S
C1791 H1784 0.950 . S
C1791 C1788 1.387 . S
C1153 C74 0.950 . S
C1158 C2 0.950 . S
C1163 C38 0.950 . S
C1168 C110 0.950 . S
C1173 C220 0.700 . S
C1178 C148 0.700 . S
C1183 C256 0.709 . S
C1188 C184 0.709 . S
C1193 C290 0.942 . S
C1198 C362 0.942 . S
C1203 C398 0.942 . S
C1208 C326 0.942 . S
C1213 C436 0.709 . S
C1218 C508 0.709 . S
C1223 C472 0.709 . S
C1228 C544 0.709 . S
C1233 C650 0.942 . S
C1238 C578 0.942 . S
C1243 C614 0.950 . S
C1248 C686 0.950 . S
C1253 C724 0.709 . S
C1258 C796 0.709 . S
C1263 C832 0.709 . S
C1268 C760 0.709 . S
C1273 C938 0.950 . S
C1278 C866 0.950 . S
C1283 C974 0.942 . S
C1288 C902 0.942 . S
C1293 C1084 0.709 . S
C1298 C1012 0.709 . S
C1303 C1048 0.709 . S
C1308 C1120 0.709 . S
C1313 C158 1.472 . S
C1318 C3 1.630 . S
C1323 C1058 1.474 . S
C1328 C39 1.630 . S
C1333 C75 1.631 . S
C1338 C518 1.475 . S
C1343 C111 1.631 . S
C1348 C842 1.476 . S
C1353 C194 1.474 . S
C1358 C903 1.630 . S
C1363 C230 1.473 . S
C1368 C363 1.630 . S
C1373 C687 1.631 . S
C1378 C266 1.475 . S
C1383 C446 1.476 . S
C1388 C291 1.631 . S
C1393 C770 1.474 . S
C1398 C327 1.630 . S
C1403 C399 1.630 . S
C1408 C1130 1.473 . S
C1413 C482 1.471 . S
C1418 C615 1.629 . S
C1423 C975 1.629 . S
C1428 C554 1.471 . S
C1433 C734 1.474 . S
C1438 C579 1.630 . S
C1443 C651 1.630 . S
C1448 C1094 1.472 . S
C1453 C806 1.474 . S
C1458 C939 1.630 . S
C1463 C1022 1.472 . S
C1468 C867 1.629 . S
C1473 C112 1.521 . S
C1478 C4 1.521 . S
C1483 C76 1.521 . S
C1488 C40 1.521 . S
C1493 C254 1.460 . S
C1498 C146 1.460 . S
C1503 C218 1.460 . S
C1508 C182 1.460 . S
C1513 C400 1.523 . S
C1518 C292 1.522 . S
C1523 C364 1.521 . S
C1528 C328 1.521 . S
C1533 C542 1.460 . S
C1538 C434 1.460 . S
C1543 C506 1.460 . S
C1548 C470 1.460 . S
C1553 C580 1.521 . S
C1558 C688 1.521 . S
C1563 C652 1.523 . S
C1568 C616 1.523 . S
C1573 C722 1.460 . S
C1578 C830 1.460 . S
C1583 C794 1.460 . S
C1588 C758 1.460 . S
C1593 C976 1.523 . S
C1598 C868 1.523 . S
C1603 C904 1.523 . S
C1608 C940 1.523 . S
C1613 C1010 1.463 . S
C1618 C1118 1.463 . S
C1623 C1082 1.463 . S
C1628 C1046 1.463 . S
C1633 C86 1.701 1_545 S
C1638 C14 1.701 . S
C1643 C50 1.700 1_545 S
C1648 C122 1.700 . S
C1653 C147 1.347 . S
C1658 C219 1.347 1_565 S
C1663 C183 1.347 1_565 S
C1668 C255 1.347 . S
C1673 C302 1.700 . S
C1678 C374 1.700 . S
C1683 C338 1.700 . S
C1688 C410 1.700 . S
C1693 C507 1.347 . S
C1698 C435 1.347 . S
C1703 C543 1.348 . S
C1708 C471 1.348 . S
C1713 C662 1.701 1_545 S
C1718 C590 1.701 . S
C1723 C698 1.700 . S
C1728 C626 1.700 1_545 S
C1733 C723 1.348 . S
C1738 C795 1.348 1_565 S
C1743 C831 1.348 . S
C1748 C759 1.347 1_565 S
C1753 C950 1.700 . S
C1758 C878 1.700 . S
C1763 C914 1.700 . S
C1768 C986 1.700 . S
C1773 C1011 1.347 . S
C1778 C1083 1.347 . S
C1783 C1119 1.348 . S
C1788 C1047 1.348 . S
