# Generated by pormake.
# Topology vmg, (6)-cn, num edge types: 1
# Building blocks:
#     Node 0, Type 0, BuildingBlock: MIDCAF_clean_sbu_0, # of connection points: 6
#     Node 1, Type 0, BuildingBlock: MIDCAF_clean_sbu_0, # of connection points: 6
#     Node 2, Type 0, BuildingBlock: MIDCAF_clean_sbu_0, # of connection points: 6
#     Node 3, Type 0, BuildingBlock: MIDCAF_clean_sbu_0, # of connection points: 6
#     Node 4, Type 0, BuildingBlock: MIDCAF_clean_sbu_0, # of connection points: 6
#     Node 5, Type 0, BuildingBlock: MIDCAF_clean_sbu_0, # of connection points: 6
#     Node 6, Type 0, BuildingBlock: MIDCAF_clean_sbu_0, # of connection points: 6
#     Node 7, Type 0, BuildingBlock: MIDCAF_clean_sbu_0, # of connection points: 6
#     Edge 8, Type (0, 0), BuildingBlock: TEMPAE_clean_linker_10, # of connection points: 2
#     Edge 9, Type (0, 0), BuildingBlock: TEMPAE_clean_linker_10, # of connection points: 2
#     Edge 10, Type (0, 0), BuildingBlock: TEMPAE_clean_linker_10, # of connection points: 2
#     Edge 11, Type (0, 0), BuildingBlock: TEMPAE_clean_linker_10, # of connection points: 2
#     Edge 12, Type (0, 0), BuildingBlock: TEMPAE_clean_linker_10, # of connection points: 2
#     Edge 13, Type (0, 0), BuildingBlock: TEMPAE_clean_linker_10, # of connection points: 2
#     Edge 14, Type (0, 0), BuildingBlock: TEMPAE_clean_linker_10, # of connection points: 2
#     Edge 15, Type (0, 0), BuildingBlock: TEMPAE_clean_linker_10, # of connection points: 2
#     Edge 16, Type (0, 0), BuildingBlock: TEMPAE_clean_linker_10, # of connection points: 2
#     Edge 17, Type (0, 0), BuildingBlock: TEMPAE_clean_linker_10, # of connection points: 2
#     Edge 18, Type (0, 0), BuildingBlock: TEMPAE_clean_linker_10, # of connection points: 2
#     Edge 19, Type (0, 0), BuildingBlock: TEMPAE_clean_linker_10, # of connection points: 2
#     Edge 20, Type (0, 0), BuildingBlock: TEMPAE_clean_linker_10, # of connection points: 2
#     Edge 21, Type (0, 0), BuildingBlock: TEMPAE_clean_linker_10, # of connection points: 2
#     Edge 22, Type (0, 0), BuildingBlock: TEMPAE_clean_linker_10, # of connection points: 2
#     Edge 23, Type (0, 0), BuildingBlock: TEMPAE_clean_linker_10, # of connection points: 2
#     Edge 24, Type (0, 0), BuildingBlock: TEMPAE_clean_linker_10, # of connection points: 2
#     Edge 25, Type (0, 0), BuildingBlock: TEMPAE_clean_linker_10, # of connection points: 2
#     Edge 26, Type (0, 0), BuildingBlock: TEMPAE_clean_linker_10, # of connection points: 2
#     Edge 27, Type (0, 0), BuildingBlock: TEMPAE_clean_linker_10, # of connection points: 2
#     Edge 28, Type (0, 0), BuildingBlock: TEMPAE_clean_linker_10, # of connection points: 2
#     Edge 29, Type (0, 0), BuildingBlock: TEMPAE_clean_linker_10, # of connection points: 2
#     Edge 30, Type (0, 0), BuildingBlock: TEMPAE_clean_linker_10, # of connection points: 2
#     Edge 31, Type (0, 0), BuildingBlock: TEMPAE_clean_linker_10, # of connection points: 2
# Relax obj value: 0.370
# Max RMSD: 0.252
# Mean RMSD: 0.252
data_MOF--net-vmg--node1-MIDCAF_clean_sbu_0--edge1-TEMPAE_clean_linker_10
_symmetry_space_group_name_H-M    P1
_symmetry_Int_Tables_number       1
_symmetry_cell_setting            triclinic
loop_
_symmetry_equiv_pos_as_xyz
'x, y, z'
_cell_length_a     24.964701
_cell_length_b     45.254983
_cell_length_c     26.361494
_cell_angle_alpha  89.888303
_cell_angle_beta   93.959189
_cell_angle_gamma 90.326301
loop_
_atom_site_label
_atom_site_type_symbol
_atom_site_fract_x
_atom_site_fract_y
_atom_site_fract_z
_atom_type_partial_charge
Zn0 Zn 0.06935 0.41086 0.13199 0.0
Zn1 Zn 0.31186 0.38223 0.06716 0.0
Zn2 Zn 0.21997 0.39318 0.08926 0.0
C3 C 0.31938 0.41623 0.15571 0.0
C4 C 0.26447 0.32871 0.08757 0.0
O5 O 0.18595 0.42278 0.03057 0.0
O6 O 0.12493 0.41021 0.07981 0.0
C7 C 0.17614 0.42789 0.19244 0.0
O8 O 0.26857 0.4116 0.15352 0.0
O9 O 0.34677 0.4079 0.11994 0.0
O10 O 0.31069 0.33926 0.08255 0.0
O11 O 0.22345 0.34566 0.08743 0.0
O12 O 0.12478 0.42657 0.18675 0.0
O13 O 0.20848 0.41728 0.16071 0.0
O14 O 0.17221 0.35215 0.10306 0.0
O15 O 0.10368 0.37975 0.08732 0.0
C16 C 0.12161 0.35546 0.10517 0.0
O17 O 0.23433 0.41407 0.01329 0.0
O18 O 0.3125 0.39556 0.99564 0.0
C19 C 0.14048 0.42811 0.04718 0.0
C20 C 0.27239 0.41139 0.98274 0.0
Zn21 Zn 0.85972 0.42836 0.36686 0.0
Zn22 Zn 0.65508 0.37884 0.43413 0.0
Zn23 Zn 0.76755 0.41094 0.38284 0.0
C24 C 0.66038 0.42357 0.34294 0.0
C25 C 0.74286 0.34067 0.40203 0.0
O26 O 0.79913 0.43765 0.44897 0.0
O27 O 0.87532 0.45536 0.4231 0.0
C28 C 0.79233 0.44882 0.28558 0.0
O29 O 0.70661 0.43037 0.32884 0.0
O30 O 0.6584 0.40589 0.379 0.0
O31 O 0.69893 0.34402 0.42261 0.0
O32 O 0.7704 0.36245 0.38549 0.0
O33 O 0.84162 0.44687 0.29926 0.0
O34 O 0.75658 0.43776 0.31309 0.0
O35 O 0.81768 0.37326 0.35749 0.0
O36 O 0.89998 0.39099 0.36788 0.0
C37 C 0.86876 0.37 0.35471 0.0
O38 O 0.74702 0.42519 0.46051 0.0
O39 O 0.6758 0.40344 0.49371 0.0
C40 C 0.84113 0.45416 0.45593 0.0
C41 C 0.71442 0.42182 0.49639 0.0
Zn42 Zn 0.85226 0.58929 0.82794 0.0
Zn43 Zn 0.66212 0.63345 0.95327 0.0
Zn44 Zn 0.78836 0.6065 0.87199 0.0
C45 C 0.67965 0.61025 0.84373 0.0
C46 C 0.76907 0.65781 0.91987 0.0
O47 O 0.82615 0.57563 0.92418 0.0
O48 O 0.90046 0.58981 0.89112 0.0
C49 C 0.77622 0.55915 0.78527 0.0
O50 O 0.71887 0.6014 0.81971 0.0
O51 O 0.69166 0.62009 0.88787 0.0
O52 O 0.72898 0.64065 0.91538 0.0
O53 O 0.80722 0.65212 0.89195 0.0
O54 O 0.82233 0.5511 0.80205 0.0
O55 O 0.7568 0.58352 0.80095 0.0
O56 O 0.84277 0.64381 0.85429 0.0
O57 O 0.85142 0.62354 0.78002 0.0
C58 C 0.85768 0.64576 0.80858 0.0
O59 O 0.76908 0.58435 0.94704 0.0
O60 O 0.69672 0.59838 0.98994 0.0
C61 C 0.87755 0.57713 0.92648 0.0
C62 C 0.73745 0.58181 0.9843 0.0
Zn63 Zn 0.30957 0.59836 0.53854 0.0
Zn64 Zn 0.19711 0.59825 0.68546 0.0
Zn65 Zn 0.22371 0.58887 0.5963 0.0
C66 C 0.1528 0.64172 0.63115 0.0
C67 C 0.26518 0.55671 0.7019 0.0
O68 O 0.22988 0.55984 0.52961 0.0
O69 O 0.30306 0.56767 0.48921 0.0
C70 C 0.2648 0.64989 0.56189 0.0
O71 O 0.15534 0.6204 0.5989 0.0
O72 O 0.18478 0.64154 0.67071 0.0
O73 O 0.25817 0.58017 0.72662 0.0
O74 O 0.25028 0.55562 0.65433 0.0
O75 O 0.28065 0.63835 0.52215 0.0
O76 O 0.25423 0.63378 0.59962 0.0
O77 O 0.28916 0.60736 0.64359 0.0
O78 O 0.35604 0.59094 0.60116 0.0
C79 C 0.33846 0.60038 0.64177 0.0
O80 O 0.13836 0.58462 0.59687 0.0
O81 O 0.12987 0.57159 0.67615 0.0
C82 C 0.26067 0.55315 0.49441 0.0
C83 C 0.11119 0.57203 0.63033 0.0
Zn84 Zn 0.72534 0.95183 0.11801 0.0
Zn85 Zn 0.76166 0.84428 0.99195 0.0
Zn86 Zn 0.75066 0.90094 0.10119 0.0
C87 C 0.83856 0.85648 0.06354 0.0
C88 C 0.7003 0.84271 0.07964 0.0
O89 O 0.69329 0.92112 0.04563 0.0
O90 O 0.68741 0.96899 0.05623 0.0
C91 C 0.81259 0.94868 0.17323 0.0
O92 O 0.79612 0.87113 0.06623 0.0
O93 O 0.83757 0.83617 0.03045 0.0
O94 O 0.69923 0.8553 0.03674 0.0
O95 O 0.71725 0.85803 0.11839 0.0
O96 O 0.79464 0.96934 0.14484 0.0
O97 O 0.79776 0.92223 0.16273 0.0
O98 O 0.68994 0.88563 0.14351 0.0
O99 O 0.67609 0.9312 0.16878 0.0
C100 C 0.66595 0.90361 0.17106 0.0
O101 O 0.76076 0.91242 0.02271 0.0
O102 O 0.76784 0.88352 0.9544 0.0
C103 C 0.6728 0.94596 0.03208 0.0
C104 C 0.76721 0.90893 0.97521 0.0
Zn105 Zn 0.27613 0.94807 0.35517 0.0
Zn106 Zn 0.13886 0.88041 0.45623 0.0
Zn107 Zn 0.24252 0.90511 0.3859 0.0
C108 C 0.11231 0.89655 0.35011 0.0
C109 C 0.24494 0.85074 0.42514 0.0
O110 O 0.29257 0.93208 0.44382 0.0
O111 O 0.32509 0.96963 0.40214 0.0
C112 C 0.19669 0.94925 0.29474 0.0
O113 O 0.16242 0.90244 0.34557 0.0
O114 O 0.0946 0.88914 0.39244 0.0
O115 O 0.20487 0.86634 0.43134 0.0
O116 O 0.27712 0.86079 0.39396 0.0
O117 O 0.21737 0.97041 0.32036 0.0
O118 O 0.20224 0.92273 0.31237 0.0
O119 O 0.30634 0.88033 0.36087 0.0
O120 O 0.31769 0.9194 0.3125 0.0
C121 C 0.32905 0.89286 0.32452 0.0
O122 O 0.23456 0.92717 0.459 0.0
O123 O 0.16161 0.91436 0.49978 0.0
C124 C 0.32562 0.95404 0.44168 0.0
C125 C 0.20364 0.92994 0.49599 0.0
Zn126 Zn 0.38091 0.07779 0.88052 0.0
Zn127 Zn 0.16443 0.11189 0.95499 0.0
Zn128 Zn 0.29508 0.08697 0.89146 0.0
C129 C 0.1976 0.09876 0.84757 0.0
C130 C 0.28496 0.13273 0.95046 0.0
O131 O 0.31511 0.04624 0.92822 0.0
O132 O 0.39253 0.06551 0.95426 0.0
C133 C 0.31629 0.05086 0.8012 0.0
O134 O 0.23898 0.09124 0.82506 0.0
O135 O 0.20673 0.10871 0.89224 0.0
O136 O 0.24221 0.11841 0.93847 0.0
O137 O 0.32624 0.12502 0.92896 0.0
O138 O 0.35903 0.04472 0.8279 0.0
O139 O 0.28896 0.07348 0.81354 0.0
O140 O 0.31124 0.10583 0.81502 0.0
O141 O 0.39 0.1189 0.85027 0.0
C142 C 0.35494 0.12115 0.81331 0.0
O143 O 0.25131 0.05658 0.94416 0.0
O144 O 0.17588 0.0702 0.98184 0.0
C145 C 0.35913 0.0444 0.95566 0.0
C146 C 0.2123 0.05133 0.97325 0.0
Zn147 Zn 0.83635 0.08742 0.57237 0.0
Zn148 Zn 0.60833 0.05713 0.6619 0.0
Zn149 Zn 0.7458 0.08058 0.59334 0.0
C150 C 0.65118 0.11015 0.60945 0.0
C151 C 0.71798 0.05691 0.71639 0.0
O152 O 0.76137 0.05021 0.52813 0.0
O153 O 0.84905 0.05542 0.5256 0.0
C154 C 0.7826 0.13984 0.54551 0.0
O155 O 0.6927 0.12041 0.58968 0.0
O156 O 0.65075 0.08263 0.61632 0.0
O157 O 0.66698 0.05406 0.71819 0.0
O158 O 0.74172 0.06476 0.6758 0.0
O159 O 0.82623 0.12637 0.54198 0.0
O160 O 0.74395 0.12729 0.56752 0.0
O161 O 0.79867 0.07233 0.66315 0.0
O162 O 0.87739 0.08552 0.63691 0.0
C163 C 0.84948 0.07658 0.67183 0.0
O164 O 0.71028 0.04466 0.54439 0.0
O165 O 0.65832 0.05121 0.60461 0.0
C166 C 0.80595 0.04309 0.50928 0.0
C167 C 0.66902 0.03612 0.56631 0.0
C168 C 0.56731 0.43794 0.35399 0.0
C169 C 0.60918 0.43544 0.32131 0.0
C170 C 0.51404 0.44078 0.33498 0.0
C171 C 0.50229 0.44109 0.28188 0.0
C172 C 0.54493 0.44144 0.24874 0.0
C173 C 0.59833 0.4387 0.269 0.0
C174 C 0.47032 0.4407 0.3718 0.0
C175 C 0.5339 0.44186 0.19178 0.0
C176 C 0.37945 0.40067 0.22665 0.0
C177 C 0.35012 0.42376 0.20315 0.0
C178 C 0.42807 0.40615 0.2546 0.0
C179 C 0.44632 0.43566 0.26107 0.0
C180 C 0.41287 0.45928 0.24359 0.0
C181 C 0.36543 0.45304 0.21345 0.0
C182 C 0.46234 0.38016 0.27234 0.0
C183 C 0.42926 0.491 0.2532 0.0
H184 H 0.57586 0.43567 0.39474 0.0
H185 H 0.63074 0.43666 0.2439 0.0
H186 H 0.43713 0.45553 0.35845 0.0
H187 H 0.45348 0.41807 0.37462 0.0
H188 H 0.48583 0.44764 0.41051 0.0
H189 H 0.57114 0.44516 0.17163 0.0
H190 H 0.51512 0.42057 0.17921 0.0
H191 H 0.50525 0.4597 0.18037 0.0
H192 H 0.36763 0.37802 0.2179 0.0
H193 H 0.34287 0.47087 0.19479 0.0
H194 H 0.47451 0.38211 0.31343 0.0
H195 H 0.49958 0.37993 0.25163 0.0
H196 H 0.44121 0.35869 0.26583 0.0
H197 H 0.44662 0.49389 0.29279 0.0
H198 H 0.3947 0.50621 0.24655 0.0
H199 H 0.46057 0.49736 0.2273 0.0
C200 C 0.61381 0.61017 0.76978 0.0
C201 C 0.62429 0.60829 0.82238 0.0
C202 C 0.56117 0.60929 0.74838 0.0
C203 C 0.51844 0.60547 0.78051 0.0
C204 C 0.52889 0.60303 0.8337 0.0
C205 C 0.58204 0.60493 0.85423 0.0
C206 C 0.5514 0.61228 0.69135 0.0
C207 C 0.48429 0.59762 0.86853 0.0
C208 C 0.38793 0.62733 0.71187 0.0
C209 C 0.37476 0.6008 0.68715 0.0
C210 C 0.43271 0.62879 0.74683 0.0
C211 C 0.4633 0.60293 0.75727 0.0
C212 C 0.44588 0.57545 0.73659 0.0
C213 C 0.40222 0.57486 0.70077 0.0
C214 C 0.45052 0.65846 0.7681 0.0
C215 C 0.47644 0.54724 0.74801 0.0
H216 H 0.64681 0.6129 0.74544 0.0
H217 H 0.59066 0.60312 0.89499 0.0
H218 H 0.53386 0.59147 0.6752 0.0
H219 H 0.52222 0.63021 0.68197 0.0
H220 H 0.58888 0.61717 0.67244 0.0
H221 H 0.49875 0.59866 0.9093 0.0
H222 H 0.45181 0.61402 0.86128 0.0
H223 H 0.46637 0.57546 0.86072 0.0
H224 H 0.36623 0.64726 0.7007 0.0
H225 H 0.39106 0.55433 0.6815 0.0
H226 H 0.48577 0.66633 0.74832 0.0
H227 H 0.46311 0.65669 0.80916 0.0
H228 H 0.4183 0.67524 0.7629 0.0
H229 H 0.51226 0.54669 0.72533 0.0
H230 H 0.45144 0.52739 0.73818 0.0
H231 H 0.49061 0.546 0.78876 0.0
C232 C 0.09398 0.89122 0.25602 0.0
C233 C 0.07472 0.89422 0.30442 0.0
C234 C 0.05896 0.88529 0.21334 0.0
C235 C 0.00365 0.88123 0.21971 0.0
C236 C 0.98383 0.88417 0.26842 0.0
C237 C 0.01949 0.89103 0.31004 0.0
C238 C 0.08119 0.88315 0.16164 0.0
C239 C 0.92521 0.87923 0.27686 0.0
C240 C 0.8974 0.89148 0.11257 0.0
C241 C 0.88477 0.8622 0.09941 0.0
C242 C 0.93806 0.898 0.15002 0.0
C243 C 0.96583 0.87457 0.17546 0.0
C244 C 0.95432 0.84489 0.16118 0.0
C245 C 0.91406 0.83903 0.12262 0.0
C246 C 0.95002 0.9299 0.16363 0.0
C247 C 0.98286 0.81938 0.18805 0.0
H248 H 0.1366 0.89227 0.25167 0.0
H249 H 0.00417 0.89296 0.34737 0.0
H250 H 0.06831 0.86216 0.14274 0.0
H251 H 0.06514 0.90148 0.13716 0.0
H252 H 0.12571 0.88436 0.16382 0.0
H253 H 0.91557 0.88444 0.31638 0.0
H254 H 0.89969 0.89297 0.25023 0.0
H255 H 0.91439 0.8558 0.26883 0.0
H256 H 0.87495 0.90933 0.09378 0.0
H257 H 0.90383 0.81641 0.11228 0.0
H258 H 0.99346 0.93461 0.16142 0.0
H259 H 0.94027 0.93411 0.2034 0.0
H260 H 0.9268 0.94553 0.13823 0.0
H261 H 0.02697 0.82214 0.18722 0.0
H262 H 0.97106 0.79775 0.17069 0.0
H263 H 0.97343 0.81904 0.22857 0.0
C264 C 0.1261 0.09202 0.77692 0.0
C265 C 0.14263 0.09008 0.82856 0.0
C266 C 0.07259 0.0857 0.75988 0.0
C267 C 0.03536 0.07653 0.79528 0.0
C268 C 0.05289 0.07281 0.8469 0.0
C269 C 0.10604 0.07999 0.86291 0.0
C270 C 0.05549 0.08967 0.70425 0.0
C271 C 0.01534 0.06188 0.8855 0.0
C272 C 0.89352 0.09657 0.74985 0.0
C273 C 0.8784 0.07155 0.72121 0.0
C274 C 0.9431 0.09765 0.77829 0.0
C275 C 0.97754 0.07287 0.77847 0.0
C276 C 0.95858 0.04609 0.75593 0.0
C277 C 0.90924 0.04585 0.72696 0.0
C278 C 0.96128 0.12654 0.80246 0.0
C279 C 0.99277 0.01868 0.75722 0.0
H280 H 0.15444 0.09948 0.75021 0.0
H281 H 0.11884 0.07748 0.9025 0.0
H282 H 0.03913 0.06858 0.68819 0.0
H283 H 0.02301 0.10632 0.69982 0.0
H284 H 0.08921 0.09694 0.68173 0.0
H285 H 0.03709 0.05618 0.92239 0.0
H286 H 0.98551 0.07922 0.89241 0.0
H287 H 0.99273 0.04211 0.87096 0.0
H288 H 0.86998 0.11656 0.74466 0.0
H289 H 0.89792 0.02661 0.70411 0.0
H290 H 0.99169 0.13699 0.77928 0.0
H291 H 0.98044 0.12287 0.84114 0.0
H292 H 0.92744 0.14218 0.8051 0.0
H293 H 0.0216 0.02023 0.7271 0.0
H294 H 0.96787 -0.00152 0.7502 0.0
H295 H 0.01627 0.01636 0.79428 0.0
C296 C 0.2182 0.28411 0.0542 0.0
C297 C 0.25742 0.29679 0.08779 0.0
C298 C 0.2203 0.25408 0.04257 0.0
C299 C 0.26136 0.23658 0.06693 0.0
C300 C 0.29628 0.24865 0.10608 0.0
C301 C 0.29483 0.27902 0.1152 0.0
C302 C 0.1829 0.24209 -0.00011 0.0
C303 C 0.33837 0.23016 0.13484 0.0
C304 C 0.25084 0.15717 0.02547 0.0
C305 C 0.28539 0.15737 0.98586 0.0
C306 C 0.24594 0.18223 0.05569 0.0
C307 C 0.27442 0.20814 0.044 0.0
C308 C 0.31135 0.20786 0.00548 0.0
C309 C 0.31712 0.18211 0.97742 0.0
C310 C 0.20837 0.18136 0.09814 0.0
C311 C 0.34184 0.2353 0.99132 0.0
H312 H 0.18932 0.29815 0.03326 0.0
H313 H 0.32453 0.28909 0.14186 0.0
H314 H 0.2061 0.23757 0.96633 0.0
H315 H 0.16448 0.22097 0.01118 0.0
H316 H 0.1503 0.25784 0.98831 0.0
H317 H 0.35174 0.24043 0.17185 0.0
H318 H 0.32296 0.20756 0.14184 0.0
H319 H 0.3739 0.22809 0.11208 0.0
H320 H 0.22699 0.13762 0.03221 0.0
H321 H 0.34376 0.18198 0.9466 0.0
H322 H 0.16915 0.19094 0.08464 0.0
H323 H 0.22458 0.19454 0.13124 0.0
H324 H 0.20112 0.15834 0.11083 0.0
H325 H 0.31312 0.2528 0.97817 0.0
H326 H 0.36924 0.23109 0.9607 0.0
H327 H 0.36598 0.24398 0.02495 0.0
C328 C 0.80663 0.30562 0.44283 0.0
C329 C 0.76478 0.31092 0.40598 0.0
C330 C 0.81284 0.27762 0.46532 0.0
C331 C 0.77671 0.25459 0.4497 0.0
C332 C 0.73774 0.25928 0.40898 0.0
C333 C 0.73198 0.28754 0.38784 0.0
C334 C 0.85496 0.27348 0.5086 0.0
C335 C 0.69956 0.23504 0.39024 0.0
C336 C 0.81093 0.17538 0.48126 0.0
C337 C 0.77815 0.16923 0.5213 0.0
C338 C 0.81157 0.2032 0.45844 0.0
C339 C 0.77873 0.22565 0.4761 0.0
C340 C 0.74564 0.21983 0.51676 0.0
C341 C 0.74532 0.19143 0.53871 0.0
C342 C 0.84691 0.20842 0.41493 0.0
C343 C 0.71083 0.24362 0.53702 0.0
H344 H 0.83086 0.32403 0.45775 0.0
H345 H 0.69886 0.292 0.36009 0.0
H346 H 0.83509 0.27209 0.54491 0.0
H347 H 0.87711 0.25256 0.50427 0.0
H348 H 0.88427 0.29208 0.51128 0.0
H349 H 0.67484 0.2416 0.35543 0.0
H350 H 0.7221 0.21476 0.38191 0.0
H351 H 0.67223 0.22938 0.42031 0.0
H352 H 0.83624 0.15822 0.46732 0.0
H353 H 0.72052 0.18683 0.57 0.0
H354 H 0.874 0.22757 0.42331 0.0
H355 H 0.82165 0.21384 0.37989 0.0
H356 H 0.87179 0.18888 0.40719 0.0
H357 H 0.73565 0.26334 0.5479 0.0
H358 H 0.68989 0.23608 0.57061 0.0
H359 H 0.68029 0.25065 0.5069 0.0
C360 C 0.75047 0.79708 0.1052 0.0
C361 C 0.70594 0.81058 0.07982 0.0
C362 C 0.76616 0.7687 0.09099 0.0
C363 C 0.73662 0.75413 0.05051 0.0
C364 C 0.68834 0.76655 0.02892 0.0
C365 C 0.6735 0.79465 0.04415 0.0
C366 C 0.81677 0.75571 0.11616 0.0
C367 C 0.65516 0.75161 0.98607 0.0
C368 C 0.79589 0.70831 0.9498 0.0
C369 C 0.77179 0.68105 0.95866 0.0
C370 C 0.78927 0.73205 0.98291 0.0
C371 C 0.75842 0.72798 0.02567 0.0
C372 C 0.73943 0.69956 0.03761 0.0
C373 C 0.74612 0.67642 0.00369 0.0
C374 C 0.81095 0.76207 0.96959 0.0
C375 C 0.70796 0.69414 0.08367 0.0
H376 H 0.7757 0.80956 0.13271 0.0
H377 H 0.6389 0.80527 0.02491 0.0
H378 H 0.81424 0.73126 0.11834 0.0
H379 H 0.85119 0.76155 0.09355 0.0
H380 H 0.82519 0.76469 0.15511 0.0
H381 H 0.61694 0.76338 0.97604 0.0
H382 H 0.67849 0.75079 0.95174 0.0
H383 H 0.64552 0.72854 0.99651 0.0
H384 H 0.81656 0.71162 0.91537 0.0
H385 H 0.72946 0.65489 0.0116 0.0
H386 H 0.8325 0.77228 0.0034 0.0
H387 H 0.77712 0.77683 0.95726 0.0
H388 H 0.83875 0.7609 0.93852 0.0
H389 H 0.7257 0.70654 0.11705 0.0
H390 H 0.70636 0.67027 0.09349 0.0
H391 H 0.66619 0.70199 0.07576 0.0
C392 C 0.21164 0.69276 0.53303 0.0
C393 C 0.25575 0.68162 0.56226 0.0
C394 C 0.20952 0.72263 0.51955 0.0
C395 C 0.25299 0.7414 0.5355 0.0
C396 C 0.29485 0.73076 0.56958 0.0
C397 C 0.29597 0.70066 0.58237 0.0
C398 C 0.16328 0.73337 0.48449 0.0
C399 C 0.34048 0.75055 0.58915 0.0
C400 C 0.28159 0.79973 0.43762 0.0
C401 C 0.25355 0.82373 0.4555 0.0
C402 C 0.28351 0.77296 0.46468 0.0
C403 C 0.2578 0.77065 0.51095 0.0
C404 C 0.23257 0.79552 0.53069 0.0
C405 C 0.23023 0.82167 0.50238 0.0
C406 C 0.31058 0.74669 0.44246 0.0
C407 C 0.20558 0.79426 0.58022 0.0
H408 H 0.18065 0.67767 0.51782 0.0
H409 H 0.33001 0.69169 0.60502 0.0
H410 H 0.14693 0.75421 0.49897 0.0
H411 H 0.17771 0.73808 0.4464 0.0
H412 H 0.13022 0.71683 0.48013 0.0
H413 H 0.36423 0.74043 0.62184 0.0
H414 H 0.36764 0.75469 0.55829 0.0
H415 H 0.32515 0.77225 0.60105 0.0
H416 H 0.29968 0.80145 0.4015 0.0
H417 H 0.20919 0.84048 0.5167 0.0
H418 H 0.28029 0.72918 0.43277 0.0
H419 H 0.34068 0.73728 0.47083 0.0
H420 H 0.33093 0.75252 0.40759 0.0
H421 H 0.16507 0.78424 0.57346 0.0
H422 H 0.20071 0.81667 0.59637 0.0
H423 H 0.22859 0.78045 0.60881 0.0
C424 C 0.96276 0.57066 0.97759 0.0
C425 C 0.91176 0.55959 0.96201 0.0
C426 C 0.00336 0.55178 0.99679 0.0
C427 C 0.99213 0.52128 0.00071 0.0
C428 C 0.93937 0.51041 0.98918 0.0
C429 C 0.8997 0.52977 0.96934 0.0
C430 C 0.05912 0.56413 0.00877 0.0
C431 C 0.92574 0.47805 0.99442 0.0
C432 C 0.09936 0.46407 0.98479 0.0
C433 C 0.10982 0.45492 0.03506 0.0
C434 C 0.06274 0.48687 0.97318 0.0
C435 C 0.03616 0.50031 0.01296 0.0
C436 C 0.04903 0.49215 0.064 0.0
C437 C 0.08589 0.46951 0.07439 0.0
C438 C 0.05052 0.49558 0.9183 0.0
C439 C 0.02168 0.50603 0.10736 0.0
H440 H 0.97194 0.59378 0.97121 0.0
H441 H 0.86046 0.52123 0.95636 0.0
H442 H 0.07704 0.5551 0.04518 0.0
H443 H 0.08532 0.55753 0.97844 0.0
H444 H 0.05919 0.58865 0.01111 0.0
H445 H 0.88179 0.47387 0.9895 0.0
H446 H 0.94567 0.4652 0.96533 0.0
H447 H 0.94082 0.46967 0.0323 0.0
H448 H 0.11726 0.45234 0.95447 0.0
H449 H 0.09486 0.46264 0.11337 0.0
H450 H 0.0566 0.51972 0.91365 0.0
H451 H 0.00782 0.49065 0.90675 0.0
H452 H 0.07612 0.48375 0.89221 0.0
H453 H 0.02102 0.53045 0.10363 0.0
H454 H 0.04166 0.50016 0.14497 0.0
H455 H 0.97938 0.49829 0.10634 0.0
C456 C 0.01811 0.55489 0.64743 0.0
C457 C 0.05943 0.55799 0.61434 0.0
C458 C 0.97007 0.5401 0.63161 0.0
C459 C 0.96467 0.52732 0.58249 0.0
C460 C 0.00617 0.53094 0.5489 0.0
C461 C 0.05257 0.54655 0.56507 0.0
C462 C 0.9259 0.53759 0.66771 0.0
C463 C 0.00264 0.51742 0.49631 0.0
C464 C 0.89017 0.45911 0.53907 0.0
C465 C 0.85332 0.47108 0.50247 0.0
C466 C 0.9222 0.47751 0.57142 0.0
C467 C 0.91781 0.50854 0.56589 0.0
C468 C 0.87616 0.52055 0.53311 0.0
C469 C 0.84428 0.50155 0.50151 0.0
C470 C 0.96557 0.46374 0.60635 0.0
C471 C 0.86982 0.5535 0.52656 0.0
H472 H 0.02326 0.56408 0.68542 0.0
H473 H 0.08464 0.5488 0.53955 0.0
H474 H 0.88599 0.54119 0.64748 0.0
H475 H 0.92579 0.51501 0.68416 0.0
H476 H 0.93141 0.55369 0.69943 0.0
H477 H 0.99954 0.49301 0.49926 0.0
H478 H 0.96617 0.5253 0.47405 0.0
H479 H 0.03812 0.5229 0.47481 0.0
H480 H 0.89765 0.43552 0.53901 0.0
H481 H 0.81635 0.51076 0.4724 0.0
H482 H 0.96962 0.47543 0.64333 0.0
H483 H 0.00459 0.46556 0.58874 0.0
H484 H 0.95729 0.43998 0.61339 0.0
H485 H 0.87639 0.56502 0.5636 0.0
H486 H 0.82939 0.55922 0.50916 0.0
H487 H 0.90024 0.56189 0.50126 0.0
C488 C 0.61123 0.97225 0.9701 0.0
C489 C 0.62354 0.94681 -0.00153 0.0
C490 C 0.5578 0.97901 0.9553 0.0
C491 C 0.51623 0.96026 0.97094 0.0
C492 C 0.52917 0.93248 0.99289 0.0
C493 C 0.58317 0.92586 0.00593 0.0
C494 C 0.54578 0.00815 0.92906 0.0
C495 C 0.48632 0.91148 0.00896 0.0
C496 C 0.41414 0.01271 0.01439 0.0
C497 C 0.38075 0.01535 0.96997 0.0
C498 C 0.45444 0.99131 0.01811 0.0
C499 C 0.46231 0.97313 0.97549 0.0
C500 C 0.42375 0.97294 0.93364 0.0
C501 C 0.38256 0.99392 0.93176 0.0
C502 C 0.49296 0.99103 0.06486 0.0
C503 C 0.4298 0.9536 0.88787 0.0
H504 H 0.64279 0.9881 0.96358 0.0
H505 H 0.59282 0.90598 0.02765 0.0
H506 H 0.51289 0.0056 0.89888 0.0
H507 H 0.53254 0.02432 0.95718 0.0
H508 H 0.58166 0.01738 0.91178 0.0
H509 H 0.50084 0.88831 0.00968 0.0
H510 H 0.47587 0.91724 0.04796 0.0
H511 H 0.44924 0.9129 0.98338 0.0
H512 H 0.41222 0.02922 0.04398 0.0
H513 H 0.35647 -0.00403 0.89729 0.0
H514 H 0.53105 0.00209 0.05611 0.0
H515 H 0.50252 0.96803 0.07675 0.0
H516 H 0.47638 0.00277 0.09722 0.0
H517 H 0.45462 0.9654 0.86086 0.0
H518 H 0.39013 0.94876 0.8678 0.0
H519 H 0.44995 0.93248 0.89844 0.0
C520 C 0.41537 0.9359 0.46974 0.0
C521 C 0.37406 0.95613 0.47643 0.0
C522 C 0.46901 0.94279 0.48517 0.0
C523 C 0.48109 0.9702 0.50924 0.0
C524 C 0.43871 0.9894 0.52025 0.0
C525 C 0.38588 0.98245 0.50244 0.0
C526 C 0.51283 0.92191 0.47183 0.0
C527 C 0.44964 0.01842 0.54738 0.0
C528 C 0.6102 0.99337 0.58151 0.0
C529 C 0.63157 0.01296 0.5469 0.0
C530 C 0.56409 0.97656 0.56786 0.0
C531 C 0.53769 0.98044 0.51912 0.0
C532 C 0.56187 -0.00165 0.48263 0.0
C533 C 0.60911 0.01422 0.49689 0.0
C534 C 0.54117 0.95671 0.60709 0.0
C535 C 0.53515 0.00306 0.43014 0.0
H536 H 0.40645 0.91597 0.44785 0.0
H537 H 0.35444 -0.00151 0.50571 0.0
H538 H 0.53403 0.93122 0.43974 0.0
H539 H 0.54298 0.91919 0.50441 0.0
H540 H 0.49663 0.89983 0.46025 0.0
H541 H 0.41214 0.03002 0.55553 0.0
H542 H 0.47355 0.01466 0.58385 0.0
H543 H 0.47353 0.03311 0.52373 0.0
H544 H 0.62792 0.9924 0.62022 0.0
H545 H 0.62552 0.02961 0.47037 0.0
H546 H 0.52591 0.93575 0.58959 0.0
H547 H 0.50687 0.9679 0.6234 0.0
H548 H 0.57151 0.95144 0.6386 0.0
H549 H 0.52224 0.98166 0.41275 0.0
H550 H 0.5621 0.0145 0.4045 0.0
H551 H 0.49866 0.0167 0.43297 0.0
C552 C 0.0527 0.32129 0.13701 0.0
C553 C 0.09366 0.34213 0.14723 0.0
C554 C 0.01457 0.31538 0.17281 0.0
C555 C 0.01521 0.33239 0.21803 0.0
C556 C 0.05887 0.35205 0.22967 0.0
C557 C 0.09857 0.35572 0.1949 0.0
C558 C 0.97207 0.2922 0.16044 0.0
C559 C 0.06144 0.37126 0.2766 0.0
C560 C 0.88445 0.35889 0.2667 0.0
C561 C 0.8899 0.34962 0.31751 0.0
C562 C 0.92349 0.35203 0.23277 0.0
C563 C 0.96706 0.33349 0.24897 0.0
C564 C 0.96793 0.32042 0.29803 0.0
C565 C 0.93051 0.32955 0.33247 0.0
C566 C 0.92138 0.36764 0.18192 0.0
C567 C 0.01054 0.29858 0.31595 0.0
H568 H 0.04891 0.31058 0.10016 0.0
H569 H 0.13109 0.37122 0.20313 0.0
H570 H 0.95517 0.28328 0.19523 0.0
H571 H 0.93901 0.3019 0.13566 0.0
H572 H 0.98888 0.27366 0.13914 0.0
H573 H 0.09488 0.38759 0.27713 0.0
H574 H 0.02325 0.38348 0.27894 0.0
H575 H 0.06719 0.35729 0.31106 0.0
H576 H 0.85373 0.37495 0.25545 0.0
H577 H 0.93529 0.32256 0.37189 0.0
H578 H 0.91953 0.35128 0.15067 0.0
H579 H 0.95834 0.38112 0.17882 0.0
H580 H 0.88607 0.38241 0.17615 0.0
H581 H 0.02867 0.28753 0.28376 0.0
H582 H 0.99328 0.28145 0.34038 0.0
H583 H 0.04268 0.31013 0.33948 0.0
C584 C 0.10642 0.68597 0.66141 0.0
C585 C 0.10363 0.65938 0.63402 0.0
C586 C 0.06231 0.69585 0.68686 0.0
C587 C 0.01542 0.67814 0.68602 0.0
C588 C 0.00995 0.65374 0.6522 0.0
C589 C 0.05393 0.64517 0.6254 0.0
C590 C 0.06848 0.72313 0.71957 0.0
C591 C 0.96087 0.63396 0.64993 0.0
C592 C 0.95147 0.65909 0.8072 0.0
C593 C 0.89827 0.66702 0.79413 0.0
C594 C 0.99159 0.66458 0.77375 0.0
C595 C 0.9786 0.6803 0.72796 0.0
C596 C 0.92704 0.69299 0.7195 0.0
C597 C 0.88674 0.68536 0.75197 0.0
C598 C 0.04546 0.64984 0.78412 0.0
C599 C 0.91272 0.71189 0.67348 0.0
H600 H 0.14468 0.69737 0.66734 0.0
H601 H 0.0513 0.62494 0.60347 0.0
H602 H 0.02961 0.73474 0.72132 0.0
H603 H 0.08261 0.71675 0.75887 0.0
H604 H 0.09852 0.73863 0.70502 0.0
H605 H 0.96052 0.61799 0.61794 0.0
H606 H 0.96011 0.62126 0.68596 0.0
H607 H 0.92366 0.64721 0.64575 0.0
H608 H 0.95999 0.6445 0.83946 0.0
H609 H 0.84541 0.69134 0.74165 0.0
H610 H 0.07854 0.66601 0.78096 0.0
H611 H 0.05033 0.6323 0.75543 0.0
H612 H 0.0498 0.63959 0.82251 0.0
H613 H 0.9479 0.72487 0.6623 0.0
H614 H 0.87964 0.7273 0.68077 0.0
H615 H 0.89886 0.6976 0.64101 0.0
C616 C 0.41301 0.86354 0.32997 0.0
C617 C 0.37375 0.87909 0.30049 0.0
C618 C 0.46421 0.85948 0.31226 0.0
C619 C 0.47546 0.87134 0.26437 0.0
C620 C 0.43373 0.88383 0.23227 0.0
C621 C 0.38321 0.88749 0.25082 0.0
C622 C 0.50737 0.84534 0.3469 0.0
C623 C 0.44381 0.89651 0.18065 0.0
C624 C 0.60312 0.91117 0.23911 0.0
C625 C 0.62366 0.8927 0.20272 0.0
C626 C 0.55738 0.90297 0.26365 0.0
C627 C 0.53147 0.87577 0.25091 0.0
C628 C 0.55485 0.85586 0.21777 0.0
C629 C 0.60087 0.86458 0.19397 0.0
C630 C 0.53425 0.92458 0.29982 0.0
C631 C 0.52892 0.82649 0.20402 0.0
H632 H 0.40553 0.85708 0.36849 0.0
H633 H 0.35234 0.89923 0.22799 0.0
H634 H 0.53499 0.83208 0.32495 0.0
H635 H 0.53147 0.86285 0.36732 0.0
H636 H 0.48987 0.83091 0.3757 0.0
H637 H 0.40591 0.90244 0.15848 0.0
H638 H 0.46895 0.91675 0.18554 0.0
H639 H 0.46595 0.88053 0.15823 0.0
H640 H 0.6214 0.93263 0.24685 0.0
H641 H 0.61699 0.84999 0.1663 0.0
H642 H 0.52351 0.91319 0.33502 0.0
H643 H 0.49694 0.93427 0.28162 0.0
H644 H 0.56267 0.94288 0.31048 0.0
H645 H 0.51119 0.81625 0.23733 0.0
H646 H 0.55814 0.81088 0.18901 0.0
H647 H 0.49602 0.82991 0.17413 0.0
C648 C 0.5679 0.14117 0.60316 0.0
C649 C 0.60974 0.12778 0.63295 0.0
C650 C 0.51851 0.14771 0.62389 0.0
C651 C 0.51034 0.13957 0.6749 0.0
C652 C 0.55403 0.12787 0.7057 0.0
C653 C 0.60314 0.12267 0.68456 0.0
C654 C 0.4743 0.16144 0.59002 0.0
C655 C 0.54781 0.1184 0.76003 0.0
C656 C 0.4042 0.15847 0.76478 0.0
C657 C 0.37499 0.13189 0.76491 0.0
C658 C 0.44363 0.16332 0.72988 0.0
C659 C 0.45595 0.14046 0.696 0.0
C660 C 0.42201 0.11516 0.69192 0.0
C661 C 0.38134 0.11143 0.72594 0.0
C662 C 0.47607 0.19154 0.73324 0.0
C663 C 0.43292 0.0902 0.65621 0.0
H664 H 0.57229 0.14462 0.56295 0.0
H665 H 0.63523 0.11202 0.70749 0.0
H666 H 0.44974 0.14371 0.57079 0.0
H667 H 0.4475 0.1752 0.61203 0.0
H668 H 0.49109 0.17533 0.56007 0.0
H669 H 0.58567 0.10957 0.7787 0.0
H670 H 0.53481 0.13734 0.78271 0.0
H671 H 0.51635 0.101 0.76097 0.0
H672 H 0.39955 0.1744 0.79482 0.0
H673 H 0.35923 0.09076 0.72595 0.0
H674 H 0.48694 0.19874 0.69499 0.0
H675 H 0.51384 0.18779 0.75702 0.0
H676 H 0.45372 0.20957 0.75084 0.0
H677 H 0.43955 0.09886 0.61778 0.0
H678 H 0.39943 0.07387 0.653 0.0
H679 H 0.47005 0.07857 0.67039 0.0
C680 C 0.23836 0.45257 0.92571 0.0
C681 C 0.27216 0.42824 0.93436 0.0
C682 C 0.24162 0.47034 0.88232 0.0
C683 C 0.2802 0.46387 0.84695 0.0
C684 C 0.31377 0.439 0.85485 0.0
C685 C 0.30924 0.42144 0.89835 0.0
C686 C 0.20479 0.49661 0.87513 0.0
C687 C 0.3558 0.43159 0.81841 0.0
C688 C 0.25395 0.50331 0.72074 0.0
C689 C 0.28145 0.52996 0.73072 0.0
C690 C 0.25589 0.48048 0.75701 0.0
C691 C 0.28705 0.48432 0.80355 0.0
C692 C 0.31964 0.50988 0.81101 0.0
C693 C 0.31576 0.53261 0.77482 0.0
C694 C 0.22067 0.45358 0.74747 0.0
C695 C 0.35498 0.51447 0.85918 0.0
H696 H 0.21079 0.45848 0.95383 0.0
H697 H 0.33574 0.40271 0.90472 0.0
H698 H 0.2288 0.51729 0.87429 0.0
H699 H 0.18095 0.49485 0.83812 0.0
H700 H 0.17675 0.49845 0.90589 0.0
H701 H 0.37596 0.41027 0.82789 0.0
H702 H 0.33751 0.43043 0.7789 0.0
H703 H 0.38672 0.44932 0.81936 0.0
H704 H 0.22703 0.50135 0.68681 0.0
H705 H 0.33708 0.55324 0.78253 0.0
H706 H 0.18527 0.45518 0.77056 0.0
H707 H 0.24247 0.43313 0.75918 0.0
H708 H 0.20613 0.45161 0.70682 0.0
H709 H 0.32958 0.51989 0.89078 0.0
H710 H 0.38424 0.5328 0.85527 0.0
H711 H 0.37739 0.49404 0.86985 0.0
C712 C 0.76306 0.44373 0.57265 0.0
C713 C 0.71723 0.44216 0.53947 0.0
C714 C 0.76553 0.46342 0.61369 0.0
C715 C 0.72069 0.48155 0.62156 0.0
C716 C 0.67356 0.47923 0.5889 0.0
C717 C 0.67241 0.45946 0.54807 0.0
C718 C 0.81646 0.46532 0.64793 0.0
C719 C 0.62464 0.49767 0.59695 0.0
C720 C 0.72724 0.51477 0.75311 0.0
C721 C 0.7494 0.54248 0.74367 0.0
C722 C 0.71358 0.49534 0.71292 0.0
C723 C 0.72439 0.5037 0.66286 0.0
C724 C 0.74414 0.5324 0.65316 0.0
C725 C 0.75597 0.55165 0.69391 0.0
C726 C 0.69107 0.46522 0.7244 0.0
C727 C 0.75594 0.54211 0.60028 0.0
H728 H 0.79664 0.42941 0.56659 0.0
H729 H 0.63665 0.45773 0.5224 0.0
H730 H 0.83531 0.48735 0.64353 0.0
H731 H 0.80745 0.46301 0.68834 0.0
H732 H 0.84581 0.44801 0.63922 0.0
H733 H 0.59017 0.49194 0.56977 0.0
H734 H 0.61229 0.49461 0.63626 0.0
H735 H 0.6343 0.52143 0.59238 0.0
H736 H 0.72295 0.50782 0.79203 0.0
H737 H 0.77396 0.57307 0.68727 0.0
H738 H 0.72228 0.44821 0.72021 0.0
H739 H 0.65663 0.45973 0.69711 0.0
H740 H 0.67765 0.46386 0.76366 0.0
H741 H 0.78168 0.5256 0.58302 0.0
H742 H 0.77627 0.564 0.6 0.0
H743 H 0.71802 0.54339 0.5759 0.0
C744 C 0.76992 0.45127 0.19258 0.0
C745 C 0.77688 0.46558 0.23954 0.0
C746 C 0.76278 0.46768 0.14737 0.0
C747 C 0.76274 0.49894 0.14979 0.0
C748 C 0.76856 0.51332 0.19756 0.0
C749 C 0.77603 0.49639 0.24194 0.0
C750 C 0.75688 0.45167 0.0971 0.0
C751 C 0.76818 0.54662 0.2017 0.0
C752 C 0.79624 0.54908 0.04088 0.0
C753 C 0.74512 0.55776 0.02196 0.0
C754 C 0.80268 0.52833 0.0805 0.0
C755 C 0.7567 0.51694 0.10271 0.0
C756 C 0.70487 0.52531 0.08316 0.0
C757 C 0.69976 0.54531 0.04263 0.0
C758 C 0.8586 0.51931 0.09968 0.0
C759 C 0.65491 0.51457 0.10695 0.0
H760 H 0.77169 0.42735 0.19121 0.0
H761 H 0.78241 0.50721 0.27855 0.0
H762 H 0.71965 0.45872 0.07511 0.0
H763 H 0.79108 0.45748 0.07417 0.0
H764 H 0.75561 0.42729 0.10195 0.0
H765 H 0.77089 0.55424 0.24183 0.0
H766 H 0.80254 0.5561 0.1825 0.0
H767 H 0.7309 0.55556 0.18222 0.0
H768 H 0.83099 0.55971 0.02671 0.0
H769 H 0.65994 0.55202 0.02817 0.0
H770 H 0.86413 0.49546 0.09198 0.0
H771 H 0.86451 0.52244 0.1414 0.0
H772 H 0.89013 0.53207 0.08135 0.0
H773 H 0.65508 0.49016 0.1106 0.0
H774 H 0.61755 0.52129 0.08466 0.0
H775 H 0.65408 0.52379 0.14587 0.0
C776 C 0.2074 0.47272 0.23799 0.0
C777 C 0.19868 0.44227 0.23837 0.0
C778 C 0.21888 0.48799 0.28354 0.0
C779 C 0.22149 0.47219 0.3301 0.0
C780 C 0.21516 0.4411 0.33019 0.0
C781 C 0.20338 0.42644 0.28399 0.0
C782 C 0.22626 0.52113 0.28196 0.0
C783 C 0.21894 0.42355 0.37903 0.0
C784 C 0.29226 0.51482 0.43727 0.0
C785 C 0.24905 0.5284 0.45923 0.0
C786 C 0.28375 0.49496 0.39709 0.0
C787 C 0.23067 0.48853 0.37844 0.0
C788 C 0.18668 0.50044 0.4028 0.0
C789 C 0.19643 0.52029 0.44336 0.0
C790 C 0.33166 0.48252 0.37247 0.0
C791 C 0.12949 0.49378 0.3838 0.0
H792 H 0.20301 0.48468 0.20225 0.0
H793 H 0.19604 0.4028 0.2836 0.0
H794 H 0.19497 0.53197 0.30324 0.0
H795 H 0.26584 0.52739 0.3007 0.0
H796 H 0.2238 0.52991 0.24248 0.0
H797 H 0.21696 0.39935 0.37208 0.0
H798 H 0.257 0.42877 0.40154 0.0
H799 H 0.18554 0.42972 0.4025 0.0
H800 H 0.33312 0.52065 0.45025 0.0
H801 H 0.1631 0.53072 0.46048 0.0
H802 H 0.33464 0.49271 0.33444 0.0
H803 H 0.3271 0.45834 0.36675 0.0
H804 H 0.36982 0.48688 0.39552 0.0
H805 H 0.12097 0.50433 0.34609 0.0
H806 H 0.10012 0.50206 0.41011 0.0
H807 H 0.12345 0.46963 0.37873 0.0
C808 C 0.72989 0.94028 0.90537 0.0
C809 C 0.77047 0.93513 0.94327 0.0
C810 C 0.73188 0.96508 0.87394 0.0
C811 C 0.77652 0.98462 0.87989 0.0
C812 C 0.81736 0.97968 0.91886 0.0
C813 C 0.81347 0.95498 0.95073 0.0
C814 C 0.68633 0.97015 0.83411 0.0
C815 C 0.86541 2e-05 0.92614 0.0
C816 C 0.78516 0.02244 0.75465 0.0
C817 C 0.75032 0.04601 0.76089 0.0
C818 C 0.80053 0.00398 0.79569 0.0
C819 C 0.78011 0.00942 0.84358 0.0
C820 C 0.75122 0.03563 0.85144 0.0
C821 C 0.73603 0.05354 0.80959 0.0
C822 C 0.83194 0.97643 0.78584 0.0
C823 C 0.73014 0.04268 0.9023 0.0
H824 H 0.69628 0.92499 0.90075 0.0
H825 H 0.84457 0.95075 0.98061 0.0
H826 H 0.66783 0.992 0.84001 0.0
H827 H 0.70182 0.97025 0.79566 0.0
H828 H 0.65446 0.95297 0.83515 0.0
H829 H 0.89016 -0.00491 0.96177 0.0
H830 H 0.89101 -0.00238 0.89364 0.0
H831 H 0.85248 0.02341 0.92688 0.0
H832 H 0.79553 0.01646 0.71674 0.0
H833 H 0.70905 0.07191 0.81416 0.0
H834 H 0.80383 0.95737 0.78139 0.0
H835 H 0.8613 0.97154 0.8182 0.0
H836 H 0.85371 0.97844 0.75062 0.0
H837 H 0.6927 0.02987 0.90673 0.0
H838 H 0.72072 0.06654 0.90548 0.0
H839 H 0.75948 0.03646 0.93398 0.0
C840 C 0.24926 0.03908 0.73053 0.0
C841 C 0.30086 0.03507 0.7539 0.0
C842 C 0.23272 0.02399 0.68604 0.0
C843 C 0.26893 0.00457 0.6645 0.0
C844 C 0.32166 0.00104 0.687 0.0
C845 C 0.33697 0.01625 0.73189 0.0
C846 C 0.17589 0.02799 0.66343 0.0
C847 C 0.36132 0.98068 0.66427 0.0
C848 C 0.21221 0.94025 0.58786 0.0
C849 C 0.21933 0.94975 0.53821 0.0
C850 C 0.22772 0.95812 0.62938 0.0
C851 C 0.25042 0.98619 0.6207 0.0
C852 C 0.25606 -0.00363 0.57058 0.0
C853 C 0.24077 0.97779 0.5296 0.0
C854 C 0.2203 0.94685 0.68246 0.0
C855 C 0.27786 0.02686 0.56053 0.0
H856 H 0.22113 0.05353 0.74758 0.0
H857 H 0.37706 0.0134 0.7497 0.0
H858 H 0.17544 0.03204 0.62191 0.0
H859 H 0.15246 0.00747 0.66898 0.0
H860 H 0.15524 0.04658 0.68126 0.0
H861 H 0.40172 0.98181 0.68471 0.0
H862 H 0.34648 0.95755 0.66556 0.0
H863 H 0.36522 0.98638 0.62372 0.0
H864 H 0.19542 0.91851 0.59427 0.0
H865 H 0.24473 0.98531 0.49098 0.0
H866 H 0.19593 0.96264 0.70316 0.0
H867 H 0.25992 0.94506 0.70403 0.0
H868 H 0.20023 0.92487 0.68235 0.0
H869 H 0.25226 0.04382 0.57692 0.0
H870 H 0.27968 0.03145 0.51928 0.0
H871 H 0.31866 0.02934 0.57957 0.0
C872 C 0.19633 0.93563 0.20292 0.0
C873 C 0.18113 0.9552 0.24053 0.0
C874 C 0.19855 0.94493 0.15212 0.0
C875 C 0.18709 0.97471 0.13917 0.0
C876 C 0.16851 0.99398 0.1764 0.0
C877 C 0.16497 0.98382 0.22632 0.0
C878 C 0.21677 0.92348 0.11319 0.0
C879 C 0.15662 0.02608 0.16469 0.0
C880 C 0.25544 0.01836 0.03915 0.0
C881 C 0.2119 0.02426 0.00442 0.0
C882 C 0.24934 -0.00015 0.08126 0.0
C883 C 0.19847 0.98688 0.08838 0.0
C884 C 0.15613 0.99029 0.05033 0.0
C885 C 0.16316 0.00927 0.00908 0.0
C886 C 0.29564 -0.00298 0.12091 0.0
C887 C 0.1018 0.97626 0.05565 0.0
H888 H 0.21061 0.91379 0.21375 0.0
H889 H 0.15374 -0.00089 0.25534 0.0
H890 H 0.19049 0.92489 0.07757 0.0
H891 H 0.25814 0.92922 0.10364 0.0
H892 H 0.21668 0.90033 0.12729 0.0
H893 H 0.14096 0.03785 0.19748 0.0
H894 H 0.19383 0.03746 0.15431 0.0
H895 H 0.12674 0.02796 0.13174 0.0
H896 H 0.29256 0.03059 0.03653 0.0
H897 H 0.12928 0.01407 0.9824 0.0
H898 H 0.30005 0.97387 0.13426 0.0
H899 H 0.28767 0.01082 0.15431 0.0
H900 H 0.3342 0.00442 0.10626 0.0
H901 H 0.10603 0.95335 0.07038 0.0
H902 H 0.07729 0.97586 0.01884 0.0
H903 H 0.07971 0.98907 0.08326 0.0
C904 C 0.76462 0.0183 0.43114 0.0
C905 C 0.80832 0.02212 0.46672 0.0
C906 C 0.77069 0.00289 0.38567 0.0
C907 C 0.82146 0.99089 0.37619 0.0
C908 C 0.86459 0.99306 0.41356 0.0
C909 C 0.85752 0.00871 0.45829 0.0
C910 C 0.72368 0.00091 0.34658 0.0
C911 C 0.91903 0.98025 0.40516 0.0
C912 C 0.82059 0.93738 0.2658 0.0
C913 C 0.83176 0.95645 0.22578 0.0
C914 C 0.81995 0.94789 0.31577 0.0
C915 C 0.83053 0.97814 0.32567 0.0
C916 C 0.84688 -0.00322 0.28632 0.0
C917 C 0.84771 0.98561 0.23685 0.0
C918 C 0.80363 0.92718 0.35699 0.0
C919 C 0.85922 0.02912 0.29549 0.0
H920 H 0.72668 0.02875 0.43745 0.0
H921 H 0.89134 0.01136 0.48603 0.0
H922 H 0.73266 0.01387 0.31236 0.0
H923 H 0.71688 0.97766 0.33442 0.0
H924 H 0.68609 0.00949 0.36122 0.0
H925 H 0.94673 0.98131 0.43996 0.0
H926 H 0.91498 0.95688 0.39278 0.0
H927 H 0.93751 0.99262 0.37441 0.0
H928 H 0.80782 0.91485 0.25762 0.0
H929 H 0.85662 0.00039 0.20608 0.0
H930 H 0.76208 0.93234 0.36644 0.0
H931 H 0.83014 0.93008 0.39218 0.0
H932 H 0.8049 0.90368 0.34504 0.0
H933 H 0.82192 0.04076 0.30413 0.0
H934 H 0.87575 0.03992 0.26201 0.0
H935 H 0.88845 0.03191 0.32879 0.0
loop_
_geom_bond_atom_site_label_1
_geom_bond_atom_site_label_2
_geom_bond_distance
_geom_bond_site_symmetry_2
_ccdc_geom_bond_type
Zn0 O6 1.920 . S
Zn0 O12 1.898 . S
Zn0 O15 1.905 . S
Zn1 O9 1.905 . S
Zn1 O10 1.898 . S
Zn1 O18 1.920 . S
Zn2 O5 2.080 . S
Zn2 O8 2.114 . S
Zn2 O11 2.120 . S
Zn2 O13 2.120 . S
Zn2 O14 2.114 . S
Zn2 O17 2.080 . S
C3 O8 1.166 . S
C3 O9 1.182 . S
C4 O10 1.167 . S
C4 O11 1.299 . S
O5 Zn2 2.080 . S
O5 C19 1.305 . S
O6 Zn0 1.920 . S
O6 C19 1.234 . S
C7 O12 1.167 . S
C7 O13 1.299 . S
O8 Zn2 2.114 . S
O8 C3 1.166 . S
O9 Zn1 1.905 . S
O9 C3 1.182 . S
O10 Zn1 1.898 . S
O10 C4 1.167 . S
O11 Zn2 2.120 . S
O11 C4 1.299 . S
O12 Zn0 1.898 . S
O12 C7 1.167 . S
O13 Zn2 2.120 . S
O13 C7 1.299 . S
O14 Zn2 2.114 . S
O14 C16 1.166 . S
O15 Zn0 1.905 . S
O15 C16 1.182 . S
C16 O14 1.166 . S
C16 O15 1.182 . S
O17 Zn2 2.080 . S
O17 C20 1.305 . S
O18 Zn1 1.920 . S
O18 C20 1.234 . S
C19 O5 1.305 . S
C19 O6 1.234 . S
C20 O17 1.305 . S
C20 O18 1.234 . S
Zn21 O27 1.920 . S
Zn21 O33 1.898 . S
Zn21 O36 1.905 . S
Zn22 O30 1.905 . S
Zn22 O31 1.898 . S
Zn22 O39 1.920 . S
Zn23 O26 2.080 . S
Zn23 O29 2.114 . S
Zn23 O32 2.120 . S
Zn23 O34 2.120 . S
Zn23 O35 2.114 . S
Zn23 O38 2.080 . S
C24 O29 1.166 . S
C24 O30 1.182 . S
C25 O31 1.167 . S
C25 O32 1.299 . S
O26 Zn23 2.080 . S
O26 C40 1.305 . S
O27 Zn21 1.920 . S
O27 C40 1.234 . S
C28 O33 1.167 . S
C28 O34 1.299 . S
O29 Zn23 2.114 . S
O29 C24 1.166 . S
O30 Zn22 1.905 . S
O30 C24 1.182 . S
O31 Zn22 1.898 . S
O31 C25 1.167 . S
O32 Zn23 2.120 . S
O32 C25 1.299 . S
O33 Zn21 1.898 . S
O33 C28 1.167 . S
O34 Zn23 2.120 . S
O34 C28 1.299 . S
O35 Zn23 2.114 . S
O35 C37 1.166 . S
O36 Zn21 1.905 . S
O36 C37 1.182 . S
C37 O35 1.166 . S
C37 O36 1.182 . S
O38 Zn23 2.080 . S
O38 C41 1.305 . S
O39 Zn22 1.920 . S
O39 C41 1.234 . S
C40 O26 1.305 . S
C40 O27 1.234 . S
C41 O38 1.305 . S
C41 O39 1.234 . S
Zn42 O48 1.920 . S
Zn42 O54 1.898 . S
Zn42 O57 1.905 . S
Zn43 O51 1.905 . S
Zn43 O52 1.898 . S
Zn43 O60 1.920 . S
Zn44 O47 2.080 . S
Zn44 O50 2.114 . S
Zn44 O53 2.120 . S
Zn44 O55 2.120 . S
Zn44 O56 2.114 . S
Zn44 O59 2.080 . S
C45 O50 1.166 . S
C45 O51 1.182 . S
C46 O52 1.167 . S
C46 O53 1.299 . S
O47 Zn44 2.080 . S
O47 C61 1.305 . S
O48 Zn42 1.920 . S
O48 C61 1.234 . S
C49 O54 1.167 . S
C49 O55 1.299 . S
O50 Zn44 2.114 . S
O50 C45 1.166 . S
O51 Zn43 1.905 . S
O51 C45 1.182 . S
O52 Zn43 1.898 . S
O52 C46 1.167 . S
O53 Zn44 2.120 . S
O53 C46 1.299 . S
O54 Zn42 1.898 . S
O54 C49 1.167 . S
O55 Zn44 2.120 . S
O55 C49 1.299 . S
O56 Zn44 2.114 . S
O56 C58 1.166 . S
O57 Zn42 1.905 . S
O57 C58 1.182 . S
C58 O56 1.166 . S
C58 O57 1.182 . S
O59 Zn44 2.080 . S
O59 C62 1.305 . S
O60 Zn43 1.920 . S
O60 C62 1.234 . S
C61 O47 1.305 . S
C61 O48 1.234 . S
C62 O59 1.305 . S
C62 O60 1.234 . S
Zn63 O69 1.920 . S
Zn63 O75 1.898 . S
Zn63 O78 1.905 . S
Zn64 O72 1.905 . S
Zn64 O73 1.898 . S
Zn64 O81 1.920 . S
Zn65 O68 2.080 . S
Zn65 O71 2.114 . S
Zn65 O74 2.120 . S
Zn65 O76 2.120 . S
Zn65 O77 2.114 . S
Zn65 O80 2.080 . S
C66 O71 1.166 . S
C66 O72 1.182 . S
C67 O73 1.167 . S
C67 O74 1.299 . S
O68 Zn65 2.080 . S
O68 C82 1.305 . S
O69 Zn63 1.920 . S
O69 C82 1.234 . S
C70 O75 1.167 . S
C70 O76 1.299 . S
O71 Zn65 2.114 . S
O71 C66 1.166 . S
O72 Zn64 1.905 . S
O72 C66 1.182 . S
O73 Zn64 1.898 . S
O73 C67 1.167 . S
O74 Zn65 2.120 . S
O74 C67 1.299 . S
O75 Zn63 1.898 . S
O75 C70 1.167 . S
O76 Zn65 2.120 . S
O76 C70 1.299 . S
O77 Zn65 2.114 . S
O77 C79 1.166 . S
O78 Zn63 1.905 . S
O78 C79 1.182 . S
C79 O77 1.166 . S
C79 O78 1.182 . S
O80 Zn65 2.080 . S
O80 C83 1.305 . S
O81 Zn64 1.920 . S
O81 C83 1.234 . S
C82 O68 1.305 . S
C82 O69 1.234 . S
C83 O80 1.305 . S
C83 O81 1.234 . S
Zn84 O90 1.920 . S
Zn84 O96 1.898 . S
Zn84 O99 1.905 . S
Zn85 O93 1.905 . S
Zn85 O94 1.898 . S
Zn85 O102 1.920 . S
Zn86 O89 2.080 . S
Zn86 O92 2.114 . S
Zn86 O95 2.120 . S
Zn86 O97 2.120 . S
Zn86 O98 2.114 . S
Zn86 O101 2.080 . S
C87 O92 1.166 . S
C87 O93 1.182 . S
C88 O94 1.167 . S
C88 O95 1.299 . S
O89 Zn86 2.080 . S
O89 C103 1.305 . S
O90 Zn84 1.920 . S
O90 C103 1.234 . S
C91 O96 1.167 . S
C91 O97 1.299 . S
O92 Zn86 2.114 . S
O92 C87 1.166 . S
O93 Zn85 1.905 . S
O93 C87 1.182 . S
O94 Zn85 1.898 . S
O94 C88 1.167 . S
O95 Zn86 2.120 . S
O95 C88 1.299 . S
O96 Zn84 1.898 . S
O96 C91 1.167 . S
O97 Zn86 2.120 . S
O97 C91 1.299 . S
O98 Zn86 2.114 . S
O98 C100 1.166 . S
O99 Zn84 1.905 . S
O99 C100 1.182 . S
C100 O98 1.166 . S
C100 O99 1.182 . S
O101 Zn86 2.080 . S
O101 C104 1.305 . S
O102 Zn85 1.920 . S
O102 C104 1.234 . S
C103 O89 1.305 . S
C103 O90 1.234 . S
C104 O101 1.305 . S
C104 O102 1.234 . S
Zn105 O111 1.920 . S
Zn105 O117 1.898 . S
Zn105 O120 1.905 . S
Zn106 O114 1.905 . S
Zn106 O115 1.898 . S
Zn106 O123 1.920 . S
Zn107 O110 2.080 . S
Zn107 O113 2.114 . S
Zn107 O116 2.120 . S
Zn107 O118 2.120 . S
Zn107 O119 2.114 . S
Zn107 O122 2.080 . S
C108 O113 1.166 . S
C108 O114 1.182 . S
C109 O115 1.167 . S
C109 O116 1.299 . S
O110 Zn107 2.080 . S
O110 C124 1.305 . S
O111 Zn105 1.920 . S
O111 C124 1.234 . S
C112 O117 1.167 . S
C112 O118 1.299 . S
O113 Zn107 2.114 . S
O113 C108 1.166 . S
O114 Zn106 1.905 . S
O114 C108 1.182 . S
O115 Zn106 1.898 . S
O115 C109 1.167 . S
O116 Zn107 2.120 . S
O116 C109 1.299 . S
O117 Zn105 1.898 . S
O117 C112 1.167 . S
O118 Zn107 2.120 . S
O118 C112 1.299 . S
O119 Zn107 2.114 . S
O119 C121 1.166 . S
O120 Zn105 1.905 . S
O120 C121 1.182 . S
C121 O119 1.166 . S
C121 O120 1.182 . S
O122 Zn107 2.080 . S
O122 C125 1.305 . S
O123 Zn106 1.920 . S
O123 C125 1.234 . S
C124 O110 1.305 . S
C124 O111 1.234 . S
C125 O122 1.305 . S
C125 O123 1.234 . S
Zn126 O132 1.920 . S
Zn126 O138 1.898 . S
Zn126 O141 1.905 . S
Zn127 O135 1.905 . S
Zn127 O136 1.898 . S
Zn127 O144 1.920 . S
Zn128 O131 2.080 . S
Zn128 O134 2.114 . S
Zn128 O137 2.120 . S
Zn128 O139 2.120 . S
Zn128 O140 2.114 . S
Zn128 O143 2.080 . S
C129 O134 1.166 . S
C129 O135 1.182 . S
C130 O136 1.167 . S
C130 O137 1.299 . S
O131 Zn128 2.080 . S
O131 C145 1.305 . S
O132 Zn126 1.920 . S
O132 C145 1.234 . S
C133 O138 1.167 . S
C133 O139 1.299 . S
O134 Zn128 2.114 . S
O134 C129 1.166 . S
O135 Zn127 1.905 . S
O135 C129 1.182 . S
O136 Zn127 1.898 . S
O136 C130 1.167 . S
O137 Zn128 2.120 . S
O137 C130 1.299 . S
O138 Zn126 1.898 . S
O138 C133 1.167 . S
O139 Zn128 2.120 . S
O139 C133 1.299 . S
O140 Zn128 2.114 . S
O140 C142 1.166 . S
O141 Zn126 1.905 . S
O141 C142 1.182 . S
C142 O140 1.166 . S
C142 O141 1.182 . S
O143 Zn128 2.080 . S
O143 C146 1.305 . S
O144 Zn127 1.920 . S
O144 C146 1.234 . S
C145 O131 1.305 . S
C145 O132 1.234 . S
C146 O143 1.305 . S
C146 O144 1.234 . S
Zn147 O153 1.920 . S
Zn147 O159 1.898 . S
Zn147 O162 1.905 . S
Zn148 O156 1.905 . S
Zn148 O157 1.898 . S
Zn148 O165 1.920 . S
Zn149 O152 2.080 . S
Zn149 O155 2.114 . S
Zn149 O158 2.120 . S
Zn149 O160 2.120 . S
Zn149 O161 2.114 . S
Zn149 O164 2.080 . S
C150 O155 1.166 . S
C150 O156 1.182 . S
C151 O157 1.167 . S
C151 O158 1.299 . S
O152 Zn149 2.080 . S
O152 C166 1.305 . S
O153 Zn147 1.920 . S
O153 C166 1.234 . S
C154 O159 1.167 . S
C154 O160 1.299 . S
O155 Zn149 2.114 . S
O155 C150 1.166 . S
O156 Zn148 1.905 . S
O156 C150 1.182 . S
O157 Zn148 1.898 . S
O157 C151 1.167 . S
O158 Zn149 2.120 . S
O158 C151 1.299 . S
O159 Zn147 1.898 . S
O159 C154 1.167 . S
O160 Zn149 2.120 . S
O160 C154 1.299 . S
O161 Zn149 2.114 . S
O161 C163 1.166 . S
O162 Zn147 1.905 . S
O162 C163 1.182 . S
C163 O161 1.166 . S
C163 O162 1.182 . S
O164 Zn149 2.080 . S
O164 C167 1.305 . S
O165 Zn148 1.920 . S
O165 C167 1.234 . S
C166 O152 1.305 . S
C166 O153 1.234 . S
C167 O164 1.305 . S
C167 O165 1.234 . S
C168 C169 1.391 . S
C168 C170 1.394 . S
C168 H184 0.931 . S
C169 C168 1.391 . S
C169 C173 1.376 . S
C170 C168 1.394 . S
C170 C171 1.369 . S
C170 C174 1.531 . S
C171 C170 1.369 . S
C171 C172 1.410 . S
C171 C179 1.503 . S
C172 C171 1.410 . S
C172 C173 1.392 . S
C172 C175 1.511 . S
C173 C169 1.376 . S
C173 C172 1.392 . S
C173 H185 0.929 . S
C174 C170 1.531 . S
C174 H186 0.960 . S
C174 H187 0.962 . S
C174 H188 0.960 . S
C175 C172 1.511 . S
C175 H189 0.961 . S
C175 H190 0.961 . S
C175 H191 0.961 . S
C176 C177 1.370 . S
C176 C178 1.363 . S
C176 H192 0.931 . S
C177 C176 1.370 . S
C177 C181 1.408 . S
C178 C176 1.363 . S
C178 C179 1.370 . S
C178 C182 1.524 . S
C179 C171 1.503 . S
C179 C178 1.370 . S
C179 C180 1.403 . S
C180 C179 1.403 . S
C180 C181 1.404 . S
C180 C183 1.539 . S
C181 C177 1.408 . S
C181 C180 1.404 . S
C181 H193 0.930 . S
C182 C178 1.524 . S
C182 H194 0.956 . S
C182 H195 0.961 . S
C182 H196 0.961 . S
C183 C180 1.539 . S
C183 H197 0.958 . S
C183 H198 0.961 . S
C183 H199 0.960 . S
H184 C168 0.931 . S
H185 C173 0.929 . S
H186 C174 0.960 . S
H187 C174 0.962 . S
H188 C174 0.960 . S
H189 C175 0.961 . S
H190 C175 0.961 . S
H191 C175 0.961 . S
H192 C176 0.931 . S
H193 C181 0.930 . S
H194 C182 0.956 . S
H195 C182 0.961 . S
H196 C182 0.961 . S
H197 C183 0.958 . S
H198 C183 0.961 . S
H199 C183 0.960 . S
C200 C201 1.391 . S
C200 C202 1.394 . S
C200 H216 0.931 . S
C201 C200 1.391 . S
C201 C205 1.376 . S
C202 C200 1.394 . S
C202 C203 1.369 . S
C202 C206 1.531 . S
C203 C202 1.369 . S
C203 C204 1.410 . S
C203 C211 1.503 . S
C204 C203 1.410 . S
C204 C205 1.392 . S
C204 C207 1.511 . S
C205 C201 1.376 . S
C205 C204 1.392 . S
C205 H217 0.929 . S
C206 C202 1.531 . S
C206 H218 0.960 . S
C206 H219 0.962 . S
C206 H220 0.960 . S
C207 C204 1.511 . S
C207 H221 0.961 . S
C207 H222 0.961 . S
C207 H223 0.961 . S
C208 C209 1.370 . S
C208 C210 1.363 . S
C208 H224 0.931 . S
C209 C208 1.370 . S
C209 C213 1.408 . S
C210 C208 1.363 . S
C210 C211 1.370 . S
C210 C214 1.524 . S
C211 C203 1.503 . S
C211 C210 1.370 . S
C211 C212 1.403 . S
C212 C211 1.403 . S
C212 C213 1.404 . S
C212 C215 1.539 . S
C213 C209 1.408 . S
C213 C212 1.404 . S
C213 H225 0.930 . S
C214 C210 1.524 . S
C214 H226 0.956 . S
C214 H227 0.961 . S
C214 H228 0.961 . S
C215 C212 1.539 . S
C215 H229 0.958 . S
C215 H230 0.961 . S
C215 H231 0.960 . S
H216 C200 0.931 . S
H217 C205 0.929 . S
H218 C206 0.960 . S
H219 C206 0.962 . S
H220 C206 0.960 . S
H221 C207 0.961 . S
H222 C207 0.961 . S
H223 C207 0.961 . S
H224 C208 0.931 . S
H225 C213 0.930 . S
H226 C214 0.956 . S
H227 C214 0.961 . S
H228 C214 0.961 . S
H229 C215 0.958 . S
H230 C215 0.961 . S
H231 C215 0.960 . S
C232 C233 1.391 . S
C232 C234 1.394 . S
C232 H248 0.931 . S
C233 C232 1.391 . S
C233 C237 1.376 . S
C234 C232 1.394 . S
C234 C235 1.369 . S
C234 C238 1.531 . S
C235 C234 1.369 . S
C235 C236 1.410 . S
C235 C243 1.503 1_455 S
C236 C235 1.410 . S
C236 C237 1.392 . S
C236 C239 1.511 1_455 S
C237 C233 1.376 . S
C237 C236 1.392 . S
C237 H249 0.929 . S
C238 C234 1.531 . S
C238 H250 0.960 . S
C238 H251 0.962 . S
C238 H252 0.960 . S
C239 C236 1.511 1_655 S
C239 H253 0.961 . S
C239 H254 0.961 . S
C239 H255 0.961 . S
C240 C241 1.370 . S
C240 C242 1.363 . S
C240 H256 0.931 . S
C241 C240 1.370 . S
C241 C245 1.408 . S
C242 C240 1.363 . S
C242 C243 1.370 . S
C242 C246 1.524 . S
C243 C235 1.503 1_655 S
C243 C242 1.370 . S
C243 C244 1.403 . S
C244 C243 1.403 . S
C244 C245 1.404 . S
C244 C247 1.539 . S
C245 C241 1.408 . S
C245 C244 1.404 . S
C245 H257 0.930 . S
C246 C242 1.524 . S
C246 H258 0.956 1_655 S
C246 H259 0.961 . S
C246 H260 0.961 . S
C247 C244 1.539 . S
C247 H261 0.958 . S
C247 H262 0.961 . S
C247 H263 0.960 . S
H248 C232 0.931 . S
H249 C237 0.929 . S
H250 C238 0.960 . S
H251 C238 0.962 . S
H252 C238 0.960 . S
H253 C239 0.961 . S
H254 C239 0.961 . S
H255 C239 0.961 . S
H256 C240 0.931 . S
H257 C245 0.930 . S
H258 C246 0.956 1_455 S
H259 C246 0.961 . S
H260 C246 0.961 . S
H261 C247 0.958 . S
H262 C247 0.961 . S
H263 C247 0.960 . S
C264 C265 1.391 . S
C264 C266 1.394 . S
C264 H280 0.931 . S
C265 C264 1.391 . S
C265 C269 1.376 . S
C266 C264 1.394 . S
C266 C267 1.369 . S
C266 C270 1.531 . S
C267 C266 1.369 . S
C267 C268 1.410 . S
C267 C275 1.503 1_455 S
C268 C267 1.410 . S
C268 C269 1.392 . S
C268 C271 1.511 1_455 S
C269 C265 1.376 . S
C269 C268 1.392 . S
C269 H281 0.929 . S
C270 C266 1.531 . S
C270 H282 0.960 . S
C270 H283 0.962 . S
C270 H284 0.960 . S
C271 C268 1.511 1_655 S
C271 H285 0.961 . S
C271 H286 0.961 . S
C271 H287 0.961 . S
C272 C273 1.370 . S
C272 C274 1.363 . S
C272 H288 0.931 . S
C273 C272 1.370 . S
C273 C277 1.408 . S
C274 C272 1.363 . S
C274 C275 1.370 . S
C274 C278 1.524 . S
C275 C267 1.503 1_655 S
C275 C274 1.370 . S
C275 C276 1.403 . S
C276 C275 1.403 . S
C276 C277 1.404 . S
C276 C279 1.539 . S
C277 C273 1.408 . S
C277 C276 1.404 . S
C277 H289 0.930 . S
C278 C274 1.524 . S
C278 H290 0.956 1_655 S
C278 H291 0.961 . S
C278 H292 0.961 . S
C279 C276 1.539 . S
C279 H293 0.958 . S
C279 H294 0.961 . S
C279 H295 0.960 . S
H280 C264 0.931 . S
H281 C269 0.929 . S
H282 C270 0.960 . S
H283 C270 0.962 . S
H284 C270 0.960 . S
H285 C271 0.961 . S
H286 C271 0.961 . S
H287 C271 0.961 . S
H288 C272 0.931 . S
H289 C277 0.930 . S
H290 C278 0.956 1_455 S
H291 C278 0.961 . S
H292 C278 0.961 . S
H293 C279 0.958 . S
H294 C279 0.961 . S
H295 C279 0.960 . S
C296 C297 1.408 . S
C296 C298 1.385 1_554 S
C296 H312 0.922 1_554 S
C297 C296 1.408 . S
C297 C301 1.376 . S
C298 C296 1.385 1_556 S
C298 C299 1.369 1_556 S
C298 C302 1.531 . S
C299 C298 1.369 1_554 S
C299 C300 1.410 . S
C299 C307 1.503 1_554 S
C300 C299 1.410 . S
C300 C301 1.392 . S
C300 C303 1.511 . S
C301 C297 1.376 . S
C301 C300 1.392 . S
C301 H313 0.929 . S
C302 C298 1.531 . S
C302 H314 0.960 . S
C302 H315 0.962 . S
C302 H316 0.960 . S
C303 C300 1.511 . S
C303 H317 0.961 . S
C303 H318 0.961 . S
C303 H319 0.961 . S
C304 C305 1.370 . S
C304 C306 1.363 . S
C304 H320 0.931 . S
C305 C304 1.370 . S
C305 C309 1.408 . S
C306 C304 1.363 . S
C306 C307 1.370 . S
C306 C310 1.524 1_556 S
C307 C299 1.503 1_556 S
C307 C306 1.370 . S
C307 C308 1.403 . S
C308 C307 1.403 . S
C308 C309 1.404 . S
C308 C311 1.539 . S
C309 C305 1.408 . S
C309 C308 1.404 . S
C309 H321 0.930 . S
C310 C306 1.524 1_554 S
C310 H322 0.956 . S
C310 H323 0.961 . S
C310 H324 0.961 . S
C311 C308 1.539 . S
C311 H325 0.958 . S
C311 H326 0.961 . S
C311 H327 0.960 . S
H312 C296 0.922 1_556 S
H313 C301 0.929 . S
H314 C302 0.960 . S
H315 C302 0.962 . S
H316 C302 0.960 . S
H317 C303 0.961 . S
H318 C303 0.961 . S
H319 C303 0.961 . S
H320 C304 0.931 . S
H321 C309 0.930 . S
H322 C310 0.956 . S
H323 C310 0.961 . S
H324 C310 0.961 . S
H325 C311 0.958 . S
H326 C311 0.961 . S
H327 C311 0.960 . S
C328 C329 1.391 . S
C328 C330 1.394 . S
C328 H344 0.931 . S
C329 C328 1.391 . S
C329 C333 1.376 . S
C330 C328 1.394 . S
C330 C331 1.369 . S
C330 C334 1.531 . S
C331 C330 1.369 . S
C331 C332 1.410 . S
C331 C339 1.503 . S
C332 C331 1.410 . S
C332 C333 1.392 . S
C332 C335 1.511 . S
C333 C329 1.376 . S
C333 C332 1.392 . S
C333 H345 0.929 . S
C334 C330 1.531 . S
C334 H346 0.960 . S
C334 H347 0.962 . S
C334 H348 0.960 . S
C335 C332 1.511 . S
C335 H349 0.961 . S
C335 H350 0.961 . S
C335 H351 0.961 . S
C336 C337 1.370 . S
C336 C338 1.363 . S
C336 H352 0.931 . S
C337 C336 1.370 . S
C337 C341 1.408 . S
C338 C336 1.363 . S
C338 C339 1.370 . S
C338 C342 1.524 . S
C339 C331 1.503 . S
C339 C338 1.370 . S
C339 C340 1.403 . S
C340 C339 1.403 . S
C340 C341 1.404 . S
C340 C343 1.539 . S
C341 C337 1.408 . S
C341 C340 1.404 . S
C341 H353 0.930 . S
C342 C338 1.524 . S
C342 H354 0.956 . S
C342 H355 0.961 . S
C342 H356 0.961 . S
C343 C340 1.539 . S
C343 H357 0.958 . S
C343 H358 0.961 . S
C343 H359 0.960 . S
H344 C328 0.931 . S
H345 C333 0.929 . S
H346 C334 0.960 . S
H347 C334 0.962 . S
H348 C334 0.960 . S
H349 C335 0.961 . S
H350 C335 0.961 . S
H351 C335 0.961 . S
H352 C336 0.931 . S
H353 C341 0.930 . S
H354 C342 0.956 . S
H355 C342 0.961 . S
H356 C342 0.961 . S
H357 C343 0.958 . S
H358 C343 0.961 . S
H359 C343 0.960 . S
C360 C361 1.391 . S
C360 C362 1.394 . S
C360 H376 0.931 . S
C361 C360 1.391 . S
C361 C365 1.376 . S
C362 C360 1.394 . S
C362 C363 1.369 . S
C362 C366 1.531 . S
C363 C362 1.369 . S
C363 C364 1.410 1_554 S
C363 C371 1.503 1_554 S
C364 C363 1.410 1_556 S
C364 C365 1.392 1_556 S
C364 C367 1.511 . S
C365 C361 1.376 . S
C365 C364 1.392 1_554 S
C365 H377 0.929 1_554 S
C366 C362 1.531 . S
C366 H378 0.960 . S
C366 H379 0.962 . S
C366 H380 0.960 . S
C367 C364 1.511 . S
C367 H381 0.961 . S
C367 H382 0.961 . S
C367 H383 0.961 . S
C368 C369 1.370 . S
C368 C370 1.363 . S
C368 H384 0.931 . S
C369 C368 1.370 . S
C369 C373 1.408 . S
C370 C368 1.363 . S
C370 C371 1.370 . S
C370 C374 1.524 . S
C371 C363 1.503 1_556 S
C371 C370 1.370 . S
C371 C372 1.403 1_556 S
C372 C371 1.403 1_554 S
C372 C373 1.404 1_554 S
C372 C375 1.539 . S
C373 C369 1.408 . S
C373 C372 1.404 1_556 S
C373 H385 0.930 . S
C374 C370 1.524 . S
C374 H386 0.956 . S
C374 H387 0.961 . S
C374 H388 0.961 . S
C375 C372 1.539 . S
C375 H389 0.958 . S
C375 H390 0.961 . S
C375 H391 0.960 . S
H376 C360 0.931 . S
H377 C365 0.929 1_556 S
H378 C366 0.960 . S
H379 C366 0.962 . S
H380 C366 0.960 . S
H381 C367 0.961 . S
H382 C367 0.961 . S
H383 C367 0.961 . S
H384 C368 0.931 . S
H385 C373 0.930 . S
H386 C374 0.956 . S
H387 C374 0.961 . S
H388 C374 0.961 . S
H389 C375 0.958 . S
H390 C375 0.961 . S
H391 C375 0.960 . S
C392 C393 1.391 . S
C392 C394 1.394 . S
C392 H408 0.931 . S
C393 C392 1.391 . S
C393 C397 1.376 . S
C394 C392 1.394 . S
C394 C395 1.369 . S
C394 C398 1.531 . S
C395 C394 1.369 . S
C395 C396 1.410 . S
C395 C403 1.503 . S
C396 C395 1.410 . S
C396 C397 1.392 . S
C396 C399 1.511 . S
C397 C393 1.376 . S
C397 C396 1.392 . S
C397 H409 0.929 . S
C398 C394 1.531 . S
C398 H410 0.960 . S
C398 H411 0.962 . S
C398 H412 0.960 . S
C399 C396 1.511 . S
C399 H413 0.961 . S
C399 H414 0.961 . S
C399 H415 0.961 . S
C400 C401 1.370 . S
C400 C402 1.363 . S
C400 H416 0.931 . S
C401 C400 1.370 . S
C401 C405 1.408 . S
C402 C400 1.363 . S
C402 C403 1.370 . S
C402 C406 1.524 . S
C403 C395 1.503 . S
C403 C402 1.370 . S
C403 C404 1.403 . S
C404 C403 1.403 . S
C404 C405 1.404 . S
C404 C407 1.539 . S
C405 C401 1.408 . S
C405 C404 1.404 . S
C405 H417 0.930 . S
C406 C402 1.524 . S
C406 H418 0.956 . S
C406 H419 0.961 . S
C406 H420 0.961 . S
C407 C404 1.539 . S
C407 H421 0.958 . S
C407 H422 0.961 . S
C407 H423 0.960 . S
H408 C392 0.931 . S
H409 C397 0.929 . S
H410 C398 0.960 . S
H411 C398 0.962 . S
H412 C398 0.960 . S
H413 C399 0.961 . S
H414 C399 0.961 . S
H415 C399 0.961 . S
H416 C400 0.931 . S
H417 C405 0.930 . S
H418 C406 0.956 . S
H419 C406 0.961 . S
H420 C406 0.961 . S
H421 C407 0.958 . S
H422 C407 0.961 . S
H423 C407 0.960 . S
C424 C425 1.391 . S
C424 C426 1.394 . S
C424 H440 0.931 . S
C425 C424 1.391 . S
C425 C429 1.376 . S
C426 C424 1.394 . S
C426 C427 1.360 1_556 S
C426 C430 1.531 1_655 S
C427 C426 1.360 1_554 S
C427 C428 1.413 . S
C427 C435 1.508 1_655 S
C428 C427 1.413 . S
C428 C429 1.392 1_554 S
C428 C431 1.511 . S
C429 C425 1.376 . S
C429 C428 1.392 1_556 S
C429 H441 0.929 . S
C430 C426 1.531 1_455 S
C430 H442 0.960 1_556 S
C430 H443 0.962 . S
C430 H444 0.960 . S
C431 C428 1.511 . S
C431 H445 0.961 . S
C431 H446 0.961 . S
C431 H447 0.961 . S
C432 C433 1.370 1_556 S
C432 C434 1.363 . S
C432 H448 0.931 . S
C433 C432 1.370 1_554 S
C433 C437 1.408 . S
C434 C432 1.363 . S
C434 C435 1.370 1_556 S
C434 C438 1.524 . S
C435 C427 1.508 1_455 S
C435 C434 1.370 1_554 S
C435 C436 1.403 . S
C436 C435 1.403 . S
C436 C437 1.404 . S
C436 C439 1.539 . S
C437 C433 1.408 . S
C437 C436 1.404 . S
C437 H449 0.930 . S
C438 C434 1.524 . S
C438 H450 0.956 . S
C438 H451 0.961 1_455 S
C438 H452 0.961 . S
C439 C436 1.539 . S
C439 H453 0.958 . S
C439 H454 0.961 . S
C439 H455 0.960 1_455 S
H440 C424 0.931 . S
H441 C429 0.929 . S
H442 C430 0.960 1_554 S
H443 C430 0.962 . S
H444 C430 0.960 . S
H445 C431 0.961 . S
H446 C431 0.961 . S
H447 C431 0.961 . S
H448 C432 0.931 . S
H449 C437 0.930 . S
H450 C438 0.956 . S
H451 C438 0.961 1_655 S
H452 C438 0.961 . S
H453 C439 0.958 . S
H454 C439 0.961 . S
H455 C439 0.960 1_655 S
C456 C457 1.391 . S
C456 C458 1.394 . S
C456 H472 0.931 . S
C457 C456 1.391 . S
C457 C461 1.376 . S
C458 C456 1.394 . S
C458 C459 1.369 . S
C458 C462 1.531 1_455 S
C459 C458 1.369 . S
C459 C460 1.410 . S
C459 C467 1.503 1_455 S
C460 C459 1.410 . S
C460 C461 1.392 . S
C460 C463 1.511 . S
C461 C457 1.376 . S
C461 C460 1.392 . S
C461 H473 0.929 . S
C462 C458 1.531 1_655 S
C462 H474 0.960 . S
C462 H475 0.962 . S
C462 H476 0.960 . S
C463 C460 1.511 . S
C463 H477 0.961 . S
C463 H478 0.961 . S
C463 H479 0.961 . S
C464 C465 1.370 . S
C464 C466 1.363 . S
C464 H480 0.931 . S
C465 C464 1.370 . S
C465 C469 1.408 . S
C466 C464 1.363 . S
C466 C467 1.370 . S
C466 C470 1.524 1_655 S
C467 C459 1.503 1_655 S
C467 C466 1.370 . S
C467 C468 1.403 . S
C468 C467 1.403 . S
C468 C469 1.404 . S
C468 C471 1.539 . S
C469 C465 1.408 . S
C469 C468 1.404 . S
C469 H481 0.930 . S
C470 C466 1.524 1_455 S
C470 H482 0.956 . S
C470 H483 0.961 . S
C470 H484 0.961 . S
C471 C468 1.539 . S
C471 H485 0.958 . S
C471 H486 0.961 . S
C471 H487 0.960 . S
H472 C456 0.931 . S
H473 C461 0.929 . S
H474 C462 0.960 . S
H475 C462 0.962 . S
H476 C462 0.960 . S
H477 C463 0.961 . S
H478 C463 0.961 . S
H479 C463 0.961 . S
H480 C464 0.931 . S
H481 C469 0.930 . S
H482 C470 0.956 . S
H483 C470 0.961 . S
H484 C470 0.961 . S
H485 C471 0.958 . S
H486 C471 0.961 . S
H487 C471 0.960 . S
C488 C489 1.391 . S
C488 C490 1.394 1_554 S
C488 H504 0.931 . S
C489 C488 1.391 . S
C489 C493 1.376 . S
C490 C488 1.394 1_556 S
C490 C491 1.373 . S
C490 C494 1.531 1_565 S
C491 C490 1.373 . S
C491 C492 1.402 1_556 S
C491 C499 1.506 1_565 S
C492 C491 1.402 1_554 S
C492 C493 1.392 . S
C492 C495 1.511 . S
C493 C489 1.376 . S
C493 C492 1.392 . S
C493 H505 0.929 . S
C494 C490 1.531 1_545 S
C494 H506 0.960 . S
C494 H507 0.962 . S
C494 H508 0.960 . S
C495 C492 1.511 . S
C495 H509 0.961 . S
C495 H510 0.961 . S
C495 H511 0.961 . S
C496 C497 1.370 . S
C496 C498 1.363 1_556 S
C496 H512 0.931 1_556 S
C497 C496 1.370 . S
C497 C501 1.408 . S
C498 C496 1.363 1_554 S
C498 C499 1.370 1_554 S
C498 C502 1.524 . S
C499 C491 1.506 1_545 S
C499 C498 1.370 1_556 S
C499 C500 1.403 . S
C500 C499 1.403 . S
C500 C501 1.404 . S
C500 C503 1.539 1_545 S
C501 C497 1.408 . S
C501 C500 1.404 . S
C501 H513 0.930 . S
C502 C498 1.524 . S
C502 H514 0.956 . S
C502 H515 0.961 . S
C502 H516 0.961 . S
C503 C500 1.539 1_565 S
C503 H517 0.958 . S
C503 H518 0.961 . S
C503 H519 0.960 . S
H504 C488 0.931 . S
H505 C493 0.929 . S
H506 C494 0.960 . S
H507 C494 0.962 . S
H508 C494 0.960 . S
H509 C495 0.961 . S
H510 C495 0.961 . S
H511 C495 0.961 . S
H512 C496 0.931 1_554 S
H513 C501 0.930 . S
H514 C502 0.956 . S
H515 C502 0.961 . S
H516 C502 0.961 . S
H517 C503 0.958 . S
H518 C503 0.961 . S
H519 C503 0.960 . S
C520 C521 1.391 . S
C520 C522 1.394 . S
C520 H536 0.931 . S
C521 C520 1.391 . S
C521 C525 1.376 . S
C522 C520 1.394 . S
C522 C523 1.369 . S
C522 C526 1.531 . S
C523 C522 1.369 . S
C523 C524 1.410 . S
C523 C531 1.503 1_565 S
C524 C523 1.410 . S
C524 C525 1.392 . S
C524 C527 1.511 1_565 S
C525 C521 1.376 . S
C525 C524 1.392 . S
C525 H537 0.929 . S
C526 C522 1.531 . S
C526 H538 0.960 . S
C526 H539 0.962 . S
C526 H540 0.960 . S
C527 C524 1.511 1_545 S
C527 H541 0.961 . S
C527 H542 0.961 . S
C527 H543 0.961 . S
C528 C529 1.370 . S
C528 C530 1.363 . S
C528 H544 0.931 . S
C529 C528 1.370 . S
C529 C533 1.408 . S
C530 C528 1.363 . S
C530 C531 1.370 . S
C530 C534 1.524 1_545 S
C531 C523 1.503 1_545 S
C531 C530 1.370 . S
C531 C532 1.403 . S
C532 C531 1.403 . S
C532 C533 1.404 . S
C532 C535 1.539 . S
C533 C529 1.408 . S
C533 C532 1.404 . S
C533 H545 0.930 . S
C534 C530 1.524 1_565 S
C534 H546 0.956 . S
C534 H547 0.961 . S
C534 H548 0.961 . S
C535 C532 1.539 . S
C535 H549 0.958 . S
C535 H550 0.961 . S
C535 H551 0.960 . S
H536 C520 0.931 . S
H537 C525 0.929 . S
H538 C526 0.960 . S
H539 C526 0.962 . S
H540 C526 0.960 . S
H541 C527 0.961 . S
H542 C527 0.961 . S
H543 C527 0.961 . S
H544 C528 0.931 . S
H545 C533 0.930 . S
H546 C534 0.956 . S
H547 C534 0.961 . S
H548 C534 0.961 . S
H549 C535 0.958 . S
H550 C535 0.961 . S
H551 C535 0.960 . S
C552 C553 1.391 . S
C552 C554 1.394 . S
C552 H568 0.931 . S
C553 C552 1.391 . S
C553 C557 1.376 . S
C554 C552 1.394 . S
C554 C555 1.369 . S
C554 C558 1.531 1_455 S
C555 C554 1.369 . S
C555 C556 1.410 . S
C555 C563 1.503 1_455 S
C556 C555 1.410 . S
C556 C557 1.392 . S
C556 C559 1.511 . S
C557 C553 1.376 . S
C557 C556 1.392 . S
C557 H569 0.929 . S
C558 C554 1.531 1_655 S
C558 H570 0.960 . S
C558 H571 0.962 . S
C558 H572 0.960 . S
C559 C556 1.511 . S
C559 H573 0.961 . S
C559 H574 0.961 . S
C559 H575 0.961 . S
C560 C561 1.370 . S
C560 C562 1.363 . S
C560 H576 0.931 . S
C561 C560 1.370 . S
C561 C565 1.408 . S
C562 C560 1.363 . S
C562 C563 1.370 . S
C562 C566 1.524 . S
C563 C555 1.503 1_655 S
C563 C562 1.370 . S
C563 C564 1.403 . S
C564 C563 1.403 . S
C564 C565 1.404 . S
C564 C567 1.539 . S
C565 C561 1.408 . S
C565 C564 1.404 . S
C565 H577 0.930 . S
C566 C562 1.524 . S
C566 H578 0.956 . S
C566 H579 0.959 . S
C566 H580 0.961 . S
C567 C564 1.539 . S
C567 H581 0.958 . S
C567 H582 0.961 . S
C567 H583 0.960 1_655 S
H568 C552 0.931 . S
H569 C557 0.929 . S
H570 C558 0.960 . S
H571 C558 0.962 . S
H572 C558 0.960 . S
H573 C559 0.961 . S
H574 C559 0.961 . S
H575 C559 0.961 . S
H576 C560 0.931 . S
H577 C565 0.930 . S
H578 C566 0.956 . S
H579 C566 0.959 . S
H580 C566 0.961 . S
H581 C567 0.958 . S
H582 C567 0.961 . S
H583 C567 0.960 1_455 S
C584 C585 1.391 . S
C584 C586 1.394 . S
C584 H600 0.931 . S
C585 C584 1.391 . S
C585 C589 1.376 . S
C586 C584 1.394 . S
C586 C587 1.369 . S
C586 C590 1.531 . S
C587 C586 1.369 . S
C587 C588 1.410 . S
C587 C595 1.503 1_455 S
C588 C587 1.410 . S
C588 C589 1.392 . S
C588 C591 1.511 1_455 S
C589 C585 1.376 . S
C589 C588 1.392 . S
C589 H601 0.929 . S
C590 C586 1.531 . S
C590 H602 0.960 . S
C590 H603 0.962 . S
C590 H604 0.960 . S
C591 C588 1.511 1_655 S
C591 H605 0.961 . S
C591 H606 0.961 . S
C591 H607 0.961 . S
C592 C593 1.370 . S
C592 C594 1.363 . S
C592 H608 0.931 . S
C593 C592 1.370 . S
C593 C597 1.408 . S
C594 C592 1.363 . S
C594 C595 1.370 . S
C594 C598 1.524 . S
C595 C587 1.503 1_655 S
C595 C594 1.370 . S
C595 C596 1.403 . S
C596 C595 1.403 . S
C596 C597 1.404 . S
C596 C599 1.539 . S
C597 C593 1.408 . S
C597 C596 1.404 . S
C597 H609 0.930 . S
C598 C594 1.524 . S
C598 H610 0.956 1_655 S
C598 H611 0.958 1_655 S
C598 H612 0.961 . S
C599 C596 1.539 . S
C599 H613 0.958 . S
C599 H614 0.961 . S
C599 H615 0.960 . S
H600 C584 0.931 . S
H601 C589 0.929 . S
H602 C590 0.960 . S
H603 C590 0.962 . S
H604 C590 0.960 . S
H605 C591 0.961 . S
H606 C591 0.961 . S
H607 C591 0.961 . S
H608 C592 0.931 . S
H609 C597 0.930 . S
H610 C598 0.956 1_455 S
H611 C598 0.958 1_455 S
H612 C598 0.961 . S
H613 C599 0.958 . S
H614 C599 0.961 . S
H615 C599 0.960 . S
C616 C617 1.391 . S
C616 C618 1.394 . S
C616 H632 0.931 . S
C617 C616 1.391 . S
C617 C621 1.376 . S
C618 C616 1.394 . S
C618 C619 1.369 . S
C618 C622 1.531 . S
C619 C618 1.369 . S
C619 C620 1.410 . S
C619 C627 1.503 . S
C620 C619 1.410 . S
C620 C621 1.392 . S
C620 C623 1.511 . S
C621 C617 1.376 . S
C621 C620 1.392 . S
C621 H633 0.929 . S
C622 C618 1.531 . S
C622 H634 0.960 . S
C622 H635 0.962 . S
C622 H636 0.960 . S
C623 C620 1.511 . S
C623 H637 0.961 . S
C623 H638 0.961 . S
C623 H639 0.961 . S
C624 C625 1.370 . S
C624 C626 1.363 . S
C624 H640 0.931 . S
C625 C624 1.370 . S
C625 C629 1.408 . S
C626 C624 1.363 . S
C626 C627 1.370 . S
C626 C630 1.524 . S
C627 C619 1.503 . S
C627 C626 1.370 . S
C627 C628 1.403 . S
C628 C627 1.403 . S
C628 C629 1.404 . S
C628 C631 1.539 . S
C629 C625 1.408 . S
C629 C628 1.404 . S
C629 H641 0.930 . S
C630 C626 1.524 . S
C630 H642 0.956 . S
C630 H643 0.961 . S
C630 H644 0.961 . S
C631 C628 1.539 . S
C631 H645 0.958 . S
C631 H646 0.961 . S
C631 H647 0.960 . S
H632 C616 0.931 . S
H633 C621 0.929 . S
H634 C622 0.960 . S
H635 C622 0.962 . S
H636 C622 0.960 . S
H637 C623 0.961 . S
H638 C623 0.961 . S
H639 C623 0.961 . S
H640 C624 0.931 . S
H641 C629 0.930 . S
H642 C630 0.956 . S
H643 C630 0.961 . S
H644 C630 0.961 . S
H645 C631 0.958 . S
H646 C631 0.961 . S
H647 C631 0.960 . S
C648 C649 1.391 . S
C648 C650 1.394 . S
C648 H664 0.931 . S
C649 C648 1.391 . S
C649 C653 1.376 . S
C650 C648 1.394 . S
C650 C651 1.369 . S
C650 C654 1.531 . S
C651 C650 1.369 . S
C651 C652 1.410 . S
C651 C659 1.503 . S
C652 C651 1.410 . S
C652 C653 1.392 . S
C652 C655 1.511 . S
C653 C649 1.376 . S
C653 C652 1.392 . S
C653 H665 0.929 . S
C654 C650 1.531 . S
C654 H666 0.960 . S
C654 H667 0.962 . S
C654 H668 0.960 . S
C655 C652 1.511 . S
C655 H669 0.961 . S
C655 H670 0.961 . S
C655 H671 0.961 . S
C656 C657 1.370 . S
C656 C658 1.363 . S
C656 H672 0.931 . S
C657 C656 1.370 . S
C657 C661 1.408 . S
C658 C656 1.363 . S
C658 C659 1.370 . S
C658 C662 1.524 . S
C659 C651 1.503 . S
C659 C658 1.370 . S
C659 C660 1.403 . S
C660 C659 1.403 . S
C660 C661 1.404 . S
C660 C663 1.539 . S
C661 C657 1.408 . S
C661 C660 1.404 . S
C661 H673 0.930 . S
C662 C658 1.524 . S
C662 H674 0.956 . S
C662 H675 0.961 . S
C662 H676 0.961 . S
C663 C660 1.539 . S
C663 H677 0.958 . S
C663 H678 0.961 . S
C663 H679 0.960 . S
H664 C648 0.931 . S
H665 C653 0.929 . S
H666 C654 0.960 . S
H667 C654 0.962 . S
H668 C654 0.960 . S
H669 C655 0.961 . S
H670 C655 0.961 . S
H671 C655 0.961 . S
H672 C656 0.931 . S
H673 C661 0.930 . S
H674 C662 0.956 . S
H675 C662 0.961 . S
H676 C662 0.961 . S
H677 C663 0.958 . S
H678 C663 0.961 . S
H679 C663 0.960 . S
C680 C681 1.391 . S
C680 C682 1.394 . S
C680 H696 0.932 1_556 S
C681 C680 1.391 . S
C681 C685 1.376 . S
C682 C680 1.394 . S
C682 C683 1.369 . S
C682 C686 1.531 . S
C683 C682 1.369 . S
C683 C684 1.410 . S
C683 C691 1.503 . S
C684 C683 1.410 . S
C684 C685 1.392 . S
C684 C687 1.511 . S
C685 C681 1.376 . S
C685 C684 1.392 . S
C685 H697 0.929 . S
C686 C682 1.531 . S
C686 H698 0.960 . S
C686 H699 0.962 . S
C686 H700 0.960 . S
C687 C684 1.511 . S
C687 H701 0.961 . S
C687 H702 0.961 . S
C687 H703 0.961 . S
C688 C689 1.370 . S
C688 C690 1.363 . S
C688 H704 0.931 . S
C689 C688 1.370 . S
C689 C693 1.408 . S
C690 C688 1.363 . S
C690 C691 1.370 . S
C690 C694 1.524 . S
C691 C683 1.503 . S
C691 C690 1.370 . S
C691 C692 1.403 . S
C692 C691 1.403 . S
C692 C693 1.404 . S
C692 C695 1.539 . S
C693 C689 1.408 . S
C693 C692 1.404 . S
C693 H705 0.930 . S
C694 C690 1.524 . S
C694 H706 0.956 . S
C694 H707 0.961 . S
C694 H708 0.961 . S
C695 C692 1.539 . S
C695 H709 0.958 . S
C695 H710 0.961 . S
C695 H711 0.960 . S
H696 C680 0.932 1_554 S
H697 C685 0.929 . S
H698 C686 0.960 . S
H699 C686 0.962 . S
H700 C686 0.960 . S
H701 C687 0.961 . S
H702 C687 0.961 . S
H703 C687 0.961 . S
H704 C688 0.931 . S
H705 C693 0.930 . S
H706 C694 0.956 . S
H707 C694 0.961 . S
H708 C694 0.961 . S
H709 C695 0.958 . S
H710 C695 0.961 . S
H711 C695 0.960 . S
C712 C713 1.391 . S
C712 C714 1.394 . S
C712 H728 0.931 . S
C713 C712 1.391 . S
C713 C717 1.376 . S
C714 C712 1.394 . S
C714 C715 1.369 . S
C714 C718 1.531 . S
C715 C714 1.369 . S
C715 C716 1.410 . S
C715 C723 1.503 . S
C716 C715 1.410 . S
C716 C717 1.392 . S
C716 C719 1.511 . S
C717 C713 1.376 . S
C717 C716 1.392 . S
C717 H729 0.929 . S
C718 C714 1.531 . S
C718 H730 0.960 . S
C718 H731 0.962 . S
C718 H732 0.960 . S
C719 C716 1.511 . S
C719 H733 0.961 . S
C719 H734 0.961 . S
C719 H735 0.961 . S
C720 C721 1.370 . S
C720 C722 1.363 . S
C720 H736 0.931 . S
C721 C720 1.370 . S
C721 C725 1.408 . S
C722 C720 1.363 . S
C722 C723 1.370 . S
C722 C726 1.524 . S
C723 C715 1.503 . S
C723 C722 1.370 . S
C723 C724 1.403 . S
C724 C723 1.403 . S
C724 C725 1.404 . S
C724 C727 1.539 . S
C725 C721 1.408 . S
C725 C724 1.404 . S
C725 H737 0.930 . S
C726 C722 1.524 . S
C726 H738 0.956 . S
C726 H739 0.961 . S
C726 H740 0.961 . S
C727 C724 1.539 . S
C727 H741 0.958 . S
C727 H742 0.961 . S
C727 H743 0.960 . S
H728 C712 0.931 . S
H729 C717 0.929 . S
H730 C718 0.960 . S
H731 C718 0.962 . S
H732 C718 0.960 . S
H733 C719 0.961 . S
H734 C719 0.961 . S
H735 C719 0.961 . S
H736 C720 0.931 . S
H737 C725 0.930 . S
H738 C726 0.956 . S
H739 C726 0.961 . S
H740 C726 0.961 . S
H741 C727 0.958 . S
H742 C727 0.961 . S
H743 C727 0.960 . S
C744 C745 1.391 . S
C744 C746 1.394 . S
C744 H760 0.931 . S
C745 C744 1.391 . S
C745 C749 1.376 . S
C746 C744 1.394 . S
C746 C747 1.369 . S
C746 C750 1.531 . S
C747 C746 1.369 . S
C747 C748 1.410 . S
C747 C755 1.503 . S
C748 C747 1.410 . S
C748 C749 1.392 . S
C748 C751 1.511 . S
C749 C745 1.376 . S
C749 C748 1.392 . S
C749 H761 0.929 . S
C750 C746 1.531 . S
C750 H762 0.960 . S
C750 H763 0.962 . S
C750 H764 0.960 . S
C751 C748 1.511 . S
C751 H765 0.961 . S
C751 H766 0.961 . S
C751 H767 0.961 . S
C752 C753 1.370 . S
C752 C754 1.363 . S
C752 H768 0.931 . S
C753 C752 1.370 . S
C753 C757 1.408 . S
C754 C752 1.363 . S
C754 C755 1.370 . S
C754 C758 1.524 . S
C755 C747 1.503 . S
C755 C754 1.370 . S
C755 C756 1.403 . S
C756 C755 1.403 . S
C756 C757 1.404 . S
C756 C759 1.539 . S
C757 C753 1.408 . S
C757 C756 1.404 . S
C757 H769 0.930 . S
C758 C754 1.524 . S
C758 H770 0.956 . S
C758 H771 0.961 . S
C758 H772 0.961 . S
C759 C756 1.539 . S
C759 H773 0.958 . S
C759 H774 0.961 . S
C759 H775 0.960 . S
H760 C744 0.931 . S
H761 C749 0.929 . S
H762 C750 0.960 . S
H763 C750 0.962 . S
H764 C750 0.960 . S
H765 C751 0.961 . S
H766 C751 0.961 . S
H767 C751 0.961 . S
H768 C752 0.931 . S
H769 C757 0.930 . S
H770 C758 0.956 . S
H771 C758 0.961 . S
H772 C758 0.961 . S
H773 C759 0.958 . S
H774 C759 0.961 . S
H775 C759 0.960 . S
C776 C777 1.391 . S
C776 C778 1.394 . S
C776 H792 0.931 . S
C777 C776 1.391 . S
C777 C781 1.376 . S
C778 C776 1.394 . S
C778 C779 1.369 . S
C778 C782 1.531 . S
C779 C778 1.369 . S
C779 C780 1.410 . S
C779 C787 1.503 . S
C780 C779 1.410 . S
C780 C781 1.392 . S
C780 C783 1.511 . S
C781 C777 1.376 . S
C781 C780 1.392 . S
C781 H793 0.929 . S
C782 C778 1.531 . S
C782 H794 0.960 . S
C782 H795 0.962 . S
C782 H796 0.960 . S
C783 C780 1.511 . S
C783 H797 0.961 . S
C783 H798 0.961 . S
C783 H799 0.961 . S
C784 C785 1.370 . S
C784 C786 1.363 . S
C784 H800 0.931 . S
C785 C784 1.370 . S
C785 C789 1.408 . S
C786 C784 1.363 . S
C786 C787 1.370 . S
C786 C790 1.524 . S
C787 C779 1.503 . S
C787 C786 1.370 . S
C787 C788 1.403 . S
C788 C787 1.403 . S
C788 C789 1.404 . S
C788 C791 1.539 . S
C789 C785 1.408 . S
C789 C788 1.404 . S
C789 H801 0.930 . S
C790 C786 1.524 . S
C790 H802 0.956 . S
C790 H803 0.961 . S
C790 H804 0.961 . S
C791 C788 1.539 . S
C791 H805 0.958 . S
C791 H806 0.961 . S
C791 H807 0.960 . S
H792 C776 0.931 . S
H793 C781 0.929 . S
H794 C782 0.960 . S
H795 C782 0.962 . S
H796 C782 0.960 . S
H797 C783 0.961 . S
H798 C783 0.961 . S
H799 C783 0.961 . S
H800 C784 0.931 . S
H801 C789 0.930 . S
H802 C790 0.956 . S
H803 C790 0.961 . S
H804 C790 0.961 . S
H805 C791 0.958 . S
H806 C791 0.961 . S
H807 C791 0.960 . S
C808 C809 1.391 . S
C808 C810 1.394 . S
C808 H824 0.931 . S
C809 C808 1.391 . S
C809 C813 1.376 . S
C810 C808 1.394 . S
C810 C811 1.369 . S
C810 C814 1.531 . S
C811 C810 1.369 . S
C811 C812 1.410 . S
C811 C819 1.503 1_565 S
C812 C811 1.410 . S
C812 C813 1.392 . S
C812 C815 1.511 . S
C813 C809 1.376 . S
C813 C812 1.392 . S
C813 H825 0.929 . S
C814 C810 1.531 . S
C814 H826 0.960 . S
C814 H827 0.962 . S
C814 H828 0.960 . S
C815 C812 1.511 . S
C815 H829 0.961 . S
C815 H830 0.961 . S
C815 H831 0.961 1_565 S
C816 C817 1.370 1_565 S
C816 C818 1.363 . S
C816 H832 0.931 . S
C817 C816 1.370 1_545 S
C817 C821 1.408 . S
C818 C816 1.363 . S
C818 C819 1.370 1_565 S
C818 C822 1.524 . S
C819 C811 1.503 1_545 S
C819 C818 1.370 1_545 S
C819 C820 1.403 . S
C820 C819 1.403 . S
C820 C821 1.404 . S
C820 C823 1.539 . S
C821 C817 1.408 . S
C821 C820 1.404 . S
C821 H833 0.930 . S
C822 C818 1.524 . S
C822 H834 0.956 . S
C822 H835 0.961 . S
C822 H836 0.961 . S
C823 C820 1.539 . S
C823 H837 0.958 . S
C823 H838 0.961 . S
C823 H839 0.960 . S
H824 C808 0.931 . S
H825 C813 0.929 . S
H826 C814 0.960 . S
H827 C814 0.962 . S
H828 C814 0.960 . S
H829 C815 0.961 . S
H830 C815 0.961 . S
H831 C815 0.961 1_545 S
H832 C816 0.931 . S
H833 C821 0.930 . S
H834 C822 0.956 . S
H835 C822 0.961 . S
H836 C822 0.961 . S
H837 C823 0.958 . S
H838 C823 0.961 . S
H839 C823 0.960 . S
C840 C841 1.391 . S
C840 C842 1.394 . S
C840 H856 0.931 . S
C841 C840 1.391 . S
C841 C845 1.376 . S
C842 C840 1.394 . S
C842 C843 1.369 . S
C842 C846 1.531 . S
C843 C842 1.369 . S
C843 C844 1.410 . S
C843 C851 1.503 1_545 S
C844 C843 1.410 . S
C844 C845 1.392 . S
C844 C847 1.511 1_545 S
C845 C841 1.376 . S
C845 C844 1.392 . S
C845 H857 0.929 . S
C846 C842 1.531 . S
C846 H858 0.960 . S
C846 H859 0.962 . S
C846 H860 0.960 . S
C847 C844 1.511 1_565 S
C847 H861 0.961 . S
C847 H862 0.961 . S
C847 H863 0.961 . S
C848 C849 1.370 . S
C848 C850 1.363 . S
C848 H864 0.931 . S
C849 C848 1.370 . S
C849 C853 1.408 . S
C850 C848 1.363 . S
C850 C851 1.370 . S
C850 C854 1.524 . S
C851 C843 1.503 1_565 S
C851 C850 1.370 . S
C851 C852 1.403 . S
C852 C851 1.403 . S
C852 C853 1.404 . S
C852 C855 1.539 1_565 S
C853 C849 1.408 . S
C853 C852 1.404 . S
C853 H865 0.930 . S
C854 C850 1.524 . S
C854 H866 0.956 . S
C854 H867 0.961 . S
C854 H868 0.961 . S
C855 C852 1.539 1_545 S
C855 H869 0.958 . S
C855 H870 0.961 . S
C855 H871 0.960 . S
H856 C840 0.931 . S
H857 C845 0.929 . S
H858 C846 0.960 . S
H859 C846 0.962 . S
H860 C846 0.960 . S
H861 C847 0.961 . S
H862 C847 0.961 . S
H863 C847 0.961 . S
H864 C848 0.931 . S
H865 C853 0.930 . S
H866 C854 0.956 . S
H867 C854 0.961 . S
H868 C854 0.961 . S
H869 C855 0.958 . S
H870 C855 0.961 . S
H871 C855 0.960 . S
C872 C873 1.391 . S
C872 C874 1.394 . S
C872 H888 0.931 . S
C873 C872 1.391 . S
C873 C877 1.376 . S
C874 C872 1.394 . S
C874 C875 1.369 . S
C874 C878 1.531 . S
C875 C874 1.369 . S
C875 C876 1.410 1_565 S
C875 C883 1.503 1_565 S
C876 C875 1.410 1_545 S
C876 C877 1.392 1_545 S
C876 C879 1.511 . S
C877 C873 1.376 . S
C877 C876 1.392 1_565 S
C877 H889 0.929 1_565 S
C878 C874 1.531 . S
C878 H890 0.960 . S
C878 H891 0.962 . S
C878 H892 0.960 . S
C879 C876 1.511 . S
C879 H893 0.961 . S
C879 H894 0.961 . S
C879 H895 0.961 . S
C880 C881 1.370 . S
C880 C882 1.363 . S
C880 H896 0.931 . S
C881 C880 1.370 . S
C881 C885 1.408 . S
C882 C880 1.363 . S
C882 C883 1.370 . S
C882 C886 1.524 . S
C883 C875 1.503 1_545 S
C883 C882 1.370 . S
C883 C884 1.403 . S
C884 C883 1.403 . S
C884 C885 1.404 . S
C884 C887 1.539 1_545 S
C885 C881 1.408 . S
C885 C884 1.404 . S
C885 H897 0.942 . S
C886 C882 1.524 . S
C886 H898 0.956 . S
C886 H899 0.961 . S
C886 H900 0.961 . S
C887 C884 1.539 1_565 S
C887 H901 0.958 . S
C887 H902 0.961 . S
C887 H903 0.960 . S
H888 C872 0.931 . S
H889 C877 0.929 1_545 S
H890 C878 0.960 . S
H891 C878 0.962 . S
H892 C878 0.960 . S
H893 C879 0.961 . S
H894 C879 0.961 . S
H895 C879 0.961 . S
H896 C880 0.931 . S
H897 C885 0.942 . S
H898 C886 0.956 . S
H899 C886 0.961 . S
H900 C886 0.961 . S
H901 C887 0.958 . S
H902 C887 0.961 . S
H903 C887 0.960 . S
C904 C905 1.391 . S
C904 C906 1.394 . S
C904 H920 0.931 . S
C905 C904 1.391 . S
C905 C909 1.376 . S
C906 C904 1.394 . S
C906 C907 1.369 . S
C906 C910 1.531 . S
C907 C906 1.369 . S
C907 C908 1.410 . S
C907 C915 1.503 . S
C908 C907 1.410 . S
C908 C909 1.392 . S
C908 C911 1.511 1_545 S
C909 C905 1.376 . S
C909 C908 1.392 . S
C909 H921 0.929 . S
C910 C906 1.531 . S
C910 H922 0.960 . S
C910 H923 0.962 . S
C910 H924 0.960 . S
C911 C908 1.511 1_565 S
C911 H925 0.961 . S
C911 H926 0.961 . S
C911 H927 0.961 1_565 S
C912 C913 1.370 . S
C912 C914 1.363 . S
C912 H928 0.931 . S
C913 C912 1.370 . S
C913 C917 1.397 1_565 S
C914 C912 1.363 . S
C914 C915 1.370 1_565 S
C914 C918 1.524 . S
C915 C907 1.503 . S
C915 C914 1.370 1_545 S
C915 C916 1.403 . S
C916 C915 1.403 . S
C916 C917 1.411 . S
C916 C919 1.539 . S
C917 C913 1.397 1_545 S
C917 C916 1.411 . S
C917 H929 0.934 . S
C918 C914 1.524 . S
C918 H930 0.956 . S
C918 H931 0.961 . S
C918 H932 0.961 . S
C919 C916 1.539 . S
C919 H933 0.958 . S
C919 H934 0.961 . S
C919 H935 0.960 . S
H920 C904 0.931 . S
H921 C909 0.929 . S
H922 C910 0.960 . S
H923 C910 0.962 . S
H924 C910 0.960 . S
H925 C911 0.961 . S
H926 C911 0.961 . S
H927 C911 0.961 1_545 S
H928 C912 0.931 . S
H929 C917 0.934 . S
H930 C918 0.956 . S
H931 C918 0.961 . S
H932 C918 0.961 . S
H933 C919 0.958 . S
H934 C919 0.961 . S
H935 C919 0.960 . S
C169 C24 1.024 . S
C177 C3 1.052 . S
C201 C45 1.066 . S
C209 C79 1.042 . S
C233 C108 1.012 . S
C241 C87 1.033 . S
C265 C129 1.048 . S
C273 C163 1.050 . S
C297 C4 1.210 . S
C305 C130 1.296 . S
C329 C25 1.218 . S
C337 C154 1.294 . S
C361 C88 1.324 . S
C369 C46 1.246 . S
C393 C70 1.300 . S
C401 C109 1.262 . S
C425 C61 1.032 . S
C433 C19 0.937 . S
C457 C83 0.993 . S
C465 C40 0.951 . S
C489 C103 1.024 . S
C497 C145 0.946 . S
C521 C124 0.923 . S
C529 C167 0.980 . S
C553 C16 1.101 . S
C561 C37 1.049 . S
C585 C66 1.098 . S
C593 C58 1.054 . S
C617 C121 1.104 . S
C625 C100 1.054 . S
C649 C150 0.933 . S
C657 C142 0.986 . S
C681 C20 1.465 1_556 S
C689 C67 1.363 . S
C713 C41 1.489 . S
C721 C49 1.335 . S
C745 C28 1.396 . S
C753 C62 1.454 1_554 S
C777 C7 1.289 . S
C785 C82 1.470 . S
C809 C104 1.488 1_556 S
C817 C151 1.342 . S
C841 C133 1.315 . S
C849 C125 1.475 . S
C873 C112 1.377 . S
C881 C146 1.464 1_554 S
C905 C166 1.429 . S
C913 C91 1.364 . S
