# Generated by pormake.
# Topology wiu, (6)-cn, num edge types: 1
# Building blocks:
#     Node 0, Type 0, BuildingBlock: LEVNOQ01_clean_sbu_1, # of connection points: 6
#     Node 1, Type 0, BuildingBlock: LEVNOQ01_clean_sbu_1, # of connection points: 6
#     Node 2, Type 0, BuildingBlock: LEVNOQ01_clean_sbu_1, # of connection points: 6
#     Node 3, Type 0, BuildingBlock: LEVNOQ01_clean_sbu_1, # of connection points: 6
#     Node 4, Type 0, BuildingBlock: LEVNOQ01_clean_sbu_1, # of connection points: 6
#     Node 5, Type 0, BuildingBlock: LEVNOQ01_clean_sbu_1, # of connection points: 6
#     Node 6, Type 0, BuildingBlock: LEVNOQ01_clean_sbu_1, # of connection points: 6
#     Node 7, Type 0, BuildingBlock: LEVNOQ01_clean_sbu_1, # of connection points: 6
#     Node 8, Type 0, BuildingBlock: LEVNOQ01_clean_sbu_1, # of connection points: 6
#     Node 9, Type 0, BuildingBlock: LEVNOQ01_clean_sbu_1, # of connection points: 6
#     Node 10, Type 0, BuildingBlock: LEVNOQ01_clean_sbu_1, # of connection points: 6
#     Node 11, Type 0, BuildingBlock: LEVNOQ01_clean_sbu_1, # of connection points: 6
#     Node 12, Type 0, BuildingBlock: LEVNOQ01_clean_sbu_1, # of connection points: 6
#     Node 13, Type 0, BuildingBlock: LEVNOQ01_clean_sbu_1, # of connection points: 6
#     Node 14, Type 0, BuildingBlock: LEVNOQ01_clean_sbu_1, # of connection points: 6
#     Node 15, Type 0, BuildingBlock: LEVNOQ01_clean_sbu_1, # of connection points: 6
#     Edge 16, Type (0, 0), None
#     Edge 17, Type (0, 0), None
#     Edge 18, Type (0, 0), None
#     Edge 19, Type (0, 0), None
#     Edge 20, Type (0, 0), None
#     Edge 21, Type (0, 0), None
#     Edge 22, Type (0, 0), None
#     Edge 23, Type (0, 0), None
#     Edge 24, Type (0, 0), None
#     Edge 25, Type (0, 0), None
#     Edge 26, Type (0, 0), None
#     Edge 27, Type (0, 0), None
#     Edge 28, Type (0, 0), None
#     Edge 29, Type (0, 0), None
#     Edge 30, Type (0, 0), None
#     Edge 31, Type (0, 0), None
#     Edge 32, Type (0, 0), None
#     Edge 33, Type (0, 0), None
#     Edge 34, Type (0, 0), None
#     Edge 35, Type (0, 0), None
#     Edge 36, Type (0, 0), None
#     Edge 37, Type (0, 0), None
#     Edge 38, Type (0, 0), None
#     Edge 39, Type (0, 0), None
#     Edge 40, Type (0, 0), None
#     Edge 41, Type (0, 0), None
#     Edge 42, Type (0, 0), None
#     Edge 43, Type (0, 0), None
#     Edge 44, Type (0, 0), None
#     Edge 45, Type (0, 0), None
#     Edge 46, Type (0, 0), None
#     Edge 47, Type (0, 0), None
#     Edge 48, Type (0, 0), None
#     Edge 49, Type (0, 0), None
#     Edge 50, Type (0, 0), None
#     Edge 51, Type (0, 0), None
#     Edge 52, Type (0, 0), None
#     Edge 53, Type (0, 0), None
#     Edge 54, Type (0, 0), None
#     Edge 55, Type (0, 0), None
#     Edge 56, Type (0, 0), None
#     Edge 57, Type (0, 0), None
#     Edge 58, Type (0, 0), None
#     Edge 59, Type (0, 0), None
#     Edge 60, Type (0, 0), None
#     Edge 61, Type (0, 0), None
#     Edge 62, Type (0, 0), None
#     Edge 63, Type (0, 0), None
# Relax obj value: 0.210
# Max RMSD: 0.214
# Mean RMSD: 0.214
data_MOF--net-wiu--node1-LEVNOQ01_clean_sbu_1--edge1-none
_symmetry_space_group_name_H-M    P1
_symmetry_Int_Tables_number       1
_symmetry_cell_setting            triclinic
loop_
_symmetry_equiv_pos_as_xyz
'x, y, z'
_cell_length_a     14.408536
_cell_length_b     14.408902
_cell_length_c     28.234137
_cell_angle_alpha  90.014065
_cell_angle_beta   90.004303
_cell_angle_gamma 90.001661
loop_
_atom_site_label
_atom_site_type_symbol
_atom_site_fract_x
_atom_site_fract_y
_atom_site_fract_z
_atom_type_partial_charge
O0 O 0.07635 0.11101 0.0391 0.0
Mg1 Mg 0.14453 0.20559 -0.00593 0.0
O2 O 0.18322 1.00074 0.0515 0.0
Mg3 Mg 0.31345 0.08438 0.02375 0.0
O4 O 0.23821 0.13387 -0.04302 0.0
O5 O 0.11959 0.2032 0.92193 0.0
O6 O 0.41691 0.18202 0.00272 0.0
O7 O 0.38674 0.9747 -0.02706 0.0
Mg8 Mg 0.52967 0.0055 0.05685 0.0
O9 O 0.39966 0.02581 0.08562 0.0
O10 O 0.54788 0.15045 0.04177 0.0
O11 O 0.5161 0.91614 -0.00219 0.0
O12 O 0.51311 0.96402 0.12714 0.0
C13 C 0.25331 0.29045 0.06718 0.0
C14 C 0.10078 0.03411 0.05712 0.0
C15 C 0.19831 0.16135 0.91848 0.0
C16 C 0.49417 0.20514 0.0191 0.0
C17 C 0.47514 0.96451 -0.03307 0.0
C18 C 0.43326 0.00404 0.12651 0.0
O19 O 0.22459 0.31432 0.02659 0.0
O20 O 0.26443 0.20384 0.07541 0.0
O21 O 0.84052 0.76613 0.24783 0.0
Mg22 Mg 0.75125 0.77929 0.30693 0.0
O23 O 0.78209 0.63673 0.2229 0.0
Mg24 Mg 0.67253 0.56327 0.27372 0.0
O25 O 0.73149 0.64918 0.33566 0.0
O26 O 0.79282 0.76296 0.3772 0.0
O27 O 0.55311 0.51418 0.32539 0.0
O28 O 0.75618 0.43295 0.30136 0.0
Mg29 Mg 0.55134 0.39412 0.24391 0.0
O30 O 0.62283 0.48814 0.20695 0.0
O31 O 0.44264 0.47392 0.2766 0.0
O32 O 0.64614 0.32588 0.28882 0.0
O33 O 0.55336 0.36979 0.17172 0.0
C34 C 0.55165 0.74392 0.26921 0.0
C35 C 0.79226 0.72514 0.2169 0.0
C36 C 0.75283 0.68309 0.37656 0.0
C37 C 0.46651 0.50282 0.31717 0.0
C38 C 0.72295 0.35044 0.30691 0.0
C39 C 0.59537 0.44845 0.16838 0.0
O40 O 0.60631 0.79758 0.29193 0.0
O41 O 0.57484 0.66675 0.25276 0.0
O42 O 0.99089 0.0906 0.4978 0.0
Mg43 Mg 0.97779 1.00133 0.55688 0.0
O44 O 0.12024 0.03206 0.47289 0.0
Mg45 Mg 0.1937 0.92256 0.52373 0.0
O46 O 0.10788 0.98157 0.58568 0.0
O47 O 0.99406 0.04307 0.62712 0.0
O48 O 0.24283 0.80321 0.57543 0.0
O49 O 0.32402 0.00624 0.55131 0.0
Mg50 Mg 0.36267 0.80123 0.49397 0.0
O51 O 0.26873 0.87274 0.45696 0.0
O52 O 0.28277 0.69262 0.52665 0.0
O53 O 0.43096 0.89604 0.53887 0.0
O54 O 0.38706 0.80314 0.4218 0.0
C55 C 0.01298 0.80172 0.51915 0.0
C56 C 0.03182 0.04225 0.46689 0.0
C57 C 0.0739 1.00301 0.62655 0.0
C58 C 0.25403 0.71659 0.56723 0.0
C59 C 0.40649 0.97293 0.55691 0.0
C60 C 0.30843 0.84519 0.41842 0.0
O61 O 0.95933 0.85638 0.54186 0.0
O62 O 0.09025 0.82485 0.50281 0.0
O63 O 0.6662 0.2408 0.74769 0.0
Mg64 Mg 0.7554 0.22775 0.80682 0.0
O65 O 0.72464 0.37025 0.7229 0.0
Mg66 Mg 0.83426 0.44361 0.7737 0.0
O67 O 0.77522 0.35783 0.83564 0.0
O68 O 0.71363 0.24405 0.87705 0.0
O69 O 0.95371 0.4927 0.82539 0.0
O70 O 0.75061 0.57394 0.80132 0.0
Mg71 Mg 0.95542 0.61243 0.74397 0.0
O72 O 0.88398 0.51852 0.70687 0.0
O73 O 0.06422 0.53273 0.7766 0.0
O74 O 0.8608 0.68087 0.78888 0.0
O75 O 0.95345 0.63709 0.67184 0.0
C76 C 0.95505 0.26289 0.7692 0.0
C77 C 0.71453 0.28185 0.71683 0.0
C78 C 0.75378 0.32384 0.8765 0.0
C79 C 0.04032 0.50396 0.81718 0.0
C80 C 0.78393 0.6564 0.80692 0.0
C81 C 0.91152 0.55841 0.66838 0.0
O82 O 0.90036 0.20928 0.79191 0.0
O83 O 0.9319 0.34007 0.75276 0.0
O84 O 0.49074 0.09049 0.91525 0.0
Mg85 Mg 0.47768 1.00122 0.85614 0.0
O86 O 0.62023 0.03205 0.94013 0.0
Mg87 Mg 0.69359 0.92248 0.88928 0.0
O88 O 0.60775 0.98146 0.82733 0.0
O89 O 0.49389 0.04298 0.78593 0.0
O90 O 0.74259 0.80303 0.83761 0.0
O91 O 0.82392 0.00608 0.86165 0.0
Mg92 Mg 0.86254 0.80116 0.91903 0.0
O93 O 0.76868 0.87276 0.95606 0.0
O94 O 0.78252 0.69252 0.88644 0.0
O95 O 0.93082 0.89584 0.87407 0.0
O96 O 0.88708 0.80323 -0.0088 0.0
C97 C 0.5129 0.80163 0.89379 0.0
C98 C 0.53182 0.04224 0.94614 0.0
C99 C 0.57373 1.00293 0.78647 0.0
C100 C 0.7537 0.71644 0.84588 0.0
C101 C 0.90636 0.97271 0.85603 0.0
C102 C 0.80846 0.84528 -0.0054 0.0
O103 O 0.45927 0.85629 0.87108 0.0
O104 O 0.59008 0.82482 0.91024 0.0
O105 O 0.16634 0.24099 0.66534 0.0
Mg106 Mg 0.2555 0.2279 0.6062 0.0
O107 O 0.22485 0.37041 0.69019 0.0
Mg108 Mg 0.33449 0.44372 0.63937 0.0
O109 O 0.27538 0.35794 0.57741 0.0
O110 O 0.21367 0.24418 0.53599 0.0
O111 O 0.45403 0.49267 0.58774 0.0
O112 O 0.25097 0.57409 0.61172 0.0
Mg113 Mg 0.4558 0.61292 0.66922 0.0
O114 O 0.38423 0.51886 0.70612 0.0
O115 O 0.56446 0.53306 0.63654 0.0
O116 O 0.36101 0.68118 0.62431 0.0
O117 O 0.45373 0.63708 0.74143 0.0
C118 C 0.45518 0.26301 0.64381 0.0
C119 C 0.21466 0.28202 0.69624 0.0
C120 C 0.25387 0.32394 0.53655 0.0
C121 C 0.54061 0.50406 0.59599 0.0
C122 C 0.2842 0.65662 0.60621 0.0
C123 C 0.41169 0.55844 0.74471 0.0
O124 O 0.40046 0.20945 0.62107 0.0
O125 O 0.43203 0.3401 0.66038 0.0
O126 O 0.01603 0.91618 0.41526 0.0
Mg127 Mg 0.02923 0.00538 0.35616 0.0
O128 O 0.88662 0.9748 0.44016 0.0
Mg129 Mg 0.81332 0.08437 0.3893 0.0
O130 O 0.89914 0.02522 0.32739 0.0
O131 O 0.01285 0.96361 0.28593 0.0
O132 O 0.76438 0.20384 0.33762 0.0
O133 O 0.68294 1.00081 0.36165 0.0
Mg134 Mg 0.64428 0.20576 0.41904 0.0
O135 O 0.7382 0.1342 0.45604 0.0
O136 O 0.72426 0.31438 0.38643 0.0
O137 O 0.576 0.111 0.3741 0.0
O138 O 0.61988 0.20379 0.49123 0.0
C139 C 0.99407 0.20506 0.39381 0.0
C140 C 0.97503 0.96453 0.44615 0.0
C141 C 0.93307 0.00377 0.28652 0.0
C142 C 0.75315 0.29044 0.34588 0.0
C143 C 0.60048 0.03413 0.35605 0.0
C144 C 0.69851 0.16174 0.49459 0.0
O145 O 0.04766 0.15035 0.37109 0.0
O146 O 0.91691 0.18193 0.41029 0.0
O147 O 0.34059 0.76612 0.16534 0.0
Mg148 Mg 0.25145 0.77917 0.10619 0.0
O149 O 0.28215 0.63667 0.19015 0.0
Mg150 Mg 0.17263 0.56328 0.1393 0.0
O151 O 0.2317 0.64908 0.07738 0.0
O152 O 0.2933 0.76287 0.03597 0.0
O153 O 0.05326 0.51421 0.08758 0.0
O154 O 0.25631 0.43298 0.1117 0.0
Mg155 Mg 0.0513 0.39441 0.169 0.0
O156 O 0.12281 0.48829 0.20609 0.0
O157 O 0.94268 0.47433 0.13635 0.0
O158 O 0.14606 0.32606 0.1241 0.0
O159 O 0.05318 0.36987 0.24116 0.0
C160 C 0.05178 0.74399 0.14378 0.0
C161 C 0.29225 0.72507 0.19621 0.0
C162 C 0.25316 0.68307 0.03652 0.0
C163 C 0.96664 0.50307 0.09578 0.0
C164 C 0.22298 0.35052 0.10611 0.0
C165 C 0.09525 0.44848 0.2446 0.0
O166 O 0.10648 0.79761 0.12108 0.0
O167 O 0.07493 0.6668 0.16021 0.0
O168 O 0.57617 0.61098 0.53894 0.0
Mg169 Mg 0.64445 0.70554 0.49393 0.0
O170 O 0.68312 0.50081 0.55144 0.0
Mg171 Mg 0.81339 0.58442 0.52372 0.0
O172 O 0.73825 0.63385 0.45689 0.0
O173 O 0.61962 0.70313 0.42178 0.0
O174 O 0.91688 0.68206 0.50272 0.0
O175 O 0.88673 0.47471 0.47294 0.0
Mg176 Mg 0.0295 0.5055 0.55686 0.0
O177 O 0.8995 0.52587 0.58563 0.0
O178 O 0.04782 0.65042 0.54177 0.0
O179 O 0.01609 0.41613 0.49781 0.0
O180 O 0.013 0.46395 0.62712 0.0
C181 C 0.7531 0.79053 0.56709 0.0
C182 C 0.60064 0.53412 0.55699 0.0
C183 C 0.69836 0.6613 0.41838 0.0
C184 C 0.99419 0.70512 0.51908 0.0
C185 C 0.97514 0.46452 0.46693 0.0
C186 C 0.93318 0.50404 0.6265 0.0
O187 O 0.72432 0.81436 0.5265 0.0
O188 O 0.76431 0.70394 0.57533 0.0
O189 O 0.34055 0.26633 0.74798 0.0
Mg190 Mg 0.25118 0.27933 0.80704 0.0
O191 O 0.28211 0.13687 0.72301 0.0
Mg192 Mg 0.17249 0.06337 0.77378 0.0
O193 O 0.23136 0.14921 0.83576 0.0
O194 O 0.29271 0.26306 0.8773 0.0
O195 O 0.05299 0.01425 0.82539 0.0
O196 O 0.25611 0.93303 0.80143 0.0
Mg197 Mg 0.05137 0.89436 0.74391 0.0
O198 O 0.12288 0.98835 0.70693 0.0
O199 O 0.94256 0.97412 0.77651 0.0
O200 O 0.14599 0.82604 0.78888 0.0
O201 O 0.05347 0.86983 0.67175 0.0
C202 C 0.05166 0.24412 0.76921 0.0
C203 C 0.29235 0.22529 0.71704 0.0
C204 C 0.25274 0.18317 0.87664 0.0
C205 C 0.96641 1.00298 0.81709 0.0
C206 C 0.2228 0.85055 0.80699 0.0
C207 C 0.09543 0.94852 0.6684 0.0
O208 O 0.10628 0.29773 0.79198 0.0
O209 O 0.0748 0.16687 0.75284 0.0
O210 O 0.4909 0.5906 -0.0022 0.0
Mg211 Mg 0.47795 0.50133 0.05689 0.0
O212 O 0.62024 0.53205 -0.0271 0.0
Mg213 Mg 0.69376 0.42251 0.0237 0.0
O214 O 0.60803 0.4815 0.08569 0.0
O215 O 0.49416 0.54313 0.12711 0.0
O216 O 0.74295 0.30311 0.07536 0.0
O217 O 0.82412 0.50617 0.05127 0.0
Mg218 Mg 0.86275 0.30128 -0.00616 0.0
O219 O 0.76869 0.37276 -0.04311 0.0
O220 O 0.78303 0.19258 0.02656 0.0
O221 O 0.93113 0.39607 0.03872 0.0
O222 O 0.88704 0.30321 0.92165 0.0
C223 C 0.51297 0.30174 0.01912 0.0
C224 C 0.53183 0.54225 -0.03311 0.0
C225 C 0.57397 0.50301 0.12654 0.0
C226 C 0.75423 0.21651 0.06714 0.0
C227 C 0.90663 0.47291 0.05679 0.0
C228 C 0.80839 0.34524 0.91834 0.0
O229 O 0.45938 0.35641 0.04187 0.0
O230 O 0.59028 0.32481 0.00281 0.0
O231 O 0.16617 0.74062 0.24782 0.0
Mg232 Mg 0.25547 0.72771 0.30692 0.0
O233 O 0.22462 0.87012 0.223 0.0
Mg234 Mg 0.33431 0.94352 0.27376 0.0
O235 O 0.27535 0.8578 0.33573 0.0
O236 O 0.21374 0.74395 0.37714 0.0
O237 O 0.45383 0.99264 0.3254 0.0
O238 O 0.25069 0.07387 0.30139 0.0
Mg239 Mg 0.45541 0.1122 0.24398 0.0
O240 O 0.38394 0.01832 0.20685 0.0
O241 O 0.5643 0.03252 0.27652 0.0
O242 O 0.36096 0.18071 0.28895 0.0
O243 O 0.45336 0.13706 0.17188 0.0
C244 C 0.45504 0.7627 0.26919 0.0
C245 C 0.21445 0.78172 0.21696 0.0
C246 C 0.25387 0.82375 0.37658 0.0
C247 C 0.54042 0.00381 0.31711 0.0
C248 C 0.28409 0.1563 0.307 0.0
C249 C 0.41148 0.05835 0.1684 0.0
O250 O 0.40038 0.70913 0.29194 0.0
O251 O 0.43195 0.83996 0.25284 0.0
O252 O 0.99074 0.5905 0.41525 0.0
Mg253 Mg 0.97785 0.50123 0.35614 0.0
O254 O 0.12023 0.53204 0.44013 0.0
Mg255 Mg 0.19365 0.42244 0.38932 0.0
O256 O 0.10792 0.4814 0.32732 0.0
O257 O 0.99401 0.54305 0.28594 0.0
O258 O 0.24271 0.30294 0.33768 0.0
O259 O 0.32403 0.50602 0.3617 0.0
Mg260 Mg 0.36262 0.30122 0.41917 0.0
O261 O 0.26863 0.37279 0.45615 0.0
O262 O 0.28279 0.19248 0.38653 0.0
O263 O 0.43099 0.39587 0.37423 0.0
O264 O 0.38705 0.30329 0.49134 0.0
C265 C 0.01289 0.30166 0.39382 0.0
C266 C 0.03183 0.54224 0.44614 0.0
C267 C 0.07382 0.50293 0.28648 0.0
C268 C 0.25391 0.21636 0.34597 0.0
C269 C 0.40651 0.47271 0.35616 0.0
C270 C 0.30841 0.34532 0.49469 0.0
O271 O 0.95932 0.35632 0.37106 0.0
O272 O 0.0901 0.32479 0.41024 0.0
O273 O 0.6663 0.7408 0.1652 0.0
Mg274 Mg 0.75557 0.72785 0.10609 0.0
O275 O 0.72482 0.87027 0.19008 0.0
Mg276 Mg 0.83453 0.94361 0.13932 0.0
O277 O 0.77551 0.85791 0.07731 0.0
O278 O 0.71378 0.74408 0.03588 0.0
O279 O 0.95415 0.9926 0.08774 0.0
O280 O 0.75105 0.07401 0.11165 0.0
Mg281 Mg 0.95577 0.11267 0.16922 0.0
O282 O 0.88417 0.01864 0.20613 0.0
O283 O 0.06454 0.03284 0.13663 0.0
O284 O 0.86116 0.18101 0.12424 0.0
O285 O 0.95361 0.13704 0.2414 0.0
C286 C 0.95518 0.76281 0.14381 0.0
C287 C 0.71457 0.78187 0.1961 0.0
C288 C 0.75397 0.82385 0.03646 0.0
C289 C 0.04072 0.0039 0.09606 0.0
C290 C 0.78435 0.1565 0.10613 0.0
C291 C 0.91162 0.05837 0.24469 0.0
O292 O 0.90049 0.70929 0.12103 0.0
O293 O 0.93207 0.83998 0.1603 0.0
O294 O 0.51603 0.41617 0.91526 0.0
Mg295 Mg 0.52907 0.50537 0.85615 0.0
O296 O 0.38662 0.4748 0.94015 0.0
Mg297 Mg 0.31326 0.58441 0.88933 0.0
O298 O 0.39899 0.52528 0.82738 0.0
O299 O 0.51276 0.46354 0.78594 0.0
O300 O 0.26427 0.70394 0.83769 0.0
O301 O 0.18284 0.50088 0.86169 0.0
Mg302 Mg 0.1442 0.7057 0.91918 0.0
O303 O 0.23825 0.63417 0.95612 0.0
O304 O 0.22399 0.81441 0.88652 0.0
O305 O 0.07583 0.61097 0.87425 0.0
O306 O 0.1199 0.70371 -0.00864 0.0
C307 C 0.49409 0.70503 0.89384 0.0
C308 C 0.47503 0.46453 0.94614 0.0
C309 C 0.43301 0.50377 0.78653 0.0
C310 C 0.25295 0.79052 0.84597 0.0
C311 C 0.10034 0.53414 0.85617 0.0
C312 C 0.19855 0.66168 -0.00532 0.0
O313 O 0.54761 0.65032 0.87108 0.0
O314 O 0.41689 0.68196 0.91029 0.0
O315 O 0.84062 0.26629 0.66521 0.0
Mg316 Mg 0.75138 0.27921 0.60609 0.0
O317 O 0.78217 0.13679 0.69005 0.0
Mg318 Mg 0.67258 0.06338 0.63924 0.0
O319 O 0.73158 0.14912 0.57728 0.0
O320 O 0.7932 0.26297 0.53588 0.0
O321 O 0.55315 0.01428 0.58757 0.0
O322 O 0.75623 0.93305 0.61164 0.0
Mg323 Mg 0.55131 0.89465 0.66899 0.0
O324 O 0.62285 0.98849 0.7061 0.0
O325 O 0.44259 0.97456 0.63643 0.0
O326 O 0.6459 0.82622 0.62403 0.0
O327 O 0.55326 0.8699 0.74112 0.0
C328 C 0.55179 0.24419 0.64378 0.0
C329 C 0.79233 0.2252 0.69608 0.0
C330 C 0.75308 0.18316 0.53644 0.0
C331 C 0.46654 1.00323 0.59585 0.0
C332 C 0.72282 0.85063 0.60602 0.0
C333 C 0.59529 0.94854 0.74457 0.0
O334 O 0.60645 0.29777 0.62104 0.0
O335 O 0.57488 0.16691 0.66013 0.0
loop_
_geom_bond_atom_site_label_1
_geom_bond_atom_site_label_2
_geom_bond_distance
_geom_bond_site_symmetry_2
_ccdc_geom_bond_type
O0 Mg1 1.990 . S
O0 C14 1.253 . S
Mg1 O0 1.990 . S
Mg1 O4 2.184 . S
Mg1 O5 2.117 1_554 S
Mg1 O19 2.030 . S
O2 Mg3 2.072 . S
O2 C14 1.260 . S
Mg3 O2 2.072 . S
Mg3 O4 2.117 . S
Mg3 O6 2.079 . S
Mg3 O7 2.072 . S
Mg3 O9 2.099 . S
Mg3 O20 2.079 . S
O4 Mg1 2.184 . S
O4 Mg3 2.117 . S
O4 C15 1.258 1_554 S
O5 Mg1 2.117 1_556 S
O5 C15 1.250 . S
O6 Mg3 2.079 . S
O6 C16 1.264 . S
O7 Mg3 2.072 . S
O7 C17 1.260 1_545 S
Mg8 O9 2.180 . S
Mg8 O10 2.030 . S
Mg8 O11 1.990 1_545 S
Mg8 O12 2.117 . S
O9 Mg3 2.099 . S
O9 Mg8 2.180 . S
O9 C18 1.279 . S
O10 Mg8 2.030 . S
O10 C16 1.248 . S
O11 Mg8 1.990 1_565 S
O11 C17 1.253 . S
O12 Mg8 2.117 . S
O12 C18 1.250 . S
C13 O19 1.248 . S
C13 O20 1.264 . S
C14 O0 1.253 . S
C14 O2 1.260 . S
C15 O4 1.258 1_556 S
C15 O5 1.250 . S
C16 O6 1.264 . S
C16 O10 1.248 . S
C17 O7 1.260 1_565 S
C17 O11 1.253 . S
C18 O9 1.279 . S
C18 O12 1.250 . S
O19 Mg1 2.030 . S
O19 C13 1.248 . S
O20 Mg3 2.079 . S
O20 C13 1.264 . S
O21 Mg22 1.990 . S
O21 C35 1.253 . S
Mg22 O21 1.990 . S
Mg22 O25 2.180 . S
Mg22 O26 2.117 . S
Mg22 O40 2.030 . S
O23 Mg24 2.072 . S
O23 C35 1.260 . S
Mg24 O23 2.072 . S
Mg24 O25 2.099 . S
Mg24 O27 2.079 . S
Mg24 O28 2.072 . S
Mg24 O30 2.099 . S
Mg24 O41 2.079 . S
O25 Mg22 2.180 . S
O25 Mg24 2.099 . S
O25 C36 1.279 . S
O26 Mg22 2.117 . S
O26 C36 1.250 . S
O27 Mg24 2.079 . S
O27 C37 1.264 . S
O28 Mg24 2.072 . S
O28 C38 1.260 . S
Mg29 O30 2.180 . S
Mg29 O31 2.030 . S
Mg29 O32 1.990 . S
Mg29 O33 2.117 . S
O30 Mg24 2.099 . S
O30 Mg29 2.180 . S
O30 C39 1.279 . S
O31 Mg29 2.030 . S
O31 C37 1.248 . S
O32 Mg29 1.990 . S
O32 C38 1.253 . S
O33 Mg29 2.117 . S
O33 C39 1.250 . S
C34 O40 1.248 . S
C34 O41 1.264 . S
C35 O21 1.253 . S
C35 O23 1.260 . S
C36 O25 1.279 . S
C36 O26 1.250 . S
C37 O27 1.264 . S
C37 O31 1.248 . S
C38 O28 1.260 . S
C38 O32 1.253 . S
C39 O30 1.279 . S
C39 O33 1.250 . S
O40 Mg22 2.030 . S
O40 C34 1.248 . S
O41 Mg24 2.079 . S
O41 C34 1.264 . S
O42 Mg43 1.990 1_445 S
O42 C56 1.253 . S
Mg43 O42 1.990 1_665 S
Mg43 O46 2.180 1_655 S
Mg43 O47 2.117 1_655 S
Mg43 O61 2.030 . S
O44 Mg45 2.072 . S
O44 C56 1.260 1_565 S
Mg45 O44 2.072 . S
Mg45 O46 2.099 . S
Mg45 O48 2.079 . S
Mg45 O49 2.072 . S
Mg45 O51 2.099 . S
Mg45 O62 2.079 . S
O46 Mg43 2.180 1_455 S
O46 Mg45 2.099 . S
O46 C57 1.279 . S
O47 Mg43 2.117 1_455 S
O47 C57 1.250 . S
O48 Mg45 2.079 . S
O48 C58 1.264 . S
O49 Mg45 2.072 . S
O49 C59 1.260 . S
Mg50 O51 2.180 . S
Mg50 O52 2.030 . S
Mg50 O53 1.990 . S
Mg50 O54 2.117 . S
O51 Mg45 2.099 . S
O51 Mg50 2.180 . S
O51 C60 1.279 . S
O52 Mg50 2.030 . S
O52 C58 1.248 . S
O53 Mg50 1.990 . S
O53 C59 1.253 . S
O54 Mg50 2.117 . S
O54 C60 1.250 . S
C55 O61 1.248 . S
C55 O62 1.264 1_655 S
C56 O42 1.253 . S
C56 O44 1.260 1_545 S
C57 O46 1.279 . S
C57 O47 1.250 . S
C58 O48 1.264 . S
C58 O52 1.248 . S
C59 O49 1.260 . S
C59 O53 1.253 . S
C60 O51 1.279 . S
C60 O54 1.250 . S
O61 Mg43 2.030 . S
O61 C55 1.248 . S
O62 Mg45 2.079 . S
O62 C55 1.264 1_455 S
O63 Mg64 1.990 . S
O63 C77 1.253 . S
Mg64 O63 1.990 . S
Mg64 O67 2.180 . S
Mg64 O68 2.117 . S
Mg64 O82 2.030 . S
O65 Mg66 2.072 . S
O65 C77 1.260 . S
Mg66 O65 2.072 . S
Mg66 O67 2.099 . S
Mg66 O69 2.079 1_655 S
Mg66 O70 2.072 . S
Mg66 O72 2.099 . S
Mg66 O83 2.079 . S
O67 Mg64 2.180 . S
O67 Mg66 2.099 . S
O67 C78 1.279 . S
O68 Mg64 2.117 . S
O68 C78 1.250 . S
O69 Mg66 2.079 1_455 S
O69 C79 1.264 . S
O70 Mg66 2.072 . S
O70 C80 1.260 . S
Mg71 O72 2.180 . S
Mg71 O73 2.030 1_655 S
Mg71 O74 1.990 . S
Mg71 O75 2.117 . S
O72 Mg66 2.099 . S
O72 Mg71 2.180 . S
O72 C81 1.279 . S
O73 Mg71 2.030 1_455 S
O73 C79 1.248 . S
O74 Mg71 1.990 . S
O74 C80 1.253 . S
O75 Mg71 2.117 . S
O75 C81 1.250 . S
C76 O82 1.248 . S
C76 O83 1.264 . S
C77 O63 1.253 . S
C77 O65 1.260 . S
C78 O67 1.279 . S
C78 O68 1.250 . S
C79 O69 1.264 . S
C79 O73 1.248 . S
C80 O70 1.260 . S
C80 O74 1.253 . S
C81 O72 1.279 . S
C81 O75 1.250 . S
O82 Mg64 2.030 . S
O82 C76 1.248 . S
O83 Mg66 2.079 . S
O83 C76 1.264 . S
O84 Mg85 1.990 1_545 S
O84 C98 1.253 . S
Mg85 O84 1.990 1_565 S
Mg85 O88 2.180 . S
Mg85 O89 2.117 . S
Mg85 O103 2.030 . S
O86 Mg87 2.072 . S
O86 C98 1.260 1_565 S
Mg87 O86 2.072 . S
Mg87 O88 2.099 . S
Mg87 O90 2.079 . S
Mg87 O91 2.072 . S
Mg87 O93 2.117 . S
Mg87 O104 2.079 . S
O88 Mg85 2.180 . S
O88 Mg87 2.099 . S
O88 C99 1.279 . S
O89 Mg85 2.117 . S
O89 C99 1.250 . S
O90 Mg87 2.079 . S
O90 C100 1.264 . S
O91 Mg87 2.072 . S
O91 C101 1.260 . S
Mg92 O93 2.184 . S
Mg92 O94 2.030 . S
Mg92 O95 1.990 . S
Mg92 O96 2.117 1_556 S
O93 Mg87 2.117 . S
O93 Mg92 2.184 . S
O93 C102 1.258 1_556 S
O94 Mg92 2.030 . S
O94 C100 1.248 . S
O95 Mg92 1.990 . S
O95 C101 1.253 . S
O96 Mg92 2.117 1_554 S
O96 C102 1.250 . S
C97 O103 1.248 . S
C97 O104 1.264 . S
C98 O84 1.253 . S
C98 O86 1.260 1_545 S
C99 O88 1.279 . S
C99 O89 1.250 . S
C100 O90 1.264 . S
C100 O94 1.248 . S
C101 O91 1.260 . S
C101 O95 1.253 . S
C102 O93 1.258 1_554 S
C102 O96 1.250 . S
O103 Mg85 2.030 . S
O103 C97 1.248 . S
O104 Mg87 2.079 . S
O104 C97 1.264 . S
O105 Mg106 1.990 . S
O105 C119 1.253 . S
Mg106 O105 1.990 . S
Mg106 O109 2.180 . S
Mg106 O110 2.117 . S
Mg106 O124 2.030 . S
O107 Mg108 2.072 . S
O107 C119 1.260 . S
Mg108 O107 2.072 . S
Mg108 O109 2.099 . S
Mg108 O111 2.079 . S
Mg108 O112 2.072 . S
Mg108 O114 2.099 . S
Mg108 O125 2.079 . S
O109 Mg106 2.180 . S
O109 Mg108 2.099 . S
O109 C120 1.279 . S
O110 Mg106 2.117 . S
O110 C120 1.250 . S
O111 Mg108 2.079 . S
O111 C121 1.264 . S
O112 Mg108 2.072 . S
O112 C122 1.260 . S
Mg113 O114 2.180 . S
Mg113 O115 2.030 . S
Mg113 O116 1.990 . S
Mg113 O117 2.117 . S
O114 Mg108 2.099 . S
O114 Mg113 2.180 . S
O114 C123 1.279 . S
O115 Mg113 2.030 . S
O115 C121 1.248 . S
O116 Mg113 1.990 . S
O116 C122 1.253 . S
O117 Mg113 2.117 . S
O117 C123 1.250 . S
C118 O124 1.248 . S
C118 O125 1.264 . S
C119 O105 1.253 . S
C119 O107 1.260 . S
C120 O109 1.279 . S
C120 O110 1.250 . S
C121 O111 1.264 . S
C121 O115 1.248 . S
C122 O112 1.260 . S
C122 O116 1.253 . S
C123 O114 1.279 . S
C123 O117 1.250 . S
O124 Mg106 2.030 . S
O124 C118 1.248 . S
O125 Mg108 2.079 . S
O125 C118 1.264 . S
O126 Mg127 1.990 1_665 S
O126 C140 1.253 . S
Mg127 O126 1.990 1_445 S
Mg127 O130 2.180 1_455 S
Mg127 O131 2.117 1_455 S
Mg127 O145 2.030 . S
O128 Mg129 2.072 . S
O128 C140 1.260 1_545 S
Mg129 O128 2.072 . S
Mg129 O130 2.099 . S
Mg129 O132 2.079 . S
Mg129 O133 2.072 . S
Mg129 O135 2.099 . S
Mg129 O146 2.079 . S
O130 Mg127 2.180 1_655 S
O130 Mg129 2.099 . S
O130 C141 1.279 . S
O131 Mg127 2.117 1_655 S
O131 C141 1.250 . S
O132 Mg129 2.079 . S
O132 C142 1.264 . S
O133 Mg129 2.072 . S
O133 C143 1.260 . S
Mg134 O135 2.180 . S
Mg134 O136 2.030 . S
Mg134 O137 1.990 . S
Mg134 O138 2.117 . S
O135 Mg129 2.099 . S
O135 Mg134 2.180 . S
O135 C144 1.279 . S
O136 Mg134 2.030 . S
O136 C142 1.248 . S
O137 Mg134 1.990 . S
O137 C143 1.253 . S
O138 Mg134 2.117 . S
O138 C144 1.250 . S
C139 O145 1.248 . S
C139 O146 1.264 1_455 S
C140 O126 1.253 . S
C140 O128 1.260 1_565 S
C141 O130 1.279 . S
C141 O131 1.250 . S
C142 O132 1.264 . S
C142 O136 1.248 . S
C143 O133 1.260 . S
C143 O137 1.253 . S
C144 O135 1.279 . S
C144 O138 1.250 . S
O145 Mg127 2.030 . S
O145 C139 1.248 . S
O146 Mg129 2.079 . S
O146 C139 1.264 1_655 S
O147 Mg148 1.990 . S
O147 C161 1.253 . S
Mg148 O147 1.990 . S
Mg148 O151 2.180 . S
Mg148 O152 2.117 . S
Mg148 O166 2.030 . S
O149 Mg150 2.072 . S
O149 C161 1.260 . S
Mg150 O149 2.072 . S
Mg150 O151 2.099 . S
Mg150 O153 2.079 1_455 S
Mg150 O154 2.072 . S
Mg150 O156 2.099 . S
Mg150 O167 2.079 . S
O151 Mg148 2.180 . S
O151 Mg150 2.099 . S
O151 C162 1.279 . S
O152 Mg148 2.117 . S
O152 C162 1.250 . S
O153 Mg150 2.079 1_655 S
O153 C163 1.264 . S
O154 Mg150 2.072 . S
O154 C164 1.260 . S
Mg155 O156 2.180 . S
Mg155 O157 2.030 1_455 S
Mg155 O158 1.990 . S
Mg155 O159 2.117 . S
O156 Mg150 2.099 . S
O156 Mg155 2.180 . S
O156 C165 1.279 . S
O157 Mg155 2.030 1_655 S
O157 C163 1.248 . S
O158 Mg155 1.990 . S
O158 C164 1.253 . S
O159 Mg155 2.117 . S
O159 C165 1.250 . S
C160 O166 1.248 . S
C160 O167 1.264 . S
C161 O147 1.253 . S
C161 O149 1.260 . S
C162 O151 1.279 . S
C162 O152 1.250 . S
C163 O153 1.264 . S
C163 O157 1.248 . S
C164 O154 1.260 . S
C164 O158 1.253 . S
C165 O156 1.279 . S
C165 O159 1.250 . S
O166 Mg148 2.030 . S
O166 C160 1.248 . S
O167 Mg150 2.079 . S
O167 C160 1.264 . S
O168 Mg169 1.990 . S
O168 C182 1.253 . S
Mg169 O168 1.990 . S
Mg169 O172 2.180 . S
Mg169 O173 2.117 . S
Mg169 O187 2.030 . S
O170 Mg171 2.072 . S
O170 C182 1.260 . S
Mg171 O170 2.072 . S
Mg171 O172 2.099 . S
Mg171 O174 2.079 . S
Mg171 O175 2.072 . S
Mg171 O177 2.099 . S
Mg171 O188 2.079 . S
O172 Mg169 2.180 . S
O172 Mg171 2.099 . S
O172 C183 1.279 . S
O173 Mg169 2.117 . S
O173 C183 1.250 . S
O174 Mg171 2.079 . S
O174 C184 1.264 1_655 S
O175 Mg171 2.072 . S
O175 C185 1.260 . S
Mg176 O177 2.180 1_455 S
Mg176 O178 2.030 . S
Mg176 O179 1.990 1_455 S
Mg176 O180 2.117 1_455 S
O177 Mg171 2.099 . S
O177 Mg176 2.180 1_655 S
O177 C186 1.279 . S
O178 Mg176 2.030 . S
O178 C184 1.248 . S
O179 Mg176 1.990 1_655 S
O179 C185 1.253 . S
O180 Mg176 2.117 1_655 S
O180 C186 1.250 . S
C181 O187 1.248 . S
C181 O188 1.264 . S
C182 O168 1.253 . S
C182 O170 1.260 . S
C183 O172 1.279 . S
C183 O173 1.250 . S
C184 O174 1.264 1_455 S
C184 O178 1.248 . S
C185 O175 1.260 . S
C185 O179 1.253 . S
C186 O177 1.279 . S
C186 O180 1.250 . S
O187 Mg169 2.030 . S
O187 C181 1.248 . S
O188 Mg171 2.079 . S
O188 C181 1.264 . S
O189 Mg190 1.990 . S
O189 C203 1.253 . S
Mg190 O189 1.990 . S
Mg190 O193 2.180 . S
Mg190 O194 2.117 . S
Mg190 O208 2.030 . S
O191 Mg192 2.072 . S
O191 C203 1.260 . S
Mg192 O191 2.072 . S
Mg192 O193 2.099 . S
Mg192 O195 2.079 1_455 S
Mg192 O196 2.072 1_545 S
Mg192 O198 2.099 1_545 S
Mg192 O209 2.079 . S
O193 Mg190 2.180 . S
O193 Mg192 2.099 . S
O193 C204 1.279 . S
O194 Mg190 2.117 . S
O194 C204 1.250 . S
O195 Mg192 2.079 1_655 S
O195 C205 1.264 1_545 S
O196 Mg192 2.072 1_565 S
O196 C206 1.260 . S
Mg197 O198 2.180 . S
Mg197 O199 2.030 1_455 S
Mg197 O200 1.990 . S
Mg197 O201 2.117 . S
O198 Mg192 2.099 1_565 S
O198 Mg197 2.180 . S
O198 C207 1.279 . S
O199 Mg197 2.030 1_655 S
O199 C205 1.248 . S
O200 Mg197 1.990 . S
O200 C206 1.253 . S
O201 Mg197 2.117 . S
O201 C207 1.250 . S
C202 O208 1.248 . S
C202 O209 1.264 . S
C203 O189 1.253 . S
C203 O191 1.260 . S
C204 O193 1.279 . S
C204 O194 1.250 . S
C205 O195 1.264 1_565 S
C205 O199 1.248 . S
C206 O196 1.260 . S
C206 O200 1.253 . S
C207 O198 1.279 . S
C207 O201 1.250 . S
O208 Mg190 2.030 . S
O208 C202 1.248 . S
O209 Mg192 2.079 . S
O209 C202 1.264 . S
O210 Mg211 1.990 . S
O210 C224 1.253 . S
Mg211 O210 1.990 . S
Mg211 O214 2.180 . S
Mg211 O215 2.117 . S
Mg211 O229 2.030 . S
O212 Mg213 2.072 . S
O212 C224 1.260 . S
Mg213 O212 2.072 . S
Mg213 O214 2.099 . S
Mg213 O216 2.079 . S
Mg213 O217 2.072 . S
Mg213 O219 2.117 . S
Mg213 O230 2.079 . S
O214 Mg211 2.180 . S
O214 Mg213 2.099 . S
O214 C225 1.279 . S
O215 Mg211 2.117 . S
O215 C225 1.250 . S
O216 Mg213 2.079 . S
O216 C226 1.264 . S
O217 Mg213 2.072 . S
O217 C227 1.260 . S
Mg218 O219 2.184 . S
Mg218 O220 2.030 . S
Mg218 O221 1.990 . S
Mg218 O222 2.117 1_554 S
O219 Mg213 2.117 . S
O219 Mg218 2.184 . S
O219 C228 1.258 1_554 S
O220 Mg218 2.030 . S
O220 C226 1.248 . S
O221 Mg218 1.990 . S
O221 C227 1.253 . S
O222 Mg218 2.117 1_556 S
O222 C228 1.250 . S
C223 O229 1.248 . S
C223 O230 1.264 . S
C224 O210 1.253 . S
C224 O212 1.260 . S
C225 O214 1.279 . S
C225 O215 1.250 . S
C226 O216 1.264 . S
C226 O220 1.248 . S
C227 O217 1.260 . S
C227 O221 1.253 . S
C228 O219 1.258 1_556 S
C228 O222 1.250 . S
O229 Mg211 2.030 . S
O229 C223 1.248 . S
O230 Mg213 2.079 . S
O230 C223 1.264 . S
O231 Mg232 1.990 . S
O231 C245 1.253 . S
Mg232 O231 1.990 . S
Mg232 O235 2.180 . S
Mg232 O236 2.117 . S
Mg232 O250 2.030 . S
O233 Mg234 2.072 . S
O233 C245 1.260 . S
Mg234 O233 2.072 . S
Mg234 O235 2.099 . S
Mg234 O237 2.079 . S
Mg234 O238 2.072 1_565 S
Mg234 O240 2.099 1_565 S
Mg234 O251 2.079 . S
O235 Mg232 2.180 . S
O235 Mg234 2.099 . S
O235 C246 1.279 . S
O236 Mg232 2.117 . S
O236 C246 1.250 . S
O237 Mg234 2.079 . S
O237 C247 1.264 1_565 S
O238 Mg234 2.072 1_545 S
O238 C248 1.260 . S
Mg239 O240 2.180 . S
Mg239 O241 2.030 . S
Mg239 O242 1.990 . S
Mg239 O243 2.117 . S
O240 Mg234 2.099 1_545 S
O240 Mg239 2.180 . S
O240 C249 1.279 . S
O241 Mg239 2.030 . S
O241 C247 1.248 . S
O242 Mg239 1.990 . S
O242 C248 1.253 . S
O243 Mg239 2.117 . S
O243 C249 1.250 . S
C244 O250 1.248 . S
C244 O251 1.264 . S
C245 O231 1.253 . S
C245 O233 1.260 . S
C246 O235 1.279 . S
C246 O236 1.250 . S
C247 O237 1.264 1_545 S
C247 O241 1.248 . S
C248 O238 1.260 . S
C248 O242 1.253 . S
C249 O240 1.279 . S
C249 O243 1.250 . S
O250 Mg232 2.030 . S
O250 C244 1.248 . S
O251 Mg234 2.079 . S
O251 C244 1.264 . S
O252 Mg253 1.990 1_455 S
O252 C266 1.253 . S
Mg253 O252 1.990 1_655 S
Mg253 O256 2.180 1_655 S
Mg253 O257 2.117 1_655 S
Mg253 O271 2.030 . S
O254 Mg255 2.072 . S
O254 C266 1.260 . S
Mg255 O254 2.072 . S
Mg255 O256 2.099 . S
Mg255 O258 2.079 . S
Mg255 O259 2.072 . S
Mg255 O261 2.099 . S
Mg255 O272 2.079 . S
O256 Mg253 2.180 1_455 S
O256 Mg255 2.099 . S
O256 C267 1.279 . S
O257 Mg253 2.117 1_455 S
O257 C267 1.250 . S
O258 Mg255 2.079 . S
O258 C268 1.264 . S
O259 Mg255 2.072 . S
O259 C269 1.260 . S
Mg260 O261 2.180 . S
Mg260 O262 2.030 . S
Mg260 O263 1.990 . S
Mg260 O264 2.117 . S
O261 Mg255 2.099 . S
O261 Mg260 2.180 . S
O261 C270 1.279 . S
O262 Mg260 2.030 . S
O262 C268 1.248 . S
O263 Mg260 1.990 . S
O263 C269 1.253 . S
O264 Mg260 2.117 . S
O264 C270 1.250 . S
C265 O271 1.248 . S
C265 O272 1.264 1_655 S
C266 O252 1.253 . S
C266 O254 1.260 . S
C267 O256 1.279 . S
C267 O257 1.250 . S
C268 O258 1.264 . S
C268 O262 1.248 . S
C269 O259 1.260 . S
C269 O263 1.253 . S
C270 O261 1.279 . S
C270 O264 1.250 . S
O271 Mg253 2.030 . S
O271 C265 1.248 . S
O272 Mg255 2.079 . S
O272 C265 1.264 1_455 S
O273 Mg274 1.990 . S
O273 C287 1.253 . S
Mg274 O273 1.990 . S
Mg274 O277 2.180 . S
Mg274 O278 2.117 . S
Mg274 O292 2.030 . S
O275 Mg276 2.072 . S
O275 C287 1.260 . S
Mg276 O275 2.072 . S
Mg276 O277 2.099 . S
Mg276 O279 2.079 1_655 S
Mg276 O280 2.072 1_565 S
Mg276 O282 2.099 1_565 S
Mg276 O293 2.079 . S
O277 Mg274 2.180 . S
O277 Mg276 2.099 . S
O277 C288 1.279 . S
O278 Mg274 2.117 . S
O278 C288 1.250 . S
O279 Mg276 2.079 1_455 S
O279 C289 1.264 1_565 S
O280 Mg276 2.072 1_545 S
O280 C290 1.260 . S
Mg281 O282 2.180 . S
Mg281 O283 2.030 1_655 S
Mg281 O284 1.990 . S
Mg281 O285 2.117 . S
O282 Mg276 2.099 1_545 S
O282 Mg281 2.180 . S
O282 C291 1.279 . S
O283 Mg281 2.030 1_455 S
O283 C289 1.248 . S
O284 Mg281 1.990 . S
O284 C290 1.253 . S
O285 Mg281 2.117 . S
O285 C291 1.250 . S
C286 O292 1.248 . S
C286 O293 1.264 . S
C287 O273 1.253 . S
C287 O275 1.260 . S
C288 O277 1.279 . S
C288 O278 1.250 . S
C289 O279 1.264 1_545 S
C289 O283 1.248 . S
C290 O280 1.260 . S
C290 O284 1.253 . S
C291 O282 1.279 . S
C291 O285 1.250 . S
O292 Mg274 2.030 . S
O292 C286 1.248 . S
O293 Mg276 2.079 . S
O293 C286 1.264 . S
O294 Mg295 1.990 . S
O294 C308 1.253 . S
Mg295 O294 1.990 . S
Mg295 O298 2.180 . S
Mg295 O299 2.117 . S
Mg295 O313 2.030 . S
O296 Mg297 2.072 . S
O296 C308 1.260 . S
Mg297 O296 2.072 . S
Mg297 O298 2.099 . S
Mg297 O300 2.079 . S
Mg297 O301 2.072 . S
Mg297 O303 2.117 . S
Mg297 O314 2.079 . S
O298 Mg295 2.180 . S
O298 Mg297 2.099 . S
O298 C309 1.279 . S
O299 Mg295 2.117 . S
O299 C309 1.250 . S
O300 Mg297 2.079 . S
O300 C310 1.264 . S
O301 Mg297 2.072 . S
O301 C311 1.260 . S
Mg302 O303 2.184 . S
Mg302 O304 2.030 . S
Mg302 O305 1.990 . S
Mg302 O306 2.117 1_556 S
O303 Mg297 2.117 . S
O303 Mg302 2.184 . S
O303 C312 1.258 1_556 S
O304 Mg302 2.030 . S
O304 C310 1.248 . S
O305 Mg302 1.990 . S
O305 C311 1.253 . S
O306 Mg302 2.117 1_554 S
O306 C312 1.250 . S
C307 O313 1.248 . S
C307 O314 1.264 . S
C308 O294 1.253 . S
C308 O296 1.260 . S
C309 O298 1.279 . S
C309 O299 1.250 . S
C310 O300 1.264 . S
C310 O304 1.248 . S
C311 O301 1.260 . S
C311 O305 1.253 . S
C312 O303 1.258 1_554 S
C312 O306 1.250 . S
O313 Mg295 2.030 . S
O313 C307 1.248 . S
O314 Mg297 2.079 . S
O314 C307 1.264 . S
O315 Mg316 1.990 . S
O315 C329 1.253 . S
Mg316 O315 1.990 . S
Mg316 O319 2.180 . S
Mg316 O320 2.117 . S
Mg316 O334 2.030 . S
O317 Mg318 2.072 . S
O317 C329 1.260 . S
Mg318 O317 2.072 . S
Mg318 O319 2.099 . S
Mg318 O321 2.079 . S
Mg318 O322 2.072 1_545 S
Mg318 O324 2.099 1_545 S
Mg318 O335 2.079 . S
O319 Mg316 2.180 . S
O319 Mg318 2.099 . S
O319 C330 1.279 . S
O320 Mg316 2.117 . S
O320 C330 1.250 . S
O321 Mg318 2.079 . S
O321 C331 1.264 1_545 S
O322 Mg318 2.072 1_565 S
O322 C332 1.260 . S
Mg323 O324 2.180 . S
Mg323 O325 2.030 . S
Mg323 O326 1.990 . S
Mg323 O327 2.117 . S
O324 Mg318 2.099 1_565 S
O324 Mg323 2.180 . S
O324 C333 1.279 . S
O325 Mg323 2.030 . S
O325 C331 1.248 . S
O326 Mg323 1.990 . S
O326 C332 1.253 . S
O327 Mg323 2.117 . S
O327 C333 1.250 . S
C328 O334 1.248 . S
C328 O335 1.264 . S
C329 O315 1.253 . S
C329 O317 1.260 . S
C330 O319 1.279 . S
C330 O320 1.250 . S
C331 O321 1.264 1_565 S
C331 O325 1.248 . S
C332 O322 1.260 . S
C332 O326 1.253 . S
C333 O324 1.279 . S
C333 O327 1.250 . S
O334 Mg316 2.030 . S
O334 C328 1.248 . S
O335 Mg318 2.079 . S
O335 C328 1.264 . S
C16 C223 0.732 . S
C34 C244 0.732 . S
C55 C184 0.732 1_655 S
C202 C76 0.732 1_455 S
C97 C307 0.732 . S
C328 C118 0.732 . S
C265 C139 0.732 1_655 S
C160 C286 0.732 1_455 S
C17 C98 2.324 1_564 S
C35 C287 2.324 . S
C56 C140 2.324 1_445 S
C77 C329 2.324 . S
C119 C203 2.324 . S
C245 C161 2.324 . S
C266 C185 2.324 1_455 S
C224 C308 2.324 1_554 S
C13 C164 1.989 . S
C37 C269 1.989 . S
C58 C122 1.989 . S
C79 C311 1.989 . S
C80 C100 1.989 . S
C121 C182 1.989 . S
C142 C38 1.989 . S
C227 C163 1.989 . S
C181 C332 1.989 . S
C101 C205 1.989 . S
C290 C226 1.989 . S
C143 C247 1.989 . S
C268 C248 1.989 . S
C289 C14 1.989 . S
C206 C310 1.989 . S
C331 C59 1.989 . S
C15 C204 0.923 . S
C225 C39 0.923 . S
C60 C246 0.923 . S
C186 C81 0.923 . S
C288 C102 0.923 . S
C309 C123 0.923 . S
C330 C144 0.923 . S
C267 C165 0.923 . S
C36 C183 0.923 . S
C57 C207 0.923 . S
C78 C228 0.923 . S
C249 C18 0.923 . S
C120 C270 0.923 . S
C141 C291 0.923 . S
C162 C312 0.923 . S
C99 C333 0.923 . S
