# Generated by pormake.
# Topology ecs, (8)-cn, num edge types: 1
# Building blocks:
#     Node 0, Type 0, BuildingBlock: TAGTUT_clean_sbu_3, # of connection points: 8
#     Node 1, Type 0, BuildingBlock: TAGTUT_clean_sbu_3, # of connection points: 8
#     Node 2, Type 0, BuildingBlock: TAGTUT_clean_sbu_3, # of connection points: 8
#     Node 3, Type 0, BuildingBlock: TAGTUT_clean_sbu_3, # of connection points: 8
#     Node 4, Type 0, BuildingBlock: TAGTUT_clean_sbu_3, # of connection points: 8
#     Node 5, Type 0, BuildingBlock: TAGTUT_clean_sbu_3, # of connection points: 8
#     Node 6, Type 0, BuildingBlock: TAGTUT_clean_sbu_3, # of connection points: 8
#     Node 7, Type 0, BuildingBlock: TAGTUT_clean_sbu_3, # of connection points: 8
#     Node 8, Type 0, BuildingBlock: TAGTUT_clean_sbu_3, # of connection points: 8
#     Node 9, Type 0, BuildingBlock: TAGTUT_clean_sbu_3, # of connection points: 8
#     Node 10, Type 0, BuildingBlock: TAGTUT_clean_sbu_3, # of connection points: 8
#     Node 11, Type 0, BuildingBlock: TAGTUT_clean_sbu_3, # of connection points: 8
#     Edge 12, Type (0, 0), BuildingBlock: EZIPEK_clean_linker_0, # of connection points: 2
#     Edge 13, Type (0, 0), BuildingBlock: EZIPEK_clean_linker_0, # of connection points: 2
#     Edge 14, Type (0, 0), BuildingBlock: EZIPEK_clean_linker_0, # of connection points: 2
#     Edge 15, Type (0, 0), BuildingBlock: EZIPEK_clean_linker_0, # of connection points: 2
#     Edge 16, Type (0, 0), BuildingBlock: EZIPEK_clean_linker_0, # of connection points: 2
#     Edge 17, Type (0, 0), BuildingBlock: EZIPEK_clean_linker_0, # of connection points: 2
#     Edge 18, Type (0, 0), BuildingBlock: EZIPEK_clean_linker_0, # of connection points: 2
#     Edge 19, Type (0, 0), BuildingBlock: EZIPEK_clean_linker_0, # of connection points: 2
#     Edge 20, Type (0, 0), BuildingBlock: EZIPEK_clean_linker_0, # of connection points: 2
#     Edge 21, Type (0, 0), BuildingBlock: EZIPEK_clean_linker_0, # of connection points: 2
#     Edge 22, Type (0, 0), BuildingBlock: EZIPEK_clean_linker_0, # of connection points: 2
#     Edge 23, Type (0, 0), BuildingBlock: EZIPEK_clean_linker_0, # of connection points: 2
#     Edge 24, Type (0, 0), BuildingBlock: EZIPEK_clean_linker_0, # of connection points: 2
#     Edge 25, Type (0, 0), BuildingBlock: EZIPEK_clean_linker_0, # of connection points: 2
#     Edge 26, Type (0, 0), BuildingBlock: EZIPEK_clean_linker_0, # of connection points: 2
#     Edge 27, Type (0, 0), BuildingBlock: EZIPEK_clean_linker_0, # of connection points: 2
#     Edge 28, Type (0, 0), BuildingBlock: EZIPEK_clean_linker_0, # of connection points: 2
#     Edge 29, Type (0, 0), BuildingBlock: EZIPEK_clean_linker_0, # of connection points: 2
#     Edge 30, Type (0, 0), BuildingBlock: EZIPEK_clean_linker_0, # of connection points: 2
#     Edge 31, Type (0, 0), BuildingBlock: EZIPEK_clean_linker_0, # of connection points: 2
#     Edge 32, Type (0, 0), BuildingBlock: EZIPEK_clean_linker_0, # of connection points: 2
#     Edge 33, Type (0, 0), BuildingBlock: EZIPEK_clean_linker_0, # of connection points: 2
#     Edge 34, Type (0, 0), BuildingBlock: EZIPEK_clean_linker_0, # of connection points: 2
#     Edge 35, Type (0, 0), BuildingBlock: EZIPEK_clean_linker_0, # of connection points: 2
#     Edge 36, Type (0, 0), BuildingBlock: EZIPEK_clean_linker_0, # of connection points: 2
#     Edge 37, Type (0, 0), BuildingBlock: EZIPEK_clean_linker_0, # of connection points: 2
#     Edge 38, Type (0, 0), BuildingBlock: EZIPEK_clean_linker_0, # of connection points: 2
#     Edge 39, Type (0, 0), BuildingBlock: EZIPEK_clean_linker_0, # of connection points: 2
#     Edge 40, Type (0, 0), BuildingBlock: EZIPEK_clean_linker_0, # of connection points: 2
#     Edge 41, Type (0, 0), BuildingBlock: EZIPEK_clean_linker_0, # of connection points: 2
#     Edge 42, Type (0, 0), BuildingBlock: EZIPEK_clean_linker_0, # of connection points: 2
#     Edge 43, Type (0, 0), BuildingBlock: EZIPEK_clean_linker_0, # of connection points: 2
#     Edge 44, Type (0, 0), BuildingBlock: EZIPEK_clean_linker_0, # of connection points: 2
#     Edge 45, Type (0, 0), BuildingBlock: EZIPEK_clean_linker_0, # of connection points: 2
#     Edge 46, Type (0, 0), BuildingBlock: EZIPEK_clean_linker_0, # of connection points: 2
#     Edge 47, Type (0, 0), BuildingBlock: EZIPEK_clean_linker_0, # of connection points: 2
#     Edge 48, Type (0, 0), BuildingBlock: EZIPEK_clean_linker_0, # of connection points: 2
#     Edge 49, Type (0, 0), BuildingBlock: EZIPEK_clean_linker_0, # of connection points: 2
#     Edge 50, Type (0, 0), BuildingBlock: EZIPEK_clean_linker_0, # of connection points: 2
#     Edge 51, Type (0, 0), BuildingBlock: EZIPEK_clean_linker_0, # of connection points: 2
#     Edge 52, Type (0, 0), BuildingBlock: EZIPEK_clean_linker_0, # of connection points: 2
#     Edge 53, Type (0, 0), BuildingBlock: EZIPEK_clean_linker_0, # of connection points: 2
#     Edge 54, Type (0, 0), BuildingBlock: EZIPEK_clean_linker_0, # of connection points: 2
#     Edge 55, Type (0, 0), BuildingBlock: EZIPEK_clean_linker_0, # of connection points: 2
#     Edge 56, Type (0, 0), BuildingBlock: EZIPEK_clean_linker_0, # of connection points: 2
#     Edge 57, Type (0, 0), BuildingBlock: EZIPEK_clean_linker_0, # of connection points: 2
#     Edge 58, Type (0, 0), BuildingBlock: EZIPEK_clean_linker_0, # of connection points: 2
#     Edge 59, Type (0, 0), BuildingBlock: EZIPEK_clean_linker_0, # of connection points: 2
# Relax obj value: 0.346
# Max RMSD: 0.277
# Mean RMSD: 0.277
data_MOF--net-ecs--node1-TAGTUT_clean_sbu_3--edge1-EZIPEK_clean_linker_0
_symmetry_space_group_name_H-M    P1
_symmetry_Int_Tables_number       1
_symmetry_cell_setting            triclinic
loop_
_symmetry_equiv_pos_as_xyz
'x, y, z'
_cell_length_a     39.569571
_cell_length_b     39.504542
_cell_length_c     21.366445
_cell_angle_alpha  89.683631
_cell_angle_beta   90.405404
_cell_angle_gamma 119.86695
loop_
_atom_site_label
_atom_site_type_symbol
_atom_site_fract_x
_atom_site_fract_y
_atom_site_fract_z
_atom_type_partial_charge
C0 C 0.42418 0.26534 0.07219 0.0
C1 C 0.4613 0.38653 0.93673 0.0
C2 C 0.45782 0.43784 0.09467 0.0
Mg3 Mg 0.43287 0.25914 0.22469 0.0
Mg4 Mg 0.51389 0.32796 0.28586 0.0
O5 O 0.46859 0.31639 0.2453 0.0
Mg6 Mg 0.4755 0.34025 0.15993 0.0
O7 O 0.47572 0.35966 0.07308 0.0
Mg8 Mg 0.41736 0.34437 0.06709 0.0
Mg9 Mg 0.51038 0.41257 0.06388 0.0
C10 C 0.52778 0.41327 0.2498 0.0
O11 O 0.54307 0.35858 0.14751 0.0
O12 O 0.43015 0.24699 0.33206 0.0
O13 O 0.56399 0.41709 0.10239 0.0
O14 O 0.4808 0.24179 0.21661 0.0
O15 O 0.48651 0.29601 0.3683 0.0
O16 O 0.5363 0.29696 0.23051 0.0
O17 O 0.41475 0.33176 0.1724 0.0
O18 O 0.3855 0.27796 0.2308 0.0
C19 C 0.38604 0.30788 0.20591 0.0
C20 C 0.454 0.26498 0.37739 0.0
O21 O 0.5034 0.39925 0.20478 0.0
O22 O 0.43009 0.36065 0.96362 0.0
O23 O 0.53686 0.39198 0.28384 0.0
O24 O 0.42661 0.40679 0.07972 0.0
O25 O 0.49326 0.40897 0.96616 0.0
O26 O 0.48305 0.43369 0.12391 0.0
O27 O 0.44613 0.27886 0.12044 0.0
O28 O 0.40879 0.28384 0.04703 0.0
C29 C 0.51782 0.2617 0.21219 0.0
C30 C 0.57125 0.39292 0.13176 0.0
C31 C 0.71114 0.14623 0.06739 0.0
C32 C 0.58571 0.06646 0.94071 0.0
C33 C 0.5361 0.01862 0.10633 0.0
Mg34 Mg 0.72267 0.16953 0.21645 0.0
Mg35 Mg 0.65987 0.18603 0.29348 0.0
O36 O 0.66745 0.15211 0.24319 0.0
Mg37 Mg 0.64015 0.13252 0.16087 0.0
O38 O 0.61785 0.11105 0.07578 0.0
Mg39 Mg 0.62879 0.06483 0.0732 0.0
Mg40 Mg 0.56575 0.09585 0.0652 0.0
C41 C 0.57132 0.12172 0.26091 0.0
O42 O 0.62712 0.18456 0.14206 0.0
O43 O 0.74041 0.18073 0.32327 0.0
O44 O 0.56931 0.1497 0.09375 0.0
O45 O 0.73827 0.23487 0.20258 0.0
O46 O 0.6939 0.1864 0.37264 0.0
O47 O 0.69178 0.24215 0.24895 0.0
O48 O 0.64564 0.07801 0.17738 0.0
O49 O 0.70272 0.10276 0.22734 0.0
C50 C 0.67115 0.07323 0.20704 0.0
C51 C 0.72528 0.18449 0.37411 0.0
O52 O 0.58148 0.1085 0.21398 0.0
O53 O 0.61 0.05895 0.96901 0.0
O54 O 0.59594 0.15162 0.29277 0.0
O55 O 0.56624 0.01583 0.09571 0.0
O56 O 0.56581 0.07928 0.96898 0.0
O57 O 0.54161 0.04995 0.13038 0.0
O58 O 0.69987 0.15884 0.11356 0.0
O59 O 0.68965 0.11188 0.04606 0.0
C60 C 0.72252 0.25551 0.21576 0.0
C61 C 0.59537 0.18159 0.11891 0.0
C62 C 0.91402 0.60425 0.2102 0.0
C63 C 0.80077 0.53645 0.38479 0.0
C64 C 0.73456 0.47629 0.2189 0.0
Mg65 Mg 0.91173 0.56818 0.06903 0.0
Mg66 Mg 0.88233 0.47385 0.07315 0.0
O67 O 0.86751 0.51133 0.0812 0.0
Mg68 Mg 0.8534 0.51473 0.16904 0.0
O69 O 0.84022 0.52391 0.25503 0.0
Mg70 Mg 0.81833 0.55978 0.23243 0.0
Mg71 Mg 0.80553 0.4781 0.29368 0.0
C72 C 0.80184 0.4187 0.14309 0.0
O73 O 0.88319 0.48262 0.20877 0.0
O74 O 0.90785 0.55017 0.96563 0.0
O75 O 0.84174 0.44948 0.28626 0.0
O76 O 0.96239 0.55532 0.07701 0.0
O77 O 0.89443 0.48778 0.97803 0.0
O78 O 0.93625 0.49762 0.11887 0.0
O79 O 0.82294 0.5462 0.13034 0.0
O80 O 0.86181 0.5799 0.05226 0.0
C81 C 0.82899 0.56551 0.07956 0.0
C82 C 0.90157 0.51731 0.94374 0.0
O83 O 0.80072 0.44876 0.1641 0.0
O84 O 0.8064 0.56018 0.33921 0.0
O85 O 0.83026 0.42274 0.10906 0.0
O86 O 0.75288 0.51348 0.22061 0.0
O87 O 0.80415 0.50606 0.37874 0.0
O88 O 0.75023 0.4572 0.24055 0.0
O89 O 0.90766 0.57491 0.17637 0.0
O90 O 0.88565 0.60555 0.23726 0.0
C91 C 0.96243 0.52331 0.08465 0.0
C92 C 0.87033 0.45585 0.25056 0.0
C93 C 0.26536 0.41972 0.4158 0.0
C94 C 0.38824 0.47269 0.55265 0.0
C95 C 0.44427 0.4779 0.39888 0.0
Mg96 Mg 0.25542 0.43386 0.26979 0.0
Mg97 Mg 0.31722 0.51122 0.18714 0.0
O98 O 0.31041 0.47182 0.24257 0.0
Mg99 Mg 0.33721 0.48149 0.32639 0.0
O100 O 0.35975 0.48403 0.41191 0.0
Mg101 Mg 0.35125 0.42798 0.41598 0.0
Mg102 Mg 0.41068 0.52348 0.42945 0.0
C103 C 0.40567 0.53728 0.22587 0.0
O104 O 0.34934 0.54722 0.34267 0.0
O105 O 0.23746 0.42577 0.16422 0.0
O106 O 0.40559 0.57259 0.39727 0.0
O107 O 0.24027 0.48305 0.27977 0.0
O108 O 0.28126 0.47652 0.10881 0.0
O109 O 0.28777 0.53632 0.23371 0.0
O110 O 0.33407 0.42249 0.31155 0.0
O111 O 0.27659 0.38842 0.26279 0.0
C112 C 0.30879 0.39169 0.2829 0.0
C113 C 0.2503 0.44291 0.11137 0.0
O114 O 0.39581 0.51557 0.27498 0.0
O115 O 0.36738 0.44097 0.52195 0.0
O116 O 0.381 0.54081 0.19069 0.0
O117 O 0.41436 0.44447 0.39303 0.0
O118 O 0.40723 0.50628 0.52615 0.0
O119 O 0.44195 0.50547 0.37279 0.0
O120 O 0.27623 0.44617 0.37311 0.0
O121 O 0.28969 0.41054 0.43797 0.0
C122 C 0.25722 0.51948 0.26727 0.0
C123 C 0.37962 0.57688 0.3678 0.0
C124 C 0.59423 0.91048 0.27549 0.0
C125 C 0.54541 0.80172 0.10402 0.0
C126 C 0.4619 0.73042 0.26204 0.0
Mg127 Mg 0.55784 0.91457 0.40886 0.0
Mg128 Mg 0.46435 0.87621 0.42518 0.0
O129 O 0.50323 0.86613 0.40389 0.0
Mg130 Mg 0.50524 0.84893 0.31573 0.0
O131 O 0.51527 0.83271 0.23184 0.0
Mg132 Mg 0.55138 0.81383 0.26161 0.0
Mg133 Mg 0.47635 0.79907 0.17684 0.0
C134 C 0.41133 0.79761 0.35708 0.0
O135 O 0.46955 0.87242 0.26066 0.0
O136 O 0.54661 0.91748 0.51555 0.0
O137 O 0.45088 0.83585 0.17247 0.0
O138 O 0.53587 0.9584 0.39496 0.0
O139 O 0.48182 0.89425 0.51968 0.0
O140 O 0.47657 0.92147 0.36166 0.0
O141 O 0.53954 0.82208 0.36373 0.0
O142 O 0.57727 0.87111 0.42691 0.0
C143 C 0.56671 0.83721 0.40537 0.0
C144 C 0.51536 0.90876 0.54585 0.0
O145 O 0.44017 0.79809 0.32777 0.0
O146 O 0.56174 0.80568 0.15751 0.0
O147 O 0.41579 0.8218 0.40022 0.0
O148 O 0.49897 0.74843 0.27163 0.0
O149 O 0.51116 0.79736 0.09987 0.0
O150 O 0.44598 0.74584 0.22942 0.0
O151 O 0.56333 0.9048 0.30349 0.0
O152 O 0.59764 0.88151 0.2556 0.0
C153 C 0.50247 0.95417 0.38175 0.0
C154 C 0.45075 0.86185 0.20807 0.0
C155 C 0.07736 0.6844 0.28069 0.0
C156 C 0.18289 0.729 0.10254 0.0
C157 C 0.25382 0.72516 0.25505 0.0
Mg158 Mg 0.07762 0.6501 0.42176 0.0
Mg159 Mg 0.1044 0.58209 0.43073 0.0
O160 O 0.12027 0.63419 0.41345 0.0
Mg161 Mg 0.13478 0.65101 0.32359 0.0
O162 O 0.14971 0.67408 0.23676 0.0
Mg163 Mg 0.17198 0.73097 0.25953 0.0
Mg164 Mg 0.17947 0.66294 0.18268 0.0
C165 C 0.18201 0.60341 0.35653 0.0
O166 O 0.10462 0.58979 0.27766 0.0
O167 O 0.07678 0.63557 0.52761 0.0
O168 O 0.14052 0.5993 0.19046 0.0
O169 O 0.02552 0.58913 0.40565 0.0
O170 O 0.09354 0.58863 0.5289 0.0
O171 O 0.05593 0.56096 0.37212 0.0
O172 O 0.16564 0.71183 0.36091 0.0
O173 O 0.1299 0.71023 0.44082 0.0
C174 C 0.16141 0.7276 0.40961 0.0
C175 C 0.08384 0.61131 0.55709 0.0
O176 O 0.18488 0.6358 0.33697 0.0
O177 O 0.1827 0.74641 0.15309 0.0
O178 O 0.15316 0.57919 0.39012 0.0
O179 O 0.23385 0.74108 0.27042 0.0
O180 O 0.17713 0.69413 0.10222 0.0
O181 O 0.23939 0.69488 0.2204 0.0
O182 O 0.08294 0.66057 0.31412 0.0
O183 O 0.10617 0.71405 0.25443 0.0
C184 C 0.02804 0.55837 0.40331 0.0
C185 C 0.11369 0.57698 0.22908 0.0
C186 C 0.56321 0.72229 0.91091 0.0
C187 C 0.50488 0.59437 0.04467 0.0
C188 C 0.50072 0.54138 0.88403 0.0
Mg189 Mg 0.55197 0.732 0.76407 0.0
Mg190 Mg 0.47528 0.67298 0.67818 0.0
O191 O 0.51301 0.67751 0.73552 0.0
Mg192 Mg 0.5013 0.65051 0.81961 0.0
O193 O 0.49718 0.62856 0.90625 0.0
Mg194 Mg 0.55223 0.63514 0.91372 0.0
Mg195 Mg 0.45795 0.5774 0.918 0.0
C196 C 0.44506 0.58298 0.71236 0.0
O197 O 0.43729 0.64137 0.83539 0.0
O198 O 0.56244 0.74988 0.65918 0.0
O199 O 0.40981 0.58277 0.88357 0.0
O200 O 0.50389 0.74974 0.77291 0.0
O201 O 0.50971 0.71001 0.60255 0.0
O202 O 0.45113 0.70318 0.72542 0.0
O203 O 0.5593 0.65105 0.80808 0.0
O204 O 0.59542 0.7083 0.75959 0.0
C205 C 0.59077 0.67564 0.78036 0.0
C206 C 0.54395 0.73971 0.60689 0.0
O207 O 0.46406 0.59154 0.76478 0.0
O208 O 0.53723 0.61805 0.01796 0.0
O209 O 0.44556 0.60919 0.6756 0.0
O210 O 0.53342 0.5709 0.89794 0.0
O211 O 0.47238 0.57563 0.01503 0.0
O212 O 0.4756 0.54752 0.85823 0.0
O213 O 0.53782 0.71134 0.86657 0.0
O214 O 0.57129 0.69771 0.9354 0.0
C215 C 0.4675 0.73314 0.76002 0.0
C216 C 0.40681 0.60986 0.85534 0.0
C217 C 0.31117 0.91233 0.77018 0.0
C218 C 0.27006 0.8138 0.59053 0.0
C219 C 0.26653 0.73567 0.74507 0.0
Mg220 Mg 0.34887 0.91592 0.90684 0.0
Mg221 Mg 0.413 0.88614 0.91645 0.0
O222 O 0.36145 0.87138 0.90136 0.0
Mg223 Mg 0.34301 0.85362 0.81344 0.0
O224 O 0.32003 0.83841 0.72754 0.0
Mg225 Mg 0.26311 0.81837 0.74788 0.0
Mg226 Mg 0.33085 0.80751 0.67612 0.0
C227 C 0.38462 0.80208 0.85969 0.0
O228 O 0.4042 0.88083 0.76759 0.0
O229 O 0.36397 0.91753 0.01279 0.0
O230 O 0.39386 0.84043 0.68619 0.0
O231 O 0.41224 0.96618 0.89378 0.0
O232 O 0.4107 0.90058 0.01229 0.0
O233 O 0.43886 0.93443 0.85609 0.0
O234 O 0.28111 0.82307 0.8522 0.0
O235 O 0.28725 0.86592 0.92479 0.0
C236 C 0.26781 0.83231 0.89953 0.0
C237 C 0.38912 0.91115 0.04093 0.0
O238 O 0.3553 0.80146 0.83114 0.0
O239 O 0.25191 0.81432 0.63994 0.0
O240 O 0.4101 0.83239 0.88915 0.0
O241 O 0.24779 0.75383 0.75349 0.0
O242 O 0.30098 0.81112 0.59426 0.0
O243 O 0.29966 0.75175 0.71856 0.0
O244 O 0.33659 0.90762 0.80038 0.0
O245 O 0.28082 0.88334 0.74643 0.0
C246 C 0.44298 0.96428 0.88372 0.0
C247 C 0.41664 0.86885 0.72201 0.0
C248 C 0.1481 0.42692 0.91691 0.0
C249 C 0.0773 0.48634 0.04024 0.0
C250 C 0.02566 0.48691 0.87417 0.0
Mg251 Mg 0.1691 0.4337 0.77076 0.0
Mg252 Mg 0.18204 0.50423 0.67766 0.0
O253 O 0.14985 0.46817 0.73537 0.0
Mg254 Mg 0.13531 0.48369 0.81605 0.0
O255 O 0.11776 0.49098 0.90064 0.0
Mg256 Mg 0.07038 0.43617 0.91235 0.0
Mg257 Mg 0.10653 0.53078 0.91113 0.0
C258 C 0.12287 0.53445 0.69815 0.0
O259 O 0.18933 0.5476 0.82615 0.0
O260 O 0.17777 0.41939 0.668 0.0
O261 O 0.15932 0.57722 0.87105 0.0
O262 O 0.2346 0.48595 0.77851 0.0
O263 O 0.19029 0.4708 0.60809 0.0
O264 O 0.23352 0.53545 0.73111 0.0
O265 O 0.07878 0.42516 0.80792 0.0
O266 O 0.10185 0.38854 0.76649 0.0
C267 C 0.07312 0.39309 0.78352 0.0
C268 C 0.18669 0.43707 0.61499 0.0
O269 O 0.11425 0.52 0.75423 0.0
O270 O 0.06812 0.45357 0.01456 0.0
O271 O 0.14462 0.52809 0.66199 0.0
O272 O 0.02463 0.45549 0.89215 0.0
O273 O 0.09163 0.51866 0.00968 0.0
O274 O 0.05738 0.51451 0.85363 0.0
O275 O 0.16125 0.45054 0.87018 0.0
O276 O 0.11522 0.4186 0.94005 0.0
C277 C 0.25058 0.52248 0.76557 0.0
C278 C 0.18814 0.57873 0.84137 0.0
C279 C 0.67044 0.59362 0.70824 0.0
C280 C 0.72194 0.52781 0.87239 0.0
C281 C 0.71158 0.45713 0.70716 0.0
Mg282 Mg 0.62736 0.5593 0.57123 0.0
Mg283 Mg 0.55868 0.4719 0.59308 0.0
O284 O 0.61176 0.50182 0.58215 0.0
Mg285 Mg 0.63511 0.50298 0.66524 0.0
O286 O 0.66272 0.50987 0.74685 0.0
Mg287 Mg 0.71806 0.54489 0.71778 0.0
Mg288 Mg 0.65401 0.4663 0.79241 0.0
C289 C 0.5847 0.41059 0.62898 0.0
O290 O 0.57713 0.4703 0.72026 0.0
O291 O 0.6019 0.53579 0.47037 0.0
O292 O 0.59149 0.43863 0.79479 0.0
O293 O 0.56804 0.55342 0.59395 0.0
O294 O 0.54738 0.48291 0.50111 0.0
O295 O 0.54333 0.5032 0.65454 0.0
O296 O 0.69378 0.53279 0.61782 0.0
O297 O 0.68664 0.56799 0.54368 0.0
C298 C 0.70689 0.55505 0.57017 0.0
C299 C 0.5691 0.50488 0.45775 0.0
O300 O 0.61892 0.43801 0.64611 0.0
O301 O 0.73748 0.54818 0.8227 0.0
O302 O 0.55736 0.4181 0.61619 0.0
O303 O 0.72991 0.49415 0.70006 0.0
O304 O 0.68813 0.49729 0.87215 0.0
O305 O 0.68095 0.43968 0.74046 0.0
O306 O 0.64475 0.56444 0.67727 0.0
O307 O 0.70095 0.59381 0.73012 0.0
C308 C 0.53809 0.52647 0.62094 0.0
C309 C 0.56711 0.44546 0.76543 0.0
C310 C 0.38558 0.07294 0.70097 0.0
C311 C 0.45447 0.18883 0.87084 0.0
C312 C 0.51582 0.25008 0.7039 0.0
Mg313 Mg 0.41726 0.06895 0.56085 0.0
Mg314 Mg 0.50854 0.09441 0.55089 0.0
O315 O 0.4748 0.11185 0.56886 0.0
Mg316 Mg 0.47524 0.12926 0.65834 0.0
O317 O 0.46769 0.14616 0.74379 0.0
Mg318 Mg 0.43192 0.16786 0.72125 0.0
Mg319 Mg 0.5131 0.18427 0.7785 0.0
C320 C 0.56814 0.17303 0.61464 0.0
O321 O 0.50909 0.10232 0.70957 0.0
O322 O 0.4298 0.06701 0.45408 0.0
O323 O 0.53727 0.14715 0.78581 0.0
O324 O 0.4286 0.01707 0.57235 0.0
O325 O 0.49196 0.07959 0.45564 0.0
O326 O 0.48573 0.04801 0.61467 0.0
O327 O 0.44537 0.16093 0.61825 0.0
O328 O 0.40823 0.12072 0.54284 0.0
C329 C 0.42367 0.15384 0.56996 0.0
C330 C 0.46046 0.0712 0.42641 0.0
O331 O 0.54152 0.17647 0.64435 0.0
O332 O 0.42825 0.17857 0.82778 0.0
O333 O 0.56037 0.14562 0.57582 0.0
O334 O 0.47939 0.23272 0.71485 0.0
O335 O 0.48753 0.19218 0.85969 0.0
O336 O 0.53564 0.23344 0.71587 0.0
O337 O 0.41455 0.07744 0.66849 0.0
O338 O 0.38496 0.10215 0.7258 0.0
C339 C 0.46047 0.01816 0.58666 0.0
C340 C 0.53243 0.11672 0.75706 0.0
C341 C 0.91266 0.31137 0.70158 0.0
C342 C 0.79513 0.24643 0.86368 0.0
C343 C 0.72898 0.25428 0.70044 0.0
Mg344 Mg 0.91623 0.35651 0.56697 0.0
Mg345 Mg 0.87322 0.40853 0.54749 0.0
O346 O 0.87375 0.36834 0.58725 0.0
Mg347 Mg 0.85257 0.34236 0.66814 0.0
O348 O 0.83236 0.30986 0.74524 0.0
Mg349 Mg 0.81631 0.25677 0.71009 0.0
Mg350 Mg 0.79197 0.31173 0.78436 0.0
C351 C 0.79731 0.38314 0.62355 0.0
O352 O 0.87656 0.39604 0.73582 0.0
O353 O 0.91771 0.37509 0.46211 0.0
O354 O 0.82198 0.37327 0.79281 0.0
O355 O 0.96263 0.42139 0.58775 0.0
O356 O 0.87176 0.3923 0.45376 0.0
O357 O 0.9297 0.45335 0.57166 0.0
O358 O 0.82605 0.28563 0.61367 0.0
O359 O 0.86764 0.29585 0.53762 0.0
C360 C 0.83443 0.27487 0.56285 0.0
C361 C 0.89581 0.38383 0.42925 0.0
O362 O 0.80064 0.35661 0.65467 0.0
O363 O 0.80413 0.23365 0.81482 0.0
O364 O 0.82254 0.40591 0.58408 0.0
O365 O 0.75144 0.2399 0.69311 0.0
O366 O 0.78833 0.27481 0.85946 0.0
O367 O 0.73992 0.28528 0.73161 0.0
O368 O 0.90727 0.33712 0.67397 0.0
O369 O 0.8836 0.27901 0.72071 0.0
C370 C 0.96138 0.45325 0.58396 0.0
C371 C 0.85632 0.40044 0.77894 0.0
C372 C 0.57681 0.25287 0.20848 0.0
C373 C 0.54014 0.24442 0.18279 0.0
C374 C 0.54944 0.20741 0.09836 0.0
C375 C 0.5837 0.21244 0.12849 0.0
N376 N 0.63893 0.25818 0.18809 0.0
N377 N 0.49105 0.21227 0.10193 0.0
C378 C 0.60019 0.24069 0.17637 0.0
C379 C 0.52636 0.22141 0.12717 0.0
N380 N 0.58805 0.26926 0.26653 0.0
N381 N 0.54083 0.1918 0.03953 0.0
H382 H 0.47563 0.22613 0.11394 0.0
H383 H 0.47618 0.18974 0.07 0.0
H384 H 0.56053 0.1871 0.01402 0.0
H385 H 0.51661 0.18711 0.01348 0.0
H386 H 0.6128 0.27236 0.2894 0.0
H387 H 0.57041 0.27507 0.29534 0.0
H388 H 0.65358 0.28197 0.21804 0.0
H389 H 0.65661 0.25261 0.15964 0.0
C390 C 0.75648 0.34785 0.11502 0.0
C391 C 0.77224 0.37725 0.16171 0.0
C392 C 0.7578 0.32642 0.24134 0.0
C393 C 0.74132 0.29714 0.1954 0.0
N394 N 0.71543 0.27925 0.09126 0.0
N395 N 0.76951 0.38926 0.27165 0.0
C396 C 0.738 0.30763 0.13286 0.0
C397 C 0.76759 0.36507 0.22558 0.0
N398 N 0.75901 0.35836 0.05349 0.0
N399 N 0.76476 0.31768 0.30035 0.0
H400 H 0.77294 0.41604 0.26089 0.0
H401 H 0.76255 0.38077 0.31824 0.0
H402 H 0.75817 0.28964 0.31392 0.0
H403 H 0.78072 0.33909 0.33363 0.0
H404 H 0.75242 0.33884 0.01666 0.0
H405 H 0.76872 0.3871 0.03948 0.0
H406 H 0.70666 0.28516 0.04845 0.0
H407 H 0.70258 0.24975 0.10263 0.0
C408 C 0.6819 0.46115 0.13556 0.0
C409 C 0.693 0.45413 0.1957 0.0
C410 C 0.62523 0.402 0.21208 0.0
C411 C 0.61383 0.40849 0.15143 0.0
N412 N 0.6365 0.4352 0.04866 0.0
N413 N 0.67267 0.42286 0.29605 0.0
C414 C 0.64377 0.43556 0.11136 0.0
C415 C 0.66413 0.42517 0.23452 0.0
N416 N 0.70687 0.49341 0.10217 0.0
N417 N 0.59892 0.37357 0.24942 0.0
H418 H 0.7 0.44052 0.31551 0.0
H419 H 0.65214 0.40662 0.33001 0.0
H420 H 0.57001 0.36259 0.24157 0.0
H421 H 0.60576 0.36076 0.28649 0.0
H422 H 0.69822 0.50282 0.06268 0.0
H423 H 0.73495 0.51297 0.11708 0.0
H424 H 0.65808 0.45151 0.01601 0.0
H425 H 0.61004 0.41485 0.02838 0.0
C426 C 0.2218 0.57054 0.379 0.0
C427 C 0.20994 0.59008 0.33539 0.0
C428 C 0.23033 0.56351 0.24836 0.0
C429 C 0.24088 0.5433 0.29156 0.0
N430 N 0.25478 0.53326 0.39785 0.0
N431 N 0.21388 0.61297 0.22882 0.0
C432 C 0.23885 0.54832 0.35701 0.0
C433 C 0.21818 0.58941 0.27047 0.0
N434 N 0.21687 0.57354 0.4416 0.0
N435 N 0.22879 0.5556 0.18567 0.0
H436 H 0.20163 0.62944 0.24111 0.0
H437 H 0.22533 0.61858 0.18375 0.0
H438 H 0.23603 0.53571 0.16702 0.0
H439 H 0.21619 0.56529 0.15233 0.0
H440 H 0.21956 0.55615 0.47578 0.0
H441 H 0.20941 0.59347 0.45947 0.0
H442 H 0.25758 0.53852 0.44576 0.0
H443 H 0.2679 0.51741 0.38328 0.0
C444 C 0.37702 0.62819 0.29929 0.0
C445 C 0.3902 0.61883 0.3545 0.0
C446 C 0.44163 0.68807 0.35993 0.0
C447 C 0.4361 0.69244 0.29497 0.0
N448 N 0.39646 0.66354 0.20202 0.0
N449 N 0.42928 0.64424 0.44789 0.0
C450 C 0.40285 0.66186 0.2645 0.0
C451 C 0.42088 0.65025 0.3882 0.0
N452 N 0.33881 0.60736 0.28377 0.0
N453 N 0.464 0.72032 0.39564 0.0
H454 H 0.41059 0.61919 0.47322 0.0
H455 H 0.45451 0.66389 0.47179 0.0
H456 H 0.47649 0.74861 0.37786 0.0
H457 H 0.46655 0.71948 0.44407 0.0
H458 H 0.32673 0.61496 0.24645 0.0
H459 H 0.31919 0.58716 0.31553 0.0
H460 H 0.37371 0.64021 0.1783 0.0
H461 H 0.41601 0.68592 0.17296 0.0
C462 C 0.31839 0.78421 0.27909 0.0
C463 C 0.29487 0.743 0.27861 0.0
C464 C 0.34951 0.73714 0.32329 0.0
C465 C 0.37184 0.77816 0.32796 0.0
N466 N 0.37601 0.84146 0.31587 0.0
N467 N 0.28488 0.68121 0.31733 0.0
C468 C 0.35548 0.80178 0.30869 0.0
C469 C 0.3097 0.71959 0.3046 0.0
N470 N 0.30667 0.80675 0.24699 0.0
N471 N 0.36577 0.71482 0.33906 0.0
H472 H 0.25509 0.66886 0.31139 0.0
H473 H 0.29283 0.66319 0.34127 0.0
H474 H 0.39389 0.72665 0.35729 0.0
H475 H 0.35224 0.68497 0.33054 0.0
H476 H 0.32322 0.83694 0.24281 0.0
H477 H 0.28231 0.7953 0.21775 0.0
H478 H 0.36307 0.85886 0.31491 0.0
H479 H 0.40589 0.8574 0.32397 0.0
C480 C 0.44542 0.7525 0.85792 0.0
C481 C 0.44206 0.74535 0.79206 0.0
C482 C 0.38269 0.74906 0.79394 0.0
C483 C 0.39458 0.77052 0.84948 0.0
N484 N 0.42999 0.78128 0.94601 0.0
N485 N 0.4052 0.73826 0.69654 0.0
C486 C 0.42397 0.76885 0.88541 0.0
C487 C 0.40978 0.74361 0.75972 0.0
N488 N 0.46604 0.74066 0.89451 0.0
N489 N 0.34449 0.72947 0.7787 0.0
H490 H 0.42611 0.73776 0.66778 0.0
H491 H 0.38231 0.73872 0.67265 0.0
H492 H 0.32424 0.72887 0.81027 0.0
H493 H 0.3338 0.70995 0.74127 0.0
H494 H 0.46673 0.74211 0.94317 0.0
H495 H 0.4787 0.7251 0.87677 0.0
H496 H 0.45306 0.78406 0.97346 0.0
H497 H 0.41112 0.78844 0.96876 0.0
C498 C 0.23064 0.62667 0.75608 0.0
C499 C 0.21816 0.61878 0.81948 0.0
C500 C 0.24246 0.68856 0.83594 0.0
C501 C 0.25104 0.69564 0.77099 0.0
N502 N 0.25818 0.67292 0.6701 0.0
N503 N 0.22689 0.64401 0.92381 0.0
C504 C 0.24797 0.66537 0.73192 0.0
C505 C 0.22859 0.65043 0.86064 0.0
N506 N 0.22335 0.5968 0.71742 0.0
N507 N 0.24763 0.71825 0.87434 0.0
H508 H 0.21873 0.61657 0.94269 0.0
H509 H 0.23744 0.66612 0.95714 0.0
H510 H 0.26233 0.74743 0.86072 0.0
H511 H 0.23591 0.71361 0.91908 0.0
H512 H 0.23875 0.5994 0.67675 0.0
H513 H 0.20014 0.56926 0.72534 0.0
H514 H 0.25844 0.65304 0.63878 0.0
H515 H 0.26573 0.69933 0.64815 0.0
C516 C 0.31731 0.58237 0.75528 0.0
C517 C 0.28905 0.55158 0.79299 0.0
C518 C 0.33508 0.57469 0.88157 0.0
C519 C 0.36546 0.59988 0.8402 0.0
N520 N 0.3822 0.63611 0.74403 0.0
N521 N 0.2657 0.5308 0.89781 0.0
C522 C 0.35491 0.60779 0.78062 0.0
C523 C 0.29628 0.55135 0.85817 0.0
N524 N 0.3103 0.58475 0.69289 0.0
N525 N 0.34373 0.57327 0.94322 0.0
H526 H 0.23685 0.51574 0.88236 0.0
H527 H 0.26813 0.53139 0.94633 0.0
H528 H 0.37058 0.5935 0.9626 0.0
H529 H 0.32485 0.55241 0.97487 0.0
H530 H 0.3302 0.60577 0.66248 0.0
H531 H 0.28649 0.56342 0.66832 0.0
H532 H 0.37561 0.65112 0.71025 0.0
H533 H 0.40947 0.63873 0.74093 0.0
C534 C 0.72572 0.42111 0.62198 0.0
C535 C 0.72997 0.43484 0.68462 0.0
C536 C 0.78192 0.42072 0.69892 0.0
C537 C 0.7707 0.39681 0.64545 0.0
N538 N 0.73246 0.37691 0.55061 0.0
N539 N 0.7595 0.44116 0.78614 0.0
C540 C 0.74228 0.3974 0.60525 0.0
C541 C 0.75615 0.43123 0.72472 0.0
N542 N 0.70839 0.43263 0.57804 0.0
N543 N 0.81994 0.44143 0.71616 0.0
H544 H 0.74272 0.45143 0.80719 0.0
H545 H 0.77723 0.4357 0.81575 0.0
H546 H 0.84183 0.4401 0.69144 0.0
H547 H 0.82956 0.46455 0.7477 0.0
H548 H 0.70683 0.42542 0.53101 0.0
H549 H 0.69802 0.45161 0.58846 0.0
H550 H 0.70979 0.37392 0.52177 0.0
H551 H 0.74502 0.36028 0.53718 0.0
C552 C 0.53672 0.34007 0.60498 0.0
C553 C 0.57321 0.36798 0.6305 0.0
C554 C 0.57356 0.31804 0.6977 0.0
C555 C 0.53539 0.2904 0.67716 0.0
N556 N 0.47984 0.27585 0.61007 0.0
N557 N 0.63322 0.37484 0.66842 0.0
C558 C 0.51675 0.30152 0.63014 0.0
C559 C 0.59383 0.35447 0.66711 0.0
N560 N 0.52298 0.34981 0.55302 0.0
N561 N 0.58958 0.3114 0.74995 0.0
H562 H 0.64805 0.39888 0.63957 0.0
H563 H 0.65008 0.36431 0.68938 0.0
H564 H 0.57445 0.28737 0.77928 0.0
H565 H 0.61615 0.33256 0.76878 0.0
H566 H 0.49717 0.33108 0.52978 0.0
H567 H 0.54005 0.37576 0.52854 0.0
H568 H 0.46234 0.28417 0.58548 0.0
H569 H 0.46589 0.24603 0.61835 0.0
C570 C 0.631 0.23586 0.63522 0.0
C571 C 0.60945 0.19461 0.63577 0.0
C572 C 0.66594 0.19244 0.68037 0.0
C573 C 0.68851 0.23356 0.67506 0.0
N574 N 0.69501 0.29318 0.6319 0.0
N575 N 0.60833 0.13285 0.65217 0.0
C576 C 0.67169 0.25502 0.6485 0.0
C577 C 0.62793 0.17277 0.6543 0.0
N578 N 0.61299 0.2568 0.62082 0.0
N579 N 0.67878 0.17221 0.71637 0.0
H580 H 0.57816 0.11564 0.64971 0.0
H581 H 0.62254 0.1166 0.65297 0.0
H582 H 0.70374 0.18542 0.74418 0.0
H583 H 0.66213 0.14249 0.72602 0.0
H584 H 0.62602 0.28683 0.62756 0.0
H585 H 0.58407 0.2439 0.60587 0.0
H586 H 0.68481 0.30926 0.60774 0.0
H587 H 0.72525 0.30732 0.63532 0.0
C588 C 0.51594 0.5025 0.95954 0.0
C589 C 0.48724 0.50862 0.93011 0.0
C590 C 0.44292 0.4761 0.01787 0.0
C591 C 0.47149 0.46984 0.04717 0.0
N592 N 0.541 0.49191 0.05576 0.0
N593 N 0.41798 0.48617 0.9208 0.0
C594 C 0.50969 0.48699 0.02095 0.0
C595 C 0.4491 0.4913 0.9562 0.0
N596 N 0.54916 0.51089 0.92793 0.0
N597 N 0.41026 0.46863 0.05033 0.0
H598 H 0.41943 0.4907 0.87263 0.0
H599 H 0.38935 0.47125 0.93674 0.0
H600 H 0.40587 0.45891 0.0967 0.0
H601 H 0.39019 0.47648 0.0342 0.0
H602 H 0.56863 0.50202 0.94316 0.0
H603 H 0.55517 0.52297 0.88314 0.0
H604 H 0.56962 0.50742 0.03995 0.0
H605 H 0.54017 0.48642 0.10347 0.0
C606 C 0.48846 0.02143 0.02919 0.0
C607 C 0.50531 0.00038 0.05688 0.0
C608 C 0.48875 0.95943 0.96346 0.0
C609 C 0.47264 0.98117 0.93511 0.0
N610 N 0.47094 0.04113 0.93261 0.0
N611 N 0.50724 0.9406 0.06018 0.0
C612 C 0.47677 0.01473 0.96562 0.0
C613 C 0.5009 0.96659 0.02689 0.0
N614 N 0.4809 0.04573 0.06421 0.0
N615 N 0.49536 0.93409 0.9294 0.0
H616 H 0.51531 0.94481 0.10733 0.0
H617 H 0.50007 0.91306 0.04353 0.0
H618 H 0.49239 0.93135 0.88105 0.0
H619 H 0.50978 0.92014 0.94736 0.0
H620 H 0.466 0.05932 0.04672 0.0
H621 H 0.48379 0.04764 0.11272 0.0
H622 H 0.47745 0.06824 0.9504 0.0
H623 H 0.46416 0.0378 0.88491 0.0
C624 C 0.9571 0.4732 0.00133 0.0
C625 C 0.97773 0.5114 0.02946 0.0
C626 C 0.01723 0.53622 0.93452 0.0
C627 C 0.00044 0.49792 0.91062 0.0
N628 N 0.94403 0.4348 0.90593 0.0
N629 N 0.03543 0.57531 0.02789 0.0
C630 C 0.96684 0.46798 0.93933 0.0
C631 C 0.01003 0.54177 -0.00275 0.0
N632 N 0.93052 0.44121 0.03419 0.0
N633 N 0.03863 0.56744 0.89636 0.0
H634 H 0.0332 0.57928 0.07563 0.0
H635 H 0.06123 0.59685 0.00782 0.0
H636 H 0.04071 0.56414 0.84833 0.0
H637 H 0.04921 0.59622 0.91048 0.0
H638 H 0.91725 0.41293 0.01665 0.0
H639 H 0.92525 0.44083 0.08169 0.0
H640 H 0.91651 0.41308 0.92004 0.0
H641 H 0.95109 0.43158 0.86013 0.0
C642 C 0.45925 0.45827 0.50736 0.0
C643 C 0.46628 0.48719 0.46026 0.0
C644 C 0.50078 0.53773 0.53902 0.0
C645 C 0.50219 0.51063 0.58044 0.0
N646 N 0.47886 0.44241 0.60537 0.0
N647 N 0.50904 0.55488 0.43044 0.0
C648 C 0.47939 0.47004 0.56593 0.0
C649 C 0.49127 0.52716 0.47584 0.0
N650 N 0.43423 0.41944 0.49732 0.0
N651 N 0.51224 0.57466 0.55881 0.0
H652 H 0.5087 0.54778 0.38339 0.0
H653 H 0.52899 0.58394 0.44087 0.0
H654 H 0.51978 0.58283 0.60552 0.0
H655 H 0.51026 0.59514 0.53024 0.0
H656 H 0.42175 0.39947 0.53388 0.0
H657 H 0.42688 0.40637 0.45359 0.0
H658 H 0.47036 0.41404 0.59128 0.0
H659 H 0.48617 0.4473 0.65259 0.0
C660 C 0.51846 0.01051 0.45206 0.0
C661 C 0.48959 0.97563 0.42386 0.0
C662 C 0.44525 0.96504 0.51063 0.0
C663 C 0.47405 -0.0003 0.53954 0.0
N664 N 0.54351 0.04756 0.54666 0.0
N665 N 0.42018 0.93091 0.41339 0.0
C666 C 0.51224 0.02054 0.51283 0.0
C667 C 0.45133 0.95598 0.4493 0.0
N668 N 0.55167 0.03455 0.41973 0.0
N669 N 0.41242 0.94006 0.54298 0.0
H670 H 0.4223 0.92796 0.36536 0.0
H671 H 0.39145 0.918 0.42868 0.0
H672 H 0.40807 0.94517 0.58934 0.0
H673 H 0.39209 0.91242 0.52662 0.0
H674 H 0.57161 0.06287 0.43375 0.0
H675 H 0.55707 0.02776 0.37516 0.0
H676 H 0.57209 0.06085 0.53066 0.0
H677 H 0.54277 0.0526 0.5941 0.0
C678 C 0.02557 0.49017 0.53506 0.0
C679 C -0.00226 0.49119 0.57372 0.0
C680 C -0.00559 0.53924 0.5078 0.0
C681 C 0.01776 0.53446 0.46204 0.0
N682 N 0.04627 0.49491 0.42839 0.0
N683 N 0.97591 0.53195 0.61618 0.0
C684 C 0.03209 0.50792 0.47496 0.0
C685 C -0.00858 0.52291 0.56737 0.0
N686 N 0.04374 0.47043 0.55488 0.0
N687 N 0.97046 0.55376 0.49222 0.0
H688 H 0.97473 0.51874 0.65875 0.0
H689 H 0.97001 0.55489 0.61613 0.0
H690 H 0.96429 0.55757 0.44607 0.0
H691 H 0.95149 0.55559 0.52377 0.0
H692 H 0.06676 0.4708 0.53093 0.0
H693 H 0.03802 0.45733 0.59912 0.0
H694 H 0.05507 0.47436 0.43577 0.0
H695 H 0.04316 0.499 0.38101 0.0
C696 C 0.48032 0.36446 0.8446 0.0
C697 C 0.46405 0.38622 0.86847 0.0
C698 C 0.50402 0.44097 0.80104 0.0
C699 C 0.5259 0.42257 0.78566 0.0
N700 N 0.52547 0.36169 0.77218 0.0
N701 N 0.44383 0.43236 0.84584 0.0
C702 C 0.51042 0.38223 0.79984 0.0
C703 C 0.46982 0.41983 0.8371 0.0
N704 N 0.46974 0.32876 0.86996 0.0
N705 N 0.51776 0.47942 0.78824 0.0
H706 H 0.41962 0.41688 0.87471 0.0
H707 H 0.44434 0.45504 0.82004 0.0
H708 H 0.54518 0.49798 0.77001 0.0
H709 H 0.50339 0.49401 0.80199 0.0
H710 H 0.48388 0.31305 0.86096 0.0
H711 H 0.44685 0.31541 0.90181 0.0
H712 H 0.51368 0.33166 0.7768 0.0
H713 H 0.54819 0.37473 0.74051 0.0
C714 C 0.5562 0.04442 0.83631 0.0
C715 C 0.58771 0.07127 0.87233 0.0
C716 C 0.59345 0.12482 0.80869 0.0
C717 C 0.5555 0.09909 0.78261 0.0
N718 N 0.50185 0.03256 0.77055 0.0
N719 N 0.64715 0.13183 0.87449 0.0
C720 C 0.53786 0.05809 0.79381 0.0
C721 C 0.61027 0.1097 0.85119 0.0
N722 N 0.54473 0.00592 0.84242 0.0
N723 N 0.61176 0.16414 0.79776 0.0
H724 H 0.65886 0.12033 0.90652 0.0
H725 H 0.66709 0.15959 0.85823 0.0
H726 H 0.60248 0.17701 0.76442 0.0
H727 H 0.63595 0.18459 0.82283 0.0
H728 H 0.52502 0.98461 0.81195 0.0
H729 H 0.55889 -0.00328 0.8739 0.0
H730 H 0.48622 0.0037 0.78513 0.0
H731 H 0.48616 0.03985 0.73967 0.0
C732 C 0.90158 0.47482 0.79439 0.0
C733 C 0.87016 0.4379 0.81385 0.0
C734 C 0.84977 0.47427 0.87982 0.0
C735 C 0.88769 0.50614 0.87977 0.0
N736 N 0.9504 0.53861 0.83158 0.0
N737 N 0.82441 0.40634 0.90003 0.0
C738 C 0.91379 0.50733 0.83474 0.0
C739 C 0.84626 0.4383 0.86342 0.0
N740 N 0.91694 0.48097 0.73629 0.0
N741 N 0.82131 0.47658 0.91156 0.0
H742 H 0.82758 0.38167 0.8993 0.0
H743 H 0.80832 0.40715 0.93788 0.0
H744 H 0.82586 0.50342 0.92789 0.0
H745 H 0.79344 0.45263 0.91721 0.0
H746 H 0.93138 0.50956 0.71989 0.0
H747 H 0.90953 0.45955 0.70254 0.0
H748 H 0.97143 0.53894 0.80203 0.0
H749 H 0.95923 0.56289 0.86044 0.0
C750 C 0.3817 0.52814 0.66831 0.0
C751 C 0.42004 0.54118 0.69289 0.0
C752 C 0.41288 0.47864 0.66026 0.0
C753 C 0.38254 0.47338 0.62051 0.0
N754 N 0.32455 0.47684 0.61452 0.0
N755 N 0.47061 0.52499 0.71553 0.0
C756 C 0.36192 0.49223 0.63575 0.0
C757 C 0.43472 0.51476 0.69206 0.0
N758 N 0.36547 0.55122 0.67179 0.0
N759 N 0.41848 0.44788 0.67062 0.0
H760 H 0.48954 0.55211 0.73485 0.0
H761 H 0.48266 0.50705 0.71065 0.0
H762 H 0.40185 0.42158 0.64673 0.0
H763 H 0.43626 0.44763 0.7066 0.0
H764 H 0.34107 0.54632 0.64599 0.0
H765 H 0.37789 0.5762 0.69857 0.0
H766 H 0.30597 0.48722 0.62706 0.0
H767 H 0.31152 0.45114 0.58821 0.0
C768 C 0.47738 0.92763 0.6825 0.0
C769 C 0.45864 0.88903 0.70611 0.0
C770 C 0.50272 0.87499 0.64697 0.0
C771 C 0.51551 0.91046 0.61462 0.0
N772 N 0.53301 0.97715 0.62514 0.0
N773 N 0.46698 0.83512 0.73582 0.0
C774 C 0.50917 0.93924 0.64111 0.0
C775 C 0.47622 0.86584 0.69704 0.0
N776 N 0.46297 0.95181 0.69457 0.0
N777 N 0.5131 0.84894 0.6259 0.0
H778 H 0.44829 0.82946 0.77345 0.0
H779 H 0.48127 0.81902 0.73484 0.0
H780 H 0.5331 0.85608 0.5896 0.0
H781 H 0.5012 0.82052 0.64295 0.0
H782 H 0.47408 0.97909 0.67384 0.0
H783 H 0.43961 0.94443 0.72437 0.0
H784 H 0.53311 -0.0001 0.64967 0.0
H785 H 0.55553 0.98504 0.59299 0.0
C786 C 0.14118 0.60023 0.64747 0.0
C787 C 0.1124 0.56419 0.67654 0.0
C788 C 0.06607 0.58813 0.66567 0.0
C789 C 0.09232 0.61692 0.62498 0.0
N790 N 0.15846 0.66706 0.62292 0.0
N791 N 0.04652 0.52635 0.71721 0.0
C792 C 0.13132 0.62942 0.63596 0.0
C793 C 0.0747 0.55929 0.68877 0.0
N794 N 0.17508 0.60551 0.62219 0.0
N795 N 0.03571 0.59161 0.68696 0.0
H796 H 0.04962 0.50217 0.72682 0.0
H797 H 0.01895 0.52186 0.72747 0.0
H798 H 0.03071 0.61357 0.66976 0.0
H799 H 0.01808 0.57508 0.72385 0.0
H800 H 0.19315 0.63009 0.59552 0.0
H801 H 0.18315 0.58447 0.61785 0.0
H802 H 0.18811 0.67825 0.63182 0.0
H803 H 0.15003 0.68712 0.60849 0.0
C804 C 0.46249 0.59962 0.19262 0.0
C805 C 0.44712 0.55971 0.20716 0.0
C806 C 0.49818 0.55985 0.14427 0.0
C807 C 0.50225 0.59312 0.11321 0.0
N808 N 0.49646 0.65073 0.1157 0.0
N809 N 0.45697 0.50404 0.20946 0.0
C810 C 0.48805 0.61569 0.14135 0.0
C811 C 0.46775 0.54071 0.18853 0.0
N812 N 0.45236 0.62157 0.228 0.0
N813 N 0.52363 0.54726 0.13134 0.0
H814 H 0.43525 0.4895 0.24262 0.0
H815 H 0.46942 0.48793 0.19342 0.0
H816 H 0.54565 0.56163 0.09826 0.0
H817 H 0.52549 0.5263 0.15853 0.0
H818 H 0.4653 0.65173 0.22319 0.0
H819 H 0.43462 0.60954 0.26698 0.0
H820 H 0.48316 0.66653 0.12958 0.0
H821 H 0.51626 0.6632 0.07901 0.0
C822 C 0.41814 0.93156 0.14547 0.0
C823 C 0.38687 0.90468 0.10882 0.0
C824 C 0.38767 0.85051 0.16101 0.0
C825 C 0.42498 0.87734 0.1873 0.0
N826 N 0.47399 0.94448 0.20911 0.0
N827 N 0.33061 0.84184 0.10314 0.0
C828 C 0.43902 0.91828 0.18327 0.0
C829 C 0.36746 0.86521 0.12546 0.0
N830 N 0.42741 0.96964 0.14325 0.0
N831 N 0.37292 0.81109 0.16601 0.0
H832 H 0.31653 0.85329 0.07609 0.0
H833 H 0.31321 0.81265 0.11533 0.0
H834 H 0.38458 0.7985 0.19574 0.0
H835 H 0.34913 0.79055 0.14028 0.0
H836 H 0.44696 0.99076 0.17405 0.0
H837 H 0.41197 0.97857 0.11407 0.0
H838 H 0.48733 0.97427 0.20058 0.0
H839 H 0.49122 0.93682 0.23573 0.0
C840 C 0.04536 0.493 0.13532 0.0
C841 C 0.07532 0.48848 0.10875 0.0
C842 C 0.1136 0.51634 0.20267 0.0
C843 C 0.0918 0.53505 0.21344 0.0
N844 N 0.02999 0.53204 0.20434 0.0
N845 N 0.13413 0.48577 0.12512 0.0
C846 C 0.05474 0.51959 0.18555 0.0
C847 C 0.10804 0.49618 0.14564 0.0
N848 N 0.00833 0.4707 0.11415 0.0
N849 N 0.13814 0.51704 0.24794 0.0
H850 H 0.12968 0.47005 0.08383 0.0
H851 H 0.16 0.49316 0.1487 0.0
H852 H 0.13963 0.52996 0.29108 0.0
H853 H 0.15233 0.50084 0.24536 0.0
H854 H 0.98456 0.4688 0.13789 0.0
H855 H 0.00189 0.45066 0.07799 0.0
H856 H 0.00351 0.52365 0.18242 0.0
H857 H 0.03636 0.55088 0.24217 0.0
C858 C 0.50571 0.44237 0.32385 0.0
C859 C 0.53344 0.44937 0.27829 0.0
C860 C 0.57941 0.50654 0.33816 0.0
C861 C 0.55617 0.48927 0.39271 0.0
N862 N 0.50539 0.42406 0.42875 0.0
N863 N 0.598 0.49047 0.23895 0.0
C864 C 0.52039 0.45291 0.38439 0.0
C865 C 0.57083 0.48265 0.28385 0.0
N866 N 0.46716 0.4172 0.31294 0.0
N867 N 0.60873 0.54441 0.33721 0.0
H868 H 0.59116 0.47354 0.19848 0.0
H869 H 0.62702 0.51239 0.24372 0.0
H870 H 0.61316 0.56404 0.37287 0.0
H871 H 0.62489 0.55745 0.297 0.0
H872 H 0.44644 0.40842 0.34826 0.0
H873 H 0.45624 0.40791 0.26785 0.0
H874 H 0.4805 0.39714 0.4203 0.0
H875 H 0.52146 0.42254 0.46635 0.0
C876 C 0.47204 0.04826 0.32753 0.0
C877 C 0.46449 0.07519 0.35794 0.0
C878 C 0.5133 0.12708 0.29298 0.0
C879 C 0.52948 0.10283 0.27975 0.0
N880 N 0.52077 0.03757 0.27878 0.0
N881 N 0.46999 0.13822 0.35911 0.0
C882 C 0.50717 0.0622 0.29318 0.0
C883 C 0.4816 0.1137 0.33514 0.0
N884 N 0.44619 0.00954 0.33439 0.0
N885 N 0.52864 0.16284 0.26558 0.0
H886 H 0.44595 0.12796 0.38871 0.0
H887 H 0.4844 0.16823 0.35131 0.0
H888 H 0.5514 0.17236 0.23394 0.0
H889 H 0.51662 0.1809 0.26956 0.0
H890 H 0.44762 0.98806 0.30841 0.0
H891 H 0.42121 1e-05 0.36163 0.0
H892 H 0.5072 0.00873 0.29385 0.0
H893 H 0.54693 0.0462 0.25597 0.0
C894 C 0.92546 0.45719 0.30428 0.0
C895 C 0.89277 0.43613 0.2663 0.0
C896 C 0.88084 0.3752 0.31618 0.0
C897 C 0.90629 0.3978 0.36474 0.0
N898 N 0.95055 0.46076 0.40688 0.0
N899 N 0.85285 0.37526 0.21469 0.0
C900 C 0.9299 0.43865 0.35746 0.0
C901 C 0.87448 0.39486 0.26541 0.0
N902 N 0.95078 0.4956 0.29225 0.0
N903 N 0.86071 0.33553 0.32188 0.0
H904 H 0.85257 0.3905 0.17522 0.0
H905 H 0.83954 0.34519 0.20883 0.0
H906 H 0.86615 0.32145 0.35887 0.0
H907 H 0.83881 0.31692 0.29126 0.0
H908 H 0.97666 0.51142 0.31725 0.0
H909 H 0.94781 0.51 0.25341 0.0
H910 H 0.955 0.48887 0.41073 0.0
H911 H 0.95686 0.44923 0.44634 0.0
C912 C 0.32461 0.35673 0.19889 0.0
C913 C 0.32061 0.36282 0.26346 0.0
C914 C 0.35651 0.32905 0.29157 0.0
C915 C 0.35841 0.32084 0.22718 0.0
N916 N 0.33539 0.31824 0.12186 0.0
N917 N 0.32317 0.3452 0.37059 0.0
C918 C 0.33935 0.33175 0.18169 0.0
C919 C 0.33336 0.34571 0.30953 0.0
N920 N 0.31718 0.3769 0.1538 0.0
N921 N 0.37901 0.32396 0.33529 0.0
H922 H 0.30526 0.35615 0.38464 0.0
H923 H 0.32881 0.3302 0.40562 0.0
H924 H 0.39773 0.31339 0.32495 0.0
H925 H 0.38198 0.33389 0.38118 0.0
H926 H 0.32412 0.37696 0.10683 0.0
H927 H 0.30754 0.39648 0.16353 0.0
H928 H 0.3188 0.32238 0.08783 0.0
H929 H 0.34534 0.29937 0.10834 0.0
C930 C 0.63974 0.98046 0.30466 0.0
C931 C 0.62297 0.95165 0.25728 0.0
C932 C 0.65044 0.00389 0.17783 0.0
C933 C 0.66061 0.03243 0.22519 0.0
N934 N 0.66073 0.04701 0.33507 0.0
N935 N 0.60875 0.93654 0.14727 0.0
C936 C 0.65471 0.0206 0.28914 0.0
C937 C 0.62783 0.96344 0.1933 0.0
N938 N 0.6415 0.96934 0.36466 0.0
N939 N 0.66276 0.01553 0.11797 0.0
H940 H 0.59163 0.90672 0.15579 0.0
H941 H 0.60736 0.94419 0.10097 0.0
H942 H 0.68024 0.04488 0.10591 0.0
H943 H 0.65926 -0.0038 0.08222 0.0
H944 H 0.65636 0.98908 0.40053 0.0
H945 H 0.63166 0.94028 0.37673 0.0
H946 H 0.6523 0.03902 0.38136 0.0
H947 H 0.67115 0.07654 0.32643 0.0
C948 C 0.02433 0.66484 0.19772 0.0
C949 C 0.0362 0.67193 0.26178 0.0
C950 C 0.96731 0.63655 0.293 0.0
C951 C 0.95543 0.63202 0.22893 0.0
N952 N 0.97328 0.65122 0.12172 0.0
N953 N 0.0185 0.67348 0.36875 0.0
C954 C 0.98424 0.64941 0.18185 0.0
C955 C 0.00744 0.66083 0.30878 0.0
N956 N 0.05046 0.66976 0.15207 0.0
N957 N 0.94116 0.61542 0.33878 0.0
H958 H 0.04758 0.69196 0.38131 0.0
H959 H -0.00132 0.66915 0.40404 0.0
H960 H 0.9119 0.59564 0.33018 0.0
H961 H 0.94944 0.61449 0.38489 0.0
H962 H 0.04217 0.66062 0.10606 0.0
H963 H 0.07974 0.67925 0.16072 0.0
H964 H -0.00682 0.6666 0.08639 0.0
H965 H 0.94426 0.64091 0.10898 0.0
C966 C 0.63611 0.65052 0.80911 0.0
C967 C 0.61878 0.66248 0.76215 0.0
C968 C 0.64861 0.6415 0.6817 0.0
C969 C 0.65978 0.62325 0.72828 0.0
N970 N 0.65923 0.60619 0.83755 0.0
N971 N 0.604 0.66404 0.65233 0.0
C972 C 0.65279 0.62708 0.79252 0.0
C973 C 0.62424 0.6571 0.69792 0.0
N974 N 0.63681 0.66177 0.86965 0.0
N975 N 0.66126 0.64374 0.6217 0.0
H976 H 0.58492 0.67438 0.66146 0.0
H977 H 0.60336 0.65609 0.60573 0.0
H978 H 0.67958 0.63302 0.60887 0.0
H979 H 0.65698 0.65967 0.58662 0.0
H980 H 0.6521 0.65696 0.90521 0.0
H981 H 0.62553 0.67956 0.88277 0.0
H982 H 0.65004 0.60422 0.88367 0.0
H983 H 0.67078 0.58815 0.82832 0.0
C984 C 0.33114 0.98085 0.79996 0.0
C985 C 0.32119 0.9526 0.75246 0.0
C986 C 0.33947 0.00382 0.67319 0.0
C987 C 0.35699 0.03253 0.7203 0.0
N988 N 0.37395 0.04774 0.83009 0.0
N989 N 0.32124 0.93827 0.64213 0.0
C990 C 0.35353 0.02107 0.78437 0.0
C991 C 0.32612 0.96414 0.6884 0.0
N992 N 0.31924 0.96921 0.85998 0.0
N993 N 0.33609 0.01464 0.61369 0.0
H994 H 0.31319 0.90922 0.65037 0.0
H995 H 0.32891 0.94667 0.59571 0.0
H996 H 0.34517 0.04359 0.60179 0.0
H997 H 0.32069 -0.00539 0.5784 0.0
H998 H 0.32288 0.98862 0.8957 0.0
H999 H 0.30192 0.93986 0.87216 0.0
H1000 H 0.37586 0.03977 0.87599 0.0
H1001 H 0.39185 0.07745 0.82181 0.0
C1002 C 0.96283 0.33005 0.7884 0.0
C1003 C 0.95318 0.32381 0.72347 0.0
C1004 C 0.02293 0.35991 0.69765 0.0
C1005 C 0.03259 0.36463 0.76261 0.0
N1006 N 0.01214 0.3464 0.86908 0.0
N1007 N 0.97393 0.32483 0.61768 0.0
C1008 C 0.00258 0.34699 0.80767 0.0
C1009 C 0.9833 0.33606 0.67865 0.0
N1010 N 0.9346 0.32261 0.83157 0.0
N1011 N 0.05102 0.38037 0.654 0.0
H1012 H 0.94519 0.30722 0.60261 0.0
H1013 H -0.00541 0.32964 0.58366 0.0
H1014 H 0.08029 0.39867 0.66517 0.0
H1015 H 0.04481 0.38185 0.60694 0.0
H1016 H 0.94072 0.33116 0.87821 0.0
H1017 H 0.90523 0.31087 0.82024 0.0
H1018 H -0.00835 0.33079 0.90352 0.0
H1019 H 0.04096 0.35838 0.88433 0.0
C1020 C 0.41082 0.18443 0.9606 0.0
C1021 C 0.44855 0.20218 0.93307 0.0
C1022 C 0.47013 0.25901 0.00034 0.0
C1023 C 0.43271 0.24172 0.02832 0.0
N1024 N 0.36926 0.18579 0.04331 0.0
N1025 N 0.51791 0.24814 0.9514 0.0
C1026 C 0.40352 0.2036 0.01099 0.0
C1027 C 0.47941 0.23677 0.96023 0.0
N1028 N 0.38234 0.14903 0.93911 0.0
N1029 N 0.49724 0.29722 0.01071 0.0
H1030 H 0.52832 0.23171 0.92995 0.0
H1031 H 0.5404 0.27132 0.97568 0.0
H1032 H 0.49434 0.31448 0.04394 0.0
H1033 H 0.52191 0.31258 0.98291 0.0
H1034 H 0.3531 0.13642 0.95116 0.0
H1035 H 0.3882 0.13208 0.9086 0.0
H1036 H 0.34763 0.1569 0.03682 0.0
H1037 H 0.36351 0.19947 0.08004 0.0
C1038 C 0.73834 0.20816 0.0061 0.0
C1039 C 0.74047 0.17478 0.02313 0.0
C1040 C 0.78844 0.19109 0.93836 0.0
C1041 C 0.78682 0.22583 0.92616 0.0
N1042 N 0.77992 0.27542 0.98136 0.0
N1043 N 0.77352 0.1378 0.01184 0.0
C1044 C 0.7687 0.23724 0.9714 0.0
C1045 C 0.76757 0.16719 -0.00873 0.0
N1046 N 0.70526 0.21012 0.01397 0.0
N1047 N 0.81021 0.18144 0.90123 0.0
H1048 H 0.75911 0.12073 0.05078 0.0
H1049 H 0.7948 0.13248 -0.00623 0.0
H1050 H 0.83064 0.20111 0.86979 0.0
H1051 H 0.80844 0.15425 0.90256 0.0
H1052 H 0.70225 0.23238 -0.00715 0.0
H1053 H 0.67972 0.18755 0.03305 0.0
H1054 H 0.76667 0.28363 0.01527 0.0
H1055 H 0.80549 0.29813 0.96237 0.0
C1056 C 0.7898 0.58397 0.00872 0.0
C1057 C 0.7955 0.55438 0.03616 0.0
C1058 C 0.74983 0.50658 0.96005 0.0
C1059 C 0.74574 0.53676 0.93056 0.0
N1060 N 0.75347 0.60114 0.93528 0.0
N1061 N 0.78117 0.48693 0.03755 0.0
C1062 C 0.76346 0.57469 0.95723 0.0
C1063 C 0.77494 0.51538 0.01254 0.0
N1064 N 0.81067 0.62129 0.03088 0.0
N1065 N 0.72962 0.46907 0.9381 0.0
H1066 H 0.79673 0.48989 0.07804 0.0
H1067 H 0.7717 0.45966 0.01787 0.0
H1068 H 0.71713 0.46147 0.89386 0.0
H1069 H 0.72368 0.4446 0.96469 0.0
H1070 H 0.81202 0.64543 0.00863 0.0
H1071 H 0.82822 0.62842 0.07083 0.0
H1072 H 0.76224 0.62803 0.95606 0.0
H1073 H 0.73342 0.59488 0.89904 0.0
C1074 C 0.22558 0.38634 0.51008 0.0
C1075 C 0.22915 0.40695 0.45398 0.0
C1076 C 0.18489 0.42673 0.49858 0.0
C1077 C 0.19486 0.41946 0.55964 0.0
N1078 N 0.22842 0.39279 0.6216 0.0
N1079 N 0.19879 0.43281 0.38696 0.0
C1080 C 0.2153 0.39839 0.56531 0.0
C1081 C 0.20449 0.42294 0.44554 0.0
N1082 N 0.23282 0.35601 0.5106 0.0
N1083 N 0.156 0.43587 0.49164 0.0
H1084 H 0.20701 0.42307 0.34783 0.0
H1085 H 0.18513 0.44899 0.37743 0.0
H1086 H 0.13918 0.4356 0.52926 0.0
H1087 H 0.14608 0.43989 0.44855 0.0
H1088 H 0.22843 0.3387 0.55013 0.0
H1089 H 0.23836 0.34561 0.46931 0.0
H1090 H 0.24631 0.38043 0.62501 0.0
H1091 H 0.22575 0.40407 0.66385 0.0
C1092 C 0.55441 0.74766 0.48957 0.0
C1093 C 0.56125 0.76482 0.55043 0.0
C1094 C 0.59794 0.82861 0.50086 0.0
C1095 C 0.57832 0.81264 0.44397 0.0
N1096 N 0.55309 0.75717 0.37662 0.0
N1097 N 0.58721 0.82512 0.61115 0.0
C1098 C 0.56108 0.7719 0.43571 0.0
C1099 C 0.58335 0.80629 0.55581 0.0
N1100 N 0.54269 0.70893 0.48371 0.0
N1101 N 0.62924 0.86545 0.50252 0.0
H1102 H 0.5724 0.81144 0.6519 0.0
H1103 H 0.60107 0.85548 0.61407 0.0
H1104 H 0.64107 0.88144 0.46148 0.0
H1105 H 0.64564 0.87753 0.5431 0.0
H1106 H 0.5378 0.69458 0.44112 0.0
H1107 H 0.54094 0.69162 0.52199 0.0
H1108 H 0.53778 0.72756 0.36605 0.0
H1109 H 0.56347 0.77565 0.33787 0.0
C1110 C 0.21696 0.81182 0.52025 0.0
C1111 C 0.25147 0.80967 0.52753 0.0
C1112 C 0.23301 0.76402 0.44173 0.0
C1113 C 0.19569 0.76151 0.43891 0.0
N1114 N 0.15883 0.79399 0.45755 0.0
N1115 N 0.30096 0.80687 0.46648 0.0
C1116 C 0.18988 0.78927 0.47228 0.0
C1117 C 0.26258 0.79384 0.47815 0.0
N1118 N 0.21046 0.83541 0.55872 0.0
N1119 N 0.23989 0.73639 0.41614 0.0
H1120 H 0.32307 0.83107 0.48963 0.0
H1121 H 0.31018 0.79725 0.42829 0.0
H1122 H 0.21903 0.71099 0.39455 0.0
H1123 H 0.26616 0.73665 0.42292 0.0
H1124 H 0.184 0.83498 0.56142 0.0
H1125 H 0.23237 0.85597 0.58766 0.0
H1126 H 0.15391 0.81512 0.47748 0.0
H1127 H 0.13979 0.77882 0.42081 0.0
C1128 C 0.60003 0.76816 0.00064 0.0
C1129 C 0.57622 0.75972 0.94634 0.0
C1130 C 0.55176 0.80144 0.98524 0.0
C1131 C 0.5652 0.79872 0.04596 0.0
N1132 N 0.62279 0.80521 0.09715 0.0
N1133 N 0.55535 0.79168 0.87357 0.0
C1134 C 0.59594 0.78998 0.04989 0.0
C1135 C 0.55966 0.78351 0.93402 0.0
N1136 N 0.62696 0.75621 0.00398 0.0
N1137 N 0.53326 0.82244 0.97648 0.0
H1138 H 0.56672 0.78291 0.83729 0.0
H1139 H 0.54541 0.81057 0.86012 0.0
H1140 H 0.53239 0.84042 0.0113 0.0
H1141 H 0.51987 0.82291 0.93464 0.0
H1142 H 0.64142 0.75634 0.04494 0.0
H1143 H 0.63509 0.74657 0.96448 0.0
H1144 H 0.64657 0.80089 0.10166 0.0
H1145 H 0.62463 0.82697 0.12667 0.0
C1146 C 0.20435 0.79276 0.95627 0.0
C1147 C 0.24276 0.80069 0.9436 0.0
C1148 C 0.24007 0.75962 0.03214 0.0
C1149 C 0.20242 0.7533 0.04705 0.0
N1150 N 0.1482 0.7632 0.02599 0.0
N1151 N 0.29816 0.79291 0.96988 0.0
C1152 C 0.1843 0.76965 0.00972 0.0
C1153 C 0.2606 0.78399 0.98114 0.0
N1154 N 0.18729 0.80718 0.91659 0.0
N1155 N 0.25646 0.74223 0.06702 0.0
H1156 H 0.31282 0.80586 0.92887 0.0
H1157 H 0.31544 0.78796 0.0013 0.0
H1158 H 0.24635 0.72973 0.11081 0.0
H1159 H 0.27977 0.73916 0.05214 0.0
H1160 H 0.15876 0.80148 0.92037 0.0
H1161 H 0.20146 0.82362 0.877 0.0
H1162 H 0.13384 0.77597 0.00386 0.0
H1163 H 0.13268 0.74548 0.0637 0.0
C1164 C 0.15981 0.39219 0.00911 0.0
C1165 C 0.17396 0.41598 0.95457 0.0
C1166 C 0.24098 0.44119 -0.00773 0.0
C1167 C 0.22625 0.42551 0.05259 0.0
N1168 N 0.17602 0.36648 0.10079 0.0
N1169 N 0.22609 0.43711 0.88141 0.0
C1170 C 0.18677 0.39491 0.05627 0.0
C1171 C 0.21425 0.43322 0.94186 0.0
N1172 N 0.121 0.36596 0.01466 0.0
N1173 N 0.2802 0.4618 0.98223 0.0
H1174 H 0.20571 0.42431 0.84556 0.0
H1175 H 0.25477 0.44696 0.86806 0.0
H1176 H 0.30027 0.46163 0.01396 0.0
H1177 H 0.29256 0.47807 0.94181 0.0
H1178 H 0.10796 0.35245 0.0567 0.0
H1179 H 0.10206 0.35728 0.97633 0.0
H1180 H 0.14816 0.34234 0.10411 0.0
H1181 H 0.1964 0.36367 0.12816 0.0
C1182 C 0.74124 0.50848 0.45164 0.0
C1183 C 0.7803 0.53884 0.44111 0.0
C1184 C 0.77356 0.57725 0.52541 0.0
C1185 C 0.73337 0.5493 0.52903 0.0
N1186 N 0.67733 0.49136 0.48839 0.0
N1187 N 0.834 0.60229 0.46702 0.0
C1188 C 0.71687 0.51575 0.49036 0.0
C1189 C 0.79665 0.57332 0.47797 0.0
N1190 N 0.72681 0.47237 0.42516 0.0
N1191 N 0.78943 0.60721 0.56746 0.0
H1192 H 0.85225 0.59905 0.43556 0.0
H1193 H 0.84647 0.62986 0.48722 0.0
H1194 H 0.77282 0.61073 0.60184 0.0
H1195 H 0.81916 0.62687 0.57116 0.0
H1196 H 0.69963 0.44869 0.43584 0.0
H1197 H 0.74225 0.46371 0.39688 0.0
H1198 H 0.66311 0.47068 0.45342 0.0
H1199 H 0.65802 0.49366 0.51829 0.0
C1200 C 0.47781 0.24523 0.47204 0.0
C1201 C 0.44658 0.24597 0.44021 0.0
C1202 C 0.40051 0.19343 0.5095 0.0
C1203 C 0.43128 0.18726 0.5294 0.0
N1204 N 0.49888 0.20354 0.51809 0.0
N1205 N 0.37826 0.22559 0.43598 0.0
C1206 C 0.46981 0.21205 0.50752 0.0
C1207 C 0.40779 0.22155 0.4615 0.0
N1208 N 0.51495 0.27631 0.47101 0.0
N1209 N 0.36474 0.17267 0.53681 0.0
H1210 H 0.38355 0.24889 0.40656 0.0
H1211 H 0.34884 0.20605 0.44348 0.0
H1212 H 0.35898 0.15198 0.57183 0.0
H1213 H 0.34166 0.17762 0.52812 0.0
H1214 H 0.5375 0.27708 0.49769 0.0
H1215 H 0.5222 0.30372 0.45378 0.0
H1216 H 0.52601 0.2187 0.49647 0.0
H1217 H 0.49515 0.17924 0.54273 0.0
C1218 C 0.78385 0.19428 0.44079 0.0
C1219 C 0.74747 0.19324 0.43527 0.0
C1220 C 0.76512 0.23929 0.52092 0.0
C1221 C 0.80277 0.24292 0.5251 0.0
N1222 N 0.84275 0.21426 0.50279 0.0
N1223 N 0.69761 0.194 0.49886 0.0
C1224 C 0.81058 0.21732 0.48921 0.0
C1225 C 0.73602 0.20868 0.48508 0.0
N1226 N 0.79233 0.17259 0.40122 0.0
N1227 N 0.75743 0.2666 0.54547 0.0
H1228 H 0.67577 0.16861 0.47791 0.0
H1229 H 0.68848 0.20363 0.53716 0.0
H1230 H 0.77841 0.2928 0.56511 0.0
H1231 H 0.73077 0.26546 0.5383 0.0
H1232 H 0.82009 0.17616 0.39639 0.0
H1233 H 0.77096 0.15022 0.37403 0.0
H1234 H 0.84889 0.19428 0.48164 0.0
H1235 H 0.86157 0.22935 0.53978 0.0
loop_
_geom_bond_atom_site_label_1
_geom_bond_atom_site_label_2
_geom_bond_distance
_geom_bond_site_symmetry_2
_ccdc_geom_bond_type
C0 O27 1.312 . S
C0 O28 1.208 1_554 S
C1 O22 1.331 . S
C1 O25 1.244 . S
C2 O24 1.264 . S
C2 O26 1.273 . S
Mg3 O5 1.936 . S
Mg3 O12 2.081 . S
Mg3 O14 2.023 . S
Mg3 O18 2.031 . S
Mg3 O27 2.291 . S
Mg4 O5 1.963 . S
Mg4 O15 1.942 . S
Mg4 O16 1.955 . S
Mg4 O23 1.986 . S
O5 Mg3 1.936 . S
O5 Mg4 1.963 . S
O5 Mg6 1.915 . S
Mg6 O5 1.915 . S
Mg6 O7 1.915 . S
Mg6 O11 2.013 . S
Mg6 O17 2.114 . S
Mg6 O21 2.013 . S
Mg6 O27 2.114 . S
O7 Mg6 1.915 . S
O7 Mg8 1.936 . S
O7 Mg9 1.963 . S
Mg8 O7 1.936 . S
Mg8 O17 2.291 . S
Mg8 O22 2.081 1_554 S
Mg8 O24 2.023 . S
Mg8 O28 2.031 1_554 S
Mg9 O7 1.963 . S
Mg9 O13 1.986 . S
Mg9 O25 1.942 1_554 S
Mg9 O26 1.955 . S
C10 O21 1.191 . S
C10 O23 1.307 . S
O11 Mg6 2.013 . S
O11 C30 1.191 . S
O12 Mg3 2.081 . S
O12 C20 1.331 . S
O13 Mg9 1.986 . S
O13 C30 1.307 . S
O14 Mg3 2.023 . S
O14 C29 1.264 . S
O15 Mg4 1.942 . S
O15 C20 1.244 . S
O16 Mg4 1.955 . S
O16 C29 1.273 . S
O17 Mg6 2.114 . S
O17 Mg8 2.291 . S
O17 C19 1.312 . S
O18 Mg3 2.031 . S
O18 C19 1.208 . S
C19 O17 1.312 . S
C19 O18 1.208 . S
C20 O12 1.331 . S
C20 O15 1.244 . S
O21 Mg6 2.013 . S
O21 C10 1.191 . S
O22 C1 1.331 . S
O22 Mg8 2.081 1_556 S
O23 Mg4 1.986 . S
O23 C10 1.307 . S
O24 C2 1.264 . S
O24 Mg8 2.023 . S
O25 C1 1.244 . S
O25 Mg9 1.942 1_556 S
O26 C2 1.273 . S
O26 Mg9 1.955 . S
O27 C0 1.312 . S
O27 Mg3 2.291 . S
O27 Mg6 2.114 . S
O28 C0 1.208 1_556 S
O28 Mg8 2.031 1_556 S
C29 O14 1.264 . S
C29 O16 1.273 . S
C30 O11 1.191 . S
C30 O13 1.307 . S
C31 O58 1.312 . S
C31 O59 1.208 1_554 S
C32 O53 1.331 . S
C32 O56 1.244 . S
C33 O55 1.264 . S
C33 O57 1.273 . S
Mg34 O36 1.936 . S
Mg34 O43 2.081 . S
Mg34 O45 2.023 . S
Mg34 O49 2.031 . S
Mg34 O58 2.291 . S
Mg35 O36 1.963 . S
Mg35 O46 1.942 . S
Mg35 O47 1.955 . S
Mg35 O54 1.986 . S
O36 Mg34 1.936 . S
O36 Mg35 1.963 . S
O36 Mg37 1.915 . S
Mg37 O36 1.915 . S
Mg37 O38 1.915 . S
Mg37 O42 2.013 . S
Mg37 O48 2.114 . S
Mg37 O52 2.013 . S
Mg37 O58 2.114 . S
O38 Mg37 1.915 . S
O38 Mg39 1.936 . S
O38 Mg40 1.963 . S
Mg39 O38 1.936 . S
Mg39 O48 2.291 . S
Mg39 O53 2.081 1_554 S
Mg39 O55 2.023 . S
Mg39 O59 2.031 1_554 S
Mg40 O38 1.963 . S
Mg40 O44 1.986 . S
Mg40 O56 1.942 1_554 S
Mg40 O57 1.955 . S
C41 O52 1.191 . S
C41 O54 1.307 . S
O42 Mg37 2.013 . S
O42 C61 1.191 . S
O43 Mg34 2.081 . S
O43 C51 1.331 . S
O44 Mg40 1.986 . S
O44 C61 1.307 . S
O45 Mg34 2.023 . S
O45 C60 1.264 . S
O46 Mg35 1.942 . S
O46 C51 1.244 . S
O47 Mg35 1.955 . S
O47 C60 1.273 . S
O48 Mg37 2.114 . S
O48 Mg39 2.291 . S
O48 C50 1.312 . S
O49 Mg34 2.031 . S
O49 C50 1.208 . S
C50 O48 1.312 . S
C50 O49 1.208 . S
C51 O43 1.331 . S
C51 O46 1.244 . S
O52 Mg37 2.013 . S
O52 C41 1.191 . S
O53 C32 1.331 . S
O53 Mg39 2.081 1_556 S
O54 Mg35 1.986 . S
O54 C41 1.307 . S
O55 C33 1.264 . S
O55 Mg39 2.023 . S
O56 C32 1.244 . S
O56 Mg40 1.942 1_556 S
O57 C33 1.273 . S
O57 Mg40 1.955 . S
O58 C31 1.312 . S
O58 Mg34 2.291 . S
O58 Mg37 2.114 . S
O59 C31 1.208 1_556 S
O59 Mg39 2.031 1_556 S
C60 O45 1.264 . S
C60 O47 1.273 . S
C61 O42 1.191 . S
C61 O44 1.307 . S
C62 O89 1.312 . S
C62 O90 1.208 . S
C63 O84 1.331 . S
C63 O87 1.244 . S
C64 O86 1.264 . S
C64 O88 1.273 . S
Mg65 O67 1.936 . S
Mg65 O74 2.081 1_554 S
Mg65 O76 2.023 . S
Mg65 O80 2.031 1_554 S
Mg65 O89 2.291 . S
Mg66 O67 1.963 . S
Mg66 O77 1.942 1_554 S
Mg66 O78 1.955 . S
Mg66 O85 1.986 . S
O67 Mg65 1.936 . S
O67 Mg66 1.963 . S
O67 Mg68 1.915 . S
Mg68 O67 1.915 . S
Mg68 O69 1.915 . S
Mg68 O73 2.013 . S
Mg68 O79 2.114 . S
Mg68 O83 2.013 . S
Mg68 O89 2.114 . S
O69 Mg68 1.915 . S
O69 Mg70 1.936 . S
O69 Mg71 1.963 . S
Mg70 O69 1.936 . S
Mg70 O79 2.291 . S
Mg70 O84 2.081 . S
Mg70 O86 2.023 . S
Mg70 O90 2.031 . S
Mg71 O69 1.963 . S
Mg71 O75 1.986 . S
Mg71 O87 1.942 . S
Mg71 O88 1.955 . S
C72 O83 1.191 . S
C72 O85 1.307 . S
O73 Mg68 2.013 . S
O73 C92 1.191 . S
O74 Mg65 2.081 1_556 S
O74 C82 1.331 . S
O75 Mg71 1.986 . S
O75 C92 1.307 . S
O76 Mg65 2.023 . S
O76 C91 1.264 . S
O77 Mg66 1.942 1_556 S
O77 C82 1.244 . S
O78 Mg66 1.955 . S
O78 C91 1.273 . S
O79 Mg68 2.114 . S
O79 Mg70 2.291 . S
O79 C81 1.312 . S
O80 Mg65 2.031 1_556 S
O80 C81 1.208 1_556 S
C81 O79 1.312 . S
C81 O80 1.208 1_554 S
C82 O74 1.331 . S
C82 O77 1.244 . S
O83 Mg68 2.013 . S
O83 C72 1.191 . S
O84 C63 1.331 . S
O84 Mg70 2.081 . S
O85 Mg66 1.986 . S
O85 C72 1.307 . S
O86 C64 1.264 . S
O86 Mg70 2.023 . S
O87 C63 1.244 . S
O87 Mg71 1.942 . S
O88 C64 1.273 . S
O88 Mg71 1.955 . S
O89 C62 1.312 . S
O89 Mg65 2.291 . S
O89 Mg68 2.114 . S
O90 C62 1.208 . S
O90 Mg70 2.031 . S
C91 O76 1.264 . S
C91 O78 1.273 . S
C92 O73 1.191 . S
C92 O75 1.307 . S
C93 O120 1.312 . S
C93 O121 1.208 . S
C94 O115 1.331 . S
C94 O118 1.244 . S
C95 O117 1.264 . S
C95 O119 1.273 . S
Mg96 O98 1.936 . S
Mg96 O105 2.081 . S
Mg96 O107 2.023 . S
Mg96 O111 2.031 . S
Mg96 O120 2.291 . S
Mg97 O98 1.963 . S
Mg97 O108 1.942 . S
Mg97 O109 1.955 . S
Mg97 O116 1.986 . S
O98 Mg96 1.936 . S
O98 Mg97 1.963 . S
O98 Mg99 1.915 . S
Mg99 O98 1.915 . S
Mg99 O100 1.915 . S
Mg99 O104 2.013 . S
Mg99 O110 2.114 . S
Mg99 O114 2.013 . S
Mg99 O120 2.114 . S
O100 Mg99 1.915 . S
O100 Mg101 1.936 . S
O100 Mg102 1.963 . S
Mg101 O100 1.936 . S
Mg101 O110 2.291 . S
Mg101 O115 2.081 . S
Mg101 O117 2.023 . S
Mg101 O121 2.031 . S
Mg102 O100 1.963 . S
Mg102 O106 1.986 . S
Mg102 O118 1.942 . S
Mg102 O119 1.955 . S
C103 O114 1.191 . S
C103 O116 1.307 . S
O104 Mg99 2.013 . S
O104 C123 1.191 . S
O105 Mg96 2.081 . S
O105 C113 1.331 . S
O106 Mg102 1.986 . S
O106 C123 1.307 . S
O107 Mg96 2.023 . S
O107 C122 1.264 . S
O108 Mg97 1.942 . S
O108 C113 1.244 . S
O109 Mg97 1.955 . S
O109 C122 1.273 . S
O110 Mg99 2.114 . S
O110 Mg101 2.291 . S
O110 C112 1.312 . S
O111 Mg96 2.031 . S
O111 C112 1.208 . S
C112 O110 1.312 . S
C112 O111 1.208 . S
C113 O105 1.331 . S
C113 O108 1.244 . S
O114 Mg99 2.013 . S
O114 C103 1.191 . S
O115 C94 1.331 . S
O115 Mg101 2.081 . S
O116 Mg97 1.986 . S
O116 C103 1.307 . S
O117 C95 1.264 . S
O117 Mg101 2.023 . S
O118 C94 1.244 . S
O118 Mg102 1.942 . S
O119 C95 1.273 . S
O119 Mg102 1.955 . S
O120 C93 1.312 . S
O120 Mg96 2.291 . S
O120 Mg99 2.114 . S
O121 C93 1.208 . S
O121 Mg101 2.031 . S
C122 O107 1.264 . S
C122 O109 1.273 . S
C123 O104 1.191 . S
C123 O106 1.307 . S
C124 O151 1.312 . S
C124 O152 1.208 . S
C125 O146 1.331 . S
C125 O149 1.244 . S
C126 O148 1.264 . S
C126 O150 1.273 . S
Mg127 O129 1.936 . S
Mg127 O136 2.081 . S
Mg127 O138 2.023 . S
Mg127 O142 2.031 . S
Mg127 O151 2.291 . S
Mg128 O129 1.963 . S
Mg128 O139 1.942 . S
Mg128 O140 1.955 . S
Mg128 O147 1.986 . S
O129 Mg127 1.936 . S
O129 Mg128 1.963 . S
O129 Mg130 1.915 . S
Mg130 O129 1.915 . S
Mg130 O131 1.915 . S
Mg130 O135 2.013 . S
Mg130 O141 2.114 . S
Mg130 O145 2.013 . S
Mg130 O151 2.114 . S
O131 Mg130 1.915 . S
O131 Mg132 1.936 . S
O131 Mg133 1.963 . S
Mg132 O131 1.936 . S
Mg132 O141 2.291 . S
Mg132 O146 2.081 . S
Mg132 O148 2.023 . S
Mg132 O152 2.031 . S
Mg133 O131 1.963 . S
Mg133 O137 1.986 . S
Mg133 O149 1.942 . S
Mg133 O150 1.955 . S
C134 O145 1.191 . S
C134 O147 1.307 . S
O135 Mg130 2.013 . S
O135 C154 1.191 . S
O136 Mg127 2.081 . S
O136 C144 1.331 . S
O137 Mg133 1.986 . S
O137 C154 1.307 . S
O138 Mg127 2.023 . S
O138 C153 1.264 . S
O139 Mg128 1.942 . S
O139 C144 1.244 . S
O140 Mg128 1.955 . S
O140 C153 1.273 . S
O141 Mg130 2.114 . S
O141 Mg132 2.291 . S
O141 C143 1.312 . S
O142 Mg127 2.031 . S
O142 C143 1.208 . S
C143 O141 1.312 . S
C143 O142 1.208 . S
C144 O136 1.331 . S
C144 O139 1.244 . S
O145 Mg130 2.013 . S
O145 C134 1.191 . S
O146 C125 1.331 . S
O146 Mg132 2.081 . S
O147 Mg128 1.986 . S
O147 C134 1.307 . S
O148 C126 1.264 . S
O148 Mg132 2.023 . S
O149 C125 1.244 . S
O149 Mg133 1.942 . S
O150 C126 1.273 . S
O150 Mg133 1.955 . S
O151 C124 1.312 . S
O151 Mg127 2.291 . S
O151 Mg130 2.114 . S
O152 C124 1.208 . S
O152 Mg132 2.031 . S
C153 O138 1.264 . S
C153 O140 1.273 . S
C154 O135 1.191 . S
C154 O137 1.307 . S
C155 O182 1.312 . S
C155 O183 1.208 . S
C156 O177 1.331 . S
C156 O180 1.244 . S
C157 O179 1.264 . S
C157 O181 1.273 . S
Mg158 O160 1.936 . S
Mg158 O167 2.081 . S
Mg158 O169 2.023 . S
Mg158 O173 2.031 . S
Mg158 O182 2.291 . S
Mg159 O160 1.963 . S
Mg159 O170 1.942 . S
Mg159 O171 1.955 . S
Mg159 O178 1.986 . S
O160 Mg158 1.936 . S
O160 Mg159 1.963 . S
O160 Mg161 1.915 . S
Mg161 O160 1.915 . S
Mg161 O162 1.915 . S
Mg161 O166 2.013 . S
Mg161 O172 2.114 . S
Mg161 O176 2.013 . S
Mg161 O182 2.114 . S
O162 Mg161 1.915 . S
O162 Mg163 1.936 . S
O162 Mg164 1.963 . S
Mg163 O162 1.936 . S
Mg163 O172 2.291 . S
Mg163 O177 2.081 . S
Mg163 O179 2.023 . S
Mg163 O183 2.031 . S
Mg164 O162 1.963 . S
Mg164 O168 1.986 . S
Mg164 O180 1.942 . S
Mg164 O181 1.955 . S
C165 O176 1.191 . S
C165 O178 1.307 . S
O166 Mg161 2.013 . S
O166 C185 1.191 . S
O167 Mg158 2.081 . S
O167 C175 1.331 . S
O168 Mg164 1.986 . S
O168 C185 1.307 . S
O169 Mg158 2.023 . S
O169 C184 1.264 . S
O170 Mg159 1.942 . S
O170 C175 1.244 . S
O171 Mg159 1.955 . S
O171 C184 1.273 . S
O172 Mg161 2.114 . S
O172 Mg163 2.291 . S
O172 C174 1.312 . S
O173 Mg158 2.031 . S
O173 C174 1.208 . S
C174 O172 1.312 . S
C174 O173 1.208 . S
C175 O167 1.331 . S
C175 O170 1.244 . S
O176 Mg161 2.013 . S
O176 C165 1.191 . S
O177 C156 1.331 . S
O177 Mg163 2.081 . S
O178 Mg159 1.986 . S
O178 C165 1.307 . S
O179 C157 1.264 . S
O179 Mg163 2.023 . S
O180 C156 1.244 . S
O180 Mg164 1.942 . S
O181 C157 1.273 . S
O181 Mg164 1.955 . S
O182 C155 1.312 . S
O182 Mg158 2.291 . S
O182 Mg161 2.114 . S
O183 C155 1.208 . S
O183 Mg163 2.031 . S
C184 O169 1.264 . S
C184 O171 1.273 . S
C185 O166 1.191 . S
C185 O168 1.307 . S
C186 O213 1.312 . S
C186 O214 1.208 1_556 S
C187 O208 1.331 . S
C187 O211 1.244 . S
C188 O210 1.264 . S
C188 O212 1.273 . S
Mg189 O191 1.936 . S
Mg189 O198 2.081 . S
Mg189 O200 2.023 . S
Mg189 O204 2.031 . S
Mg189 O213 2.291 . S
Mg190 O191 1.963 . S
Mg190 O201 1.942 . S
Mg190 O202 1.955 . S
Mg190 O209 1.986 . S
O191 Mg189 1.936 . S
O191 Mg190 1.963 . S
O191 Mg192 1.915 . S
Mg192 O191 1.915 . S
Mg192 O193 1.915 . S
Mg192 O197 2.013 . S
Mg192 O203 2.114 . S
Mg192 O207 2.013 . S
Mg192 O213 2.114 . S
O193 Mg192 1.915 . S
O193 Mg194 1.936 . S
O193 Mg195 1.963 . S
Mg194 O193 1.936 . S
Mg194 O203 2.291 . S
Mg194 O208 2.081 1_556 S
Mg194 O210 2.023 . S
Mg194 O214 2.031 1_556 S
Mg195 O193 1.963 . S
Mg195 O199 1.986 . S
Mg195 O211 1.942 1_556 S
Mg195 O212 1.955 . S
C196 O207 1.191 . S
C196 O209 1.307 . S
O197 Mg192 2.013 . S
O197 C216 1.191 . S
O198 Mg189 2.081 . S
O198 C206 1.331 . S
O199 Mg195 1.986 . S
O199 C216 1.307 . S
O200 Mg189 2.023 . S
O200 C215 1.264 . S
O201 Mg190 1.942 . S
O201 C206 1.244 . S
O202 Mg190 1.955 . S
O202 C215 1.273 . S
O203 Mg192 2.114 . S
O203 Mg194 2.291 . S
O203 C205 1.312 . S
O204 Mg189 2.031 . S
O204 C205 1.208 . S
C205 O203 1.312 . S
C205 O204 1.208 . S
C206 O198 1.331 . S
C206 O201 1.244 . S
O207 Mg192 2.013 . S
O207 C196 1.191 . S
O208 C187 1.331 . S
O208 Mg194 2.081 1_554 S
O209 Mg190 1.986 . S
O209 C196 1.307 . S
O210 C188 1.264 . S
O210 Mg194 2.023 . S
O211 C187 1.244 . S
O211 Mg195 1.942 1_554 S
O212 C188 1.273 . S
O212 Mg195 1.955 . S
O213 C186 1.312 . S
O213 Mg189 2.291 . S
O213 Mg192 2.114 . S
O214 C186 1.208 1_554 S
O214 Mg194 2.031 1_554 S
C215 O200 1.264 . S
C215 O202 1.273 . S
C216 O197 1.191 . S
C216 O199 1.307 . S
C217 O244 1.312 . S
C217 O245 1.208 . S
C218 O239 1.331 . S
C218 O242 1.244 . S
C219 O241 1.264 . S
C219 O243 1.273 . S
Mg220 O222 1.936 . S
Mg220 O229 2.081 1_556 S
Mg220 O231 2.023 . S
Mg220 O235 2.031 1_556 S
Mg220 O244 2.291 . S
Mg221 O222 1.963 . S
Mg221 O232 1.942 1_556 S
Mg221 O233 1.955 . S
Mg221 O240 1.986 . S
O222 Mg220 1.936 . S
O222 Mg221 1.963 . S
O222 Mg223 1.915 . S
Mg223 O222 1.915 . S
Mg223 O224 1.915 . S
Mg223 O228 2.013 . S
Mg223 O234 2.114 . S
Mg223 O238 2.013 . S
Mg223 O244 2.114 . S
O224 Mg223 1.915 . S
O224 Mg225 1.936 . S
O224 Mg226 1.963 . S
Mg225 O224 1.936 . S
Mg225 O234 2.291 . S
Mg225 O239 2.081 . S
Mg225 O241 2.023 . S
Mg225 O245 2.031 . S
Mg226 O224 1.963 . S
Mg226 O230 1.986 . S
Mg226 O242 1.942 . S
Mg226 O243 1.955 . S
C227 O238 1.191 . S
C227 O240 1.307 . S
O228 Mg223 2.013 . S
O228 C247 1.191 . S
O229 Mg220 2.081 1_554 S
O229 C237 1.331 . S
O230 Mg226 1.986 . S
O230 C247 1.307 . S
O231 Mg220 2.023 . S
O231 C246 1.264 . S
O232 Mg221 1.942 1_554 S
O232 C237 1.244 . S
O233 Mg221 1.955 . S
O233 C246 1.273 . S
O234 Mg223 2.114 . S
O234 Mg225 2.291 . S
O234 C236 1.312 . S
O235 Mg220 2.031 1_554 S
O235 C236 1.208 1_554 S
C236 O234 1.312 . S
C236 O235 1.208 1_556 S
C237 O229 1.331 . S
C237 O232 1.244 . S
O238 Mg223 2.013 . S
O238 C227 1.191 . S
O239 C218 1.331 . S
O239 Mg225 2.081 . S
O240 Mg221 1.986 . S
O240 C227 1.307 . S
O241 C219 1.264 . S
O241 Mg225 2.023 . S
O242 C218 1.244 . S
O242 Mg226 1.942 . S
O243 C219 1.273 . S
O243 Mg226 1.955 . S
O244 C217 1.312 . S
O244 Mg220 2.291 . S
O244 Mg223 2.114 . S
O245 C217 1.208 . S
O245 Mg225 2.031 . S
C246 O231 1.264 . S
C246 O233 1.273 . S
C247 O228 1.191 . S
C247 O230 1.307 . S
C248 O275 1.312 . S
C248 O276 1.208 1_556 S
C249 O270 1.331 . S
C249 O273 1.244 . S
C250 O272 1.264 . S
C250 O274 1.273 . S
Mg251 O253 1.936 . S
Mg251 O260 2.081 . S
Mg251 O262 2.023 . S
Mg251 O266 2.031 . S
Mg251 O275 2.291 . S
Mg252 O253 1.963 . S
Mg252 O263 1.942 . S
Mg252 O264 1.955 . S
Mg252 O271 1.986 . S
O253 Mg251 1.936 . S
O253 Mg252 1.963 . S
O253 Mg254 1.915 . S
Mg254 O253 1.915 . S
Mg254 O255 1.915 . S
Mg254 O259 2.013 . S
Mg254 O265 2.114 . S
Mg254 O269 2.013 . S
Mg254 O275 2.114 . S
O255 Mg254 1.915 . S
O255 Mg256 1.936 . S
O255 Mg257 1.963 . S
Mg256 O255 1.936 . S
Mg256 O265 2.291 . S
Mg256 O270 2.081 1_556 S
Mg256 O272 2.023 . S
Mg256 O276 2.031 1_556 S
Mg257 O255 1.963 . S
Mg257 O261 1.986 . S
Mg257 O273 1.942 1_556 S
Mg257 O274 1.955 . S
C258 O269 1.191 . S
C258 O271 1.307 . S
O259 Mg254 2.013 . S
O259 C278 1.191 . S
O260 Mg251 2.081 . S
O260 C268 1.331 . S
O261 Mg257 1.986 . S
O261 C278 1.307 . S
O262 Mg251 2.023 . S
O262 C277 1.264 . S
O263 Mg252 1.942 . S
O263 C268 1.244 . S
O264 Mg252 1.955 . S
O264 C277 1.273 . S
O265 Mg254 2.114 . S
O265 Mg256 2.291 . S
O265 C267 1.312 . S
O266 Mg251 2.031 . S
O266 C267 1.208 . S
C267 O265 1.312 . S
C267 O266 1.208 . S
C268 O260 1.331 . S
C268 O263 1.244 . S
O269 Mg254 2.013 . S
O269 C258 1.191 . S
O270 C249 1.331 . S
O270 Mg256 2.081 1_554 S
O271 Mg252 1.986 . S
O271 C258 1.307 . S
O272 C250 1.264 . S
O272 Mg256 2.023 . S
O273 C249 1.244 . S
O273 Mg257 1.942 1_554 S
O274 C250 1.273 . S
O274 Mg257 1.955 . S
O275 C248 1.312 . S
O275 Mg251 2.291 . S
O275 Mg254 2.114 . S
O276 C248 1.208 1_554 S
O276 Mg256 2.031 1_554 S
C277 O262 1.264 . S
C277 O264 1.273 . S
C278 O259 1.191 . S
C278 O261 1.307 . S
C279 O306 1.312 . S
C279 O307 1.208 . S
C280 O301 1.331 . S
C280 O304 1.244 . S
C281 O303 1.264 . S
C281 O305 1.273 . S
Mg282 O284 1.936 . S
Mg282 O291 2.081 . S
Mg282 O293 2.023 . S
Mg282 O297 2.031 . S
Mg282 O306 2.291 . S
Mg283 O284 1.963 . S
Mg283 O294 1.942 . S
Mg283 O295 1.955 . S
Mg283 O302 1.986 . S
O284 Mg282 1.936 . S
O284 Mg283 1.963 . S
O284 Mg285 1.915 . S
Mg285 O284 1.915 . S
Mg285 O286 1.915 . S
Mg285 O290 2.013 . S
Mg285 O296 2.114 . S
Mg285 O300 2.013 . S
Mg285 O306 2.114 . S
O286 Mg285 1.915 . S
O286 Mg287 1.936 . S
O286 Mg288 1.963 . S
Mg287 O286 1.936 . S
Mg287 O296 2.291 . S
Mg287 O301 2.081 . S
Mg287 O303 2.023 . S
Mg287 O307 2.031 . S
Mg288 O286 1.963 . S
Mg288 O292 1.986 . S
Mg288 O304 1.942 . S
Mg288 O305 1.955 . S
C289 O300 1.191 . S
C289 O302 1.307 . S
O290 Mg285 2.013 . S
O290 C309 1.191 . S
O291 Mg282 2.081 . S
O291 C299 1.331 . S
O292 Mg288 1.986 . S
O292 C309 1.307 . S
O293 Mg282 2.023 . S
O293 C308 1.264 . S
O294 Mg283 1.942 . S
O294 C299 1.244 . S
O295 Mg283 1.955 . S
O295 C308 1.273 . S
O296 Mg285 2.114 . S
O296 Mg287 2.291 . S
O296 C298 1.312 . S
O297 Mg282 2.031 . S
O297 C298 1.208 . S
C298 O296 1.312 . S
C298 O297 1.208 . S
C299 O291 1.331 . S
C299 O294 1.244 . S
O300 Mg285 2.013 . S
O300 C289 1.191 . S
O301 C280 1.331 . S
O301 Mg287 2.081 . S
O302 Mg283 1.986 . S
O302 C289 1.307 . S
O303 C281 1.264 . S
O303 Mg287 2.023 . S
O304 C280 1.244 . S
O304 Mg288 1.942 . S
O305 C281 1.273 . S
O305 Mg288 1.955 . S
O306 C279 1.312 . S
O306 Mg282 2.291 . S
O306 Mg285 2.114 . S
O307 C279 1.208 . S
O307 Mg287 2.031 . S
C308 O293 1.264 . S
C308 O295 1.273 . S
C309 O290 1.191 . S
C309 O292 1.307 . S
C310 O337 1.312 . S
C310 O338 1.208 . S
C311 O332 1.331 . S
C311 O335 1.244 . S
C312 O334 1.264 . S
C312 O336 1.273 . S
Mg313 O315 1.936 . S
Mg313 O322 2.081 . S
Mg313 O324 2.023 . S
Mg313 O328 2.031 . S
Mg313 O337 2.291 . S
Mg314 O315 1.963 . S
Mg314 O325 1.942 . S
Mg314 O326 1.955 . S
Mg314 O333 1.986 . S
O315 Mg313 1.936 . S
O315 Mg314 1.963 . S
O315 Mg316 1.915 . S
Mg316 O315 1.915 . S
Mg316 O317 1.915 . S
Mg316 O321 2.013 . S
Mg316 O327 2.114 . S
Mg316 O331 2.013 . S
Mg316 O337 2.114 . S
O317 Mg316 1.915 . S
O317 Mg318 1.936 . S
O317 Mg319 1.963 . S
Mg318 O317 1.936 . S
Mg318 O327 2.291 . S
Mg318 O332 2.081 . S
Mg318 O334 2.023 . S
Mg318 O338 2.031 . S
Mg319 O317 1.963 . S
Mg319 O323 1.986 . S
Mg319 O335 1.942 . S
Mg319 O336 1.955 . S
C320 O331 1.191 . S
C320 O333 1.307 . S
O321 Mg316 2.013 . S
O321 C340 1.191 . S
O322 Mg313 2.081 . S
O322 C330 1.331 . S
O323 Mg319 1.986 . S
O323 C340 1.307 . S
O324 Mg313 2.023 . S
O324 C339 1.264 . S
O325 Mg314 1.942 . S
O325 C330 1.244 . S
O326 Mg314 1.955 . S
O326 C339 1.273 . S
O327 Mg316 2.114 . S
O327 Mg318 2.291 . S
O327 C329 1.312 . S
O328 Mg313 2.031 . S
O328 C329 1.208 . S
C329 O327 1.312 . S
C329 O328 1.208 . S
C330 O322 1.331 . S
C330 O325 1.244 . S
O331 Mg316 2.013 . S
O331 C320 1.191 . S
O332 C311 1.331 . S
O332 Mg318 2.081 . S
O333 Mg314 1.986 . S
O333 C320 1.307 . S
O334 C312 1.264 . S
O334 Mg318 2.023 . S
O335 C311 1.244 . S
O335 Mg319 1.942 . S
O336 C312 1.273 . S
O336 Mg319 1.955 . S
O337 C310 1.312 . S
O337 Mg313 2.291 . S
O337 Mg316 2.114 . S
O338 C310 1.208 . S
O338 Mg318 2.031 . S
C339 O324 1.264 . S
C339 O326 1.273 . S
C340 O321 1.191 . S
C340 O323 1.307 . S
C341 O368 1.312 . S
C341 O369 1.208 . S
C342 O363 1.331 . S
C342 O366 1.244 . S
C343 O365 1.264 . S
C343 O367 1.273 . S
Mg344 O346 1.936 . S
Mg344 O353 2.081 . S
Mg344 O355 2.023 . S
Mg344 O359 2.031 . S
Mg344 O368 2.291 . S
Mg345 O346 1.963 . S
Mg345 O356 1.942 . S
Mg345 O357 1.955 . S
Mg345 O364 1.986 . S
O346 Mg344 1.936 . S
O346 Mg345 1.963 . S
O346 Mg347 1.915 . S
Mg347 O346 1.915 . S
Mg347 O348 1.915 . S
Mg347 O352 2.013 . S
Mg347 O358 2.114 . S
Mg347 O362 2.013 . S
Mg347 O368 2.114 . S
O348 Mg347 1.915 . S
O348 Mg349 1.936 . S
O348 Mg350 1.963 . S
Mg349 O348 1.936 . S
Mg349 O358 2.291 . S
Mg349 O363 2.081 . S
Mg349 O365 2.023 . S
Mg349 O369 2.031 . S
Mg350 O348 1.963 . S
Mg350 O354 1.986 . S
Mg350 O366 1.942 . S
Mg350 O367 1.955 . S
C351 O362 1.191 . S
C351 O364 1.307 . S
O352 Mg347 2.013 . S
O352 C371 1.191 . S
O353 Mg344 2.081 . S
O353 C361 1.331 . S
O354 Mg350 1.986 . S
O354 C371 1.307 . S
O355 Mg344 2.023 . S
O355 C370 1.264 . S
O356 Mg345 1.942 . S
O356 C361 1.244 . S
O357 Mg345 1.955 . S
O357 C370 1.273 . S
O358 Mg347 2.114 . S
O358 Mg349 2.291 . S
O358 C360 1.312 . S
O359 Mg344 2.031 . S
O359 C360 1.208 . S
C360 O358 1.312 . S
C360 O359 1.208 . S
C361 O353 1.331 . S
C361 O356 1.244 . S
O362 Mg347 2.013 . S
O362 C351 1.191 . S
O363 C342 1.331 . S
O363 Mg349 2.081 . S
O364 Mg345 1.986 . S
O364 C351 1.307 . S
O365 C343 1.264 . S
O365 Mg349 2.023 . S
O366 C342 1.244 . S
O366 Mg350 1.942 . S
O367 C343 1.273 . S
O367 Mg350 1.955 . S
O368 C341 1.312 . S
O368 Mg344 2.291 . S
O368 Mg347 2.114 . S
O369 C341 1.208 . S
O369 Mg349 2.031 . S
C370 O355 1.264 . S
C370 O357 1.273 . S
C371 O352 1.191 . S
C371 O354 1.307 . S
C372 C373 1.363 . S
C372 C378 1.379 . S
C372 N380 1.356 . S
C373 C372 1.363 . S
C373 C379 1.363 . S
C374 C375 1.363 . S
C374 C379 1.379 . S
C374 N381 1.356 . S
C375 C374 1.363 . S
C375 C378 1.363 . S
N376 C378 1.356 . S
N376 H388 0.984 . S
N376 H389 0.985 . S
N377 C379 1.356 . S
N377 H382 0.984 . S
N377 H383 0.985 . S
C378 C372 1.379 . S
C378 C375 1.363 . S
C378 N376 1.356 . S
C379 C373 1.363 . S
C379 C374 1.379 . S
C379 N377 1.356 . S
N380 C372 1.356 . S
N380 H386 0.984 . S
N380 H387 0.984 . S
N381 C374 1.356 . S
N381 H384 0.984 . S
N381 H385 0.985 . S
H382 N377 0.984 . S
H383 N377 0.985 . S
H384 N381 0.984 . S
H385 N381 0.985 . S
H386 N380 0.984 . S
H387 N380 0.984 . S
H388 N376 0.984 . S
H389 N376 0.985 . S
C390 C391 1.363 . S
C390 C396 1.379 . S
C390 N398 1.356 . S
C391 C390 1.363 . S
C391 C397 1.363 . S
C392 C393 1.363 . S
C392 C397 1.379 . S
C392 N399 1.356 . S
C393 C392 1.363 . S
C393 C396 1.363 . S
N394 C396 1.356 . S
N394 H406 0.984 . S
N394 H407 0.985 . S
N395 C397 1.356 . S
N395 H400 0.984 . S
N395 H401 0.985 . S
C396 C390 1.379 . S
C396 C393 1.363 . S
C396 N394 1.356 . S
C397 C391 1.363 . S
C397 C392 1.379 . S
C397 N395 1.356 . S
N398 C390 1.356 . S
N398 H404 0.984 1_554 S
N398 H405 0.984 . S
N399 C392 1.356 . S
N399 H402 0.984 . S
N399 H403 0.985 . S
H400 N395 0.984 . S
H401 N395 0.985 . S
H402 N399 0.984 . S
H403 N399 0.985 . S
H404 N398 0.984 1_556 S
H405 N398 0.984 . S
H406 N394 0.984 . S
H407 N394 0.985 . S
C408 C409 1.363 . S
C408 C414 1.379 . S
C408 N416 1.356 . S
C409 C408 1.363 . S
C409 C415 1.363 . S
C410 C411 1.363 . S
C410 C415 1.379 . S
C410 N417 1.356 . S
C411 C410 1.363 . S
C411 C414 1.363 . S
N412 C414 1.356 1_556 S
N412 H424 0.984 . S
N412 H425 0.985 . S
N413 C415 1.356 . S
N413 H418 0.984 . S
N413 H419 0.985 . S
C414 C408 1.379 . S
C414 C411 1.363 . S
C414 N412 1.356 1_554 S
C415 C409 1.363 . S
C415 C410 1.379 . S
C415 N413 1.356 . S
N416 C408 1.356 . S
N416 H422 0.984 . S
N416 H423 0.984 . S
N417 C410 1.356 . S
N417 H420 0.984 . S
N417 H421 0.985 . S
H418 N413 0.984 . S
H419 N413 0.985 . S
H420 N417 0.984 . S
H421 N417 0.985 . S
H422 N416 0.984 . S
H423 N416 0.984 . S
H424 N412 0.984 . S
H425 N412 0.985 . S
C426 C427 1.363 . S
C426 C432 1.379 . S
C426 N434 1.356 . S
C427 C426 1.363 . S
C427 C433 1.363 . S
C428 C429 1.363 . S
C428 C433 1.379 . S
C428 N435 1.356 . S
C429 C428 1.363 . S
C429 C432 1.363 . S
N430 C432 1.356 . S
N430 H442 0.984 . S
N430 H443 0.985 . S
N431 C433 1.356 . S
N431 H436 0.984 . S
N431 H437 0.985 . S
C432 C426 1.379 . S
C432 C429 1.363 . S
C432 N430 1.356 . S
C433 C427 1.363 . S
C433 C428 1.379 . S
C433 N431 1.356 . S
N434 C426 1.356 . S
N434 H440 0.984 . S
N434 H441 0.984 . S
N435 C428 1.356 . S
N435 H438 0.984 . S
N435 H439 0.985 . S
H436 N431 0.984 . S
H437 N431 0.985 . S
H438 N435 0.984 . S
H439 N435 0.985 . S
H440 N434 0.984 . S
H441 N434 0.984 . S
H442 N430 0.984 . S
H443 N430 0.985 . S
C444 C445 1.363 . S
C444 C450 1.379 . S
C444 N452 1.356 . S
C445 C444 1.363 . S
C445 C451 1.363 . S
C446 C447 1.363 . S
C446 C451 1.379 . S
C446 N453 1.356 . S
C447 C446 1.363 . S
C447 C450 1.363 . S
N448 C450 1.356 . S
N448 H460 0.984 . S
N448 H461 0.985 . S
N449 C451 1.356 . S
N449 H454 0.984 . S
N449 H455 0.985 . S
C450 C444 1.379 . S
C450 C447 1.363 . S
C450 N448 1.356 . S
C451 C445 1.363 . S
C451 C446 1.379 . S
C451 N449 1.356 . S
N452 C444 1.356 . S
N452 H458 0.984 . S
N452 H459 0.984 . S
N453 C446 1.356 . S
N453 H456 0.984 . S
N453 H457 0.985 . S
H454 N449 0.984 . S
H455 N449 0.985 . S
H456 N453 0.984 . S
H457 N453 0.985 . S
H458 N452 0.984 . S
H459 N452 0.984 . S
H460 N448 0.984 . S
H461 N448 0.985 . S
C462 C463 1.363 . S
C462 C468 1.379 . S
C462 N470 1.356 . S
C463 C462 1.363 . S
C463 C469 1.363 . S
C464 C465 1.363 . S
C464 C469 1.379 . S
C464 N471 1.356 . S
C465 C464 1.363 . S
C465 C468 1.363 . S
N466 C468 1.356 . S
N466 H478 0.984 . S
N466 H479 0.985 . S
N467 C469 1.356 . S
N467 H472 0.984 . S
N467 H473 0.985 . S
C468 C462 1.379 . S
C468 C465 1.363 . S
C468 N466 1.356 . S
C469 C463 1.363 . S
C469 C464 1.379 . S
C469 N467 1.356 . S
N470 C462 1.356 . S
N470 H476 0.984 . S
N470 H477 0.984 . S
N471 C464 1.356 . S
N471 H474 0.984 . S
N471 H475 0.985 . S
H472 N467 0.984 . S
H473 N467 0.985 . S
H474 N471 0.984 . S
H475 N471 0.985 . S
H476 N470 0.984 . S
H477 N470 0.984 . S
H478 N466 0.984 . S
H479 N466 0.985 . S
C480 C481 1.363 . S
C480 C486 1.379 . S
C480 N488 1.356 . S
C481 C480 1.363 . S
C481 C487 1.363 . S
C482 C483 1.363 . S
C482 C487 1.379 . S
C482 N489 1.356 . S
C483 C482 1.363 . S
C483 C486 1.363 . S
N484 C486 1.356 . S
N484 H496 0.984 . S
N484 H497 0.985 . S
N485 C487 1.356 . S
N485 H490 0.984 . S
N485 H491 0.985 . S
C486 C480 1.379 . S
C486 C483 1.363 . S
C486 N484 1.356 . S
C487 C481 1.363 . S
C487 C482 1.379 . S
C487 N485 1.356 . S
N488 C480 1.356 . S
N488 H494 0.984 . S
N488 H495 0.984 . S
N489 C482 1.356 . S
N489 H492 0.984 . S
N489 H493 0.985 . S
H490 N485 0.984 . S
H491 N485 0.985 . S
H492 N489 0.984 . S
H493 N489 0.985 . S
H494 N488 0.984 . S
H495 N488 0.984 . S
H496 N484 0.984 . S
H497 N484 0.985 . S
C498 C499 1.363 . S
C498 C504 1.379 . S
C498 N506 1.356 . S
C499 C498 1.363 . S
C499 C505 1.363 . S
C500 C501 1.363 . S
C500 C505 1.379 . S
C500 N507 1.356 . S
C501 C500 1.363 . S
C501 C504 1.363 . S
N502 C504 1.356 . S
N502 H514 0.984 . S
N502 H515 0.985 . S
N503 C505 1.356 1_554 S
N503 H508 0.984 . S
N503 H509 0.985 . S
C504 C498 1.379 . S
C504 C501 1.363 . S
C504 N502 1.356 . S
C505 C499 1.363 . S
C505 C500 1.379 . S
C505 N503 1.356 1_556 S
N506 C498 1.356 . S
N506 H512 0.984 . S
N506 H513 0.984 . S
N507 C500 1.356 . S
N507 H510 0.984 . S
N507 H511 0.985 . S
H508 N503 0.984 . S
H509 N503 0.985 . S
H510 N507 0.984 . S
H511 N507 0.985 . S
H512 N506 0.984 . S
H513 N506 0.984 . S
H514 N502 0.984 . S
H515 N502 0.985 . S
C516 C517 1.363 . S
C516 C522 1.379 . S
C516 N524 1.356 . S
C517 C516 1.363 . S
C517 C523 1.363 . S
C518 C519 1.363 . S
C518 C523 1.379 . S
C518 N525 1.356 . S
C519 C518 1.363 . S
C519 C522 1.363 . S
N520 C522 1.356 . S
N520 H532 0.984 . S
N520 H533 0.985 . S
N521 C523 1.356 . S
N521 H526 0.984 . S
N521 H527 0.985 . S
C522 C516 1.379 . S
C522 C519 1.363 . S
C522 N520 1.356 . S
C523 C517 1.363 . S
C523 C518 1.379 . S
C523 N521 1.356 . S
N524 C516 1.356 . S
N524 H530 0.984 . S
N524 H531 0.984 . S
N525 C518 1.356 . S
N525 H528 0.985 . S
N525 H529 0.985 1_556 S
H526 N521 0.984 . S
H527 N521 0.985 . S
H528 N525 0.985 . S
H529 N525 0.985 1_554 S
H530 N524 0.984 . S
H531 N524 0.984 . S
H532 N520 0.984 . S
H533 N520 0.985 . S
C534 C535 1.363 . S
C534 C540 1.379 . S
C534 N542 1.356 . S
C535 C534 1.363 . S
C535 C541 1.363 . S
C536 C537 1.363 . S
C536 C541 1.379 . S
C536 N543 1.356 . S
C537 C536 1.363 . S
C537 C540 1.363 . S
N538 C540 1.356 . S
N538 H550 0.984 . S
N538 H551 0.985 . S
N539 C541 1.356 . S
N539 H544 0.984 . S
N539 H545 0.985 . S
C540 C534 1.379 . S
C540 C537 1.363 . S
C540 N538 1.356 . S
C541 C535 1.363 . S
C541 C536 1.379 . S
C541 N539 1.356 . S
N542 C534 1.356 . S
N542 H548 0.984 . S
N542 H549 0.984 . S
N543 C536 1.356 . S
N543 H546 0.984 . S
N543 H547 0.985 . S
H544 N539 0.984 . S
H545 N539 0.985 . S
H546 N543 0.984 . S
H547 N543 0.985 . S
H548 N542 0.984 . S
H549 N542 0.984 . S
H550 N538 0.984 . S
H551 N538 0.985 . S
C552 C553 1.363 . S
C552 C558 1.379 . S
C552 N560 1.356 . S
C553 C552 1.363 . S
C553 C559 1.363 . S
C554 C555 1.363 . S
C554 C559 1.379 . S
C554 N561 1.356 . S
C555 C554 1.363 . S
C555 C558 1.363 . S
N556 C558 1.356 . S
N556 H568 0.984 . S
N556 H569 0.985 . S
N557 C559 1.356 . S
N557 H562 0.984 . S
N557 H563 0.985 . S
C558 C552 1.379 . S
C558 C555 1.363 . S
C558 N556 1.356 . S
C559 C553 1.363 . S
C559 C554 1.379 . S
C559 N557 1.356 . S
N560 C552 1.356 . S
N560 H566 0.984 . S
N560 H567 0.984 . S
N561 C554 1.356 . S
N561 H564 0.984 . S
N561 H565 0.985 . S
H562 N557 0.984 . S
H563 N557 0.985 . S
H564 N561 0.984 . S
H565 N561 0.985 . S
H566 N560 0.984 . S
H567 N560 0.984 . S
H568 N556 0.984 . S
H569 N556 0.985 . S
C570 C571 1.363 . S
C570 C576 1.379 . S
C570 N578 1.356 . S
C571 C570 1.363 . S
C571 C577 1.363 . S
C572 C573 1.363 . S
C572 C577 1.379 . S
C572 N579 1.356 . S
C573 C572 1.363 . S
C573 C576 1.363 . S
N574 C576 1.356 . S
N574 H586 0.984 . S
N574 H587 0.985 . S
N575 C577 1.356 . S
N575 H580 0.984 . S
N575 H581 0.985 . S
C576 C570 1.379 . S
C576 C573 1.363 . S
C576 N574 1.356 . S
C577 C571 1.363 . S
C577 C572 1.379 . S
C577 N575 1.356 . S
N578 C570 1.356 . S
N578 H584 0.984 . S
N578 H585 0.984 . S
N579 C572 1.356 . S
N579 H582 0.984 . S
N579 H583 0.985 . S
H580 N575 0.984 . S
H581 N575 0.985 . S
H582 N579 0.984 . S
H583 N579 0.985 . S
H584 N578 0.984 . S
H585 N578 0.984 . S
H586 N574 0.984 . S
H587 N574 0.985 . S
C588 C589 1.363 . S
C588 C594 1.379 1_556 S
C588 N596 1.356 . S
C589 C588 1.363 . S
C589 C595 1.363 . S
C590 C591 1.363 . S
C590 C595 1.379 1_554 S
C590 N597 1.356 . S
C591 C590 1.363 . S
C591 C594 1.363 . S
N592 C594 1.356 . S
N592 H604 0.984 . S
N592 H605 0.985 . S
N593 C595 1.356 . S
N593 H598 0.984 . S
N593 H599 0.985 . S
C594 C588 1.379 1_554 S
C594 C591 1.363 . S
C594 N592 1.356 . S
C595 C589 1.363 . S
C595 C590 1.379 1_556 S
C595 N593 1.356 . S
N596 C588 1.356 . S
N596 H602 0.984 1_556 S
N596 H603 0.984 . S
N597 C590 1.356 . S
N597 H600 0.984 . S
N597 H601 0.985 1_554 S
H598 N593 0.984 . S
H599 N593 0.985 . S
H600 N597 0.984 . S
H601 N597 0.985 1_556 S
H602 N596 0.984 1_554 S
H603 N596 0.984 . S
H604 N592 0.984 . S
H605 N592 0.985 . S
C606 C607 1.363 . S
C606 C612 1.379 1_554 S
C606 N614 1.356 . S
C607 C606 1.363 . S
C607 C613 1.363 1_545 S
C608 C609 1.363 . S
C608 C613 1.379 1_556 S
C608 N615 1.356 . S
C609 C608 1.363 . S
C609 C612 1.363 1_565 S
N610 C612 1.356 . S
N610 H622 0.984 . S
N610 H623 0.985 . S
N611 C613 1.356 . S
N611 H616 0.984 . S
N611 H617 0.985 . S
C612 C606 1.379 1_556 S
C612 C609 1.363 1_545 S
C612 N610 1.356 . S
C613 C607 1.363 1_565 S
C613 C608 1.379 1_554 S
C613 N611 1.356 . S
N614 C606 1.356 . S
N614 H620 0.984 . S
N614 H621 0.984 . S
N615 C608 1.356 . S
N615 H618 0.984 . S
N615 H619 0.985 . S
H616 N611 0.984 . S
H617 N611 0.985 . S
H618 N615 0.984 . S
H619 N615 0.985 . S
H620 N614 0.984 . S
H621 N614 0.984 . S
H622 N610 0.984 . S
H623 N610 0.985 . S
C624 C625 1.363 . S
C624 C630 1.379 1_554 S
C624 N632 1.356 . S
C625 C624 1.363 . S
C625 C631 1.363 1_655 S
C626 C627 1.363 . S
C626 C631 1.379 1_556 S
C626 N633 1.356 . S
C627 C626 1.363 . S
C627 C630 1.363 1_455 S
N628 C630 1.356 . S
N628 H640 0.984 . S
N628 H641 0.985 . S
N629 C631 1.356 . S
N629 H634 0.984 . S
N629 H635 0.985 . S
C630 C624 1.379 1_556 S
C630 C627 1.363 1_655 S
C630 N628 1.356 . S
C631 C625 1.363 1_455 S
C631 C626 1.379 1_554 S
C631 N629 1.356 . S
N632 C624 1.356 . S
N632 H638 0.984 . S
N632 H639 0.984 . S
N633 C626 1.356 . S
N633 H636 0.984 . S
N633 H637 0.985 . S
H634 N629 0.984 . S
H635 N629 0.985 . S
H636 N633 0.984 . S
H637 N633 0.985 . S
H638 N632 0.984 . S
H639 N632 0.984 . S
H640 N628 0.984 . S
H641 N628 0.985 . S
C642 C643 1.363 . S
C642 C648 1.379 . S
C642 N650 1.356 . S
C643 C642 1.363 . S
C643 C649 1.363 . S
C644 C645 1.363 . S
C644 C649 1.379 . S
C644 N651 1.356 . S
C645 C644 1.363 . S
C645 C648 1.363 . S
N646 C648 1.356 . S
N646 H658 0.984 . S
N646 H659 0.985 . S
N647 C649 1.356 . S
N647 H652 0.984 . S
N647 H653 0.985 . S
C648 C642 1.379 . S
C648 C645 1.363 . S
C648 N646 1.356 . S
C649 C643 1.363 . S
C649 C644 1.379 . S
C649 N647 1.356 . S
N650 C642 1.356 . S
N650 H656 0.984 . S
N650 H657 0.984 . S
N651 C644 1.356 . S
N651 H654 0.984 . S
N651 H655 0.985 . S
H652 N647 0.984 . S
H653 N647 0.985 . S
H654 N651 0.984 . S
H655 N651 0.985 . S
H656 N650 0.984 . S
H657 N650 0.984 . S
H658 N646 0.984 . S
H659 N646 0.985 . S
C660 C661 1.363 1_545 S
C660 C666 1.379 . S
C660 N668 1.356 . S
C661 C660 1.363 1_565 S
C661 C667 1.363 . S
C662 C663 1.363 1_565 S
C662 C667 1.379 . S
C662 N669 1.356 . S
C663 C662 1.363 1_545 S
C663 C666 1.363 . S
N664 C666 1.356 . S
N664 H676 0.984 . S
N664 H677 0.985 . S
N665 C667 1.356 . S
N665 H670 0.984 . S
N665 H671 0.985 . S
C666 C660 1.379 . S
C666 C663 1.363 . S
C666 N664 1.356 . S
C667 C661 1.363 . S
C667 C662 1.379 . S
C667 N665 1.356 . S
N668 C660 1.356 . S
N668 H674 0.984 . S
N668 H675 0.984 . S
N669 C662 1.356 . S
N669 H672 0.984 . S
N669 H673 0.985 . S
H670 N665 0.984 . S
H671 N665 0.985 . S
H672 N669 0.984 . S
H673 N669 0.985 . S
H674 N668 0.984 . S
H675 N668 0.984 . S
H676 N664 0.984 . S
H677 N664 0.985 . S
C678 C679 1.363 . S
C678 C684 1.382 1_655 S
C678 N686 1.356 . S
C679 C678 1.363 . S
C679 C685 1.355 . S
C680 C681 1.363 . S
C680 C685 1.382 1_455 S
C680 N687 1.356 . S
C681 C680 1.363 . S
C681 C684 1.355 . S
N682 C684 1.360 . S
N682 H694 0.985 . S
N682 H695 0.985 . S
N683 C685 1.360 . S
N683 H688 0.984 . S
N683 H689 0.985 . S
C684 C678 1.382 1_455 S
C684 C681 1.355 . S
C684 N682 1.360 . S
C685 C679 1.355 . S
C685 C680 1.382 1_655 S
C685 N683 1.360 . S
N686 C678 1.356 . S
N686 H692 0.984 . S
N686 H693 0.984 . S
N687 C680 1.356 . S
N687 H690 0.984 . S
N687 H691 0.985 . S
H688 N683 0.984 . S
H689 N683 0.985 . S
H690 N687 0.984 . S
H691 N687 0.985 . S
H692 N686 0.984 . S
H693 N686 0.984 . S
H694 N682 0.985 . S
H695 N682 0.985 . S
C696 C697 1.363 . S
C696 C702 1.379 . S
C696 N704 1.356 . S
C697 C696 1.363 . S
C697 C703 1.363 . S
C698 C699 1.363 . S
C698 C703 1.379 . S
C698 N705 1.356 . S
C699 C698 1.363 . S
C699 C702 1.363 . S
N700 C702 1.356 . S
N700 H712 0.984 . S
N700 H713 0.985 . S
N701 C703 1.356 . S
N701 H706 0.984 . S
N701 H707 0.985 . S
C702 C696 1.379 . S
C702 C699 1.363 . S
C702 N700 1.356 . S
C703 C697 1.363 . S
C703 C698 1.379 . S
C703 N701 1.356 . S
N704 C696 1.356 . S
N704 H710 0.984 . S
N704 H711 0.984 . S
N705 C698 1.356 . S
N705 H708 0.984 . S
N705 H709 0.985 . S
H706 N701 0.984 . S
H707 N701 0.985 . S
H708 N705 0.984 . S
H709 N705 0.985 . S
H710 N704 0.984 . S
H711 N704 0.984 . S
H712 N700 0.984 . S
H713 N700 0.985 . S
C714 C715 1.363 . S
C714 C720 1.379 . S
C714 N722 1.356 . S
C715 C714 1.363 . S
C715 C721 1.363 . S
C716 C717 1.363 . S
C716 C721 1.379 . S
C716 N723 1.356 . S
C717 C716 1.363 . S
C717 C720 1.363 . S
N718 C720 1.356 . S
N718 H730 0.984 . S
N718 H731 0.985 . S
N719 C721 1.356 . S
N719 H724 0.984 . S
N719 H725 0.985 . S
C720 C714 1.379 . S
C720 C717 1.363 . S
C720 N718 1.356 . S
C721 C715 1.363 . S
C721 C716 1.379 . S
C721 N719 1.356 . S
N722 C714 1.356 . S
N722 H728 0.984 . S
N722 H729 0.984 . S
N723 C716 1.356 . S
N723 H726 0.984 . S
N723 H727 0.985 . S
H724 N719 0.984 . S
H725 N719 0.985 . S
H726 N723 0.984 . S
H727 N723 0.985 . S
H728 N722 0.984 . S
H729 N722 0.984 . S
H730 N718 0.984 . S
H731 N718 0.985 . S
C732 C733 1.363 . S
C732 C738 1.379 . S
C732 N740 1.356 . S
C733 C732 1.363 . S
C733 C739 1.363 . S
C734 C735 1.363 . S
C734 C739 1.379 . S
C734 N741 1.356 . S
C735 C734 1.363 . S
C735 C738 1.363 . S
N736 C738 1.356 . S
N736 H748 0.984 . S
N736 H749 0.985 . S
N737 C739 1.356 . S
N737 H742 0.984 . S
N737 H743 0.985 . S
C738 C732 1.379 . S
C738 C735 1.363 . S
C738 N736 1.356 . S
C739 C733 1.363 . S
C739 C734 1.379 . S
C739 N737 1.356 . S
N740 C732 1.356 . S
N740 H746 0.984 . S
N740 H747 0.984 . S
N741 C734 1.356 . S
N741 H744 0.984 . S
N741 H745 0.985 . S
H742 N737 0.984 . S
H743 N737 0.985 . S
H744 N741 0.984 . S
H745 N741 0.985 . S
H746 N740 0.984 . S
H747 N740 0.984 . S
H748 N736 0.984 . S
H749 N736 0.985 . S
C750 C751 1.363 . S
C750 C756 1.379 . S
C750 N758 1.356 . S
C751 C750 1.363 . S
C751 C757 1.363 . S
C752 C753 1.363 . S
C752 C757 1.379 . S
C752 N759 1.356 . S
C753 C752 1.363 . S
C753 C756 1.363 . S
N754 C756 1.356 . S
N754 H766 0.984 . S
N754 H767 0.985 . S
N755 C757 1.356 . S
N755 H760 0.984 . S
N755 H761 0.985 . S
C756 C750 1.379 . S
C756 C753 1.363 . S
C756 N754 1.356 . S
C757 C751 1.363 . S
C757 C752 1.379 . S
C757 N755 1.356 . S
N758 C750 1.356 . S
N758 H764 0.984 . S
N758 H765 0.984 . S
N759 C752 1.356 . S
N759 H762 0.984 . S
N759 H763 0.985 . S
H760 N755 0.984 . S
H761 N755 0.985 . S
H762 N759 0.984 . S
H763 N759 0.985 . S
H764 N758 0.984 . S
H765 N758 0.984 . S
H766 N754 0.984 . S
H767 N754 0.985 . S
C768 C769 1.363 . S
C768 C774 1.379 . S
C768 N776 1.356 . S
C769 C768 1.363 . S
C769 C775 1.363 . S
C770 C771 1.363 . S
C770 C775 1.379 . S
C770 N777 1.356 . S
C771 C770 1.363 . S
C771 C774 1.363 . S
N772 C774 1.356 . S
N772 H784 0.984 . S
N772 H785 0.985 . S
N773 C775 1.356 . S
N773 H778 0.984 . S
N773 H779 0.985 . S
C774 C768 1.379 . S
C774 C771 1.363 . S
C774 N772 1.356 . S
C775 C769 1.363 . S
C775 C770 1.379 . S
C775 N773 1.356 . S
N776 C768 1.356 . S
N776 H782 0.984 . S
N776 H783 0.984 . S
N777 C770 1.356 . S
N777 H780 0.984 . S
N777 H781 0.985 . S
H778 N773 0.984 . S
H779 N773 0.985 . S
H780 N777 0.984 . S
H781 N777 0.985 . S
H782 N776 0.984 . S
H783 N776 0.984 . S
H784 N772 0.984 . S
H785 N772 0.985 . S
C786 C787 1.363 . S
C786 C792 1.379 . S
C786 N794 1.356 . S
C787 C786 1.363 . S
C787 C793 1.363 . S
C788 C789 1.363 . S
C788 C793 1.379 . S
C788 N795 1.356 . S
C789 C788 1.363 . S
C789 C792 1.363 . S
N790 C792 1.356 . S
N790 H802 0.984 . S
N790 H803 0.985 . S
N791 C793 1.356 . S
N791 H796 0.984 . S
N791 H797 0.985 . S
C792 C786 1.379 . S
C792 C789 1.363 . S
C792 N790 1.356 . S
C793 C787 1.363 . S
C793 C788 1.379 . S
C793 N791 1.356 . S
N794 C786 1.356 . S
N794 H800 0.984 . S
N794 H801 0.984 . S
N795 C788 1.356 . S
N795 H798 0.984 . S
N795 H799 0.985 . S
H796 N791 0.984 . S
H797 N791 0.985 . S
H798 N795 0.984 . S
H799 N795 0.985 . S
H800 N794 0.984 . S
H801 N794 0.984 . S
H802 N790 0.984 . S
H803 N790 0.985 . S
C804 C805 1.363 . S
C804 C810 1.379 . S
C804 N812 1.356 . S
C805 C804 1.363 . S
C805 C811 1.363 . S
C806 C807 1.363 . S
C806 C811 1.379 . S
C806 N813 1.356 . S
C807 C806 1.363 . S
C807 C810 1.363 . S
N808 C810 1.356 . S
N808 H820 0.984 . S
N808 H821 0.985 . S
N809 C811 1.356 . S
N809 H814 0.984 . S
N809 H815 0.985 . S
C810 C804 1.379 . S
C810 C807 1.363 . S
C810 N808 1.356 . S
C811 C805 1.363 . S
C811 C806 1.379 . S
C811 N809 1.356 . S
N812 C804 1.356 . S
N812 H818 0.984 . S
N812 H819 0.984 . S
N813 C806 1.356 . S
N813 H816 0.984 . S
N813 H817 0.985 . S
H814 N809 0.984 . S
H815 N809 0.985 . S
H816 N813 0.984 . S
H817 N813 0.985 . S
H818 N812 0.984 . S
H819 N812 0.984 . S
H820 N808 0.984 . S
H821 N808 0.985 . S
C822 C823 1.363 . S
C822 C828 1.379 . S
C822 N830 1.356 . S
C823 C822 1.363 . S
C823 C829 1.363 . S
C824 C825 1.363 . S
C824 C829 1.379 . S
C824 N831 1.356 . S
C825 C824 1.363 . S
C825 C828 1.363 . S
N826 C828 1.356 . S
N826 H838 0.984 . S
N826 H839 0.985 . S
N827 C829 1.356 . S
N827 H832 0.984 . S
N827 H833 0.985 . S
C828 C822 1.379 . S
C828 C825 1.363 . S
C828 N826 1.356 . S
C829 C823 1.363 . S
C829 C824 1.379 . S
C829 N827 1.356 . S
N830 C822 1.356 . S
N830 H836 0.984 . S
N830 H837 0.984 . S
N831 C824 1.356 . S
N831 H834 0.984 . S
N831 H835 0.985 . S
H832 N827 0.984 . S
H833 N827 0.985 . S
H834 N831 0.984 . S
H835 N831 0.985 . S
H836 N830 0.984 . S
H837 N830 0.984 . S
H838 N826 0.984 . S
H839 N826 0.985 . S
C840 C841 1.363 . S
C840 C846 1.379 . S
C840 N848 1.356 . S
C841 C840 1.363 . S
C841 C847 1.363 . S
C842 C843 1.363 . S
C842 C847 1.379 . S
C842 N849 1.356 . S
C843 C842 1.363 . S
C843 C846 1.363 . S
N844 C846 1.356 . S
N844 H856 0.984 . S
N844 H857 0.985 . S
N845 C847 1.356 . S
N845 H850 0.984 . S
N845 H851 0.985 . S
C846 C840 1.379 . S
C846 C843 1.363 . S
C846 N844 1.356 . S
C847 C841 1.363 . S
C847 C842 1.379 . S
C847 N845 1.356 . S
N848 C840 1.356 . S
N848 H854 0.984 . S
N848 H855 0.984 . S
N849 C842 1.356 . S
N849 H852 0.984 . S
N849 H853 0.985 . S
H850 N845 0.984 . S
H851 N845 0.985 . S
H852 N849 0.984 . S
H853 N849 0.985 . S
H854 N848 0.984 . S
H855 N848 0.984 . S
H856 N844 0.984 . S
H857 N844 0.985 . S
C858 C859 1.363 . S
C858 C864 1.379 . S
C858 N866 1.356 . S
C859 C858 1.363 . S
C859 C865 1.363 . S
C860 C861 1.363 . S
C860 C865 1.379 . S
C860 N867 1.356 . S
C861 C860 1.363 . S
C861 C864 1.363 . S
N862 C864 1.356 . S
N862 H874 0.984 . S
N862 H875 0.985 . S
N863 C865 1.356 . S
N863 H868 0.984 . S
N863 H869 0.985 . S
C864 C858 1.379 . S
C864 C861 1.363 . S
C864 N862 1.356 . S
C865 C859 1.363 . S
C865 C860 1.379 . S
C865 N863 1.356 . S
N866 C858 1.356 . S
N866 H872 0.984 . S
N866 H873 0.984 . S
N867 C860 1.356 . S
N867 H870 0.984 . S
N867 H871 0.985 . S
H868 N863 0.984 . S
H869 N863 0.985 . S
H870 N867 0.984 . S
H871 N867 0.985 . S
H872 N866 0.984 . S
H873 N866 0.984 . S
H874 N862 0.984 . S
H875 N862 0.985 . S
C876 C877 1.363 . S
C876 C882 1.379 . S
C876 N884 1.356 . S
C877 C876 1.363 . S
C877 C883 1.363 . S
C878 C879 1.363 . S
C878 C883 1.379 . S
C878 N885 1.356 . S
C879 C878 1.363 . S
C879 C882 1.363 . S
N880 C882 1.356 . S
N880 H892 0.984 . S
N880 H893 0.985 . S
N881 C883 1.356 . S
N881 H886 0.984 . S
N881 H887 0.985 . S
C882 C876 1.379 . S
C882 C879 1.363 . S
C882 N880 1.356 . S
C883 C877 1.363 . S
C883 C878 1.379 . S
C883 N881 1.356 . S
N884 C876 1.356 . S
N884 H890 0.984 . S
N884 H891 0.984 . S
N885 C878 1.356 . S
N885 H888 0.984 . S
N885 H889 0.985 . S
H886 N881 0.984 . S
H887 N881 0.985 . S
H888 N885 0.984 . S
H889 N885 0.985 . S
H890 N884 0.984 . S
H891 N884 0.984 . S
H892 N880 0.984 . S
H893 N880 0.985 . S
C894 C895 1.363 . S
C894 C900 1.379 . S
C894 N902 1.356 . S
C895 C894 1.363 . S
C895 C901 1.363 . S
C896 C897 1.363 . S
C896 C901 1.379 . S
C896 N903 1.356 . S
C897 C896 1.363 . S
C897 C900 1.363 . S
N898 C900 1.356 . S
N898 H910 0.984 . S
N898 H911 0.985 . S
N899 C901 1.356 . S
N899 H904 0.984 . S
N899 H905 0.985 . S
C900 C894 1.379 . S
C900 C897 1.363 . S
C900 N898 1.356 . S
C901 C895 1.363 . S
C901 C896 1.379 . S
C901 N899 1.356 . S
N902 C894 1.356 . S
N902 H908 0.984 . S
N902 H909 0.984 . S
N903 C896 1.356 . S
N903 H906 0.984 . S
N903 H907 0.985 . S
H904 N899 0.984 . S
H905 N899 0.985 . S
H906 N903 0.984 . S
H907 N903 0.985 . S
H908 N902 0.984 . S
H909 N902 0.984 . S
H910 N898 0.984 . S
H911 N898 0.985 . S
C912 C913 1.363 . S
C912 C918 1.379 . S
C912 N920 1.356 . S
C913 C912 1.363 . S
C913 C919 1.363 . S
C914 C915 1.363 . S
C914 C919 1.379 . S
C914 N921 1.356 . S
C915 C914 1.363 . S
C915 C918 1.363 . S
N916 C918 1.356 . S
N916 H928 0.984 . S
N916 H929 0.985 . S
N917 C919 1.356 . S
N917 H922 0.984 . S
N917 H923 0.985 . S
C918 C912 1.379 . S
C918 C915 1.363 . S
C918 N916 1.356 . S
C919 C913 1.363 . S
C919 C914 1.379 . S
C919 N917 1.356 . S
N920 C912 1.356 . S
N920 H926 0.984 . S
N920 H927 0.984 . S
N921 C914 1.356 . S
N921 H924 0.984 . S
N921 H925 0.985 . S
H922 N917 0.984 . S
H923 N917 0.985 . S
H924 N921 0.984 . S
H925 N921 0.985 . S
H926 N920 0.984 . S
H927 N920 0.984 . S
H928 N916 0.984 . S
H929 N916 0.985 . S
C930 C931 1.363 1_545 S
C930 C936 1.379 . S
C930 N938 1.356 1_545 S
C931 C930 1.363 1_565 S
C931 C937 1.363 . S
C932 C933 1.363 1_565 S
C932 C937 1.379 . S
C932 N939 1.356 1_565 S
C933 C932 1.363 1_545 S
C933 C936 1.363 . S
N934 C936 1.356 . S
N934 H946 0.984 . S
N934 H947 0.985 . S
N935 C937 1.356 . S
N935 H940 0.984 . S
N935 H941 0.985 . S
C936 C930 1.379 . S
C936 C933 1.363 . S
C936 N934 1.356 . S
C937 C931 1.363 . S
C937 C932 1.379 . S
C937 N935 1.356 . S
N938 C930 1.356 1_565 S
N938 H944 0.984 1_565 S
N938 H945 0.984 . S
N939 C932 1.356 1_545 S
N939 H942 0.984 . S
N939 H943 0.985 1_545 S
H940 N935 0.984 . S
H941 N935 0.985 . S
H942 N939 0.984 . S
H943 N939 0.985 1_565 S
H944 N938 0.984 1_545 S
H945 N938 0.984 . S
H946 N934 0.984 . S
H947 N934 0.985 . S
C948 C949 1.363 . S
C948 C954 1.379 . S
C948 N956 1.356 . S
C949 C948 1.363 . S
C949 C955 1.363 1_455 S
C950 C951 1.363 . S
C950 C955 1.379 . S
C950 N957 1.356 . S
C951 C950 1.363 . S
C951 C954 1.363 1_655 S
N952 C954 1.356 1_655 S
N952 H964 0.984 1_655 S
N952 H965 0.985 . S
N953 C955 1.356 1_455 S
N953 H958 0.984 . S
N953 H959 0.985 1_455 S
C954 C948 1.379 . S
C954 C951 1.363 1_455 S
C954 N952 1.356 1_455 S
C955 C949 1.363 1_655 S
C955 C950 1.379 . S
C955 N953 1.356 1_655 S
N956 C948 1.356 . S
N956 H962 0.984 . S
N956 H963 0.984 . S
N957 C950 1.356 . S
N957 H960 0.984 . S
N957 H961 0.985 . S
H958 N953 0.984 . S
H959 N953 0.985 1_655 S
H960 N957 0.984 . S
H961 N957 0.985 . S
H962 N956 0.984 . S
H963 N956 0.984 . S
H964 N952 0.984 1_455 S
H965 N952 0.985 . S
C966 C967 1.363 . S
C966 C972 1.379 . S
C966 N974 1.356 . S
C967 C966 1.363 . S
C967 C973 1.363 . S
C968 C969 1.363 . S
C968 C973 1.379 . S
C968 N975 1.356 . S
C969 C968 1.363 . S
C969 C972 1.363 . S
N970 C972 1.356 . S
N970 H982 0.984 . S
N970 H983 0.985 . S
N971 C973 1.356 . S
N971 H976 0.984 . S
N971 H977 0.985 . S
C972 C966 1.379 . S
C972 C969 1.363 . S
C972 N970 1.356 . S
C973 C967 1.363 . S
C973 C968 1.379 . S
C973 N971 1.356 . S
N974 C966 1.356 . S
N974 H980 0.984 . S
N974 H981 0.984 . S
N975 C968 1.356 . S
N975 H978 0.984 . S
N975 H979 0.985 . S
H976 N971 0.984 . S
H977 N971 0.985 . S
H978 N975 0.984 . S
H979 N975 0.985 . S
H980 N974 0.984 . S
H981 N974 0.984 . S
H982 N970 0.984 . S
H983 N970 0.985 . S
C984 C985 1.363 1_545 S
C984 C990 1.379 . S
C984 N992 1.356 1_545 S
C985 C984 1.363 1_565 S
C985 C991 1.363 . S
C986 C987 1.363 1_565 S
C986 C991 1.379 . S
C986 N993 1.356 1_565 S
C987 C986 1.363 1_545 S
C987 C990 1.363 . S
N988 C990 1.356 . S
N988 H1000 0.984 . S
N988 H1001 0.985 . S
N989 C991 1.356 . S
N989 H994 0.984 . S
N989 H995 0.985 . S
C990 C984 1.379 . S
C990 C987 1.363 . S
C990 N988 1.356 . S
C991 C985 1.363 . S
C991 C986 1.379 . S
C991 N989 1.356 . S
N992 C984 1.356 1_565 S
N992 H998 0.984 1_565 S
N992 H999 0.984 . S
N993 C986 1.356 1_545 S
N993 H996 0.984 . S
N993 H997 0.985 1_545 S
H994 N989 0.984 . S
H995 N989 0.985 . S
H996 N993 0.984 . S
H997 N993 0.985 1_565 S
H998 N992 0.984 1_545 S
H999 N992 0.984 . S
H1000 N988 0.984 . S
H1001 N988 0.985 . S
C1002 C1003 1.363 . S
C1002 C1008 1.379 . S
C1002 N1010 1.356 . S
C1003 C1002 1.363 . S
C1003 C1009 1.363 1_655 S
C1004 C1005 1.363 . S
C1004 C1009 1.379 . S
C1004 N1011 1.356 . S
C1005 C1004 1.363 . S
C1005 C1008 1.363 1_455 S
N1006 C1008 1.356 . S
N1006 H1018 0.983 . S
N1006 H1019 0.986 1_655 S
N1007 C1009 1.356 . S
N1007 H1012 0.986 1_455 S
N1007 H1013 0.984 . S
C1008 C1002 1.379 . S
C1008 C1005 1.363 1_655 S
C1008 N1006 1.356 . S
C1009 C1003 1.363 1_455 S
C1009 C1004 1.379 . S
C1009 N1007 1.356 . S
N1010 C1002 1.356 . S
N1010 H1016 0.984 . S
N1010 H1017 0.984 . S
N1011 C1004 1.356 . S
N1011 H1014 0.984 . S
N1011 H1015 0.985 . S
H1012 N1007 0.986 1_655 S
H1013 N1007 0.984 . S
H1014 N1011 0.984 . S
H1015 N1011 0.985 . S
H1016 N1010 0.984 . S
H1017 N1010 0.984 . S
H1018 N1006 0.983 . S
H1019 N1006 0.986 1_455 S
C1020 C1021 1.363 . S
C1020 C1026 1.379 . S
C1020 N1028 1.356 . S
C1021 C1020 1.363 . S
C1021 C1027 1.363 . S
C1022 C1023 1.363 . S
C1022 C1027 1.379 . S
C1022 N1029 1.356 . S
C1023 C1022 1.363 . S
C1023 C1026 1.363 . S
N1024 C1026 1.356 . S
N1024 H1036 0.984 . S
N1024 H1037 0.985 . S
N1025 C1027 1.356 . S
N1025 H1030 0.984 . S
N1025 H1031 0.985 . S
C1026 C1020 1.379 . S
C1026 C1023 1.363 . S
C1026 N1024 1.356 . S
C1027 C1021 1.363 . S
C1027 C1022 1.379 . S
C1027 N1025 1.356 . S
N1028 C1020 1.356 . S
N1028 H1034 0.984 . S
N1028 H1035 0.984 . S
N1029 C1022 1.356 . S
N1029 H1032 0.984 1_556 S
N1029 H1033 0.985 . S
H1030 N1025 0.984 . S
H1031 N1025 0.985 . S
H1032 N1029 0.984 1_554 S
H1033 N1029 0.985 . S
H1034 N1028 0.984 . S
H1035 N1028 0.984 . S
H1036 N1024 0.984 . S
H1037 N1024 0.985 . S
C1038 C1039 1.363 . S
C1038 C1044 1.379 . S
C1038 N1046 1.356 . S
C1039 C1038 1.363 . S
C1039 C1045 1.363 . S
C1040 C1041 1.363 . S
C1040 C1045 1.379 . S
C1040 N1047 1.356 . S
C1041 C1040 1.363 . S
C1041 C1044 1.363 . S
N1042 C1044 1.356 . S
N1042 H1054 0.984 . S
N1042 H1055 0.985 . S
N1043 C1045 1.356 . S
N1043 H1048 0.984 . S
N1043 H1049 0.985 . S
C1044 C1038 1.379 . S
C1044 C1041 1.363 . S
C1044 N1042 1.356 . S
C1045 C1039 1.363 . S
C1045 C1040 1.379 . S
C1045 N1043 1.356 . S
N1046 C1038 1.356 . S
N1046 H1052 0.984 . S
N1046 H1053 0.984 1_556 S
N1047 C1040 1.356 . S
N1047 H1050 0.984 . S
N1047 H1051 0.985 . S
H1048 N1043 0.984 . S
H1049 N1043 0.985 . S
H1050 N1047 0.984 . S
H1051 N1047 0.985 . S
H1052 N1046 0.984 . S
H1053 N1046 0.984 1_554 S
H1054 N1042 0.984 . S
H1055 N1042 0.985 . S
C1056 C1057 1.363 . S
C1056 C1062 1.379 . S
C1056 N1064 1.356 . S
C1057 C1056 1.363 . S
C1057 C1063 1.363 . S
C1058 C1059 1.363 . S
C1058 C1063 1.379 . S
C1058 N1065 1.356 . S
C1059 C1058 1.363 . S
C1059 C1062 1.363 . S
N1060 C1062 1.356 . S
N1060 H1072 0.984 . S
N1060 H1073 0.985 . S
N1061 C1063 1.356 . S
N1061 H1066 0.984 . S
N1061 H1067 0.985 . S
C1062 C1056 1.379 . S
C1062 C1059 1.363 . S
C1062 N1060 1.356 . S
C1063 C1057 1.363 . S
C1063 C1058 1.379 . S
C1063 N1061 1.356 . S
N1064 C1056 1.356 . S
N1064 H1070 0.984 . S
N1064 H1071 0.984 . S
N1065 C1058 1.356 . S
N1065 H1068 0.984 . S
N1065 H1069 0.985 . S
H1066 N1061 0.984 . S
H1067 N1061 0.985 . S
H1068 N1065 0.984 . S
H1069 N1065 0.985 . S
H1070 N1064 0.984 . S
H1071 N1064 0.984 . S
H1072 N1060 0.984 . S
H1073 N1060 0.985 . S
C1074 C1075 1.363 . S
C1074 C1080 1.379 . S
C1074 N1082 1.356 . S
C1075 C1074 1.363 . S
C1075 C1081 1.363 . S
C1076 C1077 1.363 . S
C1076 C1081 1.379 . S
C1076 N1083 1.356 . S
C1077 C1076 1.363 . S
C1077 C1080 1.363 . S
N1078 C1080 1.356 . S
N1078 H1090 0.984 . S
N1078 H1091 0.985 . S
N1079 C1081 1.356 . S
N1079 H1084 0.984 . S
N1079 H1085 0.985 . S
C1080 C1074 1.379 . S
C1080 C1077 1.363 . S
C1080 N1078 1.356 . S
C1081 C1075 1.363 . S
C1081 C1076 1.379 . S
C1081 N1079 1.356 . S
N1082 C1074 1.356 . S
N1082 H1088 0.984 . S
N1082 H1089 0.984 . S
N1083 C1076 1.356 . S
N1083 H1086 0.984 . S
N1083 H1087 0.985 . S
H1084 N1079 0.984 . S
H1085 N1079 0.985 . S
H1086 N1083 0.984 . S
H1087 N1083 0.985 . S
H1088 N1082 0.984 . S
H1089 N1082 0.984 . S
H1090 N1078 0.984 . S
H1091 N1078 0.985 . S
C1092 C1093 1.363 . S
C1092 C1098 1.379 . S
C1092 N1100 1.356 . S
C1093 C1092 1.363 . S
C1093 C1099 1.363 . S
C1094 C1095 1.363 . S
C1094 C1099 1.379 . S
C1094 N1101 1.356 . S
C1095 C1094 1.363 . S
C1095 C1098 1.363 . S
N1096 C1098 1.356 . S
N1096 H1108 0.984 . S
N1096 H1109 0.985 . S
N1097 C1099 1.356 . S
N1097 H1102 0.984 . S
N1097 H1103 0.985 . S
C1098 C1092 1.379 . S
C1098 C1095 1.363 . S
C1098 N1096 1.356 . S
C1099 C1093 1.363 . S
C1099 C1094 1.379 . S
C1099 N1097 1.356 . S
N1100 C1092 1.356 . S
N1100 H1106 0.984 . S
N1100 H1107 0.984 . S
N1101 C1094 1.356 . S
N1101 H1104 0.984 . S
N1101 H1105 0.985 . S
H1102 N1097 0.984 . S
H1103 N1097 0.985 . S
H1104 N1101 0.984 . S
H1105 N1101 0.985 . S
H1106 N1100 0.984 . S
H1107 N1100 0.984 . S
H1108 N1096 0.984 . S
H1109 N1096 0.985 . S
C1110 C1111 1.363 . S
C1110 C1116 1.379 . S
C1110 N1118 1.356 . S
C1111 C1110 1.363 . S
C1111 C1117 1.363 . S
C1112 C1113 1.363 . S
C1112 C1117 1.379 . S
C1112 N1119 1.356 . S
C1113 C1112 1.363 . S
C1113 C1116 1.363 . S
N1114 C1116 1.356 . S
N1114 H1126 0.984 . S
N1114 H1127 0.985 . S
N1115 C1117 1.356 . S
N1115 H1120 0.984 . S
N1115 H1121 0.985 . S
C1116 C1110 1.379 . S
C1116 C1113 1.363 . S
C1116 N1114 1.356 . S
C1117 C1111 1.363 . S
C1117 C1112 1.379 . S
C1117 N1115 1.356 . S
N1118 C1110 1.356 . S
N1118 H1124 0.984 . S
N1118 H1125 0.984 . S
N1119 C1112 1.356 . S
N1119 H1122 0.984 . S
N1119 H1123 0.985 . S
H1120 N1115 0.984 . S
H1121 N1115 0.985 . S
H1122 N1119 0.984 . S
H1123 N1119 0.985 . S
H1124 N1118 0.984 . S
H1125 N1118 0.984 . S
H1126 N1114 0.984 . S
H1127 N1114 0.985 . S
C1128 C1129 1.363 . S
C1128 C1134 1.379 . S
C1128 N1136 1.356 . S
C1129 C1128 1.363 . S
C1129 C1135 1.363 . S
C1130 C1131 1.363 . S
C1130 C1135 1.379 . S
C1130 N1137 1.356 . S
C1131 C1130 1.363 . S
C1131 C1134 1.363 . S
N1132 C1134 1.356 . S
N1132 H1144 0.984 . S
N1132 H1145 0.985 . S
N1133 C1135 1.356 1_556 S
N1133 H1138 0.984 . S
N1133 H1139 0.985 . S
C1134 C1128 1.379 . S
C1134 C1131 1.363 . S
C1134 N1132 1.356 . S
C1135 C1129 1.363 . S
C1135 C1130 1.379 . S
C1135 N1133 1.356 1_554 S
N1136 C1128 1.356 . S
N1136 H1142 0.984 . S
N1136 H1143 0.984 . S
N1137 C1130 1.356 . S
N1137 H1140 0.984 . S
N1137 H1141 0.985 . S
H1138 N1133 0.984 . S
H1139 N1133 0.985 . S
H1140 N1137 0.984 . S
H1141 N1137 0.985 . S
H1142 N1136 0.984 . S
H1143 N1136 0.984 . S
H1144 N1132 0.984 . S
H1145 N1132 0.985 . S
C1146 C1147 1.363 . S
C1146 C1152 1.379 . S
C1146 N1154 1.356 . S
C1147 C1146 1.363 . S
C1147 C1153 1.363 . S
C1148 C1149 1.363 . S
C1148 C1153 1.379 . S
C1148 N1155 1.356 . S
C1149 C1148 1.363 . S
C1149 C1152 1.363 . S
N1150 C1152 1.356 . S
N1150 H1162 0.984 . S
N1150 H1163 0.985 . S
N1151 C1153 1.356 . S
N1151 H1156 0.984 1_554 S
N1151 H1157 0.985 . S
C1152 C1146 1.379 . S
C1152 C1149 1.363 . S
C1152 N1150 1.356 . S
C1153 C1147 1.363 . S
C1153 C1148 1.379 . S
C1153 N1151 1.356 . S
N1154 C1146 1.356 . S
N1154 H1160 0.984 . S
N1154 H1161 0.984 . S
N1155 C1148 1.356 . S
N1155 H1158 0.984 . S
N1155 H1159 0.985 . S
H1156 N1151 0.984 1_556 S
H1157 N1151 0.985 . S
H1158 N1155 0.984 . S
H1159 N1155 0.985 . S
H1160 N1154 0.984 . S
H1161 N1154 0.984 . S
H1162 N1150 0.984 . S
H1163 N1150 0.985 . S
C1164 C1165 1.363 . S
C1164 C1170 1.379 . S
C1164 N1172 1.356 . S
C1165 C1164 1.363 . S
C1165 C1171 1.363 . S
C1166 C1167 1.363 . S
C1166 C1171 1.379 . S
C1166 N1173 1.356 . S
C1167 C1166 1.363 . S
C1167 C1170 1.363 . S
N1168 C1170 1.356 . S
N1168 H1180 0.984 . S
N1168 H1181 0.985 . S
N1169 C1171 1.356 . S
N1169 H1174 0.984 . S
N1169 H1175 0.985 . S
C1170 C1164 1.379 . S
C1170 C1167 1.363 . S
C1170 N1168 1.356 . S
C1171 C1165 1.363 . S
C1171 C1166 1.379 . S
C1171 N1169 1.356 . S
N1172 C1164 1.356 . S
N1172 H1178 0.984 . S
N1172 H1179 0.984 . S
N1173 C1166 1.356 . S
N1173 H1176 0.984 . S
N1173 H1177 0.985 . S
H1174 N1169 0.984 . S
H1175 N1169 0.985 . S
H1176 N1173 0.984 . S
H1177 N1173 0.985 . S
H1178 N1172 0.984 . S
H1179 N1172 0.984 . S
H1180 N1168 0.984 . S
H1181 N1168 0.985 . S
C1182 C1183 1.363 . S
C1182 C1188 1.379 . S
C1182 N1190 1.356 . S
C1183 C1182 1.363 . S
C1183 C1189 1.363 . S
C1184 C1185 1.363 . S
C1184 C1189 1.379 . S
C1184 N1191 1.356 . S
C1185 C1184 1.363 . S
C1185 C1188 1.363 . S
N1186 C1188 1.356 . S
N1186 H1198 0.984 . S
N1186 H1199 0.985 . S
N1187 C1189 1.356 . S
N1187 H1192 0.984 . S
N1187 H1193 0.985 . S
C1188 C1182 1.379 . S
C1188 C1185 1.363 . S
C1188 N1186 1.356 . S
C1189 C1183 1.363 . S
C1189 C1184 1.379 . S
C1189 N1187 1.356 . S
N1190 C1182 1.356 . S
N1190 H1196 0.984 . S
N1190 H1197 0.984 . S
N1191 C1184 1.356 . S
N1191 H1194 0.984 . S
N1191 H1195 0.985 . S
H1192 N1187 0.984 . S
H1193 N1187 0.985 . S
H1194 N1191 0.984 . S
H1195 N1191 0.985 . S
H1196 N1190 0.984 . S
H1197 N1190 0.984 . S
H1198 N1186 0.984 . S
H1199 N1186 0.985 . S
C1200 C1201 1.363 . S
C1200 C1206 1.379 . S
C1200 N1208 1.356 . S
C1201 C1200 1.363 . S
C1201 C1207 1.363 . S
C1202 C1203 1.363 . S
C1202 C1207 1.379 . S
C1202 N1209 1.356 . S
C1203 C1202 1.363 . S
C1203 C1206 1.363 . S
N1204 C1206 1.356 . S
N1204 H1216 0.984 . S
N1204 H1217 0.985 . S
N1205 C1207 1.356 . S
N1205 H1210 0.984 . S
N1205 H1211 0.985 . S
C1206 C1200 1.379 . S
C1206 C1203 1.363 . S
C1206 N1204 1.356 . S
C1207 C1201 1.363 . S
C1207 C1202 1.379 . S
C1207 N1205 1.356 . S
N1208 C1200 1.356 . S
N1208 H1214 0.984 . S
N1208 H1215 0.984 . S
N1209 C1202 1.356 . S
N1209 H1212 0.984 . S
N1209 H1213 0.985 . S
H1210 N1205 0.984 . S
H1211 N1205 0.985 . S
H1212 N1209 0.984 . S
H1213 N1209 0.985 . S
H1214 N1208 0.984 . S
H1215 N1208 0.984 . S
H1216 N1204 0.984 . S
H1217 N1204 0.985 . S
C1218 C1219 1.363 . S
C1218 C1224 1.379 . S
C1218 N1226 1.356 . S
C1219 C1218 1.363 . S
C1219 C1225 1.363 . S
C1220 C1221 1.363 . S
C1220 C1225 1.379 . S
C1220 N1227 1.356 . S
C1221 C1220 1.363 . S
C1221 C1224 1.363 . S
N1222 C1224 1.356 . S
N1222 H1234 0.984 . S
N1222 H1235 0.985 . S
N1223 C1225 1.356 . S
N1223 H1228 0.984 . S
N1223 H1229 0.985 . S
C1224 C1218 1.379 . S
C1224 C1221 1.363 . S
C1224 N1222 1.356 . S
C1225 C1219 1.363 . S
C1225 C1220 1.379 . S
C1225 N1223 1.356 . S
N1226 C1218 1.356 . S
N1226 H1232 0.984 . S
N1226 H1233 0.984 . S
N1227 C1220 1.356 . S
N1227 H1230 0.984 . S
N1227 H1231 0.985 . S
H1228 N1223 0.984 . S
H1229 N1223 0.985 . S
H1230 N1227 0.984 . S
H1231 N1227 0.985 . S
H1232 N1226 0.984 . S
H1233 N1226 0.984 . S
H1234 N1222 0.984 . S
H1235 N1222 0.985 . S
C373 C29 1.814 . S
C375 C61 1.557 . S
C391 C72 1.557 . S
C393 C60 1.814 . S
C409 C64 1.814 . S
C411 C30 1.557 . S
C427 C165 1.557 . S
C429 C122 1.814 . S
C445 C123 1.557 . S
C447 C126 1.814 . S
C463 C157 1.814 . S
C465 C134 1.557 . S
C481 C215 1.814 . S
C483 C227 1.557 . S
C499 C278 1.557 . S
C501 C219 1.814 . S
C517 C277 1.814 . S
C519 C216 1.557 . S
C535 C281 1.814 . S
C537 C351 1.557 . S
C553 C289 1.557 . S
C555 C312 1.814 . S
C571 C320 1.557 . S
C573 C343 1.814 . S
C589 C188 1.213 . S
C591 C2 1.213 . S
C607 C33 1.214 . S
C609 C246 1.214 . S
C625 C91 1.213 . S
C627 C250 1.213 . S
C643 C95 1.213 . S
C645 C308 1.213 . S
C661 C153 1.213 . S
C663 C339 1.213 . S
C679 C370 1.214 . S
C681 C184 1.214 . S
C697 C1 1.157 . S
C699 C309 1.149 . S
C715 C32 1.157 . S
C717 C340 1.149 . S
C733 C371 1.149 . S
C735 C82 1.157 . S
C751 C196 1.149 . S
C753 C94 1.157 . S
C769 C247 1.149 . S
C771 C144 1.157 . S
C787 C258 1.149 . S
C789 C175 1.157 . S
C805 C103 1.149 . S
C807 C187 1.157 . S
C823 C237 1.157 . S
C825 C154 1.149 . S
C841 C249 1.157 . S
C843 C185 1.149 . S
C859 C10 1.149 . S
C861 C299 1.157 . S
C877 C330 1.157 . S
C879 C41 1.149 . S
C895 C92 1.149 . S
C897 C361 1.157 . S
C913 C112 2.473 . S
C915 C19 2.473 . S
C931 C124 2.472 . S
C933 C50 2.472 . S
C949 C155 2.472 . S
C951 C62 2.472 . S
C967 C205 2.473 . S
C969 C279 2.473 . S
C985 C217 2.472 . S
C987 C310 2.472 . S
C1003 C341 2.472 . S
C1005 C267 2.472 . S
C1021 C311 1.432 . S
C1023 C0 1.652 1_556 S
C1039 C31 1.652 1_556 S
C1041 C342 1.432 . S
C1057 C81 1.652 1_556 S
C1059 C280 1.432 . S
C1075 C93 1.652 . S
C1077 C268 1.432 . S
C1093 C206 1.432 . S
C1095 C143 1.652 . S
C1111 C218 1.432 . S
C1113 C174 1.652 . S
C1129 C186 1.652 1_554 S
C1131 C125 1.432 . S
C1147 C236 1.652 1_554 S
C1149 C156 1.432 . S
C1165 C248 1.652 1_554 S
C1167 C113 1.432 . S
C1183 C63 1.432 . S
C1185 C298 1.652 . S
C1201 C20 1.432 . S
C1203 C329 1.652 . S
C1219 C51 1.432 . S
C1221 C360 1.652 . S
