# Generated by pormake.
# Topology umc, (4)-cn, num edge types: 1
# Building blocks:
#     Node 0, Type 0, BuildingBlock: MUDLON_clean_sbu_0, # of connection points: 4
#     Node 1, Type 0, BuildingBlock: MUDLON_clean_sbu_0, # of connection points: 4
#     Node 2, Type 0, BuildingBlock: MUDLON_clean_sbu_0, # of connection points: 4
#     Node 3, Type 0, BuildingBlock: MUDLON_clean_sbu_0, # of connection points: 4
#     Node 4, Type 0, BuildingBlock: MUDLON_clean_sbu_0, # of connection points: 4
#     Node 5, Type 0, BuildingBlock: MUDLON_clean_sbu_0, # of connection points: 4
#     Node 6, Type 0, BuildingBlock: MUDLON_clean_sbu_0, # of connection points: 4
#     Node 7, Type 0, BuildingBlock: MUDLON_clean_sbu_0, # of connection points: 4
#     Node 8, Type 0, BuildingBlock: MUDLON_clean_sbu_0, # of connection points: 4
#     Node 9, Type 0, BuildingBlock: MUDLON_clean_sbu_0, # of connection points: 4
#     Node 10, Type 0, BuildingBlock: MUDLON_clean_sbu_0, # of connection points: 4
#     Node 11, Type 0, BuildingBlock: MUDLON_clean_sbu_0, # of connection points: 4
#     Node 12, Type 0, BuildingBlock: MUDLON_clean_sbu_0, # of connection points: 4
#     Node 13, Type 0, BuildingBlock: MUDLON_clean_sbu_0, # of connection points: 4
#     Node 14, Type 0, BuildingBlock: MUDLON_clean_sbu_0, # of connection points: 4
#     Node 15, Type 0, BuildingBlock: MUDLON_clean_sbu_0, # of connection points: 4
#     Edge 16, Type (0, 0), BuildingBlock: XUDNAN_clean_linker_2, # of connection points: 2
#     Edge 17, Type (0, 0), BuildingBlock: XUDNAN_clean_linker_2, # of connection points: 2
#     Edge 18, Type (0, 0), BuildingBlock: XUDNAN_clean_linker_2, # of connection points: 2
#     Edge 19, Type (0, 0), BuildingBlock: XUDNAN_clean_linker_2, # of connection points: 2
#     Edge 20, Type (0, 0), BuildingBlock: XUDNAN_clean_linker_2, # of connection points: 2
#     Edge 21, Type (0, 0), BuildingBlock: XUDNAN_clean_linker_2, # of connection points: 2
#     Edge 22, Type (0, 0), BuildingBlock: XUDNAN_clean_linker_2, # of connection points: 2
#     Edge 23, Type (0, 0), BuildingBlock: XUDNAN_clean_linker_2, # of connection points: 2
#     Edge 24, Type (0, 0), BuildingBlock: XUDNAN_clean_linker_2, # of connection points: 2
#     Edge 25, Type (0, 0), BuildingBlock: XUDNAN_clean_linker_2, # of connection points: 2
#     Edge 26, Type (0, 0), BuildingBlock: XUDNAN_clean_linker_2, # of connection points: 2
#     Edge 27, Type (0, 0), BuildingBlock: XUDNAN_clean_linker_2, # of connection points: 2
#     Edge 28, Type (0, 0), BuildingBlock: XUDNAN_clean_linker_2, # of connection points: 2
#     Edge 29, Type (0, 0), BuildingBlock: XUDNAN_clean_linker_2, # of connection points: 2
#     Edge 30, Type (0, 0), BuildingBlock: XUDNAN_clean_linker_2, # of connection points: 2
#     Edge 31, Type (0, 0), BuildingBlock: XUDNAN_clean_linker_2, # of connection points: 2
#     Edge 32, Type (0, 0), BuildingBlock: XUDNAN_clean_linker_2, # of connection points: 2
#     Edge 33, Type (0, 0), BuildingBlock: XUDNAN_clean_linker_2, # of connection points: 2
#     Edge 34, Type (0, 0), BuildingBlock: XUDNAN_clean_linker_2, # of connection points: 2
#     Edge 35, Type (0, 0), BuildingBlock: XUDNAN_clean_linker_2, # of connection points: 2
#     Edge 36, Type (0, 0), BuildingBlock: XUDNAN_clean_linker_2, # of connection points: 2
#     Edge 37, Type (0, 0), BuildingBlock: XUDNAN_clean_linker_2, # of connection points: 2
#     Edge 38, Type (0, 0), BuildingBlock: XUDNAN_clean_linker_2, # of connection points: 2
#     Edge 39, Type (0, 0), BuildingBlock: XUDNAN_clean_linker_2, # of connection points: 2
#     Edge 40, Type (0, 0), BuildingBlock: XUDNAN_clean_linker_2, # of connection points: 2
#     Edge 41, Type (0, 0), BuildingBlock: XUDNAN_clean_linker_2, # of connection points: 2
#     Edge 42, Type (0, 0), BuildingBlock: XUDNAN_clean_linker_2, # of connection points: 2
#     Edge 43, Type (0, 0), BuildingBlock: XUDNAN_clean_linker_2, # of connection points: 2
#     Edge 44, Type (0, 0), BuildingBlock: XUDNAN_clean_linker_2, # of connection points: 2
#     Edge 45, Type (0, 0), BuildingBlock: XUDNAN_clean_linker_2, # of connection points: 2
#     Edge 46, Type (0, 0), BuildingBlock: XUDNAN_clean_linker_2, # of connection points: 2
#     Edge 47, Type (0, 0), BuildingBlock: XUDNAN_clean_linker_2, # of connection points: 2
# Relax obj value: 0.000
# Max RMSD: 0.076
# Mean RMSD: 0.076
data_MOF--net-umc--node1-MUDLON_clean_sbu_0--edge1-XUDNAN_clean_linker_2
_symmetry_space_group_name_H-M    P1
_symmetry_Int_Tables_number       1
_symmetry_cell_setting            triclinic
loop_
_symmetry_equiv_pos_as_xyz
'x, y, z'
_cell_length_a     58.80629
_cell_length_b     14.956557
_cell_length_c     60.521162
_cell_angle_alpha  90.034228
_cell_angle_beta   89.858283
_cell_angle_gamma 89.899239
loop_
_atom_site_label
_atom_site_type_symbol
_atom_site_fract_x
_atom_site_fract_y
_atom_site_fract_z
_atom_type_partial_charge
Mg0 Mg 0.39019 0.01779 0.38975 0.0
C1 C 0.39525 0.95728 0.43658 0.0
O2 O 0.41104 0.01897 0.43499 0.0
C3 C 0.38998 0.00571 0.34158 0.0
O4 O 0.39473 0.08973 0.3459 0.0
C5 C 0.35094 0.14304 0.40407 0.0
O6 O 0.35751 0.12391 0.42425 0.0
O7 O 0.3626 0.11495 0.38773 0.0
O8 O 0.38375 0.9377 0.41943 0.0
O9 O 0.42503 0.06805 0.39116 0.0
C10 C 0.44057 0.00863 0.39016 0.0
O11 O 0.43456 0.92435 0.38839 0.0
O12 O 0.38738 0.95193 0.35773 0.0
Mg13 Mg 0.65503 -0.00512 0.38972 0.0
C14 C 0.65179 0.05981 0.43424 0.0
O15 O 0.6395 0.98687 0.43256 0.0
C16 C 0.65703 0.95 0.34368 0.0
O17 O 0.65197 0.87769 0.35499 0.0
C18 C 0.69865 0.90238 0.38703 0.0
O19 O 0.7007 0.97301 0.3743 0.0
O20 O 0.6796 0.88807 0.3965 0.0
O21 O 0.66195 0.08834 0.41698 0.0
O22 O 0.61815 0.97358 0.39189 0.0
C23 C 0.60799 0.04874 0.39046 0.0
O24 O 0.62048 0.12083 0.38792 0.0
O25 O 0.65981 0.02285 0.35432 0.0
Mg26 Mg 0.3835 0.96419 0.13372 0.0
C27 C 0.393 0.07956 0.09401 0.0
O28 O 0.41377 0.0591 0.10013 0.0
C29 C 0.37956 0.92835 0.18024 0.0
O30 O 0.38176 0.85164 0.16986 0.0
C31 C 0.34146 0.86359 0.11633 0.0
O32 O 0.34355 0.91675 0.09919 0.0
O33 O 0.35693 0.86288 0.13102 0.0
O34 O 0.37656 0.05869 0.10675 0.0
O35 O 0.41901 0.9213 0.12965 0.0
C36 C 0.43347 0.95108 0.14347 0.0
O37 O 0.42617 -0.0026 0.16051 0.0
O38 O 0.3797 -4e-05 0.16878 0.0
Mg39 Mg 0.65065 0.00133 0.13275 0.0
C40 C 0.64842 0.92132 0.08729 0.0
O41 O 0.62825 0.95832 0.08919 0.0
C42 C 0.65637 0.00271 0.18133 0.0
O43 O 0.65417 0.0876 0.17617 0.0
C44 C 0.68771 0.13081 0.1176 0.0
O45 O 0.68527 0.08884 0.09869 0.0
O46 O 0.67379 0.11502 0.13326 0.0
O47 O 0.66157 0.92185 0.10401 0.0
O48 O 0.6142 0.02813 0.12863 0.0
C49 C 0.59981 0.0131 0.14395 0.0
O50 O 0.60716 0.99119 0.16369 0.0
O51 O 0.65567 0.94482 0.16583 0.0
Mg52 Mg 0.65338 0.04353 0.63982 0.0
C53 C 0.64908 0.09241 0.59359 0.0
O54 O 0.6333 0.0327 0.59778 0.0
C55 C 0.65496 0.04524 0.68797 0.0
O56 O 0.63926 0.9866 0.68273 0.0
C57 C 0.69446 0.9379 0.63797 0.0
O58 O 0.70059 0.02123 0.64137 0.0
O59 O 0.67328 0.92078 0.63621 0.0
O60 O 0.66172 0.11776 0.60949 0.0
O61 O 0.61598 0.04388 0.64177 0.0
C62 C 0.60139 0.98296 0.63807 0.0
O63 O 0.60833 0.90247 0.63253 0.0
O64 O 0.66453 0.08899 0.67244 0.0
Mg65 Mg 0.3845 0.01473 0.63592 0.0
C66 C 0.36831 0.90637 0.5947 0.0
O67 O 0.34807 0.90986 0.60386 0.0
C68 C 0.383 0.00082 0.68404 0.0
O69 O 0.38607 0.08618 0.67988 0.0
C70 C 0.33614 0.055 0.64002 0.0
O71 O 0.3389 0.97287 0.64723 0.0
O72 O 0.35376 0.09865 0.63412 0.0
O73 O 0.38537 0.93687 0.60519 0.0
O74 O 0.41885 0.07159 0.63693 0.0
C75 C 0.4337 0.00941 0.63565 0.0
O76 O 0.42651 0.92657 0.63387 0.0
O77 O 0.38173 0.94682 0.66777 0.0
Mg78 Mg 0.65054 0.03524 0.89126 0.0
C79 C 0.67527 0.92553 0.92877 0.0
O80 O 0.69437 0.93965 0.91802 0.0
C81 C 0.67719 0.01039 0.84893 0.0
O82 O 0.69266 0.04983 0.86111 0.0
C83 C 0.68514 0.16983 0.91016 0.0
O84 O 0.68174 0.12639 0.92872 0.0
O85 O 0.67216 0.15431 0.89377 0.0
O86 O 0.6566 0.95173 0.92037 0.0
O87 O 0.6133 0.04812 0.89117 0.0
C88 C 0.60426 0.97067 0.89068 0.0
O89 O 0.61786 0.90087 0.89004 0.0
O90 O 0.65873 0.98539 0.85808 0.0
Mg91 Mg 0.38564 0.95267 0.8916 0.0
C92 C 0.39363 0.03701 0.93511 0.0
O93 O 0.40982 0.97682 0.93342 0.0
C94 C 0.37916 0.91425 0.8454 0.0
O95 O 0.38186 0.83776 0.85575 0.0
C96 C 0.33989 0.86983 0.89454 0.0
O97 O 0.33566 0.94946 0.88634 0.0
O98 O 0.36047 0.84872 0.89872 0.0
O99 O 0.38036 0.04864 0.91871 0.0
O100 O 0.42158 0.91249 0.89224 0.0
C101 C 0.4362 0.97438 0.88933 0.0
O102 O 0.42892 0.05646 0.88614 0.0
O103 O 0.37958 0.98596 0.85682 0.0
Mg104 Mg 0.88662 0.48107 0.3963 0.0
C105 C 0.87993 0.44255 0.44244 0.0
O106 O 0.88387 0.52865 0.44048 0.0
C107 C 0.8896 0.47487 0.34743 0.0
O108 O 0.90277 0.54243 0.35272 0.0
C109 C 0.84917 0.61829 0.38648 0.0
O110 O 0.8529 0.59259 0.36605 0.0
O111 O 0.86225 0.59029 0.40173 0.0
O112 O 0.8798 0.39516 0.42492 0.0
O113 O 0.92336 0.50391 0.39818 0.0
C114 C 0.93388 0.42931 0.39783 0.0
O115 O 0.92175 0.3558 0.39643 0.0
O116 O 0.8803 0.43013 0.36296 0.0
Mg117 Mg 0.15126 0.48626 0.39978 0.0
C118 C 0.15801 0.53015 0.44701 0.0
O119 O 0.16166 0.44352 0.44613 0.0
C120 C 0.15297 0.49088 0.35159 0.0
O121 O 0.14982 0.40637 0.35667 0.0
C122 C 0.19854 0.4145 0.40783 0.0
O123 O 0.20032 0.49354 0.41712 0.0
O124 O 0.17943 0.39039 0.39993 0.0
O125 O 0.1535 0.57156 0.42915 0.0
O126 O 0.11699 0.43052 0.40071 0.0
C127 C 0.10099 0.4881 0.4001 0.0
O128 O 0.10636 0.57325 0.39908 0.0
O129 O 0.15421 0.54776 0.36725 0.0
Mg130 Mg 0.88409 0.47676 0.13917 0.0
C131 C 0.89058 0.55134 0.09437 0.0
O132 O 0.90509 0.48459 0.09532 0.0
C133 C 0.87687 0.445 0.18565 0.0
O134 O 0.87755 0.3669 0.17574 0.0
C135 C 0.84219 0.38007 0.12027 0.0
O136 O 0.84464 0.43616 0.10375 0.0
O137 O 0.85723 0.37725 0.13534 0.0
O138 O 0.87924 0.57091 0.11171 0.0
O139 O 0.91909 0.42826 0.13784 0.0
C140 C 0.93438 0.48824 0.13933 0.0
O141 O 0.92804 0.57226 0.14103 0.0
O142 O 0.87952 0.51528 0.17397 0.0
Mg143 Mg 0.1484 0.51176 0.14377 0.0
C144 C 0.14263 0.43682 0.09998 0.0
O145 O 0.12795 0.50265 0.10193 0.0
C146 C 0.15383 0.55198 0.18966 0.0
O147 O 0.14852 0.62601 0.17917 0.0
C148 C 0.18574 0.62691 0.12271 0.0
O149 O 0.1838 0.56988 0.10633 0.0
O150 O 0.17136 0.62467 0.13847 0.0
O151 O 0.15519 0.41828 0.1165 0.0
O152 O 0.11142 0.53017 0.14356 0.0
C153 C 0.10165 0.45502 0.14639 0.0
O154 O 0.11451 0.3842 0.14953 0.0
O155 O 0.15541 0.47991 0.17845 0.0
Mg156 Mg 0.14617 0.46957 0.64045 0.0
C157 C 0.14193 0.61314 0.60439 0.0
O158 O 0.12104 0.62086 0.61187 0.0
C159 C 0.14998 0.42011 0.68624 0.0
O160 O 0.1461 0.3469 0.67485 0.0
C161 C 0.19125 0.38623 0.63414 0.0
O162 O 0.19574 0.47169 0.6366 0.0
O163 O 0.17051 0.36134 0.63432 0.0
O164 O 0.15613 0.56571 0.61508 0.0
O165 O 0.1102 0.4386 0.63484 0.0
C166 C 0.09513 0.48874 0.64368 0.0
O167 O 0.10175 0.55408 0.65667 0.0
O168 O 0.15075 0.49421 0.67584 0.0
Mg169 Mg 0.88052 0.51581 0.64063 0.0
C170 C 0.87555 0.35984 0.60272 0.0
O171 O 0.87997 0.2927 0.61601 0.0
C172 C 0.86612 0.48801 0.68851 0.0
O173 O 0.84929 0.53951 0.68211 0.0
C174 C 0.83341 0.56673 0.63501 0.0
O175 O 0.83472 0.47924 0.63341 0.0
O176 O 0.85175 0.61 0.63856 0.0
O177 O 0.8751 0.43943 0.61016 0.0
O178 O 0.91637 0.55517 0.63662 0.0
C179 C 0.92815 0.4846 0.63334 0.0
O180 O 0.91762 0.40725 0.63328 0.0
O181 O 0.88018 0.45902 0.6741 0.0
Mg182 Mg 0.15141 0.46977 0.89622 0.0
C183 C 0.14262 0.41053 0.9417 0.0
O184 O 0.12815 0.47606 0.9383 0.0
C185 C 0.15628 0.4701 0.84832 0.0
O186 O 0.15194 0.55347 0.85378 0.0
C187 C 0.19725 0.52609 0.90366 0.0
O188 O 0.19639 0.43839 0.90462 0.0
O189 O 0.1788 0.56849 0.89994 0.0
O190 O 0.15537 0.38593 0.92577 0.0
O191 O 0.11471 0.49947 0.89511 0.0
C192 C 0.10406 0.4261 0.89223 0.0
O193 O 0.11616 0.35271 0.88988 0.0
O194 O 0.15783 0.41217 0.8637 0.0
Mg195 Mg 0.88706 0.48781 0.8964 0.0
C196 C 0.8689 0.60324 0.93589 0.0
O197 O 0.8493 0.60289 0.92552 0.0
C198 C 0.87214 0.54335 0.8503 0.0
O199 O 0.85221 0.51848 0.85795 0.0
C200 C 0.84348 0.38378 0.91108 0.0
O201 O 0.84971 0.40364 0.93132 0.0
O202 O 0.85658 0.4035 0.89501 0.0
O203 O 0.88624 0.56862 0.92657 0.0
O204 O 0.92057 0.4241 0.89789 0.0
C205 C 0.93672 0.48086 0.89897 0.0
O206 O 0.93148 0.56625 0.89981 0.0
O207 O 0.8888 0.54924 0.86364 0.0
H208 H 0.41941 0.97508 0.47481 0.0
H209 H 0.35759 0.85893 0.44847 0.0
H210 H 0.34589 0.81591 0.48632 0.0
H211 H 0.42793 0.81032 0.52016 0.0
H212 H 0.43826 0.89534 0.53869 0.0
H213 H 0.44302 0.90568 0.50937 0.0
H214 H 0.42373 0.0616 0.50984 0.0
H215 H 0.41887 0.05167 0.53906 0.0
H216 H 0.39531 0.07263 0.52078 0.0
H217 H 0.33869 0.80453 0.5276 0.0
H218 H 0.3371 0.82237 0.5682 0.0
H219 H 0.40421 0.94234 0.56715 0.0
C220 C 0.40363 0.93879 0.47689 0.0
C221 C 0.38944 0.9202 0.45863 0.0
C222 C 0.36884 0.87329 0.46216 0.0
C223 C 0.36205 0.84862 0.48362 0.0
C224 C 0.3762 0.87021 0.50132 0.0
C225 C 0.39671 0.91333 0.49811 0.0
C226 C 0.40812 0.93472 0.51989 0.0
C227 C 0.43067 0.88343 0.52215 0.0
C228 C 0.4117 0.03615 0.52254 0.0
C229 C 0.39046 0.89998 0.53596 0.0
C230 C 0.37226 0.86221 0.52498 0.0
C231 C 0.35306 0.83236 0.53635 0.0
C232 C 0.35229 0.84288 0.55944 0.0
C233 C 0.37061 0.88289 0.57094 0.0
C234 C 0.39011 0.90977 0.55897 0.0
H235 H 0.61932 0.07435 0.55985 0.0
H236 H 0.68699 0.17173 0.5745 0.0
H237 H 0.69375 0.19597 0.53437 0.0
H238 H 0.63396 0.94836 0.51501 0.0
H239 H 0.60833 0.97012 0.49963 0.0
H240 H 0.6079 0.97582 0.52926 0.0
H241 H 0.59237 0.138 0.52738 0.0
H242 H 0.59271 0.13274 0.49763 0.0
H243 H 0.60762 0.22111 0.51172 0.0
H244 H 0.69421 0.18989 0.49138 0.0
H245 H 0.68861 0.15087 0.45179 0.0
H246 H 0.62076 0.05677 0.46706 0.0
C247 C 0.63542 0.10282 0.55476 0.0
C248 C 0.65261 0.12136 0.57034 0.0
C249 C 0.67347 0.1579 0.56288 0.0
C250 C 0.67744 0.17174 0.5401 0.0
C251 C 0.66026 0.14978 0.52509 0.0
C252 C 0.63957 0.11686 0.53231 0.0
C253 C 0.62449 0.09029 0.51324 0.0
C254 C 0.61833 0.99026 0.51436 0.0
C255 C 0.60303 0.14907 0.51245 0.0
C256 C 0.64012 0.11002 0.49403 0.0
C257 C 0.66057 0.14578 0.50095 0.0
C258 C 0.67809 0.1633 0.48586 0.0
C259 C 0.67476 0.14141 0.46338 0.0
C260 C 0.65422 0.10122 0.45638 0.0
C261 C 0.63661 0.08798 0.47189 0.0
H262 H 0.42417 0.08942 0.0607 0.0
H263 H 0.35222 0.12416 0.07417 0.0
H264 H 0.34513 0.14241 0.03409 0.0
H265 H 0.42844 0.23904 1.01155 0.0
H266 H 0.44785 0.16333 0.99798 0.0
H267 H 0.44763 0.17154 0.02769 0.0
H268 H 0.44106 0.00061 0.03053 0.0
H269 H 0.44119 0.99192 1.00093 0.0
H270 H 0.41715 0.95137 0.01648 0.0
H271 H 0.34556 0.13691 0.99172 0.0
H272 H 0.35316 0.09947 0.95244 0.0
H273 H 0.4245 0.06237 0.96771 0.0
C274 C 0.40698 0.10391 0.05539 0.0
C275 C 0.38879 0.10646 0.0707 0.0
C276 C 0.36649 0.12302 0.06284 0.0
C277 C 0.36232 0.13354 0.04006 0.0
C278 C 0.38061 0.12743 0.02535 0.0
C279 C 0.40253 0.1132 0.03282 0.0
C280 C 0.41888 0.09765 1.01386 0.0
C281 C 0.43676 0.17237 1.01271 0.0
C282 C 0.43021 0.00491 1.01556 0.0
C283 C 0.40271 0.10246 0.9945 0.0
C284 C 0.38077 0.12159 1.00129 0.0
C285 C 0.36276 0.1233 0.98625 0.0
C286 C 0.36722 0.10239 0.96393 0.0
C287 C 0.38943 0.0785 0.95701 0.0
C288 C 0.40738 0.08117 0.97246 0.0
H289 H 0.63902 0.91219 0.95704 0.0
H290 H 0.71227 0.87839 0.95415 0.0
H291 H 0.71297 0.85391 0.99458 0.0
H292 H 0.6382 0.0397 1.00425 0.0
H293 H 0.61221 -0.00606 1.01527 0.0
H294 H 0.61708 -0.00627 0.98594 0.0
H295 H 0.61101 0.82221 0.98481 0.0
H296 H 0.60599 0.82189 1.0142 0.0
H297 H 0.62772 0.75097 1.0025 0.0
H298 H 0.70595 0.852 0.03626 0.0
H299 H 0.69195 0.87438 0.07452 0.0
H300 H 0.62351 0.91047 0.04941 0.0
C301 C 0.65519 0.89715 0.96473 0.0
C302 C 0.67558 0.89664 0.95229 0.0
C303 C 0.69637 0.8784 0.96322 0.0
C304 C 0.69694 0.86439 0.98622 0.0
C305 C 0.67656 0.86824 0.99807 0.0
C306 C 0.65605 0.88356 0.98759 0.0
C307 C 0.6368 0.89301 1.00408 0.0
C308 C 0.62542 0.98557 1.00227 0.0
C309 C 0.61935 0.8175 1.00123 0.0
C310 C 0.64971 0.88327 0.02555 0.0
C311 C 0.67258 0.86783 0.02184 0.0
C312 C 0.688 0.86263 0.03931 0.0
C313 C 0.6799 0.87527 0.06102 0.0
C314 C 0.65661 0.89371 0.06504 0.0
C315 C 0.64138 0.89563 0.047 0.0
H316 H 0.86615 0.48718 0.57188 0.0
H317 H 0.88054 0.20381 0.57839 0.0
H318 H 0.8802 0.189 0.53752 0.0
H319 H 0.82931 0.47338 0.52353 0.0
H320 H 0.84046 0.57562 0.51211 0.0
H321 H 0.83957 0.56013 0.54161 0.0
H322 H 0.88286 0.59156 0.54379 0.0
H323 H 0.88391 0.60686 0.51435 0.0
H324 H 0.90221 0.52565 0.52731 0.0
H325 H 0.88081 0.21034 0.49486 0.0
H326 H 0.8832 0.26603 0.4562 0.0
H327 H 0.8691 0.53464 0.47955 0.0
C328 C 0.86891 0.42141 0.56486 0.0
C329 C 0.87332 0.34657 0.57844 0.0
C330 C 0.87699 0.26212 0.56837 0.0
C331 C 0.87683 0.25313 0.54516 0.0
C332 C 0.87287 0.32912 0.53227 0.0
C333 C 0.8689 0.4115 0.54193 0.0
C334 C 0.86649 0.48444 0.52485 0.0
C335 C 0.84253 0.52579 0.52557 0.0
C336 C 0.88497 0.5563 0.52775 0.0
C337 C 0.87013 0.43103 0.50396 0.0
C338 C 0.87355 0.34134 0.50835 0.0
C339 C 0.87798 0.28039 0.49132 0.0
C340 C 0.87926 0.31244 0.46941 0.0
C341 C 0.87639 0.40466 0.46484 0.0
C342 C 0.87144 0.46375 0.48242 0.0
H343 H 0.1723 0.53251 0.57667 0.0
H344 H 0.12129 0.74183 0.57907 0.0
H345 H 0.12434 0.75996 0.5385 0.0
H346 H 0.20626 0.61912 0.52856 0.0
H347 H 0.21036 0.50761 0.51795 0.0
H348 H 0.20796 0.52575 0.54732 0.0
H349 H 0.1749 0.41168 0.54904 0.0
H350 H 0.17703 0.39378 0.51976 0.0
H351 H 0.15032 0.42813 0.53175 0.0
H352 H 0.12955 0.74145 0.49701 0.0
H353 H 0.13455 0.68189 0.45906 0.0
H354 H 0.17997 0.47781 0.48434 0.0
C355 C 0.16246 0.58483 0.56881 0.0
C356 C 0.14689 0.63713 0.5811 0.0
C357 C 0.13359 0.70207 0.57002 0.0
C358 C 0.13524 0.71284 0.54698 0.0
C359 C 0.15015 0.65768 0.53522 0.0
C360 C 0.16355 0.59493 0.54584 0.0
C361 C 0.17573 0.53512 0.52943 0.0
C362 C 0.20161 0.5477 0.5309 0.0
C363 C 0.16908 0.4364 0.53269 0.0
C364 C 0.16652 0.57178 0.50793 0.0
C365 C 0.15226 0.64395 0.51149 0.0
C366 C 0.14092 0.68571 0.49405 0.0
C367 C 0.14387 0.65162 0.47254 0.0
C368 C 0.15764 0.57533 0.46879 0.0
C369 C 0.16939 0.53641 0.4867 0.0
H370 H 0.90398 0.57212 0.96456 0.0
H371 H 0.83591 0.68364 0.96149 0.0
H372 H 0.83596 0.70215 1.00213 0.0
H373 H 0.89454 0.44144 1.01029 0.0
H374 H 0.92246 0.45516 0.02203 0.0
H375 H 0.91856 0.46546 0.99271 0.0
H376 H 0.93653 0.62352 0.99361 0.0
H377 H 0.94057 0.61359 0.02302 0.0
H378 H 0.925 0.70724 1.01195 0.0
H379 H 0.84198 0.69195 0.04387 0.0
H380 H 0.8528 0.64875 0.08197 0.0
H381 H 0.91638 0.54098 0.05703 0.0
C382 C 0.8893 0.60299 0.97229 0.0
C383 C 0.87002 0.62728 0.95972 0.0
C384 C 0.85098 0.66522 0.97069 0.0
C385 C 0.85087 0.67612 0.9938 0.0
C386 C 0.86994 0.64894 1.00575 0.0
C387 C 0.88884 0.61345 0.99528 0.0
C388 C 0.90623 0.58064 1.01182 0.0
C389 C 0.91069 0.47973 1.00905 0.0
C390 C 0.92839 0.63449 1.00999 0.0
C391 C 0.89393 0.60063 0.03326 0.0
C392 C 0.87319 0.64145 0.02954 0.0
C393 C 0.85834 0.66118 0.04695 0.0
C394 C 0.86464 0.63668 0.06857 0.0
C395 C 0.88547 0.59182 0.07253 0.0
C396 C 0.90041 0.57575 0.05461 0.0
H397 H 0.11147 0.43103 0.06736 0.0
H398 H 0.18067 0.35296 0.08253 0.0
H399 H 0.18677 0.31244 0.04314 0.0
H400 H 0.10079 0.26329 0.02246 0.0
H401 H 0.08454 0.34387 1.00695 0.0
H402 H 0.08462 0.34815 0.03672 0.0
H403 H 0.09787 0.51326 0.03516 0.0
H404 H 0.09798 0.50941 1.00553 0.0
H405 H 0.12341 0.541 0.02013 0.0
H406 H 0.18665 0.30475 1.00057 0.0
H407 H 0.18047 0.33208 0.96056 0.0
H408 H 0.11144 0.41678 0.97459 0.0
C409 C 0.12773 0.40276 0.06257 0.0
C410 C 0.14557 0.39469 0.07799 0.0
C411 C 0.16666 0.35844 0.07103 0.0
C412 C 0.17025 0.33551 0.04867 0.0
C413 C 0.15248 0.34804 0.03365 0.0
C414 C 0.13151 0.37984 0.04052 0.0
C415 C 0.11587 0.39727 0.02122 0.0
C416 C 0.09524 0.33436 0.02188 0.0
C417 C 0.10837 0.49605 0.02048 0.0
C418 C 0.13153 0.37437 1.00223 0.0
C419 C 0.15246 0.34437 1.00956 0.0
C420 C 0.17016 0.32645 0.99472 0.0
C421 C 0.16651 0.34186 0.97201 0.0
C422 C 0.14544 0.37618 0.96449 0.0
C423 C 0.12767 0.38986 0.97982 0.0
H424 H 0.57503 0.91578 0.39008 0.0
H425 H 0.58396 0.20366 0.39358 0.0
H426 H 0.54252 0.22418 0.39456 0.0
H427 H 0.52635 0.92052 0.3545 0.0
H428 H 0.51215 0.82826 0.36778 0.0
H429 H 0.54272 0.83489 0.36815 0.0
H430 H 0.54232 0.82596 0.4109 0.0
H431 H 0.51174 0.81912 0.41065 0.0
H432 H 0.52561 0.90524 0.42648 0.0
H433 H 0.50009 0.21537 0.39441 0.0
H434 H 0.4593 0.17624 0.3931 0.0
H435 H 0.47732 0.89489 0.3894 0.0
C436 C 0.56824 0.98298 0.3912 0.0
C437 C 0.58286 0.058 0.39174 0.0
C438 C 0.57324 0.14493 0.39308 0.0
C439 C 0.54965 0.1575 0.39368 0.0
C440 C 0.53572 0.08256 0.39293 0.0
C441 C 0.54458 -0.00305 0.39174 0.0
C442 C 0.52566 0.92824 0.39069 0.0
C443 C 0.5268 0.87485 0.36899 0.0
C444 C 0.52638 0.86597 0.41088 0.0
C445 C 0.50491 0.9888 0.39135 0.0
C446 C 0.51111 0.07754 0.39272 0.0
C447 C 0.49498 0.14601 0.39338 0.0
C448 C 0.47185 0.12318 0.39261 0.0
C449 C 0.46504 0.03263 0.39114 0.0
C450 C 0.4819 0.96482 0.39053 0.0
H451 H 0.46785 0.97284 0.17321 0.0
H452 H 0.45507 0.92222 0.10375 0.0
H453 H 0.49631 0.93593 0.096 0.0
H454 H 0.51065 0.13543 0.16634 0.0
H455 H 0.52767 0.098 0.18928 0.0
H456 H 0.49739 0.08037 0.18951 0.0
H457 H 0.5035 0.91027 0.1951 0.0
H458 H 0.5338 0.92754 0.19527 0.0
H459 H 0.5214 0.84943 0.17609 0.0
H460 H 0.53887 0.96736 0.09568 0.0
H461 H 0.57961 -0.00635 0.10339 0.0
H462 H 0.56431 0.01738 0.17333 0.0
C463 C 0.47374 0.96341 0.15639 0.0
C464 C 0.45825 0.94642 0.13907 0.0
C465 C 0.46665 0.93448 0.11731 0.0
C466 C 0.49002 0.94285 0.11274 0.0
C467 C 0.50475 0.96204 0.13015 0.0
C468 C 0.49695 0.97045 0.15161 0.0
C469 C 0.51622 0.99041 0.16743 0.0
C470 C 0.51276 0.08146 0.1788 0.0
C471 C 0.51889 0.9149 0.18447 0.0
C472 C 0.53611 0.99283 0.15152 0.0
C473 C 0.52916 0.97727 0.13006 0.0
C474 C 0.5445 0.97877 0.11245 0.0
C475 C 0.56759 -0.00555 0.11698 0.0
C476 C 0.57517 0.0074 0.13897 0.0
C477 C 0.55909 0.00735 0.15636 0.0
H478 H 0.56492 0.87065 0.63112 0.0
H479 H 0.58178 0.14565 0.64706 0.0
H480 H 0.54095 0.18402 0.64777 0.0
H481 H 0.51784 0.92 0.59536 0.0
H482 H 0.50112 0.82613 0.60454 0.0
H483 H 0.5317 0.82036 0.60536 0.0
H484 H 0.53013 0.78288 0.64714 0.0
H485 H 0.49955 0.78822 0.64643 0.0
H486 H 0.51509 0.85667 0.66569 0.0
H487 H 0.49761 0.1928 0.64632 0.0
H488 H 0.45594 0.16873 0.64393 0.0
H489 H 0.46795 0.88845 0.6293 0.0
C490 C 0.56007 0.93893 0.63481 0.0
C491 C 0.57668 0.00498 0.63903 0.0
C492 C 0.56946 0.09358 0.64378 0.0
C493 C 0.54626 0.11621 0.64419 0.0
C494 C 0.53034 0.04961 0.63986 0.0
C495 C 0.53696 0.96268 0.63533 0.0
C496 C 0.51652 0.90342 0.63136 0.0
C497 C 0.51682 0.86526 0.60775 0.0
C498 C 0.51525 0.82839 0.64869 0.0
C499 C 0.49738 0.97041 0.63438 0.0
C500 C 0.50562 0.05454 0.63919 0.0
C501 C 0.49099 0.12705 0.64258 0.0
C502 C 0.46735 0.1129 0.64116 0.0
C503 C 0.45859 0.02682 0.63648 0.0
C504 C 0.47397 0.95518 0.63298 0.0
H505 H 0.56927 0.09639 0.88887 0.0
H506 H 0.58238 0.81102 0.89329 0.0
H507 H 0.54132 0.78167 0.89366 0.0
H508 H 0.5196 0.0979 0.92461 0.0
H509 H 0.50449 0.18006 0.90853 0.0
H510 H 0.53513 0.17995 0.90885 0.0
H511 H 0.5358 0.16892 0.86614 0.0
H512 H 0.50517 0.16895 0.86569 0.0
H513 H 0.52075 0.07926 0.85269 0.0
H514 H 0.49882 0.78127 0.8936 0.0
H515 H 0.4575 0.8114 0.89258 0.0
H516 H 0.47125 0.0959 0.88772 0.0
C517 C 0.56348 0.02785 0.88997 0.0
C518 C 0.57921 0.95618 0.89106 0.0
C519 C 0.57083 0.86737 0.89241 0.0
C520 C 0.54745 0.84974 0.89265 0.0
C521 C 0.53244 0.92145 0.89151 0.0
C522 C 0.54003 0.00877 0.89016 0.0
C523 C 0.52009 0.07317 0.88889 0.0
C524 C 0.51982 0.13651 0.90892 0.0
C525 C 0.52048 0.12566 0.86705 0.0
C526 C 0.50024 0.00826 0.88967 0.0
C527 C 0.50778 0.92109 0.89126 0.0
C528 C 0.49268 0.84932 0.89234 0.0
C529 C 0.46923 0.86706 0.89176 0.0
C530 C 0.46104 0.95585 0.89003 0.0
C531 C 0.47688 0.02714 0.88898 0.0
H532 H 0.96595 0.56556 0.39786 0.0
H533 H 0.95899 0.27662 0.4001 0.0
H534 H 1.00055 0.26054 0.40128 0.0
H535 H 1.01553 0.56849 0.36281 0.0
H536 H 0.02868 0.66145 0.37674 0.0
H537 H 0.99817 0.65128 0.37649 0.0
H538 H 0.99744 0.65752 0.41927 0.0
H539 H 0.02795 0.66778 0.41964 0.0
H540 H 1.01432 0.5791 0.43483 0.0
H541 H 0.04296 0.27412 0.40185 0.0
H542 H 0.08347 0.31805 0.40171 0.0
H543 H 0.06342 0.59743 0.39901 0.0
C544 C 0.97318 0.49902 0.39868 0.0
C545 C 0.95908 0.42246 0.39889 0.0
C546 C 0.9693 0.33651 0.39989 0.0
C547 C 0.99297 0.32646 0.40059 0.0
C548 C 1.00637 0.40292 0.40027 0.0
C549 C 0.99692 0.4876 0.39935 0.0
C550 C 1.01535 0.55846 0.39896 0.0
C551 C 1.01437 0.61313 0.37747 0.0
C552 C 1.01366 0.61929 0.4194 0.0
C553 C 0.03652 0.50023 0.39977 0.0
C554 C 0.03094 0.41072 0.40055 0.0
C555 C 0.04756 0.3441 0.40127 0.0
C556 C 0.07054 0.36966 0.40119 0.0
C557 C 0.0767 0.46107 0.40036 0.0
C558 C 0.05934 0.52691 0.39967 0.0
H559 H 0.06833 0.58601 0.14321 0.0
H560 H 0.07817 0.29847 0.1468 0.0
H561 H 0.03686 0.27596 0.14459 0.0
H562 H 1.0176 0.59213 0.17674 0.0
H563 H 1.00407 0.67876 0.16076 0.0
H564 H 0.03462 0.67305 0.16212 0.0
H565 H 0.03674 0.66677 0.11938 0.0
H566 H 1.00618 0.67228 0.11789 0.0
H567 H 0.02121 0.58144 0.10477 0.0
H568 H 0.99448 0.28304 0.14196 0.0
H569 H 0.9536 0.32093 0.14032 0.0
H570 H 0.97074 0.6032 0.13907 0.0
C571 C 0.06178 0.5184 0.1435 0.0
C572 C 0.07659 0.44412 0.14517 0.0
C573 C 0.06727 0.35668 0.14557 0.0
C574 C 0.04377 0.34297 0.14427 0.0
C575 C 0.02965 0.41729 0.14264 0.0
C576 C 0.03822 0.50335 0.14233 0.0
C577 C 0.01913 0.57141 0.14088 0.0
C578 C 0.01884 0.63242 0.16134 0.0
C579 C 0.02093 0.6262 0.11945 0.0
C580 C 0.9986 0.51003 0.14049 0.0
C581 C 1.00507 0.42138 0.1414 0.0
C582 C 0.98917 0.35229 0.14125 0.0
C583 C 0.96598 0.37442 0.14029 0.0
C584 C 0.95891 0.46491 0.1396 0.0
C585 C 0.97554 0.53331 0.13962 0.0
H586 H 0.9612 0.59395 0.65185 0.0
H587 H 0.9513 0.37257 0.60657 0.0
H588 H 0.99275 0.35378 0.60315 0.0
H589 H 1.01387 0.68257 0.62557 0.0
H590 H 0.02672 0.70969 0.65173 0.0
H591 H 0.99623 0.71267 0.64883 0.0
H592 H 0.99231 0.60287 0.68169 0.0
H593 H 0.02276 0.59875 0.68453 0.0
H594 H 1.00692 0.49686 0.68071 0.0
H595 H 0.03494 0.34996 0.60666 0.0
H596 H 0.07559 0.36583 0.61596 0.0
H597 H 0.05898 0.58765 0.65948 0.0
C598 C 0.96784 0.54335 0.64077 0.0
C599 C 0.95303 0.48523 0.62931 0.0
C600 C 0.96233 0.41802 0.61544 0.0
C601 C 0.98588 0.40675 0.61337 0.0
C602 C 1.00006 0.46299 0.62535 0.0
C603 C 0.9915 0.53043 0.63868 0.0
C604 C 1.01066 0.57781 0.65072 0.0
C605 C 1.01194 0.67655 0.64379 0.0
C606 C 1.00799 0.56848 0.6759 0.0
C607 C 0.03113 0.52555 0.64231 0.0
C608 C 0.0246 0.45997 0.6276 0.0
C609 C 0.04032 0.4016 0.61803 0.0
C610 C 0.06339 0.41088 0.62348 0.0
C611 C 0.07059 0.47787 0.63844 0.0
C612 C 0.05411 0.53577 0.64795 0.0
H613 H 0.07173 0.5607 0.89802 0.0
H614 H 0.07899 0.27499 0.88704 0.0
H615 H 0.03752 0.25767 0.88824 0.0
H616 H 0.02424 0.5462 0.93585 0.0
H617 H 1.01004 0.64402 0.92524 0.0
H618 H 0.04055 0.63523 0.92354 0.0
H619 H 0.03877 0.6599 0.88121 0.0
H620 H 1.00827 0.66912 0.88281 0.0
H621 H 0.02113 0.58805 0.86459 0.0
H622 H 0.99507 0.26927 0.89089 0.0
H623 H 0.95448 0.3118 0.8936 0.0
H624 H 0.97418 0.58914 0.90252 0.0
C625 C 0.06458 0.49465 0.89581 0.0
C626 C 0.07879 0.41935 0.89245 0.0
C627 C 0.06864 0.33401 0.88966 0.0
C628 C 0.045 0.32318 0.89034 0.0
C629 C 0.03149 0.39826 0.89379 0.0
C630 C 0.04083 0.48246 0.89639 0.0
C631 C 0.02229 0.55192 0.89969 0.0
C632 C 0.02441 0.59698 0.92243 0.0
C633 C 0.02264 0.62134 0.88096 0.0
C634 C 1.00121 0.49348 0.8985 0.0
C635 C 1.00691 0.40499 0.89517 0.0
C636 C 0.99037 0.33847 0.89349 0.0
C637 C 0.96734 0.36316 0.89509 0.0
C638 C 0.96105 0.45366 0.89827 0.0
C639 C 0.97834 0.51927 0.90009 0.0
H640 H 0.23623 0.40641 0.43418 0.0
H641 H 0.20774 0.3015 0.37345 0.0
H642 H 0.24414 0.22473 0.36539 0.0
H643 H 0.29232 0.44526 0.41492 0.0
H644 H 0.30616 0.40864 0.43988 0.0
H645 H 0.27785 0.45458 0.44113 0.0
H646 H 0.26334 0.31135 0.4606 0.0
H647 H 0.29167 0.26547 0.45971 0.0
H648 H 0.26831 0.20388 0.44796 0.0
H649 H 0.28461 0.17053 0.36248 0.0
H650 H 0.32428 0.12115 0.36765 0.0
H651 H 0.32566 0.25043 0.43186 0.0
C652 C 0.23762 0.36647 0.4193 0.0
C653 C 0.21924 0.35992 0.40438 0.0
C654 C 0.22158 0.30675 0.38516 0.0
C655 C 0.24223 0.26355 0.38037 0.0
C656 C 0.2602 0.27283 0.3952 0.0
C657 C 0.25793 0.32117 0.41455 0.0
C658 C 0.27962 0.31805 0.42805 0.0
C659 C 0.28957 0.41224 0.43117 0.0
C660 C 0.27548 0.27192 0.4504 0.0
C661 C 0.29458 0.26151 0.41312 0.0
C662 C 0.28313 0.23733 0.39411 0.0
C663 C 0.29364 0.18811 0.37741 0.0
C664 C 0.31626 0.16098 0.38044 0.0
C665 C 0.32806 0.18172 0.40019 0.0
C666 C 0.31705 0.23322 0.41665 0.0
H667 H 0.73369 0.87295 0.3587 0.0
H668 H 0.70984 0.80855 0.42462 0.0
H669 H 0.74672 0.73399 0.43251 0.0
H670 H 0.76434 0.66422 0.34965 0.0
H671 H 0.78656 0.71803 0.33402 0.0
H672 H 0.75821 0.76373 0.33394 0.0
H673 H 0.77423 0.91608 0.34706 0.0
H674 H 0.80257 0.87037 0.3476 0.0
H675 H 0.79074 0.92112 0.3721 0.0
H676 H 0.78777 0.67633 0.43366 0.0
H677 H 0.82665 0.61992 0.42629 0.0
H678 H 0.82222 0.7168 0.35888 0.0
C679 C 0.73613 0.84225 0.37473 0.0
C680 C 0.71899 0.84651 0.39109 0.0
C681 C 0.72272 0.80525 0.41181 0.0
C682 C 0.74366 0.76357 0.41647 0.0
C683 C 0.76047 0.76275 0.4001 0.0
C684 C 0.75667 0.79939 0.37948 0.0
C685 C 0.77713 0.78814 0.3645 0.0
C686 C 0.7712 0.73005 0.34434 0.0
C687 C 0.78673 0.87936 0.35741 0.0
C688 C 0.79324 0.74018 0.37993 0.0
C689 C 0.78349 0.72705 0.40049 0.0
C690 C 0.79544 0.68567 0.41756 0.0
C691 C 0.81761 0.65457 0.41327 0.0
C692 C 0.82748 0.66395 0.392 0.0
C693 C 0.81515 0.70854 0.3753 0.0
H694 H 0.21642 0.67794 0.09068 0.0
H695 H 0.20457 0.68257 0.16151 0.0
H696 H 0.24347 0.73891 0.16734 0.0
H697 H 0.27355 0.60771 0.09161 0.0
H698 H 0.2831 0.67907 0.06948 0.0
H699 H 0.25395 0.64257 0.07042 0.0
H700 H 0.24006 0.80696 0.0695 0.0
H701 H 0.26916 0.84396 0.0681 0.0
H702 H 0.25069 0.88521 0.08963 0.0
H703 H 0.28481 0.77785 0.16586 0.0
H704 H 0.3238 0.82638 0.15695 0.0
H705 H 0.30838 0.81011 0.08695 0.0
C706 C 0.22189 0.69251 0.10737 0.0
C707 C 0.20744 0.67578 0.12564 0.0
C708 C 0.21522 0.69554 0.14724 0.0
C709 C 0.23738 0.72682 0.15074 0.0
C710 C 0.25143 0.73981 0.13247 0.0
C711 C 0.24384 0.72582 0.11116 0.0
C712 C 0.26232 0.74719 0.09443 0.0
C713 C 0.26859 0.66417 0.08068 0.0
C714 C 0.25513 0.8255 0.07954 0.0
C715 C 0.2816 0.77367 0.1097 0.0
C716 C 0.27501 0.76746 0.13158 0.0
C717 C 0.29008 0.78431 0.14879 0.0
C718 C 0.31228 0.811 0.14354 0.0
C719 C 0.31914 0.82221 0.12125 0.0
C720 C 0.30359 0.80242 0.10414 0.0
H721 H 0.71851 0.19975 0.08785 0.0
H722 H 0.70606 0.16608 0.15811 0.0
H723 H 0.74457 0.22198 0.1661 0.0
H724 H 0.77599 0.13301 0.08731 0.0
H725 H 0.78536 0.21566 0.06764 0.0
H726 H 0.7564 0.17673 0.06714 0.0
H727 H 0.74166 0.33929 0.07108 0.0
H728 H 0.77057 0.37892 0.07117 0.0
H729 H 0.75167 0.40761 0.09358 0.0
H730 H 0.78559 0.26647 0.16636 0.0
H731 H 0.82434 0.32271 0.15942 0.0
H732 H 0.80971 0.33839 0.08924 0.0
C733 C 0.72375 0.20565 0.10493 0.0
C734 C 0.70925 0.17837 0.12234 0.0
C735 C 0.71676 0.18709 0.14448 0.0
C736 C 0.7387 0.21811 0.1492 0.0
C737 C 0.75281 0.24171 0.13164 0.0
C738 C 0.74549 0.23815 0.10998 0.0
C739 C 0.764 0.26914 0.09425 0.0
C740 C 0.77083 0.19414 0.07814 0.0
C741 C 0.75653 0.35378 0.08179 0.0
C742 C 0.78296 0.28918 0.11044 0.0
C743 C 0.77621 0.27166 0.13189 0.0
C744 C 0.79098 0.28158 0.14967 0.0
C745 C 0.81305 0.31281 0.14552 0.0
C746 C 0.82005 0.33513 0.12379 0.0
C747 C 0.80482 0.32218 0.10603 0.0
H748 H 0.74033 0.95803 0.64385 0.0
H749 H 0.68911 0.75901 0.62834 0.0
H750 H 0.71933 0.64408 0.62529 0.0
H751 H 0.78372 0.87625 0.60703 0.0
H752 H 0.80672 0.90027 0.62573 0.0
H753 H 0.78115 0.9667 0.62659 0.0
H754 H 0.77631 0.9309 0.6682 0.0
H755 H 0.8019 0.86456 0.6675 0.0
H756 H 0.77566 0.81595 0.67712 0.0
H757 H 0.75505 0.55169 0.62391 0.0
H758 H 0.79331 0.48591 0.6251 0.0
H759 H 0.82173 0.74509 0.64183 0.0
C760 C 0.73538 0.89031 0.63978 0.0
C761 C 0.71227 0.86758 0.63628 0.0
C762 C 0.70664 0.77805 0.63108 0.0
C763 C 0.72371 0.71243 0.62929 0.0
C764 C 0.7463 0.73741 0.63278 0.0
C765 C 0.75216 0.82415 0.63798 0.0
C766 C 0.77766 0.83338 0.64119 0.0
C767 C 0.78791 0.89798 0.62411 0.0
C768 C 0.7832 0.86293 0.66492 0.0
C769 C 0.78533 0.73803 0.63698 0.0
C770 C 0.76692 0.68402 0.63211 0.0
C771 C 0.76955 0.59337 0.62771 0.0
C772 C 0.79146 0.55669 0.62845 0.0
C773 C 0.81067 0.61017 0.63359 0.0
C774 C 0.80748 0.7024 0.63779 0.0
H775 H 0.23693 0.42229 0.63138 0.0
H776 H 0.18879 0.20276 0.63421 0.0
H777 H 0.22079 0.09532 0.63453 0.0
H778 H 0.2787 0.31077 0.59581 0.0
H779 H 0.30264 0.35954 0.6099 0.0
H780 H 0.27599 0.41894 0.60872 0.0
H781 H 0.2755 0.43041 0.65142 0.0
H782 H 0.30208 0.37074 0.65275 0.0
H783 H 0.27769 0.32994 0.66774 0.0
H784 H 0.25772 0.01284 0.63702 0.0
H785 H 0.29706 0.95877 0.64 0.0
H786 H 0.3219 0.23122 0.63477 0.0
C787 C 0.23306 0.35157 0.63184 0.0
C788 C 0.21027 0.32095 0.63276 0.0
C789 C 0.20604 0.22785 0.63341 0.0
C790 C 0.22412 0.16635 0.63363 0.0
C791 C 0.24634 0.19894 0.63302 0.0
C792 C 0.2509 0.2893 0.63196 0.0
C793 C 0.27636 0.30675 0.63197 0.0
C794 C 0.28386 0.35165 0.61031 0.0
C795 C 0.28331 0.36277 0.65217 0.0
C796 C 0.28545 0.21199 0.63357 0.0
C797 C 0.26777 0.15107 0.63413 0.0
C798 C 0.27167 0.05985 0.63641 0.0
C799 C 0.29417 0.02991 0.63819 0.0
C800 C 0.31267 0.09067 0.63761 0.0
C801 C 0.30818 0.18305 0.63508 0.0
H802 H 0.71841 0.2072 0.94079 0.0
H803 H 0.70169 0.2394 0.87139 0.0
H804 H 0.74033 0.29626 0.86421 0.0
H805 H 0.75453 0.40821 0.94487 0.0
H806 H 0.77413 0.35504 0.9636 0.0
H807 H 0.74465 0.32243 0.96346 0.0
H808 H 0.75674 0.15796 0.95683 0.0
H809 H 0.78622 0.1902 0.95656 0.0
H810 H 0.77439 0.13086 0.93336 0.0
H811 H 0.78188 0.33599 0.86385 0.0
H812 H 0.82191 0.37449 0.87109 0.0
H813 H 0.81158 0.32229 0.94097 0.0
C814 C 0.72268 0.22796 0.92416 0.0
C815 C 0.70689 0.21863 0.90666 0.0
C816 C 0.71334 0.24608 0.88512 0.0
C817 C 0.73534 0.27809 0.88083 0.0
C818 C 0.75069 0.28344 0.89829 0.0
C819 C 0.74454 0.26084 0.91961 0.0
C820 C 0.7644 0.27203 0.93535 0.0
C821 C 0.75911 0.34371 0.95285 0.0
C822 C 0.77081 0.18242 0.94616 0.0
C823 C 0.78278 0.30311 0.91948 0.0
C824 C 0.77452 0.30864 0.89817 0.0
C825 C 0.78845 0.33294 0.88052 0.0
C826 C 0.81125 0.35417 0.8848 0.0
C827 C 0.81999 0.35182 0.90662 0.0
C828 C 0.80548 0.32511 0.92412 0.0
H829 H 0.21066 0.69689 0.8908 0.0
H830 H 0.23484 0.45429 0.92243 0.0
H831 H 0.27334 0.51711 0.92446 0.0
H832 H 0.25963 0.73133 0.8574 0.0
H833 H 0.25974 0.8514 0.85997 0.0
H834 H 0.2334 0.79086 0.86229 0.0
H835 H 0.226 0.86215 0.90066 0.0
H836 H 0.25226 0.92343 0.89839 0.0
H837 H 0.24726 0.85232 0.92193 0.0
H838 H 0.30985 0.60093 0.92127 0.0
H839 H 0.34176 0.70431 0.91408 0.0
H840 H 0.29466 0.8935 0.88462 0.0
C841 C 0.22399 0.65784 0.89849 0.0
C842 C 0.21964 0.57059 0.90647 0.0
C843 C 0.23767 0.52111 0.91612 0.0
C844 C 0.25967 0.55622 0.9174 0.0
C845 C 0.26357 0.64128 0.90899 0.0
C846 C 0.24627 0.69191 0.89984 0.0
C847 C 0.25543 0.78034 0.89134 0.0
C848 C 0.25183 0.78894 0.86626 0.0
C849 C 0.24459 0.85923 0.90383 0.0
C850 C 0.2805 0.77064 0.89694 0.0
C851 C 0.28478 0.68996 0.90716 0.0
C852 C 0.3067 0.66473 0.91342 0.0
C853 C 0.32475 0.72377 0.90922 0.0
C854 C 0.3208 0.80716 0.89885 0.0
C855 C 0.2983 0.83049 0.89268 0.0
H856 H 0.39525 0.10697 0.30413 0.0
H857 H 0.37751 0.83984 0.32627 0.0
H858 H 0.37141 0.79434 0.28745 0.0
H859 H 0.35457 0.12072 0.25974 0.0
H860 H 0.37345 0.18047 0.24149 0.0
H861 H 0.37623 0.19264 0.27098 0.0
H862 H 0.41849 0.14451 0.26852 0.0
H863 H 0.41589 0.1327 0.23902 0.0
H864 H 0.42576 0.03995 0.25543 0.0
H865 H 0.36769 0.77753 0.24651 0.0
H866 H 0.36777 0.78751 0.20596 0.0
H867 H 0.38776 0.06638 0.20991 0.0
C868 C 0.39007 0.0388 0.30087 0.0
C869 C 0.38683 0.97686 0.31831 0.0
C870 C 0.38011 0.88838 0.31324 0.0
C871 C 0.37655 0.86206 0.29124 0.0
C872 C 0.37976 0.92499 0.27451 0.0
C873 C 0.38644 0.01145 0.27903 0.0
C874 C 0.3891 0.06555 0.25794 0.0
C875 C 0.37233 0.14452 0.25752 0.0
C876 C 0.41378 0.09753 0.25506 0.0
C877 C 0.38296 -0.00419 0.24078 0.0
C878 C 0.37757 0.91537 0.25078 0.0
C879 C 0.37184 0.84015 0.23852 0.0
C880 C 0.37197 0.84664 0.21545 0.0
C881 C 0.37776 0.9278 0.2047 0.0
C882 C 0.38303 0.00377 0.21762 0.0
H883 H 0.65701 0.11344 0.21749 0.0
H884 H 0.66036 0.83347 0.1987 0.0
H885 H 0.66271 0.7915 0.23816 0.0
H886 H 0.69595 0.09976 0.26408 0.0
H887 H 0.67999 0.17824 0.2806 0.0
H888 H 0.67957 0.18658 0.2509 0.0
H889 H 0.63559 0.17773 0.25134 0.0
H890 H 0.63586 0.16936 0.28102 0.0
H891 H 0.62187 0.08471 0.26479 0.0
H892 H 0.66311 0.77979 0.27942 0.0
H893 H 0.66136 0.79733 0.31976 0.0
H894 H 0.65789 0.08579 0.31228 0.0
C895 C 0.65841 0.0432 0.22161 0.0
C896 C 0.65854 0.9766 0.20492 0.0
C897 C 0.66027 0.88562 0.21112 0.0
C898 C 0.66164 0.86122 0.2335 0.0
C899 C 0.66132 0.92857 0.24948 0.0
C900 C 0.65978 0.01773 0.24384 0.0
C901 C 0.65912 0.07683 0.26427 0.0
C902 C 0.6799 0.13902 0.265 0.0
C903 C 0.63678 0.13029 0.26542 0.0
C904 C 0.66024 0.00685 0.28237 0.0
C905 C 0.66159 0.92187 0.27339 0.0
C906 C 0.66216 0.84597 0.28661 0.0
C907 C 0.6611 0.85684 0.30957 0.0
C908 C 0.65948 0.94304 0.31928 0.0
C909 C 0.65931 0.01914 0.30541 0.0
H910 H 0.64638 0.95219 0.81772 0.0
H911 H 0.71265 0.07659 0.82458 0.0
H912 H 0.71422 0.10058 0.7843 0.0
H913 H 0.65841 0.83994 0.76497 0.0
H914 H 0.63001 0.85803 0.75476 0.0
H915 H 0.63483 0.84636 0.784 0.0
H916 H 0.61492 -0.00129 0.79069 0.0
H917 H 0.61036 0.01152 0.76145 0.0
H918 H 0.62525 0.09691 0.77664 0.0
H919 H 0.70729 0.12135 0.74322 0.0
H920 H 0.69395 0.12253 0.70439 0.0
H921 H 0.63276 0.98232 0.72448 0.0
C922 C 0.66142 0.98297 0.81074 0.0
C923 C 0.67939 0.01233 0.82443 0.0
C924 C 0.69866 0.0531 0.81453 0.0
C925 C 0.6997 0.06746 0.79162 0.0
C926 C 0.68141 0.04015 0.7787 0.0
C927 C 0.66279 -0.00249 0.78786 0.0
C928 C 0.64528 0.97561 0.77036 0.0
C929 C 0.64195 0.87395 0.76841 0.0
C930 C 0.62261 0.02357 0.77508 0.0
C931 C 0.65684 0.01344 0.75 0.0
C932 C 0.67762 0.05082 0.75512 0.0
C933 C 0.69111 0.0916 0.739 0.0
C934 C 0.68334 0.09255 0.71701 0.0
C935 C 0.66235 0.05247 0.71135 0.0
C936 C 0.64894 0.01325 0.7282 0.0
H937 H 0.38354 0.05519 0.81584 0.0
H938 H 0.36935 0.7708 0.81961 0.0
H939 H 0.36789 0.76254 0.77907 0.0
H940 H 0.34738 0.10075 0.76772 0.0
H941 H 0.36701 0.18015 0.75598 0.0
H942 H 0.36566 0.16526 0.78549 0.0
H943 H 0.40888 0.13133 0.78618 0.0
H944 H 0.41032 0.14554 0.75667 0.0
H945 H 0.42011 0.04293 0.76905 0.0
H946 H 0.3698 0.78225 0.73798 0.0
H947 H 0.3739 0.83114 0.69913 0.0
H948 H 0.38687 0.10198 0.72165 0.0
C949 C 0.3798 0.99159 0.80812 0.0
C950 C 0.37656 0.91372 0.82099 0.0
C951 C 0.37197 0.83147 0.81019 0.0
C952 C 0.37107 0.82594 0.78711 0.0
C953 C 0.37477 0.90324 0.77489 0.0
C954 C 0.37892 0.98468 0.78496 0.0
C955 C 0.38299 0.05687 0.76781 0.0
C956 C 0.36467 0.13008 0.76934 0.0
C957 C 0.407 0.09647 0.77007 0.0
C958 C 0.38068 0.00299 0.74667 0.0
C959 C 0.37588 0.91455 0.75111 0.0
C960 C 0.37343 0.85154 0.73426 0.0
C961 C 0.37584 0.87981 0.71224 0.0
C962 C 0.38068 0.97028 0.70727 0.0
C963 C 0.3831 0.03232 0.72482 0.0
H964 H 0.89474 0.56162 0.21668 0.0
H965 H 0.85144 0.32914 0.20927 0.0
H966 H 0.84879 0.3146 0.24974 0.0
H967 H 0.92655 0.47657 0.26118 0.0
H968 H 0.92922 0.58119 0.27574 0.0
H969 H 0.92579 0.58066 0.24619 0.0
H970 H 0.89048 0.68351 0.24973 0.0
H971 H 0.89397 0.68523 0.2793 0.0
H972 H 0.86729 0.65067 0.26748 0.0
H973 H 0.85286 0.31786 0.29087 0.0
H974 H 0.86264 0.34235 0.33012 0.0
H975 H 0.90412 0.56993 0.31125 0.0
C976 C 0.88423 0.50932 0.22365 0.0
C977 C 0.87312 0.44698 0.20985 0.0
C978 C 0.86003 0.37778 0.21955 0.0
C979 C 0.85841 0.36892 0.24253 0.0
C980 C 0.87008 0.42954 0.25572 0.0
C981 C 0.88264 0.49877 0.24671 0.0
C982 C 0.89461 0.55124 0.26471 0.0
C983 C 0.92058 0.54712 0.26177 0.0
C984 C 0.88607 0.64843 0.26534 0.0
C985 C 0.88703 0.49992 0.28509 0.0
C986 C 0.87277 0.43034 0.27953 0.0
C987 C 0.86391 0.37255 0.29547 0.0
C988 C 0.86962 0.38673 0.31772 0.0
C989 C 0.88417 0.45784 0.32384 0.0
C990 C 0.89297 0.51481 0.30719 0.0
H991 H 0.14969 0.38278 0.31512 0.0
H992 H 0.16121 0.65835 0.3347 0.0
H993 H 0.16481 0.70087 0.29536 0.0
H994 H 0.18883 0.37991 0.26863 0.0
H995 H 0.17075 0.31052 0.25184 0.0
H996 H 0.16983 0.30096 0.2815 0.0
H997 H 0.12645 0.3311 0.2811 0.0
H998 H 0.1272 0.34039 0.25145 0.0
H999 H 0.11575 0.43054 0.26786 0.0
H1000 H 0.16592 0.71416 0.25419 0.0
H1001 H 0.16352 0.69962 0.2138 0.0
H1002 H 0.15146 0.41459 0.22045 0.0
C1003 C 0.15308 0.45211 0.31119 0.0
C1004 C 0.1552 0.51735 0.32806 0.0
C1005 C 0.15952 0.60727 0.32212 0.0
C1006 C 0.16165 0.63194 0.29982 0.0
C1007 C 0.15947 0.5659 0.28366 0.0
C1008 C 0.15524 0.47785 0.28904 0.0
C1009 C 0.15297 0.42041 0.26845 0.0
C1010 C 0.17171 0.34871 0.26756 0.0
C1011 C 0.12918 0.37815 0.26714 0.0
C1012 C 0.15633 0.49017 0.25058 0.0
C1013 C 0.16016 0.57348 0.2598 0.0
C1014 C 0.16303 0.64925 0.24681 0.0
C1015 C 0.16159 0.64015 0.22383 0.0
C1016 C 0.15733 0.55589 0.21391 0.0
C1017 C 0.15501 0.47961 0.22751 0.0
H1018 H 0.15306 0.58118 0.81244 0.0
H1019 H 0.16335 0.30311 0.83051 0.0
H1020 H 0.16454 0.26235 0.79091 0.0
H1021 H 0.11625 0.54159 0.76724 0.0
H1022 H 0.12748 0.63056 0.75038 0.0
H1023 H 0.1287 0.6387 0.78003 0.0
H1024 H 0.17231 0.66168 0.77799 0.0
H1025 H 0.17122 0.65379 0.7483 0.0
H1026 H 0.18967 0.58057 0.76371 0.0
H1027 H 0.16266 0.25099 0.74968 0.0
H1028 H 0.15831 0.26843 0.70953 0.0
H1029 H 0.14951 0.55484 0.71782 0.0
C1030 C 0.15577 0.5117 0.80813 0.0
C1031 C 0.15815 0.44521 0.82464 0.0
C1032 C 0.16155 0.35517 0.8182 0.0
C1033 C 0.16225 0.33145 0.79575 0.0
C1034 C 0.15963 0.3986 0.77994 0.0
C1035 C 0.15654 0.48694 0.78582 0.0
C1036 C 0.1535 0.54579 0.7656 0.0
C1037 C 0.13009 0.59185 0.76584 0.0
C1038 C 0.17283 0.61451 0.7638 0.0
C1039 C 0.15506 0.47652 0.74736 0.0
C1040 C 0.15867 0.39216 0.75607 0.0
C1041 C 0.15998 0.31675 0.74269 0.0
C1042 C 0.15741 0.32751 0.71985 0.0
C1043 C 0.15358 0.41311 0.71045 0.0
C1044 C 0.15261 0.48872 0.72446 0.0
H1045 H 0.83657 0.51118 0.72313 0.0
H1046 H 0.90726 0.45338 0.70805 0.0
H1047 H 0.91678 0.4678 0.74767 0.0
H1048 H 0.84584 0.67368 0.76433 0.0
H1049 H 0.82285 0.63823 0.782 0.0
H1050 H 0.82126 0.61967 0.75264 0.0
H1051 H 0.8152 0.45009 0.75903 0.0
H1052 H 0.81628 0.46839 0.78843 0.0
H1053 H 0.83524 0.38871 0.77568 0.0
H1054 H 0.91903 0.50172 0.78868 0.0
H1055 H 0.91294 0.527 0.82859 0.0
H1056 H 0.84045 0.55528 0.81714 0.0
C1057 C 0.854 0.50004 0.72821 0.0
C1058 C 0.87117 0.48107 0.71247 0.0
C1059 C 0.89377 0.46709 0.71979 0.0
C1060 C 0.89938 0.476 0.74226 0.0
C1061 C 0.88215 0.49763 0.75724 0.0
C1062 C 0.85982 0.50734 0.75058 0.0
C1063 C 0.84443 0.52895 0.77001 0.0
C1064 C 0.83292 0.62058 0.76706 0.0
C1065 C 0.82675 0.45459 0.77349 0.0
C1066 C 0.86162 0.531 0.78863 0.0
C1067 C 0.88332 0.5139 0.78088 0.0
C1068 C 0.90207 0.5143 0.79494 0.0
C1069 C 0.89845 0.52959 0.81759 0.0
C1070 C 0.87621 0.54316 0.82606 0.0
C1071 C 0.85766 0.54517 0.81122 0.0
loop_
_geom_bond_atom_site_label_1
_geom_bond_atom_site_label_2
_geom_bond_distance
_geom_bond_site_symmetry_2
_ccdc_geom_bond_type
Mg0 O7 2.141 . S
Mg0 O8 2.048 . S
Mg0 O9 2.048 . S
Mg0 O12 2.141 . S
C1 O2 1.313 . S
C1 O8 1.195 . S
O2 C1 1.313 . S
C3 O4 1.245 . S
C3 O12 1.289 . S
O4 C3 1.245 . S
C5 O6 1.245 . S
C5 O7 1.289 . S
O6 C5 1.245 . S
O7 Mg0 2.141 . S
O7 C5 1.289 . S
O8 Mg0 2.048 . S
O8 C1 1.195 . S
O9 Mg0 2.048 . S
O9 C10 1.195 . S
C10 O9 1.195 . S
C10 O11 1.313 . S
O11 C10 1.313 . S
O12 Mg0 2.141 . S
O12 C3 1.289 . S
Mg13 O20 2.141 . S
Mg13 O21 2.048 . S
Mg13 O22 2.048 . S
Mg13 O25 2.141 . S
C14 O15 1.313 . S
C14 O21 1.195 . S
O15 C14 1.313 . S
C16 O17 1.245 . S
C16 O25 1.289 . S
O17 C16 1.245 . S
C18 O19 1.245 . S
C18 O20 1.289 . S
O19 C18 1.245 . S
O20 Mg13 2.141 . S
O20 C18 1.289 . S
O21 Mg13 2.048 . S
O21 C14 1.195 . S
O22 Mg13 2.048 . S
O22 C23 1.195 . S
C23 O22 1.195 . S
C23 O24 1.313 . S
O24 C23 1.313 . S
O25 Mg13 2.141 . S
O25 C16 1.289 . S
Mg26 O33 2.141 . S
Mg26 O34 2.048 . S
Mg26 O35 2.048 . S
Mg26 O38 2.141 . S
C27 O28 1.313 . S
C27 O34 1.195 . S
O28 C27 1.313 . S
C29 O30 1.245 . S
C29 O38 1.289 . S
O30 C29 1.245 . S
C31 O32 1.245 . S
C31 O33 1.289 . S
O32 C31 1.245 . S
O33 Mg26 2.141 . S
O33 C31 1.289 . S
O34 Mg26 2.048 . S
O34 C27 1.195 . S
O35 Mg26 2.048 . S
O35 C36 1.195 . S
C36 O35 1.195 . S
C36 O37 1.313 . S
O37 C36 1.313 . S
O38 Mg26 2.141 . S
O38 C29 1.289 . S
Mg39 O46 2.141 . S
Mg39 O47 2.048 . S
Mg39 O48 2.048 . S
Mg39 O51 2.141 . S
C40 O41 1.313 . S
C40 O47 1.195 . S
O41 C40 1.313 . S
C42 O43 1.245 . S
C42 O51 1.289 . S
O43 C42 1.245 . S
C44 O45 1.245 . S
C44 O46 1.289 . S
O45 C44 1.245 . S
O46 Mg39 2.141 . S
O46 C44 1.289 . S
O47 Mg39 2.048 . S
O47 C40 1.195 . S
O48 Mg39 2.048 . S
O48 C49 1.195 . S
C49 O48 1.195 . S
C49 O50 1.313 . S
O50 C49 1.313 . S
O51 Mg39 2.141 . S
O51 C42 1.289 . S
Mg52 O59 2.141 . S
Mg52 O60 2.048 . S
Mg52 O61 2.048 . S
Mg52 O64 2.141 . S
C53 O54 1.313 . S
C53 O60 1.195 . S
O54 C53 1.313 . S
C55 O56 1.245 1_565 S
C55 O64 1.289 . S
O56 C55 1.245 1_545 S
C57 O58 1.245 . S
C57 O59 1.289 . S
O58 C57 1.245 . S
O59 Mg52 2.141 . S
O59 C57 1.289 . S
O60 Mg52 2.048 . S
O60 C53 1.195 . S
O61 Mg52 2.048 . S
O61 C62 1.195 . S
C62 O61 1.195 . S
C62 O63 1.313 1_565 S
O63 C62 1.313 1_545 S
O64 Mg52 2.141 . S
O64 C55 1.289 . S
Mg65 O72 2.141 . S
Mg65 O73 2.048 . S
Mg65 O74 2.048 . S
Mg65 O77 2.141 . S
C66 O67 1.313 . S
C66 O73 1.195 . S
O67 C66 1.313 . S
C68 O69 1.245 1_545 S
C68 O77 1.289 . S
O69 C68 1.245 1_565 S
C70 O71 1.245 . S
C70 O72 1.289 . S
O71 C70 1.245 . S
O72 Mg65 2.141 . S
O72 C70 1.289 . S
O73 Mg65 2.048 . S
O73 C66 1.195 . S
O74 Mg65 2.048 . S
O74 C75 1.195 . S
C75 O74 1.195 . S
C75 O76 1.313 1_545 S
O76 C75 1.313 1_565 S
O77 Mg65 2.141 . S
O77 C68 1.289 . S
Mg78 O85 2.141 . S
Mg78 O86 2.048 . S
Mg78 O87 2.048 . S
Mg78 O90 2.141 . S
C79 O80 1.313 . S
C79 O86 1.195 . S
O80 C79 1.313 . S
C81 O82 1.245 1_545 S
C81 O90 1.289 . S
O82 C81 1.245 1_565 S
C83 O84 1.245 . S
C83 O85 1.289 . S
O84 C83 1.245 . S
O85 Mg78 2.141 . S
O85 C83 1.289 . S
O86 Mg78 2.048 . S
O86 C79 1.195 . S
O87 Mg78 2.048 . S
O87 C88 1.195 . S
C88 O87 1.195 . S
C88 O89 1.313 1_545 S
O89 C88 1.313 1_565 S
O90 Mg78 2.141 . S
O90 C81 1.289 . S
Mg91 O98 2.141 . S
Mg91 O99 2.048 . S
Mg91 O100 2.048 . S
Mg91 O103 2.141 . S
C92 O93 1.313 . S
C92 O99 1.195 . S
O93 C92 1.313 . S
C94 O95 1.245 1_565 S
C94 O103 1.289 . S
O95 C94 1.245 1_545 S
C96 O97 1.245 . S
C96 O98 1.289 . S
O97 C96 1.245 . S
O98 Mg91 2.141 . S
O98 C96 1.289 . S
O99 Mg91 2.048 . S
O99 C92 1.195 . S
O100 Mg91 2.048 . S
O100 C101 1.195 . S
C101 O100 1.195 . S
C101 O102 1.313 1_565 S
O102 C101 1.313 1_545 S
O103 Mg91 2.141 . S
O103 C94 1.289 . S
Mg104 O111 2.141 . S
Mg104 O112 2.048 . S
Mg104 O113 2.048 . S
Mg104 O116 2.141 . S
C105 O106 1.313 . S
C105 O112 1.195 . S
O106 C105 1.313 . S
C107 O108 1.245 . S
C107 O116 1.289 . S
O108 C107 1.245 . S
C109 O110 1.245 . S
C109 O111 1.289 . S
O110 C109 1.245 . S
O111 Mg104 2.141 . S
O111 C109 1.289 . S
O112 Mg104 2.048 . S
O112 C105 1.195 . S
O113 Mg104 2.048 . S
O113 C114 1.195 . S
C114 O113 1.195 . S
C114 O115 1.313 . S
O115 C114 1.313 . S
O116 Mg104 2.141 . S
O116 C107 1.289 . S
Mg117 O124 2.141 . S
Mg117 O125 2.048 . S
Mg117 O126 2.048 . S
Mg117 O129 2.141 . S
C118 O119 1.313 . S
C118 O125 1.195 . S
O119 C118 1.313 . S
C120 O121 1.245 . S
C120 O129 1.289 . S
O121 C120 1.245 . S
C122 O123 1.245 . S
C122 O124 1.289 . S
O123 C122 1.245 . S
O124 Mg117 2.141 . S
O124 C122 1.289 . S
O125 Mg117 2.048 . S
O125 C118 1.195 . S
O126 Mg117 2.048 . S
O126 C127 1.195 . S
C127 O126 1.195 . S
C127 O128 1.313 . S
O128 C127 1.313 . S
O129 Mg117 2.141 . S
O129 C120 1.289 . S
Mg130 O137 2.141 . S
Mg130 O138 2.048 . S
Mg130 O139 2.048 . S
Mg130 O142 2.141 . S
C131 O132 1.313 . S
C131 O138 1.195 . S
O132 C131 1.313 . S
C133 O134 1.245 . S
C133 O142 1.289 . S
O134 C133 1.245 . S
C135 O136 1.245 . S
C135 O137 1.289 . S
O136 C135 1.245 . S
O137 Mg130 2.141 . S
O137 C135 1.289 . S
O138 Mg130 2.048 . S
O138 C131 1.195 . S
O139 Mg130 2.048 . S
O139 C140 1.195 . S
C140 O139 1.195 . S
C140 O141 1.313 . S
O141 C140 1.313 . S
O142 Mg130 2.141 . S
O142 C133 1.289 . S
Mg143 O150 2.141 . S
Mg143 O151 2.048 . S
Mg143 O152 2.048 . S
Mg143 O155 2.141 . S
C144 O145 1.313 . S
C144 O151 1.195 . S
O145 C144 1.313 . S
C146 O147 1.245 . S
C146 O155 1.289 . S
O147 C146 1.245 . S
C148 O149 1.245 . S
C148 O150 1.289 . S
O149 C148 1.245 . S
O150 Mg143 2.141 . S
O150 C148 1.289 . S
O151 Mg143 2.048 . S
O151 C144 1.195 . S
O152 Mg143 2.048 . S
O152 C153 1.195 . S
C153 O152 1.195 . S
C153 O154 1.313 . S
O154 C153 1.313 . S
O155 Mg143 2.141 . S
O155 C146 1.289 . S
Mg156 O163 2.141 . S
Mg156 O164 2.048 . S
Mg156 O165 2.048 . S
Mg156 O168 2.141 . S
C157 O158 1.313 . S
C157 O164 1.195 . S
O158 C157 1.313 . S
C159 O160 1.245 . S
C159 O168 1.289 . S
O160 C159 1.245 . S
C161 O162 1.245 . S
C161 O163 1.289 . S
O162 C161 1.245 . S
O163 Mg156 2.141 . S
O163 C161 1.289 . S
O164 Mg156 2.048 . S
O164 C157 1.195 . S
O165 Mg156 2.048 . S
O165 C166 1.195 . S
C166 O165 1.195 . S
C166 O167 1.313 . S
O167 C166 1.313 . S
O168 Mg156 2.141 . S
O168 C159 1.289 . S
Mg169 O176 2.141 . S
Mg169 O177 2.048 . S
Mg169 O178 2.048 . S
Mg169 O181 2.141 . S
C170 O171 1.313 . S
C170 O177 1.195 . S
O171 C170 1.313 . S
C172 O173 1.245 . S
C172 O181 1.289 . S
O173 C172 1.245 . S
C174 O175 1.245 . S
C174 O176 1.289 . S
O175 C174 1.245 . S
O176 Mg169 2.141 . S
O176 C174 1.289 . S
O177 Mg169 2.048 . S
O177 C170 1.195 . S
O178 Mg169 2.048 . S
O178 C179 1.195 . S
C179 O178 1.195 . S
C179 O180 1.313 . S
O180 C179 1.313 . S
O181 Mg169 2.141 . S
O181 C172 1.289 . S
Mg182 O189 2.141 . S
Mg182 O190 2.048 . S
Mg182 O191 2.048 . S
Mg182 O194 2.141 . S
C183 O184 1.313 . S
C183 O190 1.195 . S
O184 C183 1.313 . S
C185 O186 1.245 . S
C185 O194 1.289 . S
O186 C185 1.245 . S
C187 O188 1.245 . S
C187 O189 1.289 . S
O188 C187 1.245 . S
O189 Mg182 2.141 . S
O189 C187 1.289 . S
O190 Mg182 2.048 . S
O190 C183 1.195 . S
O191 Mg182 2.048 . S
O191 C192 1.195 . S
C192 O191 1.195 . S
C192 O193 1.313 . S
O193 C192 1.313 . S
O194 Mg182 2.141 . S
O194 C185 1.289 . S
Mg195 O202 2.141 . S
Mg195 O203 2.048 . S
Mg195 O204 2.048 . S
Mg195 O207 2.141 . S
C196 O197 1.313 . S
C196 O203 1.195 . S
O197 C196 1.313 . S
C198 O199 1.245 . S
C198 O207 1.289 . S
O199 C198 1.245 . S
C200 O201 1.245 . S
C200 O202 1.289 . S
O201 C200 1.245 . S
O202 Mg195 2.141 . S
O202 C200 1.289 . S
O203 Mg195 2.048 . S
O203 C196 1.195 . S
O204 Mg195 2.048 . S
O204 C205 1.195 . S
C205 O204 1.195 . S
C205 O206 1.313 . S
O206 C205 1.313 . S
O207 Mg195 2.141 . S
O207 C198 1.289 . S
H208 C220 0.930 . S
H209 C222 0.930 1_565 S
H210 C223 0.930 . S
H211 C227 0.959 . S
H212 C227 0.959 . S
H213 C227 0.961 . S
H214 C228 0.960 . S
H215 C228 0.961 . S
H216 C228 0.959 . S
H217 C231 0.929 . S
H218 C232 0.931 1_565 S
H219 C234 0.930 . S
C220 H208 0.930 . S
C220 C221 1.399 . S
C220 C225 1.399 . S
C221 C220 1.399 . S
C221 C222 1.376 . S
C222 H209 0.930 1_545 S
C222 C221 1.376 . S
C222 C223 1.388 1_545 S
C223 H210 0.930 . S
C223 C222 1.388 1_565 S
C223 C224 1.390 1_565 S
C224 C223 1.390 1_545 S
C224 C225 1.394 . S
C224 C230 1.465 . S
C225 C220 1.399 . S
C225 C224 1.394 . S
C225 C226 1.516 . S
C226 C225 1.516 . S
C226 C227 1.502 . S
C226 C228 1.561 . S
C226 C229 1.526 . S
C227 H211 0.959 . S
C227 H212 0.959 . S
C227 H213 0.961 . S
C227 C226 1.502 . S
C228 H214 0.960 . S
C228 H215 0.961 . S
C228 H216 0.959 . S
C228 C226 1.561 . S
C229 C226 1.526 . S
C229 C230 1.396 . S
C229 C234 1.390 . S
C230 C224 1.465 . S
C230 C229 1.396 . S
C230 C231 1.399 1_545 S
C231 H217 0.929 . S
C231 C230 1.399 1_565 S
C231 C232 1.385 1_565 S
C232 H218 0.931 1_545 S
C232 C231 1.385 1_545 S
C232 C233 1.389 . S
C233 C232 1.389 . S
C233 C234 1.387 . S
C234 H219 0.930 . S
C234 C229 1.390 . S
C234 C233 1.387 . S
H235 C247 0.930 1_545 S
H236 C249 0.930 . S
H237 C250 0.930 . S
H238 C254 0.959 1_565 S
H239 C254 0.959 . S
H240 C254 0.961 . S
H241 C255 0.960 . S
H242 C255 0.961 . S
H243 C255 0.959 . S
H244 C258 0.929 . S
H245 C259 0.931 . S
H246 C261 0.930 1_545 S
C247 H235 0.930 1_565 S
C247 C248 1.399 . S
C247 C252 1.399 . S
C248 C247 1.399 . S
C248 C249 1.376 . S
C249 H236 0.930 . S
C249 C248 1.376 . S
C249 C250 1.388 . S
C250 H237 0.930 . S
C250 C249 1.388 . S
C250 C251 1.390 . S
C251 C250 1.390 . S
C251 C252 1.394 . S
C251 C257 1.465 . S
C252 C247 1.399 . S
C252 C251 1.394 . S
C252 C253 1.516 . S
C253 C252 1.516 . S
C253 C254 1.502 1_565 S
C253 C255 1.561 1_565 S
C253 C256 1.526 . S
C254 H238 0.959 1_545 S
C254 H239 0.959 . S
C254 H240 0.961 . S
C254 C253 1.502 1_545 S
C255 H241 0.960 . S
C255 H242 0.961 . S
C255 H243 0.959 . S
C255 C253 1.561 1_545 S
C256 C253 1.526 . S
C256 C257 1.396 . S
C256 C261 1.390 . S
C257 C251 1.465 . S
C257 C256 1.396 . S
C257 C258 1.399 . S
C258 H244 0.929 . S
C258 C257 1.399 . S
C258 C259 1.385 . S
C259 H245 0.931 . S
C259 C258 1.385 . S
C259 C260 1.389 . S
C260 C259 1.389 . S
C260 C261 1.387 . S
C261 H246 0.930 1_565 S
C261 C256 1.390 . S
C261 C260 1.387 . S
H262 C274 0.930 . S
H263 C276 0.930 1_545 S
H264 C277 0.930 1_545 S
H265 C281 0.962 . S
H266 C281 0.978 . S
H267 C281 0.940 1_554 S
H268 C282 0.958 1_554 S
H269 C282 0.963 . S
H270 C282 0.959 . S
H271 C285 0.936 . S
H272 C286 0.931 1_545 S
H273 C288 0.930 . S
C274 H262 0.930 . S
C274 C275 1.399 . S
C274 C279 1.399 . S
C275 C274 1.399 . S
C275 C276 1.376 . S
C276 H263 0.930 1_565 S
C276 C275 1.376 . S
C276 C277 1.388 . S
C277 H264 0.930 1_565 S
C277 C276 1.388 . S
C277 C278 1.390 . S
C278 C277 1.390 . S
C278 C279 1.394 . S
C278 C284 1.465 1_554 S
C279 C274 1.399 . S
C279 C278 1.394 . S
C279 C280 1.518 1_554 S
C280 C279 1.518 1_556 S
C280 C281 1.502 . S
C280 C282 1.561 . S
C280 C283 1.524 . S
C281 H265 0.962 . S
C281 H266 0.978 . S
C281 H267 0.940 1_556 S
C281 C280 1.502 . S
C282 H268 0.958 1_556 S
C282 H269 0.963 . S
C282 H270 0.959 . S
C282 C280 1.561 . S
C283 C280 1.524 . S
C283 C284 1.396 . S
C283 C288 1.390 . S
C284 C278 1.465 1_556 S
C284 C283 1.396 . S
C284 C285 1.393 1_565 S
C285 H271 0.936 . S
C285 C284 1.393 1_545 S
C285 C286 1.384 1_545 S
C286 H272 0.931 1_565 S
C286 C285 1.384 1_565 S
C286 C287 1.389 . S
C287 C286 1.389 . S
C287 C288 1.387 . S
C288 H273 0.930 . S
C288 C283 1.390 . S
C288 C287 1.387 . S
H289 C301 0.930 . S
H290 C303 0.930 1_565 S
H291 C304 0.930 1_565 S
H292 C308 0.962 . S
H293 C308 0.978 . S
H294 C308 0.940 1_556 S
H295 C309 0.958 1_556 S
H296 C309 0.963 . S
H297 C309 0.959 . S
H298 C312 0.930 1_565 S
H299 C313 0.931 1_565 S
H300 C315 0.930 . S
C301 H289 0.930 . S
C301 C302 1.399 . S
C301 C306 1.399 . S
C302 C301 1.399 . S
C302 C303 1.376 . S
C303 H290 0.930 1_545 S
C303 C302 1.376 . S
C303 C304 1.388 . S
C304 H291 0.930 1_545 S
C304 C303 1.388 . S
C304 C305 1.390 . S
C305 C304 1.390 . S
C305 C306 1.394 . S
C305 C311 1.465 1_556 S
C306 C301 1.399 . S
C306 C305 1.394 . S
C306 C307 1.518 1_556 S
C307 C306 1.518 1_554 S
C307 C308 1.502 . S
C307 C309 1.561 . S
C307 C310 1.524 . S
C308 H292 0.962 . S
C308 H293 0.978 . S
C308 H294 0.940 1_554 S
C308 C307 1.502 . S
C309 H295 0.958 1_554 S
C309 H296 0.963 . S
C309 H297 0.959 . S
C309 C307 1.561 . S
C310 C307 1.524 . S
C310 C311 1.396 . S
C310 C315 1.390 . S
C311 C305 1.465 1_554 S
C311 C310 1.396 . S
C311 C312 1.398 . S
C312 H298 0.930 1_545 S
C312 C311 1.398 . S
C312 C313 1.385 . S
C313 H299 0.931 1_545 S
C313 C312 1.385 . S
C313 C314 1.389 . S
C314 C313 1.389 . S
C314 C315 1.387 . S
C315 H300 0.930 . S
C315 C310 1.390 . S
C315 C314 1.387 . S
H316 C328 0.930 . S
H317 C330 0.930 . S
H318 C331 0.930 . S
H319 C335 0.959 . S
H320 C335 0.959 . S
H321 C335 0.961 . S
H322 C336 0.960 . S
H323 C336 0.961 . S
H324 C336 0.959 . S
H325 C339 0.929 . S
H326 C340 0.931 . S
H327 C342 0.930 . S
C328 H316 0.930 . S
C328 C329 1.399 . S
C328 C333 1.399 . S
C329 C328 1.399 . S
C329 C330 1.376 . S
C330 H317 0.930 . S
C330 C329 1.376 . S
C330 C331 1.388 . S
C331 H318 0.930 . S
C331 C330 1.388 . S
C331 C332 1.390 . S
C332 C331 1.390 . S
C332 C333 1.394 . S
C332 C338 1.465 . S
C333 C328 1.399 . S
C333 C332 1.394 . S
C333 C334 1.516 . S
C334 C333 1.516 . S
C334 C335 1.502 . S
C334 C336 1.561 . S
C334 C337 1.526 . S
C335 H319 0.959 . S
C335 H320 0.959 . S
C335 H321 0.961 . S
C335 C334 1.502 . S
C336 H322 0.960 . S
C336 H323 0.961 . S
C336 H324 0.959 . S
C336 C334 1.561 . S
C337 C334 1.526 . S
C337 C338 1.396 . S
C337 C342 1.390 . S
C338 C332 1.465 . S
C338 C337 1.396 . S
C338 C339 1.399 . S
C339 H325 0.929 . S
C339 C338 1.399 . S
C339 C340 1.385 . S
C340 H326 0.931 . S
C340 C339 1.385 . S
C340 C341 1.389 . S
C341 C340 1.389 . S
C341 C342 1.387 . S
C342 H327 0.930 . S
C342 C337 1.390 . S
C342 C341 1.387 . S
H343 C355 0.930 . S
H344 C357 0.930 . S
H345 C358 0.930 . S
H346 C362 0.959 . S
H347 C362 0.959 . S
H348 C362 0.961 . S
H349 C363 0.960 . S
H350 C363 0.961 . S
H351 C363 0.959 . S
H352 C366 0.929 . S
H353 C367 0.931 . S
H354 C369 0.930 . S
C355 H343 0.930 . S
C355 C356 1.399 . S
C355 C360 1.399 . S
C356 C355 1.399 . S
C356 C357 1.376 . S
C357 H344 0.930 . S
C357 C356 1.376 . S
C357 C358 1.388 . S
C358 H345 0.930 . S
C358 C357 1.388 . S
C358 C359 1.390 . S
C359 C358 1.390 . S
C359 C360 1.394 . S
C359 C365 1.465 . S
C360 C355 1.399 . S
C360 C359 1.394 . S
C360 C361 1.516 . S
C361 C360 1.516 . S
C361 C362 1.502 . S
C361 C363 1.561 . S
C361 C364 1.526 . S
C362 H346 0.959 . S
C362 H347 0.959 . S
C362 H348 0.961 . S
C362 C361 1.502 . S
C363 H349 0.960 . S
C363 H350 0.961 . S
C363 H351 0.959 . S
C363 C361 1.561 . S
C364 C361 1.526 . S
C364 C365 1.396 . S
C364 C369 1.390 . S
C365 C359 1.465 . S
C365 C364 1.396 . S
C365 C366 1.399 . S
C366 H352 0.929 . S
C366 C365 1.399 . S
C366 C367 1.385 . S
C367 H353 0.931 . S
C367 C366 1.385 . S
C367 C368 1.389 . S
C368 C367 1.389 . S
C368 C369 1.387 . S
C369 H354 0.930 . S
C369 C364 1.390 . S
C369 C368 1.387 . S
H370 C382 0.930 . S
H371 C384 0.930 . S
H372 C385 0.930 . S
H373 C389 0.962 . S
H374 C389 0.979 . S
H375 C389 0.940 1_556 S
H376 C390 0.958 1_556 S
H377 C390 0.963 . S
H378 C390 0.959 . S
H379 C393 0.929 . S
H380 C394 0.931 . S
H381 C396 0.930 . S
C382 H370 0.930 . S
C382 C383 1.399 . S
C382 C387 1.399 . S
C383 C382 1.399 . S
C383 C384 1.376 . S
C384 H371 0.930 . S
C384 C383 1.376 . S
C384 C385 1.388 . S
C385 H372 0.930 . S
C385 C384 1.388 . S
C385 C386 1.390 . S
C386 C385 1.390 . S
C386 C387 1.394 . S
C386 C392 1.465 1_556 S
C387 C382 1.399 . S
C387 C386 1.394 . S
C387 C388 1.517 1_556 S
C388 C387 1.517 1_554 S
C388 C389 1.502 . S
C388 C390 1.561 . S
C388 C391 1.525 . S
C389 H373 0.962 . S
C389 H374 0.979 . S
C389 H375 0.940 1_554 S
C389 C388 1.502 . S
C390 H376 0.958 1_554 S
C390 H377 0.963 . S
C390 H378 0.959 . S
C390 C388 1.561 . S
C391 C388 1.525 . S
C391 C392 1.396 . S
C391 C396 1.390 . S
C392 C386 1.465 1_554 S
C392 C391 1.396 . S
C392 C393 1.399 . S
C393 H379 0.929 . S
C393 C392 1.399 . S
C393 C394 1.385 . S
C394 H380 0.931 . S
C394 C393 1.385 . S
C394 C395 1.389 . S
C395 C394 1.389 . S
C395 C396 1.387 . S
C396 H381 0.930 . S
C396 C391 1.390 . S
C396 C395 1.387 . S
H397 C409 0.930 . S
H398 C411 0.930 . S
H399 C412 0.930 . S
H400 C416 0.962 . S
H401 C416 0.979 . S
H402 C416 0.940 1_554 S
H403 C417 0.958 1_554 S
H404 C417 0.963 . S
H405 C417 0.959 . S
H406 C420 0.929 . S
H407 C421 0.931 . S
H408 C423 0.930 . S
C409 H397 0.930 . S
C409 C410 1.399 . S
C409 C414 1.399 . S
C410 C409 1.399 . S
C410 C411 1.376 . S
C411 H398 0.930 . S
C411 C410 1.376 . S
C411 C412 1.388 . S
C412 H399 0.930 . S
C412 C411 1.388 . S
C412 C413 1.390 . S
C413 C412 1.390 . S
C413 C414 1.394 . S
C413 C419 1.465 1_554 S
C414 C409 1.399 . S
C414 C413 1.394 . S
C414 C415 1.517 1_554 S
C415 C414 1.517 1_556 S
C415 C416 1.502 . S
C415 C417 1.561 . S
C415 C418 1.525 . S
C416 H400 0.962 . S
C416 H401 0.979 . S
C416 H402 0.940 1_556 S
C416 C415 1.502 . S
C417 H403 0.958 1_556 S
C417 H404 0.963 . S
C417 H405 0.959 . S
C417 C415 1.561 . S
C418 C415 1.525 . S
C418 C419 1.396 . S
C418 C423 1.390 . S
C419 C413 1.465 1_556 S
C419 C418 1.396 . S
C419 C420 1.399 . S
C420 H406 0.929 . S
C420 C419 1.399 . S
C420 C421 1.385 . S
C421 H407 0.931 . S
C421 C420 1.385 . S
C421 C422 1.389 . S
C422 C421 1.389 . S
C422 C423 1.387 . S
C423 H408 0.930 . S
C423 C418 1.390 . S
C423 C422 1.387 . S
H424 C436 0.930 . S
H425 C438 0.930 . S
H426 C439 0.930 . S
H427 C443 0.959 . S
H428 C443 0.959 . S
H429 C443 0.961 . S
H430 C444 0.960 . S
H431 C444 0.961 1_545 S
H432 C444 0.959 . S
H433 C447 0.929 . S
H434 C448 0.931 . S
H435 C450 0.930 . S
C436 H424 0.930 . S
C436 C437 1.399 1_545 S
C436 C441 1.399 . S
C437 C436 1.399 1_565 S
C437 C438 1.376 . S
C438 H425 0.930 . S
C438 C437 1.376 . S
C438 C439 1.388 . S
C439 H426 0.930 . S
C439 C438 1.388 . S
C439 C440 1.390 . S
C440 C439 1.390 . S
C440 C441 1.394 1_565 S
C440 C446 1.465 . S
C441 C436 1.399 . S
C441 C440 1.394 1_545 S
C441 C442 1.516 . S
C442 C441 1.516 . S
C442 C443 1.502 . S
C442 C444 1.561 1_545 S
C442 C445 1.526 . S
C443 H427 0.959 . S
C443 H428 0.959 . S
C443 H429 0.961 . S
C443 C442 1.502 . S
C444 H430 0.960 . S
C444 H431 0.961 1_565 S
C444 H432 0.959 . S
C444 C442 1.561 1_565 S
C445 C442 1.526 . S
C445 C446 1.396 1_545 S
C445 C450 1.390 . S
C446 C440 1.465 . S
C446 C445 1.396 1_565 S
C446 C447 1.399 . S
C447 H433 0.929 . S
C447 C446 1.399 . S
C447 C448 1.385 . S
C448 H434 0.931 . S
C448 C447 1.385 . S
C448 C449 1.389 1_565 S
C449 C448 1.389 1_545 S
C449 C450 1.387 . S
C450 H435 0.930 . S
C450 C445 1.390 . S
C450 C449 1.387 . S
H451 C463 0.930 . S
H452 C465 0.930 . S
H453 C466 0.930 . S
H454 C470 0.959 . S
H455 C470 0.959 . S
H456 C470 0.961 . S
H457 C471 0.960 . S
H458 C471 0.961 . S
H459 C471 0.959 1_565 S
H460 C474 0.929 . S
H461 C475 0.931 . S
H462 C477 0.930 . S
C463 H451 0.930 . S
C463 C464 1.399 1_545 S
C463 C468 1.399 . S
C464 C463 1.399 1_565 S
C464 C465 1.376 . S
C465 H452 0.930 . S
C465 C464 1.376 . S
C465 C466 1.388 . S
C466 H453 0.930 . S
C466 C465 1.388 . S
C466 C467 1.390 . S
C467 C466 1.390 . S
C467 C468 1.394 1_565 S
C467 C473 1.465 . S
C468 C463 1.399 . S
C468 C467 1.394 1_545 S
C468 C469 1.516 . S
C469 C468 1.516 . S
C469 C470 1.502 . S
C469 C471 1.561 . S
C469 C472 1.526 . S
C470 H454 0.959 . S
C470 H455 0.959 . S
C470 H456 0.961 . S
C470 C469 1.502 . S
C471 H457 0.960 . S
C471 H458 0.961 . S
C471 H459 0.959 1_545 S
C471 C469 1.561 . S
C472 C469 1.526 . S
C472 C473 1.396 1_545 S
C472 C477 1.390 . S
C473 C467 1.465 . S
C473 C472 1.396 1_565 S
C473 C474 1.399 . S
C474 H460 0.929 . S
C474 C473 1.399 . S
C474 C475 1.385 . S
C475 H461 0.931 . S
C475 C474 1.385 . S
C475 C476 1.389 1_565 S
C476 C475 1.389 1_545 S
C476 C477 1.387 . S
C477 H462 0.930 . S
C477 C472 1.390 . S
C477 C476 1.387 . S
H478 C490 0.930 1_545 S
H479 C492 0.930 . S
H480 C493 0.930 . S
H481 C497 0.959 . S
H482 C497 0.959 . S
H483 C497 0.961 . S
H484 C498 0.960 . S
H485 C498 0.961 . S
H486 C498 0.959 . S
H487 C501 0.929 . S
H488 C502 0.931 . S
H489 C504 0.930 . S
C490 H478 0.930 1_565 S
C490 C491 1.399 . S
C490 C495 1.399 . S
C491 C490 1.399 . S
C491 C492 1.376 . S
C492 H479 0.930 . S
C492 C491 1.376 . S
C492 C493 1.388 . S
C493 H480 0.930 . S
C493 C492 1.388 . S
C493 C494 1.390 . S
C494 C493 1.390 . S
C494 C495 1.394 . S
C494 C500 1.465 . S
C495 C490 1.399 . S
C495 C494 1.394 . S
C495 C496 1.516 1_565 S
C496 C495 1.516 1_545 S
C496 C497 1.502 . S
C496 C498 1.561 1_545 S
C496 C499 1.526 . S
C497 H481 0.959 . S
C497 H482 0.959 . S
C497 H483 0.961 . S
C497 C496 1.502 . S
C498 H484 0.960 . S
C498 H485 0.961 . S
C498 H486 0.959 . S
C498 C496 1.561 1_565 S
C499 C496 1.526 . S
C499 C500 1.396 1_545 S
C499 C504 1.390 . S
C500 C494 1.465 . S
C500 C499 1.396 1_565 S
C500 C501 1.399 . S
C501 H487 0.929 . S
C501 C500 1.399 . S
C501 C502 1.385 . S
C502 H488 0.931 . S
C502 C501 1.385 . S
C502 C503 1.389 1_565 S
C503 C502 1.389 1_545 S
C503 C504 1.387 . S
C504 H489 0.930 . S
C504 C499 1.390 . S
C504 C503 1.387 . S
H505 C517 0.930 . S
H506 C519 0.930 . S
H507 C520 0.930 . S
H508 C524 0.959 . S
H509 C524 0.959 . S
H510 C524 0.961 . S
H511 C525 0.960 1_545 S
H512 C525 0.960 1_545 S
H513 C525 0.960 . S
H514 C528 0.929 . S
H515 C529 0.931 . S
H516 C531 0.930 . S
C517 H505 0.930 . S
C517 C518 1.399 . S
C517 C522 1.399 . S
C518 C517 1.399 . S
C518 C519 1.376 1_545 S
C519 H506 0.930 . S
C519 C518 1.376 1_565 S
C519 C520 1.388 . S
C520 H507 0.930 . S
C520 C519 1.388 . S
C520 C521 1.390 . S
C521 C520 1.390 . S
C521 C522 1.394 1_565 S
C521 C527 1.465 . S
C522 C517 1.399 . S
C522 C521 1.394 1_545 S
C522 C523 1.516 . S
C523 C522 1.516 . S
C523 C524 1.502 . S
C523 C525 1.561 1_545 S
C523 C526 1.526 . S
C524 H508 0.959 . S
C524 H509 0.959 . S
C524 H510 0.961 . S
C524 C523 1.502 . S
C525 H511 0.960 1_565 S
C525 H512 0.960 1_565 S
C525 H513 0.960 . S
C525 C523 1.561 1_565 S
C526 C523 1.526 . S
C526 C527 1.396 1_545 S
C526 C531 1.390 . S
C527 C521 1.465 . S
C527 C526 1.396 1_565 S
C527 C528 1.399 . S
C528 H514 0.929 . S
C528 C527 1.399 . S
C528 C529 1.385 . S
C529 H515 0.931 . S
C529 C528 1.385 . S
C529 C530 1.389 . S
C530 C529 1.389 . S
C530 C531 1.387 1_565 S
C531 H516 0.930 . S
C531 C526 1.390 . S
C531 C530 1.387 1_545 S
H532 C544 0.930 . S
H533 C546 0.930 . S
H534 C547 0.930 . S
H535 C551 0.959 . S
H536 C551 0.959 1_455 S
H537 C551 0.961 . S
H538 C552 0.960 1_655 S
H539 C552 0.961 . S
H540 C552 0.959 . S
H541 C555 0.929 . S
H542 C556 0.931 . S
H543 C558 0.930 . S
C544 H532 0.930 . S
C544 C545 1.399 . S
C544 C549 1.399 . S
C545 C544 1.399 . S
C545 C546 1.376 . S
C546 H533 0.930 . S
C546 C545 1.376 . S
C546 C547 1.388 . S
C547 H534 0.930 . S
C547 C546 1.388 . S
C547 C548 1.390 . S
C548 C547 1.390 . S
C548 C549 1.394 . S
C548 C554 1.465 1_655 S
C549 C544 1.399 . S
C549 C548 1.394 . S
C549 C550 1.530 . S
C550 C549 1.530 . S
C550 C551 1.503 . S
C550 C552 1.560 1_655 S
C550 C553 1.512 1_655 S
C551 H535 0.959 . S
C551 H536 0.959 1_655 S
C551 H537 0.961 . S
C551 C550 1.503 . S
C552 H538 0.960 1_455 S
C552 H539 0.961 . S
C552 H540 0.959 . S
C552 C550 1.560 1_455 S
C553 C550 1.512 1_455 S
C553 C554 1.396 . S
C553 C558 1.390 . S
C554 C548 1.465 1_455 S
C554 C553 1.396 . S
C554 C555 1.399 . S
C555 H541 0.929 . S
C555 C554 1.399 . S
C555 C556 1.385 . S
C556 H542 0.931 . S
C556 C555 1.385 . S
C556 C557 1.389 . S
C557 C556 1.389 . S
C557 C558 1.387 . S
C558 H543 0.930 . S
C558 C553 1.390 . S
C558 C557 1.387 . S
H559 C571 0.930 . S
H560 C573 0.930 . S
H561 C574 0.930 . S
H562 C578 0.959 1_655 S
H563 C578 0.959 1_655 S
H564 C578 0.961 . S
H565 C579 0.960 . S
H566 C579 0.961 1_655 S
H567 C579 0.959 . S
H568 C582 0.929 . S
H569 C583 0.931 . S
H570 C585 0.930 . S
C571 H559 0.930 . S
C571 C572 1.399 . S
C571 C576 1.399 . S
C572 C571 1.399 . S
C572 C573 1.376 . S
C573 H560 0.930 . S
C573 C572 1.376 . S
C573 C574 1.388 . S
C574 H561 0.930 . S
C574 C573 1.388 . S
C574 C575 1.390 . S
C575 C574 1.390 . S
C575 C576 1.394 . S
C575 C581 1.465 1_455 S
C576 C571 1.399 . S
C576 C575 1.394 . S
C576 C577 1.516 . S
C577 C576 1.516 . S
C577 C578 1.502 . S
C577 C579 1.561 . S
C577 C580 1.526 1_455 S
C578 H562 0.959 1_455 S
C578 H563 0.959 1_455 S
C578 H564 0.961 . S
C578 C577 1.502 . S
C579 H565 0.960 . S
C579 H566 0.961 1_455 S
C579 H567 0.959 . S
C579 C577 1.561 . S
C580 C577 1.526 1_655 S
C580 C581 1.396 . S
C580 C585 1.390 . S
C581 C575 1.465 1_655 S
C581 C580 1.396 . S
C581 C582 1.399 . S
C582 H568 0.929 . S
C582 C581 1.399 . S
C582 C583 1.385 . S
C583 H569 0.931 . S
C583 C582 1.385 . S
C583 C584 1.389 . S
C584 C583 1.389 . S
C584 C585 1.387 . S
C585 H570 0.930 . S
C585 C580 1.390 . S
C585 C584 1.387 . S
H586 C598 0.930 . S
H587 C600 0.930 . S
H588 C601 0.930 . S
H589 C605 0.959 . S
H590 C605 0.959 . S
H591 C605 0.961 1_655 S
H592 C606 0.960 1_655 S
H593 C606 0.961 . S
H594 C606 0.959 . S
H595 C609 0.929 . S
H596 C610 0.931 . S
H597 C612 0.930 . S
C598 H586 0.930 . S
C598 C599 1.399 . S
C598 C603 1.399 . S
C599 C598 1.399 . S
C599 C600 1.376 . S
C600 H587 0.930 . S
C600 C599 1.376 . S
C600 C601 1.388 . S
C601 H588 0.930 . S
C601 C600 1.388 . S
C601 C602 1.390 . S
C602 C601 1.390 . S
C602 C603 1.394 . S
C602 C608 1.465 1_655 S
C603 C598 1.399 . S
C603 C602 1.394 . S
C603 C604 1.516 1_655 S
C604 C603 1.516 1_455 S
C604 C605 1.502 . S
C604 C606 1.561 . S
C604 C607 1.526 . S
C605 H589 0.959 . S
C605 H590 0.959 . S
C605 H591 0.961 1_455 S
C605 C604 1.502 . S
C606 H592 0.960 1_455 S
C606 H593 0.961 . S
C606 H594 0.959 . S
C606 C604 1.561 . S
C607 C604 1.526 . S
C607 C608 1.396 . S
C607 C612 1.390 . S
C608 C602 1.465 1_455 S
C608 C607 1.396 . S
C608 C609 1.399 . S
C609 H595 0.929 . S
C609 C608 1.399 . S
C609 C610 1.385 . S
C610 H596 0.931 . S
C610 C609 1.385 . S
C610 C611 1.389 . S
C611 C610 1.389 . S
C611 C612 1.387 . S
C612 H597 0.930 . S
C612 C607 1.390 . S
C612 C611 1.387 . S
H613 C625 0.930 . S
H614 C627 0.930 . S
H615 C628 0.930 . S
H616 C632 0.959 . S
H617 C632 0.978 . S
H618 C632 0.942 1_455 S
H619 C633 0.960 1_455 S
H620 C633 0.961 . S
H621 C633 0.959 . S
H622 C636 0.929 . S
H623 C637 0.931 . S
H624 C639 0.930 . S
C625 H613 0.930 . S
C625 C626 1.399 . S
C625 C630 1.399 . S
C626 C625 1.399 . S
C626 C627 1.376 . S
C627 H614 0.930 . S
C627 C626 1.376 . S
C627 C628 1.388 . S
C628 H615 0.930 . S
C628 C627 1.388 . S
C628 C629 1.390 . S
C629 C628 1.390 . S
C629 C630 1.394 . S
C629 C635 1.465 1_455 S
C630 C625 1.399 . S
C630 C629 1.394 . S
C630 C631 1.516 1_455 S
C631 C630 1.516 1_655 S
C631 C632 1.503 . S
C631 C633 1.561 . S
C631 C634 1.526 . S
C632 H616 0.959 . S
C632 H617 0.978 . S
C632 H618 0.942 1_655 S
C632 C631 1.503 . S
C633 H619 0.960 1_655 S
C633 H620 0.961 . S
C633 H621 0.959 . S
C633 C631 1.561 . S
C634 C631 1.526 . S
C634 C635 1.396 . S
C634 C639 1.390 . S
C635 C629 1.465 1_655 S
C635 C634 1.396 . S
C635 C636 1.399 . S
C636 H622 0.929 . S
C636 C635 1.399 . S
C636 C637 1.385 . S
C637 H623 0.931 . S
C637 C636 1.385 . S
C637 C638 1.389 . S
C638 C637 1.389 . S
C638 C639 1.387 . S
C639 H624 0.930 . S
C639 C634 1.390 . S
C639 C638 1.387 . S
H640 C652 0.930 . S
H641 C654 0.930 . S
H642 C655 0.930 . S
H643 C659 0.959 . S
H644 C659 0.959 . S
H645 C659 0.961 . S
H646 C660 0.960 . S
H647 C660 0.961 . S
H648 C660 0.959 . S
H649 C663 0.929 . S
H650 C664 0.931 . S
H651 C666 0.930 . S
C652 H640 0.930 . S
C652 C653 1.399 . S
C652 C657 1.399 . S
C653 C652 1.399 . S
C653 C654 1.376 . S
C654 H641 0.930 . S
C654 C653 1.376 . S
C654 C655 1.388 . S
C655 H642 0.930 . S
C655 C654 1.388 . S
C655 C656 1.390 . S
C656 C655 1.390 . S
C656 C657 1.394 . S
C656 C662 1.465 . S
C657 C652 1.399 . S
C657 C656 1.394 . S
C657 C658 1.516 . S
C658 C657 1.516 . S
C658 C659 1.502 . S
C658 C660 1.561 . S
C658 C661 1.526 . S
C659 H643 0.959 . S
C659 H644 0.959 . S
C659 H645 0.961 . S
C659 C658 1.502 . S
C660 H646 0.960 . S
C660 H647 0.961 . S
C660 H648 0.959 . S
C660 C658 1.561 . S
C661 C658 1.526 . S
C661 C662 1.396 . S
C661 C666 1.390 . S
C662 C656 1.465 . S
C662 C661 1.396 . S
C662 C663 1.399 . S
C663 H649 0.929 . S
C663 C662 1.399 . S
C663 C664 1.385 . S
C664 H650 0.931 . S
C664 C663 1.385 . S
C664 C665 1.389 . S
C665 C664 1.389 . S
C665 C666 1.387 . S
C666 H651 0.930 . S
C666 C661 1.390 . S
C666 C665 1.387 . S
H667 C679 0.930 . S
H668 C681 0.930 . S
H669 C682 0.930 . S
H670 C686 0.959 . S
H671 C686 0.959 . S
H672 C686 0.961 . S
H673 C687 0.960 . S
H674 C687 0.961 . S
H675 C687 0.959 . S
H676 C690 0.929 . S
H677 C691 0.931 . S
H678 C693 0.930 . S
C679 H667 0.930 . S
C679 C680 1.399 . S
C679 C684 1.399 . S
C680 C679 1.399 . S
C680 C681 1.376 . S
C681 H668 0.930 . S
C681 C680 1.376 . S
C681 C682 1.388 . S
C682 H669 0.930 . S
C682 C681 1.388 . S
C682 C683 1.390 . S
C683 C682 1.390 . S
C683 C684 1.394 . S
C683 C689 1.465 . S
C684 C679 1.399 . S
C684 C683 1.394 . S
C684 C685 1.516 . S
C685 C684 1.516 . S
C685 C686 1.502 . S
C685 C687 1.561 . S
C685 C688 1.526 . S
C686 H670 0.959 . S
C686 H671 0.959 . S
C686 H672 0.961 . S
C686 C685 1.502 . S
C687 H673 0.960 . S
C687 H674 0.961 . S
C687 H675 0.959 . S
C687 C685 1.561 . S
C688 C685 1.526 . S
C688 C689 1.396 . S
C688 C693 1.390 . S
C689 C683 1.465 . S
C689 C688 1.396 . S
C689 C690 1.399 . S
C690 H676 0.929 . S
C690 C689 1.399 . S
C690 C691 1.385 . S
C691 H677 0.931 . S
C691 C690 1.385 . S
C691 C692 1.389 . S
C692 C691 1.389 . S
C692 C693 1.387 . S
C693 H678 0.930 . S
C693 C688 1.390 . S
C693 C692 1.387 . S
H694 C706 0.930 . S
H695 C708 0.930 . S
H696 C709 0.930 . S
H697 C713 0.959 . S
H698 C713 0.959 . S
H699 C713 0.961 . S
H700 C714 0.960 . S
H701 C714 0.961 . S
H702 C714 0.959 . S
H703 C717 0.929 . S
H704 C718 0.931 . S
H705 C720 0.930 . S
C706 H694 0.930 . S
C706 C707 1.399 . S
C706 C711 1.399 . S
C707 C706 1.399 . S
C707 C708 1.376 . S
C708 H695 0.930 . S
C708 C707 1.376 . S
C708 C709 1.388 . S
C709 H696 0.930 . S
C709 C708 1.388 . S
C709 C710 1.390 . S
C710 C709 1.390 . S
C710 C711 1.394 . S
C710 C716 1.465 . S
C711 C706 1.399 . S
C711 C710 1.394 . S
C711 C712 1.516 . S
C712 C711 1.516 . S
C712 C713 1.502 . S
C712 C714 1.561 . S
C712 C715 1.526 . S
C713 H697 0.959 . S
C713 H698 0.959 . S
C713 H699 0.961 . S
C713 C712 1.502 . S
C714 H700 0.960 . S
C714 H701 0.961 . S
C714 H702 0.959 . S
C714 C712 1.561 . S
C715 C712 1.526 . S
C715 C716 1.396 . S
C715 C720 1.390 . S
C716 C710 1.465 . S
C716 C715 1.396 . S
C716 C717 1.399 . S
C717 H703 0.929 . S
C717 C716 1.399 . S
C717 C718 1.385 . S
C718 H704 0.931 . S
C718 C717 1.385 . S
C718 C719 1.389 . S
C719 C718 1.389 . S
C719 C720 1.387 . S
C720 H705 0.930 . S
C720 C715 1.390 . S
C720 C719 1.387 . S
H721 C733 0.930 . S
H722 C735 0.930 . S
H723 C736 0.930 . S
H724 C740 0.959 . S
H725 C740 0.959 . S
H726 C740 0.961 . S
H727 C741 0.960 . S
H728 C741 0.961 . S
H729 C741 0.959 . S
H730 C744 0.929 . S
H731 C745 0.931 . S
H732 C747 0.930 . S
C733 H721 0.930 . S
C733 C734 1.399 . S
C733 C738 1.399 . S
C734 C733 1.399 . S
C734 C735 1.376 . S
C735 H722 0.930 . S
C735 C734 1.376 . S
C735 C736 1.388 . S
C736 H723 0.930 . S
C736 C735 1.388 . S
C736 C737 1.390 . S
C737 C736 1.390 . S
C737 C738 1.394 . S
C737 C743 1.465 . S
C738 C733 1.399 . S
C738 C737 1.394 . S
C738 C739 1.516 . S
C739 C738 1.516 . S
C739 C740 1.502 . S
C739 C741 1.561 . S
C739 C742 1.526 . S
C740 H724 0.959 . S
C740 H725 0.959 . S
C740 H726 0.961 . S
C740 C739 1.502 . S
C741 H727 0.960 . S
C741 H728 0.961 . S
C741 H729 0.959 . S
C741 C739 1.561 . S
C742 C739 1.526 . S
C742 C743 1.396 . S
C742 C747 1.390 . S
C743 C737 1.465 . S
C743 C742 1.396 . S
C743 C744 1.399 . S
C744 H730 0.929 . S
C744 C743 1.399 . S
C744 C745 1.385 . S
C745 H731 0.931 . S
C745 C744 1.385 . S
C745 C746 1.389 . S
C746 C745 1.389 . S
C746 C747 1.387 . S
C747 H732 0.930 . S
C747 C742 1.390 . S
C747 C746 1.387 . S
H748 C760 0.930 . S
H749 C762 0.930 . S
H750 C763 0.930 . S
H751 C767 0.959 . S
H752 C767 0.959 . S
H753 C767 0.961 . S
H754 C768 0.960 . S
H755 C768 0.961 . S
H756 C768 0.959 . S
H757 C771 0.929 . S
H758 C772 0.931 . S
H759 C774 0.930 . S
C760 H748 0.930 . S
C760 C761 1.399 . S
C760 C765 1.399 . S
C761 C760 1.399 . S
C761 C762 1.376 . S
C762 H749 0.930 . S
C762 C761 1.376 . S
C762 C763 1.388 . S
C763 H750 0.930 . S
C763 C762 1.388 . S
C763 C764 1.390 . S
C764 C763 1.390 . S
C764 C765 1.394 . S
C764 C770 1.465 . S
C765 C760 1.399 . S
C765 C764 1.394 . S
C765 C766 1.516 . S
C766 C765 1.516 . S
C766 C767 1.502 . S
C766 C768 1.561 . S
C766 C769 1.526 . S
C767 H751 0.959 . S
C767 H752 0.959 . S
C767 H753 0.961 . S
C767 C766 1.502 . S
C768 H754 0.960 . S
C768 H755 0.961 . S
C768 H756 0.959 . S
C768 C766 1.561 . S
C769 C766 1.526 . S
C769 C770 1.396 . S
C769 C774 1.390 . S
C770 C764 1.465 . S
C770 C769 1.396 . S
C770 C771 1.399 . S
C771 H757 0.929 . S
C771 C770 1.399 . S
C771 C772 1.385 . S
C772 H758 0.931 . S
C772 C771 1.385 . S
C772 C773 1.389 . S
C773 C772 1.389 . S
C773 C774 1.387 . S
C774 H759 0.930 . S
C774 C769 1.390 . S
C774 C773 1.387 . S
H775 C787 0.930 . S
H776 C789 0.930 . S
H777 C790 0.930 . S
H778 C794 0.959 . S
H779 C794 0.959 . S
H780 C794 0.961 . S
H781 C795 0.960 . S
H782 C795 0.961 . S
H783 C795 0.959 . S
H784 C798 0.929 . S
H785 C799 0.931 . S
H786 C801 0.930 . S
C787 H775 0.930 . S
C787 C788 1.399 . S
C787 C792 1.399 . S
C788 C787 1.399 . S
C788 C789 1.376 . S
C789 H776 0.930 . S
C789 C788 1.376 . S
C789 C790 1.388 . S
C790 H777 0.930 . S
C790 C789 1.388 . S
C790 C791 1.390 . S
C791 C790 1.390 . S
C791 C792 1.394 . S
C791 C797 1.465 . S
C792 C787 1.399 . S
C792 C791 1.394 . S
C792 C793 1.516 . S
C793 C792 1.516 . S
C793 C794 1.502 . S
C793 C795 1.561 . S
C793 C796 1.526 . S
C794 H778 0.959 . S
C794 H779 0.959 . S
C794 H780 0.961 . S
C794 C793 1.502 . S
C795 H781 0.960 . S
C795 H782 0.961 . S
C795 H783 0.959 . S
C795 C793 1.561 . S
C796 C793 1.526 . S
C796 C797 1.396 . S
C796 C801 1.390 . S
C797 C791 1.465 . S
C797 C796 1.396 . S
C797 C798 1.399 . S
C798 H784 0.929 . S
C798 C797 1.399 . S
C798 C799 1.385 . S
C799 H785 0.931 . S
C799 C798 1.385 . S
C799 C800 1.389 . S
C800 C799 1.389 . S
C800 C801 1.387 . S
C801 H786 0.930 . S
C801 C796 1.390 . S
C801 C800 1.387 . S
H802 C814 0.930 . S
H803 C816 0.930 . S
H804 C817 0.930 . S
H805 C821 0.959 . S
H806 C821 0.959 . S
H807 C821 0.961 . S
H808 C822 0.960 . S
H809 C822 0.961 . S
H810 C822 0.959 . S
H811 C825 0.929 . S
H812 C826 0.931 . S
H813 C828 0.930 . S
C814 H802 0.930 . S
C814 C815 1.399 . S
C814 C819 1.399 . S
C815 C814 1.399 . S
C815 C816 1.376 . S
C816 H803 0.930 . S
C816 C815 1.376 . S
C816 C817 1.388 . S
C817 H804 0.930 . S
C817 C816 1.388 . S
C817 C818 1.390 . S
C818 C817 1.390 . S
C818 C819 1.394 . S
C818 C824 1.465 . S
C819 C814 1.399 . S
C819 C818 1.394 . S
C819 C820 1.516 . S
C820 C819 1.516 . S
C820 C821 1.502 . S
C820 C822 1.561 . S
C820 C823 1.526 . S
C821 H805 0.959 . S
C821 H806 0.959 . S
C821 H807 0.961 . S
C821 C820 1.502 . S
C822 H808 0.960 . S
C822 H809 0.961 . S
C822 H810 0.959 . S
C822 C820 1.561 . S
C823 C820 1.526 . S
C823 C824 1.396 . S
C823 C828 1.390 . S
C824 C818 1.465 . S
C824 C823 1.396 . S
C824 C825 1.399 . S
C825 H811 0.929 . S
C825 C824 1.399 . S
C825 C826 1.385 . S
C826 H812 0.931 . S
C826 C825 1.385 . S
C826 C827 1.389 . S
C827 C826 1.389 . S
C827 C828 1.387 . S
C828 H813 0.930 . S
C828 C823 1.390 . S
C828 C827 1.387 . S
H829 C841 0.930 . S
H830 C843 0.930 . S
H831 C844 0.930 . S
H832 C848 0.959 . S
H833 C848 0.959 . S
H834 C848 0.961 . S
H835 C849 0.960 . S
H836 C849 0.961 . S
H837 C849 0.959 . S
H838 C852 0.929 . S
H839 C853 0.931 . S
H840 C855 0.930 . S
C841 H829 0.930 . S
C841 C842 1.399 . S
C841 C846 1.399 . S
C842 C841 1.399 . S
C842 C843 1.376 . S
C843 H830 0.930 . S
C843 C842 1.376 . S
C843 C844 1.388 . S
C844 H831 0.930 . S
C844 C843 1.388 . S
C844 C845 1.390 . S
C845 C844 1.390 . S
C845 C846 1.394 . S
C845 C851 1.465 . S
C846 C841 1.399 . S
C846 C845 1.394 . S
C846 C847 1.516 . S
C847 C846 1.516 . S
C847 C848 1.502 . S
C847 C849 1.561 . S
C847 C850 1.526 . S
C848 H832 0.959 . S
C848 H833 0.959 . S
C848 H834 0.961 . S
C848 C847 1.502 . S
C849 H835 0.960 . S
C849 H836 0.961 . S
C849 H837 0.959 . S
C849 C847 1.561 . S
C850 C847 1.526 . S
C850 C851 1.396 . S
C850 C855 1.390 . S
C851 C845 1.465 . S
C851 C850 1.396 . S
C851 C852 1.399 . S
C852 H838 0.929 . S
C852 C851 1.399 . S
C852 C853 1.385 . S
C853 H839 0.931 . S
C853 C852 1.385 . S
C853 C854 1.389 . S
C854 C853 1.389 . S
C854 C855 1.387 . S
C855 H840 0.930 . S
C855 C850 1.390 . S
C855 C854 1.387 . S
H856 C868 0.930 . S
H857 C870 0.930 . S
H858 C871 0.930 . S
H859 C875 0.959 . S
H860 C875 0.959 . S
H861 C875 0.961 . S
H862 C876 0.960 . S
H863 C876 0.961 . S
H864 C876 0.959 . S
H865 C879 0.929 . S
H866 C880 0.931 . S
H867 C882 0.930 . S
C868 H856 0.930 . S
C868 C869 1.399 . S
C868 C873 1.399 . S
C869 C868 1.399 . S
C869 C870 1.376 1_545 S
C870 H857 0.930 . S
C870 C869 1.376 1_565 S
C870 C871 1.388 . S
C871 H858 0.930 . S
C871 C870 1.388 . S
C871 C872 1.390 . S
C872 C871 1.390 . S
C872 C873 1.394 1_565 S
C872 C878 1.465 . S
C873 C868 1.399 . S
C873 C872 1.394 1_545 S
C873 C874 1.516 . S
C874 C873 1.516 . S
C874 C875 1.502 . S
C874 C876 1.561 . S
C874 C877 1.526 . S
C875 H859 0.959 . S
C875 H860 0.959 . S
C875 H861 0.961 . S
C875 C874 1.502 . S
C876 H862 0.960 . S
C876 H863 0.961 . S
C876 H864 0.959 . S
C876 C874 1.561 . S
C877 C874 1.526 . S
C877 C878 1.396 1_545 S
C877 C882 1.390 . S
C878 C872 1.465 . S
C878 C877 1.396 1_565 S
C878 C879 1.399 . S
C879 H865 0.929 . S
C879 C878 1.399 . S
C879 C880 1.385 . S
C880 H866 0.931 . S
C880 C879 1.385 . S
C880 C881 1.389 . S
C881 C880 1.389 . S
C881 C882 1.387 1_565 S
C882 H867 0.930 . S
C882 C877 1.390 . S
C882 C881 1.387 1_545 S
H883 C895 0.930 . S
H884 C897 0.930 . S
H885 C898 0.930 . S
H886 C902 0.959 . S
H887 C902 0.959 . S
H888 C902 0.961 . S
H889 C903 0.960 . S
H890 C903 0.961 . S
H891 C903 0.959 . S
H892 C906 0.929 . S
H893 C907 0.931 . S
H894 C909 0.930 . S
C895 H883 0.930 . S
C895 C896 1.399 . S
C895 C900 1.399 . S
C896 C895 1.399 . S
C896 C897 1.376 1_545 S
C897 H884 0.930 . S
C897 C896 1.376 1_565 S
C897 C898 1.388 . S
C898 H885 0.930 . S
C898 C897 1.388 . S
C898 C899 1.390 . S
C899 C898 1.390 . S
C899 C900 1.394 1_565 S
C899 C905 1.465 . S
C900 C895 1.399 . S
C900 C899 1.394 1_545 S
C900 C901 1.516 . S
C901 C900 1.516 . S
C901 C902 1.502 . S
C901 C903 1.561 . S
C901 C904 1.526 . S
C902 H886 0.959 . S
C902 H887 0.959 . S
C902 H888 0.961 . S
C902 C901 1.502 . S
C903 H889 0.960 . S
C903 H890 0.961 . S
C903 H891 0.959 . S
C903 C901 1.561 . S
C904 C901 1.526 . S
C904 C905 1.396 1_545 S
C904 C909 1.390 . S
C905 C899 1.465 . S
C905 C904 1.396 1_565 S
C905 C906 1.399 . S
C906 H892 0.929 . S
C906 C905 1.399 . S
C906 C907 1.385 . S
C907 H893 0.931 . S
C907 C906 1.385 . S
C907 C908 1.389 . S
C908 C907 1.389 . S
C908 C909 1.387 1_565 S
C909 H894 0.930 . S
C909 C904 1.390 . S
C909 C908 1.387 1_545 S
H910 C922 0.930 . S
H911 C924 0.930 . S
H912 C925 0.930 . S
H913 C929 0.959 . S
H914 C929 0.959 . S
H915 C929 0.961 . S
H916 C930 0.960 . S
H917 C930 0.961 . S
H918 C930 0.959 . S
H919 C933 0.929 . S
H920 C934 0.931 . S
H921 C936 0.930 . S
C922 H910 0.930 . S
C922 C923 1.399 . S
C922 C927 1.399 . S
C923 C922 1.399 . S
C923 C924 1.376 1_545 S
C924 H911 0.930 . S
C924 C923 1.376 1_565 S
C924 C925 1.388 . S
C925 H912 0.930 . S
C925 C924 1.388 . S
C925 C926 1.390 . S
C926 C925 1.390 . S
C926 C927 1.394 1_565 S
C926 C932 1.465 . S
C927 C922 1.399 . S
C927 C926 1.394 1_545 S
C927 C928 1.516 . S
C928 C927 1.516 . S
C928 C929 1.502 . S
C928 C930 1.561 . S
C928 C931 1.526 . S
C929 H913 0.959 . S
C929 H914 0.959 . S
C929 H915 0.961 . S
C929 C928 1.502 . S
C930 H916 0.960 . S
C930 H917 0.961 . S
C930 H918 0.959 . S
C930 C928 1.561 . S
C931 C928 1.526 . S
C931 C932 1.396 1_545 S
C931 C936 1.390 . S
C932 C926 1.465 . S
C932 C931 1.396 1_565 S
C932 C933 1.399 . S
C933 H919 0.929 . S
C933 C932 1.399 . S
C933 C934 1.385 . S
C934 H920 0.931 . S
C934 C933 1.385 . S
C934 C935 1.389 . S
C935 C934 1.389 . S
C935 C936 1.387 1_565 S
C936 H921 0.930 . S
C936 C931 1.390 . S
C936 C935 1.387 1_545 S
H937 C949 0.930 . S
H938 C951 0.930 . S
H939 C952 0.930 . S
H940 C956 0.959 . S
H941 C956 0.959 . S
H942 C956 0.961 . S
H943 C957 0.960 . S
H944 C957 0.961 . S
H945 C957 0.959 . S
H946 C960 0.929 . S
H947 C961 0.931 . S
H948 C963 0.930 . S
C949 H937 0.930 . S
C949 C950 1.399 . S
C949 C954 1.399 . S
C950 C949 1.399 . S
C950 C951 1.376 1_565 S
C951 H938 0.930 . S
C951 C950 1.376 1_545 S
C951 C952 1.388 . S
C952 H939 0.930 . S
C952 C951 1.388 . S
C952 C953 1.390 . S
C953 C952 1.390 . S
C953 C954 1.394 1_545 S
C953 C959 1.465 . S
C954 C949 1.399 . S
C954 C953 1.394 1_565 S
C954 C955 1.516 . S
C955 C954 1.516 . S
C955 C956 1.502 . S
C955 C957 1.561 . S
C955 C958 1.526 . S
C956 H940 0.959 . S
C956 H941 0.959 . S
C956 H942 0.961 . S
C956 C955 1.502 . S
C957 H943 0.960 . S
C957 H944 0.961 . S
C957 H945 0.959 . S
C957 C955 1.561 . S
C958 C955 1.526 . S
C958 C959 1.396 1_565 S
C958 C963 1.390 . S
C959 C953 1.465 . S
C959 C958 1.396 1_545 S
C959 C960 1.399 . S
C960 H946 0.929 . S
C960 C959 1.399 . S
C960 C961 1.385 . S
C961 H947 0.931 . S
C961 C960 1.385 . S
C961 C962 1.389 . S
C962 C961 1.389 . S
C962 C963 1.387 1_545 S
C963 H948 0.930 . S
C963 C958 1.390 . S
C963 C962 1.387 1_565 S
H964 C976 0.930 . S
H965 C978 0.930 . S
H966 C979 0.930 . S
H967 C983 0.959 . S
H968 C983 0.959 . S
H969 C983 0.961 . S
H970 C984 0.960 . S
H971 C984 0.961 . S
H972 C984 0.959 . S
H973 C987 0.929 . S
H974 C988 0.931 . S
H975 C990 0.930 . S
C976 H964 0.930 . S
C976 C977 1.399 . S
C976 C981 1.399 . S
C977 C976 1.399 . S
C977 C978 1.376 . S
C978 H965 0.930 . S
C978 C977 1.376 . S
C978 C979 1.388 . S
C979 H966 0.930 . S
C979 C978 1.388 . S
C979 C980 1.390 . S
C980 C979 1.390 . S
C980 C981 1.394 . S
C980 C986 1.465 . S
C981 C976 1.399 . S
C981 C980 1.394 . S
C981 C982 1.516 . S
C982 C981 1.516 . S
C982 C983 1.502 . S
C982 C984 1.561 . S
C982 C985 1.526 . S
C983 H967 0.959 . S
C983 H968 0.959 . S
C983 H969 0.961 . S
C983 C982 1.502 . S
C984 H970 0.960 . S
C984 H971 0.961 . S
C984 H972 0.959 . S
C984 C982 1.561 . S
C985 C982 1.526 . S
C985 C986 1.396 . S
C985 C990 1.390 . S
C986 C980 1.465 . S
C986 C985 1.396 . S
C986 C987 1.399 . S
C987 H973 0.929 . S
C987 C986 1.399 . S
C987 C988 1.385 . S
C988 H974 0.931 . S
C988 C987 1.385 . S
C988 C989 1.389 . S
C989 C988 1.389 . S
C989 C990 1.387 . S
C990 H975 0.930 . S
C990 C985 1.390 . S
C990 C989 1.387 . S
H991 C1003 0.930 . S
H992 C1005 0.930 . S
H993 C1006 0.930 . S
H994 C1010 0.959 . S
H995 C1010 0.959 . S
H996 C1010 0.961 . S
H997 C1011 0.960 . S
H998 C1011 0.961 . S
H999 C1011 0.959 . S
H1000 C1014 0.929 . S
H1001 C1015 0.931 . S
H1002 C1017 0.930 . S
C1003 H991 0.930 . S
C1003 C1004 1.399 . S
C1003 C1008 1.399 . S
C1004 C1003 1.399 . S
C1004 C1005 1.376 . S
C1005 H992 0.930 . S
C1005 C1004 1.376 . S
C1005 C1006 1.388 . S
C1006 H993 0.930 . S
C1006 C1005 1.388 . S
C1006 C1007 1.390 . S
C1007 C1006 1.390 . S
C1007 C1008 1.394 . S
C1007 C1013 1.465 . S
C1008 C1003 1.399 . S
C1008 C1007 1.394 . S
C1008 C1009 1.516 . S
C1009 C1008 1.516 . S
C1009 C1010 1.502 . S
C1009 C1011 1.561 . S
C1009 C1012 1.526 . S
C1010 H994 0.959 . S
C1010 H995 0.959 . S
C1010 H996 0.961 . S
C1010 C1009 1.502 . S
C1011 H997 0.960 . S
C1011 H998 0.961 . S
C1011 H999 0.959 . S
C1011 C1009 1.561 . S
C1012 C1009 1.526 . S
C1012 C1013 1.396 . S
C1012 C1017 1.390 . S
C1013 C1007 1.465 . S
C1013 C1012 1.396 . S
C1013 C1014 1.399 . S
C1014 H1000 0.929 . S
C1014 C1013 1.399 . S
C1014 C1015 1.385 . S
C1015 H1001 0.931 . S
C1015 C1014 1.385 . S
C1015 C1016 1.389 . S
C1016 C1015 1.389 . S
C1016 C1017 1.387 . S
C1017 H1002 0.930 . S
C1017 C1012 1.390 . S
C1017 C1016 1.387 . S
H1018 C1030 0.930 . S
H1019 C1032 0.930 . S
H1020 C1033 0.930 . S
H1021 C1037 0.959 . S
H1022 C1037 0.959 . S
H1023 C1037 0.961 . S
H1024 C1038 0.960 . S
H1025 C1038 0.961 . S
H1026 C1038 0.959 . S
H1027 C1041 0.929 . S
H1028 C1042 0.931 . S
H1029 C1044 0.930 . S
C1030 H1018 0.930 . S
C1030 C1031 1.399 . S
C1030 C1035 1.399 . S
C1031 C1030 1.399 . S
C1031 C1032 1.376 . S
C1032 H1019 0.930 . S
C1032 C1031 1.376 . S
C1032 C1033 1.388 . S
C1033 H1020 0.930 . S
C1033 C1032 1.388 . S
C1033 C1034 1.390 . S
C1034 C1033 1.390 . S
C1034 C1035 1.394 . S
C1034 C1040 1.465 . S
C1035 C1030 1.399 . S
C1035 C1034 1.394 . S
C1035 C1036 1.516 . S
C1036 C1035 1.516 . S
C1036 C1037 1.502 . S
C1036 C1038 1.561 . S
C1036 C1039 1.526 . S
C1037 H1021 0.959 . S
C1037 H1022 0.959 . S
C1037 H1023 0.961 . S
C1037 C1036 1.502 . S
C1038 H1024 0.960 . S
C1038 H1025 0.961 . S
C1038 H1026 0.959 . S
C1038 C1036 1.561 . S
C1039 C1036 1.526 . S
C1039 C1040 1.396 . S
C1039 C1044 1.390 . S
C1040 C1034 1.465 . S
C1040 C1039 1.396 . S
C1040 C1041 1.399 . S
C1041 H1027 0.929 . S
C1041 C1040 1.399 . S
C1041 C1042 1.385 . S
C1042 H1028 0.931 . S
C1042 C1041 1.385 . S
C1042 C1043 1.389 . S
C1043 C1042 1.389 . S
C1043 C1044 1.387 . S
C1044 H1029 0.930 . S
C1044 C1039 1.390 . S
C1044 C1043 1.387 . S
H1045 C1057 0.930 . S
H1046 C1059 0.930 . S
H1047 C1060 0.930 . S
H1048 C1064 0.959 . S
H1049 C1064 0.959 . S
H1050 C1064 0.961 . S
H1051 C1065 0.960 . S
H1052 C1065 0.961 . S
H1053 C1065 0.959 . S
H1054 C1068 0.929 . S
H1055 C1069 0.931 . S
H1056 C1071 0.930 . S
C1057 H1045 0.930 . S
C1057 C1058 1.399 . S
C1057 C1062 1.399 . S
C1058 C1057 1.399 . S
C1058 C1059 1.376 . S
C1059 H1046 0.930 . S
C1059 C1058 1.376 . S
C1059 C1060 1.388 . S
C1060 H1047 0.930 . S
C1060 C1059 1.388 . S
C1060 C1061 1.390 . S
C1061 C1060 1.390 . S
C1061 C1062 1.394 . S
C1061 C1067 1.465 . S
C1062 C1057 1.399 . S
C1062 C1061 1.394 . S
C1062 C1063 1.516 . S
C1063 C1062 1.516 . S
C1063 C1064 1.502 . S
C1063 C1065 1.561 . S
C1063 C1066 1.526 . S
C1064 H1048 0.959 . S
C1064 H1049 0.959 . S
C1064 H1050 0.961 . S
C1064 C1063 1.502 . S
C1065 H1051 0.960 . S
C1065 H1052 0.961 . S
C1065 H1053 0.959 . S
C1065 C1063 1.561 . S
C1066 C1063 1.526 . S
C1066 C1067 1.396 . S
C1066 C1071 1.390 . S
C1067 C1061 1.465 . S
C1067 C1066 1.396 . S
C1067 C1068 1.399 . S
C1068 H1054 0.929 . S
C1068 C1067 1.399 . S
C1068 C1069 1.385 . S
C1069 H1055 0.931 . S
C1069 C1068 1.385 . S
C1069 C1070 1.389 . S
C1070 C1069 1.389 . S
C1070 C1071 1.387 . S
C1071 H1056 0.930 . S
C1071 C1066 1.390 . S
C1071 C1070 1.387 . S
C221 C1 1.526 . S
C233 C66 1.489 . S
C248 C53 1.520 . S
C260 C14 1.517 . S
C275 C27 1.526 . S
C287 C92 1.491 . S
C302 C79 1.493 . S
C314 C40 1.519 . S
C329 C170 1.492 . S
C341 C105 1.519 . S
C356 C157 1.492 . S
C368 C118 1.519 . S
C383 C196 1.492 . S
C395 C131 1.519 . S
C410 C144 1.509 . S
C422 C183 1.525 . S
C437 C23 1.484 . S
C449 C10 1.516 . S
C464 C36 1.482 . S
C476 C49 1.519 . S
C491 C62 1.529 . S
C503 C75 1.527 . S
C518 C88 1.518 . S
C530 C101 1.521 . S
C545 C114 1.487 . S
C557 C127 1.511 . S
C572 C153 1.502 . S
C584 C140 1.520 . S
C599 C179 1.524 . S
C611 C166 1.527 . S
C626 C192 1.528 . S
C638 C205 1.529 . S
C653 C122 1.504 . S
C665 C5 1.478 . S
C680 C18 1.519 . S
C692 C109 1.492 . S
C707 C148 1.488 . S
C719 C31 1.491 . S
C734 C44 1.482 . S
C746 C135 1.498 . S
C761 C57 1.528 . S
C773 C174 1.523 . S
C788 C161 1.530 . S
C800 C70 1.520 . S
C815 C83 1.516 . S
C827 C200 1.523 . S
C842 C187 1.517 . S
C854 C96 1.530 . S
C869 C3 1.531 . S
C881 C29 1.521 . S
C896 C42 1.533 . S
C908 C16 1.520 . S
C923 C81 1.482 . S
C935 C55 1.516 . S
C950 C94 1.477 . S
C962 C68 1.521 . S
C977 C133 1.523 . S
C989 C107 1.533 . S
C1004 C120 1.530 . S
C1016 C146 1.521 . S
C1031 C185 1.522 . S
C1043 C159 1.486 . S
C1058 C172 1.475 . S
C1070 C198 1.528 . S
