# Generated by pormake.
# Topology uky, (4)-cn, num edge types: 1
# Building blocks:
#     Node 0, Type 0, BuildingBlock: CEKHIL_clean_sbu_0, # of connection points: 4
#     Node 1, Type 0, BuildingBlock: CEKHIL_clean_sbu_0, # of connection points: 4
#     Node 2, Type 0, BuildingBlock: CEKHIL_clean_sbu_0, # of connection points: 4
#     Node 3, Type 0, BuildingBlock: CEKHIL_clean_sbu_0, # of connection points: 4
#     Node 4, Type 0, BuildingBlock: CEKHIL_clean_sbu_0, # of connection points: 4
#     Node 5, Type 0, BuildingBlock: CEKHIL_clean_sbu_0, # of connection points: 4
#     Node 6, Type 0, BuildingBlock: CEKHIL_clean_sbu_0, # of connection points: 4
#     Node 7, Type 0, BuildingBlock: CEKHIL_clean_sbu_0, # of connection points: 4
#     Node 8, Type 0, BuildingBlock: CEKHIL_clean_sbu_0, # of connection points: 4
#     Node 9, Type 0, BuildingBlock: CEKHIL_clean_sbu_0, # of connection points: 4
#     Node 10, Type 0, BuildingBlock: CEKHIL_clean_sbu_0, # of connection points: 4
#     Node 11, Type 0, BuildingBlock: CEKHIL_clean_sbu_0, # of connection points: 4
#     Node 12, Type 0, BuildingBlock: CEKHIL_clean_sbu_0, # of connection points: 4
#     Node 13, Type 0, BuildingBlock: CEKHIL_clean_sbu_0, # of connection points: 4
#     Node 14, Type 0, BuildingBlock: CEKHIL_clean_sbu_0, # of connection points: 4
#     Node 15, Type 0, BuildingBlock: CEKHIL_clean_sbu_0, # of connection points: 4
#     Node 16, Type 0, BuildingBlock: CEKHIL_clean_sbu_0, # of connection points: 4
#     Node 17, Type 0, BuildingBlock: CEKHIL_clean_sbu_0, # of connection points: 4
#     Node 18, Type 0, BuildingBlock: CEKHIL_clean_sbu_0, # of connection points: 4
#     Node 19, Type 0, BuildingBlock: CEKHIL_clean_sbu_0, # of connection points: 4
#     Node 20, Type 0, BuildingBlock: CEKHIL_clean_sbu_0, # of connection points: 4
#     Node 21, Type 0, BuildingBlock: CEKHIL_clean_sbu_0, # of connection points: 4
#     Node 22, Type 0, BuildingBlock: CEKHIL_clean_sbu_0, # of connection points: 4
#     Node 23, Type 0, BuildingBlock: CEKHIL_clean_sbu_0, # of connection points: 4
#     Node 24, Type 0, BuildingBlock: CEKHIL_clean_sbu_0, # of connection points: 4
#     Node 25, Type 0, BuildingBlock: CEKHIL_clean_sbu_0, # of connection points: 4
#     Node 26, Type 0, BuildingBlock: CEKHIL_clean_sbu_0, # of connection points: 4
#     Node 27, Type 0, BuildingBlock: CEKHIL_clean_sbu_0, # of connection points: 4
#     Node 28, Type 0, BuildingBlock: CEKHIL_clean_sbu_0, # of connection points: 4
#     Node 29, Type 0, BuildingBlock: CEKHIL_clean_sbu_0, # of connection points: 4
#     Node 30, Type 0, BuildingBlock: CEKHIL_clean_sbu_0, # of connection points: 4
#     Node 31, Type 0, BuildingBlock: CEKHIL_clean_sbu_0, # of connection points: 4
#     Node 32, Type 0, BuildingBlock: CEKHIL_clean_sbu_0, # of connection points: 4
#     Node 33, Type 0, BuildingBlock: CEKHIL_clean_sbu_0, # of connection points: 4
#     Node 34, Type 0, BuildingBlock: CEKHIL_clean_sbu_0, # of connection points: 4
#     Node 35, Type 0, BuildingBlock: CEKHIL_clean_sbu_0, # of connection points: 4
#     Node 36, Type 0, BuildingBlock: CEKHIL_clean_sbu_0, # of connection points: 4
#     Node 37, Type 0, BuildingBlock: CEKHIL_clean_sbu_0, # of connection points: 4
#     Node 38, Type 0, BuildingBlock: CEKHIL_clean_sbu_0, # of connection points: 4
#     Node 39, Type 0, BuildingBlock: CEKHIL_clean_sbu_0, # of connection points: 4
#     Node 40, Type 0, BuildingBlock: CEKHIL_clean_sbu_0, # of connection points: 4
#     Node 41, Type 0, BuildingBlock: CEKHIL_clean_sbu_0, # of connection points: 4
#     Node 42, Type 0, BuildingBlock: CEKHIL_clean_sbu_0, # of connection points: 4
#     Node 43, Type 0, BuildingBlock: CEKHIL_clean_sbu_0, # of connection points: 4
#     Node 44, Type 0, BuildingBlock: CEKHIL_clean_sbu_0, # of connection points: 4
#     Node 45, Type 0, BuildingBlock: CEKHIL_clean_sbu_0, # of connection points: 4
#     Node 46, Type 0, BuildingBlock: CEKHIL_clean_sbu_0, # of connection points: 4
#     Node 47, Type 0, BuildingBlock: CEKHIL_clean_sbu_0, # of connection points: 4
#     Edge 48, Type (0, 0), BuildingBlock: TEMPAE_clean_linker_10, # of connection points: 2
#     Edge 49, Type (0, 0), BuildingBlock: TEMPAE_clean_linker_10, # of connection points: 2
#     Edge 50, Type (0, 0), BuildingBlock: TEMPAE_clean_linker_10, # of connection points: 2
#     Edge 51, Type (0, 0), BuildingBlock: TEMPAE_clean_linker_10, # of connection points: 2
#     Edge 52, Type (0, 0), BuildingBlock: TEMPAE_clean_linker_10, # of connection points: 2
#     Edge 53, Type (0, 0), BuildingBlock: TEMPAE_clean_linker_10, # of connection points: 2
#     Edge 54, Type (0, 0), BuildingBlock: TEMPAE_clean_linker_10, # of connection points: 2
#     Edge 55, Type (0, 0), BuildingBlock: TEMPAE_clean_linker_10, # of connection points: 2
#     Edge 56, Type (0, 0), BuildingBlock: TEMPAE_clean_linker_10, # of connection points: 2
#     Edge 57, Type (0, 0), BuildingBlock: TEMPAE_clean_linker_10, # of connection points: 2
#     Edge 58, Type (0, 0), BuildingBlock: TEMPAE_clean_linker_10, # of connection points: 2
#     Edge 59, Type (0, 0), BuildingBlock: TEMPAE_clean_linker_10, # of connection points: 2
#     Edge 60, Type (0, 0), BuildingBlock: TEMPAE_clean_linker_10, # of connection points: 2
#     Edge 61, Type (0, 0), BuildingBlock: TEMPAE_clean_linker_10, # of connection points: 2
#     Edge 62, Type (0, 0), BuildingBlock: TEMPAE_clean_linker_10, # of connection points: 2
#     Edge 63, Type (0, 0), BuildingBlock: TEMPAE_clean_linker_10, # of connection points: 2
#     Edge 64, Type (0, 0), BuildingBlock: TEMPAE_clean_linker_10, # of connection points: 2
#     Edge 65, Type (0, 0), BuildingBlock: TEMPAE_clean_linker_10, # of connection points: 2
#     Edge 66, Type (0, 0), BuildingBlock: TEMPAE_clean_linker_10, # of connection points: 2
#     Edge 67, Type (0, 0), BuildingBlock: TEMPAE_clean_linker_10, # of connection points: 2
#     Edge 68, Type (0, 0), BuildingBlock: TEMPAE_clean_linker_10, # of connection points: 2
#     Edge 69, Type (0, 0), BuildingBlock: TEMPAE_clean_linker_10, # of connection points: 2
#     Edge 70, Type (0, 0), BuildingBlock: TEMPAE_clean_linker_10, # of connection points: 2
#     Edge 71, Type (0, 0), BuildingBlock: TEMPAE_clean_linker_10, # of connection points: 2
#     Edge 72, Type (0, 0), BuildingBlock: TEMPAE_clean_linker_10, # of connection points: 2
#     Edge 73, Type (0, 0), BuildingBlock: TEMPAE_clean_linker_10, # of connection points: 2
#     Edge 74, Type (0, 0), BuildingBlock: TEMPAE_clean_linker_10, # of connection points: 2
#     Edge 75, Type (0, 0), BuildingBlock: TEMPAE_clean_linker_10, # of connection points: 2
#     Edge 76, Type (0, 0), BuildingBlock: TEMPAE_clean_linker_10, # of connection points: 2
#     Edge 77, Type (0, 0), BuildingBlock: TEMPAE_clean_linker_10, # of connection points: 2
#     Edge 78, Type (0, 0), BuildingBlock: TEMPAE_clean_linker_10, # of connection points: 2
#     Edge 79, Type (0, 0), BuildingBlock: TEMPAE_clean_linker_10, # of connection points: 2
#     Edge 80, Type (0, 0), BuildingBlock: TEMPAE_clean_linker_10, # of connection points: 2
#     Edge 81, Type (0, 0), BuildingBlock: TEMPAE_clean_linker_10, # of connection points: 2
#     Edge 82, Type (0, 0), BuildingBlock: TEMPAE_clean_linker_10, # of connection points: 2
#     Edge 83, Type (0, 0), BuildingBlock: TEMPAE_clean_linker_10, # of connection points: 2
#     Edge 84, Type (0, 0), BuildingBlock: TEMPAE_clean_linker_10, # of connection points: 2
#     Edge 85, Type (0, 0), BuildingBlock: TEMPAE_clean_linker_10, # of connection points: 2
#     Edge 86, Type (0, 0), BuildingBlock: TEMPAE_clean_linker_10, # of connection points: 2
#     Edge 87, Type (0, 0), BuildingBlock: TEMPAE_clean_linker_10, # of connection points: 2
#     Edge 88, Type (0, 0), BuildingBlock: TEMPAE_clean_linker_10, # of connection points: 2
#     Edge 89, Type (0, 0), BuildingBlock: TEMPAE_clean_linker_10, # of connection points: 2
#     Edge 90, Type (0, 0), BuildingBlock: TEMPAE_clean_linker_10, # of connection points: 2
#     Edge 91, Type (0, 0), BuildingBlock: TEMPAE_clean_linker_10, # of connection points: 2
#     Edge 92, Type (0, 0), BuildingBlock: TEMPAE_clean_linker_10, # of connection points: 2
#     Edge 93, Type (0, 0), BuildingBlock: TEMPAE_clean_linker_10, # of connection points: 2
#     Edge 94, Type (0, 0), BuildingBlock: TEMPAE_clean_linker_10, # of connection points: 2
#     Edge 95, Type (0, 0), BuildingBlock: TEMPAE_clean_linker_10, # of connection points: 2
#     Edge 96, Type (0, 0), BuildingBlock: TEMPAE_clean_linker_10, # of connection points: 2
#     Edge 97, Type (0, 0), BuildingBlock: TEMPAE_clean_linker_10, # of connection points: 2
#     Edge 98, Type (0, 0), BuildingBlock: TEMPAE_clean_linker_10, # of connection points: 2
#     Edge 99, Type (0, 0), BuildingBlock: TEMPAE_clean_linker_10, # of connection points: 2
#     Edge 100, Type (0, 0), BuildingBlock: TEMPAE_clean_linker_10, # of connection points: 2
#     Edge 101, Type (0, 0), BuildingBlock: TEMPAE_clean_linker_10, # of connection points: 2
#     Edge 102, Type (0, 0), BuildingBlock: TEMPAE_clean_linker_10, # of connection points: 2
#     Edge 103, Type (0, 0), BuildingBlock: TEMPAE_clean_linker_10, # of connection points: 2
#     Edge 104, Type (0, 0), BuildingBlock: TEMPAE_clean_linker_10, # of connection points: 2
#     Edge 105, Type (0, 0), BuildingBlock: TEMPAE_clean_linker_10, # of connection points: 2
#     Edge 106, Type (0, 0), BuildingBlock: TEMPAE_clean_linker_10, # of connection points: 2
#     Edge 107, Type (0, 0), BuildingBlock: TEMPAE_clean_linker_10, # of connection points: 2
#     Edge 108, Type (0, 0), BuildingBlock: TEMPAE_clean_linker_10, # of connection points: 2
#     Edge 109, Type (0, 0), BuildingBlock: TEMPAE_clean_linker_10, # of connection points: 2
#     Edge 110, Type (0, 0), BuildingBlock: TEMPAE_clean_linker_10, # of connection points: 2
#     Edge 111, Type (0, 0), BuildingBlock: TEMPAE_clean_linker_10, # of connection points: 2
#     Edge 112, Type (0, 0), BuildingBlock: TEMPAE_clean_linker_10, # of connection points: 2
#     Edge 113, Type (0, 0), BuildingBlock: TEMPAE_clean_linker_10, # of connection points: 2
#     Edge 114, Type (0, 0), BuildingBlock: TEMPAE_clean_linker_10, # of connection points: 2
#     Edge 115, Type (0, 0), BuildingBlock: TEMPAE_clean_linker_10, # of connection points: 2
#     Edge 116, Type (0, 0), BuildingBlock: TEMPAE_clean_linker_10, # of connection points: 2
#     Edge 117, Type (0, 0), BuildingBlock: TEMPAE_clean_linker_10, # of connection points: 2
#     Edge 118, Type (0, 0), BuildingBlock: TEMPAE_clean_linker_10, # of connection points: 2
#     Edge 119, Type (0, 0), BuildingBlock: TEMPAE_clean_linker_10, # of connection points: 2
#     Edge 120, Type (0, 0), BuildingBlock: TEMPAE_clean_linker_10, # of connection points: 2
#     Edge 121, Type (0, 0), BuildingBlock: TEMPAE_clean_linker_10, # of connection points: 2
#     Edge 122, Type (0, 0), BuildingBlock: TEMPAE_clean_linker_10, # of connection points: 2
#     Edge 123, Type (0, 0), BuildingBlock: TEMPAE_clean_linker_10, # of connection points: 2
#     Edge 124, Type (0, 0), BuildingBlock: TEMPAE_clean_linker_10, # of connection points: 2
#     Edge 125, Type (0, 0), BuildingBlock: TEMPAE_clean_linker_10, # of connection points: 2
#     Edge 126, Type (0, 0), BuildingBlock: TEMPAE_clean_linker_10, # of connection points: 2
#     Edge 127, Type (0, 0), BuildingBlock: TEMPAE_clean_linker_10, # of connection points: 2
#     Edge 128, Type (0, 0), BuildingBlock: TEMPAE_clean_linker_10, # of connection points: 2
#     Edge 129, Type (0, 0), BuildingBlock: TEMPAE_clean_linker_10, # of connection points: 2
#     Edge 130, Type (0, 0), BuildingBlock: TEMPAE_clean_linker_10, # of connection points: 2
#     Edge 131, Type (0, 0), BuildingBlock: TEMPAE_clean_linker_10, # of connection points: 2
#     Edge 132, Type (0, 0), BuildingBlock: TEMPAE_clean_linker_10, # of connection points: 2
#     Edge 133, Type (0, 0), BuildingBlock: TEMPAE_clean_linker_10, # of connection points: 2
#     Edge 134, Type (0, 0), BuildingBlock: TEMPAE_clean_linker_10, # of connection points: 2
#     Edge 135, Type (0, 0), BuildingBlock: TEMPAE_clean_linker_10, # of connection points: 2
#     Edge 136, Type (0, 0), BuildingBlock: TEMPAE_clean_linker_10, # of connection points: 2
#     Edge 137, Type (0, 0), BuildingBlock: TEMPAE_clean_linker_10, # of connection points: 2
#     Edge 138, Type (0, 0), BuildingBlock: TEMPAE_clean_linker_10, # of connection points: 2
#     Edge 139, Type (0, 0), BuildingBlock: TEMPAE_clean_linker_10, # of connection points: 2
#     Edge 140, Type (0, 0), BuildingBlock: TEMPAE_clean_linker_10, # of connection points: 2
#     Edge 141, Type (0, 0), BuildingBlock: TEMPAE_clean_linker_10, # of connection points: 2
#     Edge 142, Type (0, 0), BuildingBlock: TEMPAE_clean_linker_10, # of connection points: 2
#     Edge 143, Type (0, 0), BuildingBlock: TEMPAE_clean_linker_10, # of connection points: 2
# Relax obj value: 0.313
# Max RMSD: 0.250
# Mean RMSD: 0.250
data_MOF--net-uky--node1-CEKHIL_clean_sbu_0--edge1-TEMPAE_clean_linker_10
_symmetry_space_group_name_H-M    P1
_symmetry_Int_Tables_number       1
_symmetry_cell_setting            triclinic
loop_
_symmetry_equiv_pos_as_xyz
'x, y, z'
_cell_length_a     60.991177
_cell_length_b     60.972373
_cell_length_c     60.914809
_cell_angle_alpha  89.995862
_cell_angle_beta   89.996887
_cell_angle_gamma 89.972352
loop_
_atom_site_label
_atom_site_type_symbol
_atom_site_fract_x
_atom_site_fract_y
_atom_site_fract_z
_atom_type_partial_charge
Co0 Co 0.2016 0.19067 0.37598 0.0
O1 O 0.17686 0.17789 0.39031 0.0
O2 O 0.20102 0.15963 0.36991 0.0
C3 C 0.18408 0.21942 0.36085 0.0
O4 O 0.22833 0.19822 0.35778 0.0
Co5 Co 0.21915 0.237 0.3877 0.0
O6 O 0.23434 0.23451 0.35905 0.0
C7 C 0.2282 0.19943 0.41719 0.0
C8 C 0.18318 0.15951 0.38155 0.0
C9 C 0.23757 0.21572 0.35051 0.0
O10 O 0.21974 0.18601 0.40327 0.0
O11 O 0.2284 0.22026 0.41447 0.0
O12 O 0.18321 0.2002 0.35172 0.0
O13 O 0.19338 0.22007 0.37993 0.0
Co14 Co 0.0587 0.95976 0.62126 0.0
O15 O 0.06906 0.93066 0.62586 0.0
O16 O 0.09019 0.95904 0.61693 0.0
C17 C 0.03047 0.95016 0.59951 0.0
O18 O 0.05331 0.99175 0.61395 0.0
Co19 Co 0.01211 0.9734 0.63698 0.0
O20 O 0.01715 -0.00161 0.61666 0.0
C21 C 0.04776 0.96696 0.66909 0.0
C22 C 0.08829 0.93816 0.6208 0.0
C23 C 0.03636 0.00379 0.61041 0.0
O24 O 0.06209 0.96654 0.65357 0.0
O25 O 0.02704 0.96736 0.66571 0.0
O26 O 0.05006 0.95208 0.5914 0.0
O27 O 0.02902 0.95217 0.62057 0.0
Co28 Co 0.26306 0.77948 0.87039 0.0
O29 O 0.29358 0.77884 0.87726 0.0
O30 O 0.27557 0.80824 0.86561 0.0
C31 C 0.2632 0.74862 0.85041 0.0
O32 O 0.2319 0.78567 0.86022 0.0
Co33 Co 0.23211 0.74247 0.88644 0.0
O34 O 0.21334 0.75395 0.86261 0.0
C35 C 0.24624 0.77686 0.9174 0.0
C36 C 0.29405 0.7993 0.87147 0.0
C37 C 0.21544 0.77341 0.85529 0.0
O38 O 0.25591 0.78724 0.90179 0.0
O39 O 0.23688 0.75825 0.91481 0.0
O40 O 0.26913 0.76714 0.84172 0.0
O41 O 0.25931 0.74894 0.87129 0.0
Co42 Co 0.45129 0.0329 0.12093 0.0
O43 O 0.44269 0.06267 0.1251 0.0
O44 O 0.41971 0.0352 0.11815 0.0
C45 C 0.47892 0.03996 0.09762 0.0
O46 O 0.45488 0.00043 0.11407 0.0
Co47 Co 0.49758 0.01715 0.1355 0.0
O48 O 0.49108 0.99338 0.11437 0.0
C49 C 0.46264 0.02232 0.16865 0.0
C50 C 0.42287 0.05607 0.12121 0.0
C51 C 0.47151 0.98838 0.10905 0.0
O52 O 0.44864 0.02698 0.15353 0.0
O53 O 0.48304 0.01912 0.16485 0.0
O54 O 0.45882 0.03934 0.09065 0.0
O55 O 0.48138 0.03873 0.11869 0.0
Co56 Co 0.20752 0.8012 0.11497 0.0
O57 O 0.18467 0.81691 0.10042 0.0
O58 O 0.21078 0.83221 0.12073 0.0
C59 C 0.18581 0.77547 0.13021 0.0
O60 O 0.23311 0.7903 0.1333 0.0
Co61 Co 0.21835 0.75263 0.1041 0.0
O62 O 0.23487 0.75353 0.13204 0.0
C63 C 0.23306 0.7882 0.07429 0.0
C64 C 0.19298 0.83442 0.10923 0.0
C65 C 0.24067 0.77184 0.14022 0.0
O66 O 0.22618 0.80298 0.08771 0.0
O67 O 0.23039 0.76759 0.07741 0.0
O68 O 0.18789 0.79463 0.13924 0.0
O69 O 0.19523 0.77319 0.11132 0.0
Co70 Co 0.44893 0.98604 0.37127 0.0
O71 O 0.44707 0.95784 0.35797 0.0
O72 O 0.41891 0.97536 0.37294 0.0
C73 C 0.47885 0.97817 0.39122 0.0
O74 O 0.44587 0.01485 0.38824 0.0
Co75 Co 0.48973 0.01509 0.36231 0.0
O76 O 0.47988 0.02895 0.38986 0.0
C77 C 0.45503 0.01206 0.32879 0.0
C78 C 0.42666 0.95768 0.36377 0.0
C79 C 0.46019 0.0279 0.39677 0.0
O80 O 0.44311 0.00056 0.34192 0.0
O81 O 0.47445 0.01845 0.3335 0.0
O82 O 0.45952 0.97258 0.39811 0.0
O83 O 0.47967 0.98644 0.37167 0.0
Co84 Co 0.28013 0.19704 0.61625 0.0
O85 O 0.30824 0.18912 0.60468 0.0
O86 O 0.28627 0.16685 0.62338 0.0
C87 C 0.29073 0.22872 0.63183 0.0
O88 O 0.25077 0.19947 0.63187 0.0
Co89 Co 0.25523 0.23919 0.60215 0.0
O90 O 0.23896 0.23428 0.62984 0.0
C91 C 0.25585 0.20028 0.57292 0.0
C92 C 0.30498 0.17011 0.61375 0.0
C93 C 0.23824 0.2152 0.6383 0.0
O94 O 0.26583 0.18875 0.58754 0.0
O95 O 0.25127 0.22064 0.57533 0.0
O96 O 0.29407 0.21016 0.64173 0.0
O97 O 0.28301 0.22741 0.61211 0.0
Co98 Co 0.04798 0.02576 0.86928 0.0
O99 O 0.05723 0.05328 0.85761 0.0
O100 O 0.07941 0.02851 0.8726 0.0
C101 C 0.01981 0.0387 0.88928 0.0
O102 O 0.04388 0.99611 0.8839 0.0
Co103 Co 0.00182 0.00738 0.85781 0.0
O104 O 0.00794 0.98782 0.88315 0.0
C105 C 0.0369 0.00736 0.82448 0.0
C106 C 0.07683 0.04775 0.86376 0.0
C107 C 0.02736 0.9846 0.89022 0.0
O108 O 0.05121 0.01191 0.83932 0.0
O109 O 0.01623 0.00688 0.82818 0.0
O110 O 0.0397 0.03973 0.89677 0.0
O111 O 0.01796 0.03222 0.86915 0.0
Co112 Co 0.37235 0.21171 0.20494 0.0
O113 O 0.38297 0.18381 0.19576 0.0
O114 O 0.37287 0.21064 0.17316 0.0
C115 C 0.34812 0.19975 0.22971 0.0
O116 O 0.35947 0.24225 0.20926 0.0
Co117 Co 0.38026 0.22634 0.25329 0.0
O118 O 0.35707 0.24778 0.24573 0.0
C119 C 0.41691 0.22655 0.22191 0.0
C120 C 0.38001 0.1907 0.17586 0.0
C121 C 0.35203 0.25279 0.22604 0.0
O122 O 0.40345 0.22303 0.20601 0.0
O123 O 0.41105 0.22669 0.24208 0.0
O124 O 0.34308 0.19987 0.20901 0.0
O125 O 0.3684 0.20389 0.23426 0.0
Co126 Co 0.0315 0.12497 0.45703 0.0
O127 O 0.05802 0.13398 0.44305 0.0
O128 O 0.03006 0.11762 0.42622 0.0
C129 C 0.04706 0.10809 0.48591 0.0
O130 O 0.00206 0.11263 0.4661 0.0
Co131 Co 0.01815 0.14128 0.50365 0.0
O132 O -0.00267 0.11643 0.50254 0.0
C133 C 0.01064 0.1694 0.46454 0.0
C134 C 0.04972 0.12572 0.42524 0.0
C135 C 0.99174 0.10851 0.48404 0.0
O136 O 0.01812 0.1546 0.45154 0.0
O137 O 0.01017 0.16748 0.48547 0.0
O138 O 0.04555 0.09825 0.46708 0.0
O139 O 0.04131 0.12851 0.48607 0.0
Co140 Co 0.11505 0.77598 0.68961 0.0
O141 O 0.10112 0.80221 0.67954 0.0
O142 O 0.12057 0.77955 0.65863 0.0
C143 C 0.13051 0.7913 0.71929 0.0
O144 O 0.13298 0.74823 0.69409 0.0
Co145 Co 0.10489 0.75443 0.73448 0.0
O146 O 0.13321 0.73926 0.72979 0.0
C147 C 0.07355 0.74996 0.6975 0.0
C148 C 0.10969 0.79778 0.66053 0.0
C149 C 0.14091 0.73748 0.71045 0.0
O150 O 0.08715 0.75907 0.68415 0.0
O151 O 0.07724 0.74773 0.71808 0.0
O152 O 0.13985 0.79295 0.70021 0.0
O153 O 0.1116 0.78177 0.71964 0.0
Co154 Co 0.45746 0.86226 0.95565 0.0
O155 O 0.42833 0.85115 0.95361 0.0
O156 O 0.44691 0.86565 0.92587 0.0
C157 C 0.45197 0.88156 0.98649 0.0
O158 O 0.48741 0.87659 0.95227 0.0
Co159 Co 0.487 0.85022 0.99541 0.0
O160 O 0.50333 0.87649 0.98557 0.0
C161 C 0.48071 0.81822 0.95951 0.0
C162 C 0.42876 0.85711 0.93318 0.0
C163 C 0.50208 0.88337 0.96587 0.0
O164 O 0.46967 0.8324 0.94846 0.0
O165 O 0.48797 0.8218 0.97892 0.0
O166 O 0.44634 0.88961 0.96757 0.0
O167 O 0.45872 0.86146 0.98635 0.0
Co168 Co 0.37264 0.78201 0.29126 0.0
O169 O 0.38434 0.81101 0.28923 0.0
O170 O 0.37148 0.79607 0.31978 0.0
C171 C 0.35071 0.78398 0.26186 0.0
O172 O 0.35783 0.75298 0.29871 0.0
Co173 Co 0.38209 0.74872 0.25341 0.0
O174 O 0.35886 0.73185 0.26826 0.0
C175 C 0.4162 0.75765 0.28647 0.0
C176 C 0.37961 0.81315 0.30987 0.0
C177 C 0.35219 0.73588 0.28765 0.0
O178 O 0.40295 0.76986 0.29751 0.0
O179 O 0.41134 0.74905 0.26794 0.0
O180 O 0.3445 0.79224 0.28048 0.0
O181 O 0.37084 0.77743 0.2609 0.0
Co182 Co 0.46853 0.12525 0.56705 0.0
O183 O 0.44193 0.13713 0.57843 0.0
O184 O 0.46685 0.11935 0.59826 0.0
C185 C 0.45281 0.10876 0.53794 0.0
O186 O 0.49741 0.10982 0.5607 0.0
Co187 Co 0.48603 0.13818 0.52098 0.0
O188 O 0.50419 0.11152 0.52448 0.0
C189 C 0.49151 0.16855 0.55866 0.0
C190 C 0.44793 0.12912 0.5972 0.0
C191 C 0.50804 0.10373 0.54349 0.0
O192 O 0.48367 0.15426 0.57208 0.0
O193 O 0.49264 0.16555 0.53787 0.0
O194 O 0.45294 0.09923 0.55699 0.0
O195 O 0.4607 0.12842 0.53741 0.0
Co196 Co 0.12099 0.20303 0.79877 0.0
O197 O 0.11755 0.17462 0.81128 0.0
O198 O 0.1261 0.20465 0.83017 0.0
C199 C 0.14231 0.19283 0.77049 0.0
O200 O 0.12713 0.2347 0.7906 0.0
Co201 Co 0.10262 0.21217 0.75188 0.0
O202 O 0.12234 0.238 0.75409 0.0
C203 C 0.07242 0.20938 0.78945 0.0
C204 C 0.12279 0.18358 0.82983 0.0
C205 C 0.12943 0.24523 0.77241 0.0
O206 O 0.08873 0.20945 0.80286 0.0
O207 O 0.07461 0.20817 0.76858 0.0
O208 O 0.15073 0.19569 0.78985 0.0
O209 O 0.12115 0.19351 0.76959 0.0
Co210 Co 0.03175 0.86451 0.04806 0.0
O211 O 0.05974 0.85415 0.0576 0.0
O212 O 0.03495 0.87009 0.07911 0.0
C213 C 0.04377 0.8828 0.01835 0.0
O214 O 0.00171 0.87826 0.04383 0.0
Co215 Co 0.01192 0.85099 0.00299 0.0
O216 O 0.99343 0.87721 0.00789 0.0
C217 C 0.0104 0.82012 0.04057 0.0
C218 C 0.0544 0.86171 0.07679 0.0
C219 C 0.99028 0.88451 0.02722 0.0
O220 O 0.01864 0.83461 0.05352 0.0
O221 O 0.00753 0.82322 0.01997 0.0
O222 O 0.04499 0.89156 0.03772 0.0
O223 O 0.03749 0.86254 0.01784 0.0
Co224 Co 0.19162 0.37185 0.22132 0.0
O225 O 0.18735 0.38279 0.19219 0.0
O226 O 0.16127 0.36799 0.21293 0.0
C227 C 0.22205 0.35257 0.21364 0.0
O228 O 0.19025 0.35757 0.25158 0.0
Co229 Co 0.23316 0.38332 0.24836 0.0
O230 O 0.22456 0.35677 0.26495 0.0
C231 C 0.19827 0.41653 0.24238 0.0
C232 C 0.16717 0.37647 0.19426 0.0
C233 C 0.20478 0.35007 0.26497 0.0
O234 O 0.18564 0.40213 0.23347 0.0
O235 O 0.21802 0.41246 0.24824 0.0
O236 O 0.20282 0.34437 0.20962 0.0
O237 O 0.22232 0.37265 0.22042 0.0
Co238 Co 0.70218 0.12922 0.77934 0.0
O239 O 0.69495 0.13341 0.80945 0.0
O240 O 0.67102 0.13498 0.782 0.0
C241 C 0.73196 0.15069 0.77908 0.0
O242 O 0.70472 0.12713 0.74623 0.0
Co243 Co 0.74618 0.10606 0.76762 0.0
O244 O 0.74018 0.12011 0.73881 0.0
C245 C 0.70913 0.07988 0.78352 0.0
C246 C 0.67498 0.13668 0.80294 0.0
C247 C 0.72113 0.12649 0.73295 0.0
O248 O 0.6965 0.09668 0.78173 0.0
O249 O 0.72992 0.08075 0.78082 0.0
O250 O 0.71254 0.15931 0.77748 0.0
O251 O 0.73249 0.12995 0.78348 0.0
Co252 Co 0.12643 0.43758 0.01983 0.0
O253 O 0.14172 0.43151 0.04656 0.0
O254 O 0.12226 0.40712 0.02776 0.0
C255 C 0.1101 0.46842 0.03149 0.0
O256 O 0.1074 0.43852 0.9922 0.0
Co257 Co 0.13621 0.47996 0.9932 0.0
O258 O 0.10709 0.4735 0.98051 0.0
C259 C 0.1678 0.44315 0.99268 0.0
C260 C 0.13394 0.41179 0.045 0.0
C261 C 0.09908 0.45421 0.98069 0.0
O262 O 0.15402 0.43072 0.00277 0.0
O263 O 0.16416 0.46343 0.98857 0.0
O264 O 0.10185 0.4494 0.03627 0.0
O265 O 0.12894 0.46811 0.02177 0.0
Co266 Co 0.79471 0.87289 0.26599 0.0
O267 O 0.79584 0.8825 0.2957 0.0
O268 O 0.82452 0.8703 0.27689 0.0
C269 C 0.76495 0.85189 0.2707 0.0
O270 O 0.79889 0.85986 0.23543 0.0
Co271 Co 0.75488 0.88432 0.23674 0.0
O272 O 0.76522 0.85811 0.22067 0.0
C273 C 0.78847 0.91808 0.2452 0.0
C274 C 0.81638 0.8771 0.29544 0.0
C275 C 0.78512 0.85183 0.22156 0.0
O276 O 0.80035 0.90389 0.25542 0.0
O277 O 0.76943 0.9137 0.23753 0.0
O278 O 0.78427 0.84445 0.27564 0.0
O279 O 0.76396 0.87225 0.26478 0.0
Co280 Co 0.86553 0.03796 0.03129 0.0
O281 O 0.85073 0.04414 0.05825 0.0
O282 O 0.86852 0.06878 0.03817 0.0
C283 C 0.88363 0.00823 0.04322 0.0
O284 O 0.88377 0.03711 0.00318 0.0
Co285 Co 0.85709 0.99436 0.00615 0.0
O286 O 0.88535 0.00194 0.99216 0.0
C287 C 0.82451 0.03025 0.00395 0.0
C288 C 0.85762 0.06413 0.05593 0.0
C289 C 0.89232 0.02162 0.99159 0.0
O290 O 0.83737 0.04318 0.0146 0.0
O291 O 0.82897 0.0101 3e-05 0.0
O292 O 0.89105 0.02774 0.04738 0.0
O293 O 0.8645 0.00742 0.03412 0.0
Co294 Co 0.30211 0.62169 0.70339 0.0
O295 O 0.31782 0.61926 0.67653 0.0
O296 O 0.33319 0.62613 0.70892 0.0
C297 C 0.27546 0.64402 0.69119 0.0
O298 O 0.29012 0.62644 0.73411 0.0
Co299 Co 0.25441 0.60327 0.70538 0.0
O300 O 0.25361 0.62085 0.7328 0.0
C301 C 0.29181 0.57297 0.70582 0.0
C302 C 0.33528 0.62363 0.68781 0.0
C303 C 0.27079 0.62772 0.74258 0.0
O304 O 0.30506 0.58911 0.70876 0.0
O305 O 0.27138 0.57539 0.70172 0.0
O306 O 0.29447 0.65194 0.69657 0.0
O307 O 0.27435 0.62286 0.69046 0.0
Co308 Co 0.12724 0.53945 0.47035 0.0
O309 O 0.13573 0.54063 0.44025 0.0
O310 O 0.12153 0.56855 0.4589 0.0
C311 C 0.10884 0.5078 0.46756 0.0
O312 O 0.11477 0.54329 0.50115 0.0
Co313 Co 0.1429 0.5014 0.50052 0.0
O314 O 0.11658 0.51021 0.51729 0.0
C315 C 0.17313 0.53784 0.49009 0.0
C316 C 0.12831 0.56056 0.44029 0.0
C317 C 0.10852 0.52944 0.51585 0.0
O318 O 0.15776 0.54822 0.47995 0.0
O319 O 0.17065 0.51862 0.49817 0.0
O320 O 0.09971 0.52614 0.46179 0.0
O321 O 0.12937 0.50889 0.47275 0.0
Co322 Co 0.37139 0.44846 0.96891 0.0
O323 O 0.3592 0.45071 0.94012 0.0
O324 O 0.37348 0.42038 0.95426 0.0
C325 C 0.39207 0.4787 0.96764 0.0
O326 O 0.38694 0.44087 -0.00253 0.0
Co327 Co 0.35987 0.4839 0.00354 0.0
O328 O 0.38524 0.47094 0.01896 0.0
C329 C 0.3268 0.45107 0.99171 0.0
C330 C 0.36441 0.43024 0.93762 0.0
C331 C 0.39312 0.45218 0.01422 0.0
O332 O 0.34147 0.4405 0.98083 0.0
O333 O 0.33049 0.46966 0.00072 0.0
O334 O 0.39883 0.46057 0.95874 0.0
O335 O 0.37192 0.47879 0.97442 0.0
Co336 Co 0.70442 0.70102 0.87589 0.0
O337 O 0.67623 0.69083 0.88512 0.0
O338 O 0.70176 0.67013 0.86935 0.0
C339 C 0.69279 0.73108 0.85794 0.0
O340 O 0.73481 0.70605 0.86315 0.0
Co341 Co 0.72307 0.74591 0.89155 0.0
O342 O 0.74292 0.7419 0.86615 0.0
C343 C 0.7245 0.70739 0.92116 0.0
C344 C 0.68201 0.67194 0.87717 0.0
C345 C 0.74646 0.72293 0.85815 0.0
O346 O 0.71681 0.69483 0.90602 0.0
O347 O 0.727 0.72812 0.91886 0.0
O348 O 0.69189 0.71194 0.84869 0.0
O349 O 0.69826 0.73109 0.87846 0.0
Co350 Co 0.56181 0.48053 0.11339 0.0
O351 O 0.56379 0.45109 0.1238 0.0
O352 O 0.59198 0.47074 0.11162 0.0
C353 C 0.53271 0.47398 0.09189 0.0
O354 O 0.56567 0.5108 0.09976 0.0
Co355 Co 0.52082 0.50892 0.12247 0.0
O356 O 0.53271 0.52715 0.09858 0.0
C357 C 0.5532 0.50194 0.15775 0.0
C358 C 0.58439 0.45213 0.11873 0.0
C359 C 0.55275 0.52603 0.09287 0.0
O360 O 0.56613 0.49197 0.14432 0.0
O361 O 0.53411 0.50882 0.15243 0.0
O362 O 0.55232 0.46955 0.08499 0.0
O363 O 0.53101 0.4807 0.11194 0.0
Co364 Co 0.78216 0.30578 0.38018 0.0
O365 O 0.80829 0.31472 0.39489 0.0
O366 O 0.78644 0.33689 0.37584 0.0
C367 C 0.79661 0.27615 0.3636 0.0
O368 O 0.75443 0.3022 0.36209 0.0
Co369 Co 0.76018 0.26085 0.39006 0.0
O370 O 0.74464 0.26667 0.36216 0.0
C371 C 0.75524 0.29778 0.42131 0.0
C372 C 0.8042 0.33419 0.38733 0.0
C373 C 0.74304 0.28609 0.35461 0.0
O374 O 0.76487 0.31096 0.40792 0.0
O375 O 0.753 0.27722 0.41765 0.0
O376 O 0.79918 0.29554 0.35517 0.0
O377 O 0.78729 0.27556 0.38264 0.0
Co378 Co 0.94052 0.54008 0.62198 0.0
O379 O 0.92935 0.56915 0.62434 0.0
O380 O 0.90932 0.53985 0.61583 0.0
C381 C 0.97001 0.54916 0.60179 0.0
O382 O 0.94694 0.50793 0.61668 0.0
Co383 Co 0.9862 0.52797 0.64131 0.0
O384 O 0.98303 0.50214 0.62162 0.0
C385 C 0.9482 0.53398 0.67075 0.0
C386 C 0.91058 0.56096 0.61862 0.0
C387 C 0.96427 0.49608 0.61464 0.0
O388 O 0.93505 0.53453 0.65422 0.0
O389 O 0.96911 0.5336 0.66889 0.0
O390 O 0.95105 0.54652 0.59245 0.0
O391 O 0.97005 0.54818 0.62296 0.0
Co392 Co 0.71691 0.28715 0.62125 0.0
O393 O 0.68799 0.28943 0.60939 0.0
O394 O 0.70489 0.31576 0.62791 0.0
C395 C 0.71188 0.25398 0.63631 0.0
O396 O 0.74621 0.29021 0.63702 0.0
Co397 Co 0.7489 0.2503 0.6067 0.0
O398 O 0.76438 0.25828 0.6341 0.0
C399 C 0.74097 0.28855 0.57772 0.0
C400 C 0.68735 0.30895 0.61785 0.0
C401 C 0.7617 0.27707 0.64282 0.0
O402 O 0.72957 0.29809 0.59271 0.0
O403 O 0.74884 0.26918 0.5798 0.0
O404 O 0.70552 0.27153 0.64659 0.0
O405 O 0.71953 0.25685 0.61676 0.0
Co406 Co 0.93866 0.46122 0.86572 0.0
O407 O 0.92654 0.43485 0.85403 0.0
O408 O 0.90725 0.46121 0.87025 0.0
C409 C 0.96628 0.44539 0.88449 0.0
O410 O 0.94582 0.49007 0.88063 0.0
Co411 Co 0.98597 0.47575 0.85331 0.0
O412 O 0.98228 0.49534 0.87908 0.0
C413 C 0.95003 0.47972 0.82105 0.0
C414 C 0.90778 0.44193 0.86116 0.0
C415 C 0.96338 0.50005 0.88669 0.0
O416 O 0.93571 0.47591 0.83611 0.0
O417 O 0.97074 0.47835 0.82423 0.0
O418 O 0.94665 0.44602 0.89269 0.0
O419 O 0.96799 0.45212 0.86444 0.0
Co420 Co 0.78663 0.68803 0.11671 0.0
O421 O 0.81234 0.67687 0.10267 0.0
O422 O 0.78877 0.65683 0.12196 0.0
C423 C 0.80313 0.71695 0.13269 0.0
O424 O 0.75889 0.6939 0.13427 0.0
Co425 Co 0.76783 0.73425 0.10626 0.0
O426 O 0.75131 0.72996 0.1339 0.0
C427 C 0.75978 0.69707 0.07579 0.0
C428 C 0.80694 0.65798 0.11088 0.0
C429 C 0.74825 0.7107 0.14136 0.0
O430 O 0.76931 0.68348 0.08886 0.0
O431 O 0.75856 0.71773 0.07939 0.0
O432 O 0.80406 0.69767 0.1417 0.0
O433 O 0.79392 0.71776 0.11361 0.0
Co434 Co 0.54627 0.52189 0.36521 0.0
O435 O 0.55548 0.55078 0.35753 0.0
O436 O 0.57783 0.52416 0.36862 0.0
C437 C 0.51835 0.5319 0.38699 0.0
O438 O 0.54175 0.49053 0.37592 0.0
Co439 Co 0.50023 0.50575 0.35064 0.0
O440 O 0.50542 0.48434 0.37446 0.0
C441 C 0.53598 0.50737 0.31823 0.0
C442 C 0.5751 0.54448 0.36266 0.0
C443 C 0.52453 0.47958 0.38148 0.0
O444 O 0.54962 0.5123 0.33359 0.0
O445 O 0.51534 0.50537 0.32149 0.0
O446 O 0.53832 0.53191 0.39432 0.0
O447 O 0.51623 0.52852 0.36609 0.0
Co448 Co 0.86959 0.71882 0.70173 0.0
O449 O 0.87991 0.6901 0.69483 0.0
O450 O 0.86486 0.71315 0.67088 0.0
C451 C 0.85066 0.70947 0.73183 0.0
O452 O 0.85604 0.74929 0.70341 0.0
Co453 Co 0.88349 0.74172 0.7451 0.0
O454 O 0.85737 0.75993 0.73872 0.0
C455 C 0.91496 0.7384 0.7084 0.0
C456 C 0.87326 0.69397 0.67496 0.0
C457 C 0.84982 0.76175 0.71931 0.0
O458 O 0.8998 0.7309 0.69579 0.0
O459 O 0.91203 0.74249 0.72881 0.0
O460 O 0.8422 0.7068 0.71247 0.0
O461 O 0.87102 0.71544 0.73226 0.0
Co462 Co 0.53514 0.6213 0.93073 0.0
O463 O 0.55752 0.63389 0.91298 0.0
O464 O 0.52971 0.61419 0.90014 0.0
C465 C 0.55808 0.60655 0.95557 0.0
O466 O 0.50947 0.60492 0.94451 0.0
Co467 Co 0.52889 0.63527 0.97945 0.0
O468 O 0.51083 0.60841 0.98123 0.0
C469 C 0.51223 0.66353 0.94343 0.0
C470 C 0.54784 0.62477 0.8964 0.0
C471 C 0.50305 0.59959 0.96396 0.0
O472 O 0.51771 0.64935 0.92877 0.0
O473 O 0.51624 0.66129 0.96394 0.0
O474 O 0.55397 0.5964 0.93731 0.0
O475 O 0.54973 0.62593 0.95744 0.0
Co476 Co 0.61622 0.2879 0.20373 0.0
O477 O 0.60207 0.31438 0.19493 0.0
O478 O 0.61845 0.29106 0.1722 0.0
C479 C 0.63571 0.30228 0.23139 0.0
O480 O 0.6335 0.25947 0.20755 0.0
Co481 Co 0.60734 0.2685 0.25014 0.0
O482 O 0.63469 0.25232 0.24376 0.0
C483 C 0.57454 0.26288 0.21511 0.0
C484 C 0.6081 0.30951 0.17511 0.0
C485 C 0.64154 0.24925 0.22425 0.0
O486 O 0.58747 0.2718 0.20105 0.0
O487 O 0.57893 0.26096 0.23555 0.0
O488 O 0.64254 0.30404 0.21129 0.0
O489 O 0.6162 0.29429 0.2338 0.0
Co490 Co 0.96286 0.36929 0.46421 0.0
O491 O 0.93481 0.36183 0.4525 0.0
O492 O 0.96246 0.37574 0.43313 0.0
C493 C 0.95077 0.38786 0.49364 0.0
O494 O 0.99364 0.3799 0.47102 0.0
Co495 Co 0.97792 0.35231 0.5101 0.0
O496 O -2e-05 0.37592 0.50721 0.0
C497 C 0.98011 0.32313 0.4713 0.0
C498 C 0.94227 0.36898 0.43388 0.0
C499 C 0.00498 0.38365 0.48845 0.0
O500 O 0.97374 0.33866 0.45854 0.0
O501 O 0.98165 0.32506 0.49217 0.0
O502 O 0.95145 0.39715 0.47448 0.0
O503 O 0.95493 0.36706 0.4939 0.0
Co504 Co 0.87964 0.2878 0.79746 0.0
O505 O 0.8896 0.31363 0.81203 0.0
O506 O 0.87427 0.28501 0.82864 0.0
C507 C 0.86056 0.30436 0.77057 0.0
O508 O 0.86641 0.259 0.78744 0.0
Co509 Co 0.89436 0.27773 0.74959 0.0
O510 O 0.86994 0.25623 0.75078 0.0
C511 C 0.92535 0.2717 0.78626 0.0
C512 C 0.8823 0.30471 0.82994 0.0
C513 C 0.86172 0.2499 0.76896 0.0
O514 O 0.90971 0.27421 0.80021 0.0
O515 O 0.92294 0.27454 0.76556 0.0
O516 O 0.85221 0.30217 0.79004 0.0
O517 O 0.88108 0.2992 0.76887 0.0
Co518 Co 0.96926 0.61804 0.04659 0.0
O519 O 0.94167 0.62859 0.05698 0.0
O520 O 0.96688 0.61232 0.07775 0.0
C521 C 0.95623 0.60015 0.0171 0.0
O522 O -0.00094 0.60405 0.04117 0.0
Co523 Co 0.98755 0.63232 0.00106 0.0
O524 O 0.00587 0.60582 0.00492 0.0
C525 C 0.99026 0.66261 0.03894 0.0
C526 C 0.94751 0.62104 0.07601 0.0
C527 C 0.00969 0.59801 0.02394 0.0
O528 O 0.98273 0.6478 0.05195 0.0
O529 O 0.99227 0.65992 0.01818 0.0
O530 O 0.95549 0.59118 0.0364 0.0
O531 O 0.96259 0.62039 0.01663 0.0
Co532 Co 0.61623 0.70721 0.28867 0.0
O533 O 0.60334 0.68027 0.298 0.0
O534 O 0.61949 0.70422 0.3202 0.0
C535 C 0.63588 0.69366 0.26059 0.0
O536 O 0.63217 0.73626 0.28396 0.0
Co537 Co 0.60443 0.72505 0.24217 0.0
O538 O 0.63001 0.74406 0.24786 0.0
C539 C 0.57293 0.73028 0.2785 0.0
C540 C 0.60977 0.68541 0.3176 0.0
C541 C 0.63791 0.74747 0.26693 0.0
O542 O 0.58703 0.72252 0.29216 0.0
O543 O 0.57626 0.73121 0.25777 0.0
O544 O 0.64301 0.69206 0.28058 0.0
O545 O 0.61588 0.70049 0.25863 0.0
Co546 Co 0.52173 0.37155 0.55025 0.0
O547 O 0.55161 0.36352 0.55462 0.0
O548 O 0.53011 0.37791 0.58032 0.0
C549 C 0.52776 0.38894 0.51831 0.0
O550 O 0.49047 0.38333 0.55091 0.0
Co551 Co 0.49568 0.35456 0.50993 0.0
O552 O 0.47717 0.38034 0.51663 0.0
C553 C 0.50266 0.32545 0.54817 0.0
C554 C 0.54938 0.37085 0.57446 0.0
C555 C 0.47654 0.38847 0.53588 0.0
O556 O 0.51187 0.34113 0.55889 0.0
O557 O 0.49618 0.32732 0.52826 0.0
O558 O 0.5311 0.39893 0.53684 0.0
O559 O 0.52254 0.36844 0.51965 0.0
Co560 Co 0.69536 0.88487 0.71938 0.0
O561 O 0.68643 0.89819 0.69241 0.0
O562 O 0.66406 0.88133 0.71572 0.0
C563 C 0.72395 0.86612 0.70554 0.0
O564 O 0.69898 0.86835 0.7481 0.0
Co565 Co 0.74131 0.89466 0.73949 0.0
O566 O 0.7347 0.86824 0.75734 0.0
C567 C 0.70612 0.92795 0.74124 0.0
C568 C 0.66688 0.89117 0.697 0.0
C569 C 0.71515 0.86122 0.75966 0.0
O570 O 0.69172 0.91375 0.73522 0.0
O571 O 0.72675 0.92407 0.74182 0.0
O572 O 0.70418 0.85849 0.70372 0.0
O573 O 0.72549 0.88569 0.71352 0.0
Co574 Co 0.19372 0.62003 0.2665 0.0
O575 O 0.19388 0.60543 0.29408 0.0
O576 O 0.16442 0.6204 0.27895 0.0
C577 C 0.22347 0.64037 0.27359 0.0
O578 O 0.18829 0.63766 0.23852 0.0
Co579 Co 0.23263 0.61266 0.23482 0.0
O580 O 0.22058 0.63919 0.22072 0.0
C581 C 0.20012 0.5776 0.24097 0.0
C582 C 0.17327 0.61029 0.29559 0.0
C583 C 0.20099 0.6458 0.2237 0.0
O584 O 0.18779 0.59112 0.25147 0.0
O585 O 0.21936 0.5826 0.23423 0.0
O586 O 0.20435 0.64653 0.28052 0.0
O587 O 0.22443 0.62127 0.26435 0.0
Co588 Co 0.62779 0.94753 0.53328 0.0
O589 O 0.64001 0.93551 0.55947 0.0
O590 O 0.62149 0.9164 0.53457 0.0
C591 C 0.61135 0.97648 0.54914 0.0
O592 O 0.61193 0.95516 0.50481 0.0
Co593 Co 0.64261 0.99371 0.51719 0.0
O594 O 0.61539 0.99158 0.49976 0.0
C595 C 0.67127 0.95523 0.51 0.0
C596 C 0.63154 0.917 0.55339 0.0
C597 C 0.6064 0.97325 0.49533 0.0
O598 O 0.65638 0.94227 0.51743 0.0
O599 O 0.66931 0.97614 0.50977 0.0
O600 O 0.60219 0.9573 0.54945 0.0
O601 O 0.63119 0.97698 0.54162 0.0
Co602 Co 0.27972 0.37619 0.77177 0.0
O603 O 0.28409 0.38407 0.80173 0.0
O604 O 0.31036 0.37231 0.77937 0.0
C605 C 0.24975 0.35567 0.77762 0.0
O606 O 0.28043 0.36516 0.74031 0.0
Co607 Co 0.23724 0.39108 0.74768 0.0
O608 O 0.24582 0.36691 0.72759 0.0
C609 C 0.27282 0.42281 0.75546 0.0
C610 C 0.30438 0.3784 0.79896 0.0
C611 C 0.26547 0.35986 0.72637 0.0
O612 O 0.2855 0.40726 0.76198 0.0
O613 O 0.25251 0.42003 0.75091 0.0
O614 O 0.26916 0.34756 0.78088 0.0
O615 O 0.24906 0.37641 0.77324 0.0
Co616 Co 0.37004 0.55182 0.53252 0.0
O617 O 0.35672 0.56371 0.55829 0.0
O618 O 0.37773 0.5825 0.53521 0.0
C619 C 0.38374 0.52161 0.54869 0.0
O620 O 0.38746 0.54461 0.50488 0.0
Co621 Co 0.3555 0.50681 0.5134 0.0
O622 O 0.38373 0.50866 0.49758 0.0
C623 C 0.32846 0.54651 0.50557 0.0
C624 C 0.36657 0.58192 0.55339 0.0
C625 C 0.3932 0.52703 0.49462 0.0
O626 O 0.34277 0.55882 0.51503 0.0
O627 O 0.33017 0.52561 0.50433 0.0
O628 O 0.39398 0.54021 0.55004 0.0
O629 O 0.36463 0.52232 0.53953 0.0
Co630 Co 0.79787 0.12434 0.22366 0.0
O631 O 0.80355 0.11441 0.19452 0.0
O632 O 0.82896 0.12687 0.21752 0.0
C633 C 0.76903 0.14543 0.21459 0.0
O634 O 0.79746 0.13754 0.25443 0.0
Co635 Co 0.7539 0.11322 0.24672 0.0
O636 O 0.76216 0.13877 0.26493 0.0
C637 C 0.78826 0.07924 0.24314 0.0
C638 C 0.82382 0.11966 0.1981 0.0
C639 C 0.78201 0.14498 0.26681 0.0
O640 O 0.80176 0.09343 0.23522 0.0
O641 O 0.76822 0.0837 0.24757 0.0
O642 O 0.78888 0.15271 0.21221 0.0
O643 O 0.76731 0.12511 0.22046 0.0
Co644 Co 0.6246 0.03468 0.94935 0.0
O645 O 0.6374 0.04365 0.92218 0.0
O646 O 0.62124 0.06599 0.94603 0.0
C647 C 0.60566 0.00608 0.93602 0.0
O648 O 0.60856 0.03116 0.97841 0.0
Co649 Co 0.63478 0.98917 0.96985 0.0
O650 O 0.60826 0.99545 0.98753 0.0
C651 C 0.6674 0.02491 0.9731 0.0
C652 C 0.63096 0.06332 0.92722 0.0
C653 C 0.60137 0.01502 0.98998 0.0
O654 O 0.65375 0.03854 0.96453 0.0
O655 O 0.66334 0.00443 0.97541 0.0
O656 O 0.59801 0.02587 0.93422 0.0
O657 O 0.6254 0.0045 0.94362 0.0
Co658 Co 0.86964 0.95422 0.46643 0.0
O659 O 0.8564 0.95273 0.43813 0.0
O660 O 0.87476 0.9255 0.45377 0.0
C661 C 0.88605 0.98662 0.46142 0.0
O662 O 0.88694 0.95098 0.49499 0.0
Co663 Co 0.85647 0.99152 0.4988 0.0
O664 O 0.8851 0.98381 0.51179 0.0
C665 C 0.82694 0.95373 0.4924 0.0
C666 C 0.86446 0.93311 0.43666 0.0
C667 C 0.89407 0.96513 0.50905 0.0
O668 O 0.84136 0.94402 0.4804 0.0
O669 O 0.82947 0.97307 0.50015 0.0
O670 O 0.89487 0.96879 0.45383 0.0
O671 O 0.86654 0.98458 0.46947 0.0
C672 C 0.26448 0.17529 0.54142 0.0
C673 C 0.25033 0.19035 0.55153 0.0
C674 C 0.26203 0.17008 0.51904 0.0
C675 C 0.24507 0.18019 0.50678 0.0
C676 C 0.2294 0.19348 0.51764 0.0
C677 C 0.2323 0.19845 0.53985 0.0
C678 C 0.27872 0.15537 0.50823 0.0
C679 C 0.21077 0.20428 0.50536 0.0
C680 C 0.25186 0.2034 0.45015 0.0
C681 C 0.23673 0.19089 0.43823 0.0
C682 C 0.25657 0.19852 0.47208 0.0
C683 C 0.24575 0.18075 0.4824 0.0
C684 C 0.23232 0.16661 0.46979 0.0
C685 C 0.22793 0.17186 0.44774 0.0
C686 C 0.27143 0.21377 0.48474 0.0
C687 C 0.221 0.14714 0.48001 0.0
H688 H 0.27838 0.16887 0.55047 0.0
H689 H 0.22108 0.20975 0.5478 0.0
H690 H 0.27117 0.14538 0.49501 0.0
H691 H 0.29174 0.16559 0.5007 0.0
H692 H 0.28656 0.14423 0.52035 0.0
H693 H 0.19867 0.21197 0.51663 0.0
H694 H 0.2174 0.2172 0.49439 0.0
H695 H 0.2021 0.19215 0.49495 0.0
H696 H 0.25912 0.21782 0.44268 0.0
H697 H 0.21639 0.16196 0.43852 0.0
H698 H 0.28334 0.2043 0.49471 0.0
H699 H 0.26146 0.22385 0.49618 0.0
H700 H 0.28067 0.22501 0.47376 0.0
H701 H 0.23162 0.1391 0.49242 0.0
H702 H 0.21626 0.13485 0.4674 0.0
H703 H 0.20587 0.15273 0.48844 0.0
C704 C 0.04476 0.95586 0.70805 0.0
C705 C 0.05495 0.96879 0.69206 0.0
C706 C 0.04693 0.96081 0.73039 0.0
C707 C 0.05901 0.97959 0.73677 0.0
C708 C 0.07093 0.99154 0.72077 0.0
C709 C 0.06891 0.98584 0.6985 0.0
C710 C 0.03452 0.94719 0.74694 0.0
C711 C 0.08393 0.01169 0.72685 0.0
C712 C 0.0313 0.00845 0.78415 0.0
C713 C 0.04433 0.00218 0.802 0.0
C714 C 0.03675 0.00223 0.76272 0.0
C715 C 0.05543 0.9889 0.75906 0.0
C716 C 0.06914 0.98313 0.77694 0.0
C717 C 0.06353 0.99007 0.79826 0.0
C718 C 0.02194 0.0092 0.7441 0.0
C719 C 0.08897 0.96869 0.77376 0.0
H720 H 0.03409 0.94256 0.70298 0.0
H721 H 0.0767 0.99589 0.68605 0.0
H722 H 0.04469 0.94412 0.76172 0.0
H723 H 0.01965 0.95623 0.75227 0.0
H724 H 0.0293 0.93118 0.73998 0.0
H725 H 0.09558 0.01641 0.71365 0.0
H726 H 0.07249 0.02557 0.72962 0.0
H727 H 0.09321 0.00907 0.74228 0.0
H728 H 0.01662 0.01808 0.78699 0.0
H729 H 0.07358 0.98516 0.81209 0.0
H730 H 0.0134 0.99464 0.73729 0.0
H731 H 0.03171 0.0166 0.73064 0.0
H732 H 0.00935 0.02126 0.74944 0.0
H733 H 0.08352 0.95162 0.77058 0.0
H734 H 0.09977 0.96863 0.78845 0.0
H735 H 0.09865 0.97405 0.75932 0.0
C736 C 0.22947 0.78038 0.95432 0.0
C737 C 0.24611 0.78638 0.93969 0.0
C738 C 0.23031 0.78653 0.97639 0.0
C739 C 0.24838 0.7989 0.98414 0.0
C740 C 0.26447 0.8064 0.96915 0.0
C741 C 0.26313 0.80005 0.94698 0.0
C742 C 0.21251 0.77847 0.99168 0.0
C743 C 0.28382 0.81987 0.97661 0.0
C744 C 0.23581 0.81414 0.04257 0.0
C745 C 0.24279 0.79493 0.05314 0.0
C746 C 0.24006 0.81734 0.02011 0.0
C747 C 0.25143 0.80092 0.00825 0.0
C748 C 0.26112 0.78317 0.01964 0.0
C749 C 0.25658 0.78033 0.04197 0.0
C750 C 0.23028 0.83698 0.00869 0.0
C751 C 0.27399 0.76564 0.00777 0.0
H752 H 0.21602 0.77022 0.94863 0.0
H753 H 0.27599 0.80485 0.93567 0.0
H754 H 0.2195 0.76641 0.00341 0.0
H755 H 0.20575 0.79229 0.00138 0.0
H756 H 0.19881 0.77047 0.98272 0.0
H757 H 0.29049 0.82994 0.96295 0.0
H758 H 0.27942 0.83084 0.99045 0.0
H759 H 0.29704 0.80872 0.98228 0.0
H760 H 0.22544 0.8257 0.05125 0.0
H761 H 0.26255 0.76578 0.05029 0.0
H762 H 0.21449 0.83221 0.001 0.0
H763 H 0.24127 0.84301 0.99549 0.0
H764 H 0.22703 0.85056 0.02041 0.0
H765 H 0.26253 0.7551 -0.00166 0.0
H766 H 0.28332 0.75507 0.01932 0.0
H767 H 0.28562 0.77309 0.99595 0.0
C768 C 0.43302 0.00235 0.2954 0.0
C769 C 0.44696 0.01696 0.30641 0.0
C770 C 0.42975 0.00412 0.27261 0.0
C771 C 0.44064 0.0209 0.26076 0.0
C772 C 0.45257 0.03713 0.27229 0.0
C773 C 0.45567 0.03489 0.29495 0.0
C774 C 0.41647 0.98679 0.26099 0.0
C775 C 0.46408 0.05558 0.26042 0.0
C776 C 0.46787 0.00825 0.2066 0.0
C777 C 0.45514 0.02028 0.1917 0.0
C778 C 0.46246 0.00736 0.22888 0.0
C779 C 0.44387 0.01891 0.23663 0.0
C780 C 0.43023 0.03019 0.22155 0.0
C781 C 0.43601 0.0307 0.19916 0.0
C782 C 0.47735 0.99486 0.2443 0.0
C783 C 0.41019 0.04258 0.22912 0.0
H784 H 0.42605 0.98856 0.30422 0.0
H785 H 0.46604 0.04654 0.3035 0.0
H786 H 0.40674 0.99404 0.24741 0.0
H787 H 0.42772 0.97445 0.25374 0.0
H788 H 0.4052 0.9782 0.27245 0.0
H789 H 0.46964 0.06861 0.27188 0.0
H790 H 0.47865 0.04898 0.25173 0.0
H791 H 0.45314 0.06304 0.24794 0.0
H792 H 0.48242 -0.00024 0.20091 0.0
H793 H 0.42602 0.03994 0.1877 0.0
H794 H 0.46768 0.98321 0.25439 0.0
H795 H 0.48553 0.00647 0.25568 0.0
H796 H 0.49022 0.98549 0.23542 0.0
H797 H 0.40116 0.03324 0.24186 0.0
H798 H 0.39889 0.04619 0.21528 0.0
H799 H 0.41533 0.05838 0.23652 0.0
C800 C 0.54639 0.23396 0.21075 0.0
C801 C 0.55277 0.25579 0.20791 0.0
C802 C 0.52437 0.22782 0.20839 0.0
C803 C 0.50843 0.24414 0.20404 0.0
C804 C 0.51511 0.26598 0.19972 0.0
C805 C 0.53736 0.2715 0.20146 0.0
C806 C 0.518 0.20425 0.21243 0.0
C807 C 0.4986 0.28395 0.19549 0.0
C808 C 0.44855 0.22876 0.19548 0.0
C809 C 0.44028 0.23092 0.2169 0.0
C810 C 0.47079 0.23283 0.19092 0.0
C811 C 0.48493 0.23934 0.20815 0.0
C812 C 0.47667 0.2415 0.22975 0.0
C813 C 0.45453 0.2372 0.23385 0.0
C814 C 0.47917 0.23011 0.16777 0.0
C815 C 0.4912 0.24842 0.24863 0.0
H816 H 0.55848 0.22189 0.21572 0.0
H817 H 0.54245 0.28843 0.19949 0.0
H818 H 0.51095 0.20267 0.22915 0.0
H819 H 0.50532 0.19886 0.20054 0.0
H820 H 0.53234 0.19307 0.21121 0.0
H821 H 0.50651 0.29919 0.18938 0.0
H822 H 0.48614 0.27856 0.1834 0.0
H823 H 0.48987 0.28783 0.211 0.0
H824 H 0.43771 0.22379 0.18229 0.0
H825 H 0.44839 0.23892 0.25045 0.0
H826 H 0.49313 0.21844 0.16753 0.0
H827 H 0.48536 0.24603 0.16153 0.0
H828 H 0.46627 0.22405 0.15641 0.0
H829 H 0.50466 0.23638 0.25083 0.0
H830 H 0.48207 0.24975 0.26435 0.0
H831 H 0.49883 0.26454 0.24501 0.0
C832 C 0.00182 0.2889 0.47229 0.0
C833 C 0.98604 0.30177 0.46172 0.0
C834 C 0.00565 0.2673 0.46579 0.0
C835 C 0.99317 0.25824 0.44842 0.0
C836 C 0.97855 0.27173 0.4364 0.0
C837 C 0.97517 0.2935 0.4432 0.0
C838 C 0.02179 0.25368 0.47881 0.0
C839 C 0.96527 0.26285 0.41751 0.0
C840 C 0.01414 0.2011 0.43885 0.0
C841 C 0.00248 0.19009 0.4553 0.0
C842 C 0.00949 0.22317 0.4341 0.0
C843 C 0.99282 0.23406 0.44608 0.0
C844 C 0.97915 0.22197 0.46045 0.0
C845 C 0.98433 0.20015 0.46507 0.0
C846 C 0.02389 0.23535 0.41811 0.0
C847 C 0.96072 0.23274 0.47303 0.0
H848 H 0.01066 0.29551 0.48626 0.0
H849 H 0.96312 0.30357 0.43484 0.0
H850 H 0.01279 0.24122 0.48857 0.0
H851 H 0.03311 0.24483 0.46765 0.0
H852 H 0.03171 0.2638 0.49027 0.0
H853 H 0.96063 0.27613 0.4059 0.0
H854 H 0.97434 0.24995 0.40841 0.0
H855 H 0.94995 0.25546 0.42395 0.0
H856 H 0.02801 0.19313 0.43105 0.0
H857 H 0.97497 0.19133 0.47737 0.0
H858 H 0.03709 0.2439 0.42727 0.0
H859 H 0.01441 0.24792 0.40897 0.0
H860 H 0.0317 0.22397 0.40619 0.0
H861 H 0.96769 0.24318 0.48622 0.0
H862 H 0.94966 0.22047 0.48072 0.0
H863 H 0.95088 0.24343 0.46209 0.0
C864 C 0.04067 0.75645 0.67389 0.0
C865 C 0.05154 0.7437 0.68965 0.0
C866 C 0.01786 0.75464 0.67105 0.0
C867 C 0.00591 0.73969 0.68423 0.0
C868 C 0.01729 0.72499 0.69816 0.0
C869 C 0.03997 0.72725 0.70077 0.0
C870 C 0.00639 0.77024 0.65565 0.0
C871 C 0.00528 0.70845 0.71216 0.0
C872 C 0.952 0.75538 0.71015 0.0
C873 C 0.9373 0.74138 0.69942 0.0
C874 C 0.97414 0.75607 0.70418 0.0
C875 C 0.98186 0.74227 0.68714 0.0
C876 C 0.96684 0.72919 0.67521 0.0
C877 C 0.94464 0.72892 0.68148 0.0
C878 C 0.98952 0.77055 0.71716 0.0
C879 C 0.97436 0.71438 0.65685 0.0
H880 H 0.04959 0.76912 0.66516 0.0
H881 H 0.04843 0.71709 0.71268 0.0
H882 H 0.99259 0.76202 0.6471 0.0
H883 H -0.0005 0.78411 0.66522 0.0
H884 H 0.01784 0.77703 0.6432 0.0
H885 H 0.0166 0.69617 0.71946 0.0
H886 H -0.00328 0.7171 0.72571 0.0
H887 H 0.99271 0.69969 0.70237 0.0
H888 H 0.94634 0.76532 0.72378 0.0
H889 H 0.93333 0.71807 0.67308 0.0
H890 H -0.00029 0.78061 0.70594 0.0
H891 H 0.00078 0.76019 0.72702 0.0
H892 H 0.98061 0.78171 0.72849 0.0
H893 H 0.98708 0.72249 0.64666 0.0
H894 H 0.96051 0.7094 0.64612 0.0
H895 H 0.98175 0.69933 0.66394 0.0
C896 C 0.5023 0.78367 0.95771 0.0
C897 C 0.48494 0.79644 0.94974 0.0
C898 C 0.50519 0.76201 0.95077 0.0
C899 C 0.49023 0.75276 0.93559 0.0
C900 C 0.47356 0.76599 0.9263 0.0
C901 C 0.47112 0.78778 0.93347 0.0
C902 C 0.52347 0.74861 0.96085 0.0
C903 C 0.45744 0.75683 0.90991 0.0
C904 C 0.51037 0.69656 0.91933 0.0
C905 C 0.50181 0.68422 0.93672 0.0
C906 C 0.50485 0.71884 0.91703 0.0
C907 C 0.49041 0.72862 0.93242 0.0
C908 C 0.47968 0.71537 0.94819 0.0
C909 C 0.48568 0.69334 0.95026 0.0
C910 C 0.51623 0.73231 0.89968 0.0
C911 C 0.46377 0.72497 0.96459 0.0
H912 H 0.51332 0.79043 0.96991 0.0
H913 H 0.45775 0.79764 0.92712 0.0
H914 H 0.51639 0.73582 0.9717 0.0
H915 H 0.53303 0.74016 0.94788 0.0
H916 H 0.53487 0.75881 0.97074 0.0
H917 H 0.44936 0.77006 0.90033 0.0
H918 H 0.46558 0.74533 0.89838 0.0
H919 H 0.44453 0.74756 0.91877 0.0
H920 H 0.52279 0.68942 0.90878 0.0
H921 H 0.47881 0.6836 0.96348 0.0
H922 H 0.53048 0.74082 0.90714 0.0
H923 H 0.50511 0.74501 0.89289 0.0
H924 H 0.52234 0.72186 0.88605 0.0
H925 H 0.47296 0.73468 0.97695 0.0
H926 H 0.45437 0.71204 0.97333 0.0
H927 H 0.45204 0.73617 0.95636 0.0
C928 C 0.54343 0.73161 0.30737 0.0
C929 C 0.55145 0.73808 0.28675 0.0
C930 C 0.52179 0.73653 0.31367 0.0
C931 C 0.50797 0.74801 0.29894 0.0
C932 C 0.51664 0.75617 0.27899 0.0
C933 C 0.53823 0.75111 0.27317 0.0
C934 C 0.51336 0.72809 0.33537 0.0
C935 C 0.5026 0.76873 0.26285 0.0
C936 C 0.44904 0.73388 0.28873 0.0
C937 C 0.43851 0.75336 0.29485 0.0
C938 C 0.47151 0.73101 0.29215 0.0
C939 C 0.48379 0.7481 0.3019 0.0
C940 C 0.47284 0.76682 0.31031 0.0
C941 C 0.45018 0.76927 0.30665 0.0
C942 C 0.48238 0.71057 0.28326 0.0
C943 C 0.48526 0.78505 0.32148 0.0
H944 H 0.55365 0.72179 0.31813 0.0
H945 H 0.54446 0.75668 0.25746 0.0
H946 H 0.50147 0.7397 0.34279 0.0
H947 H 0.50479 0.71226 0.33272 0.0
H948 H 0.52697 0.72523 0.34715 0.0
H949 H 0.51238 0.77575 0.24916 0.0
H950 H 0.49004 0.75761 0.25578 0.0
H951 H 0.49385 0.78228 0.27125 0.0
H952 H 0.4399 0.72127 0.28013 0.0
H953 H 0.44201 0.78425 0.31167 0.0
H954 H 0.49368 0.70346 0.29561 0.0
H955 H 0.49225 0.71486 0.26856 0.0
H956 H 0.47026 0.69785 0.27849 0.0
H957 H 0.4988 0.77846 0.33171 0.0
H958 H 0.47429 0.79515 0.33197 0.0
H959 H 0.4926 0.79592 0.30885 0.0
C960 C 0.5143 0.29669 0.57536 0.0
C961 C 0.50004 0.30376 0.55871 0.0
C962 C 0.51419 0.27471 0.58241 0.0
C963 C 0.49955 0.25965 0.57248 0.0
C964 C 0.48378 0.2673 0.55722 0.0
C965 C 0.48425 0.28922 0.55054 0.0
C966 C 0.53082 0.2674 0.59921 0.0
C967 C 0.46756 0.25196 0.54645 0.0
C968 C 0.51353 0.20252 0.55493 0.0
C969 C 0.49818 0.19033 0.56691 0.0
C970 C 0.5161 0.22502 0.55852 0.0
C971 C 0.5029 0.23558 0.57445 0.0
C972 C 0.48946 0.22287 0.58851 0.0
C973 C 0.48719 0.20025 0.58454 0.0
C974 C 0.53106 0.23781 0.54347 0.0
C975 C 0.47584 0.23339 0.60628 0.0
H976 H 0.52639 0.30794 0.58195 0.0
H977 H 0.4728 0.29475 0.53809 0.0
H978 H 0.52437 0.25387 0.60954 0.0
H979 H 0.5457 0.26133 0.59066 0.0
H980 H 0.5358 0.28121 0.61 0.0
H981 H 0.45515 0.26088 0.53652 0.0
H982 H 0.47643 0.24043 0.53549 0.0
H983 H 0.45888 0.24207 0.559 0.0
H984 H 0.5225 0.19474 0.54167 0.0
H985 H 0.47552 0.1908 0.59407 0.0
H986 H 0.54111 0.24961 0.55298 0.0
H987 H 0.52104 0.24735 0.53163 0.0
H988 H 0.54224 0.22693 0.53404 0.0
H989 H 0.4847 0.24729 0.61399 0.0
H990 H 0.47131 0.22135 0.6192 0.0
H991 H 0.46049 0.23992 0.59901 0.0
C992 C 0.94869 0.2491 0.81147 0.0
C993 C 0.94696 0.26394 0.79395 0.0
C994 C 0.9688 0.23889 0.81632 0.0
C995 C 0.98751 0.24395 0.80352 0.0
C996 C 0.9861 0.26021 0.78696 0.0
C997 C 0.96582 0.26984 0.78227 0.0
C998 C 0.96961 0.22167 0.83408 0.0
C999 C 0.00575 0.26649 0.77321 0.0
C1000 C 0.04673 0.22926 0.81436 0.0
C1001 C 0.05014 0.21362 0.79784 0.0
C1002 C 0.02574 0.23803 0.81807 0.0
C1003 C 0.0079 0.23067 0.80514 0.0
C1004 C 0.01092 0.213 0.79036 0.0
C1005 C 0.03207 0.20485 0.78672 0.0
C1006 C 0.02317 0.25668 0.83414 0.0
C1007 C 0.99223 0.2042 0.7767 0.0
H1008 H 0.9341 0.2445 0.82053 0.0
H1009 H 0.96457 0.28157 0.76894 0.0
H1010 H 0.9692 0.20517 0.82642 0.0
H1011 H 0.98501 0.22287 0.8437 0.0
H1012 H 0.95544 0.22304 0.84546 0.0
H1013 H 0.00243 0.28097 0.76264 0.0
H1014 H 0.02 0.27024 0.78388 0.0
H1015 H 0.01042 0.25253 0.76249 0.0
H1016 H 0.0607 0.23605 0.82302 0.0
H1017 H 0.03467 0.19249 0.77417 0.0
H1018 H 0.00744 0.25544 0.84318 0.0
H1019 H 0.02307 0.27243 0.82501 0.0
H1020 H 0.03687 0.25712 0.84616 0.0
H1021 H 0.97735 0.20191 0.78691 0.0
H1022 H -0.00356 0.18832 0.76882 0.0
H1023 H 0.98816 0.21618 0.76359 0.0
C1024 C 0.01176 0.69704 0.03685 0.0
C1025 C 0.99605 0.68438 0.0478 0.0
C1026 C 0.01459 0.71923 0.04185 0.0
C1027 C 0.00122 0.72906 0.05812 0.0
C1028 C 0.98681 0.71588 0.0707 0.0
C1029 C 0.98439 0.69355 0.0654 0.0
C1030 C 0.03048 0.73255 0.02827 0.0
C1031 C 0.9726 0.72563 0.08846 0.0
C1032 C 0.01721 0.78849 0.06596 0.0
C1033 C 0.00474 0.79826 0.04926 0.0
C1034 C 0.01483 0.76605 0.07077 0.0
C1035 C -0.00037 0.75336 0.05861 0.0
C1036 C 0.98545 0.76379 0.04345 0.0
C1037 C 0.98827 0.78608 0.03889 0.0
C1038 C 0.02989 0.75563 0.08742 0.0
C1039 C 0.9687 0.75101 0.0304 0.0
H1040 H 0.02114 0.68984 0.02354 0.0
H1041 H 0.97233 0.68374 0.07402 0.0
H1042 H 0.0212 0.7435 0.01707 0.0
H1043 H 0.04077 0.74304 0.03897 0.0
H1044 H 0.04142 0.72201 0.01819 0.0
H1045 H 0.9669 0.7129 0.10019 0.0
H1046 H 0.98149 0.73858 0.09765 0.0
H1047 H 0.95795 0.7333 0.08086 0.0
H1048 H 0.02985 0.79793 0.07415 0.0
H1049 H 0.97826 0.79374 0.02633 0.0
H1050 H 0.0439 0.74787 0.07879 0.0
H1051 H 0.02129 0.74264 0.09683 0.0
H1052 H 0.03651 0.76798 0.09908 0.0
H1053 H 0.97722 0.74047 0.01825 0.0
H1054 H 0.9572 0.76194 0.02142 0.0
H1055 H 0.95904 0.74014 0.04133 0.0
C1056 C 0.17493 0.44813 0.23004 0.0
C1057 C 0.19061 0.43947 0.24451 0.0
C1058 C 0.17115 0.47088 0.22899 0.0
C1059 C 0.18333 0.48512 0.24273 0.0
C1060 C 0.19768 0.47621 0.25868 0.0
C1061 C 0.20115 0.45353 0.25934 0.0
C1062 C 0.15539 0.47971 0.21207 0.0
C1063 C 0.21077 0.49073 0.27392 0.0
C1064 C 0.2044 0.54034 0.22444 0.0
C1065 C 0.19261 0.55462 0.23809 0.0
C1066 C 0.20024 0.51774 0.22451 0.0
C1067 C 0.18387 0.50916 0.23858 0.0
C1068 C 0.17063 0.52365 0.25099 0.0
C1069 C 0.17517 0.54626 0.25062 0.0
C1070 C 0.21459 0.5029 0.21078 0.0
C1071 C 0.15278 0.51521 0.2659 0.0
H1072 H 0.16664 0.43735 0.21858 0.0
H1073 H 0.21298 0.44689 0.27085 0.0
H1074 H 0.14564 0.4935 0.21884 0.0
H1075 H 0.16477 0.48607 0.19782 0.0
H1076 H 0.14401 0.4668 0.20607 0.0
H1077 H 0.21941 0.48119 0.28682 0.0
H1078 H 0.22318 0.49995 0.2643 0.0
H1079 H 0.19994 0.50291 0.282 0.0
H1080 H 0.21764 0.54666 0.2144 0.0
H1081 H 0.16582 0.55716 0.26111 0.0
H1082 H 0.20443 0.49101 0.2015 0.0
H1083 H 0.22561 0.49337 0.2217 0.0
H1084 H 0.22484 0.51224 0.19896 0.0
H1085 H 0.14358 0.50164 0.258 0.0
H1086 H 0.14107 0.52838 0.27053 0.0
H1087 H 0.16026 0.50865 0.28115 0.0
C1088 C 0.71043 0.04121 0.79623 0.0
C1089 C 0.69927 0.05789 0.7851 0.0
C1090 C 0.70549 0.01913 0.79226 0.0
C1091 C 0.68957 0.01376 0.77622 0.0
C1092 C 0.67638 0.03055 0.76707 0.0
C1093 C 0.68128 0.05255 0.77181 0.0
C1094 C 0.71923 0.00166 0.80317 0.0
C1095 C 0.65905 0.02555 0.75014 0.0
C1096 C 0.71075 0.96813 0.74019 0.0
C1097 C 0.69902 0.95002 0.74791 0.0
C1098 C 0.70671 0.98915 0.74839 0.0
C1099 C 0.69091 0.99204 0.76521 0.0
C1100 C 0.67827 0.97392 0.77241 0.0
C1101 C 0.68237 0.95302 0.76346 0.0
C1102 C 0.72023 0.00807 0.73979 0.0
C1103 C 0.6615 0.97621 0.79046 0.0
H1104 H 0.72409 0.04538 0.80684 0.0
H1105 H 0.67254 0.06548 0.76327 0.0
H1106 H 0.70904 0.98726 0.8076 0.0
H1107 H 0.7321 0.99603 0.79159 0.0
H1108 H 0.7274 0.00794 0.81821 0.0
H1109 H 0.64713 0.03923 0.74852 0.0
H1110 H 0.66705 0.02302 0.73397 0.0
H1111 H 0.65004 0.01031 0.7543 0.0
H1112 H 0.72351 0.96573 0.72802 0.0
H1113 H 0.67344 0.93889 0.76953 0.0
H1114 H 0.73146 0.01398 0.75284 0.0
H1115 H 0.70945 0.02195 0.73509 0.0
H1116 H 0.73025 0.00338 0.7253 0.0
H1117 H 0.67001 0.97599 0.80656 0.0
H1118 H 0.64951 0.96251 0.79021 0.0
H1119 H 0.6525 0.99197 0.78921 0.0
C1120 C 0.19956 0.41827 0.0006 0.0
C1121 C 0.19001 0.43475 0.98766 0.0
C1122 C 0.22234 0.41466 8e-05 0.0
C1123 C 0.23565 0.42792 0.98642 0.0
C1124 C 0.22569 0.44261 0.97144 0.0
C1125 C 0.20299 0.44582 0.97224 0.0
C1126 C 0.23226 0.3982 0.01568 0.0
C1127 C 0.23918 0.45678 0.95624 0.0
C1128 C 0.2888 0.45198 0.00686 0.0
C1129 C 0.30421 0.44212 0.99292 0.0
C1130 C 0.2666 0.44624 0.00595 0.0
C1131 C 0.25955 0.43013 0.99077 0.0
C1132 C 0.27522 0.4188 0.97791 0.0
C1133 C 0.29741 0.42499 0.97906 0.0
C1134 C 0.2505 0.45861 0.0202 0.0
C1135 C 0.26849 0.40113 0.96193 0.0
H1136 H 0.1896 0.40944 0.0124 0.0
H1137 H 0.1956 0.4582 0.96181 0.0
H1138 H 0.24653 0.38982 0.0081 0.0
H1139 H 0.23813 0.40682 0.0306 0.0
H1140 H 0.22006 0.38568 0.02081 0.0
H1141 H 0.22891 0.46518 0.94374 0.0
H1142 H 0.24787 0.46947 0.96599 0.0
H1143 H 0.25176 0.44683 0.94768 0.0
H1144 H 0.29391 0.46491 0.01795 0.0
H1145 H 0.30921 0.41708 0.96835 0.0
H1146 H 0.23983 0.447 0.02926 0.0
H1147 H 0.23976 0.46892 0.00971 0.0
H1148 H 0.25882 0.46942 0.0323 0.0
H1149 H 0.2547 0.39123 0.96848 0.0
H1150 H 0.2824 0.39003 0.95802 0.0
H1151 H 0.26293 0.40885 0.94641 0.0
C1152 C 0.78308 0.04222 0.25967 0.0
C1153 C 0.79552 0.05623 0.24633 0.0
C1154 C 0.78711 0.01963 0.2602 0.0
C1155 C 0.80404 0.01071 0.24705 0.0
C1156 C 0.81788 0.02494 0.23496 0.0
C1157 C 0.81345 0.0476 0.23471 0.0
C1158 C 0.77207 0.00514 0.27356 0.0
C1159 C 0.83639 0.01614 0.22109 0.0
C1160 C 0.81148 0.94986 0.25796 0.0
C1161 C 0.79631 0.941 0.24308 0.0
C1162 C 0.81577 0.97255 0.25834 0.0
C1163 C 0.80461 0.98655 0.24351 0.0
C1164 C 0.79083 0.97736 0.22723 0.0
C1165 C 0.78684 0.95475 0.22724 0.0
C1166 C 0.83095 0.98163 0.27564 0.0
C1167 C 0.77882 0.9916 0.21086 0.0
H1168 H 0.76949 0.04879 0.26908 0.0
H1169 H 0.82328 0.05833 0.22449 0.0
H1170 H 0.76166 0.99527 0.26236 0.0
H1171 H 0.78174 0.99355 0.28371 0.0
H1172 H 0.76118 0.01477 0.28456 0.0
H1173 H 0.84844 0.02915 0.21693 0.0
H1174 H 0.84504 0.00258 0.22961 0.0
H1175 H 0.82965 0.00948 0.20555 0.0
H1176 H 0.81903 0.93931 0.27014 0.0
H1177 H 0.77547 0.94798 0.21536 0.0
H1178 H 0.82109 0.98849 0.28932 0.0
H1179 H 0.84114 0.99511 0.2689 0.0
H1180 H 0.8419 0.96874 0.28243 0.0
H1181 H 0.76608 0.00133 0.2195 0.0
H1182 H 0.7707 0.98178 0.19782 0.0
H1183 H 0.79027 0.00332 0.20297 0.0
C1184 C 0.70147 0.02063 0.99515 0.0
C1185 C 0.6893 0.03281 0.97993 0.0
C1186 C 0.7234 0.02571 -0.00045 0.0
C1187 C 0.73352 0.04333 0.98831 0.0
C1188 C 0.72088 0.05677 0.97418 0.0
C1189 C 0.69882 0.05136 0.97017 0.0
C1190 C 0.73615 0.01116 0.01507 0.0
C1191 C 0.73098 0.07587 0.96212 0.0
C1192 C 0.79092 0.05316 0.00984 0.0
C1193 C 0.80273 0.03819 -0.00304 0.0
C1194 C 0.76845 0.05672 0.00603 0.0
C1195 C 0.75781 0.04512 0.98893 0.0
C1196 C 0.77028 0.03182 0.97454 0.0
C1197 C 0.79256 0.02844 0.97881 0.0
C1198 C 0.75581 0.07134 0.02149 0.0
C1199 C 0.75972 0.01946 0.95582 0.0
H1200 H 0.69407 0.00656 0.00312 0.0
H1201 H 0.68944 0.06096 0.95848 0.0
H1202 H 0.74825 0.00136 0.00562 0.0
H1203 H 0.74539 0.02121 0.02708 0.0
H1204 H 0.72535 -0.00032 0.02422 0.0
H1205 H 0.71829 0.08739 0.95591 0.0
H1206 H 0.7425 0.08499 0.97285 0.0
H1207 H 0.74045 0.06965 0.94787 0.0
H1208 H 0.79878 0.06082 0.02384 0.0
H1209 H 0.80178 0.01719 0.96856 0.0
H1210 H 0.74734 0.06106 0.03389 0.0
H1211 H 0.74311 0.08086 0.01258 0.0
H1212 H 0.7668 0.08292 0.03028 0.0
H1213 H 0.74947 0.00599 0.96252 0.0
H1214 H 0.77206 0.01221 0.94454 0.0
H1215 H 0.74883 0.03043 0.94623 0.0
C1216 C 0.30317 0.44712 0.74244 0.0
C1217 C 0.28218 0.44476 0.75155 0.0
C1218 C 0.31057 0.4677 0.73511 0.0
C1219 C 0.29674 0.48622 0.73735 0.0
C1220 C 0.27628 0.4841 0.74818 0.0
C1221 C 0.26915 0.46334 0.75489 0.0
C1222 C 0.33241 0.46923 0.72358 0.0
C1223 C 0.26125 0.50353 0.75148 0.0
C1224 C 0.31103 0.54599 0.72963 0.0
C1225 C 0.29931 0.55048 0.71037 0.0
C1226 C 0.3123 0.52448 0.73783 0.0
C1227 C 0.30192 0.50727 0.7262 0.0
C1228 C 0.29252 0.51148 0.70536 0.0
C1229 C 0.29105 0.53313 0.69783 0.0
C1230 C 0.32258 0.52069 0.76004 0.0
C1231 C 0.28194 0.49348 0.69204 0.0
H1232 H 0.31325 0.43271 0.73981 0.0
H1233 H 0.25304 0.46155 0.76221 0.0
H1234 H 0.32966 0.46967 0.70558 0.0
H1235 H 0.34119 0.48449 0.72816 0.0
H1236 H 0.34304 0.45493 0.72738 0.0
H1237 H 0.24716 0.49957 0.76234 0.0
H1238 H 0.27041 0.51748 0.75874 0.0
H1239 H 0.25474 0.509 0.73538 0.0
H1240 H 0.31739 0.55946 0.73936 0.0
H1241 H 0.28218 0.53664 0.6828 0.0
H1242 H 0.33156 0.50487 0.76051 0.0
H1243 H 0.30947 0.51997 0.77265 0.0
H1244 H 0.33404 0.53413 0.7645 0.0
H1245 H 0.2924 0.47859 0.69189 0.0
H1246 H 0.27885 0.49866 0.67483 0.0
H1247 H 0.26601 0.48897 0.69962 0.0
C1248 C 0.29756 0.57341 0.50841 0.0
C1249 C 0.30793 0.55622 0.49717 0.0
C1250 C 0.27523 0.57791 0.50477 0.0
C1251 C 0.26329 0.56477 0.48977 0.0
C1252 C 0.27462 0.54981 0.47611 0.0
C1253 C 0.29683 0.54565 0.48006 0.0
C1254 C 0.26393 0.5949 0.51873 0.0
C1255 C 0.26274 0.53599 0.45934 0.0
C1256 C 0.21003 0.5391 0.50731 0.0
C1257 C 0.19513 0.54793 0.49218 0.0
C1258 C 0.23193 0.54573 0.50765 0.0
C1259 C 0.23925 0.56183 0.49257 0.0
C1260 C 0.22394 0.57223 0.4785 0.0
C1261 C 0.20199 0.56506 0.47838 0.0
C1262 C 0.24755 0.53425 0.52317 0.0
C1263 C 0.23081 0.58995 0.46266 0.0
H1264 H 0.30622 0.58193 0.5214 0.0
H1265 H 0.30505 0.5328 0.47088 0.0
H1266 H 0.25079 0.60332 0.50936 0.0
H1267 H 0.25623 0.58677 0.53309 0.0
H1268 H 0.27573 0.60732 0.52493 0.0
H1269 H 0.27427 0.52769 0.44792 0.0
H1270 H 0.25296 0.52324 0.46789 0.0
H1271 H 0.25126 0.5462 0.4496 0.0
H1272 H 0.20477 0.52626 0.51844 0.0
H1273 H 0.19052 0.57219 0.46679 0.0
H1274 H 0.25672 0.54644 0.53307 0.0
H1275 H 0.2597 0.52461 0.51363 0.0
H1276 H 0.23896 0.52293 0.53458 0.0
H1277 H 0.24518 0.59928 0.46877 0.0
H1278 H 0.21711 0.60155 0.45956 0.0
H1279 H 0.23529 0.58235 0.44673 0.0
C1280 C 0.73274 0.70009 0.04559 0.0
C1281 C 0.75069 0.68913 0.05481 0.0
C1282 C 0.72692 0.69682 0.02363 0.0
C1283 C 0.73958 0.68244 0.01051 0.0
C1284 C 0.75614 0.66946 0.0204 0.0
C1285 C 0.76152 0.67293 0.04258 0.0
C1286 C 0.70878 0.71064 0.01394 0.0
C1287 C 0.76963 0.65355 0.00709 0.0
C1288 C 0.71944 0.67999 0.95156 0.0
C1289 C 0.73073 0.69791 0.94258 0.0
C1290 C 0.72323 0.67344 0.9734 0.0
C1291 C 0.73869 0.68506 0.98628 0.0
C1292 C 0.75135 0.70194 0.97658 0.0
C1293 C 0.74714 0.70818 0.95492 0.0
C1294 C 0.70962 0.65517 0.98302 0.0
C1295 C 0.76828 0.7146 0.98954 0.0
H1296 H 0.72403 0.71227 0.05522 0.0
H1297 H 0.7753 0.66427 0.04976 0.0
H1298 H 0.71604 0.72386 0.00375 0.0
H1299 H 0.69811 0.70061 0.00316 0.0
H1300 H 0.69846 0.71836 0.02684 0.0
H1301 H 0.77775 0.64118 0.01773 0.0
H1302 H 0.75936 0.64497 0.99476 0.0
H1303 H 0.78255 0.66269 -0.00189 0.0
H1304 H 0.70682 0.67191 0.94199 0.0
H1305 H 0.75624 0.72173 0.94785 0.0
H1306 H 0.69559 0.66231 0.99215 0.0
H1307 H 0.71932 0.64516 0.99474 0.0
H1308 H 0.70296 0.64427 0.97001 0.0
H1309 H 0.75998 0.72461 0.00229 0.0
H1310 H 0.77812 0.72574 0.979 0.0
H1311 H 0.77961 0.70319 -0.00195 0.0
C1312 C 0.56475 0.51261 0.28909 0.0
C1313 C 0.54423 0.50438 0.29552 0.0
C1314 C 0.57145 0.51183 0.26699 0.0
C1315 C 0.5573 0.50257 0.25107 0.0
C1316 C 0.53717 0.49311 0.25772 0.0
C1317 C 0.53088 0.49419 0.2798 0.0
C1318 C 0.59309 0.52195 0.26056 0.0
C1319 C 0.52164 0.48287 0.24133 0.0
C1320 C 0.55154 0.52249 0.19286 0.0
C1321 C 0.55958 0.50452 0.18099 0.0
C1322 C 0.55268 0.523 0.21581 0.0
C1323 C 0.56185 0.50496 0.22718 0.0
C1324 C 0.57184 0.48771 0.2152 0.0
C1325 C 0.57067 0.48773 0.19212 0.0
C1326 C 0.54217 0.54194 0.22786 0.0
C1327 C 0.58198 0.46828 0.2267 0.0
H1328 H 0.57522 0.52045 0.30114 0.0
H1329 H 0.51516 0.48745 0.28464 0.0
H1330 H 0.60199 0.51125 0.24883 0.0
H1331 H 0.59007 0.53784 0.25222 0.0
H1332 H 0.60373 0.525 0.27505 0.0
H1333 H 0.50756 0.4746 0.24941 0.0
H1334 H 0.51513 0.49574 0.23021 0.0
H1335 H 0.53041 0.47068 0.23105 0.0
H1336 H 0.54324 0.53566 0.18424 0.0
H1337 H 0.57693 0.47382 0.18297 0.0
H1338 H 0.55291 0.54772 0.24136 0.0
H1339 H 0.52651 0.53641 0.23532 0.0
H1340 H 0.53862 0.55597 0.21679 0.0
H1341 H 0.59154 0.47358 0.24126 0.0
H1342 H 0.59288 0.45881 0.21558 0.0
H1343 H 0.56878 0.45721 0.23255 0.0
C1344 C 0.75804 0.32426 0.45271 0.0
C1345 C 0.74794 0.30603 0.44293 0.0
C1346 C 0.75514 0.32863 0.47519 0.0
C1347 C 0.74206 0.31431 0.48796 0.0
C1348 C 0.7297 0.29767 0.4775 0.0
C1349 C 0.7328 0.29376 0.4551 0.0
C1350 C 0.76774 0.3472 0.48557 0.0
C1351 C 0.71511 0.28232 0.49036 0.0
C1352 C 0.76077 0.29217 0.5423 0.0
C1353 C 0.74412 0.29954 0.55631 0.0
C1354 C 0.76144 0.29863 0.5203 0.0
C1355 C 0.74509 0.31296 0.51211 0.0
C1356 C 0.72966 0.32236 0.52672 0.0
C1357 C 0.72928 0.31544 0.54875 0.0
C1358 C 0.77846 0.28842 0.50543 0.0
C1359 C 0.71247 0.33831 0.51886 0.0
H1360 H 0.76948 0.33409 0.44329 0.0
H1361 H 0.72442 0.28006 0.44745 0.0
H1362 H 0.7583 0.35474 0.4992 0.0
H1363 H 0.78332 0.34081 0.49245 0.0
H1364 H 0.77182 0.36007 0.47332 0.0
H1365 H 0.70467 0.27209 0.47949 0.0
H1366 H 0.72541 0.27125 0.50052 0.0
H1367 H 0.70433 0.29168 0.50163 0.0
H1368 H 0.77264 0.28032 0.54821 0.0
H1369 H 0.71652 0.32145 0.55958 0.0
H1370 H 0.78679 0.30122 0.49555 0.0
H1371 H 0.77035 0.27695 0.49384 0.0
H1372 H 0.79111 0.27917 0.51474 0.0
H1373 H 0.71857 0.34847 0.50503 0.0
H1374 H 0.70707 0.3493 0.53237 0.0
H1375 H 0.69791 0.32907 0.51305 0.0
C1376 C 0.94974 0.54138 0.71074 0.0
C1377 C 0.93928 0.53114 0.69305 0.0
C1378 C 0.94584 0.53454 0.73233 0.0
C1379 C 0.93159 0.51662 0.73621 0.0
C1380 C 0.9193 0.50773 0.71859 0.0
C1381 C 0.92318 0.51526 0.69712 0.0
C1382 C 0.95879 0.54496 0.7507 0.0
C1383 C 0.90387 0.48871 0.722 0.0
C1384 C 0.95504 0.48045 0.78066 0.0
C1385 C 0.94269 0.48665 0.79901 0.0
C1386 C 0.95049 0.48901 0.75986 0.0
C1387 C 0.9334 0.50455 0.75736 0.0
C1388 C 0.92005 0.51 0.77561 0.0
C1389 C 0.92476 0.5008 0.79629 0.0
C1390 C 0.96486 0.48233 0.74077 0.0
C1391 C 0.90175 0.52654 0.77366 0.0
H1392 H 0.96201 0.55385 0.70757 0.0
H1393 H 0.9151 0.50732 0.6834 0.0
H1394 H 0.94827 0.54762 0.76532 0.0
H1395 H 0.97233 0.53383 0.7556 0.0
H1396 H 0.96601 0.56092 0.74568 0.0
H1397 H 0.89218 0.48699 0.70812 0.0
H1398 H 0.91353 0.47333 0.72326 0.0
H1399 H 0.89447 0.49059 0.73747 0.0
H1400 H 0.96871 0.46924 0.7827 0.0
H1401 H 0.91521 0.50563 0.81049 0.0
H1402 H 0.97508 0.49646 0.73559 0.0
H1403 H 0.95465 0.47743 0.72653 0.0
H1404 H 0.97593 0.46848 0.745 0.0
H1405 H 0.90885 0.54328 0.77319 0.0
H1406 H 0.89027 0.52559 0.78779 0.0
H1407 H 0.89239 0.52414 0.75824 0.0
C1408 C 0.7929 0.94978 0.51428 0.0
C1409 C 0.80551 0.94314 0.49625 0.0
C1410 C 0.7706 0.94472 0.51556 0.0
C1411 C 0.76066 0.93268 0.49835 0.0
C1412 C 0.77387 0.92359 0.48153 0.0
C1413 C 0.79627 0.92901 0.48061 0.0
C1414 C 0.75727 0.95443 0.53409 0.0
C1415 C 0.7641 0.90989 0.4634 0.0
C1416 C 0.70042 0.92616 0.51102 0.0
C1417 C 0.6924 0.94601 0.50253 0.0
C1418 C 0.7224 0.92002 0.50772 0.0
C1419 C 0.73648 0.93416 0.49584 0.0
C1420 C 0.72771 0.95284 0.48516 0.0
C1421 C 0.70578 0.95852 0.48866 0.0
C1422 C 0.7309 0.89947 0.51855 0.0
C1423 C 0.74197 0.96817 0.4719 0.0
H1424 H 0.80016 0.96022 0.52673 0.0
H1425 H 0.80603 0.92356 0.46677 0.0
H1426 H 0.74678 0.96783 0.52762 0.0
H1427 H 0.74633 0.94187 0.54136 0.0
H1428 H 0.76779 0.96126 0.54731 0.0
H1429 H 0.77652 0.89865 0.45622 0.0
H1430 H 0.74998 0.90008 0.46937 0.0
H1431 H 0.75815 0.92082 0.45012 0.0
H1432 H 0.69003 0.91621 0.52148 0.0
H1433 H 0.69946 0.97354 0.48152 0.0
H1434 H 0.7378 0.90366 0.53486 0.0
H1435 H 0.74411 0.89177 0.50866 0.0
H1436 H 0.71755 0.88734 0.52107 0.0
H1437 H 0.75339 0.97696 0.48304 0.0
H1438 H 0.73218 0.98055 0.46279 0.0
H1439 H 0.752 0.95883 0.45995 0.0
C1440 C 0.17678 0.32841 0.28599 0.0
C1441 C 0.19875 0.33237 0.28043 0.0
C1442 C 0.17111 0.31097 0.29996 0.0
C1443 C 0.18777 0.297 0.30813 0.0
C1444 C 0.20995 0.30098 0.3026 0.0
C1445 C 0.21517 0.3187 0.28898 0.0
C1446 C 0.14733 0.3073 0.30576 0.0
C1447 C 0.22819 0.28621 0.31067 0.0
C1448 C 0.18251 0.26018 0.35781 0.0
C1449 C 0.18058 0.23955 0.34787 0.0
C1450 C 0.18325 0.27934 0.3451 0.0
C1451 C 0.18226 0.27772 0.32194 0.0
C1452 C 0.1788 0.25706 0.31194 0.0
C1453 C 0.17786 0.2382 0.32506 0.0
C1454 C 0.18663 0.30112 0.35638 0.0
C1455 C 0.17778 0.25462 0.28729 0.0
H1456 H 0.16404 0.33895 0.27945 0.0
H1457 H 0.23215 0.32147 0.28452 0.0
H1458 H 0.14182 0.29123 0.29926 0.0
H1459 H 0.14531 0.30679 0.32385 0.0
H1460 H 0.1365 0.32032 0.29901 0.0
H1461 H 0.24461 0.29173 0.30503 0.0
H1462 H 0.2282 0.28563 0.32887 0.0
H1463 H 0.22549 0.26922 0.30472 0.0
H1464 H 0.18441 0.26129 0.37547 0.0
H1465 H 0.17629 0.22229 0.31728 0.0
H1466 H 0.17557 0.31376 0.34936 0.0
H1467 H 0.20373 0.30672 0.35368 0.0
H1468 H 0.18371 0.30005 0.37435 0.0
H1469 H 0.16649 0.26692 0.28007 0.0
H1470 H 0.17231 0.23799 0.28225 0.0
H1471 H 0.19429 0.2576 0.28023 0.0
C1472 C 0.9902 0.94536 0.59496 0.0
C1473 C 0.01087 0.94854 0.58546 0.0
C1474 C 0.97118 0.94554 0.58206 0.0
C1475 C 0.97293 0.94914 0.55918 0.0
C1476 C 0.99384 0.95154 0.54939 0.0
C1477 C 0.01261 0.95114 0.56267 0.0
C1478 C 0.94915 0.94296 0.59309 0.0
C1479 C 0.99631 0.95561 0.52506 0.0
C1480 C 0.92278 0.93922 0.52342 0.0
C1481 C 0.91406 0.96045 0.52198 0.0
C1482 C 0.94206 0.9352 0.53543 0.0
C1483 C 0.95283 0.95287 0.546 0.0
C1484 C 0.94424 0.97434 0.54436 0.0
C1485 C 0.92499 0.97784 0.53243 0.0
C1486 C 0.95086 0.91212 0.53689 0.0
C1487 C 0.9554 0.99369 0.55516 0.0
H1488 H 0.98881 0.9432 0.61257 0.0
H1489 H 0.02859 0.95359 0.55527 0.0
H1490 H 0.94008 0.95872 0.59231 0.0
H1491 H 0.93915 0.93049 0.58441 0.0
H1492 H 0.95072 0.93807 0.61059 0.0
H1493 H 0.0137 0.95477 0.51968 0.0
H1494 H 0.98667 0.94346 0.51555 0.0
H1495 H 0.98981 0.9721 0.52095 0.0
H1496 H 0.91451 0.92576 0.51528 0.0
H1497 H 0.91865 0.9944 0.53109 0.0
H1498 H 0.95157 0.90685 0.55431 0.0
H1499 H 0.96785 0.91153 0.5304 0.0
H1500 H 0.94066 0.90023 0.52759 0.0
H1501 H 0.957 0.99081 0.57307 0.0
H1502 H 0.94631 0.00927 0.5526 0.0
H1503 H 0.97219 0.99567 0.54846 0.0
C1504 C 0.25917 0.708 0.84706 0.0
C1505 C 0.26095 0.72864 0.83708 0.0
C1506 C 0.25895 0.68881 0.83435 0.0
C1507 C 0.26044 0.69048 0.81123 0.0
C1508 C 0.26114 0.71136 0.80108 0.0
C1509 C 0.26148 0.73019 0.81416 0.0
C1510 C 0.25805 0.66681 0.84568 0.0
C1511 C 0.26231 0.71381 0.7764 0.0
C1512 C 0.28636 0.64795 0.77464 0.0
C1513 C 0.268 0.63997 0.76334 0.0
C1514 C 0.28399 0.66322 0.79165 0.0
C1515 C 0.26277 0.67064 0.79742 0.0
C1516 C 0.24409 0.66127 0.78739 0.0
C1517 C 0.24692 0.64599 0.77046 0.0
C1518 C 0.30429 0.67274 0.80215 0.0
C1519 C 0.22121 0.6686 0.7934 0.0
H1520 H 0.25866 0.70681 0.86481 0.0
H1521 H 0.26252 0.74616 0.8064 0.0
H1522 H 0.24597 0.65589 0.83757 0.0
H1523 H 0.2743 0.65873 0.84449 0.0
H1524 H 0.25367 0.66837 0.86332 0.0
H1525 H 0.26157 0.73123 0.77112 0.0
H1526 H 0.27783 0.70656 0.77023 0.0
H1527 H 0.24861 0.70482 0.7685 0.0
H1528 H 0.30268 0.64318 0.76947 0.0
H1529 H 0.23259 0.63979 0.76198 0.0
H1530 H 0.30254 0.6732 0.82026 0.0
H1531 H 0.30657 0.68987 0.79642 0.0
H1532 H 0.31927 0.66323 0.79796 0.0
H1533 H 0.21897 0.66825 0.81147 0.0
H1534 H 0.20842 0.65817 0.78568 0.0
H1535 H 0.21868 0.68579 0.78797 0.0
C1536 C 0.57877 0.04083 0.0125 0.0
C1537 C 0.58429 0.01927 0.00668 0.0
C1538 C 0.56214 0.04506 0.0278 0.0
C1539 C 0.55071 0.0273 0.0374 0.0
C1540 C 0.55626 0.00548 0.03173 0.0
C1541 C 0.57302 0.00173 0.01646 0.0
C1542 C 0.55657 0.06853 0.03346 0.0
C1543 C 0.54423 0.98613 0.0415 0.0
C1544 C 0.519 0.03638 0.09016 0.0
C1545 C 0.4975 0.03817 0.08227 0.0
C1546 C 0.53658 0.03304 0.0757 0.0
C1547 C 0.53246 0.03153 0.05288 0.0
C1548 C 0.51083 0.03373 0.04481 0.0
C1549 C 0.49359 0.03704 0.05963 0.0
C1550 C 0.55947 0.03068 0.08484 0.0
C1551 C 0.50583 0.03219 0.02056 0.0
H1552 H 0.5874 0.05447 0.00505 0.0
H1553 H 0.57704 0.98501 0.01194 0.0
H1554 H 0.53936 0.07209 0.02877 0.0
H1555 H 0.55791 0.0711 0.05144 0.0
H1556 H 0.56746 0.08045 0.02502 0.0
H1557 H 0.55132 0.97019 0.03622 0.0
H1558 H 0.54466 0.98696 0.05969 0.0
H1559 H 0.52675 0.98659 0.0365 0.0
H1560 H 0.52207 0.03722 0.10766 0.0
H1561 H 0.47698 0.03838 0.05345 0.0
H1562 H 0.57053 0.04291 0.07715 0.0
H1563 H 0.56603 0.01419 0.08081 0.0
H1564 H 0.55997 0.03289 0.10293 0.0
H1565 H 0.51561 0.04448 0.01136 0.0
H1566 H 0.48819 0.03492 0.01694 0.0
H1567 H 0.51055 0.01576 0.01431 0.0
C1568 C 0.17445 0.75849 0.16561 0.0
C1569 C 0.17833 0.75637 0.14303 0.0
C1570 C 0.17251 0.7399 0.17899 0.0
C1571 C 0.17434 0.71881 0.16946 0.0
C1572 C 0.17554 0.71667 0.14634 0.0
C1573 C 0.17767 0.73554 0.13337 0.0
C1574 C 0.17116 0.74295 0.20355 0.0
C1575 C 0.17706 0.69448 0.13548 0.0
C1576 C 0.20908 0.67837 0.20083 0.0
C1577 C 0.19339 0.66429 0.20999 0.0
C1578 C 0.20292 0.69615 0.1878 0.0
C1579 C 0.18043 0.6999 0.18351 0.0
C1580 C 0.16439 0.68581 0.19266 0.0
C1581 C 0.17107 0.66819 0.20604 0.0
C1582 C 0.22062 0.71097 0.17868 0.0
C1583 C 0.1403 0.68929 0.18823 0.0
H1584 H 0.17458 0.7746 0.17313 0.0
H1585 H 0.1802 0.73386 0.11583 0.0
H1586 H 0.16017 0.73059 0.21111 0.0
H1587 H 0.18772 0.74074 0.21076 0.0
H1588 H 0.1652 0.7596 0.20796 0.0
H1589 H 0.17301 0.69539 0.11772 0.0
H1590 H 0.19404 0.68815 0.13712 0.0
H1591 H 0.1659 0.68254 0.14348 0.0
H1592 H 0.22636 0.67569 0.2041 0.0
H1593 H 0.15891 0.65733 0.21312 0.0
H1594 H 0.21785 0.72811 0.18414 0.0
H1595 H 0.22008 0.71087 0.16048 0.0
H1596 H 0.2373 0.70591 0.18395 0.0
H1597 H 0.13512 0.70553 0.19458 0.0
H1598 H 0.12996 0.67644 0.19595 0.0
H1599 H 0.13721 0.68932 0.17028 0.0
C1600 C 0.57814 0.99298 0.47344 0.0
C1601 C 0.58862 0.97321 0.47888 0.0
C1602 C 0.56089 0.99349 0.45834 0.0
C1603 C 0.55395 0.97373 0.4484 0.0
C1604 C 0.56462 0.95374 0.45352 0.0
C1605 C 0.58179 0.95369 0.46885 0.0
C1606 C 0.54967 0.01509 0.45362 0.0
C1607 C 0.55769 0.93242 0.44302 0.0
C1608 C 0.49544 0.97228 0.42798 0.0
C1609 C 0.49819 0.97658 0.40555 0.0
C1610 C 0.51351 0.97106 0.44206 0.0
C1611 C 0.53483 0.97394 0.43342 0.0
C1612 C 0.53775 0.978 0.41072 0.0
C1613 C 0.51932 0.97943 0.39703 0.0
C1614 C 0.50975 0.96711 0.46626 0.0
C1615 C 0.5603 0.98119 0.40101 0.0
H1616 H 0.58312 0.00812 0.48134 0.0
H1617 H 0.58988 0.9384 0.47294 0.0
H1618 H 0.55912 0.02927 0.46006 0.0
H1619 H 0.54729 0.0174 0.43571 0.0
H1620 H 0.53322 0.01517 0.46139 0.0
H1621 H 0.56839 0.9185 0.44793 0.0
H1622 H 0.54057 0.92852 0.44775 0.0
H1623 H 0.55808 0.93397 0.42487 0.0
H1624 H 0.47908 0.9702 0.43463 0.0
H1625 H 0.52145 0.98272 0.37967 0.0
H1626 H 0.51586 0.98133 0.47585 0.0
H1627 H 0.51908 0.95248 0.47175 0.0
H1628 H 0.49215 0.96461 0.47023 0.0
H1629 H 0.56802 0.99603 0.40819 0.0
H1630 H 0.55983 0.98307 0.38287 0.0
H1631 H 0.57095 0.96702 0.40515 0.0
C1632 C 0.29332 0.24957 0.66684 0.0
C1633 C 0.29106 0.24962 0.64396 0.0
C1634 C 0.29084 0.26891 0.67897 0.0
C1635 C 0.28627 0.28879 0.66787 0.0
C1636 C 0.28512 0.28915 0.64468 0.0
C1637 C 0.28741 0.26948 0.63297 0.0
C1638 C 0.29196 0.26784 0.70372 0.0
C1639 C 0.28055 0.31012 0.63232 0.0
C1640 C 0.254 0.32998 0.7011 0.0
C1641 C 0.2707 0.34347 0.70935 0.0
C1642 C 0.25882 0.31248 0.68705 0.0
C1643 C 0.28082 0.30867 0.68076 0.0
C1644 C 0.29763 0.32287 0.68814 0.0
C1645 C 0.2924 0.34 0.7026 0.0
C1646 C 0.24048 0.29743 0.67985 0.0
C1647 C 0.32121 0.31947 0.68141 0.0
H1648 H 0.29614 0.23424 0.67541 0.0
H1649 H 0.28577 0.26958 0.61525 0.0
H1650 H 0.30367 0.28022 0.71007 0.0
H1651 H 0.27562 0.27173 0.71075 0.0
H1652 H 0.29706 0.2514 0.70972 0.0
H1653 H 0.28269 0.30811 0.61432 0.0
H1654 H 0.26346 0.31547 0.63552 0.0
H1655 H 0.29155 0.32341 0.63809 0.0
H1656 H 0.23723 0.33245 0.70646 0.0
H1657 H 0.30532 0.35047 0.70887 0.0
H1658 H 0.24321 0.28074 0.68661 0.0
H1659 H 0.24028 0.29595 0.6617 0.0
H1660 H 0.22413 0.30327 0.68539 0.0
H1661 H 0.32755 0.30415 0.68891 0.0
H1662 H 0.33188 0.33329 0.6866 0.0
H1663 H 0.32244 0.31758 0.66333 0.0
C1664 C 0.91563 0.04801 0.97028 0.0
C1665 C 0.91102 0.02649 0.97692 0.0
C1666 C 0.93314 0.05243 0.95597 0.0
C1667 C 0.94641 0.03493 0.9484 0.0
C1668 C 0.94208 0.01324 0.9554 0.0
C1669 C 0.92441 0.00928 0.96951 0.0
C1670 C 0.93735 0.07575 0.94878 0.0
C1671 C 0.95609 0.99415 0.94797 0.0
C1672 C 0.97943 0.03795 0.89585 0.0
C1673 C 0.00073 0.04062 0.90403 0.0
C1674 C 0.96138 0.03718 0.91009 0.0
C1675 C 0.9648 0.03903 0.933 0.0
C1676 C 0.98616 0.04274 0.94126 0.0
C1677 C 0.00388 0.04355 0.92664 0.0
C1678 C 0.93881 0.03329 0.90069 0.0
C1679 C 0.99045 0.04471 0.9656 0.0
H1680 H 0.90536 0.06136 0.97599 0.0
H1681 H 0.92118 0.99263 0.97485 0.0
H1682 H 0.9543 0.08065 0.95319 0.0
H1683 H 0.93592 0.07699 0.93067 0.0
H1684 H 0.9257 0.08753 0.95638 0.0
H1685 H 0.95049 0.97828 0.95497 0.0
H1686 H 0.95579 0.99289 0.92981 0.0
H1687 H 0.97339 -0.00317 0.95292 0.0
H1688 H 0.97692 0.03581 0.87837 0.0
H1689 H 0.02032 0.04568 0.93306 0.0
H1690 H 0.92698 0.04536 0.90744 0.0
H1691 H 0.93301 0.01673 0.9055 0.0
H1692 H 0.93862 0.03444 0.88249 0.0
H1693 H 0.97906 0.05673 0.97313 0.0
H1694 H 0.00756 0.04983 0.96917 0.0
H1695 H 0.98746 0.02865 0.97362 0.0
C1696 C 0.30915 0.20464 0.24075 0.0
C1697 C 0.33102 0.20073 0.24667 0.0
C1698 C 0.29304 0.20788 0.2568 0.0
C1699 C 0.29901 0.20691 0.27921 0.0
C1700 C 0.32102 0.20273 0.28527 0.0
C1701 C 0.33681 0.19974 0.26888 0.0
C1702 C 0.26974 0.21255 0.24981 0.0
C1703 C 0.3279 0.20156 0.30906 0.0
C1704 C 0.26309 0.23239 0.32298 0.0
C1705 C 0.25271 0.21378 0.33169 0.0
C1706 C 0.2778 0.23052 0.3054 0.0
C1707 C 0.28218 0.20956 0.29645 0.0
C1708 C 0.27129 0.19085 0.30471 0.0
C1709 C 0.2567 0.19318 0.32225 0.0
C1710 C 0.289 0.25086 0.29674 0.0
C1711 C 0.2754 0.16828 0.29532 0.0
H1712 H 0.30469 0.20574 0.22356 0.0
H1713 H 0.35374 0.19684 0.27344 0.0
H1714 H 0.25855 0.19998 0.25671 0.0
H1715 H 0.26441 0.22868 0.25634 0.0
H1716 H 0.26785 0.21274 0.23167 0.0
H1717 H 0.34573 0.19836 0.31097 0.0
H1718 H 0.32386 0.2172 0.31746 0.0
H1719 H 0.31871 0.18834 0.31754 0.0
H1720 H 0.25991 0.24841 0.33001 0.0
H1721 H 0.24857 0.17873 0.32868 0.0
H1722 H 0.28656 0.25227 0.27875 0.0
H1723 H 0.30692 0.24969 0.29965 0.0
H1724 H 0.28281 0.26607 0.30467 0.0
H1725 H 0.27245 0.16833 0.27735 0.0
H1726 H 0.26479 0.15557 0.30292 0.0
H1727 H 0.29279 0.1636 0.29793 0.0
C1728 C 0.06 0.03217 0.59262 0.0
C1729 C 0.03904 0.02363 0.59673 0.0
C1730 C 0.06316 0.04857 0.5768 0.0
C1731 C 0.04497 0.05635 0.56469 0.0
C1732 C 0.02361 0.04881 0.56974 0.0
C1733 C 0.02089 0.03261 0.58582 0.0
C1734 C 0.08614 0.05648 0.57206 0.0
C1735 C 0.00379 0.05664 0.55707 0.0
C1736 C 0.04785 0.10566 0.52686 0.0
C1737 C 0.04973 0.0954 0.50634 0.0
C1738 C 0.0472 0.09323 0.54624 0.0
C1739 C 0.04843 0.0701 0.54493 0.0
C1740 C 0.05146 0.05978 0.52434 0.0
C1741 C 0.05215 0.07258 0.50529 0.0
C1742 C 0.04416 0.10476 0.56796 0.0
C1743 C 0.05291 0.03512 0.52228 0.0
H1744 H 0.07408 0.02547 0.60117 0.0
H1745 H 0.00463 0.0261 0.58887 0.0
H1746 H 0.09179 0.0495 0.55622 0.0
H1747 H 0.0865 0.0746 0.57047 0.0
H1748 H 0.09789 0.05148 0.58508 0.0
H1749 H 0.98817 0.0511 0.56464 0.0
H1750 H 0.00362 0.0748 0.55601 0.0
H1751 H 0.00451 0.0502 0.54005 0.0
H1752 H 0.04612 0.12332 0.52775 0.0
H1753 H 0.05376 0.06458 0.48948 0.0
H1754 H 0.05602 0.09846 0.58025 0.0
H1755 H 0.02746 0.10139 0.57433 0.0
H1756 H 0.04624 0.1228 0.56648 0.0
H1757 H 0.06585 0.02862 0.53329 0.0
H1758 H 0.05655 0.02979 0.50523 0.0
H1759 H 0.03714 0.02762 0.52742 0.0
C1760 C 0.16505 0.79214 0.74066 0.0
C1761 C 0.14245 0.79584 0.73966 0.0
C1762 C 0.17606 0.79256 0.76082 0.0
C1763 C 0.1642 0.79746 0.78021 0.0
C1764 C 0.14175 0.80319 0.77893 0.0
C1765 C 0.131 0.80186 0.75864 0.0
C1766 C 0.19991 0.78588 0.76155 0.0
C1767 C 0.12878 0.80927 0.79913 0.0
C1768 C 0.18494 0.76606 0.82922 0.0
C1769 C 0.19951 0.78113 0.8387 0.0
C1770 C 0.17256 0.7716 0.81075 0.0
C1771 C 0.17439 0.79293 0.8018 0.0
C1772 C 0.18765 0.80881 0.81229 0.0
C1773 C 0.20029 0.80265 0.83055 0.0
C1774 C 0.1587 0.7541 0.79993 0.0
C1775 C 0.1894 0.83191 0.80357 0.0
H1776 H 0.17383 0.78738 0.72593 0.0
H1777 H 0.11351 0.80497 0.75771 0.0
H1778 H 0.20958 0.79786 0.77123 0.0
H1779 H 0.20142 0.76972 0.7698 0.0
H1780 H 0.20721 0.78456 0.74489 0.0
H1781 H 0.11315 0.81761 0.79484 0.0
H1782 H 0.12482 0.79423 0.80856 0.0
H1783 H 0.13847 0.82018 0.81001 0.0
H1784 H 0.1841 0.74942 0.83543 0.0
H1785 H 0.21132 0.81448 0.83793 0.0
H1786 H 0.16534 0.75037 0.78338 0.0
H1787 H 0.14164 0.75999 0.79775 0.0
H1788 H 0.15828 0.73864 0.80958 0.0
H1789 H 0.19974 0.83196 0.78859 0.0
H1790 H 0.1969 0.84319 0.81576 0.0
H1791 H 0.17301 0.83831 0.79892 0.0
C1792 C 0.45132 0.91819 0.00434 0.0
C1793 C 0.45324 0.89538 0.00624 0.0
C1794 C 0.4537 0.93175 0.0227 0.0
C1795 C 0.4578 0.92221 0.04348 0.0
C1796 C 0.45924 0.89915 0.04561 0.0
C1797 C 0.45709 0.88597 0.02687 0.0
C1798 C 0.45239 0.95633 0.01975 0.0
C1799 C 0.46348 0.88848 0.06757 0.0
C1800 C 0.48608 0.96035 0.08318 0.0
C1801 C 0.46821 0.9691 0.09478 0.0
C1802 C 0.48302 0.9443 0.06707 0.0
C1803 C 0.4616 0.93662 0.06266 0.0
C1804 C 0.44365 0.94439 0.07517 0.0
C1805 C 0.44715 0.9607 0.09102 0.0
C1806 C 0.50255 0.93664 0.05385 0.0
C1807 C 0.42063 0.93631 0.07104 0.0
H1808 H 0.44846 0.92551 0.98838 0.0
H1809 H 0.45853 0.86831 0.02835 0.0
H1810 H 0.43962 0.96328 0.03069 0.0
H1811 H 0.46824 0.96394 0.02443 0.0
H1812 H 0.44855 0.96107 0.00257 0.0
H1813 H 0.46276 0.8703 0.06665 0.0
H1814 H 0.47991 0.89333 0.07369 0.0
H1815 H 0.45127 0.89422 0.0798 0.0
H1816 H 0.50241 0.96684 0.08585 0.0
H1817 H 0.4333 0.9673 0.10002 0.0
H1818 H 0.50123 0.94295 0.03681 0.0
H1819 H 0.50292 0.91848 0.0529 0.0
H1820 H 0.51833 0.94243 0.06089 0.0
H1821 H 0.41485 0.94242 0.05488 0.0
H1822 H 0.40897 0.94197 0.08386 0.0
H1823 H 0.42029 0.91813 0.07041 0.0
C1824 C 0.31244 0.77879 0.24899 0.0
C1825 C 0.33489 0.77961 0.24421 0.0
C1826 C 0.29702 0.77523 0.23236 0.0
C1827 C 0.30428 0.77292 0.21043 0.0
C1828 C 0.327 0.77301 0.20563 0.0
C1829 C 0.3421 0.77617 0.22268 0.0
C1830 C 0.27295 0.77467 0.23819 0.0
C1831 C 0.33528 0.7706 0.18239 0.0
C1832 C 0.26452 0.75219 0.16733 0.0
C1833 C 0.25704 0.77194 0.15813 0.0
C1834 C 0.27988 0.75218 0.18446 0.0
C1835 C 0.28807 0.77239 0.19236 0.0
C1836 C 0.28069 0.79234 0.18309 0.0
C1837 C 0.2652 0.79189 0.16615 0.0
C1838 C 0.28716 0.7306 0.19424 0.0
C1839 C 0.28914 0.81422 0.1911 0.0
H1840 H 0.30689 0.781 0.26575 0.0
H1841 H 0.3595 0.77662 0.21906 0.0
H1842 H 0.26472 0.78944 0.23144 0.0
H1843 H 0.26496 0.76012 0.23075 0.0
H1844 H 0.27023 0.77424 0.25622 0.0
H1845 H 0.35345 0.7695 0.18163 0.0
H1846 H 0.32821 0.75572 0.17467 0.0
H1847 H 0.32992 0.7849 0.17248 0.0
H1848 H 0.25833 0.7367 0.16122 0.0
H1849 H 0.25957 0.80723 0.15916 0.0
H1850 H 0.28219 0.72978 0.21174 0.0
H1851 H 0.30529 0.72926 0.19374 0.0
H1852 H 0.28002 0.71629 0.18551 0.0
H1853 H 0.28518 0.81631 0.20875 0.0
H1854 H 0.282 0.82822 0.18186 0.0
H1855 H 0.30725 0.81484 0.18949 0.0
C1856 C 0.4333 0.04186 0.42501 0.0
C1857 C 0.45461 0.04128 0.41633 0.0
C1858 C 0.42885 0.05317 0.44468 0.0
C1859 C 0.44619 0.06374 0.45597 0.0
C1860 C 0.46759 0.0635 0.44706 0.0
C1861 C 0.47146 0.05249 0.42735 0.0
C1862 C 0.40578 0.05342 0.45362 0.0
C1863 C 0.48664 0.07437 0.45868 0.0
C1864 C 0.4422 0.10849 0.4985 0.0
C1865 C 0.44721 0.09686 0.51768 0.0
C1866 C 0.43957 0.09756 0.47842 0.0
C1867 C 0.44264 0.07457 0.4775 0.0
C1868 C 0.44634 0.06262 0.49711 0.0
C1869 C 0.44837 0.07394 0.51705 0.0
C1870 C 0.43514 0.11083 0.45797 0.0
C1871 C 0.45008 0.03814 0.49679 0.0
H1872 H 0.42018 0.03327 0.41664 0.0
H1873 H 0.48803 0.05216 0.42094 0.0
H1874 H 0.40511 0.04387 0.4691 0.0
H1875 H 0.40072 0.07045 0.45757 0.0
H1876 H 0.3938 0.0463 0.44187 0.0
H1877 H 0.50227 0.0727 0.44946 0.0
H1878 H 0.48324 0.09208 0.46106 0.0
H1879 H 0.48889 0.06699 0.47518 0.0
H1880 H 0.44098 0.12623 0.49906 0.0
H1881 H 0.45221 0.06492 0.5319 0.0
H1882 H 0.42288 0.10251 0.44741 0.0
H1883 H 0.4505 0.1124 0.44834 0.0
H1884 H 0.42912 0.12757 0.46193 0.0
H1885 H 0.43758 0.02986 0.48651 0.0
H1886 H 0.44964 0.03094 0.51354 0.0
H1887 H 0.46637 0.03463 0.48946 0.0
C1888 C 0.14633 0.19316 0.72974 0.0
C1889 C 0.15602 0.19364 0.75059 0.0
C1890 C 0.159 0.19611 0.71077 0.0
C1891 C 0.18186 0.19951 0.71278 0.0
C1892 C 0.1918 0.19948 0.73377 0.0
C1893 C 0.17874 0.19653 0.75244 0.0
C1894 C 0.14788 0.19609 0.68862 0.0
C1895 C 0.21615 0.20308 0.73652 0.0
C1896 C 0.21895 0.18963 0.66391 0.0
C1897 C 0.22278 0.21108 0.65653 0.0
C1898 C 0.20533 0.18559 0.68198 0.0
C1899 C 0.1954 0.20345 0.69298 0.0
C1900 C 0.19895 0.22513 0.6855 0.0
C1901 C 0.21256 0.22869 0.66731 0.0
C1902 C 0.20191 0.16226 0.68958 0.0
C1903 C 0.18874 0.2446 0.69698 0.0
H1904 H 0.12877 0.19093 0.72825 0.0
H1905 H 0.18631 0.19697 0.76854 0.0
H1906 H 0.15 0.21232 0.68066 0.0
H1907 H 0.15559 0.1837 0.67774 0.0
H1908 H 0.13006 0.19251 0.68985 0.0
H1909 H 0.22142 0.20177 0.75393 0.0
H1910 H 0.22543 0.19088 0.7267 0.0
H1911 H 0.22068 0.21958 0.73033 0.0
H1912 H 0.22675 0.17594 0.65567 0.0
H1913 H 0.21557 0.24534 0.66185 0.0
H1914 H 0.18414 0.1584 0.69011 0.0
H1915 H 0.20836 0.16028 0.70649 0.0
H1916 H 0.21018 0.15017 0.67874 0.0
H1917 H 0.17065 0.24275 0.69753 0.0
H1918 H 0.19274 0.26037 0.68876 0.0
H1919 H 0.19457 0.24542 0.71421 0.0
C1920 C 0.04131 0.88706 0.97766 0.0
C1921 C 0.04468 0.89644 -0.00161 0.0
C1922 C 0.0397 0.90025 0.95886 0.0
C1923 C 0.04144 0.9233 0.96096 0.0
C1924 C 0.04563 0.93278 0.98173 0.0
C1925 C 0.04727 0.91921 0.00021 0.0
C1926 C 0.03535 0.88961 0.93691 0.0
C1927 C 0.04755 0.95731 0.9846 0.0
C1928 C 0.05194 0.95963 0.91157 0.0
C1929 C 0.03083 0.9676 0.90715 0.0
C1930 C 0.05558 0.94463 0.92864 0.0
C1931 C 0.0377 0.93768 0.9417 0.0
C1932 C 0.01628 0.94536 0.93708 0.0
C1933 C 0.01309 0.96014 0.91978 0.0
C1934 C 0.0786 0.93666 0.93306 0.0
C1935 C -0.00316 0.93854 0.95088 0.0
H1936 H 0.03937 0.86945 0.97618 0.0
H1937 H 0.04991 0.92655 0.0162 0.0
H1938 H 0.01883 0.89441 0.93098 0.0
H1939 H 0.04741 0.89539 0.92457 0.0
H1940 H 0.03614 0.87143 0.9378 0.0
H1941 H 0.05205 0.96196 0.00165 0.0
H1942 H 0.06006 0.96402 0.97323 0.0
H1943 H 0.03169 0.96523 0.98046 0.0
H1944 H 0.0657 0.96528 0.90182 0.0
H1945 H -0.00325 0.96641 0.91661 0.0
H1946 H 0.079 0.91847 0.93344 0.0
H1947 H 0.08409 0.94252 0.9494 0.0
H1948 H 0.09045 0.9425 0.9205 0.0
H1949 H 0.99579 0.9204 0.95178 0.0
H1950 H 0.98111 0.94498 0.94431 0.0
H1951 H -0.00109 0.94469 0.9679 0.0
C1952 C 0.24046 0.31613 0.21273 0.0
C1953 C 0.24204 0.33904 0.21307 0.0
C1954 C 0.25932 0.30302 0.21358 0.0
C1955 C 0.28019 0.31314 0.21444 0.0
C1956 C 0.28188 0.33628 0.21412 0.0
C1957 C 0.26273 0.34899 0.21362 0.0
C1958 C 0.25688 0.27837 0.21429 0.0
C1959 C 0.30389 0.34759 0.21489 0.0
C1960 C 0.3248 0.27936 0.24107 0.0
C1961 C 0.33544 0.27022 0.22277 0.0
C1962 C 0.30718 0.29383 0.23854 0.0
C1963 C 0.30008 0.29945 0.21718 0.0
C1964 C 0.31123 0.29104 0.19861 0.0
C1965 C 0.32878 0.27644 0.20163 0.0
C1966 C 0.29559 0.30233 0.25876 0.0
C1967 C 0.3041 0.29683 0.1756 0.0
H1968 H 0.22446 0.30841 0.21244 0.0
H1969 H 0.26395 0.36673 0.21379 0.0
H1970 H 0.26672 0.27069 0.20104 0.0
H1971 H 0.26322 0.27201 0.23014 0.0
H1972 H 0.23954 0.27308 0.21249 0.0
H1973 H 0.30244 0.36564 0.21283 0.0
H1974 H 0.31195 0.34421 0.23086 0.0
H1975 H 0.31477 0.34107 0.20183 0.0
H1976 H 0.32969 0.27464 0.25751 0.0
H1977 H 0.33688 0.26948 0.1874 0.0
H1978 H 0.27866 0.29569 0.25936 0.0
H1979 H 0.29427 0.32047 0.25815 0.0
H1980 H 0.30414 0.29764 0.27416 0.0
H1981 H 0.28758 0.28992 0.17242 0.0
H1982 H 0.31559 0.2904 0.16299 0.0
H1983 H 0.30286 0.31488 0.17372 0.0
C1984 C 0.77259 0.15348 0.7754 0.0
C1985 C 0.75191 0.16342 0.77432 0.0
C1986 C 0.79171 0.16576 0.77201 0.0
C1987 C 0.79 0.18849 0.76766 0.0
C1988 C 0.76911 0.19836 0.76544 0.0
C1989 C 0.75028 0.18567 0.76879 0.0
C1990 C 0.81374 0.15463 0.77397 0.0
C1991 C 0.76665 0.22255 0.76062 0.0
C1992 C 0.83445 0.22633 0.78825 0.0
C1993 C 0.84501 0.23234 0.76871 0.0
C1994 C 0.81689 0.21159 0.78811 0.0
C1995 C 0.80984 0.20246 0.76797 0.0
C1996 C 0.82096 0.20767 0.74828 0.0
C1997 C 0.83839 0.22266 0.74886 0.0
C1998 C 0.80534 0.20647 0.80946 0.0
C1999 C 0.81397 0.19807 0.72652 0.0
H2000 H 0.77389 0.13619 0.77934 0.0
H2001 H 0.73429 0.19334 0.76758 0.0
H2002 H 0.82437 0.15907 0.75987 0.0
H2003 H 0.82211 0.16031 0.78911 0.0
H2004 H 0.81223 0.13648 0.77469 0.0
H2005 H 0.74933 0.22723 0.75744 0.0
H2006 H 0.77273 0.23221 0.77481 0.0
H2007 H 0.77665 0.22722 0.74616 0.0
H2008 H 0.83942 0.23366 0.80367 0.0
H2009 H 0.84646 0.22718 0.73366 0.0
H2010 H 0.8049 0.1885 0.81221 0.0
H2011 H 0.78811 0.21227 0.80862 0.0
H2012 H 0.81339 0.21433 0.8238 0.0
H2013 H 0.81134 0.18013 0.72798 0.0
H2014 H 0.82625 0.20115 0.71341 0.0
H2015 H 0.79817 0.20549 0.7214 0.0
C2016 C 0.03665 0.57662 0.04616 0.0
C2017 C 0.02643 0.58072 0.02598 0.0
C2018 C 0.05175 0.55942 0.04839 0.0
C2019 C 0.05632 0.54585 0.03011 0.0
C2020 C 0.04625 0.5501 0.00962 0.0
C2021 C 0.03152 0.5676 0.00777 0.0
C2022 C 0.06245 0.55546 0.07039 0.0
C2023 C 0.05042 0.53571 0.98983 0.0
C2024 C 0.10622 0.50897 0.02803 0.0
C2025 C 0.09698 0.4886 0.03327 0.0
C2026 C 0.09332 0.528 0.02772 0.0
C2027 C 0.07069 0.52645 0.03257 0.0
C2028 C 0.06143 0.50603 0.03849 0.0
C2029 C 0.07474 0.48734 0.03889 0.0
C2030 C 0.10372 0.54958 0.02147 0.0
C2031 C 0.03729 0.50375 0.04357 0.0
H2032 H 0.03281 0.58682 0.06023 0.0
H2033 H 0.02343 0.57054 0.99219 0.0
H2034 H 0.05707 0.53941 0.07705 0.0
H2035 H 0.08053 0.55474 0.06853 0.0
H2036 H 0.05832 0.56843 0.08252 0.0
H2037 H 0.04254 0.54222 0.97474 0.0
H2038 H 0.06828 0.5341 0.9868 0.0
H2039 H 0.04395 0.519 0.99296 0.0
H2040 H 0.12344 0.50999 0.02375 0.0
H2041 H 0.06753 0.4716 0.04293 0.0
H2042 H 0.09969 0.56233 0.03382 0.0
H2043 H 0.09703 0.5552 0.00549 0.0
H2044 H 0.12183 0.54833 0.02003 0.0
H2045 H 0.03243 0.51551 0.05658 0.0
H2046 H 0.03292 0.48692 0.04902 0.0
H2047 H 0.02752 0.50774 0.02872 0.0
C2048 C 0.66123 0.77663 0.25028 0.0
C2049 C 0.65499 0.76459 0.26893 0.0
C2050 C 0.67844 0.79172 0.25112 0.0
C2051 C 0.68969 0.79498 0.27112 0.0
C2052 C 0.68317 0.78341 0.29019 0.0
C2053 C 0.66586 0.76828 0.28887 0.0
C2054 C 0.68504 0.80364 0.23038 0.0
C2055 C 0.69488 0.78655 0.31179 0.0
C2056 C 0.74822 0.81503 0.26694 0.0
C2057 C 0.74566 0.83752 0.27076 0.0
C2058 C 0.73009 0.80098 0.26705 0.0
C2059 C 0.70904 0.80963 0.27165 0.0
C2060 C 0.70642 0.83233 0.27575 0.0
C2061 C 0.7248 0.84612 0.27495 0.0
C2062 C 0.7334 0.77696 0.2619 0.0
C2063 C 0.68423 0.84203 0.28091 0.0
H2064 H 0.65297 0.77398 0.23476 0.0
H2065 H 0.66118 0.75906 0.30334 0.0
H2066 H 0.68531 0.8216 0.23326 0.0
H2067 H 0.70187 0.79867 0.22554 0.0
H2068 H 0.67379 0.80016 0.21647 0.0
H2069 H 0.68687 0.77745 0.3254 0.0
H2070 H 0.71207 0.78079 0.31031 0.0
H2071 H 0.69544 0.80422 0.31611 0.0
H2072 H 0.76439 0.80849 0.26345 0.0
H2073 H 0.72294 0.86353 0.27802 0.0
H2074 H 0.72377 0.77241 0.24713 0.0
H2075 H 0.72733 0.76674 0.27569 0.0
H2076 H 0.75088 0.77286 0.25886 0.0
H2077 H 0.67302 0.83965 0.26676 0.0
H2078 H 0.68516 0.85984 0.28466 0.0
H2079 H 0.67685 0.83345 0.29517 0.0
C2080 C 0.92047 0.99156 0.04848 0.0
C2081 C 0.89806 0.98891 0.04419 0.0
C2082 C 0.93493 0.97382 0.04681 0.0
C2083 C 0.92668 0.95296 0.04094 0.0
C2084 C 0.90393 0.94998 0.0375 0.0
C2085 C 0.88986 0.96807 0.03909 0.0
C2086 C 0.95914 0.9776 0.05045 0.0
C2087 C 0.8946 0.92788 0.03138 0.0
C2088 C 0.96644 0.91444 0.013 0.0
C2089 C 0.97312 0.90117 0.03057 0.0
C2090 C 0.9511 0.93122 0.01611 0.0
C2091 C 0.94206 0.93457 0.03725 0.0
C2092 C 0.94835 0.92092 0.05494 0.0
C2093 C 0.96398 0.90445 0.05142 0.0
C2094 C 0.94503 0.94574 0.99693 0.0
C2095 C 0.93884 0.92396 0.07763 0.0
H2096 H 0.92688 0.00768 0.05238 0.0
H2097 H 0.87251 0.96599 0.03584 0.0
H2098 H 0.96557 0.96589 0.06281 0.0
H2099 H 0.96819 0.97463 0.03493 0.0
H2100 H 0.96272 0.99455 0.05608 0.0
H2101 H 0.87639 0.92796 0.03097 0.0
H2102 H 0.90073 0.92299 0.01494 0.0
H2103 H 0.90013 0.9152 0.04321 0.0
H2104 H 0.97368 0.91212 0.9969 0.0
H2105 H 0.96906 0.89415 0.06501 0.0
H2106 H 0.95027 0.96285 0.00028 0.0
H2107 H 0.92699 0.94598 0.99466 0.0
H2108 H 0.95278 0.94028 0.98136 0.0
H2109 H 0.94351 0.9403 0.08413 0.0
H2110 H 0.9446 0.91121 0.08932 0.0
H2111 H 0.92067 0.92344 0.07691 0.0
C2112 C 0.23499 0.64863 0.68751 0.0
C2113 C 0.25566 0.65789 0.69131 0.0
C2114 C 0.21585 0.66113 0.68996 0.0
C2115 C 0.2175 0.6834 0.69629 0.0
C2116 C 0.23836 0.69298 0.69964 0.0
C2117 C 0.25721 0.6801 0.69707 0.0
C2118 C 0.19385 0.65037 0.68635 0.0
C2119 C 0.24075 0.71667 0.70649 0.0
C2120 C 0.16951 0.72144 0.68575 0.0
C2121 C 0.1599 0.72281 0.70665 0.0
C2122 C 0.18817 0.70852 0.68211 0.0
C2123 C 0.1974 0.69662 0.69977 0.0
C2124 C 0.18769 0.69768 0.72084 0.0
C2125 C 0.16907 0.7108 0.72404 0.0
C2126 C 0.19824 0.70792 0.65947 0.0
C2127 C 0.19714 0.68516 0.74006 0.0
H2128 H 0.23373 0.63146 0.68308 0.0
H2129 H 0.27316 0.68732 0.70014 0.0
H2130 H 0.18426 0.65068 0.70182 0.0
H2131 H 0.18434 0.65961 0.67388 0.0
H2132 H 0.19543 0.63307 0.68083 0.0
H2133 H 0.25817 0.72191 0.70731 0.0
H2134 H 0.23195 0.72751 0.6948 0.0
H2135 H 0.23322 0.71913 0.72289 0.0
H2136 H 0.16265 0.73072 0.67221 0.0
H2137 H 0.16184 0.71179 0.74027 0.0
H2138 H 0.19919 0.69075 0.6535 0.0
H2139 H 0.21525 0.71434 0.66013 0.0
H2140 H 0.18878 0.71776 0.64739 0.0
H2141 H 0.19804 0.66742 0.73612 0.0
H2142 H 0.18728 0.68728 0.75524 0.0
H2143 H 0.21412 0.69079 0.74337 0.0
C2144 C 0.03084 0.41045 0.50516 0.0
C2145 C 0.02393 0.39846 0.48677 0.0
C2146 C 0.04688 0.42674 0.50316 0.0
C2147 C 0.05629 0.43086 0.48233 0.0
C2148 C 0.0504 0.41783 0.46405 0.0
C2149 C 0.03413 0.40185 0.46646 0.0
C2150 C 0.05261 0.44047 0.52298 0.0
C2151 C 0.06028 0.42166 0.44164 0.0
C2152 C 0.07286 0.48896 0.4691 0.0
C2153 C 0.0957 0.48792 0.47115 0.0
C2154 C 0.05988 0.47051 0.47303 0.0
C2155 C 0.07004 0.45052 0.47898 0.0
C2156 C 0.0931 0.44933 0.48114 0.0
C2157 C 0.10572 0.46815 0.47724 0.0
C2158 C 0.03527 0.47241 0.47074 0.0
C2159 C 0.10437 0.42821 0.48751 0.0
H2160 H 0.0229 0.40792 0.52089 0.0
H2161 H 0.02899 0.39239 0.45229 0.0
H2162 H 0.07061 0.44274 0.52428 0.0
H2163 H 0.04514 0.45699 0.52125 0.0
H2164 H 0.0465 0.43304 0.53847 0.0
H2165 H 0.05597 0.40844 0.42986 0.0
H2166 H 0.05424 0.43749 0.43497 0.0
H2167 H 0.07839 0.42278 0.44277 0.0
H2168 H 0.06504 0.50427 0.46457 0.0
H2169 H 0.12339 0.46737 0.47891 0.0
H2170 H 0.02718 0.46766 0.48635 0.0
H2171 H 0.02935 0.461 0.45785 0.0
H2172 H 0.02997 0.48929 0.46639 0.0
H2173 H 0.09803 0.42237 0.50354 0.0
H2174 H 0.12244 0.43012 0.48873 0.0
H2175 H 0.1007 0.4153 0.47522 0.0
C2176 C 0.4794 0.57553 0.98745 0.0
C2177 C 0.48568 0.5828 0.96647 0.0
C2178 C 0.46327 0.55935 0.99005 0.0
C2179 C 0.45314 0.5503 0.97125 0.0
C2180 C 0.45915 0.55777 0.95008 0.0
C2181 C 0.47536 0.5739 0.94794 0.0
C2182 C 0.45725 0.55177 0.01287 0.0
C2183 C 0.44878 0.54835 0.92962 0.0
C2184 C 0.42991 0.49294 0.97123 0.0
C2185 C 0.40731 0.49705 0.97116 0.0
C2186 C 0.44501 0.51013 0.9725 0.0
C2187 C 0.43729 0.53198 0.97341 0.0
C2188 C 0.41446 0.53619 0.97448 0.0
C2189 C 0.39966 0.51856 0.97348 0.0
C2190 C 0.46923 0.50492 0.97194 0.0
C2191 C 0.40568 0.5593 0.97564 0.0
H2192 H 0.48725 0.5823 0.0019 0.0
H2193 H 0.48002 0.57943 0.93169 0.0
H2194 H 0.43974 0.55543 0.01613 0.0
H2195 H 0.45932 0.53375 0.01426 0.0
H2196 H 0.46736 0.55979 0.02575 0.0
H2197 H 0.45456 0.55664 0.91444 0.0
H2198 H 0.4527 0.53062 0.92837 0.0
H2199 H 0.43068 0.54987 0.93052 0.0
H2200 H 0.43584 0.47622 0.96993 0.0
H2201 H 0.38216 0.52168 0.9736 0.0
H2202 H 0.47774 0.51297 0.98586 0.0
H2203 H 0.47652 0.51142 0.95657 0.0
H2204 H 0.47248 0.487 0.97276 0.0
H2205 H 0.414 0.56859 0.98889 0.0
H2206 H 0.38771 0.55969 0.97861 0.0
H2207 H 0.40914 0.5679 0.95997 0.0
C2208 C 0.69654 0.77173 0.85447 0.0
C2209 C 0.69292 0.75128 0.84461 0.0
C2210 C 0.69929 0.79064 0.84165 0.0
C2211 C 0.69838 0.78897 0.8185 0.0
C2212 C 0.694 0.76849 0.80851 0.0
C2213 C 0.69125 0.74989 0.8217 0.0
C2214 C 0.70386 0.81226 0.85283 0.0
C2215 C 0.69295 0.76608 0.78384 0.0
C2216 C 0.68961 0.8393 0.78307 0.0
C2217 C 0.71101 0.84366 0.77585 0.0
C2218 C 0.68533 0.82189 0.79747 0.0
C2219 C 0.70283 0.80842 0.80459 0.0
C2220 C 0.72451 0.81289 0.79761 0.0
C2221 C 0.72835 0.83055 0.7834 0.0
C2222 C 0.66203 0.81761 0.80468 0.0
C2223 C 0.74356 0.79867 0.80465 0.0
H2224 H 0.6978 0.77287 0.87218 0.0
H2225 H 0.68846 0.73412 0.81398 0.0
H2226 H 0.72058 0.81795 0.8485 0.0
H2227 H 0.69217 0.82494 0.84703 0.0
H2228 H 0.70266 0.81105 0.87099 0.0
H2229 H 0.68837 0.74921 0.77872 0.0
H2230 H 0.68086 0.77776 0.77688 0.0
H2231 H 0.70915 0.7701 0.77658 0.0
H2232 H 0.67616 0.84943 0.77736 0.0
H2233 H 0.7449 0.83369 0.77771 0.0
H2234 H 0.66108 0.81704 0.82286 0.0
H2235 H 0.65657 0.8014 0.79847 0.0
H2236 H 0.65047 0.83034 0.79862 0.0
H2237 H 0.74433 0.79773 0.82282 0.0
H2238 H 0.75951 0.80491 0.79844 0.0
H2239 H 0.74123 0.78172 0.79846 0.0
C2240 C 0.5002 0.48348 0.06945 0.0
C2241 C 0.51342 0.46758 0.07924 0.0
C2242 C 0.4812 0.47739 0.05802 0.0
C2243 C 0.47517 0.45494 0.05703 0.0
C2244 C 0.48877 0.43883 0.06672 0.0
C2245 C 0.50795 0.44537 0.07757 0.0
C2246 C 0.4674 0.495 0.04736 0.0
C2247 C 0.48272 0.41483 0.06624 0.0
C2248 C 0.4142 0.44885 0.04875 0.0
C2249 C 0.41305 0.44577 0.02603 0.0
C2250 C 0.43451 0.44996 0.05942 0.0
C2251 C 0.454 0.44867 0.04686 0.0
C2252 C 0.45287 0.44396 0.02413 0.0
C2253 C 0.43229 0.44225 0.01401 0.0
C2254 C 0.43506 0.45442 0.08379 0.0
C2255 C 0.47325 0.4429 0.0101 0.0
H2256 H 0.50473 0.50063 0.07075 0.0
H2257 H 0.51838 0.4332 0.08531 0.0
H2258 H 0.46468 0.49107 0.02978 0.0
H2259 H 0.45107 0.49572 0.05536 0.0
H2260 H 0.47512 0.51146 0.0485 0.0
H2261 H 0.49573 0.40428 0.07343 0.0
H2262 H 0.46734 0.41225 0.07562 0.0
H2263 H 0.47959 0.40944 0.04914 0.0
H2264 H 0.39925 0.45177 0.05794 0.0
H2265 H 0.43135 0.44034 0.99633 0.0
H2266 H 0.44001 0.47169 0.08668 0.0
H2267 H 0.44733 0.44376 0.09199 0.0
H2268 H 0.41882 0.45173 0.0916 0.0
H2269 H 0.48005 0.45967 0.00813 0.0
H2270 H 0.4698 0.43614 0.99352 0.0
H2271 H 0.48605 0.43272 0.01806 0.0
C2272 C 0.799 0.23547 0.36056 0.0
C2273 C 0.79983 0.25611 0.35048 0.0
C2274 C 0.79919 0.21622 0.34798 0.0
C2275 C 0.79983 0.21775 0.32481 0.0
C2276 C 0.80179 0.23853 0.31462 0.0
C2277 C 0.80194 0.25749 0.32763 0.0
C2278 C 0.79744 0.19433 0.35943 0.0
C2279 C 0.80221 0.24086 0.28994 0.0
C2280 C 0.80859 0.16771 0.28862 0.0
C2281 C 0.78693 0.16239 0.28301 0.0
C2282 C 0.81312 0.18534 0.30279 0.0
C2283 C 0.79559 0.19805 0.31117 0.0
C2284 C 0.77371 0.19255 0.30581 0.0
C2285 C 0.76966 0.17473 0.29195 0.0
C2286 C 0.83663 0.19066 0.3084 0.0
C2287 C 0.75454 0.20589 0.31419 0.0
H2288 H 0.79757 0.23437 0.37827 0.0
H2289 H 0.80257 0.27343 0.31978 0.0
H2290 H 0.7808 0.18745 0.35681 0.0
H2291 H 0.80939 0.1825 0.35246 0.0
H2292 H 0.80033 0.19573 0.37738 0.0
H2293 H 0.80603 0.25789 0.28469 0.0
H2294 H 0.81452 0.22961 0.28267 0.0
H2295 H 0.78597 0.23627 0.28314 0.0
H2296 H 0.82201 0.15825 0.28181 0.0
H2297 H 0.75286 0.17092 0.28758 0.0
H2298 H 0.83869 0.19176 0.32646 0.0
H2299 H 0.84106 0.20688 0.30146 0.0
H2300 H 0.84825 0.1782 0.30191 0.0
H2301 H 0.75471 0.20637 0.33239 0.0
H2302 H 0.7385 0.19921 0.30872 0.0
H2303 H 0.7559 0.22307 0.30831 0.0
C2304 C 0.01042 0.55445 0.5998 0.0
C2305 C 0.99056 0.54996 0.58913 0.0
C2306 C 0.03036 0.5535 0.58843 0.0
C2307 C 0.03038 0.54771 0.56594 0.0
C2308 C 0.01031 0.54384 0.55492 0.0
C2309 C 0.99059 0.54512 0.56666 0.0
C2310 C 0.05145 0.55779 0.60068 0.0
C2311 C 0.00974 0.53738 0.53098 0.0
C2312 C 0.08093 0.55621 0.53058 0.0
C2313 C 0.08997 0.53505 0.53046 0.0
C2314 C 0.06179 0.56079 0.54255 0.0
C2315 C 0.05142 0.54375 0.55444 0.0
C2316 C 0.06075 0.52252 0.55482 0.0
C2317 C 0.07995 0.51848 0.54295 0.0
C2318 C 0.05231 0.58365 0.54197 0.0
C2319 C 0.05004 0.50385 0.56714 0.0
H2320 H 0.01042 0.55833 0.61717 0.0
H2321 H 0.97525 0.54159 0.55838 0.0
H2322 H 0.06101 0.54236 0.60196 0.0
H2323 H 0.06169 0.56978 0.5916 0.0
H2324 H 0.04848 0.56416 0.61751 0.0
H2325 H 0.99276 0.53658 0.52445 0.0
H2326 H 0.01927 0.54924 0.521 0.0
H2327 H 0.01751 0.52105 0.52888 0.0
H2328 H 0.08853 0.56909 0.52097 0.0
H2329 H 0.08666 0.50201 0.54288 0.0
H2330 H 0.04955 0.58975 0.55891 0.0
H2331 H 0.03613 0.58336 0.53363 0.0
H2332 H 0.06313 0.59539 0.53319 0.0
H2333 H 0.04776 0.50835 0.58464 0.0
H2334 H 0.0598 0.48848 0.56632 0.0
H2335 H 0.03354 0.50055 0.5602 0.0
C2336 C 0.7125 0.231 0.66989 0.0
C2337 C 0.71219 0.23239 0.64698 0.0
C2338 C 0.71352 0.21063 0.68038 0.0
C2339 C 0.71368 0.19121 0.66759 0.0
C2340 C 0.71295 0.1925 0.64442 0.0
C2341 C 0.7125 0.21319 0.63434 0.0
C2342 C 0.71479 0.20992 0.70516 0.0
C2343 C 0.71277 0.17211 0.63037 0.0
C2344 C 0.73766 0.14515 0.70066 0.0
C2345 C 0.71884 0.13745 0.71146 0.0
C2346 C 0.73612 0.16142 0.68454 0.0
C2347 C 0.71524 0.16976 0.67885 0.0
C2348 C 0.69609 0.15994 0.68751 0.0
C2349 C 0.69812 0.14394 0.7039 0.0
C2350 C 0.75697 0.17147 0.67572 0.0
C2351 C 0.67352 0.16797 0.6813 0.0
H2352 H 0.71246 0.24589 0.67962 0.0
H2353 H 0.71216 0.21433 0.61659 0.0
H2354 H 0.70074 0.20051 0.71186 0.0
H2355 H 0.73001 0.20139 0.71037 0.0
H2356 H 0.71468 0.22655 0.71261 0.0
H2357 H 0.71109 0.17597 0.61262 0.0
H2358 H 0.72816 0.16274 0.63285 0.0
H2359 H 0.69904 0.16126 0.63532 0.0
H2360 H 0.75377 0.14008 0.70621 0.0
H2361 H 0.68348 0.13773 0.71186 0.0
H2362 H 0.76014 0.18717 0.68438 0.0
H2363 H 0.7555 0.17516 0.65796 0.0
H2364 H 0.77134 0.16056 0.67828 0.0
H2365 H 0.67002 0.18349 0.69016 0.0
H2366 H 0.66063 0.15587 0.68571 0.0
H2367 H 0.67251 0.17143 0.66346 0.0
C2368 C 0.07308 0.4289 0.96113 0.0
C2369 C 0.07931 0.45019 0.96719 0.0
C2370 C 0.05455 0.42537 0.94787 0.0
C2371 C 0.04192 0.44354 0.94077 0.0
C2372 C 0.04783 0.465 0.94732 0.0
C2373 C 0.06647 0.46805 0.96035 0.0
C2374 C 0.04863 0.40227 0.94121 0.0
C2375 C 0.03458 0.48481 0.94041 0.0
C2376 C 0.00679 0.44272 0.88954 0.0
C2377 C 0.98567 0.4417 0.89852 0.0
C2378 C 0.02538 0.44209 0.90308 0.0
C2379 C 0.02272 0.44045 0.92611 0.0
C2380 C 0.00146 0.43824 0.93516 0.0
C2381 C 0.98317 0.43885 0.92122 0.0
C2382 C 0.0478 0.4444 0.89282 0.0
C2383 C -0.00205 0.43652 0.95964 0.0
H2384 H 0.08288 0.41504 0.96644 0.0
H2385 H 0.07092 0.48454 0.9653 0.0
H2386 H 0.03155 0.39853 0.94621 0.0
H2387 H 0.04941 0.4007 0.92308 0.0
H2388 H 0.05974 0.38988 0.94862 0.0
H2389 H 0.04113 0.50032 0.94738 0.0
H2390 H 0.03451 0.4862 0.92225 0.0
H2391 H 0.01729 0.48296 0.94576 0.0
H2392 H 0.00881 0.44477 0.87198 0.0
H2393 H 0.96687 0.43797 0.92825 0.0
H2394 H 0.05907 0.43164 0.89925 0.0
H2395 H 0.05483 0.4606 0.89723 0.0
H2396 H 0.04723 0.44311 0.87464 0.0
H2397 H 0.00903 0.42402 0.96684 0.0
H2398 H 0.98075 0.43221 0.96382 0.0
H2399 H 0.00193 0.45246 0.96747 0.0
C2400 C 0.81393 0.82822 0.20377 0.0
C2401 C 0.79179 0.83347 0.20715 0.0
C2402 C 0.81989 0.80982 0.19117 0.0
C2403 C 0.80331 0.79628 0.18219 0.0
C2404 C 0.78097 0.8016 0.1855 0.0
C2405 C 0.77552 0.82017 0.19776 0.0
C2406 C 0.84386 0.8047 0.18772 0.0
C2407 C 0.76274 0.78738 0.17649 0.0
C2408 C 0.80853 0.75735 0.13444 0.0
C2409 C 0.80781 0.73707 0.14522 0.0
C2410 C 0.80924 0.77698 0.14638 0.0
C2411 C 0.80882 0.77621 0.16959 0.0
C2412 C 0.80977 0.75573 0.18051 0.0
C2413 C 0.8094 0.73634 0.16815 0.0
C2414 C 0.8086 0.7985 0.13414 0.0
C2415 C 0.80917 0.75421 0.20525 0.0
H2416 H 0.82656 0.8384 0.21103 0.0
H2417 H 0.75836 0.82388 0.20052 0.0
H2418 H 0.84794 0.7888 0.19558 0.0
H2419 H 0.8474 0.80297 0.16993 0.0
H2420 H 0.85471 0.81757 0.19465 0.0
H2421 H 0.7462 0.79384 0.1806 0.0
H2422 H 0.76411 0.78617 0.15838 0.0
H2423 H 0.76413 0.77052 0.1832 0.0
H2424 H 0.80762 0.75793 0.11668 0.0
H2425 H 0.80895 0.72067 0.17653 0.0
H2426 H 0.81996 0.81054 0.14168 0.0
H2427 H 0.79181 0.80546 0.13507 0.0
H2428 H 0.81299 0.79645 0.11655 0.0
H2429 H 0.82059 0.7662 0.21275 0.0
H2430 H 0.81347 0.73751 0.21117 0.0
H2431 H 0.79241 0.75822 0.21112 0.0
C2432 C 0.42017 0.5483 0.47209 0.0
C2433 C 0.41127 0.52806 0.47843 0.0
C2434 C 0.43728 0.54937 0.45674 0.0
C2435 C 0.4457 0.52976 0.44762 0.0
C2436 C 0.43689 0.50927 0.45399 0.0
C2437 C 0.41976 0.50868 0.4693 0.0
C2438 C 0.44647 0.57149 0.45043 0.0
C2439 C 0.44567 0.48798 0.4448 0.0
C2440 C 0.47804 0.53275 0.39445 0.0
C2441 C 0.49961 0.53207 0.40227 0.0
C2442 C 0.46025 0.53213 0.40906 0.0
C2443 C 0.46425 0.53062 0.43191 0.0
C2444 C 0.48601 0.52984 0.43985 0.0
C2445 C 0.50343 0.53068 0.42493 0.0
C2446 C 0.4372 0.53296 0.40007 0.0
C2447 C 0.49092 0.5279 0.46409 0.0
H2448 H 0.41376 0.56334 0.47906 0.0
H2449 H 0.41314 0.49293 0.47423 0.0
H2450 H 0.46411 0.57231 0.45483 0.0
H2451 H 0.44528 0.57382 0.43241 0.0
H2452 H 0.43779 0.58522 0.45869 0.0
H2453 H 0.43682 0.47344 0.45131 0.0
H2454 H 0.44428 0.488 0.42664 0.0
H2455 H 0.46332 0.48625 0.44884 0.0
H2456 H 0.47506 0.53373 0.37693 0.0
H2457 H 0.5201 0.52992 0.43107 0.0
H2458 H 0.42827 0.54713 0.40719 0.0
H2459 H 0.42816 0.51792 0.40489 0.0
H2460 H 0.43689 0.53439 0.38189 0.0
H2461 H 0.48341 0.54182 0.47311 0.0
H2462 H 0.5088 0.52769 0.46756 0.0
H2463 H 0.4836 0.51262 0.47071 0.0
C2464 C 0.77249 0.69963 0.83675 0.0
C2465 C 0.76414 0.72045 0.84182 0.0
C2466 C 0.78811 0.69695 0.8201 0.0
C2467 C 0.79528 0.7155 0.80813 0.0
C2468 C 0.78736 0.73663 0.81356 0.0
C2469 C 0.77193 0.73886 0.83042 0.0
C2470 C 0.79638 0.6742 0.81482 0.0
C2471 C 0.7944 0.75676 0.80091 0.0
C2472 C 0.84611 0.7126 0.77243 0.0
C2473 C 0.83683 0.70946 0.75163 0.0
C2474 C 0.8328 0.71413 0.79115 0.0
C2475 C 0.80977 0.71265 0.78885 0.0
C2476 C 0.80037 0.70911 0.76792 0.0
C2477 C 0.81404 0.70745 0.74957 0.0
C2478 C 0.84332 0.71783 0.81328 0.0
C2479 C 0.77583 0.70763 0.76484 0.0
H2480 H 0.76661 0.68538 0.84561 0.0
H2481 H 0.76539 0.75498 0.83412 0.0
H2482 H 0.79065 0.66931 0.79824 0.0
H2483 H 0.81456 0.674 0.81453 0.0
H2484 H 0.79059 0.6618 0.82686 0.0
H2485 H 0.78872 0.77217 0.80882 0.0
H2486 H 0.81251 0.75735 0.79936 0.0
H2487 H 0.78752 0.75609 0.78406 0.0
H2488 H 0.86374 0.71414 0.77406 0.0
H2489 H 0.80679 0.70509 0.73349 0.0
H2490 H 0.83773 0.70515 0.82509 0.0
H2491 H 0.83818 0.73399 0.81989 0.0
H2492 H 0.86151 0.71741 0.81242 0.0
H2493 H 0.76898 0.69447 0.77538 0.0
H2494 H 0.7712 0.70423 0.74753 0.0
H2495 H 0.76802 0.72326 0.76994 0.0
C2496 C 0.54636 0.55802 0.06834 0.0
C2497 C 0.56062 0.54169 0.07607 0.0
C2498 C 0.55121 0.56994 0.04937 0.0
C2499 C 0.57103 0.56574 0.03806 0.0
C2500 C 0.58654 0.55096 0.04698 0.0
C2501 C 0.58108 0.53892 0.06586 0.0
C2502 C 0.53419 0.58564 0.04044 0.0
C2503 C 0.6082 0.54672 0.03577 0.0
C2504 C 0.56147 0.57258 0.97751 0.0
C2505 C 0.5664 0.59481 0.97486 0.0
C2506 C 0.56464 0.56226 -0.00222 0.0
C2507 C 0.57357 0.5744 0.01548 0.0
C2508 C 0.58086 0.59616 0.01207 0.0
C2509 C 0.57673 0.60631 0.99184 0.0
C2510 C 0.55628 0.53914 0.0008 0.0
C2511 C 0.59135 0.6093 0.03024 0.0
H2512 H 0.53071 0.56064 0.07635 0.0
H2513 H 0.59236 0.52657 0.07188 0.0
H2514 H 0.54168 0.60182 0.03693 0.0
H2515 H 0.52754 0.57917 0.02476 0.0
H2516 H 0.52031 0.5881 0.052 0.0
H2517 H 0.62025 0.53912 0.04715 0.0
H2518 H 0.60565 0.53535 0.02179 0.0
H2519 H 0.61523 0.56213 0.02913 0.0
H2520 H 0.55342 0.56373 0.96434 0.0
H2521 H 0.5808 0.62348 0.98959 0.0
H2522 H 0.54144 0.53942 0.01136 0.0
H2523 H 0.56874 0.52886 0.00915 0.0
H2524 H 0.5519 0.53128 0.98495 0.0
H2525 H 0.57838 0.61629 0.04092 0.0
H2526 H 0.60123 0.62309 0.02358 0.0
H2527 H 0.60204 0.59881 0.04059 0.0
C2528 C 0.67367 0.30559 0.24581 0.0
C2529 C 0.6511 0.30415 0.24989 0.0
C2530 C 0.68883 0.30429 0.263 0.0
C2531 C 0.68114 0.30178 0.28475 0.0
C2532 C 0.65834 0.30145 0.28908 0.0
C2533 C 0.64354 0.30251 0.27152 0.0
C2534 C 0.71304 0.30447 0.25775 0.0
C2535 C 0.64962 0.29903 0.31215 0.0
C2536 C 0.71827 0.27262 0.32498 0.0
C2537 C 0.72722 0.29024 0.33675 0.0
C2538 C 0.70326 0.2762 0.30798 0.0
C2539 C 0.69696 0.29791 0.30275 0.0
C2540 C 0.70592 0.31579 0.3145 0.0
C2541 C 0.72105 0.31174 0.33134 0.0
C2542 C 0.69428 0.25674 0.29552 0.0
C2543 C 0.69953 0.33914 0.30928 0.0
H2544 H 0.67959 0.30679 0.22907 0.0
H2545 H 0.62608 0.30148 0.27469 0.0
H2546 H 0.72169 0.31663 0.26814 0.0
H2547 H 0.72019 0.28814 0.26143 0.0
H2548 H 0.71628 0.30837 0.24023 0.0
H2549 H 0.63153 0.30106 0.31291 0.0
H2550 H 0.65387 0.28254 0.31858 0.0
H2551 H 0.65734 0.31129 0.32316 0.0
H2552 H 0.72316 0.25597 0.32888 0.0
H2553 H 0.7279 0.32543 0.34039 0.0
H2554 H 0.69882 0.25801 0.27792 0.0
H2555 H 0.67611 0.25659 0.29641 0.0
H2556 H 0.70055 0.24089 0.30198 0.0
H2557 H 0.70374 0.34301 0.29199 0.0
H2558 H 0.70784 0.35118 0.32014 0.0
H2559 H 0.68153 0.34119 0.31101 0.0
C2560 C 0.94196 0.46598 0.59829 0.0
C2561 C 0.96254 0.47557 0.60189 0.0
C2562 C 0.93939 0.44899 0.58305 0.0
C2563 C 0.9578 0.44161 0.57102 0.0
C2564 C 0.97888 0.45015 0.57569 0.0
C2565 C 0.98102 0.467 0.59119 0.0
C2566 C 0.9167 0.44011 0.57866 0.0
C2567 C -0.00109 0.44272 0.56311 0.0
C2568 C 0.95368 0.39141 0.53443 0.0
C2569 C 0.95041 0.40116 0.51383 0.0
C2570 C 0.95584 0.40432 0.55338 0.0
C2571 C 0.95459 0.42742 0.55156 0.0
C2572 C 0.9506 0.43726 0.5309 0.0
C2573 C 0.94853 0.424 0.5123 0.0
C2574 C 0.96005 0.39333 0.57518 0.0
C2575 C 0.94909 0.46188 0.52833 0.0
H2576 H 0.92767 0.47238 0.60672 0.0
H2577 H -0.00303 0.47437 0.59387 0.0
H2578 H 0.91079 0.44631 0.56258 0.0
H2579 H 0.91697 0.42195 0.57774 0.0
H2580 H 0.90479 0.44516 0.59151 0.0
H2581 H 0.01436 0.44881 0.57062 0.0
H2582 H -0.00041 0.42456 0.56225 0.0
H2583 H -0.00198 0.44894 0.54601 0.0
H2584 H 0.95512 0.37374 0.53568 0.0
H2585 H 0.94595 0.43161 0.49642 0.0
H2586 H 0.94797 0.39901 0.58755 0.0
H2587 H 0.97655 0.39795 0.58126 0.0
H2588 H 0.95916 0.37517 0.57402 0.0
H2589 H 0.93613 0.46852 0.53926 0.0
H2590 H 0.94535 0.46686 0.51119 0.0
H2591 H 0.96482 0.46957 0.53327 0.0
C2592 C 0.82342 0.3042 0.75373 0.0
C2593 C 0.84619 0.3062 0.75119 0.0
C2594 C 0.80968 0.30188 0.73548 0.0
C2595 C 0.81891 0.30193 0.71417 0.0
C2596 C 0.84169 0.30546 0.71144 0.0
C2597 C 0.85512 0.30742 0.73004 0.0
C2598 C 0.7855 0.29787 0.7391 0.0
C2599 C 0.85205 0.30586 0.68894 0.0
C2600 C 0.78906 0.26783 0.67178 0.0
C2601 C 0.77694 0.28378 0.66045 0.0
C2602 C 0.80299 0.27361 0.6891 0.0
C2603 C 0.80507 0.29594 0.69507 0.0
C2604 C 0.79324 0.3122 0.68347 0.0
C2605 C 0.77915 0.3059 0.66637 0.0
C2606 C 0.81499 0.25571 0.7014 0.0
C2607 C 0.79523 0.33617 0.68934 0.0
H2608 H 0.81639 0.30324 0.77004 0.0
H2609 H 0.87271 0.30907 0.72803 0.0
H2610 H 0.77554 0.30865 0.72834 0.0
H2611 H 0.78151 0.28065 0.73476 0.0
H2612 H 0.78057 0.30072 0.75643 0.0
H2613 H 0.86933 0.31158 0.68947 0.0
H2614 H 0.85175 0.28911 0.68183 0.0
H2615 H 0.84262 0.31669 0.67776 0.0
H2616 H 0.78727 0.25067 0.66746 0.0
H2617 H 0.7699 0.31831 0.65761 0.0
H2618 H 0.80907 0.25505 0.71861 0.0
H2619 H 0.83282 0.25927 0.70195 0.0
H2620 H 0.81258 0.23931 0.69383 0.0
H2621 H 0.78901 0.33891 0.70623 0.0
H2622 H 0.78593 0.34688 0.67789 0.0
H2623 H 0.81271 0.34121 0.68916 0.0
C2624 C 0.98036 0.52336 0.91578 0.0
C2625 C 0.96168 0.51697 0.90397 0.0
C2626 C 0.97873 0.53793 0.93348 0.0
C2627 C 0.95794 0.54641 0.93938 0.0
C2628 C 0.93913 0.54056 0.92714 0.0
C2629 C 0.9412 0.52582 0.90961 0.0
C2630 C -0.00086 0.54364 0.94634 0.0
C2631 C 0.91672 0.54935 0.93297 0.0
C2632 C 0.95156 0.56406 -0.00142 0.0
C2633 C 0.95455 0.5868 -0.003 0.0
C2634 C 0.95218 0.55077 0.97985 0.0
C2635 C 0.95578 0.5605 0.95907 0.0
C2636 C 0.9581 0.58352 0.95728 0.0
C2637 C 0.95746 0.59643 0.97632 0.0
C2638 C 0.94963 0.52625 0.98237 0.0
C2639 C 0.96192 0.59441 0.93535 0.0
H2640 H 0.99621 0.51644 0.91165 0.0
H2641 H 0.92671 0.52101 0.90051 0.0
H2642 H 0.00092 0.56169 0.94768 0.0
H2643 H -0.00222 0.53707 0.96327 0.0
H2644 H 0.01423 0.53683 0.93872 0.0
H2645 H 0.90398 0.54429 0.92096 0.0
H2646 H 0.91187 0.54335 0.94946 0.0
H2647 H 0.91709 0.56753 0.93374 0.0
H2648 H 0.9493 0.55654 0.01454 0.0
H2649 H 0.95974 0.61401 0.97503 0.0
H2650 H 0.96495 0.51791 0.97717 0.0
H2651 H 0.93627 0.5202 0.97161 0.0
H2652 H 0.94595 0.5214 -0.00044 0.0
H2653 H 0.97785 0.58892 0.92848 0.0
H2654 H 0.96208 0.61259 0.93661 0.0
H2655 H 0.94898 0.5895 0.92353 0.0
C2656 C 0.67373 0.68967 0.24605 0.0
C2657 C 0.65136 0.69317 0.24201 0.0
C2658 C 0.68924 0.69193 0.22928 0.0
C2659 C 0.68218 0.69763 0.20793 0.0
C2660 C 0.65955 0.70041 0.20353 0.0
C2661 C 0.64436 0.69815 0.22069 0.0
C2662 C 0.71326 0.68893 0.23461 0.0
C2663 C 0.65148 0.70636 0.18088 0.0
C2664 C 0.72388 0.72516 0.17098 0.0
C2665 C 0.73124 0.70743 0.15828 0.0
C2666 C 0.70775 0.72225 0.18712 0.0
C2667 C 0.69862 0.70115 0.19038 0.0
C2668 C 0.7058 0.68325 0.17747 0.0
C2669 C 0.72216 0.68658 0.16167 0.0
C2670 C 0.70073 0.74165 0.20089 0.0
C2671 C 0.69633 0.66057 0.18047 0.0
H2672 H 0.67926 0.68582 0.26251 0.0
H2673 H 0.62708 0.70085 0.21751 0.0
H2674 H 0.72062 0.67646 0.22359 0.0
H2675 H 0.72216 0.70455 0.23179 0.0
H2676 H 0.71595 0.68377 0.25189 0.0
H2677 H 0.63329 0.70677 0.17992 0.0
H2678 H 0.65789 0.72273 0.17619 0.0
H2679 H 0.65771 0.69441 0.16864 0.0
H2680 H 0.73096 0.74128 0.16854 0.0
H2681 H 0.72767 0.67285 0.1518 0.0
H2682 H 0.70424 0.7384 0.21846 0.0
H2683 H 0.68279 0.74422 0.19937 0.0
H2684 H 0.70924 0.75702 0.19605 0.0
H2685 H 0.69982 0.65459 0.19732 0.0
H2686 H 0.70312 0.64859 0.16853 0.0
H2687 H 0.67824 0.66107 0.17857 0.0
C2688 C 0.5467 0.45614 0.40707 0.0
C2689 C 0.52628 0.46232 0.39848 0.0
C2690 C 0.54807 0.44231 0.42545 0.0
C2691 C 0.52856 0.43476 0.43553 0.0
C2692 C 0.50797 0.44008 0.42633 0.0
C2693 C 0.50709 0.45366 0.40784 0.0
C2694 C 0.57032 0.43669 0.43473 0.0
C2695 C 0.48677 0.43253 0.43674 0.0
C2696 C 0.5291 0.38877 0.47741 0.0
C2697 C 0.52858 0.40057 0.49715 0.0
C2698 C 0.52972 0.39967 0.45715 0.0
C2699 C 0.52947 0.42286 0.45673 0.0
C2700 C 0.52897 0.43485 0.47663 0.0
C2701 C 0.52869 0.42353 0.49664 0.0
C2702 C 0.53034 0.3864 0.43623 0.0
C2703 C 0.52826 0.45962 0.47679 0.0
H2704 H 0.5616 0.46267 0.39991 0.0
H2705 H 0.49118 0.4583 0.40141 0.0
H2706 H 0.57251 0.44507 0.45075 0.0
H2707 H 0.57161 0.41879 0.43775 0.0
H2708 H 0.58385 0.44176 0.42363 0.0
H2709 H 0.47224 0.43654 0.42649 0.0
H2710 H 0.48712 0.41457 0.43958 0.0
H2711 H 0.48474 0.44056 0.45296 0.0
H2712 H 0.5291 0.37099 0.4778 0.0
H2713 H 0.52816 0.43268 0.51189 0.0
H2714 H 0.54438 0.39162 0.4259 0.0
H2715 H 0.51519 0.38938 0.4266 0.0
H2716 H 0.53177 0.36852 0.43944 0.0
H2717 H 0.54244 0.46634 0.46759 0.0
H2718 H 0.52848 0.46646 0.49369 0.0
H2719 H 0.51317 0.46543 0.46841 0.0
C2720 C 0.74045 0.8292 0.6998 0.0
C2721 C 0.74324 0.85176 0.70318 0.0
C2722 C 0.75841 0.81488 0.70038 0.0
C2723 C 0.77962 0.82342 0.70426 0.0
C2724 C 0.78269 0.84631 0.7065 0.0
C2725 C 0.7644 0.86024 0.70601 0.0
C2726 C 0.7545 0.79053 0.69804 0.0
C2727 C 0.80512 0.85599 0.71048 0.0
C2728 C 0.81989 0.78593 0.73291 0.0
C2729 C 0.83259 0.77827 0.7153 0.0
C2730 C 0.80266 0.8007 0.72949 0.0
C2731 C 0.79823 0.80823 0.70797 0.0
C2732 C 0.81117 0.80086 0.69015 0.0
C2733 C 0.82813 0.78577 0.69401 0.0
C2734 C 0.78895 0.80791 0.74889 0.0
C2735 C 0.80695 0.80872 0.66704 0.0
H2736 H 0.72411 0.82257 0.69756 0.0
H2737 H 0.76662 0.8777 0.70849 0.0
H2738 H 0.76578 0.78344 0.68564 0.0
H2739 H 0.75796 0.78227 0.7139 0.0
H2740 H 0.73736 0.78674 0.69317 0.0
H2741 H 0.80503 0.87418 0.7095 0.0
H2742 H 0.811 0.85113 0.72701 0.0
H2743 H 0.81705 0.84953 0.69834 0.0
H2744 H 0.82304 0.77994 0.74937 0.0
H2745 H 0.83793 0.7799 0.68037 0.0
H2746 H 0.77159 0.80308 0.74634 0.0
H2747 H 0.78933 0.82603 0.75041 0.0
H2748 H 0.79471 0.80063 0.76459 0.0
H2749 H 0.79028 0.80372 0.66176 0.0
H2750 H 0.81905 0.80207 0.65514 0.0
H2751 H 0.80755 0.8269 0.66643 0.0
C2752 C 0.25652 0.66121 0.26229 0.0
C2753 C 0.24307 0.65308 0.27894 0.0
C2754 C 0.2743 0.67487 0.26736 0.0
C2755 C 0.27907 0.67968 0.28965 0.0
C2756 C 0.26579 0.6709 0.30653 0.0
C2757 C 0.24762 0.65801 0.3009 0.0
C2758 C 0.2877 0.68451 0.24886 0.0
C2759 C 0.27073 0.67517 0.33043 0.0
C2760 C 0.3374 0.69913 0.29597 0.0
C2761 C 0.33449 0.72188 0.29571 0.0
C2762 C 0.31928 0.68502 0.2961 0.0
C2763 C 0.29792 0.69403 0.29507 0.0
C2764 C 0.29494 0.71704 0.29643 0.0
C2765 C 0.31338 0.73073 0.29704 0.0
C2766 C 0.32308 0.66057 0.29537 0.0
C2767 C 0.27247 0.72733 0.29486 0.0
H2768 H 0.25271 0.6575 0.24532 0.0
H2769 H 0.23705 0.65158 0.31369 0.0
H2770 H 0.28786 0.70267 0.25011 0.0
H2771 H 0.30494 0.67883 0.2501 0.0
H2772 H 0.28123 0.6799 0.23245 0.0
H2773 H 0.25931 0.66633 0.34155 0.0
H2774 H 0.28776 0.67 0.33426 0.0
H2775 H 0.26959 0.69298 0.33392 0.0
H2776 H 0.35382 0.69242 0.29463 0.0
H2777 H 0.31125 0.74838 0.29629 0.0
H2778 H 0.32005 0.65447 0.27848 0.0
H2779 H 0.31155 0.65195 0.3065 0.0
H2780 H 0.34014 0.6562 0.30007 0.0
H2781 H 0.2664 0.72585 0.27775 0.0
H2782 H 0.27273 0.745 0.29933 0.0
H2783 H 0.26062 0.71874 0.30565 0.0
C2784 C 0.53222 0.07501 0.52727 0.0
C2785 C 0.5253 0.08688 0.54573 0.0
C2786 C 0.54767 0.05813 0.5292 0.0
C2787 C 0.55659 0.0532 0.55007 0.0
C2788 C 0.55022 0.06556 0.56867 0.0
C2789 C 0.53449 0.08217 0.56631 0.0
C2790 C 0.55385 0.04509 0.50903 0.0
C2791 C 0.55959 0.06084 0.59112 0.0
C2792 C 0.57564 0.99461 0.55658 0.0
C2793 C 0.59814 -0.00352 0.5523 0.0
C2794 C 0.56206 0.0131 0.55666 0.0
C2795 C 0.57127 0.03399 0.55257 0.0
C2796 C 0.59416 0.03615 0.54936 0.0
C2797 C 0.60737 0.0173 0.54921 0.0
C2798 C 0.5377 0.01012 0.56003 0.0
C2799 C 0.60453 0.05823 0.54517 0.0
H2800 H 0.52509 0.07847 0.51133 0.0
H2801 H 0.52932 0.09141 0.5806 0.0
H2802 H 0.5719 0.04503 0.50684 0.0
H2803 H 0.5486 0.02778 0.51104 0.0
H2804 H 0.54618 0.05172 0.49388 0.0
H2805 H 0.55438 0.07316 0.60351 0.0
H2806 H 0.55417 0.04439 0.5967 0.0
H2807 H 0.57777 0.06058 0.59042 0.0
H2808 H 0.56842 0.97856 0.55907 0.0
H2809 H 0.62478 0.01881 0.54599 0.0
H2810 H 0.52883 0.01464 0.54477 0.0
H2811 H 0.53174 0.02113 0.57324 0.0
H2812 H 0.53336 0.99297 0.56437 0.0
H2813 H 0.5992 0.06448 0.52892 0.0
H2814 H 0.62272 0.05741 0.54537 0.0
H2815 H 0.59906 0.07028 0.55768 0.0
C2816 C 0.23252 0.31877 0.77842 0.0
C2817 C 0.2302 0.34155 0.7766 0.0
C2818 C 0.21428 0.30493 0.77714 0.0
C2819 C 0.1932 0.31414 0.77408 0.0
C2820 C 0.19071 0.33713 0.77217 0.0
C2821 C 0.20931 0.35062 0.77341 0.0
C2822 C 0.2176 0.28043 0.77904 0.0
C2823 C 0.16845 0.34743 0.76881 0.0
C2824 C 0.15203 0.27311 0.75277 0.0
C2825 C 0.14271 0.26547 0.77241 0.0
C2826 C 0.16762 0.28996 0.75289 0.0
C2827 C 0.17389 0.29946 0.77312 0.0
C2828 C 0.16346 0.29288 0.7928 0.0
C2829 C 0.14803 0.27588 0.79222 0.0
C2830 C 0.17846 0.29646 0.73156 0.0
C2831 C 0.16964 0.30279 0.81466 0.0
H2832 H 0.24866 0.31168 0.78074 0.0
H2833 H 0.2075 0.36824 0.77192 0.0
H2834 H 0.20814 0.27398 0.7932 0.0
H2835 H 0.21136 0.27214 0.76408 0.0
H2836 H 0.23511 0.27594 0.78125 0.0
H2837 H 0.16933 0.36559 0.76761 0.0
H2838 H 0.16086 0.34094 0.75359 0.0
H2839 H 0.15745 0.34303 0.78264 0.0
H2840 H 0.14808 0.26511 0.73737 0.0
H2841 H 0.14075 0.2702 0.80743 0.0
H2842 H 0.19535 0.28968 0.73107 0.0
H2843 H 0.17979 0.31455 0.73022 0.0
H2844 H 0.16938 0.29017 0.71706 0.0
H2845 H 0.18638 0.29732 0.81926 0.0
H2846 H 0.15814 0.29789 0.82794 0.0
H2847 H 0.16993 0.32094 0.81359 0.0
C2848 C 0.41794 0.50071 0.55606 0.0
C2849 C 0.39524 0.50073 0.55258 0.0
C2850 C 0.42981 0.48107 0.55618 0.0
C2851 C 0.41861 0.46099 0.55309 0.0
C2852 C 0.39548 0.46079 0.55126 0.0
C2853 C 0.38404 0.48074 0.55085 0.0
C2854 C 0.4545 0.48198 0.55794 0.0
C2855 C 0.38296 0.43963 0.5484 0.0
C2856 C 0.45167 0.41808 0.52309 0.0
C2857 C 0.45997 0.40549 0.54047 0.0
C2858 C 0.43766 0.43581 0.527 0.0
C2859 C 0.43141 0.44078 0.54881 0.0
C2860 C 0.43887 0.42752 0.56637 0.0
C2861 C 0.45335 0.41015 0.56201 0.0
C2862 C 0.43039 0.44984 0.50784 0.0
C2863 C 0.4321 0.43211 0.58975 0.0
H2864 H 0.42667 0.51613 0.55752 0.0
H2865 H 0.36644 0.48071 0.54839 0.0
H2866 H 0.46046 0.47016 0.57042 0.0
H2867 H 0.46189 0.47726 0.54197 0.0
H2868 H 0.46048 0.49862 0.56237 0.0
H2869 H 0.36506 0.44193 0.55092 0.0
H2870 H 0.3856 0.43327 0.53154 0.0
H2871 H 0.38897 0.42699 0.56003 0.0
H2872 H 0.45689 0.41468 0.50642 0.0
H2873 H 0.45964 0.40034 0.57546 0.0
H2874 H 0.43692 0.46672 0.50975 0.0
H2875 H 0.41225 0.45107 0.50746 0.0
H2876 H 0.43609 0.44325 0.49182 0.0
H2877 H 0.43975 0.44761 0.5954 0.0
H2878 H 0.4371 0.41874 0.6011 0.0
H2879 H 0.41407 0.43427 0.59082 0.0
C2880 C 0.6654 0.22588 0.20013 0.0
C2881 C 0.65971 0.23348 0.2211 0.0
C2882 C 0.68283 0.21108 0.1973 0.0
C2883 C 0.69488 0.20395 0.21584 0.0
C2884 C 0.68924 0.21159 0.23701 0.0
C2885 C 0.67175 0.22624 0.23937 0.0
C2886 C 0.68843 0.20315 0.1745 0.0
C2887 C 0.70188 0.20459 0.25719 0.0
C2888 C 0.72863 0.15178 0.21535 0.0
C2889 C 0.74991 0.16015 0.2132 0.0
C2890 C 0.71042 0.16582 0.21534 0.0
C2891 C 0.71366 0.18872 0.21329 0.0
C2892 C 0.73507 0.19719 0.21055 0.0
C2893 C 0.75296 0.18276 0.21046 0.0
C2894 C 0.68779 0.15624 0.21834 0.0
C2895 C 0.73917 0.22153 0.20851 0.0
H2896 H 0.6562 0.23141 0.18595 0.0
H2897 H 0.66769 0.23223 0.25563 0.0
H2898 H 0.70546 0.20793 0.17029 0.0
H2899 H 0.68764 0.18498 0.17389 0.0
H2900 H 0.67718 0.20992 0.16185 0.0
H2901 H 0.69414 0.21047 0.27261 0.0
H2902 H 0.70317 0.18646 0.25794 0.0
H2903 H 0.71881 0.2112 0.25637 0.0
H2904 H 0.72622 0.13429 0.2174 0.0
H2905 H 0.7694 0.1893 0.20879 0.0
H2906 H 0.67659 0.16235 0.20536 0.0
H2907 H 0.68097 0.16158 0.23436 0.0
H2908 H 0.6879 0.13803 0.21788 0.0
H2909 H 0.72881 0.22861 0.19532 0.0
H2910 H 0.75661 0.22532 0.20489 0.0
H2911 H 0.73457 0.22983 0.22406 0.0
C2912 C 0.56838 0.98989 0.93255 0.0
C2913 C 0.59107 0.98689 0.93458 0.0
C2914 C 0.55395 0.9722 0.93486 0.0
C2915 C 0.56248 0.95103 0.93906 0.0
C2916 C 0.58544 0.94765 0.93954 0.0
C2917 C 0.5995 0.9657 0.93739 0.0
C2918 C 0.52955 0.97646 0.93439 0.0
C2919 C 0.59512 0.92524 0.9437 0.0
C2920 C 0.52769 0.91388 0.9744 0.0
C2921 C 0.51792 0.90019 0.95872 0.0
C2922 C 0.54226 0.93044 0.96815 0.0
C2923 C 0.54747 0.93313 0.94567 0.0
C2924 C 0.53792 0.91918 0.92975 0.0
C2925 C 0.52303 0.90296 0.93646 0.0
C2926 C 0.5518 0.94528 0.9856 0.0
C2927 C 0.54336 0.9215 0.90568 0.0
H2928 H 0.56179 0.00625 0.93029 0.0
H2929 H 0.61706 0.96331 0.93877 0.0
H2930 H 0.52114 0.96436 0.92373 0.0
H2931 H 0.52277 0.97458 0.95119 0.0
H2932 H 0.52561 0.99322 0.92843 0.0
H2933 H 0.61304 0.92483 0.94046 0.0
H2934 H 0.59231 0.92056 0.96107 0.0
H2935 H 0.587 0.91273 0.93327 0.0
H2936 H 0.52356 0.91198 0.99162 0.0
H2937 H 0.51555 0.89233 0.92432 0.0
H2938 H 0.54709 0.96255 0.9823 0.0
H2939 H 0.56997 0.94447 0.98523 0.0
H2940 H 0.54615 0.94087 0.00236 0.0
H2941 H 0.5382 0.9379 0.89972 0.0
H2942 H 0.5352 0.90878 0.89549 0.0
H2943 H 0.56134 0.92029 0.90322 0.0
C2944 C 0.96791 0.07978 0.50049 0.0
C2945 C 0.97278 0.09379 0.48294 0.0
C2946 C 0.95162 0.06373 0.49839 0.0
C2947 C 0.93988 0.06206 0.4784 0.0
C2948 C 0.94376 0.07718 0.46123 0.0
C2949 C 0.96036 0.09277 0.46365 0.0
C2950 C 0.94807 0.04766 0.51692 0.0
C2951 C 0.93137 0.07602 0.4398 0.0
C2952 C 0.92174 0.00594 0.46 0.0
C2953 C 0.89931 0.00642 0.46489 0.0
C2954 C 0.93513 0.02391 0.46465 0.0
C2955 C 0.92578 0.04286 0.47422 0.0
C2956 C 0.90311 0.04357 0.47903 0.0
C2957 C 0.89008 0.02524 0.47432 0.0
C2958 C 0.95932 0.02256 0.45938 0.0
C2959 C 0.89271 0.06363 0.48918 0.0
H2960 H 0.9776 0.08057 0.51539 0.0
H2961 H 0.96397 0.10386 0.45021 0.0
H2962 H 0.93032 0.04518 0.52001 0.0
H2963 H 0.9551 0.0315 0.51233 0.0
H2964 H 0.956 0.05316 0.53239 0.0
H2965 H 0.93436 0.09063 0.42932 0.0
H2966 H 0.93654 0.0612 0.43058 0.0
H2967 H 0.91349 0.0746 0.44284 0.0
H2968 H 0.92897 0.99136 0.45284 0.0
H2969 H 0.87273 0.02557 0.47818 0.0
H2970 H 0.96913 0.02539 0.47445 0.0
H2971 H 0.96379 0.03555 0.44744 0.0
H2972 H 0.96402 0.00641 0.45235 0.0
H2973 H 0.90063 0.0673 0.50515 0.0
H2974 H 0.87482 0.06152 0.49189 0.0
H2975 H 0.89531 0.07808 0.47842 0.0
C2976 C 0.07342 0.14197 0.39717 0.0
C2977 C 0.06364 0.12327 0.40593 0.0
C2978 C 0.09324 0.14041 0.38579 0.0
C2979 C 0.10371 0.11967 0.38405 0.0
C2980 C 0.09206 0.10045 0.38973 0.0
C2981 C 0.07194 0.10248 0.40075 0.0
C2982 C 0.10451 0.16135 0.37884 0.0
C2983 C 0.10198 0.07797 0.387 0.0
C2984 C 0.15946 0.13267 0.36274 0.0
C2985 C 0.1686 0.14054 0.3823 0.0
C2986 C 0.13902 0.12208 0.36299 0.0
C2987 C 0.12799 0.11951 0.38324 0.0
C2988 C 0.13931 0.12372 0.40316 0.0
C2989 C 0.15941 0.13466 0.40241 0.0
C2990 C 0.12815 0.11656 0.34148 0.0
C2991 C 0.12875 0.11997 0.42527 0.0
H2992 H 0.06672 0.15798 0.40112 0.0
H2993 H 0.06417 0.08799 0.40753 0.0
H2994 H 0.11777 0.16533 0.39068 0.0
H2995 H 0.11205 0.15943 0.3624 0.0
H2996 H 0.09295 0.17543 0.3783 0.0
H2997 H 0.08905 0.06571 0.38323 0.0
H2998 H 0.11452 0.07764 0.37381 0.0
H2999 H 0.10991 0.07295 0.40261 0.0
H3000 H 0.16682 0.13711 0.34715 0.0
H3001 H 0.16684 0.14053 0.41749 0.0
H3002 H 0.12007 0.13145 0.33482 0.0
H3003 H 0.11554 0.10359 0.34343 0.0
H3004 H 0.14051 0.11107 0.32926 0.0
H3005 H 0.11597 0.13262 0.42813 0.0
H3006 H 0.14087 0.12094 0.43885 0.0
H3007 H 0.12072 0.10367 0.42585 0.0
C3008 C 0.10565 0.91006 0.59815 0.0
C3009 C 0.10607 0.92253 0.61744 0.0
C3010 C 0.11275 0.88819 0.59829 0.0
C3011 C 0.12008 0.87897 0.61826 0.0
C3012 C 0.12455 0.89287 0.63638 0.0
C3013 C 0.11714 0.91461 0.63585 0.0
C3014 C 0.10888 0.87421 0.57825 0.0
C3015 C 0.13353 0.8839 0.65763 0.0
C3016 C 0.09264 0.82936 0.64203 0.0
C3017 C 0.11021 0.81478 0.64353 0.0
C3018 C 0.09509 0.84958 0.63154 0.0
C3019 C 0.11585 0.85545 0.62278 0.0
C3020 C 0.13292 0.83974 0.62209 0.0
C3021 C 0.12984 0.81939 0.63247 0.0
C3022 C 0.07605 0.86548 0.63193 0.0
C3023 C 0.15506 0.84496 0.61241 0.0
H3024 H 0.09708 0.91635 0.58386 0.0
H3025 H 0.11745 0.92439 0.65073 0.0
H3026 H 0.12103 0.86071 0.57717 0.0
H3027 H 0.0923 0.8668 0.57925 0.0
H3028 H 0.10968 0.8842 0.56302 0.0
H3029 H 0.14003 0.89717 0.6683 0.0
H3030 H 0.12024 0.87534 0.66666 0.0
H3031 H 0.1468 0.87187 0.65444 0.0
H3032 H 0.07742 0.82558 0.65043 0.0
H3033 H 0.14348 0.80803 0.63367 0.0
H3034 H 0.07335 0.87259 0.6154 0.0
H3035 H 0.07973 0.87916 0.64337 0.0
H3036 H 0.06058 0.85754 0.63736 0.0
H3037 H 0.15404 0.85771 0.59946 0.0
H3038 H 0.16273 0.82999 0.60538 0.0
H3039 H 0.16601 0.85109 0.6256 0.0
C3040 C 0.41012 0.8559 0.89644 0.0
C3041 C 0.40914 0.85433 0.91938 0.0
C3042 C 0.39161 0.85103 0.88356 0.0
C3043 C 0.37196 0.84437 0.89401 0.0
C3044 C 0.37058 0.84434 0.9172 0.0
C3045 C 0.38918 0.84931 0.92955 0.0
C3046 C 0.39358 0.85176 0.85889 0.0
C3047 C 0.34989 0.83755 0.92909 0.0
C3048 C 0.31521 0.83454 0.87188 0.0
C3049 C 0.31483 0.81157 0.8722 0.0
C3050 C 0.33471 0.84594 0.87641 0.0
C3051 C 0.35394 0.83395 0.8815 0.0
C3052 C 0.35407 0.81085 0.87936 0.0
C3053 C 0.33448 0.79995 0.87476 0.0
C3054 C 0.33425 0.87063 0.87764 0.0
C3055 C 0.37432 0.79742 0.88426 0.0
H3056 H 0.42548 0.86009 0.88854 0.0
H3057 H 0.38819 0.84859 0.94731 0.0
H3058 H 0.39804 0.83523 0.85273 0.0
H3059 H 0.37787 0.85661 0.85108 0.0
H3060 H 0.4066 0.86337 0.85364 0.0
H3061 H 0.3511 0.83999 0.94712 0.0
H3062 H 0.33565 0.84705 0.92296 0.0
H3063 H 0.34653 0.81994 0.92592 0.0
H3064 H 0.30011 0.84359 0.8694 0.0
H3065 H 0.33439 0.78217 0.87433 0.0
H3066 H 0.34979 0.87774 0.87138 0.0
H3067 H 0.33238 0.87577 0.89501 0.0
H3068 H 0.32032 0.87754 0.86813 0.0
H3069 H 0.38884 0.80446 0.87588 0.0
H3070 H 0.37247 0.78006 0.87905 0.0
H3071 H 0.37759 0.79771 0.90218 0.0
C3072 C 0.40288 0.16338 0.1574 0.0
C3073 C 0.38346 0.17544 0.15769 0.0
C3074 C 0.40447 0.14405 0.14522 0.0
C3075 C 0.38593 0.13648 0.13337 0.0
C3076 C 0.36691 0.14974 0.13198 0.0
C3077 C 0.3659 0.16925 0.14425 0.0
C3078 C 0.4254 0.13082 0.14672 0.0
C3079 C 0.34698 0.14259 0.1192 0.0
C3080 C 0.40688 0.08811 0.10286 0.0
C3081 C 0.40539 0.07235 0.11949 0.0
C3082 C 0.39701 0.1087 0.10538 0.0
C3083 C 0.38614 0.11354 0.12527 0.0
C3084 C 0.38169 0.09644 0.14043 0.0
C3085 C 0.39156 0.07588 0.13739 0.0
C3086 C 0.40112 0.12614 0.08831 0.0
C3087 C 0.36943 0.10075 0.1615 0.0
H3088 H 0.41636 0.16832 0.16791 0.0
H3089 H 0.35076 0.17857 0.14478 0.0
H3090 H 0.42225 0.11534 0.15577 0.0
H3091 H 0.43131 0.12641 0.13008 0.0
H3092 H 0.43868 0.13985 0.15532 0.0
H3093 H 0.33748 0.15699 0.11335 0.0
H3094 H 0.35144 0.13225 0.1049 0.0
H3095 H 0.33614 0.13283 0.13008 0.0
H3096 H 0.41756 0.08516 0.08892 0.0
H3097 H 0.3905 0.06357 0.1502 0.0
H3098 H 0.41589 0.13569 0.09294 0.0
H3099 H 0.38709 0.13769 0.08722 0.0
H3100 H 0.40405 0.11876 0.0719 0.0
H3101 H 0.3804 0.10938 0.1732 0.0
H3102 H 0.3638 0.08527 0.16931 0.0
H3103 H 0.35501 0.11142 0.15848 0.0
C3104 C 0.16977 0.86162 0.09085 0.0
C3105 C 0.17949 0.85421 0.11022 0.0
C3106 C 0.14894 0.87123 0.09134 0.0
C3107 C 0.13758 0.87247 0.11161 0.0
C3108 C 0.14913 0.86899 0.13142 0.0
C3109 C 0.17027 0.85991 0.13049 0.0
C3110 C 0.13772 0.87624 0.06983 0.0
C3111 C 0.13806 0.87132 0.15341 0.0
C3112 C 0.07822 0.88478 0.10005 0.0
C3113 C 0.07134 0.86382 0.09363 0.0
C3114 C 0.09933 0.88797 0.10871 0.0
C3115 C 0.11342 0.86968 0.11105 0.0
C3116 C 0.1051 0.84819 0.10763 0.0
C3117 C 0.08423 0.84559 0.09853 0.0
C3118 C 0.10713 0.91106 0.11283 0.0
C3119 C 0.11916 0.82802 0.11086 0.0
H3120 H 0.17716 0.85743 0.0752 0.0
H3121 H 0.17799 0.85431 0.14553 0.0
H3122 H 0.12673 0.86242 0.06539 0.0
H3123 H 0.12758 0.89127 0.07122 0.0
H3124 H 0.14975 0.8785 0.05633 0.0
H3125 H 0.15019 0.87527 0.16643 0.0
H3126 H 0.12524 0.88423 0.15306 0.0
H3127 H 0.1301 0.85555 0.1578 0.0
H3128 H 0.06814 0.8989 0.09613 0.0
H3129 H 0.0787 0.82942 0.09357 0.0
H3130 H 0.11252 0.91844 0.09707 0.0
H3131 H 0.12109 0.9116 0.1245 0.0
H3132 H 0.09356 0.92133 0.11934 0.0
H3133 H 0.13165 0.82713 0.09764 0.0
H3134 H 0.10931 0.8127 0.1104 0.0
H3135 H 0.12789 0.82876 0.1268 0.0
C3136 C 0.42547 0.9175 0.36644 0.0
C3137 C 0.41428 0.93708 0.36211 0.0
C3138 C 0.41608 0.8972 0.36164 0.0
C3139 C 0.39504 0.89647 0.35194 0.0
C3140 C 0.38282 0.91613 0.34935 0.0
C3141 C 0.39262 0.93638 0.3546 0.0
C3142 C 0.42962 0.8767 0.36499 0.0
C3143 C 0.36019 0.91594 0.3394 0.0
C3144 C 0.39265 0.85169 0.30936 0.0
C3145 C 0.38249 0.83457 0.32085 0.0
C3146 C 0.39564 0.87228 0.31897 0.0
C3147 C 0.38825 0.87596 0.34069 0.0
C3148 C 0.37722 0.85904 0.35216 0.0
C3149 C 0.37457 0.83841 0.34213 0.0
C3150 C 0.40763 0.88981 0.30615 0.0
C3151 C 0.36886 0.86248 0.37522 0.0
H3152 H 0.44209 0.9181 0.37276 0.0
H3153 H 0.38394 0.95158 0.35148 0.0
H3154 H 0.41966 0.86357 0.37265 0.0
H3155 H 0.43536 0.87055 0.34882 0.0
H3156 H 0.44421 0.87977 0.37547 0.0
H3157 H 0.35116 0.93137 0.34294 0.0
H3158 H 0.36158 0.91416 0.32132 0.0
H3159 H 0.3505 0.90185 0.3456 0.0
H3160 H 0.39864 0.84894 0.29283 0.0
H3161 H 0.3664 0.82532 0.35095 0.0
H3162 H 0.42353 0.89347 0.31422 0.0
H3163 H 0.39794 0.9052 0.30591 0.0
H3164 H 0.41094 0.88479 0.28893 0.0
H3165 H 0.38288 0.86266 0.38681 0.0
H3166 H 0.35738 0.84929 0.38033 0.0
H3167 H 0.36041 0.87854 0.37665 0.0
C3168 C 0.41898 0.10901 0.61626 0.0
C3169 C 0.43175 0.12802 0.61481 0.0
C3170 C 0.39692 0.11032 0.62266 0.0
C3171 C 0.38795 0.13108 0.62779 0.0
C3172 C 0.40207 0.14932 0.63053 0.0
C3173 C 0.42387 0.14768 0.62352 0.0
C3174 C 0.38262 0.0903 0.62036 0.0
C3175 C 0.39338 0.17149 0.63727 0.0
C3176 C 0.3381 0.15251 0.5986 0.0
C3177 C 0.32324 0.15461 0.61588 0.0
C3178 C 0.35853 0.14267 0.60191 0.0
C3179 C 0.36444 0.13547 0.62327 0.0
C3180 C 0.34872 0.13585 0.64035 0.0
C3181 C 0.32809 0.14531 0.63636 0.0
C3182 C 0.37447 0.14183 0.58292 0.0
C3183 C 0.35415 0.12826 0.66328 0.0
H3184 H 0.4252 0.09378 0.60946 0.0
H3185 H 0.43388 0.16234 0.62241 0.0
H3186 H 0.36898 0.0905 0.63242 0.0
H3187 H 0.37537 0.09003 0.60365 0.0
H3188 H 0.39229 0.07501 0.62257 0.0
H3189 H 0.40674 0.18242 0.64309 0.0
H3190 H 0.38536 0.1794 0.62295 0.0
H3191 H 0.38096 0.16982 0.65047 0.0
H3192 H 0.33417 0.15963 0.58276 0.0
H3193 H 0.31655 0.14712 0.64979 0.0
H3194 H 0.38213 0.12537 0.58173 0.0
H3195 H 0.38777 0.15397 0.58558 0.0
H3196 H 0.36642 0.1456 0.567 0.0
H3197 H 0.3668 0.11519 0.66333 0.0
H3198 H 0.33926 0.12211 0.6718 0.0
H3199 H 0.36055 0.14236 0.67284 0.0
C3200 C 0.10779 0.16383 0.86149 0.0
C3201 C 0.12605 0.16941 0.84887 0.0
C3202 C 0.10627 0.14293 0.87095 0.0
C3203 C 0.12324 0.1275 0.86709 0.0
C3204 C 0.14336 0.1347 0.85814 0.0
C3205 C 0.14447 0.1557 0.84886 0.0
C3206 C 0.08496 0.13623 0.88157 0.0
C3207 C 0.16232 0.11915 0.85495 0.0
C3208 C 0.10611 0.06959 0.88182 0.0
C3209 C 0.09439 0.06408 0.86282 0.0
C3210 C 0.11747 0.08962 0.88312 0.0
C3211 C 0.11703 0.10406 0.86492 0.0
C3212 C 0.10729 0.09717 0.84491 0.0
C3213 C 0.09588 0.07734 0.84424 0.0
C3214 C 0.1281 0.09592 0.90455 0.0
C3215 C 0.10705 0.11161 0.82472 0.0
H3216 H 0.09359 0.17456 0.8615 0.0
H3217 H 0.15868 0.1602 0.83913 0.0
H3218 H 0.07482 0.12718 0.86945 0.0
H3219 H 0.08799 0.1252 0.89572 0.0
H3220 H 0.07548 0.15071 0.88729 0.0
H3221 H 0.17812 0.12818 0.85415 0.0
H3222 H 0.16312 0.1069 0.86839 0.0
H3223 H 0.16016 0.11019 0.83924 0.0
H3224 H 0.1048 0.05927 0.89626 0.0
H3225 H 0.08684 0.07286 0.82956 0.0
H3226 H 0.11557 0.10333 0.91548 0.0
H3227 H 0.1415 0.10799 0.90224 0.0
H3228 H 0.13476 0.08122 0.91301 0.0
H3229 H 0.09675 0.1263 0.8278 0.0
H3230 H 0.1004 0.10296 0.81011 0.0
H3231 H 0.12385 0.11732 0.82078 0.0
C3232 C 0.14621 0.39667 0.16619 0.0
C3233 C 0.15283 0.37663 0.17505 0.0
C3234 C 0.1386 0.3979 0.14453 0.0
C3235 C 0.13848 0.37873 0.13134 0.0
C3236 C 0.1433 0.35814 0.14094 0.0
C3237 C 0.15036 0.35734 0.16286 0.0
C3238 C 0.13289 0.4201 0.13514 0.0
C3239 C 0.14338 0.33734 0.12753 0.0
C3240 C 0.11687 0.38892 0.07395 0.0
C3241 C 0.13585 0.39696 0.06383 0.0
C3242 C 0.11754 0.38117 0.09567 0.0
C3243 C 0.13776 0.38119 0.1071 0.0
C3244 C 0.1573 0.387 0.09592 0.0
C3245 C 0.15603 0.3952 0.07451 0.0
C3246 C 0.09636 0.37516 0.10694 0.0
C3247 C 0.17933 0.38656 0.10724 0.0
H3248 H 0.14835 0.41155 0.17571 0.0
H3249 H 0.15585 0.34189 0.16979 0.0
H3250 H 0.14648 0.42583 0.12446 0.0
H3251 H 0.11789 0.41907 0.12489 0.0
H3252 H 0.13023 0.43252 0.14822 0.0
H3253 H 0.14234 0.32256 0.13814 0.0
H3254 H 0.1296 0.3371 0.11566 0.0
H3255 H 0.15887 0.33643 0.11801 0.0
H3256 H 0.1012 0.39062 0.06569 0.0
H3257 H 0.17066 0.4015 0.06658 0.0
H3258 H 0.09053 0.38941 0.11666 0.0
H3259 H 0.09868 0.36124 0.11843 0.0
H3260 H 0.0834 0.37081 0.09489 0.0
H3261 H 0.1802 0.40014 0.11935 0.0
H3262 H 0.19309 0.38849 0.09545 0.0
H3263 H 0.18158 0.37095 0.11631 0.0
C3264 C 0.66311 0.14995 0.83916 0.0
C3265 C 0.65774 0.13939 0.81947 0.0
C3266 C 0.65246 0.14428 0.85869 0.0
C3267 C 0.63659 0.12744 0.8582 0.0
C3268 C 0.628 0.1204 0.83776 0.0
C3269 C 0.63887 0.12643 0.81837 0.0
C3270 C 0.66104 0.1533 0.88007 0.0
C3271 C 0.61 0.10352 0.83661 0.0
C3272 C 0.6495 0.07948 0.8951 0.0
C3273 C 0.63344 0.08128 0.91133 0.0
C3274 C 0.65084 0.09477 0.87812 0.0
C3275 C 0.63543 0.1122 0.87713 0.0
C3276 C 0.61941 0.11443 0.8938 0.0
C3277 C 0.61879 0.09902 0.91097 0.0
C3278 C 0.66859 0.09185 0.86098 0.0
C3279 C 0.60287 0.13285 0.89361 0.0
H3280 H 0.67736 0.16058 0.83978 0.0
H3281 H 0.63442 0.11864 0.803 0.0
H3282 H 0.64758 0.15528 0.89214 0.0
H3283 H 0.67317 0.14165 0.88705 0.0
H3284 H 0.66928 0.16937 0.87766 0.0
H3285 H 0.6015 0.10402 0.82048 0.0
H3286 H 0.61721 0.08693 0.83873 0.0
H3287 H 0.59781 0.10611 0.84989 0.0
H3288 H 0.66093 0.06586 0.89552 0.0
H3289 H 0.60632 0.10036 0.92358 0.0
H3290 H 0.67882 0.10685 0.85993 0.0
H3291 H 0.66108 0.08908 0.84463 0.0
H3292 H 0.67954 0.07775 0.86464 0.0
H3293 H 0.60999 0.14731 0.90204 0.0
H3294 H 0.58769 0.12818 0.90254 0.0
H3295 H 0.59842 0.13782 0.87666 0.0
C3296 C 0.8176 0.87532 0.33581 0.0
C3297 C 0.82899 0.87774 0.316 0.0
C3298 C 0.82777 0.87949 0.35588 0.0
C3299 C 0.84986 0.88651 0.3561 0.0
C3300 C 0.86216 0.88657 0.33635 0.0
C3301 C 0.85151 0.88214 0.31634 0.0
C3302 C 0.81411 0.87875 0.37657 0.0
C3303 C 0.88597 0.89319 0.3361 0.0
C3304 C 0.85507 0.93206 0.39717 0.0
C3305 C 0.8629 0.92101 0.41575 0.0
C3306 C 0.85244 0.92126 0.37717 0.0
C3307 C 0.85769 0.89871 0.37563 0.0
C3308 C 0.86689 0.88769 0.39393 0.0
C3309 C 0.86935 0.89901 0.41391 0.0
C3310 C 0.84273 0.93377 0.35804 0.0
C3311 C 0.8731 0.86377 0.39282 0.0
H3312 H 0.80031 0.87117 0.33558 0.0
H3313 H 0.86042 0.88356 0.301 0.0
H3314 H 0.82318 0.87046 0.38998 0.0
H3315 H 0.81048 0.89574 0.38203 0.0
H3316 H 0.7983 0.87007 0.37401 0.0
H3317 H 0.89443 0.88712 0.32113 0.0
H3318 H 0.88716 0.91135 0.33633 0.0
H3319 H 0.89464 0.88687 0.35082 0.0
H3320 H 0.85052 0.94922 0.39831 0.0
H3321 H 0.87579 0.89051 0.42815 0.0
H3322 H 0.82618 0.92724 0.35422 0.0
H3323 H 0.85302 0.93167 0.34318 0.0
H3324 H 0.84118 0.9516 0.36148 0.0
H3325 H 0.85841 0.8536 0.39622 0.0
H3326 H 0.88576 0.85963 0.40527 0.0
H3327 H 0.87933 0.85927 0.37631 0.0
C3328 C 0.83587 0.13485 0.1629 0.0
C3329 C 0.83916 0.11955 0.1797 0.0
C3330 C 0.8436 0.13078 0.14164 0.0
C3331 C 0.85454 0.1108 0.13728 0.0
C3332 C 0.86047 0.09681 0.15493 0.0
C3333 C 0.85246 0.10128 0.17606 0.0
C3334 C 0.83737 0.14636 0.12345 0.0
C3335 C 0.87275 0.07569 0.15103 0.0
C3336 C 0.83697 0.0779 0.0879 0.0
C3337 C 0.85521 0.0797 0.07415 0.0
C3338 C 0.83619 0.08897 0.10796 0.0
C3339 C 0.85436 0.10185 0.11463 0.0
C3340 C 0.87234 0.10477 0.10022 0.0
C3341 C 0.87249 0.0937 0.07996 0.0
C3342 C 0.81635 0.08588 0.12252 0.0
C3343 C 0.89202 0.11827 0.10671 0.0
H3344 H 0.82545 0.14896 0.16588 0.0
H3345 H 0.8548 0.08943 0.18914 0.0
H3346 H 0.85061 0.14761 0.11103 0.0
H3347 H 0.82247 0.14012 0.11505 0.0
H3348 H 0.83371 0.16302 0.12989 0.0
H3349 H 0.87983 0.06908 0.16647 0.0
H3350 H 0.86133 0.06327 0.1442 0.0
H3351 H 0.88613 0.07815 0.13894 0.0
H3352 H 0.82361 0.0671 0.08329 0.0
H3353 H 0.88675 0.09485 0.06939 0.0
H3354 H 0.80975 0.10202 0.12772 0.0
H3355 H 0.82112 0.07679 0.13757 0.0
H3356 H 0.80305 0.07662 0.1142 0.0
H3357 H 0.88712 0.13314 0.11599 0.0
H3358 H 0.90175 0.12333 0.09214 0.0
H3359 H 0.90276 0.10832 0.11753 0.0
C3360 C 0.3492 0.60306 0.58302 0.0
C3361 C 0.36756 0.59946 0.56985 0.0
C3362 C 0.35115 0.61364 0.60326 0.0
C3363 C 0.37217 0.62047 0.61061 0.0
C3364 C 0.39033 0.61917 0.59618 0.0
C3365 C 0.38778 0.60863 0.57579 0.0
C3366 C 0.33101 0.61531 0.61765 0.0
C3367 C 0.41282 0.62696 0.60283 0.0
C3368 C 0.35845 0.64586 0.66387 0.0
C3369 C 0.35593 0.62652 0.67602 0.0
C3370 C 0.36822 0.64532 0.64302 0.0
C3371 C 0.37505 0.6249 0.63443 0.0
C3372 C 0.37688 0.60661 0.64869 0.0
C3373 C 0.36704 0.6076 0.66946 0.0
C3374 C 0.36758 0.6656 0.62891 0.0
C3375 C 0.38541 0.58483 0.64063 0.0
H3376 H 0.33356 0.59608 0.57821 0.0
H3377 H 0.40205 0.6058 0.56554 0.0
H3378 H 0.33267 0.60402 0.63185 0.0
H3379 H 0.32917 0.63219 0.62413 0.0
H3380 H 0.31576 0.61096 0.60868 0.0
H3381 H 0.4217 0.63377 0.58844 0.0
H3382 H 0.41216 0.6396 0.61591 0.0
H3383 H 0.42247 0.61281 0.609 0.0
H3384 H 0.35 0.66062 0.66913 0.0
H3385 H 0.36521 0.59269 0.67901 0.0
H3386 H 0.35187 0.66607 0.61973 0.0
H3387 H 0.38119 0.66564 0.61682 0.0
H3388 H 0.36858 0.68066 0.63913 0.0
H3389 H 0.37262 0.57671 0.63053 0.0
H3390 H 0.38966 0.57376 0.65448 0.0
H3391 H 0.40013 0.58714 0.63021 0.0
C3392 C 0.13976 0.61248 0.31965 0.0
C3393 C 0.16144 0.60565 0.31619 0.0
C3394 C 0.12934 0.60866 0.33993 0.0
C3395 C 0.14102 0.5979 0.35691 0.0
C3396 C 0.16297 0.59124 0.35344 0.0
C3397 C 0.1728 0.5951 0.33316 0.0
C3398 C 0.10593 0.61599 0.34317 0.0
C3399 C 0.1761 0.5796 0.37103 0.0
C3400 C 0.13145 0.59468 0.41772 0.0
C3401 C 0.1262 0.57243 0.41946 0.0
C3402 C 0.1337 0.60445 0.39693 0.0
C3403 C 0.13036 0.59158 0.37783 0.0
C3404 C 0.12224 0.56995 0.3798 0.0
C3405 C 0.12054 0.56055 0.40064 0.0
C3406 C 0.1421 0.62766 0.39548 0.0
C3407 C 0.11804 0.55575 0.35993 0.0
H3408 H 0.13101 0.62084 0.30662 0.0
H3409 H 0.1896 0.58983 0.33069 0.0
H3410 H 0.09545 0.60171 0.34733 0.0
H3411 H 0.10496 0.62758 0.35717 0.0
H3412 H 0.09914 0.62412 0.32834 0.0
H3413 H 0.19331 0.57647 0.36594 0.0
H3414 H 0.17636 0.58951 0.3863 0.0
H3415 H 0.16835 0.56362 0.37497 0.0
H3416 H 0.13548 0.60391 0.43239 0.0
H3417 H 0.11584 0.54346 0.40212 0.0
H3418 H 0.13466 0.63646 0.38139 0.0
H3419 H 0.16012 0.62733 0.39292 0.0
H3420 H 0.13869 0.63697 0.41078 0.0
H3421 H 0.11006 0.56526 0.34664 0.0
H3422 H 0.10755 0.54142 0.36401 0.0
H3423 H 0.13391 0.54953 0.35353 0.0
C3424 C 0.3473 0.42972 0.90076 0.0
C3425 C 0.36018 0.41911 0.91655 0.0
C3426 C 0.34246 0.4197 0.88074 0.0
C3427 C 0.35088 0.39853 0.87623 0.0
C3428 C 0.36465 0.38801 0.89171 0.0
C3429 C 0.36898 0.39837 0.91188 0.0
C3430 C 0.32753 0.43148 0.86479 0.0
C3431 C 0.3742 0.3656 0.88736 0.0
C3432 C 0.31078 0.37202 0.83832 0.0
C3433 C 0.31924 0.37824 0.8179 0.0
C3434 C 0.32244 0.37601 0.85763 0.0
C3435 C 0.34286 0.38692 0.85641 0.0
C3436 C 0.35256 0.39102 0.83565 0.0
C3437 C 0.34057 0.38652 0.81645 0.0
C3438 C 0.3117 0.37087 0.87937 0.0
C3439 C 0.37454 0.40217 0.83375 0.0
H3440 H 0.3405 0.44579 0.90423 0.0
H3441 H 0.37918 0.39023 0.92397 0.0
H3442 H 0.33542 0.43265 0.84843 0.0
H3443 H 0.31208 0.42209 0.86277 0.0
H3444 H 0.3233 0.44831 0.87037 0.0
H3445 H 0.38851 0.36219 0.89811 0.0
H3446 H 0.36156 0.35293 0.8906 0.0
H3447 H 0.37935 0.36393 0.86996 0.0
H3448 H 0.29442 0.36509 0.83929 0.0
H3449 H 0.34715 0.39109 0.80056 0.0
H3450 H 0.30534 0.38626 0.88675 0.0
H3451 H 0.32371 0.36373 0.891 0.0
H3452 H 0.29779 0.35925 0.87749 0.0
H3453 H 0.37245 0.42005 0.83645 0.0
H3454 H 0.38191 0.3997 0.81726 0.0
H3455 H 0.38606 0.39597 0.84641 0.0
C3456 C 0.57318 0.60407 0.87358 0.0
C3457 C 0.56015 0.62286 0.87591 0.0
C3458 C 0.59485 0.60592 0.86604 0.0
C3459 C 0.60299 0.62692 0.86052 0.0
C3460 C 0.58806 0.6445 0.85767 0.0
C3461 C 0.56668 0.64234 0.86578 0.0
C3462 C 0.6099 0.58641 0.86798 0.0
C3463 C 0.5957 0.66679 0.85017 0.0
C3464 C 0.65047 0.65116 0.89132 0.0
C3465 C 0.66551 0.65469 0.87446 0.0
C3466 C 0.63095 0.63984 0.88739 0.0
C3467 C 0.62611 0.6325 0.86578 0.0
C3468 C 0.64226 0.63419 0.84918 0.0
C3469 C 0.66197 0.64523 0.85379 0.0
C3470 C 0.61465 0.63776 0.90597 0.0
C3471 C 0.63817 0.6263 0.82608 0.0
H3472 H 0.56794 0.58885 0.88117 0.0
H3473 H 0.5564 0.65679 0.86728 0.0
H3474 H 0.62336 0.58721 0.85575 0.0
H3475 H 0.61734 0.58624 0.88461 0.0
H3476 H 0.60072 0.57084 0.86576 0.0
H3477 H 0.58178 0.67699 0.84432 0.0
H3478 H 0.60363 0.67542 0.86411 0.0
H3479 H 0.60793 0.66525 0.83678 0.0
H3480 H 0.65339 0.65845 0.90731 0.0
H3481 H 0.67367 0.64811 0.84069 0.0
H3482 H 0.60795 0.62088 0.90679 0.0
H3483 H 0.60078 0.64921 0.90317 0.0
H3484 H 0.62209 0.64174 0.92214 0.0
H3485 H 0.62569 0.61308 0.82543 0.0
H3486 H 0.65361 0.62023 0.81855 0.0
H3487 H 0.63225 0.64024 0.81597 0.0
C3488 C 0.62265 0.32999 0.14286 0.0
C3489 C 0.60557 0.32593 0.15769 0.0
C3490 C 0.62319 0.3496 0.13073 0.0
C3491 C 0.60619 0.36516 0.13361 0.0
C3492 C 0.58783 0.35992 0.14688 0.0
C3493 C 0.58784 0.3404 0.15885 0.0
C3494 C 0.64277 0.35434 0.11638 0.0
C3495 C 0.56898 0.37574 0.14994 0.0
C3496 C 0.61048 0.42634 0.13603 0.0
C3497 C 0.59719 0.43191 0.11825 0.0
C3498 C 0.6163 0.40438 0.13967 0.0
C3499 C 0.60827 0.38792 0.12529 0.0
C3500 C 0.59729 0.394 0.10579 0.0
C3501 C 0.59167 0.41603 0.10261 0.0
C3502 C 0.62855 0.39857 0.16038 0.0
C3503 C 0.58895 0.37708 0.08977 0.0
H3504 H 0.63643 0.31876 0.14206 0.0
H3505 H 0.57455 0.33706 0.17021 0.0
H3506 H 0.63808 0.36396 0.10166 0.0
H3507 H 0.65483 0.36415 0.12584 0.0
H3508 H 0.65096 0.33896 0.11103 0.0
H3509 H 0.55524 0.36836 0.15936 0.0
H3510 H 0.57476 0.3905 0.1589 0.0
H3511 H 0.56261 0.38123 0.1338 0.0
H3512 H 0.61455 0.43874 0.14812 0.0
H3513 H 0.58129 0.42054 0.08886 0.0
H3514 H 0.64096 0.38567 0.15709 0.0
H3515 H 0.61683 0.39199 0.17267 0.0
H3516 H 0.63689 0.41306 0.16761 0.0
H3517 H 0.60062 0.36321 0.08817 0.0
H3518 H 0.58609 0.38436 0.07329 0.0
H3519 H 0.57315 0.37039 0.09582 0.0
C3520 C 0.83061 0.36039 0.37111 0.0
C3521 C 0.8207 0.35138 0.38979 0.0
C3522 C 0.85149 0.37 0.37254 0.0
C3523 C 0.86225 0.37056 0.39312 0.0
C3524 C 0.85073 0.36435 0.41238 0.0
C3525 C 0.83016 0.35449 0.41039 0.0
C3526 C 0.86282 0.3771 0.35173 0.0
C3527 C 0.86119 0.36545 0.43484 0.0
C3528 C 0.91899 0.35223 0.40567 0.0
C3529 C 0.92726 0.3712 0.41538 0.0
C3530 C 0.89878 0.35262 0.39483 0.0
C3531 C 0.88645 0.37235 0.3945 0.0
C3532 C 0.89627 0.39215 0.40151 0.0
C3533 C 0.91673 0.39133 0.41203 0.0
C3534 C 0.88931 0.33124 0.38668 0.0
C3535 C 0.88408 0.41365 0.40067 0.0
H3536 H 0.82316 0.35789 0.35514 0.0
H3537 H 0.82226 0.34758 0.42478 0.0
H3538 H 0.87514 0.39011 0.35487 0.0
H3539 H 0.8714 0.36281 0.34441 0.0
H3540 H 0.85075 0.38318 0.3395 0.0
H3541 H 0.84906 0.36283 0.44818 0.0
H3542 H 0.87403 0.35261 0.4362 0.0
H3543 H 0.86917 0.38159 0.4374 0.0
H3544 H 0.92729 0.33671 0.40837 0.0
H3545 H 0.92326 0.406 0.41969 0.0
H3546 H 0.88094 0.3336 0.37069 0.0
H3547 H 0.87697 0.32518 0.39862 0.0
H3548 H 0.90214 0.31845 0.38472 0.0
H3549 H 0.87282 0.41437 0.38638 0.0
H3550 H 0.89564 0.4277 0.39984 0.0
H3551 H 0.87412 0.41549 0.41581 0.0
C3552 C 0.89161 0.66163 0.65946 0.0
C3553 C 0.87425 0.67649 0.65849 0.0
C3554 C 0.89141 0.64251 0.6469 0.0
C3555 C 0.87309 0.63796 0.63326 0.0
C3556 C 0.85598 0.65354 0.6313 0.0
C3557 C 0.85683 0.67282 0.64396 0.0
C3558 C 0.91047 0.62676 0.64912 0.0
C3559 C 0.8362 0.64947 0.61702 0.0
C3560 C 0.89468 0.59267 0.59989 0.0
C3561 C 0.8921 0.57579 0.61524 0.0
C3562 C 0.88446 0.61296 0.60313 0.0
C3563 C 0.87203 0.61621 0.62242 0.0
C3564 C 0.86581 0.59786 0.63527 0.0
C3565 C 0.8762 0.57765 0.63163 0.0
C3566 C 0.89039 0.63182 0.58826 0.0
C3567 C 0.85141 0.60046 0.65521 0.0
H3568 H 0.90513 0.66468 0.67063 0.0
H3569 H 0.84328 0.68433 0.64343 0.0
H3570 H 0.90476 0.61108 0.65637 0.0
H3571 H 0.91755 0.62309 0.63275 0.0
H3572 H 0.92375 0.63337 0.6597 0.0
H3573 H 0.8291 0.66517 0.61106 0.0
H3574 H 0.84013 0.63897 0.60268 0.0
H3575 H 0.82345 0.64102 0.62689 0.0
H3576 H 0.90683 0.59096 0.58699 0.0
H3577 H 0.87409 0.56442 0.64335 0.0
H3578 H 0.90489 0.64046 0.59509 0.0
H3579 H 0.87674 0.64379 0.58708 0.0
H3580 H 0.89464 0.62594 0.57153 0.0
H3581 H 0.86145 0.60661 0.66911 0.0
H3582 H 0.84398 0.58457 0.66015 0.0
H3583 H 0.83815 0.61252 0.65206 0.0
C3584 C 0.56832 0.36077 0.60925 0.0
C3585 C 0.56855 0.37139 0.58892 0.0
C3586 C 0.58815 0.35504 0.61952 0.0
C3587 C 0.60827 0.36008 0.60898 0.0
C3588 C 0.6083 0.37368 0.59017 0.0
C3589 C 0.58836 0.37896 0.58021 0.0
C3590 C 0.58753 0.34129 0.64007 0.0
C3591 C 0.62934 0.38002 0.57877 0.0
C3592 C 0.66464 0.34168 0.62844 0.0
C3593 C 0.66714 0.32218 0.61647 0.0
C3594 C 0.64508 0.35387 0.62719 0.0
C3595 C 0.62796 0.34648 0.61335 0.0
C3596 C 0.63035 0.32657 0.6016 0.0
C3597 C 0.64984 0.31469 0.60338 0.0
C3598 C 0.6431 0.37482 0.64021 0.0
C3599 C 0.61257 0.31804 0.58653 0.0
H3600 H 0.55288 0.3551 0.61601 0.0
H3601 H 0.58835 0.38754 0.5646 0.0
H3602 H 0.58927 0.32373 0.63559 0.0
H3603 H 0.60129 0.34558 0.6512 0.0
H3604 H 0.57179 0.34336 0.64901 0.0
H3605 H 0.62678 0.39367 0.56695 0.0
H3606 H 0.64197 0.38501 0.59085 0.0
H3607 H 0.63578 0.36566 0.56959 0.0
H3608 H 0.67791 0.34742 0.6388 0.0
H3609 H 0.65161 0.29958 0.59417 0.0
H3610 H 0.62602 0.37759 0.64587 0.0
H3611 H 0.64784 0.38888 0.62967 0.0
H3612 H 0.65414 0.37471 0.65471 0.0
H3613 H 0.59696 0.31618 0.59569 0.0
H3614 H 0.61683 0.30193 0.57914 0.0
H3615 H 0.60966 0.32991 0.57303 0.0
C3616 C 0.8583 0.32595 0.85438 0.0
C3617 C 0.87946 0.31856 0.84931 0.0
C3618 C 0.8552 0.34679 0.86369 0.0
C3619 C 0.87373 0.36007 0.86786 0.0
C3620 C 0.895 0.35069 0.86677 0.0
C3621 C 0.89763 0.33007 0.85707 0.0
C3622 C 0.83222 0.35561 0.86591 0.0
C3623 C 0.91528 0.36378 0.87232 0.0
C3624 C 0.88413 0.41476 0.84338 0.0
C3625 C 0.88939 0.42659 0.86225 0.0
C3626 C 0.87513 0.39374 0.845 0.0
C3627 C 0.87207 0.38431 0.86609 0.0
C3628 C 0.87393 0.39766 0.88499 0.0
C3629 C 0.88263 0.41888 0.88283 0.0
C3630 C 0.87226 0.38053 0.82422 0.0
C3631 C 0.86964 0.38876 0.90767 0.0
H3632 H 0.84421 0.31688 0.84842 0.0
H3633 H 0.91396 0.32414 0.85324 0.0
H3634 H 0.83124 0.36879 0.87843 0.0
H3635 H 0.82685 0.36248 0.84993 0.0
H3636 H 0.82064 0.34227 0.87038 0.0
H3637 H 0.92998 0.35313 0.8739 0.0
H3638 H 0.91843 0.37595 0.85913 0.0
H3639 H 0.91299 0.37286 0.88791 0.0
H3640 H 0.88926 0.42094 0.82749 0.0
H3641 H 0.88668 0.42818 0.89746 0.0
H3642 H 0.8567 0.37116 0.82467 0.0
H3643 H 0.88593 0.3686 0.82265 0.0
H3644 H 0.87221 0.39111 0.80937 0.0
H3645 H 0.85813 0.37468 0.90738 0.0
H3646 H 0.86285 0.40179 0.91846 0.0
H3647 H 0.88534 0.38319 0.91502 0.0
C3648 C 0.83344 0.6353 0.09069 0.0
C3649 C 0.82293 0.64009 0.11045 0.0
C3650 C 0.85403 0.62521 0.09062 0.0
C3651 C 0.86451 0.62063 0.1109 0.0
C3652 C 0.8526 0.62271 0.13073 0.0
C3653 C 0.83171 0.63241 0.13026 0.0
C3654 C 0.86571 0.62231 0.06895 0.0
C3655 C 0.86281 0.61736 0.15263 0.0
C3656 C 0.92092 0.5999 0.09785 0.0
C3657 C 0.93121 0.61997 0.09354 0.0
C3658 C 0.89963 0.59939 0.10662 0.0
C3659 C 0.88881 0.61942 0.11108 0.0
C3660 C 0.90066 0.63941 0.10995 0.0
C3661 C 0.92167 0.63946 0.10076 0.0
C3662 C 0.88792 0.57768 0.1083 0.0
C3663 C 0.89008 0.66113 0.11544 0.0
H3664 H 0.82645 0.64119 0.07541 0.0
H3665 H 0.82347 0.6362 0.14558 0.0
H3666 H 0.87827 0.63535 0.06704 0.0
H3667 H 0.87421 0.60625 0.06833 0.0
H3668 H 0.85423 0.62336 0.05482 0.0
H3669 H 0.85009 0.6125 0.16474 0.0
H3670 H 0.8751 0.60401 0.15123 0.0
H3671 H 0.87124 0.63215 0.15906 0.0
H3672 H 0.9284 0.58481 0.09209 0.0
H3673 H 0.92977 0.65492 0.09734 0.0
H3674 H 0.87971 0.57408 0.09245 0.0
H3675 H 0.87522 0.57791 0.12134 0.0
H3676 H 0.89968 0.56418 0.1117 0.0
H3677 H 0.87847 0.66573 0.10218 0.0
H3678 H 0.9024 0.67444 0.11711 0.0
H3679 H 0.88066 0.65995 0.13097 0.0
C3680 C 0.58877 0.65713 0.33712 0.0
C3681 C 0.6083 0.66885 0.33497 0.0
C3682 C 0.58845 0.63666 0.34744 0.0
C3683 C 0.60835 0.62753 0.35532 0.0
C3684 C 0.62771 0.64034 0.3552 0.0
C3685 C 0.62744 0.66105 0.34502 0.0
C3686 C 0.56721 0.6239 0.3478 0.0
C3687 C 0.64915 0.63146 0.36375 0.0
C3688 C 0.59375 0.57429 0.38219 0.0
C3689 C 0.59252 0.56088 0.36357 0.0
C3690 C 0.60207 0.59568 0.38066 0.0
C3691 C 0.609 0.60361 0.35998 0.0
C3692 C 0.6108 0.58891 0.34202 0.0
C3693 C 0.60222 0.56768 0.34397 0.0
C3694 C 0.60052 0.61056 0.40037 0.0
C3695 C 0.61881 0.59648 0.31984 0.0
H3696 H 0.57403 0.66328 0.32926 0.0
H3697 H 0.64263 0.67009 0.34308 0.0
H3698 H 0.5682 0.6101 0.33596 0.0
H3699 H 0.56428 0.61685 0.36431 0.0
H3700 H 0.55291 0.63426 0.34331 0.0
H3701 H 0.66024 0.64496 0.36891 0.0
H3702 H 0.64663 0.62018 0.37782 0.0
H3703 H 0.65745 0.62214 0.35049 0.0
H3704 H 0.58601 0.56897 0.39731 0.0
H3705 H 0.60102 0.55728 0.32957 0.0
H3706 H 0.58482 0.61976 0.3997 0.0
H3707 H 0.61408 0.62268 0.40056 0.0
H3708 H 0.60084 0.60103 0.41591 0.0
H3709 H 0.60578 0.60632 0.31176 0.0
H3710 H 0.62293 0.58243 0.30897 0.0
H3711 H 0.63349 0.60705 0.32158 0.0
C3712 C 0.64947 0.89157 0.57889 0.0
C3713 C 0.63006 0.89936 0.56958 0.0
C3714 C 0.64973 0.88389 0.60055 0.0
C3715 C 0.63023 0.88489 0.61319 0.0
C3716 C 0.61006 0.88954 0.60272 0.0
C3717 C 0.6102 0.89667 0.5808 0.0
C3718 C 0.67149 0.878 0.61078 0.0
C3719 C 0.58882 0.89017 0.61537 0.0
C3720 C 0.64178 0.8708 0.67247 0.0
C3721 C 0.65025 0.89092 0.67964 0.0
C3722 C 0.63292 0.86872 0.65128 0.0
C3723 C 0.63236 0.8873 0.63736 0.0
C3724 C 0.63821 0.90818 0.64582 0.0
C3725 C 0.64747 0.90965 0.66677 0.0
C3726 C 0.62657 0.84624 0.64315 0.0
C3727 C 0.63709 0.92865 0.63188 0.0
H3728 H 0.6648 0.89373 0.57012 0.0
H3729 H 0.59519 0.90288 0.57354 0.0
H3730 H 0.67756 0.89211 0.62057 0.0
H3731 H 0.66973 0.86379 0.622 0.0
H3732 H 0.68401 0.874 0.59814 0.0
H3733 H 0.57456 0.88747 0.60435 0.0
H3734 H 0.58858 0.87767 0.6286 0.0
H3735 H 0.58695 0.90654 0.6231 0.0
H3736 H 0.64416 0.85626 0.68245 0.0
H3737 H 0.65407 0.92517 0.67244 0.0
H3738 H 0.64115 0.83825 0.63574 0.0
H3739 H 0.61357 0.84708 0.63044 0.0
H3740 H 0.62082 0.83573 0.65688 0.0
H3741 H 0.65025 0.92816 0.61929 0.0
H3742 H 0.63923 0.94378 0.64181 0.0
H3743 H 0.62115 0.92964 0.62318 0.0
loop_
_geom_bond_atom_site_label_1
_geom_bond_atom_site_label_2
_geom_bond_distance
_geom_bond_site_symmetry_2
_ccdc_geom_bond_type
Co0 O1 2.216 . S
Co0 O2 2.091 . S
Co0 O4 2.004 . S
Co0 O10 2.021 . S
Co0 O12 2.137 . S
Co0 O13 2.244 . S
O1 Co0 2.216 . S
O1 C8 1.247 . S
O2 Co0 2.091 . S
O2 C8 1.261 . S
C3 O12 1.247 . S
C3 O13 1.272 . S
O4 Co0 2.004 . S
O4 C9 1.259 . S
Co5 O6 2.061 . S
Co5 O11 2.052 . S
Co5 O13 2.135 . S
O6 Co5 2.061 . S
O6 C9 1.235 . S
C7 O10 1.238 . S
C7 O11 1.241 . S
C8 O1 1.247 . S
C8 O2 1.261 . S
C9 O4 1.259 . S
C9 O6 1.235 . S
O10 Co0 2.021 . S
O10 C7 1.238 . S
O11 Co5 2.052 . S
O11 C7 1.241 . S
O12 Co0 2.137 . S
O12 C3 1.247 . S
O13 Co0 2.244 . S
O13 C3 1.272 . S
O13 Co5 2.135 . S
Co14 O15 2.216 . S
Co14 O16 2.091 . S
Co14 O18 2.004 . S
Co14 O24 2.021 . S
Co14 O26 2.137 . S
Co14 O27 2.244 . S
O15 Co14 2.216 . S
O15 C22 1.247 . S
O16 Co14 2.091 . S
O16 C22 1.261 . S
C17 O26 1.247 . S
C17 O27 1.272 . S
O18 Co14 2.004 . S
O18 C23 1.259 1_565 S
Co19 O20 2.061 1_655 S
Co19 O25 2.052 1_655 S
Co19 O27 2.135 1_645 S
O20 Co19 2.061 1_455 S
O20 C23 1.235 . S
C21 O24 1.238 . S
C21 O25 1.241 1_565 S
C22 O15 1.247 . S
C22 O16 1.261 . S
C23 O18 1.259 1_545 S
C23 O20 1.235 . S
O24 Co14 2.021 . S
O24 C21 1.238 . S
O25 Co19 2.052 1_455 S
O25 C21 1.241 1_545 S
O26 Co14 2.137 . S
O26 C17 1.247 . S
O27 Co14 2.244 . S
O27 C17 1.272 . S
O27 Co19 2.135 1_465 S
Co28 O29 2.216 . S
Co28 O30 2.091 . S
Co28 O32 2.004 . S
Co28 O38 2.021 . S
Co28 O40 2.137 . S
Co28 O41 2.244 . S
O29 Co28 2.216 . S
O29 C36 1.247 . S
O30 Co28 2.091 . S
O30 C36 1.261 . S
C31 O40 1.247 . S
C31 O41 1.272 . S
O32 Co28 2.004 . S
O32 C37 1.259 . S
Co33 O34 2.061 . S
Co33 O39 2.052 . S
Co33 O41 2.135 . S
O34 Co33 2.061 . S
O34 C37 1.235 . S
C35 O38 1.238 . S
C35 O39 1.241 . S
C36 O29 1.247 . S
C36 O30 1.261 . S
C37 O32 1.259 . S
C37 O34 1.235 . S
O38 Co28 2.021 . S
O38 C35 1.238 . S
O39 Co33 2.052 . S
O39 C35 1.241 . S
O40 Co28 2.137 . S
O40 C31 1.247 . S
O41 Co28 2.244 . S
O41 C31 1.272 . S
O41 Co33 2.135 . S
Co42 O43 2.216 . S
Co42 O44 2.091 . S
Co42 O46 2.004 . S
Co42 O52 2.021 . S
Co42 O54 2.137 . S
Co42 O55 2.244 . S
O43 Co42 2.216 . S
O43 C50 1.247 . S
O44 Co42 2.091 . S
O44 C50 1.261 . S
C45 O54 1.247 . S
C45 O55 1.272 . S
O46 Co42 2.004 . S
O46 C51 1.259 1_545 S
Co47 O48 2.061 . S
Co47 O53 2.052 . S
Co47 O55 2.135 1_565 S
O48 Co47 2.061 . S
O48 C51 1.235 . S
C49 O52 1.238 . S
C49 O53 1.241 1_545 S
C50 O43 1.247 . S
C50 O44 1.261 . S
C51 O46 1.259 1_565 S
C51 O48 1.235 . S
O52 Co42 2.021 . S
O52 C49 1.238 . S
O53 Co47 2.052 . S
O53 C49 1.241 1_565 S
O54 Co42 2.137 . S
O54 C45 1.247 . S
O55 Co42 2.244 . S
O55 C45 1.272 . S
O55 Co47 2.135 1_545 S
Co56 O57 2.216 . S
Co56 O58 2.091 . S
Co56 O60 2.004 . S
Co56 O66 2.021 . S
Co56 O68 2.137 . S
Co56 O69 2.244 . S
O57 Co56 2.216 . S
O57 C64 1.247 . S
O58 Co56 2.091 . S
O58 C64 1.261 . S
C59 O68 1.247 . S
C59 O69 1.272 . S
O60 Co56 2.004 . S
O60 C65 1.259 . S
Co61 O62 2.061 . S
Co61 O67 2.052 . S
Co61 O69 2.135 . S
O62 Co61 2.061 . S
O62 C65 1.235 . S
C63 O66 1.238 . S
C63 O67 1.241 . S
C64 O57 1.247 . S
C64 O58 1.261 . S
C65 O60 1.259 . S
C65 O62 1.235 . S
O66 Co56 2.021 . S
O66 C63 1.238 . S
O67 Co61 2.052 . S
O67 C63 1.241 . S
O68 Co56 2.137 . S
O68 C59 1.247 . S
O69 Co56 2.244 . S
O69 C59 1.272 . S
O69 Co61 2.135 . S
Co70 O71 2.216 . S
Co70 O72 2.091 . S
Co70 O74 2.004 . S
Co70 O80 2.021 . S
Co70 O82 2.137 . S
Co70 O83 2.244 . S
O71 Co70 2.216 . S
O71 C78 1.247 . S
O72 Co70 2.091 . S
O72 C78 1.261 . S
C73 O82 1.247 . S
C73 O83 1.272 . S
O74 Co70 2.004 . S
O74 C79 1.259 1_565 S
Co75 O76 2.061 . S
Co75 O81 2.052 . S
Co75 O83 2.135 1_545 S
O76 Co75 2.061 . S
O76 C79 1.235 . S
C77 O80 1.238 . S
C77 O81 1.241 1_565 S
C78 O71 1.247 . S
C78 O72 1.261 . S
C79 O74 1.259 1_545 S
C79 O76 1.235 . S
O80 Co70 2.021 . S
O80 C77 1.238 . S
O81 Co75 2.052 . S
O81 C77 1.241 1_545 S
O82 Co70 2.137 . S
O82 C73 1.247 . S
O83 Co70 2.244 . S
O83 C73 1.272 . S
O83 Co75 2.135 1_565 S
Co84 O85 2.216 . S
Co84 O86 2.091 . S
Co84 O88 2.004 . S
Co84 O94 2.021 . S
Co84 O96 2.137 . S
Co84 O97 2.244 . S
O85 Co84 2.216 . S
O85 C92 1.247 . S
O86 Co84 2.091 . S
O86 C92 1.261 . S
C87 O96 1.247 . S
C87 O97 1.272 . S
O88 Co84 2.004 . S
O88 C93 1.259 . S
Co89 O90 2.061 . S
Co89 O95 2.052 . S
Co89 O97 2.135 . S
O90 Co89 2.061 . S
O90 C93 1.235 . S
C91 O94 1.238 . S
C91 O95 1.241 . S
C92 O85 1.247 . S
C92 O86 1.261 . S
C93 O88 1.259 . S
C93 O90 1.235 . S
O94 Co84 2.021 . S
O94 C91 1.238 . S
O95 Co89 2.052 . S
O95 C91 1.241 . S
O96 Co84 2.137 . S
O96 C87 1.247 . S
O97 Co84 2.244 . S
O97 C87 1.272 . S
O97 Co89 2.135 . S
Co98 O99 2.216 . S
Co98 O100 2.091 . S
Co98 O102 2.004 . S
Co98 O108 2.021 . S
Co98 O110 2.137 . S
Co98 O111 2.244 . S
O99 Co98 2.216 . S
O99 C106 1.247 . S
O100 Co98 2.091 . S
O100 C106 1.261 . S
C101 O110 1.247 . S
C101 O111 1.272 . S
O102 Co98 2.004 . S
O102 C107 1.259 1_545 S
Co103 O104 2.061 1_655 S
Co103 O109 2.052 1_655 S
Co103 O111 2.135 1_665 S
O104 Co103 2.061 1_455 S
O104 C107 1.235 . S
C105 O108 1.238 . S
C105 O109 1.241 1_545 S
C106 O99 1.247 . S
C106 O100 1.261 . S
C107 O102 1.259 1_565 S
C107 O104 1.235 . S
O108 Co98 2.021 . S
O108 C105 1.238 . S
O109 Co103 2.052 1_455 S
O109 C105 1.241 1_565 S
O110 Co98 2.137 . S
O110 C101 1.247 . S
O111 Co98 2.244 . S
O111 C101 1.272 . S
O111 Co103 2.135 1_445 S
Co112 O113 2.216 . S
Co112 O114 2.091 . S
Co112 O116 2.004 . S
Co112 O122 2.021 . S
Co112 O124 2.137 . S
Co112 O125 2.244 . S
O113 Co112 2.216 . S
O113 C120 1.247 . S
O114 Co112 2.091 . S
O114 C120 1.261 . S
C115 O124 1.247 . S
C115 O125 1.272 . S
O116 Co112 2.004 . S
O116 C121 1.259 . S
Co117 O118 2.061 . S
Co117 O123 2.052 . S
Co117 O125 2.135 . S
O118 Co117 2.061 . S
O118 C121 1.235 . S
C119 O122 1.238 . S
C119 O123 1.241 . S
C120 O113 1.247 . S
C120 O114 1.261 . S
C121 O116 1.259 . S
C121 O118 1.235 . S
O122 Co112 2.021 . S
O122 C119 1.238 . S
O123 Co117 2.052 . S
O123 C119 1.241 . S
O124 Co112 2.137 . S
O124 C115 1.247 . S
O125 Co112 2.244 . S
O125 C115 1.272 . S
O125 Co117 2.135 . S
Co126 O127 2.216 . S
Co126 O128 2.091 . S
Co126 O130 2.004 . S
Co126 O136 2.021 . S
Co126 O138 2.137 . S
Co126 O139 2.244 . S
O127 Co126 2.216 . S
O127 C134 1.247 . S
O128 Co126 2.091 . S
O128 C134 1.261 . S
C129 O138 1.247 . S
C129 O139 1.272 . S
O130 Co126 2.004 . S
O130 C135 1.259 1_455 S
Co131 O132 2.061 . S
Co131 O137 2.052 . S
Co131 O139 2.135 1_655 S
O132 Co131 2.061 . S
O132 C135 1.235 . S
C133 O136 1.238 . S
C133 O137 1.241 1_455 S
C134 O127 1.247 . S
C134 O128 1.261 . S
C135 O130 1.259 1_655 S
C135 O132 1.235 . S
O136 Co126 2.021 . S
O136 C133 1.238 . S
O137 Co131 2.052 . S
O137 C133 1.241 1_655 S
O138 Co126 2.137 . S
O138 C129 1.247 . S
O139 Co126 2.244 . S
O139 C129 1.272 . S
O139 Co131 2.135 1_455 S
Co140 O141 2.216 . S
Co140 O142 2.091 . S
Co140 O144 2.004 . S
Co140 O150 2.021 . S
Co140 O152 2.137 . S
Co140 O153 2.244 . S
O141 Co140 2.216 . S
O141 C148 1.247 . S
O142 Co140 2.091 . S
O142 C148 1.261 . S
C143 O152 1.247 . S
C143 O153 1.272 . S
O144 Co140 2.004 . S
O144 C149 1.259 . S
Co145 O146 2.061 . S
Co145 O151 2.052 . S
Co145 O153 2.135 . S
O146 Co145 2.061 . S
O146 C149 1.235 . S
C147 O150 1.238 . S
C147 O151 1.241 . S
C148 O141 1.247 . S
C148 O142 1.261 . S
C149 O144 1.259 . S
C149 O146 1.235 . S
O150 Co140 2.021 . S
O150 C147 1.238 . S
O151 Co145 2.052 . S
O151 C147 1.241 . S
O152 Co140 2.137 . S
O152 C143 1.247 . S
O153 Co140 2.244 . S
O153 C143 1.272 . S
O153 Co145 2.135 . S
Co154 O155 2.216 . S
Co154 O156 2.091 . S
Co154 O158 2.004 . S
Co154 O164 2.021 . S
Co154 O166 2.137 . S
Co154 O167 2.244 . S
O155 Co154 2.216 . S
O155 C162 1.247 . S
O156 Co154 2.091 . S
O156 C162 1.261 . S
C157 O166 1.247 . S
C157 O167 1.272 . S
O158 Co154 2.004 . S
O158 C163 1.259 . S
Co159 O160 2.061 1_554 S
Co159 O165 2.052 1_554 S
Co159 O167 2.135 1_554 S
O160 Co159 2.061 1_556 S
O160 C163 1.235 . S
C161 O164 1.238 . S
C161 O165 1.241 . S
C162 O155 1.247 . S
C162 O156 1.261 . S
C163 O158 1.259 . S
C163 O160 1.235 . S
O164 Co154 2.021 . S
O164 C161 1.238 . S
O165 Co159 2.052 1_556 S
O165 C161 1.241 . S
O166 Co154 2.137 . S
O166 C157 1.247 . S
O167 Co154 2.244 . S
O167 C157 1.272 . S
O167 Co159 2.135 1_556 S
Co168 O169 2.216 . S
Co168 O170 2.091 . S
Co168 O172 2.004 . S
Co168 O178 2.021 . S
Co168 O180 2.137 . S
Co168 O181 2.244 . S
O169 Co168 2.216 . S
O169 C176 1.247 . S
O170 Co168 2.091 . S
O170 C176 1.261 . S
C171 O180 1.247 . S
C171 O181 1.272 . S
O172 Co168 2.004 . S
O172 C177 1.259 . S
Co173 O174 2.061 . S
Co173 O179 2.052 . S
Co173 O181 2.135 . S
O174 Co173 2.061 . S
O174 C177 1.235 . S
C175 O178 1.238 . S
C175 O179 1.241 . S
C176 O169 1.247 . S
C176 O170 1.261 . S
C177 O172 1.259 . S
C177 O174 1.235 . S
O178 Co168 2.021 . S
O178 C175 1.238 . S
O179 Co173 2.052 . S
O179 C175 1.241 . S
O180 Co168 2.137 . S
O180 C171 1.247 . S
O181 Co168 2.244 . S
O181 C171 1.272 . S
O181 Co173 2.135 . S
Co182 O183 2.216 . S
Co182 O184 2.091 . S
Co182 O186 2.004 . S
Co182 O192 2.021 . S
Co182 O194 2.137 . S
Co182 O195 2.244 . S
O183 Co182 2.216 . S
O183 C190 1.247 . S
O184 Co182 2.091 . S
O184 C190 1.261 . S
C185 O194 1.247 . S
C185 O195 1.272 . S
O186 Co182 2.004 . S
O186 C191 1.259 . S
Co187 O188 2.061 . S
Co187 O193 2.052 . S
Co187 O195 2.135 . S
O188 Co187 2.061 . S
O188 C191 1.235 . S
C189 O192 1.238 . S
C189 O193 1.241 . S
C190 O183 1.247 . S
C190 O184 1.261 . S
C191 O186 1.259 . S
C191 O188 1.235 . S
O192 Co182 2.021 . S
O192 C189 1.238 . S
O193 Co187 2.052 . S
O193 C189 1.241 . S
O194 Co182 2.137 . S
O194 C185 1.247 . S
O195 Co182 2.244 . S
O195 C185 1.272 . S
O195 Co187 2.135 . S
Co196 O197 2.216 . S
Co196 O198 2.091 . S
Co196 O200 2.004 . S
Co196 O206 2.021 . S
Co196 O208 2.137 . S
Co196 O209 2.244 . S
O197 Co196 2.216 . S
O197 C204 1.247 . S
O198 Co196 2.091 . S
O198 C204 1.261 . S
C199 O208 1.247 . S
C199 O209 1.272 . S
O200 Co196 2.004 . S
O200 C205 1.259 . S
Co201 O202 2.061 . S
Co201 O207 2.052 . S
Co201 O209 2.135 . S
O202 Co201 2.061 . S
O202 C205 1.235 . S
C203 O206 1.238 . S
C203 O207 1.241 . S
C204 O197 1.247 . S
C204 O198 1.261 . S
C205 O200 1.259 . S
C205 O202 1.235 . S
O206 Co196 2.021 . S
O206 C203 1.238 . S
O207 Co201 2.052 . S
O207 C203 1.241 . S
O208 Co196 2.137 . S
O208 C199 1.247 . S
O209 Co196 2.244 . S
O209 C199 1.272 . S
O209 Co201 2.135 . S
Co210 O211 2.216 . S
Co210 O212 2.091 . S
Co210 O214 2.004 . S
Co210 O220 2.021 . S
Co210 O222 2.137 . S
Co210 O223 2.244 . S
O211 Co210 2.216 . S
O211 C218 1.247 . S
O212 Co210 2.091 . S
O212 C218 1.261 . S
C213 O222 1.247 . S
C213 O223 1.272 . S
O214 Co210 2.004 . S
O214 C219 1.259 1_455 S
Co215 O216 2.061 1_556 S
Co215 O221 2.052 1_556 S
Co215 O223 2.135 1_656 S
O216 Co215 2.061 1_554 S
O216 C219 1.235 . S
C217 O220 1.238 . S
C217 O221 1.241 1_455 S
C218 O211 1.247 . S
C218 O212 1.261 . S
C219 O214 1.259 1_655 S
C219 O216 1.235 . S
O220 Co210 2.021 . S
O220 C217 1.238 . S
O221 Co215 2.052 1_554 S
O221 C217 1.241 1_655 S
O222 Co210 2.137 . S
O222 C213 1.247 . S
O223 Co210 2.244 . S
O223 C213 1.272 . S
O223 Co215 2.135 1_454 S
Co224 O225 2.216 . S
Co224 O226 2.091 . S
Co224 O228 2.004 . S
Co224 O234 2.021 . S
Co224 O236 2.137 . S
Co224 O237 2.244 . S
O225 Co224 2.216 . S
O225 C232 1.247 . S
O226 Co224 2.091 . S
O226 C232 1.261 . S
C227 O236 1.247 . S
C227 O237 1.272 . S
O228 Co224 2.004 . S
O228 C233 1.259 . S
Co229 O230 2.061 . S
Co229 O235 2.052 . S
Co229 O237 2.135 . S
O230 Co229 2.061 . S
O230 C233 1.235 . S
C231 O234 1.238 . S
C231 O235 1.241 . S
C232 O225 1.247 . S
C232 O226 1.261 . S
C233 O228 1.259 . S
C233 O230 1.235 . S
O234 Co224 2.021 . S
O234 C231 1.238 . S
O235 Co229 2.052 . S
O235 C231 1.241 . S
O236 Co224 2.137 . S
O236 C227 1.247 . S
O237 Co224 2.244 . S
O237 C227 1.272 . S
O237 Co229 2.135 . S
Co238 O239 2.216 . S
Co238 O240 2.091 . S
Co238 O242 2.004 . S
Co238 O248 2.021 . S
Co238 O250 2.137 . S
Co238 O251 2.244 . S
O239 Co238 2.216 . S
O239 C246 1.247 . S
O240 Co238 2.091 . S
O240 C246 1.261 . S
C241 O250 1.247 . S
C241 O251 1.272 . S
O242 Co238 2.004 . S
O242 C247 1.259 . S
Co243 O244 2.061 . S
Co243 O249 2.052 . S
Co243 O251 2.135 . S
O244 Co243 2.061 . S
O244 C247 1.235 . S
C245 O248 1.238 . S
C245 O249 1.241 . S
C246 O239 1.247 . S
C246 O240 1.261 . S
C247 O242 1.259 . S
C247 O244 1.235 . S
O248 Co238 2.021 . S
O248 C245 1.238 . S
O249 Co243 2.052 . S
O249 C245 1.241 . S
O250 Co238 2.137 . S
O250 C241 1.247 . S
O251 Co238 2.244 . S
O251 C241 1.272 . S
O251 Co243 2.135 . S
Co252 O253 2.216 . S
Co252 O254 2.091 . S
Co252 O256 2.004 . S
Co252 O262 2.021 . S
Co252 O264 2.137 . S
Co252 O265 2.244 . S
O253 Co252 2.216 . S
O253 C260 1.247 . S
O254 Co252 2.091 . S
O254 C260 1.261 . S
C255 O264 1.247 . S
C255 O265 1.272 . S
O256 Co252 2.004 . S
O256 C261 1.259 1_554 S
Co257 O258 2.061 . S
Co257 O263 2.052 . S
Co257 O265 2.135 1_556 S
O258 Co257 2.061 . S
O258 C261 1.235 . S
C259 O262 1.238 . S
C259 O263 1.241 1_554 S
C260 O253 1.247 . S
C260 O254 1.261 . S
C261 O256 1.259 1_556 S
C261 O258 1.235 . S
O262 Co252 2.021 . S
O262 C259 1.238 . S
O263 Co257 2.052 . S
O263 C259 1.241 1_556 S
O264 Co252 2.137 . S
O264 C255 1.247 . S
O265 Co252 2.244 . S
O265 C255 1.272 . S
O265 Co257 2.135 1_554 S
Co266 O267 2.216 . S
Co266 O268 2.091 . S
Co266 O270 2.004 . S
Co266 O276 2.021 . S
Co266 O278 2.137 . S
Co266 O279 2.244 . S
O267 Co266 2.216 . S
O267 C274 1.247 . S
O268 Co266 2.091 . S
O268 C274 1.261 . S
C269 O278 1.247 . S
C269 O279 1.272 . S
O270 Co266 2.004 . S
O270 C275 1.259 . S
Co271 O272 2.061 . S
Co271 O277 2.052 . S
Co271 O279 2.135 . S
O272 Co271 2.061 . S
O272 C275 1.235 . S
C273 O276 1.238 . S
C273 O277 1.241 . S
C274 O267 1.247 . S
C274 O268 1.261 . S
C275 O270 1.259 . S
C275 O272 1.235 . S
O276 Co266 2.021 . S
O276 C273 1.238 . S
O277 Co271 2.052 . S
O277 C273 1.241 . S
O278 Co266 2.137 . S
O278 C269 1.247 . S
O279 Co266 2.244 . S
O279 C269 1.272 . S
O279 Co271 2.135 . S
Co280 O281 2.216 . S
Co280 O282 2.091 . S
Co280 O284 2.004 . S
Co280 O290 2.021 . S
Co280 O292 2.137 . S
Co280 O293 2.244 . S
O281 Co280 2.216 . S
O281 C288 1.247 . S
O282 Co280 2.091 . S
O282 C288 1.261 . S
C283 O292 1.247 . S
C283 O293 1.272 . S
O284 Co280 2.004 . S
O284 C289 1.259 1_554 S
Co285 O286 2.061 1_565 S
Co285 O291 2.052 1_565 S
Co285 O293 2.135 1_566 S
O286 Co285 2.061 1_545 S
O286 C289 1.235 . S
C287 O290 1.238 . S
C287 O291 1.241 1_554 S
C288 O281 1.247 . S
C288 O282 1.261 . S
C289 O284 1.259 1_556 S
C289 O286 1.235 . S
O290 Co280 2.021 . S
O290 C287 1.238 . S
O291 Co285 2.052 1_545 S
O291 C287 1.241 1_556 S
O292 Co280 2.137 . S
O292 C283 1.247 . S
O293 Co280 2.244 . S
O293 C283 1.272 . S
O293 Co285 2.135 1_544 S
Co294 O295 2.216 . S
Co294 O296 2.091 . S
Co294 O298 2.004 . S
Co294 O304 2.021 . S
Co294 O306 2.137 . S
Co294 O307 2.244 . S
O295 Co294 2.216 . S
O295 C302 1.247 . S
O296 Co294 2.091 . S
O296 C302 1.261 . S
C297 O306 1.247 . S
C297 O307 1.272 . S
O298 Co294 2.004 . S
O298 C303 1.259 . S
Co299 O300 2.061 . S
Co299 O305 2.052 . S
Co299 O307 2.135 . S
O300 Co299 2.061 . S
O300 C303 1.235 . S
C301 O304 1.238 . S
C301 O305 1.241 . S
C302 O295 1.247 . S
C302 O296 1.261 . S
C303 O298 1.259 . S
C303 O300 1.235 . S
O304 Co294 2.021 . S
O304 C301 1.238 . S
O305 Co299 2.052 . S
O305 C301 1.241 . S
O306 Co294 2.137 . S
O306 C297 1.247 . S
O307 Co294 2.244 . S
O307 C297 1.272 . S
O307 Co299 2.135 . S
Co308 O309 2.216 . S
Co308 O310 2.091 . S
Co308 O312 2.004 . S
Co308 O318 2.021 . S
Co308 O320 2.137 . S
Co308 O321 2.244 . S
O309 Co308 2.216 . S
O309 C316 1.247 . S
O310 Co308 2.091 . S
O310 C316 1.261 . S
C311 O320 1.247 . S
C311 O321 1.272 . S
O312 Co308 2.004 . S
O312 C317 1.259 . S
Co313 O314 2.061 . S
Co313 O319 2.052 . S
Co313 O321 2.135 . S
O314 Co313 2.061 . S
O314 C317 1.235 . S
C315 O318 1.238 . S
C315 O319 1.241 . S
C316 O309 1.247 . S
C316 O310 1.261 . S
C317 O312 1.259 . S
C317 O314 1.235 . S
O318 Co308 2.021 . S
O318 C315 1.238 . S
O319 Co313 2.052 . S
O319 C315 1.241 . S
O320 Co308 2.137 . S
O320 C311 1.247 . S
O321 Co308 2.244 . S
O321 C311 1.272 . S
O321 Co313 2.135 . S
Co322 O323 2.216 . S
Co322 O324 2.091 . S
Co322 O326 2.004 . S
Co322 O332 2.021 . S
Co322 O334 2.137 . S
Co322 O335 2.244 . S
O323 Co322 2.216 . S
O323 C330 1.247 . S
O324 Co322 2.091 . S
O324 C330 1.261 . S
C325 O334 1.247 . S
C325 O335 1.272 . S
O326 Co322 2.004 . S
O326 C331 1.259 1_556 S
Co327 O328 2.061 . S
Co327 O333 2.052 . S
Co327 O335 2.135 1_554 S
O328 Co327 2.061 . S
O328 C331 1.235 . S
C329 O332 1.238 . S
C329 O333 1.241 1_556 S
C330 O323 1.247 . S
C330 O324 1.261 . S
C331 O326 1.259 1_554 S
C331 O328 1.235 . S
O332 Co322 2.021 . S
O332 C329 1.238 . S
O333 Co327 2.052 . S
O333 C329 1.241 1_554 S
O334 Co322 2.137 . S
O334 C325 1.247 . S
O335 Co322 2.244 . S
O335 C325 1.272 . S
O335 Co327 2.135 1_556 S
Co336 O337 2.216 . S
Co336 O338 2.091 . S
Co336 O340 2.004 . S
Co336 O346 2.021 . S
Co336 O348 2.137 . S
Co336 O349 2.244 . S
O337 Co336 2.216 . S
O337 C344 1.247 . S
O338 Co336 2.091 . S
O338 C344 1.261 . S
C339 O348 1.247 . S
C339 O349 1.272 . S
O340 Co336 2.004 . S
O340 C345 1.259 . S
Co341 O342 2.061 . S
Co341 O347 2.052 . S
Co341 O349 2.135 . S
O342 Co341 2.061 . S
O342 C345 1.235 . S
C343 O346 1.238 . S
C343 O347 1.241 . S
C344 O337 1.247 . S
C344 O338 1.261 . S
C345 O340 1.259 . S
C345 O342 1.235 . S
O346 Co336 2.021 . S
O346 C343 1.238 . S
O347 Co341 2.052 . S
O347 C343 1.241 . S
O348 Co336 2.137 . S
O348 C339 1.247 . S
O349 Co336 2.244 . S
O349 C339 1.272 . S
O349 Co341 2.135 . S
Co350 O351 2.216 . S
Co350 O352 2.091 . S
Co350 O354 2.004 . S
Co350 O360 2.021 . S
Co350 O362 2.137 . S
Co350 O363 2.244 . S
O351 Co350 2.216 . S
O351 C358 1.247 . S
O352 Co350 2.091 . S
O352 C358 1.261 . S
C353 O362 1.247 . S
C353 O363 1.272 . S
O354 Co350 2.004 . S
O354 C359 1.259 . S
Co355 O356 2.061 . S
Co355 O361 2.052 . S
Co355 O363 2.135 . S
O356 Co355 2.061 . S
O356 C359 1.235 . S
C357 O360 1.238 . S
C357 O361 1.241 . S
C358 O351 1.247 . S
C358 O352 1.261 . S
C359 O354 1.259 . S
C359 O356 1.235 . S
O360 Co350 2.021 . S
O360 C357 1.238 . S
O361 Co355 2.052 . S
O361 C357 1.241 . S
O362 Co350 2.137 . S
O362 C353 1.247 . S
O363 Co350 2.244 . S
O363 C353 1.272 . S
O363 Co355 2.135 . S
Co364 O365 2.216 . S
Co364 O366 2.091 . S
Co364 O368 2.004 . S
Co364 O374 2.021 . S
Co364 O376 2.137 . S
Co364 O377 2.244 . S
O365 Co364 2.216 . S
O365 C372 1.247 . S
O366 Co364 2.091 . S
O366 C372 1.261 . S
C367 O376 1.247 . S
C367 O377 1.272 . S
O368 Co364 2.004 . S
O368 C373 1.259 . S
Co369 O370 2.061 . S
Co369 O375 2.052 . S
Co369 O377 2.135 . S
O370 Co369 2.061 . S
O370 C373 1.235 . S
C371 O374 1.238 . S
C371 O375 1.241 . S
C372 O365 1.247 . S
C372 O366 1.261 . S
C373 O368 1.259 . S
C373 O370 1.235 . S
O374 Co364 2.021 . S
O374 C371 1.238 . S
O375 Co369 2.052 . S
O375 C371 1.241 . S
O376 Co364 2.137 . S
O376 C367 1.247 . S
O377 Co364 2.244 . S
O377 C367 1.272 . S
O377 Co369 2.135 . S
Co378 O379 2.216 . S
Co378 O380 2.091 . S
Co378 O382 2.004 . S
Co378 O388 2.021 . S
Co378 O390 2.137 . S
Co378 O391 2.244 . S
O379 Co378 2.216 . S
O379 C386 1.247 . S
O380 Co378 2.091 . S
O380 C386 1.261 . S
C381 O390 1.247 . S
C381 O391 1.272 . S
O382 Co378 2.004 . S
O382 C387 1.259 . S
Co383 O384 2.061 1_455 S
Co383 O389 2.052 1_455 S
Co383 O391 2.135 1_455 S
O384 Co383 2.061 1_655 S
O384 C387 1.235 . S
C385 O388 1.238 . S
C385 O389 1.241 . S
C386 O379 1.247 . S
C386 O380 1.261 . S
C387 O382 1.259 . S
C387 O384 1.235 . S
O388 Co378 2.021 . S
O388 C385 1.238 . S
O389 Co383 2.052 1_655 S
O389 C385 1.241 . S
O390 Co378 2.137 . S
O390 C381 1.247 . S
O391 Co378 2.244 . S
O391 C381 1.272 . S
O391 Co383 2.135 1_655 S
Co392 O393 2.216 . S
Co392 O394 2.091 . S
Co392 O396 2.004 . S
Co392 O402 2.021 . S
Co392 O404 2.137 . S
Co392 O405 2.244 . S
O393 Co392 2.216 . S
O393 C400 1.247 . S
O394 Co392 2.091 . S
O394 C400 1.261 . S
C395 O404 1.247 . S
C395 O405 1.272 . S
O396 Co392 2.004 . S
O396 C401 1.259 . S
Co397 O398 2.061 . S
Co397 O403 2.052 . S
Co397 O405 2.135 . S
O398 Co397 2.061 . S
O398 C401 1.235 . S
C399 O402 1.238 . S
C399 O403 1.241 . S
C400 O393 1.247 . S
C400 O394 1.261 . S
C401 O396 1.259 . S
C401 O398 1.235 . S
O402 Co392 2.021 . S
O402 C399 1.238 . S
O403 Co397 2.052 . S
O403 C399 1.241 . S
O404 Co392 2.137 . S
O404 C395 1.247 . S
O405 Co392 2.244 . S
O405 C395 1.272 . S
O405 Co397 2.135 . S
Co406 O407 2.216 . S
Co406 O408 2.091 . S
Co406 O410 2.004 . S
Co406 O416 2.021 . S
Co406 O418 2.137 . S
Co406 O419 2.244 . S
O407 Co406 2.216 . S
O407 C414 1.247 . S
O408 Co406 2.091 . S
O408 C414 1.261 . S
C409 O418 1.247 . S
C409 O419 1.272 . S
O410 Co406 2.004 . S
O410 C415 1.259 . S
Co411 O412 2.061 1_455 S
Co411 O417 2.052 1_455 S
Co411 O419 2.135 1_455 S
O412 Co411 2.061 1_655 S
O412 C415 1.235 . S
C413 O416 1.238 . S
C413 O417 1.241 . S
C414 O407 1.247 . S
C414 O408 1.261 . S
C415 O410 1.259 . S
C415 O412 1.235 . S
O416 Co406 2.021 . S
O416 C413 1.238 . S
O417 Co411 2.052 1_655 S
O417 C413 1.241 . S
O418 Co406 2.137 . S
O418 C409 1.247 . S
O419 Co406 2.244 . S
O419 C409 1.272 . S
O419 Co411 2.135 1_655 S
Co420 O421 2.216 . S
Co420 O422 2.091 . S
Co420 O424 2.004 . S
Co420 O430 2.021 . S
Co420 O432 2.137 . S
Co420 O433 2.244 . S
O421 Co420 2.216 . S
O421 C428 1.247 . S
O422 Co420 2.091 . S
O422 C428 1.261 . S
C423 O432 1.247 . S
C423 O433 1.272 . S
O424 Co420 2.004 . S
O424 C429 1.259 . S
Co425 O426 2.061 . S
Co425 O431 2.052 . S
Co425 O433 2.135 . S
O426 Co425 2.061 . S
O426 C429 1.235 . S
C427 O430 1.238 . S
C427 O431 1.241 . S
C428 O421 1.247 . S
C428 O422 1.261 . S
C429 O424 1.259 . S
C429 O426 1.235 . S
O430 Co420 2.021 . S
O430 C427 1.238 . S
O431 Co425 2.052 . S
O431 C427 1.241 . S
O432 Co420 2.137 . S
O432 C423 1.247 . S
O433 Co420 2.244 . S
O433 C423 1.272 . S
O433 Co425 2.135 . S
Co434 O435 2.216 . S
Co434 O436 2.091 . S
Co434 O438 2.004 . S
Co434 O444 2.021 . S
Co434 O446 2.137 . S
Co434 O447 2.244 . S
O435 Co434 2.216 . S
O435 C442 1.247 . S
O436 Co434 2.091 . S
O436 C442 1.261 . S
C437 O446 1.247 . S
C437 O447 1.272 . S
O438 Co434 2.004 . S
O438 C443 1.259 . S
Co439 O440 2.061 . S
Co439 O445 2.052 . S
Co439 O447 2.135 . S
O440 Co439 2.061 . S
O440 C443 1.235 . S
C441 O444 1.238 . S
C441 O445 1.241 . S
C442 O435 1.247 . S
C442 O436 1.261 . S
C443 O438 1.259 . S
C443 O440 1.235 . S
O444 Co434 2.021 . S
O444 C441 1.238 . S
O445 Co439 2.052 . S
O445 C441 1.241 . S
O446 Co434 2.137 . S
O446 C437 1.247 . S
O447 Co434 2.244 . S
O447 C437 1.272 . S
O447 Co439 2.135 . S
Co448 O449 2.216 . S
Co448 O450 2.091 . S
Co448 O452 2.004 . S
Co448 O458 2.021 . S
Co448 O460 2.137 . S
Co448 O461 2.244 . S
O449 Co448 2.216 . S
O449 C456 1.247 . S
O450 Co448 2.091 . S
O450 C456 1.261 . S
C451 O460 1.247 . S
C451 O461 1.272 . S
O452 Co448 2.004 . S
O452 C457 1.259 . S
Co453 O454 2.061 . S
Co453 O459 2.052 . S
Co453 O461 2.135 . S
O454 Co453 2.061 . S
O454 C457 1.235 . S
C455 O458 1.238 . S
C455 O459 1.241 . S
C456 O449 1.247 . S
C456 O450 1.261 . S
C457 O452 1.259 . S
C457 O454 1.235 . S
O458 Co448 2.021 . S
O458 C455 1.238 . S
O459 Co453 2.052 . S
O459 C455 1.241 . S
O460 Co448 2.137 . S
O460 C451 1.247 . S
O461 Co448 2.244 . S
O461 C451 1.272 . S
O461 Co453 2.135 . S
Co462 O463 2.216 . S
Co462 O464 2.091 . S
Co462 O466 2.004 . S
Co462 O472 2.021 . S
Co462 O474 2.137 . S
Co462 O475 2.244 . S
O463 Co462 2.216 . S
O463 C470 1.247 . S
O464 Co462 2.091 . S
O464 C470 1.261 . S
C465 O474 1.247 . S
C465 O475 1.272 . S
O466 Co462 2.004 . S
O466 C471 1.259 . S
Co467 O468 2.061 1_554 S
Co467 O473 2.052 1_554 S
Co467 O475 2.135 1_554 S
O468 Co467 2.061 1_556 S
O468 C471 1.235 . S
C469 O472 1.238 . S
C469 O473 1.241 . S
C470 O463 1.247 . S
C470 O464 1.261 . S
C471 O466 1.259 . S
C471 O468 1.235 . S
O472 Co462 2.021 . S
O472 C469 1.238 . S
O473 Co467 2.052 1_556 S
O473 C469 1.241 . S
O474 Co462 2.137 . S
O474 C465 1.247 . S
O475 Co462 2.244 . S
O475 C465 1.272 . S
O475 Co467 2.135 1_556 S
Co476 O477 2.216 . S
Co476 O478 2.091 . S
Co476 O480 2.004 . S
Co476 O486 2.021 . S
Co476 O488 2.137 . S
Co476 O489 2.244 . S
O477 Co476 2.216 . S
O477 C484 1.247 . S
O478 Co476 2.091 . S
O478 C484 1.261 . S
C479 O488 1.247 . S
C479 O489 1.272 . S
O480 Co476 2.004 . S
O480 C485 1.259 . S
Co481 O482 2.061 . S
Co481 O487 2.052 . S
Co481 O489 2.135 . S
O482 Co481 2.061 . S
O482 C485 1.235 . S
C483 O486 1.238 . S
C483 O487 1.241 . S
C484 O477 1.247 . S
C484 O478 1.261 . S
C485 O480 1.259 . S
C485 O482 1.235 . S
O486 Co476 2.021 . S
O486 C483 1.238 . S
O487 Co481 2.052 . S
O487 C483 1.241 . S
O488 Co476 2.137 . S
O488 C479 1.247 . S
O489 Co476 2.244 . S
O489 C479 1.272 . S
O489 Co481 2.135 . S
Co490 O491 2.216 . S
Co490 O492 2.091 . S
Co490 O494 2.004 . S
Co490 O500 2.021 . S
Co490 O502 2.137 . S
Co490 O503 2.244 . S
O491 Co490 2.216 . S
O491 C498 1.247 . S
O492 Co490 2.091 . S
O492 C498 1.261 . S
C493 O502 1.247 . S
C493 O503 1.272 . S
O494 Co490 2.004 . S
O494 C499 1.259 1_655 S
Co495 O496 2.061 . S
Co495 O501 2.052 . S
Co495 O503 2.135 1_455 S
O496 Co495 2.061 . S
O496 C499 1.235 . S
C497 O500 1.238 . S
C497 O501 1.241 1_655 S
C498 O491 1.247 . S
C498 O492 1.261 . S
C499 O494 1.259 1_455 S
C499 O496 1.235 . S
O500 Co490 2.021 . S
O500 C497 1.238 . S
O501 Co495 2.052 . S
O501 C497 1.241 1_455 S
O502 Co490 2.137 . S
O502 C493 1.247 . S
O503 Co490 2.244 . S
O503 C493 1.272 . S
O503 Co495 2.135 1_655 S
Co504 O505 2.216 . S
Co504 O506 2.091 . S
Co504 O508 2.004 . S
Co504 O514 2.021 . S
Co504 O516 2.137 . S
Co504 O517 2.244 . S
O505 Co504 2.216 . S
O505 C512 1.247 . S
O506 Co504 2.091 . S
O506 C512 1.261 . S
C507 O516 1.247 . S
C507 O517 1.272 . S
O508 Co504 2.004 . S
O508 C513 1.259 . S
Co509 O510 2.061 . S
Co509 O515 2.052 . S
Co509 O517 2.135 . S
O510 Co509 2.061 . S
O510 C513 1.235 . S
C511 O514 1.238 . S
C511 O515 1.241 . S
C512 O505 1.247 . S
C512 O506 1.261 . S
C513 O508 1.259 . S
C513 O510 1.235 . S
O514 Co504 2.021 . S
O514 C511 1.238 . S
O515 Co509 2.052 . S
O515 C511 1.241 . S
O516 Co504 2.137 . S
O516 C507 1.247 . S
O517 Co504 2.244 . S
O517 C507 1.272 . S
O517 Co509 2.135 . S
Co518 O519 2.216 . S
Co518 O520 2.091 . S
Co518 O522 2.004 . S
Co518 O528 2.021 . S
Co518 O530 2.137 . S
Co518 O531 2.244 . S
O519 Co518 2.216 . S
O519 C526 1.247 . S
O520 Co518 2.091 . S
O520 C526 1.261 . S
C521 O530 1.247 . S
C521 O531 1.272 . S
O522 Co518 2.004 . S
O522 C527 1.259 1_655 S
Co523 O524 2.061 1_556 S
Co523 O529 2.052 1_556 S
Co523 O531 2.135 1_456 S
O524 Co523 2.061 1_554 S
O524 C527 1.235 . S
C525 O528 1.238 . S
C525 O529 1.241 1_655 S
C526 O519 1.247 . S
C526 O520 1.261 . S
C527 O522 1.259 1_455 S
C527 O524 1.235 . S
O528 Co518 2.021 . S
O528 C525 1.238 . S
O529 Co523 2.052 1_554 S
O529 C525 1.241 1_455 S
O530 Co518 2.137 . S
O530 C521 1.247 . S
O531 Co518 2.244 . S
O531 C521 1.272 . S
O531 Co523 2.135 1_654 S
Co532 O533 2.216 . S
Co532 O534 2.091 . S
Co532 O536 2.004 . S
Co532 O542 2.021 . S
Co532 O544 2.137 . S
Co532 O545 2.244 . S
O533 Co532 2.216 . S
O533 C540 1.247 . S
O534 Co532 2.091 . S
O534 C540 1.261 . S
C535 O544 1.247 . S
C535 O545 1.272 . S
O536 Co532 2.004 . S
O536 C541 1.259 . S
Co537 O538 2.061 . S
Co537 O543 2.052 . S
Co537 O545 2.135 . S
O538 Co537 2.061 . S
O538 C541 1.235 . S
C539 O542 1.238 . S
C539 O543 1.241 . S
C540 O533 1.247 . S
C540 O534 1.261 . S
C541 O536 1.259 . S
C541 O538 1.235 . S
O542 Co532 2.021 . S
O542 C539 1.238 . S
O543 Co537 2.052 . S
O543 C539 1.241 . S
O544 Co532 2.137 . S
O544 C535 1.247 . S
O545 Co532 2.244 . S
O545 C535 1.272 . S
O545 Co537 2.135 . S
Co546 O547 2.216 . S
Co546 O548 2.091 . S
Co546 O550 2.004 . S
Co546 O556 2.021 . S
Co546 O558 2.137 . S
Co546 O559 2.244 . S
O547 Co546 2.216 . S
O547 C554 1.247 . S
O548 Co546 2.091 . S
O548 C554 1.261 . S
C549 O558 1.247 . S
C549 O559 1.272 . S
O550 Co546 2.004 . S
O550 C555 1.259 . S
Co551 O552 2.061 . S
Co551 O557 2.052 . S
Co551 O559 2.135 . S
O552 Co551 2.061 . S
O552 C555 1.235 . S
C553 O556 1.238 . S
C553 O557 1.241 . S
C554 O547 1.247 . S
C554 O548 1.261 . S
C555 O550 1.259 . S
C555 O552 1.235 . S
O556 Co546 2.021 . S
O556 C553 1.238 . S
O557 Co551 2.052 . S
O557 C553 1.241 . S
O558 Co546 2.137 . S
O558 C549 1.247 . S
O559 Co546 2.244 . S
O559 C549 1.272 . S
O559 Co551 2.135 . S
Co560 O561 2.216 . S
Co560 O562 2.091 . S
Co560 O564 2.004 . S
Co560 O570 2.021 . S
Co560 O572 2.137 . S
Co560 O573 2.244 . S
O561 Co560 2.216 . S
O561 C568 1.247 . S
O562 Co560 2.091 . S
O562 C568 1.261 . S
C563 O572 1.247 . S
C563 O573 1.272 . S
O564 Co560 2.004 . S
O564 C569 1.259 . S
Co565 O566 2.061 . S
Co565 O571 2.052 . S
Co565 O573 2.135 . S
O566 Co565 2.061 . S
O566 C569 1.235 . S
C567 O570 1.238 . S
C567 O571 1.241 . S
C568 O561 1.247 . S
C568 O562 1.261 . S
C569 O564 1.259 . S
C569 O566 1.235 . S
O570 Co560 2.021 . S
O570 C567 1.238 . S
O571 Co565 2.052 . S
O571 C567 1.241 . S
O572 Co560 2.137 . S
O572 C563 1.247 . S
O573 Co560 2.244 . S
O573 C563 1.272 . S
O573 Co565 2.135 . S
Co574 O575 2.216 . S
Co574 O576 2.091 . S
Co574 O578 2.004 . S
Co574 O584 2.021 . S
Co574 O586 2.137 . S
Co574 O587 2.244 . S
O575 Co574 2.216 . S
O575 C582 1.247 . S
O576 Co574 2.091 . S
O576 C582 1.261 . S
C577 O586 1.247 . S
C577 O587 1.272 . S
O578 Co574 2.004 . S
O578 C583 1.259 . S
Co579 O580 2.061 . S
Co579 O585 2.052 . S
Co579 O587 2.135 . S
O580 Co579 2.061 . S
O580 C583 1.235 . S
C581 O584 1.238 . S
C581 O585 1.241 . S
C582 O575 1.247 . S
C582 O576 1.261 . S
C583 O578 1.259 . S
C583 O580 1.235 . S
O584 Co574 2.021 . S
O584 C581 1.238 . S
O585 Co579 2.052 . S
O585 C581 1.241 . S
O586 Co574 2.137 . S
O586 C577 1.247 . S
O587 Co574 2.244 . S
O587 C577 1.272 . S
O587 Co579 2.135 . S
Co588 O589 2.216 . S
Co588 O590 2.091 . S
Co588 O592 2.004 . S
Co588 O598 2.021 . S
Co588 O600 2.137 . S
Co588 O601 2.244 . S
O589 Co588 2.216 . S
O589 C596 1.247 . S
O590 Co588 2.091 . S
O590 C596 1.261 . S
C591 O600 1.247 . S
C591 O601 1.272 . S
O592 Co588 2.004 . S
O592 C597 1.259 . S
Co593 O594 2.061 1_545 S
Co593 O599 2.052 1_545 S
Co593 O601 2.135 1_545 S
O594 Co593 2.061 1_565 S
O594 C597 1.235 . S
C595 O598 1.238 . S
C595 O599 1.241 . S
C596 O589 1.247 . S
C596 O590 1.261 . S
C597 O592 1.259 . S
C597 O594 1.235 . S
O598 Co588 2.021 . S
O598 C595 1.238 . S
O599 Co593 2.052 1_565 S
O599 C595 1.241 . S
O600 Co588 2.137 . S
O600 C591 1.247 . S
O601 Co588 2.244 . S
O601 C591 1.272 . S
O601 Co593 2.135 1_565 S
Co602 O603 2.216 . S
Co602 O604 2.091 . S
Co602 O606 2.004 . S
Co602 O612 2.021 . S
Co602 O614 2.137 . S
Co602 O615 2.244 . S
O603 Co602 2.216 . S
O603 C610 1.247 . S
O604 Co602 2.091 . S
O604 C610 1.261 . S
C605 O614 1.247 . S
C605 O615 1.272 . S
O606 Co602 2.004 . S
O606 C611 1.259 . S
Co607 O608 2.061 . S
Co607 O613 2.052 . S
Co607 O615 2.135 . S
O608 Co607 2.061 . S
O608 C611 1.235 . S
C609 O612 1.238 . S
C609 O613 1.241 . S
C610 O603 1.247 . S
C610 O604 1.261 . S
C611 O606 1.259 . S
C611 O608 1.235 . S
O612 Co602 2.021 . S
O612 C609 1.238 . S
O613 Co607 2.052 . S
O613 C609 1.241 . S
O614 Co602 2.137 . S
O614 C605 1.247 . S
O615 Co602 2.244 . S
O615 C605 1.272 . S
O615 Co607 2.135 . S
Co616 O617 2.216 . S
Co616 O618 2.091 . S
Co616 O620 2.004 . S
Co616 O626 2.021 . S
Co616 O628 2.137 . S
Co616 O629 2.244 . S
O617 Co616 2.216 . S
O617 C624 1.247 . S
O618 Co616 2.091 . S
O618 C624 1.261 . S
C619 O628 1.247 . S
C619 O629 1.272 . S
O620 Co616 2.004 . S
O620 C625 1.259 . S
Co621 O622 2.061 . S
Co621 O627 2.052 . S
Co621 O629 2.135 . S
O622 Co621 2.061 . S
O622 C625 1.235 . S
C623 O626 1.238 . S
C623 O627 1.241 . S
C624 O617 1.247 . S
C624 O618 1.261 . S
C625 O620 1.259 . S
C625 O622 1.235 . S
O626 Co616 2.021 . S
O626 C623 1.238 . S
O627 Co621 2.052 . S
O627 C623 1.241 . S
O628 Co616 2.137 . S
O628 C619 1.247 . S
O629 Co616 2.244 . S
O629 C619 1.272 . S
O629 Co621 2.135 . S
Co630 O631 2.216 . S
Co630 O632 2.091 . S
Co630 O634 2.004 . S
Co630 O640 2.021 . S
Co630 O642 2.137 . S
Co630 O643 2.244 . S
O631 Co630 2.216 . S
O631 C638 1.247 . S
O632 Co630 2.091 . S
O632 C638 1.261 . S
C633 O642 1.247 . S
C633 O643 1.272 . S
O634 Co630 2.004 . S
O634 C639 1.259 . S
Co635 O636 2.061 . S
Co635 O641 2.052 . S
Co635 O643 2.135 . S
O636 Co635 2.061 . S
O636 C639 1.235 . S
C637 O640 1.238 . S
C637 O641 1.241 . S
C638 O631 1.247 . S
C638 O632 1.261 . S
C639 O634 1.259 . S
C639 O636 1.235 . S
O640 Co630 2.021 . S
O640 C637 1.238 . S
O641 Co635 2.052 . S
O641 C637 1.241 . S
O642 Co630 2.137 . S
O642 C633 1.247 . S
O643 Co630 2.244 . S
O643 C633 1.272 . S
O643 Co635 2.135 . S
Co644 O645 2.216 . S
Co644 O646 2.091 . S
Co644 O648 2.004 . S
Co644 O654 2.021 . S
Co644 O656 2.137 . S
Co644 O657 2.244 . S
O645 Co644 2.216 . S
O645 C652 1.247 . S
O646 Co644 2.091 . S
O646 C652 1.261 . S
C647 O656 1.247 . S
C647 O657 1.272 . S
O648 Co644 2.004 . S
O648 C653 1.259 1_556 S
Co649 O650 2.061 1_565 S
Co649 O655 2.052 1_565 S
Co649 O657 2.135 1_564 S
O650 Co649 2.061 1_545 S
O650 C653 1.235 . S
C651 O654 1.238 . S
C651 O655 1.241 1_556 S
C652 O645 1.247 . S
C652 O646 1.261 . S
C653 O648 1.259 1_554 S
C653 O650 1.235 . S
O654 Co644 2.021 . S
O654 C651 1.238 . S
O655 Co649 2.052 1_545 S
O655 C651 1.241 1_554 S
O656 Co644 2.137 . S
O656 C647 1.247 . S
O657 Co644 2.244 . S
O657 C647 1.272 . S
O657 Co649 2.135 1_546 S
Co658 O659 2.216 . S
Co658 O660 2.091 . S
Co658 O662 2.004 . S
Co658 O668 2.021 . S
Co658 O670 2.137 . S
Co658 O671 2.244 . S
O659 Co658 2.216 . S
O659 C666 1.247 . S
O660 Co658 2.091 . S
O660 C666 1.261 . S
C661 O670 1.247 . S
C661 O671 1.272 . S
O662 Co658 2.004 . S
O662 C667 1.259 . S
Co663 O664 2.061 1_545 S
Co663 O669 2.052 1_545 S
Co663 O671 2.135 1_545 S
O664 Co663 2.061 1_565 S
O664 C667 1.235 . S
C665 O668 1.238 . S
C665 O669 1.241 . S
C666 O659 1.247 . S
C666 O660 1.261 . S
C667 O662 1.259 . S
C667 O664 1.235 . S
O668 Co658 2.021 . S
O668 C665 1.238 . S
O669 Co663 2.052 1_565 S
O669 C665 1.241 . S
O670 Co658 2.137 . S
O670 C661 1.247 . S
O671 Co658 2.244 . S
O671 C661 1.272 . S
O671 Co663 2.135 1_565 S
C672 C673 1.391 . S
C672 C674 1.394 . S
C672 H688 0.931 . S
C673 C672 1.391 . S
C673 C677 1.376 . S
C674 C672 1.394 . S
C674 C675 1.369 . S
C674 C678 1.531 . S
C675 C674 1.369 . S
C675 C676 1.410 . S
C675 C683 1.503 . S
C676 C675 1.410 . S
C676 C677 1.392 . S
C676 C679 1.511 . S
C677 C673 1.376 . S
C677 C676 1.392 . S
C677 H689 0.929 . S
C678 C674 1.531 . S
C678 H690 0.960 . S
C678 H691 0.962 . S
C678 H692 0.960 . S
C679 C676 1.511 . S
C679 H693 0.961 . S
C679 H694 0.961 . S
C679 H695 0.961 . S
C680 C681 1.370 . S
C680 C682 1.363 . S
C680 H696 0.931 . S
C681 C680 1.370 . S
C681 C685 1.408 . S
C682 C680 1.363 . S
C682 C683 1.370 . S
C682 C686 1.524 . S
C683 C675 1.503 . S
C683 C682 1.370 . S
C683 C684 1.403 . S
C684 C683 1.403 . S
C684 C685 1.404 . S
C684 C687 1.539 . S
C685 C681 1.408 . S
C685 C684 1.404 . S
C685 H697 0.930 . S
C686 C682 1.524 . S
C686 H698 0.956 . S
C686 H699 0.961 . S
C686 H700 0.961 . S
C687 C684 1.539 . S
C687 H701 0.958 . S
C687 H702 0.961 . S
C687 H703 0.960 . S
H688 C672 0.931 . S
H689 C677 0.929 . S
H690 C678 0.960 . S
H691 C678 0.962 . S
H692 C678 0.960 . S
H693 C679 0.961 . S
H694 C679 0.961 . S
H695 C679 0.961 . S
H696 C680 0.931 . S
H697 C685 0.930 . S
H698 C686 0.956 . S
H699 C686 0.961 . S
H700 C686 0.961 . S
H701 C687 0.958 . S
H702 C687 0.961 . S
H703 C687 0.960 . S
C704 C705 1.391 . S
C704 C706 1.394 . S
C704 H720 0.931 . S
C705 C704 1.391 . S
C705 C709 1.376 . S
C706 C704 1.394 . S
C706 C707 1.369 . S
C706 C710 1.531 1_455 S
C707 C706 1.369 . S
C707 C708 1.410 . S
C707 C715 1.503 . S
C708 C707 1.410 . S
C708 C709 1.392 . S
C708 C711 1.511 1_565 S
C709 C705 1.376 . S
C709 C708 1.392 . S
C709 H721 0.929 1_565 S
C710 C706 1.531 1_655 S
C710 H722 0.960 . S
C710 H723 0.962 . S
C710 H724 0.960 . S
C711 C708 1.511 1_545 S
C711 H725 0.961 . S
C711 H726 0.961 . S
C711 H727 0.961 1_545 S
C712 C713 1.370 . S
C712 C714 1.363 . S
C712 H728 0.931 . S
C713 C712 1.370 . S
C713 C717 1.408 1_545 S
C714 C712 1.363 . S
C714 C715 1.370 1_545 S
C714 C718 1.524 . S
C715 C707 1.503 . S
C715 C714 1.370 1_565 S
C715 C716 1.403 . S
C716 C715 1.403 . S
C716 C717 1.404 . S
C716 C719 1.539 . S
C717 C713 1.408 1_565 S
C717 C716 1.404 . S
C717 H729 0.930 . S
C718 C714 1.524 . S
C718 H730 0.956 . S
C718 H731 0.961 . S
C718 H732 0.961 . S
C719 C716 1.539 . S
C719 H733 0.958 . S
C719 H734 0.961 . S
C719 H735 0.960 . S
H720 C704 0.931 . S
H721 C709 0.929 1_545 S
H722 C710 0.960 . S
H723 C710 0.962 . S
H724 C710 0.960 . S
H725 C711 0.961 . S
H726 C711 0.961 . S
H727 C711 0.961 1_565 S
H728 C712 0.931 . S
H729 C717 0.930 . S
H730 C718 0.956 . S
H731 C718 0.961 . S
H732 C718 0.961 . S
H733 C719 0.958 . S
H734 C719 0.961 . S
H735 C719 0.960 . S
C736 C737 1.391 . S
C736 C738 1.394 . S
C736 H752 0.931 . S
C737 C736 1.391 . S
C737 C741 1.376 . S
C738 C736 1.394 . S
C738 C739 1.369 . S
C738 C742 1.531 . S
C739 C738 1.369 . S
C739 C740 1.410 . S
C739 C747 1.503 1_556 S
C740 C739 1.410 . S
C740 C741 1.392 . S
C740 C743 1.511 . S
C741 C737 1.376 . S
C741 C740 1.392 . S
C741 H753 0.929 . S
C742 C738 1.531 . S
C742 H754 0.970 . S
C742 H755 0.962 . S
C742 H756 0.960 . S
C743 C740 1.511 . S
C743 H757 0.961 . S
C743 H758 0.961 1_556 S
C743 H759 0.961 . S
C744 C745 1.370 . S
C744 C746 1.363 . S
C744 H760 0.931 . S
C745 C744 1.370 . S
C745 C749 1.408 . S
C746 C744 1.363 . S
C746 C747 1.370 . S
C746 C750 1.524 . S
C747 C739 1.503 1_554 S
C747 C746 1.370 . S
C747 C748 1.403 . S
C748 C747 1.403 . S
C748 C749 1.404 . S
C748 C751 1.539 . S
C749 C745 1.408 . S
C749 C748 1.404 . S
C749 H761 0.930 . S
C750 C746 1.524 . S
C750 H762 0.934 1_554 S
C750 H763 0.961 1_554 S
C750 H764 0.961 . S
C751 C748 1.539 . S
C751 H765 0.958 . S
C751 H766 0.961 . S
C751 H767 0.960 . S
H752 C736 0.931 . S
H753 C741 0.929 . S
H754 C742 0.970 . S
H755 C742 0.962 . S
H756 C742 0.960 . S
H757 C743 0.961 . S
H758 C743 0.961 1_554 S
H759 C743 0.961 . S
H760 C744 0.931 . S
H761 C749 0.930 . S
H762 C750 0.934 1_556 S
H763 C750 0.961 1_556 S
H764 C750 0.961 . S
H765 C751 0.958 . S
H766 C751 0.961 . S
H767 C751 0.960 . S
C768 C769 1.391 1_545 S
C768 C770 1.394 . S
C768 H784 0.931 . S
C769 C768 1.391 1_565 S
C769 C773 1.376 . S
C770 C768 1.394 . S
C770 C771 1.369 . S
C770 C774 1.531 . S
C771 C770 1.369 . S
C771 C772 1.416 . S
C771 C779 1.503 . S
C772 C771 1.416 . S
C772 C773 1.387 1_545 S
C772 C775 1.511 . S
C773 C769 1.376 . S
C773 C772 1.387 1_565 S
C773 H785 0.929 . S
C774 C770 1.531 . S
C774 H786 0.960 . S
C774 H787 0.962 1_545 S
C774 H788 0.960 . S
C775 C772 1.511 . S
C775 H789 0.961 1_545 S
C775 H790 0.961 1_545 S
C775 H791 0.961 . S
C776 C777 1.370 1_565 S
C776 C778 1.363 . S
C776 H792 0.931 . S
C777 C776 1.370 1_545 S
C777 C781 1.408 . S
C778 C776 1.363 . S
C778 C779 1.370 1_565 S
C778 C782 1.524 . S
C779 C771 1.503 . S
C779 C778 1.370 1_545 S
C779 C780 1.403 . S
C780 C779 1.403 . S
C780 C781 1.404 . S
C780 C783 1.539 . S
C781 C777 1.408 . S
C781 C780 1.404 . S
C781 H793 0.930 . S
C782 C778 1.524 . S
C782 H794 0.956 . S
C782 H795 0.961 . S
C782 H796 0.961 . S
C783 C780 1.539 . S
C783 H797 0.958 . S
C783 H798 0.961 . S
C783 H799 0.960 . S
H784 C768 0.931 . S
H785 C773 0.929 . S
H786 C774 0.960 . S
H787 C774 0.962 1_565 S
H788 C774 0.960 . S
H789 C775 0.961 1_565 S
H790 C775 0.961 1_565 S
H791 C775 0.961 . S
H792 C776 0.931 . S
H793 C781 0.930 . S
H794 C782 0.956 . S
H795 C782 0.961 . S
H796 C782 0.961 . S
H797 C783 0.958 . S
H798 C783 0.961 . S
H799 C783 0.960 . S
C800 C801 1.391 . S
C800 C802 1.394 . S
C800 H816 0.931 . S
C801 C800 1.391 . S
C801 C805 1.376 . S
C802 C800 1.394 . S
C802 C803 1.369 . S
C802 C806 1.531 . S
C803 C802 1.369 . S
C803 C804 1.410 . S
C803 C811 1.503 . S
C804 C803 1.410 . S
C804 C805 1.392 . S
C804 C807 1.511 . S
C805 C801 1.376 . S
C805 C804 1.392 . S
C805 H817 0.929 . S
C806 C802 1.531 . S
C806 H818 0.960 . S
C806 H819 0.962 . S
C806 H820 0.960 . S
C807 C804 1.511 . S
C807 H821 0.961 . S
C807 H822 0.961 . S
C807 H823 0.961 . S
C808 C809 1.370 . S
C808 C810 1.363 . S
C808 H824 0.931 . S
C809 C808 1.370 . S
C809 C813 1.408 . S
C810 C808 1.363 . S
C810 C811 1.370 . S
C810 C814 1.524 . S
C811 C803 1.503 . S
C811 C810 1.370 . S
C811 C812 1.403 . S
C812 C811 1.403 . S
C812 C813 1.404 . S
C812 C815 1.539 . S
C813 C809 1.408 . S
C813 C812 1.404 . S
C813 H825 0.930 . S
C814 C810 1.524 . S
C814 H826 0.956 . S
C814 H827 0.961 . S
C814 H828 0.961 . S
C815 C812 1.539 . S
C815 H829 0.958 . S
C815 H830 0.961 . S
C815 H831 0.960 . S
H816 C800 0.931 . S
H817 C805 0.929 . S
H818 C806 0.960 . S
H819 C806 0.962 . S
H820 C806 0.960 . S
H821 C807 0.961 . S
H822 C807 0.961 . S
H823 C807 0.961 . S
H824 C808 0.931 . S
H825 C813 0.930 . S
H826 C814 0.956 . S
H827 C814 0.961 . S
H828 C814 0.961 . S
H829 C815 0.958 . S
H830 C815 0.961 . S
H831 C815 0.960 . S
C832 C833 1.391 1_455 S
C832 C834 1.394 . S
C832 H848 0.931 . S
C833 C832 1.391 1_655 S
C833 C837 1.376 . S
C834 C832 1.394 . S
C834 C835 1.369 1_455 S
C834 C838 1.531 . S
C835 C834 1.369 1_655 S
C835 C836 1.410 . S
C835 C843 1.503 . S
C836 C835 1.410 . S
C836 C837 1.392 . S
C836 C839 1.511 . S
C837 C833 1.376 . S
C837 C836 1.392 . S
C837 H849 0.929 . S
C838 C834 1.531 . S
C838 H850 0.960 . S
C838 H851 0.962 . S
C838 H852 0.960 . S
C839 C836 1.511 . S
C839 H853 0.961 . S
C839 H854 0.961 . S
C839 H855 0.961 . S
C840 C841 1.370 . S
C840 C842 1.363 . S
C840 H856 0.931 . S
C841 C840 1.370 . S
C841 C845 1.408 1_455 S
C842 C840 1.363 . S
C842 C843 1.370 1_455 S
C842 C846 1.524 . S
C843 C835 1.503 . S
C843 C842 1.370 1_655 S
C843 C844 1.403 . S
C844 C843 1.403 . S
C844 C845 1.404 . S
C844 C847 1.539 . S
C845 C841 1.408 1_655 S
C845 C844 1.404 . S
C845 H857 0.930 . S
C846 C842 1.524 . S
C846 H858 0.956 . S
C846 H859 0.961 . S
C846 H860 0.961 . S
C847 C844 1.539 . S
C847 H861 0.958 . S
C847 H862 0.961 . S
C847 H863 0.960 . S
H848 C832 0.931 . S
H849 C837 0.929 . S
H850 C838 0.960 . S
H851 C838 0.962 . S
H852 C838 0.960 . S
H853 C839 0.961 . S
H854 C839 0.961 . S
H855 C839 0.961 . S
H856 C840 0.931 . S
H857 C845 0.930 . S
H858 C846 0.956 . S
H859 C846 0.961 . S
H860 C846 0.961 . S
H861 C847 0.958 . S
H862 C847 0.961 . S
H863 C847 0.960 . S
C864 C865 1.391 . S
C864 C866 1.394 . S
C864 H880 0.931 . S
C865 C864 1.391 . S
C865 C869 1.376 . S
C866 C864 1.394 . S
C866 C867 1.369 . S
C866 C870 1.531 . S
C867 C866 1.369 . S
C867 C868 1.410 . S
C867 C875 1.503 1_455 S
C868 C867 1.410 . S
C868 C869 1.392 . S
C868 C871 1.511 . S
C869 C865 1.376 . S
C869 C868 1.392 . S
C869 H881 0.929 . S
C870 C866 1.531 . S
C870 H882 0.960 1_455 S
C870 H883 0.962 . S
C870 H884 0.960 . S
C871 C868 1.511 . S
C871 H885 0.961 . S
C871 H886 0.961 1_455 S
C871 H887 0.961 . S
C872 C873 1.370 . S
C872 C874 1.363 . S
C872 H888 0.931 . S
C873 C872 1.370 . S
C873 C877 1.408 . S
C874 C872 1.363 . S
C874 C875 1.370 . S
C874 C878 1.524 . S
C875 C867 1.503 1_655 S
C875 C874 1.370 . S
C875 C876 1.403 . S
C876 C875 1.403 . S
C876 C877 1.404 . S
C876 C879 1.539 . S
C877 C873 1.408 . S
C877 C876 1.404 . S
C877 H889 0.930 . S
C878 C874 1.524 . S
C878 H890 0.956 . S
C878 H891 0.961 . S
C878 H892 0.961 . S
C879 C876 1.539 . S
C879 H893 0.958 . S
C879 H894 0.961 . S
C879 H895 0.960 1_655 S
H880 C864 0.931 . S
H881 C869 0.929 . S
H882 C870 0.960 1_655 S
H883 C870 0.962 . S
H884 C870 0.960 . S
H885 C871 0.961 . S
H886 C871 0.961 1_655 S
H887 C871 0.961 . S
H888 C872 0.931 . S
H889 C877 0.930 . S
H890 C878 0.956 . S
H891 C878 0.961 . S
H892 C878 0.961 . S
H893 C879 0.958 . S
H894 C879 0.961 . S
H895 C879 0.960 1_455 S
C896 C897 1.391 . S
C896 C898 1.394 . S
C896 H912 0.931 . S
C897 C896 1.391 . S
C897 C901 1.376 . S
C898 C896 1.394 . S
C898 C899 1.369 . S
C898 C902 1.531 . S
C899 C898 1.369 . S
C899 C900 1.410 . S
C899 C907 1.503 . S
C900 C899 1.410 . S
C900 C901 1.392 . S
C900 C903 1.511 . S
C901 C897 1.376 . S
C901 C900 1.392 . S
C901 H913 0.929 . S
C902 C898 1.531 . S
C902 H914 0.960 . S
C902 H915 0.962 . S
C902 H916 0.960 . S
C903 C900 1.511 . S
C903 H917 0.961 . S
C903 H918 0.961 . S
C903 H919 0.961 . S
C904 C905 1.370 . S
C904 C906 1.363 . S
C904 H920 0.931 . S
C905 C904 1.370 . S
C905 C909 1.408 . S
C906 C904 1.363 . S
C906 C907 1.370 . S
C906 C910 1.524 . S
C907 C899 1.503 . S
C907 C906 1.370 . S
C907 C908 1.403 . S
C908 C907 1.403 . S
C908 C909 1.404 . S
C908 C911 1.539 1_556 S
C909 C905 1.408 . S
C909 C908 1.404 . S
C909 H921 0.898 1_556 S
C910 C906 1.524 . S
C910 H922 0.956 . S
C910 H923 0.961 . S
C910 H924 0.961 . S
C911 C908 1.539 1_554 S
C911 H925 0.958 . S
C911 H926 0.961 . S
C911 H927 0.960 . S
H912 C896 0.931 . S
H913 C901 0.929 . S
H914 C902 0.960 . S
H915 C902 0.962 . S
H916 C902 0.960 . S
H917 C903 0.961 . S
H918 C903 0.961 . S
H919 C903 0.961 . S
H920 C904 0.931 . S
H921 C909 0.898 1_554 S
H922 C910 0.956 . S
H923 C910 0.961 . S
H924 C910 0.961 . S
H925 C911 0.958 . S
H926 C911 0.961 . S
H927 C911 0.960 . S
C928 C929 1.391 . S
C928 C930 1.394 . S
C928 H944 0.931 . S
C929 C928 1.391 . S
C929 C933 1.376 . S
C930 C928 1.394 . S
C930 C931 1.369 . S
C930 C934 1.531 . S
C931 C930 1.369 . S
C931 C932 1.410 . S
C931 C939 1.503 . S
C932 C931 1.410 . S
C932 C933 1.392 . S
C932 C935 1.511 . S
C933 C929 1.376 . S
C933 C932 1.392 . S
C933 H945 0.929 . S
C934 C930 1.531 . S
C934 H946 0.960 . S
C934 H947 0.962 . S
C934 H948 0.960 . S
C935 C932 1.511 . S
C935 H949 0.961 . S
C935 H950 0.961 . S
C935 H951 0.961 . S
C936 C937 1.370 . S
C936 C938 1.363 . S
C936 H952 0.931 . S
C937 C936 1.370 . S
C937 C941 1.408 . S
C938 C936 1.363 . S
C938 C939 1.370 . S
C938 C942 1.524 . S
C939 C931 1.503 . S
C939 C938 1.370 . S
C939 C940 1.403 . S
C940 C939 1.403 . S
C940 C941 1.404 . S
C940 C943 1.539 . S
C941 C937 1.408 . S
C941 C940 1.404 . S
C941 H953 0.930 . S
C942 C938 1.524 . S
C942 H954 0.956 . S
C942 H955 0.961 . S
C942 H956 0.961 . S
C943 C940 1.539 . S
C943 H957 0.958 . S
C943 H958 0.961 . S
C943 H959 0.960 . S
H944 C928 0.931 . S
H945 C933 0.929 . S
H946 C934 0.960 . S
H947 C934 0.962 . S
H948 C934 0.960 . S
H949 C935 0.961 . S
H950 C935 0.961 . S
H951 C935 0.961 . S
H952 C936 0.931 . S
H953 C941 0.930 . S
H954 C942 0.956 . S
H955 C942 0.961 . S
H956 C942 0.961 . S
H957 C943 0.958 . S
H958 C943 0.961 . S
H959 C943 0.960 . S
C960 C961 1.391 . S
C960 C962 1.394 . S
C960 H976 0.931 . S
C961 C960 1.391 . S
C961 C965 1.376 . S
C962 C960 1.394 . S
C962 C963 1.369 . S
C962 C966 1.531 . S
C963 C962 1.369 . S
C963 C964 1.410 . S
C963 C971 1.503 . S
C964 C963 1.410 . S
C964 C965 1.392 . S
C964 C967 1.511 . S
C965 C961 1.376 . S
C965 C964 1.392 . S
C965 H977 0.929 . S
C966 C962 1.531 . S
C966 H978 0.960 . S
C966 H979 0.962 . S
C966 H980 0.960 . S
C967 C964 1.511 . S
C967 H981 0.961 . S
C967 H982 0.961 . S
C967 H983 0.961 . S
C968 C969 1.370 . S
C968 C970 1.363 . S
C968 H984 0.931 . S
C969 C968 1.370 . S
C969 C973 1.408 . S
C970 C968 1.363 . S
C970 C971 1.370 . S
C970 C974 1.524 . S
C971 C963 1.503 . S
C971 C970 1.370 . S
C971 C972 1.403 . S
C972 C971 1.403 . S
C972 C973 1.404 . S
C972 C975 1.539 . S
C973 C969 1.408 . S
C973 C972 1.404 . S
C973 H985 0.930 . S
C974 C970 1.524 . S
C974 H986 0.956 . S
C974 H987 0.961 . S
C974 H988 0.961 . S
C975 C972 1.539 . S
C975 H989 0.958 . S
C975 H990 0.961 . S
C975 H991 0.960 . S
H976 C960 0.931 . S
H977 C965 0.929 . S
H978 C966 0.960 . S
H979 C966 0.962 . S
H980 C966 0.960 . S
H981 C967 0.961 . S
H982 C967 0.961 . S
H983 C967 0.961 . S
H984 C968 0.931 . S
H985 C973 0.930 . S
H986 C974 0.956 . S
H987 C974 0.961 . S
H988 C974 0.961 . S
H989 C975 0.958 . S
H990 C975 0.961 . S
H991 C975 0.960 . S
C992 C993 1.391 . S
C992 C994 1.394 . S
C992 H1008 0.931 . S
C993 C992 1.391 . S
C993 C997 1.376 . S
C994 C992 1.394 . S
C994 C995 1.369 . S
C994 C998 1.531 . S
C995 C994 1.369 . S
C995 C996 1.410 . S
C995 C1003 1.503 1_655 S
C996 C995 1.410 . S
C996 C997 1.392 . S
C996 C999 1.511 . S
C997 C993 1.376 . S
C997 C996 1.392 . S
C997 H1009 0.929 . S
C998 C994 1.531 . S
C998 H1010 0.966 . S
C998 H1011 0.962 . S
C998 H1012 0.960 . S
C999 C996 1.511 . S
C999 H1013 0.961 . S
C999 H1014 0.961 1_655 S
C999 H1015 0.961 . S
C1000 C1001 1.370 . S
C1000 C1002 1.363 . S
C1000 H1016 0.931 . S
C1001 C1000 1.370 . S
C1001 C1005 1.408 . S
C1002 C1000 1.363 . S
C1002 C1003 1.370 . S
C1002 C1006 1.524 . S
C1003 C995 1.503 1_455 S
C1003 C1002 1.370 . S
C1003 C1004 1.403 . S
C1004 C1003 1.403 . S
C1004 C1005 1.404 . S
C1004 C1007 1.539 . S
C1005 C1001 1.408 . S
C1005 C1004 1.404 . S
C1005 H1017 0.930 . S
C1006 C1002 1.524 . S
C1006 H1018 0.956 . S
C1006 H1019 0.961 . S
C1006 H1020 0.961 . S
C1007 C1004 1.539 . S
C1007 H1021 0.958 . S
C1007 H1022 0.961 . S
C1007 H1023 0.960 1_455 S
H1008 C992 0.931 . S
H1009 C997 0.929 . S
H1010 C998 0.966 . S
H1011 C998 0.962 . S
H1012 C998 0.960 . S
H1013 C999 0.961 . S
H1014 C999 0.961 1_455 S
H1015 C999 0.961 . S
H1016 C1000 0.931 . S
H1017 C1005 0.930 . S
H1018 C1006 0.956 . S
H1019 C1006 0.961 . S
H1020 C1006 0.961 . S
H1021 C1007 0.958 . S
H1022 C1007 0.961 . S
H1023 C1007 0.960 1_655 S
C1024 C1025 1.391 1_455 S
C1024 C1026 1.394 . S
C1024 H1040 0.931 . S
C1025 C1024 1.391 1_655 S
C1025 C1029 1.376 . S
C1026 C1024 1.394 . S
C1026 C1027 1.369 1_455 S
C1026 C1030 1.531 . S
C1027 C1026 1.369 1_655 S
C1027 C1028 1.410 . S
C1027 C1035 1.503 . S
C1028 C1027 1.410 . S
C1028 C1029 1.392 . S
C1028 C1031 1.511 . S
C1029 C1025 1.376 . S
C1029 C1028 1.392 . S
C1029 H1041 0.929 . S
C1030 C1026 1.531 . S
C1030 H1042 0.943 1_554 S
C1030 H1043 0.962 . S
C1030 H1044 0.960 1_554 S
C1031 C1028 1.511 . S
C1031 H1045 0.961 . S
C1031 H1046 0.961 . S
C1031 H1047 0.961 . S
C1032 C1033 1.370 . S
C1032 C1034 1.363 . S
C1032 H1048 0.931 . S
C1033 C1032 1.370 . S
C1033 C1037 1.408 1_455 S
C1034 C1032 1.363 . S
C1034 C1035 1.370 1_455 S
C1034 C1038 1.524 . S
C1035 C1027 1.503 . S
C1035 C1034 1.370 1_655 S
C1035 C1036 1.403 . S
C1036 C1035 1.403 . S
C1036 C1037 1.404 . S
C1036 C1039 1.539 1_554 S
C1037 C1033 1.408 1_655 S
C1037 C1036 1.404 . S
C1037 H1049 0.930 . S
C1038 C1034 1.524 . S
C1038 H1050 0.956 . S
C1038 H1051 0.961 . S
C1038 H1052 0.961 . S
C1039 C1036 1.539 1_556 S
C1039 H1053 0.958 . S
C1039 H1054 0.961 . S
C1039 H1055 0.960 1_556 S
H1040 C1024 0.931 . S
H1041 C1029 0.929 . S
H1042 C1030 0.943 1_556 S
H1043 C1030 0.962 . S
H1044 C1030 0.960 1_556 S
H1045 C1031 0.961 . S
H1046 C1031 0.961 . S
H1047 C1031 0.961 . S
H1048 C1032 0.931 . S
H1049 C1037 0.930 . S
H1050 C1038 0.956 . S
H1051 C1038 0.961 . S
H1052 C1038 0.961 . S
H1053 C1039 0.958 . S
H1054 C1039 0.961 . S
H1055 C1039 0.960 1_554 S
C1056 C1057 1.391 . S
C1056 C1058 1.394 . S
C1056 H1072 0.931 . S
C1057 C1056 1.391 . S
C1057 C1061 1.376 . S
C1058 C1056 1.394 . S
C1058 C1059 1.369 . S
C1058 C1062 1.531 . S
C1059 C1058 1.369 . S
C1059 C1060 1.410 . S
C1059 C1067 1.503 . S
C1060 C1059 1.410 . S
C1060 C1061 1.392 . S
C1060 C1063 1.511 . S
C1061 C1057 1.376 . S
C1061 C1060 1.392 . S
C1061 H1073 0.929 . S
C1062 C1058 1.531 . S
C1062 H1074 0.960 . S
C1062 H1075 0.962 . S
C1062 H1076 0.960 . S
C1063 C1060 1.511 . S
C1063 H1077 0.961 . S
C1063 H1078 0.961 . S
C1063 H1079 0.961 . S
C1064 C1065 1.370 . S
C1064 C1066 1.363 . S
C1064 H1080 0.931 . S
C1065 C1064 1.370 . S
C1065 C1069 1.408 . S
C1066 C1064 1.363 . S
C1066 C1067 1.370 . S
C1066 C1070 1.524 . S
C1067 C1059 1.503 . S
C1067 C1066 1.370 . S
C1067 C1068 1.403 . S
C1068 C1067 1.403 . S
C1068 C1069 1.404 . S
C1068 C1071 1.539 . S
C1069 C1065 1.408 . S
C1069 C1068 1.404 . S
C1069 H1081 0.930 . S
C1070 C1066 1.524 . S
C1070 H1082 0.956 . S
C1070 H1083 0.961 . S
C1070 H1084 0.961 . S
C1071 C1068 1.539 . S
C1071 H1085 0.958 . S
C1071 H1086 0.961 . S
C1071 H1087 0.960 . S
H1072 C1056 0.931 . S
H1073 C1061 0.929 . S
H1074 C1062 0.960 . S
H1075 C1062 0.962 . S
H1076 C1062 0.960 . S
H1077 C1063 0.961 . S
H1078 C1063 0.961 . S
H1079 C1063 0.961 . S
H1080 C1064 0.931 . S
H1081 C1069 0.930 . S
H1082 C1070 0.956 . S
H1083 C1070 0.961 . S
H1084 C1070 0.961 . S
H1085 C1071 0.958 . S
H1086 C1071 0.961 . S
H1087 C1071 0.960 . S
C1088 C1089 1.391 . S
C1088 C1090 1.394 . S
C1088 H1104 0.931 . S
C1089 C1088 1.391 . S
C1089 C1093 1.376 . S
C1090 C1088 1.394 . S
C1090 C1091 1.369 . S
C1090 C1094 1.531 . S
C1091 C1090 1.369 . S
C1091 C1092 1.410 . S
C1091 C1099 1.503 1_545 S
C1092 C1091 1.410 . S
C1092 C1093 1.392 . S
C1092 C1095 1.511 . S
C1093 C1089 1.376 . S
C1093 C1092 1.392 . S
C1093 H1105 0.929 . S
C1094 C1090 1.531 . S
C1094 H1106 0.960 1_545 S
C1094 H1107 0.962 . S
C1094 H1108 0.960 . S
C1095 C1092 1.511 . S
C1095 H1109 0.961 . S
C1095 H1110 0.956 . S
C1095 H1111 0.961 . S
C1096 C1097 1.370 . S
C1096 C1098 1.363 . S
C1096 H1112 0.931 . S
C1097 C1096 1.370 . S
C1097 C1101 1.408 . S
C1098 C1096 1.363 . S
C1098 C1099 1.370 . S
C1098 C1102 1.524 . S
C1099 C1091 1.503 1_565 S
C1099 C1098 1.370 . S
C1099 C1100 1.403 . S
C1100 C1099 1.403 . S
C1100 C1101 1.404 . S
C1100 C1103 1.539 . S
C1101 C1097 1.408 . S
C1101 C1100 1.404 . S
C1101 H1113 0.930 . S
C1102 C1098 1.524 . S
C1102 H1114 0.962 . S
C1102 H1115 0.961 1_565 S
C1102 H1116 0.961 . S
C1103 C1100 1.539 . S
C1103 H1117 0.958 . S
C1103 H1118 0.961 . S
C1103 H1119 0.960 . S
H1104 C1088 0.931 . S
H1105 C1093 0.929 . S
H1106 C1094 0.960 1_565 S
H1107 C1094 0.962 . S
H1108 C1094 0.960 . S
H1109 C1095 0.961 . S
H1110 C1095 0.956 . S
H1111 C1095 0.961 . S
H1112 C1096 0.931 . S
H1113 C1101 0.930 . S
H1114 C1102 0.962 . S
H1115 C1102 0.961 1_545 S
H1116 C1102 0.961 . S
H1117 C1103 0.958 . S
H1118 C1103 0.961 . S
H1119 C1103 0.960 . S
C1120 C1121 1.391 . S
C1120 C1122 1.394 . S
C1120 H1136 0.931 . S
C1121 C1120 1.391 . S
C1121 C1125 1.376 1_554 S
C1122 C1120 1.394 . S
C1122 C1123 1.369 1_554 S
C1122 C1126 1.531 . S
C1123 C1122 1.369 1_556 S
C1123 C1124 1.410 . S
C1123 C1131 1.503 . S
C1124 C1123 1.410 . S
C1124 C1125 1.392 . S
C1124 C1127 1.511 . S
C1125 C1121 1.376 1_556 S
C1125 C1124 1.392 . S
C1125 H1137 0.929 . S
C1126 C1122 1.531 . S
C1126 H1138 0.960 . S
C1126 H1139 0.962 . S
C1126 H1140 0.960 . S
C1127 C1124 1.511 . S
C1127 H1141 0.961 . S
C1127 H1142 0.961 . S
C1127 H1143 0.961 . S
C1128 C1129 1.370 1_554 S
C1128 C1130 1.363 . S
C1128 H1144 0.931 . S
C1129 C1128 1.370 1_556 S
C1129 C1133 1.408 . S
C1130 C1128 1.363 . S
C1130 C1131 1.370 1_554 S
C1130 C1134 1.524 . S
C1131 C1123 1.503 . S
C1131 C1130 1.370 1_556 S
C1131 C1132 1.403 . S
C1132 C1131 1.403 . S
C1132 C1133 1.404 . S
C1132 C1135 1.539 . S
C1133 C1129 1.408 . S
C1133 C1132 1.404 . S
C1133 H1145 0.930 . S
C1134 C1130 1.524 . S
C1134 H1146 0.956 . S
C1134 H1147 0.961 . S
C1134 H1148 0.961 . S
C1135 C1132 1.539 . S
C1135 H1149 0.958 . S
C1135 H1150 0.961 . S
C1135 H1151 0.960 . S
H1136 C1120 0.931 . S
H1137 C1125 0.929 . S
H1138 C1126 0.960 . S
H1139 C1126 0.962 . S
H1140 C1126 0.960 . S
H1141 C1127 0.961 . S
H1142 C1127 0.961 . S
H1143 C1127 0.961 . S
H1144 C1128 0.931 . S
H1145 C1133 0.930 . S
H1146 C1134 0.956 . S
H1147 C1134 0.961 . S
H1148 C1134 0.961 . S
H1149 C1135 0.958 . S
H1150 C1135 0.961 . S
H1151 C1135 0.960 . S
C1152 C1153 1.391 . S
C1152 C1154 1.394 . S
C1152 H1168 0.931 . S
C1153 C1152 1.391 . S
C1153 C1157 1.376 . S
C1154 C1152 1.394 . S
C1154 C1155 1.369 . S
C1154 C1158 1.531 . S
C1155 C1154 1.369 . S
C1155 C1156 1.410 . S
C1155 C1163 1.503 1_545 S
C1156 C1155 1.410 . S
C1156 C1157 1.392 . S
C1156 C1159 1.511 . S
C1157 C1153 1.376 . S
C1157 C1156 1.392 . S
C1157 H1169 0.929 . S
C1158 C1154 1.531 . S
C1158 H1170 0.960 1_545 S
C1158 H1171 0.962 . S
C1158 H1172 0.960 . S
C1159 C1156 1.511 . S
C1159 H1173 0.961 . S
C1159 H1174 0.961 1_545 S
C1159 H1175 0.961 . S
C1160 C1161 1.370 . S
C1160 C1162 1.363 . S
C1160 H1176 0.931 . S
C1161 C1160 1.370 . S
C1161 C1165 1.408 . S
C1162 C1160 1.363 . S
C1162 C1163 1.370 . S
C1162 C1166 1.524 . S
C1163 C1155 1.503 1_565 S
C1163 C1162 1.370 . S
C1163 C1164 1.403 . S
C1164 C1163 1.403 . S
C1164 C1165 1.404 . S
C1164 C1167 1.539 . S
C1165 C1161 1.408 . S
C1165 C1164 1.404 . S
C1165 H1177 0.930 . S
C1166 C1162 1.524 . S
C1166 H1178 0.956 1_565 S
C1166 H1179 0.961 1_565 S
C1166 H1180 0.961 . S
C1167 C1164 1.539 . S
C1167 H1181 0.958 . S
C1167 H1182 0.961 . S
C1167 H1183 0.960 . S
H1168 C1152 0.931 . S
H1169 C1157 0.929 . S
H1170 C1158 0.960 1_565 S
H1171 C1158 0.962 . S
H1172 C1158 0.960 . S
H1173 C1159 0.961 . S
H1174 C1159 0.961 1_565 S
H1175 C1159 0.961 . S
H1176 C1160 0.931 . S
H1177 C1165 0.930 . S
H1178 C1166 0.956 1_545 S
H1179 C1166 0.961 1_545 S
H1180 C1166 0.961 . S
H1181 C1167 0.958 . S
H1182 C1167 0.961 . S
H1183 C1167 0.960 . S
C1184 C1185 1.391 1_554 S
C1184 C1186 1.394 . S
C1184 H1200 0.931 . S
C1185 C1184 1.391 1_556 S
C1185 C1189 1.376 . S
C1186 C1184 1.394 . S
C1186 C1187 1.369 1_554 S
C1186 C1190 1.531 . S
C1187 C1186 1.369 1_556 S
C1187 C1188 1.410 . S
C1187 C1195 1.507 . S
C1188 C1187 1.410 . S
C1188 C1189 1.392 . S
C1188 C1191 1.511 . S
C1189 C1185 1.376 . S
C1189 C1188 1.392 . S
C1189 H1201 0.929 . S
C1190 C1186 1.531 . S
C1190 H1202 0.960 . S
C1190 H1203 0.962 . S
C1190 H1204 0.960 1_545 S
C1191 C1188 1.511 . S
C1191 H1205 0.961 . S
C1191 H1206 0.961 . S
C1191 H1207 0.961 . S
C1192 C1193 1.370 . S
C1192 C1194 1.363 . S
C1192 H1208 0.931 . S
C1193 C1192 1.370 . S
C1193 C1197 1.408 1_554 S
C1194 C1192 1.363 . S
C1194 C1195 1.355 1_554 S
C1194 C1198 1.524 . S
C1195 C1187 1.507 . S
C1195 C1194 1.355 1_556 S
C1195 C1196 1.415 . S
C1196 C1195 1.415 . S
C1196 C1197 1.404 . S
C1196 C1199 1.539 1_545 S
C1197 C1193 1.408 1_556 S
C1197 C1196 1.404 . S
C1197 H1209 0.930 . S
C1198 C1194 1.524 . S
C1198 H1210 0.956 . S
C1198 H1211 0.961 . S
C1198 H1212 0.961 . S
C1199 C1196 1.539 1_565 S
C1199 H1213 0.958 . S
C1199 H1214 0.961 . S
C1199 H1215 0.960 . S
H1200 C1184 0.931 . S
H1201 C1189 0.929 . S
H1202 C1190 0.960 . S
H1203 C1190 0.962 . S
H1204 C1190 0.960 1_565 S
H1205 C1191 0.961 . S
H1206 C1191 0.961 . S
H1207 C1191 0.961 . S
H1208 C1192 0.931 . S
H1209 C1197 0.930 . S
H1210 C1198 0.956 . S
H1211 C1198 0.961 . S
H1212 C1198 0.961 . S
H1213 C1199 0.958 . S
H1214 C1199 0.961 . S
H1215 C1199 0.960 . S
C1216 C1217 1.391 . S
C1216 C1218 1.394 . S
C1216 H1232 0.931 . S
C1217 C1216 1.391 . S
C1217 C1221 1.376 . S
C1218 C1216 1.394 . S
C1218 C1219 1.369 . S
C1218 C1222 1.531 . S
C1219 C1218 1.369 . S
C1219 C1220 1.410 . S
C1219 C1227 1.503 . S
C1220 C1219 1.410 . S
C1220 C1221 1.392 . S
C1220 C1223 1.511 . S
C1221 C1217 1.376 . S
C1221 C1220 1.392 . S
C1221 H1233 0.929 . S
C1222 C1218 1.531 . S
C1222 H1234 0.960 . S
C1222 H1235 0.962 . S
C1222 H1236 0.960 . S
C1223 C1220 1.511 . S
C1223 H1237 0.961 . S
C1223 H1238 0.961 . S
C1223 H1239 0.961 . S
C1224 C1225 1.370 . S
C1224 C1226 1.363 . S
C1224 H1240 0.931 . S
C1225 C1224 1.370 . S
C1225 C1229 1.408 . S
C1226 C1224 1.363 . S
C1226 C1227 1.370 . S
C1226 C1230 1.524 . S
C1227 C1219 1.503 . S
C1227 C1226 1.370 . S
C1227 C1228 1.403 . S
C1228 C1227 1.403 . S
C1228 C1229 1.404 . S
C1228 C1231 1.539 . S
C1229 C1225 1.408 . S
C1229 C1228 1.404 . S
C1229 H1241 0.930 . S
C1230 C1226 1.524 . S
C1230 H1242 0.956 . S
C1230 H1243 0.961 . S
C1230 H1244 0.961 . S
C1231 C1228 1.539 . S
C1231 H1245 0.958 . S
C1231 H1246 0.961 . S
C1231 H1247 0.960 . S
H1232 C1216 0.931 . S
H1233 C1221 0.929 . S
H1234 C1222 0.960 . S
H1235 C1222 0.962 . S
H1236 C1222 0.960 . S
H1237 C1223 0.961 . S
H1238 C1223 0.961 . S
H1239 C1223 0.961 . S
H1240 C1224 0.931 . S
H1241 C1229 0.930 . S
H1242 C1230 0.956 . S
H1243 C1230 0.961 . S
H1244 C1230 0.961 . S
H1245 C1231 0.958 . S
H1246 C1231 0.961 . S
H1247 C1231 0.960 . S
C1248 C1249 1.391 . S
C1248 C1250 1.394 . S
C1248 H1264 0.931 . S
C1249 C1248 1.391 . S
C1249 C1253 1.376 . S
C1250 C1248 1.394 . S
C1250 C1251 1.369 . S
C1250 C1254 1.531 . S
C1251 C1250 1.369 . S
C1251 C1252 1.410 . S
C1251 C1259 1.503 . S
C1252 C1251 1.410 . S
C1252 C1253 1.392 . S
C1252 C1255 1.511 . S
C1253 C1249 1.376 . S
C1253 C1252 1.392 . S
C1253 H1265 0.929 . S
C1254 C1250 1.531 . S
C1254 H1266 0.960 . S
C1254 H1267 0.962 . S
C1254 H1268 0.960 . S
C1255 C1252 1.511 . S
C1255 H1269 0.961 . S
C1255 H1270 0.961 . S
C1255 H1271 0.961 . S
C1256 C1257 1.370 . S
C1256 C1258 1.363 . S
C1256 H1272 0.931 . S
C1257 C1256 1.370 . S
C1257 C1261 1.408 . S
C1258 C1256 1.363 . S
C1258 C1259 1.370 . S
C1258 C1262 1.524 . S
C1259 C1251 1.503 . S
C1259 C1258 1.370 . S
C1259 C1260 1.403 . S
C1260 C1259 1.403 . S
C1260 C1261 1.404 . S
C1260 C1263 1.539 . S
C1261 C1257 1.408 . S
C1261 C1260 1.404 . S
C1261 H1273 0.930 . S
C1262 C1258 1.524 . S
C1262 H1274 0.956 . S
C1262 H1275 0.961 . S
C1262 H1276 0.961 . S
C1263 C1260 1.539 . S
C1263 H1277 0.958 . S
C1263 H1278 0.961 . S
C1263 H1279 0.960 . S
H1264 C1248 0.931 . S
H1265 C1253 0.929 . S
H1266 C1254 0.960 . S
H1267 C1254 0.962 . S
H1268 C1254 0.960 . S
H1269 C1255 0.961 . S
H1270 C1255 0.961 . S
H1271 C1255 0.961 . S
H1272 C1256 0.931 . S
H1273 C1261 0.930 . S
H1274 C1262 0.956 . S
H1275 C1262 0.961 . S
H1276 C1262 0.961 . S
H1277 C1263 0.958 . S
H1278 C1263 0.961 . S
H1279 C1263 0.960 . S
C1280 C1281 1.391 . S
C1280 C1282 1.394 . S
C1280 H1296 0.931 . S
C1281 C1280 1.391 . S
C1281 C1285 1.376 . S
C1282 C1280 1.394 . S
C1282 C1283 1.369 . S
C1282 C1286 1.531 . S
C1283 C1282 1.369 . S
C1283 C1284 1.410 . S
C1283 C1291 1.503 1_554 S
C1284 C1283 1.410 . S
C1284 C1285 1.392 . S
C1284 C1287 1.511 . S
C1285 C1281 1.376 . S
C1285 C1284 1.392 . S
C1285 H1297 0.929 . S
C1286 C1282 1.531 . S
C1286 H1298 0.969 . S
C1286 H1299 0.962 . S
C1286 H1300 0.960 . S
C1287 C1284 1.511 . S
C1287 H1301 0.961 . S
C1287 H1302 0.961 1_554 S
C1287 H1303 0.961 . S
C1288 C1289 1.370 . S
C1288 C1290 1.363 . S
C1288 H1304 0.931 . S
C1289 C1288 1.370 . S
C1289 C1293 1.408 . S
C1290 C1288 1.363 . S
C1290 C1291 1.370 . S
C1290 C1294 1.524 . S
C1291 C1283 1.503 1_556 S
C1291 C1290 1.370 . S
C1291 C1292 1.403 . S
C1292 C1291 1.403 . S
C1292 C1293 1.404 . S
C1292 C1295 1.539 . S
C1293 C1289 1.408 . S
C1293 C1292 1.404 . S
C1293 H1305 0.930 . S
C1294 C1290 1.524 . S
C1294 H1306 0.933 1_556 S
C1294 H1307 0.961 1_556 S
C1294 H1308 0.961 . S
C1295 C1292 1.539 . S
C1295 H1309 0.958 . S
C1295 H1310 0.961 . S
C1295 H1311 0.960 . S
H1296 C1280 0.931 . S
H1297 C1285 0.929 . S
H1298 C1286 0.969 . S
H1299 C1286 0.962 . S
H1300 C1286 0.960 . S
H1301 C1287 0.961 . S
H1302 C1287 0.961 1_556 S
H1303 C1287 0.961 . S
H1304 C1288 0.931 . S
H1305 C1293 0.930 . S
H1306 C1294 0.933 1_554 S
H1307 C1294 0.961 1_554 S
H1308 C1294 0.961 . S
H1309 C1295 0.958 . S
H1310 C1295 0.961 . S
H1311 C1295 0.960 . S
C1312 C1313 1.391 . S
C1312 C1314 1.394 . S
C1312 H1328 0.931 . S
C1313 C1312 1.391 . S
C1313 C1317 1.376 . S
C1314 C1312 1.394 . S
C1314 C1315 1.369 . S
C1314 C1318 1.531 . S
C1315 C1314 1.369 . S
C1315 C1316 1.410 . S
C1315 C1323 1.503 . S
C1316 C1315 1.410 . S
C1316 C1317 1.392 . S
C1316 C1319 1.511 . S
C1317 C1313 1.376 . S
C1317 C1316 1.392 . S
C1317 H1329 0.929 . S
C1318 C1314 1.531 . S
C1318 H1330 0.960 . S
C1318 H1331 0.962 . S
C1318 H1332 0.960 . S
C1319 C1316 1.511 . S
C1319 H1333 0.961 . S
C1319 H1334 0.961 . S
C1319 H1335 0.961 . S
C1320 C1321 1.370 . S
C1320 C1322 1.363 . S
C1320 H1336 0.931 . S
C1321 C1320 1.370 . S
C1321 C1325 1.408 . S
C1322 C1320 1.363 . S
C1322 C1323 1.370 . S
C1322 C1326 1.524 . S
C1323 C1315 1.503 . S
C1323 C1322 1.370 . S
C1323 C1324 1.403 . S
C1324 C1323 1.403 . S
C1324 C1325 1.404 . S
C1324 C1327 1.539 . S
C1325 C1321 1.408 . S
C1325 C1324 1.404 . S
C1325 H1337 0.930 . S
C1326 C1322 1.524 . S
C1326 H1338 0.956 . S
C1326 H1339 0.961 . S
C1326 H1340 0.961 . S
C1327 C1324 1.539 . S
C1327 H1341 0.958 . S
C1327 H1342 0.961 . S
C1327 H1343 0.960 . S
H1328 C1312 0.931 . S
H1329 C1317 0.929 . S
H1330 C1318 0.960 . S
H1331 C1318 0.962 . S
H1332 C1318 0.960 . S
H1333 C1319 0.961 . S
H1334 C1319 0.961 . S
H1335 C1319 0.961 . S
H1336 C1320 0.931 . S
H1337 C1325 0.930 . S
H1338 C1326 0.956 . S
H1339 C1326 0.961 . S
H1340 C1326 0.961 . S
H1341 C1327 0.958 . S
H1342 C1327 0.961 . S
H1343 C1327 0.960 . S
C1344 C1345 1.391 . S
C1344 C1346 1.394 . S
C1344 H1360 0.931 . S
C1345 C1344 1.391 . S
C1345 C1349 1.376 . S
C1346 C1344 1.394 . S
C1346 C1347 1.369 . S
C1346 C1350 1.531 . S
C1347 C1346 1.369 . S
C1347 C1348 1.410 . S
C1347 C1355 1.503 . S
C1348 C1347 1.410 . S
C1348 C1349 1.392 . S
C1348 C1351 1.511 . S
C1349 C1345 1.376 . S
C1349 C1348 1.392 . S
C1349 H1361 0.929 . S
C1350 C1346 1.531 . S
C1350 H1362 0.960 . S
C1350 H1363 0.962 . S
C1350 H1364 0.960 . S
C1351 C1348 1.511 . S
C1351 H1365 0.961 . S
C1351 H1366 0.961 . S
C1351 H1367 0.961 . S
C1352 C1353 1.370 . S
C1352 C1354 1.363 . S
C1352 H1368 0.931 . S
C1353 C1352 1.370 . S
C1353 C1357 1.408 . S
C1354 C1352 1.363 . S
C1354 C1355 1.370 . S
C1354 C1358 1.524 . S
C1355 C1347 1.503 . S
C1355 C1354 1.370 . S
C1355 C1356 1.403 . S
C1356 C1355 1.403 . S
C1356 C1357 1.404 . S
C1356 C1359 1.539 . S
C1357 C1353 1.408 . S
C1357 C1356 1.404 . S
C1357 H1369 0.930 . S
C1358 C1354 1.524 . S
C1358 H1370 0.956 . S
C1358 H1371 0.961 . S
C1358 H1372 0.961 . S
C1359 C1356 1.539 . S
C1359 H1373 0.958 . S
C1359 H1374 0.961 . S
C1359 H1375 0.960 . S
H1360 C1344 0.931 . S
H1361 C1349 0.929 . S
H1362 C1350 0.960 . S
H1363 C1350 0.962 . S
H1364 C1350 0.960 . S
H1365 C1351 0.961 . S
H1366 C1351 0.961 . S
H1367 C1351 0.961 . S
H1368 C1352 0.931 . S
H1369 C1357 0.930 . S
H1370 C1358 0.956 . S
H1371 C1358 0.961 . S
H1372 C1358 0.961 . S
H1373 C1359 0.958 . S
H1374 C1359 0.961 . S
H1375 C1359 0.960 . S
C1376 C1377 1.391 . S
C1376 C1378 1.394 . S
C1376 H1392 0.931 . S
C1377 C1376 1.391 . S
C1377 C1381 1.376 . S
C1378 C1376 1.394 . S
C1378 C1379 1.369 . S
C1378 C1382 1.531 . S
C1379 C1378 1.369 . S
C1379 C1380 1.410 . S
C1379 C1387 1.503 . S
C1380 C1379 1.410 . S
C1380 C1381 1.392 . S
C1380 C1383 1.511 . S
C1381 C1377 1.376 . S
C1381 C1380 1.392 . S
C1381 H1393 0.929 . S
C1382 C1378 1.531 . S
C1382 H1394 0.960 . S
C1382 H1395 0.962 1_655 S
C1382 H1396 0.960 . S
C1383 C1380 1.511 . S
C1383 H1397 0.961 . S
C1383 H1398 0.961 . S
C1383 H1399 0.961 . S
C1384 C1385 1.370 . S
C1384 C1386 1.363 . S
C1384 H1400 0.931 . S
C1385 C1384 1.370 . S
C1385 C1389 1.408 . S
C1386 C1384 1.363 . S
C1386 C1387 1.370 . S
C1386 C1390 1.524 . S
C1387 C1379 1.503 . S
C1387 C1386 1.370 . S
C1387 C1388 1.403 . S
C1388 C1387 1.403 . S
C1388 C1389 1.404 . S
C1388 C1391 1.539 . S
C1389 C1385 1.408 . S
C1389 C1388 1.404 . S
C1389 H1401 0.930 . S
C1390 C1386 1.524 . S
C1390 H1402 0.956 1_655 S
C1390 H1403 0.961 . S
C1390 H1404 0.961 1_655 S
C1391 C1388 1.539 . S
C1391 H1405 0.958 . S
C1391 H1406 0.961 . S
C1391 H1407 0.960 . S
H1392 C1376 0.931 . S
H1393 C1381 0.929 . S
H1394 C1382 0.960 . S
H1395 C1382 0.962 1_455 S
H1396 C1382 0.960 . S
H1397 C1383 0.961 . S
H1398 C1383 0.961 . S
H1399 C1383 0.961 . S
H1400 C1384 0.931 . S
H1401 C1389 0.930 . S
H1402 C1390 0.956 1_455 S
H1403 C1390 0.961 . S
H1404 C1390 0.961 1_455 S
H1405 C1391 0.958 . S
H1406 C1391 0.961 . S
H1407 C1391 0.960 . S
C1408 C1409 1.391 . S
C1408 C1410 1.394 . S
C1408 H1424 0.931 . S
C1409 C1408 1.391 . S
C1409 C1413 1.376 . S
C1410 C1408 1.394 . S
C1410 C1411 1.369 . S
C1410 C1414 1.531 . S
C1411 C1410 1.369 . S
C1411 C1412 1.410 . S
C1411 C1419 1.503 . S
C1412 C1411 1.410 . S
C1412 C1413 1.392 . S
C1412 C1415 1.511 . S
C1413 C1409 1.376 . S
C1413 C1412 1.392 . S
C1413 H1425 0.929 . S
C1414 C1410 1.531 . S
C1414 H1426 0.960 . S
C1414 H1427 0.962 . S
C1414 H1428 0.960 . S
C1415 C1412 1.511 . S
C1415 H1429 0.961 . S
C1415 H1430 0.961 . S
C1415 H1431 0.961 . S
C1416 C1417 1.370 . S
C1416 C1418 1.363 . S
C1416 H1432 0.931 . S
C1417 C1416 1.370 . S
C1417 C1421 1.408 . S
C1418 C1416 1.363 . S
C1418 C1419 1.370 . S
C1418 C1422 1.524 . S
C1419 C1411 1.503 . S
C1419 C1418 1.370 . S
C1419 C1420 1.403 . S
C1420 C1419 1.403 . S
C1420 C1421 1.404 . S
C1420 C1423 1.539 1_565 S
C1421 C1417 1.408 . S
C1421 C1420 1.404 . S
C1421 H1433 0.915 1_565 S
C1422 C1418 1.524 . S
C1422 H1434 0.956 . S
C1422 H1435 0.961 . S
C1422 H1436 0.961 . S
C1423 C1420 1.539 1_545 S
C1423 H1437 0.958 . S
C1423 H1438 0.961 . S
C1423 H1439 0.960 . S
H1424 C1408 0.931 . S
H1425 C1413 0.929 . S
H1426 C1414 0.960 . S
H1427 C1414 0.962 . S
H1428 C1414 0.960 . S
H1429 C1415 0.961 . S
H1430 C1415 0.961 . S
H1431 C1415 0.961 . S
H1432 C1416 0.931 . S
H1433 C1421 0.915 1_545 S
H1434 C1422 0.956 . S
H1435 C1422 0.961 . S
H1436 C1422 0.961 . S
H1437 C1423 0.958 . S
H1438 C1423 0.961 . S
H1439 C1423 0.960 . S
C1440 C1441 1.391 . S
C1440 C1442 1.394 . S
C1440 H1456 0.931 . S
C1441 C1440 1.391 . S
C1441 C1445 1.376 . S
C1442 C1440 1.394 . S
C1442 C1443 1.369 . S
C1442 C1446 1.531 . S
C1443 C1442 1.369 . S
C1443 C1444 1.410 . S
C1443 C1451 1.503 . S
C1444 C1443 1.410 . S
C1444 C1445 1.392 . S
C1444 C1447 1.511 . S
C1445 C1441 1.376 . S
C1445 C1444 1.392 . S
C1445 H1457 0.929 . S
C1446 C1442 1.531 . S
C1446 H1458 0.960 . S
C1446 H1459 0.962 . S
C1446 H1460 0.960 . S
C1447 C1444 1.511 . S
C1447 H1461 0.961 . S
C1447 H1462 0.961 . S
C1447 H1463 0.961 . S
C1448 C1449 1.370 . S
C1448 C1450 1.363 . S
C1448 H1464 0.931 . S
C1449 C1448 1.370 . S
C1449 C1453 1.408 . S
C1450 C1448 1.363 . S
C1450 C1451 1.370 . S
C1450 C1454 1.524 . S
C1451 C1443 1.503 . S
C1451 C1450 1.370 . S
C1451 C1452 1.403 . S
C1452 C1451 1.403 . S
C1452 C1453 1.404 . S
C1452 C1455 1.539 . S
C1453 C1449 1.408 . S
C1453 C1452 1.404 . S
C1453 H1465 0.930 . S
C1454 C1450 1.524 . S
C1454 H1466 0.956 . S
C1454 H1467 0.961 . S
C1454 H1468 0.961 . S
C1455 C1452 1.539 . S
C1455 H1469 0.958 . S
C1455 H1470 0.961 . S
C1455 H1471 0.960 . S
H1456 C1440 0.931 . S
H1457 C1445 0.929 . S
H1458 C1446 0.960 . S
H1459 C1446 0.962 . S
H1460 C1446 0.960 . S
H1461 C1447 0.961 . S
H1462 C1447 0.961 . S
H1463 C1447 0.961 . S
H1464 C1448 0.931 . S
H1465 C1453 0.930 . S
H1466 C1454 0.956 . S
H1467 C1454 0.961 . S
H1468 C1454 0.961 . S
H1469 C1455 0.958 . S
H1470 C1455 0.961 . S
H1471 C1455 0.960 . S
C1472 C1473 1.391 . S
C1472 C1474 1.394 . S
C1472 H1488 0.931 . S
C1473 C1472 1.391 . S
C1473 C1477 1.376 . S
C1474 C1472 1.394 . S
C1474 C1475 1.369 . S
C1474 C1478 1.531 . S
C1475 C1474 1.369 . S
C1475 C1476 1.410 . S
C1475 C1483 1.503 . S
C1476 C1475 1.410 . S
C1476 C1477 1.392 . S
C1476 C1479 1.511 . S
C1477 C1473 1.376 . S
C1477 C1476 1.392 . S
C1477 H1489 0.929 1_655 S
C1478 C1474 1.531 . S
C1478 H1490 0.960 . S
C1478 H1491 0.962 . S
C1478 H1492 0.962 . S
C1479 C1476 1.511 . S
C1479 H1493 0.961 . S
C1479 H1494 0.961 . S
C1479 H1495 0.961 . S
C1480 C1481 1.370 . S
C1480 C1482 1.363 . S
C1480 H1496 0.931 . S
C1481 C1480 1.370 . S
C1481 C1485 1.408 . S
C1482 C1480 1.363 . S
C1482 C1483 1.370 . S
C1482 C1486 1.524 . S
C1483 C1475 1.503 . S
C1483 C1482 1.370 . S
C1483 C1484 1.403 . S
C1484 C1483 1.403 . S
C1484 C1485 1.404 . S
C1484 C1487 1.539 . S
C1485 C1481 1.408 . S
C1485 C1484 1.404 . S
C1485 H1497 0.930 . S
C1486 C1482 1.524 . S
C1486 H1498 0.956 . S
C1486 H1499 0.961 . S
C1486 H1500 0.961 . S
C1487 C1484 1.539 . S
C1487 H1501 0.958 1_565 S
C1487 H1502 0.961 . S
C1487 H1503 0.960 . S
H1488 C1472 0.931 . S
H1489 C1477 0.929 1_455 S
H1490 C1478 0.960 . S
H1491 C1478 0.962 . S
H1492 C1478 0.962 . S
H1493 C1479 0.961 . S
H1494 C1479 0.961 . S
H1495 C1479 0.961 . S
H1496 C1480 0.931 . S
H1497 C1485 0.930 . S
H1498 C1486 0.956 . S
H1499 C1486 0.961 . S
H1500 C1486 0.961 . S
H1501 C1487 0.958 1_545 S
H1502 C1487 0.961 . S
H1503 C1487 0.960 . S
C1504 C1505 1.391 . S
C1504 C1506 1.394 . S
C1504 H1520 0.931 . S
C1505 C1504 1.391 . S
C1505 C1509 1.376 . S
C1506 C1504 1.394 . S
C1506 C1507 1.369 . S
C1506 C1510 1.531 . S
C1507 C1506 1.369 . S
C1507 C1508 1.410 . S
C1507 C1515 1.503 . S
C1508 C1507 1.410 . S
C1508 C1509 1.392 . S
C1508 C1511 1.511 . S
C1509 C1505 1.376 . S
C1509 C1508 1.392 . S
C1509 H1521 0.929 . S
C1510 C1506 1.531 . S
C1510 H1522 0.960 . S
C1510 H1523 0.962 . S
C1510 H1524 0.960 . S
C1511 C1508 1.511 . S
C1511 H1525 0.961 . S
C1511 H1526 0.961 . S
C1511 H1527 0.961 . S
C1512 C1513 1.370 . S
C1512 C1514 1.363 . S
C1512 H1528 0.931 . S
C1513 C1512 1.370 . S
C1513 C1517 1.408 . S
C1514 C1512 1.363 . S
C1514 C1515 1.370 . S
C1514 C1518 1.524 . S
C1515 C1507 1.503 . S
C1515 C1514 1.370 . S
C1515 C1516 1.403 . S
C1516 C1515 1.403 . S
C1516 C1517 1.404 . S
C1516 C1519 1.539 . S
C1517 C1513 1.408 . S
C1517 C1516 1.404 . S
C1517 H1529 0.930 . S
C1518 C1514 1.524 . S
C1518 H1530 0.956 . S
C1518 H1531 0.961 . S
C1518 H1532 0.961 . S
C1519 C1516 1.539 . S
C1519 H1533 0.958 . S
C1519 H1534 0.961 . S
C1519 H1535 0.960 . S
H1520 C1504 0.931 . S
H1521 C1509 0.929 . S
H1522 C1510 0.960 . S
H1523 C1510 0.962 . S
H1524 C1510 0.960 . S
H1525 C1511 0.961 . S
H1526 C1511 0.961 . S
H1527 C1511 0.961 . S
H1528 C1512 0.931 . S
H1529 C1517 0.930 . S
H1530 C1518 0.956 . S
H1531 C1518 0.961 . S
H1532 C1518 0.961 . S
H1533 C1519 0.958 . S
H1534 C1519 0.961 . S
H1535 C1519 0.960 . S
C1536 C1537 1.391 . S
C1536 C1538 1.394 . S
C1536 H1552 0.931 . S
C1537 C1536 1.391 . S
C1537 C1541 1.376 . S
C1538 C1536 1.394 . S
C1538 C1539 1.369 . S
C1538 C1542 1.531 . S
C1539 C1538 1.369 . S
C1539 C1540 1.410 . S
C1539 C1547 1.503 . S
C1540 C1539 1.410 . S
C1540 C1541 1.392 . S
C1540 C1543 1.511 . S
C1541 C1537 1.376 . S
C1541 C1540 1.392 . S
C1541 H1553 0.929 . S
C1542 C1538 1.531 . S
C1542 H1554 0.960 . S
C1542 H1555 0.962 . S
C1542 H1556 0.960 . S
C1543 C1540 1.511 . S
C1543 H1557 0.961 1_545 S
C1543 H1558 0.961 . S
C1543 H1559 0.961 . S
C1544 C1545 1.370 . S
C1544 C1546 1.363 . S
C1544 H1560 0.931 . S
C1545 C1544 1.370 . S
C1545 C1549 1.408 . S
C1546 C1544 1.363 . S
C1546 C1547 1.370 . S
C1546 C1550 1.524 . S
C1547 C1539 1.503 . S
C1547 C1546 1.370 . S
C1547 C1548 1.403 . S
C1548 C1547 1.403 . S
C1548 C1549 1.404 . S
C1548 C1551 1.539 . S
C1549 C1545 1.408 . S
C1549 C1548 1.404 . S
C1549 H1561 0.930 . S
C1550 C1546 1.524 . S
C1550 H1562 0.956 . S
C1550 H1563 0.961 . S
C1550 H1564 0.961 . S
C1551 C1548 1.539 . S
C1551 H1565 0.958 . S
C1551 H1566 0.961 . S
C1551 H1567 0.960 . S
H1552 C1536 0.931 . S
H1553 C1541 0.929 . S
H1554 C1542 0.960 . S
H1555 C1542 0.962 . S
H1556 C1542 0.960 . S
H1557 C1543 0.961 1_565 S
H1558 C1543 0.961 . S
H1559 C1543 0.961 . S
H1560 C1544 0.931 . S
H1561 C1549 0.930 . S
H1562 C1550 0.956 . S
H1563 C1550 0.961 . S
H1564 C1550 0.961 . S
H1565 C1551 0.958 . S
H1566 C1551 0.961 . S
H1567 C1551 0.960 . S
C1568 C1569 1.391 . S
C1568 C1570 1.394 . S
C1568 H1584 0.931 . S
C1569 C1568 1.391 . S
C1569 C1573 1.376 . S
C1570 C1568 1.394 . S
C1570 C1571 1.369 . S
C1570 C1574 1.531 . S
C1571 C1570 1.369 . S
C1571 C1572 1.410 . S
C1571 C1579 1.503 . S
C1572 C1571 1.410 . S
C1572 C1573 1.392 . S
C1572 C1575 1.511 . S
C1573 C1569 1.376 . S
C1573 C1572 1.392 . S
C1573 H1585 0.929 . S
C1574 C1570 1.531 . S
C1574 H1586 0.960 . S
C1574 H1587 0.962 . S
C1574 H1588 0.960 . S
C1575 C1572 1.511 . S
C1575 H1589 0.961 . S
C1575 H1590 0.961 . S
C1575 H1591 0.961 . S
C1576 C1577 1.370 . S
C1576 C1578 1.363 . S
C1576 H1592 0.931 . S
C1577 C1576 1.370 . S
C1577 C1581 1.408 . S
C1578 C1576 1.363 . S
C1578 C1579 1.370 . S
C1578 C1582 1.524 . S
C1579 C1571 1.503 . S
C1579 C1578 1.370 . S
C1579 C1580 1.403 . S
C1580 C1579 1.403 . S
C1580 C1581 1.404 . S
C1580 C1583 1.539 . S
C1581 C1577 1.408 . S
C1581 C1580 1.404 . S
C1581 H1593 0.930 . S
C1582 C1578 1.524 . S
C1582 H1594 0.956 . S
C1582 H1595 0.961 . S
C1582 H1596 0.961 . S
C1583 C1580 1.539 . S
C1583 H1597 0.958 . S
C1583 H1598 0.961 . S
C1583 H1599 0.960 . S
H1584 C1568 0.931 . S
H1585 C1573 0.929 . S
H1586 C1574 0.960 . S
H1587 C1574 0.962 . S
H1588 C1574 0.960 . S
H1589 C1575 0.961 . S
H1590 C1575 0.961 . S
H1591 C1575 0.961 . S
H1592 C1576 0.931 . S
H1593 C1581 0.930 . S
H1594 C1582 0.956 . S
H1595 C1582 0.961 . S
H1596 C1582 0.961 . S
H1597 C1583 0.958 . S
H1598 C1583 0.961 . S
H1599 C1583 0.960 . S
C1600 C1601 1.391 . S
C1600 C1602 1.394 . S
C1600 H1616 0.931 . S
C1601 C1600 1.391 . S
C1601 C1605 1.376 . S
C1602 C1600 1.394 . S
C1602 C1603 1.369 . S
C1602 C1606 1.531 . S
C1603 C1602 1.369 . S
C1603 C1604 1.410 . S
C1603 C1611 1.503 . S
C1604 C1603 1.410 . S
C1604 C1605 1.392 . S
C1604 C1607 1.511 . S
C1605 C1601 1.376 . S
C1605 C1604 1.392 . S
C1605 H1617 0.929 . S
C1606 C1602 1.531 . S
C1606 H1618 0.960 . S
C1606 H1619 0.962 . S
C1606 H1620 0.960 . S
C1607 C1604 1.511 . S
C1607 H1621 0.961 . S
C1607 H1622 0.961 . S
C1607 H1623 0.961 . S
C1608 C1609 1.370 . S
C1608 C1610 1.363 . S
C1608 H1624 0.931 . S
C1609 C1608 1.370 . S
C1609 C1613 1.408 . S
C1610 C1608 1.363 . S
C1610 C1611 1.370 . S
C1610 C1614 1.524 . S
C1611 C1603 1.503 . S
C1611 C1610 1.370 . S
C1611 C1612 1.403 . S
C1612 C1611 1.403 . S
C1612 C1613 1.404 . S
C1612 C1615 1.539 1_565 S
C1613 C1609 1.408 . S
C1613 C1612 1.404 . S
C1613 H1625 0.930 . S
C1614 C1610 1.524 . S
C1614 H1626 0.956 . S
C1614 H1627 0.961 . S
C1614 H1628 0.961 . S
C1615 C1612 1.539 1_545 S
C1615 H1629 0.958 . S
C1615 H1630 0.961 . S
C1615 H1631 0.960 1_545 S
H1616 C1600 0.931 . S
H1617 C1605 0.929 . S
H1618 C1606 0.960 . S
H1619 C1606 0.962 . S
H1620 C1606 0.960 . S
H1621 C1607 0.961 . S
H1622 C1607 0.961 . S
H1623 C1607 0.961 . S
H1624 C1608 0.931 . S
H1625 C1613 0.930 . S
H1626 C1614 0.956 . S
H1627 C1614 0.961 . S
H1628 C1614 0.961 . S
H1629 C1615 0.958 . S
H1630 C1615 0.961 . S
H1631 C1615 0.960 1_565 S
C1632 C1633 1.391 . S
C1632 C1634 1.394 . S
C1632 H1648 0.931 . S
C1633 C1632 1.391 . S
C1633 C1637 1.376 . S
C1634 C1632 1.394 . S
C1634 C1635 1.369 . S
C1634 C1638 1.531 . S
C1635 C1634 1.369 . S
C1635 C1636 1.410 . S
C1635 C1643 1.503 . S
C1636 C1635 1.410 . S
C1636 C1637 1.392 . S
C1636 C1639 1.511 . S
C1637 C1633 1.376 . S
C1637 C1636 1.392 . S
C1637 H1649 0.929 . S
C1638 C1634 1.531 . S
C1638 H1650 0.960 . S
C1638 H1651 0.962 . S
C1638 H1652 0.960 . S
C1639 C1636 1.511 . S
C1639 H1653 0.961 . S
C1639 H1654 0.961 . S
C1639 H1655 0.961 . S
C1640 C1641 1.370 . S
C1640 C1642 1.363 . S
C1640 H1656 0.931 . S
C1641 C1640 1.370 . S
C1641 C1645 1.408 . S
C1642 C1640 1.363 . S
C1642 C1643 1.370 . S
C1642 C1646 1.524 . S
C1643 C1635 1.503 . S
C1643 C1642 1.370 . S
C1643 C1644 1.403 . S
C1644 C1643 1.403 . S
C1644 C1645 1.404 . S
C1644 C1647 1.539 . S
C1645 C1641 1.408 . S
C1645 C1644 1.404 . S
C1645 H1657 0.930 . S
C1646 C1642 1.524 . S
C1646 H1658 0.956 . S
C1646 H1659 0.961 . S
C1646 H1660 0.961 . S
C1647 C1644 1.539 . S
C1647 H1661 0.958 . S
C1647 H1662 0.961 . S
C1647 H1663 0.960 . S
H1648 C1632 0.931 . S
H1649 C1637 0.929 . S
H1650 C1638 0.960 . S
H1651 C1638 0.962 . S
H1652 C1638 0.960 . S
H1653 C1639 0.961 . S
H1654 C1639 0.961 . S
H1655 C1639 0.961 . S
H1656 C1640 0.931 . S
H1657 C1645 0.930 . S
H1658 C1646 0.956 . S
H1659 C1646 0.961 . S
H1660 C1646 0.961 . S
H1661 C1647 0.958 . S
H1662 C1647 0.961 . S
H1663 C1647 0.960 . S
C1664 C1665 1.391 . S
C1664 C1666 1.394 . S
C1664 H1680 0.931 . S
C1665 C1664 1.391 . S
C1665 C1669 1.376 . S
C1666 C1664 1.394 . S
C1666 C1667 1.369 . S
C1666 C1670 1.531 . S
C1667 C1666 1.369 . S
C1667 C1668 1.410 . S
C1667 C1675 1.503 . S
C1668 C1667 1.410 . S
C1668 C1669 1.392 . S
C1668 C1671 1.511 . S
C1669 C1665 1.376 . S
C1669 C1668 1.392 . S
C1669 H1681 0.929 . S
C1670 C1666 1.531 . S
C1670 H1682 0.960 . S
C1670 H1683 0.962 . S
C1670 H1684 0.960 . S
C1671 C1668 1.511 . S
C1671 H1685 0.961 1_545 S
C1671 H1686 0.961 . S
C1671 H1687 0.961 . S
C1672 C1673 1.370 . S
C1672 C1674 1.363 . S
C1672 H1688 0.931 . S
C1673 C1672 1.370 . S
C1673 C1677 1.408 . S
C1674 C1672 1.363 . S
C1674 C1675 1.370 . S
C1674 C1678 1.524 . S
C1675 C1667 1.503 . S
C1675 C1674 1.370 . S
C1675 C1676 1.403 . S
C1676 C1675 1.403 . S
C1676 C1677 1.404 . S
C1676 C1679 1.539 . S
C1677 C1673 1.408 . S
C1677 C1676 1.404 . S
C1677 H1689 0.930 1_655 S
C1678 C1674 1.524 . S
C1678 H1690 0.956 . S
C1678 H1691 0.961 . S
C1678 H1692 0.961 . S
C1679 C1676 1.539 . S
C1679 H1693 0.958 . S
C1679 H1694 0.961 . S
C1679 H1695 0.960 . S
H1680 C1664 0.931 . S
H1681 C1669 0.929 . S
H1682 C1670 0.960 . S
H1683 C1670 0.962 . S
H1684 C1670 0.960 . S
H1685 C1671 0.961 1_565 S
H1686 C1671 0.961 . S
H1687 C1671 0.961 . S
H1688 C1672 0.931 . S
H1689 C1677 0.930 1_455 S
H1690 C1678 0.956 . S
H1691 C1678 0.961 . S
H1692 C1678 0.961 . S
H1693 C1679 0.958 . S
H1694 C1679 0.961 . S
H1695 C1679 0.960 . S
C1696 C1697 1.391 . S
C1696 C1698 1.394 . S
C1696 H1712 0.931 . S
C1697 C1696 1.391 . S
C1697 C1701 1.376 . S
C1698 C1696 1.394 . S
C1698 C1699 1.369 . S
C1698 C1702 1.531 . S
C1699 C1698 1.369 . S
C1699 C1700 1.410 . S
C1699 C1707 1.503 . S
C1700 C1699 1.410 . S
C1700 C1701 1.392 . S
C1700 C1703 1.511 . S
C1701 C1697 1.376 . S
C1701 C1700 1.392 . S
C1701 H1713 0.929 . S
C1702 C1698 1.531 . S
C1702 H1714 0.960 . S
C1702 H1715 0.962 . S
C1702 H1716 0.960 . S
C1703 C1700 1.511 . S
C1703 H1717 0.961 . S
C1703 H1718 0.961 . S
C1703 H1719 0.961 . S
C1704 C1705 1.370 . S
C1704 C1706 1.363 . S
C1704 H1720 0.931 . S
C1705 C1704 1.370 . S
C1705 C1709 1.408 . S
C1706 C1704 1.363 . S
C1706 C1707 1.370 . S
C1706 C1710 1.524 . S
C1707 C1699 1.503 . S
C1707 C1706 1.370 . S
C1707 C1708 1.403 . S
C1708 C1707 1.403 . S
C1708 C1709 1.404 . S
C1708 C1711 1.539 . S
C1709 C1705 1.408 . S
C1709 C1708 1.404 . S
C1709 H1721 0.930 . S
C1710 C1706 1.524 . S
C1710 H1722 0.956 . S
C1710 H1723 0.961 . S
C1710 H1724 0.961 . S
C1711 C1708 1.539 . S
C1711 H1725 0.958 . S
C1711 H1726 0.961 . S
C1711 H1727 0.960 . S
H1712 C1696 0.931 . S
H1713 C1701 0.929 . S
H1714 C1702 0.960 . S
H1715 C1702 0.962 . S
H1716 C1702 0.960 . S
H1717 C1703 0.961 . S
H1718 C1703 0.961 . S
H1719 C1703 0.961 . S
H1720 C1704 0.931 . S
H1721 C1709 0.930 . S
H1722 C1710 0.956 . S
H1723 C1710 0.961 . S
H1724 C1710 0.961 . S
H1725 C1711 0.958 . S
H1726 C1711 0.961 . S
H1727 C1711 0.960 . S
C1728 C1729 1.391 . S
C1728 C1730 1.394 . S
C1728 H1744 0.931 . S
C1729 C1728 1.391 . S
C1729 C1733 1.376 . S
C1730 C1728 1.394 . S
C1730 C1731 1.369 . S
C1730 C1734 1.531 . S
C1731 C1730 1.369 . S
C1731 C1732 1.410 . S
C1731 C1739 1.503 . S
C1732 C1731 1.410 . S
C1732 C1733 1.392 . S
C1732 C1735 1.511 . S
C1733 C1729 1.376 . S
C1733 C1732 1.392 . S
C1733 H1745 0.929 . S
C1734 C1730 1.531 . S
C1734 H1746 0.960 . S
C1734 H1747 0.962 . S
C1734 H1748 0.960 . S
C1735 C1732 1.511 . S
C1735 H1749 0.961 . S
C1735 H1750 0.961 . S
C1735 H1751 0.961 1_455 S
C1736 C1737 1.370 . S
C1736 C1738 1.363 . S
C1736 H1752 0.931 . S
C1737 C1736 1.370 . S
C1737 C1741 1.408 . S
C1738 C1736 1.363 . S
C1738 C1739 1.370 . S
C1738 C1742 1.524 . S
C1739 C1731 1.503 . S
C1739 C1738 1.370 . S
C1739 C1740 1.403 . S
C1740 C1739 1.403 . S
C1740 C1741 1.404 . S
C1740 C1743 1.539 . S
C1741 C1737 1.408 . S
C1741 C1740 1.404 . S
C1741 H1753 0.930 . S
C1742 C1738 1.524 . S
C1742 H1754 0.956 . S
C1742 H1755 0.961 . S
C1742 H1756 0.961 . S
C1743 C1740 1.539 . S
C1743 H1757 0.958 . S
C1743 H1758 0.961 . S
C1743 H1759 0.960 . S
H1744 C1728 0.931 . S
H1745 C1733 0.929 . S
H1746 C1734 0.960 . S
H1747 C1734 0.962 . S
H1748 C1734 0.960 . S
H1749 C1735 0.961 . S
H1750 C1735 0.961 . S
H1751 C1735 0.961 1_655 S
H1752 C1736 0.931 . S
H1753 C1741 0.930 . S
H1754 C1742 0.956 . S
H1755 C1742 0.961 . S
H1756 C1742 0.961 . S
H1757 C1743 0.958 . S
H1758 C1743 0.961 . S
H1759 C1743 0.960 . S
C1760 C1761 1.391 . S
C1760 C1762 1.394 . S
C1760 H1776 0.931 . S
C1761 C1760 1.391 . S
C1761 C1765 1.376 . S
C1762 C1760 1.394 . S
C1762 C1763 1.369 . S
C1762 C1766 1.531 . S
C1763 C1762 1.369 . S
C1763 C1764 1.410 . S
C1763 C1771 1.503 . S
C1764 C1763 1.410 . S
C1764 C1765 1.392 . S
C1764 C1767 1.511 . S
C1765 C1761 1.376 . S
C1765 C1764 1.392 . S
C1765 H1777 0.929 . S
C1766 C1762 1.531 . S
C1766 H1778 0.960 . S
C1766 H1779 0.962 . S
C1766 H1780 0.960 . S
C1767 C1764 1.511 . S
C1767 H1781 0.961 . S
C1767 H1782 0.961 . S
C1767 H1783 0.961 . S
C1768 C1769 1.370 . S
C1768 C1770 1.363 . S
C1768 H1784 0.931 . S
C1769 C1768 1.370 . S
C1769 C1773 1.408 . S
C1770 C1768 1.363 . S
C1770 C1771 1.370 . S
C1770 C1774 1.524 . S
C1771 C1763 1.503 . S
C1771 C1770 1.370 . S
C1771 C1772 1.403 . S
C1772 C1771 1.403 . S
C1772 C1773 1.404 . S
C1772 C1775 1.539 . S
C1773 C1769 1.408 . S
C1773 C1772 1.404 . S
C1773 H1785 0.930 . S
C1774 C1770 1.524 . S
C1774 H1786 0.956 . S
C1774 H1787 0.961 . S
C1774 H1788 0.961 . S
C1775 C1772 1.539 . S
C1775 H1789 0.958 . S
C1775 H1790 0.961 . S
C1775 H1791 0.960 . S
H1776 C1760 0.931 . S
H1777 C1765 0.929 . S
H1778 C1766 0.960 . S
H1779 C1766 0.962 . S
H1780 C1766 0.960 . S
H1781 C1767 0.961 . S
H1782 C1767 0.961 . S
H1783 C1767 0.961 . S
H1784 C1768 0.931 . S
H1785 C1773 0.930 . S
H1786 C1774 0.956 . S
H1787 C1774 0.961 . S
H1788 C1774 0.961 . S
H1789 C1775 0.958 . S
H1790 C1775 0.961 . S
H1791 C1775 0.960 . S
C1792 C1793 1.391 . S
C1792 C1794 1.394 . S
C1792 H1808 0.931 . S
C1793 C1792 1.391 . S
C1793 C1797 1.376 . S
C1794 C1792 1.394 . S
C1794 C1795 1.369 . S
C1794 C1798 1.531 . S
C1795 C1794 1.369 . S
C1795 C1796 1.410 . S
C1795 C1803 1.503 . S
C1796 C1795 1.410 . S
C1796 C1797 1.392 . S
C1796 C1799 1.511 . S
C1797 C1793 1.376 . S
C1797 C1796 1.392 . S
C1797 H1809 0.929 . S
C1798 C1794 1.531 . S
C1798 H1810 0.960 . S
C1798 H1811 0.962 . S
C1798 H1812 0.960 . S
C1799 C1796 1.511 . S
C1799 H1813 0.961 . S
C1799 H1814 0.961 . S
C1799 H1815 0.961 . S
C1800 C1801 1.370 . S
C1800 C1802 1.363 . S
C1800 H1816 0.931 . S
C1801 C1800 1.370 . S
C1801 C1805 1.408 . S
C1802 C1800 1.363 . S
C1802 C1803 1.370 . S
C1802 C1806 1.524 . S
C1803 C1795 1.503 . S
C1803 C1802 1.370 . S
C1803 C1804 1.403 . S
C1804 C1803 1.403 . S
C1804 C1805 1.404 . S
C1804 C1807 1.539 . S
C1805 C1801 1.408 . S
C1805 C1804 1.404 . S
C1805 H1817 0.930 . S
C1806 C1802 1.524 . S
C1806 H1818 0.956 . S
C1806 H1819 0.961 . S
C1806 H1820 0.961 . S
C1807 C1804 1.539 . S
C1807 H1821 0.958 . S
C1807 H1822 0.961 . S
C1807 H1823 0.960 . S
H1808 C1792 0.931 . S
H1809 C1797 0.929 . S
H1810 C1798 0.960 . S
H1811 C1798 0.962 . S
H1812 C1798 0.960 . S
H1813 C1799 0.961 . S
H1814 C1799 0.961 . S
H1815 C1799 0.961 . S
H1816 C1800 0.931 . S
H1817 C1805 0.930 . S
H1818 C1806 0.956 . S
H1819 C1806 0.961 . S
H1820 C1806 0.961 . S
H1821 C1807 0.958 . S
H1822 C1807 0.961 . S
H1823 C1807 0.960 . S
C1824 C1825 1.391 . S
C1824 C1826 1.394 . S
C1824 H1840 0.931 . S
C1825 C1824 1.391 . S
C1825 C1829 1.376 . S
C1826 C1824 1.394 . S
C1826 C1827 1.369 . S
C1826 C1830 1.531 . S
C1827 C1826 1.369 . S
C1827 C1828 1.410 . S
C1827 C1835 1.503 . S
C1828 C1827 1.410 . S
C1828 C1829 1.392 . S
C1828 C1831 1.511 . S
C1829 C1825 1.376 . S
C1829 C1828 1.392 . S
C1829 H1841 0.929 . S
C1830 C1826 1.531 . S
C1830 H1842 0.960 . S
C1830 H1843 0.962 . S
C1830 H1844 0.960 . S
C1831 C1828 1.511 . S
C1831 H1845 0.961 . S
C1831 H1846 0.961 . S
C1831 H1847 0.961 . S
C1832 C1833 1.370 . S
C1832 C1834 1.363 . S
C1832 H1848 0.931 . S
C1833 C1832 1.370 . S
C1833 C1837 1.408 . S
C1834 C1832 1.363 . S
C1834 C1835 1.370 . S
C1834 C1838 1.524 . S
C1835 C1827 1.503 . S
C1835 C1834 1.370 . S
C1835 C1836 1.403 . S
C1836 C1835 1.403 . S
C1836 C1837 1.404 . S
C1836 C1839 1.539 . S
C1837 C1833 1.408 . S
C1837 C1836 1.404 . S
C1837 H1849 0.930 . S
C1838 C1834 1.524 . S
C1838 H1850 0.956 . S
C1838 H1851 0.961 . S
C1838 H1852 0.961 . S
C1839 C1836 1.539 . S
C1839 H1853 0.958 . S
C1839 H1854 0.961 . S
C1839 H1855 0.960 . S
H1840 C1824 0.931 . S
H1841 C1829 0.929 . S
H1842 C1830 0.960 . S
H1843 C1830 0.962 . S
H1844 C1830 0.960 . S
H1845 C1831 0.961 . S
H1846 C1831 0.961 . S
H1847 C1831 0.961 . S
H1848 C1832 0.931 . S
H1849 C1837 0.930 . S
H1850 C1838 0.956 . S
H1851 C1838 0.961 . S
H1852 C1838 0.961 . S
H1853 C1839 0.958 . S
H1854 C1839 0.961 . S
H1855 C1839 0.960 . S
C1856 C1857 1.391 . S
C1856 C1858 1.394 . S
C1856 H1872 0.931 . S
C1857 C1856 1.391 . S
C1857 C1861 1.376 . S
C1858 C1856 1.394 . S
C1858 C1859 1.369 . S
C1858 C1862 1.531 . S
C1859 C1858 1.369 . S
C1859 C1860 1.410 . S
C1859 C1867 1.503 . S
C1860 C1859 1.410 . S
C1860 C1861 1.392 . S
C1860 C1863 1.511 . S
C1861 C1857 1.376 . S
C1861 C1860 1.392 . S
C1861 H1873 0.929 . S
C1862 C1858 1.531 . S
C1862 H1874 0.960 . S
C1862 H1875 0.962 . S
C1862 H1876 0.960 . S
C1863 C1860 1.511 . S
C1863 H1877 0.961 . S
C1863 H1878 0.961 . S
C1863 H1879 0.961 . S
C1864 C1865 1.370 . S
C1864 C1866 1.363 . S
C1864 H1880 0.931 . S
C1865 C1864 1.370 . S
C1865 C1869 1.408 . S
C1866 C1864 1.363 . S
C1866 C1867 1.370 . S
C1866 C1870 1.524 . S
C1867 C1859 1.503 . S
C1867 C1866 1.370 . S
C1867 C1868 1.403 . S
C1868 C1867 1.403 . S
C1868 C1869 1.404 . S
C1868 C1871 1.539 . S
C1869 C1865 1.408 . S
C1869 C1868 1.404 . S
C1869 H1881 0.930 . S
C1870 C1866 1.524 . S
C1870 H1882 0.956 . S
C1870 H1883 0.961 . S
C1870 H1884 0.961 . S
C1871 C1868 1.539 . S
C1871 H1885 0.958 . S
C1871 H1886 0.961 . S
C1871 H1887 0.960 . S
H1872 C1856 0.931 . S
H1873 C1861 0.929 . S
H1874 C1862 0.960 . S
H1875 C1862 0.962 . S
H1876 C1862 0.960 . S
H1877 C1863 0.961 . S
H1878 C1863 0.961 . S
H1879 C1863 0.961 . S
H1880 C1864 0.931 . S
H1881 C1869 0.930 . S
H1882 C1870 0.956 . S
H1883 C1870 0.961 . S
H1884 C1870 0.961 . S
H1885 C1871 0.958 . S
H1886 C1871 0.961 . S
H1887 C1871 0.960 . S
C1888 C1889 1.391 . S
C1888 C1890 1.394 . S
C1888 H1904 0.931 . S
C1889 C1888 1.391 . S
C1889 C1893 1.376 . S
C1890 C1888 1.394 . S
C1890 C1891 1.369 . S
C1890 C1894 1.531 . S
C1891 C1890 1.369 . S
C1891 C1892 1.410 . S
C1891 C1899 1.503 . S
C1892 C1891 1.410 . S
C1892 C1893 1.392 . S
C1892 C1895 1.511 . S
C1893 C1889 1.376 . S
C1893 C1892 1.392 . S
C1893 H1905 0.929 . S
C1894 C1890 1.531 . S
C1894 H1906 0.960 . S
C1894 H1907 0.962 . S
C1894 H1908 0.960 . S
C1895 C1892 1.511 . S
C1895 H1909 0.961 . S
C1895 H1910 0.961 . S
C1895 H1911 0.961 . S
C1896 C1897 1.370 . S
C1896 C1898 1.363 . S
C1896 H1912 0.931 . S
C1897 C1896 1.370 . S
C1897 C1901 1.408 . S
C1898 C1896 1.363 . S
C1898 C1899 1.370 . S
C1898 C1902 1.524 . S
C1899 C1891 1.503 . S
C1899 C1898 1.370 . S
C1899 C1900 1.403 . S
C1900 C1899 1.403 . S
C1900 C1901 1.404 . S
C1900 C1903 1.539 . S
C1901 C1897 1.408 . S
C1901 C1900 1.404 . S
C1901 H1913 0.930 . S
C1902 C1898 1.524 . S
C1902 H1914 0.956 . S
C1902 H1915 0.961 . S
C1902 H1916 0.961 . S
C1903 C1900 1.539 . S
C1903 H1917 0.958 . S
C1903 H1918 0.961 . S
C1903 H1919 0.960 . S
H1904 C1888 0.931 . S
H1905 C1893 0.929 . S
H1906 C1894 0.960 . S
H1907 C1894 0.962 . S
H1908 C1894 0.960 . S
H1909 C1895 0.961 . S
H1910 C1895 0.961 . S
H1911 C1895 0.961 . S
H1912 C1896 0.931 . S
H1913 C1901 0.930 . S
H1914 C1902 0.956 . S
H1915 C1902 0.961 . S
H1916 C1902 0.961 . S
H1917 C1903 0.958 . S
H1918 C1903 0.961 . S
H1919 C1903 0.960 . S
C1920 C1921 1.391 . S
C1920 C1922 1.394 . S
C1920 H1936 0.931 . S
C1921 C1920 1.391 . S
C1921 C1925 1.376 . S
C1922 C1920 1.394 . S
C1922 C1923 1.369 . S
C1922 C1926 1.531 . S
C1923 C1922 1.369 . S
C1923 C1924 1.410 . S
C1923 C1931 1.503 . S
C1924 C1923 1.410 . S
C1924 C1925 1.392 . S
C1924 C1927 1.511 . S
C1925 C1921 1.376 . S
C1925 C1924 1.392 . S
C1925 H1937 0.948 . S
C1926 C1922 1.531 . S
C1926 H1938 0.960 . S
C1926 H1939 0.962 . S
C1926 H1940 0.960 . S
C1927 C1924 1.511 . S
C1927 H1941 0.961 . S
C1927 H1942 0.961 . S
C1927 H1943 0.961 . S
C1928 C1929 1.370 . S
C1928 C1930 1.363 . S
C1928 H1944 0.931 . S
C1929 C1928 1.370 . S
C1929 C1933 1.408 . S
C1930 C1928 1.363 . S
C1930 C1931 1.370 . S
C1930 C1934 1.524 . S
C1931 C1923 1.503 . S
C1931 C1930 1.370 . S
C1931 C1932 1.403 . S
C1932 C1931 1.403 . S
C1932 C1933 1.404 . S
C1932 C1935 1.539 . S
C1933 C1929 1.408 . S
C1933 C1932 1.404 . S
C1933 H1945 0.930 . S
C1934 C1930 1.524 . S
C1934 H1946 0.956 . S
C1934 H1947 0.961 . S
C1934 H1948 0.961 . S
C1935 C1932 1.539 . S
C1935 H1949 0.958 . S
C1935 H1950 0.961 1_455 S
C1935 H1951 0.960 . S
H1936 C1920 0.931 . S
H1937 C1925 0.948 . S
H1938 C1926 0.960 . S
H1939 C1926 0.962 . S
H1940 C1926 0.960 . S
H1941 C1927 0.961 . S
H1942 C1927 0.961 . S
H1943 C1927 0.961 . S
H1944 C1928 0.931 . S
H1945 C1933 0.930 . S
H1946 C1934 0.956 . S
H1947 C1934 0.961 . S
H1948 C1934 0.961 . S
H1949 C1935 0.958 . S
H1950 C1935 0.961 1_655 S
H1951 C1935 0.960 . S
C1952 C1953 1.391 . S
C1952 C1954 1.394 . S
C1952 H1968 0.931 . S
C1953 C1952 1.391 . S
C1953 C1957 1.376 . S
C1954 C1952 1.394 . S
C1954 C1955 1.369 . S
C1954 C1958 1.531 . S
C1955 C1954 1.369 . S
C1955 C1956 1.410 . S
C1955 C1963 1.503 . S
C1956 C1955 1.410 . S
C1956 C1957 1.392 . S
C1956 C1959 1.511 . S
C1957 C1953 1.376 . S
C1957 C1956 1.392 . S
C1957 H1969 0.929 . S
C1958 C1954 1.531 . S
C1958 H1970 0.960 . S
C1958 H1971 0.962 . S
C1958 H1972 0.960 . S
C1959 C1956 1.511 . S
C1959 H1973 0.961 . S
C1959 H1974 0.961 . S
C1959 H1975 0.961 . S
C1960 C1961 1.370 . S
C1960 C1962 1.363 . S
C1960 H1976 0.931 . S
C1961 C1960 1.370 . S
C1961 C1965 1.408 . S
C1962 C1960 1.363 . S
C1962 C1963 1.370 . S
C1962 C1966 1.524 . S
C1963 C1955 1.503 . S
C1963 C1962 1.370 . S
C1963 C1964 1.403 . S
C1964 C1963 1.403 . S
C1964 C1965 1.404 . S
C1964 C1967 1.539 . S
C1965 C1961 1.408 . S
C1965 C1964 1.404 . S
C1965 H1977 0.930 . S
C1966 C1962 1.524 . S
C1966 H1978 0.956 . S
C1966 H1979 0.961 . S
C1966 H1980 0.961 . S
C1967 C1964 1.539 . S
C1967 H1981 0.958 . S
C1967 H1982 0.961 . S
C1967 H1983 0.960 . S
H1968 C1952 0.931 . S
H1969 C1957 0.929 . S
H1970 C1958 0.960 . S
H1971 C1958 0.962 . S
H1972 C1958 0.960 . S
H1973 C1959 0.961 . S
H1974 C1959 0.961 . S
H1975 C1959 0.961 . S
H1976 C1960 0.931 . S
H1977 C1965 0.930 . S
H1978 C1966 0.956 . S
H1979 C1966 0.961 . S
H1980 C1966 0.961 . S
H1981 C1967 0.958 . S
H1982 C1967 0.961 . S
H1983 C1967 0.960 . S
C1984 C1985 1.391 . S
C1984 C1986 1.394 . S
C1984 H2000 0.931 . S
C1985 C1984 1.391 . S
C1985 C1989 1.376 . S
C1986 C1984 1.394 . S
C1986 C1987 1.369 . S
C1986 C1990 1.531 . S
C1987 C1986 1.369 . S
C1987 C1988 1.410 . S
C1987 C1995 1.503 . S
C1988 C1987 1.410 . S
C1988 C1989 1.392 . S
C1988 C1991 1.511 . S
C1989 C1985 1.376 . S
C1989 C1988 1.392 . S
C1989 H2001 0.929 . S
C1990 C1986 1.531 . S
C1990 H2002 0.960 . S
C1990 H2003 0.962 . S
C1990 H2004 0.960 . S
C1991 C1988 1.511 . S
C1991 H2005 0.961 . S
C1991 H2006 0.961 . S
C1991 H2007 0.961 . S
C1992 C1993 1.370 . S
C1992 C1994 1.363 . S
C1992 H2008 0.931 . S
C1993 C1992 1.370 . S
C1993 C1997 1.408 . S
C1994 C1992 1.363 . S
C1994 C1995 1.370 . S
C1994 C1998 1.524 . S
C1995 C1987 1.503 . S
C1995 C1994 1.370 . S
C1995 C1996 1.403 . S
C1996 C1995 1.403 . S
C1996 C1997 1.404 . S
C1996 C1999 1.539 . S
C1997 C1993 1.408 . S
C1997 C1996 1.404 . S
C1997 H2009 0.930 . S
C1998 C1994 1.524 . S
C1998 H2010 0.956 . S
C1998 H2011 0.961 . S
C1998 H2012 0.961 . S
C1999 C1996 1.539 . S
C1999 H2013 0.958 . S
C1999 H2014 0.961 . S
C1999 H2015 0.960 . S
H2000 C1984 0.931 . S
H2001 C1989 0.929 . S
H2002 C1990 0.960 . S
H2003 C1990 0.962 . S
H2004 C1990 0.960 . S
H2005 C1991 0.961 . S
H2006 C1991 0.961 . S
H2007 C1991 0.961 . S
H2008 C1992 0.931 . S
H2009 C1997 0.930 . S
H2010 C1998 0.956 . S
H2011 C1998 0.961 . S
H2012 C1998 0.961 . S
H2013 C1999 0.958 . S
H2014 C1999 0.961 . S
H2015 C1999 0.960 . S
C2016 C2017 1.391 . S
C2016 C2018 1.394 . S
C2016 H2032 0.931 . S
C2017 C2016 1.391 . S
C2017 C2021 1.376 . S
C2018 C2016 1.394 . S
C2018 C2019 1.369 . S
C2018 C2022 1.531 . S
C2019 C2018 1.369 . S
C2019 C2020 1.410 . S
C2019 C2027 1.503 . S
C2020 C2019 1.410 . S
C2020 C2021 1.392 . S
C2020 C2023 1.511 . S
C2021 C2017 1.376 . S
C2021 C2020 1.392 . S
C2021 H2033 0.929 . S
C2022 C2018 1.531 . S
C2022 H2034 0.960 . S
C2022 H2035 0.962 . S
C2022 H2036 0.960 . S
C2023 C2020 1.511 . S
C2023 H2037 0.961 . S
C2023 H2038 0.961 . S
C2023 H2039 0.961 . S
C2024 C2025 1.370 . S
C2024 C2026 1.363 . S
C2024 H2040 0.931 . S
C2025 C2024 1.370 . S
C2025 C2029 1.408 . S
C2026 C2024 1.363 . S
C2026 C2027 1.370 . S
C2026 C2030 1.524 . S
C2027 C2019 1.503 . S
C2027 C2026 1.370 . S
C2027 C2028 1.403 . S
C2028 C2027 1.403 . S
C2028 C2029 1.404 . S
C2028 C2031 1.539 . S
C2029 C2025 1.408 . S
C2029 C2028 1.404 . S
C2029 H2041 0.930 . S
C2030 C2026 1.524 . S
C2030 H2042 0.956 . S
C2030 H2043 0.961 . S
C2030 H2044 0.961 . S
C2031 C2028 1.539 . S
C2031 H2045 0.958 . S
C2031 H2046 0.961 . S
C2031 H2047 0.960 . S
H2032 C2016 0.931 . S
H2033 C2021 0.929 . S
H2034 C2022 0.960 . S
H2035 C2022 0.962 . S
H2036 C2022 0.960 . S
H2037 C2023 0.961 . S
H2038 C2023 0.961 . S
H2039 C2023 0.961 . S
H2040 C2024 0.931 . S
H2041 C2029 0.930 . S
H2042 C2030 0.956 . S
H2043 C2030 0.961 . S
H2044 C2030 0.961 . S
H2045 C2031 0.958 . S
H2046 C2031 0.961 . S
H2047 C2031 0.960 . S
C2048 C2049 1.391 . S
C2048 C2050 1.394 . S
C2048 H2064 0.931 . S
C2049 C2048 1.391 . S
C2049 C2053 1.376 . S
C2050 C2048 1.394 . S
C2050 C2051 1.369 . S
C2050 C2054 1.531 . S
C2051 C2050 1.369 . S
C2051 C2052 1.410 . S
C2051 C2059 1.503 . S
C2052 C2051 1.410 . S
C2052 C2053 1.392 . S
C2052 C2055 1.511 . S
C2053 C2049 1.376 . S
C2053 C2052 1.392 . S
C2053 H2065 0.929 . S
C2054 C2050 1.531 . S
C2054 H2066 0.960 . S
C2054 H2067 0.962 . S
C2054 H2068 0.960 . S
C2055 C2052 1.511 . S
C2055 H2069 0.961 . S
C2055 H2070 0.961 . S
C2055 H2071 0.961 . S
C2056 C2057 1.370 . S
C2056 C2058 1.363 . S
C2056 H2072 0.931 . S
C2057 C2056 1.370 . S
C2057 C2061 1.408 . S
C2058 C2056 1.363 . S
C2058 C2059 1.370 . S
C2058 C2062 1.524 . S
C2059 C2051 1.503 . S
C2059 C2058 1.370 . S
C2059 C2060 1.403 . S
C2060 C2059 1.403 . S
C2060 C2061 1.404 . S
C2060 C2063 1.539 . S
C2061 C2057 1.408 . S
C2061 C2060 1.404 . S
C2061 H2073 0.930 . S
C2062 C2058 1.524 . S
C2062 H2074 0.956 . S
C2062 H2075 0.961 . S
C2062 H2076 0.961 . S
C2063 C2060 1.539 . S
C2063 H2077 0.958 . S
C2063 H2078 0.961 . S
C2063 H2079 0.960 . S
H2064 C2048 0.931 . S
H2065 C2053 0.929 . S
H2066 C2054 0.960 . S
H2067 C2054 0.962 . S
H2068 C2054 0.960 . S
H2069 C2055 0.961 . S
H2070 C2055 0.961 . S
H2071 C2055 0.961 . S
H2072 C2056 0.931 . S
H2073 C2061 0.930 . S
H2074 C2062 0.956 . S
H2075 C2062 0.961 . S
H2076 C2062 0.961 . S
H2077 C2063 0.958 . S
H2078 C2063 0.961 . S
H2079 C2063 0.960 . S
C2080 C2081 1.391 . S
C2080 C2082 1.394 . S
C2080 H2096 0.931 1_565 S
C2081 C2080 1.391 . S
C2081 C2085 1.376 . S
C2082 C2080 1.394 . S
C2082 C2083 1.369 . S
C2082 C2086 1.531 . S
C2083 C2082 1.369 . S
C2083 C2084 1.410 . S
C2083 C2091 1.503 . S
C2084 C2083 1.410 . S
C2084 C2085 1.392 . S
C2084 C2087 1.511 . S
C2085 C2081 1.376 . S
C2085 C2084 1.392 . S
C2085 H2097 0.929 . S
C2086 C2082 1.531 . S
C2086 H2098 0.960 . S
C2086 H2099 0.962 . S
C2086 H2100 0.960 . S
C2087 C2084 1.511 . S
C2087 H2101 0.961 . S
C2087 H2102 0.961 . S
C2087 H2103 0.961 . S
C2088 C2089 1.370 . S
C2088 C2090 1.363 . S
C2088 H2104 0.931 . S
C2089 C2088 1.370 . S
C2089 C2093 1.408 . S
C2090 C2088 1.363 . S
C2090 C2091 1.370 . S
C2090 C2094 1.524 . S
C2091 C2083 1.503 . S
C2091 C2090 1.370 . S
C2091 C2092 1.403 . S
C2092 C2091 1.403 . S
C2092 C2093 1.404 . S
C2092 C2095 1.539 . S
C2093 C2089 1.408 . S
C2093 C2092 1.404 . S
C2093 H2105 0.930 . S
C2094 C2090 1.524 . S
C2094 H2106 0.956 . S
C2094 H2107 0.961 . S
C2094 H2108 0.961 1_554 S
C2095 C2092 1.539 . S
C2095 H2109 0.958 . S
C2095 H2110 0.961 . S
C2095 H2111 0.960 . S
H2096 C2080 0.931 1_545 S
H2097 C2085 0.929 . S
H2098 C2086 0.960 . S
H2099 C2086 0.962 . S
H2100 C2086 0.960 . S
H2101 C2087 0.961 . S
H2102 C2087 0.961 . S
H2103 C2087 0.961 . S
H2104 C2088 0.931 . S
H2105 C2093 0.930 . S
H2106 C2094 0.956 . S
H2107 C2094 0.961 . S
H2108 C2094 0.961 1_556 S
H2109 C2095 0.958 . S
H2110 C2095 0.961 . S
H2111 C2095 0.960 . S
C2112 C2113 1.391 . S
C2112 C2114 1.394 . S
C2112 H2128 0.931 . S
C2113 C2112 1.391 . S
C2113 C2117 1.376 . S
C2114 C2112 1.394 . S
C2114 C2115 1.369 . S
C2114 C2118 1.531 . S
C2115 C2114 1.369 . S
C2115 C2116 1.410 . S
C2115 C2123 1.503 . S
C2116 C2115 1.410 . S
C2116 C2117 1.392 . S
C2116 C2119 1.511 . S
C2117 C2113 1.376 . S
C2117 C2116 1.392 . S
C2117 H2129 0.929 . S
C2118 C2114 1.531 . S
C2118 H2130 0.960 . S
C2118 H2131 0.962 . S
C2118 H2132 0.960 . S
C2119 C2116 1.511 . S
C2119 H2133 0.961 . S
C2119 H2134 0.961 . S
C2119 H2135 0.961 . S
C2120 C2121 1.370 . S
C2120 C2122 1.363 . S
C2120 H2136 0.931 . S
C2121 C2120 1.370 . S
C2121 C2125 1.408 . S
C2122 C2120 1.363 . S
C2122 C2123 1.370 . S
C2122 C2126 1.524 . S
C2123 C2115 1.503 . S
C2123 C2122 1.370 . S
C2123 C2124 1.403 . S
C2124 C2123 1.403 . S
C2124 C2125 1.404 . S
C2124 C2127 1.539 . S
C2125 C2121 1.408 . S
C2125 C2124 1.404 . S
C2125 H2137 0.930 . S
C2126 C2122 1.524 . S
C2126 H2138 0.956 . S
C2126 H2139 0.961 . S
C2126 H2140 0.961 . S
C2127 C2124 1.539 . S
C2127 H2141 0.958 . S
C2127 H2142 0.961 . S
C2127 H2143 0.960 . S
H2128 C2112 0.931 . S
H2129 C2117 0.929 . S
H2130 C2118 0.960 . S
H2131 C2118 0.962 . S
H2132 C2118 0.960 . S
H2133 C2119 0.961 . S
H2134 C2119 0.961 . S
H2135 C2119 0.961 . S
H2136 C2120 0.931 . S
H2137 C2125 0.930 . S
H2138 C2126 0.956 . S
H2139 C2126 0.961 . S
H2140 C2126 0.961 . S
H2141 C2127 0.958 . S
H2142 C2127 0.961 . S
H2143 C2127 0.960 . S
C2144 C2145 1.391 . S
C2144 C2146 1.394 . S
C2144 H2160 0.931 . S
C2145 C2144 1.391 . S
C2145 C2149 1.376 . S
C2146 C2144 1.394 . S
C2146 C2147 1.369 . S
C2146 C2150 1.531 . S
C2147 C2146 1.369 . S
C2147 C2148 1.410 . S
C2147 C2155 1.503 . S
C2148 C2147 1.410 . S
C2148 C2149 1.392 . S
C2148 C2151 1.511 . S
C2149 C2145 1.376 . S
C2149 C2148 1.392 . S
C2149 H2161 0.929 . S
C2150 C2146 1.531 . S
C2150 H2162 0.960 . S
C2150 H2163 0.962 . S
C2150 H2164 0.960 . S
C2151 C2148 1.511 . S
C2151 H2165 0.961 . S
C2151 H2166 0.961 . S
C2151 H2167 0.961 . S
C2152 C2153 1.370 . S
C2152 C2154 1.363 . S
C2152 H2168 0.931 . S
C2153 C2152 1.370 . S
C2153 C2157 1.408 . S
C2154 C2152 1.363 . S
C2154 C2155 1.370 . S
C2154 C2158 1.524 . S
C2155 C2147 1.503 . S
C2155 C2154 1.370 . S
C2155 C2156 1.403 . S
C2156 C2155 1.403 . S
C2156 C2157 1.404 . S
C2156 C2159 1.539 . S
C2157 C2153 1.408 . S
C2157 C2156 1.404 . S
C2157 H2169 0.930 . S
C2158 C2154 1.524 . S
C2158 H2170 0.956 . S
C2158 H2171 0.961 . S
C2158 H2172 0.961 . S
C2159 C2156 1.539 . S
C2159 H2173 0.958 . S
C2159 H2174 0.961 . S
C2159 H2175 0.960 . S
H2160 C2144 0.931 . S
H2161 C2149 0.929 . S
H2162 C2150 0.960 . S
H2163 C2150 0.962 . S
H2164 C2150 0.960 . S
H2165 C2151 0.961 . S
H2166 C2151 0.961 . S
H2167 C2151 0.961 . S
H2168 C2152 0.931 . S
H2169 C2157 0.930 . S
H2170 C2158 0.956 . S
H2171 C2158 0.961 . S
H2172 C2158 0.961 . S
H2173 C2159 0.958 . S
H2174 C2159 0.961 . S
H2175 C2159 0.960 . S
C2176 C2177 1.391 . S
C2176 C2178 1.394 . S
C2176 H2192 0.931 . S
C2177 C2176 1.391 . S
C2177 C2181 1.376 . S
C2178 C2176 1.394 . S
C2178 C2179 1.369 . S
C2178 C2182 1.531 . S
C2179 C2178 1.369 . S
C2179 C2180 1.410 . S
C2179 C2187 1.503 . S
C2180 C2179 1.410 . S
C2180 C2181 1.392 . S
C2180 C2183 1.511 . S
C2181 C2177 1.376 . S
C2181 C2180 1.392 . S
C2181 H2193 0.929 . S
C2182 C2178 1.531 . S
C2182 H2194 0.960 . S
C2182 H2195 0.962 . S
C2182 H2196 0.960 . S
C2183 C2180 1.511 . S
C2183 H2197 0.961 . S
C2183 H2198 0.961 . S
C2183 H2199 0.961 . S
C2184 C2185 1.370 . S
C2184 C2186 1.363 . S
C2184 H2200 0.931 . S
C2185 C2184 1.370 . S
C2185 C2189 1.408 . S
C2186 C2184 1.363 . S
C2186 C2187 1.370 . S
C2186 C2190 1.524 . S
C2187 C2179 1.503 . S
C2187 C2186 1.370 . S
C2187 C2188 1.403 . S
C2188 C2187 1.403 . S
C2188 C2189 1.404 . S
C2188 C2191 1.539 . S
C2189 C2185 1.408 . S
C2189 C2188 1.404 . S
C2189 H2201 0.930 . S
C2190 C2186 1.524 . S
C2190 H2202 0.956 . S
C2190 H2203 0.961 . S
C2190 H2204 0.961 1_556 S
C2191 C2188 1.539 . S
C2191 H2205 0.958 . S
C2191 H2206 0.961 . S
C2191 H2207 0.960 . S
H2192 C2176 0.931 . S
H2193 C2181 0.929 . S
H2194 C2182 0.960 . S
H2195 C2182 0.962 . S
H2196 C2182 0.960 . S
H2197 C2183 0.961 . S
H2198 C2183 0.961 . S
H2199 C2183 0.961 . S
H2200 C2184 0.931 . S
H2201 C2189 0.930 . S
H2202 C2190 0.956 . S
H2203 C2190 0.961 . S
H2204 C2190 0.961 1_554 S
H2205 C2191 0.958 . S
H2206 C2191 0.961 . S
H2207 C2191 0.960 . S
C2208 C2209 1.391 . S
C2208 C2210 1.394 . S
C2208 H2224 0.931 . S
C2209 C2208 1.391 . S
C2209 C2213 1.376 . S
C2210 C2208 1.394 . S
C2210 C2211 1.369 . S
C2210 C2214 1.531 . S
C2211 C2210 1.369 . S
C2211 C2212 1.410 . S
C2211 C2219 1.503 . S
C2212 C2211 1.410 . S
C2212 C2213 1.392 . S
C2212 C2215 1.511 . S
C2213 C2209 1.376 . S
C2213 C2212 1.392 . S
C2213 H2225 0.929 . S
C2214 C2210 1.531 . S
C2214 H2226 0.960 . S
C2214 H2227 0.962 . S
C2214 H2228 0.960 . S
C2215 C2212 1.511 . S
C2215 H2229 0.961 . S
C2215 H2230 0.961 . S
C2215 H2231 0.961 . S
C2216 C2217 1.370 . S
C2216 C2218 1.363 . S
C2216 H2232 0.931 . S
C2217 C2216 1.370 . S
C2217 C2221 1.408 . S
C2218 C2216 1.363 . S
C2218 C2219 1.370 . S
C2218 C2222 1.524 . S
C2219 C2211 1.503 . S
C2219 C2218 1.370 . S
C2219 C2220 1.403 . S
C2220 C2219 1.403 . S
C2220 C2221 1.404 . S
C2220 C2223 1.539 . S
C2221 C2217 1.408 . S
C2221 C2220 1.404 . S
C2221 H2233 0.930 . S
C2222 C2218 1.524 . S
C2222 H2234 0.956 . S
C2222 H2235 0.961 . S
C2222 H2236 0.961 . S
C2223 C2220 1.539 . S
C2223 H2237 0.958 . S
C2223 H2238 0.961 . S
C2223 H2239 0.960 . S
H2224 C2208 0.931 . S
H2225 C2213 0.929 . S
H2226 C2214 0.960 . S
H2227 C2214 0.962 . S
H2228 C2214 0.960 . S
H2229 C2215 0.961 . S
H2230 C2215 0.961 . S
H2231 C2215 0.961 . S
H2232 C2216 0.931 . S
H2233 C2221 0.930 . S
H2234 C2222 0.956 . S
H2235 C2222 0.961 . S
H2236 C2222 0.961 . S
H2237 C2223 0.958 . S
H2238 C2223 0.961 . S
H2239 C2223 0.960 . S
C2240 C2241 1.391 . S
C2240 C2242 1.394 . S
C2240 H2256 0.931 . S
C2241 C2240 1.391 . S
C2241 C2245 1.376 . S
C2242 C2240 1.394 . S
C2242 C2243 1.369 . S
C2242 C2246 1.531 . S
C2243 C2242 1.369 . S
C2243 C2244 1.410 . S
C2243 C2251 1.503 . S
C2244 C2243 1.410 . S
C2244 C2245 1.392 . S
C2244 C2247 1.511 . S
C2245 C2241 1.376 . S
C2245 C2244 1.392 . S
C2245 H2257 0.929 . S
C2246 C2242 1.531 . S
C2246 H2258 0.960 . S
C2246 H2259 0.962 . S
C2246 H2260 0.960 . S
C2247 C2244 1.511 . S
C2247 H2261 0.961 . S
C2247 H2262 0.961 . S
C2247 H2263 0.961 . S
C2248 C2249 1.370 . S
C2248 C2250 1.363 . S
C2248 H2264 0.931 . S
C2249 C2248 1.370 . S
C2249 C2253 1.408 . S
C2250 C2248 1.363 . S
C2250 C2251 1.370 . S
C2250 C2254 1.524 . S
C2251 C2243 1.503 . S
C2251 C2250 1.370 . S
C2251 C2252 1.403 . S
C2252 C2251 1.403 . S
C2252 C2253 1.404 . S
C2252 C2255 1.539 . S
C2253 C2249 1.408 . S
C2253 C2252 1.404 . S
C2253 H2265 0.933 . S
C2254 C2250 1.524 . S
C2254 H2266 0.956 . S
C2254 H2267 0.961 . S
C2254 H2268 0.961 . S
C2255 C2252 1.539 . S
C2255 H2269 0.958 . S
C2255 H2270 0.961 . S
C2255 H2271 0.960 . S
H2256 C2240 0.931 . S
H2257 C2245 0.929 . S
H2258 C2246 0.960 . S
H2259 C2246 0.962 . S
H2260 C2246 0.960 . S
H2261 C2247 0.961 . S
H2262 C2247 0.961 . S
H2263 C2247 0.961 . S
H2264 C2248 0.931 . S
H2265 C2253 0.933 . S
H2266 C2254 0.956 . S
H2267 C2254 0.961 . S
H2268 C2254 0.961 . S
H2269 C2255 0.958 . S
H2270 C2255 0.961 . S
H2271 C2255 0.960 . S
C2272 C2273 1.391 . S
C2272 C2274 1.394 . S
C2272 H2288 0.931 . S
C2273 C2272 1.391 . S
C2273 C2277 1.376 . S
C2274 C2272 1.394 . S
C2274 C2275 1.369 . S
C2274 C2278 1.531 . S
C2275 C2274 1.369 . S
C2275 C2276 1.410 . S
C2275 C2283 1.503 . S
C2276 C2275 1.410 . S
C2276 C2277 1.392 . S
C2276 C2279 1.511 . S
C2277 C2273 1.376 . S
C2277 C2276 1.392 . S
C2277 H2289 0.929 . S
C2278 C2274 1.531 . S
C2278 H2290 0.960 . S
C2278 H2291 0.962 . S
C2278 H2292 0.960 . S
C2279 C2276 1.511 . S
C2279 H2293 0.961 . S
C2279 H2294 0.961 . S
C2279 H2295 0.961 . S
C2280 C2281 1.370 . S
C2280 C2282 1.363 . S
C2280 H2296 0.931 . S
C2281 C2280 1.370 . S
C2281 C2285 1.408 . S
C2282 C2280 1.363 . S
C2282 C2283 1.370 . S
C2282 C2286 1.524 . S
C2283 C2275 1.503 . S
C2283 C2282 1.370 . S
C2283 C2284 1.403 . S
C2284 C2283 1.403 . S
C2284 C2285 1.404 . S
C2284 C2287 1.539 . S
C2285 C2281 1.408 . S
C2285 C2284 1.404 . S
C2285 H2297 0.930 . S
C2286 C2282 1.524 . S
C2286 H2298 0.956 . S
C2286 H2299 0.961 . S
C2286 H2300 0.961 . S
C2287 C2284 1.539 . S
C2287 H2301 0.958 . S
C2287 H2302 0.961 . S
C2287 H2303 0.960 . S
H2288 C2272 0.931 . S
H2289 C2277 0.929 . S
H2290 C2278 0.960 . S
H2291 C2278 0.962 . S
H2292 C2278 0.960 . S
H2293 C2279 0.961 . S
H2294 C2279 0.961 . S
H2295 C2279 0.961 . S
H2296 C2280 0.931 . S
H2297 C2285 0.930 . S
H2298 C2286 0.956 . S
H2299 C2286 0.961 . S
H2300 C2286 0.961 . S
H2301 C2287 0.958 . S
H2302 C2287 0.961 . S
H2303 C2287 0.960 . S
C2304 C2305 1.391 . S
C2304 C2306 1.394 . S
C2304 H2320 0.931 . S
C2305 C2304 1.391 . S
C2305 C2309 1.376 . S
C2306 C2304 1.394 . S
C2306 C2307 1.369 . S
C2306 C2310 1.531 . S
C2307 C2306 1.369 . S
C2307 C2308 1.410 . S
C2307 C2315 1.503 . S
C2308 C2307 1.410 . S
C2308 C2309 1.392 . S
C2308 C2311 1.511 . S
C2309 C2305 1.376 . S
C2309 C2308 1.392 . S
C2309 H2321 0.929 . S
C2310 C2306 1.531 . S
C2310 H2322 0.960 . S
C2310 H2323 0.962 . S
C2310 H2324 0.960 . S
C2311 C2308 1.511 . S
C2311 H2325 0.961 . S
C2311 H2326 0.961 . S
C2311 H2327 0.961 . S
C2312 C2313 1.370 . S
C2312 C2314 1.363 . S
C2312 H2328 0.931 . S
C2313 C2312 1.370 . S
C2313 C2317 1.408 . S
C2314 C2312 1.363 . S
C2314 C2315 1.370 . S
C2314 C2318 1.524 . S
C2315 C2307 1.503 . S
C2315 C2314 1.370 . S
C2315 C2316 1.403 . S
C2316 C2315 1.403 . S
C2316 C2317 1.404 . S
C2316 C2319 1.539 . S
C2317 C2313 1.408 . S
C2317 C2316 1.404 . S
C2317 H2329 0.930 . S
C2318 C2314 1.524 . S
C2318 H2330 0.956 . S
C2318 H2331 0.961 . S
C2318 H2332 0.961 . S
C2319 C2316 1.539 . S
C2319 H2333 0.958 . S
C2319 H2334 0.961 . S
C2319 H2335 0.960 . S
H2320 C2304 0.931 . S
H2321 C2309 0.929 . S
H2322 C2310 0.960 . S
H2323 C2310 0.962 . S
H2324 C2310 0.960 . S
H2325 C2311 0.961 . S
H2326 C2311 0.961 . S
H2327 C2311 0.961 . S
H2328 C2312 0.931 . S
H2329 C2317 0.930 . S
H2330 C2318 0.956 . S
H2331 C2318 0.961 . S
H2332 C2318 0.961 . S
H2333 C2319 0.958 . S
H2334 C2319 0.961 . S
H2335 C2319 0.960 . S
C2336 C2337 1.391 . S
C2336 C2338 1.394 . S
C2336 H2352 0.931 . S
C2337 C2336 1.391 . S
C2337 C2341 1.376 . S
C2338 C2336 1.394 . S
C2338 C2339 1.369 . S
C2338 C2342 1.531 . S
C2339 C2338 1.369 . S
C2339 C2340 1.410 . S
C2339 C2347 1.503 . S
C2340 C2339 1.410 . S
C2340 C2341 1.392 . S
C2340 C2343 1.511 . S
C2341 C2337 1.376 . S
C2341 C2340 1.392 . S
C2341 H2353 0.929 . S
C2342 C2338 1.531 . S
C2342 H2354 0.960 . S
C2342 H2355 0.962 . S
C2342 H2356 0.960 . S
C2343 C2340 1.511 . S
C2343 H2357 0.961 . S
C2343 H2358 0.961 . S
C2343 H2359 0.961 . S
C2344 C2345 1.370 . S
C2344 C2346 1.363 . S
C2344 H2360 0.931 . S
C2345 C2344 1.370 . S
C2345 C2349 1.408 . S
C2346 C2344 1.363 . S
C2346 C2347 1.370 . S
C2346 C2350 1.524 . S
C2347 C2339 1.503 . S
C2347 C2346 1.370 . S
C2347 C2348 1.403 . S
C2348 C2347 1.403 . S
C2348 C2349 1.404 . S
C2348 C2351 1.539 . S
C2349 C2345 1.408 . S
C2349 C2348 1.404 . S
C2349 H2361 0.930 . S
C2350 C2346 1.524 . S
C2350 H2362 0.956 . S
C2350 H2363 0.961 . S
C2350 H2364 0.961 . S
C2351 C2348 1.539 . S
C2351 H2365 0.958 . S
C2351 H2366 0.961 . S
C2351 H2367 0.960 . S
H2352 C2336 0.931 . S
H2353 C2341 0.929 . S
H2354 C2342 0.960 . S
H2355 C2342 0.962 . S
H2356 C2342 0.960 . S
H2357 C2343 0.961 . S
H2358 C2343 0.961 . S
H2359 C2343 0.961 . S
H2360 C2344 0.931 . S
H2361 C2349 0.930 . S
H2362 C2350 0.956 . S
H2363 C2350 0.961 . S
H2364 C2350 0.961 . S
H2365 C2351 0.958 . S
H2366 C2351 0.961 . S
H2367 C2351 0.960 . S
C2368 C2369 1.391 . S
C2368 C2370 1.394 . S
C2368 H2384 0.931 . S
C2369 C2368 1.391 . S
C2369 C2373 1.376 . S
C2370 C2368 1.394 . S
C2370 C2371 1.369 . S
C2370 C2374 1.531 . S
C2371 C2370 1.369 . S
C2371 C2372 1.410 . S
C2371 C2379 1.503 . S
C2372 C2371 1.410 . S
C2372 C2373 1.392 . S
C2372 C2375 1.511 . S
C2373 C2369 1.376 . S
C2373 C2372 1.392 . S
C2373 H2385 0.929 . S
C2374 C2370 1.531 . S
C2374 H2386 0.960 . S
C2374 H2387 0.962 . S
C2374 H2388 0.960 . S
C2375 C2372 1.511 . S
C2375 H2389 0.961 . S
C2375 H2390 0.961 . S
C2375 H2391 0.961 . S
C2376 C2377 1.370 . S
C2376 C2378 1.363 . S
C2376 H2392 0.931 . S
C2377 C2376 1.370 . S
C2377 C2381 1.408 . S
C2378 C2376 1.363 . S
C2378 C2379 1.370 . S
C2378 C2382 1.524 . S
C2379 C2371 1.503 . S
C2379 C2378 1.370 . S
C2379 C2380 1.403 . S
C2380 C2379 1.403 . S
C2380 C2381 1.404 . S
C2380 C2383 1.539 . S
C2381 C2377 1.408 . S
C2381 C2380 1.404 . S
C2381 H2393 0.930 . S
C2382 C2378 1.524 . S
C2382 H2394 0.956 . S
C2382 H2395 0.961 . S
C2382 H2396 0.961 . S
C2383 C2380 1.539 . S
C2383 H2397 0.958 . S
C2383 H2398 0.961 . S
C2383 H2399 0.960 . S
H2384 C2368 0.931 . S
H2385 C2373 0.929 . S
H2386 C2374 0.960 . S
H2387 C2374 0.962 . S
H2388 C2374 0.960 . S
H2389 C2375 0.961 . S
H2390 C2375 0.961 . S
H2391 C2375 0.961 . S
H2392 C2376 0.931 . S
H2393 C2381 0.930 . S
H2394 C2382 0.956 . S
H2395 C2382 0.961 . S
H2396 C2382 0.961 . S
H2397 C2383 0.958 . S
H2398 C2383 0.961 . S
H2399 C2383 0.960 . S
C2400 C2401 1.391 . S
C2400 C2402 1.394 . S
C2400 H2416 0.931 . S
C2401 C2400 1.391 . S
C2401 C2405 1.376 . S
C2402 C2400 1.394 . S
C2402 C2403 1.369 . S
C2402 C2406 1.531 . S
C2403 C2402 1.369 . S
C2403 C2404 1.410 . S
C2403 C2411 1.503 . S
C2404 C2403 1.410 . S
C2404 C2405 1.392 . S
C2404 C2407 1.511 . S
C2405 C2401 1.376 . S
C2405 C2404 1.392 . S
C2405 H2417 0.929 . S
C2406 C2402 1.531 . S
C2406 H2418 0.960 . S
C2406 H2419 0.962 . S
C2406 H2420 0.960 . S
C2407 C2404 1.511 . S
C2407 H2421 0.961 . S
C2407 H2422 0.961 . S
C2407 H2423 0.961 . S
C2408 C2409 1.370 . S
C2408 C2410 1.363 . S
C2408 H2424 0.931 . S
C2409 C2408 1.370 . S
C2409 C2413 1.408 . S
C2410 C2408 1.363 . S
C2410 C2411 1.370 . S
C2410 C2414 1.524 . S
C2411 C2403 1.503 . S
C2411 C2410 1.370 . S
C2411 C2412 1.403 . S
C2412 C2411 1.403 . S
C2412 C2413 1.404 . S
C2412 C2415 1.539 . S
C2413 C2409 1.408 . S
C2413 C2412 1.404 . S
C2413 H2425 0.930 . S
C2414 C2410 1.524 . S
C2414 H2426 0.956 . S
C2414 H2427 0.961 . S
C2414 H2428 0.961 . S
C2415 C2412 1.539 . S
C2415 H2429 0.958 . S
C2415 H2430 0.961 . S
C2415 H2431 0.960 . S
H2416 C2400 0.931 . S
H2417 C2405 0.929 . S
H2418 C2406 0.960 . S
H2419 C2406 0.962 . S
H2420 C2406 0.960 . S
H2421 C2407 0.961 . S
H2422 C2407 0.961 . S
H2423 C2407 0.961 . S
H2424 C2408 0.931 . S
H2425 C2413 0.930 . S
H2426 C2414 0.956 . S
H2427 C2414 0.961 . S
H2428 C2414 0.961 . S
H2429 C2415 0.958 . S
H2430 C2415 0.961 . S
H2431 C2415 0.960 . S
C2432 C2433 1.391 . S
C2432 C2434 1.394 . S
C2432 H2448 0.931 . S
C2433 C2432 1.391 . S
C2433 C2437 1.376 . S
C2434 C2432 1.394 . S
C2434 C2435 1.369 . S
C2434 C2438 1.531 . S
C2435 C2434 1.369 . S
C2435 C2436 1.410 . S
C2435 C2443 1.503 . S
C2436 C2435 1.410 . S
C2436 C2437 1.392 . S
C2436 C2439 1.511 . S
C2437 C2433 1.376 . S
C2437 C2436 1.392 . S
C2437 H2449 0.929 . S
C2438 C2434 1.531 . S
C2438 H2450 0.960 . S
C2438 H2451 0.962 . S
C2438 H2452 0.960 . S
C2439 C2436 1.511 . S
C2439 H2453 0.961 . S
C2439 H2454 0.961 . S
C2439 H2455 0.961 . S
C2440 C2441 1.370 . S
C2440 C2442 1.363 . S
C2440 H2456 0.931 . S
C2441 C2440 1.370 . S
C2441 C2445 1.408 . S
C2442 C2440 1.363 . S
C2442 C2443 1.370 . S
C2442 C2446 1.524 . S
C2443 C2435 1.503 . S
C2443 C2442 1.370 . S
C2443 C2444 1.403 . S
C2444 C2443 1.403 . S
C2444 C2445 1.404 . S
C2444 C2447 1.539 . S
C2445 C2441 1.408 . S
C2445 C2444 1.404 . S
C2445 H2457 0.930 . S
C2446 C2442 1.524 . S
C2446 H2458 0.956 . S
C2446 H2459 0.961 . S
C2446 H2460 0.961 . S
C2447 C2444 1.539 . S
C2447 H2461 0.958 . S
C2447 H2462 0.961 . S
C2447 H2463 0.960 . S
H2448 C2432 0.931 . S
H2449 C2437 0.929 . S
H2450 C2438 0.960 . S
H2451 C2438 0.962 . S
H2452 C2438 0.960 . S
H2453 C2439 0.961 . S
H2454 C2439 0.961 . S
H2455 C2439 0.961 . S
H2456 C2440 0.931 . S
H2457 C2445 0.930 . S
H2458 C2446 0.956 . S
H2459 C2446 0.961 . S
H2460 C2446 0.961 . S
H2461 C2447 0.958 . S
H2462 C2447 0.961 . S
H2463 C2447 0.960 . S
C2464 C2465 1.391 . S
C2464 C2466 1.394 . S
C2464 H2480 0.931 . S
C2465 C2464 1.391 . S
C2465 C2469 1.376 . S
C2466 C2464 1.394 . S
C2466 C2467 1.369 . S
C2466 C2470 1.531 . S
C2467 C2466 1.369 . S
C2467 C2468 1.410 . S
C2467 C2475 1.503 . S
C2468 C2467 1.410 . S
C2468 C2469 1.392 . S
C2468 C2471 1.511 . S
C2469 C2465 1.376 . S
C2469 C2468 1.392 . S
C2469 H2481 0.929 . S
C2470 C2466 1.531 . S
C2470 H2482 0.960 . S
C2470 H2483 0.962 . S
C2470 H2484 0.960 . S
C2471 C2468 1.511 . S
C2471 H2485 0.961 . S
C2471 H2486 0.961 . S
C2471 H2487 0.961 . S
C2472 C2473 1.370 . S
C2472 C2474 1.363 . S
C2472 H2488 0.931 . S
C2473 C2472 1.370 . S
C2473 C2477 1.408 . S
C2474 C2472 1.363 . S
C2474 C2475 1.370 . S
C2474 C2478 1.524 . S
C2475 C2467 1.503 . S
C2475 C2474 1.370 . S
C2475 C2476 1.403 . S
C2476 C2475 1.403 . S
C2476 C2477 1.404 . S
C2476 C2479 1.539 . S
C2477 C2473 1.408 . S
C2477 C2476 1.404 . S
C2477 H2489 0.930 . S
C2478 C2474 1.524 . S
C2478 H2490 0.956 . S
C2478 H2491 0.961 . S
C2478 H2492 0.961 . S
C2479 C2476 1.539 . S
C2479 H2493 0.958 . S
C2479 H2494 0.961 . S
C2479 H2495 0.960 . S
H2480 C2464 0.931 . S
H2481 C2469 0.929 . S
H2482 C2470 0.960 . S
H2483 C2470 0.962 . S
H2484 C2470 0.960 . S
H2485 C2471 0.961 . S
H2486 C2471 0.961 . S
H2487 C2471 0.961 . S
H2488 C2472 0.931 . S
H2489 C2477 0.930 . S
H2490 C2478 0.956 . S
H2491 C2478 0.961 . S
H2492 C2478 0.961 . S
H2493 C2479 0.958 . S
H2494 C2479 0.961 . S
H2495 C2479 0.960 . S
C2496 C2497 1.391 . S
C2496 C2498 1.394 . S
C2496 H2512 0.931 . S
C2497 C2496 1.391 . S
C2497 C2501 1.376 . S
C2498 C2496 1.394 . S
C2498 C2499 1.369 . S
C2498 C2502 1.531 . S
C2499 C2498 1.369 . S
C2499 C2500 1.410 . S
C2499 C2507 1.503 . S
C2500 C2499 1.410 . S
C2500 C2501 1.392 . S
C2500 C2503 1.511 . S
C2501 C2497 1.376 . S
C2501 C2500 1.392 . S
C2501 H2513 0.929 . S
C2502 C2498 1.531 . S
C2502 H2514 0.960 . S
C2502 H2515 0.962 . S
C2502 H2516 0.960 . S
C2503 C2500 1.511 . S
C2503 H2517 0.961 . S
C2503 H2518 0.961 . S
C2503 H2519 0.961 . S
C2504 C2505 1.370 . S
C2504 C2506 1.363 . S
C2504 H2520 0.931 . S
C2505 C2504 1.370 . S
C2505 C2509 1.408 . S
C2506 C2504 1.363 . S
C2506 C2507 1.370 . S
C2506 C2510 1.524 . S
C2507 C2499 1.503 . S
C2507 C2506 1.370 . S
C2507 C2508 1.403 . S
C2508 C2507 1.403 . S
C2508 C2509 1.404 . S
C2508 C2511 1.539 . S
C2509 C2505 1.408 . S
C2509 C2508 1.404 . S
C2509 H2521 0.930 . S
C2510 C2506 1.524 . S
C2510 H2522 0.956 . S
C2510 H2523 0.961 . S
C2510 H2524 0.961 . S
C2511 C2508 1.539 . S
C2511 H2525 0.958 . S
C2511 H2526 0.961 . S
C2511 H2527 0.960 . S
H2512 C2496 0.931 . S
H2513 C2501 0.929 . S
H2514 C2502 0.960 . S
H2515 C2502 0.962 . S
H2516 C2502 0.960 . S
H2517 C2503 0.961 . S
H2518 C2503 0.961 . S
H2519 C2503 0.961 . S
H2520 C2504 0.931 . S
H2521 C2509 0.930 . S
H2522 C2510 0.956 . S
H2523 C2510 0.961 . S
H2524 C2510 0.961 . S
H2525 C2511 0.958 . S
H2526 C2511 0.961 . S
H2527 C2511 0.960 . S
C2528 C2529 1.391 . S
C2528 C2530 1.394 . S
C2528 H2544 0.931 . S
C2529 C2528 1.391 . S
C2529 C2533 1.376 . S
C2530 C2528 1.394 . S
C2530 C2531 1.369 . S
C2530 C2534 1.531 . S
C2531 C2530 1.369 . S
C2531 C2532 1.410 . S
C2531 C2539 1.503 . S
C2532 C2531 1.410 . S
C2532 C2533 1.392 . S
C2532 C2535 1.511 . S
C2533 C2529 1.376 . S
C2533 C2532 1.392 . S
C2533 H2545 0.929 . S
C2534 C2530 1.531 . S
C2534 H2546 0.960 . S
C2534 H2547 0.962 . S
C2534 H2548 0.960 . S
C2535 C2532 1.511 . S
C2535 H2549 0.961 . S
C2535 H2550 0.961 . S
C2535 H2551 0.961 . S
C2536 C2537 1.370 . S
C2536 C2538 1.363 . S
C2536 H2552 0.931 . S
C2537 C2536 1.370 . S
C2537 C2541 1.408 . S
C2538 C2536 1.363 . S
C2538 C2539 1.370 . S
C2538 C2542 1.524 . S
C2539 C2531 1.503 . S
C2539 C2538 1.370 . S
C2539 C2540 1.403 . S
C2540 C2539 1.403 . S
C2540 C2541 1.404 . S
C2540 C2543 1.539 . S
C2541 C2537 1.408 . S
C2541 C2540 1.404 . S
C2541 H2553 0.930 . S
C2542 C2538 1.524 . S
C2542 H2554 0.956 . S
C2542 H2555 0.961 . S
C2542 H2556 0.961 . S
C2543 C2540 1.539 . S
C2543 H2557 0.958 . S
C2543 H2558 0.961 . S
C2543 H2559 0.960 . S
H2544 C2528 0.931 . S
H2545 C2533 0.929 . S
H2546 C2534 0.960 . S
H2547 C2534 0.962 . S
H2548 C2534 0.960 . S
H2549 C2535 0.961 . S
H2550 C2535 0.961 . S
H2551 C2535 0.961 . S
H2552 C2536 0.931 . S
H2553 C2541 0.930 . S
H2554 C2542 0.956 . S
H2555 C2542 0.961 . S
H2556 C2542 0.961 . S
H2557 C2543 0.958 . S
H2558 C2543 0.961 . S
H2559 C2543 0.960 . S
C2560 C2561 1.391 . S
C2560 C2562 1.394 . S
C2560 H2576 0.931 . S
C2561 C2560 1.391 . S
C2561 C2565 1.376 . S
C2562 C2560 1.394 . S
C2562 C2563 1.369 . S
C2562 C2566 1.531 . S
C2563 C2562 1.369 . S
C2563 C2564 1.410 . S
C2563 C2571 1.503 . S
C2564 C2563 1.410 . S
C2564 C2565 1.392 . S
C2564 C2567 1.511 . S
C2565 C2561 1.376 . S
C2565 C2564 1.392 . S
C2565 H2577 0.929 . S
C2566 C2562 1.531 . S
C2566 H2578 0.960 . S
C2566 H2579 0.962 . S
C2566 H2580 0.960 . S
C2567 C2564 1.511 . S
C2567 H2581 0.961 1_655 S
C2567 H2582 0.961 . S
C2567 H2583 0.961 1_655 S
C2568 C2569 1.370 . S
C2568 C2570 1.363 . S
C2568 H2584 0.931 . S
C2569 C2568 1.370 . S
C2569 C2573 1.408 . S
C2570 C2568 1.363 . S
C2570 C2571 1.370 . S
C2570 C2574 1.524 . S
C2571 C2563 1.503 . S
C2571 C2570 1.370 . S
C2571 C2572 1.403 . S
C2572 C2571 1.403 . S
C2572 C2573 1.404 . S
C2572 C2575 1.539 . S
C2573 C2569 1.408 . S
C2573 C2572 1.404 . S
C2573 H2585 0.930 . S
C2574 C2570 1.524 . S
C2574 H2586 0.956 . S
C2574 H2587 0.961 . S
C2574 H2588 0.961 . S
C2575 C2572 1.539 . S
C2575 H2589 0.958 . S
C2575 H2590 0.961 . S
C2575 H2591 0.960 . S
H2576 C2560 0.931 . S
H2577 C2565 0.929 . S
H2578 C2566 0.960 . S
H2579 C2566 0.962 . S
H2580 C2566 0.960 . S
H2581 C2567 0.961 1_455 S
H2582 C2567 0.961 . S
H2583 C2567 0.961 1_455 S
H2584 C2568 0.931 . S
H2585 C2573 0.930 . S
H2586 C2574 0.956 . S
H2587 C2574 0.961 . S
H2588 C2574 0.961 . S
H2589 C2575 0.958 . S
H2590 C2575 0.961 . S
H2591 C2575 0.960 . S
C2592 C2593 1.391 . S
C2592 C2594 1.394 . S
C2592 H2608 0.931 . S
C2593 C2592 1.391 . S
C2593 C2597 1.376 . S
C2594 C2592 1.394 . S
C2594 C2595 1.369 . S
C2594 C2598 1.531 . S
C2595 C2594 1.369 . S
C2595 C2596 1.410 . S
C2595 C2603 1.503 . S
C2596 C2595 1.410 . S
C2596 C2597 1.392 . S
C2596 C2599 1.511 . S
C2597 C2593 1.376 . S
C2597 C2596 1.392 . S
C2597 H2609 0.929 . S
C2598 C2594 1.531 . S
C2598 H2610 0.960 . S
C2598 H2611 0.962 . S
C2598 H2612 0.960 . S
C2599 C2596 1.511 . S
C2599 H2613 0.961 . S
C2599 H2614 0.961 . S
C2599 H2615 0.961 . S
C2600 C2601 1.370 . S
C2600 C2602 1.363 . S
C2600 H2616 0.931 . S
C2601 C2600 1.370 . S
C2601 C2605 1.408 . S
C2602 C2600 1.363 . S
C2602 C2603 1.370 . S
C2602 C2606 1.524 . S
C2603 C2595 1.503 . S
C2603 C2602 1.370 . S
C2603 C2604 1.403 . S
C2604 C2603 1.403 . S
C2604 C2605 1.404 . S
C2604 C2607 1.539 . S
C2605 C2601 1.408 . S
C2605 C2604 1.404 . S
C2605 H2617 0.930 . S
C2606 C2602 1.524 . S
C2606 H2618 0.956 . S
C2606 H2619 0.961 . S
C2606 H2620 0.961 . S
C2607 C2604 1.539 . S
C2607 H2621 0.958 . S
C2607 H2622 0.961 . S
C2607 H2623 0.960 . S
H2608 C2592 0.931 . S
H2609 C2597 0.929 . S
H2610 C2598 0.960 . S
H2611 C2598 0.962 . S
H2612 C2598 0.960 . S
H2613 C2599 0.961 . S
H2614 C2599 0.961 . S
H2615 C2599 0.961 . S
H2616 C2600 0.931 . S
H2617 C2605 0.930 . S
H2618 C2606 0.956 . S
H2619 C2606 0.961 . S
H2620 C2606 0.961 . S
H2621 C2607 0.958 . S
H2622 C2607 0.961 . S
H2623 C2607 0.960 . S
C2624 C2625 1.391 . S
C2624 C2626 1.394 . S
C2624 H2640 0.931 . S
C2625 C2624 1.391 . S
C2625 C2629 1.376 . S
C2626 C2624 1.394 . S
C2626 C2627 1.369 . S
C2626 C2630 1.531 . S
C2627 C2626 1.369 . S
C2627 C2628 1.410 . S
C2627 C2635 1.503 . S
C2628 C2627 1.410 . S
C2628 C2629 1.392 . S
C2628 C2631 1.511 . S
C2629 C2625 1.376 . S
C2629 C2628 1.392 . S
C2629 H2641 0.929 . S
C2630 C2626 1.531 . S
C2630 H2642 0.960 . S
C2630 H2643 0.962 1_655 S
C2630 H2644 0.960 1_655 S
C2631 C2628 1.511 . S
C2631 H2645 0.961 . S
C2631 H2646 0.961 . S
C2631 H2647 0.961 . S
C2632 C2633 1.370 . S
C2632 C2634 1.363 . S
C2632 H2648 0.931 1_556 S
C2633 C2632 1.370 . S
C2633 C2637 1.408 . S
C2634 C2632 1.363 . S
C2634 C2635 1.370 . S
C2634 C2638 1.524 . S
C2635 C2627 1.503 . S
C2635 C2634 1.370 . S
C2635 C2636 1.403 . S
C2636 C2635 1.403 . S
C2636 C2637 1.404 . S
C2636 C2639 1.539 . S
C2637 C2633 1.408 . S
C2637 C2636 1.404 . S
C2637 H2649 0.930 . S
C2638 C2634 1.524 . S
C2638 H2650 0.956 . S
C2638 H2651 0.961 . S
C2638 H2652 0.961 . S
C2639 C2636 1.539 . S
C2639 H2653 0.958 . S
C2639 H2654 0.961 . S
C2639 H2655 0.960 . S
H2640 C2624 0.931 . S
H2641 C2629 0.929 . S
H2642 C2630 0.960 . S
H2643 C2630 0.962 1_455 S
H2644 C2630 0.960 1_455 S
H2645 C2631 0.961 . S
H2646 C2631 0.961 . S
H2647 C2631 0.961 . S
H2648 C2632 0.931 1_554 S
H2649 C2637 0.930 . S
H2650 C2638 0.956 . S
H2651 C2638 0.961 . S
H2652 C2638 0.961 . S
H2653 C2639 0.958 . S
H2654 C2639 0.961 . S
H2655 C2639 0.960 . S
C2656 C2657 1.391 . S
C2656 C2658 1.394 . S
C2656 H2672 0.931 . S
C2657 C2656 1.391 . S
C2657 C2661 1.376 . S
C2658 C2656 1.394 . S
C2658 C2659 1.369 . S
C2658 C2662 1.531 . S
C2659 C2658 1.369 . S
C2659 C2660 1.410 . S
C2659 C2667 1.503 . S
C2660 C2659 1.410 . S
C2660 C2661 1.392 . S
C2660 C2663 1.511 . S
C2661 C2657 1.376 . S
C2661 C2660 1.392 . S
C2661 H2673 0.929 . S
C2662 C2658 1.531 . S
C2662 H2674 0.960 . S
C2662 H2675 0.962 . S
C2662 H2676 0.960 . S
C2663 C2660 1.511 . S
C2663 H2677 0.961 . S
C2663 H2678 0.961 . S
C2663 H2679 0.961 . S
C2664 C2665 1.370 . S
C2664 C2666 1.363 . S
C2664 H2680 0.931 . S
C2665 C2664 1.370 . S
C2665 C2669 1.408 . S
C2666 C2664 1.363 . S
C2666 C2667 1.370 . S
C2666 C2670 1.524 . S
C2667 C2659 1.503 . S
C2667 C2666 1.370 . S
C2667 C2668 1.403 . S
C2668 C2667 1.403 . S
C2668 C2669 1.404 . S
C2668 C2671 1.539 . S
C2669 C2665 1.408 . S
C2669 C2668 1.404 . S
C2669 H2681 0.930 . S
C2670 C2666 1.524 . S
C2670 H2682 0.956 . S
C2670 H2683 0.961 . S
C2670 H2684 0.961 . S
C2671 C2668 1.539 . S
C2671 H2685 0.958 . S
C2671 H2686 0.961 . S
C2671 H2687 0.960 . S
H2672 C2656 0.931 . S
H2673 C2661 0.929 . S
H2674 C2662 0.960 . S
H2675 C2662 0.962 . S
H2676 C2662 0.960 . S
H2677 C2663 0.961 . S
H2678 C2663 0.961 . S
H2679 C2663 0.961 . S
H2680 C2664 0.931 . S
H2681 C2669 0.930 . S
H2682 C2670 0.956 . S
H2683 C2670 0.961 . S
H2684 C2670 0.961 . S
H2685 C2671 0.958 . S
H2686 C2671 0.961 . S
H2687 C2671 0.960 . S
C2688 C2689 1.391 . S
C2688 C2690 1.394 . S
C2688 H2704 0.931 . S
C2689 C2688 1.391 . S
C2689 C2693 1.376 . S
C2690 C2688 1.394 . S
C2690 C2691 1.369 . S
C2690 C2694 1.531 . S
C2691 C2690 1.369 . S
C2691 C2692 1.410 . S
C2691 C2699 1.503 . S
C2692 C2691 1.410 . S
C2692 C2693 1.392 . S
C2692 C2695 1.511 . S
C2693 C2689 1.376 . S
C2693 C2692 1.392 . S
C2693 H2705 0.929 . S
C2694 C2690 1.531 . S
C2694 H2706 0.960 . S
C2694 H2707 0.962 . S
C2694 H2708 0.960 . S
C2695 C2692 1.511 . S
C2695 H2709 0.961 . S
C2695 H2710 0.961 . S
C2695 H2711 0.961 . S
C2696 C2697 1.370 . S
C2696 C2698 1.363 . S
C2696 H2712 0.931 . S
C2697 C2696 1.370 . S
C2697 C2701 1.408 . S
C2698 C2696 1.363 . S
C2698 C2699 1.370 . S
C2698 C2702 1.524 . S
C2699 C2691 1.503 . S
C2699 C2698 1.370 . S
C2699 C2700 1.403 . S
C2700 C2699 1.403 . S
C2700 C2701 1.404 . S
C2700 C2703 1.539 . S
C2701 C2697 1.408 . S
C2701 C2700 1.404 . S
C2701 H2713 0.930 . S
C2702 C2698 1.524 . S
C2702 H2714 0.956 . S
C2702 H2715 0.961 . S
C2702 H2716 0.961 . S
C2703 C2700 1.539 . S
C2703 H2717 0.958 . S
C2703 H2718 0.961 . S
C2703 H2719 0.960 . S
H2704 C2688 0.931 . S
H2705 C2693 0.929 . S
H2706 C2694 0.960 . S
H2707 C2694 0.962 . S
H2708 C2694 0.960 . S
H2709 C2695 0.961 . S
H2710 C2695 0.961 . S
H2711 C2695 0.961 . S
H2712 C2696 0.931 . S
H2713 C2701 0.930 . S
H2714 C2702 0.956 . S
H2715 C2702 0.961 . S
H2716 C2702 0.961 . S
H2717 C2703 0.958 . S
H2718 C2703 0.961 . S
H2719 C2703 0.960 . S
C2720 C2721 1.391 . S
C2720 C2722 1.394 . S
C2720 H2736 0.931 . S
C2721 C2720 1.391 . S
C2721 C2725 1.376 . S
C2722 C2720 1.394 . S
C2722 C2723 1.369 . S
C2722 C2726 1.531 . S
C2723 C2722 1.369 . S
C2723 C2724 1.410 . S
C2723 C2731 1.503 . S
C2724 C2723 1.410 . S
C2724 C2725 1.392 . S
C2724 C2727 1.511 . S
C2725 C2721 1.376 . S
C2725 C2724 1.392 . S
C2725 H2737 0.929 . S
C2726 C2722 1.531 . S
C2726 H2738 0.960 . S
C2726 H2739 0.962 . S
C2726 H2740 0.960 . S
C2727 C2724 1.511 . S
C2727 H2741 0.961 . S
C2727 H2742 0.961 . S
C2727 H2743 0.961 . S
C2728 C2729 1.370 . S
C2728 C2730 1.363 . S
C2728 H2744 0.931 . S
C2729 C2728 1.370 . S
C2729 C2733 1.408 . S
C2730 C2728 1.363 . S
C2730 C2731 1.370 . S
C2730 C2734 1.524 . S
C2731 C2723 1.503 . S
C2731 C2730 1.370 . S
C2731 C2732 1.403 . S
C2732 C2731 1.403 . S
C2732 C2733 1.404 . S
C2732 C2735 1.539 . S
C2733 C2729 1.408 . S
C2733 C2732 1.404 . S
C2733 H2745 0.930 . S
C2734 C2730 1.524 . S
C2734 H2746 0.956 . S
C2734 H2747 0.961 . S
C2734 H2748 0.961 . S
C2735 C2732 1.539 . S
C2735 H2749 0.958 . S
C2735 H2750 0.961 . S
C2735 H2751 0.960 . S
H2736 C2720 0.931 . S
H2737 C2725 0.929 . S
H2738 C2726 0.960 . S
H2739 C2726 0.962 . S
H2740 C2726 0.960 . S
H2741 C2727 0.961 . S
H2742 C2727 0.961 . S
H2743 C2727 0.961 . S
H2744 C2728 0.931 . S
H2745 C2733 0.930 . S
H2746 C2734 0.956 . S
H2747 C2734 0.961 . S
H2748 C2734 0.961 . S
H2749 C2735 0.958 . S
H2750 C2735 0.961 . S
H2751 C2735 0.960 . S
C2752 C2753 1.391 . S
C2752 C2754 1.394 . S
C2752 H2768 0.931 . S
C2753 C2752 1.391 . S
C2753 C2757 1.376 . S
C2754 C2752 1.394 . S
C2754 C2755 1.369 . S
C2754 C2758 1.531 . S
C2755 C2754 1.369 . S
C2755 C2756 1.410 . S
C2755 C2763 1.503 . S
C2756 C2755 1.410 . S
C2756 C2757 1.392 . S
C2756 C2759 1.511 . S
C2757 C2753 1.376 . S
C2757 C2756 1.392 . S
C2757 H2769 0.929 . S
C2758 C2754 1.531 . S
C2758 H2770 0.960 . S
C2758 H2771 0.962 . S
C2758 H2772 0.960 . S
C2759 C2756 1.511 . S
C2759 H2773 0.961 . S
C2759 H2774 0.961 . S
C2759 H2775 0.961 . S
C2760 C2761 1.370 . S
C2760 C2762 1.363 . S
C2760 H2776 0.931 . S
C2761 C2760 1.370 . S
C2761 C2765 1.408 . S
C2762 C2760 1.363 . S
C2762 C2763 1.370 . S
C2762 C2766 1.524 . S
C2763 C2755 1.503 . S
C2763 C2762 1.370 . S
C2763 C2764 1.403 . S
C2764 C2763 1.403 . S
C2764 C2765 1.404 . S
C2764 C2767 1.539 . S
C2765 C2761 1.408 . S
C2765 C2764 1.404 . S
C2765 H2777 0.930 . S
C2766 C2762 1.524 . S
C2766 H2778 0.956 . S
C2766 H2779 0.961 . S
C2766 H2780 0.961 . S
C2767 C2764 1.539 . S
C2767 H2781 0.958 . S
C2767 H2782 0.961 . S
C2767 H2783 0.960 . S
H2768 C2752 0.931 . S
H2769 C2757 0.929 . S
H2770 C2758 0.960 . S
H2771 C2758 0.962 . S
H2772 C2758 0.960 . S
H2773 C2759 0.961 . S
H2774 C2759 0.961 . S
H2775 C2759 0.961 . S
H2776 C2760 0.931 . S
H2777 C2765 0.930 . S
H2778 C2766 0.956 . S
H2779 C2766 0.961 . S
H2780 C2766 0.961 . S
H2781 C2767 0.958 . S
H2782 C2767 0.961 . S
H2783 C2767 0.960 . S
C2784 C2785 1.391 . S
C2784 C2786 1.394 . S
C2784 H2800 0.931 . S
C2785 C2784 1.391 . S
C2785 C2789 1.376 . S
C2786 C2784 1.394 . S
C2786 C2787 1.369 . S
C2786 C2790 1.531 . S
C2787 C2786 1.369 . S
C2787 C2788 1.410 . S
C2787 C2795 1.503 . S
C2788 C2787 1.410 . S
C2788 C2789 1.392 . S
C2788 C2791 1.511 . S
C2789 C2785 1.376 . S
C2789 C2788 1.392 . S
C2789 H2801 0.929 . S
C2790 C2786 1.531 . S
C2790 H2802 0.960 . S
C2790 H2803 0.962 . S
C2790 H2804 0.960 . S
C2791 C2788 1.511 . S
C2791 H2805 0.961 . S
C2791 H2806 0.961 . S
C2791 H2807 0.961 . S
C2792 C2793 1.370 . S
C2792 C2794 1.363 . S
C2792 H2808 0.931 . S
C2793 C2792 1.370 . S
C2793 C2797 1.408 . S
C2794 C2792 1.363 . S
C2794 C2795 1.370 . S
C2794 C2798 1.524 . S
C2795 C2787 1.503 . S
C2795 C2794 1.370 . S
C2795 C2796 1.403 . S
C2796 C2795 1.403 . S
C2796 C2797 1.404 . S
C2796 C2799 1.539 . S
C2797 C2793 1.408 . S
C2797 C2796 1.404 . S
C2797 H2809 0.930 . S
C2798 C2794 1.524 . S
C2798 H2810 0.956 . S
C2798 H2811 0.961 . S
C2798 H2812 0.961 . S
C2799 C2796 1.539 . S
C2799 H2813 0.958 . S
C2799 H2814 0.961 . S
C2799 H2815 0.960 . S
H2800 C2784 0.931 . S
H2801 C2789 0.929 . S
H2802 C2790 0.960 . S
H2803 C2790 0.962 . S
H2804 C2790 0.960 . S
H2805 C2791 0.961 . S
H2806 C2791 0.961 . S
H2807 C2791 0.961 . S
H2808 C2792 0.931 . S
H2809 C2797 0.930 . S
H2810 C2798 0.956 . S
H2811 C2798 0.961 . S
H2812 C2798 0.961 . S
H2813 C2799 0.958 . S
H2814 C2799 0.961 . S
H2815 C2799 0.960 . S
C2816 C2817 1.391 . S
C2816 C2818 1.394 . S
C2816 H2832 0.931 . S
C2817 C2816 1.391 . S
C2817 C2821 1.376 . S
C2818 C2816 1.394 . S
C2818 C2819 1.369 . S
C2818 C2822 1.531 . S
C2819 C2818 1.369 . S
C2819 C2820 1.410 . S
C2819 C2827 1.503 . S
C2820 C2819 1.410 . S
C2820 C2821 1.392 . S
C2820 C2823 1.511 . S
C2821 C2817 1.376 . S
C2821 C2820 1.392 . S
C2821 H2833 0.929 . S
C2822 C2818 1.531 . S
C2822 H2834 0.960 . S
C2822 H2835 0.962 . S
C2822 H2836 0.960 . S
C2823 C2820 1.511 . S
C2823 H2837 0.961 . S
C2823 H2838 0.961 . S
C2823 H2839 0.961 . S
C2824 C2825 1.370 . S
C2824 C2826 1.363 . S
C2824 H2840 0.931 . S
C2825 C2824 1.370 . S
C2825 C2829 1.408 . S
C2826 C2824 1.363 . S
C2826 C2827 1.370 . S
C2826 C2830 1.524 . S
C2827 C2819 1.503 . S
C2827 C2826 1.370 . S
C2827 C2828 1.403 . S
C2828 C2827 1.403 . S
C2828 C2829 1.404 . S
C2828 C2831 1.539 . S
C2829 C2825 1.408 . S
C2829 C2828 1.404 . S
C2829 H2841 0.930 . S
C2830 C2826 1.524 . S
C2830 H2842 0.956 . S
C2830 H2843 0.961 . S
C2830 H2844 0.961 . S
C2831 C2828 1.539 . S
C2831 H2845 0.958 . S
C2831 H2846 0.961 . S
C2831 H2847 0.960 . S
H2832 C2816 0.931 . S
H2833 C2821 0.929 . S
H2834 C2822 0.960 . S
H2835 C2822 0.962 . S
H2836 C2822 0.960 . S
H2837 C2823 0.961 . S
H2838 C2823 0.961 . S
H2839 C2823 0.961 . S
H2840 C2824 0.931 . S
H2841 C2829 0.930 . S
H2842 C2830 0.956 . S
H2843 C2830 0.961 . S
H2844 C2830 0.961 . S
H2845 C2831 0.958 . S
H2846 C2831 0.961 . S
H2847 C2831 0.960 . S
C2848 C2849 1.391 . S
C2848 C2850 1.394 . S
C2848 H2864 0.931 . S
C2849 C2848 1.391 . S
C2849 C2853 1.376 . S
C2850 C2848 1.394 . S
C2850 C2851 1.369 . S
C2850 C2854 1.531 . S
C2851 C2850 1.369 . S
C2851 C2852 1.410 . S
C2851 C2859 1.503 . S
C2852 C2851 1.410 . S
C2852 C2853 1.392 . S
C2852 C2855 1.511 . S
C2853 C2849 1.376 . S
C2853 C2852 1.392 . S
C2853 H2865 0.929 . S
C2854 C2850 1.531 . S
C2854 H2866 0.960 . S
C2854 H2867 0.962 . S
C2854 H2868 0.960 . S
C2855 C2852 1.511 . S
C2855 H2869 0.961 . S
C2855 H2870 0.961 . S
C2855 H2871 0.961 . S
C2856 C2857 1.370 . S
C2856 C2858 1.363 . S
C2856 H2872 0.931 . S
C2857 C2856 1.370 . S
C2857 C2861 1.408 . S
C2858 C2856 1.363 . S
C2858 C2859 1.370 . S
C2858 C2862 1.524 . S
C2859 C2851 1.503 . S
C2859 C2858 1.370 . S
C2859 C2860 1.403 . S
C2860 C2859 1.403 . S
C2860 C2861 1.404 . S
C2860 C2863 1.539 . S
C2861 C2857 1.408 . S
C2861 C2860 1.404 . S
C2861 H2873 0.930 . S
C2862 C2858 1.524 . S
C2862 H2874 0.956 . S
C2862 H2875 0.961 . S
C2862 H2876 0.961 . S
C2863 C2860 1.539 . S
C2863 H2877 0.958 . S
C2863 H2878 0.961 . S
C2863 H2879 0.960 . S
H2864 C2848 0.931 . S
H2865 C2853 0.929 . S
H2866 C2854 0.960 . S
H2867 C2854 0.962 . S
H2868 C2854 0.960 . S
H2869 C2855 0.961 . S
H2870 C2855 0.961 . S
H2871 C2855 0.961 . S
H2872 C2856 0.931 . S
H2873 C2861 0.930 . S
H2874 C2862 0.956 . S
H2875 C2862 0.961 . S
H2876 C2862 0.961 . S
H2877 C2863 0.958 . S
H2878 C2863 0.961 . S
H2879 C2863 0.960 . S
C2880 C2881 1.391 . S
C2880 C2882 1.394 . S
C2880 H2896 0.931 . S
C2881 C2880 1.391 . S
C2881 C2885 1.376 . S
C2882 C2880 1.394 . S
C2882 C2883 1.369 . S
C2882 C2886 1.531 . S
C2883 C2882 1.369 . S
C2883 C2884 1.410 . S
C2883 C2891 1.503 . S
C2884 C2883 1.410 . S
C2884 C2885 1.392 . S
C2884 C2887 1.511 . S
C2885 C2881 1.376 . S
C2885 C2884 1.392 . S
C2885 H2897 0.929 . S
C2886 C2882 1.531 . S
C2886 H2898 0.960 . S
C2886 H2899 0.962 . S
C2886 H2900 0.960 . S
C2887 C2884 1.511 . S
C2887 H2901 0.961 . S
C2887 H2902 0.961 . S
C2887 H2903 0.961 . S
C2888 C2889 1.370 . S
C2888 C2890 1.363 . S
C2888 H2904 0.931 . S
C2889 C2888 1.370 . S
C2889 C2893 1.408 . S
C2890 C2888 1.363 . S
C2890 C2891 1.370 . S
C2890 C2894 1.524 . S
C2891 C2883 1.503 . S
C2891 C2890 1.370 . S
C2891 C2892 1.403 . S
C2892 C2891 1.403 . S
C2892 C2893 1.404 . S
C2892 C2895 1.539 . S
C2893 C2889 1.408 . S
C2893 C2892 1.404 . S
C2893 H2905 0.930 . S
C2894 C2890 1.524 . S
C2894 H2906 0.956 . S
C2894 H2907 0.961 . S
C2894 H2908 0.961 . S
C2895 C2892 1.539 . S
C2895 H2909 0.958 . S
C2895 H2910 0.961 . S
C2895 H2911 0.960 . S
H2896 C2880 0.931 . S
H2897 C2885 0.929 . S
H2898 C2886 0.960 . S
H2899 C2886 0.962 . S
H2900 C2886 0.960 . S
H2901 C2887 0.961 . S
H2902 C2887 0.961 . S
H2903 C2887 0.961 . S
H2904 C2888 0.931 . S
H2905 C2893 0.930 . S
H2906 C2894 0.956 . S
H2907 C2894 0.961 . S
H2908 C2894 0.961 . S
H2909 C2895 0.958 . S
H2910 C2895 0.961 . S
H2911 C2895 0.960 . S
C2912 C2913 1.391 . S
C2912 C2914 1.394 . S
C2912 H2928 0.931 1_565 S
C2913 C2912 1.391 . S
C2913 C2917 1.376 . S
C2914 C2912 1.394 . S
C2914 C2915 1.369 . S
C2914 C2918 1.531 . S
C2915 C2914 1.369 . S
C2915 C2916 1.410 . S
C2915 C2923 1.503 . S
C2916 C2915 1.410 . S
C2916 C2917 1.392 . S
C2916 C2919 1.511 . S
C2917 C2913 1.376 . S
C2917 C2916 1.392 . S
C2917 H2929 0.929 . S
C2918 C2914 1.531 . S
C2918 H2930 0.960 . S
C2918 H2931 0.962 . S
C2918 H2932 0.960 . S
C2919 C2916 1.511 . S
C2919 H2933 0.961 . S
C2919 H2934 0.961 . S
C2919 H2935 0.961 . S
C2920 C2921 1.370 . S
C2920 C2922 1.363 . S
C2920 H2936 0.931 . S
C2921 C2920 1.370 . S
C2921 C2925 1.408 . S
C2922 C2920 1.363 . S
C2922 C2923 1.370 . S
C2922 C2926 1.524 . S
C2923 C2915 1.503 . S
C2923 C2922 1.370 . S
C2923 C2924 1.403 . S
C2924 C2923 1.403 . S
C2924 C2925 1.404 . S
C2924 C2927 1.539 . S
C2925 C2921 1.408 . S
C2925 C2924 1.404 . S
C2925 H2937 0.930 . S
C2926 C2922 1.524 . S
C2926 H2938 0.956 . S
C2926 H2939 0.961 . S
C2926 H2940 0.961 1_556 S
C2927 C2924 1.539 . S
C2927 H2941 0.958 . S
C2927 H2942 0.961 . S
C2927 H2943 0.960 . S
H2928 C2912 0.931 1_545 S
H2929 C2917 0.929 . S
H2930 C2918 0.960 . S
H2931 C2918 0.962 . S
H2932 C2918 0.960 . S
H2933 C2919 0.961 . S
H2934 C2919 0.961 . S
H2935 C2919 0.961 . S
H2936 C2920 0.931 . S
H2937 C2925 0.930 . S
H2938 C2926 0.956 . S
H2939 C2926 0.961 . S
H2940 C2926 0.961 1_554 S
H2941 C2927 0.958 . S
H2942 C2927 0.961 . S
H2943 C2927 0.960 . S
C2944 C2945 1.391 . S
C2944 C2946 1.394 . S
C2944 H2960 0.931 . S
C2945 C2944 1.391 . S
C2945 C2949 1.376 . S
C2946 C2944 1.394 . S
C2946 C2947 1.369 . S
C2946 C2950 1.531 . S
C2947 C2946 1.369 . S
C2947 C2948 1.410 . S
C2947 C2955 1.503 . S
C2948 C2947 1.410 . S
C2948 C2949 1.392 . S
C2948 C2951 1.511 . S
C2949 C2945 1.376 . S
C2949 C2948 1.392 . S
C2949 H2961 0.929 . S
C2950 C2946 1.531 . S
C2950 H2962 0.960 . S
C2950 H2963 0.962 . S
C2950 H2964 0.960 . S
C2951 C2948 1.511 . S
C2951 H2965 0.961 . S
C2951 H2966 0.961 . S
C2951 H2967 0.961 . S
C2952 C2953 1.370 . S
C2952 C2954 1.363 . S
C2952 H2968 0.931 . S
C2953 C2952 1.370 . S
C2953 C2957 1.408 . S
C2954 C2952 1.363 . S
C2954 C2955 1.370 . S
C2954 C2958 1.524 . S
C2955 C2947 1.503 . S
C2955 C2954 1.370 . S
C2955 C2956 1.403 . S
C2956 C2955 1.403 . S
C2956 C2957 1.404 . S
C2956 C2959 1.539 . S
C2957 C2953 1.408 . S
C2957 C2956 1.404 . S
C2957 H2969 0.930 . S
C2958 C2954 1.524 . S
C2958 H2970 0.956 . S
C2958 H2971 0.961 . S
C2958 H2972 0.961 . S
C2959 C2956 1.539 . S
C2959 H2973 0.958 . S
C2959 H2974 0.961 . S
C2959 H2975 0.960 . S
H2960 C2944 0.931 . S
H2961 C2949 0.929 . S
H2962 C2950 0.960 . S
H2963 C2950 0.962 . S
H2964 C2950 0.960 . S
H2965 C2951 0.961 . S
H2966 C2951 0.961 . S
H2967 C2951 0.961 . S
H2968 C2952 0.931 . S
H2969 C2957 0.930 . S
H2970 C2958 0.956 . S
H2971 C2958 0.961 . S
H2972 C2958 0.961 . S
H2973 C2959 0.958 . S
H2974 C2959 0.961 . S
H2975 C2959 0.960 . S
C2976 C2977 1.391 . S
C2976 C2978 1.394 . S
C2976 H2992 0.931 . S
C2977 C2976 1.391 . S
C2977 C2981 1.376 . S
C2978 C2976 1.394 . S
C2978 C2979 1.369 . S
C2978 C2982 1.531 . S
C2979 C2978 1.369 . S
C2979 C2980 1.410 . S
C2979 C2987 1.503 . S
C2980 C2979 1.410 . S
C2980 C2981 1.392 . S
C2980 C2983 1.511 . S
C2981 C2977 1.376 . S
C2981 C2980 1.392 . S
C2981 H2993 0.929 . S
C2982 C2978 1.531 . S
C2982 H2994 0.960 . S
C2982 H2995 0.962 . S
C2982 H2996 0.960 . S
C2983 C2980 1.511 . S
C2983 H2997 0.961 . S
C2983 H2998 0.961 . S
C2983 H2999 0.961 . S
C2984 C2985 1.370 . S
C2984 C2986 1.363 . S
C2984 H3000 0.931 . S
C2985 C2984 1.370 . S
C2985 C2989 1.408 . S
C2986 C2984 1.363 . S
C2986 C2987 1.370 . S
C2986 C2990 1.524 . S
C2987 C2979 1.503 . S
C2987 C2986 1.370 . S
C2987 C2988 1.403 . S
C2988 C2987 1.403 . S
C2988 C2989 1.404 . S
C2988 C2991 1.539 . S
C2989 C2985 1.408 . S
C2989 C2988 1.404 . S
C2989 H3001 0.930 . S
C2990 C2986 1.524 . S
C2990 H3002 0.956 . S
C2990 H3003 0.961 . S
C2990 H3004 0.961 . S
C2991 C2988 1.539 . S
C2991 H3005 0.958 . S
C2991 H3006 0.961 . S
C2991 H3007 0.960 . S
H2992 C2976 0.931 . S
H2993 C2981 0.929 . S
H2994 C2982 0.960 . S
H2995 C2982 0.962 . S
H2996 C2982 0.960 . S
H2997 C2983 0.961 . S
H2998 C2983 0.961 . S
H2999 C2983 0.961 . S
H3000 C2984 0.931 . S
H3001 C2989 0.930 . S
H3002 C2990 0.956 . S
H3003 C2990 0.961 . S
H3004 C2990 0.961 . S
H3005 C2991 0.958 . S
H3006 C2991 0.961 . S
H3007 C2991 0.960 . S
C3008 C3009 1.391 . S
C3008 C3010 1.394 . S
C3008 H3024 0.931 . S
C3009 C3008 1.391 . S
C3009 C3013 1.376 . S
C3010 C3008 1.394 . S
C3010 C3011 1.369 . S
C3010 C3014 1.531 . S
C3011 C3010 1.369 . S
C3011 C3012 1.410 . S
C3011 C3019 1.503 . S
C3012 C3011 1.410 . S
C3012 C3013 1.392 . S
C3012 C3015 1.511 . S
C3013 C3009 1.376 . S
C3013 C3012 1.392 . S
C3013 H3025 0.929 . S
C3014 C3010 1.531 . S
C3014 H3026 0.960 . S
C3014 H3027 0.962 . S
C3014 H3028 0.960 . S
C3015 C3012 1.511 . S
C3015 H3029 0.961 . S
C3015 H3030 0.961 . S
C3015 H3031 0.961 . S
C3016 C3017 1.370 . S
C3016 C3018 1.363 . S
C3016 H3032 0.931 . S
C3017 C3016 1.370 . S
C3017 C3021 1.408 . S
C3018 C3016 1.363 . S
C3018 C3019 1.370 . S
C3018 C3022 1.524 . S
C3019 C3011 1.503 . S
C3019 C3018 1.370 . S
C3019 C3020 1.403 . S
C3020 C3019 1.403 . S
C3020 C3021 1.404 . S
C3020 C3023 1.539 . S
C3021 C3017 1.408 . S
C3021 C3020 1.404 . S
C3021 H3033 0.930 . S
C3022 C3018 1.524 . S
C3022 H3034 0.956 . S
C3022 H3035 0.961 . S
C3022 H3036 0.961 . S
C3023 C3020 1.539 . S
C3023 H3037 0.958 . S
C3023 H3038 0.961 . S
C3023 H3039 0.960 . S
H3024 C3008 0.931 . S
H3025 C3013 0.929 . S
H3026 C3014 0.960 . S
H3027 C3014 0.962 . S
H3028 C3014 0.960 . S
H3029 C3015 0.961 . S
H3030 C3015 0.961 . S
H3031 C3015 0.961 . S
H3032 C3016 0.931 . S
H3033 C3021 0.930 . S
H3034 C3022 0.956 . S
H3035 C3022 0.961 . S
H3036 C3022 0.961 . S
H3037 C3023 0.958 . S
H3038 C3023 0.961 . S
H3039 C3023 0.960 . S
C3040 C3041 1.391 . S
C3040 C3042 1.394 . S
C3040 H3056 0.931 . S
C3041 C3040 1.391 . S
C3041 C3045 1.376 . S
C3042 C3040 1.394 . S
C3042 C3043 1.369 . S
C3042 C3046 1.531 . S
C3043 C3042 1.369 . S
C3043 C3044 1.410 . S
C3043 C3051 1.503 . S
C3044 C3043 1.410 . S
C3044 C3045 1.392 . S
C3044 C3047 1.511 . S
C3045 C3041 1.376 . S
C3045 C3044 1.392 . S
C3045 H3057 0.929 . S
C3046 C3042 1.531 . S
C3046 H3058 0.960 . S
C3046 H3059 0.962 . S
C3046 H3060 0.960 . S
C3047 C3044 1.511 . S
C3047 H3061 0.961 . S
C3047 H3062 0.961 . S
C3047 H3063 0.961 . S
C3048 C3049 1.370 . S
C3048 C3050 1.363 . S
C3048 H3064 0.931 . S
C3049 C3048 1.370 . S
C3049 C3053 1.408 . S
C3050 C3048 1.363 . S
C3050 C3051 1.370 . S
C3050 C3054 1.524 . S
C3051 C3043 1.503 . S
C3051 C3050 1.370 . S
C3051 C3052 1.403 . S
C3052 C3051 1.403 . S
C3052 C3053 1.404 . S
C3052 C3055 1.539 . S
C3053 C3049 1.408 . S
C3053 C3052 1.404 . S
C3053 H3065 0.930 . S
C3054 C3050 1.524 . S
C3054 H3066 0.956 . S
C3054 H3067 0.961 . S
C3054 H3068 0.961 . S
C3055 C3052 1.539 . S
C3055 H3069 0.958 . S
C3055 H3070 0.961 . S
C3055 H3071 0.960 . S
H3056 C3040 0.931 . S
H3057 C3045 0.929 . S
H3058 C3046 0.960 . S
H3059 C3046 0.962 . S
H3060 C3046 0.960 . S
H3061 C3047 0.961 . S
H3062 C3047 0.961 . S
H3063 C3047 0.961 . S
H3064 C3048 0.931 . S
H3065 C3053 0.930 . S
H3066 C3054 0.956 . S
H3067 C3054 0.961 . S
H3068 C3054 0.961 . S
H3069 C3055 0.958 . S
H3070 C3055 0.961 . S
H3071 C3055 0.960 . S
C3072 C3073 1.391 . S
C3072 C3074 1.394 . S
C3072 H3088 0.931 . S
C3073 C3072 1.391 . S
C3073 C3077 1.376 . S
C3074 C3072 1.394 . S
C3074 C3075 1.369 . S
C3074 C3078 1.531 . S
C3075 C3074 1.369 . S
C3075 C3076 1.410 . S
C3075 C3083 1.503 . S
C3076 C3075 1.410 . S
C3076 C3077 1.392 . S
C3076 C3079 1.511 . S
C3077 C3073 1.376 . S
C3077 C3076 1.392 . S
C3077 H3089 0.929 . S
C3078 C3074 1.531 . S
C3078 H3090 0.960 . S
C3078 H3091 0.962 . S
C3078 H3092 0.960 . S
C3079 C3076 1.511 . S
C3079 H3093 0.961 . S
C3079 H3094 0.961 . S
C3079 H3095 0.961 . S
C3080 C3081 1.370 . S
C3080 C3082 1.363 . S
C3080 H3096 0.931 . S
C3081 C3080 1.370 . S
C3081 C3085 1.408 . S
C3082 C3080 1.363 . S
C3082 C3083 1.370 . S
C3082 C3086 1.524 . S
C3083 C3075 1.503 . S
C3083 C3082 1.370 . S
C3083 C3084 1.403 . S
C3084 C3083 1.403 . S
C3084 C3085 1.404 . S
C3084 C3087 1.539 . S
C3085 C3081 1.408 . S
C3085 C3084 1.404 . S
C3085 H3097 0.930 . S
C3086 C3082 1.524 . S
C3086 H3098 0.956 . S
C3086 H3099 0.961 . S
C3086 H3100 0.961 . S
C3087 C3084 1.539 . S
C3087 H3101 0.958 . S
C3087 H3102 0.961 . S
C3087 H3103 0.960 . S
H3088 C3072 0.931 . S
H3089 C3077 0.929 . S
H3090 C3078 0.960 . S
H3091 C3078 0.962 . S
H3092 C3078 0.960 . S
H3093 C3079 0.961 . S
H3094 C3079 0.961 . S
H3095 C3079 0.961 . S
H3096 C3080 0.931 . S
H3097 C3085 0.930 . S
H3098 C3086 0.956 . S
H3099 C3086 0.961 . S
H3100 C3086 0.961 . S
H3101 C3087 0.958 . S
H3102 C3087 0.961 . S
H3103 C3087 0.960 . S
C3104 C3105 1.391 . S
C3104 C3106 1.394 . S
C3104 H3120 0.931 . S
C3105 C3104 1.391 . S
C3105 C3109 1.376 . S
C3106 C3104 1.394 . S
C3106 C3107 1.369 . S
C3106 C3110 1.531 . S
C3107 C3106 1.369 . S
C3107 C3108 1.410 . S
C3107 C3115 1.503 . S
C3108 C3107 1.410 . S
C3108 C3109 1.392 . S
C3108 C3111 1.511 . S
C3109 C3105 1.376 . S
C3109 C3108 1.392 . S
C3109 H3121 0.929 . S
C3110 C3106 1.531 . S
C3110 H3122 0.960 . S
C3110 H3123 0.962 . S
C3110 H3124 0.960 . S
C3111 C3108 1.511 . S
C3111 H3125 0.961 . S
C3111 H3126 0.961 . S
C3111 H3127 0.961 . S
C3112 C3113 1.370 . S
C3112 C3114 1.363 . S
C3112 H3128 0.931 . S
C3113 C3112 1.370 . S
C3113 C3117 1.408 . S
C3114 C3112 1.363 . S
C3114 C3115 1.370 . S
C3114 C3118 1.524 . S
C3115 C3107 1.503 . S
C3115 C3114 1.370 . S
C3115 C3116 1.403 . S
C3116 C3115 1.403 . S
C3116 C3117 1.404 . S
C3116 C3119 1.539 . S
C3117 C3113 1.408 . S
C3117 C3116 1.404 . S
C3117 H3129 0.930 . S
C3118 C3114 1.524 . S
C3118 H3130 0.956 . S
C3118 H3131 0.961 . S
C3118 H3132 0.961 . S
C3119 C3116 1.539 . S
C3119 H3133 0.958 . S
C3119 H3134 0.961 . S
C3119 H3135 0.960 . S
H3120 C3104 0.931 . S
H3121 C3109 0.929 . S
H3122 C3110 0.960 . S
H3123 C3110 0.962 . S
H3124 C3110 0.960 . S
H3125 C3111 0.961 . S
H3126 C3111 0.961 . S
H3127 C3111 0.961 . S
H3128 C3112 0.931 . S
H3129 C3117 0.930 . S
H3130 C3118 0.956 . S
H3131 C3118 0.961 . S
H3132 C3118 0.961 . S
H3133 C3119 0.958 . S
H3134 C3119 0.961 . S
H3135 C3119 0.960 . S
C3136 C3137 1.391 . S
C3136 C3138 1.394 . S
C3136 H3152 0.931 . S
C3137 C3136 1.391 . S
C3137 C3141 1.376 . S
C3138 C3136 1.394 . S
C3138 C3139 1.369 . S
C3138 C3142 1.531 . S
C3139 C3138 1.369 . S
C3139 C3140 1.410 . S
C3139 C3147 1.503 . S
C3140 C3139 1.410 . S
C3140 C3141 1.392 . S
C3140 C3143 1.511 . S
C3141 C3137 1.376 . S
C3141 C3140 1.392 . S
C3141 H3153 0.929 . S
C3142 C3138 1.531 . S
C3142 H3154 0.960 . S
C3142 H3155 0.962 . S
C3142 H3156 0.960 . S
C3143 C3140 1.511 . S
C3143 H3157 0.961 . S
C3143 H3158 0.961 . S
C3143 H3159 0.961 . S
C3144 C3145 1.370 . S
C3144 C3146 1.363 . S
C3144 H3160 0.931 . S
C3145 C3144 1.370 . S
C3145 C3149 1.408 . S
C3146 C3144 1.363 . S
C3146 C3147 1.370 . S
C3146 C3150 1.524 . S
C3147 C3139 1.503 . S
C3147 C3146 1.370 . S
C3147 C3148 1.403 . S
C3148 C3147 1.403 . S
C3148 C3149 1.404 . S
C3148 C3151 1.539 . S
C3149 C3145 1.408 . S
C3149 C3148 1.404 . S
C3149 H3161 0.930 . S
C3150 C3146 1.524 . S
C3150 H3162 0.956 . S
C3150 H3163 0.961 . S
C3150 H3164 0.961 . S
C3151 C3148 1.539 . S
C3151 H3165 0.958 . S
C3151 H3166 0.961 . S
C3151 H3167 0.960 . S
H3152 C3136 0.931 . S
H3153 C3141 0.929 . S
H3154 C3142 0.960 . S
H3155 C3142 0.962 . S
H3156 C3142 0.960 . S
H3157 C3143 0.961 . S
H3158 C3143 0.961 . S
H3159 C3143 0.961 . S
H3160 C3144 0.931 . S
H3161 C3149 0.930 . S
H3162 C3150 0.956 . S
H3163 C3150 0.961 . S
H3164 C3150 0.961 . S
H3165 C3151 0.958 . S
H3166 C3151 0.961 . S
H3167 C3151 0.960 . S
C3168 C3169 1.391 . S
C3168 C3170 1.394 . S
C3168 H3184 0.931 . S
C3169 C3168 1.391 . S
C3169 C3173 1.376 . S
C3170 C3168 1.394 . S
C3170 C3171 1.369 . S
C3170 C3174 1.531 . S
C3171 C3170 1.369 . S
C3171 C3172 1.410 . S
C3171 C3179 1.503 . S
C3172 C3171 1.410 . S
C3172 C3173 1.392 . S
C3172 C3175 1.511 . S
C3173 C3169 1.376 . S
C3173 C3172 1.392 . S
C3173 H3185 0.929 . S
C3174 C3170 1.531 . S
C3174 H3186 0.960 . S
C3174 H3187 0.962 . S
C3174 H3188 0.960 . S
C3175 C3172 1.511 . S
C3175 H3189 0.961 . S
C3175 H3190 0.961 . S
C3175 H3191 0.961 . S
C3176 C3177 1.370 . S
C3176 C3178 1.363 . S
C3176 H3192 0.931 . S
C3177 C3176 1.370 . S
C3177 C3181 1.408 . S
C3178 C3176 1.363 . S
C3178 C3179 1.370 . S
C3178 C3182 1.524 . S
C3179 C3171 1.503 . S
C3179 C3178 1.370 . S
C3179 C3180 1.403 . S
C3180 C3179 1.403 . S
C3180 C3181 1.404 . S
C3180 C3183 1.539 . S
C3181 C3177 1.408 . S
C3181 C3180 1.404 . S
C3181 H3193 0.930 . S
C3182 C3178 1.524 . S
C3182 H3194 0.956 . S
C3182 H3195 0.961 . S
C3182 H3196 0.961 . S
C3183 C3180 1.539 . S
C3183 H3197 0.958 . S
C3183 H3198 0.961 . S
C3183 H3199 0.960 . S
H3184 C3168 0.931 . S
H3185 C3173 0.929 . S
H3186 C3174 0.960 . S
H3187 C3174 0.962 . S
H3188 C3174 0.960 . S
H3189 C3175 0.961 . S
H3190 C3175 0.961 . S
H3191 C3175 0.961 . S
H3192 C3176 0.931 . S
H3193 C3181 0.930 . S
H3194 C3182 0.956 . S
H3195 C3182 0.961 . S
H3196 C3182 0.961 . S
H3197 C3183 0.958 . S
H3198 C3183 0.961 . S
H3199 C3183 0.960 . S
C3200 C3201 1.391 . S
C3200 C3202 1.394 . S
C3200 H3216 0.931 . S
C3201 C3200 1.391 . S
C3201 C3205 1.376 . S
C3202 C3200 1.394 . S
C3202 C3203 1.369 . S
C3202 C3206 1.531 . S
C3203 C3202 1.369 . S
C3203 C3204 1.410 . S
C3203 C3211 1.503 . S
C3204 C3203 1.410 . S
C3204 C3205 1.392 . S
C3204 C3207 1.511 . S
C3205 C3201 1.376 . S
C3205 C3204 1.392 . S
C3205 H3217 0.929 . S
C3206 C3202 1.531 . S
C3206 H3218 0.960 . S
C3206 H3219 0.962 . S
C3206 H3220 0.960 . S
C3207 C3204 1.511 . S
C3207 H3221 0.961 . S
C3207 H3222 0.961 . S
C3207 H3223 0.961 . S
C3208 C3209 1.370 . S
C3208 C3210 1.363 . S
C3208 H3224 0.931 . S
C3209 C3208 1.370 . S
C3209 C3213 1.408 . S
C3210 C3208 1.363 . S
C3210 C3211 1.370 . S
C3210 C3214 1.524 . S
C3211 C3203 1.503 . S
C3211 C3210 1.370 . S
C3211 C3212 1.403 . S
C3212 C3211 1.403 . S
C3212 C3213 1.404 . S
C3212 C3215 1.539 . S
C3213 C3209 1.408 . S
C3213 C3212 1.404 . S
C3213 H3225 0.930 . S
C3214 C3210 1.524 . S
C3214 H3226 0.956 . S
C3214 H3227 0.961 . S
C3214 H3228 0.961 . S
C3215 C3212 1.539 . S
C3215 H3229 0.958 . S
C3215 H3230 0.961 . S
C3215 H3231 0.960 . S
H3216 C3200 0.931 . S
H3217 C3205 0.929 . S
H3218 C3206 0.960 . S
H3219 C3206 0.962 . S
H3220 C3206 0.960 . S
H3221 C3207 0.961 . S
H3222 C3207 0.961 . S
H3223 C3207 0.961 . S
H3224 C3208 0.931 . S
H3225 C3213 0.930 . S
H3226 C3214 0.956 . S
H3227 C3214 0.961 . S
H3228 C3214 0.961 . S
H3229 C3215 0.958 . S
H3230 C3215 0.961 . S
H3231 C3215 0.960 . S
C3232 C3233 1.391 . S
C3232 C3234 1.394 . S
C3232 H3248 0.931 . S
C3233 C3232 1.391 . S
C3233 C3237 1.376 . S
C3234 C3232 1.394 . S
C3234 C3235 1.369 . S
C3234 C3238 1.531 . S
C3235 C3234 1.369 . S
C3235 C3236 1.410 . S
C3235 C3243 1.503 . S
C3236 C3235 1.410 . S
C3236 C3237 1.392 . S
C3236 C3239 1.511 . S
C3237 C3233 1.376 . S
C3237 C3236 1.392 . S
C3237 H3249 0.929 . S
C3238 C3234 1.531 . S
C3238 H3250 0.960 . S
C3238 H3251 0.962 . S
C3238 H3252 0.960 . S
C3239 C3236 1.511 . S
C3239 H3253 0.961 . S
C3239 H3254 0.961 . S
C3239 H3255 0.961 . S
C3240 C3241 1.370 . S
C3240 C3242 1.363 . S
C3240 H3256 0.931 . S
C3241 C3240 1.370 . S
C3241 C3245 1.408 . S
C3242 C3240 1.363 . S
C3242 C3243 1.370 . S
C3242 C3246 1.524 . S
C3243 C3235 1.503 . S
C3243 C3242 1.370 . S
C3243 C3244 1.403 . S
C3244 C3243 1.403 . S
C3244 C3245 1.404 . S
C3244 C3247 1.539 . S
C3245 C3241 1.408 . S
C3245 C3244 1.404 . S
C3245 H3257 0.930 . S
C3246 C3242 1.524 . S
C3246 H3258 0.956 . S
C3246 H3259 0.961 . S
C3246 H3260 0.961 . S
C3247 C3244 1.539 . S
C3247 H3261 0.958 . S
C3247 H3262 0.961 . S
C3247 H3263 0.960 . S
H3248 C3232 0.931 . S
H3249 C3237 0.929 . S
H3250 C3238 0.960 . S
H3251 C3238 0.962 . S
H3252 C3238 0.960 . S
H3253 C3239 0.961 . S
H3254 C3239 0.961 . S
H3255 C3239 0.961 . S
H3256 C3240 0.931 . S
H3257 C3245 0.930 . S
H3258 C3246 0.956 . S
H3259 C3246 0.961 . S
H3260 C3246 0.961 . S
H3261 C3247 0.958 . S
H3262 C3247 0.961 . S
H3263 C3247 0.960 . S
C3264 C3265 1.391 . S
C3264 C3266 1.394 . S
C3264 H3280 0.931 . S
C3265 C3264 1.391 . S
C3265 C3269 1.376 . S
C3266 C3264 1.394 . S
C3266 C3267 1.369 . S
C3266 C3270 1.531 . S
C3267 C3266 1.369 . S
C3267 C3268 1.410 . S
C3267 C3275 1.503 . S
C3268 C3267 1.410 . S
C3268 C3269 1.392 . S
C3268 C3271 1.511 . S
C3269 C3265 1.376 . S
C3269 C3268 1.392 . S
C3269 H3281 0.929 . S
C3270 C3266 1.531 . S
C3270 H3282 0.960 . S
C3270 H3283 0.962 . S
C3270 H3284 0.960 . S
C3271 C3268 1.511 . S
C3271 H3285 0.961 . S
C3271 H3286 0.961 . S
C3271 H3287 0.961 . S
C3272 C3273 1.370 . S
C3272 C3274 1.363 . S
C3272 H3288 0.931 . S
C3273 C3272 1.370 . S
C3273 C3277 1.408 . S
C3274 C3272 1.363 . S
C3274 C3275 1.370 . S
C3274 C3278 1.524 . S
C3275 C3267 1.503 . S
C3275 C3274 1.370 . S
C3275 C3276 1.403 . S
C3276 C3275 1.403 . S
C3276 C3277 1.404 . S
C3276 C3279 1.539 . S
C3277 C3273 1.408 . S
C3277 C3276 1.404 . S
C3277 H3289 0.930 . S
C3278 C3274 1.524 . S
C3278 H3290 0.956 . S
C3278 H3291 0.961 . S
C3278 H3292 0.961 . S
C3279 C3276 1.539 . S
C3279 H3293 0.958 . S
C3279 H3294 0.961 . S
C3279 H3295 0.960 . S
H3280 C3264 0.931 . S
H3281 C3269 0.929 . S
H3282 C3270 0.960 . S
H3283 C3270 0.962 . S
H3284 C3270 0.960 . S
H3285 C3271 0.961 . S
H3286 C3271 0.961 . S
H3287 C3271 0.961 . S
H3288 C3272 0.931 . S
H3289 C3277 0.930 . S
H3290 C3278 0.956 . S
H3291 C3278 0.961 . S
H3292 C3278 0.961 . S
H3293 C3279 0.958 . S
H3294 C3279 0.961 . S
H3295 C3279 0.960 . S
C3296 C3297 1.391 . S
C3296 C3298 1.394 . S
C3296 H3312 0.931 . S
C3297 C3296 1.391 . S
C3297 C3301 1.376 . S
C3298 C3296 1.394 . S
C3298 C3299 1.369 . S
C3298 C3302 1.531 . S
C3299 C3298 1.369 . S
C3299 C3300 1.410 . S
C3299 C3307 1.503 . S
C3300 C3299 1.410 . S
C3300 C3301 1.392 . S
C3300 C3303 1.511 . S
C3301 C3297 1.376 . S
C3301 C3300 1.392 . S
C3301 H3313 0.929 . S
C3302 C3298 1.531 . S
C3302 H3314 0.960 . S
C3302 H3315 0.962 . S
C3302 H3316 0.960 . S
C3303 C3300 1.511 . S
C3303 H3317 0.961 . S
C3303 H3318 0.961 . S
C3303 H3319 0.961 . S
C3304 C3305 1.370 . S
C3304 C3306 1.363 . S
C3304 H3320 0.931 . S
C3305 C3304 1.370 . S
C3305 C3309 1.408 . S
C3306 C3304 1.363 . S
C3306 C3307 1.370 . S
C3306 C3310 1.524 . S
C3307 C3299 1.503 . S
C3307 C3306 1.370 . S
C3307 C3308 1.403 . S
C3308 C3307 1.403 . S
C3308 C3309 1.404 . S
C3308 C3311 1.539 . S
C3309 C3305 1.408 . S
C3309 C3308 1.404 . S
C3309 H3321 0.930 . S
C3310 C3306 1.524 . S
C3310 H3322 0.956 . S
C3310 H3323 0.961 . S
C3310 H3324 0.961 . S
C3311 C3308 1.539 . S
C3311 H3325 0.958 . S
C3311 H3326 0.961 . S
C3311 H3327 0.960 . S
H3312 C3296 0.931 . S
H3313 C3301 0.929 . S
H3314 C3302 0.960 . S
H3315 C3302 0.962 . S
H3316 C3302 0.960 . S
H3317 C3303 0.961 . S
H3318 C3303 0.961 . S
H3319 C3303 0.961 . S
H3320 C3304 0.931 . S
H3321 C3309 0.930 . S
H3322 C3310 0.956 . S
H3323 C3310 0.961 . S
H3324 C3310 0.961 . S
H3325 C3311 0.958 . S
H3326 C3311 0.961 . S
H3327 C3311 0.960 . S
C3328 C3329 1.391 . S
C3328 C3330 1.394 . S
C3328 H3344 0.931 . S
C3329 C3328 1.391 . S
C3329 C3333 1.376 . S
C3330 C3328 1.394 . S
C3330 C3331 1.369 . S
C3330 C3334 1.531 . S
C3331 C3330 1.369 . S
C3331 C3332 1.410 . S
C3331 C3339 1.503 . S
C3332 C3331 1.410 . S
C3332 C3333 1.392 . S
C3332 C3335 1.511 . S
C3333 C3329 1.376 . S
C3333 C3332 1.392 . S
C3333 H3345 0.929 . S
C3334 C3330 1.531 . S
C3334 H3346 0.960 . S
C3334 H3347 0.962 . S
C3334 H3348 0.960 . S
C3335 C3332 1.511 . S
C3335 H3349 0.961 . S
C3335 H3350 0.961 . S
C3335 H3351 0.961 . S
C3336 C3337 1.370 . S
C3336 C3338 1.363 . S
C3336 H3352 0.931 . S
C3337 C3336 1.370 . S
C3337 C3341 1.408 . S
C3338 C3336 1.363 . S
C3338 C3339 1.370 . S
C3338 C3342 1.524 . S
C3339 C3331 1.503 . S
C3339 C3338 1.370 . S
C3339 C3340 1.403 . S
C3340 C3339 1.403 . S
C3340 C3341 1.404 . S
C3340 C3343 1.539 . S
C3341 C3337 1.408 . S
C3341 C3340 1.404 . S
C3341 H3353 0.930 . S
C3342 C3338 1.524 . S
C3342 H3354 0.956 . S
C3342 H3355 0.961 . S
C3342 H3356 0.961 . S
C3343 C3340 1.539 . S
C3343 H3357 0.958 . S
C3343 H3358 0.961 . S
C3343 H3359 0.960 . S
H3344 C3328 0.931 . S
H3345 C3333 0.929 . S
H3346 C3334 0.960 . S
H3347 C3334 0.962 . S
H3348 C3334 0.960 . S
H3349 C3335 0.961 . S
H3350 C3335 0.961 . S
H3351 C3335 0.961 . S
H3352 C3336 0.931 . S
H3353 C3341 0.930 . S
H3354 C3342 0.956 . S
H3355 C3342 0.961 . S
H3356 C3342 0.961 . S
H3357 C3343 0.958 . S
H3358 C3343 0.961 . S
H3359 C3343 0.960 . S
C3360 C3361 1.391 . S
C3360 C3362 1.394 . S
C3360 H3376 0.931 . S
C3361 C3360 1.391 . S
C3361 C3365 1.376 . S
C3362 C3360 1.394 . S
C3362 C3363 1.369 . S
C3362 C3366 1.531 . S
C3363 C3362 1.369 . S
C3363 C3364 1.410 . S
C3363 C3371 1.503 . S
C3364 C3363 1.410 . S
C3364 C3365 1.392 . S
C3364 C3367 1.511 . S
C3365 C3361 1.376 . S
C3365 C3364 1.392 . S
C3365 H3377 0.929 . S
C3366 C3362 1.531 . S
C3366 H3378 0.960 . S
C3366 H3379 0.962 . S
C3366 H3380 0.960 . S
C3367 C3364 1.511 . S
C3367 H3381 0.961 . S
C3367 H3382 0.961 . S
C3367 H3383 0.961 . S
C3368 C3369 1.370 . S
C3368 C3370 1.363 . S
C3368 H3384 0.931 . S
C3369 C3368 1.370 . S
C3369 C3373 1.408 . S
C3370 C3368 1.363 . S
C3370 C3371 1.370 . S
C3370 C3374 1.524 . S
C3371 C3363 1.503 . S
C3371 C3370 1.370 . S
C3371 C3372 1.403 . S
C3372 C3371 1.403 . S
C3372 C3373 1.404 . S
C3372 C3375 1.539 . S
C3373 C3369 1.408 . S
C3373 C3372 1.404 . S
C3373 H3385 0.930 . S
C3374 C3370 1.524 . S
C3374 H3386 0.956 . S
C3374 H3387 0.961 . S
C3374 H3388 0.961 . S
C3375 C3372 1.539 . S
C3375 H3389 0.958 . S
C3375 H3390 0.961 . S
C3375 H3391 0.960 . S
H3376 C3360 0.931 . S
H3377 C3365 0.929 . S
H3378 C3366 0.960 . S
H3379 C3366 0.962 . S
H3380 C3366 0.960 . S
H3381 C3367 0.961 . S
H3382 C3367 0.961 . S
H3383 C3367 0.961 . S
H3384 C3368 0.931 . S
H3385 C3373 0.930 . S
H3386 C3374 0.956 . S
H3387 C3374 0.961 . S
H3388 C3374 0.961 . S
H3389 C3375 0.958 . S
H3390 C3375 0.961 . S
H3391 C3375 0.960 . S
C3392 C3393 1.391 . S
C3392 C3394 1.394 . S
C3392 H3408 0.931 . S
C3393 C3392 1.391 . S
C3393 C3397 1.376 . S
C3394 C3392 1.394 . S
C3394 C3395 1.369 . S
C3394 C3398 1.531 . S
C3395 C3394 1.369 . S
C3395 C3396 1.410 . S
C3395 C3403 1.503 . S
C3396 C3395 1.410 . S
C3396 C3397 1.392 . S
C3396 C3399 1.511 . S
C3397 C3393 1.376 . S
C3397 C3396 1.392 . S
C3397 H3409 0.929 . S
C3398 C3394 1.531 . S
C3398 H3410 0.960 . S
C3398 H3411 0.962 . S
C3398 H3412 0.960 . S
C3399 C3396 1.511 . S
C3399 H3413 0.961 . S
C3399 H3414 0.961 . S
C3399 H3415 0.961 . S
C3400 C3401 1.370 . S
C3400 C3402 1.363 . S
C3400 H3416 0.931 . S
C3401 C3400 1.370 . S
C3401 C3405 1.408 . S
C3402 C3400 1.363 . S
C3402 C3403 1.370 . S
C3402 C3406 1.524 . S
C3403 C3395 1.503 . S
C3403 C3402 1.370 . S
C3403 C3404 1.403 . S
C3404 C3403 1.403 . S
C3404 C3405 1.404 . S
C3404 C3407 1.539 . S
C3405 C3401 1.408 . S
C3405 C3404 1.404 . S
C3405 H3417 0.930 . S
C3406 C3402 1.524 . S
C3406 H3418 0.956 . S
C3406 H3419 0.961 . S
C3406 H3420 0.961 . S
C3407 C3404 1.539 . S
C3407 H3421 0.958 . S
C3407 H3422 0.961 . S
C3407 H3423 0.960 . S
H3408 C3392 0.931 . S
H3409 C3397 0.929 . S
H3410 C3398 0.960 . S
H3411 C3398 0.962 . S
H3412 C3398 0.960 . S
H3413 C3399 0.961 . S
H3414 C3399 0.961 . S
H3415 C3399 0.961 . S
H3416 C3400 0.931 . S
H3417 C3405 0.930 . S
H3418 C3406 0.956 . S
H3419 C3406 0.961 . S
H3420 C3406 0.961 . S
H3421 C3407 0.958 . S
H3422 C3407 0.961 . S
H3423 C3407 0.960 . S
C3424 C3425 1.391 . S
C3424 C3426 1.394 . S
C3424 H3440 0.931 . S
C3425 C3424 1.391 . S
C3425 C3429 1.376 . S
C3426 C3424 1.394 . S
C3426 C3427 1.369 . S
C3426 C3430 1.531 . S
C3427 C3426 1.369 . S
C3427 C3428 1.410 . S
C3427 C3435 1.503 . S
C3428 C3427 1.410 . S
C3428 C3429 1.392 . S
C3428 C3431 1.511 . S
C3429 C3425 1.376 . S
C3429 C3428 1.392 . S
C3429 H3441 0.929 . S
C3430 C3426 1.531 . S
C3430 H3442 0.960 . S
C3430 H3443 0.962 . S
C3430 H3444 0.960 . S
C3431 C3428 1.511 . S
C3431 H3445 0.961 . S
C3431 H3446 0.961 . S
C3431 H3447 0.961 . S
C3432 C3433 1.370 . S
C3432 C3434 1.363 . S
C3432 H3448 0.931 . S
C3433 C3432 1.370 . S
C3433 C3437 1.408 . S
C3434 C3432 1.363 . S
C3434 C3435 1.370 . S
C3434 C3438 1.524 . S
C3435 C3427 1.503 . S
C3435 C3434 1.370 . S
C3435 C3436 1.403 . S
C3436 C3435 1.403 . S
C3436 C3437 1.404 . S
C3436 C3439 1.539 . S
C3437 C3433 1.408 . S
C3437 C3436 1.404 . S
C3437 H3449 0.930 . S
C3438 C3434 1.524 . S
C3438 H3450 0.956 . S
C3438 H3451 0.961 . S
C3438 H3452 0.961 . S
C3439 C3436 1.539 . S
C3439 H3453 0.958 . S
C3439 H3454 0.961 . S
C3439 H3455 0.960 . S
H3440 C3424 0.931 . S
H3441 C3429 0.929 . S
H3442 C3430 0.960 . S
H3443 C3430 0.962 . S
H3444 C3430 0.960 . S
H3445 C3431 0.961 . S
H3446 C3431 0.961 . S
H3447 C3431 0.961 . S
H3448 C3432 0.931 . S
H3449 C3437 0.930 . S
H3450 C3438 0.956 . S
H3451 C3438 0.961 . S
H3452 C3438 0.961 . S
H3453 C3439 0.958 . S
H3454 C3439 0.961 . S
H3455 C3439 0.960 . S
C3456 C3457 1.391 . S
C3456 C3458 1.394 . S
C3456 H3472 0.931 . S
C3457 C3456 1.391 . S
C3457 C3461 1.376 . S
C3458 C3456 1.394 . S
C3458 C3459 1.369 . S
C3458 C3462 1.531 . S
C3459 C3458 1.369 . S
C3459 C3460 1.410 . S
C3459 C3467 1.503 . S
C3460 C3459 1.410 . S
C3460 C3461 1.392 . S
C3460 C3463 1.511 . S
C3461 C3457 1.376 . S
C3461 C3460 1.392 . S
C3461 H3473 0.929 . S
C3462 C3458 1.531 . S
C3462 H3474 0.960 . S
C3462 H3475 0.962 . S
C3462 H3476 0.960 . S
C3463 C3460 1.511 . S
C3463 H3477 0.961 . S
C3463 H3478 0.961 . S
C3463 H3479 0.961 . S
C3464 C3465 1.370 . S
C3464 C3466 1.363 . S
C3464 H3480 0.931 . S
C3465 C3464 1.370 . S
C3465 C3469 1.408 . S
C3466 C3464 1.363 . S
C3466 C3467 1.370 . S
C3466 C3470 1.524 . S
C3467 C3459 1.503 . S
C3467 C3466 1.370 . S
C3467 C3468 1.403 . S
C3468 C3467 1.403 . S
C3468 C3469 1.404 . S
C3468 C3471 1.539 . S
C3469 C3465 1.408 . S
C3469 C3468 1.404 . S
C3469 H3481 0.930 . S
C3470 C3466 1.524 . S
C3470 H3482 0.956 . S
C3470 H3483 0.961 . S
C3470 H3484 0.961 . S
C3471 C3468 1.539 . S
C3471 H3485 0.958 . S
C3471 H3486 0.961 . S
C3471 H3487 0.960 . S
H3472 C3456 0.931 . S
H3473 C3461 0.929 . S
H3474 C3462 0.960 . S
H3475 C3462 0.962 . S
H3476 C3462 0.960 . S
H3477 C3463 0.961 . S
H3478 C3463 0.961 . S
H3479 C3463 0.961 . S
H3480 C3464 0.931 . S
H3481 C3469 0.930 . S
H3482 C3470 0.956 . S
H3483 C3470 0.961 . S
H3484 C3470 0.961 . S
H3485 C3471 0.958 . S
H3486 C3471 0.961 . S
H3487 C3471 0.960 . S
C3488 C3489 1.391 . S
C3488 C3490 1.394 . S
C3488 H3504 0.931 . S
C3489 C3488 1.391 . S
C3489 C3493 1.376 . S
C3490 C3488 1.394 . S
C3490 C3491 1.369 . S
C3490 C3494 1.531 . S
C3491 C3490 1.369 . S
C3491 C3492 1.410 . S
C3491 C3499 1.503 . S
C3492 C3491 1.410 . S
C3492 C3493 1.392 . S
C3492 C3495 1.511 . S
C3493 C3489 1.376 . S
C3493 C3492 1.392 . S
C3493 H3505 0.929 . S
C3494 C3490 1.531 . S
C3494 H3506 0.960 . S
C3494 H3507 0.962 . S
C3494 H3508 0.960 . S
C3495 C3492 1.511 . S
C3495 H3509 0.961 . S
C3495 H3510 0.961 . S
C3495 H3511 0.961 . S
C3496 C3497 1.370 . S
C3496 C3498 1.363 . S
C3496 H3512 0.931 . S
C3497 C3496 1.370 . S
C3497 C3501 1.408 . S
C3498 C3496 1.363 . S
C3498 C3499 1.370 . S
C3498 C3502 1.524 . S
C3499 C3491 1.503 . S
C3499 C3498 1.370 . S
C3499 C3500 1.403 . S
C3500 C3499 1.403 . S
C3500 C3501 1.404 . S
C3500 C3503 1.539 . S
C3501 C3497 1.408 . S
C3501 C3500 1.404 . S
C3501 H3513 0.930 . S
C3502 C3498 1.524 . S
C3502 H3514 0.956 . S
C3502 H3515 0.961 . S
C3502 H3516 0.961 . S
C3503 C3500 1.539 . S
C3503 H3517 0.958 . S
C3503 H3518 0.961 . S
C3503 H3519 0.960 . S
H3504 C3488 0.931 . S
H3505 C3493 0.929 . S
H3506 C3494 0.960 . S
H3507 C3494 0.962 . S
H3508 C3494 0.960 . S
H3509 C3495 0.961 . S
H3510 C3495 0.961 . S
H3511 C3495 0.961 . S
H3512 C3496 0.931 . S
H3513 C3501 0.930 . S
H3514 C3502 0.956 . S
H3515 C3502 0.961 . S
H3516 C3502 0.961 . S
H3517 C3503 0.958 . S
H3518 C3503 0.961 . S
H3519 C3503 0.960 . S
C3520 C3521 1.391 . S
C3520 C3522 1.394 . S
C3520 H3536 0.931 . S
C3521 C3520 1.391 . S
C3521 C3525 1.376 . S
C3522 C3520 1.394 . S
C3522 C3523 1.369 . S
C3522 C3526 1.531 . S
C3523 C3522 1.369 . S
C3523 C3524 1.410 . S
C3523 C3531 1.503 . S
C3524 C3523 1.410 . S
C3524 C3525 1.392 . S
C3524 C3527 1.511 . S
C3525 C3521 1.376 . S
C3525 C3524 1.392 . S
C3525 H3537 0.929 . S
C3526 C3522 1.531 . S
C3526 H3538 0.960 . S
C3526 H3539 0.962 . S
C3526 H3540 0.960 . S
C3527 C3524 1.511 . S
C3527 H3541 0.961 . S
C3527 H3542 0.961 . S
C3527 H3543 0.961 . S
C3528 C3529 1.370 . S
C3528 C3530 1.363 . S
C3528 H3544 0.931 . S
C3529 C3528 1.370 . S
C3529 C3533 1.408 . S
C3530 C3528 1.363 . S
C3530 C3531 1.370 . S
C3530 C3534 1.524 . S
C3531 C3523 1.503 . S
C3531 C3530 1.370 . S
C3531 C3532 1.403 . S
C3532 C3531 1.403 . S
C3532 C3533 1.404 . S
C3532 C3535 1.539 . S
C3533 C3529 1.408 . S
C3533 C3532 1.404 . S
C3533 H3545 0.930 . S
C3534 C3530 1.524 . S
C3534 H3546 0.956 . S
C3534 H3547 0.961 . S
C3534 H3548 0.961 . S
C3535 C3532 1.539 . S
C3535 H3549 0.958 . S
C3535 H3550 0.961 . S
C3535 H3551 0.960 . S
H3536 C3520 0.931 . S
H3537 C3525 0.929 . S
H3538 C3526 0.960 . S
H3539 C3526 0.962 . S
H3540 C3526 0.960 . S
H3541 C3527 0.961 . S
H3542 C3527 0.961 . S
H3543 C3527 0.961 . S
H3544 C3528 0.931 . S
H3545 C3533 0.930 . S
H3546 C3534 0.956 . S
H3547 C3534 0.961 . S
H3548 C3534 0.961 . S
H3549 C3535 0.958 . S
H3550 C3535 0.961 . S
H3551 C3535 0.960 . S
C3552 C3553 1.391 . S
C3552 C3554 1.394 . S
C3552 H3568 0.931 . S
C3553 C3552 1.391 . S
C3553 C3557 1.376 . S
C3554 C3552 1.394 . S
C3554 C3555 1.369 . S
C3554 C3558 1.531 . S
C3555 C3554 1.369 . S
C3555 C3556 1.410 . S
C3555 C3563 1.503 . S
C3556 C3555 1.410 . S
C3556 C3557 1.392 . S
C3556 C3559 1.511 . S
C3557 C3553 1.376 . S
C3557 C3556 1.392 . S
C3557 H3569 0.929 . S
C3558 C3554 1.531 . S
C3558 H3570 0.960 . S
C3558 H3571 0.962 . S
C3558 H3572 0.960 . S
C3559 C3556 1.511 . S
C3559 H3573 0.961 . S
C3559 H3574 0.961 . S
C3559 H3575 0.961 . S
C3560 C3561 1.370 . S
C3560 C3562 1.363 . S
C3560 H3576 0.931 . S
C3561 C3560 1.370 . S
C3561 C3565 1.408 . S
C3562 C3560 1.363 . S
C3562 C3563 1.370 . S
C3562 C3566 1.524 . S
C3563 C3555 1.503 . S
C3563 C3562 1.370 . S
C3563 C3564 1.403 . S
C3564 C3563 1.403 . S
C3564 C3565 1.404 . S
C3564 C3567 1.539 . S
C3565 C3561 1.408 . S
C3565 C3564 1.404 . S
C3565 H3577 0.930 . S
C3566 C3562 1.524 . S
C3566 H3578 0.956 . S
C3566 H3579 0.961 . S
C3566 H3580 0.961 . S
C3567 C3564 1.539 . S
C3567 H3581 0.958 . S
C3567 H3582 0.961 . S
C3567 H3583 0.960 . S
H3568 C3552 0.931 . S
H3569 C3557 0.929 . S
H3570 C3558 0.960 . S
H3571 C3558 0.962 . S
H3572 C3558 0.960 . S
H3573 C3559 0.961 . S
H3574 C3559 0.961 . S
H3575 C3559 0.961 . S
H3576 C3560 0.931 . S
H3577 C3565 0.930 . S
H3578 C3566 0.956 . S
H3579 C3566 0.961 . S
H3580 C3566 0.961 . S
H3581 C3567 0.958 . S
H3582 C3567 0.961 . S
H3583 C3567 0.960 . S
C3584 C3585 1.391 . S
C3584 C3586 1.394 . S
C3584 H3600 0.931 . S
C3585 C3584 1.391 . S
C3585 C3589 1.376 . S
C3586 C3584 1.394 . S
C3586 C3587 1.369 . S
C3586 C3590 1.531 . S
C3587 C3586 1.369 . S
C3587 C3588 1.410 . S
C3587 C3595 1.503 . S
C3588 C3587 1.410 . S
C3588 C3589 1.392 . S
C3588 C3591 1.511 . S
C3589 C3585 1.376 . S
C3589 C3588 1.392 . S
C3589 H3601 0.929 . S
C3590 C3586 1.531 . S
C3590 H3602 0.960 . S
C3590 H3603 0.962 . S
C3590 H3604 0.960 . S
C3591 C3588 1.511 . S
C3591 H3605 0.961 . S
C3591 H3606 0.961 . S
C3591 H3607 0.961 . S
C3592 C3593 1.370 . S
C3592 C3594 1.363 . S
C3592 H3608 0.931 . S
C3593 C3592 1.370 . S
C3593 C3597 1.408 . S
C3594 C3592 1.363 . S
C3594 C3595 1.370 . S
C3594 C3598 1.524 . S
C3595 C3587 1.503 . S
C3595 C3594 1.370 . S
C3595 C3596 1.403 . S
C3596 C3595 1.403 . S
C3596 C3597 1.404 . S
C3596 C3599 1.539 . S
C3597 C3593 1.408 . S
C3597 C3596 1.404 . S
C3597 H3609 0.930 . S
C3598 C3594 1.524 . S
C3598 H3610 0.956 . S
C3598 H3611 0.961 . S
C3598 H3612 0.961 . S
C3599 C3596 1.539 . S
C3599 H3613 0.958 . S
C3599 H3614 0.961 . S
C3599 H3615 0.960 . S
H3600 C3584 0.931 . S
H3601 C3589 0.929 . S
H3602 C3590 0.960 . S
H3603 C3590 0.962 . S
H3604 C3590 0.960 . S
H3605 C3591 0.961 . S
H3606 C3591 0.961 . S
H3607 C3591 0.961 . S
H3608 C3592 0.931 . S
H3609 C3597 0.930 . S
H3610 C3598 0.956 . S
H3611 C3598 0.961 . S
H3612 C3598 0.961 . S
H3613 C3599 0.958 . S
H3614 C3599 0.961 . S
H3615 C3599 0.960 . S
C3616 C3617 1.391 . S
C3616 C3618 1.394 . S
C3616 H3632 0.931 . S
C3617 C3616 1.391 . S
C3617 C3621 1.376 . S
C3618 C3616 1.394 . S
C3618 C3619 1.369 . S
C3618 C3622 1.531 . S
C3619 C3618 1.369 . S
C3619 C3620 1.410 . S
C3619 C3627 1.503 . S
C3620 C3619 1.410 . S
C3620 C3621 1.392 . S
C3620 C3623 1.511 . S
C3621 C3617 1.376 . S
C3621 C3620 1.392 . S
C3621 H3633 0.929 . S
C3622 C3618 1.531 . S
C3622 H3634 0.960 . S
C3622 H3635 0.962 . S
C3622 H3636 0.960 . S
C3623 C3620 1.511 . S
C3623 H3637 0.961 . S
C3623 H3638 0.961 . S
C3623 H3639 0.961 . S
C3624 C3625 1.370 . S
C3624 C3626 1.363 . S
C3624 H3640 0.931 . S
C3625 C3624 1.370 . S
C3625 C3629 1.408 . S
C3626 C3624 1.363 . S
C3626 C3627 1.370 . S
C3626 C3630 1.524 . S
C3627 C3619 1.503 . S
C3627 C3626 1.370 . S
C3627 C3628 1.403 . S
C3628 C3627 1.403 . S
C3628 C3629 1.404 . S
C3628 C3631 1.539 . S
C3629 C3625 1.408 . S
C3629 C3628 1.404 . S
C3629 H3641 0.930 . S
C3630 C3626 1.524 . S
C3630 H3642 0.956 . S
C3630 H3643 0.961 . S
C3630 H3644 0.961 . S
C3631 C3628 1.539 . S
C3631 H3645 0.958 . S
C3631 H3646 0.961 . S
C3631 H3647 0.960 . S
H3632 C3616 0.931 . S
H3633 C3621 0.929 . S
H3634 C3622 0.960 . S
H3635 C3622 0.962 . S
H3636 C3622 0.960 . S
H3637 C3623 0.961 . S
H3638 C3623 0.961 . S
H3639 C3623 0.961 . S
H3640 C3624 0.931 . S
H3641 C3629 0.930 . S
H3642 C3630 0.956 . S
H3643 C3630 0.961 . S
H3644 C3630 0.961 . S
H3645 C3631 0.958 . S
H3646 C3631 0.961 . S
H3647 C3631 0.960 . S
C3648 C3649 1.391 . S
C3648 C3650 1.394 . S
C3648 H3664 0.931 . S
C3649 C3648 1.391 . S
C3649 C3653 1.376 . S
C3650 C3648 1.394 . S
C3650 C3651 1.369 . S
C3650 C3654 1.531 . S
C3651 C3650 1.369 . S
C3651 C3652 1.410 . S
C3651 C3659 1.503 . S
C3652 C3651 1.410 . S
C3652 C3653 1.392 . S
C3652 C3655 1.511 . S
C3653 C3649 1.376 . S
C3653 C3652 1.392 . S
C3653 H3665 0.929 . S
C3654 C3650 1.531 . S
C3654 H3666 0.960 . S
C3654 H3667 0.962 . S
C3654 H3668 0.960 . S
C3655 C3652 1.511 . S
C3655 H3669 0.961 . S
C3655 H3670 0.961 . S
C3655 H3671 0.961 . S
C3656 C3657 1.370 . S
C3656 C3658 1.363 . S
C3656 H3672 0.931 . S
C3657 C3656 1.370 . S
C3657 C3661 1.408 . S
C3658 C3656 1.363 . S
C3658 C3659 1.370 . S
C3658 C3662 1.524 . S
C3659 C3651 1.503 . S
C3659 C3658 1.370 . S
C3659 C3660 1.403 . S
C3660 C3659 1.403 . S
C3660 C3661 1.404 . S
C3660 C3663 1.539 . S
C3661 C3657 1.408 . S
C3661 C3660 1.404 . S
C3661 H3673 0.930 . S
C3662 C3658 1.524 . S
C3662 H3674 0.956 . S
C3662 H3675 0.961 . S
C3662 H3676 0.961 . S
C3663 C3660 1.539 . S
C3663 H3677 0.958 . S
C3663 H3678 0.961 . S
C3663 H3679 0.960 . S
H3664 C3648 0.931 . S
H3665 C3653 0.929 . S
H3666 C3654 0.960 . S
H3667 C3654 0.962 . S
H3668 C3654 0.960 . S
H3669 C3655 0.961 . S
H3670 C3655 0.961 . S
H3671 C3655 0.961 . S
H3672 C3656 0.931 . S
H3673 C3661 0.930 . S
H3674 C3662 0.956 . S
H3675 C3662 0.961 . S
H3676 C3662 0.961 . S
H3677 C3663 0.958 . S
H3678 C3663 0.961 . S
H3679 C3663 0.960 . S
C3680 C3681 1.391 . S
C3680 C3682 1.394 . S
C3680 H3696 0.931 . S
C3681 C3680 1.391 . S
C3681 C3685 1.376 . S
C3682 C3680 1.394 . S
C3682 C3683 1.369 . S
C3682 C3686 1.531 . S
C3683 C3682 1.369 . S
C3683 C3684 1.410 . S
C3683 C3691 1.503 . S
C3684 C3683 1.410 . S
C3684 C3685 1.392 . S
C3684 C3687 1.511 . S
C3685 C3681 1.376 . S
C3685 C3684 1.392 . S
C3685 H3697 0.929 . S
C3686 C3682 1.531 . S
C3686 H3698 0.960 . S
C3686 H3699 0.962 . S
C3686 H3700 0.960 . S
C3687 C3684 1.511 . S
C3687 H3701 0.961 . S
C3687 H3702 0.961 . S
C3687 H3703 0.961 . S
C3688 C3689 1.370 . S
C3688 C3690 1.363 . S
C3688 H3704 0.931 . S
C3689 C3688 1.370 . S
C3689 C3693 1.408 . S
C3690 C3688 1.363 . S
C3690 C3691 1.370 . S
C3690 C3694 1.524 . S
C3691 C3683 1.503 . S
C3691 C3690 1.370 . S
C3691 C3692 1.403 . S
C3692 C3691 1.403 . S
C3692 C3693 1.404 . S
C3692 C3695 1.539 . S
C3693 C3689 1.408 . S
C3693 C3692 1.404 . S
C3693 H3705 0.930 . S
C3694 C3690 1.524 . S
C3694 H3706 0.956 . S
C3694 H3707 0.961 . S
C3694 H3708 0.961 . S
C3695 C3692 1.539 . S
C3695 H3709 0.958 . S
C3695 H3710 0.961 . S
C3695 H3711 0.960 . S
H3696 C3680 0.931 . S
H3697 C3685 0.929 . S
H3698 C3686 0.960 . S
H3699 C3686 0.962 . S
H3700 C3686 0.960 . S
H3701 C3687 0.961 . S
H3702 C3687 0.961 . S
H3703 C3687 0.961 . S
H3704 C3688 0.931 . S
H3705 C3693 0.930 . S
H3706 C3694 0.956 . S
H3707 C3694 0.961 . S
H3708 C3694 0.961 . S
H3709 C3695 0.958 . S
H3710 C3695 0.961 . S
H3711 C3695 0.960 . S
C3712 C3713 1.391 . S
C3712 C3714 1.394 . S
C3712 H3728 0.931 . S
C3713 C3712 1.391 . S
C3713 C3717 1.376 . S
C3714 C3712 1.394 . S
C3714 C3715 1.369 . S
C3714 C3718 1.531 . S
C3715 C3714 1.369 . S
C3715 C3716 1.410 . S
C3715 C3723 1.503 . S
C3716 C3715 1.410 . S
C3716 C3717 1.392 . S
C3716 C3719 1.511 . S
C3717 C3713 1.376 . S
C3717 C3716 1.392 . S
C3717 H3729 0.929 . S
C3718 C3714 1.531 . S
C3718 H3730 0.960 . S
C3718 H3731 0.962 . S
C3718 H3732 0.960 . S
C3719 C3716 1.511 . S
C3719 H3733 0.961 . S
C3719 H3734 0.961 . S
C3719 H3735 0.961 . S
C3720 C3721 1.370 . S
C3720 C3722 1.363 . S
C3720 H3736 0.931 . S
C3721 C3720 1.370 . S
C3721 C3725 1.408 . S
C3722 C3720 1.363 . S
C3722 C3723 1.370 . S
C3722 C3726 1.524 . S
C3723 C3715 1.503 . S
C3723 C3722 1.370 . S
C3723 C3724 1.403 . S
C3724 C3723 1.403 . S
C3724 C3725 1.404 . S
C3724 C3727 1.539 . S
C3725 C3721 1.408 . S
C3725 C3724 1.404 . S
C3725 H3737 0.930 . S
C3726 C3722 1.524 . S
C3726 H3738 0.956 . S
C3726 H3739 0.961 . S
C3726 H3740 0.961 . S
C3727 C3724 1.539 . S
C3727 H3741 0.958 . S
C3727 H3742 0.961 . S
C3727 H3743 0.960 . S
H3728 C3712 0.931 . S
H3729 C3717 0.929 . S
H3730 C3718 0.960 . S
H3731 C3718 0.962 . S
H3732 C3718 0.960 . S
H3733 C3719 0.961 . S
H3734 C3719 0.961 . S
H3735 C3719 0.961 . S
H3736 C3720 0.931 . S
H3737 C3725 0.930 . S
H3738 C3726 0.956 . S
H3739 C3726 0.961 . S
H3740 C3726 0.961 . S
H3741 C3727 0.958 . S
H3742 C3727 0.961 . S
H3743 C3727 0.960 . S
C673 C91 1.157 . S
C681 C7 1.149 . S
C705 C21 1.141 . S
C713 C105 1.145 . S
C737 C35 1.118 . S
C745 C63 1.134 . S
C769 C77 1.138 . S
C777 C49 1.137 . S
C801 C483 1.120 . S
C809 C119 1.132 . S
C833 C497 1.122 . S
C841 C133 1.136 . S
C865 C147 1.144 . S
C873 C455 1.140 . S
C897 C161 1.118 . S
C905 C469 1.132 . S
C929 C539 1.147 . S
C937 C175 1.141 . S
C961 C553 1.157 . S
C969 C189 1.147 . S
C993 C511 1.130 . S
C1001 C203 1.134 . S
C1025 C525 1.120 . S
C1033 C217 1.136 . S
C1057 C231 1.137 . S
C1065 C581 1.137 . S
C1089 C245 1.153 . S
C1097 C567 1.148 . S
C1121 C259 1.155 . S
C1129 C329 1.145 . S
C1153 C637 1.143 . S
C1161 C273 1.146 . S
C1185 C651 1.119 . S
C1193 C287 1.135 . S
C1217 C609 1.132 . S
C1225 C301 1.135 . S
C1249 C623 1.157 . S
C1257 C315 1.147 . S
C1281 C427 1.118 . S
C1289 C343 1.134 . S
C1313 C441 1.135 . S
C1321 C357 1.136 . S
C1345 C371 1.152 . S
C1353 C399 1.143 . S
C1377 C385 1.150 . S
C1385 C413 1.148 . S
C1409 C665 1.118 . S
C1417 C595 1.133 . S
C1441 C233 1.087 . S
C1449 C3 1.166 . S
C1473 C17 1.154 1_655 S
C1481 C667 1.103 . S
C1505 C31 1.160 . S
C1513 C303 1.099 . S
C1537 C653 1.114 . S
C1545 C45 1.167 . S
C1569 C59 1.179 . S
C1577 C583 1.140 . S
C1601 C597 1.074 . S
C1609 C73 1.173 . S
C1633 C87 1.187 . S
C1641 C611 1.127 . S
C1665 C289 1.118 . S
C1673 C101 1.167 1_655 S
C1697 C115 1.164 . S
C1705 C9 1.131 . S
C1729 C23 1.082 . S
C1737 C129 1.166 . S
C1761 C143 1.160 . S
C1769 C37 1.126 . S
C1793 C157 1.163 1_554 S
C1801 C51 1.131 . S
C1825 C171 1.184 . S
C1833 C65 1.139 . S
C1857 C79 1.068 . S
C1865 C185 1.169 . S
C1889 C199 1.162 . S
C1897 C93 1.099 . S
C1921 C213 1.171 1_556 S
C1929 C107 1.103 . S
C1953 C227 1.156 . S
C1961 C121 1.119 . S
C1985 C241 1.158 . S
C1993 C513 1.100 . S
C2017 C527 1.142 . S
C2025 C255 1.170 . S
C2049 C541 1.165 . S
C2057 C269 1.176 . S
C2081 C283 1.183 1_565 S
C2089 C219 1.140 . S
C2113 C297 1.156 . S
C2121 C149 1.101 . S
C2145 C499 1.136 . S
C2153 C311 1.180 . S
C2177 C471 1.166 . S
C2185 C325 1.178 . S
C2209 C339 1.176 . S
C2217 C569 1.107 . S
C2241 C353 1.154 . S
C2249 C331 1.115 . S
C2273 C367 1.182 . S
C2281 C639 1.115 . S
C2305 C381 1.180 1_455 S
C2313 C317 1.112 . S
C2337 C395 1.166 . S
C2345 C247 1.134 . S
C2369 C261 1.154 . S
C2377 C409 1.172 1_455 S
C2401 C275 1.095 . S
C2409 C423 1.166 . S
C2433 C625 1.072 . S
C2441 C437 1.172 . S
C2465 C345 1.079 . S
C2473 C451 1.166 . S
C2497 C359 1.162 . S
C2505 C465 1.179 1_554 S
C2529 C479 1.158 . S
C2537 C373 1.123 . S
C2561 C387 1.090 . S
C2569 C493 1.166 . S
C2593 C507 1.168 . S
C2601 C401 1.135 . S
C2625 C415 1.137 . S
C2633 C521 1.180 1_556 S
C2657 C535 1.181 . S
C2665 C429 1.140 . S
C2689 C443 1.080 . S
C2697 C549 1.166 . S
C2721 C563 1.180 . S
C2729 C457 1.140 . S
C2753 C577 1.154 . S
C2761 C177 1.114 . S
C2785 C191 1.091 . S
C2793 C591 1.176 1_545 S
C2817 C605 1.174 . S
C2825 C205 1.139 . S
C2849 C619 1.175 . S
C2857 C555 1.139 . S
C2881 C485 1.140 . S
C2889 C633 1.170 . S
C2913 C647 1.184 1_565 S
C2921 C163 1.139 . S
C2945 C135 1.068 . S
C2953 C661 1.170 1_545 S
C2977 C134 0.695 . S
C2985 C8 0.688 . S
C3009 C22 0.709 . S
C3017 C148 0.697 . S
C3041 C162 0.679 . S
C3049 C36 0.690 . S
C3073 C120 0.695 . S
C3081 C50 0.688 . S
C3105 C64 0.696 . S
C3113 C218 0.688 . S
C3137 C78 0.709 . S
C3145 C176 0.698 . S
C3169 C190 0.704 . S
C3177 C92 0.700 . S
C3201 C204 0.687 . S
C3209 C106 0.687 . S
C3233 C232 0.685 . S
C3241 C260 0.687 . S
C3265 C246 0.710 . S
C3273 C652 0.696 . S
C3297 C274 0.708 . S
C3305 C666 0.693 . S
C3329 C638 0.710 . S
C3337 C288 0.696 . S
C3361 C624 0.703 . S
C3369 C302 0.690 . S
C3393 C582 0.680 . S
C3401 C316 0.694 . S
C3425 C330 0.706 . S
C3433 C610 0.691 . S
C3457 C470 0.700 . S
C3465 C344 0.700 . S
C3489 C484 0.684 . S
C3497 C358 0.697 . S
C3521 C372 0.696 . S
C3529 C498 0.700 . S
C3553 C456 0.700 . S
C3561 C386 0.689 . S
C3585 C554 0.680 . S
C3593 C400 0.689 . S
C3617 C512 0.708 . S
C3625 C414 0.698 . S
C3649 C428 0.704 . S
C3657 C526 0.690 . S
C3681 C540 0.703 . S
C3689 C442 0.690 . S
C3713 C596 0.703 . S
C3721 C568 0.690 . S
