# Generated by pormake.
# Topology yfb, (5)-cn, num edge types: 1
# Building blocks:
#     Node 0, Type 0, BuildingBlock: XOMCOT_clean_sbu_0, # of connection points: 5
#     Node 1, Type 0, BuildingBlock: XOMCOT_clean_sbu_0, # of connection points: 5
#     Node 2, Type 0, BuildingBlock: XOMCOT_clean_sbu_0, # of connection points: 5
#     Node 3, Type 0, BuildingBlock: XOMCOT_clean_sbu_0, # of connection points: 5
#     Node 4, Type 0, BuildingBlock: XOMCOT_clean_sbu_0, # of connection points: 5
#     Node 5, Type 0, BuildingBlock: XOMCOT_clean_sbu_0, # of connection points: 5
#     Node 6, Type 0, BuildingBlock: XOMCOT_clean_sbu_0, # of connection points: 5
#     Node 7, Type 0, BuildingBlock: XOMCOT_clean_sbu_0, # of connection points: 5
#     Node 8, Type 0, BuildingBlock: XOMCOT_clean_sbu_0, # of connection points: 5
#     Node 9, Type 0, BuildingBlock: XOMCOT_clean_sbu_0, # of connection points: 5
#     Node 10, Type 0, BuildingBlock: XOMCOT_clean_sbu_0, # of connection points: 5
#     Node 11, Type 0, BuildingBlock: XOMCOT_clean_sbu_0, # of connection points: 5
#     Node 12, Type 0, BuildingBlock: XOMCOT_clean_sbu_0, # of connection points: 5
#     Node 13, Type 0, BuildingBlock: XOMCOT_clean_sbu_0, # of connection points: 5
#     Node 14, Type 0, BuildingBlock: XOMCOT_clean_sbu_0, # of connection points: 5
#     Node 15, Type 0, BuildingBlock: XOMCOT_clean_sbu_0, # of connection points: 5
#     Edge 16, Type (0, 0), BuildingBlock: EZIPEK_clean_linker_0, # of connection points: 2
#     Edge 17, Type (0, 0), BuildingBlock: EZIPEK_clean_linker_0, # of connection points: 2
#     Edge 18, Type (0, 0), BuildingBlock: EZIPEK_clean_linker_0, # of connection points: 2
#     Edge 19, Type (0, 0), BuildingBlock: EZIPEK_clean_linker_0, # of connection points: 2
#     Edge 20, Type (0, 0), BuildingBlock: EZIPEK_clean_linker_0, # of connection points: 2
#     Edge 21, Type (0, 0), BuildingBlock: EZIPEK_clean_linker_0, # of connection points: 2
#     Edge 22, Type (0, 0), BuildingBlock: EZIPEK_clean_linker_0, # of connection points: 2
#     Edge 23, Type (0, 0), BuildingBlock: EZIPEK_clean_linker_0, # of connection points: 2
#     Edge 24, Type (0, 0), BuildingBlock: EZIPEK_clean_linker_0, # of connection points: 2
#     Edge 25, Type (0, 0), BuildingBlock: EZIPEK_clean_linker_0, # of connection points: 2
#     Edge 26, Type (0, 0), BuildingBlock: EZIPEK_clean_linker_0, # of connection points: 2
#     Edge 27, Type (0, 0), BuildingBlock: EZIPEK_clean_linker_0, # of connection points: 2
#     Edge 28, Type (0, 0), BuildingBlock: EZIPEK_clean_linker_0, # of connection points: 2
#     Edge 29, Type (0, 0), BuildingBlock: EZIPEK_clean_linker_0, # of connection points: 2
#     Edge 30, Type (0, 0), BuildingBlock: EZIPEK_clean_linker_0, # of connection points: 2
#     Edge 31, Type (0, 0), BuildingBlock: EZIPEK_clean_linker_0, # of connection points: 2
#     Edge 32, Type (0, 0), BuildingBlock: EZIPEK_clean_linker_0, # of connection points: 2
#     Edge 33, Type (0, 0), BuildingBlock: EZIPEK_clean_linker_0, # of connection points: 2
#     Edge 34, Type (0, 0), BuildingBlock: EZIPEK_clean_linker_0, # of connection points: 2
#     Edge 35, Type (0, 0), BuildingBlock: EZIPEK_clean_linker_0, # of connection points: 2
#     Edge 36, Type (0, 0), BuildingBlock: EZIPEK_clean_linker_0, # of connection points: 2
#     Edge 37, Type (0, 0), BuildingBlock: EZIPEK_clean_linker_0, # of connection points: 2
#     Edge 38, Type (0, 0), BuildingBlock: EZIPEK_clean_linker_0, # of connection points: 2
#     Edge 39, Type (0, 0), BuildingBlock: EZIPEK_clean_linker_0, # of connection points: 2
#     Edge 40, Type (0, 0), BuildingBlock: EZIPEK_clean_linker_0, # of connection points: 2
#     Edge 41, Type (0, 0), BuildingBlock: EZIPEK_clean_linker_0, # of connection points: 2
#     Edge 42, Type (0, 0), BuildingBlock: EZIPEK_clean_linker_0, # of connection points: 2
#     Edge 43, Type (0, 0), BuildingBlock: EZIPEK_clean_linker_0, # of connection points: 2
#     Edge 44, Type (0, 0), BuildingBlock: EZIPEK_clean_linker_0, # of connection points: 2
#     Edge 45, Type (0, 0), BuildingBlock: EZIPEK_clean_linker_0, # of connection points: 2
#     Edge 46, Type (0, 0), BuildingBlock: EZIPEK_clean_linker_0, # of connection points: 2
#     Edge 47, Type (0, 0), BuildingBlock: EZIPEK_clean_linker_0, # of connection points: 2
#     Edge 48, Type (0, 0), BuildingBlock: EZIPEK_clean_linker_0, # of connection points: 2
#     Edge 49, Type (0, 0), BuildingBlock: EZIPEK_clean_linker_0, # of connection points: 2
#     Edge 50, Type (0, 0), BuildingBlock: EZIPEK_clean_linker_0, # of connection points: 2
#     Edge 51, Type (0, 0), BuildingBlock: EZIPEK_clean_linker_0, # of connection points: 2
#     Edge 52, Type (0, 0), BuildingBlock: EZIPEK_clean_linker_0, # of connection points: 2
#     Edge 53, Type (0, 0), BuildingBlock: EZIPEK_clean_linker_0, # of connection points: 2
#     Edge 54, Type (0, 0), BuildingBlock: EZIPEK_clean_linker_0, # of connection points: 2
#     Edge 55, Type (0, 0), BuildingBlock: EZIPEK_clean_linker_0, # of connection points: 2
# Relax obj value: 0.757
# Max RMSD: 0.297
# Mean RMSD: 0.297
data_MOF--net-yfb--node1-XOMCOT_clean_sbu_0--edge1-EZIPEK_clean_linker_0
_symmetry_space_group_name_H-M    P1
_symmetry_Int_Tables_number       1
_symmetry_cell_setting            triclinic
loop_
_symmetry_equiv_pos_as_xyz
'x, y, z'
_cell_length_a     33.252952
_cell_length_b     33.124068
_cell_length_c     31.264107
_cell_angle_alpha  89.960662
_cell_angle_beta   89.904611
_cell_angle_gamma 90.176338
loop_
_atom_site_label
_atom_site_type_symbol
_atom_site_fract_x
_atom_site_fract_y
_atom_site_fract_z
_atom_type_partial_charge
Co0 Co 0.64171 0.10521 0.14852 0.0
C1 C 0.59786 0.04486 0.09954 0.0
C2 C 0.5803 0.04337 0.16539 0.0
C3 C 0.55001 0.02627 0.14099 0.0
N4 N 0.61021 0.05602 0.1394 0.0
N5 N 0.56059 0.02804 0.09936 0.0
H6 H 0.61312 0.05434 0.07062 0.0
H7 H 0.57785 0.05125 0.19886 0.0
C8 C 0.68008 0.05208 0.22157 0.0
O9 O 0.66056 0.01895 0.21134 0.0
N10 N 0.67155 0.1556 0.15507 0.0
C11 C 0.67384 0.18554 0.12579 0.0
C12 C 0.69617 0.2167 0.14208 0.0
C13 C 0.69189 0.16981 0.18954 0.0
N14 N 0.7076 0.20683 0.18197 0.0
C15 C 0.68497 0.10651 0.06977 0.0
C16 C 0.74315 0.0513 0.09253 0.0
C17 C 0.75046 0.07808 0.0587 0.0
C18 C 0.71962 0.10347 0.04513 0.0
C19 C 0.70764 0.05542 0.1163 0.0
N20 N 0.6816 0.08613 0.10758 0.0
H21 H 0.6623 0.12765 0.05989 0.0
H22 H 0.70282 0.03587 0.14327 0.0
H23 H 0.65925 0.18577 0.09501 0.0
H24 H 0.69486 0.15397 0.21962 0.0
O25 O 0.60616 0.13124 0.10897 0.0
O26 O 0.59653 0.13019 0.17896 0.0
O27 O 0.6745 0.08448 0.19992 0.0
C28 C 0.58439 0.14193 0.14133 0.0
H29 H 0.52078 0.01681 0.1526 0.0
H30 H 0.70323 0.24485 0.12605 0.0
H31 H 0.76614 0.03045 0.10303 0.0
H32 H 0.72388 0.12366 1.01818 0.0
Co33 Co 0.43169 0.65049 0.10838 0.0
C34 C 0.48811 0.59172 0.07528 0.0
C35 C 0.48026 0.58415 0.14261 0.0
C36 C 0.49403 0.5482 0.12535 0.0
N37 N 0.47561 0.6115 0.11099 0.0
N38 N 0.49739 0.55267 0.08259 0.0
H39 H 0.48436 0.6034 0.04337 0.0
H40 H 0.46834 0.58769 0.1746 0.0
C41 C 0.47061 0.67964 0.19367 0.0
O42 O 0.50679 0.66917 0.18092 0.0
N43 N 0.387 0.68738 0.10338 0.0
C44 C 0.37252 0.70181 0.0661 0.0
C45 C 0.33726 0.72187 0.07389 0.0
C46 C 0.35991 0.69848 0.13347 0.0
N47 N 0.32952 0.71988 0.11605 0.0
C48 C 0.46763 0.68907 0.03655 0.0
C49 C 0.48498 0.76114 0.07608 0.0
C50 C 0.47393 0.76119 0.03287 0.0
C51 C 0.46994 0.72418 1.01219 0.0
C52 C 0.48008 0.72541 0.0997 0.0
N53 N 0.46664 0.69085 0.08032 0.0
H54 H 0.46009 0.66188 0.01963 0.0
H55 H 0.48336 0.72757 0.13352 0.0
H56 H 0.38561 0.69663 0.03496 0.0
H57 H 0.36139 0.68972 0.16678 0.0
O58 O 0.41322 0.62425 0.05749 0.0
O59 O 0.39359 0.60645 0.12151 0.0
O60 O 0.44035 0.67265 0.16931 0.0
C61 C 0.39225 0.59963 0.08044 0.0
H62 H 0.49592 0.51962 0.14203 0.0
H63 H 0.318 0.73585 0.05029 0.0
H64 H 0.49008 0.78932 0.0928 0.0
H65 H 0.46314 0.72278 0.97832 0.0
Co66 Co 0.86211 0.42077 0.12264 0.0
C67 C 0.90505 0.47299 0.06307 0.0
C68 C 0.92053 0.48737 0.12775 0.0
C69 C 0.95026 0.5021 0.10081 0.0
N70 N 0.89239 0.46825 0.10419 0.0
N71 N 0.94086 0.49236 0.06015 0.0
H72 H 0.89143 0.45756 0.03626 0.0
H73 H 0.92233 0.48593 0.16225 0.0
C74 C 0.7905 0.44587 0.17569 0.0
O75 O 0.76995 0.42065 0.15182 0.0
N76 N 0.83431 0.37091 0.13899 0.0
C77 C 0.82835 0.33876 0.11317 0.0
C78 C 0.8116 0.30792 0.1362 0.0
C79 C 0.82266 0.35792 0.17838 0.0
N80 N 0.80776 0.3199 0.17706 0.0
C81 C 0.82383 0.40679 0.04181 0.0
C82 C 0.76309 0.46248 0.05237 0.0
C83 C 0.75846 0.4312 0.02268 0.0
C84 C 0.79086 0.40561 1.01459 0.0
C85 C 0.79728 0.46282 0.0784 0.0
N86 N 0.82377 0.4314 0.07682 0.0
H87 H 0.84809 0.38598 0.03618 0.0
H88 H 0.80047 0.48622 0.10217 0.0
H89 H 0.83709 0.33646 0.08015 0.0
H90 H 0.82514 0.37565 0.20729 0.0
O91 O 0.89964 0.38883 0.09083 0.0
O92 O 0.90663 0.40412 0.15942 0.0
O93 O 0.82807 0.45237 0.16699 0.0
C94 C 0.92049 0.38579 0.12563 0.0
H95 H 0.97838 0.51575 0.11067 0.0
H96 H 0.80267 0.27869 0.12387 0.0
H97 H 0.73901 0.48373 0.05822 0.0
H98 H 0.78882 0.38209 0.99059 0.0
Co99 Co 0.07777 0.85695 0.11306 0.0
C100 C 0.01791 0.91267 0.08023 0.0
C101 C 0.02259 0.91787 0.1481 0.0
C102 C 0.00595 0.95305 0.13196 0.0
N103 N 0.03095 0.89255 0.11546 0.0
N104 N 0.00457 0.95025 0.08894 0.0
H105 H 0.02377 0.90282 0.048 0.0
H106 H 0.03357 0.91398 0.18038 0.0
C107 C 0.03575 0.82307 0.1949 0.0
O108 O 1.00043 0.82853 0.17714 0.0
N109 N 0.12501 0.8232 0.1076 0.0
C110 C 0.13921 0.80945 0.06986 0.0
C111 C 0.17416 0.78879 0.07669 0.0
C112 C 0.1522 0.81115 0.13709 0.0
N113 N 0.18234 0.78992 0.11874 0.0
C114 C 0.04614 0.81927 0.03857 0.0
C115 C 0.03245 0.74471 0.07446 0.0
C116 C 0.04081 0.74707 0.03052 0.0
C117 C 0.04487 0.78535 1.01223 0.0
C118 C 0.03843 0.77875 0.10006 0.0
N119 N 0.0474 0.81539 0.08217 0.0
H120 H 0.05274 0.8476 0.02327 0.0
H121 H 0.04033 0.77367 0.13382 0.0
H122 H 0.12599 0.81521 0.03897 0.0
H123 H 0.15092 0.81879 0.17057 0.0
O124 O 0.0967 0.8875 0.06448 0.0
O125 O 0.11156 0.9025 0.1308 0.0
O126 O 0.06711 0.83178 0.17248 0.0
C127 C 0.11426 0.91222 0.0905 0.0
H128 H 0.00069 0.98052 0.14985 0.0
H129 H 0.19284 0.77472 0.05255 0.0
H130 H 0.02786 0.71567 0.08972 0.0
H131 H 0.05082 0.7889 0.97836 0.0
Co132 Co 0.65327 0.42133 0.40232 0.0
C133 C 0.58899 0.46969 0.43975 0.0
C134 C 0.58785 0.47473 0.37152 0.0
C135 C 0.55236 0.49039 0.38796 0.0
N136 N 0.61097 0.46182 0.40418 0.0
N137 N 0.55307 0.4863 0.4309 0.0
H138 H 0.59682 0.45962 0.47145 0.0
H139 H 0.59434 0.4695 0.33808 0.0
C140 C 0.68522 0.46975 0.32299 0.0
O141 O 0.67525 0.50528 0.33832 0.0
N142 N 0.69396 0.38019 0.40103 0.0
C143 C 0.71802 0.36826 0.43322 0.0
C144 C 0.73851 0.33442 0.42039 0.0
C145 C 0.70026 0.35366 0.36895 0.0
N146 N 0.72731 0.32545 0.38017 0.0
C147 C 0.68525 0.45449 0.47906 0.0
C148 C 0.75771 0.47979 0.44609 0.0
C149 C 0.75613 0.46578 0.48825 0.0
C150 C 0.71845 0.45769 0.50595 0.0
C151 C 0.7241 0.47403 0.41976 0.0
N152 N 0.68964 0.45675 0.43552 0.0
H153 H 0.65788 0.44385 0.49346 0.0
H154 H 0.72816 0.48021 0.38666 0.0
H155 H 0.71857 0.38113 0.46487 0.0
H156 H 0.68391 0.35373 0.33904 0.0
O157 O 0.62856 0.39478 0.45044 0.0
O158 O 0.61348 0.38046 0.38381 0.0
O159 O 0.67548 0.43767 0.34346 0.0
C160 C 0.60771 0.37303 0.42436 0.0
H161 H 0.5267 0.50056 0.36968 0.0
H162 H 0.75839 0.31628 0.43982 0.0
H163 H 0.78613 0.48871 0.4319 0.0
H164 H 0.71552 0.44857 0.53912 0.0
Co165 Co 0.06988 0.65717 0.41554 0.0
C166 C 0.01354 0.6047 0.46023 0.0
C167 C 0.00439 0.60077 0.39263 0.0
C168 C 0.98645 0.56764 0.41215 0.0
N169 N 0.02194 0.62383 0.42284 0.0
N170 N 0.99349 0.56952 0.45464 0.0
H171 H 0.02672 0.61335 0.49048 0.0
H172 H 0.00883 0.60468 0.35859 0.0
C173 C 0.05791 0.7215 0.34717 0.0
O174 O 0.07826 0.74536 0.37272 0.0
N175 N 0.1193 0.68819 0.41045 0.0
C176 C 0.13562 0.7146 0.4385 0.0
C177 C 0.1721 0.72735 0.42318 0.0
C178 C 0.1468 0.68475 0.3788 0.0
N179 N 0.17904 0.70853 0.38585 0.0
C180 C 0.05799 0.696 0.4962 0.0
C181 C 0.0173 0.76251 0.4663 0.0
C182 C 0.03833 0.76515 0.50517 0.0
C183 C 0.05529 0.73013 0.52191 0.0
C184 C 0.02142 0.72764 0.44124 0.0
N185 N 0.04636 0.69732 0.45423 0.0
H186 H 0.07453 0.67081 0.50881 0.0
H187 H 0.00691 0.72657 0.41051 0.0
H188 H 0.12284 0.72439 0.46824 0.0
H189 H 0.14367 0.66471 0.35172 0.0
O190 O 0.09624 0.62497 0.45821 0.0
O191 O 0.09776 0.61075 0.38979 0.0
O192 O 0.04847 0.68533 0.36 0.0
C193 C 0.10874 0.60105 0.42847 0.0
H194 H 0.97361 0.54182 0.39586 0.0
H195 H 0.19228 0.74869 0.43833 0.0
H196 H 0.00173 0.7885 0.45347 0.0
H197 H 0.07027 0.73037 0.55267 0.0
Co198 Co 0.85554 0.08526 0.42904 0.0
C199 C 0.90973 0.03089 0.47477 0.0
C200 C 0.90453 0.01243 0.40935 0.0
C201 C 0.93632 0.99189 0.4281 0.0
N202 N 0.88808 0.03721 0.43867 0.0
N203 N 0.94027 0.00463 0.46893 0.0
H204 H 0.90612 0.04859 0.50361 0.0
H205 H 0.89673 0.0122 0.37578 0.0
C206 C 0.78582 0.06444 0.37118 0.0
O207 O 0.76383 0.0831 0.39989 0.0
N208 N 0.8251 0.13499 0.42091 0.0
C209 C 0.81616 0.16282 0.45106 0.0
C210 C 0.79722 0.19482 0.43225 0.0
C211 C 0.81341 0.15211 0.38354 0.0
N212 N 0.79532 0.18788 0.39002 0.0
C213 C 0.8132 0.08512 0.50908 0.0
C214 C 0.76104 0.0229 0.49026 0.0
C215 C 0.75114 0.05003 0.52314 0.0
C216 C 0.77935 0.0794 0.53461 0.0
C217 C 0.79475 0.03092 0.46457 0.0
N218 N 0.81718 0.06494 0.4713 0.0
H219 H 0.83504 0.10734 0.51873 0.0
H220 H 0.80104 0.01152 0.43763 0.0
H221 H 0.8244 0.16175 0.48425 0.0
H222 H 0.81815 0.1391 0.35238 0.0
O223 O 0.89047 0.11438 0.4674 0.0
O224 O 0.89979 0.11047 0.3975 0.0
O225 O 0.82384 0.05937 0.37855 0.0
C226 C 0.91158 0.12477 0.43431 0.0
H227 H 0.95741 0.97242 0.41174 0.0
H228 H 0.78616 0.22163 0.44818 0.0
H229 H 0.74093 0.99834 0.48199 0.0
H230 H 0.77416 0.09931 0.56153 0.0
Co231 Co 0.41659 0.82807 0.41732 0.0
C232 C 0.46146 0.88737 0.46762 0.0
C233 C 0.46876 0.89897 0.40058 0.0
C234 C 0.48153 0.93255 0.42334 0.0
N235 N 0.45576 0.87068 0.42839 0.0
N236 N 0.47643 0.92532 0.46548 0.0
H237 H 0.45039 0.87408 0.49697 0.0
H238 H 0.4651 0.89719 0.36627 0.0
C239 C 0.44953 0.76545 0.3569 0.0
O240 O 0.43605 0.73852 0.38431 0.0
N241 N 0.37571 0.78675 0.40838 0.0
C242 C 0.35725 0.76368 0.4382 0.0
C243 C 0.32704 0.74219 0.4193 0.0
C244 C 0.35575 0.77893 0.37157 0.0
N245 N 0.32585 0.75183 0.37753 0.0
C246 C 0.4256 0.79427 0.50075 0.0
C247 C 0.49556 0.75222 0.48684 0.0
C248 C 0.47427 0.74517 0.52529 0.0
C249 C 0.43961 0.76835 0.53221 0.0
C250 C 0.47957 0.77786 0.45543 0.0
N251 N 0.44306 0.7957 0.46128 0.0
H252 H 0.39871 0.81118 0.50758 0.0
H253 H 0.49639 0.7828 0.42633 0.0
H254 H 0.36291 0.76344 0.47194 0.0
H255 H 0.36217 0.79373 0.34164 0.0
O256 O 0.37935 0.8568 0.45351 0.0
O257 O 0.38428 0.86572 0.38357 0.0
O258 O 0.44936 0.80321 0.3675 0.0
C259 C 0.3671 0.87545 0.41953 0.0
H260 H 0.4909 0.96119 0.40987 0.0
H261 H 0.30576 0.72265 0.43558 0.0
H262 H 0.52393 0.73817 0.48001 0.0
H263 H 0.42156 0.76503 0.56074 0.0
Co264 Co 0.34248 0.93835 0.93009 0.0
C265 C 0.40575 0.98563 0.97233 0.0
C266 C 0.41402 0.9856 0.90432 0.0
C267 C 0.44883 0.99992 0.92349 0.0
N268 N 0.38692 0.97655 0.93499 0.0
N269 N 0.44361 0.99949 0.96628 0.0
H270 H 0.3937 0.97838 1.00355 0.0
H271 H 0.41034 0.97854 0.87078 0.0
C272 C 0.28586 0.96138 0.85773 0.0
O273 O 0.25622 0.95033 0.88291 0.0
N274 N 0.29942 0.89823 0.92691 0.0
C275 C 0.27005 0.8907 0.95578 0.0
C276 C 0.25215 0.85445 0.94632 0.0
C277 C 0.29787 0.86662 0.89946 0.0
N278 N 0.2702 0.83887 0.91152 0.0
C279 C 0.30888 0.96538 1.0089 0.0
C280 C 0.25009 0.01369 0.97459 0.0
C281 C 0.2432 0.99446 1.01408 0.0
C282 C 0.27534 0.97458 0.03336 0.0
C283 C 0.28427 0.0028 0.95077 0.0
N284 N 0.30956 0.97382 0.96603 0.0
H285 H 0.331 0.94635 0.02365 0.0
H286 H 0.28849 0.01513 0.91929 0.0
H287 H 0.26303 0.90846 0.98345 0.0
H288 H 0.31836 0.86261 0.87295 0.0
O289 O 0.36596 0.90817 0.97586 0.0
O290 O 0.38022 0.89739 0.90807 0.0
O291 O 0.32238 0.96237 0.87239 0.0
C292 C 0.38569 0.88748 0.94805 0.0
H293 H 0.47675 0.00735 0.90743 0.0
H294 H 0.22903 0.83948 0.96499 0.0
H295 H 0.22708 0.03219 0.96001 0.0
H296 H 0.27251 0.96137 0.06495 0.0
Co297 Co 0.56271 0.32027 0.9307 0.0
C298 C 0.53131 0.39954 0.9589 0.0
C299 C 0.49299 0.37597 0.90993 0.0
C300 C 0.47693 0.41205 0.92524 0.0
N301 N 0.52732 0.36799 0.9313 0.0
N302 N 0.50135 0.42642 0.95621 0.0
H303 H 0.5545 0.4026 0.98273 0.0
H304 H 0.47968 0.35645 0.88613 0.0
C305 C 0.52181 0.28248 0.85135 0.0
O306 O 0.48956 0.27224 0.87305 0.0
N307 N 0.60047 0.27545 0.9313 0.0
C308 C 0.60998 0.25376 0.9664 0.0
C309 C 0.64861 0.24005 0.96271 0.0
C310 C 0.63355 0.27339 0.90607 0.0
N311 N 0.66387 0.25337 0.9254 0.0
C312 C 0.50143 0.30335 0.99226 0.0
C313 C 0.51553 0.22146 0.99049 0.0
C314 C 0.50545 0.23987 0.02938 0.0
C315 C 0.49294 0.28009 0.02852 0.0
C316 C 0.52182 0.24564 0.95425 0.0
N317 N 0.5206 0.28681 0.95761 0.0
H318 H 0.49846 0.33549 0.99564 0.0
H319 H 0.53511 0.23165 0.9266 0.0
H320 H 0.59272 0.25313 0.99561 0.0
H321 H 0.63717 0.29078 0.87698 0.0
O322 O 0.58654 0.33892 0.98318 0.0
O323 O 0.60791 0.35549 0.91839 0.0
O324 O 0.54921 0.30444 0.86868 0.0
C325 C 0.61302 0.35757 0.95972 0.0
H326 H 0.44894 0.42583 0.91546 0.0
H327 H 0.66574 0.22536 0.98768 0.0
H328 H 0.52377 0.18986 0.98942 0.0
H329 H 0.4833 0.29495 0.05763 0.0
Co330 Co 0.15953 0.57416 0.90835 0.0
C331 C 0.0968 0.51851 0.93684 0.0
C332 C 0.09295 0.5286 0.86944 0.0
C333 C 0.0565 0.51328 0.88379 0.0
N334 N 0.11836 0.53233 0.90287 0.0
N335 N 0.05893 0.50775 0.92641 0.0
H336 H 0.10622 0.52162 0.96964 0.0
H337 H 0.09834 0.54141 0.83811 0.0
C338 C 0.18932 0.53587 0.8236 0.0
O339 O 0.17937 0.49955 0.83696 0.0
N340 N 0.19865 0.61678 0.91582 0.0
C341 C 0.21609 0.62686 0.95327 0.0
C342 C 0.23456 0.66364 0.94891 0.0
C343 C 0.2066 0.64789 0.88908 0.0
N344 N 0.22826 0.67699 0.90884 0.0
C345 C 0.19313 0.53265 0.97917 0.0
C346 C 0.26617 0.51579 0.94259 0.0
C347 C 0.26468 0.52429 0.98653 0.0
C348 C 0.22684 0.52899 1.00526 0.0
C349 C 0.23244 0.52407 0.91735 0.0
N350 N 0.19714 0.53627 0.9357 0.0
H351 H 0.16536 0.53958 0.99507 0.0
H352 H 0.23694 0.5243 0.88359 0.0
H353 H 0.213 0.61046 0.98288 0.0
H354 H 0.19448 0.65051 0.85709 0.0
O355 O 0.13375 0.59208 0.95952 0.0
O356 O 0.11821 0.61504 0.89615 0.0
O357 O 0.18184 0.56644 0.84746 0.0
C358 C 0.11099 0.61535 0.93719 0.0
H359 H 0.02908 0.51093 0.86533 0.0
H360 H 0.24952 0.68053 0.97395 0.0
H361 H 0.29462 0.50953 0.92704 0.0
H362 H 0.22361 0.53424 0.03928 0.0
Co363 Co 0.9364 0.18651 0.94552 0.0
C364 C 0.97829 0.11417 0.97755 0.0
C365 C 0.99104 0.12187 0.91099 0.0
C366 C 0.00522 0.08434 0.92421 0.0
N367 N 0.97432 0.14096 0.94476 0.0
N368 N 0.99651 0.07968 0.9661 0.0
H369 H 0.9668 0.11871 1.00952 0.0
H370 H 0.99063 0.13302 0.87849 0.0
C371 C 0.97265 0.2228 0.86303 0.0
O372 O 0.00696 0.22984 0.88238 0.0
N373 N 0.8958 0.22839 0.94703 0.0
C374 C 0.88579 0.25193 0.98062 0.0
C375 C 0.84668 0.26458 0.97579 0.0
C376 C 0.86276 0.22768 0.92197 0.0
N377 N 0.83217 0.2486 0.93934 0.0
C378 C 0.00114 0.2114 1.00039 0.0
C379 C 0.98244 0.292 0.99266 0.0
C380 C 0.99775 0.27767 0.03142 0.0
C381 C 0.01206 0.23811 0.03302 0.0
C382 C 0.97369 0.26455 0.96008 0.0
N383 N 0.97778 0.22398 0.96689 0.0
H384 H 0.00685 0.18 1.00591 0.0
H385 H 0.95736 0.27557 0.93294 0.0
H386 H 0.90388 0.25597 1.00896 0.0
H387 H 0.85973 0.20857 0.89407 0.0
O388 O 0.9178 0.16869 1.00073 0.0
O389 O 0.89265 0.14785 0.93923 0.0
O390 O 0.94518 0.20195 0.88209 0.0
C391 C 0.891 0.1472 0.981 0.0
H392 H 0.0188 0.06149 0.90416 0.0
H393 H 0.82918 0.28143 0.99889 0.0
H394 H 0.97243 0.32294 0.98959 0.0
H395 H 0.02554 0.22643 0.062 0.0
Co396 Co 0.3452 0.57808 0.60109 0.0
C397 C 0.39634 0.52251 0.55395 0.0
C398 C 0.39962 0.5101 0.62114 0.0
C399 C 0.43059 0.48995 0.60057 0.0
N400 N 0.37853 0.53094 0.59177 0.0
N401 N 0.4291 0.49897 0.55847 0.0
H402 H 0.38833 0.53723 0.52425 0.0
H403 H 0.39562 0.51287 0.65535 0.0
C404 C 0.2779 0.55461 0.66158 0.0
O405 O 0.25286 0.56852 0.63286 0.0
N406 N 0.31246 0.62634 0.60964 0.0
C407 C 0.27836 0.63737 0.58914 0.0
C408 C 0.2661 0.67409 0.60388 0.0
C409 C 0.31974 0.65688 0.63742 0.0
N410 N 0.29213 0.68642 0.63393 0.0
C411 C 0.30543 0.57723 0.52063 0.0
C412 C 0.2563 0.51141 0.53525 0.0
C413 C 0.24731 0.53799 0.5015 0.0
C414 C 0.27436 0.56911 0.49226 0.0
C415 C 0.28716 0.52165 0.56387 0.0
N416 N 0.3081 0.55682 0.55854 0.0
H417 H 0.32389 0.60345 0.51457 0.0
H418 H 0.29248 0.50285 0.59153 0.0
H419 H 0.26151 0.61975 0.56651 0.0
H420 H 0.34455 0.65768 0.65971 0.0
O421 O 0.37927 0.60831 0.56224 0.0
O422 O 0.39009 0.60385 0.63126 0.0
O423 O 0.31578 0.55196 0.6526 0.0
C424 C 0.40181 0.618 0.59434 0.0
H425 H 0.45486 0.4738 0.61593 0.0
H426 H 0.23976 0.69058 0.59354 0.0
H427 H 0.23697 0.48583 0.5421 0.0
H428 H 0.26935 0.58943 0.46562 0.0
Co429 Co 0.92324 0.33819 0.61189 0.0
C430 C 0.95346 0.41873 0.5843 0.0
C431 C 0.99792 0.38878 0.62206 0.0
C432 C 0.0148 0.42335 0.60395 0.0
N433 N 0.95918 0.38568 0.60955 0.0
N434 N 0.98653 0.44181 0.58006 0.0
H435 H 0.92685 0.42487 0.56587 0.0
H436 H 0.01373 0.36601 0.64021 0.0
C437 C 0.93693 0.28912 0.69446 0.0
O438 O 0.91516 0.25981 0.67851 0.0
N439 N 0.88549 0.29301 0.61059 0.0
C440 C 0.88044 0.26738 0.5774 0.0
C441 C 0.84392 0.24827 0.5813 0.0
C442 C 0.85114 0.28953 0.63378 0.0
N443 N 0.8253 0.26265 0.61633 0.0
C444 C 0.97715 0.32 0.54408 0.0
C445 C 0.97906 0.23864 0.56171 0.0
C446 C 0.9837 0.25167 0.5192 0.0
C447 C 0.98869 0.29306 0.51193 0.0
C448 C 0.97102 0.26679 0.59365 0.0
N449 N 0.96437 0.30613 0.58307 0.0
H450 H 0.97333 0.3513 0.5355 0.0
H451 H 0.96401 0.25545 0.62473 0.0
H452 H 0.89957 0.26596 0.54952 0.0
H453 H 0.84408 0.30825 0.66114 0.0
O454 O 0.89736 0.3569 0.56117 0.0
O455 O 0.87821 0.37357 0.6267 0.0
O456 O 0.94366 0.32195 0.67274 0.0
C457 C 0.87231 0.37625 0.58545 0.0
H458 H 0.04597 0.43267 0.60593 0.0
H459 H 0.83056 0.22783 0.55829 0.0
H460 H 0.97708 0.20685 0.56961 0.0
H461 H 0.99503 0.30441 0.48011 0.0
Co462 Co 0.1706 0.93613 0.61031 0.0
C463 C 0.10894 0.98994 0.57763 0.0
C464 C 0.11012 0.99171 0.64565 0.0
C465 C 0.07269 0.00478 0.63162 0.0
N466 N 0.13309 0.98174 0.61157 0.0
N467 N 0.07191 1.00243 0.58857 0.0
H468 H 0.11607 0.98186 0.54517 0.0
H469 H 0.11756 0.98438 0.67841 0.0
C470 C 0.21821 0.97443 0.68472 0.0
O471 O 0.22872 0.00491 0.66026 0.0
N472 N 0.20419 0.88878 0.60829 0.0
C473 C 0.2165 0.86993 0.5724 0.0
C474 C 0.23751 0.83607 0.58369 0.0
C475 C 0.21723 0.86576 0.64104 0.0
N476 N 0.2378 0.8335 0.62667 0.0
C477 C 0.20354 0.99141 0.54649 0.0
C478 C 0.27758 0.95477 0.54911 0.0
C479 C 0.26375 0.97009 0.51023 0.0
C480 C 0.22823 0.9924 0.51015 0.0
C481 C 0.25205 0.95493 0.58457 0.0
N482 N 0.21315 0.96777 0.581 0.0
H483 H 0.17552 0.00688 0.54449 0.0
H484 H 0.26153 0.93835 0.61205 0.0
H485 H 0.21045 0.88008 0.54026 0.0
H486 H 0.21154 0.87209 0.67445 0.0
O487 O 0.14383 0.91646 0.55973 0.0
O488 O 0.12527 0.9011 0.62516 0.0
O489 O 0.19311 0.94787 0.67077 0.0
C490 C 0.11829 0.89781 0.58423 0.0
H491 H 0.04683 0.01107 0.65158 0.0
H492 H 0.25138 0.81467 0.56208 0.0
H493 H 0.30573 0.93843 0.55077 0.0
H494 H 0.21751 0.00644 0.48104 0.0
Co495 Co 0.55839 0.15438 0.60681 0.0
C496 C 0.50619 0.08952 0.5759 0.0
C497 C 0.50637 0.09131 0.64435 0.0
C498 C 0.49054 0.05457 0.63121 0.0
N499 N 0.51646 0.11324 0.60956 0.0
N500 N 0.49101 0.05346 0.58811 0.0
H501 H 0.51395 0.09636 0.54313 0.0
H502 H 0.51438 0.09925 0.6768 0.0
C503 C 0.54465 0.21774 0.67736 0.0
O504 O 0.56059 0.24499 0.65191 0.0
N505 N 0.60215 0.1931 0.60157 0.0
C506 C 0.61553 0.20847 0.5641 0.0
C507 C 0.65281 0.22508 0.56981 0.0
C508 C 0.63256 0.19985 0.62954 0.0
N509 N 0.66353 0.21963 0.61075 0.0
C510 C 0.52859 0.1822 0.52623 0.0
C511 C 0.49835 0.25401 0.55639 0.0
C512 C 0.5148 0.25261 0.51499 0.0
C513 C 0.52495 0.21486 0.49839 0.0
C514 C 0.50318 0.22032 0.58331 0.0
N515 N 0.52424 0.18759 0.56939 0.0
H516 H 0.54148 0.15498 0.51345 0.0
H517 H 0.493 0.22187 0.61573 0.0
H518 H 0.60141 0.20488 0.53346 0.0
H519 H 0.63321 0.18827 0.66187 0.0
O520 O 0.58433 0.12367 0.56269 0.0
O521 O 0.59647 0.11556 0.63097 0.0
O522 O 0.53886 0.18127 0.66349 0.0
C523 C 0.60388 0.10424 0.59181 0.0
H524 H 0.48304 0.02924 0.65164 0.0
H525 H 0.67183 0.23802 0.5452 0.0
H526 H 0.48761 0.28219 0.56964 0.0
H527 H 0.53586 0.21193 0.46586 0.0
C528 C 0.75036 0.06535 0.25344 0.0
C529 C 0.70971 0.05189 0.25871 0.0
C530 C 0.72613 0.03384 0.3335 0.0
C531 C 0.76463 0.05249 0.33009 0.0
N532 N 0.81338 0.08665 0.28571 0.0
N533 N 0.65774 0.02925 0.30713 0.0
C534 C 0.7769 0.06796 0.2896 0.0
C535 C 0.69747 0.03734 0.29958 0.0
N536 N 0.76437 0.07445 0.21351 0.0
N537 N 0.71714 0.01201 0.36937 0.0
H538 H 0.63542 0.03293 0.28411 0.0
H539 H 0.64625 0.02297 0.33743 0.0
H540 H 0.73781 0.0079 0.39404 0.0
H541 H 0.6913 0.99441 0.37251 0.0
H542 H 0.7946 0.07922 0.20638 0.0
H543 H 0.7462 0.07455 0.18664 0.0
H544 H 0.82133 0.1047 0.25974 0.0
H545 H 0.83545 0.08535 0.30919 0.0
C546 C 0.44135 0.76361 0.27528 0.0
C547 C 0.46136 0.75008 0.3129 0.0
C548 C 0.48461 0.68978 0.2731 0.0
C549 C 0.46574 0.70359 0.23494 0.0
N550 N 0.43048 0.75784 0.19894 0.0
N551 N 0.51068 0.70596 0.34366 0.0
C552 C 0.44527 0.74161 0.23588 0.0
C553 C 0.48566 0.71492 0.31037 0.0
N554 N 0.41703 0.79671 0.27723 0.0
N555 N 0.49952 0.65139 0.27477 0.0
H556 H 0.51293 0.72429 0.37071 0.0
H557 H 0.53218 0.68319 0.3425 0.0
H558 H 0.49777 0.63129 0.24918 0.0
H559 H 0.5097 0.63793 0.30283 0.0
H560 H 0.39589 0.80383 0.25388 0.0
H561 H 0.41679 0.8166 0.30291 0.0
H562 H 0.4216 0.78783 0.19607 0.0
H563 H 0.42881 0.74242 0.17017 0.0
C564 C 0.70282 0.48321 0.24475 0.0
C565 C 0.71392 0.46702 0.28523 0.0
C566 C 0.78207 0.45334 0.25592 0.0
C567 C 0.76877 0.46296 0.21412 0.0
N568 N 0.71688 0.48938 0.16859 0.0
N569 N 0.76404 0.43129 0.32701 0.0
C570 C 0.72932 0.47897 0.20874 0.0
C571 C 0.75357 0.45078 0.2902 0.0
N572 N 0.66661 0.50223 0.24047 0.0
N573 N 0.82198 0.44646 0.26313 0.0
H574 H 0.7443 0.4256 0.35191 0.0
H575 H 0.79144 0.41687 0.33148 0.0
H576 H 0.84375 0.44818 0.2393 0.0
H577 H 0.83441 0.44391 0.29355 0.0
H578 H 0.6585 0.51896 0.21367 0.0
H579 H 0.64506 0.50303 0.26471 0.0
H580 H 0.68719 0.49568 0.16063 0.0
H581 H 0.73658 0.49066 0.14265 0.0
C582 C 0.00995 0.75405 0.29336 0.0
C583 C 0.04866 0.73876 0.30334 0.0
C584 C 0.07823 0.78569 0.25077 0.0
C585 C 0.03969 0.79853 0.23663 0.0
N586 N 0.96986 0.80519 0.25716 0.0
N587 N 0.1172 0.73139 0.28083 0.0
C588 C 0.00546 0.78505 0.26103 0.0
C589 C 0.0818 0.75182 0.2784 0.0
N590 N 0.97754 0.73873 0.31487 0.0
N591 N 0.11141 0.80878 0.24269 0.0
H592 H 0.11975 0.70506 0.29878 0.0
H593 H 0.14171 0.7377 0.26102 0.0
H594 H 0.10934 0.83806 0.23068 0.0
H595 H 0.13978 0.80195 0.25484 0.0
H596 H 0.94778 0.74547 0.30777 0.0
H597 H 0.9805 0.71611 0.33787 0.0
H598 H 0.94394 0.7983 0.2743 0.0
H599 H 0.96751 0.83269 0.24126 0.0
C600 C 0.24548 0.99915 0.80189 0.0
C601 C 0.27506 0.96943 0.81152 0.0
C602 C 0.26882 0.94392 0.73746 0.0
C603 C 0.23654 0.97116 0.72908 0.0
N604 N 0.19148 0.0221 0.75531 0.0
N605 N 0.31264 0.91122 0.78895 0.0
C606 C 0.22436 0.99821 0.76187 0.0
C607 C 0.2864 0.94153 0.77922 0.0
N608 N 0.23836 0.02914 0.83086 0.0
N609 N 0.28363 0.92074 0.70512 0.0
H610 H 0.32852 0.91007 0.81759 0.0
H611 H 0.31738 0.88613 0.76957 0.0
H612 H 0.27003 0.91927 0.67548 0.0
H613 H 0.31046 0.90471 0.70685 0.0
H614 H 0.22027 0.05407 0.82481 0.0
H615 H 0.25385 0.03114 0.85968 0.0
H616 H 0.17795 0.03926 0.77916 0.0
H617 H 0.17552 0.02231 0.72661 0.0
C618 C 0.50738 0.28315 0.7715 0.0
C619 C 0.52765 0.26561 0.80678 0.0
C620 C 0.55699 0.2144 0.75788 0.0
C621 C 0.53504 0.23069 0.72282 0.0
N622 N 0.48487 0.27755 0.69792 0.0
N623 N 0.56888 0.212 0.83453 0.0
C624 C 0.50906 0.26428 0.73023 0.0
C625 C 0.55159 0.2305 0.80014 0.0
N626 N 0.4876 0.31889 0.77716 0.0
N627 N 0.58484 0.18491 0.75051 0.0
H628 H 0.56833 0.22431 0.86509 0.0
H629 H 0.58196 0.18352 0.83338 0.0
H630 H 0.58879 0.17121 0.72084 0.0
H631 H 0.60586 0.17556 0.77303 0.0
H632 H 0.47614 0.33617 0.75221 0.0
H633 H 0.48539 0.33316 0.8068 0.0
H634 H 0.46196 0.29853 0.70199 0.0
H635 H 0.48531 0.26506 0.66749 0.0
C636 C 0.27063 0.56963 0.74116 0.0
C637 C 0.26065 0.54532 0.70522 0.0
C638 C 0.20178 0.51905 0.74511 0.0
C639 C 0.21355 0.5406 0.78254 0.0
N640 N 0.26481 0.58144 0.81723 0.0
N641 N 0.22115 0.49096 0.67632 0.0
C642 C 0.24952 0.56451 0.78085 0.0
C643 C 0.22763 0.51816 0.70843 0.0
N644 N 0.29903 0.5993 0.73703 0.0
N645 N 0.1646 0.50142 0.74339 0.0
H646 H 0.23967 0.48924 0.6494 0.0
H647 H 0.20021 0.46759 0.6784 0.0
H648 H 0.14376 0.50326 0.76826 0.0
H649 H 0.15261 0.4889 0.71563 0.0
H650 H 0.30338 0.62193 0.75969 0.0
H651 H 0.31641 0.60313 0.7096 0.0
H652 H 0.2934 0.5943 0.81879 0.0
H653 H 0.25085 0.58012 0.84688 0.0
C654 C 0.93261 0.27077 0.81472 0.0
C655 C 0.96482 0.2427 0.81996 0.0
C656 C 0.98657 0.25867 0.74587 0.0
C657 C 0.95147 0.28215 0.7393 0.0
N658 N 0.88904 0.30794 0.76649 0.0
N659 N 0.02057 0.20733 0.78811 0.0
C660 C 0.92413 0.28762 0.77361 0.0
C661 C 0.99159 0.23635 0.78493 0.0
N662 N 0.91101 0.28306 0.84941 0.0
N663 N 0.0151 0.25772 0.71442 0.0
H664 H 0.02443 0.18971 0.81545 0.0
H665 H 0.03849 0.19818 0.7626 0.0
H666 H 0.01202 0.27402 0.68603 0.0
H667 H 0.04312 0.24423 0.71797 0.0
H668 H 0.89045 0.30669 0.84876 0.0
H669 H 0.91637 0.2722 0.87986 0.0
H670 H 0.86506 0.30805 0.78797 0.0
H671 H 0.88309 0.32301 0.73787 0.0
C672 C 0.48758 0.04608 1.0072 0.0
C673 C 0.47423 0.00635 0.99872 0.0
C674 C 0.51927 0.98078 0.05539 0.0
C675 C 0.5338 0.02055 0.06306 0.0
N676 N 0.53623 0.09033 0.04028 0.0
N677 N 0.48113 0.93503 1.00975 0.0
C678 C 0.51942 0.05292 0.03701 0.0
C679 C 0.4911 0.97343 0.02159 0.0
N680 N 0.46821 0.07762 0.9881 0.0
N681 N 0.5327 0.94996 0.08059 0.0
H682 H 0.46095 0.92909 0.9851 0.0
H683 H 0.49467 0.90919 0.02192 0.0
H684 H 0.55566 0.95379 0.10292 0.0
H685 H 0.52032 0.92107 0.0806 0.0
H686 H 0.47282 0.10774 0.9963 0.0
H687 H 0.44485 0.07344 0.96629 0.0
H688 H 0.53114 0.11357 1.01853 0.0
H689 H 0.55713 0.09775 0.0634 0.0
C690 C 0.4678 0.45955 1.01824 0.0
C691 C 0.49663 0.4607 0.98481 0.0
C692 C 0.52776 0.52065 1.01818 0.0
C693 C 0.49741 0.52104 0.05012 0.0
N694 N 0.43269 0.49625 0.07377 0.0
N695 N 0.54988 0.49585 0.94873 0.0
C696 C 0.46572 0.49201 0.04822 0.0
C697 C 0.52533 0.49248 0.98358 0.0
N698 N 0.44359 0.42644 0.02266 0.0
N699 N 0.5597 0.54639 0.02188 0.0
H700 H 0.54792 0.47599 0.9229 0.0
H701 H 0.56942 0.51999 0.94365 0.0
H702 H 0.56238 0.56678 0.04714 0.0
H703 H 0.58493 0.54533 1.00217 0.0
H704 H 0.42518 0.42161 0.04918 0.0
H705 H 0.44442 0.40213 1.00154 0.0
H706 H 0.40689 0.4786 0.07057 0.0
H707 H 0.42925 0.52002 0.09516 0.0
C708 C 0.01653 0.46484 0.97329 0.0
C709 C 0.0259 0.50336 0.95656 0.0
C710 C 0.97758 0.53432 1.00671 0.0
C711 C 0.9675 0.49559 0.02312 0.0
N712 N 0.97264 0.4231 1.01658 0.0
N713 N 0.01142 0.57418 0.95191 0.0
C714 C 0.98542 0.46057 1.00459 0.0
C715 C 0.00517 0.53795 0.97172 0.0
N716 N 0.03867 0.43243 0.9602 0.0
N717 N 0.96081 0.5677 0.02504 0.0
H718 H 0.03146 0.57761 0.92653 0.0
H719 H 0.99499 0.60015 0.95835 0.0
H720 H 0.93838 0.5658 0.04832 0.0
H721 H 0.97006 0.59713 1.01865 0.0
H722 H 0.03726 0.40408 0.97451 0.0
H723 H 0.06059 0.43471 0.93637 0.0
H724 H 0.98056 0.39674 1.00063 0.0
H725 H 0.95221 0.41828 0.0411 0.0
C726 C 0.03037 0.04619 0.02709 0.0
C727 C 0.00145 0.04478 0.99388 0.0
C728 C 0.97274 0.98278 0.02575 0.0
C729 C 0.00277 0.98317 0.05795 0.0
N730 N 0.06509 0.01124 0.08422 0.0
N731 N 0.94839 0.00917 0.95788 0.0
C732 C 0.03288 0.01392 0.05735 0.0
C733 C 0.97372 0.01211 0.99205 0.0
N734 N 0.05528 0.07895 0.02984 0.0
N735 N 0.94235 0.95507 0.02856 0.0
H736 H 0.94811 0.03039 0.93328 0.0
H737 H 0.92979 0.98446 0.95216 0.0
H738 H 0.94088 0.93374 0.0531 0.0
H739 H 0.91716 0.955 1.00887 0.0
H740 H 0.07359 0.08491 0.05607 0.0
H741 H 0.056 0.10151 1.00653 0.0
H742 H 0.09016 0.03004 0.08233 0.0
H743 H 0.06877 0.98784 0.10602 0.0
C744 C 0.49663 0.51848 0.53006 0.0
C745 C 0.46096 0.49476 0.52697 0.0
C746 C 0.48639 0.46483 0.46016 0.0
C747 C 0.52046 0.49083 0.46148 0.0
N748 N 0.55561 0.546 0.49407 0.0
N749 N 0.41967 0.44863 0.48731 0.0
C750 C 0.52492 0.51851 0.49565 0.0
C751 C 0.4552 0.46904 0.4913 0.0
N752 N 0.50331 0.54136 0.5657 0.0
N753 N 0.48491 0.43459 0.43058 0.0
H754 H 0.39739 0.44933 0.51084 0.0
H755 H 0.4113 0.43301 0.45982 0.0
H756 H 0.50733 0.4303 0.40781 0.0
H757 H 0.46327 0.41181 0.43069 0.0
H758 H 0.53066 0.55526 0.5725 0.0
H759 H 0.48184 0.54558 0.58952 0.0
H760 H 0.55906 0.56961 0.5157 0.0
H761 H 0.57601 0.54718 0.4687 0.0
C762 C 0.97064 0.51178 0.55699 0.0
C763 C 0.99077 0.47473 0.5495 0.0
C764 C 0.014 0.50065 0.47973 0.0
C765 C 0.99131 0.53668 0.48573 0.0
N766 N 0.94397 0.57433 0.52756 0.0
N767 N 0.02496 0.43086 0.5003 0.0
C768 C 0.96858 0.5416 0.52385 0.0
C769 C 0.0106 0.46836 0.50987 0.0
N770 N 0.95399 0.51847 0.59628 0.0
N771 N 0.04074 0.4981 0.44663 0.0
H772 H 0.02326 0.40669 0.52159 0.0
H773 H 0.03543 0.42283 0.47007 0.0
H774 H 0.046 0.52168 0.42529 0.0
H775 H 0.06115 0.47453 0.44323 0.0
H776 H 0.94179 0.54595 0.60573 0.0
H777 H 0.95517 0.49707 0.62077 0.0
H778 H 0.92365 0.57836 0.55253 0.0
H779 H 0.94161 0.59608 0.50354 0.0
C780 C 0.9712 0.97849 0.53592 0.0
C781 C 0.97487 1.00044 0.49714 0.0
C782 C 0.04035 0.02657 0.52155 0.0
C783 C 0.03782 0.00298 0.55931 0.0
N784 N 0.00597 0.9468 0.59518 0.0
N785 N 0.01836 0.03715 0.44868 0.0
C786 C 0.00457 0.97624 0.56468 0.0
C787 C 0.01137 0.02146 0.48839 0.0
N788 N 0.9358 0.95943 0.54508 0.0
N789 N 0.06962 0.05542 0.51826 0.0
H790 H 0.99712 0.03695 0.42431 0.0
H791 H 0.04624 0.04854 0.43925 0.0
H792 H 0.09014 0.0611 0.54275 0.0
H793 H 0.07092 0.07638 0.49343 0.0
H794 H 0.92955 0.94653 0.57477 0.0
H795 H 0.91185 0.95865 0.52354 0.0
H796 H 0.98446 0.924 0.59779 0.0
H797 H 0.03085 0.94236 0.61478 0.0
C798 C 0.51791 0.96598 0.5158 0.0
C799 C 0.47956 0.95473 0.49993 0.0
C800 C 0.44842 0.00736 0.54486 0.0
C801 C 0.48665 0.01814 0.561 0.0
N802 N 0.55608 1.00089 0.57089 0.0
N803 N 0.40755 0.95789 0.50783 0.0
C804 C 0.52095 0.99532 0.54916 0.0
C805 C 0.44453 0.97331 0.51713 0.0
N806 N 0.55147 0.94881 0.49856 0.0
N807 N 0.41595 0.03055 0.55515 0.0
H808 H 0.40346 0.93365 0.48721 0.0
H809 H 0.38139 0.96668 0.52358 0.0
H810 H 0.41802 0.05496 0.57614 0.0
H811 H 0.38783 0.02723 0.54095 0.0
H812 H 0.58056 0.95875 0.5051 0.0
H813 H 0.54994 0.92592 0.47569 0.0
H814 H 0.58133 0.98279 0.5668 0.0
H815 H 0.55895 0.0221 0.59535 0.0
C816 C 0.4973 0.18319 0.08289 0.0
C817 C 0.51647 0.21987 0.07062 0.0
C818 C 0.56405 0.21173 0.12995 0.0
C819 C 0.55178 0.17137 0.13409 0.0
N820 N 0.50134 0.1209 0.1247 0.0
N821 N 0.57041 0.26858 0.08252 0.0
C822 C 0.51606 0.15809 0.11419 0.0
C823 C 0.54977 0.23476 0.09496 0.0
N824 N 0.46193 0.17237 0.06388 0.0
N825 N 0.59087 0.22715 0.15862 0.0
H826 H 0.56274 0.28634 0.05642 0.0
H827 H 0.59767 0.27732 0.09609 0.0
H828 H 0.60149 0.20986 0.18415 0.0
H829 H 0.59901 0.25753 0.15966 0.0
H830 H 0.44559 0.14656 0.07163 0.0
H831 H 0.4477 0.19078 0.04146 0.0
H832 H 0.47699 0.10704 0.10984 0.0
H833 H 0.51433 0.10395 0.14918 0.0
C834 C 0.33053 0.56217 0.99168 0.0
C835 C 0.30174 0.53602 1.01079 0.0
C836 C 0.33795 0.54329 0.07922 0.0
C837 C 0.36664 0.56853 0.05838 0.0
N838 N 0.40123 0.57544 0.99042 0.0
N839 N 0.28723 0.49097 0.06969 0.0
C840 C 0.36679 0.56899 1.01314 0.0
C841 C 0.30814 0.52319 0.05383 0.0
N842 N 0.32277 0.58348 0.95523 0.0
N843 N 0.33941 0.5375 0.12234 0.0
H844 H 0.26731 0.47424 0.05095 0.0
H845 H 0.29288 0.47831 0.09959 0.0
H846 H 0.36408 0.54576 0.14083 0.0
H847 H 0.31605 0.52403 0.1395 0.0
H848 H 0.34344 0.60412 0.94264 0.0
H849 H 0.2944 0.58528 0.94137 0.0
H850 H 0.40173 0.57466 0.95703 0.0
H851 H 0.42942 0.57532 1.00495 0.0
C852 C 0.00856 0.33938 0.0768 0.0
C853 C 0.98989 0.3011 0.0712 0.0
C854 C 0.94366 0.31663 0.12992 0.0
C855 C 0.95449 0.35738 0.12625 0.0
N856 N 0.00365 0.40691 0.10798 0.0
N857 N 0.93846 0.25289 0.09352 0.0
C858 C 0.9898 0.3683 0.10406 0.0
C859 C 0.95801 0.28889 0.09911 0.0
N860 N 0.04295 0.34813 0.05469 0.0
N861 N 0.91766 0.30533 0.16149 0.0
H862 H 0.94661 0.23136 0.071 0.0
H863 H 0.91185 0.24543 0.10931 0.0
H864 H 0.90678 0.32625 0.18362 0.0
H865 H 0.91071 0.27531 0.16821 0.0
H866 H 0.05857 0.37527 0.05709 0.0
H867 H 0.05696 0.32686 0.0351 0.0
H868 H 0.02798 0.41875 0.09116 0.0
H869 H 0.98999 0.42714 0.12907 0.0
C870 C 0.19532 0.99379 0.07645 0.0
C871 C 0.20222 0.9872 0.03206 0.0
C872 C 0.13706 0.95379 0.0283 0.0
C873 C 0.13753 0.94762 0.07308 0.0
N874 N 0.16076 0.97267 0.1413 0.0
N875 N 0.17915 0.95467 0.96641 0.0
C876 C 0.16452 0.97128 0.0979 0.0
C877 C 0.17261 0.96633 1.00775 0.0
N878 N 0.21824 0.02158 0.09762 0.0
N879 N 0.10272 0.94805 1.00531 0.0
H880 H 0.20578 0.95939 0.94982 0.0
H881 H 0.15913 0.93598 0.95 0.0
H882 H 0.07519 0.94249 0.02008 0.0
H883 H 0.10081 0.95474 0.97276 0.0
H884 H 0.21325 0.03014 0.12921 0.0
H885 H 0.24016 0.03875 0.08195 0.0
H886 H 0.18287 0.98426 0.16142 0.0
H887 H 0.1348 0.96326 0.15712 0.0
C888 C 0.59767 0.32023 0.47933 0.0
C889 C 0.58241 0.33963 0.44246 0.0
C890 C 0.5187 0.30275 0.45349 0.0
C891 C 0.53287 0.28887 0.49386 0.0
N892 N 0.58308 0.29579 0.54972 0.0
N893 N 0.52615 0.35113 0.39531 0.0
C894 C 0.57117 0.30166 0.50841 0.0
C895 C 0.54219 0.33138 0.42952 0.0
N896 N 0.63816 0.3172 0.48534 0.0
N897 N 0.48309 0.2883 0.43807 0.0
H898 H 0.54255 0.3714 0.37669 0.0
H899 H 0.49589 0.34931 0.387 0.0
H900 H 0.46449 0.26933 0.45606 0.0
H901 H 0.47306 0.29356 0.40703 0.0
H902 H 0.65099 0.30101 0.51042 0.0
H903 H 0.65844 0.32566 0.46166 0.0
H904 H 0.60951 0.30833 0.56185 0.0
H905 H 0.56528 0.28241 0.57307 0.0
C906 C 0.13591 0.55541 0.48401 0.0
C907 C 0.13662 0.5674 0.44053 0.0
C908 C 0.20446 0.53876 0.43509 0.0
C909 C 0.20713 0.53899 0.48052 0.0
N910 N 0.17444 0.5531 0.54857 0.0
N911 N 0.16901 0.56176 0.37164 0.0
C912 C 0.17238 0.54768 0.50525 0.0
C913 C 0.16986 0.55574 0.41478 0.0
N914 N 0.10036 0.55324 0.50557 0.0
N915 N 0.23517 0.52252 0.41178 0.0
H916 H 0.14275 0.56873 0.35523 0.0
H917 H 0.19425 0.55948 0.35207 0.0
H918 H 0.26027 0.50958 0.42633 0.0
H919 H 0.23429 0.51866 0.37876 0.0
H920 H 0.09775 0.54132 0.53634 0.0
H921 H 0.07326 0.5591 0.49046 0.0
H922 H 0.15034 0.56393 0.56656 0.0
H923 H 0.20074 0.55127 0.56632 0.0
C924 C 0.93644 0.19491 0.42489 0.0
C925 C 0.9439 0.15546 0.43963 0.0
C926 C 0.99488 0.18353 0.48756 0.0
C927 C 0.97713 0.2221 0.48366 0.0
N928 N 0.92457 0.26236 0.44944 0.0
N929 N 0.98033 0.1125 0.4879 0.0
C930 C 0.94691 0.22787 0.45165 0.0
C931 C 0.97395 0.14973 0.47113 0.0
N932 N 0.91729 0.20093 0.38699 0.0
N933 N 0.03037 0.17905 0.50884 0.0
H934 H 0.96543 0.08738 0.47604 0.0
H935 H 0.998 0.10761 0.51492 0.0
H936 H 0.04628 0.20383 0.52078 0.0
H937 H 0.04545 0.15154 0.51059 0.0
H938 H 0.91415 0.22963 0.3737 0.0
H939 H 0.90954 0.17709 0.36684 0.0
H940 H 0.90002 0.26521 0.42894 0.0
H941 H 0.92677 0.28623 0.47079 0.0
C942 C 0.29512 0.89074 0.4336 0.0
C943 C 0.33401 0.90508 0.42307 0.0
C944 C 0.31847 0.97086 0.4545 0.0
C945 C 0.28193 0.95448 0.47008 0.0
N946 N 0.22841 0.90615 0.46011 0.0
N947 N 0.37715 0.96167 0.40872 0.0
C948 C 0.26773 0.91694 0.45435 0.0
C949 C 0.34352 0.9465 0.42802 0.0
N950 N 0.28543 0.85133 0.42602 0.0
N951 N 0.3298 0.00871 0.46692 0.0
H952 H 0.39513 0.94388 0.38896 0.0
H953 H 0.38531 0.99201 0.4094 0.0
H954 H 0.31095 0.0271 0.48515 0.0
H955 H 0.3578 0.02136 0.46027 0.0
H956 H 0.25974 0.83717 0.43789 0.0
H957 H 0.30427 0.83246 0.4086 0.0
H958 H 0.21547 0.88052 0.44657 0.0
H959 H 0.20763 0.92489 0.47512 0.0
C960 C 0.47222 0.81565 0.97583 0.0
C961 C 0.45489 0.79701 1.01257 0.0
C962 C 0.3908 0.82889 0.99634 0.0
C963 C 0.40897 0.85212 0.96353 0.0
N964 N 0.46867 0.87036 0.92399 0.0
N965 N 0.39917 0.79479 0.06309 0.0
C966 C 0.45018 0.8461 0.9534 0.0
C967 C 0.41487 0.80657 0.02461 0.0
N968 N 0.50961 0.80424 0.96251 0.0
N969 N 0.34989 0.8268 0.99968 0.0
H970 H 0.41378 0.77683 0.0853 0.0
H971 H 0.37213 0.80622 0.07479 0.0
H972 H 0.33097 0.84102 0.97813 0.0
H973 H 0.33496 0.80693 0.0202 0.0
H974 H 0.52217 0.81327 0.93349 0.0
H975 H 0.52728 0.78399 0.97979 0.0
H976 H 0.4996 0.8704 0.91871 0.0
H977 H 0.45342 0.89253 0.90688 0.0
C978 C 0.70072 0.3849 0.03288 0.0
C979 C 0.71796 0.41743 1.00985 0.0
C980 C 0.66062 0.41709 0.96106 0.0
C981 C 0.64729 0.3799 0.97929 0.0
N982 N 0.65978 0.32551 0.03016 0.0
N983 N 0.71638 0.4636 0.95055 0.0
C984 C 0.6683 0.36325 1.01491 0.0
C985 C 0.69843 0.43346 0.97357 0.0
N986 N 0.71553 0.37434 0.07212 0.0
N987 N 0.63651 0.43768 0.9333 0.0
H988 H 0.74344 0.47697 0.95987 0.0
H989 H 0.70581 0.47338 0.92097 0.0
H990 H 0.60773 0.42797 0.9251 0.0
H991 H 0.64315 0.4666 0.92218 0.0
H992 H 0.70088 0.35432 0.09269 0.0
H993 H 0.74041 0.38821 0.08594 0.0
H994 H 0.67844 0.31011 0.05133 0.0
H995 H 0.63638 0.30759 0.01962 0.0
C996 C 0.0795 0.68215 0.02484 0.0
C997 C 0.05279 0.71024 1.00595 0.0
C998 C 0.05687 0.67128 0.93885 0.0
C999 C 0.08215 0.64287 0.9598 0.0
N1000 N 0.0914 0.61118 0.02912 0.0
N1001 N 0.00637 0.72357 0.94826 0.0
C1002 C 0.08488 0.64478 1.00491 0.0
C1003 C 0.03848 0.70257 0.96371 0.0
N1004 N 0.10209 0.69145 0.05993 0.0
N1005 N 0.04919 0.66791 0.8962 0.0
H1006 H 0.99084 0.74465 0.96669 0.0
H1007 H 0.99263 0.71704 0.91915 0.0
H1008 H 0.05597 0.64208 0.87871 0.0
H1009 H 0.03567 0.69079 0.87847 0.0
H1010 H 0.12306 0.67127 0.07248 0.0
H1011 H 0.10411 0.72052 0.07248 0.0
H1012 H 0.09235 0.61237 0.06248 0.0
H1013 H 0.08931 0.58214 1.01638 0.0
C1014 C 0.81181 0.1198 0.06532 0.0
C1015 C 0.79183 0.08771 0.04444 0.0
C1016 C 0.84415 0.08739 0.98934 0.0
C1017 C 0.85906 0.12489 1.00513 0.0
N1018 N 0.8506 0.1801 0.05614 0.0
N1019 N 0.78741 0.04118 0.98571 0.0
C1020 C 0.84172 0.14175 0.043 0.0
C1021 C 0.80766 0.07135 1.00626 0.0
N1022 N 0.8013 0.13037 0.10613 0.0
N1023 N 0.86546 0.06637 0.95941 0.0
H1024 H 0.76164 0.02773 0.99853 0.0
H1025 H 0.79495 0.0312 0.95514 0.0
H1026 H 0.89344 0.07589 0.94821 0.0
H1027 H 0.85766 0.03738 0.94947 0.0
H1028 H 0.81804 0.15058 0.12449 0.0
H1029 H 0.77842 0.11612 0.12328 0.0
H1030 H 0.83451 0.195 0.07999 0.0
H1031 H 0.87065 0.19925 0.04104 0.0
C1032 C 0.46823 0.71178 0.59775 0.0
C1033 C 0.48258 0.71022 0.55504 0.0
C1034 C 0.46047 0.64099 0.54859 0.0
C1035 C 0.43795 0.64468 0.58737 0.0
N1036 N 0.4351 0.67716 0.65688 0.0
N1037 N 0.51966 0.66422 0.51109 0.0
C1038 C 0.447 0.67777 0.61508 0.0
C1039 C 0.48751 0.67192 0.53679 0.0
N1040 N 0.47334 0.74676 0.62012 0.0
N1041 N 0.4561 0.60842 0.52253 0.0
H1042 H 0.54362 0.68446 0.5089 0.0
H1043 H 0.5256 0.63572 0.49847 0.0
H1044 H 0.44006 0.58305 0.53157 0.0
H1045 H 0.46816 0.60724 0.49173 0.0
H1046 H 0.4606 0.75259 0.64987 0.0
H1047 H 0.4902 0.77059 0.60735 0.0
H1048 H 0.44163 0.69994 0.67867 0.0
H1049 H 0.42201 0.65209 0.67128 0.0
C1050 C 0.80468 0.46428 0.55047 0.0
C1051 C 0.79206 0.44889 0.51022 0.0
C1052 C 0.82342 0.38463 0.52688 0.0
C1053 C 0.84046 0.40081 0.56462 0.0
N1054 N 0.8533 0.45998 0.60805 0.0
N1055 N 0.80371 0.39869 0.45489 0.0
C1056 C 0.83277 0.44181 0.57553 0.0
C1057 C 0.80616 0.41066 0.49659 0.0
N1058 N 0.78985 0.50023 0.56466 0.0
N1059 N 0.82236 0.3439 0.52039 0.0
H1060 H 0.79223 0.41632 0.43037 0.0
H1061 H 0.81757 0.37247 0.44381 0.0
H1062 H 0.83178 0.3235 0.54351 0.0
H1063 H 0.80739 0.33057 0.49474 0.0
H1064 H 0.79433 0.51085 0.59566 0.0
H1065 H 0.77141 0.5184 0.54576 0.0
H1066 H 0.85185 0.49088 0.61406 0.0
H1067 H 0.87428 0.44503 0.6269 0.0
C1068 C 0.04042 0.81305 0.56816 0.0
C1069 C 0.04945 0.8047 0.52458 0.0
C1070 C 0.08359 0.86955 0.5197 0.0
C1071 C 0.08544 0.8722 0.5649 0.0
N1072 N 0.05602 0.85145 0.63225 0.0
N1073 N 0.08736 0.82338 0.46098 0.0
C1074 C 0.06072 0.84556 0.58936 0.0
C1075 C 0.07278 0.83264 0.50068 0.0
N1076 N 0.0119 0.79044 0.58871 0.0
N1077 N 0.0907 0.90251 0.49468 0.0
H1078 H 0.08353 0.7954 0.44641 0.0
H1079 H 0.10743 0.84221 0.44472 0.0
H1080 H 0.0933 0.93129 0.50757 0.0
H1081 H 0.08738 0.902 0.4615 0.0
H1082 H 0.00134 0.79668 0.61935 0.0
H1083 H 0.99619 0.76726 0.57343 0.0
H1084 H 0.04395 0.82983 0.6528 0.0
H1085 H 0.06311 0.87863 0.64714 0.0
C1086 C 0.66796 0.06319 0.60585 0.0
C1087 C 0.63576 0.07471 0.57858 0.0
C1088 C 0.67653 0.0604 0.51554 0.0
C1089 C 0.71002 0.05177 0.54208 0.0
N1090 N 0.73449 0.03297 0.61165 0.0
N1091 N 0.6044 0.06092 0.51039 0.0
C1092 C 0.70469 0.04928 0.58715 0.0
C1093 C 0.63836 0.06514 0.53446 0.0
N1094 N 0.66372 0.06554 0.64917 0.0
N1095 N 0.68116 0.06776 0.47278 0.0
H1096 H 0.57569 0.06262 0.52356 0.0
H1097 H 0.60495 0.05071 0.47884 0.0
H1098 H 0.70877 0.06778 0.45719 0.0
H1099 H 0.65782 0.07831 0.45359 0.0
H1100 H 0.68775 0.06414 0.67041 0.0
H1101 H 0.63575 0.06772 0.66398 0.0
H1102 H 0.73169 0.02731 0.64427 0.0
H1103 H 0.76103 0.02179 0.59837 0.0
C1104 C 0.74592 0.30452 0.21606 0.0
C1105 C 0.78694 0.29638 0.20896 0.0
C1106 C 0.77366 0.22392 0.21303 0.0
C1107 C 0.73215 0.23243 0.2086 0.0
N1108 N 0.67841 0.27971 0.22072 0.0
N1109 N 0.84124 0.25152 0.22216 0.0
C1110 C 0.71832 0.27208 0.21655 0.0
C1111 C 0.80112 0.25685 0.21596 0.0
N1112 N 0.73288 0.34333 0.21888 0.0
N1113 N 0.78678 0.18507 0.21026 0.0
H1114 H 0.8605 0.27642 0.22407 0.0
H1115 H 0.85438 0.22381 0.22911 0.0
H1116 H 0.76697 0.16071 0.20888 0.0
H1117 H 0.81697 0.17701 0.20884 0.0
H1118 H 0.70252 0.35057 0.22244 0.0
H1119 H 0.7529 0.3676 0.21951 0.0
H1120 H 0.65673 0.25682 0.22098 0.0
H1121 H 0.65673 0.25682 0.22098 0.0
C1122 C 0.25268 0.79632 0.14254 0.0
C1123 C 0.21767 0.77231 0.13742 0.0
C1124 C 0.25843 0.71118 0.13598 0.0
C1125 C 0.29358 0.73528 0.13563 0.0
N1126 N 0.3256 0.79834 0.1507 0.0
N1127 N 0.18615 0.70706 0.13755 0.0
C1128 C 0.291 0.77718 0.1436 0.0
C1129 C 0.22039 0.72979 0.1381 0.0
N1130 N 0.24919 0.83736 0.14274 0.0
N1131 N 0.26039 0.67039 0.13175 0.0
H1132 H 0.15765 0.72016 0.13922 0.0
H1133 H 0.18666 0.67555 0.13671 0.0
H1134 H 0.28739 0.65451 0.12957 0.0
H1135 H 0.28739 0.65451 0.12957 0.0
H1136 H 0.27353 0.85715 0.14193 0.0
H1137 H 0.22131 0.85168 0.14254 0.0
H1138 H 0.32649 0.82872 0.15904 0.0
H1139 H 0.35357 0.78409 0.15129 0.0
C1140 C 0.71421 0.2542 0.36307 0.0
C1141 C 0.73848 0.28915 0.35822 0.0
C1142 C 0.79705 0.2474 0.3446 0.0
C1143 C 0.77542 0.21398 0.36029 0.0
N1144 N 0.71234 0.1806 0.36806 0.0
N1145 N 0.80002 0.31915 0.33353 0.0
C1146 C 0.73317 0.21575 0.36276 0.0
C1147 C 0.77861 0.28554 0.34414 0.0
N1148 N 0.67422 0.25832 0.37176 0.0
N1149 N 0.83619 0.24379 0.33308 0.0
H1150 H 0.7866 0.34754 0.33303 0.0
H1151 H 0.83021 0.31799 0.32436 0.0
H1152 H 0.8508 0.21593 0.33227 0.0
H1153 H 0.8508 0.21593 0.33227 0.0
H1154 H 0.65502 0.23437 0.37882 0.0
H1155 H 0.66009 0.28635 0.37178 0.0
H1156 H 0.68114 0.17858 0.3694 0.0
H1157 H 0.72715 0.15284 0.36832 0.0
C1158 C 0.28475 0.6978 0.35004 0.0
C1159 C 0.29362 0.7394 0.34978 0.0
C1160 C 0.22205 0.75435 0.34514 0.0
C1161 C 0.21418 0.71476 0.35993 0.0
N1162 N 0.23655 0.64653 0.37132 0.0
N1163 N 0.27222 0.80628 0.33113 0.0
C1164 C 0.24483 0.6852 0.35904 0.0
C1165 C 0.26262 0.76727 0.34067 0.0
N1166 N 0.31575 0.67122 0.34655 0.0
N1167 N 0.19042 0.77966 0.33815 0.0
H1168 H 0.30164 0.81524 0.32486 0.0
H1169 H 0.25141 0.82948 0.32827 0.0
H1170 H 0.16076 0.77008 0.34253 0.0
H1171 H 0.19305 0.80882 0.32613 0.0
H1172 H 0.31193 0.64006 0.3447 0.0
H1173 H 0.34523 0.68146 0.34202 0.0
H1174 H 0.25843 0.62452 0.37574 0.0
H1175 H 0.20757 0.63683 0.3787 0.0
C1176 C 0.22235 0.7881 0.8858 0.0
C1177 C 0.26262 0.79871 0.89532 0.0
C1178 C 0.28057 0.72701 0.89418 0.0
C1179 C 0.23938 0.71664 0.89404 0.0
N1180 N 0.16997 0.73749 0.89187 0.0
N1181 N 0.33183 0.7758 0.90487 0.0
C1182 C 0.20984 0.74712 0.88923 0.0
C1183 C 0.29233 0.7679 0.8975 0.0
N1184 N 0.19606 0.81774 0.87438 0.0
N1185 N 0.30882 0.69721 0.89401 0.0
H1186 H 0.34406 0.80462 0.90868 0.0
H1187 H 0.34406 0.80462 0.90868 0.0
H1188 H 0.30104 0.66672 0.89099 0.0
H1189 H 0.33961 0.70321 0.89513 0.0
H1190 H 0.16698 0.81203 0.86376 0.0
H1191 H 0.20516 0.8479 0.87154 0.0
H1192 H 0.14726 0.75898 0.89372 0.0
H1193 H 0.15951 0.70796 0.89525 0.0
C1194 C 0.7672 0.21305 0.92549 0.0
C1195 C 0.79067 0.24899 0.92621 0.0
C1196 C 0.72978 0.28908 0.91591 0.0
C1197 C 0.70632 0.25291 0.91548 0.0
N1198 N 0.7039 0.18057 0.91106 0.0
N1199 N 0.7961 0.31941 0.90959 0.0
C1200 C 0.72581 0.21512 0.91622 0.0
C1201 C 0.77241 0.28641 0.91714 0.0
N1202 N 0.78258 0.17644 0.93607 0.0
N1203 N 0.71182 0.32591 0.91853 0.0
H1204 H 0.82745 0.31789 0.91001 0.0
H1205 H 0.78493 0.34695 0.89881 0.0
H1206 H 0.68109 0.32997 0.91645 0.0
H1207 H 0.72743 0.35245 0.92532 0.0
H1208 H 0.81197 0.17186 0.94628 0.0
H1209 H 0.81197 0.17186 0.94628 0.0
H1210 H 0.71683 0.15191 0.91238 0.0
H1211 H 0.67334 0.18112 0.90344 0.0
C1212 C 0.31458 0.7567 0.64281 0.0
C1213 C 0.28912 0.72455 0.65548 0.0
C1214 C 0.23441 0.77129 0.6701 0.0
C1215 C 0.25745 0.80211 0.65034 0.0
N1216 N 0.32225 0.82938 0.63386 0.0
N1217 N 0.23332 0.70247 0.69752 0.0
C1218 C 0.29897 0.79653 0.64309 0.0
C1219 C 0.25224 0.73285 0.67591 0.0
N1220 N 0.35186 0.74866 0.62681 0.0
N1221 N 0.19477 0.77752 0.67919 0.0
H1222 H 0.24642 0.67394 0.70027 0.0
H1223 H 0.20715 0.70647 0.71534 0.0
H1224 H 0.18096 0.80543 0.67528 0.0
H1225 H 0.17525 0.75475 0.68916 0.0
H1226 H 0.37038 0.77037 0.61294 0.0
H1227 H 0.36408 0.71979 0.62696 0.0
H1228 H 0.35336 0.82833 0.6303 0.0
H1229 H 0.31016 0.85845 0.63337 0.0
C1230 C 0.77348 0.21285 0.63587 0.0
C1231 C 0.78422 0.25363 0.62796 0.0
C1232 C 0.71287 0.27174 0.62764 0.0
C1233 C 0.70242 0.23042 0.62736 0.0
N1234 N 0.72244 0.1607 0.62951 0.0
N1235 N 0.76188 0.32298 0.6171 0.0
C1236 C 0.73256 0.2006 0.6321 0.0
C1237 C 0.75363 0.28342 0.62502 0.0
N1238 N 0.80283 0.18598 0.64659 0.0
N1239 N 0.68326 0.30016 0.62724 0.0
H1240 H 0.79062 0.33478 0.61267 0.0
H1241 H 0.79062 0.33478 0.61267 0.0
H1242 H 0.65288 0.2924 0.62963 0.0
H1243 H 0.68938 0.3311 0.62633 0.0
H1244 H 0.797 0.15637 0.65603 0.0
H1245 H 0.83285 0.19474 0.64989 0.0
H1246 H 0.74345 0.13752 0.62769 0.0
H1247 H 0.69282 0.15082 0.62672 0.0
loop_
_geom_bond_atom_site_label_1
_geom_bond_atom_site_label_2
_geom_bond_distance
_geom_bond_site_symmetry_2
_ccdc_geom_bond_type
Co0 N4 2.148 . S
Co0 N10 2.128 . S
Co0 N20 2.194 . S
Co0 O25 2.351 . S
Co0 O26 2.155 . S
Co0 O27 2.096 . S
C1 N4 1.301 . S
C1 N5 1.340 . S
C1 H6 0.930 . S
C2 C3 1.333 1_545 S
C2 N4 1.317 . S
C2 H7 0.930 . S
C3 C2 1.333 1_565 S
C3 N5 1.348 1_565 S
C3 H29 0.931 . S
N4 Co0 2.148 . S
N4 C1 1.301 . S
N4 C2 1.317 . S
N5 C1 1.340 . S
N5 C3 1.348 1_545 S
H6 C1 0.930 . S
H7 C2 0.930 . S
C8 O9 1.224 . S
C8 O27 1.247 . S
O9 C8 1.224 . S
N10 Co0 2.128 . S
N10 C11 1.355 . S
N10 C13 1.311 . S
C11 N10 1.355 . S
C11 C12 1.363 . S
C11 H23 0.929 . S
C12 C11 1.363 . S
C12 N14 1.375 . S
C12 H30 0.931 . S
C13 N10 1.311 . S
C13 N14 1.347 . S
C13 H24 0.929 . S
N14 C12 1.375 . S
N14 C13 1.347 . S
C15 C18 1.365 . S
C15 N20 1.328 . S
C15 H21 0.929 . S
C16 C17 1.362 . S
C16 C19 1.378 . S
C16 H31 0.929 . S
C17 C16 1.362 . S
C17 C18 1.366 . S
C18 C15 1.365 . S
C18 C17 1.366 . S
C18 H32 0.930 1_554 S
C19 C16 1.378 . S
C19 N20 1.315 . S
C19 H22 0.930 . S
N20 Co0 2.194 . S
N20 C15 1.328 . S
N20 C19 1.315 . S
H21 C15 0.929 . S
H22 C19 0.930 . S
H23 C11 0.929 . S
H24 C13 0.929 . S
O25 Co0 2.351 . S
O25 C28 1.244 . S
O26 Co0 2.155 . S
O26 C28 1.240 . S
O27 Co0 2.096 . S
O27 C8 1.247 . S
C28 O25 1.244 . S
C28 O26 1.240 . S
H29 C3 0.931 . S
H30 C12 0.931 . S
H31 C16 0.929 . S
H32 C18 0.930 1_556 S
Co33 N37 2.148 . S
Co33 N43 2.128 . S
Co33 N53 2.194 . S
Co33 O58 2.351 . S
Co33 O59 2.155 . S
Co33 O60 2.096 . S
C34 N37 1.301 . S
C34 N38 1.328 . S
C34 H39 0.930 . S
C35 C36 1.333 . S
C35 N37 1.317 . S
C35 H40 0.930 . S
C36 C35 1.333 . S
C36 N38 1.350 . S
C36 H62 0.931 . S
N37 Co33 2.148 . S
N37 C34 1.301 . S
N37 C35 1.317 . S
N38 C34 1.328 . S
N38 C36 1.350 . S
H39 C34 0.930 . S
H40 C35 0.930 . S
C41 O42 1.224 . S
C41 O60 1.247 . S
O42 C41 1.224 . S
N43 Co33 2.128 . S
N43 C44 1.355 . S
N43 C46 1.311 . S
C44 N43 1.355 . S
C44 C45 1.363 . S
C44 H56 0.929 . S
C45 C44 1.363 . S
C45 N47 1.375 . S
C45 H63 0.931 . S
C46 N43 1.311 . S
C46 N47 1.347 . S
C46 H57 0.929 . S
N47 C45 1.375 . S
N47 C46 1.347 . S
C48 C51 1.365 . S
C48 N53 1.328 . S
C48 H54 0.929 . S
C49 C50 1.362 . S
C49 C52 1.378 . S
C49 H64 0.929 . S
C50 C49 1.362 . S
C50 C51 1.366 . S
C51 C48 1.365 . S
C51 C50 1.366 . S
C51 H65 0.930 1_554 S
C52 C49 1.378 . S
C52 N53 1.315 . S
C52 H55 0.930 . S
N53 Co33 2.194 . S
N53 C48 1.328 . S
N53 C52 1.315 . S
H54 C48 0.929 . S
H55 C52 0.930 . S
H56 C44 0.929 . S
H57 C46 0.929 . S
O58 Co33 2.351 . S
O58 C61 1.244 . S
O59 Co33 2.155 . S
O59 C61 1.240 . S
O60 Co33 2.096 . S
O60 C41 1.247 . S
C61 O58 1.244 . S
C61 O59 1.240 . S
H62 C36 0.931 . S
H63 C45 0.931 . S
H64 C49 0.929 . S
H65 C51 0.930 1_556 S
Co66 N70 2.148 . S
Co66 N76 2.128 . S
Co66 N86 2.194 . S
Co66 O91 2.351 . S
Co66 O92 2.155 . S
Co66 O93 2.096 . S
C67 N70 1.301 . S
C67 N71 1.328 . S
C67 H72 0.930 . S
C68 C69 1.333 . S
C68 N70 1.317 . S
C68 H73 0.930 . S
C69 C68 1.333 . S
C69 N71 1.350 . S
C69 H95 0.931 . S
N70 Co66 2.148 . S
N70 C67 1.301 . S
N70 C68 1.317 . S
N71 C67 1.328 . S
N71 C69 1.350 . S
H72 C67 0.930 . S
H73 C68 0.930 . S
C74 O75 1.224 . S
C74 O93 1.247 . S
O75 C74 1.224 . S
N76 Co66 2.128 . S
N76 C77 1.355 . S
N76 C79 1.311 . S
C77 N76 1.355 . S
C77 C78 1.363 . S
C77 H89 0.929 . S
C78 C77 1.363 . S
C78 N80 1.375 . S
C78 H96 0.931 . S
C79 N76 1.311 . S
C79 N80 1.347 . S
C79 H90 0.929 . S
N80 C78 1.375 . S
N80 C79 1.347 . S
C81 C84 1.365 . S
C81 N86 1.328 . S
C81 H87 0.929 . S
C82 C83 1.362 . S
C82 C85 1.378 . S
C82 H97 0.929 . S
C83 C82 1.362 . S
C83 C84 1.366 . S
C84 C81 1.365 . S
C84 C83 1.366 . S
C84 H98 0.930 1_554 S
C85 C82 1.378 . S
C85 N86 1.315 . S
C85 H88 0.930 . S
N86 Co66 2.194 . S
N86 C81 1.328 . S
N86 C85 1.315 . S
H87 C81 0.929 . S
H88 C85 0.930 . S
H89 C77 0.929 . S
H90 C79 0.929 . S
O91 Co66 2.351 . S
O91 C94 1.244 . S
O92 Co66 2.155 . S
O92 C94 1.240 . S
O93 Co66 2.096 . S
O93 C74 1.247 . S
C94 O91 1.244 . S
C94 O92 1.240 . S
H95 C69 0.931 . S
H96 C78 0.931 . S
H97 C82 0.929 . S
H98 C84 0.930 1_556 S
Co99 N103 2.148 . S
Co99 N109 2.128 . S
Co99 N119 2.194 . S
Co99 O124 2.351 . S
Co99 O125 2.155 . S
Co99 O126 2.096 . S
C100 N103 1.301 . S
C100 N104 1.340 . S
C100 H105 0.930 . S
C101 C102 1.333 1_455 S
C101 N103 1.317 . S
C101 H106 0.930 . S
C102 C101 1.333 1_655 S
C102 N104 1.348 1_655 S
C102 H128 0.931 . S
N103 Co99 2.148 . S
N103 C100 1.301 . S
N103 C101 1.317 . S
N104 C100 1.340 . S
N104 C102 1.348 1_455 S
H105 C100 0.930 . S
H106 C101 0.930 . S
C107 O108 1.224 . S
C107 O126 1.247 . S
O108 C107 1.224 . S
N109 Co99 2.128 . S
N109 C110 1.355 . S
N109 C112 1.311 . S
C110 N109 1.355 . S
C110 C111 1.363 . S
C110 H122 0.929 . S
C111 C110 1.363 . S
C111 N113 1.375 . S
C111 H129 0.931 . S
C112 N109 1.311 . S
C112 N113 1.347 . S
C112 H123 0.929 . S
N113 C111 1.375 . S
N113 C112 1.347 . S
C114 C117 1.365 . S
C114 N119 1.328 . S
C114 H120 0.929 . S
C115 C116 1.362 . S
C115 C118 1.378 . S
C115 H130 0.929 . S
C116 C115 1.362 . S
C116 C117 1.366 . S
C117 C114 1.365 . S
C117 C116 1.366 . S
C117 H131 0.930 1_554 S
C118 C115 1.378 . S
C118 N119 1.315 . S
C118 H121 0.930 . S
N119 Co99 2.194 . S
N119 C114 1.328 . S
N119 C118 1.315 . S
H120 C114 0.929 . S
H121 C118 0.930 . S
H122 C110 0.929 . S
H123 C112 0.929 . S
O124 Co99 2.351 . S
O124 C127 1.244 . S
O125 Co99 2.155 . S
O125 C127 1.240 . S
O126 Co99 2.096 . S
O126 C107 1.247 . S
C127 O124 1.244 . S
C127 O125 1.240 . S
H128 C102 0.931 . S
H129 C111 0.931 . S
H130 C115 0.929 . S
H131 C117 0.930 1_556 S
Co132 N136 2.148 . S
Co132 N142 2.128 . S
Co132 N152 2.194 . S
Co132 O157 2.351 . S
Co132 O158 2.155 . S
Co132 O159 2.096 . S
C133 N136 1.301 . S
C133 N137 1.328 . S
C133 H138 0.930 . S
C134 C135 1.333 . S
C134 N136 1.317 . S
C134 H139 0.930 . S
C135 C134 1.333 . S
C135 N137 1.350 . S
C135 H161 0.931 . S
N136 Co132 2.148 . S
N136 C133 1.301 . S
N136 C134 1.317 . S
N137 C133 1.328 . S
N137 C135 1.350 . S
H138 C133 0.930 . S
H139 C134 0.930 . S
C140 O141 1.224 . S
C140 O159 1.247 . S
O141 C140 1.224 . S
N142 Co132 2.128 . S
N142 C143 1.355 . S
N142 C145 1.311 . S
C143 N142 1.355 . S
C143 C144 1.363 . S
C143 H155 0.929 . S
C144 C143 1.363 . S
C144 N146 1.375 . S
C144 H162 0.931 . S
C145 N142 1.311 . S
C145 N146 1.347 . S
C145 H156 0.929 . S
N146 C144 1.375 . S
N146 C145 1.347 . S
C147 C150 1.365 . S
C147 N152 1.328 . S
C147 H153 0.929 . S
C148 C149 1.362 . S
C148 C151 1.378 . S
C148 H163 0.929 . S
C149 C148 1.362 . S
C149 C150 1.366 . S
C150 C147 1.365 . S
C150 C149 1.366 . S
C150 H164 0.930 . S
C151 C148 1.378 . S
C151 N152 1.315 . S
C151 H154 0.930 . S
N152 Co132 2.194 . S
N152 C147 1.328 . S
N152 C151 1.315 . S
H153 C147 0.929 . S
H154 C151 0.930 . S
H155 C143 0.929 . S
H156 C145 0.929 . S
O157 Co132 2.351 . S
O157 C160 1.244 . S
O158 Co132 2.155 . S
O158 C160 1.240 . S
O159 Co132 2.096 . S
O159 C140 1.247 . S
C160 O157 1.244 . S
C160 O158 1.240 . S
H161 C135 0.931 . S
H162 C144 0.931 . S
H163 C148 0.929 . S
H164 C150 0.930 . S
Co165 N169 2.148 . S
Co165 N175 2.128 . S
Co165 N185 2.194 . S
Co165 O190 2.351 . S
Co165 O191 2.155 . S
Co165 O192 2.096 . S
C166 N169 1.301 . S
C166 N170 1.340 . S
C166 H171 0.930 . S
C167 C168 1.333 1_455 S
C167 N169 1.317 . S
C167 H172 0.930 . S
C168 C167 1.333 1_655 S
C168 N170 1.348 1_655 S
C168 H194 0.931 . S
N169 Co165 2.148 . S
N169 C166 1.301 . S
N169 C167 1.317 . S
N170 C166 1.340 . S
N170 C168 1.348 1_455 S
H171 C166 0.930 . S
H172 C167 0.930 . S
C173 O174 1.224 . S
C173 O192 1.247 . S
O174 C173 1.224 . S
N175 Co165 2.128 . S
N175 C176 1.355 . S
N175 C178 1.311 . S
C176 N175 1.355 . S
C176 C177 1.363 . S
C176 H188 0.929 . S
C177 C176 1.363 . S
C177 N179 1.375 . S
C177 H195 0.931 . S
C178 N175 1.311 . S
C178 N179 1.347 . S
C178 H189 0.929 . S
N179 C177 1.375 . S
N179 C178 1.347 . S
C180 C183 1.365 . S
C180 N185 1.328 . S
C180 H186 0.929 . S
C181 C182 1.362 . S
C181 C184 1.378 . S
C181 H196 0.929 . S
C182 C181 1.362 . S
C182 C183 1.366 . S
C183 C180 1.365 . S
C183 C182 1.366 . S
C183 H197 0.930 . S
C184 C181 1.378 . S
C184 N185 1.315 . S
C184 H187 0.930 . S
N185 Co165 2.194 . S
N185 C180 1.328 . S
N185 C184 1.315 . S
H186 C180 0.929 . S
H187 C184 0.930 . S
H188 C176 0.929 . S
H189 C178 0.929 . S
O190 Co165 2.351 . S
O190 C193 1.244 . S
O191 Co165 2.155 . S
O191 C193 1.240 . S
O192 Co165 2.096 . S
O192 C173 1.247 . S
C193 O190 1.244 . S
C193 O191 1.240 . S
H194 C168 0.931 . S
H195 C177 0.931 . S
H196 C181 0.929 . S
H197 C183 0.930 . S
Co198 N202 2.148 . S
Co198 N208 2.128 . S
Co198 N218 2.194 . S
Co198 O223 2.351 . S
Co198 O224 2.155 . S
Co198 O225 2.096 . S
C199 N202 1.301 . S
C199 N203 1.340 . S
C199 H204 0.930 . S
C200 C201 1.333 1_545 S
C200 N202 1.317 . S
C200 H205 0.930 . S
C201 C200 1.333 1_565 S
C201 N203 1.348 1_565 S
C201 H227 0.931 . S
N202 Co198 2.148 . S
N202 C199 1.301 . S
N202 C200 1.317 . S
N203 C199 1.340 . S
N203 C201 1.348 1_545 S
H204 C199 0.930 . S
H205 C200 0.930 . S
C206 O207 1.224 . S
C206 O225 1.247 . S
O207 C206 1.224 . S
N208 Co198 2.128 . S
N208 C209 1.355 . S
N208 C211 1.311 . S
C209 N208 1.355 . S
C209 C210 1.363 . S
C209 H221 0.929 . S
C210 C209 1.363 . S
C210 N212 1.375 . S
C210 H228 0.931 . S
C211 N208 1.311 . S
C211 N212 1.347 . S
C211 H222 0.929 . S
N212 C210 1.375 . S
N212 C211 1.347 . S
C213 C216 1.365 . S
C213 N218 1.328 . S
C213 H219 0.929 . S
C214 C215 1.362 . S
C214 C217 1.378 . S
C214 H229 0.929 . S
C215 C214 1.362 . S
C215 C216 1.366 . S
C216 C213 1.365 . S
C216 C215 1.366 . S
C216 H230 0.930 . S
C217 C214 1.378 . S
C217 N218 1.315 . S
C217 H220 0.930 . S
N218 Co198 2.194 . S
N218 C213 1.328 . S
N218 C217 1.315 . S
H219 C213 0.929 . S
H220 C217 0.930 . S
H221 C209 0.929 . S
H222 C211 0.929 . S
O223 Co198 2.351 . S
O223 C226 1.244 . S
O224 Co198 2.155 . S
O224 C226 1.240 . S
O225 Co198 2.096 . S
O225 C206 1.247 . S
C226 O223 1.244 . S
C226 O224 1.240 . S
H227 C201 0.931 . S
H228 C210 0.931 . S
H229 C214 0.929 . S
H230 C216 0.930 . S
Co231 N235 2.148 . S
Co231 N241 2.128 . S
Co231 N251 2.194 . S
Co231 O256 2.351 . S
Co231 O257 2.155 . S
Co231 O258 2.096 . S
C232 N235 1.301 . S
C232 N236 1.328 . S
C232 H237 0.930 . S
C233 C234 1.333 . S
C233 N235 1.317 . S
C233 H238 0.930 . S
C234 C233 1.333 . S
C234 N236 1.350 . S
C234 H260 0.931 . S
N235 Co231 2.148 . S
N235 C232 1.301 . S
N235 C233 1.317 . S
N236 C232 1.328 . S
N236 C234 1.350 . S
H237 C232 0.930 . S
H238 C233 0.930 . S
C239 O240 1.224 . S
C239 O258 1.247 . S
O240 C239 1.224 . S
N241 Co231 2.128 . S
N241 C242 1.355 . S
N241 C244 1.311 . S
C242 N241 1.355 . S
C242 C243 1.363 . S
C242 H254 0.929 . S
C243 C242 1.363 . S
C243 N245 1.375 . S
C243 H261 0.931 . S
C244 N241 1.311 . S
C244 N245 1.347 . S
C244 H255 0.929 . S
N245 C243 1.375 . S
N245 C244 1.347 . S
C246 C249 1.365 . S
C246 N251 1.328 . S
C246 H252 0.929 . S
C247 C248 1.362 . S
C247 C250 1.378 . S
C247 H262 0.929 . S
C248 C247 1.362 . S
C248 C249 1.366 . S
C249 C246 1.365 . S
C249 C248 1.366 . S
C249 H263 0.930 . S
C250 C247 1.378 . S
C250 N251 1.315 . S
C250 H253 0.930 . S
N251 Co231 2.194 . S
N251 C246 1.328 . S
N251 C250 1.315 . S
H252 C246 0.929 . S
H253 C250 0.930 . S
H254 C242 0.929 . S
H255 C244 0.929 . S
O256 Co231 2.351 . S
O256 C259 1.244 . S
O257 Co231 2.155 . S
O257 C259 1.240 . S
O258 Co231 2.096 . S
O258 C239 1.247 . S
C259 O256 1.244 . S
C259 O257 1.240 . S
H260 C234 0.931 . S
H261 C243 0.931 . S
H262 C247 0.929 . S
H263 C249 0.930 . S
Co264 N268 2.148 . S
Co264 N274 2.128 . S
Co264 N284 2.194 . S
Co264 O289 2.351 . S
Co264 O290 2.155 . S
Co264 O291 2.096 . S
C265 N268 1.301 . S
C265 N269 1.340 . S
C265 H270 0.930 . S
C266 C267 1.333 1_565 S
C266 N268 1.317 . S
C266 H271 0.930 . S
C267 C266 1.333 1_545 S
C267 N269 1.348 1_545 S
C267 H293 0.931 . S
N268 Co264 2.148 . S
N268 C265 1.301 . S
N268 C266 1.317 . S
N269 C265 1.340 . S
N269 C267 1.348 1_565 S
H270 C265 0.930 . S
H271 C266 0.930 . S
C272 O273 1.224 . S
C272 O291 1.247 . S
O273 C272 1.224 . S
N274 Co264 2.128 . S
N274 C275 1.355 . S
N274 C277 1.311 . S
C275 N274 1.355 . S
C275 C276 1.363 . S
C275 H287 0.929 . S
C276 C275 1.363 . S
C276 N278 1.375 . S
C276 H294 0.931 . S
C277 N274 1.311 . S
C277 N278 1.347 . S
C277 H288 0.929 . S
N278 C276 1.375 . S
N278 C277 1.347 . S
C279 C282 1.365 . S
C279 N284 1.328 . S
C279 H285 0.929 . S
C280 C281 1.362 . S
C280 C283 1.378 . S
C280 H295 0.929 . S
C281 C280 1.362 . S
C281 C282 1.366 . S
C282 C279 1.365 . S
C282 C281 1.366 . S
C282 H296 0.930 1_556 S
C283 C280 1.378 . S
C283 N284 1.315 . S
C283 H286 0.930 . S
N284 Co264 2.194 . S
N284 C279 1.328 . S
N284 C283 1.315 . S
H285 C279 0.929 . S
H286 C283 0.930 . S
H287 C275 0.929 . S
H288 C277 0.929 . S
O289 Co264 2.351 . S
O289 C292 1.244 . S
O290 Co264 2.155 . S
O290 C292 1.240 . S
O291 Co264 2.096 . S
O291 C272 1.247 . S
C292 O289 1.244 . S
C292 O290 1.240 . S
H293 C267 0.931 . S
H294 C276 0.931 . S
H295 C280 0.929 . S
H296 C282 0.930 1_554 S
Co297 N301 2.148 . S
Co297 N307 2.128 . S
Co297 N317 2.194 . S
Co297 O322 2.351 . S
Co297 O323 2.155 . S
Co297 O324 2.096 . S
C298 N301 1.301 . S
C298 N302 1.328 . S
C298 H303 0.930 . S
C299 C300 1.333 . S
C299 N301 1.317 . S
C299 H304 0.930 . S
C300 C299 1.333 . S
C300 N302 1.350 . S
C300 H326 0.931 . S
N301 Co297 2.148 . S
N301 C298 1.301 . S
N301 C299 1.317 . S
N302 C298 1.328 . S
N302 C300 1.350 . S
H303 C298 0.930 . S
H304 C299 0.930 . S
C305 O306 1.224 . S
C305 O324 1.247 . S
O306 C305 1.224 . S
N307 Co297 2.128 . S
N307 C308 1.355 . S
N307 C310 1.311 . S
C308 N307 1.355 . S
C308 C309 1.363 . S
C308 H320 0.929 . S
C309 C308 1.363 . S
C309 N311 1.375 . S
C309 H327 0.931 . S
C310 N307 1.311 . S
C310 N311 1.347 . S
C310 H321 0.929 . S
N311 C309 1.375 . S
N311 C310 1.347 . S
C312 C315 1.365 . S
C312 N317 1.328 . S
C312 H318 0.929 . S
C313 C314 1.362 . S
C313 C316 1.378 . S
C313 H328 0.929 . S
C314 C313 1.362 . S
C314 C315 1.366 . S
C315 C312 1.365 . S
C315 C314 1.366 . S
C315 H329 0.930 1_556 S
C316 C313 1.378 . S
C316 N317 1.315 . S
C316 H319 0.930 . S
N317 Co297 2.194 . S
N317 C312 1.328 . S
N317 C316 1.315 . S
H318 C312 0.929 . S
H319 C316 0.930 . S
H320 C308 0.929 . S
H321 C310 0.929 . S
O322 Co297 2.351 . S
O322 C325 1.244 . S
O323 Co297 2.155 . S
O323 C325 1.240 . S
O324 Co297 2.096 . S
O324 C305 1.247 . S
C325 O322 1.244 . S
C325 O323 1.240 . S
H326 C300 0.931 . S
H327 C309 0.931 . S
H328 C313 0.929 . S
H329 C315 0.930 1_554 S
Co330 N334 2.148 . S
Co330 N340 2.128 . S
Co330 N350 2.194 . S
Co330 O355 2.351 . S
Co330 O356 2.155 . S
Co330 O357 2.096 . S
C331 N334 1.301 . S
C331 N335 1.328 . S
C331 H336 0.930 . S
C332 C333 1.333 . S
C332 N334 1.317 . S
C332 H337 0.930 . S
C333 C332 1.333 . S
C333 N335 1.350 . S
C333 H359 0.931 . S
N334 Co330 2.148 . S
N334 C331 1.301 . S
N334 C332 1.317 . S
N335 C331 1.328 . S
N335 C333 1.350 . S
H336 C331 0.930 . S
H337 C332 0.930 . S
C338 O339 1.224 . S
C338 O357 1.247 . S
O339 C338 1.224 . S
N340 Co330 2.128 . S
N340 C341 1.355 . S
N340 C343 1.311 . S
C341 N340 1.355 . S
C341 C342 1.363 . S
C341 H353 0.929 . S
C342 C341 1.363 . S
C342 N344 1.375 . S
C342 H360 0.931 . S
C343 N340 1.311 . S
C343 N344 1.347 . S
C343 H354 0.929 . S
N344 C342 1.375 . S
N344 C343 1.347 . S
C345 C348 1.365 . S
C345 N350 1.328 . S
C345 H351 0.929 . S
C346 C347 1.362 . S
C346 C349 1.378 . S
C346 H361 0.929 . S
C347 C346 1.362 . S
C347 C348 1.366 . S
C348 C345 1.365 . S
C348 C347 1.366 . S
C348 H362 0.930 1_556 S
C349 C346 1.378 . S
C349 N350 1.315 . S
C349 H352 0.930 . S
N350 Co330 2.194 . S
N350 C345 1.328 . S
N350 C349 1.315 . S
H351 C345 0.929 . S
H352 C349 0.930 . S
H353 C341 0.929 . S
H354 C343 0.929 . S
O355 Co330 2.351 . S
O355 C358 1.244 . S
O356 Co330 2.155 . S
O356 C358 1.240 . S
O357 Co330 2.096 . S
O357 C338 1.247 . S
C358 O355 1.244 . S
C358 O356 1.240 . S
H359 C333 0.931 . S
H360 C342 0.931 . S
H361 C346 0.929 . S
H362 C348 0.930 1_554 S
Co363 N367 2.148 . S
Co363 N373 2.128 . S
Co363 N383 2.194 . S
Co363 O388 2.351 . S
Co363 O389 2.155 . S
Co363 O390 2.096 . S
C364 N367 1.301 . S
C364 N368 1.340 . S
C364 H369 0.930 . S
C365 C366 1.333 1_655 S
C365 N367 1.317 . S
C365 H370 0.930 . S
C366 C365 1.333 1_455 S
C366 N368 1.348 1_455 S
C366 H392 0.931 . S
N367 Co363 2.148 . S
N367 C364 1.301 . S
N367 C365 1.317 . S
N368 C364 1.340 . S
N368 C366 1.348 1_655 S
H369 C364 0.930 . S
H370 C365 0.930 . S
C371 O372 1.224 . S
C371 O390 1.247 . S
O372 C371 1.224 . S
N373 Co363 2.128 . S
N373 C374 1.355 . S
N373 C376 1.311 . S
C374 N373 1.355 . S
C374 C375 1.363 . S
C374 H386 0.929 . S
C375 C374 1.363 . S
C375 N377 1.375 . S
C375 H393 0.931 . S
C376 N373 1.311 . S
C376 N377 1.347 . S
C376 H387 0.929 . S
N377 C375 1.375 . S
N377 C376 1.347 . S
C378 C381 1.365 . S
C378 N383 1.328 . S
C378 H384 0.929 . S
C379 C380 1.362 . S
C379 C382 1.378 . S
C379 H394 0.929 . S
C380 C379 1.362 . S
C380 C381 1.366 . S
C381 C378 1.365 . S
C381 C380 1.366 . S
C381 H395 0.930 1_556 S
C382 C379 1.378 . S
C382 N383 1.315 . S
C382 H385 0.930 . S
N383 Co363 2.194 . S
N383 C378 1.328 . S
N383 C382 1.315 . S
H384 C378 0.929 . S
H385 C382 0.930 . S
H386 C374 0.929 . S
H387 C376 0.929 . S
O388 Co363 2.351 . S
O388 C391 1.244 . S
O389 Co363 2.155 . S
O389 C391 1.240 . S
O390 Co363 2.096 . S
O390 C371 1.247 . S
C391 O388 1.244 . S
C391 O389 1.240 . S
H392 C366 0.931 . S
H393 C375 0.931 . S
H394 C379 0.929 . S
H395 C381 0.930 1_554 S
Co396 N400 2.148 . S
Co396 N406 2.128 . S
Co396 N416 2.194 . S
Co396 O421 2.351 . S
Co396 O422 2.155 . S
Co396 O423 2.096 . S
C397 N400 1.301 . S
C397 N401 1.328 . S
C397 H402 0.930 . S
C398 C399 1.333 . S
C398 N400 1.317 . S
C398 H403 0.930 . S
C399 C398 1.333 . S
C399 N401 1.350 . S
C399 H425 0.931 . S
N400 Co396 2.148 . S
N400 C397 1.301 . S
N400 C398 1.317 . S
N401 C397 1.328 . S
N401 C399 1.350 . S
H402 C397 0.930 . S
H403 C398 0.930 . S
C404 O405 1.224 . S
C404 O423 1.247 . S
O405 C404 1.224 . S
N406 Co396 2.128 . S
N406 C407 1.355 . S
N406 C409 1.311 . S
C407 N406 1.355 . S
C407 C408 1.363 . S
C407 H419 0.929 . S
C408 C407 1.363 . S
C408 N410 1.375 . S
C408 H426 0.931 . S
C409 N406 1.311 . S
C409 N410 1.347 . S
C409 H420 0.929 . S
N410 C408 1.375 . S
N410 C409 1.347 . S
C411 C414 1.365 . S
C411 N416 1.328 . S
C411 H417 0.929 . S
C412 C413 1.362 . S
C412 C415 1.378 . S
C412 H427 0.929 . S
C413 C412 1.362 . S
C413 C414 1.366 . S
C414 C411 1.365 . S
C414 C413 1.366 . S
C414 H428 0.930 . S
C415 C412 1.378 . S
C415 N416 1.315 . S
C415 H418 0.930 . S
N416 Co396 2.194 . S
N416 C411 1.328 . S
N416 C415 1.315 . S
H417 C411 0.929 . S
H418 C415 0.930 . S
H419 C407 0.929 . S
H420 C409 0.929 . S
O421 Co396 2.351 . S
O421 C424 1.244 . S
O422 Co396 2.155 . S
O422 C424 1.240 . S
O423 Co396 2.096 . S
O423 C404 1.247 . S
C424 O421 1.244 . S
C424 O422 1.240 . S
H425 C399 0.931 . S
H426 C408 0.931 . S
H427 C412 0.929 . S
H428 C414 0.930 . S
Co429 N433 2.148 . S
Co429 N439 2.128 . S
Co429 N449 2.194 . S
Co429 O454 2.351 . S
Co429 O455 2.155 . S
Co429 O456 2.096 . S
C430 N433 1.301 . S
C430 N434 1.340 . S
C430 H435 0.930 . S
C431 C432 1.333 1_655 S
C431 N433 1.317 . S
C431 H436 0.930 . S
C432 C431 1.333 1_455 S
C432 N434 1.348 1_455 S
C432 H458 0.931 . S
N433 Co429 2.148 . S
N433 C430 1.301 . S
N433 C431 1.317 . S
N434 C430 1.340 . S
N434 C432 1.348 1_655 S
H435 C430 0.930 . S
H436 C431 0.930 . S
C437 O438 1.224 . S
C437 O456 1.247 . S
O438 C437 1.224 . S
N439 Co429 2.128 . S
N439 C440 1.355 . S
N439 C442 1.311 . S
C440 N439 1.355 . S
C440 C441 1.363 . S
C440 H452 0.929 . S
C441 C440 1.363 . S
C441 N443 1.375 . S
C441 H459 0.931 . S
C442 N439 1.311 . S
C442 N443 1.347 . S
C442 H453 0.929 . S
N443 C441 1.375 . S
N443 C442 1.347 . S
C444 C447 1.365 . S
C444 N449 1.328 . S
C444 H450 0.929 . S
C445 C446 1.362 . S
C445 C448 1.378 . S
C445 H460 0.929 . S
C446 C445 1.362 . S
C446 C447 1.366 . S
C447 C444 1.365 . S
C447 C446 1.366 . S
C447 H461 0.930 . S
C448 C445 1.378 . S
C448 N449 1.315 . S
C448 H451 0.930 . S
N449 Co429 2.194 . S
N449 C444 1.328 . S
N449 C448 1.315 . S
H450 C444 0.929 . S
H451 C448 0.930 . S
H452 C440 0.929 . S
H453 C442 0.929 . S
O454 Co429 2.351 . S
O454 C457 1.244 . S
O455 Co429 2.155 . S
O455 C457 1.240 . S
O456 Co429 2.096 . S
O456 C437 1.247 . S
C457 O454 1.244 . S
C457 O455 1.240 . S
H458 C432 0.931 . S
H459 C441 0.931 . S
H460 C445 0.929 . S
H461 C447 0.930 . S
Co462 N466 2.148 . S
Co462 N472 2.128 . S
Co462 N482 2.194 . S
Co462 O487 2.351 . S
Co462 O488 2.155 . S
Co462 O489 2.096 . S
C463 N466 1.301 . S
C463 N467 1.340 . S
C463 H468 0.930 . S
C464 C465 1.333 1_565 S
C464 N466 1.317 . S
C464 H469 0.930 . S
C465 C464 1.333 1_545 S
C465 N467 1.348 1_545 S
C465 H491 0.931 . S
N466 Co462 2.148 . S
N466 C463 1.301 . S
N466 C464 1.317 . S
N467 C463 1.340 . S
N467 C465 1.348 1_565 S
H468 C463 0.930 . S
H469 C464 0.930 . S
C470 O471 1.224 . S
C470 O489 1.247 . S
O471 C470 1.224 . S
N472 Co462 2.128 . S
N472 C473 1.355 . S
N472 C475 1.311 . S
C473 N472 1.355 . S
C473 C474 1.363 . S
C473 H485 0.929 . S
C474 C473 1.363 . S
C474 N476 1.375 . S
C474 H492 0.931 . S
C475 N472 1.311 . S
C475 N476 1.347 . S
C475 H486 0.929 . S
N476 C474 1.375 . S
N476 C475 1.347 . S
C477 C480 1.365 . S
C477 N482 1.328 . S
C477 H483 0.929 . S
C478 C479 1.362 . S
C478 C481 1.378 . S
C478 H493 0.929 . S
C479 C478 1.362 . S
C479 C480 1.366 . S
C480 C477 1.365 . S
C480 C479 1.366 . S
C480 H494 0.930 . S
C481 C478 1.378 . S
C481 N482 1.315 . S
C481 H484 0.930 . S
N482 Co462 2.194 . S
N482 C477 1.328 . S
N482 C481 1.315 . S
H483 C477 0.929 . S
H484 C481 0.930 . S
H485 C473 0.929 . S
H486 C475 0.929 . S
O487 Co462 2.351 . S
O487 C490 1.244 . S
O488 Co462 2.155 . S
O488 C490 1.240 . S
O489 Co462 2.096 . S
O489 C470 1.247 . S
C490 O487 1.244 . S
C490 O488 1.240 . S
H491 C465 0.931 . S
H492 C474 0.931 . S
H493 C478 0.929 . S
H494 C480 0.930 . S
Co495 N499 2.148 . S
Co495 N505 2.128 . S
Co495 N515 2.194 . S
Co495 O520 2.351 . S
Co495 O521 2.155 . S
Co495 O522 2.096 . S
C496 N499 1.301 . S
C496 N500 1.328 . S
C496 H501 0.930 . S
C497 C498 1.333 . S
C497 N499 1.317 . S
C497 H502 0.930 . S
C498 C497 1.333 . S
C498 N500 1.350 . S
C498 H524 0.931 . S
N499 Co495 2.148 . S
N499 C496 1.301 . S
N499 C497 1.317 . S
N500 C496 1.328 . S
N500 C498 1.350 . S
H501 C496 0.930 . S
H502 C497 0.930 . S
C503 O504 1.224 . S
C503 O522 1.247 . S
O504 C503 1.224 . S
N505 Co495 2.128 . S
N505 C506 1.355 . S
N505 C508 1.311 . S
C506 N505 1.355 . S
C506 C507 1.363 . S
C506 H518 0.929 . S
C507 C506 1.363 . S
C507 N509 1.375 . S
C507 H525 0.931 . S
C508 N505 1.311 . S
C508 N509 1.347 . S
C508 H519 0.929 . S
N509 C507 1.375 . S
N509 C508 1.347 . S
C510 C513 1.365 . S
C510 N515 1.328 . S
C510 H516 0.929 . S
C511 C512 1.362 . S
C511 C514 1.378 . S
C511 H526 0.929 . S
C512 C511 1.362 . S
C512 C513 1.366 . S
C513 C510 1.365 . S
C513 C512 1.366 . S
C513 H527 0.930 . S
C514 C511 1.378 . S
C514 N515 1.315 . S
C514 H517 0.930 . S
N515 Co495 2.194 . S
N515 C510 1.328 . S
N515 C514 1.315 . S
H516 C510 0.929 . S
H517 C514 0.930 . S
H518 C506 0.929 . S
H519 C508 0.929 . S
O520 Co495 2.351 . S
O520 C523 1.244 . S
O521 Co495 2.155 . S
O521 C523 1.240 . S
O522 Co495 2.096 . S
O522 C503 1.247 . S
C523 O520 1.244 . S
C523 O521 1.240 . S
H524 C498 0.931 . S
H525 C507 0.931 . S
H526 C511 0.929 . S
H527 C513 0.930 . S
C528 C529 1.363 . S
C528 C534 1.379 . S
C528 N536 1.356 . S
C529 C528 1.363 . S
C529 C535 1.363 . S
C530 C531 1.363 . S
C530 C535 1.379 . S
C530 N537 1.356 . S
C531 C530 1.363 . S
C531 C534 1.363 . S
N532 C534 1.356 . S
N532 H544 0.984 . S
N532 H545 0.985 . S
N533 C535 1.356 . S
N533 H538 0.984 . S
N533 H539 0.985 1_545 S
C534 C528 1.379 . S
C534 C531 1.363 . S
C534 N532 1.356 . S
C535 C529 1.363 . S
C535 C530 1.379 . S
C535 N533 1.356 . S
N536 C528 1.356 . S
N536 H542 0.984 . S
N536 H543 0.984 . S
N537 C530 1.356 . S
N537 H540 0.984 . S
N537 H541 0.985 1_545 S
H538 N533 0.984 . S
H539 N533 0.985 1_565 S
H540 N537 0.984 . S
H541 N537 0.985 1_565 S
H542 N536 0.984 . S
H543 N536 0.984 . S
H544 N532 0.984 . S
H545 N532 0.985 . S
C546 C547 1.363 . S
C546 C552 1.379 . S
C546 N554 1.356 . S
C547 C546 1.363 . S
C547 C553 1.363 . S
C548 C549 1.363 . S
C548 C553 1.379 . S
C548 N555 1.356 . S
C549 C548 1.363 . S
C549 C552 1.363 . S
N550 C552 1.356 . S
N550 H562 0.984 . S
N550 H563 0.985 . S
N551 C553 1.356 . S
N551 H556 0.984 . S
N551 H557 0.985 . S
C552 C546 1.379 . S
C552 C549 1.363 . S
C552 N550 1.356 . S
C553 C547 1.363 . S
C553 C548 1.379 . S
C553 N551 1.356 . S
N554 C546 1.356 . S
N554 H560 0.984 . S
N554 H561 0.984 . S
N555 C548 1.356 . S
N555 H558 0.984 . S
N555 H559 0.985 . S
H556 N551 0.984 . S
H557 N551 0.985 . S
H558 N555 0.984 . S
H559 N555 0.985 . S
H560 N554 0.984 . S
H561 N554 0.984 . S
H562 N550 0.984 . S
H563 N550 0.985 . S
C564 C565 1.363 . S
C564 C570 1.379 . S
C564 N572 1.356 . S
C565 C564 1.363 . S
C565 C571 1.363 . S
C566 C567 1.363 . S
C566 C571 1.379 . S
C566 N573 1.356 . S
C567 C566 1.363 . S
C567 C570 1.363 . S
N568 C570 1.356 . S
N568 H580 0.984 . S
N568 H581 0.985 . S
N569 C571 1.356 . S
N569 H574 0.984 . S
N569 H575 0.985 . S
C570 C564 1.379 . S
C570 C567 1.363 . S
C570 N568 1.356 . S
C571 C565 1.363 . S
C571 C566 1.379 . S
C571 N569 1.356 . S
N572 C564 1.356 . S
N572 H578 0.984 . S
N572 H579 0.984 . S
N573 C566 1.356 . S
N573 H576 0.984 . S
N573 H577 0.985 . S
H574 N569 0.984 . S
H575 N569 0.985 . S
H576 N573 0.984 . S
H577 N573 0.985 . S
H578 N572 0.984 . S
H579 N572 0.984 . S
H580 N568 0.984 . S
H581 N568 0.985 . S
C582 C583 1.363 . S
C582 C588 1.379 . S
C582 N590 1.356 . S
C583 C582 1.363 . S
C583 C589 1.363 . S
C584 C585 1.363 . S
C584 C589 1.379 . S
C584 N591 1.356 . S
C585 C584 1.363 . S
C585 C588 1.363 . S
N586 C588 1.356 . S
N586 H598 0.984 1_455 S
N586 H599 0.985 . S
N587 C589 1.356 . S
N587 H592 0.984 . S
N587 H593 0.985 . S
C588 C582 1.379 . S
C588 C585 1.363 . S
C588 N586 1.356 . S
C589 C583 1.363 . S
C589 C584 1.379 . S
C589 N587 1.356 . S
N590 C582 1.356 . S
N590 H596 0.984 1_455 S
N590 H597 0.984 . S
N591 C584 1.356 . S
N591 H594 0.984 . S
N591 H595 0.985 . S
H592 N587 0.984 . S
H593 N587 0.985 . S
H594 N591 0.984 . S
H595 N591 0.985 . S
H596 N590 0.984 1_655 S
H597 N590 0.984 . S
H598 N586 0.984 1_655 S
H599 N586 0.985 . S
C600 C601 1.363 . S
C600 C606 1.379 . S
C600 N608 1.356 . S
C601 C600 1.363 . S
C601 C607 1.363 . S
C602 C603 1.363 . S
C602 C607 1.379 . S
C602 N609 1.356 . S
C603 C602 1.363 . S
C603 C606 1.363 . S
N604 C606 1.356 . S
N604 H616 0.984 1_565 S
N604 H617 0.985 . S
N605 C607 1.356 . S
N605 H610 0.984 . S
N605 H611 0.985 . S
C606 C600 1.379 . S
C606 C603 1.363 . S
C606 N604 1.356 . S
C607 C601 1.363 . S
C607 C602 1.379 . S
C607 N605 1.356 . S
N608 C600 1.356 . S
N608 H614 0.984 1_565 S
N608 H615 0.984 . S
N609 C602 1.356 . S
N609 H612 0.984 . S
N609 H613 0.985 . S
H610 N605 0.984 . S
H611 N605 0.985 . S
H612 N609 0.984 . S
H613 N609 0.985 . S
H614 N608 0.984 1_545 S
H615 N608 0.984 . S
H616 N604 0.984 1_545 S
H617 N604 0.985 . S
C618 C619 1.363 . S
C618 C624 1.379 . S
C618 N626 1.356 . S
C619 C618 1.363 . S
C619 C625 1.363 . S
C620 C621 1.363 . S
C620 C625 1.379 . S
C620 N627 1.356 . S
C621 C620 1.363 . S
C621 C624 1.363 . S
N622 C624 1.356 . S
N622 H634 0.984 . S
N622 H635 0.985 . S
N623 C625 1.356 . S
N623 H628 0.984 . S
N623 H629 0.985 . S
C624 C618 1.379 . S
C624 C621 1.363 . S
C624 N622 1.356 . S
C625 C619 1.363 . S
C625 C620 1.379 . S
C625 N623 1.356 . S
N626 C618 1.356 . S
N626 H632 0.984 . S
N626 H633 0.984 . S
N627 C620 1.356 . S
N627 H630 0.984 . S
N627 H631 0.985 . S
H628 N623 0.984 . S
H629 N623 0.985 . S
H630 N627 0.984 . S
H631 N627 0.985 . S
H632 N626 0.984 . S
H633 N626 0.984 . S
H634 N622 0.984 . S
H635 N622 0.985 . S
C636 C637 1.363 . S
C636 C642 1.379 . S
C636 N644 1.356 . S
C637 C636 1.363 . S
C637 C643 1.363 . S
C638 C639 1.363 . S
C638 C643 1.379 . S
C638 N645 1.356 . S
C639 C638 1.363 . S
C639 C642 1.363 . S
N640 C642 1.356 . S
N640 H652 0.984 . S
N640 H653 0.985 . S
N641 C643 1.356 . S
N641 H646 0.984 . S
N641 H647 0.985 . S
C642 C636 1.379 . S
C642 C639 1.363 . S
C642 N640 1.356 . S
C643 C637 1.363 . S
C643 C638 1.379 . S
C643 N641 1.356 . S
N644 C636 1.356 . S
N644 H650 0.984 . S
N644 H651 0.984 . S
N645 C638 1.356 . S
N645 H648 0.984 . S
N645 H649 0.985 . S
H646 N641 0.984 . S
H647 N641 0.985 . S
H648 N645 0.984 . S
H649 N645 0.985 . S
H650 N644 0.984 . S
H651 N644 0.984 . S
H652 N640 0.984 . S
H653 N640 0.985 . S
C654 C655 1.363 . S
C654 C660 1.379 . S
C654 N662 1.356 . S
C655 C654 1.363 . S
C655 C661 1.363 . S
C656 C657 1.363 . S
C656 C661 1.379 . S
C656 N663 1.356 . S
C657 C656 1.363 . S
C657 C660 1.363 . S
N658 C660 1.356 . S
N658 H670 0.984 . S
N658 H671 0.985 . S
N659 C661 1.356 . S
N659 H664 0.984 . S
N659 H665 0.985 . S
C660 C654 1.379 . S
C660 C657 1.363 . S
C660 N658 1.356 . S
C661 C655 1.363 . S
C661 C656 1.379 . S
C661 N659 1.356 . S
N662 C654 1.356 . S
N662 H668 0.984 . S
N662 H669 0.984 . S
N663 C656 1.356 . S
N663 H666 0.984 . S
N663 H667 0.985 . S
H664 N659 0.984 . S
H665 N659 0.985 . S
H666 N663 0.984 . S
H667 N663 0.985 . S
H668 N662 0.984 . S
H669 N662 0.984 . S
H670 N658 0.984 . S
H671 N658 0.985 . S
C672 C673 1.363 . S
C672 C678 1.379 1_556 S
C672 N680 1.356 . S
C673 C672 1.363 . S
C673 C679 1.363 1_545 S
C674 C675 1.363 . S
C674 C679 1.379 1_554 S
C674 N681 1.356 . S
C675 C674 1.363 . S
C675 C678 1.363 1_565 S
N676 C678 1.356 . S
N676 H688 0.984 . S
N676 H689 0.985 . S
N677 C679 1.356 . S
N677 H682 0.984 . S
N677 H683 0.985 . S
C678 C672 1.379 1_554 S
C678 C675 1.363 1_545 S
C678 N676 1.356 . S
C679 C673 1.363 1_565 S
C679 C674 1.379 1_556 S
C679 N677 1.356 . S
N680 C672 1.356 . S
N680 H686 0.984 . S
N680 H687 0.984 . S
N681 C674 1.356 . S
N681 H684 0.984 . S
N681 H685 0.985 . S
H682 N677 0.984 . S
H683 N677 0.985 . S
H684 N681 0.984 . S
H685 N681 0.985 . S
H686 N680 0.984 . S
H687 N680 0.984 . S
H688 N676 0.984 . S
H689 N676 0.985 . S
C690 C691 1.363 1_554 S
C690 C696 1.379 . S
C690 N698 1.356 . S
C691 C690 1.363 1_556 S
C691 C697 1.363 . S
C692 C693 1.363 1_556 S
C692 C697 1.379 . S
C692 N699 1.356 . S
C693 C692 1.363 1_554 S
C693 C696 1.363 . S
N694 C696 1.356 . S
N694 H706 0.984 . S
N694 H707 0.985 . S
N695 C697 1.356 . S
N695 H700 0.984 . S
N695 H701 0.985 . S
C696 C690 1.379 . S
C696 C693 1.363 . S
C696 N694 1.356 . S
C697 C691 1.363 . S
C697 C692 1.379 . S
C697 N695 1.356 . S
N698 C690 1.356 . S
N698 H704 0.984 . S
N698 H705 0.984 1_554 S
N699 C692 1.356 . S
N699 H702 0.984 1_556 S
N699 H703 0.985 . S
H700 N695 0.984 . S
H701 N695 0.985 . S
H702 N699 0.984 1_554 S
H703 N699 0.985 . S
H704 N698 0.984 . S
H705 N698 0.984 1_556 S
H706 N694 0.984 . S
H707 N694 0.985 . S
C708 C709 1.363 . S
C708 C714 1.379 1_456 S
C708 N716 1.356 . S
C709 C708 1.363 . S
C709 C715 1.363 . S
C710 C711 1.363 . S
C710 C715 1.379 1_654 S
C710 N717 1.356 . S
C711 C710 1.363 . S
C711 C714 1.363 . S
N712 C714 1.356 . S
N712 H724 0.984 . S
N712 H725 0.985 . S
N713 C715 1.356 . S
N713 H718 0.984 . S
N713 H719 0.985 . S
C714 C708 1.379 1_654 S
C714 C711 1.363 . S
C714 N712 1.356 . S
C715 C709 1.363 . S
C715 C710 1.379 1_456 S
C715 N713 1.356 . S
N716 C708 1.356 . S
N716 H722 0.986 . S
N716 H723 0.984 . S
N717 C710 1.356 . S
N717 H720 0.984 . S
N717 H721 0.986 . S
H718 N713 0.984 . S
H719 N713 0.985 . S
H720 N717 0.984 . S
H721 N717 0.986 . S
H722 N716 0.986 . S
H723 N716 0.984 . S
H724 N712 0.984 . S
H725 N712 0.985 . S
C726 C727 1.363 . S
C726 C732 1.379 1_546 S
C726 N734 1.356 . S
C727 C726 1.363 . S
C727 C733 1.363 1_455 S
C728 C729 1.363 . S
C728 C733 1.379 1_564 S
C728 N735 1.356 . S
C729 C728 1.363 . S
C729 C732 1.363 1_655 S
N730 C732 1.356 . S
N730 H742 0.984 . S
N730 H743 0.985 . S
N731 C733 1.356 . S
N731 H736 0.984 . S
N731 H737 0.985 . S
C732 C726 1.379 1_564 S
C732 C729 1.363 1_455 S
C732 N730 1.356 . S
C733 C727 1.363 1_655 S
C733 C728 1.379 1_546 S
C733 N731 1.356 . S
N734 C726 1.356 . S
N734 H740 0.984 . S
N734 H741 0.984 . S
N735 C728 1.356 . S
N735 H738 0.984 . S
N735 H739 0.985 . S
H736 N731 0.984 . S
H737 N731 0.985 . S
H738 N735 0.984 . S
H739 N735 0.985 . S
H740 N734 0.984 . S
H741 N734 0.984 . S
H742 N730 0.984 . S
H743 N730 0.985 . S
C744 C745 1.363 . S
C744 C750 1.379 . S
C744 N752 1.356 . S
C745 C744 1.363 . S
C745 C751 1.363 . S
C746 C747 1.363 . S
C746 C751 1.379 . S
C746 N753 1.356 . S
C747 C746 1.363 . S
C747 C750 1.363 . S
N748 C750 1.356 . S
N748 H760 0.984 . S
N748 H761 0.985 . S
N749 C751 1.356 . S
N749 H754 0.984 . S
N749 H755 0.985 . S
C750 C744 1.379 . S
C750 C747 1.363 . S
C750 N748 1.356 . S
C751 C745 1.363 . S
C751 C746 1.379 . S
C751 N749 1.356 . S
N752 C744 1.356 . S
N752 H758 0.984 . S
N752 H759 0.984 . S
N753 C746 1.356 . S
N753 H756 0.984 . S
N753 H757 0.985 . S
H754 N749 0.984 . S
H755 N749 0.985 . S
H756 N753 0.984 . S
H757 N753 0.985 . S
H758 N752 0.984 . S
H759 N752 0.984 . S
H760 N748 0.984 . S
H761 N748 0.985 . S
C762 C763 1.363 1_655 S
C762 C768 1.379 . S
C762 N770 1.356 . S
C763 C762 1.363 1_455 S
C763 C769 1.363 . S
C764 C765 1.363 1_455 S
C764 C769 1.379 . S
C764 N771 1.356 . S
C765 C764 1.363 1_655 S
C765 C768 1.363 . S
N766 C768 1.356 . S
N766 H778 0.984 . S
N766 H779 0.985 . S
N767 C769 1.356 . S
N767 H772 0.984 . S
N767 H773 0.985 . S
C768 C762 1.379 . S
C768 C765 1.363 . S
C768 N766 1.356 . S
C769 C763 1.363 . S
C769 C764 1.379 . S
C769 N767 1.356 . S
N770 C762 1.356 . S
N770 H776 0.984 . S
N770 H777 0.984 . S
N771 C764 1.356 . S
N771 H774 0.984 . S
N771 H775 0.985 . S
H772 N767 0.984 . S
H773 N767 0.985 . S
H774 N771 0.984 . S
H775 N771 0.985 . S
H776 N770 0.984 . S
H777 N770 0.984 . S
H778 N766 0.984 . S
H779 N766 0.985 . S
C780 C781 1.363 . S
C780 C786 1.379 1_655 S
C780 N788 1.356 . S
C781 C780 1.363 . S
C781 C787 1.363 1_565 S
C782 C783 1.363 . S
C782 C787 1.379 1_455 S
C782 N789 1.356 . S
C783 C782 1.363 . S
C783 C786 1.363 1_545 S
N784 C786 1.356 . S
N784 H796 0.984 . S
N784 H797 0.985 . S
N785 C787 1.356 . S
N785 H790 0.984 . S
N785 H791 0.985 . S
C786 C780 1.379 1_455 S
C786 C783 1.363 1_565 S
C786 N784 1.356 . S
C787 C781 1.363 1_545 S
C787 C782 1.379 1_655 S
C787 N785 1.356 . S
N788 C780 1.356 . S
N788 H794 0.984 . S
N788 H795 0.984 . S
N789 C782 1.356 . S
N789 H792 0.984 . S
N789 H793 0.985 . S
H790 N785 0.984 . S
H791 N785 0.985 . S
H792 N789 0.984 . S
H793 N789 0.985 . S
H794 N788 0.984 . S
H795 N788 0.984 . S
H796 N784 0.984 . S
H797 N784 0.985 . S
C798 C799 1.363 . S
C798 C804 1.379 1_565 S
C798 N806 1.356 . S
C799 C798 1.363 . S
C799 C805 1.363 . S
C800 C801 1.363 . S
C800 C805 1.379 1_545 S
C800 N807 1.356 . S
C801 C800 1.363 . S
C801 C804 1.363 . S
N802 C804 1.356 . S
N802 H814 0.984 . S
N802 H815 0.985 . S
N803 C805 1.356 . S
N803 H808 0.984 . S
N803 H809 0.985 . S
C804 C798 1.379 1_545 S
C804 C801 1.363 . S
C804 N802 1.356 . S
C805 C799 1.363 . S
C805 C800 1.379 1_565 S
C805 N803 1.356 . S
N806 C798 1.356 . S
N806 H812 0.984 . S
N806 H813 0.984 . S
N807 C800 1.356 . S
N807 H810 0.984 . S
N807 H811 0.985 . S
H808 N803 0.984 . S
H809 N803 0.985 . S
H810 N807 0.984 . S
H811 N807 0.985 . S
H812 N806 0.984 . S
H813 N806 0.984 . S
H814 N802 0.984 . S
H815 N802 0.985 . S
C816 C817 1.363 1_554 S
C816 C822 1.379 . S
C816 N824 1.356 1_554 S
C817 C816 1.363 1_556 S
C817 C823 1.363 1_556 S
C818 C819 1.363 . S
C818 C823 1.379 . S
C818 N825 1.356 . S
C819 C818 1.363 . S
C819 C822 1.363 . S
N820 C822 1.356 . S
N820 H832 0.984 . S
N820 H833 0.985 . S
N821 C823 1.359 . S
N821 H826 0.980 1_554 S
N821 H827 0.986 . S
C822 C816 1.379 . S
C822 C819 1.363 . S
C822 N820 1.356 . S
C823 C817 1.363 1_554 S
C823 C818 1.379 . S
C823 N821 1.359 . S
N824 C816 1.356 1_556 S
N824 H830 0.984 . S
N824 H831 0.984 . S
N825 C818 1.356 . S
N825 H828 0.984 . S
N825 H829 0.985 . S
H826 N821 0.980 1_556 S
H827 N821 0.986 . S
H828 N825 0.984 . S
H829 N825 0.985 . S
H830 N824 0.984 . S
H831 N824 0.984 . S
H832 N820 0.984 . S
H833 N820 0.985 . S
C834 C835 1.363 . S
C834 C840 1.379 1_556 S
C834 N842 1.356 . S
C835 C834 1.363 . S
C835 C841 1.363 1_556 S
C836 C837 1.363 . S
C836 C841 1.379 . S
C836 N843 1.356 . S
C837 C836 1.363 . S
C837 C840 1.363 . S
N838 C840 1.356 . S
N838 H850 0.984 1_554 S
N838 H851 0.985 . S
N839 C841 1.356 . S
N839 H844 0.984 . S
N839 H845 0.985 . S
C840 C834 1.379 1_554 S
C840 C837 1.363 . S
C840 N838 1.356 . S
C841 C835 1.363 1_554 S
C841 C836 1.379 . S
C841 N839 1.356 . S
N842 C834 1.356 . S
N842 H848 0.984 . S
N842 H849 0.984 . S
N843 C836 1.356 . S
N843 H846 0.984 . S
N843 H847 0.985 . S
H844 N839 0.984 . S
H845 N839 0.985 . S
H846 N843 0.984 . S
H847 N843 0.985 . S
H848 N842 0.984 . S
H849 N842 0.984 . S
H850 N838 0.984 1_556 S
H851 N838 0.985 . S
C852 C853 1.363 1_554 S
C852 C858 1.379 . S
C852 N860 1.356 1_654 S
C853 C852 1.363 1_556 S
C853 C859 1.363 1_556 S
C854 C855 1.363 . S
C854 C859 1.379 . S
C854 N861 1.356 . S
C855 C854 1.363 . S
C855 C858 1.363 . S
N856 C858 1.356 . S
N856 H868 0.972 1_655 S
N856 H869 0.985 . S
N857 C859 1.356 1_556 S
N857 H862 0.984 . S
N857 H863 0.985 . S
C858 C852 1.379 . S
C858 C855 1.363 . S
C858 N856 1.356 . S
C859 C853 1.363 1_554 S
C859 C854 1.379 . S
C859 N857 1.356 1_554 S
N860 C852 1.356 1_456 S
N860 H866 0.984 1_556 S
N860 H867 0.984 . S
N861 C854 1.356 . S
N861 H864 0.984 . S
N861 H865 0.985 . S
H862 N857 0.984 . S
H863 N857 0.985 . S
H864 N861 0.984 . S
H865 N861 0.985 . S
H866 N860 0.984 1_554 S
H867 N860 0.984 . S
H868 N856 0.972 1_455 S
H869 N856 0.985 . S
C870 C871 1.363 1_554 S
C870 C876 1.379 . S
C870 N878 1.356 . S
C871 C870 1.363 1_556 S
C871 C877 1.363 . S
C872 C873 1.363 . S
C872 C877 1.379 1_554 S
C872 N879 1.356 . S
C873 C872 1.363 . S
C873 C876 1.363 . S
N874 C876 1.356 . S
N874 H886 0.984 . S
N874 H887 0.985 . S
N875 C877 1.356 . S
N875 H880 0.984 . S
N875 H881 0.985 . S
C876 C870 1.379 . S
C876 C873 1.363 . S
C876 N874 1.356 . S
C877 C871 1.363 . S
C877 C872 1.379 1_556 S
C877 N875 1.356 . S
N878 C870 1.356 . S
N878 H884 0.984 1_565 S
N878 H885 0.986 . S
N879 C872 1.356 . S
N879 H882 0.984 . S
N879 H883 0.985 1_554 S
H880 N875 0.984 . S
H881 N875 0.985 . S
H882 N879 0.984 . S
H883 N879 0.985 1_556 S
H884 N878 0.984 1_545 S
H885 N878 0.986 . S
H886 N874 0.984 . S
H887 N874 0.985 . S
C888 C889 1.363 . S
C888 C894 1.379 . S
C888 N896 1.356 . S
C889 C888 1.363 . S
C889 C895 1.363 . S
C890 C891 1.363 . S
C890 C895 1.379 . S
C890 N897 1.356 . S
C891 C890 1.363 . S
C891 C894 1.363 . S
N892 C894 1.356 . S
N892 H904 0.984 . S
N892 H905 0.985 . S
N893 C895 1.356 . S
N893 H898 0.984 . S
N893 H899 0.985 . S
C894 C888 1.379 . S
C894 C891 1.363 . S
C894 N892 1.356 . S
C895 C889 1.363 . S
C895 C890 1.379 . S
C895 N893 1.356 . S
N896 C888 1.356 . S
N896 H902 0.984 . S
N896 H903 0.984 . S
N897 C890 1.356 . S
N897 H900 0.984 . S
N897 H901 0.985 . S
H898 N893 0.984 . S
H899 N893 0.985 . S
H900 N897 0.984 . S
H901 N897 0.985 . S
H902 N896 0.984 . S
H903 N896 0.984 . S
H904 N892 0.984 . S
H905 N892 0.985 . S
C906 C907 1.363 . S
C906 C912 1.379 . S
C906 N914 1.356 . S
C907 C906 1.363 . S
C907 C913 1.363 . S
C908 C909 1.363 . S
C908 C913 1.379 . S
C908 N915 1.356 . S
C909 C908 1.363 . S
C909 C912 1.363 . S
N910 C912 1.356 . S
N910 H922 0.984 . S
N910 H923 0.985 . S
N911 C913 1.356 . S
N911 H916 0.984 . S
N911 H917 0.985 . S
C912 C906 1.379 . S
C912 C909 1.363 . S
C912 N910 1.356 . S
C913 C907 1.363 . S
C913 C908 1.379 . S
C913 N911 1.356 . S
N914 C906 1.356 . S
N914 H920 0.984 . S
N914 H921 0.984 . S
N915 C908 1.356 . S
N915 H918 0.984 . S
N915 H919 0.985 . S
H916 N911 0.984 . S
H917 N911 0.985 . S
H918 N915 0.984 . S
H919 N915 0.985 . S
H920 N914 0.984 . S
H921 N914 0.984 . S
H922 N910 0.984 . S
H923 N910 0.985 . S
C924 C925 1.363 . S
C924 C930 1.379 . S
C924 N932 1.356 . S
C925 C924 1.363 . S
C925 C931 1.363 . S
C926 C927 1.363 . S
C926 C931 1.379 . S
C926 N933 1.356 1_655 S
C927 C926 1.363 . S
C927 C930 1.363 . S
N928 C930 1.356 . S
N928 H940 0.984 . S
N928 H941 0.985 . S
N929 C931 1.356 . S
N929 H934 0.984 . S
N929 H935 0.985 . S
C930 C924 1.379 . S
C930 C927 1.363 . S
C930 N928 1.356 . S
C931 C925 1.363 . S
C931 C926 1.379 . S
C931 N929 1.356 . S
N932 C924 1.356 . S
N932 H938 0.984 . S
N932 H939 0.984 . S
N933 C926 1.356 1_455 S
N933 H936 0.984 . S
N933 H937 0.985 . S
H934 N929 0.984 . S
H935 N929 0.985 . S
H936 N933 0.984 . S
H937 N933 0.985 . S
H938 N932 0.984 . S
H939 N932 0.984 . S
H940 N928 0.984 . S
H941 N928 0.985 . S
C942 C943 1.363 . S
C942 C948 1.379 . S
C942 N950 1.356 . S
C943 C942 1.363 . S
C943 C949 1.363 . S
C944 C945 1.363 . S
C944 C949 1.379 . S
C944 N951 1.356 1_565 S
C945 C944 1.363 . S
C945 C948 1.363 . S
N946 C948 1.356 . S
N946 H958 0.984 . S
N946 H959 0.985 . S
N947 C949 1.356 . S
N947 H952 0.984 . S
N947 H953 0.985 . S
C948 C942 1.379 . S
C948 C945 1.363 . S
C948 N946 1.356 . S
C949 C943 1.363 . S
C949 C944 1.379 . S
C949 N947 1.356 . S
N950 C942 1.356 . S
N950 H956 0.984 . S
N950 H957 0.984 . S
N951 C944 1.356 1_545 S
N951 H954 0.984 . S
N951 H955 0.985 . S
H952 N947 0.984 . S
H953 N947 0.985 . S
H954 N951 0.984 . S
H955 N951 0.985 . S
H956 N950 0.984 . S
H957 N950 0.984 . S
H958 N946 0.984 . S
H959 N946 0.985 . S
C960 C961 1.363 1_556 S
C960 C966 1.379 . S
C960 N968 1.356 . S
C961 C960 1.363 1_554 S
C961 C967 1.363 . S
C962 C963 1.363 . S
C962 C967 1.379 1_556 S
C962 N969 1.356 . S
C963 C962 1.363 . S
C963 C966 1.363 . S
N964 C966 1.356 . S
N964 H976 0.984 . S
N964 H977 0.985 . S
N965 C967 1.356 . S
N965 H970 0.984 . S
N965 H971 0.985 . S
C966 C960 1.379 . S
C966 C963 1.363 . S
C966 N964 1.356 . S
C967 C961 1.363 . S
C967 C962 1.379 1_554 S
C967 N965 1.356 . S
N968 C960 1.356 . S
N968 H974 0.984 . S
N968 H975 0.984 . S
N969 C962 1.356 . S
N969 H972 0.984 . S
N969 H973 0.985 . S
H970 N965 0.984 . S
H971 N965 0.985 . S
H972 N969 0.984 . S
H973 N969 0.985 . S
H974 N968 0.984 . S
H975 N968 0.984 . S
H976 N964 0.984 . S
H977 N964 0.985 . S
C978 C979 1.363 . S
C978 C984 1.379 1_554 S
C978 N986 1.356 . S
C979 C978 1.363 . S
C979 C985 1.363 1_554 S
C980 C981 1.363 . S
C980 C985 1.379 . S
C980 N987 1.356 . S
C981 C980 1.363 . S
C981 C984 1.363 . S
N982 C984 1.356 . S
N982 H994 0.984 . S
N982 H995 0.985 . S
N983 C985 1.356 . S
N983 H988 0.984 1_556 S
N983 H989 0.985 . S
C984 C978 1.379 1_556 S
C984 C981 1.363 . S
C984 N982 1.356 . S
C985 C979 1.363 1_556 S
C985 C980 1.379 . S
C985 N983 1.356 . S
N986 C978 1.356 . S
N986 H992 0.984 . S
N986 H993 0.984 . S
N987 C980 1.356 . S
N987 H990 0.984 . S
N987 H991 0.985 . S
H988 N983 0.984 1_554 S
H989 N983 0.985 . S
H990 N987 0.984 . S
H991 N987 0.985 . S
H992 N986 0.984 . S
H993 N986 0.984 . S
H994 N982 0.984 . S
H995 N982 0.985 . S
C996 C997 1.363 . S
C996 C1002 1.379 1_554 S
C996 N1004 1.356 . S
C997 C996 1.363 . S
C997 C1003 1.363 1_554 S
C998 C999 1.363 . S
C998 C1003 1.379 . S
C998 N1005 1.356 . S
C999 C998 1.363 . S
C999 C1002 1.363 . S
N1000 C1002 1.356 . S
N1000 H1012 0.984 1_556 S
N1000 H1013 0.985 . S
N1001 C1003 1.356 . S
N1001 H1006 0.984 . S
N1001 H1007 0.986 . S
C1002 C996 1.379 1_556 S
C1002 C999 1.363 . S
C1002 N1000 1.356 . S
C1003 C997 1.363 1_556 S
C1003 C998 1.379 . S
C1003 N1001 1.356 . S
N1004 C996 1.356 . S
N1004 H1010 0.984 . S
N1004 H1011 0.984 . S
N1005 C998 1.356 . S
N1005 H1008 0.984 . S
N1005 H1009 0.985 . S
H1006 N1001 0.984 . S
H1007 N1001 0.986 . S
H1008 N1005 0.984 . S
H1009 N1005 0.985 . S
H1010 N1004 0.984 . S
H1011 N1004 0.984 . S
H1012 N1000 0.984 1_554 S
H1013 N1000 0.985 . S
C1014 C1015 1.363 1_556 S
C1014 C1020 1.379 . S
C1014 N1022 1.356 1_556 S
C1015 C1014 1.363 1_554 S
C1015 C1021 1.363 1_554 S
C1016 C1017 1.363 . S
C1016 C1021 1.379 . S
C1016 N1023 1.356 . S
C1017 C1016 1.363 . S
C1017 C1020 1.363 . S
N1018 C1020 1.356 . S
N1018 H1030 0.984 . S
N1018 H1031 0.985 . S
N1019 C1021 1.356 1_565 S
N1019 H1024 0.984 1_556 S
N1019 H1025 0.985 . S
C1020 C1014 1.379 . S
C1020 C1017 1.363 . S
C1020 N1018 1.356 . S
C1021 C1015 1.363 1_556 S
C1021 C1016 1.379 . S
C1021 N1019 1.356 1_545 S
N1022 C1014 1.356 1_554 S
N1022 H1028 0.984 . S
N1022 H1029 0.984 . S
N1023 C1016 1.356 . S
N1023 H1026 0.984 . S
N1023 H1027 0.985 1_545 S
H1024 N1019 0.984 1_554 S
H1025 N1019 0.985 . S
H1026 N1023 0.984 . S
H1027 N1023 0.985 1_565 S
H1028 N1022 0.984 . S
H1029 N1022 0.984 . S
H1030 N1018 0.984 . S
H1031 N1018 0.985 . S
C1032 C1033 1.363 . S
C1032 C1038 1.379 . S
C1032 N1040 1.356 . S
C1033 C1032 1.363 . S
C1033 C1039 1.363 . S
C1034 C1035 1.363 . S
C1034 C1039 1.379 . S
C1034 N1041 1.356 . S
C1035 C1034 1.363 . S
C1035 C1038 1.363 . S
N1036 C1038 1.356 . S
N1036 H1048 0.984 . S
N1036 H1049 0.985 . S
N1037 C1039 1.356 . S
N1037 H1042 0.984 . S
N1037 H1043 0.985 . S
C1038 C1032 1.379 . S
C1038 C1035 1.363 . S
C1038 N1036 1.356 . S
C1039 C1033 1.363 . S
C1039 C1034 1.379 . S
C1039 N1037 1.356 . S
N1040 C1032 1.356 . S
N1040 H1046 0.984 . S
N1040 H1047 0.984 . S
N1041 C1034 1.356 . S
N1041 H1044 0.984 . S
N1041 H1045 0.985 . S
H1042 N1037 0.984 . S
H1043 N1037 0.985 . S
H1044 N1041 0.984 . S
H1045 N1041 0.985 . S
H1046 N1040 0.984 . S
H1047 N1040 0.984 . S
H1048 N1036 0.984 . S
H1049 N1036 0.985 . S
C1050 C1051 1.363 . S
C1050 C1056 1.379 . S
C1050 N1058 1.356 . S
C1051 C1050 1.363 . S
C1051 C1057 1.363 . S
C1052 C1053 1.363 . S
C1052 C1057 1.379 . S
C1052 N1059 1.356 . S
C1053 C1052 1.363 . S
C1053 C1056 1.363 . S
N1054 C1056 1.356 . S
N1054 H1066 0.984 . S
N1054 H1067 0.985 . S
N1055 C1057 1.356 . S
N1055 H1060 0.984 . S
N1055 H1061 0.985 . S
C1056 C1050 1.379 . S
C1056 C1053 1.363 . S
C1056 N1054 1.356 . S
C1057 C1051 1.363 . S
C1057 C1052 1.379 . S
C1057 N1055 1.356 . S
N1058 C1050 1.356 . S
N1058 H1064 0.984 . S
N1058 H1065 0.984 . S
N1059 C1052 1.356 . S
N1059 H1062 0.984 . S
N1059 H1063 0.985 . S
H1060 N1055 0.984 . S
H1061 N1055 0.985 . S
H1062 N1059 0.984 . S
H1063 N1059 0.985 . S
H1064 N1058 0.984 . S
H1065 N1058 0.984 . S
H1066 N1054 0.984 . S
H1067 N1054 0.985 . S
C1068 C1069 1.363 . S
C1068 C1074 1.379 . S
C1068 N1076 1.356 1_455 S
C1069 C1068 1.363 . S
C1069 C1075 1.363 . S
C1070 C1071 1.363 . S
C1070 C1075 1.379 . S
C1070 N1077 1.356 . S
C1071 C1070 1.363 . S
C1071 C1074 1.363 . S
N1072 C1074 1.356 . S
N1072 H1084 0.984 . S
N1072 H1085 0.985 . S
N1073 C1075 1.356 . S
N1073 H1078 0.984 . S
N1073 H1079 0.985 . S
C1074 C1068 1.379 . S
C1074 C1071 1.363 . S
C1074 N1072 1.356 . S
C1075 C1069 1.363 . S
C1075 C1070 1.379 . S
C1075 N1073 1.356 . S
N1076 C1068 1.356 1_655 S
N1076 H1082 0.984 . S
N1076 H1083 0.984 . S
N1077 C1070 1.356 . S
N1077 H1080 0.984 . S
N1077 H1081 0.985 . S
H1078 N1073 0.984 . S
H1079 N1073 0.985 . S
H1080 N1077 0.984 . S
H1081 N1077 0.985 . S
H1082 N1076 0.984 . S
H1083 N1076 0.984 . S
H1084 N1072 0.984 . S
H1085 N1072 0.985 . S
C1086 C1087 1.363 . S
C1086 C1092 1.379 . S
C1086 N1094 1.356 . S
C1087 C1086 1.363 . S
C1087 C1093 1.363 . S
C1088 C1089 1.363 . S
C1088 C1093 1.379 . S
C1088 N1095 1.356 . S
C1089 C1088 1.363 . S
C1089 C1092 1.363 . S
N1090 C1092 1.356 . S
N1090 H1102 0.984 1_545 S
N1090 H1103 0.989 . S
N1091 C1093 1.356 . S
N1091 H1096 0.984 . S
N1091 H1097 0.985 . S
C1092 C1086 1.379 . S
C1092 C1089 1.363 . S
C1092 N1090 1.356 . S
C1093 C1087 1.363 . S
C1093 C1088 1.379 . S
C1093 N1091 1.356 . S
N1094 C1086 1.356 . S
N1094 H1100 0.984 . S
N1094 H1101 0.984 . S
N1095 C1088 1.356 . S
N1095 H1098 0.984 . S
N1095 H1099 0.985 . S
H1096 N1091 0.984 . S
H1097 N1091 0.985 . S
H1098 N1095 0.984 . S
H1099 N1095 0.985 . S
H1100 N1094 0.984 . S
H1101 N1094 0.984 . S
H1102 N1090 0.984 1_565 S
H1103 N1090 0.989 . S
C1104 C1105 1.363 . S
C1104 C1110 1.379 . S
C1104 N1112 1.356 . S
C1105 C1104 1.363 . S
C1105 C1111 1.363 . S
C1106 C1107 1.363 . S
C1106 C1111 1.379 . S
C1106 N1113 1.356 . S
C1107 C1106 1.363 . S
C1107 C1110 1.363 . S
N1108 C1110 1.356 . S
N1108 H1120 0.984 . S
N1108 H1121 0.985 . S
N1109 C1111 1.356 . S
N1109 H1114 0.984 . S
N1109 H1115 0.985 . S
C1110 C1104 1.379 . S
C1110 C1107 1.363 . S
C1110 N1108 1.356 . S
C1111 C1105 1.363 . S
C1111 C1106 1.379 . S
C1111 N1109 1.356 . S
N1112 C1104 1.356 . S
N1112 H1118 0.984 . S
N1112 H1119 0.984 . S
N1113 C1106 1.356 . S
N1113 H1116 0.984 . S
N1113 H1117 0.985 . S
H1114 N1109 0.984 . S
H1115 N1109 0.985 . S
H1116 N1113 0.984 . S
H1117 N1113 0.985 . S
H1118 N1112 0.984 . S
H1119 N1112 0.984 . S
H1120 N1108 0.984 . S
H1121 N1108 0.985 . S
C1122 C1123 1.363 . S
C1122 C1128 1.379 . S
C1122 N1130 1.356 . S
C1123 C1122 1.363 . S
C1123 C1129 1.363 . S
C1124 C1125 1.363 . S
C1124 C1129 1.379 . S
C1124 N1131 1.356 . S
C1125 C1124 1.363 . S
C1125 C1128 1.363 . S
N1126 C1128 1.356 . S
N1126 H1138 0.984 . S
N1126 H1139 0.985 . S
N1127 C1129 1.356 . S
N1127 H1132 0.984 . S
N1127 H1133 0.985 . S
C1128 C1122 1.379 . S
C1128 C1125 1.363 . S
C1128 N1126 1.356 . S
C1129 C1123 1.363 . S
C1129 C1124 1.379 . S
C1129 N1127 1.356 . S
N1130 C1122 1.356 . S
N1130 H1136 0.984 . S
N1130 H1137 0.984 . S
N1131 C1124 1.356 . S
N1131 H1134 0.984 . S
N1131 H1135 0.985 . S
H1132 N1127 0.984 . S
H1133 N1127 0.985 . S
H1134 N1131 0.984 . S
H1135 N1131 0.985 . S
H1136 N1130 0.984 . S
H1137 N1130 0.984 . S
H1138 N1126 0.984 . S
H1139 N1126 0.985 . S
C1140 C1141 1.363 . S
C1140 C1146 1.379 . S
C1140 N1148 1.356 . S
C1141 C1140 1.363 . S
C1141 C1147 1.363 . S
C1142 C1143 1.363 . S
C1142 C1147 1.379 . S
C1142 N1149 1.356 . S
C1143 C1142 1.363 . S
C1143 C1146 1.363 . S
N1144 C1146 1.356 . S
N1144 H1156 0.984 . S
N1144 H1157 0.985 . S
N1145 C1147 1.356 . S
N1145 H1150 0.984 . S
N1145 H1151 0.985 . S
C1146 C1140 1.379 . S
C1146 C1143 1.363 . S
C1146 N1144 1.356 . S
C1147 C1141 1.363 . S
C1147 C1142 1.379 . S
C1147 N1145 1.356 . S
N1148 C1140 1.356 . S
N1148 H1154 0.984 . S
N1148 H1155 0.984 . S
N1149 C1142 1.356 . S
N1149 H1152 0.984 . S
N1149 H1153 0.985 . S
H1150 N1145 0.984 . S
H1151 N1145 0.985 . S
H1152 N1149 0.984 . S
H1153 N1149 0.985 . S
H1154 N1148 0.984 . S
H1155 N1148 0.984 . S
H1156 N1144 0.984 . S
H1157 N1144 0.985 . S
C1158 C1159 1.363 . S
C1158 C1164 1.379 . S
C1158 N1166 1.356 . S
C1159 C1158 1.363 . S
C1159 C1165 1.363 . S
C1160 C1161 1.363 . S
C1160 C1165 1.379 . S
C1160 N1167 1.356 . S
C1161 C1160 1.363 . S
C1161 C1164 1.363 . S
N1162 C1164 1.356 . S
N1162 H1174 0.984 . S
N1162 H1175 0.985 . S
N1163 C1165 1.356 . S
N1163 H1168 0.984 . S
N1163 H1169 0.985 . S
C1164 C1158 1.379 . S
C1164 C1161 1.363 . S
C1164 N1162 1.356 . S
C1165 C1159 1.363 . S
C1165 C1160 1.379 . S
C1165 N1163 1.356 . S
N1166 C1158 1.356 . S
N1166 H1172 0.984 . S
N1166 H1173 0.984 . S
N1167 C1160 1.356 . S
N1167 H1170 0.984 . S
N1167 H1171 0.985 . S
H1168 N1163 0.984 . S
H1169 N1163 0.985 . S
H1170 N1167 0.984 . S
H1171 N1167 0.985 . S
H1172 N1166 0.984 . S
H1173 N1166 0.984 . S
H1174 N1162 0.984 . S
H1175 N1162 0.985 . S
C1176 C1177 1.363 . S
C1176 C1182 1.379 . S
C1176 N1184 1.356 . S
C1177 C1176 1.363 . S
C1177 C1183 1.363 . S
C1178 C1179 1.363 . S
C1178 C1183 1.379 . S
C1178 N1185 1.356 . S
C1179 C1178 1.363 . S
C1179 C1182 1.363 . S
N1180 C1182 1.356 . S
N1180 H1192 0.984 . S
N1180 H1193 0.985 . S
N1181 C1183 1.356 . S
N1181 H1186 0.984 . S
N1181 H1187 0.985 . S
C1182 C1176 1.379 . S
C1182 C1179 1.363 . S
C1182 N1180 1.356 . S
C1183 C1177 1.363 . S
C1183 C1178 1.379 . S
C1183 N1181 1.356 . S
N1184 C1176 1.356 . S
N1184 H1190 0.984 . S
N1184 H1191 0.984 . S
N1185 C1178 1.356 . S
N1185 H1188 0.984 . S
N1185 H1189 0.985 . S
H1186 N1181 0.984 . S
H1187 N1181 0.985 . S
H1188 N1185 0.984 . S
H1189 N1185 0.985 . S
H1190 N1184 0.984 . S
H1191 N1184 0.984 . S
H1192 N1180 0.984 . S
H1193 N1180 0.985 . S
C1194 C1195 1.363 . S
C1194 C1200 1.379 . S
C1194 N1202 1.356 . S
C1195 C1194 1.363 . S
C1195 C1201 1.363 . S
C1196 C1197 1.363 . S
C1196 C1201 1.379 . S
C1196 N1203 1.356 . S
C1197 C1196 1.363 . S
C1197 C1200 1.363 . S
N1198 C1200 1.356 . S
N1198 H1210 0.984 . S
N1198 H1211 0.985 . S
N1199 C1201 1.356 . S
N1199 H1204 0.984 . S
N1199 H1205 0.985 . S
C1200 C1194 1.379 . S
C1200 C1197 1.363 . S
C1200 N1198 1.356 . S
C1201 C1195 1.363 . S
C1201 C1196 1.379 . S
C1201 N1199 1.356 . S
N1202 C1194 1.356 . S
N1202 H1208 0.984 . S
N1202 H1209 0.984 . S
N1203 C1196 1.356 . S
N1203 H1206 0.984 . S
N1203 H1207 0.985 . S
H1204 N1199 0.984 . S
H1205 N1199 0.985 . S
H1206 N1203 0.984 . S
H1207 N1203 0.985 . S
H1208 N1202 0.984 . S
H1209 N1202 0.984 . S
H1210 N1198 0.984 . S
H1211 N1198 0.985 . S
C1212 C1213 1.363 . S
C1212 C1218 1.379 . S
C1212 N1220 1.356 . S
C1213 C1212 1.363 . S
C1213 C1219 1.363 . S
C1214 C1215 1.363 . S
C1214 C1219 1.379 . S
C1214 N1221 1.356 . S
C1215 C1214 1.363 . S
C1215 C1218 1.363 . S
N1216 C1218 1.356 . S
N1216 H1228 0.984 . S
N1216 H1229 0.985 . S
N1217 C1219 1.356 . S
N1217 H1222 0.984 . S
N1217 H1223 0.985 . S
C1218 C1212 1.379 . S
C1218 C1215 1.363 . S
C1218 N1216 1.356 . S
C1219 C1213 1.363 . S
C1219 C1214 1.379 . S
C1219 N1217 1.356 . S
N1220 C1212 1.356 . S
N1220 H1226 0.984 . S
N1220 H1227 0.984 . S
N1221 C1214 1.356 . S
N1221 H1224 0.984 . S
N1221 H1225 0.985 . S
H1222 N1217 0.984 . S
H1223 N1217 0.985 . S
H1224 N1221 0.984 . S
H1225 N1221 0.985 . S
H1226 N1220 0.984 . S
H1227 N1220 0.984 . S
H1228 N1216 0.984 . S
H1229 N1216 0.985 . S
C1230 C1231 1.363 . S
C1230 C1236 1.379 . S
C1230 N1238 1.356 . S
C1231 C1230 1.363 . S
C1231 C1237 1.363 . S
C1232 C1233 1.363 . S
C1232 C1237 1.379 . S
C1232 N1239 1.356 . S
C1233 C1232 1.363 . S
C1233 C1236 1.363 . S
N1234 C1236 1.356 . S
N1234 H1246 0.984 . S
N1234 H1247 0.985 . S
N1235 C1237 1.356 . S
N1235 H1240 0.984 . S
N1235 H1241 0.985 . S
C1236 C1230 1.379 . S
C1236 C1233 1.363 . S
C1236 N1234 1.356 . S
C1237 C1231 1.363 . S
C1237 C1232 1.379 . S
C1237 N1235 1.356 . S
N1238 C1230 1.356 . S
N1238 H1244 0.984 . S
N1238 H1245 0.984 . S
N1239 C1232 1.356 . S
N1239 H1242 0.984 . S
N1239 H1243 0.985 . S
H1240 N1235 0.984 . S
H1241 N1235 0.985 . S
H1242 N1239 0.984 . S
H1243 N1239 0.985 . S
H1244 N1238 0.984 . S
H1245 N1238 0.984 . S
H1246 N1234 0.984 . S
H1247 N1234 0.985 . S
C529 C8 1.867 . S
C531 C206 1.867 . S
C547 C239 1.867 . S
C549 C41 1.867 . S
C565 C140 1.867 . S
C567 C74 1.867 . S
C583 C173 1.867 . S
C585 C107 1.867 . S
C601 C272 1.867 . S
C603 C470 1.867 . S
C619 C305 1.867 . S
C621 C503 1.867 . S
C637 C404 1.867 . S
C639 C338 1.867 . S
C655 C371 1.867 . S
C657 C437 1.867 . S
C673 N269 2.236 1_545 S
C675 N5 2.236 1_565 S
C691 N302 2.237 . S
C693 N38 2.237 . S
C709 N335 2.237 . S
C711 N71 2.237 . S
C727 N368 2.236 1_455 S
C729 N104 2.236 1_655 S
C745 N401 2.237 . S
C747 N137 2.237 . S
C763 N434 2.236 1_455 S
C765 N170 2.236 1_655 S
C781 N203 2.236 1_565 S
C783 N467 2.236 1_545 S
C799 N236 2.237 . S
C801 N500 2.237 . S
C817 C314 1.085 . S
C819 C28 1.128 . S
C835 C347 1.085 . S
C837 C61 1.128 . S
C853 C380 1.085 . S
C855 C94 1.128 . S
C871 C281 1.085 . S
C873 C127 1.128 . S
C889 C160 1.128 . S
C891 C512 1.085 . S
C907 C193 1.128 . S
C909 C413 1.085 . S
C925 C226 1.128 . S
C927 C446 1.085 . S
C943 C259 1.128 . S
C945 C479 1.085 . S
C961 C50 1.085 . S
C963 C292 1.128 . S
C979 C83 1.085 . S
C981 C325 1.128 . S
C997 C116 1.085 . S
C999 C358 1.128 . S
C1015 C17 1.085 . S
C1017 C391 1.128 . S
C1033 C248 1.085 . S
C1035 C424 1.128 . S
C1051 C149 1.085 . S
C1053 C457 1.128 . S
C1069 C182 1.085 . S
C1071 C490 1.128 . S
C1087 C523 1.128 . S
C1089 C215 1.085 . S
C1105 N80 0.817 . S
C1107 N14 0.817 . S
C1123 N113 0.817 . S
C1125 N47 0.817 . S
C1141 N146 0.817 . S
C1143 N212 0.817 . S
C1159 N245 0.817 . S
C1161 N179 0.817 . S
C1177 N278 0.817 . S
C1179 N344 0.817 . S
C1195 N377 0.817 . S
C1197 N311 0.817 . S
C1213 N410 0.817 . S
C1215 N476 0.817 . S
C1231 N443 0.817 . S
C1233 N509 0.817 . S
