# Generated by pormake.
# Topology afi, (4)-cn, num edge types: 1
# Building blocks:
#     Node 0, Type 0, BuildingBlock: GALJAG_clean_sbu_0, # of connection points: 4
#     Node 1, Type 0, BuildingBlock: GALJAG_clean_sbu_0, # of connection points: 4
#     Node 2, Type 0, BuildingBlock: GALJAG_clean_sbu_0, # of connection points: 4
#     Node 3, Type 0, BuildingBlock: GALJAG_clean_sbu_0, # of connection points: 4
#     Node 4, Type 0, BuildingBlock: GALJAG_clean_sbu_0, # of connection points: 4
#     Node 5, Type 0, BuildingBlock: GALJAG_clean_sbu_0, # of connection points: 4
#     Node 6, Type 0, BuildingBlock: GALJAG_clean_sbu_0, # of connection points: 4
#     Node 7, Type 0, BuildingBlock: GALJAG_clean_sbu_0, # of connection points: 4
#     Node 8, Type 0, BuildingBlock: GALJAG_clean_sbu_0, # of connection points: 4
#     Node 9, Type 0, BuildingBlock: GALJAG_clean_sbu_0, # of connection points: 4
#     Node 10, Type 0, BuildingBlock: GALJAG_clean_sbu_0, # of connection points: 4
#     Node 11, Type 0, BuildingBlock: GALJAG_clean_sbu_0, # of connection points: 4
#     Node 12, Type 0, BuildingBlock: GALJAG_clean_sbu_0, # of connection points: 4
#     Node 13, Type 0, BuildingBlock: GALJAG_clean_sbu_0, # of connection points: 4
#     Node 14, Type 0, BuildingBlock: GALJAG_clean_sbu_0, # of connection points: 4
#     Node 15, Type 0, BuildingBlock: GALJAG_clean_sbu_0, # of connection points: 4
#     Node 16, Type 0, BuildingBlock: GALJAG_clean_sbu_0, # of connection points: 4
#     Node 17, Type 0, BuildingBlock: GALJAG_clean_sbu_0, # of connection points: 4
#     Node 18, Type 0, BuildingBlock: GALJAG_clean_sbu_0, # of connection points: 4
#     Node 19, Type 0, BuildingBlock: GALJAG_clean_sbu_0, # of connection points: 4
#     Node 20, Type 0, BuildingBlock: GALJAG_clean_sbu_0, # of connection points: 4
#     Node 21, Type 0, BuildingBlock: GALJAG_clean_sbu_0, # of connection points: 4
#     Node 22, Type 0, BuildingBlock: GALJAG_clean_sbu_0, # of connection points: 4
#     Node 23, Type 0, BuildingBlock: GALJAG_clean_sbu_0, # of connection points: 4
#     Edge 24, Type (0, 0), BuildingBlock: KIFKEQ_clean_linker_1, # of connection points: 2
#     Edge 25, Type (0, 0), BuildingBlock: KIFKEQ_clean_linker_1, # of connection points: 2
#     Edge 26, Type (0, 0), BuildingBlock: KIFKEQ_clean_linker_1, # of connection points: 2
#     Edge 27, Type (0, 0), BuildingBlock: KIFKEQ_clean_linker_1, # of connection points: 2
#     Edge 28, Type (0, 0), BuildingBlock: KIFKEQ_clean_linker_1, # of connection points: 2
#     Edge 29, Type (0, 0), BuildingBlock: KIFKEQ_clean_linker_1, # of connection points: 2
#     Edge 30, Type (0, 0), BuildingBlock: KIFKEQ_clean_linker_1, # of connection points: 2
#     Edge 31, Type (0, 0), BuildingBlock: KIFKEQ_clean_linker_1, # of connection points: 2
#     Edge 32, Type (0, 0), BuildingBlock: KIFKEQ_clean_linker_1, # of connection points: 2
#     Edge 33, Type (0, 0), BuildingBlock: KIFKEQ_clean_linker_1, # of connection points: 2
#     Edge 34, Type (0, 0), BuildingBlock: KIFKEQ_clean_linker_1, # of connection points: 2
#     Edge 35, Type (0, 0), BuildingBlock: KIFKEQ_clean_linker_1, # of connection points: 2
#     Edge 36, Type (0, 0), BuildingBlock: KIFKEQ_clean_linker_1, # of connection points: 2
#     Edge 37, Type (0, 0), BuildingBlock: KIFKEQ_clean_linker_1, # of connection points: 2
#     Edge 38, Type (0, 0), BuildingBlock: KIFKEQ_clean_linker_1, # of connection points: 2
#     Edge 39, Type (0, 0), BuildingBlock: KIFKEQ_clean_linker_1, # of connection points: 2
#     Edge 40, Type (0, 0), BuildingBlock: KIFKEQ_clean_linker_1, # of connection points: 2
#     Edge 41, Type (0, 0), BuildingBlock: KIFKEQ_clean_linker_1, # of connection points: 2
#     Edge 42, Type (0, 0), BuildingBlock: KIFKEQ_clean_linker_1, # of connection points: 2
#     Edge 43, Type (0, 0), BuildingBlock: KIFKEQ_clean_linker_1, # of connection points: 2
#     Edge 44, Type (0, 0), BuildingBlock: KIFKEQ_clean_linker_1, # of connection points: 2
#     Edge 45, Type (0, 0), BuildingBlock: KIFKEQ_clean_linker_1, # of connection points: 2
#     Edge 46, Type (0, 0), BuildingBlock: KIFKEQ_clean_linker_1, # of connection points: 2
#     Edge 47, Type (0, 0), BuildingBlock: KIFKEQ_clean_linker_1, # of connection points: 2
#     Edge 48, Type (0, 0), BuildingBlock: KIFKEQ_clean_linker_1, # of connection points: 2
#     Edge 49, Type (0, 0), BuildingBlock: KIFKEQ_clean_linker_1, # of connection points: 2
#     Edge 50, Type (0, 0), BuildingBlock: KIFKEQ_clean_linker_1, # of connection points: 2
#     Edge 51, Type (0, 0), BuildingBlock: KIFKEQ_clean_linker_1, # of connection points: 2
#     Edge 52, Type (0, 0), BuildingBlock: KIFKEQ_clean_linker_1, # of connection points: 2
#     Edge 53, Type (0, 0), BuildingBlock: KIFKEQ_clean_linker_1, # of connection points: 2
#     Edge 54, Type (0, 0), BuildingBlock: KIFKEQ_clean_linker_1, # of connection points: 2
#     Edge 55, Type (0, 0), BuildingBlock: KIFKEQ_clean_linker_1, # of connection points: 2
#     Edge 56, Type (0, 0), BuildingBlock: KIFKEQ_clean_linker_1, # of connection points: 2
#     Edge 57, Type (0, 0), BuildingBlock: KIFKEQ_clean_linker_1, # of connection points: 2
#     Edge 58, Type (0, 0), BuildingBlock: KIFKEQ_clean_linker_1, # of connection points: 2
#     Edge 59, Type (0, 0), BuildingBlock: KIFKEQ_clean_linker_1, # of connection points: 2
#     Edge 60, Type (0, 0), BuildingBlock: KIFKEQ_clean_linker_1, # of connection points: 2
#     Edge 61, Type (0, 0), BuildingBlock: KIFKEQ_clean_linker_1, # of connection points: 2
#     Edge 62, Type (0, 0), BuildingBlock: KIFKEQ_clean_linker_1, # of connection points: 2
#     Edge 63, Type (0, 0), BuildingBlock: KIFKEQ_clean_linker_1, # of connection points: 2
#     Edge 64, Type (0, 0), BuildingBlock: KIFKEQ_clean_linker_1, # of connection points: 2
#     Edge 65, Type (0, 0), BuildingBlock: KIFKEQ_clean_linker_1, # of connection points: 2
#     Edge 66, Type (0, 0), BuildingBlock: KIFKEQ_clean_linker_1, # of connection points: 2
#     Edge 67, Type (0, 0), BuildingBlock: KIFKEQ_clean_linker_1, # of connection points: 2
#     Edge 68, Type (0, 0), BuildingBlock: KIFKEQ_clean_linker_1, # of connection points: 2
#     Edge 69, Type (0, 0), BuildingBlock: KIFKEQ_clean_linker_1, # of connection points: 2
#     Edge 70, Type (0, 0), BuildingBlock: KIFKEQ_clean_linker_1, # of connection points: 2
#     Edge 71, Type (0, 0), BuildingBlock: KIFKEQ_clean_linker_1, # of connection points: 2
# Relax obj value: 0.135
# Max RMSD: 0.138
# Mean RMSD: 0.138
data_MOF--net-afi--node1-GALJAG_clean_sbu_0--edge1-KIFKEQ_clean_linker_1
_symmetry_space_group_name_H-M    P1
_symmetry_Int_Tables_number       1
_symmetry_cell_setting            triclinic
loop_
_symmetry_equiv_pos_as_xyz
'x, y, z'
_cell_length_a     69.080421
_cell_length_b     69.025282
_cell_length_c     40.816612
_cell_angle_alpha  90.063604
_cell_angle_beta   89.933885
_cell_angle_gamma 119.99589
loop_
_atom_site_label
_atom_site_type_symbol
_atom_site_fract_x
_atom_site_fract_y
_atom_site_fract_z
_atom_type_partial_charge
In0 In 0.46099 0.1261 0.18727 0.0
O1 O 0.47694 0.13875 0.13734 0.0
O2 O 0.44149 0.12055 0.1395 0.0
C3 C 0.49881 0.12773 0.20839 0.0
C4 C 0.4584 0.16164 0.2103 0.0
C5 C 0.43168 0.08364 0.20595 0.0
O6 O 0.49464 0.1284 0.17848 0.0
O7 O 0.48387 0.12621 0.22781 0.0
O8 O 0.4349 0.10045 0.22249 0.0
O9 O 0.44293 0.08828 0.17989 0.0
C10 C 0.45875 0.13074 0.1219 0.0
O11 O 0.44138 0.14372 0.20142 0.0
O12 O 0.4765 0.16152 0.20774 0.0
In13 In 0.33687 0.45893 0.1908 0.0
O14 O 0.30115 0.43953 0.2116 0.0
O15 O 0.31576 0.47451 0.20505 0.0
C16 C 0.35139 0.43027 0.20633 0.0
C17 C 0.32972 0.45561 0.12541 0.0
C18 C 0.37242 0.49632 0.2148 0.0
O19 O 0.33664 0.43156 0.22294 0.0
O20 O 0.35836 0.44304 0.18177 0.0
O21 O 0.3673 0.49362 0.18486 0.0
O22 O 0.35942 0.48022 0.23297 0.0
C23 C 0.29893 0.45653 0.21402 0.0
O24 O 0.34087 0.47398 0.14015 0.0
O25 O 0.32174 0.43861 0.14373 0.0
In26 In 0.88034 0.33641 0.19591 0.0
O27 O 0.88223 0.34987 0.14463 0.0
O28 O 0.87816 0.31736 0.14865 0.0
C29 C 0.87484 0.36989 0.22002 0.0
C30 C 0.84472 0.29775 0.21706 0.0
C31 C 0.92261 0.34865 0.21413 0.0
O32 O 0.86716 0.36076 0.19271 0.0
O33 O 0.88505 0.36193 0.23556 0.0
O34 O 0.90587 0.33663 0.23192 0.0
O35 O 0.91798 0.3542 0.18711 0.0
C36 C 0.88003 0.33279 0.13001 0.0
O37 O 0.86415 0.30044 0.21557 0.0
O38 O 0.84336 0.31448 0.20808 0.0
In39 In 0.54818 0.8787 0.18603 0.0
O40 O 0.53453 0.86867 0.13462 0.0
O41 O 0.5696 0.8899 0.13916 0.0
C42 C 0.5079 0.8707 0.20786 0.0
C43 C 0.55267 0.84408 0.20812 0.0
C44 C 0.57493 0.9216 0.20523 0.0
O45 O 0.51377 0.87454 0.17824 0.0
O46 O 0.52228 0.87053 0.22677 0.0
O47 O 0.58224 0.90819 0.20193 0.0
O48 O 0.55455 0.91343 0.19838 0.0
C49 C 0.5531 0.87933 0.12029 0.0
O50 O 0.56129 0.86264 0.22279 0.0
O51 O 0.54198 0.84314 0.18266 0.0
In52 In 0.67187 0.54804 0.1864 0.0
O53 O 0.70302 0.56394 0.21912 0.0
O54 O 0.6999 0.53973 0.18427 0.0
C55 C 0.6602 0.57658 0.21378 0.0
C56 C 0.67422 0.55146 0.12036 0.0
C57 C 0.63819 0.50696 0.20265 0.0
O58 O 0.66968 0.58019 0.18624 0.0
O59 O 0.65722 0.55903 0.22772 0.0
O60 O 0.63559 0.5201 0.1841 0.0
O61 O 0.65788 0.5145 0.21305 0.0
C62 C 0.71142 0.55305 0.20674 0.0
O63 O 0.65898 0.53486 0.1353 0.0
O64 O 0.68838 0.56664 0.13874 0.0
In65 In 0.12423 0.67044 0.19157 0.0
O66 O 0.12419 0.65673 0.14089 0.0
O67 O 0.12462 0.68766 0.14333 0.0
C68 C 0.12712 0.63448 0.21079 0.0
C69 C 0.16061 0.70921 0.20998 0.0
C70 C 0.08512 0.66242 0.21873 0.0
O71 O 0.11158 0.63298 0.19287 0.0
O72 O 0.14128 0.65417 0.2192 0.0
O73 O 0.10098 0.6634 0.23529 0.0
O74 O 0.08925 0.66625 0.18858 0.0
C75 C 0.12454 0.67269 0.12545 0.0
O76 O 0.14108 0.70405 0.21874 0.0
O77 O 0.16169 0.69488 0.19209 0.0
In78 In 0.88366 0.55041 0.31428 0.0
O79 O 0.86509 0.55634 0.27223 0.0
O80 O 0.85209 0.55293 0.32014 0.0
C81 C 0.92693 0.57938 0.29918 0.0
C82 C 0.88195 0.5541 0.37972 0.0
C83 C 0.87589 0.50971 0.29403 0.0
O84 O 0.91163 0.58395 0.29418 0.0
O85 O 0.9204 0.56049 0.31191 0.0
O86 O 0.87739 0.51515 0.32375 0.0
O87 O 0.87796 0.52468 0.27431 0.0
C88 C 0.85004 0.55589 0.29024 0.0
O89 O 0.87055 0.5359 0.36451 0.0
O90 O 0.89417 0.57076 0.3618 0.0
In91 In 0.33914 0.88295 0.30758 0.0
O92 O 0.35261 0.88536 0.35901 0.0
O93 O 0.31983 0.88048 0.35465 0.0
C94 C 0.37254 0.87685 0.28502 0.0
C95 C 0.30068 0.84733 0.28596 0.0
C96 C 0.35164 0.92505 0.2878 0.0
O97 O 0.36529 0.88761 0.26923 0.0
O98 O 0.36283 0.86901 0.31197 0.0
O99 O 0.34012 0.90811 0.27007 0.0
O100 O 0.35647 0.92069 0.31557 0.0
C101 C 0.33535 0.88279 0.37346 0.0
O102 O 0.30275 0.86642 0.28965 0.0
O103 O 0.3179 0.84633 0.29299 0.0
In104 In 0.462 0.33958 0.30799 0.0
O105 O 0.47338 0.35494 0.35855 0.0
O106 O 0.44281 0.32419 0.35575 0.0
C107 C 0.50256 0.36787 0.28245 0.0
C108 C 0.45796 0.30006 0.28919 0.0
C109 C 0.43525 0.35536 0.28697 0.0
O110 O 0.49919 0.36445 0.31284 0.0
O111 O 0.48554 0.35651 0.26478 0.0
O112 O 0.42767 0.33491 0.29318 0.0
O113 O 0.45594 0.3675 0.29156 0.0
C114 C 0.457 0.33963 0.37374 0.0
O115 O 0.44767 0.30848 0.275 0.0
O116 O 0.47006 0.31147 0.31277 0.0
In117 In 0.12345 0.45779 0.31222 0.0
O118 O 0.14041 0.43886 0.29217 0.0
O119 O 0.16089 0.47325 0.30377 0.0
C120 C 0.08143 0.42709 0.29349 0.0
C121 C 0.12304 0.45444 0.3781 0.0
C122 C 0.12884 0.49658 0.2875 0.0
O123 O 0.09826 0.43261 0.27549 0.0
O124 O 0.08588 0.43664 0.32099 0.0
O125 O 0.1341 0.49476 0.3164 0.0
O126 O 0.12115 0.4789 0.27074 0.0
C127 C 0.15988 0.4556 0.29323 0.0
O128 O 0.11888 0.46793 0.36318 0.0
O129 O 0.12726 0.44226 0.35974 0.0
In130 In 0.66909 0.12058 0.31353 0.0
O131 O 0.70458 0.13763 0.29193 0.0
O132 O 0.69125 0.15812 0.30649 0.0
C133 C 0.65611 0.07818 0.29491 0.0
C134 C 0.67205 0.11915 0.37939 0.0
C135 C 0.63656 0.12675 0.28751 0.0
O136 O 0.67096 0.09495 0.2796 0.0
O137 O 0.64837 0.08291 0.31969 0.0
O138 O 0.64416 0.13303 0.31598 0.0
O139 O 0.64569 0.11774 0.27171 0.0
C140 C 0.70755 0.15716 0.29444 0.0
O141 O 0.65517 0.11729 0.36473 0.0
O142 O 0.68778 0.12171 0.36078 0.0
In143 In 0.55143 0.66896 0.31372 0.0
O144 O 0.53538 0.66598 0.36345 0.0
O145 O 0.57083 0.68228 0.36168 0.0
C146 C 0.51375 0.63206 0.29353 0.0
C147 C 0.55395 0.707 0.29048 0.0
C148 C 0.58117 0.65641 0.29512 0.0
O149 O 0.51733 0.63811 0.32311 0.0
O150 O 0.5292 0.64455 0.27409 0.0
O151 O 0.5761 0.66803 0.27705 0.0
O152 O 0.57155 0.65147 0.32261 0.0
C153 C 0.55354 0.67565 0.37909 0.0
O154 O 0.57091 0.70638 0.30034 0.0
O155 O 0.53601 0.68858 0.29208 0.0
In156 In 0.55115 0.88328 0.80787 0.0
O157 O 0.53954 0.88469 0.85919 0.0
O158 O 0.56929 0.883 0.855 0.0
C159 C 0.51255 0.87741 0.78194 0.0
C160 C 0.55332 0.84693 0.788 0.0
C161 C 0.58013 0.92608 0.79062 0.0
O162 O 0.51384 0.87098 0.8103 0.0
O163 O 0.53068 0.88641 0.76613 0.0
O164 O 0.57866 0.90967 0.77478 0.0
O165 O 0.56741 0.92081 0.81516 0.0
C166 C 0.55527 0.88405 0.87373 0.0
O167 O 0.56984 0.8665 0.78598 0.0
O168 O 0.53596 0.84583 0.79987 0.0
In169 In 0.67141 0.54658 0.80813 0.0
O170 O 0.70745 0.5665 0.78867 0.0
O171 O 0.69386 0.53189 0.79801 0.0
C172 C 0.65769 0.57532 0.78912 0.0
C173 C 0.67777 0.55011 0.87362 0.0
C174 C 0.63658 0.50856 0.78417 0.0
O175 O 0.67159 0.57247 0.77274 0.0
O176 O 0.65103 0.56394 0.81505 0.0
O177 O 0.63882 0.51359 0.81415 0.0
O178 O 0.65192 0.52275 0.76604 0.0
C179 C 0.71045 0.54991 0.78851 0.0
O180 O 0.66813 0.53164 0.85874 0.0
O181 O 0.68459 0.56707 0.85541 0.0
In182 In 0.12815 0.67206 0.81252 0.0
O183 O 0.14391 0.70542 0.78454 0.0
O184 O 0.16525 0.6979 0.81227 0.0
C185 C 0.08814 0.66338 0.78861 0.0
C186 C 0.12981 0.67547 0.87846 0.0
C187 C 0.12918 0.63533 0.79148 0.0
O188 O 0.10456 0.66774 0.77026 0.0
O189 O 0.09217 0.66413 0.81886 0.0
O190 O 0.11434 0.63436 0.81046 0.0
O191 O 0.14366 0.65487 0.78305 0.0
C192 C 0.16358 0.71157 0.79375 0.0
O193 O 0.13547 0.66327 0.86296 0.0
O194 O 0.12339 0.68614 0.86069 0.0
In195 In 0.46158 0.12656 0.80968 0.0
O196 O 0.44044 0.14339 0.80087 0.0
O197 O 0.47185 0.157 0.77722 0.0
C198 C 0.43518 0.08379 0.78971 0.0
C199 C 0.4583 0.12988 0.87528 0.0
C200 C 0.50209 0.13352 0.79118 0.0
O201 O 0.43081 0.09901 0.78269 0.0
O202 O 0.45245 0.09014 0.80692 0.0
O203 O 0.49778 0.13613 0.8204 0.0
O204 O 0.48606 0.12763 0.77141 0.0
C205 C 0.45463 0.15842 0.78238 0.0
O206 O 0.47355 0.14518 0.85838 0.0
O207 O 0.44462 0.11297 0.85911 0.0
In208 In 0.33703 0.45582 0.813 0.0
O209 O 0.30089 0.43658 0.79409 0.0
O210 O 0.31615 0.47175 0.79927 0.0
C211 C 0.34809 0.42488 0.79432 0.0
C212 C 0.33316 0.45294 0.87887 0.0
C213 C 0.37161 0.49482 0.79097 0.0
O214 O 0.33936 0.43257 0.77497 0.0
O215 O 0.35078 0.43243 0.82308 0.0
O216 O 0.36304 0.49279 0.81893 0.0
O217 O 0.3626 0.47723 0.77388 0.0
C218 C 0.29898 0.45373 0.79123 0.0
O219 O 0.35104 0.46628 0.86428 0.0
O220 O 0.31702 0.44071 0.86019 0.0
In221 In 0.88581 0.33864 0.81831 0.0
O222 O 0.86793 0.30105 0.80641 0.0
O223 O 0.85206 0.31932 0.79279 0.0
C224 C 0.92826 0.35169 0.80009 0.0
C225 C 0.88041 0.33112 0.88353 0.0
C226 C 0.88416 0.375 0.79797 0.0
O227 O 0.91154 0.33604 0.78579 0.0
O228 O 0.92351 0.36045 0.82357 0.0
O229 O 0.88287 0.36964 0.82777 0.0
O230 O 0.88626 0.36201 0.77837 0.0
C231 C 0.85116 0.30065 0.79349 0.0
O232 O 0.86965 0.33811 0.86722 0.0
O233 O 0.89375 0.32761 0.86689 0.0
In234 In 0.12583 0.45811 0.69098 0.0
O235 O 0.1415 0.43993 0.71749 0.0
O236 O 0.16308 0.47032 0.69298 0.0
C237 C 0.0858 0.42718 0.71558 0.0
C238 C 0.1277 0.45636 0.625 0.0
C239 C 0.12745 0.49612 0.71204 0.0
O240 O 0.1024 0.43918 0.73361 0.0
O241 O 0.08962 0.4303 0.68527 0.0
O242 O 0.11252 0.48242 0.69301 0.0
O243 O 0.14165 0.49072 0.72054 0.0
C244 C 0.16132 0.4543 0.71 0.0
O245 O 0.13231 0.47399 0.64043 0.0
O246 O 0.12221 0.43948 0.64286 0.0
In247 In 0.67354 0.12811 0.69188 0.0
O248 O 0.66537 0.13406 0.64047 0.0
O249 O 0.68509 0.11848 0.64484 0.0
C250 C 0.64316 0.13792 0.71682 0.0
C251 C 0.71322 0.1627 0.71235 0.0
C252 C 0.65675 0.08476 0.70901 0.0
O253 O 0.64718 0.13843 0.68661 0.0
O254 O 0.65487 0.13291 0.73483 0.0
O255 O 0.67754 0.09825 0.70746 0.0
O256 O 0.64476 0.09308 0.70153 0.0
C257 C 0.6757 0.1258 0.62602 0.0
O258 O 0.70293 0.14466 0.72818 0.0
O259 O 0.7036 0.16315 0.68647 0.0
In260 In 0.54902 0.66809 0.69156 0.0
O261 O 0.53796 0.65469 0.64015 0.0
O262 O 0.56585 0.68753 0.64456 0.0
C263 C 0.51002 0.63426 0.71497 0.0
C264 C 0.55152 0.70673 0.71173 0.0
C265 C 0.57903 0.65583 0.71024 0.0
O266 O 0.51216 0.64182 0.6863 0.0
O267 O 0.52748 0.644 0.7322 0.0
O268 O 0.57341 0.66694 0.72853 0.0
O269 O 0.56988 0.65133 0.68246 0.0
C270 C 0.55262 0.67199 0.62573 0.0
O271 O 0.56831 0.70409 0.71121 0.0
O272 O 0.53363 0.68996 0.70223 0.0
In273 In 0.88732 0.55066 0.69206 0.0
O274 O 0.87032 0.56902 0.7142 0.0
O275 O 0.8499 0.53496 0.701 0.0
C276 C 0.92991 0.58103 0.70812 0.0
C277 C 0.88685 0.55424 0.62619 0.0
C278 C 0.88267 0.51266 0.71866 0.0
O279 O 0.91334 0.57911 0.724 0.0
O280 O 0.92494 0.56786 0.68414 0.0
O281 O 0.87596 0.51352 0.69031 0.0
O282 O 0.89144 0.53095 0.7341 0.0
C283 C 0.85086 0.55231 0.71268 0.0
O284 O 0.88802 0.53872 0.64056 0.0
O285 O 0.886 0.5683 0.64508 0.0
In286 In 0.33962 0.88302 0.68503 0.0
O287 O 0.33883 0.86795 0.63513 0.0
O288 O 0.3278 0.89157 0.63745 0.0
C289 C 0.37481 0.87944 0.70558 0.0
C290 C 0.30175 0.8486 0.71054 0.0
C291 C 0.35556 0.926 0.70356 0.0
O292 O 0.36988 0.87898 0.67573 0.0
O293 O 0.3619 0.88163 0.72527 0.0
O294 O 0.33818 0.91005 0.71615 0.0
O295 O 0.36448 0.92023 0.68155 0.0
C296 C 0.33149 0.87877 0.61981 0.0
O297 O 0.30311 0.8669 0.7026 0.0
O298 O 0.31939 0.84788 0.70593 0.0
In299 In 0.45818 0.33622 0.68669 0.0
O300 O 0.44482 0.30603 0.72172 0.0
O301 O 0.46195 0.30549 0.67912 0.0
C302 C 0.4294 0.34744 0.71412 0.0
C303 C 0.45586 0.33632 0.62067 0.0
C304 C 0.49856 0.37089 0.70343 0.0
O305 O 0.42441 0.33516 0.68904 0.0
O306 O 0.44851 0.3535 0.72559 0.0
O307 O 0.48599 0.37251 0.68256 0.0
O308 O 0.49086 0.35165 0.7158 0.0
C309 C 0.45191 0.29556 0.70488 0.0
O310 O 0.47398 0.3435 0.6361 0.0
O311 O 0.43869 0.32903 0.63856 0.0
H312 H 0.42232 0.04529 0.17385 0.0
H313 H 0.40791 0.06938 0.26307 0.0
H314 H 0.40053 0.00697 0.19368 0.0
H315 H 0.38574 0.03093 0.28278 0.0
H316 H 0.37652 0.96367 0.32204 0.0
H317 H 0.39345 1.00192 0.30178 0.0
H318 H 0.36286 0.97716 0.20725 0.0
H319 H 0.34619 0.9388 0.22744 0.0
C320 C 0.41425 0.04237 0.19755 0.0
C321 C 0.41692 0.06035 0.21698 0.0
C322 C 0.40164 0.02038 0.20884 0.0
C323 C 0.39142 0.01587 0.23986 0.0
C324 C 0.39362 0.03385 0.25894 0.0
C325 C 0.40621 0.05586 0.24759 0.0
C326 C 0.37323 0.9664 0.29703 0.0
C327 C 0.36013 0.94823 0.27628 0.0
C328 C 0.38282 0.98834 0.28546 0.0
C329 C 0.37958 0.99262 0.25285 0.0
C330 C 0.36592 0.97443 0.23237 0.0
C331 C 0.35627 0.95246 0.24398 0.0
H332 H 0.38951 0.33447 0.28189 0.0
H333 H 0.44994 0.39734 0.26429 0.0
H334 H 0.36727 0.35056 0.26099 0.0
H335 H 0.4279 0.41323 0.24357 0.0
H336 H 0.38508 0.42757 0.17618 0.0
H337 H 0.40378 0.40758 0.19471 0.0
H338 H 0.35866 0.38147 0.2771 0.0
H339 H 0.33978 0.40153 0.25845 0.0
C340 C 0.39801 0.35166 0.27355 0.0
C341 C 0.42145 0.36464 0.27466 0.0
C342 C 0.3853 0.36087 0.26173 0.0
C343 C 0.39588 0.38309 0.25042 0.0
C344 C 0.4193 0.39597 0.25164 0.0
C345 C 0.43191 0.38689 0.26371 0.0
C346 C 0.37897 0.41739 0.19806 0.0
C347 C 0.36107 0.41626 0.21601 0.0
C348 C 0.38975 0.40602 0.20874 0.0
C349 C 0.38282 0.39315 0.23752 0.0
C350 C 0.36429 0.39119 0.25475 0.0
C351 C 0.35356 0.40273 0.24415 0.0
H352 H 0.9609 0.37573 0.1805 0.0
H353 H 0.93687 0.34016 0.27197 0.0
H354 H 0.99926 0.39193 0.1998 0.0
H355 H 0.97535 0.35601 0.2911 0.0
H356 H 0.04311 0.41407 0.32798 0.0
H357 H 1.00479 0.39253 0.30834 0.0
H358 H 0.02885 0.38436 0.21448 0.0
H359 H 0.06732 0.4064 0.23403 0.0
C360 C 0.96384 0.37112 0.20458 0.0
C361 C 0.94587 0.35679 0.22481 0.0
C362 C 0.98586 0.3803 0.21557 0.0
C363 C 0.99041 0.37534 0.24706 0.0
C364 C 0.97242 0.36042 0.26689 0.0
C365 C 0.95038 0.35125 0.25588 0.0
C366 C 0.04021 0.40747 0.30327 0.0
C367 C 0.05822 0.41203 0.28248 0.0
C368 C 0.01822 0.395 0.29205 0.0
C369 C 0.01372 0.38677 0.25977 0.0
C370 C 0.03175 0.39072 0.23933 0.0
C371 C 0.05378 0.40321 0.25058 0.0
H372 H 0.56016 0.94981 0.22306 0.0
H373 H 0.62034 0.94562 0.21524 0.0
H374 H 0.58171 0.98738 0.24548 0.0
H375 H 0.6421 0.98368 0.23764 0.0
H376 H 0.6701 0.06295 0.24297 0.0
H377 H 0.65199 0.02466 0.22125 0.0
H378 H 0.6032 1.00289 0.29906 0.0
H379 H 0.62119 0.04082 0.32081 0.0
C380 C 0.57804 0.95696 0.22599 0.0
C381 C 0.58856 0.94474 0.2175 0.0
C382 C 0.59035 0.97844 0.239 0.0
C383 C 0.61352 0.98833 0.24354 0.0
C384 C 0.62424 0.9764 0.23433 0.0
C385 C 0.61181 0.95466 0.22164 0.0
C386 C 0.65569 0.04989 0.25563 0.0
C387 C 0.64696 0.0549 0.28344 0.0
C388 C 0.6454 0.02802 0.24327 0.0
C389 C 0.62609 0.01093 0.25832 0.0
C390 C 0.6179 0.01583 0.28677 0.0
C391 C 0.62827 0.03753 0.29927 0.0
H392 H 0.60001 0.63772 0.33283 0.0
H393 H 0.59574 0.65592 0.23307 0.0
H394 H 0.62214 0.62116 0.31475 0.0
H395 H 0.61699 0.63846 0.21459 0.0
H396 H 0.6677 0.61721 0.19167 0.0
H397 H 0.65157 0.63918 0.21277 0.0
H398 H 0.6164 0.58895 0.28707 0.0
H399 H 0.63326 0.56769 0.26687 0.0
C400 C 0.60385 0.63819 0.30701 0.0
C401 C 0.59606 0.648 0.28434 0.0
C402 C 0.61641 0.62856 0.29656 0.0
C403 C 0.62119 0.62818 0.26311 0.0
C404 C 0.61392 0.63863 0.24057 0.0
C405 C 0.6016 0.64855 0.25112 0.0
C406 C 0.65673 0.61107 0.21276 0.0
C407 C 0.65175 0.59075 0.22763 0.0
C408 C 0.64734 0.62356 0.22473 0.0
C409 C 0.63257 0.61587 0.25162 0.0
C410 C 0.62798 0.59569 0.26674 0.0
C411 C 0.63755 0.58337 0.25502 0.0
H412 H 0.07201 0.65105 0.28218 0.0
H413 H 0.04768 0.65655 0.18719 0.0
H414 H 0.03411 0.6339 0.30404 0.0
H415 H 0.00969 0.63909 0.20896 0.0
H416 H 0.94485 0.61881 0.26502 0.0
H417 H 0.98381 0.64239 0.24778 0.0
H418 H 1.00097 0.59712 0.29534 0.0
H419 H 0.96235 0.57383 0.3127 0.0
C420 C 0.05861 0.64887 0.26608 0.0
C421 C 0.06278 0.65497 0.2329 0.0
C422 C 0.03688 0.63893 0.27855 0.0
C423 C 0.01886 0.6349 0.25814 0.0
C424 C 0.02322 0.64209 0.22537 0.0
C425 C 0.04497 0.65201 0.21286 0.0
C426 C 0.95704 0.61406 0.27199 0.0
C427 C 0.95056 0.59446 0.29013 0.0
C428 C 0.97929 0.62749 0.26202 0.0
C429 C 0.99549 0.62166 0.27027 0.0
C430 C 0.98901 0.60229 0.289 0.0
C431 C 0.96682 0.58884 0.29876 0.0
H432 H 0.5815 0.96272 0.81757 0.0
H433 H 0.61019 0.94257 0.73979 0.0
H434 H 0.60155 1.00109 0.79764 0.0
H435 H 0.6305 0.98132 0.71992 0.0
H436 H 0.67788 0.06048 0.7188 0.0
H437 H 0.66108 0.02186 0.73901 0.0
H438 H 0.59682 0.01796 0.74446 0.0
H439 H 0.61336 0.05612 0.72416 0.0
C440 C 0.59229 0.96653 0.79641 0.0
C441 C 0.59415 0.9496 0.78009 0.0
C442 C 0.60369 0.98849 0.78494 0.0
C443 C 0.61739 0.9941 0.75708 0.0
C444 C 0.62007 0.97741 0.74151 0.0
C445 C 0.60842 0.95528 0.75281 0.0
C446 C 0.66016 0.05128 0.7242 0.0
C447 C 0.64694 0.06131 0.72001 0.0
C448 C 0.65057 0.02922 0.73563 0.0
C449 C 0.62771 0.01705 0.74353 0.0
C450 C 0.61453 0.02706 0.73895 0.0
C451 C 0.624 0.04888 0.72716 0.0
H452 H 0.66715 0.59938 0.73225 0.0
H453 H 0.6285 0.58424 0.82139 0.0
H454 H 0.65089 0.6217 0.71314 0.0
H455 H 0.61203 0.60617 0.80217 0.0
H456 H 0.59837 0.66083 0.77036 0.0
H457 H 0.62011 0.64403 0.78967 0.0
H458 H 0.61426 0.61437 0.69429 0.0
H459 H 0.59289 0.63146 0.67491 0.0
C460 C 0.65529 0.60093 0.74783 0.0
C461 C 0.64904 0.59 0.77826 0.0
C462 C 0.6459 0.61362 0.73683 0.0
C463 C 0.63012 0.61569 0.75609 0.0
C464 C 0.62434 0.60519 0.78689 0.0
C465 C 0.63367 0.59248 0.79782 0.0
C466 C 0.60197 0.65094 0.75344 0.0
C467 C 0.59384 0.64737 0.72118 0.0
C468 C 0.61431 0.64121 0.76454 0.0
C469 C 0.61881 0.62774 0.74358 0.0
C470 C 0.6113 0.62483 0.71098 0.0
C471 C 0.59894 0.63452 0.69992 0.0
H472 H 0.94515 0.61203 0.75748 0.0
H473 H 0.96754 0.58479 0.68063 0.0
H474 H 0.98379 0.63572 0.77537 0.0
H475 H 0.00593 0.60779 0.69903 0.0
H476 H 0.07529 0.66113 0.72475 0.0
H477 H 0.03723 0.64464 0.70367 0.0
H478 H 0.01169 0.63102 0.80276 0.0
H479 H 0.04968 0.64817 0.8237 0.0
C480 C 0.95834 0.61119 0.74434 0.0
C481 C 0.95332 0.5965 0.71776 0.0
C482 C 0.98047 0.62466 0.75468 0.0
C483 C 0.99802 0.62364 0.73875 0.0
C484 C 0.99295 0.60933 0.7116 0.0
C485 C 0.97088 0.59598 0.70118 0.0
C486 C 0.06154 0.65493 0.74199 0.0
C487 C 0.06545 0.65583 0.77585 0.0
C488 C 0.03971 0.64533 0.72993 0.0
C489 C 0.02132 0.63627 0.75148 0.0
C490 C 0.02539 0.63804 0.78541 0.0
C491 C 0.0472 0.64776 0.79745 0.0
H492 H 0.44703 0.05181 0.79111 0.0
H493 H 0.39362 0.06326 0.76115 0.0
H494 H 0.42646 0.01385 0.76951 0.0
H495 H 0.37276 0.02482 0.73986 0.0
H496 H 0.3371 0.94443 0.74363 0.0
H497 H 0.35515 0.98303 0.76424 0.0
H498 H 0.41479 0.99866 0.70979 0.0
H499 H 0.39683 0.96047 0.68888 0.0
C500 C 0.43081 0.04616 0.7801 0.0
C501 C 0.42195 0.06053 0.77771 0.0
C502 C 0.4191 0.02446 0.76763 0.0
C503 C 0.39811 0.0165 0.75291 0.0
C504 C 0.38891 0.0306 0.7512 0.0
C505 C 0.40085 0.05255 0.76324 0.0
C506 C 0.35398 0.9562 0.73589 0.0
C507 C 0.36559 0.94944 0.71475 0.0
C508 C 0.36424 0.97825 0.74755 0.0
C509 C 0.38637 0.9937 0.73871 0.0
C510 C 0.39778 0.987 0.71717 0.0
C511 C 0.38745 0.96516 0.70513 0.0
H512 H 0.34921 0.41071 0.73215 0.0
H513 H 0.36556 0.40503 0.83246 0.0
H514 H 0.36666 0.38931 0.71405 0.0
H515 H 0.38245 0.38313 0.81456 0.0
H516 H 0.4382 0.37535 0.766 0.0
H517 H 0.41606 0.3913 0.7861 0.0
H518 H 0.3653 0.35351 0.71376 0.0
H519 H 0.3879 0.33791 0.69303 0.0
C520 C 0.35618 0.40454 0.75038 0.0
C521 C 0.3562 0.40971 0.78368 0.0
C522 C 0.36609 0.39217 0.74004 0.0
C523 C 0.37615 0.38465 0.76282 0.0
C524 C 0.37524 0.38902 0.79629 0.0
C525 C 0.36544 0.40145 0.80658 0.0
C526 C 0.42222 0.37026 0.75456 0.0
C527 C 0.41482 0.35542 0.72788 0.0
C528 C 0.40943 0.3793 0.76624 0.0
C529 C 0.38885 0.37368 0.75159 0.0
C530 C 0.38118 0.35839 0.72536 0.0
C531 C 0.39404 0.34935 0.71361 0.0
H532 H 0.04704 0.40357 0.68124 0.0
H533 H 0.07336 0.41742 0.77973 0.0
H534 H 0.00917 0.38299 0.70293 0.0
H535 H 0.03546 0.39622 0.80155 0.0
H536 H 0.96604 0.38664 0.82535 0.0
H537 H 1.00421 0.40208 0.80585 0.0
H538 H 0.98155 0.35052 0.73173 0.0
H539 H 0.9431 0.33542 0.75081 0.0
C540 C 0.04474 0.40184 0.70755 0.0
C541 C 0.06316 0.41226 0.7288 0.0
C542 C 0.02301 0.38992 0.72001 0.0
C543 C 0.01921 0.38808 0.75403 0.0
C544 C 0.03775 0.39766 0.77523 0.0
C545 C 0.05948 0.40968 0.76275 0.0
C546 C 0.96921 0.37849 0.80504 0.0
C547 C 0.95156 0.35989 0.7895 0.0
C548 C 0.99116 0.38724 0.79399 0.0
C549 C 0.99602 0.37756 0.7672 0.0
C550 C 0.97838 0.35857 0.75216 0.0
C551 C 0.95637 0.34985 0.76318 0.0
H552 H 0.493 0.20103 0.23211 0.0
H553 H 0.42171 0.16683 0.21567 0.0
H554 H 0.49191 0.23384 0.25146 0.0
H555 H 0.42055 0.1997 0.23557 0.0
H556 H 0.43383 0.27278 0.23831 0.0
H557 H 0.43313 0.23874 0.21966 0.0
H558 H 0.47809 0.2455 0.29801 0.0
H559 H 0.47905 0.27958 0.31626 0.0
C560 C 0.47706 0.20049 0.23278 0.0
C561 C 0.45744 0.18134 0.22242 0.0
C562 C 0.47642 0.21926 0.24406 0.0
C563 C 0.45613 0.21937 0.24521 0.0
C564 C 0.43647 0.20022 0.23473 0.0
C565 C 0.43711 0.18136 0.22351 0.0
C566 C 0.44347 0.26691 0.25158 0.0
C567 C 0.45658 0.2789 0.27863 0.0
C568 C 0.44299 0.24736 0.24102 0.0
C569 C 0.45566 0.23948 0.25724 0.0
C570 C 0.46843 0.25131 0.28465 0.0
C571 C 0.46888 0.27078 0.29522 0.0
H572 H 0.2033 0.48812 0.3006 0.0
H573 H 0.1619 0.4214 0.2624 0.0
H574 H 0.23661 0.48755 0.28273 0.0
H575 H 0.19529 0.42105 0.24338 0.0
H576 H 0.26175 0.4208 0.24046 0.0
H577 H 0.22799 0.41992 0.26077 0.0
H578 H 0.2557 0.48933 0.23353 0.0
H579 H 0.28951 0.49033 0.21441 0.0
C580 C 0.20132 0.47335 0.28822 0.0
C581 C 0.17999 0.45484 0.28278 0.0
C582 C 0.22043 0.47306 0.27777 0.0
C583 C 0.21869 0.45433 0.26131 0.0
C584 C 0.1973 0.43567 0.25626 0.0
C585 C 0.17815 0.4359 0.26697 0.0
C586 C 0.26057 0.43584 0.23894 0.0
C587 C 0.2783 0.45566 0.22602 0.0
C588 C 0.24119 0.43533 0.25038 0.0
C589 C 0.23912 0.45459 0.24897 0.0
C590 C 0.25684 0.4743 0.23567 0.0
C591 C 0.27621 0.47485 0.22448 0.0
H592 H 0.74353 0.15963 0.26218 0.0
H593 H 0.71833 0.20047 0.30306 0.0
H594 H 0.77702 0.19335 0.24322 0.0
H595 H 0.7519 0.23405 0.2851 0.0
H596 H 0.80133 0.28773 0.2171 0.0
H597 H 0.76868 0.25345 0.23549 0.0
H598 H 0.81089 0.22617 0.26157 0.0
H599 H 0.84361 0.26041 0.24214 0.0
C600 C 0.74524 0.17581 0.26732 0.0
C601 C 0.72826 0.17742 0.28392 0.0
C602 C 0.76446 0.19514 0.25663 0.0
C603 C 0.76711 0.21644 0.26243 0.0
C604 C 0.75024 0.21794 0.2796 0.0
C605 C 0.73104 0.19868 0.29009 0.0
C606 C 0.80365 0.27442 0.22673 0.0
C607 C 0.82503 0.27678 0.22827 0.0
C608 C 0.78494 0.25479 0.23748 0.0
C609 C 0.78714 0.23707 0.25028 0.0
C610 C 0.80855 0.23938 0.25157 0.0
C611 C 0.82731 0.25904 0.24063 0.0
H612 H 0.57471 0.84151 0.26231 0.0
H613 H 0.5344 0.80289 0.18025 0.0
H614 H 0.57596 0.80868 0.28225 0.0
H615 H 0.53586 0.77037 0.19984 0.0
H616 H 0.51955 0.71091 0.26578 0.0
H617 H 0.52027 0.74455 0.24616 0.0
H618 H 0.59081 0.78333 0.26795 0.0
H619 H 0.59002 0.7495 0.28804 0.0
C620 C 0.56625 0.82607 0.24846 0.0
C621 C 0.55435 0.82472 0.21984 0.0
C622 C 0.56706 0.80733 0.25977 0.0
C623 C 0.55588 0.7869 0.24273 0.0
C624 C 0.54434 0.78575 0.21381 0.0
C625 C 0.5436 0.80443 0.2025 0.0
C626 C 0.53523 0.72659 0.26636 0.0
C627 C 0.55475 0.72756 0.27834 0.0
C628 C 0.53567 0.74586 0.25496 0.0
C629 C 0.55563 0.76658 0.25534 0.0
C630 C 0.57515 0.76762 0.26757 0.0
C631 C 0.57473 0.74826 0.27887 0.0
H632 H 0.73306 0.53245 0.18167 0.0
H633 H 0.73799 0.57863 0.25712 0.0
H634 H 0.76754 0.53488 0.20124 0.0
H635 H 0.77272 0.58131 0.27648 0.0
H636 H 0.81659 0.55617 0.32524 0.0
H637 H 0.784 0.55702 0.30428 0.0
H638 H 0.80794 0.5608 0.20534 0.0
H639 H 0.84047 0.55963 0.22637 0.0
C640 C 0.74161 0.54324 0.20231 0.0
C641 C 0.73279 0.55528 0.21795 0.0
C642 C 0.76145 0.54476 0.21338 0.0
C643 C 0.77288 0.55829 0.24042 0.0
C644 C 0.76418 0.57055 0.25581 0.0
C645 C 0.74435 0.5691 0.24464 0.0
C646 C 0.81497 0.55733 0.29902 0.0
C647 C 0.83104 0.55776 0.27742 0.0
C648 C 0.79636 0.55795 0.28702 0.0
C649 C 0.79335 0.55895 0.25314 0.0
C650 C 0.80965 0.55977 0.23156 0.0
C651 C 0.82832 0.55922 0.24359 0.0
H652 H 0.20371 0.72367 0.19242 0.0
H653 H 0.16302 0.74201 0.25048 0.0
H654 H 0.23718 0.75758 0.20994 0.0
H655 H 0.19668 0.77586 0.26865 0.0
H656 H 0.26124 0.84497 0.2686 0.0
H657 H 0.22703 0.81205 0.24941 0.0
H658 H 0.25893 0.77216 0.25937 0.0
H659 H 0.29305 0.80499 0.2778 0.0
C660 C 0.20193 0.73495 0.20899 0.0
C661 C 0.18075 0.73014 0.22018 0.0
C662 C 0.22113 0.75434 0.21918 0.0
C663 C 0.21964 0.76937 0.2409 0.0
C664 C 0.19839 0.76474 0.25169 0.0
C665 C 0.17913 0.7453 0.24144 0.0
C666 C 0.26089 0.82915 0.2666 0.0
C667 C 0.27984 0.82757 0.27456 0.0
C668 C 0.24128 0.81028 0.2558 0.0
C669 C 0.24027 0.78949 0.2527 0.0
C670 C 0.25923 0.78798 0.26091 0.0
C671 C 0.27877 0.80678 0.27167 0.0
H672 H 0.51811 0.71671 0.70986 0.0
H673 H 0.58722 0.74409 0.73775 0.0
H674 H 0.51932 0.75093 0.72772 0.0
H675 H 0.58831 0.77827 0.75661 0.0
H676 H 0.58734 0.84472 0.75683 0.0
H677 H 0.58749 0.81115 0.7379 0.0
H678 H 0.52099 0.77012 0.77719 0.0
H679 H 0.52065 0.80355 0.79512 0.0
C680 C 0.53355 0.73003 0.71999 0.0
C681 C 0.55254 0.72769 0.72251 0.0
C682 C 0.53422 0.74963 0.73042 0.0
C683 C 0.55387 0.76734 0.74387 0.0
C684 C 0.57297 0.76506 0.7461 0.0
C685 C 0.57232 0.74544 0.73548 0.0
C686 C 0.57279 0.8285 0.76138 0.0
C687 C 0.55394 0.82677 0.77728 0.0
C688 C 0.57291 0.80926 0.75071 0.0
C689 C 0.55419 0.7879 0.75582 0.0
C690 C 0.53552 0.78628 0.77222 0.0
C691 C 0.53537 0.80546 0.78271 0.0
H692 H 0.74745 0.5856 0.76156 0.0
H693 H 0.7211 0.51703 0.79198 0.0
H694 H 0.78175 0.58686 0.7429 0.0
H695 H 0.7554 0.51844 0.77436 0.0
H696 H 0.80759 0.51917 0.70683 0.0
H697 H 0.77416 0.51946 0.72474 0.0
H698 H 0.81497 0.58669 0.76177 0.0
H699 H 0.84854 0.58658 0.74286 0.0
C700 C 0.74906 0.57087 0.76444 0.0
C701 C 0.73155 0.55118 0.77802 0.0
C702 C 0.76874 0.57162 0.75394 0.0
C703 C 0.7713 0.5527 0.75691 0.0
C704 C 0.75385 0.53317 0.77105 0.0
C705 C 0.73422 0.5324 0.78135 0.0
C706 C 0.80944 0.53403 0.71876 0.0
C707 C 0.83069 0.55282 0.72356 0.0
C708 C 0.79027 0.53416 0.72922 0.0
C709 C 0.79184 0.55304 0.74497 0.0
C710 C 0.81313 0.57195 0.74947 0.0
C711 C 0.83236 0.57185 0.73883 0.0
H712 H 0.26153 0.84582 0.72408 0.0
H713 H 0.29553 0.80766 0.72635 0.0
H714 H 0.2277 0.81349 0.74559 0.0
H715 H 0.26183 0.77539 0.74694 0.0
H716 H 0.20651 0.72883 0.81432 0.0
H717 H 0.23945 0.76278 0.79566 0.0
H718 H 0.19838 0.77597 0.72996 0.0
H719 H 0.16519 0.74212 0.74938 0.0
C720 C 0.26175 0.83054 0.72912 0.0
C721 C 0.28119 0.8293 0.72367 0.0
C722 C 0.24236 0.81199 0.74125 0.0
C723 C 0.24207 0.79187 0.74816 0.0
C724 C 0.26155 0.79072 0.74251 0.0
C725 C 0.28087 0.8092 0.73049 0.0
C726 C 0.20447 0.73902 0.79601 0.0
C727 C 0.18329 0.73275 0.78317 0.0
C728 C 0.22339 0.75843 0.78516 0.0
C729 C 0.22162 0.77201 0.76105 0.0
C730 C 0.20032 0.76599 0.74873 0.0
C731 C 0.18133 0.74655 0.75971 0.0
H732 H 0.43581 0.27322 0.76286 0.0
H733 H 0.46271 0.26898 0.66929 0.0
H734 H 0.43471 0.23881 0.78038 0.0
H735 H 0.46105 0.2344 0.68632 0.0
H736 H 0.4837 0.19229 0.74308 0.0
H737 H 0.48118 0.22422 0.72372 0.0
H738 H 0.41724 0.19853 0.77193 0.0
H739 H 0.42008 0.16663 0.79204 0.0
C740 C 0.44121 0.26478 0.74591 0.0
C741 C 0.44953 0.27388 0.71483 0.0
C742 C 0.44047 0.245 0.75585 0.0
C743 C 0.44797 0.23392 0.73485 0.0
C744 C 0.45556 0.24272 0.70336 0.0
C745 C 0.4564 0.26249 0.69352 0.0
C746 C 0.46902 0.19334 0.74939 0.0
C747 C 0.45209 0.17694 0.76908 0.0
C748 C 0.4675 0.21161 0.73812 0.0
C749 C 0.44896 0.21394 0.74615 0.0
C750 C 0.43185 0.19736 0.76556 0.0
C751 C 0.43339 0.17902 0.77689 0.0
H752 H 0.16235 0.42276 0.7495 0.0
H753 H 0.20488 0.48297 0.69497 0.0
H754 H 0.19539 0.42194 0.76917 0.0
H755 H 0.23771 0.48193 0.71398 0.0
H756 H 0.29161 0.48871 0.78436 0.0
H757 H 0.258 0.48794 0.7647 0.0
H758 H 0.22621 0.4164 0.75109 0.0
H759 H 0.25987 0.41714 0.77149 0.0
C760 C 0.17873 0.4357 0.74154 0.0
C761 C 0.18104 0.453 0.72086 0.0
C762 C 0.19764 0.43518 0.75266 0.0
C763 C 0.21921 0.45196 0.74333 0.0
C764 C 0.22139 0.46898 0.72213 0.0
C765 C 0.20255 0.4695 0.71107 0.0
C766 C 0.27746 0.4728 0.7772 0.0
C767 C 0.2784 0.45299 0.77938 0.0
C768 C 0.25822 0.47237 0.76573 0.0
C769 C 0.23945 0.45213 0.7561 0.0
C770 C 0.24031 0.43224 0.75857 0.0
C771 C 0.25962 0.43268 0.77008 0.0
H772 H 0.8143 0.29686 0.76349 0.0
H773 H 0.844 0.25788 0.79518 0.0
H774 H 0.78168 0.26301 0.74374 0.0
H775 H 0.81132 0.22385 0.7749 0.0
H776 H 0.73692 0.16661 0.76819 0.0
H777 H 0.77103 0.19966 0.78735 0.0
H778 H 0.77157 0.23542 0.70023 0.0
H779 H 0.73747 0.20267 0.68144 0.0
C780 C 0.81391 0.28105 0.76606 0.0
C781 C 0.83173 0.28003 0.78083 0.0
C782 C 0.79526 0.26165 0.75458 0.0
C783 C 0.79394 0.24074 0.75762 0.0
C784 C 0.81177 0.23969 0.77244 0.0
C785 C 0.83052 0.25917 0.78387 0.0
C786 C 0.74442 0.18152 0.75312 0.0
C787 C 0.73446 0.18211 0.72343 0.0
C788 C 0.764 0.20039 0.76399 0.0
C789 C 0.77392 0.22021 0.74541 0.0
C790 C 0.76415 0.22055 0.71539 0.0
C791 C 0.74466 0.20173 0.70454 0.0
H792 H 0.49391 0.14942 0.07967 0.0
H793 H 0.42179 0.11547 0.08285 0.0
H794 H 0.49286 0.15012 0.02013 0.0
H795 H 0.4207 0.11668 0.02306 0.0
H796 H 0.4285 0.09796 0.91691 0.0
H797 H 0.42792 0.09938 0.97658 0.0
H798 H 0.48442 0.16665 0.97449 0.0
H799 H 0.48533 0.16497 0.91486 0.0
C800 C 0.47782 0.14234 0.06762 0.0
C801 C 0.45793 0.13234 0.0859 0.0
C802 C 0.47722 0.14287 0.03347 0.0
C803 C 0.45669 0.13347 0.01678 0.0
C804 C 0.43678 0.12381 0.03514 0.0
C805 C 0.43739 0.12324 0.06937 0.0
C806 C 0.44071 0.11309 0.92922 0.0
C807 C 0.45705 0.1313 0.91126 0.0
C808 C 0.44029 0.11397 0.96341 0.0
C809 C 0.45618 0.13311 0.98035 0.0
C810 C 0.47216 0.15153 0.96224 0.0
C811 C 0.47261 0.15062 0.92807 0.0
H812 H 0.29693 0.42532 0.91683 0.0
H813 H 0.36553 0.4789 0.92244 0.0
H814 H 0.29426 0.42525 0.97672 0.0
H815 H 0.36296 0.47865 0.98186 0.0
H816 H 0.34467 0.49031 0.08272 0.0
H817 H 0.34394 0.48884 0.02316 0.0
H818 H 0.30947 0.41664 0.02672 0.0
H819 H 0.30991 0.41812 0.0867 0.0
C820 C 0.31143 0.43699 0.93085 0.0
C821 C 0.33141 0.45217 0.91498 0.0
C822 C 0.30993 0.4369 0.96509 0.0
C823 C 0.32834 0.45208 0.98398 0.0
C824 C 0.34835 0.46702 0.96799 0.0
C825 C 0.34987 0.46706 0.93393 0.0
C826 C 0.33677 0.4741 0.07085 0.0
C827 C 0.32748 0.45433 0.08937 0.0
C828 C 0.33647 0.47327 0.03671 0.0
C829 C 0.3269 0.45264 0.02024 0.0
C830 C 0.31688 0.43279 0.03873 0.0
C831 C 0.31719 0.43363 0.07303 0.0
H832 H 0.85429 0.33974 0.92403 0.0
H833 H 0.90227 0.31696 0.92421 0.0
H834 H 0.85313 0.33843 0.9837 0.0
H835 H 0.90128 0.31589 0.9841 0.0
H836 H 0.87777 0.29896 0.09202 0.0
H837 H 0.87647 0.29656 0.03208 0.0
H838 H 0.8799 0.36072 0.02703 0.0
H839 H 0.881 0.36302 0.08653 0.0
C840 C 0.86448 0.33431 0.93682 0.0
C841 C 0.87848 0.32859 0.91949 0.0
C842 C 0.8639 0.33367 0.971 0.0
C843 C 0.87727 0.32725 0.98858 0.0
C844 C 0.89069 0.32077 0.97121 0.0
C845 C 0.89134 0.32149 0.93695 0.0
C846 C 0.87822 0.3125 0.07802 0.0
C847 C 0.87945 0.33115 0.09392 0.0
C848 C 0.87756 0.31117 0.04377 0.0
C849 C 0.87793 0.32838 0.02489 0.0
C850 C 0.87921 0.34702 0.0409 0.0
C851 C 0.88 0.3484 0.075 0.0
H852 H 0.59068 0.90245 0.08228 0.0
H853 H 0.51952 0.85666 0.07687 0.0
H854 H 0.59258 0.90399 0.02224 0.0
H855 H 0.52147 0.85793 0.01744 0.0
H856 H 0.52707 0.88709 0.91686 0.0
H857 H 0.52803 0.88628 0.97628 0.0
H858 H 0.5874 0.88043 0.97219 0.0
H859 H 0.58662 0.88159 0.91213 0.0
C860 C 0.57552 0.89261 0.06829 0.0
C861 C 0.55492 0.8796 0.08422 0.0
C862 C 0.57662 0.89341 0.03399 0.0
C863 C 0.55713 0.88127 0.01516 0.0
C864 C 0.53671 0.86782 0.03125 0.0
C865 C 0.53561 0.86701 0.06533 0.0
C866 C 0.54038 0.88568 0.92855 0.0
C867 C 0.55668 0.88424 0.90984 0.0
C868 C 0.54087 0.88511 0.96263 0.0
C869 C 0.55764 0.88303 0.97891 0.0
C870 C 0.57431 0.88212 0.96028 0.0
C871 C 0.57381 0.88267 0.92598 0.0
H872 H 0.64419 0.5216 0.07725 0.0
H873 H 0.70707 0.58368 0.08193 0.0
H874 H 0.64639 0.52232 0.01779 0.0
H875 H 0.70959 0.58416 0.02208 0.0
H876 H 0.69229 0.58718 0.91253 0.0
H877 H 0.6922 0.58842 0.97245 0.0
H878 H 0.66787 0.51733 0.97567 0.0
H879 H 0.66742 0.51603 0.91611 0.0
C880 C 0.65853 0.53539 0.06554 0.0
C881 C 0.6755 0.55254 0.08424 0.0
C882 C 0.65988 0.53573 0.03143 0.0
C883 C 0.67829 0.55317 0.01516 0.0
C884 C 0.69512 0.57056 0.03386 0.0
C885 C 0.69374 0.57024 0.0681 0.0
C886 C 0.68709 0.57188 0.92613 0.0
C887 C 0.67969 0.55148 0.90969 0.0
C888 C 0.68711 0.5726 0.96042 0.0
C889 C 0.67978 0.55293 0.97884 0.0
C890 C 0.67314 0.5327 0.96224 0.0
C891 C 0.67303 0.53198 0.92809 0.0
H892 H 0.14767 0.65816 0.92063 0.0
H893 H 0.11248 0.69515 0.91779 0.0
H894 H 0.14703 0.65859 0.98023 0.0
H895 H 0.11109 0.69493 0.97759 0.0
H896 H 0.13088 0.70755 0.08627 0.0
H897 H 0.1331 0.70937 0.02648 0.0
H898 H 0.12094 0.64157 0.02359 0.0
H899 H 0.11951 0.64011 0.08309 0.0
C900 C 0.13974 0.66634 0.9328 0.0
C901 C 0.13005 0.67655 0.91459 0.0
C902 C 0.13922 0.66646 0.96698 0.0
C903 C 0.1288 0.6766 0.98378 0.0
C904 C 0.11944 0.68716 0.96549 0.0
C905 C 0.12013 0.68719 0.93123 0.0
C906 C 0.12868 0.69307 0.07276 0.0
C907 C 0.12512 0.67373 0.08931 0.0
C908 C 0.12984 0.69406 0.03852 0.0
C909 C 0.12734 0.67566 0.02017 0.0
C910 C 0.12343 0.65622 0.03688 0.0
C911 C 0.12244 0.65531 0.07102 0.0
H912 H 0.88706 0.52475 0.58241 0.0
H913 H 0.88534 0.58636 0.58854 0.0
H914 H 0.88543 0.52581 0.523 0.0
H915 H 0.88346 0.5873 0.52862 0.0
H916 H 0.90589 0.59074 0.41896 0.0
H917 H 0.90683 0.59174 0.47895 0.0
H918 H 0.85776 0.52131 0.48154 0.0
H919 H 0.85703 0.52024 0.42195 0.0
C920 C 0.8863 0.53852 0.57104 0.0
C921 C 0.88624 0.55543 0.59012 0.0
C922 C 0.88523 0.53906 0.53699 0.0
C923 C 0.88411 0.55653 0.52116 0.0
C924 C 0.8844 0.57368 0.54017 0.0
C925 C 0.88538 0.57309 0.57441 0.0
C926 C 0.89521 0.57554 0.43242 0.0
C927 C 0.88152 0.55538 0.4158 0.0
C928 C 0.89568 0.57614 0.46671 0.0
C929 C 0.88253 0.55656 0.48491 0.0
C930 C 0.86838 0.53659 0.46819 0.0
C931 C 0.86788 0.536 0.43404 0.0
H932 H 0.34036 0.8536 0.57782 0.0
H933 H 0.31733 0.90138 0.58051 0.0
H934 H 0.33969 0.85392 0.51819 0.0
H935 H 0.31683 0.90182 0.52052 0.0
H936 H 0.30101 0.87971 0.41108 0.0
H937 H 0.29806 0.87764 0.47099 0.0
H938 H 0.36272 0.88236 0.47671 0.0
H939 H 0.3656 0.88428 0.41726 0.0
C940 C 0.33499 0.86405 0.56566 0.0
C941 C 0.32904 0.87759 0.58381 0.0
C942 C 0.33472 0.86432 0.5315 0.0
C943 C 0.32845 0.87808 0.51471 0.0
C944 C 0.32165 0.89098 0.53283 0.0
C945 C 0.32201 0.89079 0.56712 0.0
C946 C 0.31457 0.88033 0.42522 0.0
C947 C 0.3335 0.88209 0.40953 0.0
C948 C 0.31292 0.87923 0.45945 0.0
C949 C 0.33008 0.87966 0.47848 0.0
C950 C 0.34906 0.88161 0.46268 0.0
C951 C 0.35077 0.88286 0.42863 0.0
H952 H 0.41928 0.32336 0.58135 0.0
H953 H 0.49065 0.34975 0.57836 0.0
H954 H 0.41847 0.32444 0.52144 0.0
H955 H 0.4898 0.3504 0.51882 0.0
H956 H 0.48541 0.37166 0.41607 0.0
H957 H 0.48407 0.37097 0.47564 0.0
H958 H 0.42369 0.30646 0.47281 0.0
H959 H 0.42481 0.30738 0.41289 0.0
C960 C 0.43475 0.3293 0.56789 0.0
C961 C 0.45504 0.33655 0.58451 0.0
C962 C 0.43428 0.32982 0.53362 0.0
C963 C 0.45409 0.33763 0.51537 0.0
C964 C 0.4743 0.34468 0.53213 0.0
C965 C 0.47477 0.34417 0.56627 0.0
C966 C 0.47176 0.35738 0.42813 0.0
C967 C 0.45527 0.33952 0.40983 0.0
C968 C 0.47107 0.35692 0.46229 0.0
C969 C 0.4539 0.33855 0.479 0.0
C970 C 0.43705 0.32091 0.46067 0.0
C971 C 0.43774 0.32139 0.42639 0.0
H972 H 0.1146 0.41973 0.58571 0.0
H973 H 0.14167 0.49125 0.58273 0.0
H974 H 0.11339 0.41847 0.52583 0.0
H975 H 0.14102 0.49012 0.52314 0.0
H976 H 0.11195 0.47738 0.42105 0.0
H977 H 0.11332 0.4771 0.48052 0.0
H978 H 0.1367 0.42959 0.47661 0.0
H979 H 0.13478 0.42949 0.41672 0.0
C980 C 0.12048 0.43519 0.57225 0.0
C981 C 0.12808 0.45557 0.58886 0.0
C982 C 0.11989 0.43449 0.53797 0.0
C983 C 0.12693 0.45417 0.5197 0.0
C984 C 0.13504 0.47459 0.53645 0.0
C985 C 0.13555 0.47527 0.57061 0.0
C986 C 0.11732 0.46681 0.43284 0.0
C987 C 0.12333 0.45351 0.41424 0.0
C988 C 0.11826 0.46677 0.46696 0.0
C989 C 0.12535 0.4535 0.48335 0.0
C990 C 0.13103 0.43989 0.46474 0.0
C991 C 0.13002 0.43989 0.43048 0.0
H992 H 0.63897 0.11138 0.42233 0.0
H993 H 0.70747 0.12603 0.41796 0.0
H994 H 0.6406 0.11229 0.48178 0.0
H995 H 0.70928 0.1274 0.47797 0.0
H996 H 0.69446 0.10661 0.58811 0.0
H997 H 0.69418 0.1042 0.52815 0.0
H998 H 0.65883 0.141 0.52305 0.0
H999 H 0.6587 0.14299 0.58244 0.0
C1000 C 0.65442 0.11481 0.43411 0.0
C1001 C 0.67315 0.11879 0.4155 0.0
C1002 C 0.65539 0.11546 0.46821 0.0
C1003 C 0.67516 0.1202 0.4846 0.0
C1004 C 0.69378 0.12361 0.46604 0.0
C1005 C 0.69279 0.12292 0.43173 0.0
C1006 C 0.68668 0.11418 0.57406 0.0
C1007 C 0.67645 0.12482 0.58993 0.0
C1008 C 0.68661 0.1129 0.53979 0.0
C1009 C 0.67628 0.12221 0.52088 0.0
C1010 C 0.66651 0.13324 0.53689 0.0
C1011 C 0.66655 0.13449 0.57096 0.0
H1012 H 0.59025 0.69312 0.41908 0.0
H1013 H 0.51834 0.66277 0.4205 0.0
H1014 H 0.59073 0.6935 0.47903 0.0
H1015 H 0.51885 0.66349 0.48013 0.0
H1016 H 0.5253 0.64059 0.5819 0.0
H1017 H 0.52629 0.64318 0.52247 0.0
H1018 H 0.58323 0.71002 0.52817 0.0
H1019 H 0.58242 0.70728 0.58806 0.0
C1020 C 0.57459 0.68679 0.4322 0.0
C1021 C 0.55424 0.67776 0.41515 0.0
C1022 C 0.57488 0.68709 0.46649 0.0
C1023 C 0.5548 0.67832 0.48431 0.0
C1024 C 0.53456 0.66999 0.46713 0.0
C1025 C 0.53428 0.6697 0.43295 0.0
C1026 C 0.53806 0.65585 0.57053 0.0
C1027 C 0.55376 0.67376 0.58963 0.0
C1028 C 0.53853 0.6574 0.53645 0.0
C1029 C 0.55471 0.67689 0.52061 0.0
C1030 C 0.57063 0.69475 0.53968 0.0
C1031 C 0.57012 0.69321 0.57392 0.0
H1032 H 0.50992 0.12297 0.27083 0.0
H1033 H 0.53449 0.13444 0.17132 0.0
H1034 H 0.54385 0.12365 0.28916 0.0
H1035 H 0.5687 0.13576 0.18969 0.0
H1036 H 0.61447 0.11062 0.2296 0.0
H1037 H 0.58151 0.11148 0.21028 0.0
H1038 H 0.58324 0.1485 0.29677 0.0
H1039 H 0.6158 0.14708 0.31644 0.0
C1040 C 0.52266 0.1258 0.25292 0.0
C1041 C 0.51954 0.12859 0.21965 0.0
C1042 C 0.54217 0.12634 0.26343 0.0
C1043 C 0.55905 0.12979 0.2409 0.0
C1044 C 0.55593 0.13275 0.20763 0.0
C1045 C 0.53638 0.13211 0.19712 0.0
C1046 C 0.60788 0.11906 0.24435 0.0
C1047 C 0.61766 0.12871 0.27456 0.0
C1048 C 0.58904 0.11964 0.23323 0.0
C1049 C 0.57963 0.12997 0.25205 0.0
C1050 C 0.58979 0.14007 0.28194 0.0
C1051 C 0.60856 0.1394 0.2931 0.0
H1052 H 0.50478 0.61258 0.23313 0.0
H1053 H 0.47585 0.60654 0.32903 0.0
H1054 H 0.47054 0.57971 0.21482 0.0
H1055 H 0.44123 0.57415 0.31047 0.0
H1056 H 0.3909 0.50331 0.2759 0.0
H1057 H 0.42514 0.53591 0.29519 0.0
H1058 H 0.43292 0.56768 0.20105 0.0
H1059 H 0.39923 0.53477 0.18155 0.0
C1060 C 0.49102 0.60428 0.25023 0.0
C1061 C 0.49298 0.6121 0.28249 0.0
C1062 C 0.47131 0.58552 0.2397 0.0
C1063 C 0.45301 0.57427 0.2611 0.0
C1064 C 0.45505 0.58216 0.29343 0.0
C1065 C 0.47485 0.60081 0.30404 0.0
C1066 C 0.39993 0.51731 0.25942 0.0
C1067 C 0.39245 0.51648 0.2272 0.0
C1068 C 0.4195 0.53606 0.2705 0.0
C1069 C 0.43191 0.55445 0.24966 0.0
C1070 C 0.4241 0.55369 0.2176 0.0
C1071 C 0.40467 0.53488 0.20647 0.0
H1072 H 0.87642 0.49584 0.23151 0.0
H1073 H 0.86945 0.47472 0.33249 0.0
H1074 H 0.87473 0.46117 0.21431 0.0
H1075 H 0.86716 0.4398 0.31532 0.0
H1076 H 0.89296 0.39448 0.27551 0.0
H1077 H 0.8916 0.42747 0.29351 0.0
H1078 H 0.85051 0.42125 0.20993 0.0
H1079 H 0.85238 0.38859 0.19153 0.0
C1080 C 0.87424 0.48365 0.24998 0.0
C1081 C 0.87316 0.48803 0.28333 0.0
C1082 C 0.87316 0.46372 0.24014 0.0
C1083 C 0.8709 0.44771 0.26345 0.0
C1084 C 0.86928 0.45191 0.29677 0.0
C1085 C 0.87043 0.47186 0.30659 0.0
C1086 C 0.88353 0.40009 0.26111 0.0
C1087 C 0.87284 0.38901 0.23207 0.0
C1088 C 0.88264 0.41894 0.2715 0.0
C1089 C 0.87097 0.42706 0.25313 0.0
C1090 C 0.85992 0.41566 0.2244 0.0
C1091 C 0.86087 0.39686 0.21396 0.0
H1092 H 0.47333 0.8664 0.17068 0.0
H1093 H 0.49448 0.87008 0.27112 0.0
H1094 H 0.43951 0.86581 0.1891 0.0
H1095 H 0.46091 0.8702 0.28965 0.0
H1096 H 0.38935 0.85251 0.31326 0.0
H1097 H 0.42081 0.84862 0.29449 0.0
H1098 H 0.42984 0.89171 0.21217 0.0
H1099 H 0.39805 0.89503 0.23045 0.0
C1100 C 0.47069 0.867 0.19674 0.0
C1101 C 0.48658 0.86838 0.21947 0.0
C1102 C 0.45138 0.86684 0.2073 0.0
C1103 C 0.44758 0.86822 0.24084 0.0
C1104 C 0.46319 0.86891 0.26365 0.0
C1105 C 0.48247 0.86893 0.25306 0.0
C1106 C 0.39801 0.86104 0.29105 0.0
C1107 C 0.39125 0.87406 0.27329 0.0
C1108 C 0.41611 0.85892 0.2804 0.0
C1109 C 0.42788 0.86983 0.25181 0.0
C1110 C 0.42095 0.88275 0.23399 0.0
C1111 C 0.40281 0.88478 0.24456 0.0
H1112 H 0.6391 0.47632 0.24411 0.0
H1113 H 0.59492 0.48761 0.18245 0.0
H1114 H 0.60757 0.44046 0.26139 0.0
H1115 H 0.56345 0.4521 0.20008 0.0
H1116 H 0.51321 0.37988 0.21837 0.0
H1117 H 0.54729 0.41177 0.19704 0.0
H1118 H 0.57428 0.42788 0.29512 0.0
H1119 H 0.54046 0.39579 0.31627 0.0
C1120 C 0.62268 0.47109 0.23416 0.0
C1121 C 0.61945 0.4848 0.21204 0.0
C1122 C 0.60462 0.45061 0.24415 0.0
C1123 C 0.58299 0.44341 0.23213 0.0
C1124 C 0.57992 0.45696 0.20945 0.0
C1125 C 0.59794 0.47741 0.19953 0.0
C1126 C 0.52658 0.39005 0.23527 0.0
C1127 C 0.52412 0.38543 0.26901 0.0
C1128 C 0.54603 0.40839 0.2231 0.0
C1129 C 0.56342 0.4225 0.24441 0.0
C1130 C 0.56132 0.41726 0.27798 0.0
C1131 C 0.54187 0.39892 0.29014 0.0
H1132 H 0.0977 0.59076 0.19708 0.0
H1133 H 0.15969 0.63352 0.24752 0.0
H1134 H 0.09943 0.55795 0.21466 0.0
H1135 H 0.16174 0.60068 0.26452 0.0
H1136 H 0.14248 0.53556 0.32071 0.0
H1137 H 0.14299 0.56919 0.3013 0.0
H1138 H 0.11999 0.53853 0.20628 0.0
H1139 H 0.11896 0.50466 0.22603 0.0
C1140 C 0.11179 0.59314 0.21176 0.0
C1141 C 0.12853 0.61469 0.22102 0.0
C1142 C 0.11287 0.57435 0.22164 0.0
C1143 C 0.13076 0.57666 0.24095 0.0
C1144 C 0.1476 0.59828 0.24999 0.0
C1145 C 0.14649 0.6171 0.24014 0.0
C1146 C 0.13766 0.53607 0.29561 0.0
C1147 C 0.13058 0.51745 0.27492 0.0
C1148 C 0.13808 0.55539 0.28442 0.0
C1149 C 0.13146 0.55655 0.25226 0.0
C1150 C 0.12486 0.53807 0.23135 0.0
C1151 C 0.1244 0.51872 0.24258 0.0
H1152 H 0.47149 0.85696 0.81081 0.0
H1153 H 0.50669 0.89426 0.72465 0.0
H1154 H 0.43764 0.85609 0.79178 0.0
H1155 H 0.47299 0.89394 0.70596 0.0
H1156 H 0.40316 0.87227 0.66771 0.0
H1157 H 0.43576 0.87012 0.68531 0.0
H1158 H 0.42355 0.88148 0.78546 0.0
H1159 H 0.39061 0.88302 0.7679 0.0
C1160 C 0.47196 0.86493 0.78774 0.0
C1161 C 0.49174 0.8757 0.76922 0.0
C1162 C 0.45261 0.86458 0.77695 0.0
C1163 C 0.45261 0.87508 0.74745 0.0
C1164 C 0.47231 0.88547 0.72861 0.0
C1165 C 0.49166 0.88574 0.73936 0.0
C1166 C 0.40741 0.87423 0.6935 0.0
C1167 C 0.39435 0.87782 0.71644 0.0
C1168 C 0.42617 0.87312 0.70357 0.0
C1169 C 0.43232 0.87566 0.73679 0.0
C1170 C 0.41912 0.87912 0.75974 0.0
C1171 C 0.40031 0.88015 0.74968 0.0
H1172 H 0.62664 0.49519 0.72033 0.0
H1173 H 0.60318 0.47496 0.81939 0.0
H1174 H 0.59437 0.46109 0.69957 0.0
H1175 H 0.57089 0.44107 0.79868 0.0
H1176 H 0.52645 0.37278 0.75233 0.0
H1177 H 0.56096 0.40552 0.77085 0.0
H1178 H 0.55353 0.44556 0.69606 0.0
H1179 H 0.51921 0.41285 0.67739 0.0
C1180 C 0.61462 0.48345 0.73765 0.0
C1181 C 0.61739 0.48776 0.77146 0.0
C1182 C 0.59611 0.46398 0.72577 0.0
C1183 C 0.58009 0.44839 0.74749 0.0
C1184 C 0.58308 0.4526 0.78134 0.0
C1185 C 0.60149 0.47209 0.79318 0.0
C1186 C 0.5323 0.38854 0.73971 0.0
C1187 C 0.5201 0.39028 0.7135 0.0
C1188 C 0.55198 0.40731 0.75041 0.0
C1189 C 0.55993 0.42815 0.73499 0.0
C1190 C 0.54798 0.42971 0.70825 0.0
C1191 C 0.52825 0.41099 0.69768 0.0
H1192 H 0.16249 0.63311 0.75848 0.0
H1193 H 0.09627 0.59196 0.79847 0.0
H1194 H 0.16246 0.59948 0.73922 0.0
H1195 H 0.09622 0.55846 0.7791 0.0
H1196 H 0.09528 0.50759 0.70471 0.0
H1197 H 0.09609 0.54151 0.72393 0.0
H1198 H 0.16194 0.56526 0.76424 0.0
H1199 H 0.16111 0.53122 0.74514 0.0
C1200 C 0.14795 0.6169 0.76314 0.0
C1201 C 0.12937 0.61514 0.77994 0.0
C1202 C 0.14798 0.59768 0.75227 0.0
C1203 C 0.12932 0.57639 0.75762 0.0
C1204 C 0.11075 0.57467 0.77437 0.0
C1205 C 0.11083 0.59383 0.78558 0.0
C1206 C 0.10993 0.52005 0.71766 0.0
C1207 C 0.12812 0.51676 0.72349 0.0
C1208 C 0.11035 0.5394 0.72878 0.0
C1209 C 0.12906 0.55598 0.74561 0.0
C1210 C 0.14737 0.55281 0.75112 0.0
C1211 C 0.14684 0.53331 0.74035 0.0
H1212 H 0.62551 0.12949 0.77864 0.0
H1213 H 0.6192 0.15293 0.68339 0.0
H1214 H 0.59229 0.13023 0.79728 0.0
H1215 H 0.58651 0.15441 0.70221 0.0
H1216 H 0.51332 0.12471 0.73134 0.0
H1217 H 0.54862 0.12797 0.71466 0.0
H1218 H 0.57586 0.15279 0.81092 0.0
H1219 H 0.5401 0.14882 0.8279 0.0
C1220 C 0.61726 0.1352 0.7619 0.0
C1221 C 0.62483 0.14098 0.7295 0.0
C1222 C 0.59826 0.13571 0.77259 0.0
C1223 C 0.58654 0.14215 0.75114 0.0
C1224 C 0.5948 0.14889 0.71917 0.0
C1225 C 0.61365 0.14821 0.70844 0.0
C1226 C 0.52687 0.13096 0.74891 0.0
C1227 C 0.52394 0.13648 0.78093 0.0
C1228 C 0.5472 0.13299 0.73929 0.0
C1229 C 0.56518 0.14076 0.76139 0.0
C1230 C 0.5623 0.14652 0.79338 0.0
C1231 C 0.54187 0.14436 0.80306 0.0
H1232 H 0.39493 0.53387 0.82498 0.0
H1233 H 0.39225 0.50336 0.73138 0.0
H1234 H 0.42775 0.56839 0.80685 0.0
H1235 H 0.42523 0.53776 0.7134 0.0
H1236 H 0.47132 0.60977 0.68086 0.0
H1237 H 0.43717 0.57673 0.69928 0.0
H1238 H 0.46725 0.5817 0.79394 0.0
H1239 H 0.50133 0.61495 0.77561 0.0
C1240 C 0.40134 0.53456 0.80051 0.0
C1241 C 0.39104 0.51592 0.77959 0.0
C1242 C 0.42021 0.55428 0.79021 0.0
C1243 C 0.42912 0.5558 0.75872 0.0
C1244 C 0.41862 0.53722 0.73767 0.0
C1245 C 0.3998 0.51747 0.74802 0.0
C1246 C 0.47058 0.60389 0.70567 0.0
C1247 C 0.489 0.61492 0.72679 0.0
C1248 C 0.45108 0.58488 0.71615 0.0
C1249 C 0.44953 0.57653 0.74802 0.0
C1250 C 0.46783 0.58784 0.76934 0.0
C1251 C 0.48738 0.60682 0.75881 0.0
H1252 H 0.87763 0.40404 0.83541 0.0
H1253 H 0.8887 0.39097 0.73566 0.0
H1254 H 0.87601 0.43687 0.81718 0.0
H1255 H 0.88766 0.42406 0.71749 0.0
H1256 H 0.86264 0.47133 0.69061 0.0
H1257 H 0.86205 0.43779 0.71053 0.0
H1258 H 0.89979 0.47413 0.79586 0.0
H1259 H 0.89984 0.50757 0.77624 0.0
C1260 C 0.8798 0.40824 0.8096 0.0
C1261 C 0.88326 0.39493 0.78694 0.0
C1262 C 0.879 0.42712 0.79917 0.0
C1263 C 0.88168 0.43311 0.76586 0.0
C1264 C 0.88517 0.41975 0.74325 0.0
C1265 C 0.88591 0.40085 0.75367 0.0
C1266 C 0.87067 0.47211 0.71374 0.0
C1267 C 0.88133 0.49209 0.73185 0.0
C1268 C 0.87048 0.45293 0.72505 0.0
C1269 C 0.88103 0.45329 0.75467 0.0
C1270 C 0.89131 0.47319 0.77311 0.0
C1271 C 0.89143 0.49239 0.76182 0.0
loop_
_geom_bond_atom_site_label_1
_geom_bond_atom_site_label_2
_geom_bond_distance
_geom_bond_site_symmetry_2
_ccdc_geom_bond_type
In0 O1 2.294 . S
In0 O2 2.326 . S
In0 O6 2.266 . S
In0 O7 2.326 . S
In0 O8 2.266 . S
In0 O9 2.326 . S
In0 O11 2.294 . S
In0 O12 2.326 . S
O1 In0 2.294 . S
O1 C10 1.240 . S
O2 In0 2.326 . S
O2 C10 1.252 . S
C3 O6 1.252 . S
C3 O7 1.260 . S
C4 O11 1.240 . S
C4 O12 1.252 . S
C5 O8 1.252 . S
C5 O9 1.260 . S
O6 In0 2.266 . S
O6 C3 1.252 . S
O7 In0 2.326 . S
O7 C3 1.260 . S
O8 In0 2.266 . S
O8 C5 1.252 . S
O9 In0 2.326 . S
O9 C5 1.260 . S
C10 O1 1.240 . S
C10 O2 1.252 . S
O11 In0 2.294 . S
O11 C4 1.240 . S
O12 In0 2.326 . S
O12 C4 1.252 . S
In13 O14 2.294 . S
In13 O15 2.326 . S
In13 O19 2.266 . S
In13 O20 2.326 . S
In13 O21 2.266 . S
In13 O22 2.326 . S
In13 O24 2.294 . S
In13 O25 2.326 . S
O14 In13 2.294 . S
O14 C23 1.240 . S
O15 In13 2.326 . S
O15 C23 1.252 . S
C16 O19 1.252 . S
C16 O20 1.260 . S
C17 O24 1.240 . S
C17 O25 1.252 . S
C18 O21 1.252 . S
C18 O22 1.260 . S
O19 In13 2.266 . S
O19 C16 1.252 . S
O20 In13 2.326 . S
O20 C16 1.260 . S
O21 In13 2.266 . S
O21 C18 1.252 . S
O22 In13 2.326 . S
O22 C18 1.260 . S
C23 O14 1.240 . S
C23 O15 1.252 . S
O24 In13 2.294 . S
O24 C17 1.240 . S
O25 In13 2.326 . S
O25 C17 1.252 . S
In26 O27 2.294 . S
In26 O28 2.326 . S
In26 O32 2.266 . S
In26 O33 2.326 . S
In26 O34 2.266 . S
In26 O35 2.326 . S
In26 O37 2.294 . S
In26 O38 2.326 . S
O27 In26 2.294 . S
O27 C36 1.240 . S
O28 In26 2.326 . S
O28 C36 1.252 . S
C29 O32 1.252 . S
C29 O33 1.260 . S
C30 O37 1.240 . S
C30 O38 1.252 . S
C31 O34 1.252 . S
C31 O35 1.260 . S
O32 In26 2.266 . S
O32 C29 1.252 . S
O33 In26 2.326 . S
O33 C29 1.260 . S
O34 In26 2.266 . S
O34 C31 1.252 . S
O35 In26 2.326 . S
O35 C31 1.260 . S
C36 O27 1.240 . S
C36 O28 1.252 . S
O37 In26 2.294 . S
O37 C30 1.240 . S
O38 In26 2.326 . S
O38 C30 1.252 . S
In39 O40 2.294 . S
In39 O41 2.326 . S
In39 O45 2.266 . S
In39 O46 2.326 . S
In39 O47 2.266 . S
In39 O48 2.326 . S
In39 O50 2.294 . S
In39 O51 2.326 . S
O40 In39 2.294 . S
O40 C49 1.240 . S
O41 In39 2.326 . S
O41 C49 1.252 . S
C42 O45 1.252 . S
C42 O46 1.260 . S
C43 O50 1.240 . S
C43 O51 1.252 . S
C44 O47 1.252 . S
C44 O48 1.260 . S
O45 In39 2.266 . S
O45 C42 1.252 . S
O46 In39 2.326 . S
O46 C42 1.260 . S
O47 In39 2.266 . S
O47 C44 1.252 . S
O48 In39 2.326 . S
O48 C44 1.260 . S
C49 O40 1.240 . S
C49 O41 1.252 . S
O50 In39 2.294 . S
O50 C43 1.240 . S
O51 In39 2.326 . S
O51 C43 1.252 . S
In52 O53 2.294 . S
In52 O54 2.326 . S
In52 O58 2.266 . S
In52 O59 2.326 . S
In52 O60 2.266 . S
In52 O61 2.326 . S
In52 O63 2.294 . S
In52 O64 2.326 . S
O53 In52 2.294 . S
O53 C62 1.240 . S
O54 In52 2.326 . S
O54 C62 1.252 . S
C55 O58 1.252 . S
C55 O59 1.260 . S
C56 O63 1.240 . S
C56 O64 1.252 . S
C57 O60 1.252 . S
C57 O61 1.260 . S
O58 In52 2.266 . S
O58 C55 1.252 . S
O59 In52 2.326 . S
O59 C55 1.260 . S
O60 In52 2.266 . S
O60 C57 1.252 . S
O61 In52 2.326 . S
O61 C57 1.260 . S
C62 O53 1.240 . S
C62 O54 1.252 . S
O63 In52 2.294 . S
O63 C56 1.240 . S
O64 In52 2.326 . S
O64 C56 1.252 . S
In65 O66 2.294 . S
In65 O67 2.326 . S
In65 O71 2.266 . S
In65 O72 2.326 . S
In65 O73 2.266 . S
In65 O74 2.326 . S
In65 O76 2.294 . S
In65 O77 2.326 . S
O66 In65 2.294 . S
O66 C75 1.240 . S
O67 In65 2.326 . S
O67 C75 1.252 . S
C68 O71 1.252 . S
C68 O72 1.260 . S
C69 O76 1.240 . S
C69 O77 1.252 . S
C70 O73 1.252 . S
C70 O74 1.260 . S
O71 In65 2.266 . S
O71 C68 1.252 . S
O72 In65 2.326 . S
O72 C68 1.260 . S
O73 In65 2.266 . S
O73 C70 1.252 . S
O74 In65 2.326 . S
O74 C70 1.260 . S
C75 O66 1.240 . S
C75 O67 1.252 . S
O76 In65 2.294 . S
O76 C69 1.240 . S
O77 In65 2.326 . S
O77 C69 1.252 . S
In78 O79 2.294 . S
In78 O80 2.326 . S
In78 O84 2.266 . S
In78 O85 2.326 . S
In78 O86 2.266 . S
In78 O87 2.326 . S
In78 O89 2.294 . S
In78 O90 2.326 . S
O79 In78 2.294 . S
O79 C88 1.240 . S
O80 In78 2.326 . S
O80 C88 1.252 . S
C81 O84 1.252 . S
C81 O85 1.260 . S
C82 O89 1.240 . S
C82 O90 1.252 . S
C83 O86 1.252 . S
C83 O87 1.260 . S
O84 In78 2.266 . S
O84 C81 1.252 . S
O85 In78 2.326 . S
O85 C81 1.260 . S
O86 In78 2.266 . S
O86 C83 1.252 . S
O87 In78 2.326 . S
O87 C83 1.260 . S
C88 O79 1.240 . S
C88 O80 1.252 . S
O89 In78 2.294 . S
O89 C82 1.240 . S
O90 In78 2.326 . S
O90 C82 1.252 . S
In91 O92 2.294 . S
In91 O93 2.326 . S
In91 O97 2.266 . S
In91 O98 2.326 . S
In91 O99 2.266 . S
In91 O100 2.326 . S
In91 O102 2.294 . S
In91 O103 2.326 . S
O92 In91 2.294 . S
O92 C101 1.240 . S
O93 In91 2.326 . S
O93 C101 1.252 . S
C94 O97 1.252 . S
C94 O98 1.260 . S
C95 O102 1.240 . S
C95 O103 1.252 . S
C96 O99 1.252 . S
C96 O100 1.260 . S
O97 In91 2.266 . S
O97 C94 1.252 . S
O98 In91 2.326 . S
O98 C94 1.260 . S
O99 In91 2.266 . S
O99 C96 1.252 . S
O100 In91 2.326 . S
O100 C96 1.260 . S
C101 O92 1.240 . S
C101 O93 1.252 . S
O102 In91 2.294 . S
O102 C95 1.240 . S
O103 In91 2.326 . S
O103 C95 1.252 . S
In104 O105 2.294 . S
In104 O106 2.326 . S
In104 O110 2.266 . S
In104 O111 2.326 . S
In104 O112 2.266 . S
In104 O113 2.326 . S
In104 O115 2.294 . S
In104 O116 2.326 . S
O105 In104 2.294 . S
O105 C114 1.240 . S
O106 In104 2.326 . S
O106 C114 1.252 . S
C107 O110 1.252 . S
C107 O111 1.260 . S
C108 O115 1.240 . S
C108 O116 1.252 . S
C109 O112 1.252 . S
C109 O113 1.260 . S
O110 In104 2.266 . S
O110 C107 1.252 . S
O111 In104 2.326 . S
O111 C107 1.260 . S
O112 In104 2.266 . S
O112 C109 1.252 . S
O113 In104 2.326 . S
O113 C109 1.260 . S
C114 O105 1.240 . S
C114 O106 1.252 . S
O115 In104 2.294 . S
O115 C108 1.240 . S
O116 In104 2.326 . S
O116 C108 1.252 . S
In117 O118 2.294 . S
In117 O119 2.326 . S
In117 O123 2.266 . S
In117 O124 2.326 . S
In117 O125 2.266 . S
In117 O126 2.326 . S
In117 O128 2.294 . S
In117 O129 2.326 . S
O118 In117 2.294 . S
O118 C127 1.240 . S
O119 In117 2.326 . S
O119 C127 1.252 . S
C120 O123 1.252 . S
C120 O124 1.260 . S
C121 O128 1.240 . S
C121 O129 1.252 . S
C122 O125 1.252 . S
C122 O126 1.260 . S
O123 In117 2.266 . S
O123 C120 1.252 . S
O124 In117 2.326 . S
O124 C120 1.260 . S
O125 In117 2.266 . S
O125 C122 1.252 . S
O126 In117 2.326 . S
O126 C122 1.260 . S
C127 O118 1.240 . S
C127 O119 1.252 . S
O128 In117 2.294 . S
O128 C121 1.240 . S
O129 In117 2.326 . S
O129 C121 1.252 . S
In130 O131 2.294 . S
In130 O132 2.326 . S
In130 O136 2.266 . S
In130 O137 2.326 . S
In130 O138 2.266 . S
In130 O139 2.326 . S
In130 O141 2.294 . S
In130 O142 2.326 . S
O131 In130 2.294 . S
O131 C140 1.240 . S
O132 In130 2.326 . S
O132 C140 1.252 . S
C133 O136 1.252 . S
C133 O137 1.260 . S
C134 O141 1.240 . S
C134 O142 1.252 . S
C135 O138 1.252 . S
C135 O139 1.260 . S
O136 In130 2.266 . S
O136 C133 1.252 . S
O137 In130 2.326 . S
O137 C133 1.260 . S
O138 In130 2.266 . S
O138 C135 1.252 . S
O139 In130 2.326 . S
O139 C135 1.260 . S
C140 O131 1.240 . S
C140 O132 1.252 . S
O141 In130 2.294 . S
O141 C134 1.240 . S
O142 In130 2.326 . S
O142 C134 1.252 . S
In143 O144 2.294 . S
In143 O145 2.326 . S
In143 O149 2.266 . S
In143 O150 2.326 . S
In143 O151 2.266 . S
In143 O152 2.326 . S
In143 O154 2.294 . S
In143 O155 2.326 . S
O144 In143 2.294 . S
O144 C153 1.240 . S
O145 In143 2.326 . S
O145 C153 1.252 . S
C146 O149 1.252 . S
C146 O150 1.260 . S
C147 O154 1.240 . S
C147 O155 1.252 . S
C148 O151 1.252 . S
C148 O152 1.260 . S
O149 In143 2.266 . S
O149 C146 1.252 . S
O150 In143 2.326 . S
O150 C146 1.260 . S
O151 In143 2.266 . S
O151 C148 1.252 . S
O152 In143 2.326 . S
O152 C148 1.260 . S
C153 O144 1.240 . S
C153 O145 1.252 . S
O154 In143 2.294 . S
O154 C147 1.240 . S
O155 In143 2.326 . S
O155 C147 1.252 . S
In156 O157 2.294 . S
In156 O158 2.326 . S
In156 O162 2.266 . S
In156 O163 2.326 . S
In156 O164 2.266 . S
In156 O165 2.326 . S
In156 O167 2.294 . S
In156 O168 2.326 . S
O157 In156 2.294 . S
O157 C166 1.240 . S
O158 In156 2.326 . S
O158 C166 1.252 . S
C159 O162 1.252 . S
C159 O163 1.260 . S
C160 O167 1.240 . S
C160 O168 1.252 . S
C161 O164 1.252 . S
C161 O165 1.260 . S
O162 In156 2.266 . S
O162 C159 1.252 . S
O163 In156 2.326 . S
O163 C159 1.260 . S
O164 In156 2.266 . S
O164 C161 1.252 . S
O165 In156 2.326 . S
O165 C161 1.260 . S
C166 O157 1.240 . S
C166 O158 1.252 . S
O167 In156 2.294 . S
O167 C160 1.240 . S
O168 In156 2.326 . S
O168 C160 1.252 . S
In169 O170 2.294 . S
In169 O171 2.326 . S
In169 O175 2.266 . S
In169 O176 2.326 . S
In169 O177 2.266 . S
In169 O178 2.326 . S
In169 O180 2.294 . S
In169 O181 2.326 . S
O170 In169 2.294 . S
O170 C179 1.240 . S
O171 In169 2.326 . S
O171 C179 1.252 . S
C172 O175 1.252 . S
C172 O176 1.260 . S
C173 O180 1.240 . S
C173 O181 1.252 . S
C174 O177 1.252 . S
C174 O178 1.260 . S
O175 In169 2.266 . S
O175 C172 1.252 . S
O176 In169 2.326 . S
O176 C172 1.260 . S
O177 In169 2.266 . S
O177 C174 1.252 . S
O178 In169 2.326 . S
O178 C174 1.260 . S
C179 O170 1.240 . S
C179 O171 1.252 . S
O180 In169 2.294 . S
O180 C173 1.240 . S
O181 In169 2.326 . S
O181 C173 1.252 . S
In182 O183 2.294 . S
In182 O184 2.326 . S
In182 O188 2.266 . S
In182 O189 2.326 . S
In182 O190 2.266 . S
In182 O191 2.326 . S
In182 O193 2.294 . S
In182 O194 2.326 . S
O183 In182 2.294 . S
O183 C192 1.240 . S
O184 In182 2.326 . S
O184 C192 1.252 . S
C185 O188 1.252 . S
C185 O189 1.260 . S
C186 O193 1.240 . S
C186 O194 1.252 . S
C187 O190 1.252 . S
C187 O191 1.260 . S
O188 In182 2.266 . S
O188 C185 1.252 . S
O189 In182 2.326 . S
O189 C185 1.260 . S
O190 In182 2.266 . S
O190 C187 1.252 . S
O191 In182 2.326 . S
O191 C187 1.260 . S
C192 O183 1.240 . S
C192 O184 1.252 . S
O193 In182 2.294 . S
O193 C186 1.240 . S
O194 In182 2.326 . S
O194 C186 1.252 . S
In195 O196 2.294 . S
In195 O197 2.326 . S
In195 O201 2.266 . S
In195 O202 2.326 . S
In195 O203 2.266 . S
In195 O204 2.326 . S
In195 O206 2.294 . S
In195 O207 2.326 . S
O196 In195 2.294 . S
O196 C205 1.240 . S
O197 In195 2.326 . S
O197 C205 1.252 . S
C198 O201 1.252 . S
C198 O202 1.260 . S
C199 O206 1.240 . S
C199 O207 1.252 . S
C200 O203 1.252 . S
C200 O204 1.260 . S
O201 In195 2.266 . S
O201 C198 1.252 . S
O202 In195 2.326 . S
O202 C198 1.260 . S
O203 In195 2.266 . S
O203 C200 1.252 . S
O204 In195 2.326 . S
O204 C200 1.260 . S
C205 O196 1.240 . S
C205 O197 1.252 . S
O206 In195 2.294 . S
O206 C199 1.240 . S
O207 In195 2.326 . S
O207 C199 1.252 . S
In208 O209 2.294 . S
In208 O210 2.326 . S
In208 O214 2.266 . S
In208 O215 2.326 . S
In208 O216 2.266 . S
In208 O217 2.326 . S
In208 O219 2.294 . S
In208 O220 2.326 . S
O209 In208 2.294 . S
O209 C218 1.240 . S
O210 In208 2.326 . S
O210 C218 1.252 . S
C211 O214 1.252 . S
C211 O215 1.260 . S
C212 O219 1.240 . S
C212 O220 1.252 . S
C213 O216 1.252 . S
C213 O217 1.260 . S
O214 In208 2.266 . S
O214 C211 1.252 . S
O215 In208 2.326 . S
O215 C211 1.260 . S
O216 In208 2.266 . S
O216 C213 1.252 . S
O217 In208 2.326 . S
O217 C213 1.260 . S
C218 O209 1.240 . S
C218 O210 1.252 . S
O219 In208 2.294 . S
O219 C212 1.240 . S
O220 In208 2.326 . S
O220 C212 1.252 . S
In221 O222 2.294 . S
In221 O223 2.326 . S
In221 O227 2.266 . S
In221 O228 2.326 . S
In221 O229 2.266 . S
In221 O230 2.326 . S
In221 O232 2.294 . S
In221 O233 2.326 . S
O222 In221 2.294 . S
O222 C231 1.240 . S
O223 In221 2.326 . S
O223 C231 1.252 . S
C224 O227 1.252 . S
C224 O228 1.260 . S
C225 O232 1.240 . S
C225 O233 1.252 . S
C226 O229 1.252 . S
C226 O230 1.260 . S
O227 In221 2.266 . S
O227 C224 1.252 . S
O228 In221 2.326 . S
O228 C224 1.260 . S
O229 In221 2.266 . S
O229 C226 1.252 . S
O230 In221 2.326 . S
O230 C226 1.260 . S
C231 O222 1.240 . S
C231 O223 1.252 . S
O232 In221 2.294 . S
O232 C225 1.240 . S
O233 In221 2.326 . S
O233 C225 1.252 . S
In234 O235 2.294 . S
In234 O236 2.326 . S
In234 O240 2.266 . S
In234 O241 2.326 . S
In234 O242 2.266 . S
In234 O243 2.326 . S
In234 O245 2.294 . S
In234 O246 2.326 . S
O235 In234 2.294 . S
O235 C244 1.240 . S
O236 In234 2.326 . S
O236 C244 1.252 . S
C237 O240 1.252 . S
C237 O241 1.260 . S
C238 O245 1.240 . S
C238 O246 1.252 . S
C239 O242 1.252 . S
C239 O243 1.260 . S
O240 In234 2.266 . S
O240 C237 1.252 . S
O241 In234 2.326 . S
O241 C237 1.260 . S
O242 In234 2.266 . S
O242 C239 1.252 . S
O243 In234 2.326 . S
O243 C239 1.260 . S
C244 O235 1.240 . S
C244 O236 1.252 . S
O245 In234 2.294 . S
O245 C238 1.240 . S
O246 In234 2.326 . S
O246 C238 1.252 . S
In247 O248 2.294 . S
In247 O249 2.326 . S
In247 O253 2.266 . S
In247 O254 2.326 . S
In247 O255 2.266 . S
In247 O256 2.326 . S
In247 O258 2.294 . S
In247 O259 2.326 . S
O248 In247 2.294 . S
O248 C257 1.240 . S
O249 In247 2.326 . S
O249 C257 1.252 . S
C250 O253 1.252 . S
C250 O254 1.260 . S
C251 O258 1.240 . S
C251 O259 1.252 . S
C252 O255 1.252 . S
C252 O256 1.260 . S
O253 In247 2.266 . S
O253 C250 1.252 . S
O254 In247 2.326 . S
O254 C250 1.260 . S
O255 In247 2.266 . S
O255 C252 1.252 . S
O256 In247 2.326 . S
O256 C252 1.260 . S
C257 O248 1.240 . S
C257 O249 1.252 . S
O258 In247 2.294 . S
O258 C251 1.240 . S
O259 In247 2.326 . S
O259 C251 1.252 . S
In260 O261 2.294 . S
In260 O262 2.326 . S
In260 O266 2.266 . S
In260 O267 2.326 . S
In260 O268 2.266 . S
In260 O269 2.326 . S
In260 O271 2.294 . S
In260 O272 2.326 . S
O261 In260 2.294 . S
O261 C270 1.240 . S
O262 In260 2.326 . S
O262 C270 1.252 . S
C263 O266 1.252 . S
C263 O267 1.260 . S
C264 O271 1.240 . S
C264 O272 1.252 . S
C265 O268 1.252 . S
C265 O269 1.260 . S
O266 In260 2.266 . S
O266 C263 1.252 . S
O267 In260 2.326 . S
O267 C263 1.260 . S
O268 In260 2.266 . S
O268 C265 1.252 . S
O269 In260 2.326 . S
O269 C265 1.260 . S
C270 O261 1.240 . S
C270 O262 1.252 . S
O271 In260 2.294 . S
O271 C264 1.240 . S
O272 In260 2.326 . S
O272 C264 1.252 . S
In273 O274 2.294 . S
In273 O275 2.326 . S
In273 O279 2.266 . S
In273 O280 2.326 . S
In273 O281 2.266 . S
In273 O282 2.326 . S
In273 O284 2.294 . S
In273 O285 2.326 . S
O274 In273 2.294 . S
O274 C283 1.240 . S
O275 In273 2.326 . S
O275 C283 1.252 . S
C276 O279 1.252 . S
C276 O280 1.260 . S
C277 O284 1.240 . S
C277 O285 1.252 . S
C278 O281 1.252 . S
C278 O282 1.260 . S
O279 In273 2.266 . S
O279 C276 1.252 . S
O280 In273 2.326 . S
O280 C276 1.260 . S
O281 In273 2.266 . S
O281 C278 1.252 . S
O282 In273 2.326 . S
O282 C278 1.260 . S
C283 O274 1.240 . S
C283 O275 1.252 . S
O284 In273 2.294 . S
O284 C277 1.240 . S
O285 In273 2.326 . S
O285 C277 1.252 . S
In286 O287 2.294 . S
In286 O288 2.326 . S
In286 O292 2.266 . S
In286 O293 2.326 . S
In286 O294 2.266 . S
In286 O295 2.326 . S
In286 O297 2.294 . S
In286 O298 2.326 . S
O287 In286 2.294 . S
O287 C296 1.240 . S
O288 In286 2.326 . S
O288 C296 1.252 . S
C289 O292 1.252 . S
C289 O293 1.260 . S
C290 O297 1.240 . S
C290 O298 1.252 . S
C291 O294 1.252 . S
C291 O295 1.260 . S
O292 In286 2.266 . S
O292 C289 1.252 . S
O293 In286 2.326 . S
O293 C289 1.260 . S
O294 In286 2.266 . S
O294 C291 1.252 . S
O295 In286 2.326 . S
O295 C291 1.260 . S
C296 O287 1.240 . S
C296 O288 1.252 . S
O297 In286 2.294 . S
O297 C290 1.240 . S
O298 In286 2.326 . S
O298 C290 1.252 . S
In299 O300 2.294 . S
In299 O301 2.326 . S
In299 O305 2.266 . S
In299 O306 2.326 . S
In299 O307 2.266 . S
In299 O308 2.326 . S
In299 O310 2.294 . S
In299 O311 2.326 . S
O300 In299 2.294 . S
O300 C309 1.240 . S
O301 In299 2.326 . S
O301 C309 1.252 . S
C302 O305 1.252 . S
C302 O306 1.260 . S
C303 O310 1.240 . S
C303 O311 1.252 . S
C304 O307 1.252 . S
C304 O308 1.260 . S
O305 In299 2.266 . S
O305 C302 1.252 . S
O306 In299 2.326 . S
O306 C302 1.260 . S
O307 In299 2.266 . S
O307 C304 1.252 . S
O308 In299 2.326 . S
O308 C304 1.260 . S
C309 O300 1.240 . S
C309 O301 1.252 . S
O310 In299 2.294 . S
O310 C303 1.240 . S
O311 In299 2.326 . S
O311 C303 1.252 . S
H312 C320 0.950 . S
H313 C325 0.950 . S
H314 C322 0.950 . S
H315 C324 0.950 . S
H316 C326 0.950 . S
H317 C328 0.950 . S
H318 C330 0.950 . S
H319 C331 0.950 . S
C320 H312 0.950 . S
C320 C321 1.386 . S
C320 C322 1.391 . S
C321 C320 1.386 . S
C321 C325 1.393 . S
C322 H314 0.950 . S
C322 C320 1.391 . S
C322 C323 1.400 . S
C323 C322 1.400 . S
C323 C324 1.398 . S
C323 C329 1.491 1_545 S
C324 H315 0.950 . S
C324 C323 1.398 . S
C324 C325 1.391 . S
C325 H313 0.950 . S
C325 C321 1.393 . S
C325 C324 1.391 . S
C326 H316 0.950 . S
C326 C327 1.386 . S
C326 C328 1.391 . S
C327 C326 1.386 . S
C327 C331 1.393 . S
C328 H317 0.950 . S
C328 C326 1.391 . S
C328 C329 1.400 . S
C329 C323 1.491 1_565 S
C329 C328 1.400 . S
C329 C330 1.398 . S
C330 H318 0.950 . S
C330 C329 1.398 . S
C330 C331 1.391 . S
C331 H319 0.950 . S
C331 C327 1.393 . S
C331 C330 1.391 . S
H332 C340 0.950 . S
H333 C345 0.950 . S
H334 C342 0.950 . S
H335 C344 0.950 . S
H336 C346 0.950 . S
H337 C348 0.950 . S
H338 C350 0.950 . S
H339 C351 0.950 . S
C340 H332 0.950 . S
C340 C341 1.386 . S
C340 C342 1.391 . S
C341 C340 1.386 . S
C341 C345 1.393 . S
C342 H334 0.950 . S
C342 C340 1.391 . S
C342 C343 1.400 . S
C343 C342 1.400 . S
C343 C344 1.398 . S
C343 C349 1.491 . S
C344 H335 0.950 . S
C344 C343 1.398 . S
C344 C345 1.391 . S
C345 H333 0.950 . S
C345 C341 1.393 . S
C345 C344 1.391 . S
C346 H336 0.950 . S
C346 C347 1.386 . S
C346 C348 1.391 . S
C347 C346 1.386 . S
C347 C351 1.393 . S
C348 H337 0.950 . S
C348 C346 1.391 . S
C348 C349 1.400 . S
C349 C343 1.491 . S
C349 C348 1.400 . S
C349 C350 1.398 . S
C350 H338 0.950 . S
C350 C349 1.398 . S
C350 C351 1.391 . S
C351 H339 0.950 . S
C351 C347 1.393 . S
C351 C350 1.391 . S
H352 C360 0.950 . S
H353 C365 0.950 . S
H354 C362 0.950 . S
H355 C364 0.950 . S
H356 C366 0.950 . S
H357 C368 0.950 . S
H358 C370 0.950 . S
H359 C371 0.950 . S
C360 H352 0.950 . S
C360 C361 1.386 . S
C360 C362 1.391 . S
C361 C360 1.386 . S
C361 C365 1.393 . S
C362 H354 0.950 . S
C362 C360 1.391 . S
C362 C363 1.400 . S
C363 C362 1.400 . S
C363 C364 1.398 . S
C363 C369 1.491 1_655 S
C364 H355 0.950 . S
C364 C363 1.398 . S
C364 C365 1.391 . S
C365 H353 0.950 . S
C365 C361 1.393 . S
C365 C364 1.391 . S
C366 H356 0.950 . S
C366 C367 1.386 . S
C366 C368 1.391 . S
C367 C366 1.386 . S
C367 C371 1.393 . S
C368 H357 0.950 . S
C368 C366 1.391 . S
C368 C369 1.400 . S
C369 C363 1.491 1_455 S
C369 C368 1.400 . S
C369 C370 1.398 . S
C370 H358 0.950 . S
C370 C369 1.398 . S
C370 C371 1.391 . S
C371 H359 0.950 . S
C371 C367 1.393 . S
C371 C370 1.391 . S
H372 C380 0.950 . S
H373 C385 0.950 . S
H374 C382 0.950 . S
H375 C384 0.950 . S
H376 C386 0.950 . S
H377 C388 0.950 . S
H378 C390 0.950 . S
H379 C391 0.950 . S
C380 H372 0.950 . S
C380 C381 1.386 . S
C380 C382 1.391 . S
C381 C380 1.386 . S
C381 C385 1.393 . S
C382 H374 0.950 . S
C382 C380 1.391 . S
C382 C383 1.400 . S
C383 C382 1.400 . S
C383 C384 1.398 . S
C383 C389 1.491 1_565 S
C384 H375 0.950 . S
C384 C383 1.398 . S
C384 C385 1.391 . S
C385 H373 0.950 . S
C385 C381 1.393 . S
C385 C384 1.391 . S
C386 H376 0.950 . S
C386 C387 1.386 . S
C386 C388 1.391 . S
C387 C386 1.386 . S
C387 C391 1.393 . S
C388 H377 0.950 . S
C388 C386 1.391 . S
C388 C389 1.400 . S
C389 C383 1.491 1_545 S
C389 C388 1.400 . S
C389 C390 1.398 . S
C390 H378 0.950 . S
C390 C389 1.398 . S
C390 C391 1.391 . S
C391 H379 0.950 . S
C391 C387 1.393 . S
C391 C390 1.391 . S
H392 C400 0.950 . S
H393 C405 0.950 . S
H394 C402 0.950 . S
H395 C404 0.950 . S
H396 C406 0.950 . S
H397 C408 0.950 . S
H398 C410 0.950 . S
H399 C411 0.950 . S
C400 H392 0.950 . S
C400 C401 1.386 . S
C400 C402 1.391 . S
C401 C400 1.386 . S
C401 C405 1.393 . S
C402 H394 0.950 . S
C402 C400 1.391 . S
C402 C403 1.400 . S
C403 C402 1.400 . S
C403 C404 1.398 . S
C403 C409 1.491 . S
C404 H395 0.950 . S
C404 C403 1.398 . S
C404 C405 1.391 . S
C405 H393 0.950 . S
C405 C401 1.393 . S
C405 C404 1.391 . S
C406 H396 0.950 . S
C406 C407 1.386 . S
C406 C408 1.391 . S
C407 C406 1.386 . S
C407 C411 1.393 . S
C408 H397 0.950 . S
C408 C406 1.391 . S
C408 C409 1.400 . S
C409 C403 1.491 . S
C409 C408 1.400 . S
C409 C410 1.398 . S
C410 H398 0.950 . S
C410 C409 1.398 . S
C410 C411 1.391 . S
C411 H399 0.950 . S
C411 C407 1.393 . S
C411 C410 1.391 . S
H412 C420 0.950 . S
H413 C425 0.950 . S
H414 C422 0.950 . S
H415 C424 0.950 . S
H416 C426 0.950 . S
H417 C428 0.950 . S
H418 C430 0.950 . S
H419 C431 0.950 . S
C420 H412 0.950 . S
C420 C421 1.386 . S
C420 C422 1.391 . S
C421 C420 1.386 . S
C421 C425 1.393 . S
C422 H414 0.950 . S
C422 C420 1.391 . S
C422 C423 1.400 . S
C423 C422 1.400 . S
C423 C424 1.398 . S
C423 C429 1.491 1_455 S
C424 H415 0.950 . S
C424 C423 1.398 . S
C424 C425 1.391 . S
C425 H413 0.950 . S
C425 C421 1.393 . S
C425 C424 1.391 . S
C426 H416 0.950 . S
C426 C427 1.386 . S
C426 C428 1.391 . S
C427 C426 1.386 . S
C427 C431 1.393 . S
C428 H417 0.950 . S
C428 C426 1.391 . S
C428 C429 1.400 . S
C429 C423 1.491 1_655 S
C429 C428 1.400 . S
C429 C430 1.398 . S
C430 H418 0.950 . S
C430 C429 1.398 . S
C430 C431 1.391 . S
C431 H419 0.950 . S
C431 C427 1.393 . S
C431 C430 1.391 . S
H432 C440 0.950 . S
H433 C445 0.950 . S
H434 C442 0.950 . S
H435 C444 0.950 . S
H436 C446 0.950 . S
H437 C448 0.950 . S
H438 C450 0.950 . S
H439 C451 0.950 . S
C440 H432 0.950 . S
C440 C441 1.386 . S
C440 C442 1.391 . S
C441 C440 1.386 . S
C441 C445 1.393 . S
C442 H434 0.950 . S
C442 C440 1.391 . S
C442 C443 1.400 . S
C443 C442 1.400 . S
C443 C444 1.398 . S
C443 C449 1.491 1_565 S
C444 H435 0.950 . S
C444 C443 1.398 . S
C444 C445 1.391 . S
C445 H433 0.950 . S
C445 C441 1.393 . S
C445 C444 1.391 . S
C446 H436 0.950 . S
C446 C447 1.386 . S
C446 C448 1.391 . S
C447 C446 1.386 . S
C447 C451 1.393 . S
C448 H437 0.950 . S
C448 C446 1.391 . S
C448 C449 1.400 . S
C449 C443 1.491 1_545 S
C449 C448 1.400 . S
C449 C450 1.398 . S
C450 H438 0.950 . S
C450 C449 1.398 . S
C450 C451 1.391 . S
C451 H439 0.950 . S
C451 C447 1.393 . S
C451 C450 1.391 . S
H452 C460 0.950 . S
H453 C465 0.950 . S
H454 C462 0.950 . S
H455 C464 0.950 . S
H456 C466 0.950 . S
H457 C468 0.950 . S
H458 C470 0.950 . S
H459 C471 0.950 . S
C460 H452 0.950 . S
C460 C461 1.386 . S
C460 C462 1.391 . S
C461 C460 1.386 . S
C461 C465 1.393 . S
C462 H454 0.950 . S
C462 C460 1.391 . S
C462 C463 1.400 . S
C463 C462 1.400 . S
C463 C464 1.398 . S
C463 C469 1.491 . S
C464 H455 0.950 . S
C464 C463 1.398 . S
C464 C465 1.391 . S
C465 H453 0.950 . S
C465 C461 1.393 . S
C465 C464 1.391 . S
C466 H456 0.950 . S
C466 C467 1.386 . S
C466 C468 1.391 . S
C467 C466 1.386 . S
C467 C471 1.393 . S
C468 H457 0.950 . S
C468 C466 1.391 . S
C468 C469 1.400 . S
C469 C463 1.491 . S
C469 C468 1.400 . S
C469 C470 1.398 . S
C470 H458 0.950 . S
C470 C469 1.398 . S
C470 C471 1.391 . S
C471 H459 0.950 . S
C471 C467 1.393 . S
C471 C470 1.391 . S
H472 C480 0.950 . S
H473 C485 0.950 . S
H474 C482 0.950 . S
H475 C484 0.950 . S
H476 C486 0.950 . S
H477 C488 0.950 . S
H478 C490 0.950 . S
H479 C491 0.950 . S
C480 H472 0.950 . S
C480 C481 1.386 . S
C480 C482 1.391 . S
C481 C480 1.386 . S
C481 C485 1.393 . S
C482 H474 0.950 . S
C482 C480 1.391 . S
C482 C483 1.400 . S
C483 C482 1.400 . S
C483 C484 1.398 . S
C483 C489 1.491 1_655 S
C484 H475 0.950 . S
C484 C483 1.398 . S
C484 C485 1.391 . S
C485 H473 0.950 . S
C485 C481 1.393 . S
C485 C484 1.391 . S
C486 H476 0.950 . S
C486 C487 1.386 . S
C486 C488 1.391 . S
C487 C486 1.386 . S
C487 C491 1.393 . S
C488 H477 0.950 . S
C488 C486 1.391 . S
C488 C489 1.400 . S
C489 C483 1.491 1_455 S
C489 C488 1.400 . S
C489 C490 1.398 . S
C490 H478 0.950 . S
C490 C489 1.398 . S
C490 C491 1.391 . S
C491 H479 0.950 . S
C491 C487 1.393 . S
C491 C490 1.391 . S
H492 C500 0.950 . S
H493 C505 0.950 . S
H494 C502 0.950 . S
H495 C504 0.950 . S
H496 C506 0.950 . S
H497 C508 0.950 . S
H498 C510 0.950 . S
H499 C511 0.950 . S
C500 H492 0.950 . S
C500 C501 1.386 . S
C500 C502 1.391 . S
C501 C500 1.386 . S
C501 C505 1.393 . S
C502 H494 0.950 . S
C502 C500 1.391 . S
C502 C503 1.400 . S
C503 C502 1.400 . S
C503 C504 1.398 . S
C503 C509 1.491 1_545 S
C504 H495 0.950 . S
C504 C503 1.398 . S
C504 C505 1.391 . S
C505 H493 0.950 . S
C505 C501 1.393 . S
C505 C504 1.391 . S
C506 H496 0.950 . S
C506 C507 1.386 . S
C506 C508 1.391 . S
C507 C506 1.386 . S
C507 C511 1.393 . S
C508 H497 0.950 . S
C508 C506 1.391 . S
C508 C509 1.400 . S
C509 C503 1.491 1_565 S
C509 C508 1.400 . S
C509 C510 1.398 . S
C510 H498 0.950 . S
C510 C509 1.398 . S
C510 C511 1.391 . S
C511 H499 0.950 . S
C511 C507 1.393 . S
C511 C510 1.391 . S
H512 C520 0.950 . S
H513 C525 0.950 . S
H514 C522 0.950 . S
H515 C524 0.950 . S
H516 C526 0.950 . S
H517 C528 0.950 . S
H518 C530 0.950 . S
H519 C531 0.950 . S
C520 H512 0.950 . S
C520 C521 1.386 . S
C520 C522 1.391 . S
C521 C520 1.386 . S
C521 C525 1.393 . S
C522 H514 0.950 . S
C522 C520 1.391 . S
C522 C523 1.400 . S
C523 C522 1.400 . S
C523 C524 1.398 . S
C523 C529 1.491 . S
C524 H515 0.950 . S
C524 C523 1.398 . S
C524 C525 1.391 . S
C525 H513 0.950 . S
C525 C521 1.393 . S
C525 C524 1.391 . S
C526 H516 0.950 . S
C526 C527 1.386 . S
C526 C528 1.391 . S
C527 C526 1.386 . S
C527 C531 1.393 . S
C528 H517 0.950 . S
C528 C526 1.391 . S
C528 C529 1.400 . S
C529 C523 1.491 . S
C529 C528 1.400 . S
C529 C530 1.398 . S
C530 H518 0.950 . S
C530 C529 1.398 . S
C530 C531 1.391 . S
C531 H519 0.950 . S
C531 C527 1.393 . S
C531 C530 1.391 . S
H532 C540 0.950 . S
H533 C545 0.950 . S
H534 C542 0.950 . S
H535 C544 0.950 . S
H536 C546 0.950 . S
H537 C548 0.950 . S
H538 C550 0.950 . S
H539 C551 0.950 . S
C540 H532 0.950 . S
C540 C541 1.386 . S
C540 C542 1.391 . S
C541 C540 1.386 . S
C541 C545 1.393 . S
C542 H534 0.950 . S
C542 C540 1.391 . S
C542 C543 1.400 . S
C543 C542 1.400 . S
C543 C544 1.398 . S
C543 C549 1.491 1_455 S
C544 H535 0.950 . S
C544 C543 1.398 . S
C544 C545 1.391 . S
C545 H533 0.950 . S
C545 C541 1.393 . S
C545 C544 1.391 . S
C546 H536 0.950 . S
C546 C547 1.386 . S
C546 C548 1.391 . S
C547 C546 1.386 . S
C547 C551 1.393 . S
C548 H537 0.950 . S
C548 C546 1.391 . S
C548 C549 1.400 . S
C549 C543 1.491 1_655 S
C549 C548 1.400 . S
C549 C550 1.398 . S
C550 H538 0.950 . S
C550 C549 1.398 . S
C550 C551 1.391 . S
C551 H539 0.950 . S
C551 C547 1.393 . S
C551 C550 1.391 . S
H552 C560 0.950 . S
H553 C565 0.950 . S
H554 C562 0.950 . S
H555 C564 0.950 . S
H556 C566 0.950 . S
H557 C568 0.950 . S
H558 C570 0.950 . S
H559 C571 0.950 . S
C560 H552 0.950 . S
C560 C561 1.386 . S
C560 C562 1.391 . S
C561 C560 1.386 . S
C561 C565 1.393 . S
C562 H554 0.950 . S
C562 C560 1.391 . S
C562 C563 1.400 . S
C563 C562 1.400 . S
C563 C564 1.398 . S
C563 C569 1.491 . S
C564 H555 0.950 . S
C564 C563 1.398 . S
C564 C565 1.391 . S
C565 H553 0.950 . S
C565 C561 1.393 . S
C565 C564 1.391 . S
C566 H556 0.950 . S
C566 C567 1.386 . S
C566 C568 1.391 . S
C567 C566 1.386 . S
C567 C571 1.393 . S
C568 H557 0.950 . S
C568 C566 1.391 . S
C568 C569 1.400 . S
C569 C563 1.491 . S
C569 C568 1.400 . S
C569 C570 1.398 . S
C570 H558 0.950 . S
C570 C569 1.398 . S
C570 C571 1.391 . S
C571 H559 0.950 . S
C571 C567 1.393 . S
C571 C570 1.391 . S
H572 C580 0.950 . S
H573 C585 0.950 . S
H574 C582 0.950 . S
H575 C584 0.950 . S
H576 C586 0.950 . S
H577 C588 0.950 . S
H578 C590 0.950 . S
H579 C591 0.950 . S
C580 H572 0.950 . S
C580 C581 1.386 . S
C580 C582 1.391 . S
C581 C580 1.386 . S
C581 C585 1.393 . S
C582 H574 0.950 . S
C582 C580 1.391 . S
C582 C583 1.400 . S
C583 C582 1.400 . S
C583 C584 1.398 . S
C583 C589 1.491 . S
C584 H575 0.950 . S
C584 C583 1.398 . S
C584 C585 1.391 . S
C585 H573 0.950 . S
C585 C581 1.393 . S
C585 C584 1.391 . S
C586 H576 0.950 . S
C586 C587 1.386 . S
C586 C588 1.391 . S
C587 C586 1.386 . S
C587 C591 1.393 . S
C588 H577 0.950 . S
C588 C586 1.391 . S
C588 C589 1.400 . S
C589 C583 1.491 . S
C589 C588 1.400 . S
C589 C590 1.398 . S
C590 H578 0.950 . S
C590 C589 1.398 . S
C590 C591 1.391 . S
C591 H579 0.950 . S
C591 C587 1.393 . S
C591 C590 1.391 . S
H592 C600 0.950 . S
H593 C605 0.950 . S
H594 C602 0.950 . S
H595 C604 0.950 . S
H596 C606 0.950 . S
H597 C608 0.950 . S
H598 C610 0.950 . S
H599 C611 0.950 . S
C600 H592 0.950 . S
C600 C601 1.386 . S
C600 C602 1.391 . S
C601 C600 1.386 . S
C601 C605 1.393 . S
C602 H594 0.950 . S
C602 C600 1.391 . S
C602 C603 1.400 . S
C603 C602 1.400 . S
C603 C604 1.398 . S
C603 C609 1.491 . S
C604 H595 0.950 . S
C604 C603 1.398 . S
C604 C605 1.391 . S
C605 H593 0.950 . S
C605 C601 1.393 . S
C605 C604 1.391 . S
C606 H596 0.950 . S
C606 C607 1.386 . S
C606 C608 1.391 . S
C607 C606 1.386 . S
C607 C611 1.393 . S
C608 H597 0.950 . S
C608 C606 1.391 . S
C608 C609 1.400 . S
C609 C603 1.491 . S
C609 C608 1.400 . S
C609 C610 1.398 . S
C610 H598 0.950 . S
C610 C609 1.398 . S
C610 C611 1.391 . S
C611 H599 0.950 . S
C611 C607 1.393 . S
C611 C610 1.391 . S
H612 C620 0.950 . S
H613 C625 0.950 . S
H614 C622 0.950 . S
H615 C624 0.950 . S
H616 C626 0.950 . S
H617 C628 0.950 . S
H618 C630 0.950 . S
H619 C631 0.950 . S
C620 H612 0.950 . S
C620 C621 1.386 . S
C620 C622 1.391 . S
C621 C620 1.386 . S
C621 C625 1.393 . S
C622 H614 0.950 . S
C622 C620 1.391 . S
C622 C623 1.400 . S
C623 C622 1.400 . S
C623 C624 1.398 . S
C623 C629 1.491 . S
C624 H615 0.950 . S
C624 C623 1.398 . S
C624 C625 1.391 . S
C625 H613 0.950 . S
C625 C621 1.393 . S
C625 C624 1.391 . S
C626 H616 0.950 . S
C626 C627 1.386 . S
C626 C628 1.391 . S
C627 C626 1.386 . S
C627 C631 1.393 . S
C628 H617 0.950 . S
C628 C626 1.391 . S
C628 C629 1.400 . S
C629 C623 1.491 . S
C629 C628 1.400 . S
C629 C630 1.398 . S
C630 H618 0.950 . S
C630 C629 1.398 . S
C630 C631 1.391 . S
C631 H619 0.950 . S
C631 C627 1.393 . S
C631 C630 1.391 . S
H632 C640 0.950 . S
H633 C645 0.950 . S
H634 C642 0.950 . S
H635 C644 0.950 . S
H636 C646 0.950 . S
H637 C648 0.950 . S
H638 C650 0.950 . S
H639 C651 0.950 . S
C640 H632 0.950 . S
C640 C641 1.386 . S
C640 C642 1.391 . S
C641 C640 1.386 . S
C641 C645 1.393 . S
C642 H634 0.950 . S
C642 C640 1.391 . S
C642 C643 1.400 . S
C643 C642 1.400 . S
C643 C644 1.398 . S
C643 C649 1.491 . S
C644 H635 0.950 . S
C644 C643 1.398 . S
C644 C645 1.391 . S
C645 H633 0.950 . S
C645 C641 1.393 . S
C645 C644 1.391 . S
C646 H636 0.950 . S
C646 C647 1.386 . S
C646 C648 1.391 . S
C647 C646 1.386 . S
C647 C651 1.393 . S
C648 H637 0.950 . S
C648 C646 1.391 . S
C648 C649 1.400 . S
C649 C643 1.491 . S
C649 C648 1.400 . S
C649 C650 1.398 . S
C650 H638 0.950 . S
C650 C649 1.398 . S
C650 C651 1.391 . S
C651 H639 0.950 . S
C651 C647 1.393 . S
C651 C650 1.391 . S
H652 C660 0.950 . S
H653 C665 0.950 . S
H654 C662 0.950 . S
H655 C664 0.950 . S
H656 C666 0.950 . S
H657 C668 0.950 . S
H658 C670 0.950 . S
H659 C671 0.950 . S
C660 H652 0.950 . S
C660 C661 1.386 . S
C660 C662 1.391 . S
C661 C660 1.386 . S
C661 C665 1.393 . S
C662 H654 0.950 . S
C662 C660 1.391 . S
C662 C663 1.400 . S
C663 C662 1.400 . S
C663 C664 1.398 . S
C663 C669 1.491 . S
C664 H655 0.950 . S
C664 C663 1.398 . S
C664 C665 1.391 . S
C665 H653 0.950 . S
C665 C661 1.393 . S
C665 C664 1.391 . S
C666 H656 0.950 . S
C666 C667 1.386 . S
C666 C668 1.391 . S
C667 C666 1.386 . S
C667 C671 1.393 . S
C668 H657 0.950 . S
C668 C666 1.391 . S
C668 C669 1.400 . S
C669 C663 1.491 . S
C669 C668 1.400 . S
C669 C670 1.398 . S
C670 H658 0.950 . S
C670 C669 1.398 . S
C670 C671 1.391 . S
C671 H659 0.950 . S
C671 C667 1.393 . S
C671 C670 1.391 . S
H672 C680 0.950 . S
H673 C685 0.950 . S
H674 C682 0.950 . S
H675 C684 0.950 . S
H676 C686 0.950 . S
H677 C688 0.950 . S
H678 C690 0.950 . S
H679 C691 0.950 . S
C680 H672 0.950 . S
C680 C681 1.386 . S
C680 C682 1.391 . S
C681 C680 1.386 . S
C681 C685 1.393 . S
C682 H674 0.950 . S
C682 C680 1.391 . S
C682 C683 1.400 . S
C683 C682 1.400 . S
C683 C684 1.398 . S
C683 C689 1.491 . S
C684 H675 0.950 . S
C684 C683 1.398 . S
C684 C685 1.391 . S
C685 H673 0.950 . S
C685 C681 1.393 . S
C685 C684 1.391 . S
C686 H676 0.950 . S
C686 C687 1.386 . S
C686 C688 1.391 . S
C687 C686 1.386 . S
C687 C691 1.393 . S
C688 H677 0.950 . S
C688 C686 1.391 . S
C688 C689 1.400 . S
C689 C683 1.491 . S
C689 C688 1.400 . S
C689 C690 1.398 . S
C690 H678 0.950 . S
C690 C689 1.398 . S
C690 C691 1.391 . S
C691 H679 0.950 . S
C691 C687 1.393 . S
C691 C690 1.391 . S
H692 C700 0.950 . S
H693 C705 0.950 . S
H694 C702 0.950 . S
H695 C704 0.950 . S
H696 C706 0.950 . S
H697 C708 0.950 . S
H698 C710 0.950 . S
H699 C711 0.950 . S
C700 H692 0.950 . S
C700 C701 1.386 . S
C700 C702 1.391 . S
C701 C700 1.386 . S
C701 C705 1.393 . S
C702 H694 0.950 . S
C702 C700 1.391 . S
C702 C703 1.400 . S
C703 C702 1.400 . S
C703 C704 1.398 . S
C703 C709 1.491 . S
C704 H695 0.950 . S
C704 C703 1.398 . S
C704 C705 1.391 . S
C705 H693 0.950 . S
C705 C701 1.393 . S
C705 C704 1.391 . S
C706 H696 0.950 . S
C706 C707 1.386 . S
C706 C708 1.391 . S
C707 C706 1.386 . S
C707 C711 1.393 . S
C708 H697 0.950 . S
C708 C706 1.391 . S
C708 C709 1.400 . S
C709 C703 1.491 . S
C709 C708 1.400 . S
C709 C710 1.398 . S
C710 H698 0.950 . S
C710 C709 1.398 . S
C710 C711 1.391 . S
C711 H699 0.950 . S
C711 C707 1.393 . S
C711 C710 1.391 . S
H712 C720 0.950 . S
H713 C725 0.950 . S
H714 C722 0.950 . S
H715 C724 0.950 . S
H716 C726 0.950 . S
H717 C728 0.950 . S
H718 C730 0.950 . S
H719 C731 0.950 . S
C720 H712 0.950 . S
C720 C721 1.386 . S
C720 C722 1.391 . S
C721 C720 1.386 . S
C721 C725 1.393 . S
C722 H714 0.950 . S
C722 C720 1.391 . S
C722 C723 1.400 . S
C723 C722 1.400 . S
C723 C724 1.398 . S
C723 C729 1.491 . S
C724 H715 0.950 . S
C724 C723 1.398 . S
C724 C725 1.391 . S
C725 H713 0.950 . S
C725 C721 1.393 . S
C725 C724 1.391 . S
C726 H716 0.950 . S
C726 C727 1.386 . S
C726 C728 1.391 . S
C727 C726 1.386 . S
C727 C731 1.393 . S
C728 H717 0.950 . S
C728 C726 1.391 . S
C728 C729 1.400 . S
C729 C723 1.491 . S
C729 C728 1.400 . S
C729 C730 1.398 . S
C730 H718 0.950 . S
C730 C729 1.398 . S
C730 C731 1.391 . S
C731 H719 0.950 . S
C731 C727 1.393 . S
C731 C730 1.391 . S
H732 C740 0.950 . S
H733 C745 0.950 . S
H734 C742 0.950 . S
H735 C744 0.950 . S
H736 C746 0.950 . S
H737 C748 0.950 . S
H738 C750 0.950 . S
H739 C751 0.950 . S
C740 H732 0.950 . S
C740 C741 1.386 . S
C740 C742 1.391 . S
C741 C740 1.386 . S
C741 C745 1.393 . S
C742 H734 0.950 . S
C742 C740 1.391 . S
C742 C743 1.400 . S
C743 C742 1.400 . S
C743 C744 1.398 . S
C743 C749 1.491 . S
C744 H735 0.950 . S
C744 C743 1.398 . S
C744 C745 1.391 . S
C745 H733 0.950 . S
C745 C741 1.393 . S
C745 C744 1.391 . S
C746 H736 0.950 . S
C746 C747 1.386 . S
C746 C748 1.391 . S
C747 C746 1.386 . S
C747 C751 1.393 . S
C748 H737 0.950 . S
C748 C746 1.391 . S
C748 C749 1.400 . S
C749 C743 1.491 . S
C749 C748 1.400 . S
C749 C750 1.398 . S
C750 H738 0.950 . S
C750 C749 1.398 . S
C750 C751 1.391 . S
C751 H739 0.950 . S
C751 C747 1.393 . S
C751 C750 1.391 . S
H752 C760 0.950 . S
H753 C765 0.950 . S
H754 C762 0.950 . S
H755 C764 0.950 . S
H756 C766 0.950 . S
H757 C768 0.950 . S
H758 C770 0.950 . S
H759 C771 0.950 . S
C760 H752 0.950 . S
C760 C761 1.386 . S
C760 C762 1.391 . S
C761 C760 1.386 . S
C761 C765 1.393 . S
C762 H754 0.950 . S
C762 C760 1.391 . S
C762 C763 1.400 . S
C763 C762 1.400 . S
C763 C764 1.398 . S
C763 C769 1.491 . S
C764 H755 0.950 . S
C764 C763 1.398 . S
C764 C765 1.391 . S
C765 H753 0.950 . S
C765 C761 1.393 . S
C765 C764 1.391 . S
C766 H756 0.950 . S
C766 C767 1.386 . S
C766 C768 1.391 . S
C767 C766 1.386 . S
C767 C771 1.393 . S
C768 H757 0.950 . S
C768 C766 1.391 . S
C768 C769 1.400 . S
C769 C763 1.491 . S
C769 C768 1.400 . S
C769 C770 1.398 . S
C770 H758 0.950 . S
C770 C769 1.398 . S
C770 C771 1.391 . S
C771 H759 0.950 . S
C771 C767 1.393 . S
C771 C770 1.391 . S
H772 C780 0.950 . S
H773 C785 0.950 . S
H774 C782 0.950 . S
H775 C784 0.950 . S
H776 C786 0.950 . S
H777 C788 0.950 . S
H778 C790 0.950 . S
H779 C791 0.950 . S
C780 H772 0.950 . S
C780 C781 1.386 . S
C780 C782 1.391 . S
C781 C780 1.386 . S
C781 C785 1.393 . S
C782 H774 0.950 . S
C782 C780 1.391 . S
C782 C783 1.400 . S
C783 C782 1.400 . S
C783 C784 1.398 . S
C783 C789 1.491 . S
C784 H775 0.950 . S
C784 C783 1.398 . S
C784 C785 1.391 . S
C785 H773 0.950 . S
C785 C781 1.393 . S
C785 C784 1.391 . S
C786 H776 0.950 . S
C786 C787 1.386 . S
C786 C788 1.391 . S
C787 C786 1.386 . S
C787 C791 1.393 . S
C788 H777 0.950 . S
C788 C786 1.391 . S
C788 C789 1.400 . S
C789 C783 1.491 . S
C789 C788 1.400 . S
C789 C790 1.398 . S
C790 H778 0.950 . S
C790 C789 1.398 . S
C790 C791 1.391 . S
C791 H779 0.950 . S
C791 C787 1.393 . S
C791 C790 1.391 . S
H792 C800 0.950 . S
H793 C805 0.950 . S
H794 C802 0.950 . S
H795 C804 0.950 . S
H796 C806 0.950 . S
H797 C808 0.950 . S
H798 C810 0.950 . S
H799 C811 0.950 . S
C800 H792 0.950 . S
C800 C801 1.386 . S
C800 C802 1.391 . S
C801 C800 1.386 . S
C801 C805 1.393 . S
C802 H794 0.950 . S
C802 C800 1.391 . S
C802 C803 1.400 . S
C803 C802 1.400 . S
C803 C804 1.398 . S
C803 C809 1.491 1_554 S
C804 H795 0.950 . S
C804 C803 1.398 . S
C804 C805 1.391 . S
C805 H793 0.950 . S
C805 C801 1.393 . S
C805 C804 1.391 . S
C806 H796 0.950 . S
C806 C807 1.386 . S
C806 C808 1.391 . S
C807 C806 1.386 . S
C807 C811 1.393 . S
C808 H797 0.950 . S
C808 C806 1.391 . S
C808 C809 1.400 . S
C809 C803 1.491 1_556 S
C809 C808 1.400 . S
C809 C810 1.398 . S
C810 H798 0.950 . S
C810 C809 1.398 . S
C810 C811 1.391 . S
C811 H799 0.950 . S
C811 C807 1.393 . S
C811 C810 1.391 . S
H812 C820 0.950 . S
H813 C825 0.950 . S
H814 C822 0.950 . S
H815 C824 0.950 . S
H816 C826 0.950 . S
H817 C828 0.950 . S
H818 C830 0.950 . S
H819 C831 0.950 . S
C820 H812 0.950 . S
C820 C821 1.386 . S
C820 C822 1.391 . S
C821 C820 1.386 . S
C821 C825 1.393 . S
C822 H814 0.950 . S
C822 C820 1.391 . S
C822 C823 1.400 . S
C823 C822 1.400 . S
C823 C824 1.398 . S
C823 C829 1.491 1_556 S
C824 H815 0.950 . S
C824 C823 1.398 . S
C824 C825 1.391 . S
C825 H813 0.950 . S
C825 C821 1.393 . S
C825 C824 1.391 . S
C826 H816 0.950 . S
C826 C827 1.386 . S
C826 C828 1.391 . S
C827 C826 1.386 . S
C827 C831 1.393 . S
C828 H817 0.950 . S
C828 C826 1.391 . S
C828 C829 1.400 . S
C829 C823 1.491 1_554 S
C829 C828 1.400 . S
C829 C830 1.398 . S
C830 H818 0.950 . S
C830 C829 1.398 . S
C830 C831 1.391 . S
C831 H819 0.950 . S
C831 C827 1.393 . S
C831 C830 1.391 . S
H832 C840 0.950 . S
H833 C845 0.950 . S
H834 C842 0.950 . S
H835 C844 0.950 . S
H836 C846 0.950 . S
H837 C848 0.950 . S
H838 C850 0.950 . S
H839 C851 0.950 . S
C840 H832 0.950 . S
C840 C841 1.386 . S
C840 C842 1.391 . S
C841 C840 1.386 . S
C841 C845 1.393 . S
C842 H834 0.950 . S
C842 C840 1.391 . S
C842 C843 1.400 . S
C843 C842 1.400 . S
C843 C844 1.398 . S
C843 C849 1.491 1_556 S
C844 H835 0.950 . S
C844 C843 1.398 . S
C844 C845 1.391 . S
C845 H833 0.950 . S
C845 C841 1.393 . S
C845 C844 1.391 . S
C846 H836 0.950 . S
C846 C847 1.386 . S
C846 C848 1.391 . S
C847 C846 1.386 . S
C847 C851 1.393 . S
C848 H837 0.950 . S
C848 C846 1.391 . S
C848 C849 1.400 . S
C849 C843 1.491 1_554 S
C849 C848 1.400 . S
C849 C850 1.398 . S
C850 H838 0.950 . S
C850 C849 1.398 . S
C850 C851 1.391 . S
C851 H839 0.950 . S
C851 C847 1.393 . S
C851 C850 1.391 . S
H852 C860 0.950 . S
H853 C865 0.950 . S
H854 C862 0.950 . S
H855 C864 0.950 . S
H856 C866 0.950 . S
H857 C868 0.950 . S
H858 C870 0.950 . S
H859 C871 0.950 . S
C860 H852 0.950 . S
C860 C861 1.386 . S
C860 C862 1.391 . S
C861 C860 1.386 . S
C861 C865 1.393 . S
C862 H854 0.950 . S
C862 C860 1.391 . S
C862 C863 1.400 . S
C863 C862 1.400 . S
C863 C864 1.398 . S
C863 C869 1.491 1_554 S
C864 H855 0.950 . S
C864 C863 1.398 . S
C864 C865 1.391 . S
C865 H853 0.950 . S
C865 C861 1.393 . S
C865 C864 1.391 . S
C866 H856 0.950 . S
C866 C867 1.386 . S
C866 C868 1.391 . S
C867 C866 1.386 . S
C867 C871 1.393 . S
C868 H857 0.950 . S
C868 C866 1.391 . S
C868 C869 1.400 . S
C869 C863 1.491 1_556 S
C869 C868 1.400 . S
C869 C870 1.398 . S
C870 H858 0.950 . S
C870 C869 1.398 . S
C870 C871 1.391 . S
C871 H859 0.950 . S
C871 C867 1.393 . S
C871 C870 1.391 . S
H872 C880 0.950 . S
H873 C885 0.950 . S
H874 C882 0.950 . S
H875 C884 0.950 . S
H876 C886 0.950 . S
H877 C888 0.950 . S
H878 C890 0.950 . S
H879 C891 0.950 . S
C880 H872 0.950 . S
C880 C881 1.386 . S
C880 C882 1.391 . S
C881 C880 1.386 . S
C881 C885 1.393 . S
C882 H874 0.950 . S
C882 C880 1.391 . S
C882 C883 1.400 . S
C883 C882 1.400 . S
C883 C884 1.398 . S
C883 C889 1.491 1_554 S
C884 H875 0.950 . S
C884 C883 1.398 . S
C884 C885 1.391 . S
C885 H873 0.950 . S
C885 C881 1.393 . S
C885 C884 1.391 . S
C886 H876 0.950 . S
C886 C887 1.386 . S
C886 C888 1.391 . S
C887 C886 1.386 . S
C887 C891 1.393 . S
C888 H877 0.950 . S
C888 C886 1.391 . S
C888 C889 1.400 . S
C889 C883 1.491 1_556 S
C889 C888 1.400 . S
C889 C890 1.398 . S
C890 H878 0.950 . S
C890 C889 1.398 . S
C890 C891 1.391 . S
C891 H879 0.950 . S
C891 C887 1.393 . S
C891 C890 1.391 . S
H892 C900 0.950 . S
H893 C905 0.950 . S
H894 C902 0.950 . S
H895 C904 0.950 . S
H896 C906 0.950 . S
H897 C908 0.950 . S
H898 C910 0.950 . S
H899 C911 0.950 . S
C900 H892 0.950 . S
C900 C901 1.386 . S
C900 C902 1.391 . S
C901 C900 1.386 . S
C901 C905 1.393 . S
C902 H894 0.950 . S
C902 C900 1.391 . S
C902 C903 1.400 . S
C903 C902 1.400 . S
C903 C904 1.398 . S
C903 C909 1.491 1_556 S
C904 H895 0.950 . S
C904 C903 1.398 . S
C904 C905 1.391 . S
C905 H893 0.950 . S
C905 C901 1.393 . S
C905 C904 1.391 . S
C906 H896 0.950 . S
C906 C907 1.386 . S
C906 C908 1.391 . S
C907 C906 1.386 . S
C907 C911 1.393 . S
C908 H897 0.950 . S
C908 C906 1.391 . S
C908 C909 1.400 . S
C909 C903 1.491 1_554 S
C909 C908 1.400 . S
C909 C910 1.398 . S
C910 H898 0.950 . S
C910 C909 1.398 . S
C910 C911 1.391 . S
C911 H899 0.950 . S
C911 C907 1.393 . S
C911 C910 1.391 . S
H912 C920 0.950 . S
H913 C925 0.950 . S
H914 C922 0.950 . S
H915 C924 0.950 . S
H916 C926 0.950 . S
H917 C928 0.950 . S
H918 C930 0.950 . S
H919 C931 0.950 . S
C920 H912 0.950 . S
C920 C921 1.386 . S
C920 C922 1.391 . S
C921 C920 1.386 . S
C921 C925 1.393 . S
C922 H914 0.950 . S
C922 C920 1.391 . S
C922 C923 1.400 . S
C923 C922 1.400 . S
C923 C924 1.398 . S
C923 C929 1.491 . S
C924 H915 0.950 . S
C924 C923 1.398 . S
C924 C925 1.391 . S
C925 H913 0.950 . S
C925 C921 1.393 . S
C925 C924 1.391 . S
C926 H916 0.950 . S
C926 C927 1.386 . S
C926 C928 1.391 . S
C927 C926 1.386 . S
C927 C931 1.393 . S
C928 H917 0.950 . S
C928 C926 1.391 . S
C928 C929 1.400 . S
C929 C923 1.491 . S
C929 C928 1.400 . S
C929 C930 1.398 . S
C930 H918 0.950 . S
C930 C929 1.398 . S
C930 C931 1.391 . S
C931 H919 0.950 . S
C931 C927 1.393 . S
C931 C930 1.391 . S
H932 C940 0.950 . S
H933 C945 0.950 . S
H934 C942 0.950 . S
H935 C944 0.950 . S
H936 C946 0.950 . S
H937 C948 0.950 . S
H938 C950 0.950 . S
H939 C951 0.950 . S
C940 H932 0.950 . S
C940 C941 1.386 . S
C940 C942 1.391 . S
C941 C940 1.386 . S
C941 C945 1.393 . S
C942 H934 0.950 . S
C942 C940 1.391 . S
C942 C943 1.400 . S
C943 C942 1.400 . S
C943 C944 1.398 . S
C943 C949 1.491 . S
C944 H935 0.950 . S
C944 C943 1.398 . S
C944 C945 1.391 . S
C945 H933 0.950 . S
C945 C941 1.393 . S
C945 C944 1.391 . S
C946 H936 0.950 . S
C946 C947 1.386 . S
C946 C948 1.391 . S
C947 C946 1.386 . S
C947 C951 1.393 . S
C948 H937 0.950 . S
C948 C946 1.391 . S
C948 C949 1.400 . S
C949 C943 1.491 . S
C949 C948 1.400 . S
C949 C950 1.398 . S
C950 H938 0.950 . S
C950 C949 1.398 . S
C950 C951 1.391 . S
C951 H939 0.950 . S
C951 C947 1.393 . S
C951 C950 1.391 . S
H952 C960 0.950 . S
H953 C965 0.950 . S
H954 C962 0.950 . S
H955 C964 0.950 . S
H956 C966 0.950 . S
H957 C968 0.950 . S
H958 C970 0.950 . S
H959 C971 0.950 . S
C960 H952 0.950 . S
C960 C961 1.386 . S
C960 C962 1.391 . S
C961 C960 1.386 . S
C961 C965 1.393 . S
C962 H954 0.950 . S
C962 C960 1.391 . S
C962 C963 1.400 . S
C963 C962 1.400 . S
C963 C964 1.398 . S
C963 C969 1.491 . S
C964 H955 0.950 . S
C964 C963 1.398 . S
C964 C965 1.391 . S
C965 H953 0.950 . S
C965 C961 1.393 . S
C965 C964 1.391 . S
C966 H956 0.950 . S
C966 C967 1.386 . S
C966 C968 1.391 . S
C967 C966 1.386 . S
C967 C971 1.393 . S
C968 H957 0.950 . S
C968 C966 1.391 . S
C968 C969 1.400 . S
C969 C963 1.491 . S
C969 C968 1.400 . S
C969 C970 1.398 . S
C970 H958 0.950 . S
C970 C969 1.398 . S
C970 C971 1.391 . S
C971 H959 0.950 . S
C971 C967 1.393 . S
C971 C970 1.391 . S
H972 C980 0.950 . S
H973 C985 0.950 . S
H974 C982 0.950 . S
H975 C984 0.950 . S
H976 C986 0.950 . S
H977 C988 0.950 . S
H978 C990 0.950 . S
H979 C991 0.950 . S
C980 H972 0.950 . S
C980 C981 1.386 . S
C980 C982 1.391 . S
C981 C980 1.386 . S
C981 C985 1.393 . S
C982 H974 0.950 . S
C982 C980 1.391 . S
C982 C983 1.400 . S
C983 C982 1.400 . S
C983 C984 1.398 . S
C983 C989 1.491 . S
C984 H975 0.950 . S
C984 C983 1.398 . S
C984 C985 1.391 . S
C985 H973 0.950 . S
C985 C981 1.393 . S
C985 C984 1.391 . S
C986 H976 0.950 . S
C986 C987 1.386 . S
C986 C988 1.391 . S
C987 C986 1.386 . S
C987 C991 1.393 . S
C988 H977 0.950 . S
C988 C986 1.391 . S
C988 C989 1.400 . S
C989 C983 1.491 . S
C989 C988 1.400 . S
C989 C990 1.398 . S
C990 H978 0.950 . S
C990 C989 1.398 . S
C990 C991 1.391 . S
C991 H979 0.950 . S
C991 C987 1.393 . S
C991 C990 1.391 . S
H992 C1000 0.950 . S
H993 C1005 0.950 . S
H994 C1002 0.950 . S
H995 C1004 0.950 . S
H996 C1006 0.950 . S
H997 C1008 0.950 . S
H998 C1010 0.950 . S
H999 C1011 0.950 . S
C1000 H992 0.950 . S
C1000 C1001 1.386 . S
C1000 C1002 1.391 . S
C1001 C1000 1.386 . S
C1001 C1005 1.393 . S
C1002 H994 0.950 . S
C1002 C1000 1.391 . S
C1002 C1003 1.400 . S
C1003 C1002 1.400 . S
C1003 C1004 1.398 . S
C1003 C1009 1.491 . S
C1004 H995 0.950 . S
C1004 C1003 1.398 . S
C1004 C1005 1.391 . S
C1005 H993 0.950 . S
C1005 C1001 1.393 . S
C1005 C1004 1.391 . S
C1006 H996 0.950 . S
C1006 C1007 1.386 . S
C1006 C1008 1.391 . S
C1007 C1006 1.386 . S
C1007 C1011 1.393 . S
C1008 H997 0.950 . S
C1008 C1006 1.391 . S
C1008 C1009 1.400 . S
C1009 C1003 1.491 . S
C1009 C1008 1.400 . S
C1009 C1010 1.398 . S
C1010 H998 0.950 . S
C1010 C1009 1.398 . S
C1010 C1011 1.391 . S
C1011 H999 0.950 . S
C1011 C1007 1.393 . S
C1011 C1010 1.391 . S
H1012 C1020 0.950 . S
H1013 C1025 0.950 . S
H1014 C1022 0.950 . S
H1015 C1024 0.950 . S
H1016 C1026 0.950 . S
H1017 C1028 0.950 . S
H1018 C1030 0.950 . S
H1019 C1031 0.950 . S
C1020 H1012 0.950 . S
C1020 C1021 1.386 . S
C1020 C1022 1.391 . S
C1021 C1020 1.386 . S
C1021 C1025 1.393 . S
C1022 H1014 0.950 . S
C1022 C1020 1.391 . S
C1022 C1023 1.400 . S
C1023 C1022 1.400 . S
C1023 C1024 1.398 . S
C1023 C1029 1.491 . S
C1024 H1015 0.950 . S
C1024 C1023 1.398 . S
C1024 C1025 1.391 . S
C1025 H1013 0.950 . S
C1025 C1021 1.393 . S
C1025 C1024 1.391 . S
C1026 H1016 0.950 . S
C1026 C1027 1.386 . S
C1026 C1028 1.391 . S
C1027 C1026 1.386 . S
C1027 C1031 1.393 . S
C1028 H1017 0.950 . S
C1028 C1026 1.391 . S
C1028 C1029 1.400 . S
C1029 C1023 1.491 . S
C1029 C1028 1.400 . S
C1029 C1030 1.398 . S
C1030 H1018 0.950 . S
C1030 C1029 1.398 . S
C1030 C1031 1.391 . S
C1031 H1019 0.950 . S
C1031 C1027 1.393 . S
C1031 C1030 1.391 . S
H1032 C1040 0.950 . S
H1033 C1045 0.950 . S
H1034 C1042 0.950 . S
H1035 C1044 0.950 . S
H1036 C1046 0.950 . S
H1037 C1048 0.950 . S
H1038 C1050 0.950 . S
H1039 C1051 0.950 . S
C1040 H1032 0.950 . S
C1040 C1041 1.386 . S
C1040 C1042 1.391 . S
C1041 C1040 1.386 . S
C1041 C1045 1.393 . S
C1042 H1034 0.950 . S
C1042 C1040 1.391 . S
C1042 C1043 1.400 . S
C1043 C1042 1.400 . S
C1043 C1044 1.398 . S
C1043 C1049 1.491 . S
C1044 H1035 0.950 . S
C1044 C1043 1.398 . S
C1044 C1045 1.391 . S
C1045 H1033 0.950 . S
C1045 C1041 1.393 . S
C1045 C1044 1.391 . S
C1046 H1036 0.950 . S
C1046 C1047 1.386 . S
C1046 C1048 1.391 . S
C1047 C1046 1.386 . S
C1047 C1051 1.393 . S
C1048 H1037 0.950 . S
C1048 C1046 1.391 . S
C1048 C1049 1.400 . S
C1049 C1043 1.491 . S
C1049 C1048 1.400 . S
C1049 C1050 1.398 . S
C1050 H1038 0.950 . S
C1050 C1049 1.398 . S
C1050 C1051 1.391 . S
C1051 H1039 0.950 . S
C1051 C1047 1.393 . S
C1051 C1050 1.391 . S
H1052 C1060 0.950 . S
H1053 C1065 0.950 . S
H1054 C1062 0.950 . S
H1055 C1064 0.950 . S
H1056 C1066 0.950 . S
H1057 C1068 0.950 . S
H1058 C1070 0.950 . S
H1059 C1071 0.950 . S
C1060 H1052 0.950 . S
C1060 C1061 1.386 . S
C1060 C1062 1.391 . S
C1061 C1060 1.386 . S
C1061 C1065 1.393 . S
C1062 H1054 0.950 . S
C1062 C1060 1.391 . S
C1062 C1063 1.400 . S
C1063 C1062 1.400 . S
C1063 C1064 1.398 . S
C1063 C1069 1.491 . S
C1064 H1055 0.950 . S
C1064 C1063 1.398 . S
C1064 C1065 1.391 . S
C1065 H1053 0.950 . S
C1065 C1061 1.393 . S
C1065 C1064 1.391 . S
C1066 H1056 0.950 . S
C1066 C1067 1.386 . S
C1066 C1068 1.391 . S
C1067 C1066 1.386 . S
C1067 C1071 1.393 . S
C1068 H1057 0.950 . S
C1068 C1066 1.391 . S
C1068 C1069 1.400 . S
C1069 C1063 1.491 . S
C1069 C1068 1.400 . S
C1069 C1070 1.398 . S
C1070 H1058 0.950 . S
C1070 C1069 1.398 . S
C1070 C1071 1.391 . S
C1071 H1059 0.950 . S
C1071 C1067 1.393 . S
C1071 C1070 1.391 . S
H1072 C1080 0.950 . S
H1073 C1085 0.950 . S
H1074 C1082 0.950 . S
H1075 C1084 0.950 . S
H1076 C1086 0.950 . S
H1077 C1088 0.950 . S
H1078 C1090 0.950 . S
H1079 C1091 0.950 . S
C1080 H1072 0.950 . S
C1080 C1081 1.386 . S
C1080 C1082 1.391 . S
C1081 C1080 1.386 . S
C1081 C1085 1.393 . S
C1082 H1074 0.950 . S
C1082 C1080 1.391 . S
C1082 C1083 1.400 . S
C1083 C1082 1.400 . S
C1083 C1084 1.398 . S
C1083 C1089 1.491 . S
C1084 H1075 0.950 . S
C1084 C1083 1.398 . S
C1084 C1085 1.391 . S
C1085 H1073 0.950 . S
C1085 C1081 1.393 . S
C1085 C1084 1.391 . S
C1086 H1076 0.950 . S
C1086 C1087 1.386 . S
C1086 C1088 1.391 . S
C1087 C1086 1.386 . S
C1087 C1091 1.393 . S
C1088 H1077 0.950 . S
C1088 C1086 1.391 . S
C1088 C1089 1.400 . S
C1089 C1083 1.491 . S
C1089 C1088 1.400 . S
C1089 C1090 1.398 . S
C1090 H1078 0.950 . S
C1090 C1089 1.398 . S
C1090 C1091 1.391 . S
C1091 H1079 0.950 . S
C1091 C1087 1.393 . S
C1091 C1090 1.391 . S
H1092 C1100 0.950 . S
H1093 C1105 0.950 . S
H1094 C1102 0.950 . S
H1095 C1104 0.950 . S
H1096 C1106 0.950 . S
H1097 C1108 0.950 . S
H1098 C1110 0.950 . S
H1099 C1111 0.950 . S
C1100 H1092 0.950 . S
C1100 C1101 1.386 . S
C1100 C1102 1.391 . S
C1101 C1100 1.386 . S
C1101 C1105 1.393 . S
C1102 H1094 0.950 . S
C1102 C1100 1.391 . S
C1102 C1103 1.400 . S
C1103 C1102 1.400 . S
C1103 C1104 1.398 . S
C1103 C1109 1.491 . S
C1104 H1095 0.950 . S
C1104 C1103 1.398 . S
C1104 C1105 1.391 . S
C1105 H1093 0.950 . S
C1105 C1101 1.393 . S
C1105 C1104 1.391 . S
C1106 H1096 0.950 . S
C1106 C1107 1.386 . S
C1106 C1108 1.391 . S
C1107 C1106 1.386 . S
C1107 C1111 1.393 . S
C1108 H1097 0.950 . S
C1108 C1106 1.391 . S
C1108 C1109 1.400 . S
C1109 C1103 1.491 . S
C1109 C1108 1.400 . S
C1109 C1110 1.398 . S
C1110 H1098 0.950 . S
C1110 C1109 1.398 . S
C1110 C1111 1.391 . S
C1111 H1099 0.950 . S
C1111 C1107 1.393 . S
C1111 C1110 1.391 . S
H1112 C1120 0.950 . S
H1113 C1125 0.950 . S
H1114 C1122 0.950 . S
H1115 C1124 0.950 . S
H1116 C1126 0.950 . S
H1117 C1128 0.950 . S
H1118 C1130 0.950 . S
H1119 C1131 0.950 . S
C1120 H1112 0.950 . S
C1120 C1121 1.386 . S
C1120 C1122 1.391 . S
C1121 C1120 1.386 . S
C1121 C1125 1.393 . S
C1122 H1114 0.950 . S
C1122 C1120 1.391 . S
C1122 C1123 1.400 . S
C1123 C1122 1.400 . S
C1123 C1124 1.398 . S
C1123 C1129 1.491 . S
C1124 H1115 0.950 . S
C1124 C1123 1.398 . S
C1124 C1125 1.391 . S
C1125 H1113 0.950 . S
C1125 C1121 1.393 . S
C1125 C1124 1.391 . S
C1126 H1116 0.950 . S
C1126 C1127 1.386 . S
C1126 C1128 1.391 . S
C1127 C1126 1.386 . S
C1127 C1131 1.393 . S
C1128 H1117 0.950 . S
C1128 C1126 1.391 . S
C1128 C1129 1.400 . S
C1129 C1123 1.491 . S
C1129 C1128 1.400 . S
C1129 C1130 1.398 . S
C1130 H1118 0.950 . S
C1130 C1129 1.398 . S
C1130 C1131 1.391 . S
C1131 H1119 0.950 . S
C1131 C1127 1.393 . S
C1131 C1130 1.391 . S
H1132 C1140 0.950 . S
H1133 C1145 0.950 . S
H1134 C1142 0.950 . S
H1135 C1144 0.950 . S
H1136 C1146 0.950 . S
H1137 C1148 0.950 . S
H1138 C1150 0.950 . S
H1139 C1151 0.950 . S
C1140 H1132 0.950 . S
C1140 C1141 1.386 . S
C1140 C1142 1.391 . S
C1141 C1140 1.386 . S
C1141 C1145 1.393 . S
C1142 H1134 0.950 . S
C1142 C1140 1.391 . S
C1142 C1143 1.400 . S
C1143 C1142 1.400 . S
C1143 C1144 1.398 . S
C1143 C1149 1.491 . S
C1144 H1135 0.950 . S
C1144 C1143 1.398 . S
C1144 C1145 1.391 . S
C1145 H1133 0.950 . S
C1145 C1141 1.393 . S
C1145 C1144 1.391 . S
C1146 H1136 0.950 . S
C1146 C1147 1.386 . S
C1146 C1148 1.391 . S
C1147 C1146 1.386 . S
C1147 C1151 1.393 . S
C1148 H1137 0.950 . S
C1148 C1146 1.391 . S
C1148 C1149 1.400 . S
C1149 C1143 1.491 . S
C1149 C1148 1.400 . S
C1149 C1150 1.398 . S
C1150 H1138 0.950 . S
C1150 C1149 1.398 . S
C1150 C1151 1.391 . S
C1151 H1139 0.950 . S
C1151 C1147 1.393 . S
C1151 C1150 1.391 . S
H1152 C1160 0.950 . S
H1153 C1165 0.950 . S
H1154 C1162 0.950 . S
H1155 C1164 0.950 . S
H1156 C1166 0.950 . S
H1157 C1168 0.950 . S
H1158 C1170 0.950 . S
H1159 C1171 0.950 . S
C1160 H1152 0.950 . S
C1160 C1161 1.386 . S
C1160 C1162 1.391 . S
C1161 C1160 1.386 . S
C1161 C1165 1.393 . S
C1162 H1154 0.950 . S
C1162 C1160 1.391 . S
C1162 C1163 1.400 . S
C1163 C1162 1.400 . S
C1163 C1164 1.398 . S
C1163 C1169 1.491 . S
C1164 H1155 0.950 . S
C1164 C1163 1.398 . S
C1164 C1165 1.391 . S
C1165 H1153 0.950 . S
C1165 C1161 1.393 . S
C1165 C1164 1.391 . S
C1166 H1156 0.950 . S
C1166 C1167 1.386 . S
C1166 C1168 1.391 . S
C1167 C1166 1.386 . S
C1167 C1171 1.393 . S
C1168 H1157 0.950 . S
C1168 C1166 1.391 . S
C1168 C1169 1.400 . S
C1169 C1163 1.491 . S
C1169 C1168 1.400 . S
C1169 C1170 1.398 . S
C1170 H1158 0.950 . S
C1170 C1169 1.398 . S
C1170 C1171 1.391 . S
C1171 H1159 0.950 . S
C1171 C1167 1.393 . S
C1171 C1170 1.391 . S
H1172 C1180 0.950 . S
H1173 C1185 0.950 . S
H1174 C1182 0.950 . S
H1175 C1184 0.950 . S
H1176 C1186 0.950 . S
H1177 C1188 0.950 . S
H1178 C1190 0.950 . S
H1179 C1191 0.950 . S
C1180 H1172 0.950 . S
C1180 C1181 1.386 . S
C1180 C1182 1.391 . S
C1181 C1180 1.386 . S
C1181 C1185 1.393 . S
C1182 H1174 0.950 . S
C1182 C1180 1.391 . S
C1182 C1183 1.400 . S
C1183 C1182 1.400 . S
C1183 C1184 1.398 . S
C1183 C1189 1.491 . S
C1184 H1175 0.950 . S
C1184 C1183 1.398 . S
C1184 C1185 1.391 . S
C1185 H1173 0.950 . S
C1185 C1181 1.393 . S
C1185 C1184 1.391 . S
C1186 H1176 0.950 . S
C1186 C1187 1.386 . S
C1186 C1188 1.391 . S
C1187 C1186 1.386 . S
C1187 C1191 1.393 . S
C1188 H1177 0.950 . S
C1188 C1186 1.391 . S
C1188 C1189 1.400 . S
C1189 C1183 1.491 . S
C1189 C1188 1.400 . S
C1189 C1190 1.398 . S
C1190 H1178 0.950 . S
C1190 C1189 1.398 . S
C1190 C1191 1.391 . S
C1191 H1179 0.950 . S
C1191 C1187 1.393 . S
C1191 C1190 1.391 . S
H1192 C1200 0.950 . S
H1193 C1205 0.950 . S
H1194 C1202 0.950 . S
H1195 C1204 0.950 . S
H1196 C1206 0.950 . S
H1197 C1208 0.950 . S
H1198 C1210 0.950 . S
H1199 C1211 0.950 . S
C1200 H1192 0.950 . S
C1200 C1201 1.386 . S
C1200 C1202 1.391 . S
C1201 C1200 1.386 . S
C1201 C1205 1.393 . S
C1202 H1194 0.950 . S
C1202 C1200 1.391 . S
C1202 C1203 1.400 . S
C1203 C1202 1.400 . S
C1203 C1204 1.398 . S
C1203 C1209 1.491 . S
C1204 H1195 0.950 . S
C1204 C1203 1.398 . S
C1204 C1205 1.391 . S
C1205 H1193 0.950 . S
C1205 C1201 1.393 . S
C1205 C1204 1.391 . S
C1206 H1196 0.950 . S
C1206 C1207 1.386 . S
C1206 C1208 1.391 . S
C1207 C1206 1.386 . S
C1207 C1211 1.393 . S
C1208 H1197 0.950 . S
C1208 C1206 1.391 . S
C1208 C1209 1.400 . S
C1209 C1203 1.491 . S
C1209 C1208 1.400 . S
C1209 C1210 1.398 . S
C1210 H1198 0.950 . S
C1210 C1209 1.398 . S
C1210 C1211 1.391 . S
C1211 H1199 0.950 . S
C1211 C1207 1.393 . S
C1211 C1210 1.391 . S
H1212 C1220 0.950 . S
H1213 C1225 0.950 . S
H1214 C1222 0.950 . S
H1215 C1224 0.950 . S
H1216 C1226 0.950 . S
H1217 C1228 0.950 . S
H1218 C1230 0.950 . S
H1219 C1231 0.950 . S
C1220 H1212 0.950 . S
C1220 C1221 1.386 . S
C1220 C1222 1.391 . S
C1221 C1220 1.386 . S
C1221 C1225 1.393 . S
C1222 H1214 0.950 . S
C1222 C1220 1.391 . S
C1222 C1223 1.400 . S
C1223 C1222 1.400 . S
C1223 C1224 1.398 . S
C1223 C1229 1.491 . S
C1224 H1215 0.950 . S
C1224 C1223 1.398 . S
C1224 C1225 1.391 . S
C1225 H1213 0.950 . S
C1225 C1221 1.393 . S
C1225 C1224 1.391 . S
C1226 H1216 0.950 . S
C1226 C1227 1.386 . S
C1226 C1228 1.391 . S
C1227 C1226 1.386 . S
C1227 C1231 1.393 . S
C1228 H1217 0.950 . S
C1228 C1226 1.391 . S
C1228 C1229 1.400 . S
C1229 C1223 1.491 . S
C1229 C1228 1.400 . S
C1229 C1230 1.398 . S
C1230 H1218 0.950 . S
C1230 C1229 1.398 . S
C1230 C1231 1.391 . S
C1231 H1219 0.950 . S
C1231 C1227 1.393 . S
C1231 C1230 1.391 . S
H1232 C1240 0.950 . S
H1233 C1245 0.950 . S
H1234 C1242 0.950 . S
H1235 C1244 0.950 . S
H1236 C1246 0.950 . S
H1237 C1248 0.950 . S
H1238 C1250 0.950 . S
H1239 C1251 0.950 . S
C1240 H1232 0.950 . S
C1240 C1241 1.386 . S
C1240 C1242 1.391 . S
C1241 C1240 1.386 . S
C1241 C1245 1.393 . S
C1242 H1234 0.950 . S
C1242 C1240 1.391 . S
C1242 C1243 1.400 . S
C1243 C1242 1.400 . S
C1243 C1244 1.398 . S
C1243 C1249 1.491 . S
C1244 H1235 0.950 . S
C1244 C1243 1.398 . S
C1244 C1245 1.391 . S
C1245 H1233 0.950 . S
C1245 C1241 1.393 . S
C1245 C1244 1.391 . S
C1246 H1236 0.950 . S
C1246 C1247 1.386 . S
C1246 C1248 1.391 . S
C1247 C1246 1.386 . S
C1247 C1251 1.393 . S
C1248 H1237 0.950 . S
C1248 C1246 1.391 . S
C1248 C1249 1.400 . S
C1249 C1243 1.491 . S
C1249 C1248 1.400 . S
C1249 C1250 1.398 . S
C1250 H1238 0.950 . S
C1250 C1249 1.398 . S
C1250 C1251 1.391 . S
C1251 H1239 0.950 . S
C1251 C1247 1.393 . S
C1251 C1250 1.391 . S
H1252 C1260 0.950 . S
H1253 C1265 0.950 . S
H1254 C1262 0.950 . S
H1255 C1264 0.950 . S
H1256 C1266 0.950 . S
H1257 C1268 0.950 . S
H1258 C1270 0.950 . S
H1259 C1271 0.950 . S
C1260 H1252 0.950 . S
C1260 C1261 1.386 . S
C1260 C1262 1.391 . S
C1261 C1260 1.386 . S
C1261 C1265 1.393 . S
C1262 H1254 0.950 . S
C1262 C1260 1.391 . S
C1262 C1263 1.400 . S
C1263 C1262 1.400 . S
C1263 C1264 1.398 . S
C1263 C1269 1.491 . S
C1264 H1255 0.950 . S
C1264 C1263 1.398 . S
C1264 C1265 1.391 . S
C1265 H1253 0.950 . S
C1265 C1261 1.393 . S
C1265 C1264 1.391 . S
C1266 H1256 0.950 . S
C1266 C1267 1.386 . S
C1266 C1268 1.391 . S
C1267 C1266 1.386 . S
C1267 C1271 1.393 . S
C1268 H1257 0.950 . S
C1268 C1266 1.391 . S
C1268 C1269 1.400 . S
C1269 C1263 1.491 . S
C1269 C1268 1.400 . S
C1269 C1270 1.398 . S
C1270 H1258 0.950 . S
C1270 C1269 1.398 . S
C1270 C1271 1.391 . S
C1271 H1259 0.950 . S
C1271 C1267 1.393 . S
C1271 C1270 1.391 . S
C321 C5 1.563 . S
C327 C96 1.566 . S
C341 C109 1.565 . S
C347 C16 1.568 . S
C361 C31 1.562 . S
C367 C120 1.567 . S
C381 C44 1.564 . S
C387 C133 1.564 . S
C401 C148 1.565 . S
C407 C55 1.563 . S
C421 C70 1.567 . S
C427 C81 1.562 . S
C441 C161 1.568 . S
C447 C252 1.565 . S
C461 C172 1.563 . S
C467 C265 1.567 . S
C481 C276 1.564 . S
C487 C185 1.568 . S
C501 C198 1.567 . S
C507 C291 1.567 . S
C521 C211 1.564 . S
C527 C302 1.564 . S
C541 C237 1.568 . S
C547 C224 1.564 . S
C561 C4 1.578 . S
C567 C108 1.578 . S
C581 C127 1.577 . S
C587 C23 1.577 . S
C601 C140 1.571 . S
C607 C30 1.570 . S
C621 C43 1.571 . S
C627 C147 1.571 . S
C641 C62 1.573 . S
C647 C88 1.573 . S
C661 C69 1.576 . S
C667 C95 1.576 . S
C681 C264 1.570 . S
C687 C160 1.570 . S
C701 C179 1.578 . S
C707 C283 1.578 . S
C721 C290 1.577 . S
C727 C192 1.577 . S
C741 C309 1.578 . S
C747 C205 1.578 . S
C761 C244 1.578 . S
C767 C218 1.578 . S
C781 C231 1.572 . S
C787 C251 1.572 . S
C801 C10 1.668 . S
C807 C199 1.671 . S
C821 C212 1.670 . S
C827 C17 1.669 . S
C841 C225 1.672 . S
C847 C36 1.667 . S
C861 C49 1.672 . S
C867 C166 1.667 . S
C881 C56 1.664 . S
C887 C173 1.675 . S
C901 C186 1.675 . S
C907 C75 1.664 . S
C921 C277 1.675 . S
C927 C82 1.664 . S
C941 C296 1.666 . S
C947 C101 1.673 . S
C961 C303 1.664 . S
C967 C114 1.675 . S
C981 C238 1.664 . S
C987 C121 1.675 . S
C1001 C134 1.669 . S
C1007 C257 1.670 . S
C1021 C153 1.668 . S
C1027 C270 1.671 . S
C1041 C3 1.556 . S
C1047 C135 1.559 . S
C1061 C146 1.555 . S
C1067 C18 1.557 . S
C1081 C83 1.566 . S
C1087 C29 1.568 . S
C1101 C42 1.569 . S
C1107 C94 1.569 . S
C1121 C57 1.559 . S
C1127 C107 1.562 . S
C1141 C68 1.559 . S
C1147 C122 1.556 . S
C1161 C159 1.562 . S
C1167 C289 1.565 . S
C1181 C174 1.561 . S
C1187 C304 1.558 . S
C1201 C187 1.555 . S
C1207 C239 1.555 . S
C1221 C250 1.558 . S
C1227 C200 1.556 . S
C1241 C213 1.565 . S
C1247 C263 1.567 . S
C1261 C226 1.563 . S
C1267 C278 1.565 . S
