# Generated by pormake.
# Topology qtz-e, (6)-cn, num edge types: 1
# Building blocks:
#     Node 0, Type 0, BuildingBlock: GEDQOX_clean_sbu_0, # of connection points: 6
#     Node 1, Type 0, BuildingBlock: GEDQOX_clean_sbu_0, # of connection points: 6
#     Node 2, Type 0, BuildingBlock: GEDQOX_clean_sbu_0, # of connection points: 6
#     Node 3, Type 0, BuildingBlock: GEDQOX_clean_sbu_0, # of connection points: 6
#     Node 4, Type 0, BuildingBlock: GEDQOX_clean_sbu_0, # of connection points: 6
#     Node 5, Type 0, BuildingBlock: GEDQOX_clean_sbu_0, # of connection points: 6
#     Edge 6, Type (0, 0), BuildingBlock: AJUNOK_clean_linker_0, # of connection points: 2
#     Edge 7, Type (0, 0), BuildingBlock: AJUNOK_clean_linker_0, # of connection points: 2
#     Edge 8, Type (0, 0), BuildingBlock: AJUNOK_clean_linker_0, # of connection points: 2
#     Edge 9, Type (0, 0), BuildingBlock: AJUNOK_clean_linker_0, # of connection points: 2
#     Edge 10, Type (0, 0), BuildingBlock: AJUNOK_clean_linker_0, # of connection points: 2
#     Edge 11, Type (0, 0), BuildingBlock: AJUNOK_clean_linker_0, # of connection points: 2
#     Edge 12, Type (0, 0), BuildingBlock: AJUNOK_clean_linker_0, # of connection points: 2
#     Edge 13, Type (0, 0), BuildingBlock: AJUNOK_clean_linker_0, # of connection points: 2
#     Edge 14, Type (0, 0), BuildingBlock: AJUNOK_clean_linker_0, # of connection points: 2
#     Edge 15, Type (0, 0), BuildingBlock: AJUNOK_clean_linker_0, # of connection points: 2
#     Edge 16, Type (0, 0), BuildingBlock: AJUNOK_clean_linker_0, # of connection points: 2
#     Edge 17, Type (0, 0), BuildingBlock: AJUNOK_clean_linker_0, # of connection points: 2
#     Edge 18, Type (0, 0), BuildingBlock: AJUNOK_clean_linker_0, # of connection points: 2
#     Edge 19, Type (0, 0), BuildingBlock: AJUNOK_clean_linker_0, # of connection points: 2
#     Edge 20, Type (0, 0), BuildingBlock: AJUNOK_clean_linker_0, # of connection points: 2
#     Edge 21, Type (0, 0), BuildingBlock: AJUNOK_clean_linker_0, # of connection points: 2
#     Edge 22, Type (0, 0), BuildingBlock: AJUNOK_clean_linker_0, # of connection points: 2
#     Edge 23, Type (0, 0), BuildingBlock: AJUNOK_clean_linker_0, # of connection points: 2
# Relax obj value: 0.079
# Max RMSD: 0.175
# Mean RMSD: 0.175
data_MOF--net-qtz-e--node1-GEDQOX_clean_sbu_0--edge1-AJUNOK_clean_linker_0
_symmetry_space_group_name_H-M    P1
_symmetry_Int_Tables_number       1
_symmetry_cell_setting            triclinic
loop_
_symmetry_equiv_pos_as_xyz
'x, y, z'
_cell_length_a     19.837956
_cell_length_b     19.76962
_cell_length_c     41.857862
_cell_angle_alpha  90.011703
_cell_angle_beta   89.977795
_cell_angle_gamma 120.5381
loop_
_atom_site_label
_atom_site_type_symbol
_atom_site_fract_x
_atom_site_fract_y
_atom_site_fract_z
_atom_type_partial_charge
Nd0 Nd 0.1547 0.34887 0.08757 0.0
Nd1 Nd 0.26667 0.50425 0.05445 0.0
C2 C 0.04355 0.22568 0.11888 0.0
C3 C 0.00967 0.2165 0.15152 0.0
C4 C 0.00574 0.27847 0.16613 0.0
C5 C 0.97547 0.27039 0.1971 0.0
C6 C 0.94845 0.20017 0.21447 0.0
C7 C 0.95412 0.13879 0.20014 0.0
C8 C 0.98414 0.14681 0.16897 0.0
C9 C 0.31207 0.40315 0.09552 0.0
C10 C 0.2284 0.50431 0.12947 0.0
C11 C 0.37564 0.63967 1.03066 0.0
C12 C 0.38793 0.67328 0.99849 0.0
C13 C 0.46404 0.71554 0.98623 0.0
C14 C 0.47591 0.73424 0.95381 0.0
C15 C 0.41177 0.71117 0.9333 0.0
C16 C 0.33579 0.67301 0.94592 0.0
C17 C 0.32386 0.65375 0.97834 0.0
C18 C 0.1118 0.45886 0.04784 0.0
C19 C 0.19256 0.3472 1.01031 0.0
O20 O 0.02883 0.26611 0.09808 0.0
O21 O 0.11628 0.24245 0.11762 0.0
O22 O 0.26106 0.36875 0.11804 0.0
O23 O 0.27936 0.40442 0.07011 0.0
O24 O 0.16272 0.43883 0.12346 0.0
O25 O 0.28527 0.53519 0.10822 0.0
O26 O 0.38379 0.57822 1.03283 0.0
O27 O 0.31474 0.63135 0.04629 0.0
O28 O 0.16275 0.48744 1.02495 0.0
O29 O 0.14336 0.45317 0.07309 0.0
O30 O 0.2488 0.42123 1.01343 0.0
O31 O 0.14488 0.30732 0.03444 0.0
H32 H 0.02639 0.33348 0.15365 0.0
H33 H 0.97367 0.31955 0.20759 0.0
H34 H 0.93408 0.08408 0.21282 0.0
H35 H 0.98743 0.09846 0.15849 0.0
H36 H 0.51399 0.7303 1.00135 0.0
H37 H 0.53502 0.7636 0.94443 0.0
H38 H 0.28559 0.65382 0.93041 0.0
H39 H 0.26447 0.62008 0.98726 0.0
Nd40 Nd 0.80056 0.15734 0.42159 0.0
Nd41 Nd 0.75592 0.2663 0.39168 0.0
C42 C 0.81813 0.04852 0.45098 0.0
C43 C 0.79671 0.01419 0.4838 0.0
C44 C 0.7191 0.97831 0.49494 0.0
C45 C 0.70075 0.95226 0.52663 0.0
C46 C 0.75934 0.96182 0.54833 0.0
C47 C 0.83674 -0.00372 0.537 0.0
C48 C 0.85508 0.0219 0.50514 0.0
C49 C 0.91006 0.31623 0.4253 0.0
C50 C 0.72768 0.2317 0.46772 0.0
C51 C 0.73474 0.37734 0.36818 0.0
C52 C 0.74535 0.40437 0.33489 0.0
C53 C 0.81139 0.41657 0.31759 0.0
C54 C 0.81493 0.42757 0.28465 0.0
C55 C 0.75216 0.42554 0.26834 0.0
C56 C 0.68748 0.41641 0.28576 0.0
C57 C 0.68407 0.40577 0.31884 0.0
C58 C 0.63973 0.11177 0.38775 0.0
C59 C 0.83058 0.1937 0.34379 0.0
O60 O 0.76097 0.03173 0.43089 0.0
O61 O 0.87361 0.12221 0.44932 0.0
O62 O 0.89189 0.2687 0.44932 0.0
O63 O 0.87146 0.27899 0.40126 0.0
O64 O 0.72831 0.16697 0.46142 0.0
O65 O 0.74731 0.28613 0.44562 0.0
O66 O 0.7982 0.39241 0.38362 0.0
O67 O 0.67715 0.30556 0.37265 0.0
O68 O 0.66337 0.16082 0.36411 0.0
O69 O 0.68113 0.14366 0.41232 0.0
O70 O 0.81877 0.25269 0.34888 0.0
O71 O 0.82215 0.14429 0.36722 0.0
H72 H 0.67247 0.97166 0.47939 0.0
H73 H 0.64036 0.92531 0.53431 0.0
H74 H 0.88369 0.006 0.55301 0.0
H75 H 0.91548 0.04977 0.49737 0.0
H76 H 0.85904 0.41444 0.32922 0.0
H77 H 0.86553 0.43472 0.27176 0.0
H78 H 0.63929 0.41676 0.27377 0.0
H79 H 0.63237 0.39569 0.33171 0.0
Nd80 Nd 0.64554 0.82317 0.75697 0.0
Nd81 Nd 0.49526 0.78179 0.72359 0.0
C82 C 0.76641 0.83531 0.78905 0.0
C83 C 0.77101 0.80655 0.82133 0.0
C84 C 0.70529 0.74088 0.83461 0.0
C85 C 0.70781 0.71557 0.86559 0.0
C86 C 0.77649 0.75462 0.88411 0.0
C87 C 0.84195 0.82129 0.87102 0.0
C88 C 0.8392 0.84697 0.83993 0.0
C89 C 0.60091 0.93485 0.75939 0.0
C90 C 0.49164 0.75136 0.79935 0.0
C91 C 0.36418 0.75748 0.69734 0.0
C92 C 0.34214 0.75285 0.66351 0.0
C93 C 0.39418 0.80809 0.64132 0.0
C94 C 0.37606 0.79923 0.60883 0.0
C95 C 0.30637 0.73408 0.59781 0.0
C96 C 0.25422 0.67909 0.62008 0.0
C97 C 0.27195 0.68849 0.65267 0.0
C98 C 0.53175 0.6652 0.72099 0.0
C99 C 0.65041 0.86079 0.67946 0.0
O100 O 0.72878 0.78182 0.76706 0.0
O101 O 0.74892 0.89072 0.78849 0.0
O102 O 0.6267 0.91551 0.78413 0.0
O103 O 0.60025 0.89607 0.73564 0.0
O104 O 0.5544 0.74697 0.79371 0.0
O105 O 0.46249 0.776 0.77694 0.0
O106 O 0.41828 0.82629 0.70783 0.0
O107 O 0.37393 0.70041 0.70729 0.0
O108 O 0.50984 0.68974 0.69661 0.0
O109 O 0.53828 0.7055 0.74544 0.0
O110 O 0.57888 0.84821 0.68295 0.0
O111 O 0.68693 0.84781 0.70333 0.0
H112 H 0.65161 0.70912 0.82106 0.0
H113 H 0.65559 0.66531 0.87512 0.0
H114 H 0.89565 0.85282 0.88462 0.0
H115 H 0.89032 0.89845 0.83043 0.0
H116 H 0.44941 0.85769 0.64893 0.0
H117 H 0.41636 0.84389 0.59243 0.0
H118 H 0.20004 0.62833 0.61226 0.0
H119 H 0.2316 0.64465 0.66934 0.0
Nd120 Nd 0.80946 0.63701 0.08954 0.0
Nd121 Nd 0.7117 0.47932 0.05869 0.0
C122 C 0.90866 0.76634 0.12093 0.0
C123 C 0.94431 0.7778 0.15343 0.0
C124 C 0.98556 0.74019 0.16236 0.0
C125 C 0.01308 0.74588 0.19371 0.0
C126 C -0.00011 0.78889 0.21727 0.0
C127 C 0.95938 0.8273 0.2082 0.0
C128 C 0.93225 0.82201 0.1767 0.0
C129 C 0.64956 0.56566 0.09853 0.0
C130 C 0.76344 0.48925 0.13306 0.0
C131 C 0.61096 0.34071 0.03487 0.0
C132 C 0.59669 0.31404 1.00136 0.0
C133 C 0.52069 0.27905 0.98889 0.0
C134 C 0.50813 0.26585 0.95606 0.0
C135 C 0.57134 0.28695 0.93519 0.0
C136 C 0.64691 0.31849 0.94783 0.0
C137 C 0.65961 0.3324 0.98061 0.0
C138 C 0.86896 0.53852 0.05093 0.0
C139 C 0.77126 0.63108 1.01242 0.0
O140 O 0.93091 0.73466 0.09887 0.0
O141 O 0.83325 0.73893 0.12018 0.0
O142 O 0.69978 0.6007 0.12119 0.0
O143 O 0.68352 0.5702 0.07273 0.0
O144 O 0.82227 0.55816 0.12498 0.0
O145 O 0.70538 0.44966 0.11278 0.0
O146 O 0.59176 0.39309 0.04219 0.0
O147 O 0.67823 0.35685 0.04708 0.0
O148 O 0.81807 0.50774 1.0281 0.0
O149 O 0.8363 0.54182 0.07628 0.0
O150 O 0.71933 0.55609 1.01671 0.0
O151 O 0.81703 0.67532 0.03617 0.0
H152 H -0.00459 0.70489 0.1453 0.0
H153 H 0.04432 0.71577 0.19955 0.0
H154 H 0.94627 0.85941 0.22564 0.0
H155 H 0.89995 0.85096 0.17071 0.0
H156 H 0.4715 0.26509 1.00437 0.0
H157 H 0.44922 0.24118 0.94683 0.0
H158 H 0.6967 0.33633 0.9322 0.0
H159 H 0.71913 0.36068 0.98944 0.0
Nd160 Nd 0.15065 0.81617 0.42431 0.0
Nd161 Nd 0.20113 0.71533 0.38963 0.0
C162 C 0.13465 0.92313 0.45624 0.0
C163 C 0.16338 0.96094 0.4882 0.0
C164 C 0.24385 0.00366 0.49535 0.0
C165 C 0.27005 0.03392 0.52608 0.0
C166 C 0.21676 0.02145 0.55087 0.0
C167 C 0.13639 0.98118 0.54345 0.0
C168 C 0.11008 0.95126 0.51253 0.0
C169 C 0.04771 0.6556 0.42701 0.0
C170 C 0.22967 0.74062 0.46584 0.0
C171 C 0.23688 0.61766 0.36215 0.0
C172 C 0.24756 0.60994 0.32804 0.0
C173 C 0.24097 0.66067 0.3065 0.0
C174 C 0.24546 0.65155 0.27376 0.0
C175 C 0.25707 0.59183 0.2621 0.0
C176 C 0.26668 0.54283 0.28364 0.0
C177 C 0.26156 0.55164 0.31658 0.0
C178 C 0.3095 0.873 0.38733 0.0
C179 C 0.11105 0.78138 0.34685 0.0
O180 O 0.18682 0.94089 0.43361 0.0
O181 O 0.08162 0.84836 0.45637 0.0
O182 O 0.06257 0.70169 0.45134 0.0
O183 O 0.08424 0.69518 0.40303 0.0
O184 O 0.22627 0.80466 0.46195 0.0
O185 O 0.21098 0.68892 0.44265 0.0
O186 O 0.16549 0.59729 0.37047 0.0
O187 O 0.28924 0.68431 0.37481 0.0
O188 O 0.2859 0.827 0.36267 0.0
O189 O 0.27085 0.83626 0.41177 0.0
O190 O 0.129 0.72595 0.34978 0.0
O191 O 0.12118 0.82959 0.37104 0.0
H192 H 0.28691 0.01272 0.47735 0.0
H193 H 0.33248 0.06652 0.53054 0.0
H194 H 0.09365 0.9706 0.56182 0.0
H195 H 0.04775 0.91888 0.50781 0.0
H196 H 0.23075 0.70641 0.315 0.0
H197 H 0.23816 0.68999 0.25749 0.0
H198 H 0.27517 0.49607 0.27493 0.0
H199 H 0.26685 0.51219 0.33297 0.0
Nd200 Nd 0.34535 0.1754 0.75671 0.0
Nd201 Nd 0.49891 0.2328 0.72396 0.0
C202 C 0.21821 0.15036 0.78795 0.0
C203 C 0.20832 0.17677 0.82 0.0
C204 C 0.2707 0.24338 0.8344 0.0
C205 C 0.2634 0.26616 0.8653 0.0
C206 C 0.19328 0.22331 0.88274 0.0
C207 C 0.13057 0.15669 0.86818 0.0
C208 C 0.13821 0.13351 0.83721 0.0
C209 C 0.40426 0.07475 0.75846 0.0
C210 C 0.49628 0.25575 0.80028 0.0
C211 C 0.63804 0.2764 0.69991 0.0
C212 C 0.66528 0.28749 0.66666 0.0
C213 C 0.70565 0.25073 0.65594 0.0
C214 C 0.71959 0.24871 0.62338 0.0
C215 C 0.69335 0.28352 0.60116 0.0
C216 C 0.65698 0.32419 0.61199 0.0
C217 C 0.64248 0.32572 0.64453 0.0
C218 C 0.44747 0.33776 0.72153 0.0
C219 C 0.34534 0.14078 0.67891 0.0
O220 O 0.25264 0.20471 0.766 0.0
O221 O 0.24333 0.10074 0.78796 0.0
O222 O 0.373 0.08809 0.78308 0.0
O223 O 0.40196 0.11268 0.73497 0.0
O224 O 0.4308 0.25472 0.79456 0.0
O225 O 0.5295 0.23648 0.77757 0.0
O226 O 0.58782 0.20397 0.70785 0.0
O227 O 0.61892 0.32625 0.71092 0.0
O228 O 0.47192 0.31622 0.69701 0.0
O229 O 0.44485 0.29897 0.74599 0.0
O230 O 0.42006 0.16308 0.68216 0.0
O231 O 0.30506 0.14746 0.70301 0.0
H232 H 0.32549 0.27784 0.82181 0.0
H233 H 0.31325 0.31735 0.87568 0.0
H234 H 0.0752 0.12308 0.8805 0.0
H235 H 0.0893 0.0817 0.82672 0.0
H236 H 0.72304 0.22039 0.67258 0.0
H237 H 0.74819 0.21738 0.6154 0.0
H238 H 0.63597 0.35095 0.59517 0.0
H239 H 0.61028 0.35367 0.65215 0.0
C240 C 0.3155 0.58029 0.21091 0.0
C241 C 0.2521 0.57653 0.22751 0.0
C242 C 0.30943 0.56194 0.17827 0.0
C243 C 0.23924 0.5378 0.16165 0.0
H244 H 0.36952 0.59644 0.22335 0.0
H245 H 0.35844 0.56282 0.1664 0.0
S246 S 0.05778 0.52174 0.19425 0.0
N247 N 0.11856 0.55028 0.22488 0.0
N248 N 0.10662 0.51449 0.16375 0.0
C249 C 0.17632 0.53585 0.17788 0.0
C250 C 0.18287 0.55555 0.21083 0.0
C251 C 0.73568 0.33394 0.54547 0.0
C252 C 0.69695 0.27041 0.56669 0.0
C253 C 0.74237 0.32116 0.51292 0.0
C254 C 0.71056 0.2445 0.50077 0.0
H255 H 0.7628 0.39367 0.55426 0.0
H256 H 0.77521 0.37156 0.49751 0.0
S257 S 0.59281 0.05896 0.54607 0.0
N258 N 0.61855 0.12895 0.57293 0.0
N259 N 0.63229 0.10451 0.51215 0.0
C260 C 0.66846 0.18074 0.52167 0.0
C261 C 0.66135 0.19381 0.55456 0.0
C262 C 0.46302 0.68198 0.88461 0.0
C263 C 0.4242 0.71741 0.89845 0.0
C264 C 0.48012 0.68964 0.85207 0.0
C265 C 0.45952 0.73351 0.83206 0.0
H266 H 0.48137 0.6489 0.8992 0.0
H267 H 0.51179 0.66261 0.84275 0.0
S268 S 0.35351 0.83475 0.85661 0.0
N269 N 0.36201 0.79468 0.88989 0.0
N270 N 0.39506 0.81015 0.82826 0.0
C271 C 0.41763 0.76659 0.84533 0.0
C272 C 0.39983 0.75836 0.87869 0.0
C273 C 0.82274 0.49644 0.21913 0.0
C274 C 0.75545 0.43471 0.23324 0.0
C275 C 0.82601 0.51013 0.18635 0.0
C276 C 0.76188 0.46285 0.16627 0.0
H277 H 0.87239 0.53626 0.23368 0.0
H278 H 0.87862 0.56027 0.17701 0.0
S279 S 0.57732 0.28497 0.191 0.0
N280 N 0.62709 0.31954 0.22453 0.0
N281 N 0.63296 0.34553 0.16253 0.0
C282 C 0.69616 0.39759 0.17979 0.0
C283 C 0.69285 0.38369 0.21339 0.0
C284 C 0.2106 0.70905 0.5543 0.0
C285 C 0.28585 0.72592 0.5634 0.0
C286 C 0.19158 0.70908 0.52217 0.0
C287 C 0.24666 0.72483 0.49802 0.0
H288 H 0.16716 0.6995 0.5722 0.0
H289 H 0.13436 0.69992 0.51623 0.0
S290 S 0.45003 0.76849 0.50852 0.0
N291 N 0.41462 0.75489 0.54521 0.0
N292 N 0.3782 0.75577 0.48463 0.0
C293 C 0.32099 0.73899 0.5064 0.0
C294 C 0.34077 0.73934 0.53919 0.0
C295 C 0.51847 0.31701 0.88681 0.0
C296 C 0.55891 0.28265 0.90018 0.0
C297 C 0.50243 0.31147 0.85411 0.0
C298 C 0.52615 0.27128 0.83342 0.0
H299 H 0.49833 0.34787 0.90183 0.0
H300 H 0.46949 0.33746 0.84513 0.0
S301 S 0.63541 0.17242 0.85649 0.0
N302 N 0.62424 0.20874 0.89032 0.0
N303 N 0.5939 0.1981 0.82856 0.0
C304 C 0.56908 0.23892 0.84626 0.0
C305 C 0.58546 0.24461 0.87973 0.0
C306 C 0.44275 0.52605 0.09404 0.0
C307 C 0.39743 0.44492 0.09994 0.0
C308 C 0.52471 0.56547 0.09496 0.0
C309 C 0.56387 0.52495 0.10195 0.0
H310 H 0.41503 0.55944 0.08847 0.0
H311 H 0.55763 0.62761 0.08941 0.0
S312 S 0.47149 0.31216 0.11964 0.0
N313 N 0.39695 0.32573 0.11367 0.0
N314 N 0.55104 0.39931 0.11534 0.0
C315 C 0.51909 0.44418 0.10875 0.0
C316 C 0.43567 0.40425 0.1079 0.0
C317 C -0.00233 0.52763 0.39934 0.0
C318 C 0.01098 0.56898 0.42819 0.0
C319 C 0.9678 0.44655 0.39898 0.0
C320 C 0.94876 0.40289 0.42744 0.0
H321 H 0.01054 0.55818 0.37666 0.0
H322 H 0.95835 0.4176 0.37605 0.0
S323 S 0.9716 0.48257 0.50954 0.0
N324 N 0.00301 0.56021 0.48616 0.0
N325 N 0.94517 0.4069 0.48547 0.0
C326 C 0.96168 0.4432 0.45659 0.0
C327 C -0.00729 0.52636 0.45696 0.0
C328 C 0.47439 0.01726 0.78808 0.0
C329 C 0.45338 0.03788 0.75908 0.0
C330 C 0.5248 0.98647 0.78853 0.0
C331 C 0.55605 0.97599 0.75999 0.0
H332 H 0.452 0.02509 0.81052 0.0
H333 H 0.53805 0.96941 0.81119 0.0
S334 S 0.52188 0.02346 0.6781 0.0
N335 N 0.46748 0.04427 0.70124 0.0
N336 N 0.56595 0.99266 0.70241 0.0
C337 C 0.53702 -0.00167 0.73111 0.0
C338 C 0.48445 0.02731 0.73055 0.0
C339 C 0.49601 0.53941 0.69394 0.0
C340 C 0.5131 0.58265 0.72247 0.0
C341 C 0.47139 0.45942 0.6942 0.0
C342 C 0.46275 0.41914 0.72298 0.0
H343 H 0.5014 0.56748 0.6711 0.0
H344 H 0.4601 0.42911 0.67152 0.0
S345 S 0.49954 0.505 0.80449 0.0
N346 N 0.51936 0.57915 0.78049 0.0
N347 N 0.47273 0.42837 0.78097 0.0
C348 C 0.47888 0.46129 0.75182 0.0
C349 C 0.50453 0.54322 0.75155 0.0
C350 C 0.03504 0.51287 1.02276 0.0
C351 C 0.04603 0.47363 0.04853 0.0
C352 C 0.97929 0.53619 1.02424 0.0
C353 C 0.93321 0.52186 0.05162 0.0
H354 H 0.07049 0.52681 1.00138 0.0
H355 H 0.97195 0.56542 1.00378 0.0
S356 S 0.93216 0.41253 0.12395 0.0
N357 N 0.00153 0.41563 0.1011 0.0
N358 N 0.8972 0.46008 0.10404 0.0
C359 C 0.94217 0.48103 0.07727 0.0
C360 C -0.00163 0.45656 0.07563 0.0
C361 C 0.43317 0.96954 0.3603 0.0
C362 C 0.39212 0.93741 0.38891 0.0
C363 C 0.51367 0.02354 0.36032 0.0
C364 C 0.55674 0.04774 0.38896 0.0
H365 H 0.403 0.95215 0.33755 0.0
H366 H 0.54227 0.04697 0.3376 0.0
S367 S 0.47705 0.97983 0.47047 0.0
N368 N 0.40048 0.93305 0.44677 0.0
N369 N 0.55218 0.03438 0.44683 0.0
C370 C 0.51659 0.01576 0.41782 0.0
C371 C 0.43416 0.96099 0.41781 0.0
C372 C 0.2159 0.33131 0.92077 0.0
C373 C 0.18616 0.25073 0.91542 0.0
C374 C 0.21537 0.36056 0.95123 0.0
C375 C 0.1847 0.31088 0.97809 0.0
H376 H 0.24044 0.37268 0.90118 0.0
H377 H 0.24003 0.42336 0.95369 0.0
S378 S 0.0982 0.09466 0.97736 0.0
N379 N 0.12409 0.12108 0.93984 0.0
N380 N 0.122 0.17623 0.99708 0.0
C381 C 0.15251 0.22977 0.97309 0.0
C382 C 0.15348 0.19975 0.94186 0.0
C383 C 0.90943 0.16255 0.30471 0.0
C384 C 0.85401 0.18561 0.31061 0.0
C385 C 0.93849 0.16533 0.27352 0.0
C386 C 0.91322 0.19124 0.2471 0.0
H387 H 0.93275 0.14524 0.32441 0.0
H388 H 0.98296 0.14958 0.27025 0.0
S389 S 0.7591 0.2448 0.24892 0.0
N390 N 0.7686 0.22636 0.28659 0.0
N391 N 0.82253 0.23103 0.22868 0.0
C392 C 0.85483 0.21024 0.25258 0.0
C393 C 0.82548 0.20754 0.28408 0.0
C394 C 0.66412 0.9371 0.62996 0.0
C395 C 0.68824 0.8926 0.64779 0.0
C396 C 0.68921 0.96047 0.59849 0.0
C397 C 0.73923 0.94009 0.58289 0.0
H398 H 0.62418 0.95332 0.64025 0.0
H399 H 0.66849 0.99448 0.58616 0.0
S400 S 0.82182 0.82601 0.61901 0.0
N401 N 0.7677 0.8313 0.64783 0.0
N402 N 0.8141 0.87412 0.58828 0.0
C403 C 0.76617 0.89775 0.60071 0.0
C404 C 0.74087 0.87429 0.63315 0.0
C405 C 0.80856 0.7742 0.9434 0.0
C406 C 0.7796 0.72409 0.91657 0.0
C407 C 0.80753 0.74467 0.97428 0.0
C408 C 0.77738 0.66385 0.97954 0.0
H409 H 0.8304 0.83643 0.94064 0.0
H410 H 0.82871 0.78517 0.99423 0.0
S411 S 0.70447 0.50964 0.91649 0.0
N412 N 0.72727 0.59104 0.89701 0.0
N413 N 0.72452 0.53553 0.95433 0.0
C414 C 0.75116 0.61385 0.95258 0.0
C415 C 0.75244 0.64388 0.92136 0.0
C416 C 0.04029 0.718 0.29605 0.0
C417 C 0.0776 0.78587 0.31535 0.0
C418 C 0.01453 0.71972 0.265 0.0
C419 C 0.02506 0.78954 0.25132 0.0
H420 H 0.03129 0.66249 0.30489 0.0
H421 H 0.98626 0.66545 0.25152 0.0
S422 S 0.11983 0.98433 0.29146 0.0
N423 N 0.12297 0.92517 0.31853 0.0
N424 N 0.07595 0.92909 0.2599 0.0
C425 C 0.061 0.85786 0.27052 0.0
C426 C 0.08686 0.85587 0.30249 0.0
C427 C 0.24791 0.11564 0.63432 0.0
C428 C 0.30724 0.10497 0.64752 0.0
C429 C 0.21776 0.08766 0.60335 0.0
C430 C 0.24544 0.04753 0.58444 0.0
H431 H 0.22644 0.148 0.64753 0.0
H432 H 0.17394 0.09937 0.59383 0.0
S433 S 0.39121 0.99353 0.60988 0.0
N434 N 0.38662 0.04459 0.64012 0.0
N435 N 0.32903 0.99088 0.58308 0.0
C436 C 0.30174 0.0332 0.59814 0.0
C437 C 0.33278 0.06214 0.62928 0.0
loop_
_geom_bond_atom_site_label_1
_geom_bond_atom_site_label_2
_geom_bond_distance
_geom_bond_site_symmetry_2
_ccdc_geom_bond_type
Nd0 C2 2.836 . S
Nd0 O20 2.500 . S
Nd0 O21 2.492 . S
Nd0 O22 2.487 . S
Nd0 O23 2.682 . S
Nd0 O24 2.410 . S
Nd0 O29 2.414 . S
Nd0 O31 2.424 . S
Nd1 C11 2.836 1_554 S
Nd1 O23 2.414 . S
Nd1 O25 2.424 . S
Nd1 O26 2.500 1_554 S
Nd1 O27 2.492 1_554 S
Nd1 O28 2.487 . S
Nd1 O29 2.682 . S
Nd1 O30 2.410 1_554 S
C2 Nd0 2.836 . S
C2 C3 1.498 . S
C2 O20 1.258 . S
C2 O21 1.239 . S
C3 C2 1.498 . S
C3 C4 1.366 . S
C3 C8 1.407 . S
C4 C3 1.366 . S
C4 C5 1.392 1_455 S
C4 H32 0.930 1_455 S
C5 C4 1.392 1_655 S
C5 C6 1.398 . S
C5 H33 0.929 . S
C6 C5 1.398 . S
C6 C7 1.352 1_655 S
C7 C6 1.352 1_455 S
C7 C8 1.384 . S
C7 H34 0.930 . S
C8 C3 1.407 . S
C8 C7 1.384 . S
C8 H35 0.929 . S
C9 O22 1.241 . S
C9 O23 1.273 . S
C10 O24 1.251 . S
C10 O25 1.268 . S
C11 Nd1 2.836 1_556 S
C11 C12 1.498 . S
C11 O26 1.258 . S
C11 O27 1.239 . S
C12 C11 1.498 . S
C12 C13 1.366 . S
C12 C17 1.407 . S
C13 C12 1.366 . S
C13 C14 1.392 . S
C13 H36 0.930 . S
C14 C13 1.392 . S
C14 C15 1.398 . S
C14 H37 0.929 . S
C15 C14 1.398 . S
C15 C16 1.352 . S
C16 C15 1.352 . S
C16 C17 1.384 . S
C16 H38 0.930 . S
C17 C12 1.407 . S
C17 C16 1.384 . S
C17 H39 0.929 . S
C18 O28 1.241 . S
C18 O29 1.273 . S
C19 O30 1.251 . S
C19 O31 1.268 1_556 S
O20 Nd0 2.500 . S
O20 C2 1.258 . S
O21 Nd0 2.492 . S
O21 C2 1.239 . S
O22 Nd0 2.487 . S
O22 C9 1.241 . S
O23 Nd0 2.682 . S
O23 Nd1 2.414 . S
O23 C9 1.273 . S
O24 Nd0 2.410 . S
O24 C10 1.251 . S
O25 Nd1 2.424 . S
O25 C10 1.268 . S
O26 Nd1 2.500 1_556 S
O26 C11 1.258 . S
O27 Nd1 2.492 1_556 S
O27 C11 1.239 . S
O28 Nd1 2.487 . S
O28 C18 1.241 . S
O29 Nd0 2.414 . S
O29 Nd1 2.682 . S
O29 C18 1.273 . S
O30 Nd1 2.410 1_556 S
O30 C19 1.251 . S
O31 Nd0 2.424 . S
O31 C19 1.268 1_554 S
H32 C4 0.930 1_655 S
H33 C5 0.929 . S
H34 C7 0.930 . S
H35 C8 0.929 . S
H36 C13 0.930 . S
H37 C14 0.929 . S
H38 C16 0.930 . S
H39 C17 0.929 . S
Nd40 C42 2.836 . S
Nd40 O60 2.500 . S
Nd40 O61 2.492 . S
Nd40 O62 2.487 . S
Nd40 O63 2.682 . S
Nd40 O64 2.410 . S
Nd40 O69 2.414 . S
Nd40 O71 2.424 . S
Nd41 C51 2.836 . S
Nd41 O63 2.414 . S
Nd41 O65 2.424 . S
Nd41 O66 2.500 . S
Nd41 O67 2.492 . S
Nd41 O68 2.487 . S
Nd41 O69 2.682 . S
Nd41 O70 2.410 . S
C42 Nd40 2.836 . S
C42 C43 1.498 . S
C42 O60 1.258 . S
C42 O61 1.239 . S
C43 C42 1.498 . S
C43 C44 1.366 . S
C43 C48 1.407 . S
C44 C43 1.366 . S
C44 C45 1.392 1_545 S
C44 H72 0.930 1_545 S
C45 C44 1.392 1_565 S
C45 C46 1.398 . S
C45 H73 0.929 . S
C46 C45 1.398 . S
C46 C47 1.352 1_565 S
C47 C46 1.352 1_545 S
C47 C48 1.384 . S
C47 H74 0.930 . S
C48 C43 1.407 . S
C48 C47 1.384 . S
C48 H75 0.929 . S
C49 O62 1.241 . S
C49 O63 1.273 . S
C50 O64 1.251 . S
C50 O65 1.268 . S
C51 Nd41 2.836 . S
C51 C52 1.498 . S
C51 O66 1.258 . S
C51 O67 1.239 . S
C52 C51 1.498 . S
C52 C53 1.366 . S
C52 C57 1.407 . S
C53 C52 1.366 . S
C53 C54 1.392 . S
C53 H76 0.930 . S
C54 C53 1.392 . S
C54 C55 1.398 . S
C54 H77 0.929 . S
C55 C54 1.398 . S
C55 C56 1.352 . S
C56 C55 1.352 . S
C56 C57 1.384 . S
C56 H78 0.930 . S
C57 C52 1.407 . S
C57 C56 1.384 . S
C57 H79 0.929 . S
C58 O68 1.241 . S
C58 O69 1.273 . S
C59 O70 1.251 . S
C59 O71 1.268 . S
O60 Nd40 2.500 . S
O60 C42 1.258 . S
O61 Nd40 2.492 . S
O61 C42 1.239 . S
O62 Nd40 2.487 . S
O62 C49 1.241 . S
O63 Nd40 2.682 . S
O63 Nd41 2.414 . S
O63 C49 1.273 . S
O64 Nd40 2.410 . S
O64 C50 1.251 . S
O65 Nd41 2.424 . S
O65 C50 1.268 . S
O66 Nd41 2.500 . S
O66 C51 1.258 . S
O67 Nd41 2.492 . S
O67 C51 1.239 . S
O68 Nd41 2.487 . S
O68 C58 1.241 . S
O69 Nd40 2.414 . S
O69 Nd41 2.682 . S
O69 C58 1.273 . S
O70 Nd41 2.410 . S
O70 C59 1.251 . S
O71 Nd40 2.424 . S
O71 C59 1.268 . S
H72 C44 0.930 1_565 S
H73 C45 0.929 . S
H74 C47 0.930 . S
H75 C48 0.929 . S
H76 C53 0.930 . S
H77 C54 0.929 . S
H78 C56 0.930 . S
H79 C57 0.929 . S
Nd80 C82 2.836 . S
Nd80 O100 2.500 . S
Nd80 O101 2.492 . S
Nd80 O102 2.487 . S
Nd80 O103 2.682 . S
Nd80 O104 2.410 . S
Nd80 O109 2.414 . S
Nd80 O111 2.424 . S
Nd81 C91 2.836 . S
Nd81 O103 2.414 . S
Nd81 O105 2.424 . S
Nd81 O106 2.500 . S
Nd81 O107 2.492 . S
Nd81 O108 2.487 . S
Nd81 O109 2.682 . S
Nd81 O110 2.410 . S
C82 Nd80 2.836 . S
C82 C83 1.498 . S
C82 O100 1.258 . S
C82 O101 1.239 . S
C83 C82 1.498 . S
C83 C84 1.366 . S
C83 C88 1.407 . S
C84 C83 1.366 . S
C84 C85 1.392 . S
C84 H112 0.930 . S
C85 C84 1.392 . S
C85 C86 1.398 . S
C85 H113 0.929 . S
C86 C85 1.398 . S
C86 C87 1.352 . S
C87 C86 1.352 . S
C87 C88 1.384 . S
C87 H114 0.930 . S
C88 C83 1.407 . S
C88 C87 1.384 . S
C88 H115 0.929 . S
C89 O102 1.241 . S
C89 O103 1.273 . S
C90 O104 1.251 . S
C90 O105 1.268 . S
C91 Nd81 2.836 . S
C91 C92 1.498 . S
C91 O106 1.258 . S
C91 O107 1.239 . S
C92 C91 1.498 . S
C92 C93 1.366 . S
C92 C97 1.407 . S
C93 C92 1.366 . S
C93 C94 1.392 . S
C93 H116 0.930 . S
C94 C93 1.392 . S
C94 C95 1.398 . S
C94 H117 0.929 . S
C95 C94 1.398 . S
C95 C96 1.352 . S
C96 C95 1.352 . S
C96 C97 1.384 . S
C96 H118 0.930 . S
C97 C92 1.407 . S
C97 C96 1.384 . S
C97 H119 0.929 . S
C98 O108 1.241 . S
C98 O109 1.273 . S
C99 O110 1.251 . S
C99 O111 1.268 . S
O100 Nd80 2.500 . S
O100 C82 1.258 . S
O101 Nd80 2.492 . S
O101 C82 1.239 . S
O102 Nd80 2.487 . S
O102 C89 1.241 . S
O103 Nd80 2.682 . S
O103 Nd81 2.414 . S
O103 C89 1.273 . S
O104 Nd80 2.410 . S
O104 C90 1.251 . S
O105 Nd81 2.424 . S
O105 C90 1.268 . S
O106 Nd81 2.500 . S
O106 C91 1.258 . S
O107 Nd81 2.492 . S
O107 C91 1.239 . S
O108 Nd81 2.487 . S
O108 C98 1.241 . S
O109 Nd80 2.414 . S
O109 Nd81 2.682 . S
O109 C98 1.273 . S
O110 Nd81 2.410 . S
O110 C99 1.251 . S
O111 Nd80 2.424 . S
O111 C99 1.268 . S
H112 C84 0.930 . S
H113 C85 0.929 . S
H114 C87 0.930 . S
H115 C88 0.929 . S
H116 C93 0.930 . S
H117 C94 0.929 . S
H118 C96 0.930 . S
H119 C97 0.929 . S
Nd120 C122 2.836 . S
Nd120 O140 2.500 . S
Nd120 O141 2.492 . S
Nd120 O142 2.487 . S
Nd120 O143 2.682 . S
Nd120 O144 2.410 . S
Nd120 O149 2.414 . S
Nd120 O151 2.424 . S
Nd121 C131 2.836 1_554 S
Nd121 O143 2.414 . S
Nd121 O145 2.424 . S
Nd121 O146 2.500 1_554 S
Nd121 O147 2.492 1_554 S
Nd121 O148 2.487 . S
Nd121 O149 2.682 . S
Nd121 O150 2.410 1_554 S
C122 Nd120 2.836 . S
C122 C123 1.498 . S
C122 O140 1.258 . S
C122 O141 1.239 . S
C123 C122 1.498 . S
C123 C124 1.366 . S
C123 C128 1.407 . S
C124 C123 1.366 . S
C124 C125 1.392 1_655 S
C124 H152 0.930 1_655 S
C125 C124 1.392 1_455 S
C125 C126 1.398 . S
C125 H153 0.929 . S
C126 C125 1.398 . S
C126 C127 1.352 1_455 S
C127 C126 1.352 1_655 S
C127 C128 1.384 . S
C127 H154 0.930 . S
C128 C123 1.407 . S
C128 C127 1.384 . S
C128 H155 0.929 . S
C129 O142 1.241 . S
C129 O143 1.273 . S
C130 O144 1.251 . S
C130 O145 1.268 . S
C131 Nd121 2.836 1_556 S
C131 C132 1.498 . S
C131 O146 1.258 . S
C131 O147 1.239 . S
C132 C131 1.498 . S
C132 C133 1.366 . S
C132 C137 1.407 . S
C133 C132 1.366 . S
C133 C134 1.392 . S
C133 H156 0.930 . S
C134 C133 1.392 . S
C134 C135 1.398 . S
C134 H157 0.929 . S
C135 C134 1.398 . S
C135 C136 1.352 . S
C136 C135 1.352 . S
C136 C137 1.384 . S
C136 H158 0.930 . S
C137 C132 1.407 . S
C137 C136 1.384 . S
C137 H159 0.929 . S
C138 O148 1.241 . S
C138 O149 1.273 . S
C139 O150 1.251 . S
C139 O151 1.268 1_556 S
O140 Nd120 2.500 . S
O140 C122 1.258 . S
O141 Nd120 2.492 . S
O141 C122 1.239 . S
O142 Nd120 2.487 . S
O142 C129 1.241 . S
O143 Nd120 2.682 . S
O143 Nd121 2.414 . S
O143 C129 1.273 . S
O144 Nd120 2.410 . S
O144 C130 1.251 . S
O145 Nd121 2.424 . S
O145 C130 1.268 . S
O146 Nd121 2.500 1_556 S
O146 C131 1.258 . S
O147 Nd121 2.492 1_556 S
O147 C131 1.239 . S
O148 Nd121 2.487 . S
O148 C138 1.241 . S
O149 Nd120 2.414 . S
O149 Nd121 2.682 . S
O149 C138 1.273 . S
O150 Nd121 2.410 1_556 S
O150 C139 1.251 . S
O151 Nd120 2.424 . S
O151 C139 1.268 1_554 S
H152 C124 0.930 1_455 S
H153 C125 0.929 . S
H154 C127 0.930 . S
H155 C128 0.929 . S
H156 C133 0.930 . S
H157 C134 0.929 . S
H158 C136 0.930 . S
H159 C137 0.929 . S
Nd160 C162 2.836 . S
Nd160 O180 2.500 . S
Nd160 O181 2.492 . S
Nd160 O182 2.487 . S
Nd160 O183 2.682 . S
Nd160 O184 2.410 . S
Nd160 O189 2.414 . S
Nd160 O191 2.424 . S
Nd161 C171 2.836 . S
Nd161 O183 2.414 . S
Nd161 O185 2.424 . S
Nd161 O186 2.500 . S
Nd161 O187 2.492 . S
Nd161 O188 2.487 . S
Nd161 O189 2.682 . S
Nd161 O190 2.410 . S
C162 Nd160 2.836 . S
C162 C163 1.498 . S
C162 O180 1.258 . S
C162 O181 1.239 . S
C163 C162 1.498 . S
C163 C164 1.366 . S
C163 C168 1.407 . S
C164 C163 1.366 . S
C164 C165 1.392 1_565 S
C164 H192 0.930 1_565 S
C165 C164 1.392 1_545 S
C165 C166 1.398 . S
C165 H193 0.929 . S
C166 C165 1.398 . S
C166 C167 1.352 1_545 S
C167 C166 1.352 1_565 S
C167 C168 1.384 . S
C167 H194 0.930 . S
C168 C163 1.407 . S
C168 C167 1.384 . S
C168 H195 0.929 . S
C169 O182 1.241 . S
C169 O183 1.273 . S
C170 O184 1.251 . S
C170 O185 1.268 . S
C171 Nd161 2.836 . S
C171 C172 1.498 . S
C171 O186 1.258 . S
C171 O187 1.239 . S
C172 C171 1.498 . S
C172 C173 1.366 . S
C172 C177 1.407 . S
C173 C172 1.366 . S
C173 C174 1.392 . S
C173 H196 0.930 . S
C174 C173 1.392 . S
C174 C175 1.398 . S
C174 H197 0.929 . S
C175 C174 1.398 . S
C175 C176 1.352 . S
C176 C175 1.352 . S
C176 C177 1.384 . S
C176 H198 0.930 . S
C177 C172 1.407 . S
C177 C176 1.384 . S
C177 H199 0.929 . S
C178 O188 1.241 . S
C178 O189 1.273 . S
C179 O190 1.251 . S
C179 O191 1.268 . S
O180 Nd160 2.500 . S
O180 C162 1.258 . S
O181 Nd160 2.492 . S
O181 C162 1.239 . S
O182 Nd160 2.487 . S
O182 C169 1.241 . S
O183 Nd160 2.682 . S
O183 Nd161 2.414 . S
O183 C169 1.273 . S
O184 Nd160 2.410 . S
O184 C170 1.251 . S
O185 Nd161 2.424 . S
O185 C170 1.268 . S
O186 Nd161 2.500 . S
O186 C171 1.258 . S
O187 Nd161 2.492 . S
O187 C171 1.239 . S
O188 Nd161 2.487 . S
O188 C178 1.241 . S
O189 Nd160 2.414 . S
O189 Nd161 2.682 . S
O189 C178 1.273 . S
O190 Nd161 2.410 . S
O190 C179 1.251 . S
O191 Nd160 2.424 . S
O191 C179 1.268 . S
H192 C164 0.930 1_545 S
H193 C165 0.929 . S
H194 C167 0.930 . S
H195 C168 0.929 . S
H196 C173 0.930 . S
H197 C174 0.929 . S
H198 C176 0.930 . S
H199 C177 0.929 . S
Nd200 C202 2.836 . S
Nd200 O220 2.500 . S
Nd200 O221 2.492 . S
Nd200 O222 2.487 . S
Nd200 O223 2.682 . S
Nd200 O224 2.410 . S
Nd200 O229 2.414 . S
Nd200 O231 2.424 . S
Nd201 C211 2.836 . S
Nd201 O223 2.414 . S
Nd201 O225 2.424 . S
Nd201 O226 2.500 . S
Nd201 O227 2.492 . S
Nd201 O228 2.487 . S
Nd201 O229 2.682 . S
Nd201 O230 2.410 . S
C202 Nd200 2.836 . S
C202 C203 1.498 . S
C202 O220 1.258 . S
C202 O221 1.239 . S
C203 C202 1.498 . S
C203 C204 1.366 . S
C203 C208 1.407 . S
C204 C203 1.366 . S
C204 C205 1.392 . S
C204 H232 0.930 . S
C205 C204 1.392 . S
C205 C206 1.398 . S
C205 H233 0.929 . S
C206 C205 1.398 . S
C206 C207 1.352 . S
C207 C206 1.352 . S
C207 C208 1.384 . S
C207 H234 0.930 . S
C208 C203 1.407 . S
C208 C207 1.384 . S
C208 H235 0.929 . S
C209 O222 1.241 . S
C209 O223 1.273 . S
C210 O224 1.251 . S
C210 O225 1.268 . S
C211 Nd201 2.836 . S
C211 C212 1.498 . S
C211 O226 1.258 . S
C211 O227 1.239 . S
C212 C211 1.498 . S
C212 C213 1.366 . S
C212 C217 1.407 . S
C213 C212 1.366 . S
C213 C214 1.392 . S
C213 H236 0.930 . S
C214 C213 1.392 . S
C214 C215 1.398 . S
C214 H237 0.929 . S
C215 C214 1.398 . S
C215 C216 1.352 . S
C216 C215 1.352 . S
C216 C217 1.384 . S
C216 H238 0.930 . S
C217 C212 1.407 . S
C217 C216 1.384 . S
C217 H239 0.929 . S
C218 O228 1.241 . S
C218 O229 1.273 . S
C219 O230 1.251 . S
C219 O231 1.268 . S
O220 Nd200 2.500 . S
O220 C202 1.258 . S
O221 Nd200 2.492 . S
O221 C202 1.239 . S
O222 Nd200 2.487 . S
O222 C209 1.241 . S
O223 Nd200 2.682 . S
O223 Nd201 2.414 . S
O223 C209 1.273 . S
O224 Nd200 2.410 . S
O224 C210 1.251 . S
O225 Nd201 2.424 . S
O225 C210 1.268 . S
O226 Nd201 2.500 . S
O226 C211 1.258 . S
O227 Nd201 2.492 . S
O227 C211 1.239 . S
O228 Nd201 2.487 . S
O228 C218 1.241 . S
O229 Nd200 2.414 . S
O229 Nd201 2.682 . S
O229 C218 1.273 . S
O230 Nd201 2.410 . S
O230 C219 1.251 . S
O231 Nd200 2.424 . S
O231 C219 1.268 . S
H232 C204 0.930 . S
H233 C205 0.929 . S
H234 C207 0.930 . S
H235 C208 0.929 . S
H236 C213 0.930 . S
H237 C214 0.929 . S
H238 C216 0.930 . S
H239 C217 0.929 . S
C240 C241 1.369 . S
C240 C242 1.419 . S
C240 H244 0.930 . S
C241 C240 1.369 . S
C241 C250 1.429 . S
C242 C240 1.419 . S
C242 C243 1.363 . S
C242 H245 0.929 . S
C243 C242 1.363 . S
C243 C249 1.428 . S
H244 C240 0.930 . S
H245 C242 0.929 . S
S246 N247 1.613 . S
S246 N248 1.610 . S
N247 S246 1.613 . S
N247 C250 1.350 . S
N248 S246 1.610 . S
N248 C249 1.351 . S
C249 C243 1.428 . S
C249 N248 1.351 . S
C249 C250 1.434 . S
C250 C241 1.429 . S
C250 N247 1.350 . S
C250 C249 1.434 . S
C251 C252 1.369 . S
C251 C253 1.419 . S
C251 H255 0.930 . S
C252 C251 1.369 . S
C252 C261 1.429 . S
C253 C251 1.419 . S
C253 C254 1.363 . S
C253 H256 0.929 . S
C254 C253 1.363 . S
C254 C260 1.428 . S
H255 C251 0.930 . S
H256 C253 0.929 . S
S257 N258 1.613 . S
S257 N259 1.610 . S
N258 S257 1.613 . S
N258 C261 1.350 . S
N259 S257 1.610 . S
N259 C260 1.351 . S
C260 C254 1.428 . S
C260 N259 1.351 . S
C260 C261 1.434 . S
C261 C252 1.429 . S
C261 N258 1.350 . S
C261 C260 1.434 . S
C262 C263 1.369 . S
C262 C264 1.419 . S
C262 H266 0.930 . S
C263 C262 1.369 . S
C263 C272 1.429 . S
C264 C262 1.419 . S
C264 C265 1.363 . S
C264 H267 0.929 . S
C265 C264 1.363 . S
C265 C271 1.428 . S
H266 C262 0.930 . S
H267 C264 0.929 . S
S268 N269 1.613 . S
S268 N270 1.610 . S
N269 S268 1.613 . S
N269 C272 1.350 . S
N270 S268 1.610 . S
N270 C271 1.351 . S
C271 C265 1.428 . S
C271 N270 1.351 . S
C271 C272 1.434 . S
C272 C263 1.429 . S
C272 N269 1.350 . S
C272 C271 1.434 . S
C273 C274 1.369 . S
C273 C275 1.419 . S
C273 H277 0.930 . S
C274 C273 1.369 . S
C274 C283 1.429 . S
C275 C273 1.419 . S
C275 C276 1.363 . S
C275 H278 0.929 . S
C276 C275 1.363 . S
C276 C282 1.428 . S
H277 C273 0.930 . S
H278 C275 0.929 . S
S279 N280 1.613 . S
S279 N281 1.610 . S
N280 S279 1.613 . S
N280 C283 1.350 . S
N281 S279 1.610 . S
N281 C282 1.351 . S
C282 C276 1.428 . S
C282 N281 1.351 . S
C282 C283 1.434 . S
C283 C274 1.429 . S
C283 N280 1.350 . S
C283 C282 1.434 . S
C284 C285 1.369 . S
C284 C286 1.419 . S
C284 H288 0.930 . S
C285 C284 1.369 . S
C285 C294 1.429 . S
C286 C284 1.419 . S
C286 C287 1.363 . S
C286 H289 0.929 . S
C287 C286 1.363 . S
C287 C293 1.428 . S
H288 C284 0.930 . S
H289 C286 0.929 . S
S290 N291 1.613 . S
S290 N292 1.610 . S
N291 S290 1.613 . S
N291 C294 1.350 . S
N292 S290 1.610 . S
N292 C293 1.351 . S
C293 C287 1.428 . S
C293 N292 1.351 . S
C293 C294 1.434 . S
C294 C285 1.429 . S
C294 N291 1.350 . S
C294 C293 1.434 . S
C295 C296 1.369 . S
C295 C297 1.419 . S
C295 H299 0.930 . S
C296 C295 1.369 . S
C296 C305 1.429 . S
C297 C295 1.419 . S
C297 C298 1.363 . S
C297 H300 0.929 . S
C298 C297 1.363 . S
C298 C304 1.428 . S
H299 C295 0.930 . S
H300 C297 0.929 . S
S301 N302 1.613 . S
S301 N303 1.610 . S
N302 S301 1.613 . S
N302 C305 1.350 . S
N303 S301 1.610 . S
N303 C304 1.351 . S
C304 C298 1.428 . S
C304 N303 1.351 . S
C304 C305 1.434 . S
C305 C296 1.429 . S
C305 N302 1.350 . S
C305 C304 1.434 . S
C306 C307 1.369 . S
C306 C308 1.419 . S
C306 H310 0.930 . S
C307 C306 1.369 . S
C307 C316 1.429 . S
C308 C306 1.419 . S
C308 C309 1.363 . S
C308 H311 0.929 . S
C309 C308 1.363 . S
C309 C315 1.428 . S
H310 C306 0.930 . S
H311 C308 0.929 . S
S312 N313 1.613 . S
S312 N314 1.610 . S
N313 S312 1.613 . S
N313 C316 1.350 . S
N314 S312 1.610 . S
N314 C315 1.351 . S
C315 C309 1.428 . S
C315 N314 1.351 . S
C315 C316 1.434 . S
C316 C307 1.429 . S
C316 N313 1.350 . S
C316 C315 1.434 . S
C317 C318 1.369 . S
C317 C319 1.419 . S
C317 H321 0.930 . S
C318 C317 1.369 . S
C318 C327 1.429 1_455 S
C319 C317 1.419 . S
C319 C320 1.363 1_455 S
C319 H322 0.929 . S
C320 C319 1.363 1_655 S
C320 C326 1.428 . S
H321 C317 0.930 . S
H322 C319 0.929 . S
S323 N324 1.613 . S
S323 N325 1.610 . S
N324 S323 1.613 . S
N324 C327 1.350 . S
N325 S323 1.610 . S
N325 C326 1.351 . S
C326 C320 1.428 . S
C326 N325 1.351 . S
C326 C327 1.434 . S
C327 C318 1.429 1_655 S
C327 N324 1.350 . S
C327 C326 1.434 . S
C328 C329 1.369 . S
C328 C330 1.419 . S
C328 H332 0.930 . S
C329 C328 1.369 . S
C329 C338 1.429 1_545 S
C330 C328 1.419 . S
C330 C331 1.363 1_545 S
C330 H333 0.929 . S
C331 C330 1.363 1_565 S
C331 C337 1.428 . S
H332 C328 0.930 . S
H333 C330 0.929 . S
S334 N335 1.613 . S
S334 N336 1.610 . S
N335 S334 1.613 . S
N335 C338 1.350 . S
N336 S334 1.610 . S
N336 C337 1.351 . S
C337 C331 1.428 . S
C337 N336 1.351 . S
C337 C338 1.434 . S
C338 C329 1.429 1_565 S
C338 N335 1.350 . S
C338 C337 1.434 . S
C339 C340 1.369 . S
C339 C341 1.419 . S
C339 H343 0.930 . S
C340 C339 1.369 . S
C340 C349 1.429 . S
C341 C339 1.419 . S
C341 C342 1.363 . S
C341 H344 0.929 . S
C342 C341 1.363 . S
C342 C348 1.428 . S
H343 C339 0.930 . S
H344 C341 0.929 . S
S345 N346 1.613 . S
S345 N347 1.610 . S
N346 S345 1.613 . S
N346 C349 1.350 . S
N347 S345 1.610 . S
N347 C348 1.351 . S
C348 C342 1.428 . S
C348 N347 1.351 . S
C348 C349 1.434 . S
C349 C340 1.429 . S
C349 N346 1.350 . S
C349 C348 1.434 . S
C350 C351 1.369 . S
C350 C352 1.419 . S
C350 H354 0.930 . S
C351 C350 1.369 . S
C351 C360 1.429 1_455 S
C352 C350 1.419 . S
C352 C353 1.363 1_455 S
C352 H355 0.929 . S
C353 C352 1.363 1_655 S
C353 C359 1.428 . S
H354 C350 0.930 . S
H355 C352 0.929 . S
S356 N357 1.613 . S
S356 N358 1.610 . S
N357 S356 1.613 . S
N357 C360 1.350 . S
N358 S356 1.610 . S
N358 C359 1.351 . S
C359 C353 1.428 . S
C359 N358 1.351 . S
C359 C360 1.434 . S
C360 C351 1.429 1_655 S
C360 N357 1.350 . S
C360 C359 1.434 . S
C361 C362 1.369 . S
C361 C363 1.419 . S
C361 H365 0.930 . S
C362 C361 1.369 . S
C362 C371 1.429 1_565 S
C363 C361 1.419 . S
C363 C364 1.363 1_565 S
C363 H366 0.929 . S
C364 C363 1.363 1_545 S
C364 C370 1.428 . S
H365 C361 0.930 . S
H366 C363 0.929 . S
S367 N368 1.613 . S
S367 N369 1.610 . S
N368 S367 1.613 . S
N368 C371 1.350 . S
N369 S367 1.610 . S
N369 C370 1.351 . S
C370 C364 1.428 . S
C370 N369 1.351 . S
C370 C371 1.434 . S
C371 C362 1.429 1_545 S
C371 N368 1.350 . S
C371 C370 1.434 . S
C372 C373 1.369 . S
C372 C374 1.419 . S
C372 H376 0.930 . S
C373 C372 1.369 . S
C373 C382 1.429 . S
C374 C372 1.419 . S
C374 C375 1.363 . S
C374 H377 0.929 . S
C375 C374 1.363 . S
C375 C381 1.428 . S
H376 C372 0.930 . S
H377 C374 0.929 . S
S378 N379 1.613 . S
S378 N380 1.610 . S
N379 S378 1.613 . S
N379 C382 1.350 . S
N380 S378 1.610 . S
N380 C381 1.351 . S
C381 C375 1.428 . S
C381 N380 1.351 . S
C381 C382 1.434 . S
C382 C373 1.429 . S
C382 N379 1.350 . S
C382 C381 1.434 . S
C383 C384 1.369 . S
C383 C385 1.419 . S
C383 H387 0.930 . S
C384 C383 1.369 . S
C384 C393 1.429 . S
C385 C383 1.419 . S
C385 C386 1.363 . S
C385 H388 0.929 1_655 S
C386 C385 1.363 . S
C386 C392 1.428 . S
H387 C383 0.930 . S
H388 C385 0.929 1_455 S
S389 N390 1.613 . S
S389 N391 1.610 . S
N390 S389 1.613 . S
N390 C393 1.350 . S
N391 S389 1.610 . S
N391 C392 1.351 . S
C392 C386 1.428 . S
C392 N391 1.351 . S
C392 C393 1.434 . S
C393 C384 1.429 . S
C393 N390 1.350 . S
C393 C392 1.434 . S
C394 C395 1.369 . S
C394 C396 1.419 . S
C394 H398 0.930 . S
C395 C394 1.369 . S
C395 C404 1.429 . S
C396 C394 1.419 . S
C396 C397 1.363 . S
C396 H399 0.929 1_565 S
C397 C396 1.363 . S
C397 C403 1.428 . S
H398 C394 0.930 . S
H399 C396 0.929 1_545 S
S400 N401 1.613 . S
S400 N402 1.610 . S
N401 S400 1.613 . S
N401 C404 1.350 . S
N402 S400 1.610 . S
N402 C403 1.351 . S
C403 C397 1.428 . S
C403 N402 1.351 . S
C403 C404 1.434 . S
C404 C395 1.429 . S
C404 N401 1.350 . S
C404 C403 1.434 . S
C405 C406 1.369 . S
C405 C407 1.419 . S
C405 H409 0.930 . S
C406 C405 1.369 . S
C406 C415 1.429 . S
C407 C405 1.419 . S
C407 C408 1.363 . S
C407 H410 0.929 . S
C408 C407 1.363 . S
C408 C414 1.428 . S
H409 C405 0.930 . S
H410 C407 0.929 . S
S411 N412 1.613 . S
S411 N413 1.610 . S
N412 S411 1.613 . S
N412 C415 1.350 . S
N413 S411 1.610 . S
N413 C414 1.351 . S
C414 C408 1.428 . S
C414 N413 1.351 . S
C414 C415 1.434 . S
C415 C406 1.429 . S
C415 N412 1.350 . S
C415 C414 1.434 . S
C416 C417 1.369 . S
C416 C418 1.419 . S
C416 H420 0.930 . S
C417 C416 1.369 . S
C417 C426 1.429 . S
C418 C416 1.419 . S
C418 C419 1.363 . S
C418 H421 0.929 . S
C419 C418 1.363 . S
C419 C425 1.428 . S
H420 C416 0.930 . S
H421 C418 0.929 . S
S422 N423 1.613 . S
S422 N424 1.610 . S
N423 S422 1.613 . S
N423 C426 1.350 . S
N424 S422 1.610 . S
N424 C425 1.351 . S
C425 C419 1.428 . S
C425 N424 1.351 . S
C425 C426 1.434 . S
C426 C417 1.429 . S
C426 N423 1.350 . S
C426 C425 1.434 . S
C427 C428 1.369 . S
C427 C429 1.419 . S
C427 H431 0.930 . S
C428 C427 1.369 . S
C428 C437 1.429 . S
C429 C427 1.419 . S
C429 C430 1.363 . S
C429 H432 0.929 . S
C430 C429 1.363 . S
C430 C436 1.428 . S
H431 C427 0.930 . S
H432 C429 0.929 . S
S433 N434 1.613 . S
S433 N435 1.610 . S
N434 S433 1.613 . S
N434 C437 1.350 . S
N435 S433 1.610 . S
N435 C436 1.351 . S
C436 C430 1.428 . S
C436 N435 1.351 . S
C436 C437 1.434 . S
C437 C428 1.429 . S
C437 N434 1.350 . S
C437 C436 1.434 . S
C241 C175 1.247 . S
C243 C10 1.234 . S
C252 C215 1.246 . S
C254 C50 1.234 . S
C263 C15 1.246 . S
C265 C90 1.232 . S
C274 C55 1.246 . S
C276 C130 1.233 . S
C285 C95 1.245 . S
C287 C170 1.236 . S
C296 C135 1.246 . S
C298 C210 1.232 . S
C307 C9 1.532 . S
C309 C129 1.527 . S
C318 C169 1.528 . S
C320 C49 1.528 . S
C329 C209 1.533 . S
C331 C89 1.529 . S
C340 C98 1.288 . S
C342 C218 1.297 . S
C351 C18 1.300 . S
C353 C138 1.284 . S
C362 C178 1.299 . S
C364 C58 1.284 . S
C373 C206 1.425 . S
C375 C19 1.465 . S
C384 C59 1.466 . S
C386 C6 1.419 . S
C395 C99 1.463 . S
C397 C46 1.425 . S
C406 C86 1.416 . S
C408 C139 1.467 . S
C417 C179 1.465 . S
C419 C126 1.424 . S
C428 C219 1.467 . S
C430 C166 1.418 . S
