# Generated by pormake.
# Topology pcl, (4)-cn, num edge types: 1
# Building blocks:
#     Node 0, Type 0, BuildingBlock: TATPOV_clean_sbu_0, # of connection points: 4
#     Node 1, Type 0, BuildingBlock: TATPOV_clean_sbu_0, # of connection points: 4
#     Node 2, Type 0, BuildingBlock: TATPOV_clean_sbu_0, # of connection points: 4
#     Node 3, Type 0, BuildingBlock: TATPOV_clean_sbu_0, # of connection points: 4
#     Node 4, Type 0, BuildingBlock: TATPOV_clean_sbu_0, # of connection points: 4
#     Node 5, Type 0, BuildingBlock: TATPOV_clean_sbu_0, # of connection points: 4
#     Node 6, Type 0, BuildingBlock: TATPOV_clean_sbu_0, # of connection points: 4
#     Node 7, Type 0, BuildingBlock: TATPOV_clean_sbu_0, # of connection points: 4
#     Node 8, Type 0, BuildingBlock: TATPOV_clean_sbu_0, # of connection points: 4
#     Node 9, Type 0, BuildingBlock: TATPOV_clean_sbu_0, # of connection points: 4
#     Node 10, Type 0, BuildingBlock: TATPOV_clean_sbu_0, # of connection points: 4
#     Node 11, Type 0, BuildingBlock: TATPOV_clean_sbu_0, # of connection points: 4
#     Node 12, Type 0, BuildingBlock: TATPOV_clean_sbu_0, # of connection points: 4
#     Node 13, Type 0, BuildingBlock: TATPOV_clean_sbu_0, # of connection points: 4
#     Node 14, Type 0, BuildingBlock: TATPOV_clean_sbu_0, # of connection points: 4
#     Node 15, Type 0, BuildingBlock: TATPOV_clean_sbu_0, # of connection points: 4
#     Edge 16, Type (0, 0), BuildingBlock: OJICUG_clean_linker_0, # of connection points: 2
#     Edge 17, Type (0, 0), BuildingBlock: OJICUG_clean_linker_0, # of connection points: 2
#     Edge 18, Type (0, 0), BuildingBlock: OJICUG_clean_linker_0, # of connection points: 2
#     Edge 19, Type (0, 0), BuildingBlock: OJICUG_clean_linker_0, # of connection points: 2
#     Edge 20, Type (0, 0), BuildingBlock: OJICUG_clean_linker_0, # of connection points: 2
#     Edge 21, Type (0, 0), BuildingBlock: OJICUG_clean_linker_0, # of connection points: 2
#     Edge 22, Type (0, 0), BuildingBlock: OJICUG_clean_linker_0, # of connection points: 2
#     Edge 23, Type (0, 0), BuildingBlock: OJICUG_clean_linker_0, # of connection points: 2
#     Edge 24, Type (0, 0), BuildingBlock: OJICUG_clean_linker_0, # of connection points: 2
#     Edge 25, Type (0, 0), BuildingBlock: OJICUG_clean_linker_0, # of connection points: 2
#     Edge 26, Type (0, 0), BuildingBlock: OJICUG_clean_linker_0, # of connection points: 2
#     Edge 27, Type (0, 0), BuildingBlock: OJICUG_clean_linker_0, # of connection points: 2
#     Edge 28, Type (0, 0), BuildingBlock: OJICUG_clean_linker_0, # of connection points: 2
#     Edge 29, Type (0, 0), BuildingBlock: OJICUG_clean_linker_0, # of connection points: 2
#     Edge 30, Type (0, 0), BuildingBlock: OJICUG_clean_linker_0, # of connection points: 2
#     Edge 31, Type (0, 0), BuildingBlock: OJICUG_clean_linker_0, # of connection points: 2
#     Edge 32, Type (0, 0), BuildingBlock: OJICUG_clean_linker_0, # of connection points: 2
#     Edge 33, Type (0, 0), BuildingBlock: OJICUG_clean_linker_0, # of connection points: 2
#     Edge 34, Type (0, 0), BuildingBlock: OJICUG_clean_linker_0, # of connection points: 2
#     Edge 35, Type (0, 0), BuildingBlock: OJICUG_clean_linker_0, # of connection points: 2
#     Edge 36, Type (0, 0), BuildingBlock: OJICUG_clean_linker_0, # of connection points: 2
#     Edge 37, Type (0, 0), BuildingBlock: OJICUG_clean_linker_0, # of connection points: 2
#     Edge 38, Type (0, 0), BuildingBlock: OJICUG_clean_linker_0, # of connection points: 2
#     Edge 39, Type (0, 0), BuildingBlock: OJICUG_clean_linker_0, # of connection points: 2
#     Edge 40, Type (0, 0), BuildingBlock: OJICUG_clean_linker_0, # of connection points: 2
#     Edge 41, Type (0, 0), BuildingBlock: OJICUG_clean_linker_0, # of connection points: 2
#     Edge 42, Type (0, 0), BuildingBlock: OJICUG_clean_linker_0, # of connection points: 2
#     Edge 43, Type (0, 0), BuildingBlock: OJICUG_clean_linker_0, # of connection points: 2
#     Edge 44, Type (0, 0), BuildingBlock: OJICUG_clean_linker_0, # of connection points: 2
#     Edge 45, Type (0, 0), BuildingBlock: OJICUG_clean_linker_0, # of connection points: 2
#     Edge 46, Type (0, 0), BuildingBlock: OJICUG_clean_linker_0, # of connection points: 2
#     Edge 47, Type (0, 0), BuildingBlock: OJICUG_clean_linker_0, # of connection points: 2
# Relax obj value: 0.052
# Max RMSD: 0.068
# Mean RMSD: 0.059
data_MOF--net-pcl--node1-TATPOV_clean_sbu_0--edge1-OJICUG_clean_linker_0
_symmetry_space_group_name_H-M    P1
_symmetry_Int_Tables_number       1
_symmetry_cell_setting            triclinic
loop_
_symmetry_equiv_pos_as_xyz
'x, y, z'
_cell_length_a     31.316863
_cell_length_b     35.955593
_cell_length_c     33.590688
_cell_angle_alpha  89.990094
_cell_angle_beta   90.053762
_cell_angle_gamma 90.039973
loop_
_atom_site_label
_atom_site_type_symbol
_atom_site_fract_x
_atom_site_fract_y
_atom_site_fract_z
_atom_type_partial_charge
Zn0 Zn 0.16609 0.424 0.12146 0.0
Zn1 Zn 0.17807 0.36795 0.07437 0.0
O2 O 0.19574 0.41603 0.04304 0.0
O3 O 0.18232 0.4631 0.08288 0.0
O4 O 0.19647 0.32542 0.03826 0.0
O5 O 0.20957 0.40673 0.16008 0.0
O6 O 0.21143 0.35439 0.1263 0.0
C7 C 0.19502 0.45107 0.04964 0.0
C8 C 0.08838 0.38258 0.10446 0.0
O9 O 0.11214 0.36404 0.08081 0.0
O10 O 0.10452 0.40799 0.12588 0.0
C11 C 0.20309 0.32897 0.00108 0.0
O12 O 0.19468 0.36094 -0.01611 0.0
C13 C 0.22293 0.37381 0.15618 0.0
Zn14 Zn 0.85409 0.58272 0.62203 0.0
Zn15 Zn 0.84182 0.63925 0.57465 0.0
O16 O 0.82479 0.59154 0.54318 0.0
O17 O 0.83715 0.54411 0.58287 0.0
O18 O 0.82385 0.68047 0.53714 0.0
O19 O 0.81037 0.60095 0.65996 0.0
O20 O 0.80686 0.65283 0.62538 0.0
C21 C 0.82484 0.55652 0.54962 0.0
C22 C 0.93153 0.62471 0.60515 0.0
O23 O 0.90759 0.64353 0.58188 0.0
O24 O 0.91566 0.59887 0.62614 0.0
C25 C 0.78627 0.67812 0.52283 0.0
O26 O 0.76253 0.64933 0.53239 0.0
C27 C 0.79578 0.63341 0.65535 0.0
Zn28 Zn 0.164 0.58085 0.84866 0.0
Zn29 Zn 0.17372 0.63816 0.89482 0.0
O30 O 0.19262 0.59202 0.92841 0.0
O31 O 0.18192 0.54394 0.88913 0.0
O32 O 0.18659 0.68165 0.93123 0.0
O33 O 0.20734 0.59923 0.81049 0.0
O34 O 0.20904 0.65175 0.84404 0.0
C35 C 0.19352 0.55691 0.92236 0.0
C36 C 0.08487 0.61986 0.86325 0.0
O37 O 0.10807 0.63967 0.88623 0.0
O38 O 0.10173 0.59412 0.84287 0.0
C39 C 0.22544 0.69018 0.93773 0.0
O40 O 0.2556 0.67009 0.92114 0.0
C41 C 0.22092 0.6321 0.81449 0.0
Zn42 Zn 0.84576 0.42684 0.34789 0.0
Zn43 Zn 0.83545 0.36981 0.39423 0.0
O44 O 0.81946 0.41698 0.42723 0.0
O45 O 0.82957 0.46489 0.38765 0.0
O46 O 0.81869 0.32764 0.43105 0.0
O47 O 0.80172 0.40927 0.30993 0.0
O48 O 0.8004 0.35666 0.34326 0.0
C49 C 0.81902 0.45207 0.42122 0.0
C50 C 0.9242 0.38571 0.36281 0.0
O51 O 0.9009 0.36621 0.38598 0.0
O52 O 0.9076 0.41168 0.3425 0.0
C53 C 0.78173 0.32933 0.44671 0.0
O54 O 0.75746 0.35825 0.439 0.0
C55 C 0.78831 0.37635 0.3138 0.0
Zn56 Zn 0.82085 0.57891 0.84797 0.0
Zn57 Zn 0.81159 0.63604 0.89204 0.0
O58 O 0.78335 0.64992 0.83774 0.0
O59 O 0.77935 0.59604 0.80733 0.0
O60 O 0.79293 0.67855 0.92736 0.0
O61 O 0.8025 0.54082 0.88673 0.0
O62 O 0.79178 0.5896 0.92482 0.0
C63 C 0.77083 0.63034 0.80833 0.0
C64 C 0.90046 0.61867 0.86462 0.0
O65 O 0.87734 0.63848 0.88758 0.0
O66 O 0.88344 0.59309 0.84398 0.0
C67 C 0.80674 0.71159 0.92348 0.0
O68 O 0.83591 0.71863 0.89641 0.0
C69 C 0.79063 0.55439 0.91955 0.0
Zn70 Zn 0.18832 0.42547 0.34957 0.0
Zn71 Zn 0.19725 0.36785 0.39334 0.0
O72 O 0.22693 0.35417 0.33958 0.0
O73 O 0.22998 0.40821 0.30929 0.0
O74 O 0.21164 0.32363 0.42815 0.0
O75 O 0.20734 0.46241 0.38931 0.0
O76 O 0.21856 0.41342 0.42707 0.0
C77 C 0.23941 0.37409 0.31041 0.0
C78 C 0.10848 0.38689 0.36469 0.0
O79 O 0.1315 0.36687 0.38754 0.0
O80 O 0.12561 0.41257 0.34434 0.0
C81 C 0.25063 0.31529 0.43408 0.0
O82 O 0.28046 0.33598 0.41776 0.0
C83 C 0.21985 0.44867 0.42187 0.0
Zn84 Zn 0.82678 0.42722 0.12078 0.0
Zn85 Zn 0.81417 0.37034 0.07647 0.0
O86 O 0.78504 0.35686 0.13041 0.0
O87 O 0.78482 0.41068 0.16126 0.0
O88 O 0.79406 0.32858 0.04086 0.0
O89 O 0.80898 0.46563 0.08202 0.0
O90 O 0.79443 0.4172 0.04447 0.0
C91 C 0.77378 0.37692 0.15985 0.0
C92 C 0.90433 0.38526 0.1033 0.0
O93 O 0.8801 0.36637 0.08037 0.0
O94 O 0.88867 0.41119 0.12431 0.0
C95 C 0.80749 0.29535 0.04365 0.0
O96 O 0.83738 0.28747 0.0698 0.0
C97 C 0.79487 0.45241 0.04978 0.0
Zn98 Zn 0.19294 0.57953 0.62117 0.0
Zn99 Zn 0.20534 0.63529 0.57637 0.0
O100 O 0.23287 0.64912 0.63118 0.0
O101 O 0.23493 0.59535 0.66197 0.0
O102 O 0.22665 0.67682 0.5407 0.0
O103 O 0.20932 0.53983 0.58356 0.0
O104 O 0.22391 0.58746 0.5449 0.0
C105 C 0.24443 0.62946 0.66088 0.0
C106 C 0.11545 0.62171 0.60328 0.0
O107 O 0.13952 0.63994 0.57965 0.0
O108 O 0.13123 0.59621 0.62485 0.0
C109 C 0.21395 0.71026 0.54394 0.0
O110 O 0.18442 0.71828 0.57034 0.0
C111 C 0.22292 0.55231 0.55083 0.0
Zn112 Zn 0.67556 0.92771 0.12016 0.0
Zn113 Zn 0.68527 0.87079 0.07369 0.0
O114 O 0.70095 0.91806 0.04065 0.0
O115 O 0.6913 0.9659 0.08038 0.0
O116 O 0.70195 0.82868 0.03676 0.0
O117 O 0.71995 0.91022 0.15777 0.0
O118 O 0.72053 0.85758 0.12451 0.0
C119 C 0.70147 0.95315 0.04669 0.0
C120 C 0.59686 0.88662 0.10581 0.0
O121 O 0.61986 0.86717 0.08235 0.0
O122 O 0.61375 0.9125 0.12607 0.0
C123 C 0.73886 0.83056 0.021 0.0
O124 O 0.76299 0.8596 0.02866 0.0
C125 C 0.73305 0.87722 0.15386 0.0
Zn126 Zn 0.35875 0.07924 0.62039 0.0
Zn127 Zn 0.3487 0.13643 0.5741 0.0
O128 O 0.3303 0.09021 0.54048 0.0
O129 O 0.34155 0.04224 0.57979 0.0
O130 O 0.33569 0.17988 0.5377 0.0
O131 O 0.31478 0.09716 0.6581 0.0
O132 O 0.31271 0.14965 0.62452 0.0
C133 C 0.32982 0.05509 0.54655 0.0
C134 C 0.43756 0.11875 0.60619 0.0
O135 O 0.41431 0.1383 0.58303 0.0
O136 O 0.4208 0.09299 0.62666 0.0
C137 C 0.29679 0.18753 0.53035 0.0
O138 O 0.26681 0.16653 0.54597 0.0
C139 C 0.30074 0.12984 0.65393 0.0
Zn140 Zn 0.66563 0.08411 0.84595 0.0
Zn141 Zn 0.67886 0.14059 0.89318 0.0
O142 O 0.69539 0.09283 0.92478 0.0
O143 O 0.68209 0.04548 0.88525 0.0
O144 O 0.69721 0.18182 0.93055 0.0
O145 O 0.70961 0.10179 0.80798 0.0
O146 O 0.7142 0.15365 0.84249 0.0
C147 C 0.69479 0.05781 0.91841 0.0
C148 C 0.58885 0.12678 0.86266 0.0
O149 O 0.6131 0.14538 0.8859 0.0
O150 O 0.60433 0.10077 0.8417 0.0
C151 C 0.73467 0.17931 0.94507 0.0
O152 O 0.75817 0.15031 0.93585 0.0
C153 C 0.72489 0.13402 0.81256 0.0
Zn154 Zn 0.35548 0.92188 0.34733 0.0
Zn155 Zn 0.34333 0.86602 0.39444 0.0
O156 O 0.32723 0.91419 0.42605 0.0
O157 O 0.33985 0.96118 0.38584 0.0
O158 O 0.32478 0.82456 0.43174 0.0
O159 O 0.3116 0.90479 0.30907 0.0
O160 O 0.30896 0.85256 0.34301 0.0
C161 C 0.32787 0.9492 0.41934 0.0
C162 C 0.43289 0.87991 0.36365 0.0
O163 O 0.40911 0.86138 0.38733 0.0
O164 O 0.41687 0.90557 0.34251 0.0
C165 C 0.28746 0.82705 0.44655 0.0
O166 O 0.26409 0.8563 0.43788 0.0
C167 C 0.2976 0.87208 0.31316 0.0
Zn168 Zn 0.32809 0.08055 0.84875 0.0
Zn169 Zn 0.31513 0.13731 0.89213 0.0
O170 O 0.28721 0.14841 0.8367 0.0
O171 O 0.28608 0.09406 0.80714 0.0
O172 O 0.29346 0.18022 0.92608 0.0
O173 O 0.31213 0.04196 0.88769 0.0
O174 O 0.29726 0.09019 0.9254 0.0
C175 C 0.276 0.12804 0.80745 0.0
C176 C 0.4051 0.12396 0.86527 0.0
O177 O 0.3809 0.14253 0.88847 0.0
O178 O 0.38956 0.0978 0.84447 0.0
C179 C 0.28649 0.21211 0.91094 0.0
O180 O 0.2963 0.21786 0.87342 0.0
C181 C 0.29856 0.05494 0.9202 0.0
Zn182 Zn 0.69384 0.92606 0.3473 0.0
Zn183 Zn 0.70712 0.86909 0.39126 0.0
O184 O 0.73629 0.85611 0.3372 0.0
O185 O 0.73594 0.91012 0.3067 0.0
O186 O 0.72752 0.82727 0.42661 0.0
O187 O 0.71134 0.96439 0.38629 0.0
O188 O 0.72665 0.91591 0.42348 0.0
C189 C 0.74732 0.87645 0.30788 0.0
C190 C 0.61677 0.88337 0.36455 0.0
O191 O 0.64122 0.86465 0.38742 0.0
O192 O 0.63213 0.90951 0.34363 0.0
C193 C 0.71376 0.79411 0.42409 0.0
O194 O 0.68342 0.78633 0.39835 0.0
C195 C 0.72582 0.95114 0.41838 0.0
Zn196 Zn 0.33303 0.92712 0.12142 0.0
Zn197 Zn 0.32363 0.86998 0.07651 0.0
O198 O 0.29377 0.85551 0.1299 0.0
O199 O 0.29118 0.90902 0.16128 0.0
O200 O 0.30926 0.82633 0.04086 0.0
O201 O 0.3142 0.96462 0.08206 0.0
O202 O 0.30255 0.91613 0.04367 0.0
C203 C 0.28143 0.87497 0.15944 0.0
C204 C 0.41258 0.88838 0.10539 0.0
O205 O 0.38933 0.86878 0.0823 0.0
O206 O 0.3957 0.91383 0.12622 0.0
C207 C 0.27038 0.81723 0.0356 0.0
O208 O 0.24041 0.83684 0.05314 0.0
C209 C 0.30155 0.95132 0.04933 0.0
Zn210 Zn 0.70152 0.07759 0.62054 0.0
Zn211 Zn 0.71056 0.13466 0.57624 0.0
O212 O 0.73891 0.14863 0.63042 0.0
O213 O 0.74331 0.09484 0.66094 0.0
O214 O 0.72903 0.17716 0.54084 0.0
O215 O 0.71952 0.03946 0.58165 0.0
O216 O 0.73006 0.0882 0.54343 0.0
C217 C 0.75162 0.12919 0.65987 0.0
C218 C 0.62188 0.11744 0.60415 0.0
O219 O 0.6449 0.13712 0.58096 0.0
O220 O 0.63896 0.09191 0.62482 0.0
C221 C 0.71471 0.21005 0.54442 0.0
O222 O 0.68521 0.21686 0.57123 0.0
C223 C 0.73115 0.053 0.54873 0.0
C224 C 0.01853 0.39234 0.13803 0.0
C225 C 0.04142 0.37707 0.10602 0.0
H226 H 0.95785 0.40636 0.16235 0.0
C227 C 0.01856 0.36034 0.07466 0.0
H228 H 0.03499 0.40494 0.16301 0.0
C229 C 0.97361 0.36113 0.0743 0.0
C230 C 0.95107 0.37875 0.10525 0.0
H231 H 0.0353 0.34831 0.04958 0.0
H232 H 0.9567 0.34961 0.04901 0.0
C233 C 0.97412 0.3932 0.13763 0.0
C234 C 1.00113 0.64678 0.57499 0.0
C235 C 0.97845 0.63036 0.60662 0.0
H236 H 0.06282 0.65706 0.5489 0.0
C237 C 1.0015 0.61534 0.6387 0.0
H238 H 0.98424 0.65859 0.54984 0.0
C239 C 0.04591 0.61437 0.6381 0.0
C240 C 0.06876 0.62843 0.60543 0.0
H241 H 0.98516 0.60298 0.66386 0.0
H242 H 0.06231 0.60139 0.66288 0.0
C243 C 0.04606 0.64584 0.57441 0.0
C244 C 0.9703 0.6438 0.89143 0.0
C245 C 0.94744 0.6237 0.86243 0.0
H246 H 0.03212 0.65858 0.91456 0.0
C247 C 0.97025 0.60589 0.8319 0.0
H248 H 0.95363 0.65793 0.91526 0.0
C249 C 0.01469 0.60633 0.83145 0.0
C250 C 0.03782 0.62456 0.86153 0.0
H251 H 0.95379 0.59064 0.80868 0.0
H252 H 0.03094 0.59133 0.80795 0.0
C253 C 0.0152 0.64421 0.89099 0.0
C254 C 0.03878 0.39941 0.33155 0.0
C255 C 0.06153 0.3818 0.36228 0.0
H256 H 0.97812 0.41373 0.30728 0.0
C257 C 0.03865 0.36173 0.39125 0.0
H258 H 0.05529 0.41462 0.30835 0.0
C259 C 0.99376 0.36122 0.39065 0.0
C260 C 0.97119 0.38072 0.36102 0.0
H261 H 0.0553 0.34773 0.41523 0.0
H262 H 0.97683 0.34696 0.41426 0.0
C263 C 0.99435 0.39884 0.3309 0.0
C264 C 0.48202 0.8632 0.0781 0.0
C265 C 0.45952 0.88311 0.10743 0.0
H266 H 0.54354 0.84842 0.05448 0.0
C267 C 0.48264 0.90039 0.13815 0.0
H268 H 0.46509 0.84946 0.05413 0.0
C269 C 0.52709 0.89966 0.13844 0.0
C270 C 0.54987 0.88171 0.10798 0.0
H271 H 0.46643 0.91546 0.16161 0.0
H272 H 0.54362 0.91431 0.16206 0.0
C273 C 0.52691 0.86253 0.07835 0.0
C274 C 0.55223 0.10502 0.63736 0.0
C275 C 0.57494 0.12258 0.60658 0.0
H276 H 0.4916 0.09069 0.66166 0.0
C277 C 0.55202 0.14256 0.57755 0.0
H278 H 0.56877 0.08987 0.6606 0.0
C279 C 0.50713 0.14304 0.57817 0.0
C280 C 0.48459 0.12359 0.60786 0.0
H281 H 0.56862 0.15651 0.55353 0.0
H282 H 0.49015 0.15726 0.55455 0.0
C283 C 0.5078 0.10553 0.638 0.0
C284 C 0.51953 0.14906 0.89312 0.0
C285 C 0.54201 0.13282 0.86128 0.0
H286 H 0.458 0.15917 0.91957 0.0
C287 C 0.51875 0.11816 0.82912 0.0
H288 H 0.53659 0.16059 0.91833 0.0
C289 C 0.47434 0.11725 0.82989 0.0
C290 C 0.4517 0.13102 0.86281 0.0
H291 H 0.53494 0.10597 0.8038 0.0
H292 H 0.45776 0.10447 0.80509 0.0
C293 C 0.4746 0.1482 0.89387 0.0
C294 C 0.50257 0.88928 0.32967 0.0
C295 C 0.47979 0.87425 0.3619 0.0
H296 H 0.56318 0.90341 0.30518 0.0
C297 C 0.50276 0.85788 0.3934 0.0
H298 H 0.48601 0.90159 0.30458 0.0
C299 C 0.5477 0.85891 0.39372 0.0
C300 C 0.57012 0.8764 0.36258 0.0
H301 H 0.4861 0.84606 0.41865 0.0
H302 H 0.56469 0.84775 0.41914 0.0
C303 C 0.54698 0.89038 0.33003 0.0
C304 C 0.22432 0.33049 0.21313 0.0
C305 C 0.24547 0.35757 0.19035 0.0
H306 H 0.20731 0.31357 0.27216 0.0
C307 C 0.27773 0.37891 0.2082 0.0
H308 H 0.19924 0.31377 0.19993 0.0
C309 C 0.28247 0.37873 0.24948 0.0
C310 C 0.25467 0.35746 0.27305 0.0
H311 H 0.29458 0.39984 0.19109 0.0
H312 H 0.30282 0.39958 0.26305 0.0
C313 C 0.22903 0.33036 0.25462 0.0
C314 C 0.73815 0.62721 0.70425 0.0
C315 C 0.77119 0.64905 0.6885 0.0
H316 H 0.71023 0.60537 0.75732 0.0
C317 C 0.79082 0.6758 0.71283 0.0
H318 H 0.72246 0.60651 0.68588 0.0
C319 C 0.78381 0.67514 0.75402 0.0
C320 C 0.75746 0.64752 0.77057 0.0
H321 H 0.81648 0.69288 0.70125 0.0
H322 H 0.80437 0.69176 0.77294 0.0
C323 C 0.73112 0.62658 0.74522 0.0
C324 C 0.2779 0.62608 0.76483 0.0
C325 C 0.24497 0.64779 0.78095 0.0
H326 H 0.30531 0.6044 0.71146 0.0
C327 C 0.22496 0.67447 0.7568 0.0
H328 H 0.29388 0.60543 0.78302 0.0
C329 C 0.23156 0.67391 0.71554 0.0
C330 C 0.25792 0.64648 0.69869 0.0
H331 H 0.19936 0.69144 0.76863 0.0
H332 H 0.21076 0.69047 0.69681 0.0
C333 C 0.28448 0.62552 0.72378 0.0
C334 C 0.78212 0.33289 0.2156 0.0
C335 C 0.75752 0.36054 0.19695 0.0
H336 H 0.81066 0.31559 0.27057 0.0
C337 C 0.72991 0.38226 0.22019 0.0
H338 H 0.80363 0.31574 0.19826 0.0
C339 C 0.73397 0.38219 0.26152 0.0
C340 C 0.7655 0.36028 0.2797 0.0
H341 H 0.71036 0.40353 0.20639 0.0
H342 H 0.71743 0.4034 0.27845 0.0
C343 C 0.78618 0.3328 0.25715 0.0
C344 C 0.79125 0.88252 0.24769 0.0
C345 C 0.76371 0.86045 0.27066 0.0
H346 H 0.80373 0.9043 0.18969 0.0
C347 C 0.73924 0.83288 0.25168 0.0
H348 H 0.8107 0.90374 0.26175 0.0
C349 C 0.73523 0.8332 0.21013 0.0
C350 C 0.75583 0.86099 0.1879 0.0
H351 H 0.71778 0.81547 0.2688 0.0
H352 H 0.71084 0.81601 0.19648 0.0
C353 C 0.78725 0.88285 0.20636 0.0
C354 C 0.23674 0.12239 0.74425 0.0
C355 C 0.26241 0.14426 0.76928 0.0
H356 H 0.2284 0.1016 0.68519 0.0
C357 C 0.28796 0.17224 0.75232 0.0
H358 H 0.21649 0.10087 0.75668 0.0
C359 C 0.29488 0.17261 0.71111 0.0
C360 C 0.27595 0.1452 0.68714 0.0
H361 H 0.308 0.18953 0.77102 0.0
H362 H 0.32 0.19015 0.69928 0.0
C363 C 0.24358 0.12281 0.70326 0.0
C364 C 0.73106 0.17578 0.75467 0.0
C365 C 0.7501 0.14915 0.77953 0.0
H366 H 0.71838 0.19122 0.69426 0.0
C367 C 0.78304 0.12687 0.76437 0.0
H368 H 0.70549 0.1932 0.7658 0.0
C369 C 0.79048 0.12572 0.72348 0.0
C370 C 0.76468 0.1466 0.69761 0.0
H371 H 0.79826 0.10624 0.78315 0.0
H372 H 0.81126 0.10422 0.71185 0.0
C373 C 0.73852 0.17462 0.71357 0.0
C374 C 0.29114 0.83012 0.2143 0.0
C375 C 0.26584 0.85773 0.19639 0.0
H376 H 0.32056 0.81231 0.26869 0.0
C377 C 0.23806 0.87863 0.22031 0.0
H378 H 0.3128 0.81358 0.19646 0.0
C379 C 0.24252 0.87789 0.26161 0.0
C380 C 0.27461 0.85612 0.2791 0.0
H381 H 0.21797 0.89986 0.20711 0.0
H382 H 0.22578 0.89859 0.27909 0.0
C383 C 0.2956 0.82937 0.25581 0.0
C384 C 0.25469 0.27587 0.91624 0.0
C385 C 0.26531 0.24185 0.93437 0.0
H386 H 0.22649 0.32968 0.92278 0.0
C387 C 0.25446 0.23638 0.97457 0.0
H388 H 0.26234 0.28102 0.88528 0.0
C389 C 0.23373 0.26441 -0.00384 0.0
C390 C 0.22329 0.29848 0.97799 0.0
H391 H 0.26201 0.21047 -0.01057 0.0
H392 H 0.22613 0.25941 0.02715 0.0
C393 C 0.23391 0.30378 0.93774 0.0
C394 C 0.73052 0.70144 0.47562 0.0
C395 C 0.76857 0.70765 0.49687 0.0
H396 H 0.68354 0.72369 0.43587 0.0
C397 C 0.78864 0.7425 0.49383 0.0
H398 H 0.7143 0.67487 0.47724 0.0
C399 C 0.77067 0.77068 0.47044 0.0
C400 C 0.73257 0.76443 0.4492 0.0
H401 H 0.8179 0.74819 0.50994 0.0
H402 H 0.7868 0.7973 0.46885 0.0
C403 C 0.71287 0.72943 0.45186 0.0
C404 C 0.21585 0.77476 0.00488 0.0
C405 C 0.25888 0.78476 0.01051 0.0
H406 H 0.17148 0.73717 0.97764 0.0
C407 C 0.29073 0.76328 -0.0079 0.0
H408 H 0.19048 0.79066 0.01865 0.0
C409 C 0.27981 0.73256 0.96864 0.0
C410 C 0.23678 0.72259 0.96297 0.0
H411 H 0.32417 0.77015 -0.0042 0.0
H412 H 0.30519 0.71669 0.95488 0.0
C413 C 0.20492 0.74405 0.98138 0.0
C414 C 0.71172 0.27531 0.51834 0.0
C415 C 0.73203 0.24051 0.51943 0.0
H416 H 0.71139 0.33048 0.4945 0.0
C417 C 0.76935 0.23527 0.49681 0.0
H418 H 0.68296 0.28029 0.53541 0.0
C419 C 0.78599 0.26424 0.47366 0.0
C420 C 0.76535 0.2989 0.47226 0.0
H421 H 0.78592 0.20884 0.49715 0.0
H422 H 0.8147 0.25931 0.45651 0.0
C423 C 0.72804 0.30409 0.49484 0.0
C424 C 0.73515 0.76533 -0.0057 0.0
C425 C 0.75539 0.80021 -0.00455 0.0
H426 H 0.73577 0.70984 0.97108 0.0
C427 C 0.79252 0.80568 0.97266 0.0
H428 H 0.70659 0.76018 0.01162 0.0
C429 C 0.80906 0.77698 0.94923 0.0
C430 C 0.78916 0.74197 0.9484 0.0
H431 H 0.80886 0.83224 0.97281 0.0
H432 H 0.83767 0.78219 0.932 0.0
C433 C 0.75202 0.73644 0.97122 0.0
C434 C 0.31682 0.24277 0.48845 0.0
C435 C 0.28514 0.22003 0.50538 0.0
H436 H 0.33082 0.29058 0.45276 0.0
C437 C 0.24199 0.22888 0.49859 0.0
H438 H 0.35035 0.23678 0.49307 0.0
C439 C 0.23076 0.25978 0.47553 0.0
C440 C 0.26242 0.28256 0.45865 0.0
H441 H 0.21673 0.212 0.51119 0.0
H442 H 0.19722 0.26577 0.47096 0.0
C443 C 0.30559 0.27366 0.46534 0.0
C444 C 0.80804 0.23055 0.0162 0.0
C445 C 0.78867 0.26569 0.0185 0.0
H446 H 0.80628 0.17587 -0.00884 0.0
C447 C 0.75082 0.27207 -0.00308 0.0
H448 H 0.83717 0.22471 0.03245 0.0
C449 C 0.73277 0.24388 0.97358 0.0
C450 C 0.75249 0.20889 0.97092 0.0
H451 H 0.73495 0.2988 -0.00178 0.0
H452 H 0.7037 0.24968 0.95723 0.0
C453 C 0.79032 0.20255 -0.00751 0.0
C454 C 0.21414 0.7754 0.51736 0.0
C455 C 0.23304 0.74002 0.51902 0.0
H456 H 0.21638 0.83042 0.49319 0.0
C457 C 0.27061 0.73359 0.49711 0.0
H458 H 0.18524 0.78132 0.53387 0.0
C459 C 0.28885 0.76197 0.4741 0.0
C460 C 0.26958 0.79721 0.4721 0.0
H461 H 0.28613 0.70669 0.4979 0.0
H462 H 0.3177 0.75613 0.45747 0.0
C463 C 0.23203 0.80357 0.49399 0.0
C464 C 0.20684 0.49228 0.94687 0.0
C465 C 0.20316 0.53058 0.955 0.0
H466 H 0.20778 0.43701 0.97044 0.0
C467 C 0.20356 0.54254 -0.00526 0.0
H468 H 0.2072 0.48216 0.9165 0.0
C469 C 0.20384 0.51655 0.02568 0.0
C470 C 0.20389 0.47812 0.01746 0.0
H471 H 0.20106 0.57181 0.002 0.0
H472 H 0.20178 0.52661 0.05601 0.0
C473 C 0.20729 0.46632 0.9778 0.0
C474 C 0.81385 0.49152 0.52513 0.0
C475 C 0.81484 0.52998 0.51733 0.0
H476 H 0.81372 0.43651 0.50077 0.0
C477 C 0.8106 0.54236 0.47792 0.0
H478 H 0.81648 0.48107 0.55528 0.0
C479 C 0.80905 0.51677 0.4467 0.0
C480 C 0.81152 0.47833 0.45431 0.0
H481 H 0.81084 0.57178 0.47094 0.0
H482 H 0.80804 0.52723 0.41647 0.0
C483 C 0.81209 0.46592 0.49391 0.0
C484 C 0.78273 0.51683 0.02406 0.0
C485 C 0.78393 0.47823 0.01704 0.0
H486 H 0.78319 0.57141 -0.00138 0.0
C487 C 0.77986 0.46519 0.97786 0.0
H488 H 0.78519 0.52779 0.05401 0.0
C489 C 0.77872 0.49026 0.94611 0.0
C490 C 0.78146 0.52883 0.95296 0.0
H491 H 0.78029 0.43566 0.97147 0.0
H492 H 0.77815 0.47929 0.91608 0.0
C493 C 0.7814 0.5419 -0.00769 0.0
C494 C 0.23484 0.51267 0.44744 0.0
C495 C 0.23064 0.47428 0.45488 0.0
H496 H 0.23631 0.56759 0.472 0.0
C497 C 0.23116 0.46168 0.4944 0.0
H498 H 0.23515 0.52327 0.41725 0.0
C499 C 0.2318 0.48718 0.5258 0.0
C500 C 0.2321 0.52574 0.51827 0.0
H501 H 0.22827 0.43232 0.50114 0.0
H502 H 0.22964 0.47666 0.55595 0.0
C503 C 0.23565 0.53815 0.47882 0.0
C504 C 0.70945 0.04352 -0.00997 0.0
C505 C 0.7048 0.0312 0.95063 0.0
H506 H 0.71259 0.02831 0.05143 0.0
C507 C 0.70555 0.99274 0.94279 0.0
H508 H 0.70939 0.07293 -0.00297 0.0
C509 C 0.70756 0.9671 0.97396 0.0
C510 C 0.70861 0.97946 0.01356 0.0
H511 H 0.7026 0.98234 0.91265 0.0
H512 H 0.70578 0.93771 0.96708 0.0
C513 C 0.71123 0.01789 0.0212 0.0
C514 C 0.31933 0.01466 0.44332 0.0
C515 C 0.31949 0.97624 0.45157 0.0
H516 H 0.32194 0.06993 0.46695 0.0
C517 C 0.31648 0.9644 0.49126 0.0
H518 H 0.32109 0.02472 0.41297 0.0
C519 C 0.317 0.99037 0.52216 0.0
C520 C 0.32036 0.02868 0.51397 0.0
H521 H 0.31618 0.93506 0.49861 0.0
H522 H 0.31688 0.98025 0.55253 0.0
C523 C 0.31967 0.04064 0.47424 0.0
C524 C 0.28883 0.96472 0.97711 0.0
C525 C 0.29097 0.9773 0.01658 0.0
H526 H 0.28898 0.97959 0.91552 0.0
C527 C 0.28843 0.01581 0.02405 0.0
H528 H 0.29037 0.9353 0.97033 0.0
C529 C 0.28761 0.04129 -0.00737 0.0
C530 C 0.28947 0.02875 0.95314 0.0
H531 H 0.28944 0.02643 0.05421 0.0
H532 H 0.28827 0.07074 -0.00063 0.0
C533 C 0.28817 0.9902 0.9457 0.0
C534 C 0.74253 0.98884 0.52205 0.0
C535 C 0.73995 0.02742 0.51525 0.0
H536 H 0.74061 0.93427 0.49663 0.0
C537 C 0.73979 0.04053 0.47591 0.0
H538 H 0.74324 0.97784 0.55207 0.0
C539 C 0.73816 0.0155 0.44415 0.0
C540 C 0.73688 0.9769 0.45113 0.0
H541 H 0.7381 0.07005 0.46964 0.0
H542 H 0.73559 0.0265 0.41422 0.0
C543 C 0.74112 0.96381 0.49028 0.0
loop_
_geom_bond_atom_site_label_1
_geom_bond_atom_site_label_2
_geom_bond_distance
_geom_bond_site_symmetry_2
_ccdc_geom_bond_type
Zn0 O3 2.031 . S
Zn0 O5 2.049 . S
Zn0 O10 2.067 . S
Zn1 O2 1.962 . S
Zn1 O4 1.986 . S
Zn1 O6 1.996 . S
Zn1 O9 1.943 . S
O2 Zn1 1.962 . S
O2 C7 1.254 . S
O3 Zn0 2.031 . S
O3 C7 1.269 . S
O4 Zn1 1.986 . S
O4 C11 1.262 . S
O5 Zn0 2.049 . S
O5 C13 1.260 . S
O6 Zn1 1.996 . S
O6 C13 1.257 . S
C7 O2 1.254 . S
C7 O3 1.269 . S
C8 O9 1.249 . S
C8 O10 1.270 . S
O9 Zn1 1.943 . S
O9 C8 1.249 . S
O10 Zn0 2.067 . S
O10 C8 1.270 . S
C11 O4 1.262 . S
C11 O12 1.232 . S
O12 C11 1.232 . S
C13 O5 1.260 . S
C13 O6 1.257 . S
Zn14 O17 2.031 . S
Zn14 O19 2.049 . S
Zn14 O24 2.067 . S
Zn15 O16 1.962 . S
Zn15 O18 1.986 . S
Zn15 O20 1.996 . S
Zn15 O23 1.943 . S
O16 Zn15 1.962 . S
O16 C21 1.254 . S
O17 Zn14 2.031 . S
O17 C21 1.269 . S
O18 Zn15 1.986 . S
O18 C25 1.262 . S
O19 Zn14 2.049 . S
O19 C27 1.260 . S
O20 Zn15 1.996 . S
O20 C27 1.257 . S
C21 O16 1.254 . S
C21 O17 1.269 . S
C22 O23 1.249 . S
C22 O24 1.270 . S
O23 Zn15 1.943 . S
O23 C22 1.249 . S
O24 Zn14 2.067 . S
O24 C22 1.270 . S
C25 O18 1.262 . S
C25 O26 1.232 . S
O26 C25 1.232 . S
C27 O19 1.260 . S
C27 O20 1.257 . S
Zn28 O31 2.031 . S
Zn28 O33 2.049 . S
Zn28 O38 2.067 . S
Zn29 O30 1.962 . S
Zn29 O32 1.986 . S
Zn29 O34 1.996 . S
Zn29 O37 1.943 . S
O30 Zn29 1.962 . S
O30 C35 1.254 . S
O31 Zn28 2.031 . S
O31 C35 1.269 . S
O32 Zn29 1.986 . S
O32 C39 1.262 . S
O33 Zn28 2.049 . S
O33 C41 1.260 . S
O34 Zn29 1.996 . S
O34 C41 1.257 . S
C35 O30 1.254 . S
C35 O31 1.269 . S
C36 O37 1.249 . S
C36 O38 1.270 . S
O37 Zn29 1.943 . S
O37 C36 1.249 . S
O38 Zn28 2.067 . S
O38 C36 1.270 . S
C39 O32 1.262 . S
C39 O40 1.232 . S
O40 C39 1.232 . S
C41 O33 1.260 . S
C41 O34 1.257 . S
Zn42 O45 2.031 . S
Zn42 O47 2.049 . S
Zn42 O52 2.067 . S
Zn43 O44 1.962 . S
Zn43 O46 1.986 . S
Zn43 O48 1.996 . S
Zn43 O51 1.943 . S
O44 Zn43 1.962 . S
O44 C49 1.254 . S
O45 Zn42 2.031 . S
O45 C49 1.269 . S
O46 Zn43 1.986 . S
O46 C53 1.262 . S
O47 Zn42 2.049 . S
O47 C55 1.260 . S
O48 Zn43 1.996 . S
O48 C55 1.257 . S
C49 O44 1.254 . S
C49 O45 1.269 . S
C50 O51 1.249 . S
C50 O52 1.270 . S
O51 Zn43 1.943 . S
O51 C50 1.249 . S
O52 Zn42 2.067 . S
O52 C50 1.270 . S
C53 O46 1.262 . S
C53 O54 1.232 . S
O54 C53 1.232 . S
C55 O47 1.260 . S
C55 O48 1.257 . S
Zn56 O59 2.031 . S
Zn56 O61 2.049 . S
Zn56 O66 2.067 . S
Zn57 O58 1.962 . S
Zn57 O60 1.986 . S
Zn57 O62 1.996 . S
Zn57 O65 1.943 . S
O58 Zn57 1.962 . S
O58 C63 1.254 . S
O59 Zn56 2.031 . S
O59 C63 1.269 . S
O60 Zn57 1.986 . S
O60 C67 1.262 . S
O61 Zn56 2.049 . S
O61 C69 1.260 . S
O62 Zn57 1.996 . S
O62 C69 1.257 . S
C63 O58 1.254 . S
C63 O59 1.269 . S
C64 O65 1.249 . S
C64 O66 1.270 . S
O65 Zn57 1.943 . S
O65 C64 1.249 . S
O66 Zn56 2.067 . S
O66 C64 1.270 . S
C67 O60 1.262 . S
C67 O68 1.232 . S
O68 C67 1.232 . S
C69 O61 1.260 . S
C69 O62 1.257 . S
Zn70 O73 2.031 . S
Zn70 O75 2.049 . S
Zn70 O80 2.067 . S
Zn71 O72 1.962 . S
Zn71 O74 1.986 . S
Zn71 O76 1.996 . S
Zn71 O79 1.943 . S
O72 Zn71 1.962 . S
O72 C77 1.254 . S
O73 Zn70 2.031 . S
O73 C77 1.269 . S
O74 Zn71 1.986 . S
O74 C81 1.262 . S
O75 Zn70 2.049 . S
O75 C83 1.260 . S
O76 Zn71 1.996 . S
O76 C83 1.257 . S
C77 O72 1.254 . S
C77 O73 1.269 . S
C78 O79 1.249 . S
C78 O80 1.270 . S
O79 Zn71 1.943 . S
O79 C78 1.249 . S
O80 Zn70 2.067 . S
O80 C78 1.270 . S
C81 O74 1.262 . S
C81 O82 1.232 . S
O82 C81 1.232 . S
C83 O75 1.260 . S
C83 O76 1.257 . S
Zn84 O87 2.031 . S
Zn84 O89 2.049 . S
Zn84 O94 2.067 . S
Zn85 O86 1.962 . S
Zn85 O88 1.986 . S
Zn85 O90 1.996 . S
Zn85 O93 1.943 . S
O86 Zn85 1.962 . S
O86 C91 1.254 . S
O87 Zn84 2.031 . S
O87 C91 1.269 . S
O88 Zn85 1.986 . S
O88 C95 1.262 . S
O89 Zn84 2.049 . S
O89 C97 1.260 . S
O90 Zn85 1.996 . S
O90 C97 1.257 . S
C91 O86 1.254 . S
C91 O87 1.269 . S
C92 O93 1.249 . S
C92 O94 1.270 . S
O93 Zn85 1.943 . S
O93 C92 1.249 . S
O94 Zn84 2.067 . S
O94 C92 1.270 . S
C95 O88 1.262 . S
C95 O96 1.232 . S
O96 C95 1.232 . S
C97 O89 1.260 . S
C97 O90 1.257 . S
Zn98 O101 2.031 . S
Zn98 O103 2.049 . S
Zn98 O108 2.067 . S
Zn99 O100 1.962 . S
Zn99 O102 1.986 . S
Zn99 O104 1.996 . S
Zn99 O107 1.943 . S
O100 Zn99 1.962 . S
O100 C105 1.254 . S
O101 Zn98 2.031 . S
O101 C105 1.269 . S
O102 Zn99 1.986 . S
O102 C109 1.262 . S
O103 Zn98 2.049 . S
O103 C111 1.260 . S
O104 Zn99 1.996 . S
O104 C111 1.257 . S
C105 O100 1.254 . S
C105 O101 1.269 . S
C106 O107 1.249 . S
C106 O108 1.270 . S
O107 Zn99 1.943 . S
O107 C106 1.249 . S
O108 Zn98 2.067 . S
O108 C106 1.270 . S
C109 O102 1.262 . S
C109 O110 1.232 . S
O110 C109 1.232 . S
C111 O103 1.260 . S
C111 O104 1.257 . S
Zn112 O115 2.031 . S
Zn112 O117 2.049 . S
Zn112 O122 2.067 . S
Zn113 O114 1.962 . S
Zn113 O116 1.986 . S
Zn113 O118 1.996 . S
Zn113 O121 1.943 . S
O114 Zn113 1.962 . S
O114 C119 1.254 . S
O115 Zn112 2.031 . S
O115 C119 1.269 . S
O116 Zn113 1.986 . S
O116 C123 1.262 . S
O117 Zn112 2.049 . S
O117 C125 1.260 . S
O118 Zn113 1.996 . S
O118 C125 1.257 . S
C119 O114 1.254 . S
C119 O115 1.269 . S
C120 O121 1.249 . S
C120 O122 1.270 . S
O121 Zn113 1.943 . S
O121 C120 1.249 . S
O122 Zn112 2.067 . S
O122 C120 1.270 . S
C123 O116 1.262 . S
C123 O124 1.232 . S
O124 C123 1.232 . S
C125 O117 1.260 . S
C125 O118 1.257 . S
Zn126 O129 2.031 . S
Zn126 O131 2.049 . S
Zn126 O136 2.067 . S
Zn127 O128 1.962 . S
Zn127 O130 1.986 . S
Zn127 O132 1.996 . S
Zn127 O135 1.943 . S
O128 Zn127 1.962 . S
O128 C133 1.254 . S
O129 Zn126 2.031 . S
O129 C133 1.269 . S
O130 Zn127 1.986 . S
O130 C137 1.262 . S
O131 Zn126 2.049 . S
O131 C139 1.260 . S
O132 Zn127 1.996 . S
O132 C139 1.257 . S
C133 O128 1.254 . S
C133 O129 1.269 . S
C134 O135 1.249 . S
C134 O136 1.270 . S
O135 Zn127 1.943 . S
O135 C134 1.249 . S
O136 Zn126 2.067 . S
O136 C134 1.270 . S
C137 O130 1.262 . S
C137 O138 1.232 . S
O138 C137 1.232 . S
C139 O131 1.260 . S
C139 O132 1.257 . S
Zn140 O143 2.031 . S
Zn140 O145 2.049 . S
Zn140 O150 2.067 . S
Zn141 O142 1.962 . S
Zn141 O144 1.986 . S
Zn141 O146 1.996 . S
Zn141 O149 1.943 . S
O142 Zn141 1.962 . S
O142 C147 1.254 . S
O143 Zn140 2.031 . S
O143 C147 1.269 . S
O144 Zn141 1.986 . S
O144 C151 1.262 . S
O145 Zn140 2.049 . S
O145 C153 1.260 . S
O146 Zn141 1.996 . S
O146 C153 1.257 . S
C147 O142 1.254 . S
C147 O143 1.269 . S
C148 O149 1.249 . S
C148 O150 1.270 . S
O149 Zn141 1.943 . S
O149 C148 1.249 . S
O150 Zn140 2.067 . S
O150 C148 1.270 . S
C151 O144 1.262 . S
C151 O152 1.232 . S
O152 C151 1.232 . S
C153 O145 1.260 . S
C153 O146 1.257 . S
Zn154 O157 2.031 . S
Zn154 O159 2.049 . S
Zn154 O164 2.067 . S
Zn155 O156 1.962 . S
Zn155 O158 1.986 . S
Zn155 O160 1.996 . S
Zn155 O163 1.943 . S
O156 Zn155 1.962 . S
O156 C161 1.254 . S
O157 Zn154 2.031 . S
O157 C161 1.269 . S
O158 Zn155 1.986 . S
O158 C165 1.262 . S
O159 Zn154 2.049 . S
O159 C167 1.260 . S
O160 Zn155 1.996 . S
O160 C167 1.257 . S
C161 O156 1.254 . S
C161 O157 1.269 . S
C162 O163 1.249 . S
C162 O164 1.270 . S
O163 Zn155 1.943 . S
O163 C162 1.249 . S
O164 Zn154 2.067 . S
O164 C162 1.270 . S
C165 O158 1.262 . S
C165 O166 1.232 . S
O166 C165 1.232 . S
C167 O159 1.260 . S
C167 O160 1.257 . S
Zn168 O171 2.031 . S
Zn168 O173 2.049 . S
Zn168 O178 2.067 . S
Zn169 O170 1.962 . S
Zn169 O172 1.986 . S
Zn169 O174 1.996 . S
Zn169 O177 1.943 . S
O170 Zn169 1.962 . S
O170 C175 1.254 . S
O171 Zn168 2.031 . S
O171 C175 1.269 . S
O172 Zn169 1.986 . S
O172 C179 1.262 . S
O173 Zn168 2.049 . S
O173 C181 1.260 . S
O174 Zn169 1.996 . S
O174 C181 1.257 . S
C175 O170 1.254 . S
C175 O171 1.269 . S
C176 O177 1.249 . S
C176 O178 1.270 . S
O177 Zn169 1.943 . S
O177 C176 1.249 . S
O178 Zn168 2.067 . S
O178 C176 1.270 . S
C179 O172 1.262 . S
C179 O180 1.232 . S
O180 C179 1.232 . S
C181 O173 1.260 . S
C181 O174 1.257 . S
Zn182 O185 2.031 . S
Zn182 O187 2.049 . S
Zn182 O192 2.067 . S
Zn183 O184 1.962 . S
Zn183 O186 1.986 . S
Zn183 O188 1.996 . S
Zn183 O191 1.943 . S
O184 Zn183 1.962 . S
O184 C189 1.254 . S
O185 Zn182 2.031 . S
O185 C189 1.269 . S
O186 Zn183 1.986 . S
O186 C193 1.262 . S
O187 Zn182 2.049 . S
O187 C195 1.260 . S
O188 Zn183 1.996 . S
O188 C195 1.257 . S
C189 O184 1.254 . S
C189 O185 1.269 . S
C190 O191 1.249 . S
C190 O192 1.270 . S
O191 Zn183 1.943 . S
O191 C190 1.249 . S
O192 Zn182 2.067 . S
O192 C190 1.270 . S
C193 O186 1.262 . S
C193 O194 1.232 . S
O194 C193 1.232 . S
C195 O187 1.260 . S
C195 O188 1.257 . S
Zn196 O199 2.031 . S
Zn196 O201 2.049 . S
Zn196 O206 2.067 . S
Zn197 O198 1.962 . S
Zn197 O200 1.986 . S
Zn197 O202 1.996 . S
Zn197 O205 1.943 . S
O198 Zn197 1.962 . S
O198 C203 1.254 . S
O199 Zn196 2.031 . S
O199 C203 1.269 . S
O200 Zn197 1.986 . S
O200 C207 1.262 . S
O201 Zn196 2.049 . S
O201 C209 1.260 . S
O202 Zn197 1.996 . S
O202 C209 1.257 . S
C203 O198 1.254 . S
C203 O199 1.269 . S
C204 O205 1.249 . S
C204 O206 1.270 . S
O205 Zn197 1.943 . S
O205 C204 1.249 . S
O206 Zn196 2.067 . S
O206 C204 1.270 . S
C207 O200 1.262 . S
C207 O208 1.232 . S
O208 C207 1.232 . S
C209 O201 1.260 . S
C209 O202 1.257 . S
Zn210 O213 2.031 . S
Zn210 O215 2.049 . S
Zn210 O220 2.067 . S
Zn211 O212 1.962 . S
Zn211 O214 1.986 . S
Zn211 O216 1.996 . S
Zn211 O219 1.943 . S
O212 Zn211 1.962 . S
O212 C217 1.254 . S
O213 Zn210 2.031 . S
O213 C217 1.269 . S
O214 Zn211 1.986 . S
O214 C221 1.262 . S
O215 Zn210 2.049 . S
O215 C223 1.260 . S
O216 Zn211 1.996 . S
O216 C223 1.257 . S
C217 O212 1.254 . S
C217 O213 1.269 . S
C218 O219 1.249 . S
C218 O220 1.270 . S
O219 Zn211 1.943 . S
O219 C218 1.249 . S
O220 Zn210 2.067 . S
O220 C218 1.270 . S
C221 O214 1.262 . S
C221 O222 1.232 . S
O222 C221 1.232 . S
C223 O215 1.260 . S
C223 O216 1.257 . S
C224 C225 1.387 . S
C224 H228 0.950 . S
C224 C233 1.390 1_455 S
C225 C224 1.387 . S
C225 C227 1.387 . S
H226 C233 0.950 . S
C227 C225 1.387 . S
C227 C229 1.390 1_455 S
C227 H231 0.950 . S
H228 C224 0.950 . S
C229 C227 1.390 1_655 S
C229 C230 1.387 . S
C229 H232 0.950 . S
C230 C229 1.387 . S
C230 C233 1.387 . S
H231 C227 0.950 . S
H232 C229 0.950 . S
C233 C224 1.390 1_655 S
C233 H226 0.950 . S
C233 C230 1.387 . S
C234 C235 1.387 . S
C234 H238 0.950 . S
C234 C243 1.390 1_655 S
C235 C234 1.387 . S
C235 C237 1.387 . S
H236 C243 0.950 . S
C237 C235 1.387 . S
C237 C239 1.390 1_655 S
C237 H241 0.950 . S
H238 C234 0.950 . S
C239 C237 1.390 1_455 S
C239 C240 1.387 . S
C239 H242 0.950 . S
C240 C239 1.387 . S
C240 C243 1.387 . S
H241 C237 0.950 . S
H242 C239 0.950 . S
C243 C234 1.390 1_455 S
C243 H236 0.950 . S
C243 C240 1.387 . S
C244 C245 1.387 . S
C244 H248 0.950 . S
C244 C253 1.390 1_655 S
C245 C244 1.387 . S
C245 C247 1.387 . S
H246 C253 0.950 . S
C247 C245 1.387 . S
C247 C249 1.390 1_655 S
C247 H251 0.950 . S
H248 C244 0.950 . S
C249 C247 1.390 1_455 S
C249 C250 1.387 . S
C249 H252 0.950 . S
C250 C249 1.387 . S
C250 C253 1.387 . S
H251 C247 0.950 . S
H252 C249 0.950 . S
C253 C244 1.390 1_455 S
C253 H246 0.950 . S
C253 C250 1.387 . S
C254 C255 1.387 . S
C254 H258 0.950 . S
C254 C263 1.390 1_455 S
C255 C254 1.387 . S
C255 C257 1.387 . S
H256 C263 0.950 . S
C257 C255 1.387 . S
C257 C259 1.390 1_455 S
C257 H261 0.950 . S
H258 C254 0.950 . S
C259 C257 1.390 1_655 S
C259 C260 1.387 . S
C259 H262 0.950 . S
C260 C259 1.387 . S
C260 C263 1.387 . S
H261 C257 0.950 . S
H262 C259 0.950 . S
C263 C254 1.390 1_655 S
C263 H256 0.950 . S
C263 C260 1.387 . S
C264 C265 1.387 . S
C264 H268 0.950 . S
C264 C273 1.390 . S
C265 C264 1.387 . S
C265 C267 1.387 . S
H266 C273 0.950 . S
C267 C265 1.387 . S
C267 C269 1.390 . S
C267 H271 0.950 . S
H268 C264 0.950 . S
C269 C267 1.390 . S
C269 C270 1.387 . S
C269 H272 0.950 . S
C270 C269 1.387 . S
C270 C273 1.387 . S
H271 C267 0.950 . S
H272 C269 0.950 . S
C273 C264 1.390 . S
C273 H266 0.950 . S
C273 C270 1.387 . S
C274 C275 1.387 . S
C274 H278 0.950 . S
C274 C283 1.390 . S
C275 C274 1.387 . S
C275 C277 1.387 . S
H276 C283 0.950 . S
C277 C275 1.387 . S
C277 C279 1.390 . S
C277 H281 0.950 . S
H278 C274 0.950 . S
C279 C277 1.390 . S
C279 C280 1.387 . S
C279 H282 0.950 . S
C280 C279 1.387 . S
C280 C283 1.387 . S
H281 C277 0.950 . S
H282 C279 0.950 . S
C283 C274 1.390 . S
C283 H276 0.950 . S
C283 C280 1.387 . S
C284 C285 1.387 . S
C284 H288 0.950 . S
C284 C293 1.390 . S
C285 C284 1.387 . S
C285 C287 1.387 . S
H286 C293 0.950 . S
C287 C285 1.387 . S
C287 C289 1.390 . S
C287 H291 0.950 . S
H288 C284 0.950 . S
C289 C287 1.390 . S
C289 C290 1.387 . S
C289 H292 0.950 . S
C290 C289 1.387 . S
C290 C293 1.387 . S
H291 C287 0.950 . S
H292 C289 0.950 . S
C293 C284 1.390 . S
C293 H286 0.950 . S
C293 C290 1.387 . S
C294 C295 1.387 . S
C294 H298 0.950 . S
C294 C303 1.390 . S
C295 C294 1.387 . S
C295 C297 1.387 . S
H296 C303 0.950 . S
C297 C295 1.387 . S
C297 C299 1.390 . S
C297 H301 0.950 . S
H298 C294 0.950 . S
C299 C297 1.390 . S
C299 C300 1.387 . S
C299 H302 0.950 . S
C300 C299 1.387 . S
C300 C303 1.387 . S
H301 C297 0.950 . S
H302 C299 0.950 . S
C303 C294 1.390 . S
C303 H296 0.950 . S
C303 C300 1.387 . S
C304 C305 1.387 . S
C304 H308 0.950 . S
C304 C313 1.390 . S
C305 C304 1.387 . S
C305 C307 1.387 . S
H306 C313 0.950 . S
C307 C305 1.387 . S
C307 C309 1.390 . S
C307 H311 0.950 . S
H308 C304 0.950 . S
C309 C307 1.390 . S
C309 C310 1.387 . S
C309 H312 0.950 . S
C310 C309 1.387 . S
C310 C313 1.387 . S
H311 C307 0.950 . S
H312 C309 0.950 . S
C313 C304 1.390 . S
C313 H306 0.950 . S
C313 C310 1.387 . S
C314 C315 1.387 . S
C314 H318 0.950 . S
C314 C323 1.390 . S
C315 C314 1.387 . S
C315 C317 1.387 . S
H316 C323 0.950 . S
C317 C315 1.387 . S
C317 C319 1.390 . S
C317 H321 0.950 . S
H318 C314 0.950 . S
C319 C317 1.390 . S
C319 C320 1.387 . S
C319 H322 0.950 . S
C320 C319 1.387 . S
C320 C323 1.387 . S
H321 C317 0.950 . S
H322 C319 0.950 . S
C323 C314 1.390 . S
C323 H316 0.950 . S
C323 C320 1.387 . S
C324 C325 1.387 . S
C324 H328 0.950 . S
C324 C333 1.390 . S
C325 C324 1.387 . S
C325 C327 1.387 . S
H326 C333 0.950 . S
C327 C325 1.387 . S
C327 C329 1.390 . S
C327 H331 0.950 . S
H328 C324 0.950 . S
C329 C327 1.390 . S
C329 C330 1.387 . S
C329 H332 0.950 . S
C330 C329 1.387 . S
C330 C333 1.387 . S
H331 C327 0.950 . S
H332 C329 0.950 . S
C333 C324 1.390 . S
C333 H326 0.950 . S
C333 C330 1.387 . S
C334 C335 1.387 . S
C334 H338 0.950 . S
C334 C343 1.390 . S
C335 C334 1.387 . S
C335 C337 1.387 . S
H336 C343 0.950 . S
C337 C335 1.387 . S
C337 C339 1.390 . S
C337 H341 0.950 . S
H338 C334 0.950 . S
C339 C337 1.390 . S
C339 C340 1.387 . S
C339 H342 0.950 . S
C340 C339 1.387 . S
C340 C343 1.387 . S
H341 C337 0.950 . S
H342 C339 0.950 . S
C343 C334 1.390 . S
C343 H336 0.950 . S
C343 C340 1.387 . S
C344 C345 1.387 . S
C344 H348 0.950 . S
C344 C353 1.390 . S
C345 C344 1.387 . S
C345 C347 1.387 . S
H346 C353 0.950 . S
C347 C345 1.387 . S
C347 C349 1.390 . S
C347 H351 0.950 . S
H348 C344 0.950 . S
C349 C347 1.390 . S
C349 C350 1.387 . S
C349 H352 0.950 . S
C350 C349 1.387 . S
C350 C353 1.387 . S
H351 C347 0.950 . S
H352 C349 0.950 . S
C353 C344 1.390 . S
C353 H346 0.950 . S
C353 C350 1.387 . S
C354 C355 1.387 . S
C354 H358 0.950 . S
C354 C363 1.390 . S
C355 C354 1.387 . S
C355 C357 1.387 . S
H356 C363 0.950 . S
C357 C355 1.387 . S
C357 C359 1.390 . S
C357 H361 0.950 . S
H358 C354 0.950 . S
C359 C357 1.390 . S
C359 C360 1.387 . S
C359 H362 0.950 . S
C360 C359 1.387 . S
C360 C363 1.387 . S
H361 C357 0.950 . S
H362 C359 0.950 . S
C363 C354 1.390 . S
C363 H356 0.950 . S
C363 C360 1.387 . S
C364 C365 1.387 . S
C364 H368 0.950 . S
C364 C373 1.390 . S
C365 C364 1.387 . S
C365 C367 1.387 . S
H366 C373 0.950 . S
C367 C365 1.387 . S
C367 C369 1.390 . S
C367 H371 0.950 . S
H368 C364 0.950 . S
C369 C367 1.390 . S
C369 C370 1.387 . S
C369 H372 0.950 . S
C370 C369 1.387 . S
C370 C373 1.387 . S
H371 C367 0.950 . S
H372 C369 0.950 . S
C373 C364 1.390 . S
C373 H366 0.950 . S
C373 C370 1.387 . S
C374 C375 1.387 . S
C374 H378 0.950 . S
C374 C383 1.390 . S
C375 C374 1.387 . S
C375 C377 1.387 . S
H376 C383 0.950 . S
C377 C375 1.387 . S
C377 C379 1.390 . S
C377 H381 0.950 . S
H378 C374 0.950 . S
C379 C377 1.390 . S
C379 C380 1.387 . S
C379 H382 0.950 . S
C380 C379 1.387 . S
C380 C383 1.387 . S
H381 C377 0.950 . S
H382 C379 0.950 . S
C383 C374 1.390 . S
C383 H376 0.950 . S
C383 C380 1.387 . S
C384 C385 1.387 . S
C384 H388 0.950 . S
C384 C393 1.390 . S
C385 C384 1.387 . S
C385 C387 1.387 1_556 S
H386 C393 0.950 . S
C387 C385 1.387 1_554 S
C387 C389 1.390 . S
C387 H391 0.950 . S
H388 C384 0.950 . S
C389 C387 1.390 . S
C389 C390 1.387 . S
C389 H392 0.950 . S
C390 C389 1.387 . S
C390 C393 1.387 1_554 S
H391 C387 0.950 . S
H392 C389 0.950 . S
C393 C384 1.390 . S
C393 H386 0.950 . S
C393 C390 1.387 1_556 S
C394 C395 1.387 . S
C394 H398 0.950 . S
C394 C403 1.390 . S
C395 C394 1.387 . S
C395 C397 1.387 . S
H396 C403 0.950 . S
C397 C395 1.387 . S
C397 C399 1.390 . S
C397 H401 0.950 . S
H398 C394 0.950 . S
C399 C397 1.390 . S
C399 C400 1.387 . S
C399 H402 0.950 . S
C400 C399 1.387 . S
C400 C403 1.387 . S
H401 C397 0.950 . S
H402 C399 0.950 . S
C403 C394 1.390 . S
C403 H396 0.950 . S
C403 C400 1.387 . S
C404 C405 1.387 . S
C404 H408 0.950 . S
C404 C413 1.390 1_554 S
C405 C404 1.387 . S
C405 C407 1.387 . S
H406 C413 0.950 . S
C407 C405 1.387 . S
C407 C409 1.390 1_554 S
C407 H411 0.950 . S
H408 C404 0.950 . S
C409 C407 1.390 1_556 S
C409 C410 1.387 . S
C409 H412 0.950 . S
C410 C409 1.387 . S
C410 C413 1.387 . S
H411 C407 0.950 . S
H412 C409 0.950 . S
C413 C404 1.390 1_556 S
C413 H406 0.950 . S
C413 C410 1.387 . S
C414 C415 1.387 . S
C414 H418 0.950 . S
C414 C423 1.390 . S
C415 C414 1.387 . S
C415 C417 1.387 . S
H416 C423 0.950 . S
C417 C415 1.387 . S
C417 C419 1.390 . S
C417 H421 0.950 . S
H418 C414 0.950 . S
C419 C417 1.390 . S
C419 C420 1.387 . S
C419 H422 0.950 . S
C420 C419 1.387 . S
C420 C423 1.387 . S
H421 C417 0.950 . S
H422 C419 0.950 . S
C423 C414 1.390 . S
C423 H416 0.950 . S
C423 C420 1.387 . S
C424 C425 1.387 . S
C424 H428 0.950 . S
C424 C433 1.390 . S
C425 C424 1.387 . S
C425 C427 1.387 1_554 S
H426 C433 0.950 . S
C427 C425 1.387 1_556 S
C427 C429 1.390 . S
C427 H431 0.950 . S
H428 C424 0.950 . S
C429 C427 1.390 . S
C429 C430 1.387 . S
C429 H432 0.950 . S
C430 C429 1.387 . S
C430 C433 1.387 1_556 S
H431 C427 0.950 . S
H432 C429 0.950 . S
C433 C424 1.390 . S
C433 H426 0.950 . S
C433 C430 1.387 1_554 S
C434 C435 1.387 . S
C434 H438 0.950 . S
C434 C443 1.390 . S
C435 C434 1.387 . S
C435 C437 1.387 . S
H436 C443 0.950 . S
C437 C435 1.387 . S
C437 C439 1.390 . S
C437 H441 0.950 . S
H438 C434 0.950 . S
C439 C437 1.390 . S
C439 C440 1.387 . S
C439 H442 0.950 . S
C440 C439 1.387 . S
C440 C443 1.387 . S
H441 C437 0.950 . S
H442 C439 0.950 . S
C443 C434 1.390 . S
C443 H436 0.950 . S
C443 C440 1.387 . S
C444 C445 1.387 . S
C444 H448 0.950 . S
C444 C453 1.390 . S
C445 C444 1.387 . S
C445 C447 1.387 1_554 S
H446 C453 0.950 . S
C447 C445 1.387 1_556 S
C447 C449 1.390 . S
C447 H451 0.950 . S
H448 C444 0.950 . S
C449 C447 1.390 . S
C449 C450 1.387 . S
C449 H452 0.950 . S
C450 C449 1.387 . S
C450 C453 1.387 1_556 S
H451 C447 0.950 . S
H452 C449 0.950 . S
C453 C444 1.390 . S
C453 H446 0.950 . S
C453 C450 1.387 1_554 S
C454 C455 1.387 . S
C454 H458 0.950 . S
C454 C463 1.390 . S
C455 C454 1.387 . S
C455 C457 1.387 . S
H456 C463 0.950 . S
C457 C455 1.387 . S
C457 C459 1.390 . S
C457 H461 0.950 . S
H458 C454 0.950 . S
C459 C457 1.390 . S
C459 C460 1.387 . S
C459 H462 0.950 . S
C460 C459 1.387 . S
C460 C463 1.387 . S
H461 C457 0.950 . S
H462 C459 0.950 . S
C463 C454 1.390 . S
C463 H456 0.950 . S
C463 C460 1.387 . S
C464 C465 1.387 . S
C464 H468 0.950 . S
C464 C473 1.390 1_556 S
C465 C464 1.387 . S
C465 C467 1.387 . S
H466 C473 0.950 . S
C467 C465 1.387 . S
C467 C469 1.390 1_556 S
C467 H471 0.950 . S
H468 C464 0.950 . S
C469 C467 1.390 1_554 S
C469 C470 1.387 . S
C469 H472 0.950 . S
C470 C469 1.387 . S
C470 C473 1.387 . S
H471 C467 0.950 . S
H472 C469 0.950 . S
C473 C464 1.390 1_554 S
C473 H466 0.950 . S
C473 C470 1.387 . S
C474 C475 1.387 . S
C474 H478 0.950 . S
C474 C483 1.390 . S
C475 C474 1.387 . S
C475 C477 1.387 . S
H476 C483 0.950 . S
C477 C475 1.387 . S
C477 C479 1.390 . S
C477 H481 0.950 . S
H478 C474 0.950 . S
C479 C477 1.390 . S
C479 C480 1.387 . S
C479 H482 0.950 . S
C480 C479 1.387 . S
C480 C483 1.387 . S
H481 C477 0.950 . S
H482 C479 0.950 . S
C483 C474 1.390 . S
C483 H476 0.950 . S
C483 C480 1.387 . S
C484 C485 1.387 . S
C484 H488 0.950 . S
C484 C493 1.390 1_554 S
C485 C484 1.387 . S
C485 C487 1.387 . S
H486 C493 0.950 . S
C487 C485 1.387 . S
C487 C489 1.390 1_554 S
C487 H491 0.950 . S
H488 C484 0.950 . S
C489 C487 1.390 1_556 S
C489 C490 1.387 . S
C489 H492 0.950 . S
C490 C489 1.387 . S
C490 C493 1.387 . S
H491 C487 0.950 . S
H492 C489 0.950 . S
C493 C484 1.390 1_556 S
C493 H486 0.950 . S
C493 C490 1.387 . S
C494 C495 1.387 . S
C494 H498 0.950 . S
C494 C503 1.390 . S
C495 C494 1.387 . S
C495 C497 1.387 . S
H496 C503 0.950 . S
C497 C495 1.387 . S
C497 C499 1.390 . S
C497 H501 0.950 . S
H498 C494 0.950 . S
C499 C497 1.390 . S
C499 C500 1.387 . S
C499 H502 0.950 . S
C500 C499 1.387 . S
C500 C503 1.387 . S
H501 C497 0.950 . S
H502 C499 0.950 . S
C503 C494 1.390 . S
C503 H496 0.950 . S
C503 C500 1.387 . S
C504 C505 1.387 . S
C504 H508 0.950 . S
C504 C513 1.390 1_546 S
C505 C504 1.387 . S
C505 C507 1.387 . S
H506 C513 0.950 . S
C507 C505 1.387 . S
C507 C509 1.390 1_546 S
C507 H511 0.950 . S
H508 C504 0.950 . S
C509 C507 1.390 1_564 S
C509 C510 1.387 . S
C509 H512 0.950 . S
C510 C509 1.387 . S
C510 C513 1.387 . S
H511 C507 0.950 . S
H512 C509 0.950 . S
C513 C504 1.390 1_564 S
C513 H506 0.950 . S
C513 C510 1.387 . S
C514 C515 1.387 . S
C514 H518 0.950 . S
C514 C523 1.390 1_565 S
C515 C514 1.387 . S
C515 C517 1.387 . S
H516 C523 0.950 . S
C517 C515 1.387 . S
C517 C519 1.390 1_565 S
C517 H521 0.950 . S
H518 C514 0.950 . S
C519 C517 1.390 1_545 S
C519 C520 1.387 . S
C519 H522 0.950 . S
C520 C519 1.387 . S
C520 C523 1.387 . S
H521 C517 0.950 . S
H522 C519 0.950 . S
C523 C514 1.390 1_545 S
C523 H516 0.950 . S
C523 C520 1.387 . S
C524 C525 1.387 . S
C524 H528 0.950 . S
C524 C533 1.390 1_564 S
C525 C524 1.387 . S
C525 C527 1.387 . S
H526 C533 0.950 . S
C527 C525 1.387 . S
C527 C529 1.390 1_564 S
C527 H531 0.950 . S
H528 C524 0.950 . S
C529 C527 1.390 1_546 S
C529 C530 1.387 . S
C529 H532 0.950 . S
C530 C529 1.387 . S
C530 C533 1.387 . S
H531 C527 0.950 . S
H532 C529 0.950 . S
C533 C524 1.390 1_546 S
C533 H526 0.950 . S
C533 C530 1.387 . S
C534 C535 1.387 . S
C534 H538 0.950 . S
C534 C543 1.390 1_545 S
C535 C534 1.387 . S
C535 C537 1.387 . S
H536 C543 0.950 . S
C537 C535 1.387 . S
C537 C539 1.390 1_545 S
C537 H541 0.950 . S
H538 C534 0.950 . S
C539 C537 1.390 1_565 S
C539 C540 1.387 . S
C539 H542 0.950 . S
C540 C539 1.387 . S
C540 C543 1.387 . S
H541 C537 0.950 . S
H542 C539 0.950 . S
C543 C534 1.390 1_565 S
C543 H536 0.950 . S
C543 C540 1.387 . S
C225 C8 1.430 . S
C230 C92 1.423 . S
C235 C22 1.429 . S
C240 C106 1.424 . S
C245 C64 1.424 . S
C250 C36 1.429 . S
C255 C78 1.423 . S
C260 C50 1.429 . S
C265 C204 1.424 . S
C270 C120 1.429 . S
C275 C218 1.424 . S
C280 C134 1.432 . S
C285 C148 1.431 . S
C290 C176 1.425 . S
C295 C162 1.430 . S
C300 C190 1.423 . S
C305 C13 1.339 . S
C310 C77 1.439 . S
C315 C27 1.341 . S
C320 C63 1.438 . S
C325 C41 1.342 . S
C330 C105 1.438 . S
C335 C91 1.439 . S
C340 C55 1.339 . S
C345 C189 1.438 . S
C350 C125 1.341 . S
C355 C175 1.437 . S
C360 C139 1.342 . S
C365 C153 1.339 . S
C370 C217 1.439 . S
C375 C203 1.439 . S
C380 C167 1.338 . S
C385 C179 1.406 . S
C390 C11 1.402 . S
C395 C25 1.402 . S
C400 C193 1.406 . S
C405 C207 1.406 . S
C410 C39 1.401 . S
C415 C221 1.406 . S
C420 C53 1.401 . S
C425 C123 1.402 . S
C430 C67 1.406 . S
C435 C137 1.401 . S
C440 C81 1.406 . S
C445 C95 1.406 . S
C450 C151 1.402 . S
C455 C109 1.406 . S
C460 C165 1.401 . S
C465 C35 1.503 . S
C470 C7 1.503 . S
C475 C21 1.503 . S
C480 C49 1.503 . S
C485 C97 1.303 . S
C490 C69 1.303 . S
C495 C83 1.303 . S
C500 C111 1.303 . S
C505 C147 1.503 . S
C510 C119 1.503 . S
C515 C161 1.502 . S
C520 C133 1.502 . S
C525 C209 1.299 . S
C530 C181 1.299 . S
C535 C223 1.303 . S
C540 C195 1.303 . S
