# Generated by pormake.
# Topology reo, (8)-cn, num edge types: 1
# Building blocks:
#     Node 0, Type 0, BuildingBlock: VETTIZ_charged_sbu_0, # of connection points: 8
#     Node 1, Type 0, BuildingBlock: VETTIZ_charged_sbu_0, # of connection points: 8
#     Node 2, Type 0, BuildingBlock: VETTIZ_charged_sbu_0, # of connection points: 8
#     Edge 3, Type (0, 0), BuildingBlock: ZUJKAS_clean_linker_0, # of connection points: 2
#     Edge 4, Type (0, 0), BuildingBlock: ZUJKAS_clean_linker_0, # of connection points: 2
#     Edge 5, Type (0, 0), BuildingBlock: ZUJKAS_clean_linker_0, # of connection points: 2
#     Edge 6, Type (0, 0), BuildingBlock: ZUJKAS_clean_linker_0, # of connection points: 2
#     Edge 7, Type (0, 0), BuildingBlock: ZUJKAS_clean_linker_0, # of connection points: 2
#     Edge 8, Type (0, 0), BuildingBlock: ZUJKAS_clean_linker_0, # of connection points: 2
#     Edge 9, Type (0, 0), BuildingBlock: ZUJKAS_clean_linker_0, # of connection points: 2
#     Edge 10, Type (0, 0), BuildingBlock: ZUJKAS_clean_linker_0, # of connection points: 2
#     Edge 11, Type (0, 0), BuildingBlock: ZUJKAS_clean_linker_0, # of connection points: 2
#     Edge 12, Type (0, 0), BuildingBlock: ZUJKAS_clean_linker_0, # of connection points: 2
#     Edge 13, Type (0, 0), BuildingBlock: ZUJKAS_clean_linker_0, # of connection points: 2
#     Edge 14, Type (0, 0), BuildingBlock: ZUJKAS_clean_linker_0, # of connection points: 2
# Relax obj value: 0.145
# Max RMSD: 0.165
# Mean RMSD: 0.165
data_MOF--net-reo--node1-VETTIZ_charged_sbu_0--edge1-ZUJKAS_clean_linker_0
_symmetry_space_group_name_H-M    P1
_symmetry_Int_Tables_number       1
_symmetry_cell_setting            triclinic
loop_
_symmetry_equiv_pos_as_xyz
'x, y, z'
_cell_length_a     29.437062
_cell_length_b     29.617212
_cell_length_c     30.350066
_cell_angle_alpha  90.103966
_cell_angle_beta   90.397244
_cell_angle_gamma 90.03175
loop_
_atom_site_label
_atom_site_type_symbol
_atom_site_fract_x
_atom_site_fract_y
_atom_site_fract_z
_atom_type_partial_charge
Fe0 Fe 0.01704 0.0114 0.44296 0.0
O1 O 0.00862 0.0461 0.49849 0.0
Fe2 Fe 0.0416 0.90226 0.47702 0.0
Fe3 Fe 0.96951 0.09959 0.5031 0.0
O4 O 1.00327 0.95652 0.47833 0.0
O5 O 1.00242 0.95577 0.4816 0.0
O6 O 0.00783 0.04536 0.5017 0.0
Fe7 Fe 0.99453 0.99049 0.53723 0.0
C8 C 0.03612 0.1135 0.42775 0.0
O9 O 0.94973 0.01669 0.42723 0.0
O10 O 0.93625 0.08876 0.44344 0.0
O11 O 0.98074 0.92915 0.56795 0.0
O12 O 0.99049 0.87415 0.51478 0.0
O13 O 0.01232 0.89662 0.41495 0.0
O14 O 0.02357 0.96893 0.38842 0.0
O15 O 0.917 0.06871 0.53683 0.0
O16 O 0.92665 0.99579 0.5238 0.0
C17 C 0.0147 0.92619 0.38326 0.0
O18 O 0.06201 0.98529 0.55224 0.0
O19 O 0.07476 0.91298 0.53671 0.0
O20 O 0.03117 0.07273 0.41236 0.0
O21 O 0.02051 0.12779 0.4653 0.0
C22 C 0.92763 0.05299 0.42148 0.0
C23 C 0.90291 0.02805 0.5386 0.0
C24 C 0.99775 0.07585 0.59671 0.0
O25 O 0.99918 0.10535 0.56491 0.0
O26 O 0.98867 0.03309 0.59183 0.0
C27 C 0.97524 0.88847 0.55248 0.0
O28 O 0.0942 0.93315 0.44345 0.0
O29 O 0.08475 0.00589 0.45715 0.0
C30 C 0.08388 0.9489 0.55821 0.0
C31 C 0.10838 0.97378 0.44189 0.0
Fe32 Fe 0.45209 1.00177 -0.00618 0.0
O33 O 0.5051 0.99393 0.03462 0.0
Fe34 Fe 0.50053 0.05813 0.90517 0.0
Fe35 Fe 0.50935 0.94397 0.07715 0.0
O36 O 0.50011 0.00868 0.94806 0.0
O37 O 0.50484 0.00801 0.94757 0.0
O38 O 0.50982 0.99329 0.03413 0.0
Fe39 Fe 0.55787 1.00023 0.98838 0.0
C40 C 0.41911 0.99219 0.09063 0.0
O41 O 0.44927 0.93354 0.98102 0.0
O42 O 0.45753 0.9063 0.04878 0.0
O43 O 0.60092 0.00769 0.93339 0.0
O44 O 0.55124 0.02163 0.87577 0.0
O45 O 0.44545 0.02294 0.88104 0.0
O46 O 0.40307 0.0091 0.94345 0.0
O47 O 0.5564 0.90526 0.04418 0.0
O48 O 0.55948 0.93162 0.97565 0.0
C49 C 0.40819 0.01132 0.9008 0.0
O50 O 0.56059 0.06846 0.00123 0.0
O51 O 0.55242 0.09572 0.9335 0.0
O52 O 0.40904 0.99444 0.04869 0.0
O53 O 0.45849 0.98052 0.10648 0.0
C54 C 0.44257 0.9028 0.00943 0.0
C55 C 0.56746 0.90083 0.00393 0.0
C56 C 0.6016 0.99122 0.08151 0.0
O57 O 0.56439 0.97935 0.10124 0.0
O58 O 0.60683 0.99306 0.03884 0.0
C59 C 0.59074 0.01014 0.89146 0.0
O60 O 0.45351 0.09675 0.93819 0.0
O61 O 0.45059 0.07038 0.00667 0.0
C62 C 0.56736 0.09919 0.97284 0.0
C63 C 0.44243 0.10113 0.97842 0.0
Fe64 Fe 0.011 0.45086 0.00036 0.0
O65 O 1.00321 0.50794 0.03438 0.0
Fe66 Fe 0.05167 0.48713 0.8991 0.0
Fe67 Fe 0.95864 0.51489 0.08187 0.0
O68 O 0.00772 0.49028 0.94726 0.0
O69 O 0.00676 0.49408 0.9464 0.0
O70 O 1.00232 0.5117 0.03354 0.0
Fe71 Fe 0.9991 0.55117 0.98049 0.0
C72 C 0.91484 0.43713 0.02882 0.0
O73 O 0.01445 0.41693 0.06035 0.0
O74 O 1.00349 0.47166 0.11352 0.0
O75 O 0.06818 0.5607 0.98435 0.0
O76 O 0.08825 0.54488 0.91549 0.0
O77 O 0.09827 0.44853 0.93392 0.0
O78 O 0.08062 0.45688 0.0046 0.0
O79 O 0.99203 0.57555 0.09293 0.0
O80 O 0.99268 0.6062 0.02291 0.0
C81 C 0.10802 0.4444 0.97471 0.0
O82 O 0.99574 0.5851 0.92045 0.0
O83 O 0.00699 0.53036 0.86728 0.0
O84 O 0.94193 0.44112 -0.0034 0.0
O85 O 0.92193 0.45721 0.06547 0.0
C86 C 0.01774 0.43228 0.10046 0.0
C87 C 0.99678 0.60906 0.06555 0.0
C88 C 0.90213 0.55789 0.00645 0.0
O89 O 0.91203 0.5536 0.0472 0.0
O90 O 0.9294 0.54541 0.97641 0.0
C91 C 0.09529 0.56484 0.95219 0.0
O92 O 0.01852 0.42636 0.88794 0.0
O93 O 0.01778 0.39582 0.95801 0.0
C94 C 0.99283 0.5698 0.88028 0.0
C95 C 0.0141 0.39284 0.91535 0.0
H96 H 0.01865 0.4423 0.19022 0.0
H97 H 0.04706 0.38867 0.24467 0.0
H98 H 0.09336 0.30108 0.14055 0.0
H99 H 0.06427 0.35389 0.08576 0.0
H100 H 0.03551 0.26032 0.19656 0.0
H101 H 0.16986 0.34778 0.29233 0.0
H102 H 0.11909 0.38091 0.2872 0.0
H103 H 0.15106 0.36694 0.23871 0.0
C104 C 0.03553 0.41202 0.17882 0.0
C105 C 0.03859 0.40213 0.13361 0.0
C106 C 0.05229 0.38166 0.21004 0.0
C107 C 0.07291 0.34129 0.19658 0.0
C108 C 0.07786 0.33228 0.15153 0.0
H109 H 0.08818 0.09685 0.35529 0.0
H110 H 0.1116 0.15124 0.29964 0.0
C111 C 0.06085 0.36239 0.1203 0.0
C112 C 0.08223 0.3055 0.22914 0.0
H113 H 0.13321 0.28473 0.32833 0.0
C114 C 0.05772 0.26514 0.22486 0.0
C115 C 0.11099 0.31221 0.26604 0.0
C116 C 0.13959 0.35417 0.27117 0.0
C117 C 0.0589 0.23233 0.25786 0.0
C118 C 0.0863 0.23972 0.29568 0.0
C119 C 0.11244 0.27921 0.29915 0.0
C120 C 0.08372 0.20901 0.33373 0.0
C121 C 0.02846 0.19145 0.25316 0.0
C122 C 0.06328 0.22414 0.37263 0.0
C123 C 0.05048 0.19328 0.4049 0.0
C124 C 0.0576 0.14682 0.39841 0.0
C125 C 0.08165 0.13234 0.36105 0.0
C126 C 0.09507 0.16332 0.32917 0.0
H127 H 1.00317 0.19539 0.2261 0.0
H128 H 0.04949 0.16134 0.24571 0.0
H129 H 0.0099 0.18493 0.28423 0.0
H130 H 0.0544 0.2594 0.37669 0.0
H131 H 0.03234 0.2056 0.43342 0.0
H132 H 0.89068 0.98157 0.37719 0.0
H133 H 0.84147 0.9835 0.31241 0.0
H134 H 0.84126 0.1291 0.31625 0.0
H135 H 0.88994 0.12754 0.38206 0.0
H136 H 0.75789 0.09634 0.30119 0.0
H137 H 0.87709 0.01252 0.1878 0.0
H138 H 0.86849 0.97885 0.23602 0.0
H139 H 0.89465 0.03368 0.2411 0.0
C140 C 0.88009 0.01408 0.36444 0.0
C141 C 0.89438 0.05443 0.38475 0.0
C142 C 0.85238 0.01511 0.32704 0.0
C143 C 0.8389 0.05645 0.30866 0.0
C144 C 0.85185 0.09683 0.32956 0.0
H145 H 0.67994 0.03734 0.06017 0.0
H146 H 0.74066 0.06165 0.11104 0.0
C147 C 0.87939 0.09586 0.36732 0.0
C148 C 0.80945 0.05695 0.26889 0.0
H149 H 0.79723 0.00884 0.16714 0.0
C150 C 0.76689 0.07801 0.27154 0.0
C151 C 0.82156 0.034 0.22969 0.0
C152 C 0.86817 0.01396 0.22329 0.0
C153 C 0.73479 0.07364 0.23747 0.0
C154 C 0.74527 0.04682 0.2003 0.0
C155 C 0.78904 0.02881 0.19602 0.0
C156 C 0.70957 0.03243 0.16876 0.0
C157 C 0.68931 0.09653 0.24227 0.0
C158 C 0.67297 0.00694 0.18426 0.0
C159 C 0.63866 0.99299 0.15561 0.0
C160 C 0.64022 0.00391 0.11054 0.0
C161 C 0.67772 0.02835 0.09466 0.0
C162 C 0.71228 0.04243 0.12364 0.0
H163 H 0.69192 0.12692 0.26366 0.0
H164 H 0.67518 0.10669 0.20974 0.0
H165 H 0.66512 0.0728 0.25791 0.0
H166 H 0.67092 0.99776 0.21874 0.0
H167 H 0.61074 0.9737 0.16905 0.0
H168 H 0.05056 0.96316 0.3089 0.0
H169 H 0.04848 0.9316 0.23427 0.0
H170 H 0.96669 0.82067 0.2805 0.0
H171 H 0.96873 0.85171 0.35501 0.0
H172 H 0.08345 0.84478 0.21603 0.0
H173 H 0.90386 0.85775 0.16388 0.0
H174 H 0.9286 0.8938 0.20584 0.0
H175 H 0.90893 0.83802 0.21957 0.0
C176 C 0.03131 0.93254 0.30292 0.0
C177 C 0.00987 0.90969 0.33772 0.0
C178 C 0.03015 0.9147 0.26033 0.0
C179 C 0.00675 0.87438 0.2519 0.0
C180 C 0.98405 0.85243 0.28627 0.0
H181 H 0.0295 0.62904 0.14753 0.0
H182 H 0.03894 0.7036 0.1804 0.0
C183 C 0.98567 0.86986 0.32888 0.0
C184 C 0.01079 0.85128 0.20914 0.0
H185 H 0.94562 0.79229 0.13606 0.0
C186 C 0.05357 0.83444 0.19745 0.0
C187 C 0.97196 0.8387 0.18448 0.0
C188 C 0.92581 0.85846 0.1938 0.0
C189 C 0.05764 0.80096 0.16512 0.0
C190 C 0.01792 0.78404 0.14463 0.0
C191 C 0.97596 0.80488 0.15245 0.0
C192 C 0.01776 0.74005 0.12199 0.0
C193 C 0.10391 0.78171 0.15536 0.0
C194 C 1.00243 0.73604 0.07839 0.0
C195 C 0.99692 0.69336 0.05946 0.0
C196 C 0.00584 0.65416 0.08427 0.0
C197 C 0.02207 0.65851 0.12767 0.0
C198 C 0.02799 0.7011 0.14632 0.0
H199 H 0.13101 0.80716 0.16138 0.0
H200 H 0.11046 0.75262 0.1775 0.0
H201 H 0.10602 0.76974 0.12073 0.0
H202 H 0.99381 0.76582 0.05942 0.0
H203 H 0.98422 0.69111 0.02595 0.0
H204 H 0.33218 0.02514 0.07701 0.0
H205 H 0.27407 0.03903 0.1333 0.0
H206 H 0.36736 0.9941 0.23423 0.0
H207 H 0.42499 0.98097 0.17948 0.0
H208 H 0.23535 0.97863 0.18922 0.0
H209 H 0.32165 0.1096 0.28786 0.0
H210 H 0.33959 0.09503 0.23285 0.0
H211 H 0.35929 0.06288 0.27964 0.0
C212 C 0.34035 0.01865 0.11126 0.0
C213 C 0.38342 1.00208 0.12356 0.0
C214 C 0.30719 0.02673 0.14335 0.0
C215 C 0.31682 0.01867 0.18808 0.0
C216 C 0.35961 1.00203 0.20016 0.0
H217 H 0.16312 0.91513 0.39719 0.0
H218 H 0.21091 0.93253 0.33415 0.0
C219 C 0.39252 0.99413 0.16849 0.0
C220 C 0.28177 0.02368 0.22252 0.0
H221 H 0.26931 0.06089 0.32823 0.0
C222 C 0.2422 0.99746 0.21923 0.0
C223 C 0.29007 0.04908 0.26132 0.0
C224 C 0.32975 0.08112 0.26537 0.0
C225 C 0.21275 0.99298 0.25511 0.0
C226 C 0.22405 0.01421 0.29559 0.0
C227 C 0.26141 0.04353 0.29761 0.0
C228 C 0.1988 0.00458 0.33656 0.0
C229 C 0.1703 0.96484 0.24951 0.0
C230 C 0.17909 0.03967 0.36091 0.0
C231 C 0.15259 0.02993 0.39773 0.0
C232 C 0.14506 0.98487 0.41055 0.0
C233 C 0.1677 0.95014 0.38797 0.0
C234 C 0.19451 0.95997 0.35149 0.0
H235 H 0.15872 0.96433 0.21458 0.0
H236 H 0.17767 0.9295 0.2593 0.0
H237 H 0.1422 0.97774 0.27026 0.0
H238 H 0.18271 0.07444 0.35044 0.0
H239 H 0.13605 0.05758 0.41462 0.0
H240 H 0.97418 0.79635 0.54454 0.0
H241 H 0.95114 0.74225 0.60044 0.0
H242 H 0.90298 0.85108 0.68238 0.0
H243 H 0.92713 0.90561 0.62737 0.0
H244 H 0.96886 0.8025 0.72094 0.0
H245 H 0.83897 0.68579 0.65397 0.0
H246 H 0.88591 0.69243 0.61718 0.0
H247 H 0.85043 0.74023 0.6296 0.0
C248 C 0.95755 0.80879 0.57387 0.0
C249 C 0.95322 0.85537 0.58178 0.0
C250 C 0.9439 0.7777 0.60563 0.0
C251 C 0.92503 0.79266 0.6454 0.0
C252 C 0.9173 0.83889 0.65179 0.0
H253 H 0.94177 0.64543 0.8944 0.0
H254 H 0.91405 0.69894 0.83941 0.0
C255 C 0.93136 0.87001 0.62033 0.0
C256 C 0.92232 0.76146 0.68315 0.0
H257 H 0.88557 0.65701 0.71396 0.0
C258 C 0.94973 0.77119 0.71995 0.0
C259 C 0.89771 0.72052 0.68144 0.0
C260 C 0.86625 0.70932 0.64356 0.0
C261 C 0.95543 0.73994 0.75397 0.0
C262 C 0.93223 0.6982 0.75149 0.0
C263 C 0.90322 0.68914 0.71565 0.0
C264 C 0.94135 0.66227 0.78388 0.0
C265 C 0.98844 0.7508 0.79085 0.0
C266 C 0.96392 0.62296 0.77048 0.0
C267 C 0.97947 0.59204 0.80172 0.0
C268 C 0.9729 0.6002 0.84688 0.0
C269 C 0.94809 0.63851 0.85993 0.0
C270 C 0.9321 0.66909 0.82861 0.0
H271 H 0.01013 0.78042 0.7831 0.0
H272 H 0.96923 0.75868 0.82122 0.0
H273 H 0.01087 0.7215 0.79785 0.0
H274 H 0.97133 0.61724 0.73599 0.0
H275 H 0.99816 0.56273 0.79055 0.0
H276 H 0.39654 0.03566 0.81533 0.0
H277 H 0.3364 0.01312 0.76483 0.0
H278 H 0.27156 0.93782 0.86841 0.0
H279 H 0.33213 0.96079 0.92006 0.0
H280 H 0.31371 0.92315 0.74199 0.0
H281 H 0.16892 0.01796 0.81496 0.0
H282 H 0.22724 0.03115 0.82852 0.0
H283 H 0.2013 0.98132 0.85051 0.0
C284 C 0.36952 0.01443 0.82769 0.0
C285 C 0.36928 0.99985 0.87177 0.0
C286 C 0.33515 1.00155 0.79866 0.0
C287 C 0.29967 0.97379 0.81285 0.0
C288 C 0.29856 0.95962 0.85698 0.0
H289 H 0.12115 0.87451 0.59818 0.0
H290 H 0.17107 0.87332 0.66309 0.0
C291 C 0.3331 0.97277 0.88639 0.0
C292 C 0.26475 0.95981 0.78035 0.0
H293 H 0.15621 0.98206 0.74703 0.0
C294 C 0.27897 0.93527 0.74331 0.0
C295 C 0.21969 0.97599 0.78231 0.0
C296 C 0.20312 0.00329 0.821 0.0
C297 C 0.25009 0.92865 0.70693 0.0
C298 C 0.20549 0.94627 0.70818 0.0
C299 C 0.19048 0.96866 0.74625 0.0
C300 C 0.17548 0.94605 0.66884 0.0
C301 C 0.2685 0.9054 0.66651 0.0
C302 C 0.16118 0.98727 0.65084 0.0
C303 C 0.13254 0.98809 0.61411 0.0
C304 C 0.11764 0.94762 0.59448 0.0
C305 C 0.13253 0.90627 0.61216 0.0
C306 C 0.16099 0.9055 0.64927 0.0
H307 H 0.30607 0.90203 0.66778 0.0
H308 H 0.25373 0.87102 0.66402 0.0
H309 H 0.25903 0.92422 0.6362 0.0
H310 H 0.17215 0.01895 0.66535 0.0
H311 H 0.12168 0.02053 0.60141 0.0
H312 H 0.97985 0.37182 0.83423 0.0
H313 H 0.9735 0.29702 0.80099 0.0
H314 H 0.02556 0.23651 0.9202 0.0
H315 H 0.03186 0.3114 0.95406 0.0
H316 H 0.07309 0.21439 0.8402 0.0
H317 H 0.88785 0.18759 0.82388 0.0
H318 H 0.90445 0.24361 0.80816 0.0
H319 H 0.9126 0.22551 0.86424 0.0
C320 C 0.9894 0.34262 0.85362 0.0
C321 C 0.00656 0.3475 0.89662 0.0
C322 C 0.98532 0.2999 0.83478 0.0
C323 C 0.99846 0.26141 0.8585 0.0
C324 C 0.01473 0.26591 0.90173 0.0
H325 H 0.96932 0.03661 0.67318 0.0
H326 H 0.97434 0.06828 0.74765 0.0
C327 C 0.01831 0.30868 0.92089 0.0
C328 C 1.00005 0.21766 0.83554 0.0
H329 H 0.93488 0.15264 0.76758 0.0
C330 C 0.04282 0.19976 0.82539 0.0
C331 C 0.9605 0.19818 0.81709 0.0
C332 C 0.9137 0.21443 0.82928 0.0
C333 C 0.0473 0.16625 0.7931 0.0
C334 C 0.00807 0.15097 0.77058 0.0
C335 C 0.96499 0.16497 0.78455 0.0
C336 C 0.01116 0.12793 0.72769 0.0
C337 C 0.09409 0.14972 0.78124 0.0
C338 C 0.0303 0.15114 0.69209 0.0
C339 C 0.02701 0.1336 0.6496 0.0
C340 C 1.00459 0.09247 0.64204 0.0
C341 C 0.98697 0.06836 0.67804 0.0
C342 C 0.98985 0.08624 0.72057 0.0
H343 H 0.11762 0.15193 0.80995 0.0
H344 H 0.09309 0.11427 0.76926 0.0
H345 H 0.108 0.17127 0.75467 0.0
H346 H 0.046 0.1839 0.69688 0.0
H347 H 0.04115 0.15277 0.6226 0.0
H348 H 0.67853 0.97875 0.9041 0.0
H349 H 0.7366 0.96736 0.84723 0.0
H350 H 0.6413 0.01095 0.74747 0.0
H351 H 0.58369 0.02137 0.80272 0.0
H352 H 0.68861 0.93655 0.72177 0.0
H353 H 0.80417 0.07041 0.78693 0.0
H354 H 0.79046 0.02482 0.82354 0.0
H355 H 0.74692 0.06368 0.80668 0.0
C356 C 0.67002 0.98573 0.87001 0.0
C357 C 0.62642 1.00129 0.85823 0.0
C358 C 0.70324 0.97932 0.83761 0.0
C359 C 0.69333 0.98874 0.79317 0.0
C360 C 0.64969 0.0033 0.78148 0.0
H361 H 0.84371 0.08672 0.57751 0.0
H362 H 0.79338 0.07083 0.63914 0.0
C363 C 0.61671 0.00941 0.81343 0.0
C364 C 0.72792 0.98557 0.75808 0.0
H365 H 0.82164 0.03912 0.71826 0.0
C366 C 0.71815 0.95845 0.72116 0.0
C367 C 0.76614 0.01447 0.75736 0.0
C368 C 0.77764 0.04528 0.79552 0.0
C369 C 0.74399 0.96132 0.68259 0.0
C370 C 0.78137 0.99127 0.68141 0.0
C371 C 0.79267 0.01649 0.71919 0.0
C372 C 0.8078 0.99918 0.64075 0.0
C373 C 0.72942 0.9342 0.64276 0.0
C374 C 0.8313 0.96389 0.62013 0.0
C375 C 0.85932 0.97273 0.58418 0.0
C376 C 0.8653 0.01723 0.56897 0.0
C377 C 0.84 0.05211 0.58841 0.0
C378 C 0.81151 0.04313 0.6239 0.0
H379 H 0.69391 0.92187 0.64567 0.0
H380 H 0.73214 0.95453 0.61219 0.0
H381 H 0.75187 0.90433 0.63948 0.0
H382 H 0.82953 0.92982 0.63291 0.0
H383 H 0.87828 0.94502 0.57003 0.0
H384 H 0.12845 0.40397 0.05395 0.0
H385 H 0.19073 0.3512 0.06951 0.0
H386 H 0.24272 0.37194 0.93867 0.0
H387 H 0.18073 0.42423 0.92276 0.0
H388 H 0.20641 0.27026 0.01997 0.0
H389 H 0.357 0.38228 0.01766 0.0
H390 H 0.30001 0.4033 0.0256 0.0
H391 H 0.31973 0.38991 0.97118 0.0
C392 C 0.15366 0.39802 0.02879 0.0
C393 C 0.14945 0.41836 0.98703 0.0
C394 C 0.18916 0.36769 0.03771 0.0
C395 C 0.22167 0.35786 0.0054 0.0
C396 C 0.21852 0.37949 0.96438 0.0
H397 H 0.42755 0.17669 0.92922 0.0
H398 H 0.3757 0.23868 0.94398 0.0
C399 C 0.18287 0.40932 0.95527 0.0
C400 C 0.25672 0.32234 0.01269 0.0
H401 H 0.371 0.30321 0.00746 0.0
C402 C 0.24248 0.27744 0.01812 0.0
C403 C 0.30373 0.33179 0.01021 0.0
C404 C 0.32115 0.37949 0.00626 0.0
C405 C 0.27377 0.24148 0.01832 0.0
C406 C 0.32078 0.25077 0.01401 0.0
C407 C 0.33507 0.29595 0.01072 0.0
C408 C 0.35502 0.21419 0.00788 0.0
C409 C 0.25592 0.19375 0.02043 0.0
C410 C 0.36192 0.18007 0.03946 0.0
C411 C 0.39169 0.14403 0.03098 0.0
C412 C 0.41529 0.14162 -0.00918 0.0
C413 C 0.4098 0.17704 0.96036 0.0
C414 C 0.38013 0.21276 0.96879 0.0
H415 H 0.21865 0.19217 0.01456 0.0
H416 H 0.27296 0.172 -0.00428 0.0
H417 H 0.26299 0.17963 0.0536 0.0
H418 H 0.34373 0.18088 0.07033 0.0
H419 H 0.39511 0.11745 0.05524 0.0
H420 H 0.11536 0.62163 0.02118 0.0
H421 H 0.17711 0.67657 0.02657 0.0
H422 H 0.22557 0.63551 0.89895 0.0
H423 H 0.16403 0.58009 0.89324 0.0
H424 H 0.29529 0.64581 0.96357 0.0
H425 H 0.18232 0.79563 0.9564 0.0
H426 H 0.16766 0.75539 -0.00181 0.0
H427 H 0.16334 0.73976 0.94106 0.0
C428 C 0.13922 0.62398 -0.00573 0.0
C429 C 0.13446 0.59642 0.95663 0.0
C430 C 0.17438 0.65571 -0.00268 0.0
C431 C 0.20554 0.66069 0.96285 0.0
C432 C 0.20174 0.63245 0.92581 0.0
H433 H 0.38934 0.89135 0.93546 0.0
H434 H 0.33421 0.83109 0.92086 0.0
C435 C 0.16647 0.60078 0.92262 0.0
C436 C 0.24197 0.69547 0.96547 0.0
H437 H 0.2598 0.80917 0.97466 0.0
C438 C 0.28757 0.68154 0.96578 0.0
C439 C 0.2319 0.74215 0.96771 0.0
C440 C 0.18369 0.75932 0.96543 0.0
C441 C 0.32329 0.71295 0.96958 0.0
C442 C 0.31313 0.75948 0.97351 0.0
C443 C 0.26758 0.77348 0.97192 0.0
C444 C 0.34907 0.79415 0.98068 0.0
C445 C 0.37162 0.69608 0.96914 0.0
C446 C 0.37592 0.79338 0.01906 0.0
C447 C 0.40736 0.82781 0.0276 0.0
C448 C 0.41265 0.86392 -0.00205 0.0
C449 C 0.38643 0.86402 0.95895 0.0
C450 C 0.35475 0.82966 0.95059 0.0
H451 H 0.37406 0.66191 0.95419 0.0
H452 H 0.39394 0.71949 0.95064 0.0
H453 H 0.38455 0.69399 0.0035 0.0
H454 H 0.37163 0.76679 0.04314 0.0
H455 H 0.42681 0.8266 0.058 0.0
H456 H 0.62112 0.11024 0.04652 0.0
H457 H 0.67627 0.1705 0.0611 0.0
H458 H 0.63804 0.23536 0.93934 0.0
H459 H 0.58279 0.1756 0.92454 0.0
H460 H 0.75029 0.19274 0.00728 0.0
H461 H 0.6361 0.33991 0.02844 0.0
H462 H 0.61621 0.28231 0.03179 0.0
H463 H 0.62542 0.30808 0.97901 0.0
C464 C 0.62384 0.13771 0.02317 0.0
C465 C 0.59735 0.13801 0.98433 0.0
C466 C 0.65554 0.17207 0.0315 0.0
C467 C 0.661 0.20774 0.00154 0.0
C468 C 0.6339 0.20867 0.96332 0.0
H469 H 0.89451 0.38019 0.96001 0.0
H470 H 0.83275 0.32522 0.95497 0.0
C471 C 0.60243 0.17426 0.95482 0.0
C472 C 0.69695 0.2424 0.00865 0.0
H473 H 0.7148 0.35609 0.01849 0.0
C474 C 0.74251 0.22842 0.01005 0.0
C475 C 0.6868 0.28894 0.01263 0.0
C476 C 0.63847 0.3058 0.01332 0.0
C477 C 0.77819 0.25976 0.01411 0.0
C478 C 0.76813 0.30645 0.01635 0.0
C479 C 0.72252 0.32036 0.01625 0.0
C480 C 0.80456 0.34124 0.01875 0.0
C481 C 0.82642 0.2426 0.01621 0.0
C482 C 0.80849 0.36959 0.0557 0.0
C483 C 0.84376 0.40127 0.05869 0.0
C484 C 0.87564 0.40556 0.02456 0.0
C485 C 0.87075 0.3779 0.98701 0.0
C486 C 0.83559 0.34615 0.98416 0.0
H487 H 0.82782 0.20631 0.02531 0.0
H488 H 0.84228 0.24643 0.98336 0.0
H489 H 0.84689 0.26222 0.04043 0.0
H490 H 0.78476 0.36658 0.08266 0.0
H491 H 0.84629 0.42203 0.08802 0.0
H492 H 0.87955 0.59549 0.92629 0.0
H493 H 0.81766 0.64875 0.91079 0.0
H494 H 0.76965 0.63376 0.0438 0.0
H495 H 0.83121 0.58092 0.05966 0.0
H496 H 0.69915 0.63454 0.97525 0.0
H497 H 0.8196 0.77922 0.96423 0.0
H498 H 0.83051 0.73059 0.93029 0.0
H499 H 0.83562 0.72615 0.98904 0.0
C500 C 0.85546 0.60301 0.95207 0.0
C501 C 0.86076 0.58418 -0.0056 0.0
C502 C 0.82023 0.63369 0.9432 0.0
C503 C 0.78943 0.64579 0.97636 0.0
C504 C 0.79314 0.62513 0.01778 0.0
H505 H 0.57965 0.82415 0.05212 0.0
H506 H 0.6305 0.7614 0.03742 0.0
C507 C 0.82845 0.59487 0.02678 0.0
C508 C 0.75456 0.68148 0.96918 0.0
H509 H 0.74179 0.7959 0.961 0.0
C510 C 0.70843 0.66977 0.97155 0.0
C511 C 0.76665 0.72743 0.96403 0.0
C512 C 0.81573 0.74197 0.96195 0.0
C513 C 0.67415 0.70284 0.97015 0.0
C514 C 0.6863 0.74907 0.96753 0.0
C515 C 0.73237 0.76057 0.96308 0.0
C516 C 0.65245 0.78599 0.97393 0.0
C517 C 0.62522 0.68782 0.97188 0.0
C518 C 0.648 0.82149 0.94344 0.0
C519 C 0.61889 0.85805 0.95196 0.0
C520 C 0.59408 0.86004 -0.00856 0.0
C521 C 0.59802 0.8239 0.02131 0.0
C522 C 0.62692 0.78758 0.01278 0.0
H523 H 0.62098 0.65346 0.95769 0.0
H524 H 0.61426 0.68643 0.00676 0.0
H525 H 0.60257 0.71146 0.9538 0.0
H526 H 0.66764 0.82129 0.91339 0.0
H527 H 0.61706 0.88542 0.92839 0.0
loop_
_geom_bond_atom_site_label_1
_geom_bond_atom_site_label_2
_geom_bond_distance
_geom_bond_site_symmetry_2
_ccdc_geom_bond_type
Fe0 O1 1.906 . S
Fe0 O4 1.694 1_645 S
Fe0 O9 2.097 1_545 S
Fe0 O14 1.922 1_545 S
Fe0 O20 2.094 1_655 S
Fe0 O29 1.918 1_655 S
O1 Fe0 1.906 . S
O1 Fe3 1.715 . S
Fe2 O4 1.886 . S
Fe2 O5 1.715 . S
Fe2 O12 1.935 . S
Fe2 O13 2.077 . S
Fe2 O19 1.935 . S
Fe2 O28 2.077 . S
Fe3 O1 1.715 . S
Fe3 O6 1.886 . S
Fe3 O10 1.935 . S
Fe3 O15 2.077 . S
Fe3 O21 1.935 . S
Fe3 O25 2.077 . S
O4 Fe0 1.694 1_465 S
O4 Fe2 1.886 . S
O5 Fe2 1.715 . S
O5 Fe7 1.892 . S
O6 Fe3 1.886 . S
O6 Fe7 1.709 1_645 S
Fe7 O5 1.892 . S
Fe7 O6 1.709 1_465 S
Fe7 O11 2.089 1_455 S
Fe7 O16 1.937 1_455 S
Fe7 O18 2.077 1_565 S
Fe7 O26 1.923 1_565 S
C8 O20 1.381 1_655 S
C8 O21 1.421 . S
O9 Fe0 2.097 1_565 S
O9 C22 1.381 1_565 S
O10 Fe3 1.935 . S
O10 C22 1.421 . S
O11 Fe7 2.089 1_655 S
O11 C27 1.381 1_655 S
O12 Fe2 1.935 . S
O12 C27 1.421 . S
O13 Fe2 2.077 . S
O13 C17 1.381 . S
O14 Fe0 1.922 1_565 S
O14 C17 1.421 1_655 S
O15 Fe3 2.077 . S
O15 C23 1.381 . S
O16 Fe7 1.937 1_655 S
O16 C23 1.421 1_565 S
C17 O13 1.381 . S
C17 O14 1.421 1_455 S
O18 Fe7 2.077 1_545 S
O18 C30 1.381 1_545 S
O19 Fe2 1.935 . S
O19 C30 1.421 . S
O20 Fe0 2.094 1_455 S
O20 C8 1.381 1_455 S
O21 Fe3 1.935 . S
O21 C8 1.421 . S
C22 O9 1.381 1_545 S
C22 O10 1.421 . S
C23 O15 1.381 . S
C23 O16 1.421 1_545 S
C24 O25 1.381 . S
C24 O26 1.421 1_655 S
O25 Fe3 2.077 . S
O25 C24 1.381 . S
O26 Fe7 1.923 1_545 S
O26 C24 1.421 1_455 S
C27 O11 1.381 1_455 S
C27 O12 1.421 . S
O28 Fe2 2.077 . S
O28 C31 1.381 . S
O29 Fe0 1.918 1_455 S
O29 C31 1.421 1_545 S
C30 O18 1.381 1_565 S
C30 O19 1.421 . S
C31 O28 1.381 . S
C31 O29 1.421 1_565 S
Fe32 O33 1.906 . S
Fe32 O36 1.694 1_564 S
Fe32 O41 2.097 1_554 S
Fe32 O46 1.922 1_554 S
Fe32 O52 2.094 1_565 S
Fe32 O61 1.918 1_565 S
O33 Fe32 1.906 . S
O33 Fe35 1.715 . S
Fe34 O36 1.886 . S
Fe34 O37 1.715 . S
Fe34 O44 1.935 . S
Fe34 O45 2.077 . S
Fe34 O51 1.935 . S
Fe34 O60 2.077 . S
Fe35 O33 1.715 . S
Fe35 O38 1.886 . S
Fe35 O42 1.935 . S
Fe35 O47 2.077 . S
Fe35 O53 1.935 . S
Fe35 O57 2.077 . S
O36 Fe32 1.694 1_546 S
O36 Fe34 1.886 . S
O37 Fe34 1.715 . S
O37 Fe39 1.892 . S
O38 Fe35 1.886 . S
O38 Fe39 1.709 1_564 S
Fe39 O37 1.892 . S
Fe39 O38 1.709 1_546 S
Fe39 O43 2.089 1_545 S
Fe39 O48 1.937 1_545 S
Fe39 O50 2.077 1_556 S
Fe39 O58 1.923 1_556 S
C40 O52 1.381 1_565 S
C40 O53 1.421 . S
O41 Fe32 2.097 1_556 S
O41 C54 1.381 1_556 S
O42 Fe35 1.935 . S
O42 C54 1.421 . S
O43 Fe39 2.089 1_565 S
O43 C59 1.381 1_565 S
O44 Fe34 1.935 . S
O44 C59 1.421 . S
O45 Fe34 2.077 . S
O45 C49 1.381 . S
O46 Fe32 1.922 1_556 S
O46 C49 1.421 1_565 S
O47 Fe35 2.077 . S
O47 C55 1.381 . S
O48 Fe39 1.937 1_565 S
O48 C55 1.421 1_556 S
C49 O45 1.381 . S
C49 O46 1.421 1_545 S
O50 Fe39 2.077 1_554 S
O50 C62 1.381 1_554 S
O51 Fe34 1.935 . S
O51 C62 1.421 . S
O52 Fe32 2.094 1_545 S
O52 C40 1.381 1_545 S
O53 Fe35 1.935 . S
O53 C40 1.421 . S
C54 O41 1.381 1_554 S
C54 O42 1.421 . S
C55 O47 1.381 . S
C55 O48 1.421 1_554 S
C56 O57 1.381 . S
C56 O58 1.421 1_565 S
O57 Fe35 2.077 . S
O57 C56 1.381 . S
O58 Fe39 1.923 1_554 S
O58 C56 1.421 1_545 S
C59 O43 1.381 1_545 S
C59 O44 1.421 . S
O60 Fe34 2.077 . S
O60 C63 1.381 . S
O61 Fe32 1.918 1_545 S
O61 C63 1.421 1_554 S
C62 O50 1.381 1_556 S
C62 O51 1.421 . S
C63 O60 1.381 . S
C63 O61 1.421 1_556 S
Fe64 O65 1.906 . S
Fe64 O68 1.694 1_654 S
Fe64 O73 2.094 1_655 S
Fe64 O78 1.918 1_655 S
Fe64 O84 2.097 1_554 S
Fe64 O93 1.922 1_554 S
O65 Fe64 1.906 . S
O65 Fe67 1.715 . S
Fe66 O68 1.886 . S
Fe66 O69 1.715 . S
Fe66 O76 1.935 . S
Fe66 O77 2.077 . S
Fe66 O83 1.935 . S
Fe66 O92 2.077 . S
Fe67 O65 1.715 . S
Fe67 O70 1.886 . S
Fe67 O74 1.935 . S
Fe67 O79 2.077 . S
Fe67 O85 1.935 . S
Fe67 O89 2.077 . S
O68 Fe64 1.694 1_456 S
O68 Fe66 1.886 . S
O69 Fe66 1.715 . S
O69 Fe71 1.892 . S
O70 Fe67 1.886 . S
O70 Fe71 1.709 1_654 S
Fe71 O69 1.892 . S
Fe71 O70 1.709 1_456 S
Fe71 O75 2.077 1_556 S
Fe71 O80 1.923 1_556 S
Fe71 O82 2.089 1_455 S
Fe71 O90 1.937 1_455 S
C72 O84 1.381 1_554 S
C72 O85 1.421 . S
O73 Fe64 2.094 1_455 S
O73 C86 1.381 1_455 S
O74 Fe67 1.935 . S
O74 C86 1.421 . S
O75 Fe71 2.077 1_554 S
O75 C91 1.381 1_554 S
O76 Fe66 1.935 . S
O76 C91 1.421 . S
O77 Fe66 2.077 . S
O77 C81 1.381 . S
O78 Fe64 1.918 1_455 S
O78 C81 1.421 1_554 S
O79 Fe67 2.077 . S
O79 C87 1.381 . S
O80 Fe71 1.923 1_554 S
O80 C87 1.421 1_455 S
C81 O77 1.381 . S
C81 O78 1.421 1_556 S
O82 Fe71 2.089 1_655 S
O82 C94 1.381 1_655 S
O83 Fe66 1.935 . S
O83 C94 1.421 . S
O84 Fe64 2.097 1_556 S
O84 C72 1.381 1_556 S
O85 Fe67 1.935 . S
O85 C72 1.421 . S
C86 O73 1.381 1_655 S
C86 O74 1.421 . S
C87 O79 1.381 . S
C87 O80 1.421 1_655 S
C88 O89 1.381 . S
C88 O90 1.421 1_554 S
O89 Fe67 2.077 . S
O89 C88 1.381 . S
O90 Fe71 1.937 1_655 S
O90 C88 1.421 1_556 S
C91 O75 1.381 1_556 S
C91 O76 1.421 . S
O92 Fe66 2.077 . S
O92 C95 1.381 . S
O93 Fe64 1.922 1_556 S
O93 C95 1.421 1_655 S
C94 O82 1.381 1_455 S
C94 O83 1.421 . S
C95 O92 1.381 . S
C95 O93 1.421 1_455 S
H96 C104 0.929 . S
H97 C106 0.930 . S
H98 C108 0.930 . S
H99 C111 0.929 . S
H100 C114 0.930 . S
H101 C116 0.960 . S
H102 C116 0.960 . S
H103 C116 0.960 . S
C104 H96 0.929 . S
C104 C105 1.377 . S
C104 C106 1.384 . S
C105 C104 1.377 . S
C105 C111 1.390 1_655 S
C106 H97 0.930 . S
C106 C104 1.384 . S
C106 C107 1.372 . S
C107 C106 1.372 . S
C107 C108 1.400 1_655 S
C107 C112 1.490 . S
C108 H98 0.930 . S
C108 C107 1.400 1_455 S
C108 C111 1.386 . S
H109 C125 0.930 . S
H110 C126 0.931 . S
C111 H99 0.929 . S
C111 C105 1.390 1_455 S
C111 C108 1.386 . S
C112 C107 1.490 . S
C112 C114 1.395 . S
C112 C115 1.403 1_655 S
H113 C119 0.930 . S
C114 H100 0.930 . S
C114 C112 1.395 . S
C114 C117 1.403 . S
C115 C112 1.403 1_455 S
C115 C116 1.524 . S
C115 C119 1.400 . S
C116 H101 0.960 . S
C116 H102 0.960 . S
C116 H103 0.960 . S
C116 C115 1.524 . S
C117 C114 1.403 . S
C117 C118 1.392 . S
C117 C121 1.495 . S
C118 C117 1.392 . S
C118 C119 1.385 1_655 S
C118 C120 1.478 . S
C119 H113 0.930 . S
C119 C115 1.400 . S
C119 C118 1.385 1_455 S
C120 C118 1.478 . S
C120 C122 1.381 . S
C120 C126 1.383 1_655 S
C121 C117 1.495 . S
C121 H127 0.959 . S
C121 H128 0.961 . S
C121 H129 0.960 . S
C122 C120 1.381 . S
C122 C123 1.394 . S
C122 H130 0.930 . S
C123 C122 1.394 . S
C123 C124 1.383 . S
C123 H131 0.929 . S
C124 C123 1.383 . S
C124 C125 1.377 1_655 S
C125 H109 0.930 . S
C125 C124 1.377 1_455 S
C125 C126 1.379 . S
C126 H110 0.931 . S
C126 C120 1.383 1_455 S
C126 C125 1.379 . S
H127 C121 0.959 . S
H128 C121 0.961 . S
H129 C121 0.960 . S
H130 C122 0.930 . S
H131 C123 0.929 . S
H132 C140 0.929 . S
H133 C142 0.930 . S
H134 C144 0.930 . S
H135 C147 0.929 . S
H136 C150 0.930 . S
H137 C152 0.960 . S
H138 C152 0.960 . S
H139 C152 0.960 . S
C140 H132 0.929 . S
C140 C141 1.376 1_565 S
C140 C142 1.384 . S
C141 C140 1.376 1_545 S
C141 C147 1.391 . S
C142 H133 0.930 . S
C142 C140 1.384 . S
C142 C143 1.372 . S
C143 C142 1.372 . S
C143 C144 1.400 1_565 S
C143 C148 1.490 . S
C144 H134 0.930 . S
C144 C143 1.400 1_545 S
C144 C147 1.386 . S
H145 C161 0.930 . S
H146 C162 0.931 . S
C147 H135 0.929 . S
C147 C141 1.391 . S
C147 C144 1.386 . S
C148 C143 1.490 . S
C148 C150 1.387 1_565 S
C148 C151 1.410 . S
H149 C155 0.930 . S
C150 H136 0.930 . S
C150 C148 1.387 1_545 S
C150 C153 1.403 . S
C151 C148 1.410 . S
C151 C152 1.524 . S
C151 C155 1.400 . S
C152 H137 0.960 . S
C152 H138 0.960 . S
C152 H139 0.960 . S
C152 C151 1.524 . S
C153 C150 1.403 . S
C153 C154 1.392 . S
C153 C157 1.495 . S
C154 C153 1.392 . S
C154 C155 1.385 1_545 S
C154 C156 1.478 . S
C155 H149 0.930 . S
C155 C151 1.400 . S
C155 C154 1.385 1_565 S
C156 C154 1.478 . S
C156 C158 1.381 1_545 S
C156 C162 1.383 . S
C157 C153 1.495 . S
C157 H163 0.959 . S
C157 H164 0.961 . S
C157 H165 0.960 . S
C158 C156 1.381 1_565 S
C158 C159 1.394 . S
C158 H166 0.930 . S
C159 C158 1.394 . S
C159 C160 1.383 1_565 S
C159 H167 0.929 . S
C160 C159 1.383 1_545 S
C160 C161 1.377 . S
C161 H145 0.930 . S
C161 C160 1.377 . S
C161 C162 1.379 . S
C162 H146 0.931 . S
C162 C156 1.383 . S
C162 C161 1.379 . S
H163 C157 0.959 . S
H164 C157 0.961 . S
H165 C157 0.960 . S
H166 C158 0.930 . S
H167 C159 0.929 . S
H168 C176 0.929 . S
H169 C178 0.930 . S
H170 C180 0.930 . S
H171 C183 0.929 . S
H172 C186 0.930 . S
H173 C188 0.960 . S
H174 C188 0.960 . S
H175 C188 0.960 . S
C176 H168 0.929 . S
C176 C177 1.377 . S
C176 C178 1.384 . S
C177 C176 1.377 . S
C177 C183 1.390 1_455 S
C178 H169 0.930 . S
C178 C176 1.384 . S
C178 C179 1.372 . S
C179 C178 1.372 . S
C179 C180 1.400 1_455 S
C179 C184 1.490 . S
C180 H170 0.930 . S
C180 C179 1.400 1_655 S
C180 C183 1.386 . S
H181 C197 0.930 . S
H182 C198 0.931 . S
C183 H171 0.929 . S
C183 C177 1.390 1_655 S
C183 C180 1.386 . S
C184 C179 1.490 . S
C184 C186 1.395 . S
C184 C187 1.403 1_455 S
H185 C191 0.930 . S
C186 H172 0.930 . S
C186 C184 1.395 . S
C186 C189 1.403 . S
C187 C184 1.403 1_655 S
C187 C188 1.524 . S
C187 C191 1.400 . S
C188 H173 0.960 . S
C188 H174 0.960 . S
C188 H175 0.960 . S
C188 C187 1.524 . S
C189 C186 1.403 . S
C189 C190 1.392 . S
C189 C193 1.495 . S
C190 C189 1.392 . S
C190 C191 1.385 1_455 S
C190 C192 1.478 . S
C191 H185 0.930 . S
C191 C187 1.400 . S
C191 C190 1.385 1_655 S
C192 C190 1.478 . S
C192 C194 1.381 . S
C192 C198 1.383 1_455 S
C193 C189 1.495 . S
C193 H199 0.959 . S
C193 H200 0.961 . S
C193 H201 0.960 . S
C194 C192 1.381 . S
C194 C195 1.394 . S
C194 H202 0.930 . S
C195 C194 1.394 . S
C195 C196 1.383 . S
C195 H203 0.929 . S
C196 C195 1.383 . S
C196 C197 1.377 1_455 S
C197 H181 0.930 . S
C197 C196 1.377 1_655 S
C197 C198 1.379 . S
C198 H182 0.931 . S
C198 C192 1.383 1_655 S
C198 C197 1.379 . S
H199 C193 0.959 . S
H200 C193 0.961 . S
H201 C193 0.960 . S
H202 C194 0.930 . S
H203 C195 0.929 . S
H204 C212 0.929 . S
H205 C214 0.930 . S
H206 C216 0.930 . S
H207 C219 0.929 . S
H208 C222 0.930 . S
H209 C224 0.960 . S
H210 C224 0.960 1_545 S
H211 C224 0.960 . S
C212 H204 0.929 . S
C212 C213 1.368 1_545 S
C212 C214 1.384 . S
C213 C212 1.368 1_565 S
C213 C219 1.399 . S
C214 H205 0.930 . S
C214 C212 1.384 . S
C214 C215 1.372 . S
C215 C214 1.372 . S
C215 C216 1.400 1_545 S
C215 C220 1.490 . S
C216 H206 0.930 . S
C216 C215 1.400 1_565 S
C216 C219 1.386 . S
H217 C233 0.930 . S
H218 C234 0.931 . S
C219 H207 0.929 . S
C219 C213 1.399 . S
C219 C216 1.386 . S
C220 C215 1.490 . S
C220 C222 1.395 . S
C220 C223 1.403 1_545 S
H221 C227 0.930 . S
C222 H208 0.930 . S
C222 C220 1.395 . S
C222 C225 1.403 . S
C223 C220 1.403 1_565 S
C223 C224 1.524 . S
C223 C227 1.400 . S
C224 H209 0.960 . S
C224 H210 0.960 1_565 S
C224 H211 0.960 . S
C224 C223 1.524 . S
C225 C222 1.403 . S
C225 C226 1.392 . S
C225 C229 1.495 . S
C226 C225 1.392 . S
C226 C227 1.385 1_545 S
C226 C228 1.478 . S
C227 H221 0.930 . S
C227 C223 1.400 . S
C227 C226 1.385 1_565 S
C228 C226 1.478 . S
C228 C230 1.399 . S
C228 C234 1.365 1_545 S
C229 C225 1.495 . S
C229 H235 0.959 . S
C229 H236 0.961 1_545 S
C229 H237 0.960 . S
C230 C228 1.399 . S
C230 C231 1.394 . S
C230 H238 0.930 . S
C231 C230 1.394 . S
C231 C232 1.367 1_545 S
C231 H239 0.929 . S
C232 C231 1.367 1_565 S
C232 C233 1.393 . S
C233 H217 0.930 . S
C233 C232 1.393 . S
C233 C234 1.379 . S
C234 H218 0.931 . S
C234 C228 1.365 1_565 S
C234 C233 1.379 . S
H235 C229 0.959 . S
H236 C229 0.961 1_565 S
H237 C229 0.960 . S
H238 C230 0.930 . S
H239 C231 0.929 . S
H240 C248 0.929 . S
H241 C250 0.930 . S
H242 C252 0.930 . S
H243 C255 0.929 . S
H244 C258 0.930 . S
H245 C260 0.960 . S
H246 C260 0.960 . S
H247 C260 0.960 . S
C248 H240 0.929 . S
C248 C249 1.377 . S
C248 C250 1.384 . S
C249 C248 1.377 . S
C249 C255 1.390 1_455 S
C250 H241 0.930 . S
C250 C248 1.384 . S
C250 C251 1.372 . S
C251 C250 1.372 . S
C251 C252 1.400 1_455 S
C251 C256 1.490 . S
C252 H242 0.930 . S
C252 C251 1.400 1_655 S
C252 C255 1.386 . S
H253 C269 0.930 . S
H254 C270 0.931 . S
C255 H243 0.929 . S
C255 C249 1.390 1_655 S
C255 C252 1.386 . S
C256 C251 1.490 . S
C256 C258 1.395 . S
C256 C259 1.403 1_455 S
H257 C263 0.930 . S
C258 H244 0.930 . S
C258 C256 1.395 . S
C258 C261 1.403 . S
C259 C256 1.403 1_655 S
C259 C260 1.524 . S
C259 C263 1.400 . S
C260 H245 0.960 . S
C260 H246 0.960 . S
C260 H247 0.960 . S
C260 C259 1.524 . S
C261 C258 1.403 . S
C261 C262 1.392 . S
C261 C265 1.495 . S
C262 C261 1.392 . S
C262 C263 1.385 1_455 S
C262 C264 1.478 . S
C263 H257 0.930 . S
C263 C259 1.400 . S
C263 C262 1.385 1_655 S
C264 C262 1.478 . S
C264 C266 1.381 . S
C264 C270 1.383 1_455 S
C265 C261 1.495 . S
C265 H271 0.959 . S
C265 H272 0.961 . S
C265 H273 0.960 . S
C266 C264 1.381 . S
C266 C267 1.394 . S
C266 H274 0.930 . S
C267 C266 1.394 . S
C267 C268 1.383 . S
C267 H275 0.929 . S
C268 C267 1.383 . S
C268 C269 1.377 1_455 S
C269 H253 0.930 . S
C269 C268 1.377 1_655 S
C269 C270 1.379 . S
C270 H254 0.931 . S
C270 C264 1.383 1_655 S
C270 C269 1.379 . S
H271 C265 0.959 . S
H272 C265 0.961 . S
H273 C265 0.960 . S
H274 C266 0.930 . S
H275 C267 0.929 . S
H276 C284 0.929 . S
H277 C286 0.930 . S
H278 C288 0.930 . S
H279 C291 0.929 . S
H280 C294 0.930 . S
H281 C296 0.960 . S
H282 C296 0.960 1_545 S
H283 C296 0.960 . S
C284 H276 0.929 . S
C284 C285 1.377 . S
C284 C286 1.384 . S
C285 C284 1.377 . S
C285 C291 1.390 1_545 S
C286 H277 0.930 . S
C286 C284 1.384 . S
C286 C287 1.372 . S
C287 C286 1.372 . S
C287 C288 1.400 1_545 S
C287 C292 1.490 . S
C288 H278 0.930 . S
C288 C287 1.400 1_565 S
C288 C291 1.386 . S
H289 C305 0.930 . S
H290 C306 0.931 . S
C291 H279 0.929 . S
C291 C285 1.390 1_565 S
C291 C288 1.386 . S
C292 C287 1.490 . S
C292 C294 1.395 . S
C292 C295 1.403 1_545 S
H293 C299 0.930 . S
C294 H280 0.930 . S
C294 C292 1.395 . S
C294 C297 1.403 . S
C295 C292 1.403 1_565 S
C295 C296 1.524 . S
C295 C299 1.400 . S
C296 H281 0.960 . S
C296 H282 0.960 1_565 S
C296 H283 0.960 . S
C296 C295 1.524 . S
C297 C294 1.403 . S
C297 C298 1.392 . S
C297 C301 1.495 . S
C298 C297 1.392 . S
C298 C299 1.385 1_545 S
C298 C300 1.478 . S
C299 H293 0.930 . S
C299 C295 1.400 . S
C299 C298 1.385 1_565 S
C300 C298 1.478 . S
C300 C302 1.381 . S
C300 C306 1.383 1_545 S
C301 C297 1.495 . S
C301 H307 0.959 . S
C301 H308 0.961 1_545 S
C301 H309 0.960 . S
C302 C300 1.381 . S
C302 C303 1.394 . S
C302 H310 0.930 . S
C303 C302 1.394 . S
C303 C304 1.379 1_545 S
C303 H311 0.929 . S
C304 C303 1.379 1_565 S
C304 C305 1.381 . S
C305 H289 0.930 . S
C305 C304 1.381 . S
C305 C306 1.379 . S
C306 H290 0.931 . S
C306 C300 1.383 1_565 S
C306 C305 1.379 . S
H307 C301 0.959 . S
H308 C301 0.961 1_565 S
H309 C301 0.960 . S
H310 C302 0.930 . S
H311 C303 0.929 . S
H312 C320 0.929 . S
H313 C322 0.930 . S
H314 C324 0.930 . S
H315 C327 0.929 . S
H316 C330 0.930 . S
H317 C332 0.960 . S
H318 C332 0.960 . S
H319 C332 0.960 . S
C320 H312 0.929 . S
C320 C321 1.376 1_655 S
C320 C322 1.384 . S
C321 C320 1.376 1_455 S
C321 C327 1.391 . S
C322 H313 0.930 . S
C322 C320 1.384 . S
C322 C323 1.374 . S
C323 C322 1.374 . S
C323 C324 1.398 1_655 S
C323 C328 1.489 1_655 S
C324 H314 0.930 . S
C324 C323 1.398 1_455 S
C324 C327 1.386 . S
H325 C341 0.930 . S
H326 C342 0.931 . S
C327 H315 0.929 . S
C327 C321 1.391 . S
C327 C324 1.386 . S
C328 C323 1.489 1_455 S
C328 C330 1.403 . S
C328 C331 1.395 1_455 S
H329 C335 0.930 . S
C330 H316 0.930 . S
C330 C328 1.403 . S
C330 C333 1.403 . S
C331 C328 1.395 1_655 S
C331 C332 1.524 . S
C331 C335 1.400 . S
C332 H317 0.960 . S
C332 H318 0.960 . S
C332 H319 0.960 . S
C332 C331 1.524 . S
C333 C330 1.403 . S
C333 C334 1.392 . S
C333 C337 1.495 . S
C334 C333 1.392 . S
C334 C335 1.385 1_455 S
C334 C336 1.478 . S
C335 H329 0.930 . S
C335 C331 1.400 . S
C335 C334 1.385 1_655 S
C336 C334 1.478 . S
C336 C338 1.381 1_455 S
C336 C342 1.383 . S
C337 C333 1.495 . S
C337 H343 0.959 . S
C337 H344 0.961 . S
C337 H345 0.960 . S
C338 C336 1.381 1_655 S
C338 C339 1.394 . S
C338 H346 0.930 . S
C339 C338 1.394 . S
C339 C340 1.383 1_655 S
C339 H347 0.929 . S
C340 C339 1.383 1_455 S
C340 C341 1.377 . S
C341 H325 0.930 . S
C341 C340 1.377 . S
C341 C342 1.379 . S
C342 H326 0.931 . S
C342 C336 1.383 . S
C342 C341 1.379 . S
H343 C337 0.959 . S
H344 C337 0.961 . S
H345 C337 0.960 . S
H346 C338 0.930 . S
H347 C339 0.929 . S
H348 C356 0.929 . S
H349 C358 0.930 . S
H350 C360 0.930 . S
H351 C363 0.929 . S
H352 C366 0.930 . S
H353 C368 0.960 . S
H354 C368 0.960 . S
H355 C368 0.960 . S
C356 H348 0.929 . S
C356 C357 1.377 1_565 S
C356 C358 1.384 . S
C357 C356 1.377 1_545 S
C357 C363 1.390 . S
C358 H349 0.930 . S
C358 C356 1.384 . S
C358 C359 1.365 1_565 S
C359 C358 1.365 1_545 S
C359 C360 1.407 . S
C359 C364 1.489 1_545 S
C360 H350 0.930 . S
C360 C359 1.407 . S
C360 C363 1.386 . S
H361 C377 0.930 . S
H362 C378 0.931 . S
C363 H351 0.929 . S
C363 C357 1.390 . S
C363 C360 1.386 . S
C364 C359 1.489 1_565 S
C364 C366 1.410 . S
C364 C367 1.388 1_565 S
H365 C371 0.930 . S
C366 H352 0.930 . S
C366 C364 1.410 . S
C366 C369 1.403 . S
C367 C364 1.388 1_545 S
C367 C368 1.524 . S
C367 C371 1.400 . S
C368 H353 0.960 . S
C368 H354 0.960 . S
C368 H355 0.960 . S
C368 C367 1.524 . S
C369 C366 1.403 . S
C369 C370 1.392 . S
C369 C373 1.495 . S
C370 C369 1.392 . S
C370 C371 1.385 1_565 S
C370 C372 1.478 . S
C371 H365 0.930 . S
C371 C367 1.400 . S
C371 C370 1.385 1_545 S
C372 C370 1.478 . S
C372 C374 1.381 . S
C372 C378 1.383 1_565 S
C373 C369 1.495 . S
C373 H379 0.959 . S
C373 H380 0.961 . S
C373 H381 0.960 . S
C374 C372 1.381 . S
C374 C375 1.394 . S
C374 H382 0.930 . S
C375 C374 1.394 . S
C375 C376 1.383 . S
C375 H383 0.929 . S
C376 C375 1.383 . S
C376 C377 1.377 1_565 S
C377 H361 0.930 . S
C377 C376 1.377 1_545 S
C377 C378 1.379 . S
C378 H362 0.931 . S
C378 C372 1.383 1_545 S
C378 C377 1.379 . S
H379 C373 0.959 . S
H380 C373 0.961 . S
H381 C373 0.960 . S
H382 C374 0.930 . S
H383 C375 0.929 . S
H384 C392 0.929 . S
H385 C394 0.930 . S
H386 C396 0.930 . S
H387 C399 0.929 . S
H388 C402 0.930 . S
H389 C404 0.960 . S
H390 C404 0.960 . S
H391 C404 0.960 . S
C392 H384 0.929 . S
C392 C393 1.377 1_554 S
C392 C394 1.384 . S
C393 C392 1.377 1_556 S
C393 C399 1.390 . S
C394 H385 0.930 . S
C394 C392 1.384 . S
C394 C395 1.378 . S
C395 C394 1.378 . S
C395 C396 1.394 1_554 S
C395 C400 1.490 . S
C396 H386 0.930 . S
C396 C395 1.394 1_556 S
C396 C399 1.386 . S
H397 C413 0.930 . S
H398 C414 0.931 . S
C399 H387 0.929 . S
C399 C393 1.390 . S
C399 C396 1.386 . S
C400 C395 1.490 . S
C400 C402 1.395 . S
C400 C403 1.403 1_554 S
H401 C407 0.930 . S
C402 H388 0.930 . S
C402 C400 1.395 . S
C402 C405 1.403 . S
C403 C400 1.403 1_556 S
C403 C404 1.524 . S
C403 C407 1.400 . S
C404 H389 0.960 . S
C404 H390 0.960 . S
C404 H391 0.960 . S
C404 C403 1.524 . S
C405 C402 1.403 . S
C405 C406 1.392 . S
C405 C409 1.495 . S
C406 C405 1.392 . S
C406 C407 1.385 1_554 S
C406 C408 1.478 . S
C407 H401 0.930 . S
C407 C403 1.400 . S
C407 C406 1.385 1_556 S
C408 C406 1.478 . S
C408 C410 1.381 . S
C408 C414 1.383 1_554 S
C409 C405 1.495 . S
C409 H415 0.959 . S
C409 H416 0.961 . S
C409 H417 0.960 . S
C410 C408 1.381 . S
C410 C411 1.394 . S
C410 H418 0.930 . S
C411 C410 1.394 . S
C411 C412 1.383 . S
C411 H419 0.929 . S
C412 C411 1.383 . S
C412 C413 1.377 1_554 S
C413 H397 0.930 . S
C413 C412 1.377 1_556 S
C413 C414 1.379 . S
C414 H398 0.931 . S
C414 C408 1.383 1_556 S
C414 C413 1.379 . S
H415 C409 0.959 . S
H416 C409 0.961 . S
H417 C409 0.960 . S
H418 C410 0.930 . S
H419 C411 0.929 . S
H420 C428 0.929 . S
H421 C430 0.930 . S
H422 C432 0.930 . S
H423 C435 0.929 . S
H424 C438 0.930 . S
H425 C440 0.960 . S
H426 C440 0.960 . S
H427 C440 0.960 . S
C428 H420 0.929 . S
C428 C429 1.379 1_554 S
C428 C430 1.384 . S
C429 C428 1.379 1_556 S
C429 C435 1.388 . S
C430 H421 0.930 . S
C430 C428 1.384 . S
C430 C431 1.372 . S
C431 C430 1.372 . S
C431 C432 1.400 1_554 S
C431 C436 1.490 . S
C432 H422 0.930 . S
C432 C431 1.400 1_556 S
C432 C435 1.386 . S
H433 C449 0.930 . S
H434 C450 0.931 . S
C435 H423 0.929 . S
C435 C429 1.388 . S
C435 C432 1.386 . S
C436 C431 1.490 . S
C436 C438 1.395 1_554 S
C436 C439 1.403 . S
H437 C443 0.930 . S
C438 H424 0.930 . S
C438 C436 1.395 1_556 S
C438 C441 1.403 . S
C439 C436 1.403 . S
C439 C440 1.524 . S
C439 C443 1.400 . S
C440 H425 0.960 . S
C440 H426 0.960 . S
C440 H427 0.960 . S
C440 C439 1.524 . S
C441 C438 1.403 . S
C441 C442 1.398 . S
C441 C445 1.495 . S
C442 C441 1.398 . S
C442 C443 1.379 1_556 S
C442 C444 1.478 . S
C443 H437 0.930 . S
C443 C439 1.400 . S
C443 C442 1.379 1_554 S
C444 C442 1.478 . S
C444 C446 1.381 1_556 S
C444 C450 1.383 . S
C445 C441 1.495 . S
C445 H451 0.959 . S
C445 H452 0.961 . S
C445 H453 0.979 . S
C446 C444 1.381 1_554 S
C446 C447 1.394 . S
C446 H454 0.930 . S
C447 C446 1.394 . S
C447 C448 1.379 1_554 S
C447 H455 0.929 . S
C448 C447 1.379 1_556 S
C448 C449 1.382 . S
C449 H433 0.930 . S
C449 C448 1.382 . S
C449 C450 1.379 . S
C450 H434 0.931 . S
C450 C444 1.383 . S
C450 C449 1.379 . S
H451 C445 0.959 . S
H452 C445 0.961 . S
H453 C445 0.979 . S
H454 C446 0.930 . S
H455 C447 0.929 . S
H456 C464 0.929 . S
H457 C466 0.930 . S
H458 C468 0.930 . S
H459 C471 0.929 . S
H460 C474 0.930 . S
H461 C476 0.960 . S
H462 C476 0.960 1_554 S
H463 C476 0.960 . S
C464 H456 0.929 . S
C464 C465 1.375 1_554 S
C464 C466 1.384 . S
C465 C464 1.375 1_556 S
C465 C471 1.392 . S
C466 H457 0.930 . S
C466 C464 1.384 . S
C466 C467 1.372 . S
C467 C466 1.372 . S
C467 C468 1.400 1_554 S
C467 C472 1.490 . S
C468 H458 0.930 . S
C468 C467 1.400 1_556 S
C468 C471 1.386 . S
H469 C485 0.930 . S
H470 C486 0.931 . S
C471 H459 0.929 . S
C471 C465 1.392 . S
C471 C468 1.386 . S
C472 C467 1.490 . S
C472 C474 1.395 . S
C472 C475 1.403 1_554 S
H473 C479 0.930 . S
C474 H460 0.930 . S
C474 C472 1.395 . S
C474 C477 1.403 . S
C475 C472 1.403 1_556 S
C475 C476 1.524 . S
C475 C479 1.400 . S
C476 H461 0.960 . S
C476 H462 0.960 1_556 S
C476 H463 0.960 . S
C476 C475 1.524 . S
C477 C474 1.403 . S
C477 C478 1.392 . S
C477 C481 1.495 . S
C478 C477 1.392 . S
C478 C479 1.385 1_554 S
C478 C480 1.478 . S
C479 H473 0.930 . S
C479 C475 1.400 . S
C479 C478 1.385 1_556 S
C480 C478 1.478 . S
C480 C482 1.381 . S
C480 C486 1.383 1_554 S
C481 C477 1.495 . S
C481 H487 0.959 . S
C481 H488 0.961 . S
C481 H489 0.960 . S
C482 C480 1.381 . S
C482 C483 1.394 . S
C482 H490 0.930 . S
C483 C482 1.394 . S
C483 C484 1.383 . S
C483 H491 0.929 . S
C484 C483 1.383 . S
C484 C485 1.377 1_554 S
C485 H469 0.930 . S
C485 C484 1.377 1_556 S
C485 C486 1.379 . S
C486 H470 0.931 . S
C486 C480 1.383 1_556 S
C486 C485 1.379 . S
H487 C481 0.959 . S
H488 C481 0.961 . S
H489 C481 0.960 . S
H490 C482 0.930 . S
H491 C483 0.929 . S
H492 C500 0.929 . S
H493 C502 0.930 . S
H494 C504 0.930 . S
H495 C507 0.929 . S
H496 C510 0.930 . S
H497 C512 0.960 . S
H498 C512 0.960 . S
H499 C512 0.960 1_554 S
C500 H492 0.929 . S
C500 C501 1.367 1_556 S
C500 C502 1.384 . S
C501 C500 1.367 1_554 S
C501 C507 1.400 . S
C502 H493 0.930 . S
C502 C500 1.384 . S
C502 C503 1.372 . S
C503 C502 1.372 . S
C503 C504 1.400 1_556 S
C503 C508 1.490 . S
C504 H494 0.930 . S
C504 C503 1.400 1_554 S
C504 C507 1.386 . S
H505 C521 0.930 . S
H506 C522 0.931 . S
C507 H495 0.929 . S
C507 C501 1.400 . S
C507 C504 1.386 . S
C508 C503 1.490 . S
C508 C510 1.393 1_556 S
C508 C511 1.405 . S
H509 C515 0.930 . S
C510 H496 0.930 . S
C510 C508 1.393 1_554 S
C510 C513 1.403 . S
C511 C508 1.405 . S
C511 C512 1.524 . S
C511 C515 1.400 . S
C512 H497 0.960 . S
C512 H498 0.960 . S
C512 H499 0.960 1_556 S
C512 C511 1.524 . S
C513 C510 1.403 . S
C513 C514 1.394 . S
C513 C517 1.495 . S
C514 C513 1.394 . S
C514 C515 1.383 1_554 S
C514 C516 1.478 . S
C515 H509 0.930 . S
C515 C511 1.400 . S
C515 C514 1.383 1_556 S
C516 C514 1.478 . S
C516 C518 1.381 1_554 S
C516 C522 1.383 . S
C517 C513 1.495 . S
C517 H523 0.959 . S
C517 H524 0.961 . S
C517 H525 0.960 1_554 S
C518 C516 1.381 1_556 S
C518 C519 1.394 . S
C518 H526 0.930 . S
C519 C518 1.394 . S
C519 C520 1.383 1_556 S
C519 H527 0.929 . S
C520 C519 1.383 1_554 S
C520 C521 1.377 . S
C521 H505 0.930 . S
C521 C520 1.377 . S
C521 C522 1.379 . S
C522 H506 0.931 . S
C522 C516 1.383 . S
C522 C521 1.379 . S
H523 C517 0.959 . S
H524 C517 0.961 . S
H525 C517 0.960 1_556 S
H526 C518 0.930 . S
H527 C519 0.929 . S
C105 C86 1.092 . S
C124 C8 1.057 . S
C141 C22 1.050 . S
C160 C56 1.075 1_545 S
C177 C17 1.027 . S
C196 C87 1.075 1_455 S
C213 C40 1.105 . S
C232 C31 1.056 . S
C249 C27 1.098 . S
C268 C94 1.057 . S
C285 C49 1.027 . S
C304 C30 1.067 . S
C321 C95 1.045 . S
C340 C24 1.074 1_455 S
C357 C59 1.086 . S
C376 C23 1.110 1_565 S
C393 C81 1.092 . S
C412 C63 1.092 1_554 S
C429 C91 1.048 . S
C448 C54 1.072 1_556 S
C465 C62 1.051 . S
C484 C72 1.012 . S
C501 C88 1.093 . S
C520 C55 1.114 . S
