# Generated by pormake.
# Topology snz, (6)-cn, num edge types: 1
# Building blocks:
#     Node 0, Type 0, BuildingBlock: GEDQOX_clean_sbu_0, # of connection points: 6
#     Node 1, Type 0, BuildingBlock: GEDQOX_clean_sbu_0, # of connection points: 6
#     Node 2, Type 0, BuildingBlock: GEDQOX_clean_sbu_0, # of connection points: 6
#     Node 3, Type 0, BuildingBlock: GEDQOX_clean_sbu_0, # of connection points: 6
#     Node 4, Type 0, BuildingBlock: GEDQOX_clean_sbu_0, # of connection points: 6
#     Node 5, Type 0, BuildingBlock: GEDQOX_clean_sbu_0, # of connection points: 6
#     Node 6, Type 0, BuildingBlock: GEDQOX_clean_sbu_0, # of connection points: 6
#     Node 7, Type 0, BuildingBlock: GEDQOX_clean_sbu_0, # of connection points: 6
#     Node 8, Type 0, BuildingBlock: GEDQOX_clean_sbu_0, # of connection points: 6
#     Edge 9, Type (0, 0), BuildingBlock: UVAHIK_clean_linker_0, # of connection points: 2
#     Edge 10, Type (0, 0), BuildingBlock: UVAHIK_clean_linker_0, # of connection points: 2
#     Edge 11, Type (0, 0), BuildingBlock: UVAHIK_clean_linker_0, # of connection points: 2
#     Edge 12, Type (0, 0), BuildingBlock: UVAHIK_clean_linker_0, # of connection points: 2
#     Edge 13, Type (0, 0), BuildingBlock: UVAHIK_clean_linker_0, # of connection points: 2
#     Edge 14, Type (0, 0), BuildingBlock: UVAHIK_clean_linker_0, # of connection points: 2
#     Edge 15, Type (0, 0), BuildingBlock: UVAHIK_clean_linker_0, # of connection points: 2
#     Edge 16, Type (0, 0), BuildingBlock: UVAHIK_clean_linker_0, # of connection points: 2
#     Edge 17, Type (0, 0), BuildingBlock: UVAHIK_clean_linker_0, # of connection points: 2
#     Edge 18, Type (0, 0), BuildingBlock: UVAHIK_clean_linker_0, # of connection points: 2
#     Edge 19, Type (0, 0), BuildingBlock: UVAHIK_clean_linker_0, # of connection points: 2
#     Edge 20, Type (0, 0), BuildingBlock: UVAHIK_clean_linker_0, # of connection points: 2
#     Edge 21, Type (0, 0), BuildingBlock: UVAHIK_clean_linker_0, # of connection points: 2
#     Edge 22, Type (0, 0), BuildingBlock: UVAHIK_clean_linker_0, # of connection points: 2
#     Edge 23, Type (0, 0), BuildingBlock: UVAHIK_clean_linker_0, # of connection points: 2
#     Edge 24, Type (0, 0), BuildingBlock: UVAHIK_clean_linker_0, # of connection points: 2
#     Edge 25, Type (0, 0), BuildingBlock: UVAHIK_clean_linker_0, # of connection points: 2
#     Edge 26, Type (0, 0), BuildingBlock: UVAHIK_clean_linker_0, # of connection points: 2
#     Edge 27, Type (0, 0), BuildingBlock: UVAHIK_clean_linker_0, # of connection points: 2
#     Edge 28, Type (0, 0), BuildingBlock: UVAHIK_clean_linker_0, # of connection points: 2
#     Edge 29, Type (0, 0), BuildingBlock: UVAHIK_clean_linker_0, # of connection points: 2
#     Edge 30, Type (0, 0), BuildingBlock: UVAHIK_clean_linker_0, # of connection points: 2
#     Edge 31, Type (0, 0), BuildingBlock: UVAHIK_clean_linker_0, # of connection points: 2
#     Edge 32, Type (0, 0), BuildingBlock: UVAHIK_clean_linker_0, # of connection points: 2
#     Edge 33, Type (0, 0), BuildingBlock: UVAHIK_clean_linker_0, # of connection points: 2
#     Edge 34, Type (0, 0), BuildingBlock: UVAHIK_clean_linker_0, # of connection points: 2
#     Edge 35, Type (0, 0), BuildingBlock: UVAHIK_clean_linker_0, # of connection points: 2
# Relax obj value: 0.195
# Max RMSD: 0.245
# Mean RMSD: 0.200
data_MOF--net-snz--node1-GEDQOX_clean_sbu_0--edge1-UVAHIK_clean_linker_0
_symmetry_space_group_name_H-M    P1
_symmetry_Int_Tables_number       1
_symmetry_cell_setting            triclinic
loop_
_symmetry_equiv_pos_as_xyz
'x, y, z'
_cell_length_a     72.616285
_cell_length_b     90.46913
_cell_length_c     18.913562
_cell_angle_alpha  88.748366
_cell_angle_beta   87.961992
_cell_angle_gamma 120.56664
loop_
_atom_site_label
_atom_site_type_symbol
_atom_site_fract_x
_atom_site_fract_y
_atom_site_fract_z
_atom_type_partial_charge
Nd0 Nd 0.1187 0.61576 0.90504 0.0
Nd1 Nd 0.16049 0.64896 0.90503 0.0
C2 C 0.08131 0.58658 0.91741 0.0
C3 C 0.07493 0.5683 0.91084 0.0
C4 C 0.08886 0.56243 0.9282 0.0
C5 C 0.08327 0.54539 0.91749 0.0
C6 C 0.06367 0.53379 0.88856 0.0
C7 C 0.0497 0.53974 0.87181 0.0
C8 C 0.05528 0.55678 0.88282 0.0
C9 C 0.14285 0.6241 0.77913 0.0
C10 C 0.16017 0.61298 0.93204 0.0
C11 C 0.20006 0.67591 0.89597 0.0
C12 C 0.21252 0.69323 0.92383 0.0
C13 C 0.20338 0.70342 0.93725 0.0
C14 C 0.21552 0.71958 0.96598 0.0
C15 C 0.23694 0.72577 0.9824 0.0
C16 C 0.24596 0.7155 0.96846 0.0
C17 C 0.23388 0.69943 0.9395 0.0
C18 C 0.13675 0.64043 0.03176 0.0
C19 C 0.11932 0.65222 0.87345 0.0
O20 O 0.09241 0.59438 0.97169 0.0
O21 O 0.08861 0.59617 0.85893 0.0
O22 O 0.13262 0.60882 0.8092 0.0
O23 O 0.1403 0.6344 0.81599 0.0
O24 O 0.13956 0.60585 0.94911 0.0
O25 O 0.17088 0.62855 0.90104 0.0
O26 O 0.18571 0.67332 0.85029 0.0
O27 O 0.19353 0.66304 0.94204 0.0
O28 O 0.14743 0.65586 0.00321 0.0
O29 O 0.13921 0.63024 -0.00615 0.0
O30 O 0.14029 0.65962 0.86292 0.0
O31 O 0.10765 0.636 0.8985 0.0
H32 H 0.10421 0.57108 0.94937 0.0
H33 H 0.09435 0.54131 0.93209 0.0
H34 H 0.03464 0.53135 0.84845 0.0
H35 H 0.04439 0.56105 0.86824 0.0
H36 H 0.18683 0.69882 0.9262 0.0
H37 H 0.20802 0.72709 0.97664 0.0
H38 H 0.26247 0.71994 0.97944 0.0
H39 H 0.24122 0.69177 0.92968 0.0
Nd40 Nd 0.62818 0.59593 0.9682 0.0
Nd41 Nd 0.62952 0.56403 0.00249 0.0
C42 C 0.63549 0.62666 0.92594 0.0
C43 C 0.65092 0.64409 0.94824 0.0
C44 C 0.66971 0.64734 0.98021 0.0
C45 C 0.68334 0.6634 0.00735 0.0
C46 C 0.67838 0.67655 0.00379 0.0
C47 C 0.65965 0.67329 0.9708 0.0
C48 C 0.64607 0.65722 0.94333 0.0
C49 C 0.62712 0.58894 0.11028 0.0
C50 C 0.67503 0.59863 0.9725 0.0
C51 C 0.62469 0.53416 0.04893 0.0
C52 C 0.61748 0.51692 0.02175 0.0
C53 C 0.61151 0.50292 0.06936 0.0
C54 C 0.6056 0.48667 0.04457 0.0
C55 C 0.60555 0.48403 0.97138 0.0
C56 C 0.61134 0.49812 0.92382 0.0
C57 C 0.61721 0.51437 0.94871 0.0
C58 C 0.63042 0.57078 0.86032 0.0
C59 C 0.5828 0.56256 -0.00038 0.0
O60 O 0.64345 0.61855 0.89199 0.0
O61 O 0.62062 0.61677 0.97392 0.0
O62 O 0.61642 0.59516 0.08223 0.0
O63 O 0.63902 0.58742 0.06471 0.0
O64 O 0.66351 0.60432 0.94294 0.0
O65 O 0.66549 0.58408 0.01158 0.0
O66 O 0.61019 0.53844 0.05999 0.0
O67 O 0.6425 0.54681 0.01997 0.0
O68 O 0.6406 0.56406 0.8881 0.0
O69 O 0.61867 0.57243 0.90601 0.0
O70 O 0.59407 0.55659 0.03025 0.0
O71 O 0.59257 0.57667 0.95812 0.0
H72 H 0.67361 0.63731 0.98579 0.0
H73 H 0.69742 0.66533 0.03321 0.0
H74 H 0.65544 0.68315 0.96643 0.0
H75 H 0.63156 0.65495 0.91946 0.0
H76 H 0.61157 0.50458 0.12593 0.0
H77 H 0.60092 0.47614 0.08294 0.0
H78 H 0.61177 0.49672 0.86718 0.0
H79 H 0.62181 0.52499 0.91089 0.0
Nd80 Nd 0.74484 0.12551 0.12866 0.0
Nd81 Nd 0.7448 0.09355 0.09322 0.0
C82 C 0.74058 0.15027 0.18476 0.0
C83 C 0.72818 0.15855 0.16889 0.0
C84 C 0.73527 0.17521 0.19076 0.0
C85 C 0.72532 0.18415 0.16836 0.0
C86 C 0.7081 0.17655 0.12358 0.0
C87 C 0.70058 0.15959 0.10372 0.0
C88 C 0.71061 0.15069 0.12594 0.0
C89 C 0.74188 0.12012 0.98611 0.0
C90 C 0.69842 0.08917 0.12954 0.0
C91 C 0.75253 0.06922 0.05086 0.0
C92 C 0.76097 0.05884 0.08249 0.0
C93 C 0.75648 0.04333 0.05309 0.0
C94 C 0.76511 0.03374 0.08054 0.0
C95 C 0.77853 0.03946 0.1381 0.0
C96 C 0.7827 0.05494 0.16809 0.0
C97 C 0.77399 0.06449 0.14071 0.0
C98 C 0.74736 0.0996 0.23542 0.0
C99 C 0.78867 0.13125 0.06665 0.0
O100 O 0.72985 0.13428 0.20912 0.0
O101 O 0.75543 0.15305 0.13659 0.0
O102 O 0.75119 0.13511 0.01269 0.0
O103 O 0.73245 0.10835 0.03392 0.0
O104 O 0.70963 0.10455 0.15547 0.0
O105 O 0.70813 0.08253 0.09257 0.0
O106 O 0.76608 0.08567 0.04082 0.0
O107 O 0.73373 0.06603 0.07507 0.0
O108 O 0.7368 0.0846 0.20996 0.0
O109 O 0.75751 0.11095 0.18679 0.0
O110 O 0.77637 0.11608 0.03998 0.0
O111 O 0.78095 0.13618 0.11913 0.0
H112 H 0.7489 0.18151 0.22352 0.0
H113 H 0.73131 0.1971 0.18526 0.0
H114 H 0.68752 0.15344 0.06866 0.0
H115 H 0.7051 0.1379 0.10773 0.0
H116 H 0.74641 0.03867 0.00838 0.0
H117 H 0.76115 0.02178 0.05666 0.0
H118 H 0.79311 0.05994 0.21177 0.0
H119 H 0.77768 0.07642 0.16444 0.0
Nd120 Nd 0.88449 0.91363 0.39947 0.0
Nd121 Nd 0.92713 0.94463 0.35804 0.0
C122 C 0.85085 0.88382 0.44613 0.0
C123 C 0.83816 0.86714 0.41339 0.0
C124 C 0.81951 0.85387 0.44853 0.0
C125 C 0.8069 0.83831 0.41592 0.0
C126 C 0.81269 0.83574 0.34732 0.0
C127 C 0.83159 0.84909 0.31274 0.0
C128 C 0.84416 0.86461 0.3454 0.0
C129 C 0.89275 0.91931 0.25608 0.0
C130 C 0.92795 0.9104 0.39466 0.0
C131 C 0.95884 0.97481 0.30585 0.0
C132 C 0.96432 0.9927 0.31747 0.0
C133 C 0.98384 1.00661 0.29007 0.0
C134 C 0.98958 0.02354 0.30469 0.0
C135 C 0.97591 0.02692 0.34725 0.0
C136 C 0.95618 1.01286 0.37368 0.0
C137 C 0.95051 0.99598 0.35916 0.0
C138 C 0.91917 0.93871 0.501 0.0
C139 C 0.88388 0.94816 0.37277 0.0
O140 O 0.87057 0.88843 0.45897 0.0
O141 O 0.84937 0.89647 0.41835 0.0
O142 O 0.87413 0.9135 0.28729 0.0
O143 O 0.90635 0.92091 0.29933 0.0
O144 O 0.909 0.90546 0.42611 0.0
O145 O 0.93767 0.92447 0.35245 0.0
O146 O 0.94142 0.96528 0.27256 0.0
O147 O 0.96047 0.96658 0.36053 0.0
O148 O 0.93775 0.94441 0.46925 0.0
O149 O 0.90539 0.93725 0.45849 0.0
O150 O 0.90284 0.95361 0.34071 0.0
O151 O 0.87448 0.9338 0.41265 0.0
H152 H 0.81454 0.85562 0.50083 0.0
H153 H 0.79236 0.82845 0.44387 0.0
H154 H 0.83675 0.84753 0.26044 0.0
H155 H 0.85851 0.87472 0.31732 0.0
H156 H 0.99483 1.00438 0.25827 0.0
H157 H 1.00499 0.03394 0.28405 0.0
H158 H 0.94505 1.01488 0.40564 0.0
H159 H 0.93541 0.98544 0.38129 0.0
Nd160 Nd 0.42449 1.00584 0.33415 0.0
Nd161 Nd 0.42161 0.97161 0.33305 0.0
C162 C 0.42068 0.03354 0.32371 0.0
C163 C 0.42946 0.05113 0.34935 0.0
C164 C 0.41533 0.05707 0.36423 0.0
C165 C 0.4228 0.07347 0.38965 0.0
C166 C 0.44467 0.08442 0.40083 0.0
C167 C 0.45889 0.07848 0.38531 0.0
C168 C 0.45135 0.06197 0.36006 0.0
C169 C 0.43584 0.99719 0.45869 0.0
C170 C 0.46893 1.00635 0.30437 0.0
C171 C 0.42129 0.94221 0.3376 0.0
C172 C 0.40683 0.92499 0.31054 0.0
C173 C 0.3975 0.91037 0.35684 0.0
C174 C 0.38328 0.8941 0.33225 0.0
C175 C 0.37821 0.8921 0.26062 0.0
C176 C 0.38765 0.90677 0.21433 0.0
C177 C 0.4017 0.92301 0.23899 0.0
C178 C 0.40978 0.98054 0.20958 0.0
C179 C 0.37763 0.97027 0.36795 0.0
O180 O 0.43254 0.0306 0.27922 0.0
O181 O 0.40975 0.02086 0.37035 0.0
O182 O 0.4452 1.01262 0.43023 0.0
O183 O 0.4205 0.98707 0.42279 0.0
O184 O 0.45894 1.01489 0.29187 0.0
O185 O 0.45827 0.99038 0.33166 0.0
O186 O 0.41349 0.94702 0.38973 0.0
O187 O 0.43268 0.95468 0.29034 0.0
O188 O 0.39991 0.96526 0.23939 0.0
O189 O 0.42549 0.99043 0.24446 0.0
O190 O 0.38853 0.96275 0.38318 0.0
O191 O 0.38753 0.98591 0.33687 0.0
H192 H 0.39839 0.04896 0.35623 0.0
H193 H 0.41141 0.07764 0.39987 0.0
H194 H 0.47579 0.08648 0.39388 0.0
H195 H 0.46257 0.05765 0.34939 0.0
H196 H 0.40112 0.91154 0.41222 0.0
H197 H 0.37644 0.88306 0.3692 0.0
H198 H 0.38387 0.90575 0.15912 0.0
H199 H 0.40839 0.93403 0.20195 0.0
Nd200 Nd 0.30408 0.46848 0.2037 0.0
Nd201 Nd 0.31022 0.43784 0.2016 0.0
C202 C 0.30249 0.49711 0.21435 0.0
C203 C 0.2896 0.50469 0.19067 0.0
C204 C 0.28245 0.51233 0.23991 0.0
C205 C 0.27143 0.52051 0.21815 0.0
C206 C 0.26734 0.52137 0.14631 0.0
C207 C 0.27426 0.51345 0.09723 0.0
C208 C 0.28519 0.50521 0.1191 0.0
C209 C 0.29376 0.45158 0.07906 0.0
C210 C 0.26251 0.43099 0.24164 0.0
C211 C 0.31021 0.40881 0.18664 0.0
C212 C 0.32286 0.40132 0.21106 0.0
C213 C 0.32506 0.38964 0.16937 0.0
C214 C 0.336 0.38168 0.19384 0.0
C215 C 0.34486 0.3852 0.26077 0.0
C216 C 0.34298 0.39724 0.30165 0.0
C217 C 0.33219 0.40527 0.2769 0.0
C218 C 0.32014 0.45437 0.32735 0.0
C219 C 0.35303 0.47433 0.17505 0.0
O220 O 0.29366 0.48442 0.26211 0.0
O221 O 0.31419 0.49503 0.16602 0.0
O222 O 0.28298 0.45785 0.10852 0.0
O223 O 0.30958 0.45475 0.11444 0.0
O224 O 0.27161 0.44742 0.25599 0.0
O225 O 0.27346 0.42537 0.20559 0.0
O226 O 0.31969 0.42179 0.14032 0.0
O227 O 0.29864 0.41088 0.23556 0.0
O228 O 0.3304 0.4475 0.29937 0.0
O229 O 0.30462 0.45153 0.29092 0.0
O230 O 0.34382 0.45794 0.16141 0.0
O231 O 0.34158 0.48096 0.20055 0.0
H232 H 0.28561 0.51213 0.29538 0.0
H233 H 0.26608 0.52613 0.25791 0.0
H234 H 0.2717 0.51397 0.0414 0.0
H235 H 0.29049 0.49946 0.07966 0.0
H236 H 0.31808 0.38652 0.11822 0.0
H237 H 0.33745 0.37273 0.16035 0.0
H238 H 0.34933 0.40013 0.35374 0.0
H239 H 0.33076 0.41432 0.3099 0.0
Nd240 Nd 0.50865 0.28065 0.6909 0.0
Nd241 Nd 0.5529 0.28849 0.68881 0.0
C242 C 0.46736 0.27014 0.69347 0.0
C243 C 0.45479 0.27661 0.65789 0.0
C244 C 0.4516 0.27489 0.5849 0.0
C245 C 0.4414 0.28242 0.55086 0.0
C246 C 0.43422 0.29191 0.58884 0.0
C247 C 0.43688 0.29318 0.66223 0.0
C248 C 0.44694 0.28554 0.69635 0.0
C249 C 0.53688 0.31512 0.70978 0.0
C250 C 0.53659 0.29858 0.54944 0.0
C251 C 0.59373 0.29754 0.68488 0.0
C252 C 0.60448 0.28879 0.71408 0.0
C253 C 0.62268 0.29787 0.75343 0.0
C254 C 0.63167 0.28927 0.78721 0.0
C255 C 0.62258 0.2714 0.78228 0.0
C256 C 0.60466 0.26245 0.74128 0.0
C257 C 0.59565 0.27101 0.70791 0.0
C258 C 0.52414 0.25413 0.66916 0.0
C259 C 0.52572 0.27249 0.8331 0.0
O260 O 0.47614 0.26348 0.65365 0.0
O261 O 0.48011 0.27991 0.74102 0.0
O262 O 0.52063 0.30921 0.67038 0.0
O263 O 0.53805 0.30288 0.73868 0.0
O264 O 0.51708 0.28757 0.57456 0.0
O265 O 0.55332 0.30311 0.58752 0.0
O266 O 0.58525 0.30309 0.73159 0.0
O267 O 0.5813 0.29023 0.63273 0.0
O268 O 0.54 0.25969 0.71006 0.0
O269 O 0.52362 0.2666 0.64006 0.0
O270 O 0.54509 0.28312 0.80605 0.0
O271 O 0.50883 0.26734 0.79525 0.0
H272 H 0.45732 0.268 0.5536 0.0
H273 H 0.43926 0.28088 0.49458 0.0
H274 H 0.43179 0.30052 0.69317 0.0
H275 H 0.4491 0.28705 0.75265 0.0
H276 H 0.62962 0.31154 0.75953 0.0
H277 H 0.64533 0.29654 0.81892 0.0
H278 H 0.59746 0.24876 0.73521 0.0
H279 H 0.58152 0.26361 0.67833 0.0
Nd280 Nd 0.03473 0.2673 0.63547 0.0
Nd281 Nd 1.01467 0.29266 0.6521 0.0
C282 C 0.05613 0.25194 0.59742 0.0
C283 C 0.05003 0.23432 0.57756 0.0
C284 C 0.06433 0.23153 0.53626 0.0
C285 C 0.05857 0.21491 0.51649 0.0
C286 C 0.03835 0.20067 0.53771 0.0
C287 C 1.02406 0.20359 0.57899 0.0
C288 C 1.02981 0.2202 0.59851 0.0
C289 C 0.99299 0.24909 0.69571 0.0
C290 C 1.00666 0.27087 0.51052 0.0
C291 C 0.99304 0.30794 0.68783 0.0
C292 C 0.99859 0.3257 0.70348 0.0
C293 C 0.98718 0.32844 0.75793 0.0
C294 C 0.99239 0.34516 0.774 0.0
C295 C 1.00918 0.35959 0.73585 0.0
C296 C 1.02059 0.35674 0.68126 0.0
C297 C 1.01542 0.34003 0.66544 0.0
C298 C 0.05691 0.31113 0.59646 0.0
C299 C 0.04214 0.28856 0.77755 0.0
O300 O 0.05166 0.2608 0.55272 0.0
O301 O 0.05195 0.25377 0.66362 0.0
O302 O 1.005 0.24259 0.6831 0.0
O303 O 1.00339 0.26473 0.67482 0.0
O304 O 1.02114 0.267 0.52886 0.0
O305 O 0.99952 0.27869 0.55186 0.0
O306 O 0.99845 0.30001 0.73409 0.0
O307 O 0.9964 0.30515 0.62215 0.0
O308 O 0.04502 0.31771 0.60953 0.0
O309 O 0.04612 0.29529 0.6139 0.0
O310 O 1.0271 0.29185 0.75988 0.0
O311 O 0.05008 0.28149 0.73506 0.0
H312 H 0.07999 0.24223 0.5193 0.0
H313 H 0.0701 0.21319 0.48535 0.0
H314 H 1.00825 0.19304 0.59545 0.0
H315 H 1.0184 0.222 0.62983 0.0
H316 H 0.97425 0.31762 0.78839 0.0
H317 H 0.98343 0.34676 0.81711 0.0
H318 H 0.03341 0.36743 0.64995 0.0
H319 H 1.02458 0.33833 0.62332 0.0
Nd320 Nd 0.04885 0.80128 0.63621 0.0
Nd321 Nd 1.00129 0.76471 0.65341 0.0
C322 C 0.08078 0.83326 0.60698 0.0
C323 C 0.10386 0.84361 0.58416 0.0
C324 C 0.11402 0.8616 0.58137 0.0
C325 C 0.13586 0.87183 0.56095 0.0
C326 C 0.1482 0.86435 0.54263 0.0
C327 C 0.13788 0.84622 0.54547 0.0
C328 C 0.11595 0.83597 0.56597 0.0
C329 C 0.05289 0.77322 0.67778 0.0
C330 C 0.03105 0.77482 0.50691 0.0
C331 C 0.96881 0.73312 0.68507 0.0
C332 C 0.94588 0.72349 0.71226 0.0
C333 C 0.94004 0.7228 0.78461 0.0
C334 C 0.91854 0.71272 0.80993 0.0
C335 C 0.90221 0.70296 0.76378 0.0
C336 C 0.90811 0.70383 0.69131 0.0
C337 C 0.92959 0.71388 0.66608 0.0
C338 C 0.99731 0.79277 0.61122 0.0
C339 C 1.01882 0.79122 0.78237 0.0
O340 O 0.06741 0.82365 0.5601 0.0
O341 O 0.07594 0.82582 0.67064 0.0
O342 O 0.06885 0.78887 0.66737 0.0
O343 O 0.03595 0.77334 0.6662 0.0
O344 O 0.04315 0.79082 0.52608 0.0
O345 O 1.01618 0.76219 0.54917 0.0
O346 O 0.98354 0.74224 0.7294 0.0
O347 O 0.97316 0.74045 0.62119 0.0
O348 O 0.98133 0.77716 0.62219 0.0
O349 O 1.01423 0.79264 0.62312 0.0
O350 O 1.00667 0.77524 0.76329 0.0
O351 O 0.03381 0.80378 0.74021 0.0
H352 H 0.10506 0.86779 0.59549 0.0
H353 H 0.14313 0.88566 0.56081 0.0
H354 H 0.14667 0.83992 0.53111 0.0
H355 H 0.10846 0.82211 0.56766 0.0
H356 H 0.95211 0.72985 0.8221 0.0
H357 H 0.91483 0.71227 0.86615 0.0
H358 H 0.89611 0.69678 0.65367 0.0
H359 H 0.93348 0.71396 0.61018 0.0
C360 C 0.15241 0.64267 0.6691 0.0
C361 C 0.14709 0.62682 0.70191 0.0
C362 C 0.15204 0.64428 0.59572 0.0
C363 C 0.15007 0.62348 0.42792 0.0
H364 H 0.11924 0.64572 0.36676 0.0
C365 C 0.12678 0.62134 0.14048 0.0
C366 C 0.13221 0.63732 0.10879 0.0
C367 C 0.12677 0.61938 0.21387 0.0
C368 C 0.12799 0.63957 0.38298 0.0
H369 H 0.13891 0.60064 0.68383 0.0
H370 H 0.13821 0.60343 0.55558 0.0
H371 H 0.12579 0.64469 0.4918 0.0
H372 H 0.14019 0.66338 0.12877 0.0
H373 H 0.14023 0.65999 0.25691 0.0
H374 H 0.15231 0.6184 0.31907 0.0
C375 C 0.14262 0.6146 0.5864 0.0
C376 C 0.13185 0.63906 0.45447 0.0
C377 C 0.14299 0.61299 0.65982 0.0
C378 C 0.13604 0.65093 0.1519 0.0
C379 C 0.13601 0.64897 0.22529 0.0
C380 C 0.14621 0.624 0.35641 0.0
C381 C 0.1464 0.63009 0.55392 0.0
C382 C 0.14299 0.63106 0.47764 0.0
C383 C 0.1321 0.63335 0.25677 0.0
C384 C 0.13515 0.63206 0.33319 0.0
H385 H 0.15581 0.65359 0.70036 0.0
H386 H 0.15549 0.65648 0.5719 0.0
H387 H 0.15884 0.61735 0.44416 0.0
H388 H 0.12359 0.61059 0.1084 0.0
H389 H 0.12323 0.60708 0.23687 0.0
C390 C 0.64463 0.57154 0.7388 0.0
C391 C 0.63057 0.57376 0.78397 0.0
C392 C 0.64461 0.57379 0.66589 0.0
C393 C 0.61019 0.572 0.52741 0.0
H394 H 0.66339 0.59624 0.41208 0.0
C395 C 0.64155 0.58203 0.21562 0.0
C396 C 0.62734 0.5864 0.18679 0.0
C397 C 0.64196 0.58028 0.28895 0.0
C398 C 0.64844 0.58926 0.44366 0.0
H399 H 0.60583 0.58044 0.78956 0.0
H400 H 0.60575 0.58439 0.661 0.0
H401 H 0.66441 0.59469 0.54078 0.0
H402 H 0.60216 0.59205 0.21069 0.0
H403 H 0.60298 0.58911 0.3384 0.0
H404 H 0.59421 0.56652 0.43038 0.0
C405 C 0.61663 0.58076 0.68223 0.0
C406 C 0.64902 0.58844 0.5171 0.0
C407 C 0.61672 0.57857 0.75546 0.0
C408 C 0.61331 0.5887 0.23181 0.0
C409 C 0.61367 0.58691 0.3048 0.0
C410 C 0.60961 0.57281 0.454 0.0
C411 C 0.63051 0.57828 0.63695 0.0
C412 C 0.6299 0.57979 0.55951 0.0
C413 C 0.62806 0.58278 0.33405 0.0
C414 C 0.62873 0.58145 0.41155 0.0
H415 H 0.65553 0.5679 0.75972 0.0
H416 H 0.65529 0.57163 0.63209 0.0
H417 H 0.59525 0.565 0.55897 0.0
H418 H 0.65245 0.58014 0.18165 0.0
H419 H 0.65305 0.57692 0.31039 0.0
C420 C 0.75281 0.13211 0.86247 0.0
C421 C 0.74182 0.11765 0.90937 0.0
C422 C 0.75358 0.13021 0.78971 0.0
C423 C 0.74816 0.09927 0.6573 0.0
H424 H 0.74204 0.1303 0.52852 0.0
C425 C 0.73751 0.08813 0.35992 0.0
C426 C 0.74825 0.10239 0.31197 0.0
C427 C 0.73751 0.09032 0.43258 0.0
C428 C 0.74408 0.1217 0.56375 0.0
H429 H 0.72305 0.08985 0.91737 0.0
H430 H 0.72417 0.08645 0.78924 0.0
H431 H 0.73948 0.13295 0.65604 0.0
H432 H 0.76745 0.13016 0.30202 0.0
H433 H 0.76758 0.13407 0.43008 0.0
H434 H 0.75269 0.08798 0.56499 0.0
C435 C 0.73234 0.09928 0.80904 0.0
C436 C 0.74255 0.12317 0.63682 0.0
C437 C 0.73156 0.1012 0.8822 0.0
C438 C 0.75911 0.11896 0.33802 0.0
C439 C 0.75905 0.12117 0.41112 0.0
C440 C 0.74969 0.0978 0.58425 0.0
C441 C 0.74338 0.11379 0.76204 0.0
C442 C 0.74455 0.11196 0.68443 0.0
C443 C 0.74822 0.10684 0.45913 0.0
C444 C 0.74759 0.10895 0.53665 0.0
H445 H 0.76105 0.14496 0.882 0.0
H446 H 0.76252 0.14163 0.75518 0.0
H447 H 0.75016 0.09064 0.69252 0.0
H448 H 0.72891 0.07519 0.3413 0.0
H449 H 0.72872 0.07904 0.46794 0.0
C450 C 0.93277 0.93865 0.61877 0.0
C451 C 0.91571 0.93616 0.57811 0.0
C452 C 0.93013 0.93659 0.69212 0.0
C453 C 0.89764 0.93745 0.84158 0.0
H454 H 0.9217 0.91407 0.94359 0.0
C455 C 0.87939 0.91914 0.13772 0.0
C456 C 0.89641 0.92182 0.17901 0.0
C457 C 0.88224 0.92126 0.06444 0.0
C458 C 0.91516 0.92082 0.91576 0.0
H459 H 0.88243 0.92932 0.58128 0.0
H460 H 0.87769 0.92559 0.71078 0.0
H461 H 0.92459 0.91609 0.81439 0.0
H462 H 0.92979 0.92899 0.17703 0.0
H463 H 0.93488 0.93278 0.04751 0.0
H464 H 0.88817 0.94215 0.94295 0.0
C465 C 0.89317 0.92933 0.68559 0.0
C466 C 0.91673 0.92192 0.84198 0.0
C467 C 0.89582 0.93138 0.6118 0.0
C468 C 0.91644 0.92679 0.146 0.0
C469 C 0.91929 0.92889 0.07223 0.0
C470 C 0.89606 0.93635 0.91534 0.0
C471 C 0.91035 0.93196 0.72627 0.0
C472 C 0.90798 0.93025 0.80428 0.0
C473 C 0.90217 0.92613 0.03096 0.0
C474 C 0.90477 0.92799 0.95303 0.0
H475 H 0.94828 0.94232 0.59398 0.0
H476 H 0.94371 0.93893 0.72217 0.0
H477 H 0.89109 0.9442 0.8138 0.0
H478 H 0.86376 0.9153 0.16198 0.0
H479 H 0.8687 0.91881 0.03388 0.0
C480 C 0.4502 1.00748 0.57649 0.0
C481 C 0.43635 0.994 0.53486 0.0
C482 C 0.44784 1.00551 0.65016 0.0
C483 C 0.40587 0.98128 0.78849 0.0
H484 H 0.45281 1.00069 0.91419 0.0
C485 C 0.39526 0.96986 0.09228 0.0
C486 C 0.40916 0.98348 0.13326 0.0
C487 C 0.3976 0.97158 0.01854 0.0
C488 C 0.43955 0.99543 0.87961 0.0
H489 H 0.41044 0.96746 0.53678 0.0
H490 H 0.4065 0.96395 0.66578 0.0
H491 H 0.4604 1.0016 0.78704 0.0
H492 H 0.43514 1.01 0.13009 0.0
H493 H 0.43901 1.0131 0.00102 0.0
H494 H 0.38503 0.97513 0.88108 0.0
C495 C 0.41882 0.97615 0.64151 0.0
C496 C 0.4439 0.99586 0.80696 0.0
C497 C 0.42118 0.97811 0.56782 0.0
C498 C 0.42436 0.99925 0.09955 0.0
C499 C 0.42669 1.00098 0.02583 0.0
C500 C 0.40152 0.98085 0.86116 0.0
C501 C 0.43164 0.99002 0.6833 0.0
C502 C 0.4271 0.9888 0.7607 0.0
C503 C 0.41382 0.98697 0.98473 0.0
C504 C 0.41833 0.98796 0.90739 0.0
H505 H 0.4621 0.01984 0.55227 0.0
H506 H 0.45793 0.01644 0.68101 0.0
H507 H 0.39261 0.97605 0.7539 0.0
H508 H 0.38336 0.95757 0.11708 0.0
H509 H 0.38747 0.96056 0.98822 0.0
C510 C 0.33378 0.45508 0.44706 0.0
C511 C 0.32027 0.45753 0.40329 0.0
C512 C 0.3313 0.45514 0.52056 0.0
C513 C 0.28972 0.44647 0.65795 0.0
H514 H 0.33701 0.4656 0.78228 0.0
C515 C 0.27978 0.45098 0.95994 0.0
C516 C 0.29338 0.44845 0.00303 0.0
C517 C 0.28215 0.45104 0.88633 0.0
C518 C 0.32364 0.45998 0.7482 0.0
H519 H 0.29464 0.4632 0.40114 0.0
H520 H 0.29051 0.46356 0.52957 0.0
H521 H 0.34432 0.46976 0.65435 0.0
H522 H 0.31898 0.44275 0.00389 0.0
H523 H 0.32289 0.44259 0.87533 0.0
H524 H 0.26904 0.43669 0.75184 0.0
C525 C 0.30267 0.46119 0.50727 0.0
C526 C 0.32784 0.46244 0.67501 0.0
C527 C 0.30515 0.46112 0.43384 0.0
C528 C 0.30842 0.44488 0.97171 0.0
C529 C 0.31078 0.44493 0.89821 0.0
C530 C 0.28552 0.44402 0.73115 0.0
C531 C 0.31529 0.4577 0.5514 0.0
C532 C 0.31093 0.4557 0.62914 0.0
C533 C 0.29812 0.44854 0.85476 0.0
C534 C 0.30244 0.45071 0.77701 0.0
H535 H 0.34559 0.4523 0.42476 0.0
H536 H 0.34121 0.45235 0.55321 0.0
H537 H 0.27635 0.44084 0.62386 0.0
H538 H 0.26803 0.45375 0.98285 0.0
H539 H 0.2722 0.4539 0.85419 0.0
C540 C 0.55728 0.30632 0.43425 0.0
C541 C 0.53948 0.30414 0.47483 0.0
C542 C 0.55655 0.30562 0.36084 0.0
C543 C 0.55054 0.30387 0.20243 0.0
H544 H 0.49644 0.26266 0.16943 0.0
C545 C 0.50518 0.26739 0.9472 0.0
C546 C 0.52306 0.26885 0.90954 0.0
C547 C 0.50601 0.27009 0.01953 0.0
C548 C 0.51153 0.27421 0.17788 0.0
H549 H 0.50865 0.30246 0.47187 0.0
H550 H 0.5076 0.30164 0.34338 0.0
H551 H 0.50196 0.27548 0.28436 0.0
H552 H 0.5543 0.27152 0.9181 0.0
H553 H 0.55549 0.27577 0.04495 0.0
H554 H 0.56016 0.30248 0.09603 0.0
C555 C 0.52172 0.30327 0.36803 0.0
C556 C 0.51464 0.28167 0.24317 0.0
C557 C 0.52236 0.30379 0.44127 0.0
C558 C 0.54049 0.27067 0.94619 0.0
C559 C 0.54125 0.27322 0.01841 0.0
C560 C 0.54742 0.29641 0.13708 0.0
C561 C 0.5381 0.30291 0.32794 0.0
C562 C 0.53421 0.29651 0.25606 0.0
C563 C 0.52463 0.27408 0.05446 0.0
C564 C 0.52797 0.28142 0.12462 0.0
H565 H 0.57069 0.30668 0.45928 0.0
H566 H 0.56944 0.30545 0.33092 0.0
H567 H 0.56572 0.31531 0.21121 0.0
H568 H 0.49155 0.26597 0.91986 0.0
H569 H 0.49292 0.27058 0.04642 0.0
C570 C 1.00312 0.25627 0.39847 0.0
C571 C 1.00126 0.26871 0.43599 0.0
C572 C 1.00567 0.25771 0.32491 0.0
C573 C 0.03081 0.29253 0.1918 0.0
H574 H 1.01214 0.25603 0.05976 0.0
C575 C 0.04538 0.3028 0.89019 0.0
C576 C 0.04736 0.29049 0.85219 0.0
C577 C 0.04277 0.30122 0.96372 0.0
C578 C 1.01779 0.2663 0.09646 0.0
H579 H 0.99796 0.29116 0.42647 0.0
H580 H 1.00216 0.29357 0.29722 0.0
H581 H 0.9961 0.24951 0.18022 0.0
H582 H 0.05063 0.26802 0.86071 0.0
H583 H 0.04631 0.26534 -0.00997 0.0
H584 H 0.0525 0.30931 0.1081 0.0
C585 C 1.00207 0.28292 0.32489 0.0
C586 C 1.00841 0.26259 0.16503 0.0
C587 C 0.99938 0.28141 0.39868 0.0
C588 C 0.04917 0.2777 0.88897 0.0
C589 C 0.04641 0.27603 0.96276 0.0
C590 C 0.04019 0.29623 0.12327 0.0
C591 C 1.00645 0.27164 0.28786 0.0
C592 C 1.0148 0.27568 0.21329 0.0
C593 C 0.04202 0.28724 0.00028 0.0
C594 C 0.03377 0.28315 0.07494 0.0
H595 H 1.00445 0.24628 0.42624 0.0
H596 H 1.00894 0.2488 0.29783 0.0
H597 H 0.03646 0.30279 0.22849 0.0
H598 H 0.04404 0.31284 0.86277 0.0
H599 H 0.03946 0.31007 -0.00886 0.0
C600 C 1.01391 0.75943 0.39942 0.0
C601 C 0.03225 0.77181 0.43157 0.0
C602 C 1.01276 0.76029 0.3262 0.0
C603 C 0.0431 0.78232 0.15857 0.0
H604 H 0.99227 0.78446 0.1207 0.0
C605 C 0.03578 0.80674 0.88983 0.0
C606 C 1.0175 0.7943 0.85759 0.0
C607 C 0.03686 0.80593 0.96309 0.0
C608 C 1.00651 0.7839 0.13068 0.0
H609 H 0.06484 0.79309 0.41286 0.0
H610 H 0.06281 0.79461 0.28531 0.0
H611 H 0.9962 0.77522 0.23846 0.0
H612 H 0.98493 0.77298 0.87618 0.0
H613 H 0.98685 0.77155 0.0038 0.0
H614 H 0.05341 0.79101 0.05081 0.0
C615 C 0.04926 0.7844 0.31616 0.0
C616 C 1.00864 0.7784 0.19755 0.0
C617 C 0.05037 0.78358 0.38921 0.0
C618 C 0.99935 0.78253 0.89988 0.0
C619 C 1.00041 0.78177 0.97298 0.0
C620 C 0.04097 0.78783 0.09172 0.0
C621 C 1.03 0.77344 0.28471 0.0
C622 C 1.02694 0.77754 0.21197 0.0
C623 C 1.01963 0.79277 0.00453 0.0
C624 C 1.02267 0.78868 0.07729 0.0
H625 H 0.99977 0.75013 0.43094 0.0
H626 H 0.9979 0.75148 0.30262 0.0
H627 H 0.05733 0.78175 0.16852 0.0
H628 H 0.04993 0.81605 0.85839 0.0
H629 H 0.05169 0.81478 0.98676 0.0
C630 C 0.25995 0.54583 0.1546 0.0
C631 C 0.25626 0.5307 0.1226 0.0
C632 C 0.24978 0.55464 0.13215 0.0
C633 C 0.20352 0.54918 0.03113 0.0
H634 H 0.23374 0.59892 0.0311 0.0
C635 C 0.1602 0.58734 0.9864 0.0
C636 C 0.17133 0.60343 0.94933 0.0
C637 C 0.17067 0.57852 0.00521 0.0
C638 C 0.22508 0.58504 0.02996 0.0
H639 H 0.23853 0.51303 0.04169 0.0
H640 H 0.22137 0.5286 0.00134 0.0
H641 H 0.25176 0.58366 0.06668 0.0
H642 H 0.20235 0.62269 0.90233 0.0
H643 H 0.22053 0.60719 0.93387 0.0
H644 H 0.17703 0.55056 -0.00734 0.0
C645 C 0.23193 0.53356 0.04469 0.0
C646 C 0.23536 0.57622 0.05148 0.0
C647 C 0.24205 0.5247 0.06731 0.0
C648 C 0.19324 0.61036 0.93098 0.0
C649 C 0.20372 0.60149 0.94961 0.0
C650 C 0.19327 0.55798 0.0094 0.0
C651 C 0.23561 0.54868 0.07672 0.0
C652 C 0.22472 0.55814 0.05272 0.0
C653 C 0.19262 0.58545 0.98734 0.0
C654 C 0.20383 0.57606 0.00877 0.0
H655 H 0.27096 0.55105 0.19663 0.0
H656 H 0.25289 0.56608 0.15898 0.0
H657 H 0.19463 0.53527 0.03195 0.0
H658 H 0.14336 0.58158 0.0019 0.0
H659 H 0.16156 0.56638 0.03517 0.0
C660 C 0.68324 0.70138 0.07529 0.0
C661 C 0.69231 0.69333 0.03646 0.0
C662 C 0.69624 0.7168 0.10811 0.0
C663 C 0.75175 0.75412 0.1051 0.0
H664 H 0.73463 0.76033 0.29344 0.0
C665 C 0.79564 0.81952 0.23871 0.0
C666 C 0.79896 0.81936 0.31154 0.0
C667 C 0.78274 0.80421 0.20509 0.0
C668 C 0.73975 0.75878 0.24105 0.0
H669 H 0.72234 0.69551 0.00077 0.0
H670 H 0.74499 0.72228 0.05851 0.0
H671 H 0.7122 0.73363 0.2351 0.0
H672 H 0.79138 0.80274 0.40564 0.0
H673 H 0.76889 0.77607 0.3471 0.0
H674 H 0.77947 0.77916 0.11149 0.0
C675 C 0.72778 0.7167 0.0633 0.0
C676 C 0.72674 0.74352 0.20719 0.0
C677 C 0.71477 0.70124 0.03073 0.0
C678 C 0.78897 0.80342 0.34978 0.0
C679 C 0.77604 0.7881 0.31614 0.0
C680 C 0.76473 0.7694 0.13887 0.0
C681 C 0.7187 0.72465 0.10279 0.0
C682 C 0.73256 0.74097 0.13874 0.0
C683 C 0.77275 0.78828 0.2433 0.0
C684 C 0.75892 0.77195 0.20735 0.0
H685 H 0.66602 0.69559 0.08155 0.0
H686 H 0.68867 0.72263 0.13737 0.0
H687 H 0.75667 0.75269 0.05218 0.0
H688 H 0.80272 0.83154 0.20771 0.0
H689 H 0.7803 0.8049 0.14924 0.0
C690 C 0.66169 0.06193 0.13909 0.0
C691 C 0.67456 0.0799 0.14156 0.0
C692 C 0.63943 0.05355 0.15564 0.0
C693 C 0.59771 0.06135 0.24363 0.0
H694 H 0.55763 0.01913 0.15767 0.0
C695 C 0.50532 0.03246 0.27163 0.0
C696 C 0.49248 1.01463 0.28647 0.0
C697 C 0.52738 0.0401 0.25405 0.0
C698 C 0.56862 0.03087 0.18255 0.0
H699 H 0.67374 0.10313 0.16026 0.0
H700 H 0.63543 0.08885 0.18568 0.0
H701 H 0.59588 0.0328 0.1255 0.0
H702 H 0.49305 0.99089 0.29336 0.0
H703 H 0.53131 1.00417 0.26181 0.0
H704 H 0.57034 0.05958 0.29929 0.0
C705 C 0.64234 0.08096 0.17413 0.0
C706 C 0.59068 0.03872 0.1643 0.0
C707 C 0.66448 0.08925 0.15876 0.0
C708 C 0.50235 1.00467 0.28266 0.0
C709 C 0.52433 1.01227 0.26401 0.0
C710 C 0.57568 0.05363 0.26102 0.0
C711 C 0.62937 0.06293 0.17421 0.0
C712 C 0.60567 0.05417 0.19431 0.0
C713 C 0.5372 0.03011 0.24965 0.0
C714 C 0.56077 0.03829 0.23076 0.0
H715 H 0.66889 0.05431 0.12636 0.0
H716 H 0.63025 0.03966 0.15549 0.0
H717 H 0.60851 0.07291 0.26985 0.0
H718 H 0.49836 0.04057 0.27388 0.0
H719 H 0.53671 0.05385 0.24285 0.0
C720 C 0.67657 0.17904 0.08931 0.0
C721 C 0.6988 0.1866 0.09453 0.0
C722 C 0.66801 0.18836 0.05919 0.0
C723 C 0.68126 0.23283 0.009 0.0
H724 H 0.6344 0.20961 0.88472 0.0
C725 C 0.65353 0.26915 0.82578 0.0
C726 C 0.63132 0.26198 0.821 0.0
C727 C 0.6616 0.26012 0.86156 0.0
C728 C 0.64734 0.21624 0.91986 0.0
H729 H 0.72949 0.20985 0.07157 0.0
H730 H 0.71465 0.22602 0.0186 0.0
H731 H 0.64857 0.19354 0.94339 0.0
H732 H 0.60021 0.23987 0.85228 0.0
H733 H 0.6143 0.22411 0.91372 0.0
H734 H 0.68017 0.25561 0.98446 0.0
C735 C 0.70373 0.21302 0.03911 0.0
C736 C 0.65544 0.20702 0.95369 0.0
C737 C 0.71226 0.20373 0.06949 0.0
C738 C 0.61741 0.24564 0.85348 0.0
C739 C 0.62548 0.2366 0.8889 0.0
C740 C 0.67322 0.24208 0.97487 0.0
C741 C 0.6815 0.20543 0.0332 0.0
C742 C 0.67253 0.21519 -0.00139 0.0
C743 C 0.64766 0.2437 0.89316 0.0
C744 C 0.65618 0.23389 0.92984 0.0
H745 H 0.66575 0.16592 0.10885 0.0
H746 H 0.6508 0.18219 0.0566 0.0
H747 H 0.6942 0.2395 0.04409 0.0
H748 H 0.66472 0.28161 0.80074 0.0
H749 H 0.67879 0.26586 0.86323 0.0
C750 C 0.99871 0.38117 0.77315 0.0
C751 C 1.01476 0.37749 0.75285 0.0
C752 C 1.00395 0.39791 0.78873 0.0
C753 C 0.04676 0.44362 0.75837 0.0
H754 H 1.01777 0.45114 0.91727 0.0
C755 C 0.07384 0.5121 0.85073 0.0
C756 C 0.05803 0.51573 0.87463 0.0
C757 C 0.06857 0.49527 0.83681 0.0
C758 C 1.02585 0.44932 0.87208 0.0
H759 H 0.0491 0.3888 0.73469 0.0
H760 H 0.05813 0.41791 0.761 0.0
H761 H 1.00854 0.42196 0.8911 0.0
H762 H 1.02413 0.50411 0.90337 0.0
H763 H 1.01487 0.47496 0.87725 0.0
H764 H 0.06392 0.47091 0.73874 0.0
C765 C 0.04143 0.40785 0.764 0.0
C766 C 1.02056 0.43252 0.85713 0.0
C767 C 0.03621 0.3911 0.74875 0.0
C768 C 0.03676 0.50195 0.8843 0.0
C769 C 0.03148 0.48512 0.87016 0.0
C770 C 0.05198 0.4604 0.77309 0.0
C771 C 1.02538 0.41151 0.78419 0.0
C772 C 0.03096 0.42943 0.80012 0.0
C773 C 0.04729 0.48151 0.84605 0.0
C774 C 0.04164 0.46353 0.83027 0.0
H775 H 0.98199 0.37116 0.77584 0.0
H776 H 0.99112 0.40026 0.8031 0.0
H777 H 0.05488 0.44175 0.71336 0.0
H778 H 0.09035 0.52232 0.84168 0.0
H779 H 0.0813 0.49307 0.81927 0.0
C780 C 0.87057 0.69703 0.84625 0.0
C781 C 0.87923 0.69183 0.79098 0.0
C782 C 0.84908 0.6867 0.87111 0.0
C783 C 0.80166 0.64185 0.87006 0.0
H784 H 0.76998 0.66417 0.92245 0.0
C785 C 0.71248 0.6033 0.98326 0.0
C786 C 0.69887 0.60899 0.95953 0.0
C787 C 0.73478 0.61313 0.96758 0.0
C788 C 0.77847 0.65764 0.90771 0.0
H789 H 0.87167 0.67118 0.72002 0.0
H790 H 0.83428 0.65351 0.76174 0.0
H791 H 0.80761 0.6815 0.88409 0.0
H792 H 0.6984 0.62969 0.90073 0.0
H793 H 0.73661 0.64642 0.8733 0.0
H794 H 0.77221 0.61795 0.8916 0.0
C795 C 0.84417 0.66553 0.78666 0.0
C796 C 0.80028 0.66766 0.88646 0.0
C797 C 0.86566 0.67585 0.76186 0.0
C798 C 0.70821 0.6248 0.92039 0.0
C799 C 0.73034 0.63456 0.90492 0.0
C800 C 0.7798 0.6318 0.89131 0.0
C801 C 0.83546 0.67079 0.84155 0.0
C802 C 0.81225 0.65996 0.86669 0.0
C803 C 0.74406 0.62894 0.92807 0.0
C804 C 0.76777 0.63954 0.90974 0.0
H805 H 0.88031 0.70926 0.86985 0.0
H806 H 0.8432 0.69119 0.914 0.0
H807 H 0.81028 0.63536 0.85634 0.0
H808 H 0.70592 0.59121 0.01342 0.0
H809 H 0.74477 0.60839 0.98696 0.0
C810 C 0.03849 0.74163 0.71394 0.0
C811 C 0.05568 0.75839 0.6973 0.0
C812 C 0.04237 0.72823 0.73227 0.0
C813 C 0.08475 0.71671 0.71082 0.0
H814 H 0.05726 0.68547 0.87469 0.0
C815 C 0.12221 0.67983 0.83001 0.0
C816 C 0.10917 0.66262 0.85528 0.0
C817 C 0.11335 0.6898 0.81022 0.0
C818 C 0.06491 0.69392 0.82815 0.0
H819 H 0.09032 0.77411 0.68755 0.0
H820 H 0.09693 0.75117 0.71841 0.0
H821 H 0.04555 0.70563 0.84005 0.0
H822 H 0.07625 0.64264 0.88057 0.0
H823 H 0.06067 0.66015 0.84566 0.0
H824 H 0.1042 0.70533 0.69866 0.0
C825 C 0.08047 0.74813 0.71701 0.0
C826 C 0.05816 0.7055 0.80825 0.0
C827 C 0.07664 0.76139 0.69959 0.0
C828 C 0.08684 0.6558 0.86128 0.0
C829 C 0.07791 0.66588 0.84146 0.0
C830 C 0.09141 0.70521 0.73044 0.0
C831 C 0.06349 0.73131 0.73324 0.0
C832 C 0.0684 0.71738 0.75029 0.0
C833 C 0.09106 0.683 0.81468 0.0
C834 C 0.08204 0.69392 0.7905 0.0
H835 H 1.02215 0.73888 0.71288 0.0
H836 H 1.02887 0.71543 0.74441 0.0
H837 H 0.09271 0.72533 0.66488 0.0
H838 H 0.13946 0.68573 0.82501 0.0
H839 H 0.12413 0.70299 0.79163 0.0
C840 C 0.58765 0.4606 0.88423 0.0
C841 C 0.59956 0.4667 0.9449 0.0
C842 C 0.58193 0.44437 0.85969 0.0
C843 C 0.59519 0.40956 0.87158 0.0
H844 H 0.5392 0.3823 0.79616 0.0
C845 C 0.55929 0.33787 0.79515 0.0
C846 C 0.5472 0.33295 0.73457 0.0
C847 C 0.56684 0.35432 0.82139 0.0
C848 C 0.55501 0.38978 0.81628 0.0
H849 H 0.61506 0.46037 0.02632 0.0
H850 H 0.60467 0.43198 0.9846 0.0
H851 H 0.54976 0.41037 0.84065 0.0
H852 H 0.53449 0.34171 0.65222 0.0
H853 H 0.54776 0.37018 0.69694 0.0
H854 H 0.60028 0.38877 0.84733 0.0
C855 C 0.59992 0.43983 0.95546 0.0
C856 C 0.5611 0.40597 0.84183 0.0
C857 C 0.60565 0.45608 0.98001 0.0
C858 C 0.54356 0.345 0.69944 0.0
C859 C 0.55105 0.36133 0.72547 0.0
C860 C 0.58905 0.39329 0.84608 0.0
C861 C 0.58789 0.43369 0.89506 0.0
C862 C 0.58135 0.4162 0.86932 0.0
C863 C 0.56242 0.36615 0.7876 0.0
C864 C 0.56894 0.38325 0.81738 0.0
H865 H 0.58245 0.46825 0.85601 0.0
H866 H 0.57294 0.44026 0.81245 0.0
H867 H 0.61099 0.41708 0.89166 0.0
H868 H 0.56233 0.32885 0.82345 0.0
H869 H 0.5755 0.35754 0.86943 0.0
C870 C 0.96666 0.2234 0.76932 0.0
C871 C 0.97187 0.23921 0.73607 0.0
C872 C 0.94681 0.21289 0.80487 0.0
C873 C 0.89804 0.21103 0.88489 0.0
H874 H 0.87502 0.16214 0.86817 0.0
C875 C 0.82395 0.15949 0.05998 0.0
C876 C 0.80992 0.14368 0.03064 0.0
C877 C 0.84321 0.17163 0.02328 0.0
C878 C 0.8809 0.1757 0.87308 0.0
H879 H 0.96023 0.25659 0.71604 0.0
H880 H 0.92482 0.23785 0.77768 0.0
H881 H 0.90818 0.18246 0.80394 0.0
H882 H 0.80521 0.12853 0.93856 0.0
H883 H 0.83821 0.14962 0.8744 0.0
H884 H 0.87021 0.20411 0.95267 0.0
C885 C 0.93645 0.23373 0.77646 0.0
C886 C 0.90027 0.18747 0.83677 0.0
C887 C 0.95669 0.24447 0.74094 0.0
C888 C 0.81571 0.1404 0.96359 0.0
C889 C 0.8348 0.15258 0.92665 0.0
C890 C 0.87845 0.19919 0.92107 0.0
C891 C 0.93111 0.2176 0.80789 0.0
C892 C 0.90941 0.20533 0.84287 0.0
C893 C 0.84895 0.16842 0.95577 0.0
C894 C 0.86964 0.18129 0.91624 0.0
H895 H 0.97801 0.21898 0.7678 0.0
H896 H 0.9438 0.20095 0.8301 0.0
H897 H 0.90449 0.22463 0.89124 0.0
H898 H 0.82002 0.16252 0.11137 0.0
H899 H 0.85368 0.18349 0.04834 0.0
C900 C 0.79535 0.02116 0.11912 0.0
C901 C 0.78846 0.02954 0.16565 0.0
C902 C 0.805 1.01217 0.14438 0.0
C903 C 0.81274 0.99267 0.30911 0.0
H904 H 0.85932 0.99472 0.19432 0.0
C905 C 0.8508 0.95084 0.37567 0.0
C906 C 0.87285 0.958 0.35922 0.0
C907 C 0.84025 0.95959 0.35569 0.0
C908 C 0.84649 0.9941 0.22765 0.0
H909 H 0.78615 0.03459 0.27626 0.0
H910 H 0.80345 0.01936 0.3199 0.0
H911 H 0.84184 1.00988 0.15308 0.0
H912 H 0.90119 0.98042 0.31143 0.0
H913 H 0.8831 0.99571 0.27855 0.0
H914 H 0.81784 0.97722 0.38456 0.0
C915 C 0.80114 0.01955 0.26373 0.0
C916 C 0.83619 1.00264 0.20333 0.0
C917 C 0.79143 0.02852 0.23845 0.0
C918 C 0.88417 0.97438 0.32456 0.0
C919 C 0.8737 0.98313 0.30503 0.0
C920 C 0.8231 0.98414 0.33356 0.0
C921 C 0.80819 1.01129 0.21704 0.0
C922 C 0.81913 1.00208 0.24354 0.0
C923 C 0.8515 0.97577 0.31895 0.0
C924 C 0.8402 0.98476 0.29329 0.0
H925 H 0.79364 0.02175 0.06267 0.0
H926 H 0.80988 1.00581 0.10665 0.0
H927 H 0.79954 0.99173 0.34142 0.0
H928 H 0.84153 0.93822 0.40194 0.0
H929 H 0.82314 0.95339 0.36703 0.0
C930 C 0.36733 0.8699 0.16837 0.0
C931 C 0.36306 0.87485 0.23406 0.0
C932 C 0.35297 0.85385 0.14265 0.0
C933 C 0.30784 0.81044 0.19945 0.0
H934 H 0.29833 0.80661 -0.00145 0.0
C935 C 0.26362 0.74483 0.06865 0.0
C936 C 0.24992 0.7428 0.0142 0.0
C937 C 0.27641 0.76089 0.09699 0.0
C938 C 0.30061 0.80745 0.05491 0.0
H939 H 0.34013 0.86676 0.32386 0.0
H940 H 0.31499 0.83882 0.27886 0.0
H941 H 0.32229 0.83463 0.04476 0.0
H942 H 0.23885 0.75617 0.94742 0.0
H943 H 0.26097 0.78418 -0.0025 0.0
H944 H 0.28591 0.78328 0.20969 0.0
C945 C 0.32965 0.84724 0.24767 0.0
C946 C 0.3146 0.82352 0.08134 0.0
C947 C 0.34407 0.86328 0.27353 0.0
C948 C 0.24911 0.75724 -0.01042 0.0
C949 C 0.26197 0.77334 0.0178 0.0
C950 C 0.29386 0.79436 0.173 0.0
C951 C 0.33388 0.84231 0.18177 0.0
C952 C 0.31853 0.82523 0.15392 0.0
C953 C 0.27589 0.7754 0.07164 0.0
C954 C 0.29015 0.79263 0.1003 0.0
H955 H 0.38196 0.87837 0.13709 0.0
H956 H 0.35701 0.85041 0.0924 0.0
H957 H 0.31057 0.81119 0.25551 0.0
H958 H 0.26446 0.73396 0.08956 0.0
H959 H 0.28705 0.76198 0.13788 0.0
C960 C 0.54767 0.5373 0.04874 0.0
C961 C 0.55909 0.55383 0.01535 0.0
C962 C 0.52555 0.52935 0.0655 0.0
C963 C 0.48154 0.5383 0.10012 0.0
H964 H 0.44479 0.49038 0.06058 0.0
C965 C 0.38778 0.50263 0.14544 0.0
C966 C 0.37688 0.48488 0.16303 0.0
C967 C 0.41004 0.51171 0.12784 0.0
C968 C 0.45472 0.50369 0.07346 0.0
H969 H 0.55592 0.57495 0.97425 0.0
H970 H 0.51747 0.56118 0.00431 0.0
H971 H 0.48298 0.50452 0.03035 0.0
H972 H 0.38122 0.46309 0.17983 0.0
H973 H 0.41948 0.47877 0.15281 0.0
H974 H 0.45337 0.53738 0.14483 0.0
C975 C 0.52564 0.55434 0.01731 0.0
C976 C 0.47676 0.51184 0.05558 0.0
C977 C 0.54771 0.56219 -0.00046 0.0
C978 C 0.38893 0.47668 0.16537 0.0
C979 C 0.41103 0.48572 0.14904 0.0
C980 C 0.45946 0.53005 0.119 0.0
C981 C 0.5142 0.53778 0.05044 0.0
C982 C 0.49056 0.52925 0.06884 0.0
C983 C 0.42201 0.50332 0.12829 0.0
C984 C 0.44563 0.51253 0.10649 0.0
H985 H 0.55582 0.53046 0.062 0.0
H986 H 0.51736 0.51667 0.09148 0.0
H987 H 0.49166 0.55169 0.11162 0.0
H988 H 0.37902 0.50936 0.14284 0.0
H989 H 0.41769 0.5252 0.11195 0.0
C990 C 1.01144 0.82351 0.56284 0.0
C991 C 0.99457 0.80754 0.59052 0.0
C992 C 1.00742 0.83662 0.54083 0.0
C993 C 0.96771 0.85063 0.56928 0.0
H994 H 0.98693 0.87414 0.38427 0.0
C995 C 0.92621 0.88417 0.44967 0.0
C996 C 0.9382 0.89999 0.41093 0.0
C997 C 0.93549 0.87456 0.4701 0.0
C998 C 0.98165 0.86789 0.43655 0.0
H999 H 0.96041 0.793 0.61714 0.0
H1000 H 0.95363 0.81557 0.58068 0.0
H1001 H 0.9995 0.8549 0.42448 0.0
H1002 H 0.96957 0.91776 0.36188 0.0
H1003 H 0.98594 0.90091 0.39806 0.0
H1004 H 0.94983 0.86333 0.58199 0.0
C1005 C 0.96993 0.81815 0.57563 0.0
C1006 C 0.9889 0.85686 0.45963 0.0
C1007 C 0.97384 0.80512 0.59637 0.0
C1008 C 0.9598 0.90566 0.39163 0.0
C1009 C 0.96917 0.89596 0.41233 0.0
C1010 C 0.9606 0.86163 0.54656 0.0
C1011 C 0.98656 0.83411 0.54745 0.0
C1012 C 0.98154 0.84772 0.52565 0.0
C1013 C 0.9572 0.88037 0.45303 0.0
C1014 C 0.96692 0.87009 0.47904 0.0
H1015 H 1.02757 0.82576 0.55722 0.0
H1016 H 1.02064 0.84877 0.51944 0.0
H1017 H 0.96203 0.84413 0.62103 0.0
H1018 H 0.90949 0.87915 0.46502 0.0
H1019 H 0.92547 0.86245 0.49949 0.0
C1020 C 0.51599 0.22376 0.67891 0.0
C1021 C 0.51334 0.23636 0.64377 0.0
C1022 C 0.5074 0.20729 0.65299 0.0
C1023 C 0.48949 0.18347 0.48908 0.0
H1024 H 0.46486 0.14345 0.61874 0.0
C1025 C 0.47162 0.11629 0.40195 0.0
C1026 C 0.4524 0.10185 0.429 0.0
C1027 C 0.47844 0.13266 0.42737 0.0
C1028 C 0.47155 0.15445 0.5816 0.0
H1029 H 0.49923 0.24142 0.55429 0.0
H1030 H 0.48413 0.21253 0.50873 0.0
H1031 H 0.47667 0.17173 0.66438 0.0
H1032 H 0.42558 0.09343 0.50543 0.0
H1033 H 0.43734 0.12185 0.54911 0.0
H1034 H 0.48427 0.16613 0.40624 0.0
C1035 C 0.49303 0.21548 0.55624 0.0
C1036 C 0.47852 0.17072 0.60792 0.0
C1037 C 0.50152 0.23198 0.5826 0.0
C1038 C 0.44033 0.10424 0.48267 0.0
C1039 C 0.4472 0.12055 0.50832 0.0
C1040 C 0.48263 0.16718 0.46276 0.0
C1041 C 0.49598 0.20293 0.5909 0.0
C1042 C 0.48767 0.18549 0.56213 0.0
C1043 C 0.46632 0.13503 0.48096 0.0
C1044 C 0.4736 0.15244 0.50869 0.0
H1045 H 0.52505 0.22672 0.72609 0.0
H1046 H 0.51024 0.19809 0.68072 0.0
H1047 H 0.49664 0.19455 0.45226 0.0
H1048 H 0.48125 0.115 0.36025 0.0
H1049 H 0.49336 0.14346 0.40551 0.0
C1050 C 0.09002 0.31445 0.52941 0.0
C1051 C 0.07929 0.32155 0.56554 0.0
C1052 C 0.11036 0.32527 0.49488 0.0
C1053 C 0.15694 0.37037 0.49028 0.0
H1054 H 0.16828 0.36218 0.29784 0.0
C1055 C 0.22909 0.42322 0.31745 0.0
C1056 C 0.24056 0.41821 0.27226 0.0
C1057 C 0.20954 0.4109 0.35202 0.0
C1058 C 0.16556 0.36461 0.35187 0.0
H1059 H 0.08173 0.34548 0.59506 0.0
H1060 H 0.11668 0.364 0.53665 0.0
H1061 H 0.13505 0.34113 0.36309 0.0
H1062 H 0.23991 0.3961 0.2272 0.0
H1063 H 0.20617 0.37479 0.28747 0.0
H1064 H 0.18727 0.39378 0.47963 0.0
C1065 C 0.10973 0.35022 0.53458 0.0
C1066 C 0.14645 0.35246 0.38941 0.0
C1067 C 0.08953 0.33954 0.56796 0.0
C1068 C 0.23159 0.40054 0.26124 0.0
C1069 C 0.21208 0.38824 0.29583 0.0
C1070 C 0.176 0.38246 0.45298 0.0
C1071 C 0.12045 0.34335 0.4969 0.0
C1072 C 0.14171 0.35529 0.45886 0.0
C1073 C 0.20086 0.39317 0.34265 0.0
C1074 C 0.18055 0.37993 0.38277 0.0
H1075 H 0.08249 0.30065 0.52612 0.0
H1076 H 0.11817 0.3195 0.4666 0.0
H1077 H 0.15409 0.3729 0.54406 0.0
H1078 H 0.23542 0.43666 0.32741 0.0
H1079 H 0.20128 0.41532 0.38642 0.0
C1080 C 0.43283 0.30893 0.48416 0.0
C1081 C 0.42467 0.30093 0.55183 0.0
C1082 C 0.42438 0.31791 0.4504 0.0
C1083 C 0.39558 0.3407 0.48733 0.0
H1084 H 0.38304 0.33498 0.28878 0.0
C1085 C 0.37329 0.38436 0.3304 0.0
C1086 C 0.35533 0.37594 0.28902 0.0
C1087 C 0.38233 0.3754 0.36021 0.0
C1088 C 0.38643 0.33667 0.34429 0.0
H1089 H 0.40079 0.29582 0.63602 0.0
H1090 H 0.38637 0.31175 0.57754 0.0
H1091 H 0.39715 0.31854 0.34591 0.0
H1092 H 0.33298 0.35142 0.2464 0.0
H1093 H 0.34907 0.33594 0.29722 0.0
H1094 H 0.38479 0.35876 0.48587 0.0
C1095 C 0.39943 0.31116 0.55101 0.0
C1096 C 0.39464 0.32737 0.37683 0.0
C1097 C 0.40774 0.30205 0.58455 0.0
C1098 C 0.34699 0.35842 0.27692 0.0
C1099 C 0.35617 0.34951 0.30624 0.0
C1100 C 0.38758 0.35012 0.45463 0.0
C1101 C 0.40772 0.31924 0.48371 0.0
C1102 C 0.39919 0.32921 0.44881 0.0
C1103 C 0.37378 0.35785 0.34885 0.0
C1104 C 0.38283 0.34816 0.38285 0.0
H1105 H 0.44611 0.30863 0.45782 0.0
H1106 H 0.43126 0.32418 0.39888 0.0
H1107 H 0.39913 0.34251 0.54269 0.0
H1108 H 0.38041 0.39791 0.33977 0.0
H1109 H 0.3961 0.38223 0.39198 0.0
C1110 C 0.99358 0.05877 0.31525 0.0
C1111 C 0.98232 0.04493 0.36528 0.0
C1112 C 0.99963 0.07561 0.33256 0.0
C1113 C 0.9872 0.10029 0.46161 0.0
H1114 H 0.04283 0.13832 0.39585 0.0
C1115 C 1.02038 0.16868 0.56501 0.0
C1116 C 0.03215 0.18288 0.51703 0.0
C1117 C 1.01439 0.15201 0.54564 0.0
C1118 C 1.02711 0.12791 0.41401 0.0
H1119 H 0.96907 0.03826 0.47368 0.0
H1120 H 0.97948 0.06744 0.50355 0.0
H1121 H 0.03221 0.1092 0.36348 0.0
H1122 H 0.0466 0.19044 0.4103 0.0
H1123 H 0.03611 0.16143 0.37646 0.0
H1124 H 0.98204 0.11895 0.51201 0.0
C1125 C 0.98334 0.06527 0.4504 0.0
C1126 C 1.02101 0.11115 0.39539 0.0
C1127 C 0.97733 0.04846 0.43316 0.0
C1128 C 0.03782 0.1799 0.44911 0.0
C1129 C 0.03179 0.16321 0.42966 0.0
C1130 C 0.99328 0.11703 0.48012 0.0
C1131 C 0.99457 0.07911 0.4004 0.0
C1132 C 1.00099 0.09707 0.41915 0.0
C1133 C 1.01994 0.14899 0.47759 0.0
C1134 C 1.01337 0.13111 0.45688 0.0
H1135 H 0.99747 0.05659 0.26215 0.0
H1136 H 1.00798 0.08585 0.29226 0.0
H1137 H 0.9715 0.08986 0.47993 0.0
H1138 H 1.01603 0.17045 0.61817 0.0
H1139 H 1.00565 0.14149 0.58459 0.0
C1140 C 0.18657 0.87082 0.54269 0.0
C1141 C 0.1717 0.87546 0.52169 0.0
C1142 C 0.20858 0.8815 0.52519 0.0
C1143 C 0.24798 0.91833 0.40363 0.0
H1144 H 0.28824 0.9221 0.54133 0.0
C1145 C 0.34054 0.96668 0.3644 0.0
C1146 C 0.35395 0.9605 0.38501 0.0
C1147 C 0.31826 0.95698 0.3805 0.0
C1148 C 0.27728 0.92112 0.5018 0.0
H1149 H 0.16874 0.89503 0.46354 0.0
H1150 H 0.20693 0.91371 0.43452 0.0
H1151 H 0.24997 0.90384 0.5693 0.0
H1152 H 0.35407 0.93911 0.439 0.0
H1153 H 0.31579 0.92246 0.46632 0.0
H1154 H 0.27545 0.93569 0.33623 0.0
C1155 C 0.20159 0.90173 0.46419 0.0
C1156 C 0.25521 0.91055 0.51787 0.0
C1157 C 0.17959 0.89105 0.48171 0.0
C1158 C 0.34444 0.94443 0.42223 0.0
C1159 C 0.32234 0.93485 0.4385 0.0
C1160 C 0.27011 0.92895 0.38759 0.0
C1161 C 0.2165 0.8972 0.48603 0.0
C1162 C 0.24015 0.90883 0.46888 0.0
C1163 C 0.30884 0.94093 0.41812 0.0
C1164 C 0.28513 0.93038 0.43618 0.0
H1165 H 0.18129 0.85905 0.57398 0.0
H1166 H 0.21939 0.87736 0.54221 0.0
H1167 H 0.23701 0.91727 0.36404 0.0
H1168 H 0.34723 0.97896 0.33564 0.0
H1169 H 0.30845 0.96217 0.36425 0.0
loop_
_geom_bond_atom_site_label_1
_geom_bond_atom_site_label_2
_geom_bond_distance
_geom_bond_site_symmetry_2
_ccdc_geom_bond_type
Nd0 C2 2.836 . S
Nd0 O20 2.500 . S
Nd0 O21 2.492 . S
Nd0 O22 2.487 1_554 S
Nd0 O23 2.682 . S
Nd0 O24 2.410 . S
Nd0 O29 2.414 . S
Nd0 O31 2.424 . S
Nd1 C11 2.836 . S
Nd1 O23 2.414 . S
Nd1 O25 2.424 . S
Nd1 O26 2.500 . S
Nd1 O27 2.492 . S
Nd1 O28 2.487 . S
Nd1 O29 2.682 . S
Nd1 O30 2.410 . S
C2 Nd0 2.836 . S
C2 C3 1.498 . S
C2 O20 1.258 . S
C2 O21 1.239 . S
C3 C2 1.498 . S
C3 C4 1.366 . S
C3 C8 1.407 . S
C4 C3 1.366 . S
C4 C5 1.392 . S
C4 H32 0.930 . S
C5 C4 1.392 . S
C5 C6 1.398 . S
C5 H33 0.929 . S
C6 C5 1.398 . S
C6 C7 1.352 . S
C7 C6 1.352 . S
C7 C8 1.384 . S
C7 H34 0.930 . S
C8 C3 1.407 . S
C8 C7 1.384 . S
C8 H35 0.929 . S
C9 O22 1.241 . S
C9 O23 1.273 1_556 S
C10 O24 1.251 . S
C10 O25 1.268 . S
C11 Nd1 2.836 . S
C11 C12 1.498 . S
C11 O26 1.258 . S
C11 O27 1.239 . S
C12 C11 1.498 . S
C12 C13 1.366 . S
C12 C17 1.407 . S
C13 C12 1.366 . S
C13 C14 1.392 . S
C13 H36 0.930 . S
C14 C13 1.392 . S
C14 C15 1.398 . S
C14 H37 0.929 . S
C15 C14 1.398 . S
C15 C16 1.352 . S
C16 C15 1.352 . S
C16 C17 1.384 . S
C16 H38 0.930 . S
C17 C12 1.407 . S
C17 C16 1.384 . S
C17 H39 0.929 . S
C18 O28 1.241 . S
C18 O29 1.273 . S
C19 O30 1.251 . S
C19 O31 1.268 . S
O20 Nd0 2.500 . S
O20 C2 1.258 . S
O21 Nd0 2.492 . S
O21 C2 1.239 . S
O22 Nd0 2.487 1_556 S
O22 C9 1.241 . S
O23 Nd0 2.682 . S
O23 Nd1 2.414 . S
O23 C9 1.273 1_554 S
O24 Nd0 2.410 . S
O24 C10 1.251 . S
O25 Nd1 2.424 . S
O25 C10 1.268 . S
O26 Nd1 2.500 . S
O26 C11 1.258 . S
O27 Nd1 2.492 . S
O27 C11 1.239 . S
O28 Nd1 2.487 . S
O28 C18 1.241 . S
O29 Nd0 2.414 . S
O29 Nd1 2.682 . S
O29 C18 1.273 . S
O30 Nd1 2.410 . S
O30 C19 1.251 . S
O31 Nd0 2.424 . S
O31 C19 1.268 . S
H32 C4 0.930 . S
H33 C5 0.929 . S
H34 C7 0.930 . S
H35 C8 0.929 . S
H36 C13 0.930 . S
H37 C14 0.929 . S
H38 C16 0.930 . S
H39 C17 0.929 . S
Nd40 C42 2.836 . S
Nd40 O60 2.500 . S
Nd40 O61 2.492 . S
Nd40 O62 2.487 . S
Nd40 O63 2.682 . S
Nd40 O64 2.410 . S
Nd40 O69 2.414 . S
Nd40 O71 2.424 . S
Nd41 C51 2.836 . S
Nd41 O63 2.414 . S
Nd41 O65 2.424 . S
Nd41 O66 2.500 . S
Nd41 O67 2.492 . S
Nd41 O68 2.487 1_554 S
Nd41 O69 2.682 . S
Nd41 O70 2.410 . S
C42 Nd40 2.836 . S
C42 C43 1.498 . S
C42 O60 1.258 . S
C42 O61 1.239 . S
C43 C42 1.498 . S
C43 C44 1.366 . S
C43 C48 1.407 . S
C44 C43 1.366 . S
C44 C45 1.392 . S
C44 H72 0.930 . S
C45 C44 1.392 . S
C45 C46 1.398 . S
C45 H73 0.929 . S
C46 C45 1.398 . S
C46 C47 1.352 . S
C47 C46 1.352 . S
C47 C48 1.384 . S
C47 H74 0.930 . S
C48 C43 1.407 . S
C48 C47 1.384 . S
C48 H75 0.929 . S
C49 O62 1.241 . S
C49 O63 1.273 . S
C50 O64 1.251 . S
C50 O65 1.268 . S
C51 Nd41 2.836 . S
C51 C52 1.498 . S
C51 O66 1.258 . S
C51 O67 1.239 . S
C52 C51 1.498 . S
C52 C53 1.366 . S
C52 C57 1.407 . S
C53 C52 1.366 . S
C53 C54 1.392 . S
C53 H76 0.930 . S
C54 C53 1.392 . S
C54 C55 1.398 . S
C54 H77 0.929 . S
C55 C54 1.398 . S
C55 C56 1.352 . S
C56 C55 1.352 . S
C56 C57 1.384 . S
C56 H78 0.930 . S
C57 C52 1.407 . S
C57 C56 1.384 . S
C57 H79 0.929 . S
C58 O68 1.241 . S
C58 O69 1.273 1_556 S
C59 O70 1.251 . S
C59 O71 1.268 . S
O60 Nd40 2.500 . S
O60 C42 1.258 . S
O61 Nd40 2.492 . S
O61 C42 1.239 . S
O62 Nd40 2.487 . S
O62 C49 1.241 . S
O63 Nd40 2.682 . S
O63 Nd41 2.414 . S
O63 C49 1.273 . S
O64 Nd40 2.410 . S
O64 C50 1.251 . S
O65 Nd41 2.424 . S
O65 C50 1.268 . S
O66 Nd41 2.500 . S
O66 C51 1.258 . S
O67 Nd41 2.492 . S
O67 C51 1.239 . S
O68 Nd41 2.487 1_556 S
O68 C58 1.241 . S
O69 Nd40 2.414 . S
O69 Nd41 2.682 . S
O69 C58 1.273 1_554 S
O70 Nd41 2.410 . S
O70 C59 1.251 . S
O71 Nd40 2.424 . S
O71 C59 1.268 . S
H72 C44 0.930 . S
H73 C45 0.929 . S
H74 C47 0.930 . S
H75 C48 0.929 . S
H76 C53 0.930 . S
H77 C54 0.929 . S
H78 C56 0.930 . S
H79 C57 0.929 . S
Nd80 C82 2.836 . S
Nd80 O100 2.500 . S
Nd80 O101 2.492 . S
Nd80 O102 2.487 . S
Nd80 O103 2.682 . S
Nd80 O104 2.410 . S
Nd80 O109 2.414 . S
Nd80 O111 2.424 . S
Nd81 C91 2.836 . S
Nd81 O103 2.414 . S
Nd81 O105 2.424 . S
Nd81 O106 2.500 . S
Nd81 O107 2.492 . S
Nd81 O108 2.487 . S
Nd81 O109 2.682 . S
Nd81 O110 2.410 . S
C82 Nd80 2.836 . S
C82 C83 1.498 . S
C82 O100 1.258 . S
C82 O101 1.239 . S
C83 C82 1.498 . S
C83 C84 1.366 . S
C83 C88 1.407 . S
C84 C83 1.366 . S
C84 C85 1.392 . S
C84 H112 0.930 . S
C85 C84 1.392 . S
C85 C86 1.398 . S
C85 H113 0.929 . S
C86 C85 1.398 . S
C86 C87 1.352 . S
C87 C86 1.352 . S
C87 C88 1.384 . S
C87 H114 0.930 . S
C88 C83 1.407 . S
C88 C87 1.384 . S
C88 H115 0.929 . S
C89 O102 1.241 . S
C89 O103 1.273 . S
C90 O104 1.251 . S
C90 O105 1.268 . S
C91 Nd81 2.836 . S
C91 C92 1.498 . S
C91 O106 1.258 . S
C91 O107 1.239 . S
C92 C91 1.498 . S
C92 C93 1.366 . S
C92 C97 1.407 . S
C93 C92 1.366 . S
C93 C94 1.392 . S
C93 H116 0.930 . S
C94 C93 1.392 . S
C94 C95 1.398 . S
C94 H117 0.929 . S
C95 C94 1.398 . S
C95 C96 1.352 . S
C96 C95 1.352 . S
C96 C97 1.384 . S
C96 H118 0.930 . S
C97 C92 1.407 . S
C97 C96 1.384 . S
C97 H119 0.929 . S
C98 O108 1.241 . S
C98 O109 1.273 . S
C99 O110 1.251 . S
C99 O111 1.268 . S
O100 Nd80 2.500 . S
O100 C82 1.258 . S
O101 Nd80 2.492 . S
O101 C82 1.239 . S
O102 Nd80 2.487 . S
O102 C89 1.241 . S
O103 Nd80 2.682 . S
O103 Nd81 2.414 . S
O103 C89 1.273 . S
O104 Nd80 2.410 . S
O104 C90 1.251 . S
O105 Nd81 2.424 . S
O105 C90 1.268 . S
O106 Nd81 2.500 . S
O106 C91 1.258 . S
O107 Nd81 2.492 . S
O107 C91 1.239 . S
O108 Nd81 2.487 . S
O108 C98 1.241 . S
O109 Nd80 2.414 . S
O109 Nd81 2.682 . S
O109 C98 1.273 . S
O110 Nd81 2.410 . S
O110 C99 1.251 . S
O111 Nd80 2.424 . S
O111 C99 1.268 . S
H112 C84 0.930 . S
H113 C85 0.929 . S
H114 C87 0.930 . S
H115 C88 0.929 . S
H116 C93 0.930 . S
H117 C94 0.929 . S
H118 C96 0.930 . S
H119 C97 0.929 . S
Nd120 C122 2.836 . S
Nd120 O140 2.500 . S
Nd120 O141 2.492 . S
Nd120 O142 2.487 . S
Nd120 O143 2.682 . S
Nd120 O144 2.410 . S
Nd120 O149 2.414 . S
Nd120 O151 2.424 . S
Nd121 C131 2.836 . S
Nd121 O143 2.414 . S
Nd121 O145 2.424 . S
Nd121 O146 2.500 . S
Nd121 O147 2.492 . S
Nd121 O148 2.487 . S
Nd121 O149 2.682 . S
Nd121 O150 2.410 . S
C122 Nd120 2.836 . S
C122 C123 1.498 . S
C122 O140 1.258 . S
C122 O141 1.239 . S
C123 C122 1.498 . S
C123 C124 1.366 . S
C123 C128 1.407 . S
C124 C123 1.366 . S
C124 C125 1.392 . S
C124 H152 0.930 . S
C125 C124 1.392 . S
C125 C126 1.398 . S
C125 H153 0.929 . S
C126 C125 1.398 . S
C126 C127 1.352 . S
C127 C126 1.352 . S
C127 C128 1.384 . S
C127 H154 0.930 . S
C128 C123 1.407 . S
C128 C127 1.384 . S
C128 H155 0.929 . S
C129 O142 1.241 . S
C129 O143 1.273 . S
C130 O144 1.251 . S
C130 O145 1.268 . S
C131 Nd121 2.836 . S
C131 C132 1.498 1_565 S
C131 O146 1.258 . S
C131 O147 1.239 . S
C132 C131 1.498 1_545 S
C132 C133 1.366 . S
C132 C137 1.407 . S
C133 C132 1.366 . S
C133 C134 1.392 . S
C133 H156 0.930 . S
C134 C133 1.392 . S
C134 C135 1.398 . S
C134 H157 0.929 . S
C135 C134 1.398 . S
C135 C136 1.352 . S
C136 C135 1.352 . S
C136 C137 1.384 . S
C136 H158 0.930 . S
C137 C132 1.407 . S
C137 C136 1.384 . S
C137 H159 0.929 . S
C138 O148 1.241 . S
C138 O149 1.273 . S
C139 O150 1.251 . S
C139 O151 1.268 . S
O140 Nd120 2.500 . S
O140 C122 1.258 . S
O141 Nd120 2.492 . S
O141 C122 1.239 . S
O142 Nd120 2.487 . S
O142 C129 1.241 . S
O143 Nd120 2.682 . S
O143 Nd121 2.414 . S
O143 C129 1.273 . S
O144 Nd120 2.410 . S
O144 C130 1.251 . S
O145 Nd121 2.424 . S
O145 C130 1.268 . S
O146 Nd121 2.500 . S
O146 C131 1.258 . S
O147 Nd121 2.492 . S
O147 C131 1.239 . S
O148 Nd121 2.487 . S
O148 C138 1.241 . S
O149 Nd120 2.414 . S
O149 Nd121 2.682 . S
O149 C138 1.273 . S
O150 Nd121 2.410 . S
O150 C139 1.251 . S
O151 Nd120 2.424 . S
O151 C139 1.268 . S
H152 C124 0.930 . S
H153 C125 0.929 . S
H154 C127 0.930 . S
H155 C128 0.929 . S
H156 C133 0.930 . S
H157 C134 0.929 . S
H158 C136 0.930 . S
H159 C137 0.929 . S
Nd160 C162 2.836 . S
Nd160 O180 2.500 . S
Nd160 O181 2.492 . S
Nd160 O182 2.487 . S
Nd160 O183 2.682 1_545 S
Nd160 O184 2.410 . S
Nd160 O189 2.414 . S
Nd160 O191 2.424 1_545 S
Nd161 C171 2.836 . S
Nd161 O183 2.414 . S
Nd161 O185 2.424 1_565 S
Nd161 O186 2.500 . S
Nd161 O187 2.492 . S
Nd161 O188 2.487 . S
Nd161 O189 2.682 1_565 S
Nd161 O190 2.410 . S
C162 Nd160 2.836 . S
C162 C163 1.498 . S
C162 O180 1.258 . S
C162 O181 1.239 . S
C163 C162 1.498 . S
C163 C164 1.366 . S
C163 C168 1.407 . S
C164 C163 1.366 . S
C164 C165 1.392 . S
C164 H192 0.930 . S
C165 C164 1.392 . S
C165 C166 1.398 . S
C165 H193 0.929 . S
C166 C165 1.398 . S
C166 C167 1.352 . S
C167 C166 1.352 . S
C167 C168 1.384 . S
C167 H194 0.930 . S
C168 C163 1.407 . S
C168 C167 1.384 . S
C168 H195 0.929 . S
C169 O182 1.241 1_565 S
C169 O183 1.273 . S
C170 O184 1.251 . S
C170 O185 1.268 . S
C171 Nd161 2.836 . S
C171 C172 1.498 . S
C171 O186 1.258 . S
C171 O187 1.239 . S
C172 C171 1.498 . S
C172 C173 1.366 . S
C172 C177 1.407 . S
C173 C172 1.366 . S
C173 C174 1.392 . S
C173 H196 0.930 . S
C174 C173 1.392 . S
C174 C175 1.398 . S
C174 H197 0.929 . S
C175 C174 1.398 . S
C175 C176 1.352 . S
C176 C175 1.352 . S
C176 C177 1.384 . S
C176 H198 0.930 . S
C177 C172 1.407 . S
C177 C176 1.384 . S
C177 H199 0.929 . S
C178 O188 1.241 . S
C178 O189 1.273 1_565 S
C179 O190 1.251 . S
C179 O191 1.268 . S
O180 Nd160 2.500 . S
O180 C162 1.258 . S
O181 Nd160 2.492 . S
O181 C162 1.239 . S
O182 Nd160 2.487 . S
O182 C169 1.241 1_545 S
O183 Nd160 2.682 1_565 S
O183 Nd161 2.414 . S
O183 C169 1.273 . S
O184 Nd160 2.410 . S
O184 C170 1.251 . S
O185 Nd161 2.424 1_545 S
O185 C170 1.268 . S
O186 Nd161 2.500 . S
O186 C171 1.258 . S
O187 Nd161 2.492 . S
O187 C171 1.239 . S
O188 Nd161 2.487 . S
O188 C178 1.241 . S
O189 Nd160 2.414 . S
O189 Nd161 2.682 1_545 S
O189 C178 1.273 1_545 S
O190 Nd161 2.410 . S
O190 C179 1.251 . S
O191 Nd160 2.424 1_565 S
O191 C179 1.268 . S
H192 C164 0.930 . S
H193 C165 0.929 . S
H194 C167 0.930 . S
H195 C168 0.929 . S
H196 C173 0.930 . S
H197 C174 0.929 . S
H198 C176 0.930 . S
H199 C177 0.929 . S
Nd200 C202 2.836 . S
Nd200 O220 2.500 . S
Nd200 O221 2.492 . S
Nd200 O222 2.487 . S
Nd200 O223 2.682 . S
Nd200 O224 2.410 . S
Nd200 O229 2.414 . S
Nd200 O231 2.424 . S
Nd201 C211 2.836 . S
Nd201 O223 2.414 . S
Nd201 O225 2.424 . S
Nd201 O226 2.500 . S
Nd201 O227 2.492 . S
Nd201 O228 2.487 . S
Nd201 O229 2.682 . S
Nd201 O230 2.410 . S
C202 Nd200 2.836 . S
C202 C203 1.498 . S
C202 O220 1.258 . S
C202 O221 1.239 . S
C203 C202 1.498 . S
C203 C204 1.366 . S
C203 C208 1.407 . S
C204 C203 1.366 . S
C204 C205 1.392 . S
C204 H232 0.930 . S
C205 C204 1.392 . S
C205 C206 1.398 . S
C205 H233 0.929 . S
C206 C205 1.398 . S
C206 C207 1.352 . S
C207 C206 1.352 . S
C207 C208 1.384 . S
C207 H234 0.930 . S
C208 C203 1.407 . S
C208 C207 1.384 . S
C208 H235 0.929 . S
C209 O222 1.241 . S
C209 O223 1.273 . S
C210 O224 1.251 . S
C210 O225 1.268 . S
C211 Nd201 2.836 . S
C211 C212 1.498 . S
C211 O226 1.258 . S
C211 O227 1.239 . S
C212 C211 1.498 . S
C212 C213 1.366 . S
C212 C217 1.407 . S
C213 C212 1.366 . S
C213 C214 1.392 . S
C213 H236 0.930 . S
C214 C213 1.392 . S
C214 C215 1.398 . S
C214 H237 0.929 . S
C215 C214 1.398 . S
C215 C216 1.352 . S
C216 C215 1.352 . S
C216 C217 1.384 . S
C216 H238 0.930 . S
C217 C212 1.407 . S
C217 C216 1.384 . S
C217 H239 0.929 . S
C218 O228 1.241 . S
C218 O229 1.273 . S
C219 O230 1.251 . S
C219 O231 1.268 . S
O220 Nd200 2.500 . S
O220 C202 1.258 . S
O221 Nd200 2.492 . S
O221 C202 1.239 . S
O222 Nd200 2.487 . S
O222 C209 1.241 . S
O223 Nd200 2.682 . S
O223 Nd201 2.414 . S
O223 C209 1.273 . S
O224 Nd200 2.410 . S
O224 C210 1.251 . S
O225 Nd201 2.424 . S
O225 C210 1.268 . S
O226 Nd201 2.500 . S
O226 C211 1.258 . S
O227 Nd201 2.492 . S
O227 C211 1.239 . S
O228 Nd201 2.487 . S
O228 C218 1.241 . S
O229 Nd200 2.414 . S
O229 Nd201 2.682 . S
O229 C218 1.273 . S
O230 Nd201 2.410 . S
O230 C219 1.251 . S
O231 Nd200 2.424 . S
O231 C219 1.268 . S
H232 C204 0.930 . S
H233 C205 0.929 . S
H234 C207 0.930 . S
H235 C208 0.929 . S
H236 C213 0.930 . S
H237 C214 0.929 . S
H238 C216 0.930 . S
H239 C217 0.929 . S
Nd240 C242 2.836 . S
Nd240 O260 2.500 . S
Nd240 O261 2.492 . S
Nd240 O262 2.487 . S
Nd240 O263 2.682 . S
Nd240 O264 2.410 . S
Nd240 O269 2.414 . S
Nd240 O271 2.424 . S
Nd241 C251 2.836 . S
Nd241 O263 2.414 . S
Nd241 O265 2.424 . S
Nd241 O266 2.500 . S
Nd241 O267 2.492 . S
Nd241 O268 2.487 . S
Nd241 O269 2.682 . S
Nd241 O270 2.410 . S
C242 Nd240 2.836 . S
C242 C243 1.498 . S
C242 O260 1.258 . S
C242 O261 1.239 . S
C243 C242 1.498 . S
C243 C244 1.366 . S
C243 C248 1.407 . S
C244 C243 1.366 . S
C244 C245 1.392 . S
C244 H272 0.930 . S
C245 C244 1.392 . S
C245 C246 1.398 . S
C245 H273 0.929 . S
C246 C245 1.398 . S
C246 C247 1.352 . S
C247 C246 1.352 . S
C247 C248 1.384 . S
C247 H274 0.930 . S
C248 C243 1.407 . S
C248 C247 1.384 . S
C248 H275 0.929 . S
C249 O262 1.241 . S
C249 O263 1.273 . S
C250 O264 1.251 . S
C250 O265 1.268 . S
C251 Nd241 2.836 . S
C251 C252 1.498 . S
C251 O266 1.258 . S
C251 O267 1.239 . S
C252 C251 1.498 . S
C252 C253 1.366 . S
C252 C257 1.407 . S
C253 C252 1.366 . S
C253 C254 1.392 . S
C253 H276 0.930 . S
C254 C253 1.392 . S
C254 C255 1.398 . S
C254 H277 0.929 . S
C255 C254 1.398 . S
C255 C256 1.352 . S
C256 C255 1.352 . S
C256 C257 1.384 . S
C256 H278 0.930 . S
C257 C252 1.407 . S
C257 C256 1.384 . S
C257 H279 0.929 . S
C258 O268 1.241 . S
C258 O269 1.273 . S
C259 O270 1.251 . S
C259 O271 1.268 . S
O260 Nd240 2.500 . S
O260 C242 1.258 . S
O261 Nd240 2.492 . S
O261 C242 1.239 . S
O262 Nd240 2.487 . S
O262 C249 1.241 . S
O263 Nd240 2.682 . S
O263 Nd241 2.414 . S
O263 C249 1.273 . S
O264 Nd240 2.410 . S
O264 C250 1.251 . S
O265 Nd241 2.424 . S
O265 C250 1.268 . S
O266 Nd241 2.500 . S
O266 C251 1.258 . S
O267 Nd241 2.492 . S
O267 C251 1.239 . S
O268 Nd241 2.487 . S
O268 C258 1.241 . S
O269 Nd240 2.414 . S
O269 Nd241 2.682 . S
O269 C258 1.273 . S
O270 Nd241 2.410 . S
O270 C259 1.251 . S
O271 Nd240 2.424 . S
O271 C259 1.268 . S
H272 C244 0.930 . S
H273 C245 0.929 . S
H274 C247 0.930 . S
H275 C248 0.929 . S
H276 C253 0.930 . S
H277 C254 0.929 . S
H278 C256 0.930 . S
H279 C257 0.929 . S
Nd280 C282 2.836 . S
Nd280 O300 2.500 1_655 S
Nd280 O301 2.492 . S
Nd280 O302 2.487 . S
Nd280 O303 2.682 . S
Nd280 O304 2.410 . S
Nd280 O309 2.414 1_655 S
Nd280 O311 2.424 1_655 S
Nd281 C291 2.836 . S
Nd281 O303 2.414 . S
Nd281 O305 2.424 . S
Nd281 O306 2.500 . S
Nd281 O307 2.492 1_655 S
Nd281 O308 2.487 1_655 S
Nd281 O309 2.682 1_655 S
Nd281 O310 2.410 1_655 S
C282 Nd280 2.836 . S
C282 C283 1.498 . S
C282 O300 1.258 1_655 S
C282 O301 1.239 . S
C283 C282 1.498 . S
C283 C284 1.366 1_655 S
C283 C288 1.407 . S
C284 C283 1.366 1_455 S
C284 C285 1.392 . S
C284 H312 0.930 . S
C285 C284 1.392 . S
C285 C286 1.398 1_455 S
C285 H313 0.929 . S
C286 C285 1.398 1_655 S
C286 C287 1.352 . S
C287 C286 1.352 . S
C287 C288 1.384 . S
C287 H314 0.930 . S
C288 C283 1.407 . S
C288 C287 1.384 . S
C288 H315 0.929 . S
C289 O302 1.241 . S
C289 O303 1.273 . S
C290 O304 1.251 . S
C290 O305 1.268 . S
C291 Nd281 2.836 . S
C291 C292 1.493 . S
C291 O306 1.258 . S
C291 O307 1.239 1_655 S
C292 C291 1.493 . S
C292 C293 1.376 . S
C292 C297 1.403 1_655 S
C293 C292 1.376 . S
C293 C294 1.392 . S
C293 H316 0.930 . S
C294 C293 1.392 . S
C294 C295 1.398 1_655 S
C294 H317 0.929 . S
C295 C294 1.398 1_455 S
C295 C296 1.352 . S
C296 C295 1.352 . S
C296 C297 1.384 . S
C296 H318 0.930 . S
C297 C292 1.403 1_455 S
C297 C296 1.384 . S
C297 H319 0.929 . S
C298 O308 1.241 . S
C298 O309 1.273 . S
C299 O310 1.251 . S
C299 O311 1.268 . S
O300 Nd280 2.500 1_455 S
O300 C282 1.258 1_455 S
O301 Nd280 2.492 . S
O301 C282 1.239 . S
O302 Nd280 2.487 . S
O302 C289 1.241 . S
O303 Nd280 2.682 . S
O303 Nd281 2.414 . S
O303 C289 1.273 . S
O304 Nd280 2.410 . S
O304 C290 1.251 . S
O305 Nd281 2.424 . S
O305 C290 1.268 . S
O306 Nd281 2.500 . S
O306 C291 1.258 . S
O307 Nd281 2.492 1_455 S
O307 C291 1.239 1_455 S
O308 Nd281 2.487 1_455 S
O308 C298 1.241 . S
O309 Nd280 2.414 1_455 S
O309 Nd281 2.682 1_455 S
O309 C298 1.273 . S
O310 Nd281 2.410 1_455 S
O310 C299 1.251 . S
O311 Nd280 2.424 1_455 S
O311 C299 1.268 . S
H312 C284 0.930 . S
H313 C285 0.929 . S
H314 C287 0.930 . S
H315 C288 0.929 . S
H316 C293 0.930 . S
H317 C294 0.929 . S
H318 C296 0.930 . S
H319 C297 0.929 . S
Nd320 C322 2.836 . S
Nd320 O340 2.500 . S
Nd320 O341 2.492 . S
Nd320 O342 2.487 . S
Nd320 O343 2.682 1_455 S
Nd320 O344 2.410 . S
Nd320 O349 2.414 1_455 S
Nd320 O351 2.424 . S
Nd321 C331 2.836 . S
Nd321 O343 2.414 . S
Nd321 O345 2.424 . S
Nd321 O346 2.500 . S
Nd321 O347 2.492 . S
Nd321 O348 2.487 . S
Nd321 O349 2.682 . S
Nd321 O350 2.410 . S
C322 Nd320 2.836 . S
C322 C323 1.498 . S
C322 O340 1.258 . S
C322 O341 1.239 . S
C323 C322 1.498 . S
C323 C324 1.366 . S
C323 C328 1.407 . S
C324 C323 1.366 . S
C324 C325 1.392 . S
C324 H352 0.930 . S
C325 C324 1.392 . S
C325 C326 1.398 . S
C325 H353 0.929 . S
C326 C325 1.398 . S
C326 C327 1.352 . S
C327 C326 1.352 . S
C327 C328 1.384 . S
C327 H354 0.930 . S
C328 C323 1.407 . S
C328 C327 1.384 . S
C328 H355 0.929 . S
C329 O342 1.241 . S
C329 O343 1.273 1_455 S
C330 O344 1.251 . S
C330 O345 1.268 1_455 S
C331 Nd321 2.836 . S
C331 C332 1.498 . S
C331 O346 1.258 . S
C331 O347 1.239 . S
C332 C331 1.498 . S
C332 C333 1.366 . S
C332 C337 1.407 . S
C333 C332 1.366 . S
C333 C334 1.392 . S
C333 H356 0.930 . S
C334 C333 1.392 . S
C334 C335 1.398 . S
C334 H357 0.929 . S
C335 C334 1.398 . S
C335 C336 1.352 . S
C336 C335 1.352 . S
C336 C337 1.384 . S
C336 H358 0.930 . S
C337 C332 1.407 . S
C337 C336 1.384 . S
C337 H359 0.929 . S
C338 O348 1.241 . S
C338 O349 1.273 . S
C339 O350 1.251 . S
C339 O351 1.268 1_655 S
O340 Nd320 2.500 . S
O340 C322 1.258 . S
O341 Nd320 2.492 . S
O341 C322 1.239 . S
O342 Nd320 2.487 . S
O342 C329 1.241 . S
O343 Nd320 2.682 1_655 S
O343 Nd321 2.414 . S
O343 C329 1.273 1_655 S
O344 Nd320 2.410 . S
O344 C330 1.251 . S
O345 Nd321 2.424 . S
O345 C330 1.268 1_655 S
O346 Nd321 2.500 . S
O346 C331 1.258 . S
O347 Nd321 2.492 . S
O347 C331 1.239 . S
O348 Nd321 2.487 . S
O348 C338 1.241 . S
O349 Nd320 2.414 1_655 S
O349 Nd321 2.682 . S
O349 C338 1.273 . S
O350 Nd321 2.410 . S
O350 C339 1.251 . S
O351 Nd320 2.424 . S
O351 C339 1.268 1_455 S
H352 C324 0.930 . S
H353 C325 0.929 . S
H354 C327 0.930 . S
H355 C328 0.929 . S
H356 C333 0.930 . S
H357 C334 0.929 . S
H358 C336 0.930 . S
H359 C337 0.929 . S
C360 C361 1.349 . S
C360 C362 1.327 . S
C360 H385 0.950 . S
C361 C360 1.349 . S
C361 C377 1.349 . S
C362 C360 1.327 . S
C362 C381 1.429 . S
C362 H386 0.950 . S
C363 C380 1.574 . S
C363 C382 1.368 . S
C363 H387 0.949 . S
H364 C368 0.949 . S
C365 C366 1.349 . S
C365 C367 1.327 . S
C365 H388 0.950 . S
C366 C365 1.349 . S
C366 C378 1.349 . S
C367 C365 1.327 . S
C367 C383 1.429 . S
C367 H389 0.950 . S
C368 H364 0.949 . S
C368 C376 1.574 . S
C368 C384 1.368 . S
H369 C377 0.950 . S
H370 C375 0.950 . S
H371 C376 0.949 . S
H372 C378 0.950 . S
H373 C379 0.950 . S
H374 C380 0.949 . S
C375 H370 0.950 . S
C375 C377 1.327 . S
C375 C381 1.429 . S
C376 C368 1.574 . S
C376 H371 0.949 . S
C376 C382 1.368 . S
C377 C361 1.349 . S
C377 H369 0.950 . S
C377 C375 1.327 . S
C378 C366 1.349 . S
C378 H372 0.950 . S
C378 C379 1.327 . S
C379 H373 0.950 . S
C379 C378 1.327 . S
C379 C383 1.429 . S
C380 C363 1.574 . S
C380 H374 0.949 . S
C380 C384 1.368 . S
C381 C362 1.429 . S
C381 C375 1.429 . S
C381 C382 1.523 . S
C382 C363 1.368 . S
C382 C376 1.368 . S
C382 C381 1.523 . S
C383 C367 1.429 . S
C383 C379 1.429 . S
C383 C384 1.523 . S
C384 C368 1.368 . S
C384 C380 1.368 . S
C384 C383 1.523 . S
H385 C360 0.950 . S
H386 C362 0.950 . S
H387 C363 0.949 . S
H388 C365 0.950 . S
H389 C367 0.950 . S
C390 C391 1.349 . S
C390 C392 1.327 . S
C390 H415 0.950 . S
C391 C390 1.349 . S
C391 C407 1.349 . S
C392 C390 1.327 . S
C392 C411 1.429 . S
C392 H416 0.950 . S
C393 C410 1.574 . S
C393 C412 1.368 . S
C393 H417 0.949 . S
H394 C398 0.949 . S
C395 C396 1.349 . S
C395 C397 1.327 . S
C395 H418 0.950 . S
C396 C395 1.349 . S
C396 C408 1.349 . S
C397 C395 1.327 . S
C397 C413 1.429 . S
C397 H419 0.950 . S
C398 H394 0.949 . S
C398 C406 1.574 . S
C398 C414 1.368 . S
H399 C407 0.950 . S
H400 C405 0.950 . S
H401 C406 0.949 . S
H402 C408 0.950 . S
H403 C409 0.950 . S
H404 C410 0.949 . S
C405 H400 0.950 . S
C405 C407 1.327 . S
C405 C411 1.429 . S
C406 C398 1.574 . S
C406 H401 0.949 . S
C406 C412 1.368 . S
C407 C391 1.349 . S
C407 H399 0.950 . S
C407 C405 1.327 . S
C408 C396 1.349 . S
C408 H402 0.950 . S
C408 C409 1.327 . S
C409 H403 0.950 . S
C409 C408 1.327 . S
C409 C413 1.429 . S
C410 C393 1.574 . S
C410 H404 0.949 . S
C410 C414 1.368 . S
C411 C392 1.429 . S
C411 C405 1.429 . S
C411 C412 1.523 . S
C412 C393 1.368 . S
C412 C406 1.368 . S
C412 C411 1.523 . S
C413 C397 1.429 . S
C413 C409 1.429 . S
C413 C414 1.523 . S
C414 C398 1.368 . S
C414 C410 1.368 . S
C414 C413 1.523 . S
H415 C390 0.950 . S
H416 C392 0.950 . S
H417 C393 0.949 . S
H418 C395 0.950 . S
H419 C397 0.950 . S
C420 C421 1.349 . S
C420 C422 1.327 . S
C420 H445 0.950 . S
C421 C420 1.349 . S
C421 C437 1.349 . S
C422 C420 1.327 . S
C422 C441 1.429 . S
C422 H446 0.950 . S
C423 C440 1.574 . S
C423 C442 1.368 . S
C423 H447 0.949 . S
H424 C428 0.949 . S
C425 C426 1.349 . S
C425 C427 1.327 . S
C425 H448 0.950 . S
C426 C425 1.349 . S
C426 C438 1.349 . S
C427 C425 1.327 . S
C427 C443 1.429 . S
C427 H449 0.950 . S
C428 H424 0.949 . S
C428 C436 1.574 . S
C428 C444 1.368 . S
H429 C437 0.950 . S
H430 C435 0.950 . S
H431 C436 0.949 . S
H432 C438 0.950 . S
H433 C439 0.950 . S
H434 C440 0.949 . S
C435 H430 0.950 . S
C435 C437 1.327 . S
C435 C441 1.429 . S
C436 C428 1.574 . S
C436 H431 0.949 . S
C436 C442 1.368 . S
C437 C421 1.349 . S
C437 H429 0.950 . S
C437 C435 1.327 . S
C438 C426 1.349 . S
C438 H432 0.950 . S
C438 C439 1.327 . S
C439 H433 0.950 . S
C439 C438 1.327 . S
C439 C443 1.429 . S
C440 C423 1.574 . S
C440 H434 0.949 . S
C440 C444 1.368 . S
C441 C422 1.429 . S
C441 C435 1.429 . S
C441 C442 1.523 . S
C442 C423 1.368 . S
C442 C436 1.368 . S
C442 C441 1.523 . S
C443 C427 1.429 . S
C443 C439 1.429 . S
C443 C444 1.523 . S
C444 C428 1.368 . S
C444 C440 1.368 . S
C444 C443 1.523 . S
H445 C420 0.950 . S
H446 C422 0.950 . S
H447 C423 0.949 . S
H448 C425 0.950 . S
H449 C427 0.950 . S
C450 C451 1.349 . S
C450 C452 1.327 . S
C450 H475 0.950 . S
C451 C450 1.349 . S
C451 C467 1.349 . S
C452 C450 1.327 . S
C452 C471 1.429 . S
C452 H476 0.950 . S
C453 C470 1.574 . S
C453 C472 1.368 . S
C453 H477 0.949 . S
H454 C458 0.949 . S
C455 C456 1.349 1_556 S
C455 C457 1.327 . S
C455 H478 0.950 . S
C456 C455 1.349 1_554 S
C456 C468 1.349 1_554 S
C457 C455 1.327 . S
C457 C473 1.429 . S
C457 H479 0.950 . S
C458 H454 0.949 . S
C458 C466 1.574 . S
C458 C474 1.368 . S
H459 C467 0.950 . S
H460 C465 0.950 . S
H461 C466 0.949 . S
H462 C468 0.950 . S
H463 C469 0.950 . S
H464 C470 0.949 . S
C465 H460 0.950 . S
C465 C467 1.327 . S
C465 C471 1.429 . S
C466 C458 1.574 . S
C466 H461 0.949 . S
C466 C472 1.368 . S
C467 C451 1.349 . S
C467 H459 0.950 . S
C467 C465 1.327 . S
C468 C456 1.349 1_556 S
C468 H462 0.950 . S
C468 C469 1.327 . S
C469 H463 0.950 . S
C469 C468 1.327 . S
C469 C473 1.429 . S
C470 C453 1.574 . S
C470 H464 0.949 . S
C470 C474 1.368 . S
C471 C452 1.429 . S
C471 C465 1.429 . S
C471 C472 1.523 . S
C472 C453 1.368 . S
C472 C466 1.368 . S
C472 C471 1.523 . S
C473 C457 1.429 . S
C473 C469 1.429 . S
C473 C474 1.523 . S
C474 C458 1.368 . S
C474 C470 1.368 . S
C474 C473 1.523 . S
H475 C450 0.950 . S
H476 C452 0.950 . S
H477 C453 0.949 . S
H478 C455 0.950 . S
H479 C457 0.950 . S
C480 C481 1.349 1_545 S
C480 C482 1.327 . S
C480 H505 0.950 . S
C481 C480 1.349 1_565 S
C481 C497 1.349 . S
C482 C480 1.327 . S
C482 C501 1.429 1_545 S
C482 H506 0.950 . S
C483 C500 1.574 . S
C483 C502 1.368 . S
C483 H507 0.949 . S
H484 C488 0.949 . S
C485 C486 1.349 1_565 S
C485 C487 1.327 . S
C485 H508 0.950 . S
C486 C485 1.349 1_545 S
C486 C498 1.349 . S
C487 C485 1.327 . S
C487 C503 1.486 . S
C487 H509 0.950 . S
C488 H484 0.949 . S
C488 C496 1.574 . S
C488 C504 1.368 1_545 S
H489 C497 0.950 . S
H490 C495 0.950 . S
H491 C496 0.949 . S
H492 C498 0.950 . S
H493 C499 0.950 . S
H494 C500 0.949 . S
C495 H490 0.950 . S
C495 C497 1.327 . S
C495 C501 1.429 . S
C496 C488 1.574 . S
C496 H491 0.949 . S
C496 C502 1.368 1_545 S
C497 C481 1.349 . S
C497 H489 0.950 . S
C497 C495 1.327 . S
C498 C486 1.349 . S
C498 H492 0.950 . S
C498 C499 1.327 . S
C499 H493 0.950 . S
C499 C498 1.327 . S
C499 C503 1.365 1_545 S
C500 C483 1.574 . S
C500 H494 0.949 . S
C500 C504 1.368 . S
C501 C482 1.429 1_565 S
C501 C495 1.429 . S
C501 C502 1.523 . S
C502 C483 1.368 . S
C502 C496 1.368 1_565 S
C502 C501 1.523 . S
C503 C487 1.486 . S
C503 C499 1.365 1_565 S
C503 C504 1.531 . S
C504 C488 1.368 1_565 S
C504 C500 1.368 . S
C504 C503 1.531 . S
H505 C480 0.950 . S
H506 C482 0.950 . S
H507 C483 0.949 . S
H508 C485 0.950 . S
H509 C487 0.950 . S
C510 C511 1.349 . S
C510 C512 1.327 . S
C510 H535 0.950 . S
C511 C510 1.349 . S
C511 C527 1.349 . S
C512 C510 1.327 . S
C512 C531 1.429 . S
C512 H536 0.950 . S
C513 C530 1.574 . S
C513 C532 1.368 . S
C513 H537 0.949 . S
H514 C518 0.949 . S
C515 C516 1.349 . S
C515 C517 1.327 . S
C515 H538 0.950 . S
C516 C515 1.349 . S
C516 C528 1.349 . S
C517 C515 1.327 . S
C517 C533 1.429 . S
C517 H539 0.950 . S
C518 H514 0.949 . S
C518 C526 1.574 . S
C518 C534 1.368 . S
H519 C527 0.950 . S
H520 C525 0.950 . S
H521 C526 0.949 . S
H522 C528 0.950 . S
H523 C529 0.950 . S
H524 C530 0.949 . S
C525 H520 0.950 . S
C525 C527 1.327 . S
C525 C531 1.429 . S
C526 C518 1.574 . S
C526 H521 0.949 . S
C526 C532 1.368 . S
C527 C511 1.349 . S
C527 H519 0.950 . S
C527 C525 1.327 . S
C528 C516 1.349 . S
C528 H522 0.950 . S
C528 C529 1.327 . S
C529 H523 0.950 . S
C529 C528 1.327 . S
C529 C533 1.429 . S
C530 C513 1.574 . S
C530 H524 0.949 . S
C530 C534 1.368 . S
C531 C512 1.429 . S
C531 C525 1.429 . S
C531 C532 1.523 . S
C532 C513 1.368 . S
C532 C526 1.368 . S
C532 C531 1.523 . S
C533 C517 1.429 . S
C533 C529 1.429 . S
C533 C534 1.523 . S
C534 C518 1.368 . S
C534 C530 1.368 . S
C534 C533 1.523 . S
H535 C510 0.950 . S
H536 C512 0.950 . S
H537 C513 0.949 . S
H538 C515 0.950 . S
H539 C517 0.950 . S
C540 C541 1.349 . S
C540 C542 1.327 . S
C540 H565 0.950 . S
C541 C540 1.349 . S
C541 C557 1.349 . S
C542 C540 1.327 . S
C542 C561 1.429 . S
C542 H566 0.950 . S
C543 C560 1.574 . S
C543 C562 1.368 . S
C543 H567 0.949 . S
H544 C548 0.949 . S
C545 C546 1.349 . S
C545 C547 1.327 . S
C545 H568 0.950 . S
C546 C545 1.349 . S
C546 C558 1.349 . S
C547 C545 1.327 . S
C547 C563 1.429 1_556 S
C547 H569 0.950 . S
C548 H544 0.949 . S
C548 C556 1.574 . S
C548 C564 1.368 . S
H549 C557 0.950 . S
H550 C555 0.950 . S
H551 C556 0.949 . S
H552 C558 0.950 . S
H553 C559 0.950 1_554 S
H554 C560 0.949 . S
C555 H550 0.950 . S
C555 C557 1.327 . S
C555 C561 1.429 . S
C556 C548 1.574 . S
C556 H551 0.949 . S
C556 C562 1.368 . S
C557 C541 1.349 . S
C557 H549 0.950 . S
C557 C555 1.327 . S
C558 C546 1.349 . S
C558 H552 0.950 . S
C558 C559 1.327 . S
C559 H553 0.950 1_556 S
C559 C558 1.327 . S
C559 C563 1.429 1_556 S
C560 C543 1.574 . S
C560 H554 0.949 . S
C560 C564 1.368 . S
C561 C542 1.429 . S
C561 C555 1.429 . S
C561 C562 1.523 . S
C562 C543 1.368 . S
C562 C556 1.368 . S
C562 C561 1.523 . S
C563 C547 1.429 1_554 S
C563 C559 1.429 1_554 S
C563 C564 1.523 . S
C564 C548 1.368 . S
C564 C560 1.368 . S
C564 C563 1.523 . S
H565 C540 0.950 . S
H566 C542 0.950 . S
H567 C543 0.949 . S
H568 C545 0.950 . S
H569 C547 0.950 . S
C570 C571 1.349 . S
C570 C572 1.327 . S
C570 H595 0.950 . S
C571 C570 1.349 . S
C571 C587 1.349 1_655 S
C572 C570 1.327 . S
C572 C591 1.429 . S
C572 H596 0.950 . S
C573 C590 1.574 . S
C573 C592 1.368 1_455 S
C573 H597 0.949 . S
H574 C578 0.949 . S
C575 C576 1.349 . S
C575 C577 1.327 . S
C575 H598 0.950 . S
C576 C575 1.349 . S
C576 C588 1.349 1_455 S
C577 C575 1.327 . S
C577 C593 1.432 1_556 S
C577 H599 0.950 1_556 S
C578 H574 0.949 . S
C578 C586 1.574 . S
C578 C594 1.368 . S
H579 C587 0.950 . S
H580 C585 0.950 . S
H581 C586 0.949 . S
H582 C588 0.950 . S
H583 C589 0.950 . S
H584 C590 0.949 . S
C585 H580 0.950 . S
C585 C587 1.327 . S
C585 C591 1.429 1_455 S
C586 C578 1.574 . S
C586 H581 0.949 . S
C586 C592 1.368 . S
C587 C571 1.349 1_455 S
C587 H579 0.950 . S
C587 C585 1.327 . S
C588 C576 1.349 1_655 S
C588 H582 0.950 . S
C588 C589 1.327 . S
C589 H583 0.950 . S
C589 C588 1.327 . S
C589 C593 1.426 1_656 S
C590 C573 1.574 . S
C590 H584 0.949 . S
C590 C594 1.368 1_455 S
C591 C572 1.429 . S
C591 C585 1.429 1_655 S
C591 C592 1.523 . S
C592 C573 1.368 1_655 S
C592 C586 1.368 . S
C592 C591 1.523 . S
C593 C577 1.432 1_554 S
C593 C589 1.426 1_454 S
C593 C594 1.523 1_455 S
C594 C578 1.368 . S
C594 C590 1.368 1_655 S
C594 C593 1.523 1_655 S
H595 C570 0.950 . S
H596 C572 0.950 . S
H597 C573 0.949 . S
H598 C575 0.950 . S
H599 C577 0.950 1_554 S
C600 C601 1.349 1_655 S
C600 C602 1.327 . S
C600 H625 0.950 . S
C601 C600 1.349 1_455 S
C601 C617 1.349 . S
C602 C600 1.327 . S
C602 C621 1.422 1_655 S
C602 H626 0.950 . S
C603 C620 1.574 . S
C603 C622 1.368 1_455 S
C603 H627 0.949 . S
H604 C608 0.949 . S
C605 C606 1.349 1_455 S
C605 C607 1.327 . S
C605 H628 0.950 . S
C606 C605 1.349 1_655 S
C606 C618 1.349 . S
C607 C605 1.327 . S
C607 C623 1.429 1_456 S
C607 H629 0.950 . S
C608 H604 0.949 . S
C608 C616 1.574 . S
C608 C624 1.368 . S
H609 C617 0.950 . S
H610 C615 0.950 . S
H611 C616 0.949 . S
H612 C618 0.950 . S
H613 C619 0.950 1_554 S
H614 C620 0.949 . S
C615 H610 0.950 . S
C615 C617 1.327 . S
C615 C621 1.439 . S
C616 C608 1.574 . S
C616 H611 0.949 . S
C616 C622 1.368 . S
C617 C601 1.349 . S
C617 H609 0.950 . S
C617 C615 1.327 . S
C618 C606 1.349 . S
C618 H612 0.950 . S
C618 C619 1.327 . S
C619 H613 0.950 1_556 S
C619 C618 1.327 . S
C619 C623 1.429 1_556 S
C620 C603 1.574 . S
C620 H614 0.949 . S
C620 C624 1.368 1_455 S
C621 C602 1.422 1_455 S
C621 C615 1.439 . S
C621 C622 1.520 1_455 S
C622 C603 1.368 1_655 S
C622 C616 1.368 . S
C622 C621 1.520 1_655 S
C623 C607 1.429 1_654 S
C623 C619 1.429 1_554 S
C623 C624 1.523 . S
C624 C608 1.368 . S
C624 C620 1.368 1_655 S
C624 C623 1.523 . S
H625 C600 0.950 . S
H626 C602 0.950 . S
H627 C603 0.949 . S
H628 C605 0.950 . S
H629 C607 0.950 . S
C630 C631 1.349 . S
C630 C632 1.327 . S
C630 H655 0.950 . S
C631 C630 1.349 . S
C631 C647 1.349 . S
C632 C630 1.327 . S
C632 C651 1.429 . S
C632 H656 0.950 . S
C633 C650 1.574 . S
C633 C652 1.368 . S
C633 H657 0.949 . S
H634 C638 0.949 . S
C635 C636 1.349 . S
C635 C637 1.327 . S
C635 H658 0.950 . S
C636 C635 1.349 . S
C636 C648 1.349 . S
C637 C635 1.327 . S
C637 C653 1.429 . S
C637 H659 0.950 . S
C638 H634 0.949 . S
C638 C646 1.574 . S
C638 C654 1.368 . S
H639 C647 0.950 . S
H640 C645 0.950 . S
H641 C646 0.949 . S
H642 C648 0.950 . S
H643 C649 0.950 . S
H644 C650 0.949 . S
C645 H640 0.950 . S
C645 C647 1.327 . S
C645 C651 1.429 . S
C646 C638 1.574 . S
C646 H641 0.949 . S
C646 C652 1.368 . S
C647 C631 1.349 . S
C647 H639 0.950 . S
C647 C645 1.327 . S
C648 C636 1.349 . S
C648 H642 0.950 . S
C648 C649 1.327 . S
C649 H643 0.950 . S
C649 C648 1.327 . S
C649 C653 1.429 . S
C650 C633 1.574 . S
C650 H644 0.949 . S
C650 C654 1.368 . S
C651 C632 1.429 . S
C651 C645 1.429 . S
C651 C652 1.523 . S
C652 C633 1.368 . S
C652 C646 1.368 . S
C652 C651 1.523 . S
C653 C637 1.429 . S
C653 C649 1.429 . S
C653 C654 1.523 . S
C654 C638 1.368 . S
C654 C650 1.368 . S
C654 C653 1.523 . S
H655 C630 0.950 . S
H656 C632 0.950 . S
H657 C633 0.949 . S
H658 C635 0.950 . S
H659 C637 0.950 . S
C660 C661 1.349 . S
C660 C662 1.327 . S
C660 H685 0.950 . S
C661 C660 1.349 . S
C661 C677 1.349 . S
C662 C660 1.327 . S
C662 C681 1.429 . S
C662 H686 0.950 . S
C663 C680 1.574 . S
C663 C682 1.368 . S
C663 H687 0.949 . S
H664 C668 0.949 . S
C665 C666 1.349 . S
C665 C667 1.327 . S
C665 H688 0.950 . S
C666 C665 1.349 . S
C666 C678 1.349 . S
C667 C665 1.327 . S
C667 C683 1.429 . S
C667 H689 0.950 . S
C668 H664 0.949 . S
C668 C676 1.574 . S
C668 C684 1.368 . S
H669 C677 0.950 . S
H670 C675 0.950 . S
H671 C676 0.949 . S
H672 C678 0.950 . S
H673 C679 0.950 . S
H674 C680 0.949 . S
C675 H670 0.950 . S
C675 C677 1.327 . S
C675 C681 1.429 . S
C676 C668 1.574 . S
C676 H671 0.949 . S
C676 C682 1.368 . S
C677 C661 1.349 . S
C677 H669 0.950 . S
C677 C675 1.327 . S
C678 C666 1.349 . S
C678 H672 0.950 . S
C678 C679 1.327 . S
C679 H673 0.950 . S
C679 C678 1.327 . S
C679 C683 1.429 . S
C680 C663 1.574 . S
C680 H674 0.949 . S
C680 C684 1.368 . S
C681 C662 1.429 . S
C681 C675 1.429 . S
C681 C682 1.523 . S
C682 C663 1.368 . S
C682 C676 1.368 . S
C682 C681 1.523 . S
C683 C667 1.429 . S
C683 C679 1.429 . S
C683 C684 1.523 . S
C684 C668 1.368 . S
C684 C680 1.368 . S
C684 C683 1.523 . S
H685 C660 0.950 . S
H686 C662 0.950 . S
H687 C663 0.949 . S
H688 C665 0.950 . S
H689 C667 0.950 . S
C690 C691 1.349 . S
C690 C692 1.327 . S
C690 H715 0.950 . S
C691 C690 1.349 . S
C691 C707 1.349 . S
C692 C690 1.327 . S
C692 C711 1.429 . S
C692 H716 0.950 . S
C693 C710 1.574 . S
C693 C712 1.368 . S
C693 H717 0.949 . S
H694 C698 0.949 . S
C695 C696 1.349 . S
C695 C697 1.327 . S
C695 H718 0.950 . S
C696 C695 1.349 . S
C696 C708 1.349 . S
C697 C695 1.327 . S
C697 C713 1.429 . S
C697 H719 0.950 . S
C698 H694 0.949 . S
C698 C706 1.574 . S
C698 C714 1.368 . S
H699 C707 0.950 . S
H700 C705 0.950 . S
H701 C706 0.949 . S
H702 C708 0.950 . S
H703 C709 0.950 . S
H704 C710 0.949 . S
C705 H700 0.950 . S
C705 C707 1.327 . S
C705 C711 1.429 . S
C706 C698 1.574 . S
C706 H701 0.949 . S
C706 C712 1.368 . S
C707 C691 1.349 . S
C707 H699 0.950 . S
C707 C705 1.327 . S
C708 C696 1.349 . S
C708 H702 0.950 . S
C708 C709 1.327 . S
C709 H703 0.950 . S
C709 C708 1.327 . S
C709 C713 1.429 . S
C710 C693 1.574 . S
C710 H704 0.949 . S
C710 C714 1.368 . S
C711 C692 1.429 . S
C711 C705 1.429 . S
C711 C712 1.523 . S
C712 C693 1.368 . S
C712 C706 1.368 . S
C712 C711 1.523 . S
C713 C697 1.429 . S
C713 C709 1.429 . S
C713 C714 1.523 . S
C714 C698 1.368 . S
C714 C710 1.368 . S
C714 C713 1.523 . S
H715 C690 0.950 . S
H716 C692 0.950 . S
H717 C693 0.949 . S
H718 C695 0.950 . S
H719 C697 0.950 . S
C720 C721 1.349 . S
C720 C722 1.327 . S
C720 H745 0.950 . S
C721 C720 1.349 . S
C721 C737 1.349 . S
C722 C720 1.327 . S
C722 C741 1.429 . S
C722 H746 0.950 . S
C723 C740 1.574 . S
C723 C742 1.368 . S
C723 H747 0.949 . S
H724 C728 0.949 . S
C725 C726 1.349 . S
C725 C727 1.327 . S
C725 H748 0.950 . S
C726 C725 1.349 . S
C726 C738 1.349 . S
C727 C725 1.327 . S
C727 C743 1.429 . S
C727 H749 0.950 1_556 S
C728 H724 0.949 . S
C728 C736 1.574 1_556 S
C728 C744 1.368 1_556 S
H729 C737 0.950 . S
H730 C735 0.950 . S
H731 C736 0.949 . S
H732 C738 0.950 . S
H733 C739 0.950 . S
H734 C740 0.949 . S
C735 H730 0.950 . S
C735 C737 1.327 . S
C735 C741 1.429 . S
C736 C728 1.574 1_554 S
C736 H731 0.949 . S
C736 C742 1.368 . S
C737 C721 1.349 . S
C737 H729 0.950 . S
C737 C735 1.327 . S
C738 C726 1.349 . S
C738 H732 0.950 . S
C738 C739 1.327 . S
C739 H733 0.950 . S
C739 C738 1.327 . S
C739 C743 1.429 . S
C740 C723 1.574 . S
C740 H734 0.949 . S
C740 C744 1.368 . S
C741 C722 1.429 . S
C741 C735 1.429 . S
C741 C742 1.523 . S
C742 C723 1.368 . S
C742 C736 1.368 . S
C742 C741 1.523 . S
C743 C727 1.429 . S
C743 C739 1.429 . S
C743 C744 1.523 1_556 S
C744 C728 1.368 1_554 S
C744 C740 1.368 . S
C744 C743 1.523 1_554 S
H745 C720 0.950 . S
H746 C722 0.950 . S
H747 C723 0.949 . S
H748 C725 0.950 . S
H749 C727 0.950 1_554 S
C750 C751 1.349 1_655 S
C750 C752 1.327 . S
C750 H775 0.950 . S
C751 C750 1.349 1_455 S
C751 C767 1.349 . S
C752 C750 1.327 . S
C752 C771 1.429 1_655 S
C752 H776 0.950 1_556 S
C753 C770 1.574 1_556 S
C753 C772 1.368 . S
C753 H777 0.949 . S
H754 C758 0.949 . S
C755 C756 1.349 . S
C755 C757 1.327 . S
C755 H778 0.950 . S
C756 C755 1.349 . S
C756 C768 1.349 . S
C757 C755 1.327 . S
C757 C773 1.429 . S
C757 H779 0.950 . S
C758 H754 0.949 . S
C758 C766 1.574 . S
C758 C774 1.368 1_655 S
H759 C767 0.950 . S
H760 C765 0.950 . S
H761 C766 0.949 . S
H762 C768 0.950 1_655 S
H763 C769 0.950 1_655 S
H764 C770 0.949 1_556 S
C765 H760 0.950 . S
C765 C767 1.327 . S
C765 C771 1.429 . S
C766 C758 1.574 . S
C766 H761 0.949 . S
C766 C772 1.368 1_654 S
C767 C751 1.349 . S
C767 H759 0.950 . S
C767 C765 1.327 . S
C768 C756 1.349 . S
C768 H762 0.950 1_455 S
C768 C769 1.327 . S
C769 H763 0.950 1_455 S
C769 C768 1.327 . S
C769 C773 1.429 . S
C770 C753 1.574 1_554 S
C770 H764 0.949 1_554 S
C770 C774 1.368 . S
C771 C752 1.429 1_455 S
C771 C765 1.429 . S
C771 C772 1.523 . S
C772 C753 1.368 . S
C772 C766 1.368 1_456 S
C772 C771 1.523 . S
C773 C757 1.429 . S
C773 C769 1.429 . S
C773 C774 1.523 . S
C774 C758 1.368 1_455 S
C774 C770 1.368 . S
C774 C773 1.523 . S
H775 C750 0.950 . S
H776 C752 0.950 1_554 S
H777 C753 0.949 . S
H778 C755 0.950 . S
H779 C757 0.950 . S
C780 C781 1.351 . S
C780 C782 1.327 1_556 S
C780 H805 0.948 1_556 S
C781 C780 1.351 . S
C781 C797 1.349 . S
C782 C780 1.327 1_554 S
C782 C801 1.429 1_554 S
C782 H806 0.950 . S
C783 C800 1.574 . S
C783 C802 1.368 . S
C783 H807 0.949 . S
H784 C788 0.949 . S
C785 C786 1.349 . S
C785 C787 1.327 . S
C785 H808 0.950 1_554 S
C786 C785 1.349 . S
C786 C798 1.349 . S
C787 C785 1.327 . S
C787 C803 1.429 . S
C787 H809 0.950 1_554 S
C788 H784 0.949 . S
C788 C796 1.574 . S
C788 C804 1.368 . S
H789 C797 0.950 . S
H790 C795 0.950 . S
H791 C796 0.949 . S
H792 C798 0.950 . S
H793 C799 0.950 . S
H794 C800 0.949 . S
C795 H790 0.950 . S
C795 C797 1.327 . S
C795 C801 1.429 . S
C796 C788 1.574 . S
C796 H791 0.949 . S
C796 C802 1.368 1_554 S
C797 C781 1.349 . S
C797 H789 0.950 . S
C797 C795 1.327 . S
C798 C786 1.349 . S
C798 H792 0.950 . S
C798 C799 1.327 . S
C799 H793 0.950 . S
C799 C798 1.327 . S
C799 C803 1.429 . S
C800 C783 1.574 . S
C800 H794 0.949 . S
C800 C804 1.368 1_556 S
C801 C782 1.429 1_556 S
C801 C795 1.429 . S
C801 C802 1.523 . S
C802 C783 1.368 . S
C802 C796 1.368 1_556 S
C802 C801 1.523 . S
C803 C787 1.429 . S
C803 C799 1.429 . S
C803 C804 1.523 . S
C804 C788 1.368 . S
C804 C800 1.368 1_554 S
C804 C803 1.523 . S
H805 C780 0.948 1_554 S
H806 C782 0.950 . S
H807 C783 0.949 . S
H808 C785 0.950 1_556 S
H809 C787 0.950 1_556 S
C810 C811 1.349 . S
C810 C812 1.327 . S
C810 H835 0.950 1_455 S
C811 C810 1.349 . S
C811 C827 1.349 . S
C812 C810 1.327 . S
C812 C831 1.429 . S
C812 H836 0.959 . S
C813 C830 1.574 . S
C813 C832 1.368 . S
C813 H837 0.949 . S
H814 C818 0.949 1_554 S
C815 C816 1.349 . S
C815 C817 1.327 1_554 S
C815 H838 0.950 1_554 S
C816 C815 1.349 . S
C816 C828 1.349 . S
C817 C815 1.327 1_556 S
C817 C833 1.429 . S
C817 H839 0.950 . S
C818 H814 0.949 1_556 S
C818 C826 1.574 . S
C818 C834 1.368 . S
H819 C827 0.950 . S
H820 C825 0.950 . S
H821 C826 0.949 . S
H822 C828 0.950 . S
H823 C829 0.950 . S
H824 C830 0.949 . S
C825 H820 0.950 . S
C825 C827 1.327 . S
C825 C831 1.429 . S
C826 C818 1.574 . S
C826 H821 0.949 . S
C826 C832 1.368 . S
C827 C811 1.349 . S
C827 H819 0.950 . S
C827 C825 1.327 . S
C828 C816 1.349 . S
C828 H822 0.950 . S
C828 C829 1.327 . S
C829 H823 0.950 . S
C829 C828 1.327 . S
C829 C833 1.429 1_554 S
C830 C813 1.574 . S
C830 H824 0.949 . S
C830 C834 1.368 . S
C831 C812 1.429 . S
C831 C825 1.429 . S
C831 C832 1.523 . S
C832 C813 1.368 . S
C832 C826 1.368 . S
C832 C831 1.523 . S
C833 C817 1.429 . S
C833 C829 1.429 1_556 S
C833 C834 1.523 . S
C834 C818 1.368 . S
C834 C830 1.368 . S
C834 C833 1.523 . S
H835 C810 0.950 1_655 S
H836 C812 0.959 . S
H837 C813 0.949 . S
H838 C815 0.950 1_556 S
H839 C817 0.950 . S
C840 C841 1.349 . S
C840 C842 1.327 . S
C840 H865 0.950 . S
C841 C840 1.349 . S
C841 C857 1.349 . S
C842 C840 1.327 . S
C842 C861 1.429 . S
C842 H866 0.950 . S
C843 C860 1.574 . S
C843 C862 1.368 . S
C843 H867 0.949 . S
H844 C848 0.949 . S
C845 C846 1.349 . S
C845 C847 1.327 . S
C845 H868 0.950 . S
C846 C845 1.349 . S
C846 C858 1.349 . S
C847 C845 1.327 . S
C847 C863 1.429 . S
C847 H869 0.950 . S
C848 H844 0.949 . S
C848 C856 1.574 . S
C848 C864 1.368 . S
H849 C857 0.950 . S
H850 C855 0.950 . S
H851 C856 0.949 . S
H852 C858 0.950 . S
H853 C859 0.950 . S
H854 C860 0.949 . S
C855 H850 0.950 . S
C855 C857 1.327 . S
C855 C861 1.429 . S
C856 C848 1.574 . S
C856 H851 0.949 . S
C856 C862 1.368 . S
C857 C841 1.349 . S
C857 H849 0.950 . S
C857 C855 1.327 . S
C858 C846 1.349 . S
C858 H852 0.950 . S
C858 C859 1.327 . S
C859 H853 0.950 . S
C859 C858 1.327 . S
C859 C863 1.429 . S
C860 C843 1.574 . S
C860 H854 0.949 . S
C860 C864 1.368 . S
C861 C842 1.429 . S
C861 C855 1.429 . S
C861 C862 1.523 1_554 S
C862 C843 1.368 . S
C862 C856 1.368 . S
C862 C861 1.523 1_556 S
C863 C847 1.429 . S
C863 C859 1.429 . S
C863 C864 1.523 . S
C864 C848 1.368 . S
C864 C860 1.368 . S
C864 C863 1.523 . S
H865 C840 0.950 . S
H866 C842 0.950 . S
H867 C843 0.949 . S
H868 C845 0.950 . S
H869 C847 0.950 . S
C870 C871 1.349 . S
C870 C872 1.327 . S
C870 H895 0.950 . S
C871 C870 1.349 . S
C871 C887 1.349 . S
C872 C870 1.327 . S
C872 C891 1.429 . S
C872 H896 0.950 . S
C873 C890 1.574 . S
C873 C892 1.368 . S
C873 H897 0.949 . S
H874 C878 0.949 . S
C875 C876 1.349 . S
C875 C877 1.327 . S
C875 H898 0.950 . S
C876 C875 1.349 . S
C876 C888 1.349 . S
C877 C875 1.327 . S
C877 C893 1.429 . S
C877 H899 0.950 . S
C878 H874 0.949 . S
C878 C886 1.574 . S
C878 C894 1.368 . S
H879 C887 0.950 . S
H880 C885 0.950 . S
H881 C886 0.949 . S
H882 C888 0.950 . S
H883 C889 0.950 . S
H884 C890 0.949 . S
C885 H880 0.950 . S
C885 C887 1.327 . S
C885 C891 1.429 . S
C886 C878 1.574 . S
C886 H881 0.949 . S
C886 C892 1.368 . S
C887 C871 1.349 . S
C887 H879 0.950 . S
C887 C885 1.327 . S
C888 C876 1.349 . S
C888 H882 0.950 . S
C888 C889 1.327 . S
C889 H883 0.950 . S
C889 C888 1.327 . S
C889 C893 1.429 . S
C890 C873 1.574 . S
C890 H884 0.949 . S
C890 C894 1.368 . S
C891 C872 1.429 . S
C891 C885 1.429 . S
C891 C892 1.523 . S
C892 C873 1.368 . S
C892 C886 1.368 . S
C892 C891 1.523 . S
C893 C877 1.429 . S
C893 C889 1.429 . S
C893 C894 1.523 1_554 S
C894 C878 1.368 . S
C894 C890 1.368 . S
C894 C893 1.523 1_556 S
H895 C870 0.950 . S
H896 C872 0.950 . S
H897 C873 0.949 . S
H898 C875 0.950 . S
H899 C877 0.950 . S
C900 C901 1.349 . S
C900 C902 1.327 . S
C900 H925 0.950 . S
C901 C900 1.349 . S
C901 C917 1.349 . S
C902 C900 1.327 . S
C902 C921 1.429 . S
C902 H926 0.950 . S
C903 C920 1.642 . S
C903 C922 1.368 . S
C903 H927 0.949 . S
H904 C908 0.949 . S
C905 C906 1.349 . S
C905 C907 1.327 . S
C905 H928 0.950 . S
C906 C905 1.349 . S
C906 C918 1.349 . S
C907 C905 1.327 . S
C907 C923 1.429 . S
C907 H929 0.950 . S
C908 H904 0.949 . S
C908 C916 1.574 . S
C908 C924 1.368 . S
H909 C917 0.950 . S
H910 C915 0.950 . S
H911 C916 0.949 . S
H912 C918 0.950 . S
H913 C919 0.983 . S
H914 C920 0.904 1_565 S
C915 H910 0.950 . S
C915 C917 1.327 . S
C915 C921 1.429 . S
C916 C908 1.574 . S
C916 H911 0.949 . S
C916 C922 1.368 . S
C917 C901 1.349 . S
C917 H909 0.950 . S
C917 C915 1.327 . S
C918 C906 1.349 . S
C918 H912 0.950 . S
C918 C919 1.327 . S
C919 H913 0.983 . S
C919 C918 1.327 . S
C919 C923 1.429 . S
C920 C903 1.642 . S
C920 H914 0.904 1_545 S
C920 C924 1.354 . S
C921 C902 1.429 . S
C921 C915 1.429 . S
C921 C922 1.523 . S
C922 C903 1.368 . S
C922 C916 1.368 . S
C922 C921 1.523 . S
C923 C907 1.429 . S
C923 C919 1.429 . S
C923 C924 1.523 1_565 S
C924 C908 1.368 . S
C924 C920 1.354 . S
C924 C923 1.523 1_545 S
H925 C900 0.950 . S
H926 C902 0.950 . S
H927 C903 0.949 . S
H928 C905 0.950 . S
H929 C907 0.950 . S
C930 C931 1.349 . S
C930 C932 1.327 . S
C930 H955 0.950 . S
C931 C930 1.349 . S
C931 C947 1.349 . S
C932 C930 1.327 . S
C932 C951 1.429 . S
C932 H956 0.950 . S
C933 C950 1.574 . S
C933 C952 1.368 . S
C933 H957 0.949 . S
H934 C938 0.949 . S
C935 C936 1.349 . S
C935 C937 1.327 . S
C935 H958 0.950 . S
C936 C935 1.349 . S
C936 C948 1.349 . S
C937 C935 1.327 . S
C937 C953 1.429 . S
C937 H959 0.950 . S
C938 H934 0.949 . S
C938 C946 1.574 . S
C938 C954 1.368 . S
H939 C947 0.950 . S
H940 C945 0.950 . S
H941 C946 0.949 . S
H942 C948 0.950 . S
H943 C949 0.950 . S
H944 C950 0.949 . S
C945 H940 0.950 . S
C945 C947 1.327 . S
C945 C951 1.429 . S
C946 C938 1.574 . S
C946 H941 0.949 . S
C946 C952 1.368 . S
C947 C931 1.349 . S
C947 H939 0.950 . S
C947 C945 1.327 . S
C948 C936 1.349 . S
C948 H942 0.950 . S
C948 C949 1.327 . S
C949 H943 0.950 . S
C949 C948 1.327 . S
C949 C953 1.429 . S
C950 C933 1.574 . S
C950 H944 0.949 . S
C950 C954 1.368 . S
C951 C932 1.429 . S
C951 C945 1.429 . S
C951 C952 1.523 . S
C952 C933 1.368 . S
C952 C946 1.368 . S
C952 C951 1.523 . S
C953 C937 1.429 . S
C953 C949 1.429 . S
C953 C954 1.523 . S
C954 C938 1.368 . S
C954 C950 1.368 . S
C954 C953 1.523 . S
H955 C930 0.950 . S
H956 C932 0.950 . S
H957 C933 0.949 . S
H958 C935 0.950 . S
H959 C937 0.950 . S
C960 C961 1.349 . S
C960 C962 1.327 . S
C960 H985 0.950 . S
C961 C960 1.349 . S
C961 C977 1.349 . S
C962 C960 1.327 . S
C962 C981 1.429 . S
C962 H986 0.950 . S
C963 C980 1.574 . S
C963 C982 1.368 . S
C963 H987 0.949 . S
H964 C968 0.949 . S
C965 C966 1.349 . S
C965 C967 1.327 . S
C965 H988 0.950 . S
C966 C965 1.349 . S
C966 C978 1.349 . S
C967 C965 1.327 . S
C967 C983 1.429 . S
C967 H989 0.950 . S
C968 H964 0.949 . S
C968 C976 1.574 . S
C968 C984 1.368 . S
H969 C977 0.950 . S
H970 C975 0.950 . S
H971 C976 0.949 . S
H972 C978 0.950 . S
H973 C979 0.950 . S
H974 C980 0.949 . S
C975 H970 0.950 . S
C975 C977 1.327 . S
C975 C981 1.429 . S
C976 C968 1.574 . S
C976 H971 0.949 . S
C976 C982 1.368 . S
C977 C961 1.349 . S
C977 H969 0.950 . S
C977 C975 1.327 . S
C978 C966 1.349 . S
C978 H972 0.950 . S
C978 C979 1.327 . S
C979 H973 0.950 . S
C979 C978 1.327 . S
C979 C983 1.429 . S
C980 C963 1.574 . S
C980 H974 0.949 . S
C980 C984 1.368 . S
C981 C962 1.429 . S
C981 C975 1.429 . S
C981 C982 1.523 . S
C982 C963 1.368 . S
C982 C976 1.368 . S
C982 C981 1.523 . S
C983 C967 1.429 . S
C983 C979 1.429 . S
C983 C984 1.523 . S
C984 C968 1.368 . S
C984 C980 1.368 . S
C984 C983 1.523 . S
H985 C960 0.950 . S
H986 C962 0.950 . S
H987 C963 0.949 . S
H988 C965 0.950 . S
H989 C967 0.950 . S
C990 C991 1.349 . S
C990 C992 1.327 . S
C990 H1015 0.950 . S
C991 C990 1.349 . S
C991 C1007 1.349 . S
C992 C990 1.327 . S
C992 C1011 1.429 . S
C992 H1016 0.950 . S
C993 C1010 1.574 . S
C993 C1012 1.368 . S
C993 H1017 0.949 . S
H994 C998 0.949 . S
C995 C996 1.349 . S
C995 C997 1.327 . S
C995 H1018 0.950 . S
C996 C995 1.349 . S
C996 C1008 1.349 . S
C997 C995 1.327 . S
C997 C1013 1.429 . S
C997 H1019 0.950 . S
C998 H994 0.949 . S
C998 C1006 1.574 . S
C998 C1014 1.368 . S
H999 C1007 0.950 . S
H1000 C1005 0.950 . S
H1001 C1006 0.949 . S
H1002 C1008 0.950 . S
H1003 C1009 0.950 . S
H1004 C1010 0.949 . S
C1005 H1000 0.950 . S
C1005 C1007 1.327 . S
C1005 C1011 1.429 . S
C1006 C998 1.574 . S
C1006 H1001 0.949 . S
C1006 C1012 1.368 . S
C1007 C991 1.349 . S
C1007 H999 0.950 . S
C1007 C1005 1.327 . S
C1008 C996 1.349 . S
C1008 H1002 0.950 . S
C1008 C1009 1.327 . S
C1009 H1003 0.950 . S
C1009 C1008 1.327 . S
C1009 C1013 1.429 . S
C1010 C993 1.574 . S
C1010 H1004 0.949 . S
C1010 C1014 1.368 . S
C1011 C992 1.429 . S
C1011 C1005 1.429 . S
C1011 C1012 1.523 . S
C1012 C993 1.368 . S
C1012 C1006 1.368 . S
C1012 C1011 1.523 . S
C1013 C997 1.429 . S
C1013 C1009 1.429 . S
C1013 C1014 1.523 . S
C1014 C998 1.368 . S
C1014 C1010 1.368 . S
C1014 C1013 1.523 . S
H1015 C990 0.950 . S
H1016 C992 0.950 . S
H1017 C993 0.949 . S
H1018 C995 0.950 . S
H1019 C997 0.950 . S
C1020 C1021 1.349 . S
C1020 C1022 1.327 . S
C1020 H1045 0.950 . S
C1021 C1020 1.349 . S
C1021 C1037 1.349 . S
C1022 C1020 1.327 . S
C1022 C1041 1.429 . S
C1022 H1046 0.950 . S
C1023 C1040 1.574 . S
C1023 C1042 1.368 . S
C1023 H1047 0.949 . S
H1024 C1028 0.949 . S
C1025 C1026 1.349 . S
C1025 C1027 1.327 . S
C1025 H1048 0.950 . S
C1026 C1025 1.349 . S
C1026 C1038 1.349 . S
C1027 C1025 1.327 . S
C1027 C1043 1.429 . S
C1027 H1049 0.950 . S
C1028 H1024 0.949 . S
C1028 C1036 1.574 . S
C1028 C1044 1.368 . S
H1029 C1037 0.950 . S
H1030 C1035 0.950 . S
H1031 C1036 0.949 . S
H1032 C1038 0.950 . S
H1033 C1039 0.950 . S
H1034 C1040 0.949 . S
C1035 H1030 0.950 . S
C1035 C1037 1.327 . S
C1035 C1041 1.429 . S
C1036 C1028 1.574 . S
C1036 H1031 0.949 . S
C1036 C1042 1.368 . S
C1037 C1021 1.349 . S
C1037 H1029 0.950 . S
C1037 C1035 1.327 . S
C1038 C1026 1.349 . S
C1038 H1032 0.950 . S
C1038 C1039 1.327 . S
C1039 H1033 0.950 . S
C1039 C1038 1.327 . S
C1039 C1043 1.429 . S
C1040 C1023 1.574 . S
C1040 H1034 0.949 . S
C1040 C1044 1.368 . S
C1041 C1022 1.429 . S
C1041 C1035 1.429 . S
C1041 C1042 1.523 . S
C1042 C1023 1.368 . S
C1042 C1036 1.368 . S
C1042 C1041 1.523 . S
C1043 C1027 1.429 . S
C1043 C1039 1.429 . S
C1043 C1044 1.523 . S
C1044 C1028 1.368 . S
C1044 C1040 1.368 . S
C1044 C1043 1.523 . S
H1045 C1020 0.950 . S
H1046 C1022 0.950 . S
H1047 C1023 0.949 . S
H1048 C1025 0.950 . S
H1049 C1027 0.950 . S
C1050 C1051 1.349 . S
C1050 C1052 1.327 . S
C1050 H1075 0.950 . S
C1051 C1050 1.349 . S
C1051 C1067 1.349 . S
C1052 C1050 1.327 . S
C1052 C1071 1.429 . S
C1052 H1076 0.950 . S
C1053 C1070 1.574 . S
C1053 C1072 1.368 . S
C1053 H1077 0.949 . S
H1054 C1058 0.949 . S
C1055 C1056 1.349 . S
C1055 C1057 1.327 . S
C1055 H1078 0.950 . S
C1056 C1055 1.349 . S
C1056 C1068 1.349 . S
C1057 C1055 1.327 . S
C1057 C1073 1.429 . S
C1057 H1079 0.950 . S
C1058 H1054 0.949 . S
C1058 C1066 1.574 . S
C1058 C1074 1.368 . S
H1059 C1067 0.950 . S
H1060 C1065 0.950 . S
H1061 C1066 0.949 . S
H1062 C1068 0.950 . S
H1063 C1069 0.950 . S
H1064 C1070 0.949 . S
C1065 H1060 0.950 . S
C1065 C1067 1.327 . S
C1065 C1071 1.429 . S
C1066 C1058 1.574 . S
C1066 H1061 0.949 . S
C1066 C1072 1.368 . S
C1067 C1051 1.349 . S
C1067 H1059 0.950 . S
C1067 C1065 1.327 . S
C1068 C1056 1.349 . S
C1068 H1062 0.950 . S
C1068 C1069 1.327 . S
C1069 H1063 0.950 . S
C1069 C1068 1.327 . S
C1069 C1073 1.429 . S
C1070 C1053 1.574 . S
C1070 H1064 0.949 . S
C1070 C1074 1.368 . S
C1071 C1052 1.429 . S
C1071 C1065 1.429 . S
C1071 C1072 1.523 . S
C1072 C1053 1.368 . S
C1072 C1066 1.368 . S
C1072 C1071 1.523 . S
C1073 C1057 1.429 . S
C1073 C1069 1.429 . S
C1073 C1074 1.523 . S
C1074 C1058 1.368 . S
C1074 C1070 1.368 . S
C1074 C1073 1.523 . S
H1075 C1050 0.950 . S
H1076 C1052 0.950 . S
H1077 C1053 0.949 . S
H1078 C1055 0.950 . S
H1079 C1057 0.950 . S
C1080 C1081 1.349 . S
C1080 C1082 1.327 . S
C1080 H1105 0.950 . S
C1081 C1080 1.349 . S
C1081 C1097 1.349 . S
C1082 C1080 1.327 . S
C1082 C1101 1.429 . S
C1082 H1106 0.950 . S
C1083 C1100 1.574 . S
C1083 C1102 1.368 . S
C1083 H1107 0.949 . S
H1084 C1088 0.949 . S
C1085 C1086 1.349 . S
C1085 C1087 1.327 . S
C1085 H1108 0.950 . S
C1086 C1085 1.349 . S
C1086 C1098 1.349 . S
C1087 C1085 1.327 . S
C1087 C1103 1.429 . S
C1087 H1109 0.950 . S
C1088 H1084 0.949 . S
C1088 C1096 1.574 . S
C1088 C1104 1.368 . S
H1089 C1097 0.950 . S
H1090 C1095 0.950 . S
H1091 C1096 0.949 . S
H1092 C1098 0.950 . S
H1093 C1099 0.950 . S
H1094 C1100 0.949 . S
C1095 H1090 0.950 . S
C1095 C1097 1.327 . S
C1095 C1101 1.429 . S
C1096 C1088 1.574 . S
C1096 H1091 0.949 . S
C1096 C1102 1.368 . S
C1097 C1081 1.349 . S
C1097 H1089 0.950 . S
C1097 C1095 1.327 . S
C1098 C1086 1.349 . S
C1098 H1092 0.950 . S
C1098 C1099 1.327 . S
C1099 H1093 0.950 . S
C1099 C1098 1.327 . S
C1099 C1103 1.429 . S
C1100 C1083 1.574 . S
C1100 H1094 0.949 . S
C1100 C1104 1.368 . S
C1101 C1082 1.429 . S
C1101 C1095 1.429 . S
C1101 C1102 1.523 . S
C1102 C1083 1.368 . S
C1102 C1096 1.368 . S
C1102 C1101 1.523 . S
C1103 C1087 1.429 . S
C1103 C1099 1.429 . S
C1103 C1104 1.523 . S
C1104 C1088 1.368 . S
C1104 C1100 1.368 . S
C1104 C1103 1.523 . S
H1105 C1080 0.950 . S
H1106 C1082 0.950 . S
H1107 C1083 0.949 . S
H1108 C1085 0.950 . S
H1109 C1087 0.950 . S
C1110 C1111 1.349 . S
C1110 C1112 1.327 . S
C1110 H1135 0.950 . S
C1111 C1110 1.349 . S
C1111 C1127 1.349 . S
C1112 C1110 1.327 . S
C1112 C1131 1.429 . S
C1112 H1136 0.950 . S
C1113 C1130 1.574 . S
C1113 C1132 1.368 . S
C1113 H1137 0.949 . S
H1114 C1118 0.949 . S
C1115 C1116 1.349 . S
C1115 C1117 1.327 . S
C1115 H1138 0.950 . S
C1116 C1115 1.349 . S
C1116 C1128 1.349 . S
C1117 C1115 1.327 . S
C1117 C1133 1.429 . S
C1117 H1139 0.950 . S
C1118 H1114 0.949 . S
C1118 C1126 1.574 . S
C1118 C1134 1.368 . S
H1119 C1127 0.950 . S
H1120 C1125 0.950 . S
H1121 C1126 0.949 . S
H1122 C1128 0.950 . S
H1123 C1129 0.950 . S
H1124 C1130 0.949 . S
C1125 H1120 0.950 . S
C1125 C1127 1.327 . S
C1125 C1131 1.429 . S
C1126 C1118 1.574 . S
C1126 H1121 0.949 . S
C1126 C1132 1.368 . S
C1127 C1111 1.349 . S
C1127 H1119 0.950 . S
C1127 C1125 1.327 . S
C1128 C1116 1.349 . S
C1128 H1122 0.950 . S
C1128 C1129 1.327 . S
C1129 H1123 0.950 . S
C1129 C1128 1.327 . S
C1129 C1133 1.429 . S
C1130 C1113 1.574 . S
C1130 H1124 0.949 . S
C1130 C1134 1.368 . S
C1131 C1112 1.429 . S
C1131 C1125 1.429 . S
C1131 C1132 1.523 . S
C1132 C1113 1.368 . S
C1132 C1126 1.368 . S
C1132 C1131 1.523 . S
C1133 C1117 1.429 . S
C1133 C1129 1.429 . S
C1133 C1134 1.523 . S
C1134 C1118 1.368 . S
C1134 C1130 1.368 . S
C1134 C1133 1.523 . S
H1135 C1110 0.950 . S
H1136 C1112 0.950 . S
H1137 C1113 0.949 . S
H1138 C1115 0.950 . S
H1139 C1117 0.950 . S
C1140 C1141 1.349 . S
C1140 C1142 1.327 . S
C1140 H1165 0.950 . S
C1141 C1140 1.349 . S
C1141 C1157 1.349 . S
C1142 C1140 1.327 . S
C1142 C1161 1.429 . S
C1142 H1166 0.950 . S
C1143 C1160 1.574 . S
C1143 C1162 1.368 . S
C1143 H1167 0.949 . S
H1144 C1148 0.949 . S
C1145 C1146 1.349 . S
C1145 C1147 1.327 . S
C1145 H1168 0.950 . S
C1146 C1145 1.349 . S
C1146 C1158 1.349 . S
C1147 C1145 1.327 . S
C1147 C1163 1.429 . S
C1147 H1169 0.950 . S
C1148 H1144 0.949 . S
C1148 C1156 1.574 . S
C1148 C1164 1.368 . S
H1149 C1157 0.950 . S
H1150 C1155 0.950 . S
H1151 C1156 0.949 . S
H1152 C1158 0.950 . S
H1153 C1159 0.950 . S
H1154 C1160 0.949 . S
C1155 H1150 0.950 . S
C1155 C1157 1.327 . S
C1155 C1161 1.429 . S
C1156 C1148 1.574 . S
C1156 H1151 0.949 . S
C1156 C1162 1.368 . S
C1157 C1141 1.349 . S
C1157 H1149 0.950 . S
C1157 C1155 1.327 . S
C1158 C1146 1.349 . S
C1158 H1152 0.950 . S
C1158 C1159 1.327 . S
C1159 H1153 0.950 . S
C1159 C1158 1.327 . S
C1159 C1163 1.429 . S
C1160 C1143 1.574 . S
C1160 H1154 0.949 . S
C1160 C1164 1.368 . S
C1161 C1142 1.429 . S
C1161 C1155 1.429 . S
C1161 C1162 1.523 . S
C1162 C1143 1.368 . S
C1162 C1156 1.368 . S
C1162 C1161 1.523 . S
C1163 C1147 1.429 . S
C1163 C1159 1.429 . S
C1163 C1164 1.523 . S
C1164 C1148 1.368 . S
C1164 C1160 1.368 . S
C1164 C1163 1.523 . S
H1165 C1140 0.950 . S
H1166 C1142 0.950 . S
H1167 C1143 0.949 . S
H1168 C1145 0.950 . S
H1169 C1147 0.950 . S
C361 C9 1.096 . S
C366 C18 1.096 . S
C391 C58 1.097 . S
C396 C49 1.097 . S
C421 C89 1.094 1_556 S
C426 C98 1.094 . S
C451 C138 1.096 . S
C456 C129 1.096 . S
C481 C169 1.097 . S
C486 C178 1.096 1_546 S
C511 C218 1.094 . S
C516 C209 1.094 1_556 S
C541 C250 1.035 . S
C546 C259 1.035 . S
C571 C290 1.051 . S
C576 C299 1.051 . S
C601 C330 1.023 . S
C606 C339 1.023 . S
C631 C206 2.603 . S
C636 C10 2.623 . S
C661 C46 1.575 . S
C666 C126 1.556 . S
C691 C90 3.880 . S
C696 C170 3.838 . S
C721 C86 0.543 . S
C726 C255 0.520 . S
C751 C295 1.303 . S
C756 C6 1.275 . S
C781 C335 1.653 . S
C786 C50 1.674 . S
C811 C329 2.579 . S
C816 C19 2.637 . S
C841 C55 1.271 . S
C846 C249 1.243 . S
C871 C289 1.633 . S
C876 C99 1.702 . S
C901 C95 2.603 . S
C906 C139 2.623 . S
C931 C175 1.575 . S
C936 C15 1.556 . S
C961 C59 3.838 . S
C966 C219 3.880 . S
C991 C338 2.579 . S
C996 C130 2.638 . S
C1021 C258 1.244 . S
C1026 C166 1.272 . S
C1051 C298 1.634 . S
C1056 C210 1.702 . S
C1081 C246 0.520 . S
C1086 C215 0.543 . S
C1111 C135 1.275 . S
C1116 C286 1.303 . S
C1141 C326 1.653 . S
C1146 C179 1.674 . S
