# Generated by pormake.
# Topology utq, (3)-cn, num edge types: 1
# Building blocks:
#     Node 0, Type 0, BuildingBlock: WUSLED_clean_sbu_0, # of connection points: 3
#     Node 1, Type 0, BuildingBlock: WUSLED_clean_sbu_0, # of connection points: 3
#     Node 2, Type 0, BuildingBlock: WUSLED_clean_sbu_0, # of connection points: 3
#     Node 3, Type 0, BuildingBlock: WUSLED_clean_sbu_0, # of connection points: 3
#     Node 4, Type 0, BuildingBlock: WUSLED_clean_sbu_0, # of connection points: 3
#     Node 5, Type 0, BuildingBlock: WUSLED_clean_sbu_0, # of connection points: 3
#     Node 6, Type 0, BuildingBlock: WUSLED_clean_sbu_0, # of connection points: 3
#     Node 7, Type 0, BuildingBlock: WUSLED_clean_sbu_0, # of connection points: 3
#     Node 8, Type 0, BuildingBlock: WUSLED_clean_sbu_0, # of connection points: 3
#     Node 9, Type 0, BuildingBlock: WUSLED_clean_sbu_0, # of connection points: 3
#     Node 10, Type 0, BuildingBlock: WUSLED_clean_sbu_0, # of connection points: 3
#     Node 11, Type 0, BuildingBlock: WUSLED_clean_sbu_0, # of connection points: 3
#     Node 12, Type 0, BuildingBlock: WUSLED_clean_sbu_0, # of connection points: 3
#     Node 13, Type 0, BuildingBlock: WUSLED_clean_sbu_0, # of connection points: 3
#     Node 14, Type 0, BuildingBlock: WUSLED_clean_sbu_0, # of connection points: 3
#     Node 15, Type 0, BuildingBlock: WUSLED_clean_sbu_0, # of connection points: 3
#     Node 16, Type 0, BuildingBlock: WUSLED_clean_sbu_0, # of connection points: 3
#     Node 17, Type 0, BuildingBlock: WUSLED_clean_sbu_0, # of connection points: 3
#     Node 18, Type 0, BuildingBlock: WUSLED_clean_sbu_0, # of connection points: 3
#     Node 19, Type 0, BuildingBlock: WUSLED_clean_sbu_0, # of connection points: 3
#     Node 20, Type 0, BuildingBlock: WUSLED_clean_sbu_0, # of connection points: 3
#     Node 21, Type 0, BuildingBlock: WUSLED_clean_sbu_0, # of connection points: 3
#     Node 22, Type 0, BuildingBlock: WUSLED_clean_sbu_0, # of connection points: 3
#     Node 23, Type 0, BuildingBlock: WUSLED_clean_sbu_0, # of connection points: 3
#     Node 24, Type 0, BuildingBlock: WUSLED_clean_sbu_0, # of connection points: 3
#     Node 25, Type 0, BuildingBlock: WUSLED_clean_sbu_0, # of connection points: 3
#     Node 26, Type 0, BuildingBlock: WUSLED_clean_sbu_0, # of connection points: 3
#     Node 27, Type 0, BuildingBlock: WUSLED_clean_sbu_0, # of connection points: 3
#     Node 28, Type 0, BuildingBlock: WUSLED_clean_sbu_0, # of connection points: 3
#     Node 29, Type 0, BuildingBlock: WUSLED_clean_sbu_0, # of connection points: 3
#     Node 30, Type 0, BuildingBlock: WUSLED_clean_sbu_0, # of connection points: 3
#     Node 31, Type 0, BuildingBlock: WUSLED_clean_sbu_0, # of connection points: 3
#     Edge 32, Type (0, 0), BuildingBlock: AJUNOK_clean_linker_0, # of connection points: 2
#     Edge 33, Type (0, 0), BuildingBlock: AJUNOK_clean_linker_0, # of connection points: 2
#     Edge 34, Type (0, 0), BuildingBlock: AJUNOK_clean_linker_0, # of connection points: 2
#     Edge 35, Type (0, 0), BuildingBlock: AJUNOK_clean_linker_0, # of connection points: 2
#     Edge 36, Type (0, 0), BuildingBlock: AJUNOK_clean_linker_0, # of connection points: 2
#     Edge 37, Type (0, 0), BuildingBlock: AJUNOK_clean_linker_0, # of connection points: 2
#     Edge 38, Type (0, 0), BuildingBlock: AJUNOK_clean_linker_0, # of connection points: 2
#     Edge 39, Type (0, 0), BuildingBlock: AJUNOK_clean_linker_0, # of connection points: 2
#     Edge 40, Type (0, 0), BuildingBlock: AJUNOK_clean_linker_0, # of connection points: 2
#     Edge 41, Type (0, 0), BuildingBlock: AJUNOK_clean_linker_0, # of connection points: 2
#     Edge 42, Type (0, 0), BuildingBlock: AJUNOK_clean_linker_0, # of connection points: 2
#     Edge 43, Type (0, 0), BuildingBlock: AJUNOK_clean_linker_0, # of connection points: 2
#     Edge 44, Type (0, 0), BuildingBlock: AJUNOK_clean_linker_0, # of connection points: 2
#     Edge 45, Type (0, 0), BuildingBlock: AJUNOK_clean_linker_0, # of connection points: 2
#     Edge 46, Type (0, 0), BuildingBlock: AJUNOK_clean_linker_0, # of connection points: 2
#     Edge 47, Type (0, 0), BuildingBlock: AJUNOK_clean_linker_0, # of connection points: 2
#     Edge 48, Type (0, 0), BuildingBlock: AJUNOK_clean_linker_0, # of connection points: 2
#     Edge 49, Type (0, 0), BuildingBlock: AJUNOK_clean_linker_0, # of connection points: 2
#     Edge 50, Type (0, 0), BuildingBlock: AJUNOK_clean_linker_0, # of connection points: 2
#     Edge 51, Type (0, 0), BuildingBlock: AJUNOK_clean_linker_0, # of connection points: 2
#     Edge 52, Type (0, 0), BuildingBlock: AJUNOK_clean_linker_0, # of connection points: 2
#     Edge 53, Type (0, 0), BuildingBlock: AJUNOK_clean_linker_0, # of connection points: 2
#     Edge 54, Type (0, 0), BuildingBlock: AJUNOK_clean_linker_0, # of connection points: 2
#     Edge 55, Type (0, 0), BuildingBlock: AJUNOK_clean_linker_0, # of connection points: 2
#     Edge 56, Type (0, 0), BuildingBlock: AJUNOK_clean_linker_0, # of connection points: 2
#     Edge 57, Type (0, 0), BuildingBlock: AJUNOK_clean_linker_0, # of connection points: 2
#     Edge 58, Type (0, 0), BuildingBlock: AJUNOK_clean_linker_0, # of connection points: 2
#     Edge 59, Type (0, 0), BuildingBlock: AJUNOK_clean_linker_0, # of connection points: 2
#     Edge 60, Type (0, 0), BuildingBlock: AJUNOK_clean_linker_0, # of connection points: 2
#     Edge 61, Type (0, 0), BuildingBlock: AJUNOK_clean_linker_0, # of connection points: 2
#     Edge 62, Type (0, 0), BuildingBlock: AJUNOK_clean_linker_0, # of connection points: 2
#     Edge 63, Type (0, 0), BuildingBlock: AJUNOK_clean_linker_0, # of connection points: 2
#     Edge 64, Type (0, 0), BuildingBlock: AJUNOK_clean_linker_0, # of connection points: 2
#     Edge 65, Type (0, 0), BuildingBlock: AJUNOK_clean_linker_0, # of connection points: 2
#     Edge 66, Type (0, 0), BuildingBlock: AJUNOK_clean_linker_0, # of connection points: 2
#     Edge 67, Type (0, 0), BuildingBlock: AJUNOK_clean_linker_0, # of connection points: 2
#     Edge 68, Type (0, 0), BuildingBlock: AJUNOK_clean_linker_0, # of connection points: 2
#     Edge 69, Type (0, 0), BuildingBlock: AJUNOK_clean_linker_0, # of connection points: 2
#     Edge 70, Type (0, 0), BuildingBlock: AJUNOK_clean_linker_0, # of connection points: 2
#     Edge 71, Type (0, 0), BuildingBlock: AJUNOK_clean_linker_0, # of connection points: 2
#     Edge 72, Type (0, 0), BuildingBlock: AJUNOK_clean_linker_0, # of connection points: 2
#     Edge 73, Type (0, 0), BuildingBlock: AJUNOK_clean_linker_0, # of connection points: 2
#     Edge 74, Type (0, 0), BuildingBlock: AJUNOK_clean_linker_0, # of connection points: 2
#     Edge 75, Type (0, 0), BuildingBlock: AJUNOK_clean_linker_0, # of connection points: 2
#     Edge 76, Type (0, 0), BuildingBlock: AJUNOK_clean_linker_0, # of connection points: 2
#     Edge 77, Type (0, 0), BuildingBlock: AJUNOK_clean_linker_0, # of connection points: 2
#     Edge 78, Type (0, 0), BuildingBlock: AJUNOK_clean_linker_0, # of connection points: 2
#     Edge 79, Type (0, 0), BuildingBlock: AJUNOK_clean_linker_0, # of connection points: 2
# Relax obj value: 0.037
# Max RMSD: 0.048
# Mean RMSD: 0.045
data_MOF--net-utq--node1-WUSLED_clean_sbu_0--edge1-AJUNOK_clean_linker_0
_symmetry_space_group_name_H-M    P1
_symmetry_Int_Tables_number       1
_symmetry_cell_setting            triclinic
loop_
_symmetry_equiv_pos_as_xyz
'x, y, z'
_cell_length_a     44.376409
_cell_length_b     40.098328
_cell_length_c     126.18769
_cell_angle_alpha  90.116668
_cell_angle_beta   89.900641
_cell_angle_gamma 90.018454
loop_
_atom_site_label
_atom_site_type_symbol
_atom_site_fract_x
_atom_site_fract_y
_atom_site_fract_z
_atom_type_partial_charge
C0 C 0.46409 0.27652 0.06037 0.0
C1 C 0.45938 0.2921 0.07024 0.0
C2 C 0.43021 0.336 0.06158 0.0
C3 C 0.44268 0.32194 0.07081 0.0
C4 C 0.43592 0.32079 0.05177 0.0
C5 C 0.45281 0.29154 0.05119 0.0
U6 U 0.5054 0.19096 0.06699 0.0
O7 O 0.49083 0.14278 0.06042 0.0
O8 O 0.53509 0.16377 0.05579 0.0
C9 C 0.51602 0.13875 0.0551 0.0
C10 C 0.47783 0.24326 0.05909 0.0
C11 C 0.5164 0.11609 0.04591 0.0
C12 C 0.50224 0.09859 0.0281 0.0
C13 C 0.50335 0.12337 0.03604 0.0
C14 C 0.52686 0.05978 0.03994 0.0
C15 C 0.51389 0.06636 0.03003 0.0
C16 C 0.52842 0.08441 0.04768 0.0
C17 C 0.53196 0.17665 0.09718 0.0
C18 C 0.53298 0.13483 0.11117 0.0
C19 C 0.55031 0.19094 0.11475 0.0
C20 C 0.54446 0.1997 0.10426 0.0
C21 C 0.54343 0.15886 0.11848 0.0
C22 C 0.5271 0.1437 0.10058 0.0
C23 C 0.52016 0.19005 0.0871 0.0
O24 O 0.50735 0.2405 0.05935 0.0
O25 O 0.46357 0.21776 0.06328 0.0
O26 O 0.49416 0.17914 0.08353 0.0
O27 O 0.53875 0.20057 0.0797 0.0
H28 H 0.46777 0.28081 0.07744 0.0
H29 H 0.43845 0.33326 0.07847 0.0
H30 H 0.42675 0.3312 0.04455 0.0
H31 H 0.45615 0.27989 0.04352 0.0
H32 H 0.49199 0.10444 0.02055 0.0
H33 H 0.49365 0.1477 0.03454 0.0
H34 H 0.53492 0.03511 0.04193 0.0
H35 H 0.53813 0.0782 0.0553 0.0
H36 H 0.52779 0.10974 0.11376 0.0
H37 H 0.55948 0.20971 0.12001 0.0
H38 H 0.54838 0.22523 0.10182 0.0
H39 H 0.51748 0.12538 0.09525 0.0
C40 C 0.79311 1.00544 0.06069 0.0
C41 C 0.79445 0.98646 0.07003 0.0
C42 C 0.8279 0.94633 0.06121 0.0
C43 C 0.81162 0.9569 0.07025 0.0
C44 C 0.82625 0.96582 0.05199 0.0
C45 C 0.80876 0.99457 0.05171 0.0
U46 U 0.75003 0.09062 0.0673 0.0
O47 O 0.76546 0.13815 0.06053 0.0
O48 O 0.72123 0.11714 0.05575 0.0
C49 C 0.74055 0.14194 0.05507 0.0
C50 C 0.77824 0.03813 0.05985 0.0
C51 C 0.7399 0.1654 0.04617 0.0
C52 C 0.75188 0.18298 0.02822 0.0
C53 C 0.75024 0.15771 0.03593 0.0
C54 C 0.73217 0.22284 0.04092 0.0
C55 C 0.74364 0.216 0.03079 0.0
C56 C 0.73043 0.19784 0.04851 0.0
C57 C 0.72459 0.10487 0.09776 0.0
C58 C 0.70746 0.14686 0.11035 0.0
C59 C 0.72258 0.09216 0.11652 0.0
C60 C 0.72841 0.08246 0.10613 0.0
C61 C 0.7125 0.12447 0.11873 0.0
C62 C 0.71359 0.13712 0.09984 0.0
C63 C 0.7352 0.09367 0.08731 0.0
O64 O 0.74867 0.04015 0.06019 0.0
O65 O 0.7922 0.06405 0.06389 0.0
O66 O 0.76143 0.10389 0.08373 0.0
O67 O 0.71625 0.08325 0.08002 0.0
H68 H 0.78274 0.99464 0.07711 0.0
H69 H 0.8124 0.94253 0.0775 0.0
H70 H 0.83938 0.9597 0.04502 0.0
H71 H 0.80837 1.00917 0.04449 0.0
H72 H 0.76059 0.17706 0.02042 0.0
H73 H 0.75768 0.13271 0.03398 0.0
H74 H 0.72494 0.24777 0.04304 0.0
H75 H 0.72233 0.20411 0.05637 0.0
H76 H 0.70006 0.1721 0.11198 0.0
H77 H 0.72701 0.07477 0.12289 0.0
H78 H 0.73712 0.05762 0.10466 0.0
H79 H 0.7107 0.15488 0.09347 0.0
C80 C 0.46477 1.00638 0.22182 0.0
C81 C 0.46042 0.99061 0.21198 0.0
C82 C 0.43028 0.94699 0.22055 0.0
C83 C 0.44341 0.96095 0.21137 0.0
C84 C 0.435 0.96319 0.2303 0.0
C85 C 0.45233 0.99207 0.23092 0.0
U86 U 0.50723 0.09053 0.21471 0.0
O87 O 0.49321 0.13981 0.22057 0.0
O88 O 0.53704 0.11885 0.22552 0.0
C89 C 0.51834 0.14428 0.22586 0.0
C90 C 0.47911 0.03935 0.22314 0.0
C91 C 0.51801 0.16686 0.23507 0.0
C92 C 0.50733 0.18195 0.2534 0.0
C93 C 0.509 0.15761 0.24534 0.0
C94 C 0.52415 0.22403 0.24097 0.0
C95 C 0.5144 0.21555 0.25118 0.0
C96 C 0.52591 0.2 0.23305 0.0
C97 C 0.53136 0.10168 0.1842 0.0
C98 C 0.55048 0.14419 0.17216 0.0
C99 C 0.53255 0.09142 0.16526 0.0
C100 C 0.52636 0.08077 0.17551 0.0
C101 C 0.54417 0.1234 0.16338 0.0
C102 C 0.54391 0.13346 0.18255 0.0
C103 C 0.52069 0.08917 0.1945 0.0
O104 O 0.50867 0.04155 0.22272 0.0
O105 O 0.46515 0.06504 0.21899 0.0
O106 O 0.49471 0.09991 0.19814 0.0
O107 O 0.54004 0.0804 0.20187 0.0
H108 H 0.46958 1.00145 0.2048 0.0
H109 H 0.44025 0.94917 0.20372 0.0
H110 H 0.42434 0.95439 0.23749 0.0
H111 H 0.455 1.00413 0.23856 0.0
H112 H 0.49957 0.1748 0.26121 0.0
H113 H 0.50273 0.13208 0.24706 0.0
H114 H 0.53008 0.24953 0.23906 0.0
H115 H 0.53295 0.20756 0.22518 0.0
H116 H 0.55997 0.1688 0.17099 0.0
H117 H 0.52703 0.07491 0.15874 0.0
H118 H 0.51656 0.05626 0.17662 0.0
H119 H 0.54801 0.15003 0.18918 0.0
C120 C 0.79089 0.28031 0.22087 0.0
C121 C 0.80233 0.29059 0.211 0.0
C122 C 0.82625 0.33864 0.21943 0.0
C123 C 0.81997 0.31964 0.2103 0.0
C124 C 0.8134 0.32921 0.22912 0.0
C125 C 0.79597 0.3003 0.22982 0.0
U126 U 0.75126 0.19376 0.21479 0.0
O127 O 0.76637 0.14626 0.22154 0.0
O128 O 0.72128 0.16607 0.22571 0.0
C129 C 0.74083 0.1416 0.22661 0.0
C130 C 0.77769 0.24699 0.22265 0.0
C131 C 0.74046 0.11966 0.23591 0.0
C132 C 0.76198 0.09771 0.25217 0.0
C133 C 0.76036 0.12301 0.24449 0.0
C134 C 0.72327 0.06669 0.24288 0.0
C135 C 0.74414 0.06876 0.25118 0.0
C136 C 0.72152 0.09185 0.23534 0.0
C137 C 0.72729 0.18097 0.18414 0.0
C138 C 0.70645 0.14123 0.17149 0.0
C139 C 0.72815 0.19321 0.16536 0.0
C140 C 0.73425 0.20234 0.17576 0.0
C141 C 0.71477 0.1624 0.16308 0.0
C142 C 0.71284 0.15041 0.18204 0.0
C143 C 0.73746 0.1917 0.19469 0.0
O144 O 0.74822 0.2436 0.22229 0.0
O145 O 0.79243 0.22136 0.21874 0.0
O146 O 0.76372 0.18183 0.1983 0.0
O147 O 0.7181 0.20139 0.20196 0.0
H148 H 0.79877 0.2755 0.20399 0.0
H149 H 0.82948 0.32673 0.20272 0.0
H150 H 0.818 0.34336 0.23626 0.0
H151 H 0.78761 0.29263 0.23752 0.0
H152 H 0.77805 0.10002 0.25858 0.0
H153 H 0.77524 0.14437 0.24505 0.0
H154 H 0.70866 0.0452 0.24208 0.0
H155 H 0.70608 0.08887 0.22876 0.0
H156 H 0.6963 0.11717 0.16987 0.0
H157 H 0.7347 0.20996 0.15904 0.0
H158 H 0.74535 0.22597 0.17724 0.0
H159 H 0.7073 0.13351 0.18844 0.0
C160 C 0.54947 0.74947 0.97026 0.0
C161 C 0.55405 0.73244 0.96063 0.0
C162 C 0.58667 0.69197 0.96961 0.0
C163 C 0.57244 0.70373 0.96033 0.0
C164 C 0.58083 0.70853 0.97921 0.0
C165 C 0.5625 0.73679 0.97951 0.0
U166 U 0.50368 0.83224 0.96306 0.0
O167 O 0.47458 0.85967 0.97439 0.0
O168 O 0.51705 0.88204 0.96867 0.0
C169 C 0.49263 0.8857 0.97445 0.0
C170 C 0.53412 0.78213 0.97117 0.0
C171 C 0.49402 0.90785 0.98378 0.0
C172 C 0.50813 0.92261 1.00186 0.0
C173 C 0.50569 0.89861 0.99371 0.0
C174 C 0.48696 0.96439 0.99022 0.0
C175 C 0.49915 0.95596 1.0001 0.0
C176 C 0.48442 0.94067 0.98222 0.0
C177 C 0.4739 0.84505 0.93338 0.0
C178 C 0.46 0.89158 0.92198 0.0
C179 C 0.46297 0.83573 0.91473 0.0
C180 C 0.4707 0.82355 0.9247 0.0
C181 C 0.45808 0.8699 0.91317 0.0
C182 C 0.46786 0.87923 0.93206 0.0
C183 C 0.48717 0.83055 0.94307 0.0
O184 O 0.54689 0.8079 0.96658 0.0
O185 O 0.5045 0.78335 0.97119 0.0
O186 O 0.46946 0.82065 0.95082 0.0
O187 O 0.51336 0.842 0.94627 0.0
H188 H 0.54432 0.74185 0.95337 0.0
H189 H 0.57663 0.69172 0.95277 0.0
H190 H 0.591 0.70002 0.98651 0.0
H191 H 0.55933 0.74953 0.98701 0.0
H192 H 0.51714 0.91518 1.00947 0.0
H193 H 0.51322 0.87331 0.9951 0.0
H194 H 0.48014 0.98976 0.98853 0.0
H195 H 0.47548 0.94831 0.97461 0.0
H196 H 0.45645 0.91811 0.92097 0.0
H197 H 0.46245 0.81854 0.9081 0.0
H198 H 0.47565 0.79721 0.92552 0.0
H199 H 0.47034 0.89638 0.93864 0.0
C200 C 0.23385 0.03308 0.97051 0.0
C201 C 0.22803 0.04846 0.96072 0.0
C202 C 0.19696 0.0906 0.96962 0.0
C203 C 0.20977 0.07718 0.96029 0.0
C204 C 0.2041 0.07577 0.97936 0.0
C205 C 0.22229 0.04747 0.97978 0.0
U206 U 0.2787 0.94985 0.96343 0.0
O207 O 0.30777 0.92238 0.97468 0.0
O208 O 0.26513 0.9002 0.96905 0.0
C209 C 0.2896 0.89645 0.97476 0.0
C210 C 0.24873 1.00031 0.97162 0.0
C211 C 0.28816 0.87447 0.98409 0.0
C212 C 0.27532 0.86062 1.00235 0.0
C213 C 0.27789 0.8844 0.99418 0.0
C214 C 0.29389 0.81774 0.99046 0.0
C215 C 0.28309 0.82707 1.00044 0.0
C216 C 0.29636 0.84117 0.9824 0.0
C217 C 0.30758 0.93715 0.93357 0.0
C218 C 0.32227 0.89123 0.92197 0.0
C219 C 0.31682 0.94691 0.91485 0.0
C220 C 0.30942 0.95876 0.92491 0.0
C221 C 0.32296 0.913 0.91319 0.0
C222 C 0.31455 0.90321 0.93213 0.0
C223 C 0.29478 0.95126 0.94341 0.0
O224 O 0.23572 0.97455 0.96709 0.0
O225 O 0.27834 0.99878 0.97159 0.0
O226 O 0.31278 0.96101 0.95109 0.0
O227 O 0.2686 0.93997 0.94668 0.0
H228 H 0.2366 0.03767 0.95344 0.0
H229 H 0.20448 0.08785 0.95264 0.0
H230 H 0.19495 0.08561 0.98669 0.0
H231 H 0.22642 0.03596 0.98741 0.0
H232 H 0.26681 0.86816 1.01004 0.0
H233 H 0.27138 0.91003 0.99565 0.0
H234 H 0.29974 0.79201 0.98882 0.0
H235 H 0.30419 0.83304 0.97467 0.0
H236 H 0.32683 0.86489 0.9209 0.0
H237 H 0.3162 0.96418 0.90827 0.0
H238 H 0.30371 0.98489 0.92582 0.0
H239 H 0.31307 0.88597 0.93871 0.0
C240 C 0.54675 0.03096 0.81127 0.0
C241 C 0.54866 0.04883 0.82084 0.0
C242 C 0.58426 0.08795 0.81268 0.0
C243 C 0.5672 0.07732 0.82152 0.0
C244 C 0.58102 0.07062 0.80307 0.0
C245 C 0.5625 0.0426 0.8024 0.0
U246 U 0.50194 0.94746 0.81816 0.0
O247 O 0.47338 0.91988 0.80674 0.0
O248 O 0.51645 0.8984 0.81231 0.0
C249 C 0.49204 0.89439 0.80658 0.0
C250 C 0.53154 0.99837 0.81016 0.0
C251 C 0.49331 0.87183 0.7974 0.0
C252 C 0.50621 0.85632 0.77928 0.0
C253 C 0.50412 0.88073 0.78731 0.0
C254 C 0.4871 0.81477 0.79147 0.0
C255 C 0.4976 0.82303 0.78133 0.0
C256 C 0.48472 0.8389 0.79933 0.0
C257 C 0.47324 0.93445 0.84817 0.0
C258 C 0.45942 0.88978 0.86039 0.0
C259 C 0.46391 0.94654 0.86674 0.0
C260 C 0.47105 0.95715 0.85655 0.0
C261 C 0.45895 0.91266 0.86893 0.0
C262 C 0.46665 0.90061 0.85004 0.0
C263 C 0.48571 0.94764 0.83816 0.0
O264 O 0.54471 0.97253 0.81453 0.0
O265 O 0.50193 0.99688 0.81034 0.0
O266 O 0.46764 0.95757 0.83054 0.0
O267 O 0.51202 0.93673 0.83486 0.0
H268 H 0.5366 0.04032 0.8278 0.0
H269 H 0.56862 0.09062 0.82898 0.0
H270 H 0.5938 0.0779 0.79613 0.0
H271 H 0.56142 0.02911 0.79495 0.0
H272 H 0.51462 0.86334 0.77153 0.0
H273 H 0.51119 0.90607 0.7857 0.0
H274 H 0.48141 0.7893 0.79348 0.0
H275 H 0.47677 0.8315 0.8071 0.0
H276 H 0.45592 0.86343 0.86178 0.0
H277 H 0.46326 0.96494 0.87303 0.0
H278 H 0.47609 0.9833 0.8553 0.0
H279 H 0.46825 0.88255 0.84367 0.0
C280 C 0.23567 0.74801 0.81212 0.0
C281 C 0.2313 0.72928 0.82137 0.0
C282 C 0.19721 0.69239 0.81173 0.0
C283 C 0.21227 0.70133 0.82114 0.0
C284 C 0.20321 0.71024 0.80242 0.0
C285 C 0.22216 0.73785 0.80264 0.0
U286 U 0.27995 0.83379 0.81794 0.0
O287 O 0.30563 0.85751 0.80497 0.0
O288 O 0.26185 0.87908 0.81036 0.0
C289 C 0.28463 0.88032 0.80373 0.0
C290 C 0.25104 0.78026 0.81205 0.0
C291 C 0.28728 0.90657 0.79576 0.0
C292 C 0.27722 0.92651 0.77798 0.0
C293 C 0.27908 0.90026 0.78523 0.0
C294 C 0.29332 0.96515 0.79163 0.0
C295 C 0.2837 0.95943 0.78116 0.0
C296 C 0.29468 0.939 0.7989 0.0
C297 C 0.30976 0.85255 0.84775 0.0
C298 C 0.32023 0.89594 0.86073 0.0
C299 C 0.3201 0.83794 0.86603 0.0
C300 C 0.31356 0.8285 0.85565 0.0
C301 C 0.3228 0.87179 0.8688 0.0
C302 C 0.31374 0.88636 0.85026 0.0
C303 C 0.29834 0.84136 0.83741 0.0
O304 O 0.23753 0.80614 0.81631 0.0
O305 O 0.2806 0.78216 0.8117 0.0
O306 O 0.31604 0.82897 0.83001 0.0
O307 O 0.27158 0.85098 0.8342 0.0
H308 H 0.24158 0.7369 0.82876 0.0
H309 H 0.20814 0.68776 0.82841 0.0
H310 H 0.19257 0.70339 0.79501 0.0
H311 H 0.22536 0.75214 0.79544 0.0
H312 H 0.26973 0.92118 0.76999 0.0
H313 H 0.27298 0.87529 0.78272 0.0
H314 H 0.29954 0.98992 0.79425 0.0
H315 H 0.30097 0.94419 0.80703 0.0
H316 H 0.32158 0.92227 0.86256 0.0
H317 H 0.32229 0.81864 0.87197 0.0
H318 H 0.31035 0.80229 0.85386 0.0
H319 H 0.31068 0.90532 0.84426 0.0
C320 C 0.46587 0.77592 0.56084 0.0
C321 C 0.45535 0.78655 0.57081 0.0
C322 C 0.43138 0.83503 0.56263 0.0
C323 C 0.43831 0.81605 0.5717 0.0
C324 C 0.44318 0.82489 0.5528 0.0
C325 C 0.46023 0.79578 0.55194 0.0
U326 U 0.50716 0.69046 0.56678 0.0
O327 O 0.49246 0.64195 0.56052 0.0
O328 O 0.53661 0.66268 0.55568 0.0
C329 C 0.51757 0.63759 0.55517 0.0
C330 C 0.47918 0.74265 0.55893 0.0
C331 C 0.51735 0.61533 0.54591 0.0
C332 C 0.50062 0.59773 0.52841 0.0
C333 C 0.50217 0.62226 0.5364 0.0
C334 C 0.52917 0.55991 0.53947 0.0
C335 C 0.51402 0.56614 0.52993 0.0
C336 C 0.53108 0.5843 0.54727 0.0
C337 C 0.53311 0.67839 0.59718 0.0
C338 C 0.55799 0.63977 0.60924 0.0
C339 C 0.53175 0.6879 0.61611 0.0
C340 C 0.52491 0.69776 0.60586 0.0
C341 C 0.54861 0.65872 0.61823 0.0
C342 C 0.54977 0.64916 0.59885 0.0
C343 C 0.52206 0.69003 0.58683 0.0
O344 O 0.5087 0.73975 0.55895 0.0
O345 O 0.46518 0.71691 0.56307 0.0
O346 O 0.49571 0.67974 0.5834 0.0
O347 O 0.54092 0.69944 0.57936 0.0
H348 H 0.45925 0.77149 0.57779 0.0
H349 H 0.42933 0.82307 0.57937 0.0
H350 H 0.43854 0.83908 0.5457 0.0
H351 H 0.46799 0.78797 0.54418 0.0
H352 H 0.48869 0.60323 0.52114 0.0
H353 H 0.49116 0.64608 0.53525 0.0
H354 H 0.53873 0.53564 0.54112 0.0
H355 H 0.54246 0.57838 0.55462 0.0
H356 H 0.57185 0.61791 0.60989 0.0
H357 H 0.52227 0.70332 0.62225 0.0
H358 H 0.51191 0.72038 0.60475 0.0
H359 H 0.55647 0.63374 0.59219 0.0
C360 C 0.79094 0.50519 0.56071 0.0
C361 C 0.80082 0.49373 0.57064 0.0
C362 C 0.82537 0.44622 0.56212 0.0
C363 C 0.81801 0.46434 0.57133 0.0
C364 C 0.81418 0.45687 0.55233 0.0
C365 C 0.79715 0.48606 0.55165 0.0
U366 U 0.75032 0.59117 0.56703 0.0
O367 O 0.76543 0.63967 0.56087 0.0
O368 O 0.72141 0.61925 0.55587 0.0
C369 C 0.74056 0.64426 0.55544 0.0
C370 C 0.77798 0.53875 0.55906 0.0
C371 C 0.74123 0.66659 0.54616 0.0
C372 C 0.75763 0.68333 0.52851 0.0
C373 C 0.75568 0.65898 0.53653 0.0
C374 C 0.73029 0.72223 0.53963 0.0
C375 C 0.74527 0.71548 0.53007 0.0
C376 C 0.72833 0.69814 0.54753 0.0
C377 C 0.72201 0.60358 0.5972 0.0
C378 C 0.71789 0.6456 0.61114 0.0
C379 C 0.7054 0.58809 0.61489 0.0
C380 C 0.71163 0.57961 0.60439 0.0
C381 C 0.70968 0.62084 0.61853 0.0
C382 C 0.72426 0.637 0.60053 0.0
C383 C 0.73424 0.59105 0.58704 0.0
O384 O 0.7485 0.54206 0.55901 0.0
O385 O 0.79211 0.56408 0.56341 0.0
O386 O 0.76052 0.60199 0.58372 0.0
O387 O 0.71606 0.58113 0.57944 0.0
H388 H 0.7964 0.50812 0.57775 0.0
H389 H 0.82644 0.45636 0.57897 0.0
H390 H 0.81973 0.44337 0.54514 0.0
H391 H 0.78998 0.4946 0.54391 0.0
H392 H 0.76966 0.67739 0.52128 0.0
H393 H 0.76599 0.63478 0.53533 0.0
H394 H 0.72021 0.74642 0.54106 0.0
H395 H 0.71717 0.7045 0.55491 0.0
H396 H 0.72104 0.67118 0.61368 0.0
H397 H 0.69812 0.56862 0.62025 0.0
H398 H 0.70972 0.55372 0.602 0.0
H399 H 0.73218 0.65602 0.59512 0.0
C400 C 0.46625 0.50472 0.72081 0.0
C401 C 0.45744 0.49262 0.71081 0.0
C402 C 0.43066 0.44619 0.71924 0.0
C403 C 0.43994 0.46339 0.71004 0.0
C404 C 0.44074 0.45789 0.72912 0.0
C405 C 0.45834 0.48663 0.72987 0.0
U406 U 0.50849 0.58964 0.7145 0.0
O407 O 0.49425 0.63855 0.72057 0.0
O408 O 0.53802 0.61742 0.72555 0.0
C409 C 0.5193 0.64283 0.72593 0.0
C410 C 0.48018 0.53782 0.7225 0.0
C411 C 0.5188 0.66508 0.73519 0.0
C412 C 0.50599 0.68004 0.75334 0.0
C413 C 0.50812 0.65588 0.74526 0.0
C414 C 0.52553 0.7219 0.74133 0.0
C415 C 0.51412 0.71353 0.75135 0.0
C416 C 0.52789 0.69796 0.7334 0.0
C417 C 0.53386 0.60141 0.68405 0.0
C418 C 0.55561 0.64202 0.67191 0.0
C419 C 0.53525 0.59011 0.6652 0.0
C420 C 0.52806 0.58045 0.67545 0.0
C421 C 0.54938 0.62081 0.66321 0.0
C422 C 0.54775 0.63244 0.6823 0.0
C423 C 0.52288 0.58962 0.6944 0.0
O424 O 0.50973 0.54032 0.72233 0.0
O425 O 0.46635 0.56366 0.71838 0.0
O426 O 0.49674 0.60027 0.69793 0.0
O427 O 0.54187 0.58022 0.7018 0.0
H428 H 0.46332 0.50617 0.70369 0.0
H429 H 0.43329 0.45456 0.70227 0.0
H430 H 0.43404 0.44554 0.73638 0.0
H431 H 0.46472 0.49561 0.73766 0.0
H432 H 0.49772 0.67265 0.76106 0.0
H433 H 0.50103 0.6305 0.74679 0.0
H434 H 0.53171 0.74735 0.73947 0.0
H435 H 0.53608 0.70549 0.72567 0.0
H436 H 0.56628 0.666 0.67068 0.0
H437 H 0.52859 0.57376 0.65879 0.0
H438 H 0.51694 0.55667 0.67664 0.0
H439 H 0.55215 0.64921 0.68886 0.0
C440 C 0.79022 0.77728 0.72064 0.0
C441 C 0.80396 0.78699 0.71107 0.0
C442 C 0.82523 0.83621 0.71976 0.0
C443 C 0.82121 0.81642 0.71062 0.0
C444 C 0.80963 0.82747 0.72904 0.0
C445 C 0.79246 0.79834 0.72947 0.0
U446 U 0.74978 0.69137 0.71437 0.0
O447 O 0.76482 0.64282 0.72045 0.0
O448 O 0.72068 0.66313 0.72544 0.0
C449 C 0.73989 0.63821 0.72588 0.0
C450 C 0.77736 0.7437 0.72237 0.0
C451 C 0.74066 0.61627 0.73523 0.0
C452 C 0.75747 0.59972 0.75282 0.0
C453 C 0.75561 0.62389 0.74475 0.0
C454 C 0.72974 0.56084 0.74184 0.0
C455 C 0.7446 0.56777 0.7514 0.0
C456 C 0.72751 0.58486 0.73396 0.0
C457 C 0.72268 0.67882 0.68419 0.0
C458 C 0.70588 0.63465 0.67229 0.0
C459 C 0.71735 0.68945 0.66535 0.0
C460 C 0.72406 0.7005 0.67554 0.0
C461 C 0.70885 0.65625 0.6635 0.0
C462 C 0.71296 0.6458 0.68259 0.0
C463 C 0.7344 0.69186 0.69432 0.0
O464 O 0.74788 0.74034 0.72246 0.0
O465 O 0.79155 0.71829 0.71807 0.0
O466 O 0.76072 0.68129 0.69766 0.0
O467 O 0.71578 0.70093 0.70191 0.0
H468 H 0.80253 0.77116 0.70412 0.0
H469 H 0.83271 0.82271 0.70332 0.0
H470 H 0.81148 0.84266 0.73612 0.0
H471 H 0.78204 0.79139 0.73692 0.0
H472 H 0.76918 0.60581 0.7601 0.0
H473 H 0.76618 0.648 0.74585 0.0
H474 H 0.72063 0.53631 0.74023 0.0
H475 H 0.71629 0.57837 0.72662 0.0
H476 H 0.69879 0.60904 0.67115 0.0
H477 H 0.72023 0.70668 0.65883 0.0
H478 H 0.73162 0.72599 0.6766 0.0
H479 H 0.71164 0.6286 0.68918 0.0
C480 C 0.54837 0.25016 0.47058 0.0
C481 C 0.55472 0.23421 0.46089 0.0
C482 C 0.58627 0.19313 0.47007 0.0
C483 C 0.57341 0.20574 0.46066 0.0
C484 C 0.5793 0.20923 0.47968 0.0
C485 C 0.56036 0.23696 0.47992 0.0
U486 U 0.50239 0.33241 0.46318 0.0
O487 O 0.47313 0.36034 0.47432 0.0
O488 O 0.5157 0.38241 0.4686 0.0
C489 C 0.49123 0.38633 0.47433 0.0
C490 C 0.53286 0.2827 0.4715 0.0
C491 C 0.49288 0.40817 0.48373 0.0
C492 C 0.50903 0.42301 0.50158 0.0
C493 C 0.50628 0.39917 0.4934 0.0
C494 C 0.48463 0.46413 0.49049 0.0
C495 C 0.49856 0.45594 0.5001 0.0
C496 C 0.48184 0.44057 0.48245 0.0
C497 C 0.47344 0.34477 0.43344 0.0
C498 C 0.45487 0.3909 0.4227 0.0
C499 C 0.46718 0.33813 0.41443 0.0
C500 C 0.47477 0.32508 0.42429 0.0
C501 C 0.45784 0.37139 0.41341 0.0
C502 C 0.46283 0.37774 0.43267 0.0
C503 C 0.48629 0.33001 0.44316 0.0
O504 O 0.54558 0.30846 0.4669 0.0
O505 O 0.50322 0.28377 0.47148 0.0
O506 O 0.46831 0.32073 0.45091 0.0
O507 O 0.51257 0.34113 0.44637 0.0
H508 H 0.54594 0.24415 0.45355 0.0
H509 H 0.57821 0.19394 0.45311 0.0
H510 H 0.58947 0.20135 0.48705 0.0
H511 H 0.55619 0.24916 0.48745 0.0
H512 H 0.51951 0.41586 0.50898 0.0
H513 H 0.51497 0.3742 0.49456 0.0
H514 H 0.47663 0.48922 0.48904 0.0
H515 H 0.47161 0.44803 0.47503 0.0
H516 H 0.44716 0.41648 0.42222 0.0
H517 H 0.47009 0.32246 0.4075 0.0
H518 H 0.48302 0.29968 0.42469 0.0
H519 H 0.46154 0.39343 0.43966 0.0
C520 C 0.23571 0.53403 0.46924 0.0
C521 C 0.23769 0.56029 0.46201 0.0
C522 C 0.19715 0.58957 0.47123 0.0
C523 C 0.21884 0.588 0.46306 0.0
C524 C 0.19592 0.56311 0.47858 0.0
C525 C 0.21533 0.5359 0.47767 0.0
U526 U 0.28084 0.44794 0.46353 0.0
O527 O 0.30526 0.4266 0.47724 0.0
O528 O 0.26208 0.40424 0.47159 0.0
C529 C 0.28421 0.40383 0.47847 0.0
C530 C 0.25192 0.503 0.46722 0.0
C531 C 0.28661 0.37684 0.48612 0.0
C532 C 0.27984 0.35795 0.50415 0.0
C533 C 0.2819 0.38386 0.49685 0.0
C534 C 0.28893 0.31788 0.49008 0.0
C535 C 0.28325 0.32463 0.50084 0.0
C536 C 0.29031 0.34384 0.48274 0.0
C537 C 0.31172 0.42867 0.43387 0.0
C538 C 0.33932 0.39463 0.42127 0.0
C539 C 0.30465 0.43686 0.41501 0.0
C540 C 0.29826 0.44589 0.42548 0.0
C541 C 0.32452 0.41036 0.41277 0.0
C542 C 0.33273 0.40352 0.43173 0.0
C543 C 0.30172 0.43416 0.44478 0.0
O544 O 0.23806 0.47592 0.46396 0.0
O545 O 0.28127 0.50075 0.46843 0.0
O546 O 0.31858 0.44883 0.45198 0.0
O547 O 0.27376 0.42788 0.44754 0.0
H548 H 0.25312 0.55888 0.45536 0.0
H549 H 0.2209 0.60783 0.4573 0.0
H550 H 0.17888 0.56209 0.48469 0.0
H551 H 0.21333 0.51548 0.48324 0.0
H552 H 0.27449 0.36401 0.5123 0.0
H553 H 0.27847 0.4093 0.49951 0.0
H554 H 0.29186 0.2925 0.48731 0.0
H555 H 0.29372 0.33815 0.47443 0.0
H556 H 0.35567 0.37507 0.41988 0.0
H557 H 0.29288 0.44961 0.4087 0.0
H558 H 0.282 0.46546 0.42703 0.0
H559 H 0.34331 0.39001 0.43815 0.0
C560 C 0.54789 0.53277 0.31203 0.0
C561 C 0.55623 0.54669 0.32181 0.0
C562 C 0.58559 0.58954 0.31263 0.0
C563 C 0.57492 0.57502 0.32211 0.0
C564 C 0.57602 0.57612 0.30293 0.0
C565 C 0.55739 0.54814 0.30265 0.0
U566 U 0.50255 0.44892 0.31826 0.0
O567 O 0.47448 0.42313 0.30629 0.0
O568 O 0.51722 0.40052 0.31187 0.0
C569 C 0.49303 0.39757 0.30597 0.0
C570 C 0.53285 0.50019 0.31096 0.0
C571 C 0.49321 0.3743 0.29697 0.0
C572 C 0.50329 0.358 0.27872 0.0
C573 C 0.50087 0.38304 0.28652 0.0
C574 C 0.48909 0.3164 0.2917 0.0
C575 C 0.49836 0.32426 0.28139 0.0
C576 C 0.48681 0.34107 0.29939 0.0
C577 C 0.47204 0.43414 0.34808 0.0
C578 C 0.46567 0.39064 0.36138 0.0
C579 C 0.45615 0.44826 0.36598 0.0
C580 C 0.46296 0.45773 0.35562 0.0
C581 C 0.45874 0.41483 0.36917 0.0
C582 C 0.47246 0.40023 0.35091 0.0
C583 C 0.48497 0.44721 0.3381 0.0
O584 O 0.54565 0.47431 0.31545 0.0
O585 O 0.50325 0.49876 0.31075 0.0
O586 O 0.46751 0.45841 0.33048 0.0
O587 O 0.51125 0.436 0.33488 0.0
H588 H 0.54935 0.535 0.32916 0.0
H589 H 0.58219 0.58452 0.32973 0.0
H590 H 0.58354 0.58681 0.2955 0.0
H591 H 0.55135 0.53762 0.29502 0.0
H592 H 0.51006 0.36477 0.27076 0.0
H593 H 0.50571 0.40872 0.28449 0.0
H594 H 0.48401 0.29092 0.29391 0.0
H595 H 0.4806 0.33397 0.30739 0.0
H596 H 0.46749 0.36457 0.36351 0.0
H597 H 0.44959 0.46744 0.37157 0.0
H598 H 0.46243 0.48399 0.35362 0.0
H599 H 0.47933 0.38148 0.3452 0.0
C600 C 0.23355 0.25031 0.31033 0.0
C601 C 0.23277 0.231 0.31963 0.0
C602 C 0.19627 0.19318 0.3114 0.0
C603 C 0.21437 0.20233 0.32012 0.0
C604 C 0.19803 0.21205 0.30209 0.0
C605 C 0.21654 0.2401 0.30156 0.0
U606 U 0.27878 0.33286 0.31791 0.0
O607 O 0.30803 0.36133 0.30695 0.0
O608 O 0.26486 0.38254 0.3125 0.0
C609 C 0.28947 0.38691 0.30689 0.0
C610 C 0.24923 0.28271 0.30939 0.0
C611 C 0.2878 0.40879 0.29756 0.0
C612 C 0.27287 0.42347 0.27959 0.0
C613 C 0.2752 0.39963 0.28775 0.0
C614 C 0.29504 0.46508 0.29111 0.0
C615 C 0.28292 0.45653 0.28121 0.0
C616 C 0.29779 0.44147 0.29908 0.0
C617 C 0.30382 0.3441 0.34831 0.0
C618 C 0.33294 0.38051 0.35996 0.0
C619 C 0.29913 0.33931 0.36737 0.0
C620 C 0.29147 0.32884 0.35725 0.0
C621 C 0.3204 0.36478 0.36897 0.0
C622 C 0.32463 0.37028 0.34965 0.0
C623 C 0.29306 0.33122 0.33804 0.0
O624 O 0.23603 0.30867 0.31372 0.0
O625 O 0.27884 0.2838 0.30981 0.0
O626 O 0.3122 0.32278 0.33053 0.0
O627 O 0.26675 0.34143 0.33459 0.0
H628 H 0.24561 0.23851 0.32652 0.0
H629 H 0.2133 0.18815 0.32741 0.0
H630 H 0.1845 0.20548 0.29526 0.0
H631 H 0.21676 0.25463 0.29433 0.0
H632 H 0.26316 0.41615 0.27206 0.0
H633 H 0.26698 0.37452 0.28647 0.0
H634 H 0.30173 0.49045 0.29287 0.0
H635 H 0.30707 0.44913 0.30664 0.0
H636 H 0.34908 0.40057 0.36088 0.0
H637 H 0.28742 0.32786 0.37395 0.0
H638 H 0.27512 0.30892 0.3564 0.0
H639 H 0.33428 0.38271 0.34283 0.0
C640 C 0.94543 0.27768 0.56112 0.0
C641 C 0.93699 0.29087 0.571 0.0
C642 C 0.90885 0.33482 0.56209 0.0
C643 C 0.91886 0.31955 0.57147 0.0
C644 C 0.91803 0.32202 0.55228 0.0
C645 C 0.93625 0.29375 0.55181 0.0
U646 U 0.98952 0.19308 0.56698 0.0
O647 O 0.9751 0.14641 0.55924 0.0
O648 O 0.01922 0.1697 0.55503 0.0
C649 C 0.99945 0.14583 0.55333 0.0
C650 C 0.96069 0.24545 0.55989 0.0
C651 C 1.00506 0.11915 0.54571 0.0
C652 C 1.00331 0.09903 0.52761 0.0
C653 C 1.00155 0.12526 0.53487 0.0
C654 C 0.0125 0.06046 0.54203 0.0
C655 C 1.00855 0.06626 0.53112 0.0
C656 C 0.01081 0.08676 0.54927 0.0
C657 C 0.01324 0.17853 0.59765 0.0
C658 C 0.03833 0.14257 0.61035 0.0
C659 C 1.00913 0.18994 0.61644 0.0
C660 C 1.00255 0.19816 0.60599 0.0
C661 C 0.02728 0.16221 0.61881 0.0
C662 C 0.03125 0.15062 0.59982 0.0
C663 C 1.00345 0.18738 0.58693 0.0
O664 O 0.99026 0.24413 0.56041 0.0
O665 O 0.94707 0.219 0.5637 0.0
O666 O 0.97742 0.17719 0.58318 0.0
O667 O 0.0225 0.19941 0.57991 0.0
H668 H 0.94366 0.27859 0.57826 0.0
H669 H 0.91195 0.32928 0.57911 0.0
H670 H 0.91056 0.3335 0.54498 0.0
H671 H 0.94234 0.28369 0.54412 0.0
H672 H 1.00023 0.10433 0.51927 0.0
H673 H 0.99661 0.15017 0.53205 0.0
H674 H 0.01569 0.03546 0.54503 0.0
H675 H 0.01312 0.08168 0.55766 0.0
H676 H 0.0522 0.12091 0.61189 0.0
H677 H 0.99893 0.20477 0.62265 0.0
H678 H 0.98828 0.21953 0.60444 0.0
H679 H 0.03945 0.13496 0.59343 0.0
C680 C 0.31348 1.00732 0.56081 0.0
C681 C 0.31864 0.99305 0.57081 0.0
C682 C 0.34841 0.94856 0.56255 0.0
C683 C 0.33582 0.96366 0.57166 0.0
C684 C 0.342 0.96247 0.5526 0.0
C685 C 0.32469 0.99134 0.55176 0.0
U686 U 0.27103 0.09215 0.5672 0.0
O687 O 0.2854 0.14076 0.56099 0.0
O688 O 0.24176 0.11919 0.55593 0.0
C689 C 0.26045 0.14461 0.55555 0.0
C690 C 0.29955 0.04034 0.55928 0.0
C691 C 0.26061 0.16722 0.54644 0.0
C692 C 0.27276 0.1829 0.52833 0.0
C693 C 0.27053 0.15832 0.53624 0.0
C694 C 0.2543 0.22438 0.54075 0.0
C695 C 0.26549 0.21631 0.53069 0.0
C696 C 0.25201 0.2001 0.54853 0.0
C697 C 0.24387 0.1045 0.59752 0.0
C698 C 0.23726 0.14658 0.6113 0.0
C699 C 0.23112 0.08809 0.61548 0.0
C700 C 0.2369 0.07983 0.60495 0.0
C701 C 0.23241 0.12137 0.61891 0.0
C702 C 0.24323 0.13819 0.60065 0.0
C703 C 0.2555 0.09283 0.58721 0.0
O704 O 0.27 0.04273 0.5594 0.0
O705 O 0.31331 0.06608 0.56354 0.0
O706 O 0.28158 0.10399 0.58378 0.0
O707 O 0.23714 0.08233 0.57974 0.0
H708 H 0.3101 1.00498 0.57791 0.0
H709 H 0.3396 0.95307 0.57943 0.0
H710 H 0.35133 0.95176 0.54542 0.0
H711 H 0.32106 1.00203 0.54399 0.0
H712 H 0.28126 0.17619 0.52056 0.0
H713 H 0.27723 0.13293 0.53448 0.0
H714 H 0.24795 0.24976 0.54269 0.0
H715 H 0.24421 0.2073 0.55635 0.0
H716 H 0.23808 0.17253 0.6137 0.0
H717 H 0.22657 0.06817 0.62104 0.0
H718 H 0.23728 0.05373 0.6027 0.0
H719 H 0.24852 0.15772 0.59503 0.0
C720 C 0.94511 1.00747 0.72143 0.0
C721 C 0.94007 0.99171 0.71163 0.0
C722 C 0.90893 0.94936 0.72039 0.0
C723 C 0.92222 0.96266 0.71114 0.0
C724 C 0.91414 0.96571 0.73008 0.0
C725 C 0.93231 0.99397 0.73059 0.0
U726 U 0.99019 0.09096 0.71496 0.0
O727 O 0.97746 0.13916 0.72199 0.0
O728 O 0.02144 0.11614 0.72602 0.0
C729 C 1.00326 0.14187 0.72699 0.0
C730 C 0.96087 0.03959 0.72268 0.0
C731 C 1.00582 0.16475 0.736 0.0
C732 C 0.99531 0.18266 0.75403 0.0
C733 C 0.99426 0.15793 0.74613 0.0
C734 C 0.01988 0.22026 0.74171 0.0
C735 C 1.00777 0.21424 0.7518 0.0
C736 C 0.01886 0.19578 0.73392 0.0
C737 C 0.0128 0.10466 0.68425 0.0
C738 C 0.04245 0.1381 0.67197 0.0
C739 C 1.00509 0.09933 0.66534 0.0
C740 C 0.99833 0.08983 0.67564 0.0
C741 C 0.02705 0.12371 0.66328 0.0
C742 C 0.03516 0.12883 0.68244 0.0
C743 C 1.00287 0.09346 0.69477 0.0
O744 O 0.99045 0.04053 0.72202 0.0
O745 O 0.9475 0.06628 0.71894 0.0
O746 O 0.9772 0.10425 0.69867 0.0
O747 O 0.02231 0.08261 0.70182 0.0
H748 H 0.94948 1.002 0.70441 0.0
H749 H 0.91864 0.95077 0.70353 0.0
H750 H 0.90338 0.95743 0.73732 0.0
H751 H 0.93548 1.00611 0.73819 0.0
H752 H 0.98545 0.17755 0.76171 0.0
H753 H 0.9839 0.13407 0.74784 0.0
H754 H 0.02983 0.24417 0.73979 0.0
H755 H 0.02776 0.2014 0.72612 0.0
H756 H 0.06017 0.15623 0.67073 0.0
H757 H 0.9923 0.08797 0.659 0.0
H758 H 0.98113 0.07104 0.67689 0.0
H759 H 0.04681 0.14043 0.68902 0.0
C760 C 0.31487 0.27188 0.7222 0.0
C761 C 0.32172 0.28474 0.71211 0.0
C762 C 0.34828 0.33181 0.72023 0.0
C763 C 0.33823 0.31459 0.71114 0.0
C764 C 0.34018 0.31941 0.73025 0.0
C765 C 0.32367 0.28989 0.7312 0.0
U766 U 0.27254 0.18967 0.71422 0.0
O767 O 0.28474 0.1385 0.71875 0.0
O768 O 0.24161 0.15971 0.72414 0.0
C769 C 0.25967 0.13371 0.72408 0.0
C770 C 0.30133 0.23853 0.72383 0.0
C771 C 0.26134 0.11256 0.73363 0.0
C772 C 0.27728 0.0998 0.75166 0.0
C773 C 0.27444 0.12271 0.74326 0.0
C774 C 0.25354 0.0572 0.74091 0.0
C775 C 0.26734 0.0666 0.75045 0.0
C776 C 0.25056 0.0799 0.73264 0.0
C777 C 0.2464 0.18256 0.6842 0.0
C778 C 0.2334 0.1363 0.67252 0.0
C779 C 0.23686 0.19231 0.66551 0.0
C780 C 0.24366 0.20431 0.6756 0.0
C781 C 0.23247 0.15808 0.66374 0.0
C782 C 0.24056 0.14842 0.68269 0.0
C783 C 0.25877 0.19663 0.69409 0.0
O784 O 0.27178 0.2362 0.72364 0.0
O785 O 0.31492 0.21329 0.7192 0.0
O786 O 0.28464 0.1847 0.69741 0.0
O787 O 0.24013 0.20461 0.7018 0.0
H788 H 0.31524 0.27119 0.70504 0.0
H789 H 0.3443 0.32335 0.70331 0.0
H790 H 0.34727 0.33219 0.73739 0.0
H791 H 0.31866 0.28045 0.73905 0.0
H792 H 0.28816 0.10764 0.75893 0.0
H793 H 0.28299 0.14784 0.74418 0.0
H794 H 0.2454 0.03197 0.73978 0.0
H795 H 0.24036 0.07159 0.7253 0.0
H796 H 0.22946 0.10984 0.67147 0.0
H797 H 0.23661 0.20977 0.65897 0.0
H798 H 0.24823 0.23069 0.67659 0.0
H799 H 0.24249 0.13115 0.68925 0.0
C800 C 0.06839 0.75214 0.46986 0.0
C801 C 0.06725 0.7278 0.46189 0.0
C802 C 0.10669 0.69612 0.47097 0.0
C803 C 0.08609 0.69973 0.46251 0.0
C804 C 0.10756 0.72115 0.47879 0.0
C805 C 0.08822 0.74831 0.47834 0.0
U806 U 0.01897 0.83391 0.46344 0.0
O807 O 0.9907 0.85518 0.47619 0.0
O808 O 0.03304 0.88073 0.47116 0.0
C809 C 1.00988 0.87982 0.47763 0.0
C810 C 0.05094 0.78304 0.46961 0.0
C811 C 1.00475 0.90576 0.48558 0.0
C812 C 1.0054 0.92316 0.50399 0.0
C813 C 1.00569 0.8978 0.49638 0.0
C814 C 1.00209 0.96445 0.49003 0.0
C815 C 1.00412 0.95676 0.50086 0.0
C816 C 1.00269 0.93912 0.48243 0.0
C817 C 0.99138 0.85062 0.43328 0.0
C818 C 0.98546 0.89277 0.41962 0.0
C819 C 0.97867 0.83442 0.41529 0.0
C820 C 0.98447 0.82595 0.42581 0.0
C821 C 0.98021 0.86783 0.41194 0.0
C822 C 0.99111 0.88422 0.43021 0.0
C823 C 1.00217 0.83998 0.44374 0.0
O824 O 0.06315 0.81012 0.46566 0.0
O825 O 0.02131 0.78238 0.46951 0.0
O826 O 0.98452 0.82612 0.45088 0.0
O827 O 0.02788 0.85166 0.44734 0.0
H828 H 0.05215 0.73061 0.45522 0.0
H829 H 0.08466 0.68107 0.45632 0.0
H830 H 0.12404 0.72086 0.48509 0.0
H831 H 0.08957 0.76717 0.48449 0.0
H832 H 1.00646 0.91654 0.5123 0.0
H833 H 1.00771 0.8721 0.49891 0.0
H834 H 1.00111 0.99014 0.48741 0.0
H835 H 1.00228 0.94561 0.4741 0.0
H836 H 0.98663 0.91878 0.41737 0.0
H837 H 0.97347 0.81462 0.40974 0.0
H838 H 0.98457 0.79986 0.42804 0.0
H839 H 0.99636 0.90367 0.43589 0.0
C840 C 0.71351 0.02804 0.47146 0.0
C841 C 0.70195 0.03902 0.4617 0.0
C842 C 0.67607 0.08529 0.47056 0.0
C843 C 0.68347 0.06752 0.46126 0.0
C844 C 0.68967 0.07551 0.48013 0.0
C845 C 0.70794 0.04714 0.48057 0.0
U846 U 0.75776 0.94682 0.46325 0.0
O847 O 0.78873 0.91742 0.4733 0.0
O848 O 0.74597 0.89558 0.46783 0.0
C849 C 0.77088 0.89124 0.47327 0.0
C850 C 0.72793 0.99502 0.47283 0.0
C851 C 0.76905 0.8703 0.48287 0.0
C852 C 0.74826 0.85499 0.50011 0.0
C853 C 0.75188 0.8785 0.4919 0.0
C854 C 0.77979 0.81604 0.49049 0.0
C855 C 0.76139 0.82305 0.49927 0.0
C856 C 0.78345 0.8393 0.48241 0.0
C857 C 0.78543 0.93869 0.43345 0.0
C858 C 0.79896 0.89118 0.42234 0.0
C859 C 0.79603 0.94637 0.41468 0.0
C860 C 0.78857 0.95949 0.4246 0.0
C861 C 0.80042 0.91201 0.41336 0.0
C862 C 0.79149 0.90444 0.43235 0.0
C863 C 0.77234 0.9536 0.44314 0.0
O864 O 0.71491 0.9696 0.46812 0.0
O865 O 0.75753 0.99347 0.47266 0.0
O866 O 0.79049 0.96206 0.45092 0.0
O867 O 0.74639 0.9416 0.44639 0.0
H868 H 0.70605 0.02479 0.45454 0.0
H869 H 0.6737 0.07456 0.45373 0.0
H870 H 0.68551 0.08925 0.48738 0.0
H871 H 0.71673 0.03928 0.48817 0.0
H872 H 0.73424 0.8612 0.50687 0.0
H873 H 0.74063 0.90241 0.49244 0.0
H874 H 0.79091 0.7921 0.48975 0.0
H875 H 0.79691 0.83254 0.47556 0.0
H876 H 0.80233 0.86454 0.42152 0.0
H877 H 0.79661 0.96291 0.4079 0.0
H878 H 0.78378 0.98592 0.42525 0.0
H879 H 0.78919 0.88788 0.43907 0.0
C880 C 0.06802 0.03099 0.31024 0.0
C881 C 0.07314 0.04638 0.32011 0.0
C882 C 0.10673 0.08678 0.31168 0.0
C883 C 0.09241 0.07426 0.32081 0.0
C884 C 0.10065 0.07203 0.30185 0.0
C885 C 0.08148 0.0445 0.30115 0.0
U886 U 0.02044 0.95043 0.31767 0.0
O887 O 0.98884 0.92407 0.30698 0.0
O888 O 0.0311 0.89983 0.31204 0.0
C889 C 1.00577 0.89715 0.30674 0.0
C890 C 0.05161 0.99911 0.30896 0.0
C891 C 1.00484 0.87444 0.29754 0.0
C892 C 0.01209 0.85947 0.27897 0.0
C893 C 0.01226 0.88369 0.2871 0.0
C894 C 0.99674 0.81744 0.29165 0.0
C895 C 1.00458 0.82614 0.28129 0.0
C896 C 0.99686 0.84134 0.29966 0.0
C897 C 0.99467 0.93819 0.34772 0.0
C898 C 0.9772 0.89162 0.35851 0.0
C899 C 0.98898 0.94458 0.36676 0.0
C900 C 0.99606 0.95784 0.35688 0.0
C901 C 0.98013 0.91115 0.36779 0.0
C902 C 0.9846 0.90501 0.34852 0.0
C903 C 1.00703 0.95312 0.33795 0.0
O904 O 0.06394 0.97251 0.31318 0.0
O905 O 0.022 0.99916 0.30947 0.0
O906 O 0.98851 0.96349 0.33053 0.0
O907 O 0.03245 0.94094 0.33427 0.0
H908 H 0.06309 0.03633 0.32725 0.0
H909 H 0.09684 0.08542 0.32847 0.0
H910 H 0.11148 0.08123 0.29473 0.0
H911 H 0.07799 0.03291 0.29349 0.0
H912 H 0.01832 0.86652 0.27098 0.0
H913 H 0.01853 0.90915 0.28528 0.0
H914 H 0.99102 0.7919 0.29359 0.0
H915 H 0.9911 0.83374 0.30765 0.0
H916 H 0.9699 0.8659 0.35902 0.0
H917 H 0.99182 0.96024 0.37369 0.0
H918 H 1.00393 0.98339 0.35645 0.0
H919 H 0.98333 0.88934 0.34153 0.0
C920 C 0.7147 0.75142 0.3113 0.0
C921 C 0.70764 0.73741 0.32119 0.0
C922 C 0.67657 0.69509 0.31247 0.0
C923 C 0.68882 0.70923 0.32176 0.0
C924 C 0.68522 0.70821 0.30262 0.0
C925 C 0.70408 0.73599 0.30207 0.0
U926 U 0.75797 0.83589 0.31798 0.0
O927 O 0.78664 0.86357 0.30663 0.0
O928 O 0.74308 0.88448 0.31195 0.0
C929 C 0.76764 0.88871 0.30629 0.0
C930 C 0.72912 0.78434 0.31005 0.0
C931 C 0.76596 0.9098 0.29678 0.0
C932 C 0.74516 0.92633 0.27972 0.0
C933 C 0.74844 0.90238 0.28781 0.0
C934 C 0.77768 0.96405 0.28942 0.0
C935 C 0.75933 0.95779 0.28059 0.0
C936 C 0.78079 0.94047 0.29739 0.0
C937 C 0.78651 0.84798 0.34814 0.0
C938 C 0.80017 0.89133 0.36086 0.0
C939 C 0.79401 0.83426 0.36667 0.0
C940 C 0.78763 0.82456 0.35631 0.0
C941 C 0.79903 0.86791 0.36919 0.0
C942 C 0.79371 0.88146 0.35036 0.0
C943 C 0.77442 0.83603 0.33792 0.0
O944 O 0.7156 0.80993 0.3145 0.0
O945 O 0.7587 0.7865 0.31008 0.0
O946 O 0.79253 0.8262 0.33027 0.0
O947 O 0.74805 0.84688 0.33471 0.0
H948 H 0.71564 0.74892 0.32844 0.0
H949 H 0.68312 0.69908 0.32946 0.0
H950 H 0.67622 0.69801 0.29533 0.0
H951 H 0.70913 0.74654 0.29436 0.0
H952 H 0.73056 0.92075 0.27309 0.0
H953 H 0.73663 0.87881 0.28722 0.0
H954 H 0.78939 0.98759 0.29029 0.0
H955 H 0.79429 0.94668 0.30427 0.0
H956 H 0.80436 0.91742 0.36254 0.0
H957 H 0.79395 0.8154 0.3728 0.0
H958 H 0.78229 0.79862 0.35477 0.0
H959 H 0.79315 0.90001 0.34413 0.0
C960 C 0.94825 0.77552 0.06113 0.0
C961 C 0.93185 0.78333 0.07035 0.0
C962 C 0.9115 0.83315 0.06179 0.0
C963 C 0.91368 0.81204 0.07068 0.0
C964 C 0.92962 0.82625 0.05291 0.0
C965 C 0.94758 0.7977 0.05257 0.0
U966 U 0.99178 0.69159 0.06729 0.0
O967 O 0.97982 0.64279 0.06051 0.0
O968 O 0.02355 0.66632 0.05641 0.0
C969 C 1.00572 0.64028 0.05552 0.0
C970 C 0.96272 0.74281 0.05935 0.0
C971 C 1.00845 0.6174 0.04649 0.0
C972 C 0.99876 0.59953 0.0284 0.0
C973 C 0.99805 0.62454 0.03623 0.0
C974 C 0.02111 0.56128 0.04099 0.0
C975 C 1.00945 0.56739 0.03087 0.0
C976 C 0.02048 0.58599 0.0487 0.0
C977 C 0.01579 0.67928 0.09783 0.0
C978 C 0.03309 0.63664 0.11011 0.0
C979 C 0.01869 0.69122 0.11665 0.0
C980 C 0.01245 0.70135 0.10635 0.0
C981 C 0.02863 0.65877 0.11864 0.0
C982 C 0.02668 0.64686 0.09968 0.0
C983 C 1.00483 0.69117 0.0875 0.0
O984 O 0.9923 0.74113 0.05965 0.0
O985 O 0.94923 0.71636 0.06325 0.0
O986 O 0.97953 0.6791 0.08371 0.0
O987 O 0.02383 0.70211 0.0803 0.0
H988 H 0.93203 0.7666 0.07708 0.0
H989 H 0.90025 0.81684 0.0777 0.0
H990 H 0.92947 0.84255 0.04608 0.0
H991 H 0.96008 0.7922 0.04539 0.0
H992 H 0.9899 0.60483 0.02058 0.0
H993 H 0.98875 0.64881 0.03438 0.0
H994 H 0.03017 0.53704 0.04302 0.0
H995 H 0.02873 0.58019 0.05657 0.0
H996 H 0.04039 0.61128 0.11156 0.0
H997 H 0.01461 0.7084 0.12314 0.0
H998 H 1.00382 0.7263 0.10508 0.0
H999 H 0.02924 0.62935 0.09319 0.0
C1000 C 0.31308 0.50829 0.06026 0.0
C1001 C 0.32455 0.49824 0.07014 0.0
C1002 C 0.34788 0.44946 0.06187 0.0
C1003 C 0.34183 0.46895 0.07093 0.0
C1004 C 0.33485 0.45867 0.05218 0.0
C1005 C 0.31771 0.48777 0.0514 0.0
U1006 U 0.2724 0.59379 0.06659 0.0
O1007 O 0.28683 0.64264 0.06057 0.0
O1008 O 0.24282 0.62199 0.0557 0.0
C1009 C 0.26175 0.6472 0.05526 0.0
C1010 C 0.30012 0.54174 0.0584 0.0
C1011 C 0.26249 0.66892 0.04586 0.0
C1012 C 0.28124 0.68593 0.02854 0.0
C1013 C 0.2788 0.66169 0.03657 0.0
C1014 C 0.25043 0.72374 0.03892 0.0
C1015 C 0.26733 0.71727 0.02978 0.0
C1016 C 0.2481 0.69983 0.04686 0.0
C1017 C 0.24467 0.60571 0.09675 0.0
C1018 C 0.23758 0.64912 0.1101 0.0
C1019 C 0.22992 0.59117 0.1147 0.0
C1020 C 0.23659 0.58187 0.10432 0.0
C1021 C 0.23117 0.62473 0.11785 0.0
C1022 C 0.24442 0.63965 0.0996 0.0
C1023 C 0.25699 0.59282 0.08666 0.0
O1024 O 0.27063 0.54494 0.05841 0.0
O1025 O 0.31423 0.56724 0.06267 0.0
O1026 O 0.28311 0.60404 0.08329 0.0
O1027 O 0.23868 0.58302 0.07909 0.0
H1028 H 0.32123 0.51363 0.07711 0.0
H1029 H 0.35117 0.46201 0.07853 0.0
H1030 H 0.33911 0.44418 0.04508 0.0
H1031 H 0.30923 0.49514 0.04371 0.0
H1032 H 0.29433 0.68052 0.02149 0.0
H1033 H 0.29018 0.63796 0.03565 0.0
H1034 H 0.23974 0.74777 0.04006 0.0
H1035 H 0.23568 0.70596 0.05401 0.0
H1036 H 0.23903 0.67521 0.11226 0.0
H1037 H 0.22471 0.57178 0.12038 0.0
H1038 H 0.23679 0.55557 0.10231 0.0
H1039 H 0.25075 0.65855 0.09389 0.0
C1040 C 0.94635 0.5079 0.22134 0.0
C1041 C 0.94026 0.49369 0.21136 0.0
C1042 C 0.91037 0.45004 0.21986 0.0
C1043 C 0.92251 0.46464 0.21065 0.0
C1044 C 0.91723 0.46391 0.22975 0.0
C1045 C 0.93518 0.49236 0.23047 0.0
U1046 U 0.99077 0.59171 0.21496 0.0
O1047 O 0.97852 0.64018 0.2219 0.0
O1048 O 0.02239 0.61709 0.22589 0.0
C1049 C 1.0044 0.64298 0.22685 0.0
C1050 C 0.96156 0.54033 0.22282 0.0
C1051 C 1.00675 0.66562 0.23599 0.0
C1052 C 0.99274 0.68508 0.25359 0.0
C1053 C 0.99213 0.66017 0.24572 0.0
C1054 C 0.02308 0.72008 0.24213 0.0
C1055 C 1.00792 0.71534 0.25173 0.0
C1056 C 0.02245 0.69545 0.23434 0.0
C1057 C 0.0143 0.60348 0.18421 0.0
C1058 C 0.03449 0.64307 0.17141 0.0
C1059 C 0.01374 0.59036 0.16548 0.0
C1060 C 1.00772 0.5816 0.17591 0.0
C1061 C 0.02656 0.62138 0.16305 0.0
C1062 C 0.02825 0.63421 0.182 0.0
C1063 C 1.00396 0.59324 0.19479 0.0
O1064 O 0.99114 0.54163 0.22227 0.0
O1065 O 0.94814 0.56686 0.21898 0.0
O1066 O 0.97849 0.60492 0.1986 0.0
O1067 O 0.02298 0.58198 0.20191 0.0
H1068 H 0.9485 0.50541 0.2042 0.0
H1069 H 0.91738 0.45425 0.20293 0.0
H1070 H 0.9082 0.45302 0.23694 0.0
H1071 H 0.93952 0.503 0.23822 0.0
H1072 H 0.98099 0.68106 0.26101 0.0
H1073 H 0.97978 0.63729 0.24712 0.0
H1074 H 0.03477 0.74327 0.24054 0.0
H1075 H 0.03361 0.70016 0.22684 0.0
H1076 H 0.04419 0.6673 0.16973 0.0
H1077 H 1.00758 0.57309 0.15923 0.0
H1078 H 0.99697 0.55783 0.17748 0.0
H1079 H 0.03345 0.65153 0.18833 0.0
C1080 C 0.31212 0.77429 0.22062 0.0
C1081 C 0.32584 0.78399 0.21105 0.0
C1082 C 0.34714 0.83325 0.21972 0.0
C1083 C 0.3431 0.81342 0.2106 0.0
C1084 C 0.33155 0.82453 0.22901 0.0
C1085 C 0.31437 0.79539 0.22945 0.0
U1086 U 0.27111 0.68892 0.21419 0.0
O1087 O 0.28541 0.63977 0.22 0.0
O1088 O 0.2417 0.6607 0.22515 0.0
C1089 C 0.26044 0.63531 0.22542 0.0
C1090 C 0.2991 0.74075 0.22236 0.0
C1091 C 0.26122 0.61314 0.23469 0.0
C1092 C 0.27439 0.59842 0.25281 0.0
C1093 C 0.27215 0.62246 0.24472 0.0
C1094 C 0.25439 0.55644 0.24092 0.0
C1095 C 0.26607 0.56492 0.25088 0.0
C1096 C 0.25197 0.58025 0.23297 0.0
C1097 C 0.24447 0.6781 0.18388 0.0
C1098 C 0.22987 0.63491 0.17128 0.0
C1099 C 0.23752 0.69164 0.16532 0.0
C1100 C 0.24411 0.70133 0.17564 0.0
C1101 C 0.23051 0.65834 0.16293 0.0
C1102 C 0.23693 0.6447 0.18172 0.0
C1103 C 0.25609 0.69014 0.19413 0.0
O1104 O 0.2696 0.73762 0.22244 0.0
O1105 O 0.31311 0.71526 0.21803 0.0
O1106 O 0.28221 0.67903 0.19749 0.0
O1107 O 0.23745 0.6994 0.20169 0.0
H1108 H 0.32439 0.76815 0.20411 0.0
H1109 H 0.35459 0.81969 0.20329 0.0
H1110 H 0.33339 0.83974 0.23608 0.0
H1111 H 0.30393 0.78848 0.2369 0.0
H1112 H 0.28289 0.6059 0.26049 0.0
H1113 H 0.27934 0.64785 0.24622 0.0
H1114 H 0.24803 0.53098 0.23911 0.0
H1115 H 0.24356 0.57262 0.22528 0.0
H1116 H 0.22466 0.60899 0.16968 0.0
H1117 H 0.23936 0.71013 0.15911 0.0
H1118 H 0.25032 0.72707 0.17712 0.0
H1119 H 0.23729 0.62624 0.18797 0.0
C1120 C 0.06565 0.25042 0.97007 0.0
C1121 C 0.07505 0.23783 0.96021 0.0
C1122 C 0.10582 0.19592 0.96917 0.0
C1123 C 0.09493 0.21056 0.95977 0.0
C1124 C 0.09513 0.20778 0.97894 0.0
C1125 C 0.07529 0.23469 0.97936 0.0
U1126 U 0.01964 0.33354 0.96392 0.0
O1127 O 0.98959 0.3584 0.97546 0.0
O1128 O 0.03311 0.3817 0.97083 0.0
C1129 C 1.00789 0.3841 0.97623 0.0
C1130 C 0.04965 0.28233 0.97134 0.0
C1131 C 1.00566 0.40755 0.98509 0.0
C1132 C 0.01196 0.42424 1.00345 0.0
C1133 C 0.01248 0.39929 0.99562 0.0
C1134 C 0.99697 0.46485 0.99027 0.0
C1135 C 1.00451 0.45741 1.00079 0.0
C1136 C 0.99769 0.44023 0.98253 0.0
C1137 C 0.99477 0.34765 0.93346 0.0
C1138 C 0.97039 0.38629 0.92132 0.0
C1139 C 0.99897 0.33938 0.91452 0.0
C1140 C 1.00517 0.32924 0.92479 0.0
C1141 C 0.98216 0.36834 0.91264 0.0
C1142 C 0.97678 0.37603 0.93176 0.0
C1143 C 1.00537 0.33658 0.94389 0.0
O1144 O 0.06261 0.30902 0.96741 0.0
O1145 O 0.02003 0.28298 0.97095 0.0
O1146 O 0.98649 0.32541 0.9511 0.0
O1147 O 0.0313 0.34737 0.94755 0.0
H1148 H 0.06793 0.24971 0.95293 0.0
H1149 H 0.10236 0.20141 0.95212 0.0
H1150 H 0.10312 0.19714 0.9863 0.0
H1151 H 0.06852 0.24428 0.98705 0.0
H1152 H 0.01835 0.41782 1.01147 0.0
H1153 H 0.01884 0.37407 0.9977 0.0
H1154 H 0.99072 0.48992 0.98797 0.0
H1155 H 0.9924 0.44691 0.97442 0.0
H1156 H 0.95759 0.40892 0.92004 0.0
H1157 H 1.00823 0.3251 0.90798 0.0
H1158 H 0.01904 0.30732 0.92597 0.0
H1159 H 0.96858 0.39064 0.93839 0.0
C1160 C 0.71296 0.52698 0.97184 0.0
C1161 C 0.70491 0.5394 0.96183 0.0
C1162 C 0.67583 0.58413 0.97019 0.0
C1163 C 0.68648 0.56781 0.96102 0.0
C1164 C 0.68544 0.57268 0.98013 0.0
C1165 C 0.7037 0.54437 0.98093 0.0
U1166 U 0.75716 0.44562 0.96374 0.0
O1167 O 0.78756 0.41619 0.97397 0.0
O1168 O 0.74506 0.39442 0.96821 0.0
C1169 C 0.7697 0.39 0.97377 0.0
C1170 C 0.7275 0.49408 0.97328 0.0
C1171 C 0.76733 0.36871 0.98326 0.0
C1172 C 0.75393 0.35694 1.00163 0.0
C1173 C 0.75734 0.37986 0.99324 0.0
C1174 C 0.771 0.31238 0.99011 0.0
C1175 C 0.76028 0.32279 1.00004 0.0
C1176 C 0.77441 0.33501 0.98186 0.0
C1177 C 0.78464 0.43666 0.93383 0.0
C1178 C 0.79407 0.39001 0.92178 0.0
C1179 C 0.79844 0.4467 0.91546 0.0
C1180 C 0.7913 0.45861 0.92555 0.0
C1181 C 0.7989 0.41231 0.91328 0.0
C1182 C 0.78692 0.40211 0.93199 0.0
C1183 C 0.77169 0.45145 0.9436 0.0
O1184 O 0.71441 0.4686 0.96863 0.0
O1185 O 0.7571 0.49258 0.973 0.0
O1186 O 0.7899 0.46025 0.95132 0.0
O1187 O 0.74567 0.43978 0.94691 0.0
H1188 H 0.71185 0.52644 0.95469 0.0
H1189 H 0.67984 0.5765 0.95324 0.0
H1190 H 0.67764 0.58469 0.98733 0.0
H1191 H 0.70952 0.53515 0.98873 0.0
H1192 H 0.74546 0.36566 1.0092 0.0
H1193 H 0.75169 0.40585 0.99448 0.0
H1194 H 0.77651 0.28644 0.98867 0.0
H1195 H 0.78221 0.32593 0.97424 0.0
H1196 H 0.79399 0.36334 0.92043 0.0
H1197 H 0.80256 0.46466 0.90923 0.0
H1198 H 0.78964 0.48532 0.92676 0.0
H1199 H 0.7818 0.38461 0.93827 0.0
C1200 C 0.06686 0.5338 0.81202 0.0
C1201 C 0.07599 0.54751 0.82173 0.0
C1202 C 0.10652 0.58821 0.81227 0.0
C1203 C 0.09583 0.57473 0.82184 0.0
C1204 C 0.09653 0.57498 0.80262 0.0
C1205 C 0.07688 0.54795 0.80251 0.0
U1206 U 0.02034 0.45038 0.81781 0.0
O1207 O 0.99131 0.42801 0.80554 0.0
O1208 O 0.03523 0.40437 0.80979 0.0
C1209 C 0.01123 0.40438 0.80373 0.0
C1210 C 0.05046 0.5023 0.81122 0.0
C1211 C 1.00595 0.37828 0.79595 0.0
C1212 C 0.01481 0.35642 0.77834 0.0
C1213 C 0.01572 0.38288 0.78551 0.0
C1214 C 0.99283 0.32116 0.7919 0.0
C1215 C 1.00402 0.32505 0.78154 0.0
C1216 C 0.99415 0.34753 0.79911 0.0
C1217 C 0.99464 0.43432 0.84822 0.0
C1218 C 0.96953 0.3977 0.86077 0.0
C1219 C 1.00046 0.4435 0.86706 0.0
C1220 C 1.00642 0.45279 0.85666 0.0
C1221 C 0.98254 0.41552 0.86922 0.0
C1222 C 0.97566 0.40704 0.85027 0.0
C1223 C 1.00495 0.44276 0.83754 0.0
O1224 O 0.06341 0.47553 0.81507 0.0
O1225 O 0.02085 0.50197 0.81163 0.0
O1226 O 0.98656 0.45586 0.83053 0.0
O1227 O 0.03129 0.43293 0.83394 0.0
H1228 H 0.06865 0.53659 0.82914 0.0
H1229 H 0.10329 0.58486 0.82935 0.0
H1230 H 0.10473 0.58485 0.79516 0.0
H1231 H 0.07038 0.53722 0.79496 0.0
H1232 H 0.02355 0.36021 0.77041 0.0
H1233 H 0.02509 0.40657 0.78303 0.0
H1234 H 0.98346 0.29761 0.79448 0.0
H1235 H 0.98657 0.34373 0.80719 0.0
H1236 H 0.95595 0.37577 0.86228 0.0
H1237 H 0.01073 0.45753 0.87345 0.0
H1238 H 0.02117 0.47384 0.85519 0.0
H1239 H 0.96657 0.39237 0.8438 0.0
C1240 C 0.71275 0.25202 0.81133 0.0
C1241 C 0.70346 0.24027 0.8213 0.0
C1242 C 0.6754 0.19456 0.81287 0.0
C1243 C 0.68485 0.21188 0.82206 0.0
C1244 C 0.68652 0.20552 0.80302 0.0
C1245 C 0.70467 0.23391 0.80227 0.0
U1246 U 0.75712 0.33508 0.81824 0.0
O1247 O 0.78674 0.3633 0.80731 0.0
O1248 O 0.74403 0.38521 0.81294 0.0
C1249 C 0.76865 0.38928 0.8073 0.0
C1250 C 0.72722 0.28496 0.80974 0.0
C1251 C 0.76703 0.41101 0.79789 0.0
C1252 C 0.75107 0.42542 0.78 0.0
C1253 C 0.75393 0.40171 0.78818 0.0
C1254 C 0.77476 0.46703 0.79114 0.0
C1255 C 0.76109 0.45855 0.7815 0.0
C1256 C 0.77768 0.44359 0.79919 0.0
C1257 C 0.78532 0.3455 0.84827 0.0
C1258 C 0.79973 0.39072 0.86019 0.0
C1259 C 0.7939 0.33471 0.86699 0.0
C1260 C 0.78691 0.32341 0.85683 0.0
C1261 C 0.79999 0.36855 0.86889 0.0
C1262 C 0.79233 0.37931 0.84994 0.0
C1263 C 0.77268 0.33203 0.8383 0.0
O1264 O 0.71423 0.3108 0.81424 0.0
O1265 O 0.75682 0.28673 0.80971 0.0
O1266 O 0.79081 0.32279 0.83058 0.0
O1267 O 0.74664 0.34366 0.83505 0.0
H1268 H 0.70929 0.25392 0.82842 0.0
H1269 H 0.67653 0.20489 0.82981 0.0
H1270 H 0.68053 0.19268 0.79577 0.0
H1271 H 0.71149 0.24252 0.79449 0.0
H1272 H 0.74084 0.41799 0.77257 0.0
H1273 H 0.74555 0.37661 0.787 0.0
H1274 H 0.78243 0.49226 0.79262 0.0
H1275 H 0.78769 0.45129 0.80663 0.0
H1276 H 0.80432 0.417 0.86139 0.0
H1277 H 0.79286 0.31706 0.87345 0.0
H1278 H 0.7812 0.29735 0.85575 0.0
H1279 H 0.79109 0.39693 0.84346 0.0
C1280 C 0.55794 0.12105 0.13357 0.0
C1281 C 0.54554 0.15132 0.13006 0.0
C1282 C 0.55883 0.11301 0.14439 0.0
C1283 C 0.54734 0.13486 0.15218 0.0
H1284 H 0.56696 0.10332 0.1279 0.0
H1285 H 0.56826 0.08917 0.14666 0.0
S1286 S 0.51151 0.21682 0.14718 0.0
N1287 N 0.52087 0.20301 0.1353 0.0
N1288 N 0.52285 0.18794 0.15557 0.0
C1289 C 0.53537 0.16546 0.1488 0.0
C1290 C 0.53434 0.17362 0.13778 0.0
C1291 C 0.73933 0.15192 0.14568 0.0
C1292 C 0.71288 0.15178 0.15185 0.0
C1293 C 0.73869 0.14373 0.13491 0.0
C1294 C 0.71154 0.13546 0.12988 0.0
H1295 H 0.76078 0.15828 0.14924 0.0
H1296 H 0.75964 0.14362 0.13049 0.0
S1297 S 0.63606 0.13175 0.14233 0.0
N1298 N 0.65872 0.14292 0.1521 0.0
N1299 N 0.65762 0.12732 0.13172 0.0
C1300 C 0.68491 0.13517 0.13588 0.0
C1301 C 0.68555 0.14335 0.14692 0.0
C1302 C 0.47555 0.90675 0.89848 0.0
C1303 C 0.45507 0.88275 0.90216 0.0
C1304 C 0.47644 0.91592 0.88778 0.0
C1305 C 0.45664 0.90186 0.88025 0.0
H1306 H 0.49194 0.91756 0.90383 0.0
H1307 H 0.49346 0.93371 0.88535 0.0
S1308 S 0.397 0.83961 0.88606 0.0
N1309 N 0.4135 0.84602 0.89761 0.0
N1310 N 0.41467 0.86382 0.87748 0.0
C1311 C 0.43544 0.87837 0.88388 0.0
C1312 C 0.43472 0.8688 0.89482 0.0
C1313 C 0.30873 0.87371 0.89859 0.0
C1314 C 0.32656 0.90043 0.90213 0.0
C1315 C 0.30809 0.86452 0.88788 0.0
C1316 C 0.32547 0.88142 0.88021 0.0
H1317 H 0.29402 0.86074 0.90407 0.0
H1318 H 0.29295 0.84464 0.88555 0.0
S1319 S 0.37869 0.95077 0.8856 0.0
N1320 N 0.36377 0.94222 0.89728 0.0
N1321 N 0.36301 0.92455 0.87715 0.0
C1322 C 0.34432 0.90741 0.88371 0.0
C1323 C 0.34483 0.9169 0.89465 0.0
C1324 C 0.5494 0.67249 0.63799 0.0
C1325 C 0.55437 0.64885 0.62975 0.0
C1326 C 0.54871 0.66365 0.64871 0.0
C1327 C 0.55502 0.6311 0.65198 0.0
H1328 H 0.54556 0.69852 0.63639 0.0
H1329 H 0.54231 0.6825 0.65445 0.0
S1330 S 0.58018 0.56155 0.6347 0.0
N1331 N 0.57146 0.5917 0.62639 0.0
N1332 N 0.57393 0.57696 0.64661 0.0
C1333 C 0.56413 0.60813 0.64417 0.0
C1334 C 0.5632 0.61651 0.63311 0.0
C1335 C 0.69213 0.65657 0.63384 0.0
C1336 C 0.70765 0.62829 0.63013 0.0
C1337 C 0.6912 0.66444 0.64471 0.0
C1338 C 0.70588 0.64445 0.65231 0.0
H1339 H 0.68074 0.67287 0.62831 0.0
H1340 H 0.67936 0.68678 0.64716 0.0
S1341 S 0.7505 0.56827 0.64667 0.0
N1342 N 0.73851 0.58056 0.63494 0.0
N1343 N 0.73667 0.59533 0.65526 0.0
C1344 C 0.72101 0.61581 0.64871 0.0
C1345 C 0.72199 0.60781 0.63766 0.0
C1346 C 0.43977 0.3669 0.39451 0.0
C1347 C 0.45423 0.38556 0.40252 0.0
C1348 C 0.44069 0.37678 0.38383 0.0
C1349 C 0.45612 0.40579 0.38066 0.0
H1350 H 0.42821 0.34394 0.39649 0.0
H1351 H 0.42949 0.36134 0.37799 0.0
S1352 S 0.49762 0.46357 0.39853 0.0
N1353 N 0.48398 0.43477 0.40652 0.0
N1354 N 0.48622 0.45311 0.38654 0.0
C1355 C 0.46999 0.42514 0.38865 0.0
C1356 C 0.46885 0.41516 0.39952 0.0
C1357 C 0.32873 0.40993 0.38259 0.0
C1358 C 0.32728 0.37578 0.38005 0.0
C1359 C 0.32934 0.42083 0.39317 0.0
C1360 C 0.32806 0.3981 0.40166 0.0
H1361 H 0.32787 0.42854 0.37639 0.0
H1362 H 0.32987 0.4474 0.3947 0.0
S1363 S 0.32742 0.30576 0.39929 0.0
N1364 N 0.32889 0.31916 0.38696 0.0
N1365 N 0.32663 0.33959 0.40673 0.0
C1366 C 0.32803 0.36383 0.39923 0.0
C1367 C 0.32849 0.35274 0.38847 0.0
C1368 C 0.03002 0.1191 0.63316 0.0
C1369 C 0.03242 0.15265 0.63009 0.0
C1370 C 0.03043 0.10996 0.64386 0.0
C1371 C 0.03236 0.13399 0.65203 0.0
H1372 H 0.02653 0.09973 0.6273 0.0
H1373 H 0.02818 0.08374 0.64574 0.0
S1374 S 0.04306 0.22496 0.64811 0.0
N1375 N 0.04125 0.20957 0.63599 0.0
N1376 N 0.03895 0.19285 0.65613 0.0
C1377 C 0.03631 0.1675 0.64904 0.0
C1378 C 0.03693 0.17669 0.63809 0.0
C1379 C 0.21246 0.15486 0.63435 0.0
C1380 C 0.23094 0.12909 0.63047 0.0
C1381 C 0.21184 0.16293 0.6452 0.0
C1382 C 0.2298 0.14569 0.65261 0.0
H1383 H 0.19848 0.169 0.62895 0.0
H1384 H 0.19758 0.18331 0.64778 0.0
S1385 S 0.28291 0.0769 0.64643 0.0
N1386 N 0.26805 0.08677 0.63488 0.0
N1387 N 0.26687 0.10189 0.65517 0.0
C1388 C 0.24798 0.11952 0.64883 0.0
C1389 C 0.24862 0.11132 0.63781 0.0
C1390 C 0.96144 0.91515 0.38658 0.0
C1391 C 0.97663 0.89691 0.37865 0.0
C1392 C 0.96197 0.90513 0.39724 0.0
C1393 C 0.97786 0.87651 0.40045 0.0
H1394 H 0.94953 0.93783 0.38457 0.0
H1395 H 0.95011 0.92022 0.40302 0.0
S1396 S 0.0216 0.82014 0.38278 0.0
N1397 N 1.00769 0.84861 0.37474 0.0
N1398 N 1.00937 0.83014 0.39472 0.0
C1399 C 0.9926 0.85763 0.39255 0.0
C1400 C 0.99178 0.8677 0.38168 0.0
C1401 C 0.82357 0.90997 0.39507 0.0
C1402 C 0.80218 0.89807 0.40243 0.0
C1403 C 0.82276 0.9001 0.38434 0.0
C1404 C 0.80032 0.87826 0.38057 0.0
H1405 H 0.8408 0.92737 0.39761 0.0
H1406 H 0.83972 0.90968 0.37897 0.0
S1407 S 0.73748 0.84283 0.39646 0.0
N1408 N 0.75731 0.86464 0.40508 0.0
N1409 N 0.75508 0.84695 0.38501 0.0
C1410 C 0.77868 0.8666 0.38787 0.0
C1411 C 0.77981 0.87624 0.39876 0.0
C1412 C 1.00273 0.62791 0.14532 0.0
C1413 C 0.02846 0.63147 0.15175 0.0
C1414 C 1.00346 0.63579 0.13454 0.0
C1415 C 0.02996 0.64742 0.12975 0.0
H1416 H 0.98168 0.61921 0.14869 0.0
H1417 H 0.98299 0.63328 0.12994 0.0
S1418 S 0.10349 0.66112 0.14287 0.0
N1419 N 0.08135 0.64718 0.15244 0.0
N1420 N 0.08246 0.66259 0.13208 0.0
C1421 C 0.05584 0.65131 0.136 0.0
C1422 C 0.05515 0.64322 0.14704 0.0
C1423 C 0.24408 0.61329 0.13685 0.0
C1424 C 0.2287 0.63308 0.12937 0.0
C1425 C 0.24324 0.6206 0.14771 0.0
C1426 C 0.22711 0.64816 0.15161 0.0
H1427 H 0.25774 0.59243 0.13426 0.0
H1428 H 0.25645 0.60533 0.15304 0.0
S1429 S 0.18048 0.70608 0.13562 0.0
N1430 N 0.19503 0.68014 0.12681 0.0
N1431 N 0.19344 0.69393 0.14724 0.0
C1432 C 0.21075 0.66754 0.1443 0.0
C1433 C 0.21162 0.66009 0.1332 0.0
C1434 C 1.0078 0.38526 0.89603 0.0
C1435 C 0.98069 0.3812 0.90166 0.0
C1436 C 1.00791 0.39609 0.88553 0.0
C1437 C 0.9809 0.40311 0.88021 0.0
H1438 H 0.02923 0.38012 0.8998 0.0
H1439 H 0.02937 0.3989 0.88152 0.0
S1440 S 0.90384 0.39646 0.89131 0.0
N1441 N 0.92603 0.3849 0.90115 0.0
N1442 N 0.9263 0.4054 0.88124 0.0
C1443 C 0.95356 0.39904 0.88567 0.0
C1444 C 0.95344 0.3882 0.89647 0.0
C1445 C 0.78598 0.40844 0.88341 0.0
C1446 C 0.80291 0.38075 0.88006 0.0
C1447 C 0.78504 0.41812 0.89409 0.0
C1448 C 0.8012 0.40083 0.90198 0.0
H1449 H 0.77228 0.42207 0.8778 0.0
H1450 H 0.77075 0.43899 0.8962 0.0
S1451 S 0.85081 0.32772 0.89728 0.0
N1452 N 0.83751 0.33693 0.88543 0.0
N1453 N 0.83587 0.35524 0.90551 0.0
C1454 C 0.81879 0.37341 0.89872 0.0
C1455 C 0.81969 0.36347 0.88779 0.0
C1456 C 0.48376 0.03357 0.01675 0.0
C1457 C 0.51109 0.03875 0.02213 0.0
C1458 C 0.47986 1.00621 1.00993 0.0
C1459 C 0.50308 0.9828 1.0082 0.0
H1460 H 0.46497 0.05037 0.01797 0.0
H1461 H 0.45835 1.00331 1.00599 0.0
S1462 S 0.5797 0.9861 0.01985 0.0
N1463 N 0.56236 0.019 0.02482 0.0
N1464 N 0.55477 0.96742 1.01217 0.0
C1465 C 0.53056 0.98776 1.01349 0.0
C1466 C 0.53465 1.01577 0.02037 0.0
C1467 C 0.73615 0.24125 1.01284 0.0
C1468 C 0.74771 0.24375 0.02315 0.0
C1469 C 0.73951 0.26745 1.0056 0.0
C1470 C 0.75477 0.2971 1.00834 0.0
H1471 H 0.72421 0.21898 1.01038 0.0
H1472 H 0.7302 0.26436 0.99773 0.0
S1473 S 0.7903 0.31528 0.03428 0.0
N1474 N 0.77555 0.27778 0.03573 0.0
N1475 N 0.78205 0.32696 0.02207 0.0
C1476 C 0.76629 0.29997 0.01866 0.0
C1477 C 0.76279 0.27329 0.02605 0.0
C1478 C 0.49117 0.29834 0.26345 0.0
C1479 C 0.5035 0.29679 0.27367 0.0
C1480 C 0.49454 0.27172 0.25632 0.0
C1481 C 0.51036 0.24257 0.25913 0.0
H1482 H 0.47834 0.31997 0.26101 0.0
H1483 H 0.48441 0.27386 0.24854 0.0
S1484 S 0.54935 0.22754 0.2846 0.0
N1485 N 0.53389 0.26471 0.28602 0.0
N1486 N 0.53997 0.21467 0.27261 0.0
C1487 C 0.52323 0.24095 0.26925 0.0
C1488 C 0.51991 0.26808 0.27651 0.0
C1489 C 0.75024 0.01817 0.27649 0.0
C1490 C 0.75429 0.9852 0.2728 0.0
C1491 C 0.74731 0.04506 0.26949 0.0
C1492 C 0.74779 0.04008 0.2585 0.0
H1493 H 0.74923 0.02336 0.28491 0.0
H1494 H 0.74422 0.06987 0.27272 0.0
S1495 S 0.75826 0.95928 0.24459 0.0
N1496 N 0.75921 0.94951 0.25729 0.0
N1497 N 0.75294 0.99998 0.24414 0.0
C1498 C 0.75148 1.00734 0.25465 0.0
C1499 C 0.7548 0.97994 0.26178 0.0
C1500 C 0.29923 0.76074 0.02106 0.0
C1501 C 0.27134 0.74433 0.02195 0.0
C1502 C 0.3027 0.78847 1.01437 0.0
C1503 C 0.27832 0.8007 1.00843 0.0
H1504 H 0.31835 0.75231 0.02566 0.0
H1505 H 0.32462 0.80022 1.01373 0.0
S1506 S 0.20123 0.7655 1.00758 0.0
N1507 N 0.21924 0.74177 0.01619 0.0
N1508 N 0.22594 0.79351 1.00348 0.0
C1509 C 0.25048 0.7843 1.00919 0.0
C1510 C 0.24692 0.75624 0.016 0.0
C1511 C 0.52766 0.79244 0.76752 0.0
C1512 C 0.50071 0.79609 0.77326 0.0
C1513 C 0.5321 0.7652 0.7607 0.0
C1514 C 0.50975 0.74054 0.75932 0.0
H1515 H 0.54578 0.81028 0.7685 0.0
H1516 H 0.55336 0.76332 0.75651 0.0
S1517 S 0.43421 0.74 0.77195 0.0
N1518 N 0.45067 0.77377 0.77669 0.0
N1519 N 0.45909 0.72261 0.76392 0.0
C1520 C 0.48255 0.74418 0.76492 0.0
C1521 C 0.47798 0.77196 0.77183 0.0
C1522 C 0.28612 1.01028 0.75575 0.0
C1523 C 0.27261 0.04071 0.75868 0.0
C1524 C 0.28983 0.98436 0.76306 0.0
C1525 C 0.28001 0.98766 0.77361 0.0
H1526 H 0.29394 1.00646 0.7477 0.0
H1527 H 0.30065 0.9616 0.76041 0.0
S1528 S 0.24137 0.06143 0.78513 0.0
N1529 N 0.24859 0.07234 0.77277 0.0
N1530 N 0.25474 0.02327 0.78647 0.0
C1531 C 0.26624 0.01789 0.77663 0.0
C1532 C 0.26277 0.04448 0.76919 0.0
C1533 C 0.47875 0.50433 0.51066 0.0
C1534 C 0.50278 0.48267 0.50818 0.0
C1535 C 0.48271 0.53174 0.51745 0.0
C1536 C 0.51091 0.5387 0.52201 0.0
H1537 H 0.45661 0.5 0.50733 0.0
H1538 H 0.46336 0.54717 0.5193 0.0
S1539 S 0.58163 0.49124 0.51746 0.0
N1540 N 0.55604 0.47093 0.5105 0.0
N1541 N 0.56369 0.52269 0.52309 0.0
C1542 C 0.53524 0.51753 0.51947 0.0
C1543 C 0.53112 0.48945 0.51263 0.0
C1544 C 0.75673 0.77522 0.52533 0.0
C1545 C 0.74863 0.7427 0.52206 0.0
C1546 C 0.75992 0.80144 0.51802 0.0
C1547 C 0.75532 0.79614 0.50714 0.0
H1548 H 0.76121 0.78036 0.53361 0.0
H1549 H 0.76687 0.82574 0.52088 0.0
S1550 S 0.73049 0.71709 0.49456 0.0
N1551 N 0.73373 0.70773 0.50724 0.0
N1552 N 0.73987 0.75678 0.49355 0.0
C1553 C 0.74633 0.76412 0.50381 0.0
C1554 C 0.74304 0.73747 0.51124 0.0
C1555 C 0.77602 0.53464 0.7642 0.0
C1556 C 0.74792 0.5407 0.75943 0.0
C1557 C 0.78025 0.50748 0.77104 0.0
C1558 C 0.75662 0.48516 0.7734 0.0
H1559 H 0.7951 0.55055 0.76245 0.0
H1560 H 0.80232 0.50386 0.77451 0.0
S1561 S 0.67807 0.49131 0.76361 0.0
N1562 N 0.69557 0.52317 0.75808 0.0
N1563 N 0.70377 0.47187 0.77075 0.0
C1564 C 0.72837 0.49106 0.76876 0.0
C1565 C 0.72395 0.5189 0.76187 0.0
C1566 C 0.25842 0.24221 0.51283 0.0
C1567 C 0.27101 0.24344 0.52302 0.0
C1568 C 0.26252 0.26858 0.50571 0.0
C1569 C 0.27963 0.29689 0.50849 0.0
H1570 H 0.24481 0.22107 0.51045 0.0
H1571 H 0.25179 0.26701 0.49802 0.0
S1572 S 0.31874 0.31097 0.53406 0.0
N1573 N 0.30189 0.27455 0.53547 0.0
N1574 N 0.31031 0.32369 0.522 0.0
C1575 C 0.29268 0.29809 0.51861 0.0
C1576 C 0.28824 0.27145 0.52589 0.0
C1577 C 0.25261 0.48664 0.26736 0.0
C1578 C 0.27975 0.48297 0.27298 0.0
C1579 C 0.24814 0.51358 0.26044 0.0
C1580 C 0.27058 0.53802 0.25887 0.0
H1581 H 0.23434 0.4691 0.26853 0.0
H1582 H 0.22675 0.51547 0.25637 0.0
S1583 S 0.34676 0.53815 0.2709 0.0
N1584 N 0.33027 0.50474 0.27584 0.0
N1585 N 0.32158 0.55555 0.26305 0.0
C1586 C 0.298 0.53428 0.26428 0.0
C1587 C 0.30267 0.50671 0.27123 0.0
C1588 C 0.98467 1.01029 0.50833 0.0
C1589 C 1.00549 0.98395 0.5088 0.0
C1590 C 0.98591 0.03676 0.51556 0.0
C1591 C 1.0082 0.03808 0.52347 0.0
H1592 H 0.96704 1.01025 0.5024 0.0
H1593 H 0.96896 0.0561 0.51502 0.0
S1594 S 0.06928 0.97629 0.52758 0.0
N1595 N 0.04971 0.96126 0.51754 0.0
N1596 N 0.05246 1.01141 0.53101 0.0
C1597 C 0.02941 1.01206 0.52394 0.0
C1598 C 0.02796 0.98492 0.51663 0.0
C1599 C 0.99692 0.27359 0.75644 0.0
C1600 C 1.00688 0.24182 0.75962 0.0
C1601 C 0.99603 0.30033 0.76356 0.0
C1602 C 1.0051 0.29634 0.77414 0.0
H1603 H 0.98935 0.27776 0.74839 0.0
H1604 H 0.98778 0.32418 0.76078 0.0
S1605 S 0.03564 0.21914 0.78618 0.0
N1606 N 0.02761 0.2084 0.77387 0.0
N1607 N 0.02625 0.25881 0.78729 0.0
C1608 C 0.01565 0.2649 0.77738 0.0
C1609 C 0.01644 0.23761 0.77012 0.0
C1610 C 0.98098 0.79105 0.26713 0.0
C1611 C 1.00636 0.79941 0.27323 0.0
C1612 C 0.98139 0.76323 0.26034 0.0
C1613 C 1.00714 0.74297 0.25949 0.0
H1614 H 0.96062 0.80582 0.26774 0.0
H1615 H 0.96157 0.75763 0.25566 0.0
S1616 S 0.07891 0.7539 0.27399 0.0
N1617 N 0.05746 0.78489 0.27822 0.0
N1618 N 0.05847 0.73307 0.26527 0.0
C1619 C 0.03261 0.75117 0.26552 0.0
C1620 C 0.03211 0.77925 0.27247 0.0
C1621 C 0.01956 0.54254 1.013 0.0
C1622 C 1.00739 0.53947 0.02321 0.0
C1623 C 0.01885 0.51569 1.00588 0.0
C1624 C 1.00563 0.48492 1.00868 0.0
H1625 H 0.03021 0.56561 1.01057 0.0
H1626 H 0.02905 0.519 0.99815 0.0
S1627 S 0.96875 0.46526 0.03429 0.0
N1628 N 0.98082 0.50394 0.03569 0.0
N1629 N 0.97876 0.45376 0.02221 0.0
C1630 C 0.99298 0.48179 0.01883 0.0
C1631 C 0.99399 0.50901 0.0261 0.0
C1632 C 0.3602 0.38949 0.05806 0.0
C1633 C 0.36891 0.42055 0.06226 0.0
C1634 C 0.38013 0.3623 0.05796 0.0
C1635 C 0.40953 0.36511 0.06205 0.0
H1636 H 0.33778 0.38617 0.05485 0.0
H1637 H 0.37246 0.33881 0.05468 0.0
S1638 S 0.44471 0.44206 0.07253 0.0
N1639 N 0.40983 0.45328 0.06969 0.0
N1640 N 0.44719 0.40203 0.06954 0.0
C1641 C 0.41876 0.39615 0.06603 0.0
C1642 C 0.39849 0.42388 0.06612 0.0
C1643 C 0.88659 0.8829 0.07036 0.0
C1644 C 0.88959 0.86145 0.06158 0.0
C1645 C 0.86623 0.90976 0.07027 0.0
C1646 C 0.84784 0.91622 0.06141 0.0
H1647 H 0.90054 0.87934 0.07729 0.0
H1648 H 0.8655 0.92609 0.0771 0.0
S1649 S 0.84534 0.86592 0.03665 0.0
N1650 N 0.87133 0.84762 0.04394 0.0
N1651 N 0.83287 0.89746 0.04383 0.0
C1652 C 0.85017 0.89445 0.05266 0.0
C1653 C 0.87105 0.86731 0.05272 0.0
C1654 C 0.38904 0.91293 0.21192 0.0
C1655 C 0.4105 0.9167 0.22007 0.0
C1656 C 0.3688 0.88587 0.21178 0.0
C1657 C 0.36897 0.86164 0.21983 0.0
H1658 H 0.3873 0.93148 0.20573 0.0
H1659 H 0.35245 0.8843 0.20544 0.0
S1660 S 0.42207 0.85822 0.24251 0.0
N1661 N 0.43189 0.89217 0.236 0.0
N1662 N 0.39348 0.84222 0.23588 0.0
C1663 C 0.39061 0.86477 0.22792 0.0
C1664 C 0.41142 0.89199 0.228 0.0
C1665 C 0.85877 0.426 0.22217 0.0
C1666 C 0.88916 0.42152 0.21929 0.0
C1667 C 0.83838 0.39918 0.22208 0.0
C1668 C 0.84773 0.367 0.21909 0.0
H1669 H 0.85075 0.45044 0.22451 0.0
H1670 H 0.81518 0.40361 0.22436 0.0
S1671 S 0.92572 0.34138 0.21246 0.0
N1672 N 0.92816 0.38206 0.21439 0.0
N1673 N 0.8899 0.33159 0.21423 0.0
C1674 C 0.87822 0.36207 0.21651 0.0
C1675 C 0.89894 0.38935 0.21661 0.0
C1676 C 0.65835 0.64197 0.97493 0.0
C1677 C 0.65336 0.61174 0.96954 0.0
C1678 C 0.63681 0.66766 0.9748 0.0
C1679 C 0.60918 0.66414 0.96938 0.0
H1680 H 0.67915 0.64586 0.97923 0.0
H1681 H 0.64198 0.69062 0.97895 0.0
S1682 S 0.58378 0.58824 0.95514 0.0
N1683 N 0.61801 0.57881 0.95927 0.0
N1684 N 0.57732 0.62679 0.95918 0.0
C1685 C 0.6037 0.63373 0.96416 0.0
C1686 C 0.62578 0.60766 0.96422 0.0
C1687 C 0.14733 0.11514 0.97518 0.0
C1688 C 0.17427 0.1181 0.96931 0.0
C1689 C 0.1253 0.14021 0.97503 0.0
C1690 C 0.12914 0.16924 0.96895 0.0
H1691 H 0.14298 0.09299 0.97984 0.0
H1692 H 0.10492 0.13667 0.97964 0.0
S1693 S 0.19693 0.19127 0.95326 0.0
N1694 N 0.20449 0.1538 0.95798 0.0
N1695 N 0.16295 0.20086 0.95765 0.0
C1696 C 0.15619 0.17295 0.96326 0.0
C1697 C 0.17874 0.14743 0.96344 0.0
C1698 C 0.63017 0.16488 0.80523 0.0
C1699 C 0.65221 0.16711 0.81326 0.0
C1700 C 0.60808 0.13981 0.80523 0.0
C1701 C 0.60652 0.11592 0.81336 0.0
H1702 H 0.62958 0.18295 0.79887 0.0
H1703 H 0.59192 0.13929 0.79881 0.0
S1704 S 0.65909 0.10905 0.83605 0.0
N1705 N 0.67147 0.14172 0.82939 0.0
N1706 N 0.62932 0.0954 0.82953 0.0
C1707 C 0.62812 0.11778 0.82149 0.0
C1708 C 0.65102 0.14309 0.82141 0.0
C1709 C 0.17994 0.63466 0.81629 0.0
C1710 C 0.17391 0.6659 0.81173 0.0
C1711 C 0.15784 0.60966 0.81655 0.0
C1712 C 0.12911 0.61514 0.81223 0.0
H1713 H 0.20191 0.62944 0.81962 0.0
H1714 H 0.16333 0.58577 0.82004 0.0
S1715 S 0.10155 0.69265 0.79971 0.0
N1716 N 0.13666 0.70114 0.80309 0.0
N1717 N 0.09554 0.65372 0.80338 0.0
C1718 C 0.12282 0.64605 0.8076 0.0
C1719 C 0.14513 0.67157 0.8074 0.0
C1720 C 0.38638 0.86595 0.55575 0.0
C1721 C 0.41017 0.86388 0.56309 0.0
C1722 C 0.36621 0.89286 0.55582 0.0
C1723 C 0.36895 0.91907 0.56321 0.0
H1724 H 0.38315 0.84641 0.54992 0.0
H1725 H 0.34824 0.89307 0.55002 0.0
S1726 S 0.42874 0.92688 0.58358 0.0
N1727 N 0.43607 0.89102 0.57766 0.0
N1728 N 0.39844 0.94194 0.57772 0.0
C1729 C 0.39278 0.91744 0.57054 0.0
C1730 C 0.41328 0.88984 0.5705 0.0
C1731 C 0.83639 0.38495 0.56135 0.0
C1732 C 0.84673 0.41789 0.56249 0.0
C1733 C 0.85668 0.35803 0.56134 0.0
C1734 C 0.88785 0.36335 0.56242 0.0
H1735 H 0.81253 0.38002 0.56045 0.0
H1736 H 0.84801 0.33293 0.56045 0.0
S1737 S 0.92639 0.44489 0.56433 0.0
N1738 N 0.89018 0.45441 0.5639 0.0
N1739 N 0.92825 0.40377 0.5638 0.0
C1740 C 0.89848 0.39612 0.56324 0.0
C1741 C 0.87789 0.42344 0.5633 0.0
C1742 C 0.4154 0.3889 0.72534 0.0
C1743 C 0.40996 0.41669 0.7188 0.0
C1744 C 0.39542 0.3618 0.72568 0.0
C1745 C 0.36909 0.36105 0.71948 0.0
H1746 H 0.43536 0.38801 0.73025 0.0
H1747 H 0.40081 0.34105 0.73083 0.0
S1748 S 0.34303 0.42832 0.7016 0.0
N1749 N 0.37527 0.44237 0.70637 0.0
N1750 N 0.33798 0.39112 0.70691 0.0
C1751 C 0.36325 0.38859 0.71291 0.0
C1752 C 0.38357 0.4164 0.7126 0.0
C1753 C 0.86717 0.91576 0.71193 0.0
C1754 C 0.88873 0.91944 0.72004 0.0
C1755 C 0.84685 0.8888 0.71182 0.0
C1756 C 0.84703 0.8646 0.71988 0.0
H1757 H 0.8655 0.93425 0.70572 0.0
H1758 H 0.83047 0.88724 0.70549 0.0
S1759 S 0.90021 0.86112 0.74253 0.0
N1760 N 0.91008 0.89501 0.736 0.0
N1761 N 0.87155 0.84518 0.73593 0.0
C1762 C 0.86869 0.86771 0.72796 0.0
C1763 C 0.88957 0.89485 0.72801 0.0
C1764 C 0.63103 0.16252 0.46226 0.0
C1765 C 0.60807 0.16449 0.46998 0.0
C1766 C 0.6529 0.13704 0.46248 0.0
C1767 C 0.65288 0.1125 0.47045 0.0
H1768 H 0.63259 0.18128 0.45613 0.0
H1769 H 0.67028 0.13691 0.45644 0.0
S1770 S 0.59641 0.10477 0.49208 0.0
N1771 N 0.5858 0.1382 0.48548 0.0
N1772 N 0.62683 0.09094 0.48596 0.0
C1773 C 0.62978 0.11391 0.47812 0.0
C1774 C 0.60746 0.13965 0.47786 0.0
C1775 C 0.14154 0.65574 0.46188 0.0
C1776 C 0.12863 0.66782 0.47132 0.0
C1777 C 0.16348 0.63066 0.46197 0.0
C1778 C 0.17449 0.61722 0.47152 0.0
H1779 H 0.135 0.66593 0.45429 0.0
H1780 H 0.17156 0.62162 0.45439 0.0
S1781 S 0.14842 0.64034 0.49856 0.0
N1782 N 0.12707 0.66248 0.49055 0.0
N1783 N 0.1716 0.61943 0.49078 0.0
C1784 C 0.16225 0.62959 0.48106 0.0
C1785 C 0.13864 0.65383 0.48095 0.0
C1786 C 0.65584 0.64025 0.30611 0.0
C1787 C 0.65353 0.66805 0.31289 0.0
C1788 C 0.63375 0.61522 0.30606 0.0
C1789 C 0.60829 0.61699 0.31273 0.0
H1790 H 0.67506 0.63765 0.30087 0.0
H1791 H 0.6369 0.59402 0.30084 0.0
S1792 S 0.58963 0.68665 0.33093 0.0
N1793 N 0.62252 0.69718 0.3258 0.0
N1794 N 0.58089 0.65025 0.32562 0.0
C1795 C 0.60529 0.64507 0.31932 0.0
C1796 C 0.62789 0.67052 0.31941 0.0
C1797 C 0.12127 0.14708 0.31049 0.0
C1798 C 0.12953 0.11379 0.31231 0.0
C1799 C 0.14304 0.17256 0.31034 0.0
C1800 C 0.1738 0.16568 0.31206 0.0
H1801 H 0.0979 0.15337 0.30904 0.0
H1802 H 0.13577 0.19791 0.30885 0.0
S1803 S 0.20711 0.082 0.31605 0.0
N1804 N 0.17054 0.07487 0.3151 0.0
N1805 N 0.21145 0.12278 0.31492 0.0
C1806 C 0.18232 0.1324 0.31372 0.0
C1807 C 0.16017 0.10645 0.3138 0.0
loop_
_geom_bond_atom_site_label_1
_geom_bond_atom_site_label_2
_geom_bond_distance
_geom_bond_site_symmetry_2
_ccdc_geom_bond_type
C0 C1 1.264 . S
C0 C5 1.479 . S
C0 C10 1.465 . S
C1 C0 1.264 . S
C1 C3 1.339 . S
C1 H28 0.931 . S
C2 C3 1.395 . S
C2 C4 1.320 . S
C3 C1 1.339 . S
C3 C2 1.395 . S
C3 H29 0.929 . S
C4 C2 1.320 . S
C4 C5 1.405 . S
C4 H30 0.930 . S
C5 C0 1.479 . S
C5 C4 1.405 . S
C5 H31 0.931 . S
U6 O7 2.454 . S
U6 O8 2.458 . S
U6 C9 2.984 . S
U6 C10 2.847 . S
U6 C23 2.882 . S
U6 O24 2.441 . S
U6 O25 2.420 . S
U6 O26 2.455 . S
U6 O27 2.449 . S
O7 U6 2.454 . S
O7 C9 1.353 . S
O8 U6 2.458 . S
O8 C9 1.286 . S
C9 U6 2.984 . S
C9 O7 1.353 . S
C9 O8 1.286 . S
C9 C11 1.363 . S
C10 C0 1.465 . S
C10 U6 2.847 . S
C10 O24 1.249 . S
C10 O25 1.202 . S
C11 C9 1.363 . S
C11 C13 1.408 . S
C11 C16 1.342 . S
C12 C13 1.310 . S
C12 C15 1.461 . S
C12 H32 0.932 . S
C13 C11 1.408 . S
C13 C12 1.310 . S
C13 H33 0.930 . S
C14 C15 1.474 . S
C14 C16 1.285 . S
C14 H34 0.929 . S
C15 C12 1.461 . S
C15 C14 1.474 . S
C16 C11 1.342 . S
C16 C14 1.285 . S
C16 H35 0.930 . S
C17 C20 1.424 . S
C17 C22 1.245 . S
C17 C23 1.428 . S
C18 C21 1.260 . S
C18 C22 1.477 . S
C18 H36 0.932 . S
C19 C20 1.384 . S
C19 C21 1.479 . S
C19 H37 0.929 . S
C20 C17 1.424 . S
C20 C19 1.384 . S
C20 H38 0.928 . S
C21 C18 1.260 . S
C21 C19 1.479 . S
C22 C17 1.245 . S
C22 C18 1.477 . S
C22 H39 0.932 . S
C23 U6 2.882 . S
C23 C17 1.428 . S
C23 O26 1.301 . S
C23 O27 1.282 . S
O24 U6 2.441 . S
O24 C10 1.249 . S
O25 U6 2.420 . S
O25 C10 1.202 . S
O26 U6 2.455 . S
O26 C23 1.301 . S
O27 U6 2.449 . S
O27 C23 1.282 . S
H28 C1 0.931 . S
H29 C3 0.929 . S
H30 C4 0.930 . S
H31 C5 0.931 . S
H32 C12 0.932 . S
H33 C13 0.930 . S
H34 C14 0.929 . S
H35 C16 0.930 . S
H36 C18 0.932 . S
H37 C19 0.929 . S
H38 C20 0.928 . S
H39 C22 0.932 . S
C40 C41 1.264 . S
C40 C45 1.479 . S
C40 C50 1.465 1_565 S
C41 C40 1.264 . S
C41 C43 1.339 . S
C41 H68 0.931 . S
C42 C43 1.395 . S
C42 C44 1.320 . S
C43 C41 1.339 . S
C43 C42 1.395 . S
C43 H69 0.929 . S
C44 C42 1.320 . S
C44 C45 1.405 . S
C44 H70 0.930 . S
C45 C40 1.479 . S
C45 C44 1.405 . S
C45 H71 0.931 . S
U46 O47 2.454 . S
U46 O48 2.458 . S
U46 C49 2.984 . S
U46 C50 2.847 . S
U46 C63 2.882 . S
U46 O64 2.441 . S
U46 O65 2.420 . S
U46 O66 2.455 . S
U46 O67 2.449 . S
O47 U46 2.454 . S
O47 C49 1.353 . S
O48 U46 2.458 . S
O48 C49 1.286 . S
C49 U46 2.984 . S
C49 O47 1.353 . S
C49 O48 1.286 . S
C49 C51 1.363 . S
C50 C40 1.465 1_545 S
C50 U46 2.847 . S
C50 O64 1.249 . S
C50 O65 1.202 . S
C51 C49 1.363 . S
C51 C53 1.408 . S
C51 C56 1.342 . S
C52 C53 1.310 . S
C52 C55 1.461 . S
C52 H72 0.932 . S
C53 C51 1.408 . S
C53 C52 1.310 . S
C53 H73 0.930 . S
C54 C55 1.474 . S
C54 C56 1.285 . S
C54 H74 0.929 . S
C55 C52 1.461 . S
C55 C54 1.474 . S
C56 C51 1.342 . S
C56 C54 1.285 . S
C56 H75 0.930 . S
C57 C60 1.424 . S
C57 C62 1.245 . S
C57 C63 1.428 . S
C58 C61 1.260 . S
C58 C62 1.477 . S
C58 H76 0.932 . S
C59 C60 1.384 . S
C59 C61 1.479 . S
C59 H77 0.929 . S
C60 C57 1.424 . S
C60 C59 1.384 . S
C60 H78 0.928 . S
C61 C58 1.260 . S
C61 C59 1.479 . S
C62 C57 1.245 . S
C62 C58 1.477 . S
C62 H79 0.932 . S
C63 U46 2.882 . S
C63 C57 1.428 . S
C63 O66 1.301 . S
C63 O67 1.282 . S
O64 U46 2.441 . S
O64 C50 1.249 . S
O65 U46 2.420 . S
O65 C50 1.202 . S
O66 U46 2.455 . S
O66 C63 1.301 . S
O67 U46 2.449 . S
O67 C63 1.282 . S
H68 C41 0.931 . S
H69 C43 0.929 . S
H70 C44 0.930 . S
H71 C45 0.931 . S
H72 C52 0.932 . S
H73 C53 0.930 . S
H74 C54 0.929 . S
H75 C56 0.930 . S
H76 C58 0.932 . S
H77 C59 0.929 . S
H78 C60 0.928 . S
H79 C62 0.932 . S
C80 C81 1.264 . S
C80 C85 1.479 . S
C80 C90 1.465 1_565 S
C81 C80 1.264 . S
C81 C83 1.339 . S
C81 H108 0.931 . S
C82 C83 1.395 . S
C82 C84 1.320 . S
C83 C81 1.339 . S
C83 C82 1.395 . S
C83 H109 0.929 . S
C84 C82 1.320 . S
C84 C85 1.405 . S
C84 H110 0.930 . S
C85 C80 1.479 . S
C85 C84 1.405 . S
C85 H111 0.931 . S
U86 O87 2.454 . S
U86 O88 2.458 . S
U86 C89 2.984 . S
U86 C90 2.847 . S
U86 C103 2.882 . S
U86 O104 2.441 . S
U86 O105 2.420 . S
U86 O106 2.455 . S
U86 O107 2.449 . S
O87 U86 2.454 . S
O87 C89 1.353 . S
O88 U86 2.458 . S
O88 C89 1.286 . S
C89 U86 2.984 . S
C89 O87 1.353 . S
C89 O88 1.286 . S
C89 C91 1.363 . S
C90 C80 1.465 1_545 S
C90 U86 2.847 . S
C90 O104 1.249 . S
C90 O105 1.202 . S
C91 C89 1.363 . S
C91 C93 1.408 . S
C91 C96 1.342 . S
C92 C93 1.310 . S
C92 C95 1.461 . S
C92 H112 0.932 . S
C93 C91 1.408 . S
C93 C92 1.310 . S
C93 H113 0.930 . S
C94 C95 1.474 . S
C94 C96 1.285 . S
C94 H114 0.929 . S
C95 C92 1.461 . S
C95 C94 1.474 . S
C96 C91 1.342 . S
C96 C94 1.285 . S
C96 H115 0.930 . S
C97 C100 1.424 . S
C97 C102 1.245 . S
C97 C103 1.428 . S
C98 C101 1.260 . S
C98 C102 1.477 . S
C98 H116 0.932 . S
C99 C100 1.384 . S
C99 C101 1.479 . S
C99 H117 0.929 . S
C100 C97 1.424 . S
C100 C99 1.384 . S
C100 H118 0.928 . S
C101 C98 1.260 . S
C101 C99 1.479 . S
C102 C97 1.245 . S
C102 C98 1.477 . S
C102 H119 0.932 . S
C103 U86 2.882 . S
C103 C97 1.428 . S
C103 O106 1.301 . S
C103 O107 1.282 . S
O104 U86 2.441 . S
O104 C90 1.249 . S
O105 U86 2.420 . S
O105 C90 1.202 . S
O106 U86 2.455 . S
O106 C103 1.301 . S
O107 U86 2.449 . S
O107 C103 1.282 . S
H108 C81 0.931 . S
H109 C83 0.929 . S
H110 C84 0.930 . S
H111 C85 0.931 . S
H112 C92 0.932 . S
H113 C93 0.930 . S
H114 C94 0.929 . S
H115 C96 0.930 . S
H116 C98 0.932 . S
H117 C99 0.929 . S
H118 C100 0.928 . S
H119 C102 0.932 . S
C120 C121 1.264 . S
C120 C125 1.479 . S
C120 C130 1.465 . S
C121 C120 1.264 . S
C121 C123 1.339 . S
C121 H148 0.931 . S
C122 C123 1.395 . S
C122 C124 1.320 . S
C123 C121 1.339 . S
C123 C122 1.395 . S
C123 H149 0.929 . S
C124 C122 1.320 . S
C124 C125 1.405 . S
C124 H150 0.930 . S
C125 C120 1.479 . S
C125 C124 1.405 . S
C125 H151 0.931 . S
U126 O127 2.454 . S
U126 O128 2.458 . S
U126 C129 2.984 . S
U126 C130 2.847 . S
U126 C143 2.882 . S
U126 O144 2.441 . S
U126 O145 2.420 . S
U126 O146 2.455 . S
U126 O147 2.449 . S
O127 U126 2.454 . S
O127 C129 1.353 . S
O128 U126 2.458 . S
O128 C129 1.286 . S
C129 U126 2.984 . S
C129 O127 1.353 . S
C129 O128 1.286 . S
C129 C131 1.363 . S
C130 C120 1.465 . S
C130 U126 2.847 . S
C130 O144 1.249 . S
C130 O145 1.202 . S
C131 C129 1.363 . S
C131 C133 1.408 . S
C131 C136 1.342 . S
C132 C133 1.310 . S
C132 C135 1.461 . S
C132 H152 0.932 . S
C133 C131 1.408 . S
C133 C132 1.310 . S
C133 H153 0.930 . S
C134 C135 1.474 . S
C134 C136 1.285 . S
C134 H154 0.929 . S
C135 C132 1.461 . S
C135 C134 1.474 . S
C136 C131 1.342 . S
C136 C134 1.285 . S
C136 H155 0.930 . S
C137 C140 1.424 . S
C137 C142 1.245 . S
C137 C143 1.428 . S
C138 C141 1.260 . S
C138 C142 1.477 . S
C138 H156 0.932 . S
C139 C140 1.384 . S
C139 C141 1.479 . S
C139 H157 0.929 . S
C140 C137 1.424 . S
C140 C139 1.384 . S
C140 H158 0.928 . S
C141 C138 1.260 . S
C141 C139 1.479 . S
C142 C137 1.245 . S
C142 C138 1.477 . S
C142 H159 0.932 . S
C143 U126 2.882 . S
C143 C137 1.428 . S
C143 O146 1.301 . S
C143 O147 1.282 . S
O144 U126 2.441 . S
O144 C130 1.249 . S
O145 U126 2.420 . S
O145 C130 1.202 . S
O146 U126 2.455 . S
O146 C143 1.301 . S
O147 U126 2.449 . S
O147 C143 1.282 . S
H148 C121 0.931 . S
H149 C123 0.929 . S
H150 C124 0.930 . S
H151 C125 0.931 . S
H152 C132 0.932 . S
H153 C133 0.930 . S
H154 C134 0.929 . S
H155 C136 0.930 . S
H156 C138 0.932 . S
H157 C139 0.929 . S
H158 C140 0.928 . S
H159 C142 0.932 . S
C160 C161 1.264 . S
C160 C165 1.479 . S
C160 C170 1.465 . S
C161 C160 1.264 . S
C161 C163 1.339 . S
C161 H188 0.931 . S
C162 C163 1.395 . S
C162 C164 1.320 . S
C163 C161 1.339 . S
C163 C162 1.395 . S
C163 H189 0.929 . S
C164 C162 1.320 . S
C164 C165 1.405 . S
C164 H190 0.930 . S
C165 C160 1.479 . S
C165 C164 1.405 . S
C165 H191 0.931 . S
U166 O167 2.454 . S
U166 O168 2.458 . S
U166 C169 2.984 . S
U166 C170 2.847 . S
U166 C183 2.882 . S
U166 O184 2.441 . S
U166 O185 2.420 . S
U166 O186 2.455 . S
U166 O187 2.449 . S
O167 U166 2.454 . S
O167 C169 1.353 . S
O168 U166 2.458 . S
O168 C169 1.286 . S
C169 U166 2.984 . S
C169 O167 1.353 . S
C169 O168 1.286 . S
C169 C171 1.363 . S
C170 C160 1.465 . S
C170 U166 2.847 . S
C170 O184 1.249 . S
C170 O185 1.202 . S
C171 C169 1.363 . S
C171 C173 1.408 . S
C171 C176 1.342 . S
C172 C173 1.310 . S
C172 C175 1.461 . S
C172 H192 0.932 . S
C173 C171 1.408 . S
C173 C172 1.310 . S
C173 H193 0.930 . S
C174 C175 1.474 . S
C174 C176 1.285 . S
C174 H194 0.929 . S
C175 C172 1.461 . S
C175 C174 1.474 . S
C176 C171 1.342 . S
C176 C174 1.285 . S
C176 H195 0.930 . S
C177 C180 1.424 . S
C177 C182 1.245 . S
C177 C183 1.428 . S
C178 C181 1.260 . S
C178 C182 1.477 . S
C178 H196 0.932 . S
C179 C180 1.384 . S
C179 C181 1.479 . S
C179 H197 0.929 . S
C180 C177 1.424 . S
C180 C179 1.384 . S
C180 H198 0.928 . S
C181 C178 1.260 . S
C181 C179 1.479 . S
C182 C177 1.245 . S
C182 C178 1.477 . S
C182 H199 0.932 . S
C183 U166 2.882 . S
C183 C177 1.428 . S
C183 O186 1.301 . S
C183 O187 1.282 . S
O184 U166 2.441 . S
O184 C170 1.249 . S
O185 U166 2.420 . S
O185 C170 1.202 . S
O186 U166 2.455 . S
O186 C183 1.301 . S
O187 U166 2.449 . S
O187 C183 1.282 . S
H188 C161 0.931 . S
H189 C163 0.929 . S
H190 C164 0.930 . S
H191 C165 0.931 . S
H192 C172 0.932 . S
H193 C173 0.930 . S
H194 C174 0.929 . S
H195 C176 0.930 . S
H196 C178 0.932 . S
H197 C179 0.929 . S
H198 C180 0.928 . S
H199 C182 0.932 . S
C200 C201 1.264 . S
C200 C205 1.479 . S
C200 C210 1.465 . S
C201 C200 1.264 . S
C201 C203 1.339 . S
C201 H228 0.931 . S
C202 C203 1.395 . S
C202 C204 1.320 . S
C203 C201 1.339 . S
C203 C202 1.395 . S
C203 H229 0.929 . S
C204 C202 1.320 . S
C204 C205 1.405 . S
C204 H230 0.930 . S
C205 C200 1.479 . S
C205 C204 1.405 . S
C205 H231 0.931 . S
U206 O207 2.454 . S
U206 O208 2.458 . S
U206 C209 2.984 . S
U206 C210 2.847 1_565 S
U206 C223 2.882 . S
U206 O224 2.441 . S
U206 O225 2.420 1_565 S
U206 O226 2.455 . S
U206 O227 2.449 . S
O207 U206 2.454 . S
O207 C209 1.353 . S
O208 U206 2.458 . S
O208 C209 1.286 . S
C209 U206 2.984 . S
C209 O207 1.353 . S
C209 O208 1.286 . S
C209 C211 1.363 . S
C210 C200 1.465 . S
C210 U206 2.847 1_545 S
C210 O224 1.249 1_545 S
C210 O225 1.202 . S
C211 C209 1.363 . S
C211 C213 1.408 . S
C211 C216 1.342 . S
C212 C213 1.310 . S
C212 C215 1.461 . S
C212 H232 0.932 . S
C213 C211 1.408 . S
C213 C212 1.310 . S
C213 H233 0.930 . S
C214 C215 1.474 . S
C214 C216 1.285 . S
C214 H234 0.929 . S
C215 C212 1.461 . S
C215 C214 1.474 . S
C216 C211 1.342 . S
C216 C214 1.285 . S
C216 H235 0.930 . S
C217 C220 1.424 . S
C217 C222 1.245 . S
C217 C223 1.428 . S
C218 C221 1.260 . S
C218 C222 1.477 . S
C218 H236 0.932 . S
C219 C220 1.384 . S
C219 C221 1.479 . S
C219 H237 0.929 . S
C220 C217 1.424 . S
C220 C219 1.384 . S
C220 H238 0.928 . S
C221 C218 1.260 . S
C221 C219 1.479 . S
C222 C217 1.245 . S
C222 C218 1.477 . S
C222 H239 0.932 . S
C223 U206 2.882 . S
C223 C217 1.428 . S
C223 O226 1.301 . S
C223 O227 1.282 . S
O224 U206 2.441 . S
O224 C210 1.249 1_565 S
O225 U206 2.420 1_545 S
O225 C210 1.202 . S
O226 U206 2.455 . S
O226 C223 1.301 . S
O227 U206 2.449 . S
O227 C223 1.282 . S
H228 C201 0.931 . S
H229 C203 0.929 . S
H230 C204 0.930 . S
H231 C205 0.931 . S
H232 C212 0.932 . S
H233 C213 0.930 . S
H234 C214 0.929 . S
H235 C216 0.930 . S
H236 C218 0.932 . S
H237 C219 0.929 . S
H238 C220 0.928 . S
H239 C222 0.932 . S
C240 C241 1.264 . S
C240 C245 1.479 . S
C240 C250 1.465 . S
C241 C240 1.264 . S
C241 C243 1.339 . S
C241 H268 0.931 . S
C242 C243 1.395 . S
C242 C244 1.320 . S
C243 C241 1.339 . S
C243 C242 1.395 . S
C243 H269 0.929 . S
C244 C242 1.320 . S
C244 C245 1.405 . S
C244 H270 0.930 . S
C245 C240 1.479 . S
C245 C244 1.405 . S
C245 H271 0.931 . S
U246 O247 2.454 . S
U246 O248 2.458 . S
U246 C249 2.984 . S
U246 C250 2.847 1_565 S
U246 C263 2.882 . S
U246 O264 2.441 . S
U246 O265 2.420 1_565 S
U246 O266 2.455 . S
U246 O267 2.449 . S
O247 U246 2.454 . S
O247 C249 1.353 . S
O248 U246 2.458 . S
O248 C249 1.286 . S
C249 U246 2.984 . S
C249 O247 1.353 . S
C249 O248 1.286 . S
C249 C251 1.363 . S
C250 C240 1.465 . S
C250 U246 2.847 1_545 S
C250 O264 1.249 1_545 S
C250 O265 1.202 . S
C251 C249 1.363 . S
C251 C253 1.408 . S
C251 C256 1.342 . S
C252 C253 1.310 . S
C252 C255 1.461 . S
C252 H272 0.932 . S
C253 C251 1.408 . S
C253 C252 1.310 . S
C253 H273 0.930 . S
C254 C255 1.474 . S
C254 C256 1.285 . S
C254 H274 0.929 . S
C255 C252 1.461 . S
C255 C254 1.474 . S
C256 C251 1.342 . S
C256 C254 1.285 . S
C256 H275 0.930 . S
C257 C260 1.424 . S
C257 C262 1.245 . S
C257 C263 1.428 . S
C258 C261 1.260 . S
C258 C262 1.477 . S
C258 H276 0.932 . S
C259 C260 1.384 . S
C259 C261 1.479 . S
C259 H277 0.929 . S
C260 C257 1.424 . S
C260 C259 1.384 . S
C260 H278 0.928 . S
C261 C258 1.260 . S
C261 C259 1.479 . S
C262 C257 1.245 . S
C262 C258 1.477 . S
C262 H279 0.932 . S
C263 U246 2.882 . S
C263 C257 1.428 . S
C263 O266 1.301 . S
C263 O267 1.282 . S
O264 U246 2.441 . S
O264 C250 1.249 1_565 S
O265 U246 2.420 1_545 S
O265 C250 1.202 . S
O266 U246 2.455 . S
O266 C263 1.301 . S
O267 U246 2.449 . S
O267 C263 1.282 . S
H268 C241 0.931 . S
H269 C243 0.929 . S
H270 C244 0.930 . S
H271 C245 0.931 . S
H272 C252 0.932 . S
H273 C253 0.930 . S
H274 C254 0.929 . S
H275 C256 0.930 . S
H276 C258 0.932 . S
H277 C259 0.929 . S
H278 C260 0.928 . S
H279 C262 0.932 . S
C280 C281 1.264 . S
C280 C285 1.479 . S
C280 C290 1.465 . S
C281 C280 1.264 . S
C281 C283 1.339 . S
C281 H308 0.931 . S
C282 C283 1.395 . S
C282 C284 1.320 . S
C283 C281 1.339 . S
C283 C282 1.395 . S
C283 H309 0.929 . S
C284 C282 1.320 . S
C284 C285 1.405 . S
C284 H310 0.930 . S
C285 C280 1.479 . S
C285 C284 1.405 . S
C285 H311 0.931 . S
U286 O287 2.454 . S
U286 O288 2.458 . S
U286 C289 2.984 . S
U286 C290 2.847 . S
U286 C303 2.882 . S
U286 O304 2.441 . S
U286 O305 2.420 . S
U286 O306 2.455 . S
U286 O307 2.449 . S
O287 U286 2.454 . S
O287 C289 1.353 . S
O288 U286 2.458 . S
O288 C289 1.286 . S
C289 U286 2.984 . S
C289 O287 1.353 . S
C289 O288 1.286 . S
C289 C291 1.363 . S
C290 C280 1.465 . S
C290 U286 2.847 . S
C290 O304 1.249 . S
C290 O305 1.202 . S
C291 C289 1.363 . S
C291 C293 1.408 . S
C291 C296 1.342 . S
C292 C293 1.310 . S
C292 C295 1.461 . S
C292 H312 0.932 . S
C293 C291 1.408 . S
C293 C292 1.310 . S
C293 H313 0.930 . S
C294 C295 1.474 . S
C294 C296 1.285 . S
C294 H314 0.929 . S
C295 C292 1.461 . S
C295 C294 1.474 . S
C296 C291 1.342 . S
C296 C294 1.285 . S
C296 H315 0.930 . S
C297 C300 1.424 . S
C297 C302 1.245 . S
C297 C303 1.428 . S
C298 C301 1.260 . S
C298 C302 1.477 . S
C298 H316 0.932 . S
C299 C300 1.384 . S
C299 C301 1.479 . S
C299 H317 0.929 . S
C300 C297 1.424 . S
C300 C299 1.384 . S
C300 H318 0.928 . S
C301 C298 1.260 . S
C301 C299 1.479 . S
C302 C297 1.245 . S
C302 C298 1.477 . S
C302 H319 0.932 . S
C303 U286 2.882 . S
C303 C297 1.428 . S
C303 O306 1.301 . S
C303 O307 1.282 . S
O304 U286 2.441 . S
O304 C290 1.249 . S
O305 U286 2.420 . S
O305 C290 1.202 . S
O306 U286 2.455 . S
O306 C303 1.301 . S
O307 U286 2.449 . S
O307 C303 1.282 . S
H308 C281 0.931 . S
H309 C283 0.929 . S
H310 C284 0.930 . S
H311 C285 0.931 . S
H312 C292 0.932 . S
H313 C293 0.930 . S
H314 C294 0.929 . S
H315 C296 0.930 . S
H316 C298 0.932 . S
H317 C299 0.929 . S
H318 C300 0.928 . S
H319 C302 0.932 . S
C320 C321 1.264 . S
C320 C325 1.479 . S
C320 C330 1.465 . S
C321 C320 1.264 . S
C321 C323 1.339 . S
C321 H348 0.931 . S
C322 C323 1.395 . S
C322 C324 1.320 . S
C323 C321 1.339 . S
C323 C322 1.395 . S
C323 H349 0.929 . S
C324 C322 1.320 . S
C324 C325 1.405 . S
C324 H350 0.930 . S
C325 C320 1.479 . S
C325 C324 1.405 . S
C325 H351 0.931 . S
U326 O327 2.454 . S
U326 O328 2.458 . S
U326 C329 2.984 . S
U326 C330 2.847 . S
U326 C343 2.882 . S
U326 O344 2.441 . S
U326 O345 2.420 . S
U326 O346 2.455 . S
U326 O347 2.449 . S
O327 U326 2.454 . S
O327 C329 1.353 . S
O328 U326 2.458 . S
O328 C329 1.286 . S
C329 U326 2.984 . S
C329 O327 1.353 . S
C329 O328 1.286 . S
C329 C331 1.363 . S
C330 C320 1.465 . S
C330 U326 2.847 . S
C330 O344 1.249 . S
C330 O345 1.202 . S
C331 C329 1.363 . S
C331 C333 1.408 . S
C331 C336 1.342 . S
C332 C333 1.310 . S
C332 C335 1.461 . S
C332 H352 0.932 . S
C333 C331 1.408 . S
C333 C332 1.310 . S
C333 H353 0.930 . S
C334 C335 1.474 . S
C334 C336 1.285 . S
C334 H354 0.929 . S
C335 C332 1.461 . S
C335 C334 1.474 . S
C336 C331 1.342 . S
C336 C334 1.285 . S
C336 H355 0.930 . S
C337 C340 1.424 . S
C337 C342 1.245 . S
C337 C343 1.428 . S
C338 C341 1.260 . S
C338 C342 1.477 . S
C338 H356 0.932 . S
C339 C340 1.384 . S
C339 C341 1.479 . S
C339 H357 0.929 . S
C340 C337 1.424 . S
C340 C339 1.384 . S
C340 H358 0.928 . S
C341 C338 1.260 . S
C341 C339 1.479 . S
C342 C337 1.245 . S
C342 C338 1.477 . S
C342 H359 0.932 . S
C343 U326 2.882 . S
C343 C337 1.428 . S
C343 O346 1.301 . S
C343 O347 1.282 . S
O344 U326 2.441 . S
O344 C330 1.249 . S
O345 U326 2.420 . S
O345 C330 1.202 . S
O346 U326 2.455 . S
O346 C343 1.301 . S
O347 U326 2.449 . S
O347 C343 1.282 . S
H348 C321 0.931 . S
H349 C323 0.929 . S
H350 C324 0.930 . S
H351 C325 0.931 . S
H352 C332 0.932 . S
H353 C333 0.930 . S
H354 C334 0.929 . S
H355 C336 0.930 . S
H356 C338 0.932 . S
H357 C339 0.929 . S
H358 C340 0.928 . S
H359 C342 0.932 . S
C360 C361 1.264 . S
C360 C365 1.479 . S
C360 C370 1.465 . S
C361 C360 1.264 . S
C361 C363 1.339 . S
C361 H388 0.931 . S
C362 C363 1.395 . S
C362 C364 1.320 . S
C363 C361 1.339 . S
C363 C362 1.395 . S
C363 H389 0.929 . S
C364 C362 1.320 . S
C364 C365 1.405 . S
C364 H390 0.930 . S
C365 C360 1.479 . S
C365 C364 1.405 . S
C365 H391 0.931 . S
U366 O367 2.454 . S
U366 O368 2.458 . S
U366 C369 2.984 . S
U366 C370 2.847 . S
U366 C383 2.882 . S
U366 O384 2.441 . S
U366 O385 2.420 . S
U366 O386 2.455 . S
U366 O387 2.449 . S
O367 U366 2.454 . S
O367 C369 1.353 . S
O368 U366 2.458 . S
O368 C369 1.286 . S
C369 U366 2.984 . S
C369 O367 1.353 . S
C369 O368 1.286 . S
C369 C371 1.363 . S
C370 C360 1.465 . S
C370 U366 2.847 . S
C370 O384 1.249 . S
C370 O385 1.202 . S
C371 C369 1.363 . S
C371 C373 1.408 . S
C371 C376 1.342 . S
C372 C373 1.310 . S
C372 C375 1.461 . S
C372 H392 0.932 . S
C373 C371 1.408 . S
C373 C372 1.310 . S
C373 H393 0.930 . S
C374 C375 1.474 . S
C374 C376 1.285 . S
C374 H394 0.929 . S
C375 C372 1.461 . S
C375 C374 1.474 . S
C376 C371 1.342 . S
C376 C374 1.285 . S
C376 H395 0.930 . S
C377 C380 1.424 . S
C377 C382 1.245 . S
C377 C383 1.428 . S
C378 C381 1.260 . S
C378 C382 1.477 . S
C378 H396 0.932 . S
C379 C380 1.384 . S
C379 C381 1.479 . S
C379 H397 0.929 . S
C380 C377 1.424 . S
C380 C379 1.384 . S
C380 H398 0.928 . S
C381 C378 1.260 . S
C381 C379 1.479 . S
C382 C377 1.245 . S
C382 C378 1.477 . S
C382 H399 0.932 . S
C383 U366 2.882 . S
C383 C377 1.428 . S
C383 O386 1.301 . S
C383 O387 1.282 . S
O384 U366 2.441 . S
O384 C370 1.249 . S
O385 U366 2.420 . S
O385 C370 1.202 . S
O386 U366 2.455 . S
O386 C383 1.301 . S
O387 U366 2.449 . S
O387 C383 1.282 . S
H388 C361 0.931 . S
H389 C363 0.929 . S
H390 C364 0.930 . S
H391 C365 0.931 . S
H392 C372 0.932 . S
H393 C373 0.930 . S
H394 C374 0.929 . S
H395 C376 0.930 . S
H396 C378 0.932 . S
H397 C379 0.929 . S
H398 C380 0.928 . S
H399 C382 0.932 . S
C400 C401 1.264 . S
C400 C405 1.479 . S
C400 C410 1.465 . S
C401 C400 1.264 . S
C401 C403 1.339 . S
C401 H428 0.931 . S
C402 C403 1.395 . S
C402 C404 1.320 . S
C403 C401 1.339 . S
C403 C402 1.395 . S
C403 H429 0.929 . S
C404 C402 1.320 . S
C404 C405 1.405 . S
C404 H430 0.930 . S
C405 C400 1.479 . S
C405 C404 1.405 . S
C405 H431 0.931 . S
U406 O407 2.454 . S
U406 O408 2.458 . S
U406 C409 2.984 . S
U406 C410 2.847 . S
U406 C423 2.882 . S
U406 O424 2.441 . S
U406 O425 2.420 . S
U406 O426 2.455 . S
U406 O427 2.449 . S
O407 U406 2.454 . S
O407 C409 1.353 . S
O408 U406 2.458 . S
O408 C409 1.286 . S
C409 U406 2.984 . S
C409 O407 1.353 . S
C409 O408 1.286 . S
C409 C411 1.363 . S
C410 C400 1.465 . S
C410 U406 2.847 . S
C410 O424 1.249 . S
C410 O425 1.202 . S
C411 C409 1.363 . S
C411 C413 1.408 . S
C411 C416 1.342 . S
C412 C413 1.310 . S
C412 C415 1.461 . S
C412 H432 0.932 . S
C413 C411 1.408 . S
C413 C412 1.310 . S
C413 H433 0.930 . S
C414 C415 1.474 . S
C414 C416 1.285 . S
C414 H434 0.929 . S
C415 C412 1.461 . S
C415 C414 1.474 . S
C416 C411 1.342 . S
C416 C414 1.285 . S
C416 H435 0.930 . S
C417 C420 1.424 . S
C417 C422 1.245 . S
C417 C423 1.428 . S
C418 C421 1.260 . S
C418 C422 1.477 . S
C418 H436 0.932 . S
C419 C420 1.384 . S
C419 C421 1.479 . S
C419 H437 0.929 . S
C420 C417 1.424 . S
C420 C419 1.384 . S
C420 H438 0.928 . S
C421 C418 1.260 . S
C421 C419 1.479 . S
C422 C417 1.245 . S
C422 C418 1.477 . S
C422 H439 0.932 . S
C423 U406 2.882 . S
C423 C417 1.428 . S
C423 O426 1.301 . S
C423 O427 1.282 . S
O424 U406 2.441 . S
O424 C410 1.249 . S
O425 U406 2.420 . S
O425 C410 1.202 . S
O426 U406 2.455 . S
O426 C423 1.301 . S
O427 U406 2.449 . S
O427 C423 1.282 . S
H428 C401 0.931 . S
H429 C403 0.929 . S
H430 C404 0.930 . S
H431 C405 0.931 . S
H432 C412 0.932 . S
H433 C413 0.930 . S
H434 C414 0.929 . S
H435 C416 0.930 . S
H436 C418 0.932 . S
H437 C419 0.929 . S
H438 C420 0.928 . S
H439 C422 0.932 . S
C440 C441 1.264 . S
C440 C445 1.479 . S
C440 C450 1.465 . S
C441 C440 1.264 . S
C441 C443 1.339 . S
C441 H468 0.931 . S
C442 C443 1.395 . S
C442 C444 1.320 . S
C443 C441 1.339 . S
C443 C442 1.395 . S
C443 H469 0.929 . S
C444 C442 1.320 . S
C444 C445 1.405 . S
C444 H470 0.930 . S
C445 C440 1.479 . S
C445 C444 1.405 . S
C445 H471 0.931 . S
U446 O447 2.454 . S
U446 O448 2.458 . S
U446 C449 2.984 . S
U446 C450 2.847 . S
U446 C463 2.882 . S
U446 O464 2.441 . S
U446 O465 2.420 . S
U446 O466 2.455 . S
U446 O467 2.449 . S
O447 U446 2.454 . S
O447 C449 1.353 . S
O448 U446 2.458 . S
O448 C449 1.286 . S
C449 U446 2.984 . S
C449 O447 1.353 . S
C449 O448 1.286 . S
C449 C451 1.363 . S
C450 C440 1.465 . S
C450 U446 2.847 . S
C450 O464 1.249 . S
C450 O465 1.202 . S
C451 C449 1.363 . S
C451 C453 1.408 . S
C451 C456 1.342 . S
C452 C453 1.310 . S
C452 C455 1.461 . S
C452 H472 0.932 . S
C453 C451 1.408 . S
C453 C452 1.310 . S
C453 H473 0.930 . S
C454 C455 1.474 . S
C454 C456 1.285 . S
C454 H474 0.929 . S
C455 C452 1.461 . S
C455 C454 1.474 . S
C456 C451 1.342 . S
C456 C454 1.285 . S
C456 H475 0.930 . S
C457 C460 1.424 . S
C457 C462 1.245 . S
C457 C463 1.428 . S
C458 C461 1.260 . S
C458 C462 1.477 . S
C458 H476 0.932 . S
C459 C460 1.384 . S
C459 C461 1.479 . S
C459 H477 0.929 . S
C460 C457 1.424 . S
C460 C459 1.384 . S
C460 H478 0.928 . S
C461 C458 1.260 . S
C461 C459 1.479 . S
C462 C457 1.245 . S
C462 C458 1.477 . S
C462 H479 0.932 . S
C463 U446 2.882 . S
C463 C457 1.428 . S
C463 O466 1.301 . S
C463 O467 1.282 . S
O464 U446 2.441 . S
O464 C450 1.249 . S
O465 U446 2.420 . S
O465 C450 1.202 . S
O466 U446 2.455 . S
O466 C463 1.301 . S
O467 U446 2.449 . S
O467 C463 1.282 . S
H468 C441 0.931 . S
H469 C443 0.929 . S
H470 C444 0.930 . S
H471 C445 0.931 . S
H472 C452 0.932 . S
H473 C453 0.930 . S
H474 C454 0.929 . S
H475 C456 0.930 . S
H476 C458 0.932 . S
H477 C459 0.929 . S
H478 C460 0.928 . S
H479 C462 0.932 . S
C480 C481 1.264 . S
C480 C485 1.479 . S
C480 C490 1.465 . S
C481 C480 1.264 . S
C481 C483 1.339 . S
C481 H508 0.931 . S
C482 C483 1.395 . S
C482 C484 1.320 . S
C483 C481 1.339 . S
C483 C482 1.395 . S
C483 H509 0.929 . S
C484 C482 1.320 . S
C484 C485 1.405 . S
C484 H510 0.930 . S
C485 C480 1.479 . S
C485 C484 1.405 . S
C485 H511 0.931 . S
U486 O487 2.454 . S
U486 O488 2.458 . S
U486 C489 2.984 . S
U486 C490 2.847 . S
U486 C503 2.882 . S
U486 O504 2.441 . S
U486 O505 2.420 . S
U486 O506 2.455 . S
U486 O507 2.449 . S
O487 U486 2.454 . S
O487 C489 1.353 . S
O488 U486 2.458 . S
O488 C489 1.286 . S
C489 U486 2.984 . S
C489 O487 1.353 . S
C489 O488 1.286 . S
C489 C491 1.363 . S
C490 C480 1.465 . S
C490 U486 2.847 . S
C490 O504 1.249 . S
C490 O505 1.202 . S
C491 C489 1.363 . S
C491 C493 1.408 . S
C491 C496 1.342 . S
C492 C493 1.310 . S
C492 C495 1.461 . S
C492 H512 0.932 . S
C493 C491 1.408 . S
C493 C492 1.310 . S
C493 H513 0.930 . S
C494 C495 1.474 . S
C494 C496 1.285 . S
C494 H514 0.929 . S
C495 C492 1.461 . S
C495 C494 1.474 . S
C496 C491 1.342 . S
C496 C494 1.285 . S
C496 H515 0.930 . S
C497 C500 1.424 . S
C497 C502 1.245 . S
C497 C503 1.428 . S
C498 C501 1.260 . S
C498 C502 1.477 . S
C498 H516 0.932 . S
C499 C500 1.384 . S
C499 C501 1.479 . S
C499 H517 0.929 . S
C500 C497 1.424 . S
C500 C499 1.384 . S
C500 H518 0.928 . S
C501 C498 1.260 . S
C501 C499 1.479 . S
C502 C497 1.245 . S
C502 C498 1.477 . S
C502 H519 0.932 . S
C503 U486 2.882 . S
C503 C497 1.428 . S
C503 O506 1.301 . S
C503 O507 1.282 . S
O504 U486 2.441 . S
O504 C490 1.249 . S
O505 U486 2.420 . S
O505 C490 1.202 . S
O506 U486 2.455 . S
O506 C503 1.301 . S
O507 U486 2.449 . S
O507 C503 1.282 . S
H508 C481 0.931 . S
H509 C483 0.929 . S
H510 C484 0.930 . S
H511 C485 0.931 . S
H512 C492 0.932 . S
H513 C493 0.930 . S
H514 C494 0.929 . S
H515 C496 0.930 . S
H516 C498 0.932 . S
H517 C499 0.929 . S
H518 C500 0.928 . S
H519 C502 0.932 . S
C520 C521 1.264 . S
C520 C525 1.479 . S
C520 C530 1.465 . S
C521 C520 1.264 . S
C521 C523 1.339 . S
C521 H548 0.931 . S
C522 C523 1.395 . S
C522 C524 1.320 . S
C523 C521 1.339 . S
C523 C522 1.395 . S
C523 H549 0.929 . S
C524 C522 1.320 . S
C524 C525 1.405 . S
C524 H550 0.930 . S
C525 C520 1.479 . S
C525 C524 1.405 . S
C525 H551 0.931 . S
U526 O527 2.454 . S
U526 O528 2.458 . S
U526 C529 2.984 . S
U526 C530 2.847 . S
U526 C543 2.882 . S
U526 O544 2.441 . S
U526 O545 2.420 . S
U526 O546 2.455 . S
U526 O547 2.449 . S
O527 U526 2.454 . S
O527 C529 1.353 . S
O528 U526 2.458 . S
O528 C529 1.286 . S
C529 U526 2.984 . S
C529 O527 1.353 . S
C529 O528 1.286 . S
C529 C531 1.363 . S
C530 C520 1.465 . S
C530 U526 2.847 . S
C530 O544 1.249 . S
C530 O545 1.202 . S
C531 C529 1.363 . S
C531 C533 1.408 . S
C531 C536 1.342 . S
C532 C533 1.310 . S
C532 C535 1.461 . S
C532 H552 0.932 . S
C533 C531 1.408 . S
C533 C532 1.310 . S
C533 H553 0.930 . S
C534 C535 1.474 . S
C534 C536 1.285 . S
C534 H554 0.929 . S
C535 C532 1.461 . S
C535 C534 1.474 . S
C536 C531 1.342 . S
C536 C534 1.285 . S
C536 H555 0.930 . S
C537 C540 1.424 . S
C537 C542 1.245 . S
C537 C543 1.428 . S
C538 C541 1.260 . S
C538 C542 1.477 . S
C538 H556 0.932 . S
C539 C540 1.384 . S
C539 C541 1.479 . S
C539 H557 0.929 . S
C540 C537 1.424 . S
C540 C539 1.384 . S
C540 H558 0.928 . S
C541 C538 1.260 . S
C541 C539 1.479 . S
C542 C537 1.245 . S
C542 C538 1.477 . S
C542 H559 0.932 . S
C543 U526 2.882 . S
C543 C537 1.428 . S
C543 O546 1.301 . S
C543 O547 1.282 . S
O544 U526 2.441 . S
O544 C530 1.249 . S
O545 U526 2.420 . S
O545 C530 1.202 . S
O546 U526 2.455 . S
O546 C543 1.301 . S
O547 U526 2.449 . S
O547 C543 1.282 . S
H548 C521 0.931 . S
H549 C523 0.929 . S
H550 C524 0.930 . S
H551 C525 0.931 . S
H552 C532 0.932 . S
H553 C533 0.930 . S
H554 C534 0.929 . S
H555 C536 0.930 . S
H556 C538 0.932 . S
H557 C539 0.929 . S
H558 C540 0.928 . S
H559 C542 0.932 . S
C560 C561 1.264 . S
C560 C565 1.479 . S
C560 C570 1.465 . S
C561 C560 1.264 . S
C561 C563 1.339 . S
C561 H588 0.931 . S
C562 C563 1.395 . S
C562 C564 1.320 . S
C563 C561 1.339 . S
C563 C562 1.395 . S
C563 H589 0.929 . S
C564 C562 1.320 . S
C564 C565 1.405 . S
C564 H590 0.930 . S
C565 C560 1.479 . S
C565 C564 1.405 . S
C565 H591 0.931 . S
U566 O567 2.454 . S
U566 O568 2.458 . S
U566 C569 2.984 . S
U566 C570 2.847 . S
U566 C583 2.882 . S
U566 O584 2.441 . S
U566 O585 2.420 . S
U566 O586 2.455 . S
U566 O587 2.449 . S
O567 U566 2.454 . S
O567 C569 1.353 . S
O568 U566 2.458 . S
O568 C569 1.286 . S
C569 U566 2.984 . S
C569 O567 1.353 . S
C569 O568 1.286 . S
C569 C571 1.363 . S
C570 C560 1.465 . S
C570 U566 2.847 . S
C570 O584 1.249 . S
C570 O585 1.202 . S
C571 C569 1.363 . S
C571 C573 1.408 . S
C571 C576 1.342 . S
C572 C573 1.310 . S
C572 C575 1.461 . S
C572 H592 0.932 . S
C573 C571 1.408 . S
C573 C572 1.310 . S
C573 H593 0.930 . S
C574 C575 1.474 . S
C574 C576 1.285 . S
C574 H594 0.929 . S
C575 C572 1.461 . S
C575 C574 1.474 . S
C576 C571 1.342 . S
C576 C574 1.285 . S
C576 H595 0.930 . S
C577 C580 1.424 . S
C577 C582 1.245 . S
C577 C583 1.428 . S
C578 C581 1.260 . S
C578 C582 1.477 . S
C578 H596 0.932 . S
C579 C580 1.384 . S
C579 C581 1.479 . S
C579 H597 0.929 . S
C580 C577 1.424 . S
C580 C579 1.384 . S
C580 H598 0.928 . S
C581 C578 1.260 . S
C581 C579 1.479 . S
C582 C577 1.245 . S
C582 C578 1.477 . S
C582 H599 0.932 . S
C583 U566 2.882 . S
C583 C577 1.428 . S
C583 O586 1.301 . S
C583 O587 1.282 . S
O584 U566 2.441 . S
O584 C570 1.249 . S
O585 U566 2.420 . S
O585 C570 1.202 . S
O586 U566 2.455 . S
O586 C583 1.301 . S
O587 U566 2.449 . S
O587 C583 1.282 . S
H588 C561 0.931 . S
H589 C563 0.929 . S
H590 C564 0.930 . S
H591 C565 0.931 . S
H592 C572 0.932 . S
H593 C573 0.930 . S
H594 C574 0.929 . S
H595 C576 0.930 . S
H596 C578 0.932 . S
H597 C579 0.929 . S
H598 C580 0.928 . S
H599 C582 0.932 . S
C600 C601 1.264 . S
C600 C605 1.479 . S
C600 C610 1.465 . S
C601 C600 1.264 . S
C601 C603 1.339 . S
C601 H628 0.931 . S
C602 C603 1.395 . S
C602 C604 1.320 . S
C603 C601 1.339 . S
C603 C602 1.395 . S
C603 H629 0.929 . S
C604 C602 1.320 . S
C604 C605 1.405 . S
C604 H630 0.930 . S
C605 C600 1.479 . S
C605 C604 1.405 . S
C605 H631 0.931 . S
U606 O607 2.454 . S
U606 O608 2.458 . S
U606 C609 2.984 . S
U606 C610 2.847 . S
U606 C623 2.882 . S
U606 O624 2.441 . S
U606 O625 2.420 . S
U606 O626 2.455 . S
U606 O627 2.449 . S
O607 U606 2.454 . S
O607 C609 1.353 . S
O608 U606 2.458 . S
O608 C609 1.286 . S
C609 U606 2.984 . S
C609 O607 1.353 . S
C609 O608 1.286 . S
C609 C611 1.363 . S
C610 C600 1.465 . S
C610 U606 2.847 . S
C610 O624 1.249 . S
C610 O625 1.202 . S
C611 C609 1.363 . S
C611 C613 1.408 . S
C611 C616 1.342 . S
C612 C613 1.310 . S
C612 C615 1.461 . S
C612 H632 0.932 . S
C613 C611 1.408 . S
C613 C612 1.310 . S
C613 H633 0.930 . S
C614 C615 1.474 . S
C614 C616 1.285 . S
C614 H634 0.929 . S
C615 C612 1.461 . S
C615 C614 1.474 . S
C616 C611 1.342 . S
C616 C614 1.285 . S
C616 H635 0.930 . S
C617 C620 1.424 . S
C617 C622 1.245 . S
C617 C623 1.428 . S
C618 C621 1.260 . S
C618 C622 1.477 . S
C618 H636 0.932 . S
C619 C620 1.384 . S
C619 C621 1.479 . S
C619 H637 0.929 . S
C620 C617 1.424 . S
C620 C619 1.384 . S
C620 H638 0.928 . S
C621 C618 1.260 . S
C621 C619 1.479 . S
C622 C617 1.245 . S
C622 C618 1.477 . S
C622 H639 0.932 . S
C623 U606 2.882 . S
C623 C617 1.428 . S
C623 O626 1.301 . S
C623 O627 1.282 . S
O624 U606 2.441 . S
O624 C610 1.249 . S
O625 U606 2.420 . S
O625 C610 1.202 . S
O626 U606 2.455 . S
O626 C623 1.301 . S
O627 U606 2.449 . S
O627 C623 1.282 . S
H628 C601 0.931 . S
H629 C603 0.929 . S
H630 C604 0.930 . S
H631 C605 0.931 . S
H632 C612 0.932 . S
H633 C613 0.930 . S
H634 C614 0.929 . S
H635 C616 0.930 . S
H636 C618 0.932 . S
H637 C619 0.929 . S
H638 C620 0.928 . S
H639 C622 0.932 . S
C640 C641 1.264 . S
C640 C645 1.479 . S
C640 C650 1.465 . S
C641 C640 1.264 . S
C641 C643 1.339 . S
C641 H668 0.931 . S
C642 C643 1.395 . S
C642 C644 1.320 . S
C643 C641 1.339 . S
C643 C642 1.395 . S
C643 H669 0.929 . S
C644 C642 1.320 . S
C644 C645 1.405 . S
C644 H670 0.930 . S
C645 C640 1.479 . S
C645 C644 1.405 . S
C645 H671 0.931 . S
U646 O647 2.454 . S
U646 O648 2.458 1_655 S
U646 C649 2.984 1_655 S
U646 C650 2.847 . S
U646 C663 2.882 . S
U646 O664 2.441 . S
U646 O665 2.420 . S
U646 O666 2.455 1_655 S
U646 O667 2.449 . S
O647 U646 2.454 . S
O647 C649 1.353 1_655 S
O648 U646 2.458 1_455 S
O648 C649 1.286 . S
C649 U646 2.984 1_455 S
C649 O647 1.353 1_455 S
C649 O648 1.286 . S
C649 C651 1.363 . S
C650 C640 1.465 . S
C650 U646 2.847 . S
C650 O664 1.249 . S
C650 O665 1.202 . S
C651 C649 1.363 . S
C651 C653 1.408 . S
C651 C656 1.342 . S
C652 C653 1.310 . S
C652 C655 1.461 . S
C652 H672 0.932 . S
C653 C651 1.408 . S
C653 C652 1.310 . S
C653 H673 0.930 1_455 S
C654 C655 1.474 . S
C654 C656 1.285 . S
C654 H674 0.929 . S
C655 C652 1.461 . S
C655 C654 1.474 . S
C656 C651 1.342 . S
C656 C654 1.285 . S
C656 H675 0.930 . S
C657 C660 1.424 . S
C657 C662 1.245 . S
C657 C663 1.428 1_455 S
C658 C661 1.260 . S
C658 C662 1.477 . S
C658 H676 0.932 . S
C659 C660 1.384 . S
C659 C661 1.479 . S
C659 H677 0.929 . S
C660 C657 1.424 . S
C660 C659 1.384 . S
C660 H678 0.928 . S
C661 C658 1.260 . S
C661 C659 1.479 . S
C662 C657 1.245 . S
C662 C658 1.477 . S
C662 H679 0.932 . S
C663 U646 2.882 . S
C663 C657 1.428 1_655 S
C663 O666 1.301 1_655 S
C663 O667 1.282 . S
O664 U646 2.441 . S
O664 C650 1.249 . S
O665 U646 2.420 . S
O665 C650 1.202 . S
O666 U646 2.455 1_455 S
O666 C663 1.301 1_455 S
O667 U646 2.449 . S
O667 C663 1.282 . S
H668 C641 0.931 . S
H669 C643 0.929 . S
H670 C644 0.930 . S
H671 C645 0.931 . S
H672 C652 0.932 . S
H673 C653 0.930 1_655 S
H674 C654 0.929 . S
H675 C656 0.930 . S
H676 C658 0.932 . S
H677 C659 0.929 . S
H678 C660 0.928 . S
H679 C662 0.932 . S
C680 C681 1.264 . S
C680 C685 1.479 . S
C680 C690 1.465 1_565 S
C681 C680 1.264 . S
C681 C683 1.339 . S
C681 H708 0.931 . S
C682 C683 1.395 . S
C682 C684 1.320 . S
C683 C681 1.339 . S
C683 C682 1.395 . S
C683 H709 0.929 . S
C684 C682 1.320 . S
C684 C685 1.405 . S
C684 H710 0.930 . S
C685 C680 1.479 . S
C685 C684 1.405 . S
C685 H711 0.931 . S
U686 O687 2.454 . S
U686 O688 2.458 . S
U686 C689 2.984 . S
U686 C690 2.847 . S
U686 C703 2.882 . S
U686 O704 2.441 . S
U686 O705 2.420 . S
U686 O706 2.455 . S
U686 O707 2.449 . S
O687 U686 2.454 . S
O687 C689 1.353 . S
O688 U686 2.458 . S
O688 C689 1.286 . S
C689 U686 2.984 . S
C689 O687 1.353 . S
C689 O688 1.286 . S
C689 C691 1.363 . S
C690 C680 1.465 1_545 S
C690 U686 2.847 . S
C690 O704 1.249 . S
C690 O705 1.202 . S
C691 C689 1.363 . S
C691 C693 1.408 . S
C691 C696 1.342 . S
C692 C693 1.310 . S
C692 C695 1.461 . S
C692 H712 0.932 . S
C693 C691 1.408 . S
C693 C692 1.310 . S
C693 H713 0.930 . S
C694 C695 1.474 . S
C694 C696 1.285 . S
C694 H714 0.929 . S
C695 C692 1.461 . S
C695 C694 1.474 . S
C696 C691 1.342 . S
C696 C694 1.285 . S
C696 H715 0.930 . S
C697 C700 1.424 . S
C697 C702 1.245 . S
C697 C703 1.428 . S
C698 C701 1.260 . S
C698 C702 1.477 . S
C698 H716 0.932 . S
C699 C700 1.384 . S
C699 C701 1.479 . S
C699 H717 0.929 . S
C700 C697 1.424 . S
C700 C699 1.384 . S
C700 H718 0.928 . S
C701 C698 1.260 . S
C701 C699 1.479 . S
C702 C697 1.245 . S
C702 C698 1.477 . S
C702 H719 0.932 . S
C703 U686 2.882 . S
C703 C697 1.428 . S
C703 O706 1.301 . S
C703 O707 1.282 . S
O704 U686 2.441 . S
O704 C690 1.249 . S
O705 U686 2.420 . S
O705 C690 1.202 . S
O706 U686 2.455 . S
O706 C703 1.301 . S
O707 U686 2.449 . S
O707 C703 1.282 . S
H708 C681 0.931 . S
H709 C683 0.929 . S
H710 C684 0.930 . S
H711 C685 0.931 . S
H712 C692 0.932 . S
H713 C693 0.930 . S
H714 C694 0.929 . S
H715 C696 0.930 . S
H716 C698 0.932 . S
H717 C699 0.929 . S
H718 C700 0.928 . S
H719 C702 0.932 . S
C720 C721 1.264 . S
C720 C725 1.479 . S
C720 C730 1.465 1_565 S
C721 C720 1.264 . S
C721 C723 1.339 . S
C721 H748 0.931 . S
C722 C723 1.395 . S
C722 C724 1.320 . S
C723 C721 1.339 . S
C723 C722 1.395 . S
C723 H749 0.929 . S
C724 C722 1.320 . S
C724 C725 1.405 . S
C724 H750 0.930 . S
C725 C720 1.479 . S
C725 C724 1.405 . S
C725 H751 0.931 . S
U726 O727 2.454 . S
U726 O728 2.458 1_655 S
U726 C729 2.984 1_655 S
U726 C730 2.847 . S
U726 C743 2.882 . S
U726 O744 2.441 . S
U726 O745 2.420 . S
U726 O746 2.455 1_655 S
U726 O747 2.449 . S
O727 U726 2.454 . S
O727 C729 1.353 1_655 S
O728 U726 2.458 1_455 S
O728 C729 1.286 . S
C729 U726 2.984 1_455 S
C729 O727 1.353 1_455 S
C729 O728 1.286 . S
C729 C731 1.363 . S
C730 C720 1.465 1_545 S
C730 U726 2.847 . S
C730 O744 1.249 . S
C730 O745 1.202 . S
C731 C729 1.363 . S
C731 C733 1.408 . S
C731 C736 1.342 . S
C732 C733 1.310 . S
C732 C735 1.461 . S
C732 H752 0.932 . S
C733 C731 1.408 . S
C733 C732 1.310 . S
C733 H753 0.930 1_455 S
C734 C735 1.474 . S
C734 C736 1.285 . S
C734 H754 0.929 . S
C735 C732 1.461 . S
C735 C734 1.474 . S
C736 C731 1.342 . S
C736 C734 1.285 . S
C736 H755 0.930 . S
C737 C740 1.424 . S
C737 C742 1.245 . S
C737 C743 1.428 1_455 S
C738 C741 1.260 . S
C738 C742 1.477 . S
C738 H756 0.932 . S
C739 C740 1.384 . S
C739 C741 1.479 . S
C739 H757 0.929 . S
C740 C737 1.424 . S
C740 C739 1.384 . S
C740 H758 0.928 . S
C741 C738 1.260 . S
C741 C739 1.479 . S
C742 C737 1.245 . S
C742 C738 1.477 . S
C742 H759 0.932 . S
C743 U726 2.882 . S
C743 C737 1.428 1_655 S
C743 O746 1.301 1_655 S
C743 O747 1.282 . S
O744 U726 2.441 . S
O744 C730 1.249 . S
O745 U726 2.420 . S
O745 C730 1.202 . S
O746 U726 2.455 1_455 S
O746 C743 1.301 1_455 S
O747 U726 2.449 . S
O747 C743 1.282 . S
H748 C721 0.931 . S
H749 C723 0.929 . S
H750 C724 0.930 . S
H751 C725 0.931 . S
H752 C732 0.932 . S
H753 C733 0.930 1_655 S
H754 C734 0.929 . S
H755 C736 0.930 . S
H756 C738 0.932 . S
H757 C739 0.929 . S
H758 C740 0.928 . S
H759 C742 0.932 . S
C760 C761 1.264 . S
C760 C765 1.479 . S
C760 C770 1.465 . S
C761 C760 1.264 . S
C761 C763 1.339 . S
C761 H788 0.931 . S
C762 C763 1.395 . S
C762 C764 1.320 . S
C763 C761 1.339 . S
C763 C762 1.395 . S
C763 H789 0.929 . S
C764 C762 1.320 . S
C764 C765 1.405 . S
C764 H790 0.930 . S
C765 C760 1.479 . S
C765 C764 1.405 . S
C765 H791 0.931 . S
U766 O767 2.454 . S
U766 O768 2.458 . S
U766 C769 2.984 . S
U766 C770 2.847 . S
U766 C783 2.882 . S
U766 O784 2.441 . S
U766 O785 2.420 . S
U766 O786 2.455 . S
U766 O787 2.449 . S
O767 U766 2.454 . S
O767 C769 1.353 . S
O768 U766 2.458 . S
O768 C769 1.286 . S
C769 U766 2.984 . S
C769 O767 1.353 . S
C769 O768 1.286 . S
C769 C771 1.363 . S
C770 C760 1.465 . S
C770 U766 2.847 . S
C770 O784 1.249 . S
C770 O785 1.202 . S
C771 C769 1.363 . S
C771 C773 1.408 . S
C771 C776 1.342 . S
C772 C773 1.310 . S
C772 C775 1.461 . S
C772 H792 0.932 . S
C773 C771 1.408 . S
C773 C772 1.310 . S
C773 H793 0.930 . S
C774 C775 1.474 . S
C774 C776 1.285 . S
C774 H794 0.929 . S
C775 C772 1.461 . S
C775 C774 1.474 . S
C776 C771 1.342 . S
C776 C774 1.285 . S
C776 H795 0.930 . S
C777 C780 1.424 . S
C777 C782 1.245 . S
C777 C783 1.428 . S
C778 C781 1.260 . S
C778 C782 1.477 . S
C778 H796 0.932 . S
C779 C780 1.384 . S
C779 C781 1.479 . S
C779 H797 0.929 . S
C780 C777 1.424 . S
C780 C779 1.384 . S
C780 H798 0.928 . S
C781 C778 1.260 . S
C781 C779 1.479 . S
C782 C777 1.245 . S
C782 C778 1.477 . S
C782 H799 0.932 . S
C783 U766 2.882 . S
C783 C777 1.428 . S
C783 O786 1.301 . S
C783 O787 1.282 . S
O784 U766 2.441 . S
O784 C770 1.249 . S
O785 U766 2.420 . S
O785 C770 1.202 . S
O786 U766 2.455 . S
O786 C783 1.301 . S
O787 U766 2.449 . S
O787 C783 1.282 . S
H788 C761 0.931 . S
H789 C763 0.929 . S
H790 C764 0.930 . S
H791 C765 0.931 . S
H792 C772 0.932 . S
H793 C773 0.930 . S
H794 C774 0.929 . S
H795 C776 0.930 . S
H796 C778 0.932 . S
H797 C779 0.929 . S
H798 C780 0.928 . S
H799 C782 0.932 . S
C800 C801 1.264 . S
C800 C805 1.479 . S
C800 C810 1.465 . S
C801 C800 1.264 . S
C801 C803 1.339 . S
C801 H828 0.931 . S
C802 C803 1.395 . S
C802 C804 1.320 . S
C803 C801 1.339 . S
C803 C802 1.395 . S
C803 H829 0.929 . S
C804 C802 1.320 . S
C804 C805 1.405 . S
C804 H830 0.930 . S
C805 C800 1.479 . S
C805 C804 1.405 . S
C805 H831 0.931 . S
U806 O807 2.454 . S
U806 O808 2.458 . S
U806 C809 2.984 . S
U806 C810 2.847 1_655 S
U806 C823 2.882 . S
U806 O824 2.441 1_655 S
U806 O825 2.415 1_655 S
U806 O826 2.455 . S
U806 O827 2.449 . S
O807 U806 2.454 . S
O807 C809 1.353 . S
O808 U806 2.458 . S
O808 C809 1.286 . S
C809 U806 2.984 . S
C809 O807 1.353 . S
C809 O808 1.286 . S
C809 C811 1.363 . S
C810 C800 1.465 . S
C810 U806 2.847 1_455 S
C810 O824 1.249 . S
C810 O825 1.211 . S
C811 C809 1.363 . S
C811 C813 1.408 . S
C811 C816 1.342 . S
C812 C813 1.310 . S
C812 C815 1.461 . S
C812 H832 0.932 . S
C813 C811 1.408 . S
C813 C812 1.310 . S
C813 H833 0.930 . S
C814 C815 1.474 . S
C814 C816 1.285 . S
C814 H834 0.929 . S
C815 C812 1.461 . S
C815 C814 1.474 . S
C816 C811 1.342 . S
C816 C814 1.285 . S
C816 H835 0.930 . S
C817 C820 1.424 . S
C817 C822 1.245 . S
C817 C823 1.428 . S
C818 C821 1.260 . S
C818 C822 1.477 . S
C818 H836 0.932 . S
C819 C820 1.384 . S
C819 C821 1.479 . S
C819 H837 0.929 . S
C820 C817 1.424 . S
C820 C819 1.384 . S
C820 H838 0.928 . S
C821 C818 1.260 . S
C821 C819 1.479 . S
C822 C817 1.245 . S
C822 C818 1.477 . S
C822 H839 0.932 . S
C823 U806 2.882 . S
C823 C817 1.428 . S
C823 O826 1.301 . S
C823 O827 1.282 . S
O824 U806 2.441 1_455 S
O824 C810 1.249 . S
O825 U806 2.415 1_455 S
O825 C810 1.211 . S
O826 U806 2.455 . S
O826 C823 1.301 . S
O827 U806 2.449 . S
O827 C823 1.282 . S
H828 C801 0.931 . S
H829 C803 0.929 . S
H830 C804 0.930 . S
H831 C805 0.931 . S
H832 C812 0.932 . S
H833 C813 0.930 . S
H834 C814 0.929 . S
H835 C816 0.930 . S
H836 C818 0.932 . S
H837 C819 0.929 . S
H838 C820 0.928 . S
H839 C822 0.932 . S
C840 C841 1.264 . S
C840 C845 1.479 . S
C840 C850 1.465 . S
C841 C840 1.264 . S
C841 C843 1.339 . S
C841 H868 0.931 . S
C842 C843 1.395 . S
C842 C844 1.320 . S
C843 C841 1.339 . S
C843 C842 1.395 . S
C843 H869 0.929 . S
C844 C842 1.320 . S
C844 C845 1.405 . S
C844 H870 0.930 . S
C845 C840 1.479 . S
C845 C844 1.405 . S
C845 H871 0.931 . S
U846 O847 2.454 . S
U846 O848 2.458 . S
U846 C849 2.984 . S
U846 C850 2.847 1_565 S
U846 C863 2.882 . S
U846 O864 2.441 . S
U846 O865 2.391 1_565 S
U846 O866 2.455 . S
U846 O867 2.449 . S
O847 U846 2.454 . S
O847 C849 1.353 . S
O848 U846 2.458 . S
O848 C849 1.286 . S
C849 U846 2.984 . S
C849 O847 1.353 . S
C849 O848 1.286 . S
C849 C851 1.363 . S
C850 C840 1.465 . S
C850 U846 2.847 1_545 S
C850 O864 1.249 1_545 S
C850 O865 1.209 . S
C851 C849 1.363 . S
C851 C853 1.408 . S
C851 C856 1.342 . S
C852 C853 1.310 . S
C852 C855 1.461 . S
C852 H872 0.932 . S
C853 C851 1.408 . S
C853 C852 1.310 . S
C853 H873 0.930 . S
C854 C855 1.474 . S
C854 C856 1.285 . S
C854 H874 0.929 . S
C855 C852 1.461 . S
C855 C854 1.474 . S
C856 C851 1.342 . S
C856 C854 1.285 . S
C856 H875 0.930 . S
C857 C860 1.424 . S
C857 C862 1.245 . S
C857 C863 1.428 . S
C858 C861 1.260 . S
C858 C862 1.477 . S
C858 H876 0.932 . S
C859 C860 1.384 . S
C859 C861 1.479 . S
C859 H877 0.929 . S
C860 C857 1.424 . S
C860 C859 1.384 . S
C860 H878 0.928 . S
C861 C858 1.260 . S
C861 C859 1.479 . S
C862 C857 1.245 . S
C862 C858 1.477 . S
C862 H879 0.932 . S
C863 U846 2.882 . S
C863 C857 1.428 . S
C863 O866 1.301 . S
C863 O867 1.282 . S
O864 U846 2.441 . S
O864 C850 1.249 1_565 S
O865 U846 2.391 1_545 S
O865 C850 1.209 . S
O866 U846 2.455 . S
O866 C863 1.301 . S
O867 U846 2.449 . S
O867 C863 1.282 . S
H868 C841 0.931 . S
H869 C843 0.929 . S
H870 C844 0.930 . S
H871 C845 0.931 . S
H872 C852 0.932 . S
H873 C853 0.930 . S
H874 C854 0.929 . S
H875 C856 0.930 . S
H876 C858 0.932 . S
H877 C859 0.929 . S
H878 C860 0.928 . S
H879 C862 0.932 . S
C880 C881 1.264 . S
C880 C885 1.479 . S
C880 C890 1.465 . S
C881 C880 1.264 . S
C881 C883 1.339 . S
C881 H908 0.931 . S
C882 C883 1.395 . S
C882 C884 1.320 . S
C883 C881 1.339 . S
C883 C882 1.395 . S
C883 H909 0.929 . S
C884 C882 1.320 . S
C884 C885 1.405 . S
C884 H910 0.930 . S
C885 C880 1.479 . S
C885 C884 1.405 . S
C885 H911 0.931 . S
U886 O887 2.454 . S
U886 O888 2.458 . S
U886 C889 2.984 . S
U886 C890 2.847 1_665 S
U886 C903 2.882 . S
U886 O904 2.441 1_655 S
U886 O905 2.415 1_665 S
U886 O906 2.455 . S
U886 O907 2.449 . S
O887 U886 2.454 . S
O887 C889 1.353 . S
O888 U886 2.458 . S
O888 C889 1.286 . S
C889 U886 2.984 . S
C889 O887 1.353 . S
C889 O888 1.286 . S
C889 C891 1.363 . S
C890 C880 1.465 . S
C890 U886 2.847 1_445 S
C890 O904 1.249 1_545 S
C890 O905 1.211 . S
C891 C889 1.363 . S
C891 C893 1.408 . S
C891 C896 1.342 . S
C892 C893 1.310 . S
C892 C895 1.461 . S
C892 H912 0.932 . S
C893 C891 1.408 . S
C893 C892 1.310 . S
C893 H913 0.930 . S
C894 C895 1.474 . S
C894 C896 1.285 . S
C894 H914 0.929 . S
C895 C892 1.461 . S
C895 C894 1.474 . S
C896 C891 1.342 . S
C896 C894 1.285 . S
C896 H915 0.930 . S
C897 C900 1.424 . S
C897 C902 1.245 . S
C897 C903 1.428 . S
C898 C901 1.260 . S
C898 C902 1.477 . S
C898 H916 0.932 . S
C899 C900 1.384 . S
C899 C901 1.479 . S
C899 H917 0.929 . S
C900 C897 1.424 . S
C900 C899 1.384 . S
C900 H918 0.928 . S
C901 C898 1.260 . S
C901 C899 1.479 . S
C902 C897 1.245 . S
C902 C898 1.477 . S
C902 H919 0.932 . S
C903 U886 2.882 . S
C903 C897 1.428 . S
C903 O906 1.301 . S
C903 O907 1.282 . S
O904 U886 2.441 1_455 S
O904 C890 1.249 1_565 S
O905 U886 2.415 1_445 S
O905 C890 1.211 . S
O906 U886 2.455 . S
O906 C903 1.301 . S
O907 U886 2.449 . S
O907 C903 1.282 . S
H908 C881 0.931 . S
H909 C883 0.929 . S
H910 C884 0.930 . S
H911 C885 0.931 . S
H912 C892 0.932 . S
H913 C893 0.930 . S
H914 C894 0.929 . S
H915 C896 0.930 . S
H916 C898 0.932 . S
H917 C899 0.929 . S
H918 C900 0.928 . S
H919 C902 0.932 . S
C920 C921 1.264 . S
C920 C925 1.479 . S
C920 C930 1.465 . S
C921 C920 1.264 . S
C921 C923 1.339 . S
C921 H948 0.931 . S
C922 C923 1.395 . S
C922 C924 1.320 . S
C923 C921 1.339 . S
C923 C922 1.395 . S
C923 H949 0.929 . S
C924 C922 1.320 . S
C924 C925 1.405 . S
C924 H950 0.930 . S
C925 C920 1.479 . S
C925 C924 1.405 . S
C925 H951 0.931 . S
U926 O927 2.454 . S
U926 O928 2.458 . S
U926 C929 2.984 . S
U926 C930 2.847 . S
U926 C943 2.882 . S
U926 O944 2.441 . S
U926 O945 2.420 . S
U926 O946 2.455 . S
U926 O947 2.449 . S
O927 U926 2.454 . S
O927 C929 1.353 . S
O928 U926 2.458 . S
O928 C929 1.286 . S
C929 U926 2.984 . S
C929 O927 1.353 . S
C929 O928 1.286 . S
C929 C931 1.363 . S
C930 C920 1.465 . S
C930 U926 2.847 . S
C930 O944 1.249 . S
C930 O945 1.202 . S
C931 C929 1.363 . S
C931 C933 1.408 . S
C931 C936 1.342 . S
C932 C933 1.310 . S
C932 C935 1.461 . S
C932 H952 0.932 . S
C933 C931 1.408 . S
C933 C932 1.310 . S
C933 H953 0.930 . S
C934 C935 1.474 . S
C934 C936 1.285 . S
C934 H954 0.929 . S
C935 C932 1.461 . S
C935 C934 1.474 . S
C936 C931 1.342 . S
C936 C934 1.285 . S
C936 H955 0.930 . S
C937 C940 1.424 . S
C937 C942 1.245 . S
C937 C943 1.428 . S
C938 C941 1.260 . S
C938 C942 1.477 . S
C938 H956 0.932 . S
C939 C940 1.384 . S
C939 C941 1.479 . S
C939 H957 0.929 . S
C940 C937 1.424 . S
C940 C939 1.384 . S
C940 H958 0.928 . S
C941 C938 1.260 . S
C941 C939 1.479 . S
C942 C937 1.245 . S
C942 C938 1.477 . S
C942 H959 0.932 . S
C943 U926 2.882 . S
C943 C937 1.428 . S
C943 O946 1.301 . S
C943 O947 1.282 . S
O944 U926 2.441 . S
O944 C930 1.249 . S
O945 U926 2.420 . S
O945 C930 1.202 . S
O946 U926 2.455 . S
O946 C943 1.301 . S
O947 U926 2.449 . S
O947 C943 1.282 . S
H948 C921 0.931 . S
H949 C923 0.929 . S
H950 C924 0.930 . S
H951 C925 0.931 . S
H952 C932 0.932 . S
H953 C933 0.930 . S
H954 C934 0.929 . S
H955 C936 0.930 . S
H956 C938 0.932 . S
H957 C939 0.929 . S
H958 C940 0.928 . S
H959 C942 0.932 . S
C960 C961 1.264 . S
C960 C965 1.479 . S
C960 C970 1.465 . S
C961 C960 1.264 . S
C961 C963 1.339 . S
C961 H988 0.931 . S
C962 C963 1.395 . S
C962 C964 1.320 . S
C963 C961 1.339 . S
C963 C962 1.395 . S
C963 H989 0.929 . S
C964 C962 1.320 . S
C964 C965 1.405 . S
C964 H990 0.930 . S
C965 C960 1.479 . S
C965 C964 1.405 . S
C965 H991 0.931 . S
U966 O967 2.454 . S
U966 O968 2.458 1_655 S
U966 C969 2.984 1_655 S
U966 C970 2.847 . S
U966 C983 2.882 . S
U966 O984 2.441 . S
U966 O985 2.420 . S
U966 O986 2.455 1_655 S
U966 O987 2.449 . S
O967 U966 2.454 . S
O967 C969 1.353 1_655 S
O968 U966 2.458 1_455 S
O968 C969 1.286 . S
C969 U966 2.984 1_455 S
C969 O967 1.353 1_455 S
C969 O968 1.286 . S
C969 C971 1.363 . S
C970 C960 1.465 . S
C970 U966 2.847 . S
C970 O984 1.249 . S
C970 O985 1.202 . S
C971 C969 1.363 . S
C971 C973 1.408 . S
C971 C976 1.342 . S
C972 C973 1.310 . S
C972 C975 1.461 . S
C972 H992 0.932 . S
C973 C971 1.408 . S
C973 C972 1.310 . S
C973 H993 0.930 1_455 S
C974 C975 1.474 . S
C974 C976 1.285 . S
C974 H994 0.929 . S
C975 C972 1.461 . S
C975 C974 1.474 . S
C976 C971 1.342 . S
C976 C974 1.285 . S
C976 H995 0.930 . S
C977 C980 1.424 . S
C977 C982 1.245 . S
C977 C983 1.428 1_455 S
C978 C981 1.260 . S
C978 C982 1.477 . S
C978 H996 0.932 . S
C979 C980 1.384 . S
C979 C981 1.479 . S
C979 H997 0.929 . S
C980 C977 1.424 . S
C980 C979 1.384 . S
C980 H998 0.928 . S
C981 C978 1.260 . S
C981 C979 1.479 . S
C982 C977 1.245 . S
C982 C978 1.477 . S
C982 H999 0.932 . S
C983 U966 2.882 . S
C983 C977 1.428 1_655 S
C983 O986 1.301 1_655 S
C983 O987 1.282 . S
O984 U966 2.441 . S
O984 C970 1.249 . S
O985 U966 2.420 . S
O985 C970 1.202 . S
O986 U966 2.455 1_455 S
O986 C983 1.301 1_455 S
O987 U966 2.449 . S
O987 C983 1.282 . S
H988 C961 0.931 . S
H989 C963 0.929 . S
H990 C964 0.930 . S
H991 C965 0.931 . S
H992 C972 0.932 . S
H993 C973 0.930 1_655 S
H994 C974 0.929 . S
H995 C976 0.930 . S
H996 C978 0.932 . S
H997 C979 0.929 . S
H998 C980 0.928 . S
H999 C982 0.932 . S
C1000 C1001 1.264 . S
C1000 C1005 1.479 . S
C1000 C1010 1.465 . S
C1001 C1000 1.264 . S
C1001 C1003 1.339 . S
C1001 H1028 0.931 . S
C1002 C1003 1.395 . S
C1002 C1004 1.320 . S
C1003 C1001 1.339 . S
C1003 C1002 1.395 . S
C1003 H1029 0.929 . S
C1004 C1002 1.320 . S
C1004 C1005 1.405 . S
C1004 H1030 0.930 . S
C1005 C1000 1.479 . S
C1005 C1004 1.405 . S
C1005 H1031 0.931 . S
U1006 O1007 2.454 . S
U1006 O1008 2.458 . S
U1006 C1009 2.984 . S
U1006 C1010 2.847 . S
U1006 C1023 2.882 . S
U1006 O1024 2.441 . S
U1006 O1025 2.420 . S
U1006 O1026 2.455 . S
U1006 O1027 2.449 . S
O1007 U1006 2.454 . S
O1007 C1009 1.353 . S
O1008 U1006 2.458 . S
O1008 C1009 1.286 . S
C1009 U1006 2.984 . S
C1009 O1007 1.353 . S
C1009 O1008 1.286 . S
C1009 C1011 1.363 . S
C1010 C1000 1.465 . S
C1010 U1006 2.847 . S
C1010 O1024 1.249 . S
C1010 O1025 1.202 . S
C1011 C1009 1.363 . S
C1011 C1013 1.408 . S
C1011 C1016 1.342 . S
C1012 C1013 1.310 . S
C1012 C1015 1.461 . S
C1012 H1032 0.932 . S
C1013 C1011 1.408 . S
C1013 C1012 1.310 . S
C1013 H1033 0.930 . S
C1014 C1015 1.474 . S
C1014 C1016 1.285 . S
C1014 H1034 0.929 . S
C1015 C1012 1.461 . S
C1015 C1014 1.474 . S
C1016 C1011 1.342 . S
C1016 C1014 1.285 . S
C1016 H1035 0.930 . S
C1017 C1020 1.424 . S
C1017 C1022 1.245 . S
C1017 C1023 1.428 . S
C1018 C1021 1.260 . S
C1018 C1022 1.477 . S
C1018 H1036 0.932 . S
C1019 C1020 1.384 . S
C1019 C1021 1.479 . S
C1019 H1037 0.929 . S
C1020 C1017 1.424 . S
C1020 C1019 1.384 . S
C1020 H1038 0.928 . S
C1021 C1018 1.260 . S
C1021 C1019 1.479 . S
C1022 C1017 1.245 . S
C1022 C1018 1.477 . S
C1022 H1039 0.932 . S
C1023 U1006 2.882 . S
C1023 C1017 1.428 . S
C1023 O1026 1.301 . S
C1023 O1027 1.282 . S
O1024 U1006 2.441 . S
O1024 C1010 1.249 . S
O1025 U1006 2.420 . S
O1025 C1010 1.202 . S
O1026 U1006 2.455 . S
O1026 C1023 1.301 . S
O1027 U1006 2.449 . S
O1027 C1023 1.282 . S
H1028 C1001 0.931 . S
H1029 C1003 0.929 . S
H1030 C1004 0.930 . S
H1031 C1005 0.931 . S
H1032 C1012 0.932 . S
H1033 C1013 0.930 . S
H1034 C1014 0.929 . S
H1035 C1016 0.930 . S
H1036 C1018 0.932 . S
H1037 C1019 0.929 . S
H1038 C1020 0.928 . S
H1039 C1022 0.932 . S
C1040 C1041 1.264 . S
C1040 C1045 1.479 . S
C1040 C1050 1.465 . S
C1041 C1040 1.264 . S
C1041 C1043 1.339 . S
C1041 H1068 0.931 . S
C1042 C1043 1.395 . S
C1042 C1044 1.320 . S
C1043 C1041 1.339 . S
C1043 C1042 1.395 . S
C1043 H1069 0.929 . S
C1044 C1042 1.320 . S
C1044 C1045 1.405 . S
C1044 H1070 0.930 . S
C1045 C1040 1.479 . S
C1045 C1044 1.405 . S
C1045 H1071 0.931 . S
U1046 O1047 2.454 . S
U1046 O1048 2.458 1_655 S
U1046 C1049 2.984 1_655 S
U1046 C1050 2.847 . S
U1046 C1063 2.882 . S
U1046 O1064 2.441 . S
U1046 O1065 2.420 . S
U1046 O1066 2.455 1_655 S
U1046 O1067 2.449 . S
O1047 U1046 2.454 . S
O1047 C1049 1.353 1_655 S
O1048 U1046 2.458 1_455 S
O1048 C1049 1.286 . S
C1049 U1046 2.984 1_455 S
C1049 O1047 1.353 1_455 S
C1049 O1048 1.286 . S
C1049 C1051 1.363 . S
C1050 C1040 1.465 . S
C1050 U1046 2.847 . S
C1050 O1064 1.249 . S
C1050 O1065 1.202 . S
C1051 C1049 1.363 . S
C1051 C1053 1.408 . S
C1051 C1056 1.342 . S
C1052 C1053 1.310 . S
C1052 C1055 1.461 . S
C1052 H1072 0.932 . S
C1053 C1051 1.408 . S
C1053 C1052 1.310 . S
C1053 H1073 0.930 1_455 S
C1054 C1055 1.474 . S
C1054 C1056 1.285 . S
C1054 H1074 0.929 . S
C1055 C1052 1.461 . S
C1055 C1054 1.474 . S
C1056 C1051 1.342 . S
C1056 C1054 1.285 . S
C1056 H1075 0.930 . S
C1057 C1060 1.424 . S
C1057 C1062 1.245 . S
C1057 C1063 1.428 1_455 S
C1058 C1061 1.260 . S
C1058 C1062 1.477 . S
C1058 H1076 0.932 . S
C1059 C1060 1.384 . S
C1059 C1061 1.479 . S
C1059 H1077 0.929 . S
C1060 C1057 1.424 . S
C1060 C1059 1.384 . S
C1060 H1078 0.928 . S
C1061 C1058 1.260 . S
C1061 C1059 1.479 . S
C1062 C1057 1.245 . S
C1062 C1058 1.477 . S
C1062 H1079 0.932 . S
C1063 U1046 2.882 . S
C1063 C1057 1.428 1_655 S
C1063 O1066 1.301 1_655 S
C1063 O1067 1.282 . S
O1064 U1046 2.441 . S
O1064 C1050 1.249 . S
O1065 U1046 2.420 . S
O1065 C1050 1.202 . S
O1066 U1046 2.455 1_455 S
O1066 C1063 1.301 1_455 S
O1067 U1046 2.449 . S
O1067 C1063 1.282 . S
H1068 C1041 0.931 . S
H1069 C1043 0.929 . S
H1070 C1044 0.930 . S
H1071 C1045 0.931 . S
H1072 C1052 0.932 . S
H1073 C1053 0.930 1_655 S
H1074 C1054 0.929 . S
H1075 C1056 0.930 . S
H1076 C1058 0.932 . S
H1077 C1059 0.929 . S
H1078 C1060 0.928 . S
H1079 C1062 0.932 . S
C1080 C1081 1.264 . S
C1080 C1085 1.479 . S
C1080 C1090 1.465 . S
C1081 C1080 1.264 . S
C1081 C1083 1.339 . S
C1081 H1108 0.931 . S
C1082 C1083 1.395 . S
C1082 C1084 1.320 . S
C1083 C1081 1.339 . S
C1083 C1082 1.395 . S
C1083 H1109 0.929 . S
C1084 C1082 1.320 . S
C1084 C1085 1.405 . S
C1084 H1110 0.930 . S
C1085 C1080 1.479 . S
C1085 C1084 1.405 . S
C1085 H1111 0.931 . S
U1086 O1087 2.454 . S
U1086 O1088 2.458 . S
U1086 C1089 2.984 . S
U1086 C1090 2.847 . S
U1086 C1103 2.882 . S
U1086 O1104 2.441 . S
U1086 O1105 2.420 . S
U1086 O1106 2.455 . S
U1086 O1107 2.449 . S
O1087 U1086 2.454 . S
O1087 C1089 1.353 . S
O1088 U1086 2.458 . S
O1088 C1089 1.286 . S
C1089 U1086 2.984 . S
C1089 O1087 1.353 . S
C1089 O1088 1.286 . S
C1089 C1091 1.363 . S
C1090 C1080 1.465 . S
C1090 U1086 2.847 . S
C1090 O1104 1.249 . S
C1090 O1105 1.202 . S
C1091 C1089 1.363 . S
C1091 C1093 1.408 . S
C1091 C1096 1.342 . S
C1092 C1093 1.310 . S
C1092 C1095 1.461 . S
C1092 H1112 0.932 . S
C1093 C1091 1.408 . S
C1093 C1092 1.310 . S
C1093 H1113 0.930 . S
C1094 C1095 1.474 . S
C1094 C1096 1.285 . S
C1094 H1114 0.929 . S
C1095 C1092 1.461 . S
C1095 C1094 1.474 . S
C1096 C1091 1.342 . S
C1096 C1094 1.285 . S
C1096 H1115 0.930 . S
C1097 C1100 1.424 . S
C1097 C1102 1.245 . S
C1097 C1103 1.428 . S
C1098 C1101 1.260 . S
C1098 C1102 1.477 . S
C1098 H1116 0.932 . S
C1099 C1100 1.384 . S
C1099 C1101 1.479 . S
C1099 H1117 0.929 . S
C1100 C1097 1.424 . S
C1100 C1099 1.384 . S
C1100 H1118 0.928 . S
C1101 C1098 1.260 . S
C1101 C1099 1.479 . S
C1102 C1097 1.245 . S
C1102 C1098 1.477 . S
C1102 H1119 0.932 . S
C1103 U1086 2.882 . S
C1103 C1097 1.428 . S
C1103 O1106 1.301 . S
C1103 O1107 1.282 . S
O1104 U1086 2.441 . S
O1104 C1090 1.249 . S
O1105 U1086 2.420 . S
O1105 C1090 1.202 . S
O1106 U1086 2.455 . S
O1106 C1103 1.301 . S
O1107 U1086 2.449 . S
O1107 C1103 1.282 . S
H1108 C1081 0.931 . S
H1109 C1083 0.929 . S
H1110 C1084 0.930 . S
H1111 C1085 0.931 . S
H1112 C1092 0.932 . S
H1113 C1093 0.930 . S
H1114 C1094 0.929 . S
H1115 C1096 0.930 . S
H1116 C1098 0.932 . S
H1117 C1099 0.929 . S
H1118 C1100 0.928 . S
H1119 C1102 0.932 . S
C1120 C1121 1.264 . S
C1120 C1125 1.479 . S
C1120 C1130 1.465 . S
C1121 C1120 1.264 . S
C1121 C1123 1.339 . S
C1121 H1148 0.931 . S
C1122 C1123 1.395 . S
C1122 C1124 1.320 . S
C1123 C1121 1.339 . S
C1123 C1122 1.395 . S
C1123 H1149 0.929 . S
C1124 C1122 1.320 . S
C1124 C1125 1.405 . S
C1124 H1150 0.930 . S
C1125 C1120 1.479 . S
C1125 C1124 1.405 . S
C1125 H1151 0.931 . S
U1126 O1127 2.454 . S
U1126 O1128 2.458 . S
U1126 C1129 2.984 . S
U1126 C1130 2.847 1_655 S
U1126 C1143 2.882 . S
U1126 O1144 2.441 1_655 S
U1126 O1145 2.415 1_655 S
U1126 O1146 2.455 . S
U1126 O1147 2.449 . S
O1127 U1126 2.454 . S
O1127 C1129 1.353 . S
O1128 U1126 2.458 . S
O1128 C1129 1.286 . S
C1129 U1126 2.984 . S
C1129 O1127 1.353 . S
C1129 O1128 1.286 . S
C1129 C1131 1.363 . S
C1130 C1120 1.465 . S
C1130 U1126 2.847 1_455 S
C1130 O1144 1.249 . S
C1130 O1145 1.211 . S
C1131 C1129 1.363 . S
C1131 C1133 1.408 . S
C1131 C1136 1.342 . S
C1132 C1133 1.310 . S
C1132 C1135 1.461 . S
C1132 H1152 0.932 . S
C1133 C1131 1.408 . S
C1133 C1132 1.310 . S
C1133 H1153 0.930 . S
C1134 C1135 1.474 . S
C1134 C1136 1.285 . S
C1134 H1154 0.929 . S
C1135 C1132 1.461 . S
C1135 C1134 1.474 . S
C1136 C1131 1.342 . S
C1136 C1134 1.285 . S
C1136 H1155 0.930 . S
C1137 C1140 1.424 . S
C1137 C1142 1.245 . S
C1137 C1143 1.428 . S
C1138 C1141 1.260 . S
C1138 C1142 1.477 . S
C1138 H1156 0.932 . S
C1139 C1140 1.384 . S
C1139 C1141 1.479 . S
C1139 H1157 0.929 . S
C1140 C1137 1.424 . S
C1140 C1139 1.384 . S
C1140 H1158 0.928 . S
C1141 C1138 1.260 . S
C1141 C1139 1.479 . S
C1142 C1137 1.245 . S
C1142 C1138 1.477 . S
C1142 H1159 0.932 . S
C1143 U1126 2.882 . S
C1143 C1137 1.428 . S
C1143 O1146 1.301 . S
C1143 O1147 1.282 . S
O1144 U1126 2.441 1_455 S
O1144 C1130 1.249 . S
O1145 U1126 2.415 1_455 S
O1145 C1130 1.211 . S
O1146 U1126 2.455 . S
O1146 C1143 1.301 . S
O1147 U1126 2.449 . S
O1147 C1143 1.282 . S
H1148 C1121 0.931 . S
H1149 C1123 0.929 . S
H1150 C1124 0.930 . S
H1151 C1125 0.931 . S
H1152 C1132 0.932 . S
H1153 C1133 0.930 . S
H1154 C1134 0.929 . S
H1155 C1136 0.930 . S
H1156 C1138 0.932 . S
H1157 C1139 0.929 . S
H1158 C1140 0.928 . S
H1159 C1142 0.932 . S
C1160 C1161 1.264 . S
C1160 C1165 1.479 . S
C1160 C1170 1.465 . S
C1161 C1160 1.264 . S
C1161 C1163 1.339 . S
C1161 H1188 0.931 . S
C1162 C1163 1.395 . S
C1162 C1164 1.320 . S
C1163 C1161 1.339 . S
C1163 C1162 1.395 . S
C1163 H1189 0.929 . S
C1164 C1162 1.320 . S
C1164 C1165 1.405 . S
C1164 H1190 0.930 . S
C1165 C1160 1.479 . S
C1165 C1164 1.405 . S
C1165 H1191 0.931 . S
U1166 O1167 2.454 . S
U1166 O1168 2.458 . S
U1166 C1169 2.984 . S
U1166 C1170 2.847 . S
U1166 C1183 2.882 . S
U1166 O1184 2.441 . S
U1166 O1185 2.420 . S
U1166 O1186 2.455 . S
U1166 O1187 2.449 . S
O1167 U1166 2.454 . S
O1167 C1169 1.353 . S
O1168 U1166 2.458 . S
O1168 C1169 1.286 . S
C1169 U1166 2.984 . S
C1169 O1167 1.353 . S
C1169 O1168 1.286 . S
C1169 C1171 1.363 . S
C1170 C1160 1.465 . S
C1170 U1166 2.847 . S
C1170 O1184 1.249 . S
C1170 O1185 1.202 . S
C1171 C1169 1.363 . S
C1171 C1173 1.408 . S
C1171 C1176 1.342 . S
C1172 C1173 1.310 . S
C1172 C1175 1.461 . S
C1172 H1192 0.932 . S
C1173 C1171 1.408 . S
C1173 C1172 1.310 . S
C1173 H1193 0.930 . S
C1174 C1175 1.474 . S
C1174 C1176 1.285 . S
C1174 H1194 0.929 . S
C1175 C1172 1.461 . S
C1175 C1174 1.474 . S
C1176 C1171 1.342 . S
C1176 C1174 1.285 . S
C1176 H1195 0.930 . S
C1177 C1180 1.424 . S
C1177 C1182 1.245 . S
C1177 C1183 1.428 . S
C1178 C1181 1.260 . S
C1178 C1182 1.477 . S
C1178 H1196 0.932 . S
C1179 C1180 1.384 . S
C1179 C1181 1.479 . S
C1179 H1197 0.929 . S
C1180 C1177 1.424 . S
C1180 C1179 1.384 . S
C1180 H1198 0.928 . S
C1181 C1178 1.260 . S
C1181 C1179 1.479 . S
C1182 C1177 1.245 . S
C1182 C1178 1.477 . S
C1182 H1199 0.932 . S
C1183 U1166 2.882 . S
C1183 C1177 1.428 . S
C1183 O1186 1.301 . S
C1183 O1187 1.282 . S
O1184 U1166 2.441 . S
O1184 C1170 1.249 . S
O1185 U1166 2.420 . S
O1185 C1170 1.202 . S
O1186 U1166 2.455 . S
O1186 C1183 1.301 . S
O1187 U1166 2.449 . S
O1187 C1183 1.282 . S
H1188 C1161 0.931 . S
H1189 C1163 0.929 . S
H1190 C1164 0.930 . S
H1191 C1165 0.931 . S
H1192 C1172 0.932 . S
H1193 C1173 0.930 . S
H1194 C1174 0.929 . S
H1195 C1176 0.930 . S
H1196 C1178 0.932 . S
H1197 C1179 0.929 . S
H1198 C1180 0.928 . S
H1199 C1182 0.932 . S
C1200 C1201 1.264 . S
C1200 C1205 1.479 . S
C1200 C1210 1.465 . S
C1201 C1200 1.264 . S
C1201 C1203 1.339 . S
C1201 H1228 0.931 . S
C1202 C1203 1.395 . S
C1202 C1204 1.320 . S
C1203 C1201 1.339 . S
C1203 C1202 1.395 . S
C1203 H1229 0.929 . S
C1204 C1202 1.320 . S
C1204 C1205 1.405 . S
C1204 H1230 0.930 . S
C1205 C1200 1.479 . S
C1205 C1204 1.405 . S
C1205 H1231 0.931 . S
U1206 O1207 2.454 . S
U1206 O1208 2.458 . S
U1206 C1209 2.984 . S
U1206 C1210 2.847 1_655 S
U1206 C1223 2.882 . S
U1206 O1224 2.441 1_655 S
U1206 O1225 2.415 1_655 S
U1206 O1226 2.455 . S
U1206 O1227 2.449 . S
O1207 U1206 2.454 . S
O1207 C1209 1.353 . S
O1208 U1206 2.458 . S
O1208 C1209 1.286 . S
C1209 U1206 2.984 . S
C1209 O1207 1.353 . S
C1209 O1208 1.286 . S
C1209 C1211 1.363 . S
C1210 C1200 1.465 . S
C1210 U1206 2.847 1_455 S
C1210 O1224 1.249 . S
C1210 O1225 1.211 . S
C1211 C1209 1.363 . S
C1211 C1213 1.408 . S
C1211 C1216 1.342 . S
C1212 C1213 1.310 . S
C1212 C1215 1.461 . S
C1212 H1232 0.932 . S
C1213 C1211 1.408 . S
C1213 C1212 1.310 . S
C1213 H1233 0.930 . S
C1214 C1215 1.474 . S
C1214 C1216 1.285 . S
C1214 H1234 0.929 . S
C1215 C1212 1.461 . S
C1215 C1214 1.474 . S
C1216 C1211 1.342 . S
C1216 C1214 1.285 . S
C1216 H1235 0.930 . S
C1217 C1220 1.424 . S
C1217 C1222 1.245 . S
C1217 C1223 1.428 . S
C1218 C1221 1.260 . S
C1218 C1222 1.477 . S
C1218 H1236 0.932 . S
C1219 C1220 1.384 . S
C1219 C1221 1.479 . S
C1219 H1237 0.929 . S
C1220 C1217 1.424 . S
C1220 C1219 1.384 . S
C1220 H1238 0.928 . S
C1221 C1218 1.260 . S
C1221 C1219 1.479 . S
C1222 C1217 1.245 . S
C1222 C1218 1.477 . S
C1222 H1239 0.932 . S
C1223 U1206 2.882 . S
C1223 C1217 1.428 . S
C1223 O1226 1.301 . S
C1223 O1227 1.282 . S
O1224 U1206 2.441 1_455 S
O1224 C1210 1.249 . S
O1225 U1206 2.415 1_455 S
O1225 C1210 1.211 . S
O1226 U1206 2.455 . S
O1226 C1223 1.301 . S
O1227 U1206 2.449 . S
O1227 C1223 1.282 . S
H1228 C1201 0.931 . S
H1229 C1203 0.929 . S
H1230 C1204 0.930 . S
H1231 C1205 0.931 . S
H1232 C1212 0.932 . S
H1233 C1213 0.930 . S
H1234 C1214 0.929 . S
H1235 C1216 0.930 . S
H1236 C1218 0.932 . S
H1237 C1219 0.929 . S
H1238 C1220 0.928 . S
H1239 C1222 0.932 . S
C1240 C1241 1.264 . S
C1240 C1245 1.479 . S
C1240 C1250 1.465 . S
C1241 C1240 1.264 . S
C1241 C1243 1.339 . S
C1241 H1268 0.931 . S
C1242 C1243 1.395 . S
C1242 C1244 1.320 . S
C1243 C1241 1.339 . S
C1243 C1242 1.395 . S
C1243 H1269 0.929 . S
C1244 C1242 1.320 . S
C1244 C1245 1.405 . S
C1244 H1270 0.930 . S
C1245 C1240 1.479 . S
C1245 C1244 1.405 . S
C1245 H1271 0.931 . S
U1246 O1247 2.454 . S
U1246 O1248 2.458 . S
U1246 C1249 2.984 . S
U1246 C1250 2.847 . S
U1246 C1263 2.882 . S
U1246 O1264 2.441 . S
U1246 O1265 2.420 . S
U1246 O1266 2.455 . S
U1246 O1267 2.449 . S
O1247 U1246 2.454 . S
O1247 C1249 1.353 . S
O1248 U1246 2.458 . S
O1248 C1249 1.286 . S
C1249 U1246 2.984 . S
C1249 O1247 1.353 . S
C1249 O1248 1.286 . S
C1249 C1251 1.363 . S
C1250 C1240 1.465 . S
C1250 U1246 2.847 . S
C1250 O1264 1.249 . S
C1250 O1265 1.202 . S
C1251 C1249 1.363 . S
C1251 C1253 1.408 . S
C1251 C1256 1.342 . S
C1252 C1253 1.310 . S
C1252 C1255 1.461 . S
C1252 H1272 0.932 . S
C1253 C1251 1.408 . S
C1253 C1252 1.310 . S
C1253 H1273 0.930 . S
C1254 C1255 1.474 . S
C1254 C1256 1.285 . S
C1254 H1274 0.929 . S
C1255 C1252 1.461 . S
C1255 C1254 1.474 . S
C1256 C1251 1.342 . S
C1256 C1254 1.285 . S
C1256 H1275 0.930 . S
C1257 C1260 1.424 . S
C1257 C1262 1.245 . S
C1257 C1263 1.428 . S
C1258 C1261 1.260 . S
C1258 C1262 1.477 . S
C1258 H1276 0.932 . S
C1259 C1260 1.384 . S
C1259 C1261 1.479 . S
C1259 H1277 0.929 . S
C1260 C1257 1.424 . S
C1260 C1259 1.384 . S
C1260 H1278 0.928 . S
C1261 C1258 1.260 . S
C1261 C1259 1.479 . S
C1262 C1257 1.245 . S
C1262 C1258 1.477 . S
C1262 H1279 0.932 . S
C1263 U1246 2.882 . S
C1263 C1257 1.428 . S
C1263 O1266 1.301 . S
C1263 O1267 1.282 . S
O1264 U1246 2.441 . S
O1264 C1250 1.249 . S
O1265 U1246 2.420 . S
O1265 C1250 1.202 . S
O1266 U1246 2.455 . S
O1266 C1263 1.301 . S
O1267 U1246 2.449 . S
O1267 C1263 1.282 . S
H1268 C1241 0.931 . S
H1269 C1243 0.929 . S
H1270 C1244 0.930 . S
H1271 C1245 0.931 . S
H1272 C1252 0.932 . S
H1273 C1253 0.930 . S
H1274 C1254 0.929 . S
H1275 C1256 0.930 . S
H1276 C1258 0.932 . S
H1277 C1259 0.929 . S
H1278 C1260 0.928 . S
H1279 C1262 0.932 . S
C1280 C1281 1.369 . S
C1280 C1282 1.419 . S
C1280 H1284 0.930 . S
C1281 C1280 1.369 . S
C1281 C1290 1.429 . S
C1282 C1280 1.419 . S
C1282 C1283 1.363 . S
C1282 H1285 0.929 . S
C1283 C1282 1.363 . S
C1283 C1289 1.428 . S
H1284 C1280 0.930 . S
H1285 C1282 0.929 . S
S1286 N1287 1.613 . S
S1286 N1288 1.610 . S
N1287 S1286 1.613 . S
N1287 C1290 1.350 . S
N1288 S1286 1.610 . S
N1288 C1289 1.351 . S
C1289 C1283 1.428 . S
C1289 N1288 1.351 . S
C1289 C1290 1.434 . S
C1290 C1281 1.429 . S
C1290 N1287 1.350 . S
C1290 C1289 1.434 . S
C1291 C1292 1.369 . S
C1291 C1293 1.419 . S
C1291 H1295 0.930 . S
C1292 C1291 1.369 . S
C1292 C1301 1.429 . S
C1293 C1291 1.419 . S
C1293 C1294 1.363 . S
C1293 H1296 0.929 . S
C1294 C1293 1.363 . S
C1294 C1300 1.428 . S
H1295 C1291 0.930 . S
H1296 C1293 0.929 . S
S1297 N1298 1.613 . S
S1297 N1299 1.610 . S
N1298 S1297 1.613 . S
N1298 C1301 1.350 . S
N1299 S1297 1.610 . S
N1299 C1300 1.351 . S
C1300 C1294 1.428 . S
C1300 N1299 1.351 . S
C1300 C1301 1.434 . S
C1301 C1292 1.429 . S
C1301 N1298 1.350 . S
C1301 C1300 1.434 . S
C1302 C1303 1.369 . S
C1302 C1304 1.419 . S
C1302 H1306 0.930 . S
C1303 C1302 1.369 . S
C1303 C1312 1.429 . S
C1304 C1302 1.419 . S
C1304 C1305 1.363 . S
C1304 H1307 0.929 . S
C1305 C1304 1.363 . S
C1305 C1311 1.428 . S
H1306 C1302 0.930 . S
H1307 C1304 0.929 . S
S1308 N1309 1.613 . S
S1308 N1310 1.610 . S
N1309 S1308 1.613 . S
N1309 C1312 1.350 . S
N1310 S1308 1.610 . S
N1310 C1311 1.351 . S
C1311 C1305 1.428 . S
C1311 N1310 1.351 . S
C1311 C1312 1.434 . S
C1312 C1303 1.429 . S
C1312 N1309 1.350 . S
C1312 C1311 1.434 . S
C1313 C1314 1.369 . S
C1313 C1315 1.419 . S
C1313 H1317 0.930 . S
C1314 C1313 1.369 . S
C1314 C1323 1.429 . S
C1315 C1313 1.419 . S
C1315 C1316 1.363 . S
C1315 H1318 0.929 . S
C1316 C1315 1.363 . S
C1316 C1322 1.428 . S
H1317 C1313 0.930 . S
H1318 C1315 0.929 . S
S1319 N1320 1.613 . S
S1319 N1321 1.610 . S
N1320 S1319 1.613 . S
N1320 C1323 1.350 . S
N1321 S1319 1.610 . S
N1321 C1322 1.351 . S
C1322 C1316 1.428 . S
C1322 N1321 1.351 . S
C1322 C1323 1.434 . S
C1323 C1314 1.429 . S
C1323 N1320 1.350 . S
C1323 C1322 1.434 . S
C1324 C1325 1.369 . S
C1324 C1326 1.419 . S
C1324 H1328 0.930 . S
C1325 C1324 1.369 . S
C1325 C1334 1.429 . S
C1326 C1324 1.419 . S
C1326 C1327 1.363 . S
C1326 H1329 0.929 . S
C1327 C1326 1.363 . S
C1327 C1333 1.428 . S
H1328 C1324 0.930 . S
H1329 C1326 0.929 . S
S1330 N1331 1.613 . S
S1330 N1332 1.610 . S
N1331 S1330 1.613 . S
N1331 C1334 1.350 . S
N1332 S1330 1.610 . S
N1332 C1333 1.351 . S
C1333 C1327 1.428 . S
C1333 N1332 1.351 . S
C1333 C1334 1.434 . S
C1334 C1325 1.429 . S
C1334 N1331 1.350 . S
C1334 C1333 1.434 . S
C1335 C1336 1.369 . S
C1335 C1337 1.419 . S
C1335 H1339 0.930 . S
C1336 C1335 1.369 . S
C1336 C1345 1.429 . S
C1337 C1335 1.419 . S
C1337 C1338 1.363 . S
C1337 H1340 0.929 . S
C1338 C1337 1.363 . S
C1338 C1344 1.428 . S
H1339 C1335 0.930 . S
H1340 C1337 0.929 . S
S1341 N1342 1.613 . S
S1341 N1343 1.610 . S
N1342 S1341 1.613 . S
N1342 C1345 1.350 . S
N1343 S1341 1.610 . S
N1343 C1344 1.351 . S
C1344 C1338 1.428 . S
C1344 N1343 1.351 . S
C1344 C1345 1.434 . S
C1345 C1336 1.429 . S
C1345 N1342 1.350 . S
C1345 C1344 1.434 . S
C1346 C1347 1.369 . S
C1346 C1348 1.419 . S
C1346 H1350 0.930 . S
C1347 C1346 1.369 . S
C1347 C1356 1.429 . S
C1348 C1346 1.419 . S
C1348 C1349 1.363 . S
C1348 H1351 0.929 . S
C1349 C1348 1.363 . S
C1349 C1355 1.428 . S
H1350 C1346 0.930 . S
H1351 C1348 0.929 . S
S1352 N1353 1.613 . S
S1352 N1354 1.610 . S
N1353 S1352 1.613 . S
N1353 C1356 1.350 . S
N1354 S1352 1.610 . S
N1354 C1355 1.351 . S
C1355 C1349 1.428 . S
C1355 N1354 1.351 . S
C1355 C1356 1.434 . S
C1356 C1347 1.429 . S
C1356 N1353 1.350 . S
C1356 C1355 1.434 . S
C1357 C1358 1.369 . S
C1357 C1359 1.419 . S
C1357 H1361 0.930 . S
C1358 C1357 1.369 . S
C1358 C1367 1.429 . S
C1359 C1357 1.419 . S
C1359 C1360 1.363 . S
C1359 H1362 0.929 . S
C1360 C1359 1.363 . S
C1360 C1366 1.428 . S
H1361 C1357 0.930 . S
H1362 C1359 0.929 . S
S1363 N1364 1.613 . S
S1363 N1365 1.610 . S
N1364 S1363 1.613 . S
N1364 C1367 1.350 . S
N1365 S1363 1.610 . S
N1365 C1366 1.351 . S
C1366 C1360 1.428 . S
C1366 N1365 1.351 . S
C1366 C1367 1.434 . S
C1367 C1358 1.429 . S
C1367 N1364 1.350 . S
C1367 C1366 1.434 . S
C1368 C1369 1.369 . S
C1368 C1370 1.419 . S
C1368 H1372 0.930 . S
C1369 C1368 1.369 . S
C1369 C1378 1.429 . S
C1370 C1368 1.419 . S
C1370 C1371 1.363 . S
C1370 H1373 0.929 . S
C1371 C1370 1.363 . S
C1371 C1377 1.428 . S
H1372 C1368 0.930 . S
H1373 C1370 0.929 . S
S1374 N1375 1.613 . S
S1374 N1376 1.610 . S
N1375 S1374 1.613 . S
N1375 C1378 1.350 . S
N1376 S1374 1.610 . S
N1376 C1377 1.351 . S
C1377 C1371 1.428 . S
C1377 N1376 1.351 . S
C1377 C1378 1.434 . S
C1378 C1369 1.429 . S
C1378 N1375 1.350 . S
C1378 C1377 1.434 . S
C1379 C1380 1.369 . S
C1379 C1381 1.419 . S
C1379 H1383 0.930 . S
C1380 C1379 1.369 . S
C1380 C1389 1.429 . S
C1381 C1379 1.419 . S
C1381 C1382 1.363 . S
C1381 H1384 0.929 . S
C1382 C1381 1.363 . S
C1382 C1388 1.428 . S
H1383 C1379 0.930 . S
H1384 C1381 0.929 . S
S1385 N1386 1.613 . S
S1385 N1387 1.610 . S
N1386 S1385 1.613 . S
N1386 C1389 1.350 . S
N1387 S1385 1.610 . S
N1387 C1388 1.351 . S
C1388 C1382 1.428 . S
C1388 N1387 1.351 . S
C1388 C1389 1.434 . S
C1389 C1380 1.429 . S
C1389 N1386 1.350 . S
C1389 C1388 1.434 . S
C1390 C1391 1.369 . S
C1390 C1392 1.419 . S
C1390 H1394 0.930 . S
C1391 C1390 1.369 . S
C1391 C1400 1.429 . S
C1392 C1390 1.419 . S
C1392 C1393 1.363 . S
C1392 H1395 0.929 . S
C1393 C1392 1.363 . S
C1393 C1399 1.428 . S
H1394 C1390 0.930 . S
H1395 C1392 0.929 . S
S1396 N1397 1.613 . S
S1396 N1398 1.610 . S
N1397 S1396 1.613 . S
N1397 C1400 1.350 . S
N1398 S1396 1.610 . S
N1398 C1399 1.351 . S
C1399 C1393 1.428 . S
C1399 N1398 1.351 . S
C1399 C1400 1.434 . S
C1400 C1391 1.429 . S
C1400 N1397 1.350 . S
C1400 C1399 1.434 . S
C1401 C1402 1.369 . S
C1401 C1403 1.419 . S
C1401 H1405 0.930 . S
C1402 C1401 1.369 . S
C1402 C1411 1.429 . S
C1403 C1401 1.419 . S
C1403 C1404 1.363 . S
C1403 H1406 0.929 . S
C1404 C1403 1.363 . S
C1404 C1410 1.428 . S
H1405 C1401 0.930 . S
H1406 C1403 0.929 . S
S1407 N1408 1.613 . S
S1407 N1409 1.610 . S
N1408 S1407 1.613 . S
N1408 C1411 1.350 . S
N1409 S1407 1.610 . S
N1409 C1410 1.351 . S
C1410 C1404 1.428 . S
C1410 N1409 1.351 . S
C1410 C1411 1.434 . S
C1411 C1402 1.429 . S
C1411 N1408 1.350 . S
C1411 C1410 1.434 . S
C1412 C1413 1.369 . S
C1412 C1414 1.419 . S
C1412 H1416 0.935 . S
C1413 C1412 1.369 . S
C1413 C1422 1.429 . S
C1414 C1412 1.419 . S
C1414 C1415 1.363 . S
C1414 H1417 0.931 . S
C1415 C1414 1.363 . S
C1415 C1421 1.428 . S
H1416 C1412 0.935 . S
H1417 C1414 0.931 . S
S1418 N1419 1.613 . S
S1418 N1420 1.610 . S
N1419 S1418 1.613 . S
N1419 C1422 1.350 . S
N1420 S1418 1.610 . S
N1420 C1421 1.351 . S
C1421 C1415 1.428 . S
C1421 N1420 1.351 . S
C1421 C1422 1.434 . S
C1422 C1413 1.429 . S
C1422 N1419 1.350 . S
C1422 C1421 1.434 . S
C1423 C1424 1.369 . S
C1423 C1425 1.419 . S
C1423 H1427 0.930 . S
C1424 C1423 1.369 . S
C1424 C1433 1.429 . S
C1425 C1423 1.419 . S
C1425 C1426 1.363 . S
C1425 H1428 0.929 . S
C1426 C1425 1.363 . S
C1426 C1432 1.428 . S
H1427 C1423 0.930 . S
H1428 C1425 0.929 . S
S1429 N1430 1.613 . S
S1429 N1431 1.610 . S
N1430 S1429 1.613 . S
N1430 C1433 1.350 . S
N1431 S1429 1.610 . S
N1431 C1432 1.351 . S
C1432 C1426 1.428 . S
C1432 N1431 1.351 . S
C1432 C1433 1.434 . S
C1433 C1424 1.429 . S
C1433 N1430 1.350 . S
C1433 C1432 1.434 . S
C1434 C1435 1.369 . S
C1434 C1436 1.419 . S
C1434 H1438 0.915 1_655 S
C1435 C1434 1.369 . S
C1435 C1444 1.429 . S
C1436 C1434 1.419 . S
C1436 C1437 1.363 . S
C1436 H1439 0.915 1_655 S
C1437 C1436 1.363 . S
C1437 C1443 1.428 . S
H1438 C1434 0.915 1_455 S
H1439 C1436 0.915 1_455 S
S1440 N1441 1.613 . S
S1440 N1442 1.610 . S
N1441 S1440 1.613 . S
N1441 C1444 1.350 . S
N1442 S1440 1.610 . S
N1442 C1443 1.351 . S
C1443 C1437 1.428 . S
C1443 N1442 1.351 . S
C1443 C1444 1.434 . S
C1444 C1435 1.429 . S
C1444 N1441 1.350 . S
C1444 C1443 1.434 . S
C1445 C1446 1.369 . S
C1445 C1447 1.419 . S
C1445 H1449 0.930 . S
C1446 C1445 1.369 . S
C1446 C1455 1.429 . S
C1447 C1445 1.419 . S
C1447 C1448 1.363 . S
C1447 H1450 0.929 . S
C1448 C1447 1.363 . S
C1448 C1454 1.428 . S
H1449 C1445 0.930 . S
H1450 C1447 0.929 . S
S1451 N1452 1.613 . S
S1451 N1453 1.610 . S
N1452 S1451 1.613 . S
N1452 C1455 1.350 . S
N1453 S1451 1.610 . S
N1453 C1454 1.351 . S
C1454 C1448 1.428 . S
C1454 N1453 1.351 . S
C1454 C1455 1.434 . S
C1455 C1446 1.429 . S
C1455 N1452 1.350 . S
C1455 C1454 1.434 . S
C1456 C1457 1.369 . S
C1456 C1458 1.398 1_554 S
C1456 H1460 0.930 . S
C1457 C1456 1.369 . S
C1457 C1466 1.439 1_545 S
C1458 C1456 1.398 1_556 S
C1458 C1459 1.383 1_545 S
C1458 H1461 0.940 . S
C1459 C1458 1.383 1_565 S
C1459 C1465 1.428 . S
H1460 C1456 0.930 . S
H1461 C1458 0.940 . S
S1462 N1463 1.609 1_556 S
S1462 N1464 1.610 . S
N1463 S1462 1.609 1_554 S
N1463 C1466 1.349 . S
N1464 S1462 1.610 . S
N1464 C1465 1.351 . S
C1465 C1459 1.428 . S
C1465 N1464 1.351 . S
C1465 C1466 1.423 1_556 S
C1466 C1457 1.439 1_565 S
C1466 N1463 1.349 . S
C1466 C1465 1.423 1_554 S
C1467 C1468 1.369 1_556 S
C1467 C1469 1.419 . S
C1467 H1471 0.930 . S
C1468 C1467 1.369 1_554 S
C1468 C1477 1.429 . S
C1469 C1467 1.419 . S
C1469 C1470 1.363 . S
C1469 H1472 0.929 . S
C1470 C1469 1.363 . S
C1470 C1476 1.428 1_556 S
H1471 C1467 0.930 . S
H1472 C1469 0.929 . S
S1473 N1474 1.613 . S
S1473 N1475 1.610 . S
N1474 S1473 1.613 . S
N1474 C1477 1.350 . S
N1475 S1473 1.610 . S
N1475 C1476 1.351 . S
C1476 C1470 1.428 1_554 S
C1476 N1475 1.351 . S
C1476 C1477 1.434 . S
C1477 C1468 1.429 . S
C1477 N1474 1.350 . S
C1477 C1476 1.434 . S
C1478 C1479 1.369 . S
C1478 C1480 1.419 . S
C1478 H1482 0.930 . S
C1479 C1478 1.369 . S
C1479 C1488 1.429 . S
C1480 C1478 1.419 . S
C1480 C1481 1.363 . S
C1480 H1483 0.929 . S
C1481 C1480 1.363 . S
C1481 C1487 1.428 . S
H1482 C1478 0.930 . S
H1483 C1480 0.929 . S
S1484 N1485 1.613 . S
S1484 N1486 1.610 . S
N1485 S1484 1.613 . S
N1485 C1488 1.350 . S
N1486 S1484 1.610 . S
N1486 C1487 1.351 . S
C1487 C1481 1.428 . S
C1487 N1486 1.351 . S
C1487 C1488 1.434 . S
C1488 C1479 1.429 . S
C1488 N1485 1.350 . S
C1488 C1487 1.434 . S
C1489 C1490 1.369 1_545 S
C1489 C1491 1.419 . S
C1489 H1493 0.930 . S
C1490 C1489 1.369 1_565 S
C1490 C1499 1.429 . S
C1491 C1489 1.419 . S
C1491 C1492 1.363 . S
C1491 H1494 0.929 . S
C1492 C1491 1.363 . S
C1492 C1498 1.458 . S
H1493 C1489 0.930 . S
H1494 C1491 0.929 . S
S1495 N1496 1.613 . S
S1495 N1497 1.610 . S
N1496 S1495 1.613 . S
N1496 C1499 1.350 . S
N1497 S1495 1.610 . S
N1497 C1498 1.347 1_565 S
C1498 C1492 1.458 . S
C1498 N1497 1.347 1_545 S
C1498 C1499 1.406 1_545 S
C1499 C1490 1.429 . S
C1499 N1496 1.350 . S
C1499 C1498 1.406 1_565 S
C1500 C1501 1.369 . S
C1500 C1502 1.419 . S
C1500 H1504 0.930 . S
C1501 C1500 1.369 . S
C1501 C1510 1.429 1_554 S
C1502 C1500 1.419 . S
C1502 C1503 1.363 1_554 S
C1502 H1505 0.929 . S
C1503 C1502 1.363 1_556 S
C1503 C1509 1.428 . S
H1504 C1500 0.930 . S
H1505 C1502 0.929 . S
S1506 N1507 1.613 . S
S1506 N1508 1.610 . S
N1507 S1506 1.613 . S
N1507 C1510 1.350 . S
N1508 S1506 1.610 . S
N1508 C1509 1.351 . S
C1509 C1503 1.428 . S
C1509 N1508 1.351 . S
C1509 C1510 1.434 . S
C1510 C1501 1.429 1_556 S
C1510 N1507 1.350 . S
C1510 C1509 1.434 . S
C1511 C1512 1.369 . S
C1511 C1513 1.419 . S
C1511 H1515 0.930 . S
C1512 C1511 1.369 . S
C1512 C1521 1.429 . S
C1513 C1511 1.419 . S
C1513 C1514 1.363 . S
C1513 H1516 0.929 . S
C1514 C1513 1.363 . S
C1514 C1520 1.428 . S
H1515 C1511 0.930 . S
H1516 C1513 0.929 . S
S1517 N1518 1.613 . S
S1517 N1519 1.610 . S
N1518 S1517 1.613 . S
N1518 C1521 1.350 . S
N1519 S1517 1.610 . S
N1519 C1520 1.351 . S
C1520 C1514 1.428 . S
C1520 N1519 1.351 . S
C1520 C1521 1.434 . S
C1521 C1512 1.429 . S
C1521 N1518 1.350 . S
C1521 C1520 1.434 . S
C1522 C1523 1.369 . S
C1522 C1524 1.419 1_545 S
C1522 H1526 0.930 . S
C1523 C1522 1.369 . S
C1523 C1532 1.429 . S
C1524 C1522 1.419 1_565 S
C1524 C1525 1.363 . S
C1524 H1527 0.929 . S
C1525 C1524 1.363 . S
C1525 C1531 1.428 . S
H1526 C1522 0.930 . S
H1527 C1524 0.929 . S
S1528 N1529 1.613 . S
S1528 N1530 1.610 1_545 S
N1529 S1528 1.613 . S
N1529 C1532 1.350 . S
N1530 S1528 1.610 1_565 S
N1530 C1531 1.351 . S
C1531 C1525 1.428 . S
C1531 N1530 1.351 . S
C1531 C1532 1.434 1_565 S
C1532 C1523 1.429 . S
C1532 N1529 1.350 . S
C1532 C1531 1.434 1_545 S
C1533 C1534 1.369 . S
C1533 C1535 1.419 . S
C1533 H1537 0.930 . S
C1534 C1533 1.369 . S
C1534 C1543 1.429 . S
C1535 C1533 1.419 . S
C1535 C1536 1.363 . S
C1535 H1538 0.929 . S
C1536 C1535 1.363 . S
C1536 C1542 1.428 . S
H1537 C1533 0.930 . S
H1538 C1535 0.929 . S
S1539 N1540 1.613 . S
S1539 N1541 1.610 . S
N1540 S1539 1.613 . S
N1540 C1543 1.350 . S
N1541 S1539 1.610 . S
N1541 C1542 1.351 . S
C1542 C1536 1.428 . S
C1542 N1541 1.351 . S
C1542 C1543 1.434 . S
C1543 C1534 1.429 . S
C1543 N1540 1.350 . S
C1543 C1542 1.434 . S
C1544 C1545 1.369 . S
C1544 C1546 1.419 . S
C1544 H1548 0.930 . S
C1545 C1544 1.369 . S
C1545 C1554 1.429 . S
C1546 C1544 1.419 . S
C1546 C1547 1.363 . S
C1546 H1549 0.929 . S
C1547 C1546 1.363 . S
C1547 C1553 1.428 . S
H1548 C1544 0.930 . S
H1549 C1546 0.929 . S
S1550 N1551 1.613 . S
S1550 N1552 1.610 . S
N1551 S1550 1.613 . S
N1551 C1554 1.350 . S
N1552 S1550 1.610 . S
N1552 C1553 1.351 . S
C1553 C1547 1.428 . S
C1553 N1552 1.351 . S
C1553 C1554 1.434 . S
C1554 C1545 1.429 . S
C1554 N1551 1.350 . S
C1554 C1553 1.434 . S
C1555 C1556 1.369 . S
C1555 C1557 1.419 . S
C1555 H1559 0.930 . S
C1556 C1555 1.369 . S
C1556 C1565 1.429 . S
C1557 C1555 1.419 . S
C1557 C1558 1.363 . S
C1557 H1560 0.929 . S
C1558 C1557 1.363 . S
C1558 C1564 1.428 . S
H1559 C1555 0.930 . S
H1560 C1557 0.929 . S
S1561 N1562 1.613 . S
S1561 N1563 1.610 . S
N1562 S1561 1.613 . S
N1562 C1565 1.350 . S
N1563 S1561 1.610 . S
N1563 C1564 1.351 . S
C1564 C1558 1.428 . S
C1564 N1563 1.351 . S
C1564 C1565 1.434 . S
C1565 C1556 1.429 . S
C1565 N1562 1.350 . S
C1565 C1564 1.434 . S
C1566 C1567 1.369 . S
C1566 C1568 1.419 . S
C1566 H1570 0.930 . S
C1567 C1566 1.369 . S
C1567 C1576 1.429 . S
C1568 C1566 1.419 . S
C1568 C1569 1.363 . S
C1568 H1571 0.929 . S
C1569 C1568 1.363 . S
C1569 C1575 1.428 . S
H1570 C1566 0.930 . S
H1571 C1568 0.929 . S
S1572 N1573 1.613 . S
S1572 N1574 1.610 . S
N1573 S1572 1.613 . S
N1573 C1576 1.350 . S
N1574 S1572 1.610 . S
N1574 C1575 1.351 . S
C1575 C1569 1.428 . S
C1575 N1574 1.351 . S
C1575 C1576 1.434 . S
C1576 C1567 1.429 . S
C1576 N1573 1.350 . S
C1576 C1575 1.434 . S
C1577 C1578 1.369 . S
C1577 C1579 1.419 . S
C1577 H1581 0.930 . S
C1578 C1577 1.369 . S
C1578 C1587 1.429 . S
C1579 C1577 1.419 . S
C1579 C1580 1.363 . S
C1579 H1582 0.929 . S
C1580 C1579 1.363 . S
C1580 C1586 1.428 . S
H1581 C1577 0.930 . S
H1582 C1579 0.929 . S
S1583 N1584 1.613 . S
S1583 N1585 1.610 . S
N1584 S1583 1.613 . S
N1584 C1587 1.350 . S
N1585 S1583 1.610 . S
N1585 C1586 1.351 . S
C1586 C1580 1.428 . S
C1586 N1585 1.351 . S
C1586 C1587 1.434 . S
C1587 C1578 1.429 . S
C1587 N1584 1.350 . S
C1587 C1586 1.434 . S
C1588 C1589 1.351 1_545 S
C1588 C1590 1.435 . S
C1588 H1592 0.932 . S
C1589 C1588 1.351 1_565 S
C1589 C1598 1.429 1_655 S
C1590 C1588 1.435 . S
C1590 C1591 1.363 1_655 S
C1590 H1593 0.929 . S
C1591 C1590 1.363 1_455 S
C1591 C1597 1.428 1_545 S
H1592 C1588 0.932 . S
H1593 C1590 0.929 . S
S1594 N1595 1.613 . S
S1594 N1596 1.610 . S
N1595 S1594 1.613 . S
N1595 C1598 1.350 . S
N1596 S1594 1.610 . S
N1596 C1597 1.351 . S
C1597 C1591 1.428 1_565 S
C1597 N1596 1.351 . S
C1597 C1598 1.434 . S
C1598 C1589 1.429 1_455 S
C1598 N1595 1.350 . S
C1598 C1597 1.434 . S
C1599 C1600 1.369 . S
C1599 C1601 1.419 1_455 S
C1599 H1603 0.930 . S
C1600 C1599 1.369 . S
C1600 C1609 1.429 . S
C1601 C1599 1.419 1_655 S
C1601 C1602 1.363 . S
C1601 H1604 0.929 . S
C1602 C1601 1.363 . S
C1602 C1608 1.428 . S
H1603 C1599 0.930 . S
H1604 C1601 0.929 . S
S1605 N1606 1.613 . S
S1605 N1607 1.610 1_455 S
N1606 S1605 1.613 . S
N1606 C1609 1.350 . S
N1607 S1605 1.610 1_655 S
N1607 C1608 1.351 . S
C1608 C1602 1.428 . S
C1608 N1607 1.351 . S
C1608 C1609 1.434 1_655 S
C1609 C1600 1.429 . S
C1609 N1606 1.350 . S
C1609 C1608 1.434 1_455 S
C1610 C1611 1.369 . S
C1610 C1612 1.419 . S
C1610 H1614 0.930 . S
C1611 C1610 1.369 . S
C1611 C1620 1.429 1_655 S
C1612 C1610 1.419 . S
C1612 C1613 1.363 1_655 S
C1612 H1615 0.929 . S
C1613 C1612 1.363 1_455 S
C1613 C1619 1.428 . S
H1614 C1610 0.930 . S
H1615 C1612 0.929 . S
S1616 N1617 1.613 . S
S1616 N1618 1.610 . S
N1617 S1616 1.613 . S
N1617 C1620 1.350 . S
N1618 S1616 1.610 . S
N1618 C1619 1.351 . S
C1619 C1613 1.428 . S
C1619 N1618 1.351 . S
C1619 C1620 1.434 . S
C1620 C1611 1.429 1_455 S
C1620 N1617 1.350 . S
C1620 C1619 1.434 . S
C1621 C1622 1.369 1_556 S
C1621 C1623 1.419 . S
C1621 H1625 0.930 . S
C1622 C1621 1.369 1_554 S
C1622 C1631 1.429 1_455 S
C1623 C1621 1.419 . S
C1623 C1624 1.363 1_455 S
C1623 H1626 0.929 . S
C1624 C1623 1.363 1_655 S
C1624 C1630 1.428 1_556 S
H1625 C1621 0.930 . S
H1626 C1623 0.929 . S
S1627 N1628 1.613 . S
S1627 N1629 1.610 . S
N1628 S1627 1.613 . S
N1628 C1631 1.350 . S
N1629 S1627 1.610 . S
N1629 C1630 1.351 . S
C1630 C1624 1.428 1_554 S
C1630 N1629 1.351 . S
C1630 C1631 1.434 . S
C1631 C1622 1.429 1_655 S
C1631 N1628 1.350 . S
C1631 C1630 1.434 . S
C1632 C1633 1.369 . S
C1632 C1634 1.419 . S
C1632 H1636 0.930 . S
C1633 C1632 1.369 . S
C1633 C1642 1.429 . S
C1634 C1632 1.419 . S
C1634 C1635 1.363 . S
C1634 H1637 0.929 . S
C1635 C1634 1.363 . S
C1635 C1641 1.428 . S
H1636 C1632 0.930 . S
H1637 C1634 0.929 . S
S1638 N1639 1.613 . S
S1638 N1640 1.610 . S
N1639 S1638 1.613 . S
N1639 C1642 1.350 . S
N1640 S1638 1.610 . S
N1640 C1641 1.351 . S
C1641 C1635 1.428 . S
C1641 N1640 1.351 . S
C1641 C1642 1.434 . S
C1642 C1633 1.429 . S
C1642 N1639 1.350 . S
C1642 C1641 1.434 . S
C1643 C1644 1.369 . S
C1643 C1645 1.419 . S
C1643 H1647 0.930 . S
C1644 C1643 1.369 . S
C1644 C1653 1.429 . S
C1645 C1643 1.419 . S
C1645 C1646 1.363 . S
C1645 H1648 0.929 . S
C1646 C1645 1.363 . S
C1646 C1652 1.428 . S
H1647 C1643 0.930 . S
H1648 C1645 0.929 . S
S1649 N1650 1.613 . S
S1649 N1651 1.610 . S
N1650 S1649 1.613 . S
N1650 C1653 1.350 . S
N1651 S1649 1.610 . S
N1651 C1652 1.351 . S
C1652 C1646 1.428 . S
C1652 N1651 1.351 . S
C1652 C1653 1.434 . S
C1653 C1644 1.429 . S
C1653 N1650 1.350 . S
C1653 C1652 1.434 . S
C1654 C1655 1.369 . S
C1654 C1656 1.419 . S
C1654 H1658 0.930 . S
C1655 C1654 1.369 . S
C1655 C1664 1.429 . S
C1656 C1654 1.419 . S
C1656 C1657 1.363 . S
C1656 H1659 0.929 . S
C1657 C1656 1.363 . S
C1657 C1663 1.428 . S
H1658 C1654 0.930 . S
H1659 C1656 0.929 . S
S1660 N1661 1.613 . S
S1660 N1662 1.610 . S
N1661 S1660 1.613 . S
N1661 C1664 1.350 . S
N1662 S1660 1.610 . S
N1662 C1663 1.351 . S
C1663 C1657 1.428 . S
C1663 N1662 1.351 . S
C1663 C1664 1.434 . S
C1664 C1655 1.429 . S
C1664 N1661 1.350 . S
C1664 C1663 1.434 . S
C1665 C1666 1.369 . S
C1665 C1667 1.419 . S
C1665 H1669 0.930 . S
C1666 C1665 1.369 . S
C1666 C1675 1.429 . S
C1667 C1665 1.419 . S
C1667 C1668 1.363 . S
C1667 H1670 0.929 . S
C1668 C1667 1.363 . S
C1668 C1674 1.428 . S
H1669 C1665 0.930 . S
H1670 C1667 0.929 . S
S1671 N1672 1.613 . S
S1671 N1673 1.610 . S
N1672 S1671 1.613 . S
N1672 C1675 1.350 . S
N1673 S1671 1.610 . S
N1673 C1674 1.351 . S
C1674 C1668 1.428 . S
C1674 N1673 1.351 . S
C1674 C1675 1.434 . S
C1675 C1666 1.429 . S
C1675 N1672 1.350 . S
C1675 C1674 1.434 . S
C1676 C1677 1.369 . S
C1676 C1678 1.419 . S
C1676 H1680 0.930 . S
C1677 C1676 1.369 . S
C1677 C1686 1.429 . S
C1678 C1676 1.419 . S
C1678 C1679 1.363 . S
C1678 H1681 0.929 . S
C1679 C1678 1.363 . S
C1679 C1685 1.428 . S
H1680 C1676 0.930 . S
H1681 C1678 0.929 . S
S1682 N1683 1.613 . S
S1682 N1684 1.610 . S
N1683 S1682 1.613 . S
N1683 C1686 1.350 . S
N1684 S1682 1.610 . S
N1684 C1685 1.351 . S
C1685 C1679 1.428 . S
C1685 N1684 1.351 . S
C1685 C1686 1.434 . S
C1686 C1677 1.429 . S
C1686 N1683 1.350 . S
C1686 C1685 1.434 . S
C1687 C1688 1.369 . S
C1687 C1689 1.419 . S
C1687 H1691 0.930 . S
C1688 C1687 1.369 . S
C1688 C1697 1.429 . S
C1689 C1687 1.419 . S
C1689 C1690 1.363 . S
C1689 H1692 0.929 . S
C1690 C1689 1.363 . S
C1690 C1696 1.428 . S
H1691 C1687 0.930 . S
H1692 C1689 0.929 . S
S1693 N1694 1.613 . S
S1693 N1695 1.610 . S
N1694 S1693 1.613 . S
N1694 C1697 1.350 . S
N1695 S1693 1.610 . S
N1695 C1696 1.351 . S
C1696 C1690 1.428 . S
C1696 N1695 1.351 . S
C1696 C1697 1.434 . S
C1697 C1688 1.429 . S
C1697 N1694 1.350 . S
C1697 C1696 1.434 . S
C1698 C1699 1.369 . S
C1698 C1700 1.419 . S
C1698 H1702 0.930 . S
C1699 C1698 1.369 . S
C1699 C1708 1.429 . S
C1700 C1698 1.419 . S
C1700 C1701 1.363 . S
C1700 H1703 0.929 . S
C1701 C1700 1.363 . S
C1701 C1707 1.428 . S
H1702 C1698 0.930 . S
H1703 C1700 0.929 . S
S1704 N1705 1.613 . S
S1704 N1706 1.610 . S
N1705 S1704 1.613 . S
N1705 C1708 1.350 . S
N1706 S1704 1.610 . S
N1706 C1707 1.351 . S
C1707 C1701 1.428 . S
C1707 N1706 1.351 . S
C1707 C1708 1.434 . S
C1708 C1699 1.429 . S
C1708 N1705 1.350 . S
C1708 C1707 1.434 . S
C1709 C1710 1.369 . S
C1709 C1711 1.419 . S
C1709 H1713 0.930 . S
C1710 C1709 1.369 . S
C1710 C1719 1.429 . S
C1711 C1709 1.419 . S
C1711 C1712 1.363 . S
C1711 H1714 0.929 . S
C1712 C1711 1.363 . S
C1712 C1718 1.428 . S
H1713 C1709 0.930 . S
H1714 C1711 0.929 . S
S1715 N1716 1.613 . S
S1715 N1717 1.610 . S
N1716 S1715 1.613 . S
N1716 C1719 1.350 . S
N1717 S1715 1.610 . S
N1717 C1718 1.351 . S
C1718 C1712 1.428 . S
C1718 N1717 1.351 . S
C1718 C1719 1.434 . S
C1719 C1710 1.429 . S
C1719 N1716 1.350 . S
C1719 C1718 1.434 . S
C1720 C1721 1.369 . S
C1720 C1722 1.419 . S
C1720 H1724 0.930 . S
C1721 C1720 1.369 . S
C1721 C1730 1.429 . S
C1722 C1720 1.419 . S
C1722 C1723 1.363 . S
C1722 H1725 0.929 . S
C1723 C1722 1.363 . S
C1723 C1729 1.428 . S
H1724 C1720 0.930 . S
H1725 C1722 0.929 . S
S1726 N1727 1.613 . S
S1726 N1728 1.610 . S
N1727 S1726 1.613 . S
N1727 C1730 1.350 . S
N1728 S1726 1.610 . S
N1728 C1729 1.351 . S
C1729 C1723 1.428 . S
C1729 N1728 1.351 . S
C1729 C1730 1.434 . S
C1730 C1721 1.429 . S
C1730 N1727 1.350 . S
C1730 C1729 1.434 . S
C1731 C1732 1.369 . S
C1731 C1733 1.419 . S
C1731 H1735 0.930 . S
C1732 C1731 1.369 . S
C1732 C1741 1.429 . S
C1733 C1731 1.419 . S
C1733 C1734 1.363 . S
C1733 H1736 0.929 . S
C1734 C1733 1.363 . S
C1734 C1740 1.428 . S
H1735 C1731 0.930 . S
H1736 C1733 0.929 . S
S1737 N1738 1.613 . S
S1737 N1739 1.610 . S
N1738 S1737 1.613 . S
N1738 C1741 1.350 . S
N1739 S1737 1.610 . S
N1739 C1740 1.351 . S
C1740 C1734 1.428 . S
C1740 N1739 1.351 . S
C1740 C1741 1.434 . S
C1741 C1732 1.429 . S
C1741 N1738 1.350 . S
C1741 C1740 1.434 . S
C1742 C1743 1.369 . S
C1742 C1744 1.419 . S
C1742 H1746 0.930 . S
C1743 C1742 1.369 . S
C1743 C1752 1.429 . S
C1744 C1742 1.419 . S
C1744 C1745 1.363 . S
C1744 H1747 0.929 . S
C1745 C1744 1.363 . S
C1745 C1751 1.428 . S
H1746 C1742 0.930 . S
H1747 C1744 0.929 . S
S1748 N1749 1.613 . S
S1748 N1750 1.610 . S
N1749 S1748 1.613 . S
N1749 C1752 1.350 . S
N1750 S1748 1.610 . S
N1750 C1751 1.351 . S
C1751 C1745 1.428 . S
C1751 N1750 1.351 . S
C1751 C1752 1.434 . S
C1752 C1743 1.429 . S
C1752 N1749 1.350 . S
C1752 C1751 1.434 . S
C1753 C1754 1.369 . S
C1753 C1755 1.419 . S
C1753 H1757 0.930 . S
C1754 C1753 1.369 . S
C1754 C1763 1.429 . S
C1755 C1753 1.419 . S
C1755 C1756 1.363 . S
C1755 H1758 0.929 . S
C1756 C1755 1.363 . S
C1756 C1762 1.428 . S
H1757 C1753 0.930 . S
H1758 C1755 0.929 . S
S1759 N1760 1.613 . S
S1759 N1761 1.610 . S
N1760 S1759 1.613 . S
N1760 C1763 1.350 . S
N1761 S1759 1.610 . S
N1761 C1762 1.351 . S
C1762 C1756 1.428 . S
C1762 N1761 1.351 . S
C1762 C1763 1.434 . S
C1763 C1754 1.429 . S
C1763 N1760 1.350 . S
C1763 C1762 1.434 . S
C1764 C1765 1.369 . S
C1764 C1766 1.419 . S
C1764 H1768 0.930 . S
C1765 C1764 1.369 . S
C1765 C1774 1.429 . S
C1766 C1764 1.419 . S
C1766 C1767 1.363 . S
C1766 H1769 0.929 . S
C1767 C1766 1.363 . S
C1767 C1773 1.428 . S
H1768 C1764 0.930 . S
H1769 C1766 0.929 . S
S1770 N1771 1.613 . S
S1770 N1772 1.610 . S
N1771 S1770 1.613 . S
N1771 C1774 1.350 . S
N1772 S1770 1.610 . S
N1772 C1773 1.351 . S
C1773 C1767 1.428 . S
C1773 N1772 1.351 . S
C1773 C1774 1.434 . S
C1774 C1765 1.429 . S
C1774 N1771 1.350 . S
C1774 C1773 1.434 . S
C1775 C1776 1.369 . S
C1775 C1777 1.419 . S
C1775 H1779 0.930 . S
C1776 C1775 1.369 . S
C1776 C1785 1.429 . S
C1777 C1775 1.419 . S
C1777 C1778 1.363 . S
C1777 H1780 0.929 . S
C1778 C1777 1.363 . S
C1778 C1784 1.428 . S
H1779 C1775 0.930 . S
H1780 C1777 0.929 . S
S1781 N1782 1.613 . S
S1781 N1783 1.610 . S
N1782 S1781 1.613 . S
N1782 C1785 1.350 . S
N1783 S1781 1.610 . S
N1783 C1784 1.351 . S
C1784 C1778 1.428 . S
C1784 N1783 1.351 . S
C1784 C1785 1.434 . S
C1785 C1776 1.429 . S
C1785 N1782 1.350 . S
C1785 C1784 1.434 . S
C1786 C1787 1.369 . S
C1786 C1788 1.419 . S
C1786 H1790 0.930 . S
C1787 C1786 1.369 . S
C1787 C1796 1.429 . S
C1788 C1786 1.419 . S
C1788 C1789 1.363 . S
C1788 H1791 0.929 . S
C1789 C1788 1.363 . S
C1789 C1795 1.428 . S
H1790 C1786 0.930 . S
H1791 C1788 0.929 . S
S1792 N1793 1.613 . S
S1792 N1794 1.610 . S
N1793 S1792 1.613 . S
N1793 C1796 1.350 . S
N1794 S1792 1.610 . S
N1794 C1795 1.351 . S
C1795 C1789 1.428 . S
C1795 N1794 1.351 . S
C1795 C1796 1.434 . S
C1796 C1787 1.429 . S
C1796 N1793 1.350 . S
C1796 C1795 1.434 . S
C1797 C1798 1.369 . S
C1797 C1799 1.419 . S
C1797 H1801 0.930 . S
C1798 C1797 1.369 . S
C1798 C1807 1.429 . S
C1799 C1797 1.419 . S
C1799 C1800 1.363 . S
C1799 H1802 0.929 . S
C1800 C1799 1.363 . S
C1800 C1806 1.428 . S
H1801 C1797 0.930 . S
H1802 C1799 0.929 . S
S1803 N1804 1.613 . S
S1803 N1805 1.610 . S
N1804 S1803 1.613 . S
N1804 C1807 1.350 . S
N1805 S1803 1.610 . S
N1805 C1806 1.351 . S
C1806 C1800 1.428 . S
C1806 N1805 1.351 . S
C1806 C1807 1.434 . S
C1807 C1798 1.429 . S
C1807 N1804 1.350 . S
C1807 C1806 1.434 . S
C1281 C21 1.851 . S
C1283 C101 1.850 . S
C1292 C141 1.902 . S
C1294 C61 1.902 . S
C1303 C181 1.917 . S
C1305 C261 1.918 . S
C1314 C221 1.968 . S
C1316 C301 1.968 . S
C1325 C341 1.850 . S
C1327 C421 1.852 . S
C1336 C381 1.900 . S
C1338 C461 1.898 . S
C1347 C501 1.917 . S
C1349 C581 1.917 . S
C1358 C621 1.967 . S
C1360 C541 1.967 . S
C1369 C661 1.751 . S
C1371 C741 1.748 . S
C1380 C701 1.842 . S
C1382 C781 1.841 . S
C1391 C901 1.807 . S
C1393 C821 1.806 . S
C1402 C861 1.908 . S
C1404 C941 1.907 . S
C1413 C1061 1.750 . S
C1415 C981 1.751 . S
C1424 C1021 1.842 . S
C1426 C1101 1.844 . S
C1435 C1141 1.807 . S
C1437 C1221 1.807 . S
C1446 C1261 1.908 . S
C1448 C1181 1.908 . S
C1457 C15 2.447 . S
C1459 C175 2.460 . S
C1468 C55 2.479 . S
C1470 C1175 2.507 . S
C1479 C575 2.458 . S
C1481 C95 2.445 . S
C1490 C935 2.507 . S
C1492 C135 2.480 . S
C1501 C1015 2.489 . S
C1503 C215 2.499 . S
C1512 C255 2.463 . S
C1514 C415 2.441 . S
C1523 C775 2.487 . S
C1525 C295 2.500 . S
C1534 C495 2.461 . S
C1536 C335 2.446 . S
C1545 C375 2.484 . S
C1547 C855 2.503 . S
C1556 C455 2.487 . S
C1558 C1255 2.502 . S
C1567 C695 2.481 . S
C1569 C535 2.505 . S
C1578 C615 2.504 . S
C1580 C1095 2.483 . S
C1589 C815 2.319 . S
C1591 C655 2.296 . S
C1600 C735 2.302 . S
C1602 C1215 2.313 . S
C1611 C895 2.314 . S
C1613 C1055 2.299 . S
C1622 C975 2.296 . S
C1624 C1135 2.318 . S
C1633 C1002 2.134 . S
C1635 C2 2.145 . S
C1644 C962 2.107 . S
C1646 C42 2.082 . S
C1655 C82 2.145 . S
C1657 C1082 2.137 . S
C1666 C1042 2.109 . S
C1668 C122 2.079 . S
C1677 C1162 2.339 . S
C1679 C162 2.344 . S
C1688 C202 2.288 . S
C1690 C1122 2.290 . S
C1699 C1242 2.344 . S
C1701 C242 2.340 . S
C1710 C282 2.280 . S
C1712 C1202 2.295 . S
C1721 C322 2.141 . S
C1723 C682 2.138 . S
C1732 C362 2.082 . S
C1734 C642 2.106 . S
C1743 C402 2.135 . S
C1745 C762 2.143 . S
C1754 C722 2.109 . S
C1756 C442 2.080 . S
C1765 C482 2.342 . S
C1767 C842 2.341 . S
C1776 C802 2.295 . S
C1778 C522 2.281 . S
C1787 C922 2.340 . S
C1789 C562 2.343 . S
C1798 C882 2.293 . S
C1800 C602 2.283 . S
