# Generated by pormake.
# Topology kag, (6)-cn, num edge types: 1
# Building blocks:
#     Node 0, Type 0, BuildingBlock: BETGAK_clean_sbu_0, # of connection points: 6
#     Node 1, Type 0, BuildingBlock: BETGAK_clean_sbu_0, # of connection points: 6
#     Node 2, Type 0, BuildingBlock: BETGAK_clean_sbu_0, # of connection points: 6
#     Edge 3, Type (0, 0), BuildingBlock: FUNLAD_clean_linker_1, # of connection points: 2
#     Edge 4, Type (0, 0), BuildingBlock: FUNLAD_clean_linker_1, # of connection points: 2
#     Edge 5, Type (0, 0), BuildingBlock: FUNLAD_clean_linker_1, # of connection points: 2
#     Edge 6, Type (0, 0), BuildingBlock: FUNLAD_clean_linker_1, # of connection points: 2
#     Edge 7, Type (0, 0), BuildingBlock: FUNLAD_clean_linker_1, # of connection points: 2
#     Edge 8, Type (0, 0), BuildingBlock: FUNLAD_clean_linker_1, # of connection points: 2
#     Edge 9, Type (0, 0), BuildingBlock: FUNLAD_clean_linker_1, # of connection points: 2
#     Edge 10, Type (0, 0), BuildingBlock: FUNLAD_clean_linker_1, # of connection points: 2
#     Edge 11, Type (0, 0), BuildingBlock: FUNLAD_clean_linker_1, # of connection points: 2
# Relax obj value: 0.074
# Max RMSD: 0.189
# Mean RMSD: 0.100
data_MOF--net-kag--node1-BETGAK_clean_sbu_0--edge1-FUNLAD_clean_linker_1
_symmetry_space_group_name_H-M    P1
_symmetry_Int_Tables_number       1
_symmetry_cell_setting            triclinic
loop_
_symmetry_equiv_pos_as_xyz
'x, y, z'
_cell_length_a     33.285562
_cell_length_b     43.619833
_cell_length_c     15.522249
_cell_angle_alpha  95.034458
_cell_angle_beta   90.349316
_cell_angle_gamma 98.605884
loop_
_atom_site_label
_atom_site_type_symbol
_atom_site_fract_x
_atom_site_fract_y
_atom_site_fract_z
_atom_type_partial_charge
La0 La 0.05131 0.48391 0.00525 0.0
La1 La 0.05173 0.5478 0.00512 0.0
C2 C 1.03555 0.42671 0.03173 0.0
C3 C 1.00027 0.40143 0.02829 0.0
C4 C 1.00577 0.37116 0.99757 0.0
C5 C 0.9733 0.34656 0.9937 0.0
C6 C 0.93432 0.35163 0.02119 0.0
C7 C 0.92887 0.38215 0.05108 0.0
C8 C 0.96143 0.40678 0.05478 0.0
C9 C 0.06418 0.50276 0.84692 0.0
C10 C 0.96472 0.50977 0.9916 0.0
C11 C 0.0668 0.605 0.97856 0.0
C12 C 0.1015 0.63069 0.98254 0.0
C13 C 0.0947 0.66098 0.00951 0.0
C14 C 0.1266 0.68597 0.01392 0.0
C15 C 0.16627 0.68127 0.9907 0.0
C16 C 0.17303 0.65074 0.96471 0.0
C17 C 0.14102 0.6257 0.96043 0.0
C18 C 1.03882 0.52881 0.16326 0.0
C19 C 0.13841 0.52215 0.01889 0.0
O20 O 1.04742 0.43674 0.95805 0.0
O21 O 1.03638 0.44964 0.09215 0.0
O22 O 0.08323 0.48343 0.88308 0.0
O23 O 1.03822 0.51163 0.90006 0.0
O24 O 0.98474 0.48669 0.00787 0.0
O25 O 0.98563 0.53707 0.97774 0.0
O26 O 0.05483 0.59491 0.0521 0.0
O27 O 0.06681 0.58209 0.91838 0.0
O28 O 1.01974 0.54814 0.1272 0.0
O29 O 0.06488 0.52009 0.11017 0.0
O30 O 0.11832 0.54523 1.00295 0.0
O31 O 0.11755 0.49474 0.0323 0.0
H32 H 1.03536 0.3665 0.97612 0.0
H33 H 0.97911 0.32386 0.96791 0.0
H34 H 0.89929 0.38698 0.07203 0.0
H35 H 0.9562 0.42993 0.07837 0.0
H36 H 0.06453 0.66533 0.02766 0.0
H37 H 0.11986 0.70871 0.03696 0.0
H38 H 0.2032 0.64622 0.94722 0.0
H39 H 0.14719 0.60252 0.93984 0.0
La40 La 0.59138 0.02429 0.0062 0.0
La41 La 0.50201 1.01094 0.9999 0.0
C42 C 0.66428 0.04635 0.97695 0.0
C43 C 0.69034 0.07726 0.9864 0.0
C44 C 0.72944 0.07985 0.02305 0.0
C45 C 0.75503 0.10854 0.03196 0.0
C46 C 0.74237 0.13548 0.00419 0.0
C47 C 0.70281 0.13295 0.96826 0.0
C48 C 0.67719 0.10412 0.95925 0.0
C49 C 0.55863 0.01856 0.16039 0.0
C50 C 0.53858 0.08122 0.01144 0.0
C51 C 0.42906 0.98889 0.02825 0.0
C52 C 0.4034 0.95786 0.01923 0.0
C53 C 0.36375 0.95508 0.9854 0.0
C54 C 0.33863 0.92618 0.97651 0.0
C55 C 0.35237 0.8993 1.00181 0.0
C56 C 0.39245 0.90202 0.03486 0.0
C57 C 0.41765 0.93101 0.04354 0.0
C58 C 0.53514 1.01688 0.84598 0.0
C59 C 0.55355 0.9538 0.99538 0.0
O60 O 0.65258 0.03434 0.04854 0.0
O61 O 0.63495 0.04201 0.91856 0.0
O62 O 0.59288 1.00992 0.13764 0.0
O63 O 0.54506 0.0317 0.09912 0.0
O64 O 0.5742 0.07146 0.99832 0.0
O65 O 0.50557 0.06131 0.02437 0.0
O66 O 0.441 1.00061 0.95641 0.0
O67 O 0.45813 0.99355 0.08725 0.0
O68 O 0.50097 0.02569 0.86868 0.0
O69 O 0.54834 1.00352 0.90716 0.0
O70 O 0.51862 0.96431 0.00825 0.0
O71 O 0.58734 0.97317 0.98276 0.0
H72 H 0.74033 0.05954 0.04461 0.0
H73 H 0.7851 0.10959 0.06023 0.0
H74 H 0.69123 0.15299 0.94733 0.0
H75 H 0.64713 0.10288 0.93085 0.0
H76 H 0.35209 0.97538 0.96589 0.0
H77 H 0.30812 0.92491 0.95033 0.0
H78 H 0.40478 0.88191 0.0532 0.0
H79 H 0.44824 0.93235 0.0692 0.0
La80 La 0.55608 0.55292 0.0186 0.0
La81 La 0.54804 0.48264 0.99869 0.0
C82 C 0.55863 0.6108 0.00585 0.0
C83 C 0.5633 0.64553 1.00246 0.0
C84 C 0.5951 0.66491 0.04942 0.0
C85 C 0.60025 0.69743 0.04778 0.0
C86 C 0.5735 0.71199 1.00034 0.0
C87 C 0.54147 0.69263 0.95309 0.0
C88 C 0.53661 0.65984 0.95383 0.0
C89 C 0.55699 0.52638 0.16728 0.0
C90 C 0.46577 0.51307 0.01356 0.0
C91 C 0.54395 0.42516 0.02219 0.0
C92 C 0.55516 0.39294 0.01067 0.0
C93 C 0.52755 0.36858 0.96802 0.0
C94 C 0.53368 0.3373 0.96707 0.0
C95 C 0.56773 0.32921 0.00922 0.0
C96 C 0.59602 0.35369 0.04956 0.0
C97 C 0.58968 0.38502 0.05112 0.0
C98 C 0.54742 0.50868 0.84916 0.0
C99 C 0.63835 0.52258 1.0015 0.0
O100 O 0.57369 0.59894 0.07101 0.0
O101 O 0.54119 0.58971 0.94625 0.0
O102 O 0.5765 0.55337 0.15368 0.0
O103 O 0.5356 0.51616 0.10051 0.0
O104 O 0.48809 0.54065 0.00424 0.0
O105 O 0.48396 0.48842 0.02416 0.0
O106 O 0.52553 0.43569 0.95887 0.0
O107 O 0.56602 0.44765 0.07096 0.0
O108 O 0.52933 0.48113 0.86212 0.0
O109 O 0.56825 0.5193 0.91645 0.0
O110 O 0.61606 0.49492 0.01035 0.0
O111 O 0.62023 0.54742 0.99228 0.0
H112 H 0.61644 0.65491 0.08728 0.0
H113 H 0.62537 0.71134 0.08451 0.0
H114 H 0.52051 0.7026 0.91428 0.0
H115 H 0.51184 0.64569 0.91668 0.0
H116 H 0.50032 0.37365 0.9371 0.0
H117 H 0.51154 0.31963 0.93312 0.0
H118 H 0.62276 0.3485 0.08212 0.0
H119 H 0.61138 0.40293 0.08571 0.0
H120 H 0.09293 0.49617 0.72042 0.0
C121 C 0.06744 0.50557 0.75049 0.0
H122 H 1.01593 0.52643 0.72487 0.0
H123 H 0.07179 0.57467 0.36142 0.0
H124 H 0.07451 0.62296 0.45218 0.0
H125 H 0.06463 0.62298 0.60937 0.0
H126 H 0.05229 0.57463 0.67737 0.0
C127 C 1.04136 0.51637 0.69695 0.0
C128 C 1.04703 0.51591 0.59859 0.0
C129 C 0.05326 0.54421 0.55773 0.0
C130 C 0.05819 0.54416 0.46549 0.0
C131 C 0.06636 0.57311 0.42955 0.0
C132 C 0.06838 0.60109 0.48115 0.0
C133 C 0.06287 0.60111 0.56974 0.0
C134 C 0.05564 0.57314 0.60791 0.0
H135 H 1.01003 0.5353 0.28975 0.0
C136 C 1.03557 0.52597 0.25968 0.0
H137 H 0.0872 0.50525 0.28529 0.0
H138 H 1.03125 0.45692 0.64869 0.0
H139 H 1.02853 0.40863 0.55792 0.0
H140 H 1.03843 0.40862 0.40073 0.0
H141 H 1.05078 0.45698 0.33275 0.0
C142 C 0.06171 0.51523 0.3132 0.0
C143 C 0.05605 0.51569 0.41155 0.0
C144 C 1.04981 0.4874 0.45241 0.0
C145 C 1.04487 0.48744 0.54465 0.0
C146 C 1.03669 0.45849 0.58056 0.0
C147 C 1.03467 0.43051 0.52896 0.0
C148 C 1.04019 0.4305 0.44037 0.0
C149 C 1.04743 0.45847 0.40221 0.0
H150 H 0.51733 0.03126 0.26568 0.0
C151 C 0.5449 0.02135 0.2519 0.0
H152 H 0.59356 1.00234 0.3029 0.0
H153 H 0.54331 0.08029 0.66319 0.0
H154 H 0.55846 0.12671 0.58723 0.0
H155 H 0.57332 0.12305 0.43156 0.0
H156 H 0.57272 0.07301 0.35059 0.0
C157 C 0.56655 1.01289 0.31782 0.0
C158 C 0.55481 1.01564 0.41184 0.0
C159 C 0.55556 0.04518 0.45909 0.0
C160 C 0.54755 0.04732 0.54984 0.0
C161 C 0.54875 0.0772 0.59454 0.0
C162 C 0.55764 0.1041 0.55183 0.0
C163 C 0.56598 0.10203 0.46416 0.0
C164 C 0.56525 0.07305 0.41821 0.0
H165 H 0.57653 1.00415 0.74096 0.0
C166 C 0.54904 1.01417 0.75463 0.0
H167 H 0.50066 0.03346 0.7035 0.0
H168 H 0.55121 0.95541 0.34353 0.0
H169 H 0.53628 0.90899 0.41959 0.0
H170 H 0.52129 0.91264 0.57519 0.0
H171 H 0.52154 0.96266 0.65598 0.0
C172 C 0.52758 0.0228 0.68867 0.0
C173 C 0.53942 0.02005 0.59472 0.0
C174 C 0.53872 0.99051 0.5475 0.0
C175 C 0.54676 0.98837 0.45677 0.0
C176 C 0.54571 0.95849 0.41215 0.0
C177 C 0.53694 0.9316 0.45492 0.0
C178 C 0.52853 0.93366 0.54255 0.0
C179 C 0.52909 0.96264 0.5884 0.0
H180 H 0.57583 0.54097 0.7556 0.0
C181 C 0.55482 0.51969 0.76121 0.0
H182 H 0.5175 0.48149 0.69523 0.0
H183 H 0.53276 0.57777 0.3829 0.0
H184 H 0.50252 0.61334 0.48225 0.0
H185 H 0.49095 0.60244 0.63401 0.0
H186 H 0.50983 0.55607 0.68775 0.0
C187 C 0.53737 0.50328 0.68873 0.0
C188 C 0.54656 0.51153 0.59746 0.0
C189 C 0.53508 0.5387 0.56621 0.0
C190 C 0.5413 0.5448 0.47765 0.0
C191 C 0.52921 0.57207 0.44913 0.0
C192 C 0.51157 0.59264 0.5054 0.0
C193 C 0.50507 0.58651 0.59087 0.0
C194 C 0.51636 0.55984 0.62108 0.0
H195 H 0.52831 0.49441 0.26133 0.0
C196 C 0.54968 0.51548 0.25537 0.0
H197 H 0.5877 0.55341 0.32089 0.0
H198 H 0.57244 0.45741 0.63353 0.0
H199 H 0.60263 0.42184 0.5341 0.0
H200 H 0.61399 0.43268 0.38223 0.0
H201 H 0.59497 0.479 0.32848 0.0
C202 C 0.56754 0.53177 0.3276 0.0
C203 C 0.55842 0.52359 0.41892 0.0
C204 C 0.56989 0.49642 0.45016 0.0
C205 C 0.56373 0.49034 0.53874 0.0
C206 C 0.5759 0.46309 0.56726 0.0
C207 C 0.59352 0.44252 0.51095 0.0
C208 C 0.5999 0.44861 0.42542 0.0
C209 C 0.58855 0.47526 0.39521 0.0
H210 H 0.19841 0.55257 0.01511 0.0
C211 C 0.1849 0.52857 0.02049 0.0
H212 H 0.19781 0.48292 0.02551 0.0
H213 H 0.3743 0.49382 0.8709 0.0
H214 H 0.33379 0.46145 0.75804 0.0
H215 H 0.25904 0.45291 0.76333 0.0
H216 H 0.22401 0.47693 0.88122 0.0
C217 C 0.21099 0.50721 0.02448 0.0
C218 C 0.25787 0.51449 0.01991 0.0
C219 C 0.27902 0.49993 0.95177 0.0
C220 C 0.32294 0.50455 0.94929 0.0
C221 C 0.3417 0.49052 0.87779 0.0
C222 C 0.31874 0.47201 0.81205 0.0
C223 C 0.27662 0.46721 0.815 0.0
C224 C 0.25688 0.48103 0.88346 0.0
H225 H 0.40483 0.48449 0.02141 0.0
C226 C 0.41929 0.50825 0.0158 0.0
H227 H 0.40791 0.55429 0.00975 0.0
H228 H 0.23067 0.54451 0.16416 0.0
H229 H 0.27118 0.57709 0.27671 0.0
H230 H 0.34595 0.5856 0.27144 0.0
H231 H 0.38098 0.56137 0.15387 0.0
C232 C 0.39407 0.5302 0.01186 0.0
C233 C 0.34712 0.52349 0.01583 0.0
C234 C 0.32598 0.53819 0.08372 0.0
C235 C 0.28205 0.53357 0.08619 0.0
C236 C 0.26327 0.54775 0.15741 0.0
C237 C 0.28623 0.5664 0.22292 0.0
C238 C 0.32837 0.57118 0.21998 0.0
C239 C 0.34811 0.55723 0.15176 0.0
H240 H 0.79961 0.16527 0.05084 0.0
C241 C 0.77158 0.16532 0.01447 0.0
H242 H 0.74045 0.19271 0.93844 0.0
H243 H 0.87783 0.29735 0.16527 0.0
H244 H 0.83901 0.28315 0.29127 0.0
H245 H 0.78093 0.24056 0.27884 0.0
H246 H 0.76164 0.21155 0.14054 0.0
C247 C 0.7667 0.19177 0.97923 0.0
C248 C 0.79944 0.21959 0.98639 0.0
C249 C 0.80963 0.23703 0.06725 0.0
C250 C 0.84239 0.26236 0.07392 0.0
C251 C 0.85276 0.27844 0.15609 0.0
C252 C 0.83077 0.27048 0.22902 0.0
C253 C 0.79812 0.24644 0.22207 0.0
C254 C 0.78752 0.22985 0.14234 0.0
H255 H 0.86851 0.33287 0.0261 0.0
C256 C 0.89851 0.32613 0.01777 0.0
H257 H 0.93019 0.2874 0.99824 0.0
H258 H 0.78683 0.19248 0.82072 0.0
H259 H 0.82366 0.20826 0.69375 0.0
H260 H 0.87914 0.25283 0.70482 0.0
H261 H 0.89825 0.28191 0.84313 0.0
C262 C 0.90108 0.29543 0.00639 0.0
C263 C 0.86433 0.27083 0.99933 0.0
C264 C 0.85309 0.25418 0.91802 0.0
C265 C 0.82071 0.22863 0.9115 0.0
C266 C 0.8108 0.21225 0.82944 0.0
C267 C 0.83175 0.22101 0.75595 0.0
C268 C 0.86303 0.24609 0.7622 0.0
C269 C 0.87374 0.26253 0.84205 0.0
H270 H 0.52133 0.90565 0.98964 0.0
C271 C 0.55163 0.91909 0.99013 0.0
H272 H 0.61428 0.91567 0.99241 0.0
H273 H 0.57207 0.78151 0.14462 0.0
H274 H 0.59364 0.81393 0.27605 0.0
H275 H 0.60852 0.87103 0.27635 0.0
H276 H 0.60143 0.89616 0.14494 0.0
C277 C 0.58348 0.90314 0.98824 0.0
C278 C 0.57712 0.86789 0.98597 0.0
C279 C 0.58293 0.85305 0.06205 0.0
C280 C 0.57547 0.81974 0.06116 0.0
C281 C 0.57898 0.8063 0.1401 0.0
C282 C 0.59097 0.82471 0.21648 0.0
C283 C 0.59927 0.85688 0.21671 0.0
C284 C 0.59516 0.871 0.14077 0.0
H285 H 0.61167 0.75861 0.021 0.0
C286 C 0.58146 0.74708 1.00042 0.0
H287 H 0.52337 0.75479 0.96012 0.0
H288 H 0.56446 0.88777 0.82781 0.0
H289 H 0.54347 0.85558 0.69524 0.0
H290 H 0.53199 0.79833 0.69237 0.0
H291 H 0.54134 0.77279 0.8219 0.0
C292 C 0.55381 0.76548 0.98095 0.0
C293 C 0.56349 0.80076 0.98303 0.0
C294 C 0.55808 0.81573 0.90674 0.0
C295 C 0.56481 0.84903 0.90825 0.0
C296 C 0.55939 0.8628 0.83061 0.0
C297 C 0.54749 0.84458 0.75393 0.0
C298 C 0.54102 0.81234 0.75233 0.0
C299 C 0.54634 0.79797 0.8274 0.0
H300 H 0.9045 0.47969 0.99584 0.0
C301 C 0.91827 0.50366 0.99086 0.0
H302 H 0.90607 0.54927 0.98148 0.0
H303 H 0.72315 0.52655 0.84918 0.0
H304 H 0.75872 0.54775 0.72736 0.0
H305 H 0.8335 0.55583 0.72385 0.0
H306 H 0.87344 0.54241 0.84183 0.0
C307 C 0.89259 0.52536 0.98816 0.0
C308 C 0.84561 0.51849 0.98998 0.0
C309 C 0.82161 0.52696 0.92173 0.0
C310 C 0.77772 0.52284 0.92459 0.0
C311 C 0.75595 0.5302 0.85256 0.0
C312 C 0.77604 0.54215 0.78156 0.0
C313 C 0.81817 0.54667 0.77953 0.0
C314 C 0.84077 0.53903 0.84813 0.0
H315 H 0.69948 0.55072 0.99167 0.0
C316 C 0.68474 0.52705 0.99736 0.0
H317 H 0.69524 0.48108 0.00804 0.0
H318 H 0.8789 0.50233 0.13731 0.0
H319 H 0.84334 0.48099 0.25887 0.0
H320 H 0.76856 0.47304 0.26254 0.0
H321 H 0.72864 0.48669 0.14494 0.0
C322 C 0.70946 0.50468 0.99972 0.0
C323 C 0.75647 0.51078 0.99692 0.0
C324 C 0.78045 0.50218 0.065 0.0
C325 C 0.82435 0.50627 0.06211 0.0
C326 C 0.84611 0.49876 0.13397 0.0
C327 C 0.82602 0.48671 0.20483 0.0
C328 C 0.78389 0.48226 0.20694 0.0
C329 C 0.7613 0.49004 0.13854 0.0
H330 H 0.23188 0.70108 0.99352 0.0
C331 C 0.2014 0.70725 0.99513 0.0
H332 H 0.16791 0.74509 1.00026 0.0
H333 H 0.30265 0.84591 0.18544 0.0
H334 H 0.26119 0.83238 0.30835 0.0
H335 H 0.20689 0.78698 0.29578 0.0
H336 H 0.19364 0.75481 0.16006 0.0
C337 C 0.19759 0.73772 0.99945 0.0
C338 C 0.23344 0.76302 0.0084 0.0
C339 C 0.24119 0.78149 0.0883 0.0
C340 C 0.27284 0.80754 0.09578 0.0
C341 C 0.27934 0.82572 0.17623 0.0
C342 C 0.25571 0.81825 0.24734 0.0
C343 C 0.2251 0.79271 0.24024 0.0
C344 C 0.21776 0.77448 0.16187 0.0
H345 H 0.29667 0.86829 0.95174 0.0
C346 C 0.32397 0.86914 0.99132 0.0
H347 H 0.35393 0.84381 0.07555 0.0
H348 H 0.22683 0.73287 0.84561 0.0
H349 H 0.27009 0.74509 0.7243 0.0
H350 H 0.32665 0.78886 0.73895 0.0
H351 H 0.34001 0.82098 0.87476 0.0
C352 C 0.32868 0.84354 0.03088 0.0
C353 C 0.29677 0.81526 0.02324 0.0
C354 C 0.28998 0.79613 0.9441 0.0
C355 C 0.25803 0.77024 0.93639 0.0
C356 C 0.25113 0.75234 0.85567 0.0
C357 C 0.27569 0.75914 0.78541 0.0
C358 C 0.30748 0.78384 0.7936 0.0
C359 C 0.3147 0.80219 0.87182 0.0
H360 H 0.60585 0.29211 0.02633 0.0
C361 C 0.57509 0.29586 0.01157 0.0
H362 H 0.51481 0.27352 0.98596 0.0
H363 H 0.54113 0.13868 0.85055 0.0
H364 H 0.51837 0.15811 0.72005 0.0
H365 H 0.51163 0.21352 0.71654 0.0
H366 H 0.52781 0.24998 0.84331 0.0
C367 C 0.54583 0.27045 1.00009 0.0
C368 C 0.55366 0.23708 1.00164 0.0
C369 C 0.54387 0.21565 0.92722 0.0
C370 C 0.54764 0.18341 0.92923 0.0
C371 C 0.53832 0.16313 0.85312 0.0
C372 C 0.52535 0.174 0.77758 0.0
C373 C 0.52156 0.20521 0.77561 0.0
C374 C 0.53076 0.22587 0.84912 0.0
H375 H 0.50426 0.12116 0.01488 0.0
C376 C 0.53473 0.11507 0.01166 0.0
H377 H 0.59724 0.13286 0.00737 0.0
H378 H 0.57158 0.2698 0.15937 0.0
H379 H 0.5958 0.25035 0.28823 0.0
H380 H 0.60506 0.19536 0.28925 0.0
H381 H 0.58954 0.15924 0.16138 0.0
C382 C 0.56646 0.13826 0.00735 0.0
C383 C 0.56113 0.1721 0.00575 0.0
C384 C 0.57157 0.19351 0.0797 0.0
C385 C 0.56724 0.22571 0.07827 0.0
C386 C 0.57568 0.24563 0.15528 0.0
C387 C 0.58933 0.23468 0.23015 0.0
C388 C 0.59449 0.20369 0.23078 0.0
C389 C 0.58558 0.18323 0.15684 0.0
loop_
_geom_bond_atom_site_label_1
_geom_bond_atom_site_label_2
_geom_bond_distance
_geom_bond_site_symmetry_2
_ccdc_geom_bond_type
La0 C2 2.928 . S
La0 O20 2.521 . S
La0 O21 2.628 1_556 S
La0 O22 2.554 . S
La0 O23 2.757 1_655 S
La0 O24 2.470 . S
La0 O29 2.482 1_556 S
La0 O31 2.503 1_655 S
La1 C11 2.928 . S
La1 O23 2.482 1_554 S
La1 O25 2.503 1_455 S
La1 O26 2.521 . S
La1 O27 2.628 1_554 S
La1 O28 2.554 . S
La1 O29 2.757 1_455 S
La1 O30 2.470 . S
C2 La0 2.928 . S
C2 C3 1.503 . S
C2 O20 1.261 . S
C2 O21 1.243 1_556 S
C3 C2 1.503 . S
C3 C4 1.394 . S
C3 C8 1.373 1_556 S
C4 C3 1.394 . S
C4 C5 1.380 . S
C4 H32 0.930 . S
C5 C4 1.380 . S
C5 C6 1.376 . S
C5 H33 0.930 . S
C6 C5 1.376 . S
C6 C7 1.370 1_556 S
C7 C6 1.370 1_554 S
C7 C8 1.396 . S
C7 H34 0.929 . S
C8 C3 1.373 1_554 S
C8 C7 1.396 . S
C8 H35 0.929 . S
C9 O22 1.240 1_455 S
C9 O23 1.289 . S
C10 O24 1.258 . S
C10 O25 1.256 1_556 S
C11 La1 2.928 . S
C11 C12 1.503 . S
C11 O26 1.261 . S
C11 O27 1.243 1_554 S
C12 C11 1.503 . S
C12 C13 1.394 . S
C12 C17 1.373 1_554 S
C13 C12 1.394 . S
C13 C14 1.380 . S
C13 H36 0.930 . S
C14 C13 1.380 . S
C14 C15 1.376 . S
C14 H37 0.930 . S
C15 C14 1.376 . S
C15 C16 1.370 1_554 S
C16 C15 1.370 1_556 S
C16 C17 1.396 . S
C16 H38 0.929 . S
C17 C12 1.373 1_556 S
C17 C16 1.396 . S
C17 H39 0.929 . S
C18 O28 1.240 . S
C18 O29 1.289 1_455 S
C19 O30 1.258 . S
C19 O31 1.256 1_554 S
O20 La0 2.521 . S
O20 C2 1.261 . S
O21 La0 2.628 1_554 S
O21 C2 1.243 1_554 S
O22 La0 2.554 . S
O22 C9 1.240 1_655 S
O23 La0 2.757 1_455 S
O23 La1 2.482 1_556 S
O23 C9 1.289 . S
O24 La0 2.470 . S
O24 C10 1.258 . S
O25 La1 2.503 1_655 S
O25 C10 1.256 1_554 S
O26 La1 2.521 . S
O26 C11 1.261 . S
O27 La1 2.628 1_556 S
O27 C11 1.243 1_556 S
O28 La1 2.554 . S
O28 C18 1.240 . S
O29 La0 2.482 1_554 S
O29 La1 2.757 1_655 S
O29 C18 1.289 1_655 S
O30 La1 2.470 . S
O30 C19 1.258 . S
O31 La0 2.503 1_455 S
O31 C19 1.256 1_556 S
H32 C4 0.930 . S
H33 C5 0.930 . S
H34 C7 0.929 . S
H35 C8 0.929 . S
H36 C13 0.930 . S
H37 C14 0.930 . S
H38 C16 0.929 . S
H39 C17 0.929 . S
La40 C42 2.927 1_554 S
La40 O60 2.521 . S
La40 O61 2.628 1_554 S
La40 O62 2.554 . S
La40 O63 2.757 1_545 S
La40 O64 2.470 . S
La40 O69 2.482 1_554 S
La40 O71 2.503 1_544 S
La41 C51 2.928 1_556 S
La41 O63 2.482 1_556 S
La41 O65 2.503 1_566 S
La41 O66 2.521 . S
La41 O67 2.628 1_556 S
La41 O68 2.554 . S
La41 O69 2.757 1_565 S
La41 O70 2.470 . S
C42 La40 2.927 1_556 S
C42 C43 1.504 . S
C42 O60 1.252 1_556 S
C42 O61 1.250 . S
C43 C42 1.504 . S
C43 C44 1.394 1_556 S
C43 C48 1.373 . S
C44 C43 1.394 1_554 S
C44 C45 1.380 . S
C44 H72 0.930 . S
C45 C44 1.380 . S
C45 C46 1.376 1_554 S
C45 H73 0.930 . S
C46 C45 1.376 1_556 S
C46 C47 1.370 . S
C47 C46 1.370 . S
C47 C48 1.396 . S
C47 H74 0.929 . S
C48 C43 1.373 . S
C48 C47 1.396 . S
C48 H75 0.929 . S
C49 O62 1.240 . S
C49 O63 1.289 1_545 S
C50 O64 1.258 . S
C50 O65 1.256 . S
C51 La41 2.928 1_554 S
C51 C52 1.503 . S
C51 O66 1.261 1_554 S
C51 O67 1.243 . S
C52 C51 1.503 . S
C52 C53 1.394 1_554 S
C52 C57 1.373 . S
C53 C52 1.394 1_556 S
C53 C54 1.380 . S
C53 H76 0.930 . S
C54 C53 1.380 . S
C54 C55 1.376 1_556 S
C54 H77 0.930 . S
C55 C54 1.376 1_554 S
C55 C56 1.370 . S
C56 C55 1.370 . S
C56 C57 1.396 . S
C56 H78 0.929 . S
C57 C52 1.373 . S
C57 C56 1.396 . S
C57 H79 0.929 . S
C58 O68 1.240 . S
C58 O69 1.289 1_565 S
C59 O70 1.258 . S
C59 O71 1.256 . S
O60 La40 2.521 . S
O60 C42 1.252 1_554 S
O61 La40 2.628 1_556 S
O61 C42 1.250 . S
O62 La40 2.554 . S
O62 C49 1.240 . S
O63 La40 2.757 1_565 S
O63 La41 2.482 1_554 S
O63 C49 1.289 1_565 S
O64 La40 2.470 . S
O64 C50 1.258 . S
O65 La41 2.503 1_544 S
O65 C50 1.256 . S
O66 La41 2.521 . S
O66 C51 1.261 1_556 S
O67 La41 2.628 1_554 S
O67 C51 1.243 . S
O68 La41 2.554 . S
O68 C58 1.240 . S
O69 La40 2.482 1_556 S
O69 La41 2.757 1_545 S
O69 C58 1.289 1_545 S
O70 La41 2.470 . S
O70 C59 1.258 . S
O71 La40 2.503 1_566 S
O71 C59 1.256 . S
H72 C44 0.930 . S
H73 C45 0.930 . S
H74 C47 0.929 . S
H75 C48 0.929 . S
H76 C53 0.930 . S
H77 C54 0.930 . S
H78 C56 0.929 . S
H79 C57 0.929 . S
La80 C82 2.928 . S
La80 O100 2.521 . S
La80 O101 2.628 1_554 S
La80 O102 2.554 . S
La80 O103 2.757 . S
La80 O104 2.470 . S
La80 O109 2.482 1_554 S
La80 O111 2.503 . S
La81 C91 2.928 . S
La81 O103 2.482 1_556 S
La81 O105 2.503 . S
La81 O106 2.521 . S
La81 O107 2.628 1_556 S
La81 O108 2.554 . S
La81 O109 2.757 . S
La81 O110 2.470 . S
C82 La80 2.928 . S
C82 C83 1.503 . S
C82 O100 1.261 . S
C82 O101 1.243 1_554 S
C83 C82 1.503 . S
C83 C84 1.394 . S
C83 C88 1.373 1_554 S
C84 C83 1.394 . S
C84 C85 1.380 . S
C84 H112 0.930 . S
C85 C84 1.380 . S
C85 C86 1.381 . S
C85 H113 0.930 . S
C86 C85 1.381 . S
C86 C87 1.366 1_554 S
C87 C86 1.366 1_556 S
C87 C88 1.396 . S
C87 H114 0.929 . S
C88 C83 1.373 1_556 S
C88 C87 1.396 . S
C88 H115 0.929 . S
C89 O102 1.240 . S
C89 O103 1.289 . S
C90 O104 1.258 . S
C90 O105 1.256 1_554 S
C91 La81 2.928 . S
C91 C92 1.503 . S
C91 O106 1.261 . S
C91 O107 1.243 1_556 S
C92 C91 1.503 . S
C92 C93 1.394 . S
C92 C97 1.373 1_556 S
C93 C92 1.394 . S
C93 C94 1.380 . S
C93 H116 0.930 . S
C94 C93 1.380 . S
C94 C95 1.376 . S
C94 H117 0.930 . S
C95 C94 1.376 . S
C95 C96 1.370 1_556 S
C96 C95 1.370 1_554 S
C96 C97 1.396 . S
C96 H118 0.929 . S
C97 C92 1.373 1_554 S
C97 C96 1.396 . S
C97 H119 0.929 . S
C98 O108 1.240 . S
C98 O109 1.289 . S
C99 O110 1.258 . S
C99 O111 1.256 1_556 S
O100 La80 2.521 . S
O100 C82 1.261 . S
O101 La80 2.628 1_556 S
O101 C82 1.243 1_556 S
O102 La80 2.554 . S
O102 C89 1.240 . S
O103 La80 2.757 . S
O103 La81 2.482 1_554 S
O103 C89 1.289 . S
O104 La80 2.470 . S
O104 C90 1.258 . S
O105 La81 2.503 . S
O105 C90 1.256 1_556 S
O106 La81 2.521 . S
O106 C91 1.261 . S
O107 La81 2.628 1_554 S
O107 C91 1.243 1_554 S
O108 La81 2.554 . S
O108 C98 1.240 . S
O109 La80 2.482 1_556 S
O109 La81 2.757 . S
O109 C98 1.289 . S
O110 La81 2.470 . S
O110 C99 1.258 . S
O111 La80 2.503 . S
O111 C99 1.256 1_554 S
H112 C84 0.930 . S
H113 C85 0.930 . S
H114 C87 0.929 . S
H115 C88 0.929 . S
H116 C93 0.930 . S
H117 C94 0.930 . S
H118 C96 0.929 . S
H119 C97 0.929 . S
H120 C121 0.951 . S
C121 H120 0.951 . S
C121 C127 1.265 1_455 S
H122 C127 0.950 . S
H123 C131 0.949 . S
H124 C132 0.950 . S
H125 C133 0.945 1_655 S
H126 C134 0.951 . S
C127 C121 1.265 1_655 S
C127 H122 0.950 . S
C127 C128 1.478 . S
C128 C127 1.478 . S
C128 C129 1.397 . S
C128 C145 1.394 . S
C129 C128 1.397 . S
C129 C130 1.434 1_655 S
C129 C134 1.433 . S
C130 C129 1.434 1_455 S
C130 C131 1.428 . S
C130 C143 1.394 . S
C131 H123 0.949 . S
C131 C130 1.428 . S
C131 C132 1.345 . S
C132 H124 0.950 . S
C132 C131 1.345 . S
C132 C133 1.429 . S
C133 H125 0.945 1_455 S
C133 C132 1.429 . S
C133 C134 1.348 1_455 S
C134 H126 0.951 . S
C134 C129 1.433 . S
C134 C133 1.348 1_655 S
H135 C136 0.951 . S
C136 H135 0.951 . S
C136 C142 1.265 1_655 S
H137 C142 0.950 . S
H138 C146 0.949 . S
H139 C147 0.950 . S
H140 C148 0.951 . S
H141 C149 0.951 . S
C142 C136 1.265 1_455 S
C142 H137 0.950 . S
C142 C143 1.478 . S
C143 C130 1.394 . S
C143 C142 1.478 . S
C143 C144 1.397 . S
C144 C143 1.397 . S
C144 C145 1.438 1_455 S
C144 C149 1.429 . S
C145 C128 1.394 . S
C145 C144 1.438 1_655 S
C145 C146 1.428 . S
C146 H138 0.949 . S
C146 C145 1.428 . S
C146 C147 1.345 . S
C147 H139 0.950 . S
C147 C146 1.345 . S
C147 C148 1.424 1_655 S
C148 H140 0.951 . S
C148 C147 1.424 1_455 S
C148 C149 1.347 . S
C149 H141 0.951 . S
C149 C144 1.429 . S
C149 C148 1.347 . S
H150 C151 0.952 . S
C151 H150 0.952 . S
C151 C157 1.265 1_565 S
H152 C157 0.950 . S
H153 C161 0.949 . S
H154 C162 0.950 . S
H155 C163 0.951 . S
H156 C164 0.951 . S
C157 C151 1.265 1_545 S
C157 H152 0.950 . S
C157 C158 1.478 . S
C158 C157 1.478 . S
C158 C159 1.397 . S
C158 C175 1.394 1_545 S
C159 C158 1.397 . S
C159 C160 1.438 . S
C159 C164 1.429 . S
C160 C159 1.438 . S
C160 C161 1.428 . S
C160 C173 1.394 1_545 S
C161 H153 0.949 . S
C161 C160 1.428 . S
C161 C162 1.345 . S
C162 H154 0.950 . S
C162 C161 1.345 . S
C162 C163 1.424 . S
C163 H155 0.951 . S
C163 C162 1.424 . S
C163 C164 1.347 . S
C164 H156 0.951 . S
C164 C159 1.429 . S
C164 C163 1.347 . S
H165 C166 0.958 . S
C166 H165 0.958 . S
C166 C172 1.264 1_545 S
H167 C172 0.950 . S
H168 C176 0.949 . S
H169 C177 0.950 . S
H170 C178 0.951 . S
H171 C179 0.951 . S
C172 C166 1.264 1_565 S
C172 H167 0.950 . S
C172 C173 1.478 . S
C173 C160 1.394 1_565 S
C173 C172 1.478 . S
C173 C174 1.397 . S
C174 C173 1.397 . S
C174 C175 1.438 . S
C174 C179 1.429 . S
C175 C158 1.394 1_565 S
C175 C174 1.438 . S
C175 C176 1.428 . S
C176 H168 0.949 . S
C176 C175 1.428 . S
C176 C177 1.345 . S
C177 H169 0.950 . S
C177 C176 1.345 . S
C177 C178 1.424 . S
C178 H170 0.951 . S
C178 C177 1.424 . S
C178 C179 1.347 . S
C179 H171 0.951 . S
C179 C174 1.429 . S
C179 C178 1.347 . S
H180 C181 0.951 . S
C181 H180 0.951 . S
C181 C187 1.265 . S
H182 C187 0.950 . S
H183 C191 0.949 . S
H184 C192 0.950 . S
H185 C193 0.951 . S
H186 C194 0.951 . S
C187 C181 1.265 . S
C187 H182 0.950 . S
C187 C188 1.478 . S
C188 C187 1.478 . S
C188 C189 1.397 . S
C188 C205 1.394 . S
C189 C188 1.397 . S
C189 C190 1.438 . S
C189 C194 1.429 . S
C190 C189 1.438 . S
C190 C191 1.428 . S
C190 C203 1.394 . S
C191 H183 0.949 . S
C191 C190 1.428 . S
C191 C192 1.345 . S
C192 H184 0.950 . S
C192 C191 1.345 . S
C192 C193 1.424 . S
C193 H185 0.951 . S
C193 C192 1.424 . S
C193 C194 1.347 . S
C194 H186 0.951 . S
C194 C189 1.429 . S
C194 C193 1.347 . S
H195 C196 0.951 . S
C196 H195 0.951 . S
C196 C202 1.265 . S
H197 C202 0.950 . S
H198 C206 0.949 . S
H199 C207 0.950 . S
H200 C208 0.951 . S
H201 C209 0.951 . S
C202 C196 1.265 . S
C202 H197 0.950 . S
C202 C203 1.478 . S
C203 C190 1.394 . S
C203 C202 1.478 . S
C203 C204 1.397 . S
C204 C203 1.397 . S
C204 C205 1.438 . S
C204 C209 1.429 . S
C205 C188 1.394 . S
C205 C204 1.438 . S
C205 C206 1.428 . S
C206 H198 0.949 . S
C206 C205 1.428 . S
C206 C207 1.345 . S
C207 H199 0.950 . S
C207 C206 1.345 . S
C207 C208 1.424 . S
C208 H200 0.951 . S
C208 C207 1.424 . S
C208 C209 1.347 . S
C209 H201 0.951 . S
C209 C204 1.429 . S
C209 C208 1.347 . S
H210 C211 0.947 1_554 S
C211 H210 0.947 1_556 S
C211 C217 1.268 . S
H212 C217 0.950 . S
H213 C221 0.949 . S
H214 C222 0.950 . S
H215 C223 0.951 . S
H216 C224 0.951 . S
C217 C211 1.268 . S
C217 H212 0.950 . S
C217 C218 1.478 . S
C218 C217 1.478 . S
C218 C219 1.397 . S
C218 C235 1.394 1_556 S
C219 C218 1.397 . S
C219 C220 1.438 . S
C219 C224 1.429 . S
C220 C219 1.438 . S
C220 C221 1.428 . S
C220 C233 1.394 1_556 S
C221 H213 0.949 . S
C221 C220 1.428 . S
C221 C222 1.345 . S
C222 H214 0.950 . S
C222 C221 1.345 . S
C222 C223 1.424 . S
C223 H215 0.951 . S
C223 C222 1.424 . S
C223 C224 1.347 . S
C224 H216 0.951 . S
C224 C219 1.429 . S
C224 C223 1.347 . S
H225 C226 0.951 . S
C226 H225 0.951 . S
C226 C232 1.265 1_556 S
H227 C232 0.950 . S
H228 C236 0.949 . S
H229 C237 0.950 . S
H230 C238 0.951 . S
H231 C239 0.951 . S
C232 C226 1.265 1_554 S
C232 H227 0.950 . S
C232 C233 1.478 . S
C233 C220 1.394 1_554 S
C233 C232 1.478 . S
C233 C234 1.397 . S
C234 C233 1.397 . S
C234 C235 1.438 . S
C234 C239 1.429 . S
C235 C218 1.394 1_554 S
C235 C234 1.438 . S
C235 C236 1.428 . S
C236 H228 0.949 . S
C236 C235 1.428 . S
C236 C237 1.345 . S
C237 H229 0.950 . S
C237 C236 1.345 . S
C237 C238 1.424 . S
C238 H230 0.951 . S
C238 C237 1.424 . S
C238 C239 1.347 . S
C239 H231 0.951 . S
C239 C234 1.429 . S
C239 C238 1.347 . S
H240 C241 0.951 . S
C241 H240 0.951 . S
C241 C247 1.265 1_556 S
H242 C247 0.950 . S
H243 C251 0.949 . S
H244 C252 0.950 . S
H245 C253 0.951 . S
H246 C254 0.951 . S
C247 C241 1.265 1_554 S
C247 H242 0.950 . S
C247 C248 1.479 . S
C248 C247 1.479 . S
C248 C249 1.400 . S
C248 C265 1.390 1_554 S
C249 C248 1.400 . S
C249 C250 1.438 . S
C249 C254 1.429 . S
C250 C249 1.438 . S
C250 C251 1.428 . S
C250 C263 1.394 1_554 S
C251 H243 0.949 . S
C251 C250 1.428 . S
C251 C252 1.345 . S
C252 H244 0.950 . S
C252 C251 1.345 . S
C252 C253 1.424 . S
C253 H245 0.951 . S
C253 C252 1.424 . S
C253 C254 1.347 . S
C254 H246 0.951 . S
C254 C249 1.429 . S
C254 C253 1.347 . S
H255 C256 0.952 . S
C256 H255 0.952 . S
C256 C262 1.264 1_554 S
H257 C262 0.950 . S
H258 C266 0.949 . S
H259 C267 0.950 . S
H260 C268 0.951 . S
H261 C269 0.951 . S
C262 C256 1.264 1_556 S
C262 H257 0.950 . S
C262 C263 1.478 . S
C263 C250 1.394 1_556 S
C263 C262 1.478 . S
C263 C264 1.397 . S
C264 C263 1.397 . S
C264 C265 1.438 . S
C264 C269 1.429 . S
C265 C248 1.390 1_556 S
C265 C264 1.438 . S
C265 C266 1.428 . S
C266 H258 0.949 . S
C266 C265 1.428 . S
C266 C267 1.345 . S
C267 H259 0.950 . S
C267 C266 1.345 . S
C267 C268 1.424 . S
C268 H260 0.951 . S
C268 C267 1.424 . S
C268 C269 1.347 . S
C269 H261 0.951 . S
C269 C264 1.429 . S
C269 C268 1.347 . S
H270 C271 0.951 . S
C271 H270 0.951 . S
C271 C277 1.265 . S
H272 C277 0.950 . S
H273 C281 0.949 . S
H274 C282 0.950 . S
H275 C283 0.951 . S
H276 C284 0.951 . S
C277 C271 1.265 . S
C277 H272 0.950 . S
C277 C278 1.478 . S
C278 C277 1.478 . S
C278 C279 1.397 1_556 S
C278 C295 1.394 . S
C279 C278 1.397 1_554 S
C279 C280 1.438 . S
C279 C284 1.429 . S
C280 C279 1.438 . S
C280 C281 1.428 . S
C280 C293 1.394 1_554 S
C281 H273 0.949 . S
C281 C280 1.428 . S
C281 C282 1.345 . S
C282 H274 0.950 . S
C282 C281 1.345 . S
C282 C283 1.424 . S
C283 H275 0.951 . S
C283 C282 1.424 . S
C283 C284 1.347 . S
C284 H276 0.951 . S
C284 C279 1.429 . S
C284 C283 1.347 . S
H285 C286 0.951 . S
C286 H285 0.951 . S
C286 C292 1.265 . S
H287 C292 0.950 . S
H288 C296 0.949 . S
H289 C297 0.950 . S
H290 C298 0.951 . S
H291 C299 0.951 . S
C292 C286 1.265 . S
C292 H287 0.950 . S
C292 C293 1.478 . S
C293 C280 1.394 1_556 S
C293 C292 1.478 . S
C293 C294 1.397 . S
C294 C293 1.397 . S
C294 C295 1.438 . S
C294 C299 1.429 . S
C295 C278 1.394 . S
C295 C294 1.438 . S
C295 C296 1.428 . S
C296 H288 0.949 . S
C296 C295 1.428 . S
C296 C297 1.345 . S
C297 H289 0.950 . S
C297 C296 1.345 . S
C297 C298 1.424 . S
C298 H290 0.951 . S
C298 C297 1.424 . S
C298 C299 1.347 . S
C299 H291 0.951 . S
C299 C294 1.429 . S
C299 C298 1.347 . S
H300 C301 0.951 1_556 S
C301 H300 0.951 1_554 S
C301 C307 1.265 . S
H302 C307 0.950 . S
H303 C311 0.949 . S
H304 C312 0.950 . S
H305 C313 0.951 . S
H306 C314 0.951 . S
C307 C301 1.265 . S
C307 H302 0.950 . S
C307 C308 1.478 . S
C308 C307 1.478 . S
C308 C309 1.397 1_554 S
C308 C325 1.394 . S
C309 C308 1.397 1_556 S
C309 C310 1.438 . S
C309 C314 1.429 . S
C310 C309 1.438 . S
C310 C311 1.428 . S
C310 C323 1.394 1_556 S
C311 H303 0.949 . S
C311 C310 1.428 . S
C311 C312 1.345 . S
C312 H304 0.950 . S
C312 C311 1.345 . S
C312 C313 1.424 . S
C313 H305 0.951 . S
C313 C312 1.424 . S
C313 C314 1.347 . S
C314 H306 0.951 . S
C314 C309 1.429 . S
C314 C313 1.347 . S
H315 C316 0.951 . S
C316 H315 0.951 . S
C316 C322 1.265 . S
H317 C322 0.950 1_556 S
H318 C326 0.949 . S
H319 C327 0.950 . S
H320 C328 0.951 . S
H321 C329 0.951 . S
C322 C316 1.265 . S
C322 H317 0.950 1_554 S
C322 C323 1.478 . S
C323 C310 1.394 1_554 S
C323 C322 1.478 . S
C323 C324 1.397 . S
C324 C323 1.397 . S
C324 C325 1.438 . S
C324 C329 1.429 . S
C325 C308 1.394 . S
C325 C324 1.438 . S
C325 C326 1.428 . S
C326 H318 0.949 . S
C326 C325 1.428 . S
C326 C327 1.345 . S
C327 H319 0.950 . S
C327 C326 1.345 . S
C327 C328 1.424 . S
C328 H320 0.951 . S
C328 C327 1.424 . S
C328 C329 1.347 . S
C329 H321 0.951 . S
C329 C324 1.429 . S
C329 C328 1.347 . S
H330 C331 0.951 1_556 S
C331 H330 0.951 1_554 S
C331 C337 1.265 . S
H332 C337 0.950 . S
H333 C341 0.949 . S
H334 C342 0.950 . S
H335 C343 0.951 . S
H336 C344 0.951 . S
C337 C331 1.265 . S
C337 H332 0.950 . S
C337 C338 1.478 . S
C338 C337 1.478 . S
C338 C339 1.397 . S
C338 C355 1.394 1_554 S
C339 C338 1.397 . S
C339 C340 1.438 . S
C339 C344 1.429 . S
C340 C339 1.438 . S
C340 C341 1.428 . S
C340 C353 1.394 . S
C341 H333 0.949 . S
C341 C340 1.428 . S
C341 C342 1.345 . S
C342 H334 0.950 . S
C342 C341 1.345 . S
C342 C343 1.424 . S
C343 H335 0.951 . S
C343 C342 1.424 . S
C343 C344 1.347 . S
C344 H336 0.951 . S
C344 C339 1.429 . S
C344 C343 1.347 . S
H345 C346 0.951 . S
C346 H345 0.951 . S
C346 C352 1.265 . S
H347 C352 0.950 1_556 S
H348 C356 0.949 . S
H349 C357 0.950 . S
H350 C358 0.951 . S
H351 C359 0.951 . S
C352 C346 1.265 . S
C352 H347 0.950 1_554 S
C352 C353 1.478 . S
C353 C340 1.394 . S
C353 C352 1.478 . S
C353 C354 1.397 1_554 S
C354 C353 1.397 1_556 S
C354 C355 1.438 . S
C354 C359 1.429 . S
C355 C338 1.394 1_556 S
C355 C354 1.438 . S
C355 C356 1.428 . S
C356 H348 0.949 . S
C356 C355 1.428 . S
C356 C357 1.345 . S
C357 H349 0.950 . S
C357 C356 1.345 . S
C357 C358 1.424 . S
C358 H350 0.951 . S
C358 C357 1.424 . S
C358 C359 1.347 . S
C359 H351 0.951 . S
C359 C354 1.429 . S
C359 C358 1.347 . S
H360 C361 0.951 . S
C361 H360 0.951 . S
C361 C367 1.265 1_554 S
H362 C367 0.950 . S
H363 C371 0.949 . S
H364 C372 0.950 . S
H365 C373 0.951 . S
H366 C374 0.951 . S
C367 C361 1.265 1_556 S
C367 H362 0.950 . S
C367 C368 1.480 . S
C368 C367 1.480 . S
C368 C369 1.406 . S
C368 C385 1.383 1_556 S
C369 C368 1.406 . S
C369 C370 1.438 . S
C369 C374 1.429 . S
C370 C369 1.438 . S
C370 C371 1.428 . S
C370 C383 1.394 1_556 S
C371 H363 0.949 . S
C371 C370 1.428 . S
C371 C372 1.345 . S
C372 H364 0.950 . S
C372 C371 1.345 . S
C372 C373 1.424 . S
C373 H365 0.951 . S
C373 C372 1.424 . S
C373 C374 1.347 . S
C374 H366 0.951 . S
C374 C369 1.429 . S
C374 C373 1.347 . S
H375 C376 0.951 1_556 S
C376 H375 0.951 1_554 S
C376 C382 1.265 . S
H377 C382 0.950 . S
H378 C386 0.949 . S
H379 C387 0.950 . S
H380 C388 0.951 . S
H381 C389 0.951 . S
C382 C376 1.265 . S
C382 H377 0.950 . S
C382 C383 1.478 . S
C383 C370 1.394 1_554 S
C383 C382 1.478 . S
C383 C384 1.397 . S
C384 C383 1.397 . S
C384 C385 1.438 . S
C384 C389 1.429 . S
C385 C368 1.383 1_554 S
C385 C384 1.438 . S
C385 C386 1.428 . S
C386 H378 0.949 . S
C386 C385 1.428 . S
C386 C387 1.345 . S
C387 H379 0.950 . S
C387 C386 1.345 . S
C387 C388 1.424 . S
C388 H380 0.951 . S
C388 C387 1.424 . S
C388 C389 1.347 . S
C389 H381 0.951 . S
C389 C384 1.429 . S
C389 C388 1.347 . S
C121 C9 1.432 . S
C136 C18 1.432 1_655 S
C151 C49 1.484 1_565 S
C166 C58 1.480 1_545 S
C181 C98 1.439 . S
C196 C89 1.439 . S
C211 C19 2.594 1_556 S
C226 C90 2.534 1_556 S
C241 C46 0.889 . S
C256 C6 0.890 1_554 S
C271 C59 1.978 . S
C286 C86 1.916 1_556 S
C301 C10 2.598 1_554 S
C316 C99 2.529 1_554 S
C331 C15 0.890 . S
C346 C55 0.888 . S
C361 C95 1.986 1_554 S
C376 C50 2.008 . S
