# Generated by pormake.
# Topology sgn, (3)-cn, num edge types: 1
# Building blocks:
#     Node 0, Type 0, BuildingBlock: OLANEW_clean_sbu_2, # of connection points: 3
#     Node 1, Type 0, BuildingBlock: OLANEW_clean_sbu_2, # of connection points: 3
#     Node 2, Type 0, BuildingBlock: OLANEW_clean_sbu_2, # of connection points: 3
#     Node 3, Type 0, BuildingBlock: OLANEW_clean_sbu_2, # of connection points: 3
#     Node 4, Type 0, BuildingBlock: OLANEW_clean_sbu_2, # of connection points: 3
#     Node 5, Type 0, BuildingBlock: OLANEW_clean_sbu_2, # of connection points: 3
#     Node 6, Type 0, BuildingBlock: OLANEW_clean_sbu_2, # of connection points: 3
#     Node 7, Type 0, BuildingBlock: OLANEW_clean_sbu_2, # of connection points: 3
#     Node 8, Type 0, BuildingBlock: OLANEW_clean_sbu_2, # of connection points: 3
#     Node 9, Type 0, BuildingBlock: OLANEW_clean_sbu_2, # of connection points: 3
#     Node 10, Type 0, BuildingBlock: OLANEW_clean_sbu_2, # of connection points: 3
#     Node 11, Type 0, BuildingBlock: OLANEW_clean_sbu_2, # of connection points: 3
#     Node 12, Type 0, BuildingBlock: OLANEW_clean_sbu_2, # of connection points: 3
#     Node 13, Type 0, BuildingBlock: OLANEW_clean_sbu_2, # of connection points: 3
#     Node 14, Type 0, BuildingBlock: OLANEW_clean_sbu_2, # of connection points: 3
#     Node 15, Type 0, BuildingBlock: OLANEW_clean_sbu_2, # of connection points: 3
#     Node 16, Type 0, BuildingBlock: OLANEW_clean_sbu_2, # of connection points: 3
#     Node 17, Type 0, BuildingBlock: OLANEW_clean_sbu_2, # of connection points: 3
#     Node 18, Type 0, BuildingBlock: OLANEW_clean_sbu_2, # of connection points: 3
#     Node 19, Type 0, BuildingBlock: OLANEW_clean_sbu_2, # of connection points: 3
#     Node 20, Type 0, BuildingBlock: OLANEW_clean_sbu_2, # of connection points: 3
#     Node 21, Type 0, BuildingBlock: OLANEW_clean_sbu_2, # of connection points: 3
#     Node 22, Type 0, BuildingBlock: OLANEW_clean_sbu_2, # of connection points: 3
#     Node 23, Type 0, BuildingBlock: OLANEW_clean_sbu_2, # of connection points: 3
#     Edge 24, Type (0, 0), BuildingBlock: OJICUG_clean_linker_0, # of connection points: 2
#     Edge 25, Type (0, 0), BuildingBlock: OJICUG_clean_linker_0, # of connection points: 2
#     Edge 26, Type (0, 0), BuildingBlock: OJICUG_clean_linker_0, # of connection points: 2
#     Edge 27, Type (0, 0), BuildingBlock: OJICUG_clean_linker_0, # of connection points: 2
#     Edge 28, Type (0, 0), BuildingBlock: OJICUG_clean_linker_0, # of connection points: 2
#     Edge 29, Type (0, 0), BuildingBlock: OJICUG_clean_linker_0, # of connection points: 2
#     Edge 30, Type (0, 0), BuildingBlock: OJICUG_clean_linker_0, # of connection points: 2
#     Edge 31, Type (0, 0), BuildingBlock: OJICUG_clean_linker_0, # of connection points: 2
#     Edge 32, Type (0, 0), BuildingBlock: OJICUG_clean_linker_0, # of connection points: 2
#     Edge 33, Type (0, 0), BuildingBlock: OJICUG_clean_linker_0, # of connection points: 2
#     Edge 34, Type (0, 0), BuildingBlock: OJICUG_clean_linker_0, # of connection points: 2
#     Edge 35, Type (0, 0), BuildingBlock: OJICUG_clean_linker_0, # of connection points: 2
#     Edge 36, Type (0, 0), BuildingBlock: OJICUG_clean_linker_0, # of connection points: 2
#     Edge 37, Type (0, 0), BuildingBlock: OJICUG_clean_linker_0, # of connection points: 2
#     Edge 38, Type (0, 0), BuildingBlock: OJICUG_clean_linker_0, # of connection points: 2
#     Edge 39, Type (0, 0), BuildingBlock: OJICUG_clean_linker_0, # of connection points: 2
#     Edge 40, Type (0, 0), BuildingBlock: OJICUG_clean_linker_0, # of connection points: 2
#     Edge 41, Type (0, 0), BuildingBlock: OJICUG_clean_linker_0, # of connection points: 2
#     Edge 42, Type (0, 0), BuildingBlock: OJICUG_clean_linker_0, # of connection points: 2
#     Edge 43, Type (0, 0), BuildingBlock: OJICUG_clean_linker_0, # of connection points: 2
#     Edge 44, Type (0, 0), BuildingBlock: OJICUG_clean_linker_0, # of connection points: 2
#     Edge 45, Type (0, 0), BuildingBlock: OJICUG_clean_linker_0, # of connection points: 2
#     Edge 46, Type (0, 0), BuildingBlock: OJICUG_clean_linker_0, # of connection points: 2
#     Edge 47, Type (0, 0), BuildingBlock: OJICUG_clean_linker_0, # of connection points: 2
#     Edge 48, Type (0, 0), BuildingBlock: OJICUG_clean_linker_0, # of connection points: 2
#     Edge 49, Type (0, 0), BuildingBlock: OJICUG_clean_linker_0, # of connection points: 2
#     Edge 50, Type (0, 0), BuildingBlock: OJICUG_clean_linker_0, # of connection points: 2
#     Edge 51, Type (0, 0), BuildingBlock: OJICUG_clean_linker_0, # of connection points: 2
#     Edge 52, Type (0, 0), BuildingBlock: OJICUG_clean_linker_0, # of connection points: 2
#     Edge 53, Type (0, 0), BuildingBlock: OJICUG_clean_linker_0, # of connection points: 2
#     Edge 54, Type (0, 0), BuildingBlock: OJICUG_clean_linker_0, # of connection points: 2
#     Edge 55, Type (0, 0), BuildingBlock: OJICUG_clean_linker_0, # of connection points: 2
#     Edge 56, Type (0, 0), BuildingBlock: OJICUG_clean_linker_0, # of connection points: 2
#     Edge 57, Type (0, 0), BuildingBlock: OJICUG_clean_linker_0, # of connection points: 2
#     Edge 58, Type (0, 0), BuildingBlock: OJICUG_clean_linker_0, # of connection points: 2
#     Edge 59, Type (0, 0), BuildingBlock: OJICUG_clean_linker_0, # of connection points: 2
# Relax obj value: 0.098
# Max RMSD: 0.302
# Mean RMSD: 0.084
data_MOF--net-sgn--node1-OLANEW_clean_sbu_2--edge1-OJICUG_clean_linker_0
_symmetry_space_group_name_H-M    P1
_symmetry_Int_Tables_number       1
_symmetry_cell_setting            triclinic
loop_
_symmetry_equiv_pos_as_xyz
'x, y, z'
_cell_length_a     26.379398
_cell_length_b     56.330189
_cell_length_c     25.469622
_cell_angle_alpha  88.98642
_cell_angle_beta   103.04878
_cell_angle_gamma 88.547561
loop_
_atom_site_label
_atom_site_type_symbol
_atom_site_fract_x
_atom_site_fract_y
_atom_site_fract_z
_atom_type_partial_charge
O0 O 0.26455 0.24692 0.1462 0.0
Cd1 Cd 0.33965 0.25765 0.11072 0.0
O2 O 0.21674 0.27916 0.11802 0.0
Cd3 Cd 0.14548 0.30193 0.10291 0.0
O4 O 0.07108 0.32111 0.09891 0.0
C5 C 0.06627 0.34344 0.0901 0.0
O6 O 0.10666 0.35516 0.08287 0.0
C7 C 0.22271 0.25912 0.14305 0.0
C8 C 0.36507 0.22389 0.04084 0.0
O9 O 0.37678 0.22022 0.09195 0.0
O10 O 0.34051 0.24328 0.02256 0.0
O11 O 0.05023 0.80171 0.17506 0.0
Cd12 Cd 0.06993 0.81953 0.09411 0.0
O13 O 0.05823 0.76862 0.13389 0.0
Cd14 Cd 0.05121 0.73051 0.12347 0.0
O15 O 0.01819 0.69669 0.09625 0.0
C16 C 0.96931 0.69492 0.0903 0.0
O17 O 0.942 0.71312 0.10188 0.0
C18 C 0.05036 0.77918 0.17512 0.0
C19 C 0.17017 0.83686 0.11872 0.0
O20 O 0.1303 0.8505 0.11759 0.0
O21 O 0.16268 0.81496 0.10751 0.0
O22 O 0.56073 0.66624 0.66919 0.0
Cd23 Cd 0.59594 0.65011 0.76063 0.0
O24 O 0.48121 0.6702 0.6819 0.0
Cd25 Cd 0.50163 0.66324 0.76889 0.0
O26 O 0.49424 0.67428 0.84875 0.0
C27 C 0.5177 0.69275 0.86781 0.0
O28 O 0.54838 0.70309 0.84083 0.0
C29 C 0.51272 0.67149 0.65089 0.0
C30 C 0.5842 0.60101 0.76191 0.0
O31 O 0.54973 0.61517 0.77346 0.0
O32 O 0.62482 0.61004 0.75095 0.0
O33 O 0.25886 0.24273 0.68891 0.0
Cd34 Cd 0.16439 0.23836 0.66589 0.0
O35 O 0.24594 0.25679 0.76436 0.0
Cd36 Cd 0.26328 0.2731 0.84365 0.0
O37 O 0.25441 0.29112 0.91654 0.0
C38 C 0.29153 0.29343 0.95753 0.0
O39 O 0.33809 0.28485 0.95664 0.0
C40 C 0.27738 0.25095 0.73522 0.0
C41 C 0.13631 0.19127 0.6481 0.0
O42 O 0.13549 0.20571 0.60844 0.0
O43 O 0.15046 0.19904 0.69601 0.0
O44 O 0.99506 0.73115 0.39056 0.0
Cd45 Cd 0.99265 0.7082 0.47268 0.0
O46 O 0.07777 0.72086 0.39995 0.0
Cd47 Cd 0.08734 0.71163 0.4855 0.0
O48 O 0.09662 0.72066 0.57039 0.0
C49 C 0.07197 0.73927 0.57945 0.0
O50 O 0.04191 0.7509 0.53839 0.0
C51 C 0.03594 0.73045 0.37191 0.0
C52 C 0.92744 0.66949 0.45222 0.0
O53 O 0.97216 0.66896 0.44049 0.0
O54 O 0.91326 0.68825 0.47348 0.0
O55 O 0.47012 0.71867 0.40763 0.0
Cd56 Cd 0.4441 0.74168 0.32247 0.0
O57 O 0.39615 0.72695 0.43065 0.0
Cd58 Cd 0.3683 0.75384 0.36719 0.0
O59 O 0.34787 0.79079 0.342 0.0
C60 C 0.30171 0.79817 0.32079 0.0
O61 O 0.26422 0.78285 0.31026 0.0
C62 C 0.44029 0.71611 0.44012 0.0
C63 C 0.4804 0.72155 0.23759 0.0
O64 O 0.43678 0.71568 0.24746 0.0
O65 O 0.50702 0.73683 0.26803 0.0
O66 O 0.53006 0.25194 0.77587 0.0
Cd67 Cd 0.62537 0.24798 0.80268 0.0
O68 O 0.52142 0.25189 0.85981 0.0
Cd69 Cd 0.60427 0.24541 0.89282 0.0
O70 O 0.67245 0.22223 0.92199 0.0
C71 C 0.6766 0.20418 0.89387 0.0
O72 O 0.64202 0.2016 0.84847 0.0
C73 C 0.50105 0.25307 0.80953 0.0
C74 C 0.67629 0.28015 0.74961 0.0
O75 O 0.66523 0.25949 0.73073 0.0
O76 O 0.66302 0.28557 0.79342 0.0
O77 O 0.06598 0.19923 0.25655 0.0
Cd78 Cd 0.00532 0.18195 0.30543 0.0
O79 O 0.0168 0.23101 0.2261 0.0
Cd80 Cd 0.94345 0.21637 0.23542 0.0
O81 O 0.86228 0.2129 0.19228 0.0
C82 C 0.84664 0.22766 0.15322 0.0
O83 O 0.87918 0.24345 0.14299 0.0
C84 C 0.06008 0.21959 0.2332 0.0
C85 C 0.06019 0.15176 0.38881 0.0
O86 O 0.03703 0.14358 0.34329 0.0
O87 O 0.05689 0.1742 0.39537 0.0
O88 O 0.28274 0.9802 0.57728 0.0
Cd89 Cd 0.23823 0.99574 0.64448 0.0
O90 O 0.29681 0.01483 0.54217 0.0
Cd91 Cd 0.24629 0.03842 0.57674 0.0
O92 O 0.18854 0.06608 0.5395 0.0
C93 C 0.19133 0.08834 0.54665 0.0
O94 O 0.2298 0.09652 0.58332 0.0
C95 C 0.30296 0.99232 0.54514 0.0
C96 C 0.25065 0.96239 0.72946 0.0
O97 O 0.21042 0.96246 0.69028 0.0
O98 O 0.28421 0.9784 0.72905 0.0
O99 O 0.10557 0.86913 0.99814 0.0
Cd100 Cd 0.0208 0.88954 0.97211 0.0
O101 O 0.0816 0.84474 0.9316 0.0
Cd102 Cd 0.09233 0.81753 0.8743 0.0
O103 O 0.08195 0.79865 0.79836 0.0
C104 C 0.10501 0.77914 0.79223 0.0
O105 O 0.13778 0.76907 0.8337 0.0
C106 C 0.1164 0.85186 0.97073 0.0
C107 C 0.02195 0.91791 0.88189 0.0
O108 O 0.0357 0.9261 0.92947 0.0
O109 O 0.00609 0.89656 0.87708 0.0
O110 O 0.21422 0.96619 0.3275 0.0
Cd111 Cd 0.24482 0.94739 0.25499 0.0
O112 O 0.26073 0.99826 0.3307 0.0
Cd113 Cd 0.29385 0.0305 0.37024 0.0
O114 O 0.34149 0.05472 0.42594 0.0
C115 C 0.32525 0.06252 0.46592 0.0
O116 O 0.27803 0.05748 0.47039 0.0
C117 C 0.22851 0.98585 0.34882 0.0
C118 C 0.26005 0.89892 0.27971 0.0
O119 O 0.21664 0.90702 0.25081 0.0
O120 O 0.29601 0.9137 0.29616 0.0
O121 O 0.72513 0.02485 0.06768 0.0
Cd122 Cd 0.77023 0.99915 0.14259 0.0
O123 O 0.79252 0.0416 0.0464 0.0
Cd124 Cd 0.82171 0.07011 0.00345 0.0
O125 O 0.80216 0.10395 0.96047 0.0
C126 C 0.80279 0.12276 0.98735 0.0
O127 O 0.81984 0.12146 0.03997 0.0
C128 C 0.74352 0.03954 0.03902 0.0
C129 C 0.69145 0.98254 0.18893 0.0
O130 O 0.71222 0.00254 0.20198 0.0
O131 O 0.70969 0.96978 0.15589 0.0
O132 O 0.38182 0.95934 0.3363 0.0
Cd133 Cd 0.39836 0.94587 0.25095 0.0
O134 O 0.39966 0.92526 0.38102 0.0
Cd135 Cd 0.41138 0.9083 0.30774 0.0
O136 O 0.36701 0.89494 0.23165 0.0
C137 C 0.36817 0.87333 0.21839 0.0
O138 O 0.4034 0.85867 0.24762 0.0
C139 C 0.38586 0.94711 0.37958 0.0
C140 C 0.49754 0.957 0.23937 0.0
O141 O 0.46009 0.97254 0.22986 0.0
O142 O 0.48828 0.93605 0.25456 0.0
O143 O 0.32817 0.79089 0.06635 0.0
Cd144 Cd 0.41227 0.77153 0.10854 0.0
O145 O 0.36257 0.81971 0.02776 0.0
Cd146 Cd 0.3538 0.85146 0.97461 0.0
O147 O 0.33587 0.88243 0.91947 0.0
C148 C 0.29068 0.88567 0.88914 0.0
O149 O 0.25475 0.87019 0.8914 0.0
C150 C 0.32272 0.80985 0.03754 0.0
C151 C 0.45273 0.74387 0.03706 0.0
O152 O 0.4207 0.73525 0.06289 0.0
O153 O 0.46561 0.76552 0.04516 0.0
O154 O 0.10884 0.03217 0.5205 0.0
Cd155 Cd 0.0626 0.0457 0.58789 0.0
O156 O 0.13993 0.99905 0.56448 0.0
Cd157 Cd 0.10346 0.00405 0.63221 0.0
O158 O 0.07772 0.99055 0.70218 0.0
C159 C 0.058 0.97013 0.69733 0.0
O160 O 0.05269 0.95949 0.65098 0.0
C161 C 0.13599 0.01302 0.52398 0.0
C162 C 0.08293 0.09325 0.61018 0.0
O163 O 0.10982 0.07653 0.63929 0.0
O164 O 0.04607 0.08747 0.57086 0.0
O165 O 0.55126 0.1033 0.89562 0.0
Cd166 Cd 0.47331 0.123 0.83994 0.0
O167 O 0.59058 0.09243 0.83185 0.0
Cd168 Cd 0.52519 0.1037 0.7659 0.0
O169 O 0.4631 0.09945 0.69356 0.0
C170 C 0.47433 0.09809 0.64767 0.0
O171 O 0.5229 0.1006 0.64435 0.0
C172 C 0.58997 0.09352 0.88155 0.0
C173 C 0.43351 0.15622 0.90165 0.0
O174 O 0.42384 0.13412 0.90441 0.0
O175 O 0.46131 0.1628 0.86905 0.0
O176 O 0.48701 0.24364 0.06104 0.0
Cd177 Cd 0.52661 0.23466 0.98592 0.0
O178 O 0.47784 0.28214 0.04315 0.0
Cd179 Cd 0.49419 0.2829 0.9631 0.0
O180 O 0.48392 0.30319 0.88745 0.0
C181 C 0.43759 0.30724 0.86066 0.0
O182 O 0.3988 0.29843 0.8784 0.0
C183 C 0.47522 0.26441 0.0739 0.0
C184 C 0.6331 0.23034 0.03122 0.0
O185 O 0.61226 0.25004 0.00985 0.0
O186 O 0.60395 0.21237 0.02916 0.0
O187 O 0.73731 0.52246 0.33268 0.0
Cd188 Cd 0.71637 0.55531 0.38682 0.0
O189 O 0.68421 0.49982 0.36412 0.0
Cd190 Cd 0.63523 0.46938 0.36873 0.0
O191 O 0.59313 0.43724 0.37781 0.0
C192 C 0.61822 0.41751 0.38777 0.0
O193 O 0.66886 0.41703 0.3923 0.0
C194 C 0.7147 0.50277 0.33241 0.0
C195 C 0.78989 0.59077 0.40831 0.0
O196 O 0.78592 0.5755 0.44493 0.0
O197 O 0.76002 0.58908 0.3614 0.0
O198 O 0.65336 0.62301 0.01298 0.0
Cd199 Cd 0.59492 0.65747 0.98165 0.0
O200 O 0.62303 0.60543 0.93651 0.0
Cd201 Cd 0.61297 0.5736 0.88784 0.0
O202 O 0.59961 0.53564 0.88363 0.0
C203 C 0.63462 0.52069 0.87767 0.0
O204 O 0.67859 0.52849 0.86895 0.0
C205 C 0.6534 0.60516 0.98312 0.0
C206 C 0.55747 0.67859 0.06456 0.0
O207 O 0.53353 0.66156 0.03781 0.0
O208 O 0.59931 0.68557 0.05231 0.0
O209 O 0.75623 0.4399 0.13382 0.0
Cd210 Cd 0.76979 0.41543 0.05917 0.0
O211 O 0.69671 0.41814 0.1579 0.0
Cd212 Cd 0.68586 0.40152 0.07937 0.0
O213 O 0.67329 0.41929 1.00028 0.0
C214 C 0.63061 0.43085 0.98317 0.0
O215 O 0.59338 0.4285 0.00937 0.0
C216 C 0.7269 0.43562 0.16609 0.0
C217 C 0.86774 0.39269 0.075 0.0
O218 O 0.85985 0.41391 0.05527 0.0
O219 O 0.82954 0.38236 0.08825 0.0
O220 O 0.4407 0.4058 0.55101 0.0
Cd221 Cd 0.36641 0.40551 0.5928 0.0
O222 O 0.46901 0.43434 0.6061 0.0
Cd223 Cd 0.52353 0.45955 0.65082 0.0
O224 O 0.55814 0.49189 0.68735 0.0
C225 C 0.53543 0.50309 0.71885 0.0
O226 O 0.49352 0.4942 0.7303 0.0
C227 C 0.4762 0.4202 0.56983 0.0
C228 C 0.38894 0.37264 0.67849 0.0
O229 O 0.35994 0.36715 0.6331 0.0
O230 O 0.40619 0.39372 0.68362 0.0
O231 O 0.45975 0.2714 0.32185 0.0
Cd232 Cd 0.46128 0.2878 0.40999 0.0
O233 O 0.39908 0.29836 0.2887 0.0
Cd234 Cd 0.34428 0.31845 0.22441 0.0
O235 O 0.28351 0.34466 0.18649 0.0
C236 C 0.2571 0.34739 0.13821 0.0
O237 O 0.22098 0.36439 0.12769 0.0
C238 C 0.43053 0.28195 0.28124 0.0
C239 C 0.51194 0.33074 0.41154 0.0
O240 O 0.5375 0.31119 0.42628 0.0
O241 O 0.46215 0.33014 0.39804 0.0
O242 O 0.78992 0.51215 0.10026 0.0
Cd243 Cd 0.86662 0.48695 0.14125 0.0
O244 O 0.84028 0.52622 0.05057 0.0
Cd245 Cd 0.86288 0.55493 0.00324 0.0
O246 O 0.89541 0.59003 0.00612 0.0
C247 C 0.87083 0.60659 0.02393 0.0
O248 O 0.82589 0.60206 0.03548 0.0
C249 C 0.79688 0.52683 0.06431 0.0
C250 C 0.86175 0.46883 0.24264 0.0
O251 O 0.87677 0.48999 0.23697 0.0
O252 O 0.84997 0.45618 0.20056 0.0
O253 O 0.7157 0.42435 0.54654 0.0
Cd254 Cd 0.80701 0.41797 0.54373 0.0
O255 O 0.69596 0.38872 0.51584 0.0
Cd256 Cd 0.77534 0.37448 0.52928 0.0
O257 O 0.77649 0.34476 0.58559 0.0
C258 C 0.76133 0.35012 0.62797 0.0
O259 O 0.75278 0.37263 0.63675 0.0
C260 C 0.68187 0.40885 0.53026 0.0
C261 C 0.82653 0.43428 0.44628 0.0
O262 O 0.81327 0.41283 0.45212 0.0
O263 O 0.83054 0.448 0.48654 0.0
C264 C 0.14005 0.2149 0.19676 0.0
C265 C 0.10289 0.22979 0.2124 0.0
H266 H 0.20617 0.21258 0.16133 0.0
C267 C 0.10617 0.25451 0.20664 0.0
H268 H 0.13847 0.19577 0.20077 0.0
C269 C 0.14565 0.26417 0.1852 0.0
C270 C 0.18144 0.24928 0.16722 0.0
H271 H 0.07865 0.26642 0.21948 0.0
H272 H 0.14872 0.28323 0.18411 0.0
C273 C 0.17872 0.22455 0.17409 0.0
C274 C 0.00367 0.76172 0.30009 0.0
C275 C 0.03604 0.74173 0.31909 0.0
H276 H 0.98357 0.78959 0.23973 0.0
C277 C 0.07095 0.73348 0.28876 0.0
H278 H 0.97667 0.76856 0.32289 0.0
C279 C 0.07397 0.74515 0.24074 0.0
C280 C 0.043 0.76561 0.22277 0.0
H281 H 0.09638 0.71813 0.30249 0.0
H282 H 0.10213 0.73874 0.21886 0.0
C283 C 0.00772 0.77378 0.25273 0.0
C284 C 0.42341 0.69814 0.52486 0.0
C285 C 0.45801 0.70212 0.49119 0.0
H286 H 0.41332 0.68524 0.60107 0.0
C287 C 0.51021 0.69421 0.50884 0.0
H288 H 0.38287 0.70385 0.51248 0.0
C289 C 0.52785 0.68354 0.56008 0.0
C290 C 0.49359 0.6805 0.59459 0.0
H291 H 0.53788 0.69698 0.48389 0.0
H292 H 0.56861 0.6783 0.57316 0.0
C293 C 0.44094 0.68744 0.57582 0.0
C294 C 0.42005 0.2573 0.73552 0.0
C295 C 0.44363 0.25417 0.79057 0.0
H296 H 0.34879 0.25887 0.67496 0.0
C297 C 0.4118 0.2508 0.82736 0.0
H298 H 0.44343 0.2599 0.70609 0.0
C299 C 0.35774 0.25026 0.80958 0.0
C300 C 0.33424 0.25312 0.75456 0.0
H301 H 0.42874 0.24818 0.86999 0.0
H302 H 0.33468 0.24671 0.8388 0.0
C303 C 0.3659 0.25669 0.71769 0.0
C304 C 0.33259 0.95536 0.50476 0.0
C305 C 0.33007 0.98028 0.50741 0.0
H306 H 0.35289 0.92521 0.46246 0.0
C307 C 0.35043 0.99385 0.47064 0.0
H308 H 0.31724 0.94434 0.53244 0.0
C309 C 0.37011 0.98299 0.43034 0.0
C310 C 0.37085 0.95817 0.42633 0.0
H311 H 0.34984 0.01299 0.47198 0.0
H312 H 0.3838 0.99411 0.40159 0.0
C313 C 0.35309 0.94439 0.46475 0.0
C314 C 0.22746 0.80622 0.99826 0.0
C315 C 0.27031 0.82058 0.01676 0.0
H316 H 0.14476 0.80496 0.96817 0.0
C317 C 0.26226 0.84525 0.01815 0.0
H318 H 0.23271 0.7871 0.99731 0.0
C319 C 0.21221 0.85539 0.00195 0.0
C320 C 0.16932 0.84106 0.98367 0.0
H321 H 0.29429 0.85665 0.03406 0.0
H322 H 0.20693 0.87443 0.00463 0.0
C323 C 0.17736 0.81641 0.9812 0.0
C324 C 0.20026 0.97631 0.43315 0.0
C325 C 0.20846 0.99342 0.39547 0.0
H326 H 0.17175 0.96918 0.50378 0.0
C327 C 0.19402 0.01722 0.40093 0.0
H328 H 0.21119 0.95782 0.42978 0.0
C329 C 0.17057 0.02371 0.44284 0.0
C330 C 0.16205 0.00654 0.48043 0.0
H331 H 0.19901 0.03065 0.37172 0.0
H332 H 0.15883 0.0421 0.4455 0.0
C333 C 0.17776 0.98283 0.47551 0.0
C334 C 0.67797 0.07285 0.90978 0.0
C335 C 0.6321 0.08168 0.92293 0.0
H336 H 0.74932 0.05242 0.93625 0.0
C337 C 0.62501 0.07759 0.97539 0.0
H338 H 0.6846 0.07566 0.86972 0.0
C339 C 0.66182 0.06424 0.01311 0.0
C340 C 0.70706 0.05503 0.99968 0.0
H341 H 0.59014 0.08404 0.98692 0.0
H342 H 0.65465 0.0609 0.0528 0.0
C343 C 0.7152 0.05969 0.94791 0.0
C344 C 0.44749 0.29138 0.13969 0.0
C345 C 0.46068 0.26835 0.12594 0.0
H346 H 0.42809 0.31362 0.1997 0.0
C347 C 0.46223 0.24955 0.16342 0.0
H348 H 0.44713 0.30639 0.11242 0.0
C349 C 0.45072 0.25376 0.2135 0.0
C350 C 0.43721 0.27679 0.22674 0.0
H351 H 0.47319 0.23167 0.15451 0.0
H352 H 0.45304 0.2391 0.24212 0.0
C353 C 0.43582 0.29552 0.18947 0.0
C354 C 0.71142 0.46068 0.29925 0.0
C355 C 0.72017 0.48491 0.29177 0.0
H356 H 0.70592 0.42597 0.265 0.0
C357 C 0.73295 0.49241 0.24359 0.0
H358 H 0.70431 0.45407 0.33688 0.0
C359 C 0.73541 0.47627 0.20327 0.0
C360 C 0.72526 0.4522 0.21006 0.0
H361 H 0.74012 0.51091 0.23646 0.0
H362 H 0.74461 0.48274 0.16632 0.0
C363 C 0.71308 0.44452 0.25838 0.0
C364 C 0.69638 0.57669 0.05742 0.0
C365 C 0.68766 0.5842 0.00312 0.0
H366 H 0.73687 0.55211 0.11903 0.0
C367 C 0.71364 0.57211 0.96867 0.0
H368 H 0.67684 0.58574 0.08481 0.0
C369 C 0.74849 0.55317 0.9884 0.0
C370 C 0.75755 0.5458 0.04277 0.0
H371 H 0.70832 0.57776 0.92687 0.0
H372 H 0.76858 0.54436 0.96116 0.0
C373 C 0.73044 0.55742 0.07689 0.0
C374 C 0.60895 0.43527 0.54655 0.0
C375 C 0.6271 0.41291 0.53375 0.0
H376 H 0.54603 0.45542 0.56619 0.0
C377 C 0.59351 0.39369 0.52869 0.0
H378 H 0.63371 0.45048 0.55025 0.0
C379 C 0.54372 0.3965 0.53809 0.0
C380 C 0.52654 0.4185 0.5537 0.0
H381 H 0.60624 0.37616 0.51933 0.0
H382 H 0.51953 0.38111 0.53542 0.0
C383 C 0.559 0.43804 0.55634 0.0
C384 C 0.38955 0.21395 0.95421 0.0
C385 C 0.38073 0.20652 0.00426 0.0
H386 H 0.41415 0.2038 0.88278 0.0
C387 C 0.38844 0.18242 0.01979 0.0
H388 H 0.38419 0.23247 0.94149 0.0
C389 C 0.40439 0.16601 0.98579 0.0
C390 C 0.41434 0.17349 0.93626 0.0
H391 H 0.38188 0.17622 0.05814 0.0
H392 H 0.41008 0.14753 0.99884 0.0
C393 C 0.40688 0.19762 0.92082 0.0
C394 C 0.26633 0.83041 0.1535 0.0
C395 C 0.22326 0.84599 0.1351 0.0
H396 H 0.34671 0.82686 0.19402 0.0
C397 C 0.23083 0.87055 0.13584 0.0
H398 H 0.26172 0.81135 0.15282 0.0
C399 C 0.27966 0.87943 0.15824 0.0
C400 C 0.32167 0.86393 0.18157 0.0
H401 H 0.19857 0.88298 0.12091 0.0
H402 H 0.28343 0.89851 0.1606 0.0
C403 C 0.31512 0.8393 0.17677 0.0
C404 C 0.51239 0.73822 0.97428 0.0
C405 C 0.47273 0.7296 0.99745 0.0
H406 H 0.55829 0.73316 0.91585 0.0
C407 C 0.45094 0.70771 0.98072 0.0
H408 H 0.53034 0.75491 0.98667 0.0
C409 C 0.46694 0.69522 0.94 0.0
C410 C 0.50518 0.70433 0.91532 0.0
H411 H 0.42056 0.7005 0.99809 0.0
H412 H 0.44832 0.67875 0.92693 0.0
C413 C 0.52853 0.7257 0.93376 0.0
C414 C 0.12974 0.12483 0.66851 0.0
C415 C 0.09501 0.11846 0.62079 0.0
H416 H 0.16941 0.15296 0.71485 0.0
C417 C 0.07304 0.13634 0.58263 0.0
H418 H 0.14719 0.11147 0.69876 0.0
C419 C 0.08682 0.16 0.59126 0.0
C420 C 0.12161 0.16631 0.63893 0.0
H421 H 0.04627 0.13199 0.54538 0.0
H422 H 0.07004 0.17336 0.56074 0.0
C423 C 0.14243 0.14856 0.67777 0.0
C424 C 0.11417 0.73756 0.67855 0.0
C425 C 0.07901 0.74862 0.63461 0.0
H426 H 0.15006 0.73849 0.76285 0.0
C427 C 0.05159 0.76934 0.64338 0.0
H428 H 0.13591 0.72157 0.67317 0.0
C429 C 0.05972 0.77903 0.69458 0.0
C430 C 0.09548 0.76825 0.73841 0.0
H431 H 0.02412 0.77831 0.61052 0.0
H432 H 0.03819 0.79514 0.69962 0.0
C433 C 0.12232 0.74728 0.72994 0.0
C434 C 0.24136 0.83234 0.28101 0.0
C435 C 0.29019 0.82394 0.3109 0.0
H436 H 0.19347 0.86265 0.24751 0.0
C437 C 0.32795 0.84045 0.33232 0.0
H438 H 0.21138 0.82007 0.26406 0.0
C439 C 0.31744 0.86478 0.32355 0.0
C440 C 0.26927 0.8732 0.29228 0.0
H441 H 0.36579 0.83461 0.35602 0.0
H442 H 0.34761 0.87697 0.34039 0.0
C443 C 0.23105 0.85674 0.27167 0.0
C444 C 0.77692 0.16573 0.99036 0.0
C445 C 0.77697 0.14486 0.96094 0.0
H446 H 0.74597 0.20114 0.99176 0.0
C447 C 0.74808 0.14465 0.90735 0.0
H448 H 0.79906 0.16652 0.03163 0.0
C449 C 0.7173 0.16439 0.88476 0.0
C450 C 0.71496 0.1848 0.91516 0.0
H451 H 0.74734 0.12888 0.88351 0.0
H452 H 0.69388 0.16329 0.8441 0.0
C453 C 0.7464 0.18557 0.96757 0.0
C454 C 0.12961 0.14489 0.47345 0.0
C455 C 0.0912 0.13582 0.43171 0.0
H456 H 0.19149 0.13704 0.54254 0.0
C457 C 0.08403 0.11121 0.43007 0.0
H458 H 0.136 0.16379 0.47586 0.0
C459 C 0.11527 0.09593 0.46861 0.0
C460 C 0.15498 0.10485 0.5093 0.0
H461 H 0.05449 0.10369 0.39866 0.0
H462 H 0.10884 0.07706 0.46577 0.0
C463 C 0.16144 0.12955 0.51164 0.0
C464 C 0.6299 0.95163 0.20572 0.0
C465 C 0.64485 0.97542 0.2076 0.0
H466 H 0.57176 0.92704 0.21552 0.0
C467 C 0.61249 0.99281 0.22332 0.0
H468 H 0.65414 0.93787 0.19375 0.0
C469 C 0.56496 0.98671 0.23447 0.0
C470 C 0.54944 0.96303 0.23141 0.0
H471 H 0.62285 0.01131 0.22484 0.0
H472 H 0.54006 0.0006 0.24488 0.0
C473 C 0.58287 0.94543 0.21822 0.0
C474 C 0.44857 0.35723 0.76342 0.0
C475 C 0.40242 0.35518 0.72371 0.0
H476 H 0.4966 0.34318 0.83728 0.0
C477 C 0.3692 0.33649 0.72794 0.0
H478 H 0.47508 0.37136 0.76083 0.0
C479 C 0.38098 0.32069 0.77226 0.0
C480 C 0.42689 0.3229 0.81221 0.0
H481 H 0.33344 0.33449 0.69781 0.0
H482 H 0.35407 0.30681 0.77539 0.0
C483 C 0.46105 0.34104 0.80691 0.0
C484 C 0.537 0.39587 0.39125 0.0
C485 C 0.59094 0.39539 0.39447 0.0
H486 H 0.46976 0.37586 0.39451 0.0
C487 C 0.61874 0.37356 0.40458 0.0
H488 H 0.51446 0.41242 0.38377 0.0
C489 C 0.59323 0.35267 0.41138 0.0
C490 C 0.53924 0.35311 0.40761 0.0
H491 H 0.66031 0.37254 0.40729 0.0
H492 H 0.61579 0.33613 0.41877 0.0
C493 C 0.51139 0.37494 0.39759 0.0
C494 C 0.58363 0.48745 0.90397 0.0
C495 C 0.63 0.4954 0.89217 0.0
H496 H 0.54717 0.46048 0.94131 0.0
C497 C 0.6738 0.47986 0.90158 0.0
H498 H 0.54891 0.49884 0.89637 0.0
C499 C 0.67276 0.45779 0.92728 0.0
C500 C 0.6279 0.45088 0.94404 0.0
H501 H 0.70999 0.48535 0.89248 0.0
H502 H 0.70823 0.44691 0.93726 0.0
C503 C 0.5826 0.46541 0.92968 0.0
C504 C 0.05558 0.96781 0.79518 0.0
C505 C 0.04487 0.9577 0.74393 0.0
H506 H 0.05652 0.9632 0.87902 0.0
C507 C 0.02364 0.93501 0.738 0.0
H508 H 0.07191 0.98527 0.80109 0.0
C509 C 0.01475 0.92239 0.78258 0.0
C510 C 0.02695 0.93217 0.83411 0.0
H511 H 0.01477 0.92674 0.69905 0.0
H512 H 0.99939 0.90474 0.77676 0.0
C513 C 0.04675 0.95516 0.83984 0.0
C514 C 0.54603 0.71843 0.1802 0.0
C515 C 0.49961 0.71088 0.19263 0.0
H516 H 0.60058 0.71426 0.12999 0.0
C517 C 0.47191 0.69293 0.1619 0.0
H518 H 0.56818 0.73231 0.20287 0.0
C519 C 0.49058 0.68253 0.12021 0.0
C520 C 0.53732 0.68987 0.10821 0.0
H521 H 0.4359 0.68677 0.17023 0.0
H522 H 0.46837 0.66868 0.09747 0.0
C523 C 0.56462 0.70807 0.1384 0.0
C524 C 0.74104 0.30784 0.64569 0.0
C525 C 0.74551 0.33151 0.66229 0.0
H526 H 0.71536 0.27305 0.66008 0.0
C527 C 0.73007 0.33773 0.70969 0.0
H528 H 0.75246 0.30248 0.60928 0.0
C529 C 0.70888 0.32089 0.73879 0.0
C530 C 0.70236 0.29747 0.72097 0.0
H531 H 0.73311 0.3558 0.72367 0.0
H532 H 0.69635 0.32642 0.77448 0.0
C533 C 0.71951 0.291 0.67465 0.0
C534 C 0.77332 0.24671 0.08447 0.0
C535 C 0.79263 0.22761 0.12029 0.0
H536 H 0.70793 0.26254 0.02831 0.0
C537 C 0.75972 0.20877 0.12451 0.0
H538 H 0.79769 0.26147 0.08007 0.0
C539 C 0.70828 0.20929 0.0943 0.0
C540 C 0.6886 0.22877 0.05974 0.0
H541 H 0.77358 0.1937 0.15137 0.0
H542 H 0.68362 0.19468 0.09896 0.0
C543 C 0.72183 0.24735 0.05478 0.0
C544 C 0.85434 0.61775 0.38226 0.0
C545 C 0.82652 0.61033 0.42025 0.0
H546 H 0.90959 0.64201 0.36355 0.0
C547 C 0.83256 0.62229 0.46908 0.0
H548 H 0.85025 0.60877 0.34433 0.0
C549 C 0.86488 0.64179 0.47917 0.0
C550 C 0.89315 0.64904 0.44146 0.0
H551 H 0.81119 0.61696 0.4988 0.0
H552 H 0.86828 0.65102 0.51671 0.0
C553 C 0.88822 0.63667 0.39326 0.0
C554 C 0.3141 0.32089 0.09571 0.0
C555 C 0.26567 0.33217 0.094 0.0
H556 H 0.36026 0.29981 0.05361 0.0
C557 C 0.22554 0.33003 0.04767 0.0
H558 H 0.34611 0.32276 0.13008 0.0
C559 C 0.23364 0.31707 0.00393 0.0
C560 C 0.28237 0.30615 0.00512 0.0
H561 H 0.18775 0.33852 0.04496 0.0
H562 H 0.20186 0.31598 0.9688 0.0
C563 C 0.32237 0.30802 0.05166 0.0
C564 C 0.97342 0.34412 0.09939 0.0
C565 C 0.01575 0.35611 0.08753 0.0
H566 H 0.89368 0.34628 0.10518 0.0
C567 C 0.00929 0.38036 0.07284 0.0
H568 H 0.9771 0.32546 0.11102 0.0
C569 C 0.96144 0.39228 0.06933 0.0
C570 C 0.91899 0.38026 0.08075 0.0
H571 H 0.04108 0.39016 0.06349 0.0
H572 H 0.95769 0.4109 0.05738 0.0
C573 C 0.92562 0.35608 0.09619 0.0
C574 C 0.89083 0.66969 0.07109 0.0
C575 C 0.94352 0.67271 0.07095 0.0
H576 H 0.82647 0.64646 0.05612 0.0
C577 C 0.97136 0.65424 0.05256 0.0
H578 H 0.86825 0.68361 0.08485 0.0
C579 C 0.94727 0.63303 0.03562 0.0
C580 C 0.89496 0.62977 0.03714 0.0
H581 H 0.01192 0.65608 0.05161 0.0
H582 H 0.97004 0.61899 0.02251 0.0
C583 C 0.86685 0.64841 0.05455 0.0
C584 C 0.59729 0.53658 0.72568 0.0
C585 C 0.55179 0.52717 0.73657 0.0
H586 H 0.6436 0.56724 0.72579 0.0
C587 C 0.51992 0.54165 0.76094 0.0
H588 H 0.62295 0.52582 0.70743 0.0
C589 C 0.53157 0.56543 0.77115 0.0
C590 C 0.57558 0.57518 0.75763 0.0
H591 H 0.4848 0.53491 0.77027 0.0
H592 H 0.50522 0.57633 0.7882 0.0
C593 C 0.60916 0.56032 0.73629 0.0
C594 C 0.84299 0.43589 0.30219 0.0
C595 C 0.85537 0.45971 0.29554 0.0
H596 H 0.82388 0.4092 0.35479 0.0
C597 C 0.85907 0.475 0.33916 0.0
H598 H 0.8396 0.42368 0.26927 0.0
C599 C 0.84989 0.46672 0.38814 0.0
C600 C 0.83694 0.44296 0.39462 0.0
H601 H 0.86811 0.4935 0.3352 0.0
H602 H 0.85249 0.47903 0.42076 0.0
C603 C 0.83383 0.42761 0.35118 0.0
C604 C 0.30726 0.94165 0.81042 0.0
C605 C 0.25939 0.94371 0.77256 0.0
H606 H 0.35476 0.92177 0.8767 0.0
C607 C 0.22101 0.9271 0.77487 0.0
H608 H 0.33767 0.95415 0.8098 0.0
C609 C 0.23079 0.90853 0.8134 0.0
C610 C 0.27925 0.90608 0.85027 0.0
H611 H 0.1836 0.92825 0.74648 0.0
H612 H 0.20062 0.89586 0.81362 0.0
C613 C 0.31713 0.92303 0.84873 0.0
C614 C 0.38389 0.08593 0.60428 0.0
C615 C 0.43446 0.09136 0.59968 0.0
H616 H 0.31015 0.07237 0.56581 0.0
C617 C 0.44751 0.08884 0.54944 0.0
H618 H 0.37251 0.08762 0.64235 0.0
C619 C 0.41146 0.08027 0.50538 0.0
C620 C 0.36152 0.07405 0.51055 0.0
H621 H 0.48606 0.09292 0.54441 0.0
H622 H 0.42319 0.07798 0.46764 0.0
C623 C 0.34794 0.07732 0.56025 0.0
loop_
_geom_bond_atom_site_label_1
_geom_bond_atom_site_label_2
_geom_bond_distance
_geom_bond_site_symmetry_2
_ccdc_geom_bond_type
O0 Cd1 2.300 . S
O0 C7 1.275 . S
Cd1 O0 2.300 . S
Cd1 O9 2.381 . S
Cd1 O10 2.378 1_554 S
O2 Cd3 2.385 . S
O2 C7 1.255 . S
Cd3 O2 2.385 . S
Cd3 O4 2.317 . S
O4 Cd3 2.317 . S
O4 C5 1.232 . S
C5 O4 1.232 . S
C5 O6 1.218 . S
O6 C5 1.218 . S
C7 O0 1.275 . S
C7 O2 1.255 . S
C8 O9 1.258 1_556 S
C8 O10 1.256 . S
O9 Cd1 2.381 . S
O9 C8 1.258 1_554 S
O10 Cd1 2.378 1_556 S
O10 C8 1.256 . S
O11 Cd12 2.300 1_655 S
O11 C18 1.275 . S
Cd12 O11 2.300 1_455 S
Cd12 O20 2.381 . S
Cd12 O21 2.378 . S
O13 Cd14 2.385 . S
O13 C18 1.255 1_455 S
Cd14 O13 2.385 . S
Cd14 O15 2.317 1_455 S
O15 Cd14 2.317 1_655 S
O15 C16 1.232 . S
C16 O15 1.232 . S
C16 O17 1.218 . S
O17 C16 1.218 . S
C18 O11 1.275 . S
C18 O13 1.255 1_655 S
C19 O20 1.258 . S
C19 O21 1.256 . S
O20 Cd12 2.381 . S
O20 C19 1.258 . S
O21 Cd12 2.378 . S
O21 C19 1.256 . S
O22 Cd23 2.300 . S
O22 C29 1.275 . S
Cd23 O22 2.300 . S
Cd23 O31 2.381 . S
Cd23 O32 2.378 . S
O24 Cd25 2.385 . S
O24 C29 1.255 . S
Cd25 O24 2.385 . S
Cd25 O26 2.317 . S
O26 Cd25 2.317 . S
O26 C27 1.232 . S
C27 O26 1.232 . S
C27 O28 1.218 . S
O28 C27 1.218 . S
C29 O22 1.275 . S
C29 O24 1.255 . S
C30 O31 1.258 . S
C30 O32 1.256 . S
O31 Cd23 2.381 . S
O31 C30 1.258 . S
O32 Cd23 2.378 . S
O32 C30 1.256 . S
O33 Cd34 2.300 . S
O33 C40 1.275 . S
Cd34 O33 2.300 . S
Cd34 O42 2.381 . S
Cd34 O43 2.378 . S
O35 Cd36 2.385 . S
O35 C40 1.255 . S
Cd36 O35 2.385 . S
Cd36 O37 2.317 . S
O37 Cd36 2.317 . S
O37 C38 1.232 . S
C38 O37 1.232 . S
C38 O39 1.218 . S
O39 C38 1.218 . S
C40 O33 1.275 . S
C40 O35 1.255 . S
C41 O42 1.258 . S
C41 O43 1.256 . S
O42 Cd34 2.381 . S
O42 C41 1.258 . S
O43 Cd34 2.378 . S
O43 C41 1.256 . S
O44 Cd45 2.300 1_655 S
O44 C51 1.275 1_655 S
Cd45 O44 2.300 1_455 S
Cd45 O53 2.381 1_455 S
Cd45 O54 2.378 1_455 S
O46 Cd47 2.385 . S
O46 C51 1.255 . S
Cd47 O46 2.385 . S
Cd47 O48 2.317 . S
O48 Cd47 2.317 . S
O48 C49 1.232 . S
C49 O48 1.232 . S
C49 O50 1.218 . S
O50 C49 1.218 . S
C51 O44 1.275 1_455 S
C51 O46 1.255 . S
C52 O53 1.258 . S
C52 O54 1.256 . S
O53 Cd45 2.381 1_655 S
O53 C52 1.258 . S
O54 Cd45 2.378 1_655 S
O54 C52 1.256 . S
O55 Cd56 2.300 . S
O55 C62 1.275 . S
Cd56 O55 2.300 . S
Cd56 O64 2.381 . S
Cd56 O65 2.378 . S
O57 Cd58 2.385 . S
O57 C62 1.255 . S
Cd58 O57 2.385 . S
Cd58 O59 2.317 . S
O59 Cd58 2.317 . S
O59 C60 1.232 . S
C60 O59 1.232 . S
C60 O61 1.218 . S
O61 C60 1.218 . S
C62 O55 1.275 . S
C62 O57 1.255 . S
C63 O64 1.258 . S
C63 O65 1.256 . S
O64 Cd56 2.381 . S
O64 C63 1.258 . S
O65 Cd56 2.378 . S
O65 C63 1.256 . S
O66 Cd67 2.300 . S
O66 C73 1.275 . S
Cd67 O66 2.300 . S
Cd67 O75 2.381 . S
Cd67 O76 2.378 . S
O68 Cd69 2.385 . S
O68 C73 1.255 . S
Cd69 O68 2.385 . S
Cd69 O70 2.317 . S
O70 Cd69 2.317 . S
O70 C71 1.232 . S
C71 O70 1.232 . S
C71 O72 1.218 . S
O72 C71 1.218 . S
C73 O66 1.275 . S
C73 O68 1.255 . S
C74 O75 1.258 . S
C74 O76 1.256 . S
O75 Cd67 2.381 . S
O75 C74 1.258 . S
O76 Cd67 2.378 . S
O76 C74 1.256 . S
O77 Cd78 2.300 . S
O77 C84 1.275 . S
Cd78 O77 2.300 . S
Cd78 O86 2.381 . S
Cd78 O87 2.378 . S
O79 Cd80 2.385 1_455 S
O79 C84 1.255 . S
Cd80 O79 2.385 1_655 S
Cd80 O81 2.317 . S
O81 Cd80 2.317 . S
O81 C82 1.232 . S
C82 O81 1.232 . S
C82 O83 1.218 . S
O83 C82 1.218 . S
C84 O77 1.275 . S
C84 O79 1.255 . S
C85 O86 1.258 . S
C85 O87 1.256 . S
O86 Cd78 2.381 . S
O86 C85 1.258 . S
O87 Cd78 2.378 . S
O87 C85 1.256 . S
O88 Cd89 2.300 1_565 S
O88 C95 1.275 1_565 S
Cd89 O88 2.300 1_545 S
Cd89 O97 2.381 1_545 S
Cd89 O98 2.378 . S
O90 Cd91 2.385 . S
O90 C95 1.255 . S
Cd91 O90 2.385 . S
Cd91 O92 2.317 . S
O92 Cd91 2.317 . S
O92 C93 1.232 . S
C93 O92 1.232 . S
C93 O94 1.218 . S
O94 C93 1.218 . S
C95 O88 1.275 1_545 S
C95 O90 1.255 . S
C96 O97 1.258 . S
C96 O98 1.256 1_565 S
O97 Cd89 2.381 1_565 S
O97 C96 1.258 . S
O98 Cd89 2.378 . S
O98 C96 1.256 1_545 S
O99 Cd100 2.300 . S
O99 C106 1.275 . S
Cd100 O99 2.300 . S
Cd100 O108 2.381 1_455 S
Cd100 O109 2.378 1_455 S
O101 Cd102 2.385 . S
O101 C106 1.255 . S
Cd102 O101 2.385 . S
Cd102 O103 2.317 1_455 S
O103 Cd102 2.317 1_655 S
O103 C104 1.232 . S
C104 O103 1.232 . S
C104 O105 1.218 1_655 S
O105 C104 1.218 1_455 S
C106 O99 1.275 . S
C106 O101 1.255 . S
C107 O108 1.258 . S
C107 O109 1.256 . S
O108 Cd100 2.381 1_655 S
O108 C107 1.258 . S
O109 Cd100 2.378 1_655 S
O109 C107 1.256 . S
O110 Cd111 2.300 . S
O110 C117 1.275 . S
Cd111 O110 2.300 . S
Cd111 O119 2.381 . S
Cd111 O120 2.378 . S
O112 Cd113 2.385 1_565 S
O112 C117 1.255 . S
Cd113 O112 2.385 1_545 S
Cd113 O114 2.317 . S
O114 Cd113 2.317 . S
O114 C115 1.232 . S
C115 O114 1.232 . S
C115 O116 1.218 . S
O116 C115 1.218 . S
C117 O110 1.275 . S
C117 O112 1.255 . S
C118 O119 1.258 . S
C118 O120 1.256 . S
O119 Cd111 2.381 . S
O119 C118 1.258 . S
O120 Cd111 2.378 . S
O120 C118 1.256 . S
O121 Cd122 2.300 1_556 S
O121 C128 1.275 . S
Cd122 O121 2.300 1_554 S
Cd122 O130 2.381 . S
Cd122 O131 2.403 . S
O123 Cd124 2.385 . S
O123 C128 1.255 . S
Cd124 O123 2.385 . S
Cd124 O125 2.317 . S
O125 Cd124 2.317 . S
O125 C126 1.232 . S
C126 O125 1.232 . S
C126 O127 1.218 . S
O127 C126 1.218 . S
C128 O121 1.275 . S
C128 O123 1.255 . S
C129 O130 1.258 . S
C129 O131 1.259 . S
O130 Cd122 2.381 . S
O130 C129 1.258 . S
O131 Cd122 2.403 . S
O131 C129 1.259 . S
O132 Cd133 2.300 . S
O132 C139 1.275 . S
Cd133 O132 2.300 . S
Cd133 O141 2.381 . S
Cd133 O142 2.378 . S
O134 Cd135 2.385 . S
O134 C139 1.255 . S
Cd135 O134 2.385 . S
Cd135 O136 2.317 . S
O136 Cd135 2.317 . S
O136 C137 1.232 . S
C137 O136 1.232 . S
C137 O138 1.218 . S
O138 C137 1.218 . S
C139 O132 1.275 . S
C139 O134 1.255 . S
C140 O141 1.258 . S
C140 O142 1.256 . S
O141 Cd133 2.381 . S
O141 C140 1.258 . S
O142 Cd133 2.378 . S
O142 C140 1.256 . S
O143 Cd144 2.300 . S
O143 C150 1.275 . S
Cd144 O143 2.300 . S
Cd144 O152 2.381 . S
Cd144 O153 2.378 . S
O145 Cd146 2.385 . S
O145 C150 1.255 . S
Cd146 O145 2.385 . S
Cd146 O147 2.317 . S
O147 Cd146 2.317 . S
O147 C148 1.232 . S
C148 O147 1.232 . S
C148 O149 1.218 . S
O149 C148 1.218 . S
C150 O143 1.275 . S
C150 O145 1.255 . S
C151 O152 1.258 . S
C151 O153 1.256 . S
O152 Cd144 2.381 . S
O152 C151 1.258 . S
O153 Cd144 2.378 . S
O153 C151 1.256 . S
O154 Cd155 2.300 1_455 S
O154 C161 1.275 . S
Cd155 O154 2.300 1_655 S
Cd155 O163 2.381 1_655 S
Cd155 O164 2.378 . S
O156 Cd157 2.385 . S
O156 C161 1.255 1_655 S
Cd157 O156 2.385 . S
Cd157 O158 2.317 . S
O158 Cd157 2.317 . S
O158 C159 1.232 1_545 S
C159 O158 1.232 1_565 S
C159 O160 1.218 . S
O160 C159 1.218 . S
C161 O154 1.275 . S
C161 O156 1.255 1_455 S
C162 O163 1.258 . S
C162 O164 1.256 1_455 S
O163 Cd155 2.381 1_455 S
O163 C162 1.258 . S
O164 Cd155 2.378 . S
O164 C162 1.256 1_655 S
O165 Cd166 2.300 . S
O165 C172 1.275 . S
Cd166 O165 2.300 . S
Cd166 O174 2.381 . S
Cd166 O175 2.378 . S
O167 Cd168 2.385 . S
O167 C172 1.255 . S
Cd168 O167 2.385 . S
Cd168 O169 2.317 . S
O169 Cd168 2.317 . S
O169 C170 1.232 . S
C170 O169 1.232 . S
C170 O171 1.218 . S
O171 C170 1.218 . S
C172 O165 1.275 . S
C172 O167 1.255 . S
C173 O174 1.258 . S
C173 O175 1.256 . S
O174 Cd166 2.381 . S
O174 C173 1.258 . S
O175 Cd166 2.378 . S
O175 C173 1.256 . S
O176 Cd177 2.300 . S
O176 C183 1.275 . S
Cd177 O176 2.300 . S
Cd177 O185 2.381 . S
Cd177 O186 2.378 . S
O178 Cd179 2.385 . S
O178 C183 1.255 1_556 S
Cd179 O178 2.385 . S
Cd179 O180 2.317 . S
O180 Cd179 2.317 . S
O180 C181 1.232 . S
C181 O180 1.232 . S
C181 O182 1.218 . S
O182 C181 1.218 . S
C183 O176 1.275 . S
C183 O178 1.255 1_554 S
C184 O185 1.258 . S
C184 O186 1.256 . S
O185 Cd177 2.381 . S
O185 C184 1.258 . S
O186 Cd177 2.378 . S
O186 C184 1.256 . S
O187 Cd188 2.300 . S
O187 C194 1.275 . S
Cd188 O187 2.300 . S
Cd188 O196 2.381 . S
Cd188 O197 2.378 . S
O189 Cd190 2.385 . S
O189 C194 1.255 . S
Cd190 O189 2.385 . S
Cd190 O191 2.317 . S
O191 Cd190 2.317 . S
O191 C192 1.232 . S
C192 O191 1.232 . S
C192 O193 1.218 . S
O193 C192 1.218 . S
C194 O187 1.275 . S
C194 O189 1.255 . S
C195 O196 1.258 . S
C195 O197 1.256 . S
O196 Cd188 2.381 . S
O196 C195 1.258 . S
O197 Cd188 2.378 . S
O197 C195 1.256 . S
O198 Cd199 2.300 1_554 S
O198 C205 1.275 . S
Cd199 O198 2.300 1_556 S
Cd199 O207 2.381 1_556 S
Cd199 O208 2.378 . S
O200 Cd201 2.385 . S
O200 C205 1.255 1_556 S
Cd201 O200 2.385 . S
Cd201 O202 2.317 . S
O202 Cd201 2.317 . S
O202 C203 1.232 . S
C203 O202 1.232 . S
C203 O204 1.218 . S
O204 C203 1.218 . S
C205 O198 1.275 . S
C205 O200 1.255 1_554 S
C206 O207 1.258 . S
C206 O208 1.256 1_554 S
O207 Cd199 2.381 1_554 S
O207 C206 1.258 . S
O208 Cd199 2.378 . S
O208 C206 1.256 1_556 S
O209 Cd210 2.300 . S
O209 C216 1.275 . S
Cd210 O209 2.300 . S
Cd210 O218 2.381 . S
Cd210 O219 2.378 1_554 S
O211 Cd212 2.385 . S
O211 C216 1.255 . S
Cd212 O211 2.385 . S
Cd212 O213 2.317 1_554 S
O213 Cd212 2.317 1_556 S
O213 C214 1.232 . S
C214 O213 1.232 . S
C214 O215 1.218 1_556 S
O215 C214 1.218 1_554 S
C216 O209 1.275 . S
C216 O211 1.255 . S
C217 O218 1.258 . S
C217 O219 1.256 1_554 S
O218 Cd210 2.381 . S
O218 C217 1.258 . S
O219 Cd210 2.378 1_556 S
O219 C217 1.256 1_556 S
O220 Cd221 2.300 . S
O220 C227 1.275 . S
Cd221 O220 2.300 . S
Cd221 O229 2.381 . S
Cd221 O230 2.378 . S
O222 Cd223 2.385 . S
O222 C227 1.255 . S
Cd223 O222 2.385 . S
Cd223 O224 2.317 . S
O224 Cd223 2.317 . S
O224 C225 1.232 . S
C225 O224 1.232 . S
C225 O226 1.218 . S
O226 C225 1.218 . S
C227 O220 1.275 . S
C227 O222 1.255 . S
C228 O229 1.258 . S
C228 O230 1.256 . S
O229 Cd221 2.381 . S
O229 C228 1.258 . S
O230 Cd221 2.378 . S
O230 C228 1.256 . S
O231 Cd232 2.300 . S
O231 C238 1.275 . S
Cd232 O231 2.300 . S
Cd232 O240 2.381 . S
Cd232 O241 2.378 . S
O233 Cd234 2.385 . S
O233 C238 1.255 . S
Cd234 O233 2.385 . S
Cd234 O235 2.317 . S
O235 Cd234 2.317 . S
O235 C236 1.232 . S
C236 O235 1.232 . S
C236 O237 1.218 . S
O237 C236 1.218 . S
C238 O231 1.275 . S
C238 O233 1.255 . S
C239 O240 1.258 . S
C239 O241 1.256 . S
O240 Cd232 2.381 . S
O240 C239 1.258 . S
O241 Cd232 2.378 . S
O241 C239 1.256 . S
O242 Cd243 2.300 . S
O242 C249 1.275 . S
Cd243 O242 2.300 . S
Cd243 O251 2.381 . S
Cd243 O252 2.378 . S
O244 Cd245 2.385 1_655 S
O244 C249 1.255 . S
Cd245 O244 2.385 1_455 S
Cd245 O246 2.317 . S
O246 Cd245 2.317 . S
O246 C247 1.232 1_455 S
C247 O246 1.232 1_655 S
C247 O248 1.219 . S
O248 C247 1.219 . S
C249 O242 1.275 . S
C249 O244 1.255 . S
C250 O251 1.258 . S
C250 O252 1.256 . S
O251 Cd243 2.381 . S
O251 C250 1.258 . S
O252 Cd243 2.378 . S
O252 C250 1.256 . S
O253 Cd254 2.300 . S
O253 C260 1.275 . S
Cd254 O253 2.300 . S
Cd254 O262 2.381 . S
Cd254 O263 2.378 . S
O255 Cd256 2.385 . S
O255 C260 1.255 . S
Cd256 O255 2.385 . S
Cd256 O257 2.317 . S
O257 Cd256 2.317 . S
O257 C258 1.232 . S
C258 O257 1.232 . S
C258 O259 1.218 . S
O259 C258 1.218 . S
C260 O253 1.275 . S
C260 O255 1.255 . S
C261 O262 1.258 . S
C261 O263 1.256 . S
O262 Cd254 2.381 . S
O262 C261 1.258 . S
O263 Cd254 2.378 . S
O263 C261 1.256 . S
C264 C265 1.387 . S
C264 H268 0.950 . S
C264 C273 1.390 . S
C265 C264 1.387 . S
C265 C267 1.387 . S
H266 C273 0.950 . S
C267 C265 1.387 . S
C267 C269 1.390 . S
C267 H271 0.950 . S
H268 C264 0.950 . S
C269 C267 1.390 . S
C269 C270 1.387 . S
C269 H272 0.950 . S
C270 C269 1.387 . S
C270 C273 1.387 . S
H271 C267 0.950 . S
H272 C269 0.950 . S
C273 C264 1.390 . S
C273 H266 0.950 . S
C273 C270 1.387 . S
C274 C275 1.387 1_655 S
C274 H278 0.950 . S
C274 C283 1.390 . S
C275 C274 1.387 1_455 S
C275 C277 1.387 . S
H276 C283 0.950 . S
C277 C275 1.387 . S
C277 C279 1.390 . S
C277 H281 0.950 . S
H278 C274 0.950 . S
C279 C277 1.390 . S
C279 C280 1.387 1_455 S
C279 H282 0.950 . S
C280 C279 1.387 1_655 S
C280 C283 1.387 . S
H281 C277 0.950 . S
H282 C279 0.950 . S
C283 C274 1.390 . S
C283 H276 0.950 . S
C283 C280 1.387 . S
C284 C285 1.387 . S
C284 H288 0.950 . S
C284 C293 1.390 . S
C285 C284 1.387 . S
C285 C287 1.387 . S
H286 C293 0.950 . S
C287 C285 1.387 . S
C287 C289 1.390 . S
C287 H291 0.950 . S
H288 C284 0.950 . S
C289 C287 1.390 . S
C289 C290 1.387 . S
C289 H292 0.950 . S
C290 C289 1.387 . S
C290 C293 1.387 . S
H291 C287 0.950 . S
H292 C289 0.950 . S
C293 C284 1.390 . S
C293 H286 0.950 . S
C293 C290 1.387 . S
C294 C295 1.387 . S
C294 H298 0.950 . S
C294 C303 1.390 . S
C295 C294 1.387 . S
C295 C297 1.387 . S
H296 C303 0.950 . S
C297 C295 1.387 . S
C297 C299 1.390 . S
C297 H301 0.950 . S
H298 C294 0.950 . S
C299 C297 1.390 . S
C299 C300 1.387 . S
C299 H302 0.950 . S
C300 C299 1.387 . S
C300 C303 1.387 . S
H301 C297 0.950 . S
H302 C299 0.950 . S
C303 C294 1.390 . S
C303 H296 0.950 . S
C303 C300 1.387 . S
C304 C305 1.387 . S
C304 H308 0.950 . S
C304 C313 1.390 . S
C305 C304 1.387 . S
C305 C307 1.387 . S
H306 C313 0.950 . S
C307 C305 1.387 . S
C307 C309 1.390 . S
C307 H311 0.950 . S
H308 C304 0.950 . S
C309 C307 1.390 . S
C309 C310 1.387 . S
C309 H312 0.950 . S
C310 C309 1.387 . S
C310 C313 1.387 . S
H311 C307 0.950 . S
H312 C309 0.950 . S
C313 C304 1.390 . S
C313 H306 0.950 . S
C313 C310 1.387 . S
C314 C315 1.387 . S
C314 H318 0.950 . S
C314 C323 1.390 . S
C315 C314 1.387 . S
C315 C317 1.387 . S
H316 C323 0.950 . S
C317 C315 1.387 . S
C317 C319 1.390 . S
C317 H321 0.950 . S
H318 C314 0.950 . S
C319 C317 1.390 . S
C319 C320 1.387 . S
C319 H322 0.950 . S
C320 C319 1.387 . S
C320 C323 1.387 . S
H321 C317 0.950 . S
H322 C319 0.950 . S
C323 C314 1.390 . S
C323 H316 0.950 . S
C323 C320 1.387 . S
C324 C325 1.387 . S
C324 H328 0.950 . S
C324 C333 1.390 . S
C325 C324 1.387 . S
C325 C327 1.387 1_565 S
H326 C333 0.950 . S
C327 C325 1.387 1_545 S
C327 C329 1.390 . S
C327 H331 0.950 . S
H328 C324 0.950 . S
C329 C327 1.390 . S
C329 C330 1.387 . S
C329 H332 0.950 . S
C330 C329 1.387 . S
C330 C333 1.387 1_545 S
H331 C327 0.950 . S
H332 C329 0.950 . S
C333 C324 1.390 . S
C333 H326 0.950 . S
C333 C330 1.387 1_565 S
C334 C335 1.387 . S
C334 H338 0.950 . S
C334 C343 1.390 . S
C335 C334 1.387 . S
C335 C337 1.387 . S
H336 C343 0.950 . S
C337 C335 1.387 . S
C337 C339 1.390 . S
C337 H341 0.950 . S
H338 C334 0.950 . S
C339 C337 1.390 . S
C339 C340 1.387 . S
C339 H342 0.950 . S
C340 C339 1.387 . S
C340 C343 1.387 . S
H341 C337 0.950 . S
H342 C339 0.950 . S
C343 C334 1.390 . S
C343 H336 0.950 . S
C343 C340 1.387 . S
C344 C345 1.387 . S
C344 H348 0.950 . S
C344 C353 1.390 . S
C345 C344 1.387 . S
C345 C347 1.387 . S
H346 C353 0.950 . S
C347 C345 1.387 . S
C347 C349 1.390 . S
C347 H351 0.950 . S
H348 C344 0.950 . S
C349 C347 1.390 . S
C349 C350 1.387 . S
C349 H352 0.950 . S
C350 C349 1.387 . S
C350 C353 1.387 . S
H351 C347 0.950 . S
H352 C349 0.950 . S
C353 C344 1.390 . S
C353 H346 0.950 . S
C353 C350 1.387 . S
C354 C355 1.387 . S
C354 H358 0.950 . S
C354 C363 1.390 . S
C355 C354 1.387 . S
C355 C357 1.387 . S
H356 C363 0.950 . S
C357 C355 1.387 . S
C357 C359 1.390 . S
C357 H361 0.950 . S
H358 C354 0.950 . S
C359 C357 1.390 . S
C359 C360 1.387 . S
C359 H362 0.950 . S
C360 C359 1.387 . S
C360 C363 1.387 . S
H361 C357 0.950 . S
H362 C359 0.950 . S
C363 C354 1.390 . S
C363 H356 0.950 . S
C363 C360 1.387 . S
C364 C365 1.387 . S
C364 H368 0.950 . S
C364 C373 1.390 . S
C365 C364 1.387 . S
C365 C367 1.387 . S
H366 C373 0.950 . S
C367 C365 1.387 . S
C367 C369 1.390 . S
C367 H371 0.950 1_554 S
H368 C364 0.950 . S
C369 C367 1.390 . S
C369 C370 1.387 . S
C369 H372 0.950 . S
C370 C369 1.387 . S
C370 C373 1.387 . S
H371 C367 0.950 1_556 S
H372 C369 0.950 . S
C373 C364 1.390 . S
C373 H366 0.950 . S
C373 C370 1.387 . S
C374 C375 1.387 . S
C374 H378 0.950 . S
C374 C383 1.390 . S
C375 C374 1.387 . S
C375 C377 1.387 . S
H376 C383 0.950 . S
C377 C375 1.387 . S
C377 C379 1.390 . S
C377 H381 0.950 . S
H378 C374 0.950 . S
C379 C377 1.390 . S
C379 C380 1.387 . S
C379 H382 0.950 . S
C380 C379 1.387 . S
C380 C383 1.387 . S
H381 C377 0.950 . S
H382 C379 0.950 . S
C383 C374 1.390 . S
C383 H376 0.950 . S
C383 C380 1.387 . S
C384 C385 1.387 . S
C384 H388 0.950 . S
C384 C393 1.390 . S
C385 C384 1.387 . S
C385 C387 1.387 . S
H386 C393 0.950 . S
C387 C385 1.387 . S
C387 C389 1.390 . S
C387 H391 0.950 . S
H388 C384 0.950 . S
C389 C387 1.390 . S
C389 C390 1.387 . S
C389 H392 0.950 . S
C390 C389 1.387 . S
C390 C393 1.387 . S
H391 C387 0.950 . S
H392 C389 0.950 . S
C393 C384 1.390 . S
C393 H386 0.950 . S
C393 C390 1.387 . S
C394 C395 1.387 . S
C394 H398 0.950 . S
C394 C403 1.390 . S
C395 C394 1.387 . S
C395 C397 1.387 . S
H396 C403 0.950 . S
C397 C395 1.387 . S
C397 C399 1.390 . S
C397 H401 0.950 . S
H398 C394 0.950 . S
C399 C397 1.390 . S
C399 C400 1.387 . S
C399 H402 0.950 . S
C400 C399 1.387 . S
C400 C403 1.387 . S
H401 C397 0.950 . S
H402 C399 0.950 . S
C403 C394 1.390 . S
C403 H396 0.950 . S
C403 C400 1.387 . S
C404 C405 1.387 . S
C404 H408 0.950 . S
C404 C413 1.390 . S
C405 C404 1.387 . S
C405 C407 1.387 . S
H406 C413 0.950 . S
C407 C405 1.387 . S
C407 C409 1.390 . S
C407 H411 0.950 . S
H408 C404 0.950 . S
C409 C407 1.390 . S
C409 C410 1.387 . S
C409 H412 0.950 . S
C410 C409 1.387 . S
C410 C413 1.387 . S
H411 C407 0.950 . S
H412 C409 0.950 . S
C413 C404 1.390 . S
C413 H406 0.950 . S
C413 C410 1.387 . S
C414 C415 1.387 . S
C414 H418 0.950 . S
C414 C423 1.390 . S
C415 C414 1.387 . S
C415 C417 1.387 . S
H416 C423 0.950 . S
C417 C415 1.387 . S
C417 C419 1.390 . S
C417 H421 0.950 . S
H418 C414 0.950 . S
C419 C417 1.390 . S
C419 C420 1.387 . S
C419 H422 0.950 . S
C420 C419 1.387 . S
C420 C423 1.387 . S
H421 C417 0.950 . S
H422 C419 0.950 . S
C423 C414 1.390 . S
C423 H416 0.950 . S
C423 C420 1.387 . S
C424 C425 1.387 . S
C424 H428 0.950 . S
C424 C433 1.390 1_455 S
C425 C424 1.387 . S
C425 C427 1.387 1_455 S
H426 C433 0.950 . S
C427 C425 1.387 1_655 S
C427 C429 1.390 . S
C427 H431 0.950 . S
H428 C424 0.950 . S
C429 C427 1.390 . S
C429 C430 1.387 . S
C429 H432 0.950 . S
C430 C429 1.387 . S
C430 C433 1.387 . S
H431 C427 0.950 . S
H432 C429 0.950 . S
C433 C424 1.390 1_655 S
C433 H426 0.950 . S
C433 C430 1.387 . S
C434 C435 1.387 . S
C434 H438 0.950 . S
C434 C443 1.390 . S
C435 C434 1.387 . S
C435 C437 1.387 . S
H436 C443 0.950 . S
C437 C435 1.387 . S
C437 C439 1.390 . S
C437 H441 0.950 . S
H438 C434 0.950 . S
C439 C437 1.390 . S
C439 C440 1.387 . S
C439 H442 0.950 . S
C440 C439 1.387 . S
C440 C443 1.387 . S
H441 C437 0.950 . S
H442 C439 0.950 . S
C443 C434 1.390 . S
C443 H436 0.950 . S
C443 C440 1.387 . S
C444 C445 1.387 . S
C444 H448 0.950 . S
C444 C453 1.390 . S
C445 C444 1.387 . S
C445 C447 1.387 . S
H446 C453 0.950 . S
C447 C445 1.387 . S
C447 C449 1.390 . S
C447 H451 0.950 . S
H448 C444 0.950 . S
C449 C447 1.390 . S
C449 C450 1.387 . S
C449 H452 0.950 . S
C450 C449 1.387 . S
C450 C453 1.387 . S
H451 C447 0.950 . S
H452 C449 0.950 . S
C453 C444 1.390 . S
C453 H446 0.950 . S
C453 C450 1.387 . S
C454 C455 1.387 . S
C454 H458 0.950 . S
C454 C463 1.390 . S
C455 C454 1.387 . S
C455 C457 1.387 . S
H456 C463 0.950 . S
C457 C455 1.387 . S
C457 C459 1.390 . S
C457 H461 0.950 . S
H458 C454 0.950 . S
C459 C457 1.390 . S
C459 C460 1.387 . S
C459 H462 0.950 . S
C460 C459 1.387 . S
C460 C463 1.387 . S
H461 C457 0.950 . S
H462 C459 0.950 . S
C463 C454 1.390 . S
C463 H456 0.950 . S
C463 C460 1.387 . S
C464 C465 1.387 . S
C464 H468 0.950 . S
C464 C473 1.390 . S
C465 C464 1.387 . S
C465 C467 1.387 . S
H466 C473 0.950 . S
C467 C465 1.387 . S
C467 C469 1.390 . S
C467 H471 0.950 1_565 S
H468 C464 0.950 . S
C469 C467 1.390 . S
C469 C470 1.387 . S
C469 H472 0.950 . S
C470 C469 1.387 . S
C470 C473 1.387 . S
H471 C467 0.950 1_545 S
H472 C469 0.950 . S
C473 C464 1.390 . S
C473 H466 0.950 . S
C473 C470 1.387 . S
C474 C475 1.387 . S
C474 H478 0.950 . S
C474 C483 1.390 . S
C475 C474 1.387 . S
C475 C477 1.387 . S
H476 C483 0.950 . S
C477 C475 1.387 . S
C477 C479 1.390 . S
C477 H481 0.950 . S
H478 C474 0.950 . S
C479 C477 1.390 . S
C479 C480 1.387 . S
C479 H482 0.950 . S
C480 C479 1.387 . S
C480 C483 1.387 . S
H481 C477 0.950 . S
H482 C479 0.950 . S
C483 C474 1.390 . S
C483 H476 0.950 . S
C483 C480 1.387 . S
C484 C485 1.387 . S
C484 H488 0.950 . S
C484 C493 1.390 . S
C485 C484 1.387 . S
C485 C487 1.387 . S
H486 C493 0.950 . S
C487 C485 1.387 . S
C487 C489 1.390 . S
C487 H491 0.950 . S
H488 C484 0.950 . S
C489 C487 1.390 . S
C489 C490 1.387 . S
C489 H492 0.950 . S
C490 C489 1.387 . S
C490 C493 1.387 . S
H491 C487 0.950 . S
H492 C489 0.950 . S
C493 C484 1.390 . S
C493 H486 0.950 . S
C493 C490 1.387 . S
C494 C495 1.387 . S
C494 H498 0.950 1_556 S
C494 C503 1.390 1_556 S
C495 C494 1.387 . S
C495 C497 1.387 . S
H496 C503 0.950 . S
C497 C495 1.387 . S
C497 C499 1.390 . S
C497 H501 0.950 . S
H498 C494 0.950 1_554 S
C499 C497 1.390 . S
C499 C500 1.387 . S
C499 H502 0.950 . S
C500 C499 1.387 . S
C500 C503 1.387 1_556 S
H501 C497 0.950 . S
H502 C499 0.950 . S
C503 C494 1.390 1_554 S
C503 H496 0.950 . S
C503 C500 1.387 1_554 S
C504 C505 1.387 . S
C504 H508 0.950 . S
C504 C513 1.390 . S
C505 C504 1.387 . S
C505 C507 1.387 . S
H506 C513 0.950 . S
C507 C505 1.387 . S
C507 C509 1.390 . S
C507 H511 0.950 1_655 S
H508 C504 0.950 . S
C509 C507 1.390 . S
C509 C510 1.387 . S
C509 H512 0.950 1_655 S
C510 C509 1.387 . S
C510 C513 1.387 . S
H511 C507 0.950 1_455 S
H512 C509 0.950 1_455 S
C513 C504 1.390 . S
C513 H506 0.950 . S
C513 C510 1.387 . S
C514 C515 1.387 . S
C514 H518 0.950 . S
C514 C523 1.390 . S
C515 C514 1.387 . S
C515 C517 1.387 . S
H516 C523 0.950 . S
C517 C515 1.387 . S
C517 C519 1.390 . S
C517 H521 0.950 . S
H518 C514 0.950 . S
C519 C517 1.390 . S
C519 C520 1.387 . S
C519 H522 0.950 . S
C520 C519 1.387 . S
C520 C523 1.387 . S
H521 C517 0.950 . S
H522 C519 0.950 . S
C523 C514 1.390 . S
C523 H516 0.950 . S
C523 C520 1.387 . S
C524 C525 1.387 . S
C524 H528 0.950 . S
C524 C533 1.390 . S
C525 C524 1.387 . S
C525 C527 1.387 . S
H526 C533 0.950 . S
C527 C525 1.387 . S
C527 C529 1.390 . S
C527 H531 0.950 . S
H528 C524 0.950 . S
C529 C527 1.390 . S
C529 C530 1.387 . S
C529 H532 0.950 . S
C530 C529 1.387 . S
C530 C533 1.387 . S
H531 C527 0.950 . S
H532 C529 0.950 . S
C533 C524 1.390 . S
C533 H526 0.950 . S
C533 C530 1.387 . S
C534 C535 1.387 . S
C534 H538 0.950 . S
C534 C543 1.390 . S
C535 C534 1.387 . S
C535 C537 1.387 . S
H536 C543 0.950 . S
C537 C535 1.387 . S
C537 C539 1.390 . S
C537 H541 0.950 . S
H538 C534 0.950 . S
C539 C537 1.390 . S
C539 C540 1.387 . S
C539 H542 0.950 . S
C540 C539 1.387 . S
C540 C543 1.387 . S
H541 C537 0.950 . S
H542 C539 0.950 . S
C543 C534 1.390 . S
C543 H536 0.950 . S
C543 C540 1.387 . S
C544 C545 1.387 . S
C544 H548 0.950 . S
C544 C553 1.390 . S
C545 C544 1.387 . S
C545 C547 1.387 . S
H546 C553 0.950 . S
C547 C545 1.387 . S
C547 C549 1.390 . S
C547 H551 0.950 . S
H548 C544 0.950 . S
C549 C547 1.390 . S
C549 C550 1.387 . S
C549 H552 0.950 . S
C550 C549 1.387 . S
C550 C553 1.387 . S
H551 C547 0.950 . S
H552 C549 0.950 . S
C553 C544 1.390 . S
C553 H546 0.950 . S
C553 C550 1.387 . S
C554 C555 1.387 1_556 S
C554 H558 0.950 1_556 S
C554 C563 1.390 . S
C555 C554 1.387 1_554 S
C555 C557 1.387 1_554 S
H556 C563 0.950 . S
C557 C555 1.387 1_556 S
C557 C559 1.390 . S
C557 H561 0.950 1_556 S
H558 C554 0.950 1_554 S
C559 C557 1.390 . S
C559 C560 1.387 . S
C559 H562 0.950 . S
C560 C559 1.387 . S
C560 C563 1.387 . S
H561 C557 0.950 1_554 S
H562 C559 0.950 . S
C563 C554 1.390 . S
C563 H556 0.950 . S
C563 C560 1.387 . S
C564 C565 1.387 1_556 S
C564 H568 0.950 . S
C564 C573 1.390 1_455 S
C565 C564 1.387 1_554 S
C565 C567 1.387 . S
H566 C573 0.950 . S
C567 C565 1.387 . S
C567 C569 1.390 1_455 S
C567 H571 0.950 . S
H568 C564 0.950 . S
C569 C567 1.390 1_655 S
C569 C570 1.387 . S
C569 H572 0.950 . S
C570 C569 1.387 . S
C570 C573 1.387 1_554 S
H571 C567 0.950 . S
H572 C569 0.950 . S
C573 C564 1.390 1_655 S
C573 H566 0.950 . S
C573 C570 1.387 1_556 S
C574 C575 1.387 . S
C574 H578 0.950 . S
C574 C583 1.390 . S
C575 C574 1.387 . S
C575 C577 1.387 . S
H576 C583 0.950 . S
C577 C575 1.387 . S
C577 C579 1.390 1_655 S
C577 H581 0.950 1_655 S
H578 C574 0.950 . S
C579 C577 1.390 1_455 S
C579 C580 1.387 1_455 S
C579 H582 0.950 . S
C580 C579 1.387 1_655 S
C580 C583 1.387 . S
H581 C577 0.950 1_455 S
H582 C579 0.950 . S
C583 C574 1.390 . S
C583 H576 0.950 . S
C583 C580 1.387 . S
C584 C585 1.387 . S
C584 H588 0.950 . S
C584 C593 1.390 . S
C585 C584 1.387 . S
C585 C587 1.387 . S
H586 C593 0.950 . S
C587 C585 1.387 . S
C587 C589 1.390 . S
C587 H591 0.950 . S
H588 C584 0.950 . S
C589 C587 1.390 . S
C589 C590 1.387 . S
C589 H592 0.950 . S
C590 C589 1.387 . S
C590 C593 1.387 . S
H591 C587 0.950 . S
H592 C589 0.950 . S
C593 C584 1.390 . S
C593 H586 0.950 . S
C593 C590 1.387 . S
C594 C595 1.387 . S
C594 H598 0.950 . S
C594 C603 1.390 . S
C595 C594 1.387 . S
C595 C597 1.387 . S
H596 C603 0.950 . S
C597 C595 1.387 . S
C597 C599 1.390 . S
C597 H601 0.950 . S
H598 C594 0.950 . S
C599 C597 1.390 . S
C599 C600 1.387 . S
C599 H602 0.950 . S
C600 C599 1.387 . S
C600 C603 1.387 . S
H601 C597 0.950 . S
H602 C599 0.950 . S
C603 C594 1.390 . S
C603 H596 0.950 . S
C603 C600 1.387 . S
C604 C605 1.387 . S
C604 H608 0.950 . S
C604 C613 1.390 . S
C605 C604 1.387 . S
C605 C607 1.387 . S
H606 C613 0.950 . S
C607 C605 1.387 . S
C607 C609 1.390 . S
C607 H611 0.950 . S
H608 C604 0.950 . S
C609 C607 1.390 . S
C609 C610 1.387 . S
C609 H612 0.950 . S
C610 C609 1.387 . S
C610 C613 1.387 . S
H611 C607 0.950 . S
H612 C609 0.950 . S
C613 C604 1.390 . S
C613 H606 0.950 . S
C613 C610 1.387 . S
C614 C615 1.387 . S
C614 H618 0.950 . S
C614 C623 1.390 . S
C615 C614 1.387 . S
C615 C617 1.387 . S
H616 C623 0.950 . S
C617 C615 1.387 . S
C617 C619 1.390 . S
C617 H621 0.950 . S
H618 C614 0.950 . S
C619 C617 1.390 . S
C619 C620 1.387 . S
C619 H622 0.950 . S
C620 C619 1.387 . S
C620 C623 1.387 . S
H621 C617 0.950 . S
H622 C619 0.950 . S
C623 C614 1.390 . S
C623 H616 0.950 . S
C623 C620 1.387 . S
C265 C84 1.563 . S
C270 C7 1.504 . S
C275 C51 1.795 . S
C280 C18 1.560 . S
C285 C62 1.847 . S
C290 C29 1.909 . S
C295 C73 1.944 . S
C300 C40 1.830 . S
C305 C95 1.576 1_565 S
C310 C139 1.580 . S
C315 C150 1.356 . S
C320 C106 1.353 . S
C325 C117 1.630 . S
C330 C161 1.609 . S
C335 C172 1.220 . S
C340 C128 1.224 . S
C345 C183 1.359 . S
C350 C238 1.285 . S
C355 C194 1.499 . S
C360 C216 1.579 . S
C365 C205 1.397 . S
C370 C249 1.435 . S
C375 C260 1.424 . S
C380 C227 1.225 . S
C385 C8 1.633 . S
C390 C173 1.662 . S
C395 C19 1.814 . S
C400 C137 1.874 . S
C405 C151 1.527 . S
C410 C27 1.515 . S
C415 C162 1.878 . S
C420 C41 1.850 . S
C425 C49 1.674 . S
C430 C104 1.116 . S
C435 C60 1.699 . S
C440 C118 1.805 . S
C445 C126 1.750 . S
C450 C71 1.779 . S
C455 C85 1.602 . S
C460 C93 1.558 . S
C465 C129 1.745 1_565 S
C470 C140 1.785 . S
C475 C228 1.682 . S
C480 C181 1.633 . S
C485 C192 1.384 . S
C490 C239 1.697 . S
C495 C203 1.561 . S
C500 C214 1.430 . S
C505 C159 1.815 . S
C510 C107 1.730 . S
C515 C63 1.894 . S
C520 C206 1.856 . S
C525 C258 1.343 . S
C530 C74 1.605 . S
C535 C82 1.667 . S
C540 C184 1.741 . S
C545 C195 1.684 . S
C550 C52 1.748 . S
C555 C236 1.245 . S
C560 C38 1.686 . S
C565 C5 1.231 . S
C570 C217 1.634 . S
C575 C16 1.107 . S
C580 C247 1.699 . S
C585 C225 1.222 . S
C590 C30 1.684 . S
C595 C250 1.737 . S
C600 C261 1.737 . S
C605 C96 1.715 . S
C610 C148 1.319 . S
C615 C170 1.466 . S
C620 C115 1.378 . S
