# Generated by pormake.
# Topology afi, (4)-cn, num edge types: 1
# Building blocks:
#     Node 0, Type 0, BuildingBlock: KUFVIS_clean_sbu_0, # of connection points: 4
#     Node 1, Type 0, BuildingBlock: KUFVIS_clean_sbu_0, # of connection points: 4
#     Node 2, Type 0, BuildingBlock: KUFVIS_clean_sbu_0, # of connection points: 4
#     Node 3, Type 0, BuildingBlock: KUFVIS_clean_sbu_0, # of connection points: 4
#     Node 4, Type 0, BuildingBlock: KUFVIS_clean_sbu_0, # of connection points: 4
#     Node 5, Type 0, BuildingBlock: KUFVIS_clean_sbu_0, # of connection points: 4
#     Node 6, Type 0, BuildingBlock: KUFVIS_clean_sbu_0, # of connection points: 4
#     Node 7, Type 0, BuildingBlock: KUFVIS_clean_sbu_0, # of connection points: 4
#     Node 8, Type 0, BuildingBlock: KUFVIS_clean_sbu_0, # of connection points: 4
#     Node 9, Type 0, BuildingBlock: KUFVIS_clean_sbu_0, # of connection points: 4
#     Node 10, Type 0, BuildingBlock: KUFVIS_clean_sbu_0, # of connection points: 4
#     Node 11, Type 0, BuildingBlock: KUFVIS_clean_sbu_0, # of connection points: 4
#     Node 12, Type 0, BuildingBlock: KUFVIS_clean_sbu_0, # of connection points: 4
#     Node 13, Type 0, BuildingBlock: KUFVIS_clean_sbu_0, # of connection points: 4
#     Node 14, Type 0, BuildingBlock: KUFVIS_clean_sbu_0, # of connection points: 4
#     Node 15, Type 0, BuildingBlock: KUFVIS_clean_sbu_0, # of connection points: 4
#     Node 16, Type 0, BuildingBlock: KUFVIS_clean_sbu_0, # of connection points: 4
#     Node 17, Type 0, BuildingBlock: KUFVIS_clean_sbu_0, # of connection points: 4
#     Node 18, Type 0, BuildingBlock: KUFVIS_clean_sbu_0, # of connection points: 4
#     Node 19, Type 0, BuildingBlock: KUFVIS_clean_sbu_0, # of connection points: 4
#     Node 20, Type 0, BuildingBlock: KUFVIS_clean_sbu_0, # of connection points: 4
#     Node 21, Type 0, BuildingBlock: KUFVIS_clean_sbu_0, # of connection points: 4
#     Node 22, Type 0, BuildingBlock: KUFVIS_clean_sbu_0, # of connection points: 4
#     Node 23, Type 0, BuildingBlock: KUFVIS_clean_sbu_0, # of connection points: 4
#     Edge 24, Type (0, 0), BuildingBlock: AJUNOK_clean_linker_0, # of connection points: 2
#     Edge 25, Type (0, 0), BuildingBlock: AJUNOK_clean_linker_0, # of connection points: 2
#     Edge 26, Type (0, 0), BuildingBlock: AJUNOK_clean_linker_0, # of connection points: 2
#     Edge 27, Type (0, 0), BuildingBlock: AJUNOK_clean_linker_0, # of connection points: 2
#     Edge 28, Type (0, 0), BuildingBlock: AJUNOK_clean_linker_0, # of connection points: 2
#     Edge 29, Type (0, 0), BuildingBlock: AJUNOK_clean_linker_0, # of connection points: 2
#     Edge 30, Type (0, 0), BuildingBlock: AJUNOK_clean_linker_0, # of connection points: 2
#     Edge 31, Type (0, 0), BuildingBlock: AJUNOK_clean_linker_0, # of connection points: 2
#     Edge 32, Type (0, 0), BuildingBlock: AJUNOK_clean_linker_0, # of connection points: 2
#     Edge 33, Type (0, 0), BuildingBlock: AJUNOK_clean_linker_0, # of connection points: 2
#     Edge 34, Type (0, 0), BuildingBlock: AJUNOK_clean_linker_0, # of connection points: 2
#     Edge 35, Type (0, 0), BuildingBlock: AJUNOK_clean_linker_0, # of connection points: 2
#     Edge 36, Type (0, 0), BuildingBlock: AJUNOK_clean_linker_0, # of connection points: 2
#     Edge 37, Type (0, 0), BuildingBlock: AJUNOK_clean_linker_0, # of connection points: 2
#     Edge 38, Type (0, 0), BuildingBlock: AJUNOK_clean_linker_0, # of connection points: 2
#     Edge 39, Type (0, 0), BuildingBlock: AJUNOK_clean_linker_0, # of connection points: 2
#     Edge 40, Type (0, 0), BuildingBlock: AJUNOK_clean_linker_0, # of connection points: 2
#     Edge 41, Type (0, 0), BuildingBlock: AJUNOK_clean_linker_0, # of connection points: 2
#     Edge 42, Type (0, 0), BuildingBlock: AJUNOK_clean_linker_0, # of connection points: 2
#     Edge 43, Type (0, 0), BuildingBlock: AJUNOK_clean_linker_0, # of connection points: 2
#     Edge 44, Type (0, 0), BuildingBlock: AJUNOK_clean_linker_0, # of connection points: 2
#     Edge 45, Type (0, 0), BuildingBlock: AJUNOK_clean_linker_0, # of connection points: 2
#     Edge 46, Type (0, 0), BuildingBlock: AJUNOK_clean_linker_0, # of connection points: 2
#     Edge 47, Type (0, 0), BuildingBlock: AJUNOK_clean_linker_0, # of connection points: 2
#     Edge 48, Type (0, 0), BuildingBlock: AJUNOK_clean_linker_0, # of connection points: 2
#     Edge 49, Type (0, 0), BuildingBlock: AJUNOK_clean_linker_0, # of connection points: 2
#     Edge 50, Type (0, 0), BuildingBlock: AJUNOK_clean_linker_0, # of connection points: 2
#     Edge 51, Type (0, 0), BuildingBlock: AJUNOK_clean_linker_0, # of connection points: 2
#     Edge 52, Type (0, 0), BuildingBlock: AJUNOK_clean_linker_0, # of connection points: 2
#     Edge 53, Type (0, 0), BuildingBlock: AJUNOK_clean_linker_0, # of connection points: 2
#     Edge 54, Type (0, 0), BuildingBlock: AJUNOK_clean_linker_0, # of connection points: 2
#     Edge 55, Type (0, 0), BuildingBlock: AJUNOK_clean_linker_0, # of connection points: 2
#     Edge 56, Type (0, 0), BuildingBlock: AJUNOK_clean_linker_0, # of connection points: 2
#     Edge 57, Type (0, 0), BuildingBlock: AJUNOK_clean_linker_0, # of connection points: 2
#     Edge 58, Type (0, 0), BuildingBlock: AJUNOK_clean_linker_0, # of connection points: 2
#     Edge 59, Type (0, 0), BuildingBlock: AJUNOK_clean_linker_0, # of connection points: 2
#     Edge 60, Type (0, 0), BuildingBlock: AJUNOK_clean_linker_0, # of connection points: 2
#     Edge 61, Type (0, 0), BuildingBlock: AJUNOK_clean_linker_0, # of connection points: 2
#     Edge 62, Type (0, 0), BuildingBlock: AJUNOK_clean_linker_0, # of connection points: 2
#     Edge 63, Type (0, 0), BuildingBlock: AJUNOK_clean_linker_0, # of connection points: 2
#     Edge 64, Type (0, 0), BuildingBlock: AJUNOK_clean_linker_0, # of connection points: 2
#     Edge 65, Type (0, 0), BuildingBlock: AJUNOK_clean_linker_0, # of connection points: 2
#     Edge 66, Type (0, 0), BuildingBlock: AJUNOK_clean_linker_0, # of connection points: 2
#     Edge 67, Type (0, 0), BuildingBlock: AJUNOK_clean_linker_0, # of connection points: 2
#     Edge 68, Type (0, 0), BuildingBlock: AJUNOK_clean_linker_0, # of connection points: 2
#     Edge 69, Type (0, 0), BuildingBlock: AJUNOK_clean_linker_0, # of connection points: 2
#     Edge 70, Type (0, 0), BuildingBlock: AJUNOK_clean_linker_0, # of connection points: 2
#     Edge 71, Type (0, 0), BuildingBlock: AJUNOK_clean_linker_0, # of connection points: 2
# Relax obj value: 0.071
# Max RMSD: 0.079
# Mean RMSD: 0.079
data_MOF--net-afi--node1-KUFVIS_clean_sbu_0--edge1-AJUNOK_clean_linker_0
_symmetry_space_group_name_H-M    P1
_symmetry_Int_Tables_number       1
_symmetry_cell_setting            triclinic
loop_
_symmetry_equiv_pos_as_xyz
'x, y, z'
_cell_length_a     49.080194
_cell_length_b     49.158971
_cell_length_c     28.446028
_cell_angle_alpha  90.049541
_cell_angle_beta   90.104704
_cell_angle_gamma 119.89327
loop_
_atom_site_label
_atom_site_type_symbol
_atom_site_fract_x
_atom_site_fract_y
_atom_site_fract_z
_atom_type_partial_charge
Mn0 Mn 0.48687 0.13307 0.20786 0.0
Mn1 Mn 0.54283 0.19496 0.14861 0.0
C2 C 0.53917 0.15731 0.23257 0.0
C3 C 0.45719 0.0799 0.22521 0.0
C4 C 0.49717 0.19988 0.21448 0.0
O5 O 0.46606 0.12847 0.14301 0.0
O6 O 0.5058 0.17066 0.10775 0.0
C7 C 0.55716 0.15785 0.08161 0.0
N8 N 0.56711 0.18145 0.11377 0.0
C9 C 0.62068 0.19313 0.1066 0.0
C10 C 0.61109 0.16919 0.07301 0.0
C11 C 0.57904 0.15099 0.06134 0.0
C12 C 0.59755 0.19798 0.12707 0.0
H13 H 0.53264 0.14394 0.0723 0.0
C14 C 0.47845 0.1463 0.1073 0.0
O15 O 0.44735 0.09918 0.2359 0.0
O16 O 0.48321 0.09106 0.20166 0.0
N17 N 0.5805 0.22049 0.18334 0.0
C18 C 0.58544 0.24131 0.2185 0.0
C19 C 0.61621 0.26184 0.23378 0.0
C20 C 0.64147 0.26063 0.21284 0.0
C21 C 0.63575 0.23823 0.1781 0.0
C22 C 0.60471 0.21906 0.16331 0.0
H23 H 0.56617 0.24288 0.23385 0.0
O24 O 0.51651 0.1419 0.26217 0.0
O25 O 0.5304 0.15891 0.19012 0.0
O26 O 0.48241 0.17101 0.22582 0.0
O27 O 0.5196 0.21134 0.18479 0.0
C28 C 0.65969 0.23461 0.1569 0.0
C29 C 0.65208 0.21171 0.12163 0.0
H30 H 0.62798 0.16405 0.05683 0.0
H31 H 0.57125 0.13182 0.03653 0.0
H32 H 0.6205 0.279 0.26085 0.0
H33 H 0.66522 0.27751 0.22271 0.0
H34 H 0.68394 0.24902 0.16789 0.0
H35 H 0.67053 0.20856 0.10635 0.0
Mn36 Mn 0.37723 0.4831 0.22172 0.0
Mn37 Mn 0.37691 0.54056 0.15755 0.0
C38 C 0.40571 0.5353 0.24818 0.0
C39 C 0.40012 0.45195 0.23815 0.0
C40 C 0.32201 0.49538 0.21858 0.0
O41 O 0.36018 0.46198 0.15718 0.0
O42 O 0.36843 0.50476 0.1167 0.0
C43 C 0.43649 0.55596 0.11057 0.0
N44 N 0.41818 0.56565 0.13255 0.0
C45 C 0.46051 0.61915 0.13399 0.0
C46 C 0.47949 0.60997 0.1098 0.0
C47 C 0.46767 0.57812 0.09907 0.0
C48 C 0.43008 0.59582 0.14606 0.0
H49 H 0.42743 0.53144 0.1025 0.0
C50 C 0.36063 0.47586 0.11892 0.0
O51 O 0.37125 0.44296 0.24967 0.0
O52 O 0.41489 0.47805 0.21512 0.0
N53 N 0.38438 0.57769 0.19008 0.0
C54 C 0.36356 0.58224 0.21584 0.0
C55 C 0.37128 0.6128 0.22898 0.0
C56 C 0.40014 0.63841 0.21511 0.0
C57 C 0.42103 0.63326 0.18822 0.0
C58 C 0.41157 0.60238 0.17483 0.0
H59 H 0.341 0.56281 0.22566 0.0
O60 O 0.39824 0.51207 0.27665 0.0
O61 O 0.39616 0.52696 0.20533 0.0
O62 O 0.3356 0.48152 0.237 0.0
O63 O 0.33422 0.51583 0.18569 0.0
C64 C 0.45092 0.65747 0.17436 0.0
C65 C 0.47091 0.65033 0.14804 0.0
H66 H 0.50338 0.62704 0.10029 0.0
H67 H 0.48241 0.57071 0.08144 0.0
H68 H 0.35489 0.61663 0.24938 0.0
H69 H 0.40591 0.66196 0.225 0.0
H70 H 0.45904 0.68154 0.18472 0.0
H71 H 0.49425 0.66895 0.13896 0.0
Mn72 Mn 0.91032 0.35868 0.20005 0.0
Mn73 Mn 0.84739 0.35261 0.14213 0.0
C74 C 0.88497 0.38417 0.23172 0.0
C75 C 0.96408 0.38351 0.21823 0.0
C76 C 0.844 0.30101 0.20372 0.0
O77 O 0.91702 0.34663 0.13383 0.0
O78 O 0.87326 0.34193 0.10124 0.0
C79 C 0.88498 0.40664 0.07994 0.0
N80 N 0.85905 0.3897 0.10687 0.0
C81 C 0.83994 0.42525 0.09098 0.0
C82 C 0.86617 0.44287 0.06229 0.0
C83 C 0.88911 0.43384 0.05759 0.0
C84 C 0.83755 0.39883 0.11335 0.0
H85 H 0.90261 0.39975 0.07644 0.0
C86 C 0.89851 0.34061 0.099 0.0
O87 O 0.94568 0.35379 0.22578 0.0
O88 O 0.95167 0.39832 0.19777 0.0
N89 N 0.81857 0.36183 0.17353 0.0
C90 C 0.79765 0.34519 0.20802 0.0
C91 C 0.77316 0.35123 0.21808 0.0
C92 C 0.77071 0.37459 0.19322 0.0
C93 C 0.79278 0.39174 0.1584 0.0
C94 C 0.81561 0.38354 0.14816 0.0
H95 H 0.79906 0.32681 0.22672 0.0
O96 O 0.8999 0.37404 0.2573 0.0
O97 O 0.88308 0.37703 0.18684 0.0
O98 O 0.87317 0.31453 0.21379 0.0
O99 O 0.83205 0.31324 0.17735 0.0
C100 C 0.79319 0.41679 0.13367 0.0
C101 C 0.81709 0.43388 0.10053 0.0
H102 H 0.86947 0.46391 0.04497 0.0
H103 H 0.91007 0.4479 0.03709 0.0
H104 H 0.75617 0.33789 0.24489 0.0
H105 H 0.75191 0.37932 0.2014 0.0
H106 H 0.77584 0.42372 0.14095 0.0
H107 H 0.81805 0.45399 0.08331 0.0
Mn108 Mn 0.56587 0.90064 0.20762 0.0
Mn109 Mn 0.5097 0.83668 0.1511 0.0
C110 C 0.51523 0.87499 0.23949 0.0
C111 C 0.59407 0.95471 0.22357 0.0
C112 C 0.5584 0.83492 0.21417 0.0
O113 O 0.58482 0.90645 0.14174 0.0
O114 O 0.54597 0.86241 0.10987 0.0
C115 C 0.4922 0.8733 0.08825 0.0
N116 N 0.48371 0.84755 0.11537 0.0
C117 C 0.42888 0.82787 0.09984 0.0
C118 C 0.43699 0.85388 0.07086 0.0
C119 C 0.46878 0.87707 0.06604 0.0
C120 C 0.45324 0.82598 0.12233 0.0
H121 H 0.51661 0.8911 0.08461 0.0
C122 C 0.57248 0.88758 0.10734 0.0
O123 O 0.6056 0.9366 0.23275 0.0
O124 O 0.56687 0.94166 0.2029 0.0
N125 N 0.47198 0.80774 0.18283 0.0
C126 C 0.46822 0.78654 0.21663 0.0
C127 C 0.43801 0.76146 0.22612 0.0
C128 C 0.4119 0.75881 0.20171 0.0
C129 C 0.41626 0.78108 0.1675 0.0
C130 C 0.44707 0.8044 0.15752 0.0
H131 H 0.48821 0.78805 0.23498 0.0
O132 O 0.54029 0.89094 0.26467 0.0
O133 O 0.52041 0.87265 0.19475 0.0
O134 O 0.57353 0.86415 0.22363 0.0
O135 O 0.53448 0.82241 0.18721 0.0
C136 C 0.39132 0.78101 0.14272 0.0
C137 C 0.3976 0.80477 0.10952 0.0
H138 H 0.41899 0.85684 0.05346 0.0
H139 H 0.47526 0.89795 0.04559 0.0
H140 H 0.43484 0.74411 0.2521 0.0
H141 H 0.38862 0.73956 0.20948 0.0
H142 H 0.3672 0.76332 0.14985 0.0
H143 H 0.37821 0.80533 0.09222 0.0
Mn144 Mn 0.68385 0.55488 0.22048 0.0
Mn145 Mn 0.68175 0.49619 0.15612 0.0
C146 C 0.65222 0.50299 0.24323 0.0
C147 C 0.66398 0.5882 0.23848 0.0
C148 C 0.73531 0.53617 0.22298 0.0
O149 O 0.70159 0.57635 0.157 0.0
O150 O 0.69921 0.53507 0.11862 0.0
C151 C 0.63305 0.49101 0.08913 0.0
N152 N 0.64352 0.47736 0.12056 0.0
C153 C 0.59637 0.42738 0.11134 0.0
C154 C 0.58522 0.44082 0.07852 0.0
C155 C 0.60351 0.47289 0.06777 0.0
C156 C 0.62575 0.44677 0.13209 0.0
H157 H 0.64698 0.51559 0.08068 0.0
C158 C 0.70564 0.56364 0.12046 0.0
O159 O 0.69236 0.59536 0.25041 0.0
O160 O 0.6479 0.56261 0.2145 0.0
N161 N 0.66466 0.45671 0.18747 0.0
C162 C 0.67788 0.44788 0.22201 0.0
C163 C 0.66234 0.41664 0.23742 0.0
C164 C 0.63339 0.39488 0.21721 0.0
C165 C 0.62022 0.40451 0.18184 0.0
C166 C 0.6371 0.43578 0.1672 0.0
H167 H 0.70022 0.46449 0.23741 0.0
O168 O 0.66138 0.52547 0.27382 0.0
O169 O 0.66224 0.51158 0.20065 0.0
O170 O 0.72448 0.55382 0.23635 0.0
O171 O 0.72146 0.51408 0.19282 0.0
C172 C 0.59099 0.38431 0.1606 0.0
C173 C 0.57898 0.39578 0.12555 0.0
H174 H 0.56251 0.42688 0.06186 0.0
H175 H 0.59499 0.48353 0.04279 0.0
H176 H 0.67285 0.40937 0.26445 0.0
H177 H 0.6215 0.37073 0.22858 0.0
H178 H 0.57735 0.36001 0.17143 0.0
H179 H 0.55618 0.38022 0.11017 0.0
Mn180 Mn 0.14943 0.67712 0.21656 0.0
Mn181 Mn 0.20836 0.68109 0.15006 0.0
C182 C 0.17564 0.65075 0.24235 0.0
C183 C 0.0959 0.65338 0.23578 0.0
C184 C 0.21623 0.7337 0.21441 0.0
O185 O 0.14147 0.69125 0.15245 0.0
O186 O 0.17992 0.68971 0.11218 0.0
C187 C 0.16544 0.62325 0.09809 0.0
N188 N 0.19336 0.64129 0.12041 0.0
C189 C 0.20726 0.60098 0.11292 0.0
C190 C 0.17901 0.58226 0.08875 0.0
C191 C 0.15767 0.59316 0.0824 0.0
C192 C 0.2131 0.63025 0.12938 0.0
H193 H 0.1489 0.63149 0.09352 0.0
C194 C 0.15626 0.69373 0.11446 0.0
O195 O 0.11535 0.68255 0.2459 0.0
O196 O 0.10737 0.63831 0.21356 0.0
N197 N 0.23941 0.67375 0.17832 0.0
C198 C 0.26431 0.69365 0.20573 0.0
C199 C 0.28813 0.68655 0.21553 0.0
C200 C 0.28617 0.65909 0.19717 0.0
C201 C 0.26062 0.63919 0.16853 0.0
C202 C 0.23829 0.64818 0.15834 0.0
H203 H 0.26627 0.71501 0.21955 0.0
O204 O 0.16085 0.65932 0.27115 0.0
O205 O 0.1757 0.65909 0.19879 0.0
O206 O 0.18815 0.71988 0.23001 0.0
O207 O 0.22576 0.72239 0.18203 0.0
C208 C 0.25615 0.61057 0.15031 0.0
C209 C 0.22921 0.59123 0.12311 0.0
H210 H 0.17304 0.55913 0.07615 0.0
H211 H 0.13516 0.5783 0.06583 0.0
H212 H 0.30796 0.70222 0.23723 0.0
H213 H 0.30434 0.65346 0.20545 0.0
H214 H 0.27285 0.60285 0.158 0.0
H215 H 0.22543 0.56878 0.11064 0.0
Mn216 Mn 0.91198 0.55304 0.31517 0.0
Mn217 Mn 0.85457 0.49479 0.37888 0.0
C218 C 0.89149 0.50101 0.2922 0.0
C219 C 0.96542 0.58615 0.29833 0.0
C220 C 0.84205 0.535 0.31116 0.0
O221 O 0.91524 0.57491 0.37823 0.0
O222 O 0.87586 0.53392 0.41595 0.0
C223 C 0.89646 0.48925 0.44872 0.0
N224 N 0.87295 0.47575 0.41625 0.0
C225 C 0.86703 0.42483 0.4303 0.0
C226 C 0.89092 0.4381 0.46432 0.0
C227 C 0.90595 0.47054 0.47316 0.0
C228 C 0.85899 0.44477 0.4065 0.0
H229 H 0.90789 0.5141 0.45592 0.0
C230 C 0.89795 0.56246 0.41426 0.0
O231 O 0.94439 0.5934 0.28567 0.0
O232 O 0.95557 0.56053 0.32224 0.0
N233 N 0.83197 0.45503 0.34822 0.0
C234 C 0.80991 0.44611 0.31367 0.0
C235 C 0.79273 0.41443 0.30053 0.0
C236 C 0.79861 0.39231 0.32265 0.0
C237 C 0.82138 0.40203 0.35814 0.0
C238 C 0.8372 0.43379 0.37061 0.0
H239 H 0.80499 0.46292 0.29701 0.0
O240 O 0.90526 0.52361 0.26205 0.0
O241 O 0.88983 0.5095 0.33492 0.0
O242 O 0.87058 0.55242 0.29811 0.0
O243 O 0.83348 0.51278 0.34099 0.0
C244 C 0.82861 0.38136 0.38217 0.0
C245 C 0.85154 0.39278 0.41808 0.0
H246 H 0.89816 0.4237 0.48342 0.0
H247 H 0.92454 0.481 0.4991 0.0
H248 H 0.77454 0.40708 0.27419 0.0
H249 H 0.78511 0.36781 0.31297 0.0
H250 H 0.81678 0.35665 0.37314 0.0
H251 H 0.85724 0.37677 0.43584 0.0
Mn252 Mn 0.37395 0.90176 0.32392 0.0
Mn253 Mn 0.37266 0.84248 0.38516 0.0
C254 C 0.40434 0.88014 0.30003 0.0
C255 C 0.39552 0.95488 0.30647 0.0
C256 C 0.32123 0.83301 0.31671 0.0
O257 O 0.35568 0.90504 0.38736 0.0
O258 O 0.35527 0.86393 0.423 0.0
C259 C 0.42028 0.88282 0.45584 0.0
N260 N 0.40976 0.85941 0.42321 0.0
C261 C 0.45441 0.85251 0.43621 0.0
C262 C 0.46556 0.87631 0.47036 0.0
C263 C 0.44861 0.89181 0.47977 0.0
C264 C 0.42642 0.84511 0.41276 0.0
H265 H 0.40728 0.89469 0.46338 0.0
C266 C 0.34986 0.88679 0.42253 0.0
O267 O 0.36688 0.93459 0.2945 0.0
O268 O 0.41059 0.94457 0.33141 0.0
N269 N 0.38925 0.81958 0.35377 0.0
C270 C 0.37593 0.79809 0.31857 0.0
C271 C 0.38987 0.78043 0.30494 0.0
C272 C 0.4175 0.78526 0.32728 0.0
C273 C 0.43085 0.80758 0.36322 0.0
C274 C 0.4154 0.82384 0.37626 0.0
H275 H 0.35445 0.79395 0.30178 0.0
O276 O 0.39603 0.89466 0.27033 0.0
O277 O 0.3943 0.87836 0.34281 0.0
O278 O 0.33295 0.86186 0.30573 0.0
O279 O 0.33405 0.82305 0.34601 0.0
C280 C 0.4586 0.81398 0.38713 0.0
C281 C 0.47051 0.83662 0.42337 0.0
H282 H 0.48726 0.88312 0.48911 0.0
H283 H 0.45716 0.91036 0.50577 0.0
H284 H 0.37887 0.7627 0.27803 0.0
H285 H 0.42798 0.77129 0.31744 0.0
H286 H 0.47111 0.80181 0.37764 0.0
H287 H 0.49219 0.84179 0.44089 0.0
Mn288 Mn 0.49045 0.35869 0.32408 0.0
Mn289 Mn 0.54495 0.34972 0.38414 0.0
C290 C 0.54187 0.38373 0.2948 0.0
C291 C 0.46264 0.38468 0.30568 0.0
C292 C 0.49647 0.29958 0.32062 0.0
O293 O 0.47046 0.34631 0.38943 0.0
O294 O 0.50871 0.34126 0.42423 0.0
C295 C 0.56409 0.40468 0.44575 0.0
N296 N 0.57174 0.38637 0.41948 0.0
C297 C 0.62672 0.41913 0.43661 0.0
C298 C 0.61944 0.4381 0.46476 0.0
C299 C 0.58804 0.4312 0.46841 0.0
C300 C 0.60189 0.39348 0.41391 0.0
H301 H 0.53998 0.39938 0.44846 0.0
C302 C 0.48233 0.34041 0.42513 0.0
O303 O 0.45103 0.35501 0.29713 0.0
O304 O 0.48968 0.39891 0.32682 0.0
N305 N 0.58245 0.35635 0.35369 0.0
C306 C 0.58562 0.33843 0.31996 0.0
C307 C 0.61545 0.3422 0.31096 0.0
C308 C 0.6418 0.36483 0.33587 0.0
C309 C 0.638 0.38309 0.37027 0.0
C310 C 0.60748 0.37691 0.37971 0.0
H311 H 0.56544 0.32078 0.30096 0.0
O312 O 0.51735 0.37403 0.26807 0.0
O313 O 0.53569 0.37575 0.33928 0.0
O314 O 0.48236 0.31438 0.30912 0.0
O315 O 0.51959 0.3105 0.34897 0.0
C316 C 0.66327 0.40738 0.39526 0.0
C317 C 0.65768 0.42571 0.42788 0.0
H318 H 0.63786 0.45864 0.48231 0.0
H319 H 0.58225 0.44645 0.4881 0.0
H320 H 0.61817 0.3279 0.28453 0.0
H321 H 0.66485 0.36815 0.32799 0.0
H322 H 0.68718 0.41278 0.38859 0.0
H323 H 0.67739 0.44521 0.44531 0.0
Mn324 Mn 0.14673 0.48012 0.30732 0.0
Mn325 Mn 0.20488 0.53811 0.37078 0.0
C326 C 0.17041 0.53216 0.28108 0.0
C327 C 0.09287 0.44913 0.29004 0.0
C328 C 0.21484 0.49351 0.30871 0.0
O329 O 0.14231 0.45939 0.37219 0.0
O330 O 0.17876 0.50191 0.41132 0.0
C331 C 0.1597 0.55136 0.41954 0.0
N332 N 0.18767 0.56207 0.39704 0.0
C333 C 0.19602 0.61463 0.3949 0.0
C334 C 0.16776 0.60435 0.41927 0.0
C335 C 0.14912 0.57241 0.43051 0.0
C336 C 0.20456 0.59225 0.383 0.0
H337 H 0.14524 0.52677 0.42792 0.0
C338 C 0.15694 0.4733 0.40987 0.0
O339 O 0.11272 0.43997 0.27903 0.0
O340 O 0.10408 0.4752 0.31328 0.0
N341 N 0.23322 0.5757 0.33818 0.0
C342 C 0.25861 0.58122 0.3117 0.0
C343 C 0.28023 0.61204 0.29804 0.0
C344 C 0.27572 0.6369 0.31212 0.0
C345 C 0.24965 0.63075 0.33971 0.0
C346 C 0.22953 0.59971 0.35359 0.0
H347 H 0.26267 0.56236 0.30163 0.0
O348 O 0.15482 0.509 0.25232 0.0
O349 O 0.17153 0.52388 0.32386 0.0
O350 O 0.18685 0.47853 0.29227 0.0
O351 O 0.22359 0.5145 0.34098 0.0
C352 C 0.24263 0.65411 0.35358 0.0
C353 C 0.21542 0.64592 0.38032 0.0
H354 H 0.15978 0.6206 0.42849 0.0
H355 H 0.12686 0.56411 0.44819 0.0
H356 H 0.30044 0.61664 0.27704 0.0
H357 H 0.29254 0.66065 0.30189 0.0
H358 H 0.25749 0.67825 0.34276 0.0
H359 H 0.20956 0.66381 0.38925 0.0
Mn360 Mn 0.6831 0.13703 0.31223 0.0
Mn361 Mn 0.693 0.20073 0.37193 0.0
C362 C 0.65799 0.16364 0.28362 0.0
C363 C 0.65742 0.08355 0.2933 0.0
C364 C 0.74245 0.20199 0.30755 0.0
O365 O 0.696 0.12954 0.37736 0.0
O366 O 0.70278 0.17365 0.4115 0.0
C367 C 0.63908 0.16468 0.43493 0.0
N368 N 0.6568 0.19067 0.40857 0.0
C369 C 0.62264 0.21139 0.42525 0.0
C370 C 0.60432 0.18514 0.45353 0.0
C371 C 0.61218 0.16133 0.45736 0.0
C372 C 0.64868 0.21296 0.40265 0.0
H373 H 0.64501 0.14633 0.43762 0.0
C374 C 0.70322 0.14793 0.41255 0.0
O375 O 0.68707 0.10176 0.28499 0.0
O376 O 0.64288 0.09597 0.31466 0.0
N377 N 0.68494 0.23056 0.34147 0.0
C378 C 0.70188 0.25118 0.30687 0.0
C379 C 0.69699 0.27639 0.29727 0.0
C380 C 0.67412 0.27968 0.32227 0.0
C381 C 0.65673 0.25797 0.35737 0.0
C382 C 0.66408 0.23453 0.36746 0.0
H383 H 0.71965 0.24897 0.28768 0.0
O384 O 0.66716 0.14853 0.25657 0.0
O385 O 0.66632 0.16527 0.32792 0.0
O386 O 0.72744 0.17296 0.29721 0.0
O387 O 0.73183 0.21474 0.33537 0.0
C388 C 0.63223 0.25845 0.38248 0.0
C389 C 0.61482 0.23483 0.41584 0.0
H390 H 0.58346 0.18239 0.47085 0.0
H391 H 0.59735 0.1402 0.47696 0.0
H392 H 0.71065 0.29312 0.27033 0.0
H393 H 0.66996 0.29881 0.31393 0.0
H394 H 0.6259 0.27624 0.37526 0.0
H395 H 0.59502 0.23448 0.43319 0.0
Mn396 Mn 0.57112 0.67913 0.32067 0.0
Mn397 Mn 0.51456 0.6834 0.38228 0.0
C398 C 0.5192 0.65303 0.29176 0.0
C399 C 0.60123 0.65541 0.30358 0.0
C400 C 0.56096 0.73592 0.31971 0.0
O401 O 0.59149 0.69297 0.38609 0.0
O402 O 0.55107 0.69319 0.42228 0.0
C403 C 0.50001 0.62675 0.43703 0.0
N404 N 0.48994 0.64378 0.4123 0.0
C405 C 0.43616 0.60227 0.41712 0.0
C406 C 0.44585 0.58457 0.44368 0.0
C407 C 0.47801 0.5966 0.45265 0.0
C408 C 0.45935 0.63164 0.40088 0.0
H409 H 0.52472 0.6358 0.44364 0.0
C410 C 0.57854 0.69665 0.4225 0.0
O411 O 0.61123 0.68466 0.29386 0.0
O412 O 0.57426 0.64028 0.32455 0.0
N413 N 0.47649 0.67487 0.35158 0.0
C414 C 0.47136 0.69446 0.32373 0.0
C415 C 0.44044 0.68634 0.31183 0.0
C416 C 0.41508 0.65837 0.32892 0.0
C417 C 0.42085 0.63892 0.35828 0.0
C418 C 0.4521 0.64877 0.37029 0.0
H419 H 0.49063 0.71626 0.31106 0.0
O420 O 0.54321 0.66143 0.26442 0.0
O421 O 0.52649 0.66124 0.33562 0.0
O422 O 0.57586 0.72212 0.30672 0.0
O423 O 0.53857 0.72439 0.34965 0.0
C424 C 0.39688 0.61008 0.37591 0.0
C425 C 0.40458 0.59151 0.40471 0.0
H426 H 0.42891 0.56142 0.45629 0.0
H427 H 0.4859 0.58257 0.47121 0.0
H428 H 0.43615 0.70162 0.28959 0.0
H429 H 0.39129 0.65212 0.31937 0.0
H430 H 0.37252 0.60168 0.36676 0.0
H431 H 0.38608 0.56896 0.41696 0.0
Mn432 Mn 0.56114 0.8981 0.81107 0.0
Mn433 Mn 0.50824 0.83346 0.86949 0.0
C434 C 0.50885 0.8709 0.78447 0.0
C435 C 0.58943 0.9524 0.79592 0.0
C436 C 0.55891 0.83504 0.80723 0.0
O437 O 0.58183 0.90248 0.87614 0.0
O438 O 0.54126 0.86206 0.91363 0.0
C439 C 0.47982 0.86095 0.93161 0.0
N440 N 0.47667 0.83843 0.90069 0.0
C441 C 0.42027 0.81156 0.90666 0.0
C442 C 0.42283 0.83441 0.93867 0.0
C443 C 0.45267 0.85967 0.95003 0.0
C444 C 0.44801 0.81502 0.88739 0.0
H445 H 0.5028 0.88012 0.94085 0.0
C446 C 0.56872 0.88632 0.91312 0.0
O447 O 0.59999 0.93387 0.78446 0.0
O448 O 0.56295 0.93968 0.81864 0.0
N449 N 0.47491 0.80347 0.83099 0.0
C450 C 0.47647 0.78673 0.79393 0.0
C451 C 0.44886 0.76089 0.77704 0.0
C452 C 0.42004 0.75237 0.7987 0.0
C453 C 0.41878 0.77095 0.83516 0.0
C454 C 0.44716 0.79618 0.8509 0.0
H455 H 0.49864 0.79251 0.77809 0.0
O456 O 0.53193 0.88856 0.75667 0.0
O457 O 0.51719 0.86912 0.82743 0.0
O458 O 0.56884 0.86243 0.79093 0.0
O459 O 0.53838 0.82345 0.83948 0.0
C460 C 0.39064 0.76542 0.85675 0.0
C461 C 0.39132 0.78618 0.89168 0.0
H462 H 0.40203 0.83336 0.95358 0.0
H463 H 0.45461 0.8783 0.97232 0.0
H464 H 0.4499 0.74723 0.74799 0.0
H465 H 0.3992 0.73145 0.78703 0.0
H466 H 0.36831 0.74573 0.84608 0.0
H467 H 0.36944 0.78253 0.90655 0.0
Mn468 Mn 0.68329 0.55611 0.82777 0.0
Mn469 Mn 0.70049 0.50481 0.87946 0.0
C470 C 0.65801 0.50393 0.80232 0.0
C471 C 0.65546 0.58293 0.81592 0.0
C472 C 0.74579 0.55794 0.8173 0.0
O473 O 0.70125 0.57621 0.89253 0.0
O474 O 0.7058 0.53681 0.92648 0.0
C475 C 0.65628 0.4724 0.95713 0.0
N476 N 0.66747 0.47126 0.91385 0.0
C477 C 0.64233 0.4148 0.91714 0.0
C478 C 0.62976 0.41539 0.96101 0.0
C479 C 0.6371 0.4443 0.98123 0.0
C480 C 0.66143 0.44351 0.89476 0.0
H481 H 0.66268 0.4946 0.97366 0.0
C482 C 0.70719 0.5636 0.92777 0.0
O483 O 0.68438 0.59439 0.80308 0.0
O484 O 0.64296 0.55652 0.83879 0.0
N485 N 0.69574 0.47345 0.83556 0.0
C486 C 0.71067 0.47718 0.79376 0.0
C487 C 0.70731 0.45075 0.77002 0.0
C488 C 0.68944 0.42099 0.79022 0.0
C489 C 0.67265 0.41752 0.8317 0.0
C490 C 0.67632 0.44473 0.8532 0.0
H491 H 0.72546 0.50013 0.779 0.0
O492 O 0.66222 0.52654 0.77422 0.0
O493 O 0.67021 0.51268 0.84414 0.0
O494 O 0.72659 0.56625 0.80299 0.0
O495 O 0.73833 0.53651 0.84746 0.0
C496 C 0.65318 0.38835 0.85323 0.0
C497 C 0.63787 0.38697 0.89581 0.0
H498 H 0.61523 0.39387 0.98013 0.0
H499 H 0.62882 0.44484 0.01596 0.0
H500 H 0.71938 0.45345 0.73708 0.0
H501 H 0.68936 0.40118 0.77394 0.0
H502 H 0.65013 0.36688 0.8377 0.0
H503 H 0.62328 0.36444 0.91241 0.0
Mn504 Mn 0.14 0.66871 0.8208 0.0
Mn505 Mn 0.20388 0.67776 0.87997 0.0
C506 C 0.16832 0.64571 0.79102 0.0
C507 C 0.08651 0.64279 0.7999 0.0
C508 C 0.20472 0.72881 0.81997 0.0
O509 O 0.13262 0.68085 0.88675 0.0
O510 O 0.17663 0.68662 0.92097 0.0
C511 C 0.1695 0.62339 0.94319 0.0
N512 N 0.1942 0.64073 0.91424 0.0
C513 C 0.21519 0.60629 0.92642 0.0
C514 C 0.1903 0.58834 0.95716 0.0
C515 C 0.16697 0.5965 0.96458 0.0
C516 C 0.21601 0.63233 0.90509 0.0
H517 H 0.1516 0.62969 0.949 0.0
C518 C 0.15102 0.68745 0.92204 0.0
O519 O 0.10476 0.67261 0.79332 0.0
O520 O 0.09884 0.62825 0.8216 0.0
N521 N 0.23303 0.67016 0.84631 0.0
C522 C 0.25196 0.68655 0.80974 0.0
C523 C 0.27583 0.68051 0.79569 0.0
C524 C 0.28003 0.65782 0.81951 0.0
C525 C 0.25959 0.64054 0.85597 0.0
C526 C 0.23682 0.64818 0.86928 0.0
H527 H 0.24925 0.70451 0.79208 0.0
O528 O 0.15194 0.65355 0.76427 0.0
O529 O 0.16878 0.65269 0.83554 0.0
O530 O 0.17586 0.71355 0.80822 0.0
O531 O 0.21757 0.71749 0.84634 0.0
C532 C 0.26064 0.61577 0.87922 0.0
C533 C 0.23817 0.59837 0.91401 0.0
H534 H 0.1882 0.56758 0.97383 0.0
H535 H 0.14679 0.5818 0.98601 0.0
H536 H 0.29114 0.6935 0.76688 0.0
H537 H 0.29894 0.65374 0.80945 0.0
H538 H 0.278 0.60928 0.86958 0.0
H539 H 0.23834 0.57853 0.93025 0.0
Mn540 Mn 0.48751 0.1328 0.81021 0.0
Mn541 Mn 0.54051 0.19854 0.86594 0.0
C542 C 0.53977 0.15906 0.78508 0.0
C543 C 0.45967 0.07842 0.79584 0.0
C544 C 0.48786 0.1948 0.80609 0.0
O545 O 0.46799 0.12993 0.87605 0.0
O546 O 0.50955 0.17053 0.91296 0.0
C547 C 0.57431 0.17963 0.93293 0.0
N548 N 0.57462 0.19655 0.89491 0.0
C549 C 0.63128 0.22554 0.89433 0.0
C550 C 0.63156 0.20771 0.93237 0.0
C551 C 0.603 0.18442 0.95118 0.0
C552 C 0.60207 0.21874 0.87595 0.0
H553 H 0.55238 0.16214 0.94827 0.0
C554 C 0.48188 0.1463 0.91292 0.0
O555 O 0.44852 0.09645 0.78438 0.0
O556 O 0.48618 0.09147 0.81866 0.0
N557 N 0.5711 0.22673 0.82231 0.0
C558 C 0.56683 0.24032 0.78339 0.0
C559 C 0.59296 0.26444 0.76067 0.0
C560 C 0.62312 0.27489 0.7789 0.0
C561 C 0.62714 0.25931 0.81721 0.0
C562 C 0.60017 0.23491 0.83782 0.0
H563 H 0.54373 0.2333 0.77009 0.0
O564 O 0.51714 0.14167 0.75616 0.0
O565 O 0.53086 0.16165 0.82696 0.0
O566 O 0.47933 0.16799 0.78844 0.0
O567 O 0.50811 0.20637 0.83879 0.0
C568 C 0.6567 0.26736 0.83637 0.0
C569 C 0.65882 0.25008 0.87432 0.0
H570 H 0.65353 0.21147 0.94718 0.0
H571 H 0.60334 0.1697 0.97867 0.0
H572 H 0.58976 0.27565 0.73009 0.0
H573 H 0.64283 0.29506 0.76333 0.0
H574 H 0.67794 0.28681 0.82232 0.0
H575 H 0.68172 0.25616 0.8883 0.0
Mn576 Mn 0.37098 0.48091 0.82636 0.0
Mn577 Mn 0.35902 0.53411 0.88472 0.0
C578 C 0.39672 0.53313 0.80211 0.0
C579 C 0.39681 0.45255 0.80945 0.0
C580 C 0.3115 0.48654 0.81732 0.0
O581 O 0.35525 0.45994 0.89089 0.0
O582 O 0.34855 0.49753 0.92562 0.0
C583 C 0.40628 0.55366 0.96074 0.0
N584 N 0.39391 0.56115 0.92344 0.0
C585 C 0.42706 0.61641 0.93828 0.0
C586 C 0.4401 0.60928 0.97697 0.0
C587 C 0.42996 0.57777 0.98767 0.0
C588 C 0.40398 0.59138 0.91202 0.0
H589 H 0.39822 0.5295 0.96978 0.0
C590 C 0.34802 0.47121 0.92626 0.0
O591 O 0.36771 0.44227 0.79829 0.0
O592 O 0.4108 0.47883 0.83268 0.0
N593 N 0.36876 0.57098 0.8496 0.0
C594 C 0.35366 0.57377 0.81125 0.0
C595 C 0.36074 0.60371 0.79601 0.0
C596 C 0.38329 0.63044 0.82029 0.0
C597 C 0.39908 0.62703 0.85888 0.0
C598 C 0.39071 0.59658 0.87284 0.0
H599 H 0.33576 0.5533 0.79315 0.0
O600 O 0.39049 0.51043 0.77288 0.0
O601 O 0.38641 0.5246 0.84486 0.0
O602 O 0.32741 0.47348 0.80646 0.0
O603 O 0.32101 0.50882 0.84685 0.0
C604 C 0.42218 0.65263 0.88481 0.0
C605 C 0.4363 0.64732 0.92435 0.0
H606 H 0.45826 0.62776 0.99818 0.0
H607 H 0.44039 0.57199 0.01639 0.0
H608 H 0.34838 0.60612 0.76621 0.0
H609 H 0.38796 0.65347 0.8095 0.0
H610 H 0.4292 0.67647 0.8747 0.0
H611 H 0.45414 0.66716 0.94391 0.0
Mn612 Mn 0.90919 0.36481 0.80232 0.0
Mn613 Mn 0.8449 0.35356 0.86144 0.0
C614 C 0.8816 0.38956 0.7758 0.0
C615 C 0.96326 0.39118 0.78627 0.0
C616 C 0.84628 0.30362 0.80058 0.0
O617 O 0.91446 0.34962 0.86771 0.0
O618 O 0.87363 0.34907 0.90537 0.0
C619 C 0.87259 0.40944 0.92368 0.0
N620 N 0.84999 0.39008 0.89281 0.0
C621 C 0.82273 0.41925 0.89953 0.0
C622 C 0.84566 0.43953 0.93152 0.0
C623 C 0.87115 0.43514 0.94248 0.0
C624 C 0.82633 0.39513 0.87996 0.0
H625 H 0.8919 0.40573 0.93267 0.0
C626 C 0.8982 0.34629 0.90473 0.0
O627 O 0.94523 0.36187 0.77579 0.0
O628 O 0.95035 0.40499 0.8084 0.0
N629 N 0.81506 0.3571 0.82304 0.0
C630 C 0.79953 0.3401 0.78434 0.0
C631 C 0.77427 0.3426 0.76645 0.0
C632 C 0.76474 0.36172 0.78941 0.0
C633 C 0.78247 0.38065 0.82724 0.0
C634 C 0.80753 0.37727 0.84332 0.0
H635 H 0.80601 0.3244 0.76775 0.0
O636 O 0.89876 0.38355 0.74766 0.0
O637 O 0.88025 0.37986 0.81887 0.0
O638 O 0.87361 0.32082 0.78376 0.0
O639 O 0.83458 0.31337 0.83159 0.0
C640 C 0.7766 0.40287 0.84939 0.0
C641 C 0.79718 0.42271 0.88475 0.0
H642 H 0.84449 0.45915 0.94669 0.0
H643 H 0.88981 0.45181 0.96482 0.0
H644 H 0.76177 0.32931 0.73564 0.0
H645 H 0.74384 0.36161 0.77738 0.0
H646 H 0.75691 0.40556 0.83862 0.0
H647 H 0.79338 0.44076 0.8999 0.0
Mn648 Mn 0.14708 0.48297 0.70341 0.0
Mn649 Mn 0.21215 0.53685 0.64635 0.0
C650 C 0.1729 0.53509 0.72892 0.0
C651 C 0.0927 0.45482 0.71822 0.0
C652 C 0.21208 0.48861 0.71251 0.0
O653 O 0.14274 0.46215 0.63892 0.0
O654 O 0.18635 0.50064 0.60439 0.0
C655 C 0.18426 0.55709 0.57156 0.0
N656 N 0.20422 0.56424 0.60869 0.0
C657 C 0.22595 0.61964 0.59585 0.0
C658 C 0.2057 0.61288 0.55733 0.0
C659 C 0.18444 0.58147 0.54576 0.0
C660 C 0.22418 0.59436 0.62107 0.0
H661 H 0.16823 0.53301 0.5619 0.0
C662 C 0.16107 0.47391 0.60358 0.0
O663 O 0.11116 0.44424 0.73039 0.0
O664 O 0.10556 0.48106 0.69507 0.0
N665 N 0.23911 0.57336 0.68248 0.0
C666 C 0.25717 0.57581 0.72045 0.0
C667 C 0.28003 0.60561 0.73632 0.0
C668 C 0.28406 0.63256 0.71303 0.0
C669 C 0.2647 0.62951 0.67482 0.0
C670 C 0.24265 0.59918 0.66015 0.0
H671 H 0.25476 0.55517 0.73771 0.0
O672 O 0.15619 0.51209 0.75738 0.0
O673 O 0.17517 0.5269 0.68608 0.0
O674 O 0.18325 0.47571 0.72404 0.0
O675 O 0.22468 0.51105 0.68328 0.0
C676 C 0.26704 0.65534 0.64989 0.0
C677 C 0.24751 0.65041 0.61059 0.0
H678 H 0.20583 0.63156 0.53698 0.0
H679 H 0.16807 0.57603 0.51731 0.0
H680 H 0.29492 0.60776 0.76583 0.0
H681 H 0.30239 0.6555 0.72431 0.0
H682 H 0.28383 0.67909 0.66059 0.0
H683 H 0.24937 0.67043 0.59183 0.0
Mn684 Mn 0.68167 0.13494 0.7085 0.0
Mn685 Mn 0.69288 0.19974 0.65111 0.0
C686 C 0.65696 0.16196 0.73716 0.0
C687 C 0.65488 0.08096 0.72474 0.0
C688 C 0.74291 0.19778 0.71113 0.0
O689 O 0.69605 0.12976 0.64267 0.0
O690 O 0.69688 0.1711 0.60648 0.0
C691 C 0.63623 0.17262 0.59025 0.0
N692 N 0.65654 0.19545 0.61998 0.0
C693 C 0.62818 0.22359 0.61377 0.0
C694 C 0.60702 0.2005 0.58277 0.0
C695 C 0.6105 0.17444 0.57226 0.0
C696 C 0.65233 0.21967 0.6326 0.0
H697 H 0.63918 0.1528 0.58175 0.0
C698 C 0.69934 0.14639 0.60619 0.0
O699 O 0.68447 0.09862 0.73419 0.0
O700 O 0.64113 0.0941 0.70307 0.0
N701 N 0.69 0.22977 0.6898 0.0
C702 C 0.7076 0.24533 0.72804 0.0
C703 C 0.70631 0.27131 0.74536 0.0
C704 C 0.68736 0.28129 0.72277 0.0
C705 C 0.66782 0.26358 0.68543 0.0
C706 C 0.67046 0.23814 0.66931 0.0
H707 H 0.723 0.23841 0.74457 0.0
O708 O 0.66416 0.14515 0.76407 0.0
O709 O 0.6662 0.16402 0.69353 0.0
O710 O 0.72591 0.17012 0.72674 0.0
O711 O 0.73313 0.2097 0.68055 0.0
C712 C 0.6456 0.26981 0.66391 0.0
C713 C 0.62527 0.24936 0.62885 0.0
H714 H 0.5873 0.20188 0.56834 0.0
H715 H 0.59303 0.15559 0.55104 0.0
H716 H 0.72024 0.28385 0.77568 0.0
H717 H 0.68786 0.30237 0.73488 0.0
H718 H 0.64316 0.28952 0.6752 0.0
H719 H 0.60713 0.25335 0.61435 0.0
Mn720 Mn 0.56237 0.67027 0.71656 0.0
Mn721 Mn 0.5076 0.67796 0.65481 0.0
C722 C 0.51071 0.64617 0.74441 0.0
C723 C 0.59014 0.64469 0.73808 0.0
C724 C 0.55636 0.72957 0.71627 0.0
O725 O 0.58285 0.68313 0.65138 0.0
O726 O 0.54419 0.68705 0.61478 0.0
C727 C 0.48857 0.62352 0.59161 0.0
N728 N 0.4808 0.64072 0.62033 0.0
C729 C 0.42555 0.60585 0.60724 0.0
C730 C 0.43294 0.58803 0.57679 0.0
C731 C 0.46454 0.59649 0.56991 0.0
C732 C 0.45045 0.63208 0.62885 0.0
H733 H 0.51287 0.63007 0.5862 0.0
C734 C 0.57109 0.68884 0.61516 0.0
O735 O 0.6014 0.67445 0.74529 0.0
O736 O 0.56365 0.63012 0.71545 0.0
N737 N 0.4705 0.67011 0.6876 0.0
C738 C 0.46751 0.68653 0.72386 0.0
C739 C 0.43743 0.68024 0.73729 0.0
C740 C 0.41083 0.65722 0.71327 0.0
C741 C 0.41445 0.63995 0.67711 0.0
C742 C 0.44503 0.64788 0.66436 0.0
H743 H 0.48795 0.70469 0.74175 0.0
O744 O 0.53463 0.65442 0.772 0.0
O745 O 0.51774 0.65345 0.7001 0.0
O746 O 0.57009 0.71476 0.72984 0.0
O747 O 0.53293 0.71786 0.68842 0.0
C748 C 0.38896 0.61493 0.65362 0.0
C749 C 0.3945 0.59761 0.61912 0.0
H750 H 0.41453 0.56715 0.55991 0.0
H751 H 0.47031 0.58189 0.54863 0.0
H752 H 0.43476 0.69323 0.76586 0.0
H753 H 0.3877 0.65286 0.72304 0.0
H754 H 0.36501 0.60821 0.66284 0.0
H755 H 0.37474 0.5776 0.6027 0.0
Mn756 Mn 0.90605 0.55584 0.70552 0.0
Mn757 Mn 0.83744 0.50614 0.65244 0.0
C758 C 0.87834 0.50342 0.72941 0.0
C759 C 0.96042 0.58162 0.71883 0.0
C760 C 0.84587 0.55869 0.71668 0.0
O761 O 0.9093 0.57666 0.6412 0.0
O762 O 0.8648 0.53853 0.60658 0.0
C763 C 0.84843 0.47432 0.57293 0.0
N764 N 0.83624 0.47273 0.61647 0.0
C765 C 0.80345 0.41652 0.61028 0.0
C766 C 0.81653 0.41753 0.56617 0.0
C767 C 0.83871 0.44657 0.54723 0.0
C768 C 0.81388 0.44491 0.63431 0.0
H769 H 0.86465 0.49666 0.55733 0.0
C770 C 0.8907 0.56483 0.60578 0.0
O771 O 0.94334 0.59357 0.73143 0.0
O772 O 0.94643 0.55537 0.69542 0.0
N773 N 0.81016 0.47438 0.69509 0.0
C774 C 0.79871 0.4778 0.73689 0.0
C775 C 0.7746 0.45138 0.75898 0.0
C776 C 0.762 0.42193 0.73725 0.0
C777 C 0.7756 0.41865 0.69586 0.0
C778 C 0.80015 0.44584 0.676 0.0
H779 H 0.80738 0.50056 0.7528 0.0
O780 O 0.89652 0.52572 0.75826 0.0
O781 O 0.87524 0.51269 0.68779 0.0
O782 O 0.87344 0.56672 0.73027 0.0
O783 O 0.83171 0.53773 0.68585 0.0
C784 C 0.76513 0.38977 0.67272 0.0
C785 C 0.77921 0.38867 0.63011 0.0
H786 H 0.8089 0.39631 0.54579 0.0
H787 H 0.84731 0.44758 0.51218 0.0
H788 H 0.76499 0.4539 0.79182 0.0
H789 H 0.74156 0.40223 0.75237 0.0
H790 H 0.74598 0.36833 0.68698 0.0
H791 H 0.77063 0.3664 0.61222 0.0
Mn792 Mn 0.36582 0.89423 0.71462 0.0
Mn793 Mn 0.34799 0.82603 0.66095 0.0
C794 C 0.39167 0.86733 0.73781 0.0
C795 C 0.39344 0.94899 0.72688 0.0
C796 C 0.30372 0.83371 0.72586 0.0
O797 O 0.34697 0.89664 0.65072 0.0
O798 O 0.34301 0.85345 0.61495 0.0
C799 C 0.39059 0.83669 0.58169 0.0
N800 N 0.38048 0.825 0.62558 0.0
C801 C 0.40469 0.79275 0.62012 0.0
C802 C 0.41631 0.80542 0.57573 0.0
C803 C 0.40865 0.82693 0.55617 0.0
C804 C 0.38645 0.80302 0.64389 0.0
H805 H 0.38389 0.85238 0.56556 0.0
C806 C 0.3414 0.87875 0.61471 0.0
O807 O 0.36484 0.93126 0.74083 0.0
O808 O 0.40574 0.93524 0.70288 0.0
N809 N 0.35237 0.79852 0.70375 0.0
C810 C 0.33608 0.78563 0.74409 0.0
C811 C 0.33799 0.76104 0.76555 0.0
C812 C 0.35637 0.74972 0.74509 0.0
C813 C 0.37422 0.76436 0.70496 0.0
C814 C 0.37158 0.78906 0.68531 0.0
H815 H 0.32102 0.79337 0.75919 0.0
O816 O 0.38779 0.88569 0.76658 0.0
O817 O 0.37886 0.86392 0.69643 0.0
O818 O 0.32322 0.86081 0.74098 0.0
O819 O 0.31047 0.82035 0.69367 0.0
C820 C 0.3933 0.75444 0.68243 0.0
C821 C 0.40871 0.76878 0.64019 0.0
H822 H 0.42992 0.79775 0.55544 0.0
H823 H 0.41546 0.83477 0.52069 0.0
H824 H 0.32453 0.75019 0.79696 0.0
H825 H 0.35587 0.72928 0.75997 0.0
H826 H 0.39567 0.73528 0.69661 0.0
H827 H 0.42267 0.76041 0.62253 0.0
Mn828 Mn 0.49174 0.36412 0.72188 0.0
Mn829 Mn 0.54571 0.35422 0.66285 0.0
C830 C 0.54372 0.38883 0.75012 0.0
C831 C 0.46285 0.38943 0.73854 0.0
C832 C 0.49349 0.30301 0.72065 0.0
O833 O 0.47203 0.34959 0.65584 0.0
O834 O 0.51336 0.35107 0.61831 0.0
C835 C 0.5753 0.41126 0.60335 0.0
N836 N 0.5778 0.39126 0.63373 0.0
C837 C 0.63423 0.4194 0.62808 0.0
C838 C 0.63236 0.44043 0.5968 0.0
C839 C 0.60284 0.43684 0.58549 0.0
C840 C 0.60617 0.39551 0.64688 0.0
H841 H 0.55254 0.40805 0.59389 0.0
C842 C 0.48572 0.34758 0.61871 0.0
O843 O 0.45231 0.36011 0.74795 0.0
O844 O 0.48985 0.40406 0.71732 0.0
N845 N 0.57838 0.35638 0.70167 0.0
C846 C 0.57619 0.33761 0.73832 0.0
C847 C 0.60343 0.33843 0.75513 0.0
C848 C 0.63238 0.35785 0.73327 0.0
C849 C 0.63435 0.37845 0.69758 0.0
C850 C 0.60638 0.3766 0.68239 0.0
H851 H 0.55377 0.32159 0.75383 0.0
O852 O 0.52005 0.3821 0.7775 0.0
O853 O 0.53611 0.37985 0.70652 0.0
O854 O 0.48355 0.32005 0.73877 0.0
O855 O 0.51512 0.31333 0.68998 0.0
C856 C 0.66277 0.40065 0.67636 0.0
C857 C 0.66281 0.42167 0.64248 0.0
H858 H 0.65345 0.45986 0.58218 0.0
H859 H 0.60143 0.4539 0.56332 0.0
H860 H 0.60201 0.3236 0.78414 0.0
H861 H 0.65281 0.35667 0.74445 0.0
H862 H 0.68482 0.40234 0.68667 0.0
H863 H 0.68492 0.43954 0.62792 0.0
C864 C 0.40875 0.03003 0.24769 0.0
C865 C 0.44167 0.04783 0.24463 0.0
C866 C 0.39389 1.00008 0.26827 0.0
C867 C 0.4115 0.98736 0.28783 0.0
H868 H 0.39439 0.03918 0.23363 0.0
H869 H 0.36844 0.98685 0.26895 0.0
S870 S 0.4986 0.02613 0.29218 0.0
N871 N 0.49149 0.05143 0.26448 0.0
N872 N 0.46385 0.99576 0.30435 0.0
C873 C 0.44452 1.00546 0.28604 0.0
C874 C 0.45954 0.03552 0.26409 0.0
C875 C 0.41398 0.3876 0.28765 0.0
C876 C 0.44696 0.40199 0.28871 0.0
C877 C 0.39894 0.40377 0.27105 0.0
C878 C 0.41631 0.43461 0.25359 0.0
H879 H 0.39969 0.36384 0.30043 0.0
H880 H 0.37351 0.39196 0.27181 0.0
S881 S 0.50343 0.4817 0.24545 0.0
N882 N 0.49652 0.4483 0.26938 0.0
N883 N 0.46858 0.47825 0.23669 0.0
C884 C 0.44937 0.44885 0.25331 0.0
C885 C 0.4646 0.43267 0.27127 0.0
C886 C 1.01492 0.38541 0.23871 0.0
C887 C 0.99687 0.40038 0.23616 0.0
C888 C 0.04588 0.40118 0.2564 0.0
C889 C 0.0596 0.43219 0.27346 0.0
H890 H 1.00523 0.3615 0.22632 0.0
H891 H 0.0591 0.38893 0.25683 0.0
S892 S 1.0211 0.48091 0.27747 0.0
N893 N 0.99446 0.4475 0.25362 0.0
N894 N 0.05191 0.47675 0.28796 0.0
C895 C 0.04135 0.44705 0.27211 0.0
C896 C 1.01021 0.43126 0.25317 0.0
C897 C 0.64075 1.002 0.25832 0.0
C898 C 0.61015 0.98805 0.23937 0.0
C899 C 0.65587 0.03287 0.2758 0.0
C900 C 0.6407 0.05073 0.27607 0.0
H901 H 0.65321 0.98901 0.25974 0.0
H902 H 0.67948 0.04269 0.28975 0.0
S903 S 0.56161 0.02638 0.22773 0.0
N904 N 0.56597 0.99549 0.21981 0.0
N905 N 0.59418 0.05308 0.25366 0.0
C906 C 0.6103 0.03731 0.25693 0.0
C907 C 0.5951 1.00611 0.23829 0.0
C908 C 0.6016 0.60665 0.28013 0.0
C909 C 0.61841 0.6392 0.28833 0.0
C910 C 0.61657 0.59068 0.26318 0.0
C911 C 0.64916 0.60642 0.25492 0.0
H912 H 0.5765 0.59339 0.28606 0.0
H913 H 0.60248 0.56563 0.2572 0.0
S914 S 0.70422 0.69146 0.27206 0.0
N915 N 0.66959 0.68668 0.28703 0.0
N916 N 0.69795 0.65634 0.25689 0.0
C917 C 0.66644 0.63886 0.26376 0.0
C918 C 0.65102 0.65533 0.27997 0.0
C919 C 0.04686 0.60472 0.25952 0.0
C920 C 0.06256 0.63724 0.2512 0.0
C921 C 1.01576 0.58873 0.27568 0.0
C922 C 0.9987 0.60441 0.28298 0.0
H923 H 0.05883 0.59149 0.25414 0.0
H924 H 1.00481 0.5637 0.28168 0.0
S925 S 0.02861 0.6894 0.26539 0.0
N926 N 0.05867 0.68465 0.25158 0.0
N927 N 0.99971 0.6543 0.2802 0.0
C928 C 1.01389 0.63685 0.27418 0.0
C929 C 0.04594 0.65334 0.25882 0.0
C930 C 0.63527 0.99816 0.75716 0.0
C931 C 0.60597 0.98578 0.78 0.0
C932 C 0.65078 0.02882 0.73905 0.0
C933 C 0.63732 0.04815 0.74195 0.0
H934 H 0.64644 0.98406 0.75308 0.0
H935 H 0.67338 0.03735 0.72221 0.0
S936 S 0.56282 0.0287 0.80198 0.0
N937 N 0.56532 0.99655 0.80723 0.0
N938 N 0.59419 0.05382 0.77214 0.0
C939 C 0.60835 0.03642 0.76516 0.0
C940 C 0.59278 1.00538 0.78447 0.0
C941 C 0.65356 0.6304 0.78933 0.0
C942 C 0.63737 0.59817 0.80019 0.0
C943 C 0.63809 0.6451 0.76924 0.0
C944 C 0.60589 0.62807 0.75805 0.0
H945 H 0.67856 0.64444 0.79609 0.0
H946 H 0.65165 0.66998 0.76179 0.0
S947 S 0.55246 0.54311 0.77989 0.0
N948 N 0.58705 0.54973 0.79903 0.0
N949 N 0.55805 0.57717 0.76046 0.0
C950 C 0.58929 0.59582 0.76895 0.0
C951 C 0.60498 0.58095 0.7903 0.0
C952 C 1.01212 0.62894 0.73682 0.0
C953 C 0.99337 0.59609 0.73555 0.0
C954 C 0.04198 0.64365 0.75789 0.0
C955 C 0.05413 0.62616 0.77965 0.0
H956 H 1.00351 0.64345 0.72164 0.0
H957 H 0.05552 0.66904 0.7574 0.0
S958 S 1.01295 0.53933 0.78947 0.0
N959 N 0.98827 0.5464 0.75953 0.0
N960 N 0.04415 0.57391 0.80002 0.0
C961 C 0.03535 0.59319 0.77915 0.0
C962 C 1.00509 0.5782 0.75686 0.0
C963 C 0.41075 0.0277 0.77816 0.0
C964 C 0.44375 0.04519 0.77973 0.0
C965 C 0.39491 0.99695 0.76025 0.0
C966 C 0.41133 0.98258 0.7419 0.0
H967 H 0.397 0.03778 0.79124 0.0
H968 H 0.36945 0.98435 0.7608 0.0
S969 S 0.49805 0.01954 0.73387 0.0
N970 N 0.49246 0.04658 0.75934 0.0
N971 N 0.46273 0.98908 0.72459 0.0
C972 C 0.4444 1.00017 0.74211 0.0
C973 C 0.46057 0.03133 0.76135 0.0
C974 C 0.44624 0.45267 0.78504 0.0
C975 C 0.41355 0.43602 0.79294 0.0
C976 C 0.46194 0.43778 0.76589 0.0
C977 C 0.44564 0.40554 0.75474 0.0
H978 H 0.45974 0.47752 0.79289 0.0
H979 H 0.48711 0.45149 0.76068 0.0
S980 S 0.35997 0.35133 0.76901 0.0
N981 N 0.36552 0.3855 0.78781 0.0
N982 N 0.39493 0.35756 0.75302 0.0
C983 C 0.41302 0.38867 0.76276 0.0
C984 C 0.39702 0.40387 0.78151 0.0
C985 C 0.04584 0.40899 0.75511 0.0
C986 C 0.05921 0.43876 0.73367 0.0
C987 C 1.01492 0.39392 0.77241 0.0
C988 C 0.99638 0.40831 0.77014 0.0
H989 H 0.05932 0.39712 0.75856 0.0
H990 H 1.00555 0.37089 0.78809 0.0
S991 S 1.01894 0.48481 0.71452 0.0
N992 N 0.05044 0.48115 0.70889 0.0
N993 N 0.99275 0.45311 0.74259 0.0
C994 C 1.00921 0.43787 0.74858 0.0
C995 C 0.04048 0.45298 0.73002 0.0
C996 C 0.49033 0.24714 0.219 0.0
C997 C 0.49097 0.222 0.24155 0.0
C998 C 0.48913 0.27085 0.24507 0.0
C999 C 0.48952 0.27073 0.29458 0.0
H1000 H 0.49174 0.24898 0.18104 0.0
H1001 H 0.4901 0.2905 0.22635 0.0
S1002 S 0.4905 0.20997 0.37038 0.0
N1003 N 0.49056 0.1978 0.31626 0.0
N1004 N 0.48966 0.24299 0.365 0.0
C1005 C 0.48923 0.24529 0.31743 0.0
C1006 C 0.48959 0.22076 0.29098 0.0
C1007 C 0.2631 0.48809 0.3115 0.0
C1008 C 0.23955 0.48943 0.28511 0.0
C1009 C 0.2887 0.48804 0.28939 0.0
C1010 C 0.29226 0.49039 0.24011 0.0
H1011 H 0.26202 0.48765 0.34955 0.0
H1012 H 0.30666 0.48778 0.31125 0.0
S1013 S 0.23712 0.49463 0.15512 0.0
N1014 N 0.22109 0.49249 0.20698 0.0
N1015 N 0.26968 0.49356 0.1657 0.0
C1016 C 0.26865 0.49133 0.21335 0.0
C1017 C 0.24219 0.49054 0.23576 0.0
C1018 C 0.79768 0.24717 0.30379 0.0
C1019 C 0.77125 0.22306 0.28079 0.0
C1020 C 0.82277 0.2709 0.27819 0.0
C1021 C 0.82177 0.27188 0.22877 0.0
H1022 H 0.79842 0.24836 0.34184 0.0
H1023 H 0.84198 0.28983 0.29735 0.0
S1024 S 0.75818 0.21393 0.15191 0.0
N1025 N 0.74629 0.20087 0.20574 0.0
N1026 N 0.79269 0.24612 0.15788 0.0
C1027 C 0.79596 0.24735 0.20541 0.0
C1028 C 0.77089 0.22276 0.23135 0.0
C1029 C 0.56669 0.81405 0.28968 0.0
C1030 C 0.56582 0.81334 0.24017 0.0
C1031 C 0.56639 0.78954 0.31566 0.0
C1032 C 0.56624 0.76402 0.29297 0.0
H1033 H 0.56549 0.83261 0.30847 0.0
H1034 H 0.56536 0.79009 0.35367 0.0
S1035 S 0.56518 0.75187 0.16397 0.0
N1036 N 0.56537 0.7854 0.16959 0.0
N1037 N 0.56613 0.7401 0.21801 0.0
C1038 C 0.56694 0.76392 0.24346 0.0
C1039 C 0.56638 0.78837 0.21717 0.0
C1040 C 0.78778 0.53875 0.21866 0.0
C1041 C 0.76428 0.53975 0.24575 0.0
C1042 C 0.8139 0.53907 0.23996 0.0
C1043 C 0.81694 0.53934 0.28921 0.0
H1044 H 0.78575 0.53731 0.18069 0.0
H1045 H 0.83107 0.53763 0.21779 0.0
S1046 S 0.76199 0.54196 0.37598 0.0
N1047 N 0.7463 0.54183 0.32448 0.0
N1048 N 0.79449 0.54104 0.36438 0.0
C1049 C 0.79379 0.54064 0.31661 0.0
C1050 C 0.76773 0.54123 0.29495 0.0
C1051 C 0.26419 0.78744 0.21779 0.0
C1052 C 0.24038 0.76109 0.24107 0.0
C1053 C 0.28947 0.81151 0.24291 0.0
C1054 C 0.2924 0.80948 0.29192 0.0
H1055 H 0.26355 0.78916 0.17989 0.0
H1056 H 0.30763 0.83112 0.22354 0.0
S1057 S 0.23661 0.74505 0.36912 0.0
N1058 N 0.22119 0.73461 0.316 0.0
N1059 N 0.26916 0.77915 0.36267 0.0
C1060 C 0.26861 0.78339 0.31554 0.0
C1061 C 0.2425 0.75939 0.29025 0.0
C1062 C 0.56873 0.76427 0.78668 0.0
C1063 C 0.56515 0.76038 0.73764 0.0
C1064 C 0.56918 0.79001 0.80902 0.0
C1065 C 0.56693 0.8132 0.78303 0.0
H1066 H 0.56873 0.74611 0.80825 0.0
H1067 H 0.56961 0.79091 0.84709 0.0
S1068 S 0.56089 0.81558 0.65324 0.0
N1069 N 0.56184 0.78301 0.66349 0.0
N1070 N 0.56365 0.83179 0.70521 0.0
C1071 C 0.56591 0.81082 0.7337 0.0
C1072 C 0.56472 0.78427 0.71108 0.0
C1073 C 0.77727 0.57055 0.74361 0.0
C1074 C 0.77615 0.5689 0.79294 0.0
C1075 C 0.80194 0.57046 0.71883 0.0
C1076 C 0.82661 0.5693 0.7425 0.0
H1077 H 0.75757 0.56885 0.72389 0.0
H1078 H 0.80049 0.56897 0.68081 0.0
S1079 S 0.83724 0.57045 0.87168 0.0
N1080 N 0.80377 0.57034 0.8647 0.0
N1081 N 0.85034 0.5707 0.81816 0.0
C1082 C 0.82745 0.57115 0.79181 0.0
C1083 C 0.80212 0.57077 0.81702 0.0
C1084 C 0.27573 0.80931 0.80041 0.0
C1085 C 0.27432 0.81351 0.75176 0.0
C1086 C 0.25191 0.78272 0.82316 0.0
C1087 C 0.22552 0.75985 0.79828 0.0
H1088 H 0.2967 0.825 0.82011 0.0
H1089 H 0.25502 0.77918 0.85993 0.0
S1090 S 0.20885 0.76249 0.67164 0.0
N1091 N 0.24319 0.79441 0.68041 0.0
N1092 N 0.19797 0.74506 0.72331 0.0
C1093 C 0.22249 0.76541 0.75059 0.0
C1094 C 0.24702 0.79211 0.7273 0.0
C1095 C 0.47898 0.2663 0.78901 0.0
C1096 C 0.48324 0.27131 0.74024 0.0
C1097 C 0.47748 0.23969 0.80993 0.0
C1098 C 0.47941 0.21669 0.78283 0.0
H1099 H 0.47942 0.28425 0.81165 0.0
H1100 H 0.4768 0.23809 0.84794 0.0
S1101 S 0.48598 0.21659 0.65294 0.0
N1102 N 0.48601 0.24949 0.66489 0.0
N1103 N 0.48245 0.19923 0.70405 0.0
C1104 C 0.48069 0.22001 0.73364 0.0
C1105 C 0.48286 0.24741 0.71242 0.0
C1106 C 0.23233 0.47824 0.78727 0.0
C1107 C 0.23341 0.48033 0.7379 0.0
C1108 C 0.25682 0.47813 0.81294 0.0
C1109 C 0.28277 0.47915 0.79014 0.0
H1110 H 0.21368 0.47906 0.80636 0.0
H1111 H 0.25615 0.4787 0.85098 0.0
S1112 S 0.2953 0.48194 0.66133 0.0
N1113 N 0.26165 0.48159 0.66714 0.0
N1114 N 0.30697 0.48029 0.71522 0.0
C1115 C 0.28297 0.47901 0.74073 0.0
C1116 C 0.25849 0.47991 0.71467 0.0
C1117 C 0.82325 0.2693 0.72975 0.0
C1118 C 0.8248 0.27258 0.77898 0.0
C1119 C 0.79778 0.24345 0.70782 0.0
C1120 C 0.77333 0.21953 0.73428 0.0
H1121 H 0.8404 0.28802 0.70788 0.0
H1122 H 0.79629 0.24309 0.66979 0.0
S1123 S 0.7685 0.21519 0.8644 0.0
N1124 N 0.80122 0.24839 0.85361 0.0
N1125 N 0.75393 0.19954 0.81251 0.0
C1126 C 0.77607 0.22125 0.78355 0.0
C1127 C 0.80162 0.24786 0.80585 0.0
C1128 C 0.46134 0.16005 0.0336 0.0
C1129 C 0.46385 0.13724 0.06009 0.0
C1130 C 0.4627 0.16023 0.9843 0.0
C1131 C 0.4666 0.1376 0.95958 0.0
H1132 H 0.46188 0.17987 0.05121 0.0
H1133 H 0.46401 0.18008 0.9657 0.0
S1134 S 0.47056 0.07076 1.01201 0.0
N1135 N 0.46694 0.08951 0.05769 0.0
N1136 N 0.46967 0.08998 0.96494 0.0
C1137 C 0.46575 0.11281 0.98527 0.0
C1138 C 0.46424 0.11255 0.03562 0.0
C1139 C 0.36989 0.45699 0.9949 0.0
C1140 C 0.34398 0.457 0.97352 0.0
C1141 C 0.37328 0.45821 0.04424 0.0
C1142 C 0.35058 0.45889 0.07362 0.0
H1143 H 0.38948 0.46005 0.97354 0.0
H1144 H 0.39535 0.46225 0.05906 0.0
S1145 S 0.27601 0.45373 0.03521 0.0
N1146 N 0.29346 0.45354 0.9857 0.0
N1147 N 0.29951 0.45515 0.07796 0.0
C1148 C 0.32291 0.45499 0.0527 0.0
C1149 C 0.31966 0.45418 1.00273 0.0
C1150 C 0.88501 0.31253 0.97492 0.0
C1151 C 0.90734 0.33945 0.95085 0.0
C1152 C 0.88506 0.31097 0.02416 0.0
C1153 C 0.9075 0.33623 0.05116 0.0
H1154 H 0.8654 0.29396 0.95587 0.0
H1155 H 0.86545 0.2913 0.04133 0.0
S1156 S 0.97327 0.41032 1.00486 0.0
N1157 N 0.95436 0.39047 0.95733 0.0
N1158 N 0.95469 0.38744 0.05003 0.0
C1159 C 0.93198 0.36176 0.02735 0.0
C1160 C 0.93182 0.36342 0.97706 0.0
C1161 C 0.58541 0.91992 0.03473 0.0
C1162 C 0.58636 0.8957 0.05978 0.0
C1163 C 0.58441 0.91964 0.98516 0.0
C1164 C 0.58456 0.89526 0.95939 0.0
H1165 H 0.58165 0.93699 0.05339 0.0
H1166 H 0.57989 0.93648 0.96736 0.0
S1167 S 0.59238 0.82968 1.00833 0.0
N1168 N 0.59172 0.84934 0.05502 0.0
N1169 N 0.59014 0.84898 0.96234 0.0
C1170 C 0.58922 0.87316 0.98402 0.0
C1171 C 0.59007 0.87335 0.03416 0.0
C1172 C 0.73904 0.5807 0.0499 0.0
C1173 C 0.71403 0.58004 0.07484 0.0
C1174 C 0.73899 0.58 1.00064 0.0
C1175 C 0.71393 0.57862 0.97462 0.0
H1176 H 0.75678 0.5779 0.06852 0.0
H1177 H 0.75691 0.57703 0.98303 0.0
S1178 S 0.64555 0.58165 0.02311 0.0
N1179 N 0.66591 0.58243 0.06995 0.0
N1180 N 0.66575 0.58099 0.97713 0.0
C1181 C 0.69089 0.58199 0.99889 0.0
C1182 C 0.691 0.58279 0.04922 0.0
C1183 C 0.11979 0.67048 0.99589 0.0
C1184 C 0.14284 0.69488 0.96845 0.0
C1185 C 0.12092 0.67232 0.04538 0.0
C1186 C 0.14512 0.69858 0.06868 0.0
H1187 H 0.10318 0.64845 0.97943 0.0
H1188 H 0.10521 0.65157 0.06529 0.0
S1189 S 0.20752 0.77066 1.01247 0.0
N1190 N 0.18758 0.74768 0.96794 0.0
N1191 N 0.18971 0.75105 0.06053 0.0
C1192 C 0.16581 0.72447 0.04142 0.0
C1193 C 0.16469 0.72262 0.99134 0.0
C1194 C 0.92685 0.58221 0.53706 0.0
C1195 C 0.9 0.57966 0.55898 0.0
C1196 C 0.92897 0.58214 0.48768 0.0
C1197 C 0.90435 0.57962 0.45912 0.0
H1198 H 0.94435 0.58028 0.5578 0.0
H1199 H 0.94792 0.57994 0.47212 0.0
S1200 S 0.83257 0.57929 0.49961 0.0
N1201 N 0.85113 0.58011 0.54856 0.0
N1202 N 0.85516 0.57993 0.45616 0.0
C1203 C 0.87965 0.58143 0.48075 0.0
C1204 C 0.87744 0.58143 0.5307 0.0
C1205 C 0.35981 0.91501 0.54605 0.0
C1206 C 0.33566 0.88818 0.56803 0.0
C1207 C 0.36171 0.91734 0.49663 0.0
C1208 C 0.33948 0.89291 0.46802 0.0
H1209 H 0.37931 0.93239 0.56673 0.0
H1210 H 0.38271 0.93631 0.48101 0.0
S1211 S 0.26849 0.8211 0.50877 0.0
N1212 N 0.2865 0.83943 0.55768 0.0
N1213 N 0.29009 0.84381 0.46527 0.0
C1214 C 0.31318 0.86816 0.48981 0.0
C1215 C 0.31128 0.86576 0.53979 0.0
C1216 C 0.47132 0.36462 0.5449 0.0
C1217 C 0.46985 0.34018 0.5725 0.0
C1218 C 0.47031 0.36262 0.49542 0.0
C1219 C 0.46817 0.33628 0.47226 0.0
H1220 H 0.47681 0.38669 0.56127 0.0
H1221 H 0.47506 0.38325 0.47538 0.0
S1222 S 0.45892 0.26436 0.52888 0.0
N1223 N 0.46196 0.28741 0.57327 0.0
N1224 N 0.46056 0.28387 0.48071 0.0
C1225 C 0.46326 0.3105 0.49966 0.0
C1226 C 0.46401 0.31242 0.54974 0.0
C1227 C 0.174 0.45599 0.52963 0.0
C1228 C 0.15165 0.459 0.55659 0.0
C1229 C 0.17249 0.4551 0.4803 0.0
C1230 C 0.14875 0.45748 0.45607 0.0
H1231 H 0.19456 0.4576 0.54654 0.0
H1232 H 0.1921 0.45633 0.46101 0.0
S1233 S 0.08259 0.46199 0.51032 0.0
N1234 N 0.10312 0.46077 0.55557 0.0
N1235 N 0.10061 0.4596 0.46279 0.0
C1236 C 0.12445 0.45708 0.48264 0.0
C1237 C 0.12583 0.45774 0.533 0.0
C1238 C 0.68256 0.11446 0.48365 0.0
C1239 C 0.70837 0.1385 0.45953 0.0
C1240 C 0.68139 0.11414 0.53317 0.0
C1241 C 0.7061 0.1377 0.55976 0.0
H1242 H 0.66166 0.09817 0.46433 0.0
H1243 H 0.65966 0.09761 0.55031 0.0
S1244 S 0.78101 0.20218 0.51344 0.0
N1245 N 0.76079 0.18357 0.46602 0.0
N1246 N 0.75872 0.18279 0.55867 0.0
C1247 C 0.73342 0.15943 0.53607 0.0
C1248 C 0.73455 0.15986 0.48598 0.0
C1249 C 0.59118 0.67562 0.49333 0.0
C1250 C 0.59302 0.70163 0.4696 0.0
C1251 C 0.58854 0.67326 0.5427 0.0
C1252 C 0.58776 0.6969 0.56961 0.0
H1253 H 0.58775 0.65533 0.47346 0.0
H1254 H 0.58343 0.65135 0.55916 0.0
S1255 S 0.59748 0.77196 0.52495 0.0
N1256 N 0.59844 0.75322 0.4773 0.0
N1257 N 0.59359 0.74886 0.56964 0.0
C1258 C 0.5934 0.7245 0.54669 0.0
C1259 C 0.5961 0.72689 0.49674 0.0
C1260 C 0.58595 0.17513 0.28545 0.0
C1261 C 0.57085 0.16194 0.24276 0.0
C1262 C 0.6139 0.17562 0.29802 0.0
C1263 C 0.62934 0.16508 0.26789 0.0
H1264 H 0.57525 0.18365 0.3104 0.0
H1265 H 0.62192 0.18189 0.33294 0.0
S1266 S 0.59304 0.11828 0.15947 0.0
N1267 N 0.56835 0.12994 0.17632 0.0
N1268 N 0.62276 0.13468 0.19661 0.0
C1269 C 0.61338 0.15045 0.22562 0.0
C1270 C 0.5839 0.14817 0.21399 0.0
C1271 C 0.46054 0.62132 0.27736 0.0
C1272 C 0.49007 0.62349 0.2792 0.0
C1273 C 0.4329 0.59235 0.27112 0.0
C1274 C 0.43425 0.56552 0.25855 0.0
H1275 H 0.45866 0.64206 0.27929 0.0
H1276 H 0.41052 0.59126 0.27481 0.0
S1277 S 0.50623 0.55925 0.25049 0.0
N1278 N 0.51906 0.59597 0.26633 0.0
N1279 N 0.46772 0.54298 0.24544 0.0
C1280 C 0.46382 0.56767 0.25682 0.0
C1281 C 0.49162 0.59642 0.26796 0.0
C1282 C 0.87385 0.45605 0.23657 0.0
C1283 C 0.88662 0.46958 0.2803 0.0
C1284 C 0.87352 0.42871 0.22148 0.0
C1285 C 0.8835 0.41215 0.25012 0.0
H1286 H 0.86573 0.46767 0.21266 0.0
H1287 H 0.86797 0.42217 0.18582 0.0
S1288 S 0.92914 0.44428 0.36083 0.0
N1289 N 0.91805 0.46977 0.34615 0.0
N1290 N 0.91294 0.41591 0.32152 0.0
C1291 C 0.89768 0.42647 0.29355 0.0
C1292 C 0.90009 0.45558 0.30761 0.0
C1293 C 0.45903 0.86289 0.2289 0.0
C1294 C 0.48539 0.87252 0.25795 0.0
C1295 C 0.43187 0.86298 0.24398 0.0
C1296 C 0.4308 0.87512 0.28808 0.0
H1297 H 0.4603 0.85792 0.193 0.0
H1298 H 0.4123 0.85528 0.21977 0.0
S1299 S 0.49784 0.91612 0.37035 0.0
N1300 N 0.51033 0.90047 0.33063 0.0
N1301 N 0.46142 0.90539 0.35508 0.0
C1302 C 0.458 0.88804 0.31597 0.0
C1303 C 0.48479 0.8858 0.30197 0.0
C1304 C 0.62528 0.45518 0.29356 0.0
C1305 C 0.62508 0.47186 0.25389 0.0
C1306 C 0.59855 0.42683 0.30599 0.0
C1307 C 0.57091 0.41315 0.2791 0.0
H1308 H 0.64596 0.46446 0.31581 0.0
H1309 H 0.59914 0.41655 0.33808 0.0
S1310 S 0.55599 0.4532 0.17928 0.0
N1311 N 0.59311 0.47694 0.19343 0.0
N1312 N 0.54382 0.42265 0.21438 0.0
C1313 C 0.57016 0.43082 0.24016 0.0
C1314 C 0.597 0.4603 0.22835 0.0
C1315 C 0.20166 0.61763 0.24993 0.0
C1316 C 0.17502 0.62094 0.25365 0.0
C1317 C 0.19976 0.58832 0.25483 0.0
C1318 C 0.17221 0.5624 0.27126 0.0
H1319 H 0.22435 0.63789 0.24581 0.0
H1320 H 0.22036 0.58639 0.24798 0.0
S1321 S 0.09668 0.55942 0.29558 0.0
N1322 N 0.12002 0.59548 0.27669 0.0
N1323 N 0.11805 0.54203 0.29497 0.0
C1324 C 0.14582 0.56575 0.27888 0.0
C1325 C 0.14699 0.59476 0.2692 0.0
C1326 C 0.45537 0.86239 0.80563 0.0
C1327 C 0.47621 0.86316 0.77116 0.0
C1328 C 0.42642 0.85994 0.79412 0.0
C1329 C 0.41813 0.86131 0.74723 0.0
H1330 H 0.46259 0.86677 0.84172 0.0
H1331 H 0.41166 0.85979 0.82253 0.0
S1332 S 0.46876 0.87304 0.64349 0.0
N1333 N 0.4876 0.86793 0.68758 0.0
N1334 N 0.43673 0.87047 0.66654 0.0
C1335 C 0.43974 0.86436 0.71215 0.0
C1336 C 0.46797 0.86392 0.72389 0.0
C1337 C 0.62545 0.46178 0.7443 0.0
C1338 C 0.63221 0.47143 0.79145 0.0
C1339 C 0.59736 0.43471 0.73144 0.0
C1340 C 0.57581 0.41432 0.76492 0.0
H1341 H 0.64078 0.47665 0.71664 0.0
H1342 H 0.59129 0.43166 0.69492 0.0
S1343 S 0.57928 0.43157 0.89245 0.0
N1344 N 0.61146 0.46148 0.87088 0.0
N1345 N 0.56222 0.4075 0.84783 0.0
C1346 C 0.58259 0.42344 0.81249 0.0
C1347 C 0.60994 0.45247 0.8254 0.0
C1348 C 0.17908 0.6012 0.8047 0.0
C1349 C 0.17565 0.6213 0.77329 0.0
C1350 C 0.18202 0.57564 0.78927 0.0
C1351 C 0.17822 0.5668 0.74163 0.0
H1352 H 0.17641 0.60323 0.84165 0.0
H1353 H 0.18445 0.56101 0.8155 0.0
S1354 S 0.15615 0.60407 0.64682 0.0
N1355 N 0.16421 0.62775 0.69219 0.0
N1356 N 0.16211 0.57563 0.66516 0.0
C1357 C 0.17175 0.58487 0.71001 0.0
C1358 C 0.17194 0.61279 0.72528 0.0
C1359 C 0.6121 0.17191 0.7185 0.0
C1360 C 0.63004 0.16651 0.7519 0.0
C1361 C 0.58456 0.17241 0.73031 0.0
C1362 C 0.57198 0.1647 0.77572 0.0
H1363 H 0.61731 0.17253 0.68213 0.0
H1364 H 0.57178 0.17654 0.70276 0.0
S1365 S 0.6019 0.13543 0.87167 0.0
N1366 N 0.62955 0.14791 0.83131 0.0
N1367 N 0.57476 0.14252 0.85045 0.0
C1368 C 0.58772 0.15605 0.80864 0.0
C1369 C 0.61723 0.15823 0.79757 0.0
C1370 C 0.42801 0.57457 0.74307 0.0
C1371 C 0.42284 0.56505 0.79033 0.0
C1372 C 0.45622 0.60082 0.72874 0.0
C1373 C 0.47916 0.62089 0.761 0.0
H1374 H 0.41135 0.56005 0.71627 0.0
H1375 H 0.4613 0.60344 0.69196 0.0
S1376 S 0.48125 0.60178 0.88658 0.0
N1377 N 0.44739 0.57308 0.86703 0.0
N1378 N 0.49655 0.62639 0.84235 0.0
C1379 C 0.47424 0.61158 0.80864 0.0
C1380 C 0.44695 0.58299 0.82267 0.0
C1381 C 0.87356 0.43488 0.79719 0.0
C1382 C 0.87418 0.41472 0.76264 0.0
C1383 C 0.87126 0.46145 0.78579 0.0
C1384 C 0.87249 0.47103 0.73892 0.0
H1385 H 0.87786 0.43197 0.83328 0.0
H1386 H 0.87122 0.4761 0.81426 0.0
S1387 S 0.88368 0.43179 0.63494 0.0
N1388 N 0.87871 0.40799 0.67901 0.0
N1389 N 0.88125 0.46129 0.65812 0.0
C1390 C 0.87535 0.45235 0.70377 0.0
C1391 C 0.87488 0.42369 0.71542 0.0
loop_
_geom_bond_atom_site_label_1
_geom_bond_atom_site_label_2
_geom_bond_distance
_geom_bond_site_symmetry_2
_ccdc_geom_bond_type
Mn0 O5 2.095 . S
Mn0 O15 2.162 . S
Mn0 O16 2.297 . S
Mn0 O24 2.385 . S
Mn0 O25 2.209 . S
Mn0 O26 2.094 . S
Mn1 O6 2.121 . S
Mn1 N8 2.257 . S
Mn1 N17 2.282 . S
Mn1 O25 2.215 . S
Mn1 O27 2.117 . S
C2 O24 1.234 . S
C2 O25 1.283 . S
C3 O15 1.281 . S
C3 O16 1.236 . S
C4 O26 1.240 . S
C4 O27 1.264 . S
O5 Mn0 2.095 . S
O5 C14 1.250 . S
O6 Mn1 2.121 . S
O6 C14 1.258 . S
C7 N8 1.326 . S
C7 C11 1.460 . S
C7 H13 0.929 . S
N8 Mn1 2.257 . S
N8 C7 1.326 . S
N8 C12 1.362 . S
C9 C10 1.258 . S
C9 C12 1.431 . S
C9 C29 1.449 . S
C10 C9 1.258 . S
C10 C11 1.477 . S
C10 H30 0.931 . S
C11 C7 1.460 . S
C11 C10 1.477 . S
C11 H31 0.930 . S
C12 N8 1.362 . S
C12 C9 1.431 . S
C12 C22 1.476 . S
H13 C7 0.929 . S
C14 O5 1.250 . S
C14 O6 1.258 . S
O15 Mn0 2.162 . S
O15 C3 1.281 . S
O16 Mn0 2.297 . S
O16 C3 1.236 . S
N17 Mn1 2.282 . S
N17 C18 1.328 . S
N17 C22 1.318 . S
C18 N17 1.328 . S
C18 C19 1.457 . S
C18 H23 0.929 . S
C19 C18 1.457 . S
C19 C20 1.291 . S
C19 H32 0.931 . S
C20 C19 1.291 . S
C20 C21 1.373 . S
C20 H33 0.929 . S
C21 C20 1.373 . S
C21 C22 1.396 . S
C21 C28 1.403 . S
C22 C12 1.476 . S
C22 N17 1.318 . S
C22 C21 1.396 . S
H23 C18 0.929 . S
O24 Mn0 2.385 . S
O24 C2 1.234 . S
O25 Mn0 2.209 . S
O25 Mn1 2.215 . S
O25 C2 1.283 . S
O26 Mn0 2.094 . S
O26 C4 1.240 . S
O27 Mn1 2.117 . S
O27 C4 1.264 . S
C28 C21 1.403 . S
C28 C29 1.399 . S
C28 H34 0.929 . S
C29 C9 1.449 . S
C29 C28 1.399 . S
C29 H35 0.930 . S
H30 C10 0.931 . S
H31 C11 0.930 . S
H32 C19 0.931 . S
H33 C20 0.929 . S
H34 C28 0.929 . S
H35 C29 0.930 . S
Mn36 O41 2.095 . S
Mn36 O51 2.162 . S
Mn36 O52 2.297 . S
Mn36 O60 2.385 . S
Mn36 O61 2.209 . S
Mn36 O62 2.094 . S
Mn37 O42 2.121 . S
Mn37 N44 2.257 . S
Mn37 N53 2.282 . S
Mn37 O61 2.215 . S
Mn37 O63 2.117 . S
C38 O60 1.234 . S
C38 O61 1.283 . S
C39 O51 1.281 . S
C39 O52 1.236 . S
C40 O62 1.240 . S
C40 O63 1.264 . S
O41 Mn36 2.095 . S
O41 C50 1.250 . S
O42 Mn37 2.121 . S
O42 C50 1.258 . S
C43 N44 1.326 . S
C43 C47 1.460 . S
C43 H49 0.929 . S
N44 Mn37 2.257 . S
N44 C43 1.326 . S
N44 C48 1.362 . S
C45 C46 1.258 . S
C45 C48 1.431 . S
C45 C65 1.449 . S
C46 C45 1.258 . S
C46 C47 1.477 . S
C46 H66 0.931 . S
C47 C43 1.460 . S
C47 C46 1.477 . S
C47 H67 0.930 . S
C48 N44 1.362 . S
C48 C45 1.431 . S
C48 C58 1.476 . S
H49 C43 0.929 . S
C50 O41 1.250 . S
C50 O42 1.258 . S
O51 Mn36 2.162 . S
O51 C39 1.281 . S
O52 Mn36 2.297 . S
O52 C39 1.236 . S
N53 Mn37 2.282 . S
N53 C54 1.328 . S
N53 C58 1.318 . S
C54 N53 1.328 . S
C54 C55 1.457 . S
C54 H59 0.929 . S
C55 C54 1.457 . S
C55 C56 1.291 . S
C55 H68 0.931 . S
C56 C55 1.291 . S
C56 C57 1.373 . S
C56 H69 0.929 . S
C57 C56 1.373 . S
C57 C58 1.396 . S
C57 C64 1.403 . S
C58 C48 1.476 . S
C58 N53 1.318 . S
C58 C57 1.396 . S
H59 C54 0.929 . S
O60 Mn36 2.385 . S
O60 C38 1.234 . S
O61 Mn36 2.209 . S
O61 Mn37 2.215 . S
O61 C38 1.283 . S
O62 Mn36 2.094 . S
O62 C40 1.240 . S
O63 Mn37 2.117 . S
O63 C40 1.264 . S
C64 C57 1.403 . S
C64 C65 1.399 . S
C64 H70 0.929 . S
C65 C45 1.449 . S
C65 C64 1.399 . S
C65 H71 0.930 . S
H66 C46 0.931 . S
H67 C47 0.930 . S
H68 C55 0.931 . S
H69 C56 0.929 . S
H70 C64 0.929 . S
H71 C65 0.930 . S
Mn72 O77 2.095 . S
Mn72 O87 2.162 . S
Mn72 O88 2.297 . S
Mn72 O96 2.385 . S
Mn72 O97 2.209 . S
Mn72 O98 2.094 . S
Mn73 O78 2.121 . S
Mn73 N80 2.257 . S
Mn73 N89 2.282 . S
Mn73 O97 2.215 . S
Mn73 O99 2.117 . S
C74 O96 1.234 . S
C74 O97 1.283 . S
C75 O87 1.281 . S
C75 O88 1.236 . S
C76 O98 1.240 . S
C76 O99 1.264 . S
O77 Mn72 2.095 . S
O77 C86 1.250 . S
O78 Mn73 2.121 . S
O78 C86 1.258 . S
C79 N80 1.326 . S
C79 C83 1.460 . S
C79 H85 0.929 . S
N80 Mn73 2.257 . S
N80 C79 1.326 . S
N80 C84 1.362 . S
C81 C82 1.258 . S
C81 C84 1.431 . S
C81 C101 1.449 . S
C82 C81 1.258 . S
C82 C83 1.477 . S
C82 H102 0.931 . S
C83 C79 1.460 . S
C83 C82 1.477 . S
C83 H103 0.930 . S
C84 N80 1.362 . S
C84 C81 1.431 . S
C84 C94 1.476 . S
H85 C79 0.929 . S
C86 O77 1.250 . S
C86 O78 1.258 . S
O87 Mn72 2.162 . S
O87 C75 1.281 . S
O88 Mn72 2.297 . S
O88 C75 1.236 . S
N89 Mn73 2.282 . S
N89 C90 1.328 . S
N89 C94 1.318 . S
C90 N89 1.328 . S
C90 C91 1.457 . S
C90 H95 0.929 . S
C91 C90 1.457 . S
C91 C92 1.291 . S
C91 H104 0.931 . S
C92 C91 1.291 . S
C92 C93 1.373 . S
C92 H105 0.929 . S
C93 C92 1.373 . S
C93 C94 1.396 . S
C93 C100 1.403 . S
C94 C84 1.476 . S
C94 N89 1.318 . S
C94 C93 1.396 . S
H95 C90 0.929 . S
O96 Mn72 2.385 . S
O96 C74 1.234 . S
O97 Mn72 2.209 . S
O97 Mn73 2.215 . S
O97 C74 1.283 . S
O98 Mn72 2.094 . S
O98 C76 1.240 . S
O99 Mn73 2.117 . S
O99 C76 1.264 . S
C100 C93 1.403 . S
C100 C101 1.399 . S
C100 H106 0.929 . S
C101 C81 1.449 . S
C101 C100 1.399 . S
C101 H107 0.930 . S
H102 C82 0.931 . S
H103 C83 0.930 . S
H104 C91 0.931 . S
H105 C92 0.929 . S
H106 C100 0.929 . S
H107 C101 0.930 . S
Mn108 O113 2.095 . S
Mn108 O123 2.162 . S
Mn108 O124 2.297 . S
Mn108 O132 2.385 . S
Mn108 O133 2.209 . S
Mn108 O134 2.094 . S
Mn109 O114 2.121 . S
Mn109 N116 2.257 . S
Mn109 N125 2.282 . S
Mn109 O133 2.215 . S
Mn109 O135 2.117 . S
C110 O132 1.234 . S
C110 O133 1.283 . S
C111 O123 1.281 . S
C111 O124 1.236 . S
C112 O134 1.240 . S
C112 O135 1.264 . S
O113 Mn108 2.095 . S
O113 C122 1.250 . S
O114 Mn109 2.121 . S
O114 C122 1.258 . S
C115 N116 1.326 . S
C115 C119 1.460 . S
C115 H121 0.929 . S
N116 Mn109 2.257 . S
N116 C115 1.326 . S
N116 C120 1.362 . S
C117 C118 1.258 . S
C117 C120 1.431 . S
C117 C137 1.449 . S
C118 C117 1.258 . S
C118 C119 1.477 . S
C118 H138 0.931 . S
C119 C115 1.460 . S
C119 C118 1.477 . S
C119 H139 0.930 . S
C120 N116 1.362 . S
C120 C117 1.431 . S
C120 C130 1.476 . S
H121 C115 0.929 . S
C122 O113 1.250 . S
C122 O114 1.258 . S
O123 Mn108 2.162 . S
O123 C111 1.281 . S
O124 Mn108 2.297 . S
O124 C111 1.236 . S
N125 Mn109 2.282 . S
N125 C126 1.328 . S
N125 C130 1.318 . S
C126 N125 1.328 . S
C126 C127 1.457 . S
C126 H131 0.929 . S
C127 C126 1.457 . S
C127 C128 1.291 . S
C127 H140 0.931 . S
C128 C127 1.291 . S
C128 C129 1.373 . S
C128 H141 0.929 . S
C129 C128 1.373 . S
C129 C130 1.396 . S
C129 C136 1.403 . S
C130 C120 1.476 . S
C130 N125 1.318 . S
C130 C129 1.396 . S
H131 C126 0.929 . S
O132 Mn108 2.385 . S
O132 C110 1.234 . S
O133 Mn108 2.209 . S
O133 Mn109 2.215 . S
O133 C110 1.283 . S
O134 Mn108 2.094 . S
O134 C112 1.240 . S
O135 Mn109 2.117 . S
O135 C112 1.264 . S
C136 C129 1.403 . S
C136 C137 1.399 . S
C136 H142 0.929 . S
C137 C117 1.449 . S
C137 C136 1.399 . S
C137 H143 0.930 . S
H138 C118 0.931 . S
H139 C119 0.930 . S
H140 C127 0.931 . S
H141 C128 0.929 . S
H142 C136 0.929 . S
H143 C137 0.930 . S
Mn144 O149 2.095 . S
Mn144 O159 2.162 . S
Mn144 O160 2.297 . S
Mn144 O168 2.385 . S
Mn144 O169 2.209 . S
Mn144 O170 2.094 . S
Mn145 O150 2.121 . S
Mn145 N152 2.257 . S
Mn145 N161 2.282 . S
Mn145 O169 2.215 . S
Mn145 O171 2.117 . S
C146 O168 1.234 . S
C146 O169 1.283 . S
C147 O159 1.281 . S
C147 O160 1.236 . S
C148 O170 1.240 . S
C148 O171 1.264 . S
O149 Mn144 2.095 . S
O149 C158 1.250 . S
O150 Mn145 2.121 . S
O150 C158 1.258 . S
C151 N152 1.326 . S
C151 C155 1.460 . S
C151 H157 0.929 . S
N152 Mn145 2.257 . S
N152 C151 1.326 . S
N152 C156 1.362 . S
C153 C154 1.258 . S
C153 C156 1.431 . S
C153 C173 1.449 . S
C154 C153 1.258 . S
C154 C155 1.477 . S
C154 H174 0.931 . S
C155 C151 1.460 . S
C155 C154 1.477 . S
C155 H175 0.930 . S
C156 N152 1.362 . S
C156 C153 1.431 . S
C156 C166 1.476 . S
H157 C151 0.929 . S
C158 O149 1.250 . S
C158 O150 1.258 . S
O159 Mn144 2.162 . S
O159 C147 1.281 . S
O160 Mn144 2.297 . S
O160 C147 1.236 . S
N161 Mn145 2.282 . S
N161 C162 1.328 . S
N161 C166 1.318 . S
C162 N161 1.328 . S
C162 C163 1.457 . S
C162 H167 0.929 . S
C163 C162 1.457 . S
C163 C164 1.291 . S
C163 H176 0.931 . S
C164 C163 1.291 . S
C164 C165 1.373 . S
C164 H177 0.929 . S
C165 C164 1.373 . S
C165 C166 1.396 . S
C165 C172 1.403 . S
C166 C156 1.476 . S
C166 N161 1.318 . S
C166 C165 1.396 . S
H167 C162 0.929 . S
O168 Mn144 2.385 . S
O168 C146 1.234 . S
O169 Mn144 2.209 . S
O169 Mn145 2.215 . S
O169 C146 1.283 . S
O170 Mn144 2.094 . S
O170 C148 1.240 . S
O171 Mn145 2.117 . S
O171 C148 1.264 . S
C172 C165 1.403 . S
C172 C173 1.399 . S
C172 H178 0.929 . S
C173 C153 1.449 . S
C173 C172 1.399 . S
C173 H179 0.930 . S
H174 C154 0.931 . S
H175 C155 0.930 . S
H176 C163 0.931 . S
H177 C164 0.929 . S
H178 C172 0.929 . S
H179 C173 0.930 . S
Mn180 O185 2.095 . S
Mn180 O195 2.162 . S
Mn180 O196 2.297 . S
Mn180 O204 2.385 . S
Mn180 O205 2.209 . S
Mn180 O206 2.094 . S
Mn181 O186 2.121 . S
Mn181 N188 2.257 . S
Mn181 N197 2.282 . S
Mn181 O205 2.215 . S
Mn181 O207 2.117 . S
C182 O204 1.234 . S
C182 O205 1.283 . S
C183 O195 1.281 . S
C183 O196 1.236 . S
C184 O206 1.240 . S
C184 O207 1.264 . S
O185 Mn180 2.095 . S
O185 C194 1.250 . S
O186 Mn181 2.121 . S
O186 C194 1.258 . S
C187 N188 1.326 . S
C187 C191 1.460 . S
C187 H193 0.929 . S
N188 Mn181 2.257 . S
N188 C187 1.326 . S
N188 C192 1.362 . S
C189 C190 1.258 . S
C189 C192 1.431 . S
C189 C209 1.449 . S
C190 C189 1.258 . S
C190 C191 1.477 . S
C190 H210 0.931 . S
C191 C187 1.460 . S
C191 C190 1.477 . S
C191 H211 0.930 . S
C192 N188 1.362 . S
C192 C189 1.431 . S
C192 C202 1.476 . S
H193 C187 0.929 . S
C194 O185 1.250 . S
C194 O186 1.258 . S
O195 Mn180 2.162 . S
O195 C183 1.281 . S
O196 Mn180 2.297 . S
O196 C183 1.236 . S
N197 Mn181 2.282 . S
N197 C198 1.328 . S
N197 C202 1.318 . S
C198 N197 1.328 . S
C198 C199 1.457 . S
C198 H203 0.929 . S
C199 C198 1.457 . S
C199 C200 1.291 . S
C199 H212 0.931 . S
C200 C199 1.291 . S
C200 C201 1.373 . S
C200 H213 0.929 . S
C201 C200 1.373 . S
C201 C202 1.396 . S
C201 C208 1.403 . S
C202 C192 1.476 . S
C202 N197 1.318 . S
C202 C201 1.396 . S
H203 C198 0.929 . S
O204 Mn180 2.385 . S
O204 C182 1.234 . S
O205 Mn180 2.209 . S
O205 Mn181 2.215 . S
O205 C182 1.283 . S
O206 Mn180 2.094 . S
O206 C184 1.240 . S
O207 Mn181 2.117 . S
O207 C184 1.264 . S
C208 C201 1.403 . S
C208 C209 1.399 . S
C208 H214 0.929 . S
C209 C189 1.449 . S
C209 C208 1.399 . S
C209 H215 0.930 . S
H210 C190 0.931 . S
H211 C191 0.930 . S
H212 C199 0.931 . S
H213 C200 0.929 . S
H214 C208 0.929 . S
H215 C209 0.930 . S
Mn216 O221 2.095 . S
Mn216 O231 2.162 . S
Mn216 O232 2.297 . S
Mn216 O240 2.385 . S
Mn216 O241 2.209 . S
Mn216 O242 2.094 . S
Mn217 O222 2.121 . S
Mn217 N224 2.257 . S
Mn217 N233 2.282 . S
Mn217 O241 2.215 . S
Mn217 O243 2.117 . S
C218 O240 1.234 . S
C218 O241 1.283 . S
C219 O231 1.281 . S
C219 O232 1.236 . S
C220 O242 1.240 . S
C220 O243 1.264 . S
O221 Mn216 2.095 . S
O221 C230 1.250 . S
O222 Mn217 2.121 . S
O222 C230 1.258 . S
C223 N224 1.326 . S
C223 C227 1.460 . S
C223 H229 0.929 . S
N224 Mn217 2.257 . S
N224 C223 1.326 . S
N224 C228 1.362 . S
C225 C226 1.258 . S
C225 C228 1.431 . S
C225 C245 1.449 . S
C226 C225 1.258 . S
C226 C227 1.477 . S
C226 H246 0.931 . S
C227 C223 1.460 . S
C227 C226 1.477 . S
C227 H247 0.930 . S
C228 N224 1.362 . S
C228 C225 1.431 . S
C228 C238 1.476 . S
H229 C223 0.929 . S
C230 O221 1.250 . S
C230 O222 1.258 . S
O231 Mn216 2.162 . S
O231 C219 1.281 . S
O232 Mn216 2.297 . S
O232 C219 1.236 . S
N233 Mn217 2.282 . S
N233 C234 1.328 . S
N233 C238 1.318 . S
C234 N233 1.328 . S
C234 C235 1.457 . S
C234 H239 0.929 . S
C235 C234 1.457 . S
C235 C236 1.291 . S
C235 H248 0.931 . S
C236 C235 1.291 . S
C236 C237 1.373 . S
C236 H249 0.929 . S
C237 C236 1.373 . S
C237 C238 1.396 . S
C237 C244 1.403 . S
C238 C228 1.476 . S
C238 N233 1.318 . S
C238 C237 1.396 . S
H239 C234 0.929 . S
O240 Mn216 2.385 . S
O240 C218 1.234 . S
O241 Mn216 2.209 . S
O241 Mn217 2.215 . S
O241 C218 1.283 . S
O242 Mn216 2.094 . S
O242 C220 1.240 . S
O243 Mn217 2.117 . S
O243 C220 1.264 . S
C244 C237 1.403 . S
C244 C245 1.399 . S
C244 H250 0.929 . S
C245 C225 1.449 . S
C245 C244 1.399 . S
C245 H251 0.930 . S
H246 C226 0.931 . S
H247 C227 0.930 . S
H248 C235 0.931 . S
H249 C236 0.929 . S
H250 C244 0.929 . S
H251 C245 0.930 . S
Mn252 O257 2.095 . S
Mn252 O267 2.162 . S
Mn252 O268 2.297 . S
Mn252 O276 2.385 . S
Mn252 O277 2.209 . S
Mn252 O278 2.094 . S
Mn253 O258 2.121 . S
Mn253 N260 2.257 . S
Mn253 N269 2.282 . S
Mn253 O277 2.215 . S
Mn253 O279 2.117 . S
C254 O276 1.234 . S
C254 O277 1.283 . S
C255 O267 1.281 . S
C255 O268 1.236 . S
C256 O278 1.240 . S
C256 O279 1.264 . S
O257 Mn252 2.095 . S
O257 C266 1.250 . S
O258 Mn253 2.121 . S
O258 C266 1.258 . S
C259 N260 1.326 . S
C259 C263 1.460 . S
C259 H265 0.929 . S
N260 Mn253 2.257 . S
N260 C259 1.326 . S
N260 C264 1.362 . S
C261 C262 1.258 . S
C261 C264 1.431 . S
C261 C281 1.449 . S
C262 C261 1.258 . S
C262 C263 1.477 . S
C262 H282 0.931 . S
C263 C259 1.460 . S
C263 C262 1.477 . S
C263 H283 0.930 . S
C264 N260 1.362 . S
C264 C261 1.431 . S
C264 C274 1.476 . S
H265 C259 0.929 . S
C266 O257 1.250 . S
C266 O258 1.258 . S
O267 Mn252 2.162 . S
O267 C255 1.281 . S
O268 Mn252 2.297 . S
O268 C255 1.236 . S
N269 Mn253 2.282 . S
N269 C270 1.328 . S
N269 C274 1.318 . S
C270 N269 1.328 . S
C270 C271 1.457 . S
C270 H275 0.929 . S
C271 C270 1.457 . S
C271 C272 1.291 . S
C271 H284 0.931 . S
C272 C271 1.291 . S
C272 C273 1.373 . S
C272 H285 0.929 . S
C273 C272 1.373 . S
C273 C274 1.396 . S
C273 C280 1.403 . S
C274 C264 1.476 . S
C274 N269 1.318 . S
C274 C273 1.396 . S
H275 C270 0.929 . S
O276 Mn252 2.385 . S
O276 C254 1.234 . S
O277 Mn252 2.209 . S
O277 Mn253 2.215 . S
O277 C254 1.283 . S
O278 Mn252 2.094 . S
O278 C256 1.240 . S
O279 Mn253 2.117 . S
O279 C256 1.264 . S
C280 C273 1.403 . S
C280 C281 1.399 . S
C280 H286 0.929 . S
C281 C261 1.449 . S
C281 C280 1.399 . S
C281 H287 0.930 . S
H282 C262 0.931 . S
H283 C263 0.930 . S
H284 C271 0.931 . S
H285 C272 0.929 . S
H286 C280 0.929 . S
H287 C281 0.930 . S
Mn288 O293 2.095 . S
Mn288 O303 2.162 . S
Mn288 O304 2.297 . S
Mn288 O312 2.385 . S
Mn288 O313 2.209 . S
Mn288 O314 2.094 . S
Mn289 O294 2.121 . S
Mn289 N296 2.257 . S
Mn289 N305 2.282 . S
Mn289 O313 2.215 . S
Mn289 O315 2.117 . S
C290 O312 1.234 . S
C290 O313 1.283 . S
C291 O303 1.281 . S
C291 O304 1.236 . S
C292 O314 1.240 . S
C292 O315 1.264 . S
O293 Mn288 2.095 . S
O293 C302 1.250 . S
O294 Mn289 2.121 . S
O294 C302 1.258 . S
C295 N296 1.326 . S
C295 C299 1.460 . S
C295 H301 0.929 . S
N296 Mn289 2.257 . S
N296 C295 1.326 . S
N296 C300 1.362 . S
C297 C298 1.258 . S
C297 C300 1.431 . S
C297 C317 1.449 . S
C298 C297 1.258 . S
C298 C299 1.477 . S
C298 H318 0.931 . S
C299 C295 1.460 . S
C299 C298 1.477 . S
C299 H319 0.930 . S
C300 N296 1.362 . S
C300 C297 1.431 . S
C300 C310 1.476 . S
H301 C295 0.929 . S
C302 O293 1.250 . S
C302 O294 1.258 . S
O303 Mn288 2.162 . S
O303 C291 1.281 . S
O304 Mn288 2.297 . S
O304 C291 1.236 . S
N305 Mn289 2.282 . S
N305 C306 1.328 . S
N305 C310 1.318 . S
C306 N305 1.328 . S
C306 C307 1.457 . S
C306 H311 0.929 . S
C307 C306 1.457 . S
C307 C308 1.291 . S
C307 H320 0.931 . S
C308 C307 1.291 . S
C308 C309 1.373 . S
C308 H321 0.929 . S
C309 C308 1.373 . S
C309 C310 1.396 . S
C309 C316 1.403 . S
C310 C300 1.476 . S
C310 N305 1.318 . S
C310 C309 1.396 . S
H311 C306 0.929 . S
O312 Mn288 2.385 . S
O312 C290 1.234 . S
O313 Mn288 2.209 . S
O313 Mn289 2.215 . S
O313 C290 1.283 . S
O314 Mn288 2.094 . S
O314 C292 1.240 . S
O315 Mn289 2.117 . S
O315 C292 1.264 . S
C316 C309 1.403 . S
C316 C317 1.399 . S
C316 H322 0.929 . S
C317 C297 1.449 . S
C317 C316 1.399 . S
C317 H323 0.930 . S
H318 C298 0.931 . S
H319 C299 0.930 . S
H320 C307 0.931 . S
H321 C308 0.929 . S
H322 C316 0.929 . S
H323 C317 0.930 . S
Mn324 O329 2.095 . S
Mn324 O339 2.162 . S
Mn324 O340 2.297 . S
Mn324 O348 2.385 . S
Mn324 O349 2.209 . S
Mn324 O350 2.094 . S
Mn325 O330 2.121 . S
Mn325 N332 2.257 . S
Mn325 N341 2.282 . S
Mn325 O349 2.215 . S
Mn325 O351 2.117 . S
C326 O348 1.234 . S
C326 O349 1.283 . S
C327 O339 1.281 . S
C327 O340 1.236 . S
C328 O350 1.240 . S
C328 O351 1.264 . S
O329 Mn324 2.095 . S
O329 C338 1.250 . S
O330 Mn325 2.121 . S
O330 C338 1.258 . S
C331 N332 1.326 . S
C331 C335 1.460 . S
C331 H337 0.929 . S
N332 Mn325 2.257 . S
N332 C331 1.326 . S
N332 C336 1.362 . S
C333 C334 1.258 . S
C333 C336 1.431 . S
C333 C353 1.449 . S
C334 C333 1.258 . S
C334 C335 1.477 . S
C334 H354 0.931 . S
C335 C331 1.460 . S
C335 C334 1.477 . S
C335 H355 0.930 . S
C336 N332 1.362 . S
C336 C333 1.431 . S
C336 C346 1.476 . S
H337 C331 0.929 . S
C338 O329 1.250 . S
C338 O330 1.258 . S
O339 Mn324 2.162 . S
O339 C327 1.281 . S
O340 Mn324 2.297 . S
O340 C327 1.236 . S
N341 Mn325 2.282 . S
N341 C342 1.328 . S
N341 C346 1.318 . S
C342 N341 1.328 . S
C342 C343 1.457 . S
C342 H347 0.929 . S
C343 C342 1.457 . S
C343 C344 1.291 . S
C343 H356 0.931 . S
C344 C343 1.291 . S
C344 C345 1.373 . S
C344 H357 0.929 . S
C345 C344 1.373 . S
C345 C346 1.396 . S
C345 C352 1.403 . S
C346 C336 1.476 . S
C346 N341 1.318 . S
C346 C345 1.396 . S
H347 C342 0.929 . S
O348 Mn324 2.385 . S
O348 C326 1.234 . S
O349 Mn324 2.209 . S
O349 Mn325 2.215 . S
O349 C326 1.283 . S
O350 Mn324 2.094 . S
O350 C328 1.240 . S
O351 Mn325 2.117 . S
O351 C328 1.264 . S
C352 C345 1.403 . S
C352 C353 1.399 . S
C352 H358 0.929 . S
C353 C333 1.449 . S
C353 C352 1.399 . S
C353 H359 0.930 . S
H354 C334 0.931 . S
H355 C335 0.930 . S
H356 C343 0.931 . S
H357 C344 0.929 . S
H358 C352 0.929 . S
H359 C353 0.930 . S
Mn360 O365 2.095 . S
Mn360 O375 2.162 . S
Mn360 O376 2.297 . S
Mn360 O384 2.385 . S
Mn360 O385 2.209 . S
Mn360 O386 2.094 . S
Mn361 O366 2.121 . S
Mn361 N368 2.257 . S
Mn361 N377 2.282 . S
Mn361 O385 2.215 . S
Mn361 O387 2.117 . S
C362 O384 1.234 . S
C362 O385 1.283 . S
C363 O375 1.281 . S
C363 O376 1.236 . S
C364 O386 1.240 . S
C364 O387 1.264 . S
O365 Mn360 2.095 . S
O365 C374 1.250 . S
O366 Mn361 2.121 . S
O366 C374 1.258 . S
C367 N368 1.326 . S
C367 C371 1.460 . S
C367 H373 0.929 . S
N368 Mn361 2.257 . S
N368 C367 1.326 . S
N368 C372 1.362 . S
C369 C370 1.258 . S
C369 C372 1.431 . S
C369 C389 1.449 . S
C370 C369 1.258 . S
C370 C371 1.477 . S
C370 H390 0.931 . S
C371 C367 1.460 . S
C371 C370 1.477 . S
C371 H391 0.930 . S
C372 N368 1.362 . S
C372 C369 1.431 . S
C372 C382 1.476 . S
H373 C367 0.929 . S
C374 O365 1.250 . S
C374 O366 1.258 . S
O375 Mn360 2.162 . S
O375 C363 1.281 . S
O376 Mn360 2.297 . S
O376 C363 1.236 . S
N377 Mn361 2.282 . S
N377 C378 1.328 . S
N377 C382 1.318 . S
C378 N377 1.328 . S
C378 C379 1.457 . S
C378 H383 0.929 . S
C379 C378 1.457 . S
C379 C380 1.291 . S
C379 H392 0.931 . S
C380 C379 1.291 . S
C380 C381 1.373 . S
C380 H393 0.929 . S
C381 C380 1.373 . S
C381 C382 1.396 . S
C381 C388 1.403 . S
C382 C372 1.476 . S
C382 N377 1.318 . S
C382 C381 1.396 . S
H383 C378 0.929 . S
O384 Mn360 2.385 . S
O384 C362 1.234 . S
O385 Mn360 2.209 . S
O385 Mn361 2.215 . S
O385 C362 1.283 . S
O386 Mn360 2.094 . S
O386 C364 1.240 . S
O387 Mn361 2.117 . S
O387 C364 1.264 . S
C388 C381 1.403 . S
C388 C389 1.399 . S
C388 H394 0.929 . S
C389 C369 1.449 . S
C389 C388 1.399 . S
C389 H395 0.930 . S
H390 C370 0.931 . S
H391 C371 0.930 . S
H392 C379 0.931 . S
H393 C380 0.929 . S
H394 C388 0.929 . S
H395 C389 0.930 . S
Mn396 O401 2.095 . S
Mn396 O411 2.162 . S
Mn396 O412 2.297 . S
Mn396 O420 2.385 . S
Mn396 O421 2.209 . S
Mn396 O422 2.094 . S
Mn397 O402 2.121 . S
Mn397 N404 2.257 . S
Mn397 N413 2.282 . S
Mn397 O421 2.215 . S
Mn397 O423 2.117 . S
C398 O420 1.234 . S
C398 O421 1.283 . S
C399 O411 1.281 . S
C399 O412 1.236 . S
C400 O422 1.240 . S
C400 O423 1.264 . S
O401 Mn396 2.095 . S
O401 C410 1.250 . S
O402 Mn397 2.121 . S
O402 C410 1.258 . S
C403 N404 1.326 . S
C403 C407 1.460 . S
C403 H409 0.929 . S
N404 Mn397 2.257 . S
N404 C403 1.326 . S
N404 C408 1.362 . S
C405 C406 1.258 . S
C405 C408 1.431 . S
C405 C425 1.449 . S
C406 C405 1.258 . S
C406 C407 1.477 . S
C406 H426 0.931 . S
C407 C403 1.460 . S
C407 C406 1.477 . S
C407 H427 0.930 . S
C408 N404 1.362 . S
C408 C405 1.431 . S
C408 C418 1.476 . S
H409 C403 0.929 . S
C410 O401 1.250 . S
C410 O402 1.258 . S
O411 Mn396 2.162 . S
O411 C399 1.281 . S
O412 Mn396 2.297 . S
O412 C399 1.236 . S
N413 Mn397 2.282 . S
N413 C414 1.328 . S
N413 C418 1.318 . S
C414 N413 1.328 . S
C414 C415 1.457 . S
C414 H419 0.929 . S
C415 C414 1.457 . S
C415 C416 1.291 . S
C415 H428 0.931 . S
C416 C415 1.291 . S
C416 C417 1.373 . S
C416 H429 0.929 . S
C417 C416 1.373 . S
C417 C418 1.396 . S
C417 C424 1.403 . S
C418 C408 1.476 . S
C418 N413 1.318 . S
C418 C417 1.396 . S
H419 C414 0.929 . S
O420 Mn396 2.385 . S
O420 C398 1.234 . S
O421 Mn396 2.209 . S
O421 Mn397 2.215 . S
O421 C398 1.283 . S
O422 Mn396 2.094 . S
O422 C400 1.240 . S
O423 Mn397 2.117 . S
O423 C400 1.264 . S
C424 C417 1.403 . S
C424 C425 1.399 . S
C424 H430 0.929 . S
C425 C405 1.449 . S
C425 C424 1.399 . S
C425 H431 0.930 . S
H426 C406 0.931 . S
H427 C407 0.930 . S
H428 C415 0.931 . S
H429 C416 0.929 . S
H430 C424 0.929 . S
H431 C425 0.930 . S
Mn432 O437 2.095 . S
Mn432 O447 2.162 . S
Mn432 O448 2.297 . S
Mn432 O456 2.385 . S
Mn432 O457 2.209 . S
Mn432 O458 2.094 . S
Mn433 O438 2.121 . S
Mn433 N440 2.257 . S
Mn433 N449 2.282 . S
Mn433 O457 2.215 . S
Mn433 O459 2.117 . S
C434 O456 1.234 . S
C434 O457 1.283 . S
C435 O447 1.281 . S
C435 O448 1.236 . S
C436 O458 1.240 . S
C436 O459 1.264 . S
O437 Mn432 2.095 . S
O437 C446 1.250 . S
O438 Mn433 2.121 . S
O438 C446 1.258 . S
C439 N440 1.326 . S
C439 C443 1.460 . S
C439 H445 0.929 . S
N440 Mn433 2.257 . S
N440 C439 1.326 . S
N440 C444 1.362 . S
C441 C442 1.258 . S
C441 C444 1.431 . S
C441 C461 1.449 . S
C442 C441 1.258 . S
C442 C443 1.477 . S
C442 H462 0.931 . S
C443 C439 1.460 . S
C443 C442 1.477 . S
C443 H463 0.930 . S
C444 N440 1.362 . S
C444 C441 1.431 . S
C444 C454 1.476 . S
H445 C439 0.929 . S
C446 O437 1.250 . S
C446 O438 1.258 . S
O447 Mn432 2.162 . S
O447 C435 1.281 . S
O448 Mn432 2.297 . S
O448 C435 1.236 . S
N449 Mn433 2.282 . S
N449 C450 1.328 . S
N449 C454 1.318 . S
C450 N449 1.328 . S
C450 C451 1.457 . S
C450 H455 0.929 . S
C451 C450 1.457 . S
C451 C452 1.291 . S
C451 H464 0.931 . S
C452 C451 1.291 . S
C452 C453 1.373 . S
C452 H465 0.929 . S
C453 C452 1.373 . S
C453 C454 1.396 . S
C453 C460 1.403 . S
C454 C444 1.476 . S
C454 N449 1.318 . S
C454 C453 1.396 . S
H455 C450 0.929 . S
O456 Mn432 2.385 . S
O456 C434 1.234 . S
O457 Mn432 2.209 . S
O457 Mn433 2.215 . S
O457 C434 1.283 . S
O458 Mn432 2.094 . S
O458 C436 1.240 . S
O459 Mn433 2.117 . S
O459 C436 1.264 . S
C460 C453 1.403 . S
C460 C461 1.399 . S
C460 H466 0.929 . S
C461 C441 1.449 . S
C461 C460 1.399 . S
C461 H467 0.930 . S
H462 C442 0.931 . S
H463 C443 0.930 . S
H464 C451 0.931 . S
H465 C452 0.929 . S
H466 C460 0.929 . S
H467 C461 0.930 . S
Mn468 O473 2.095 . S
Mn468 O483 2.162 . S
Mn468 O484 2.297 . S
Mn468 O492 2.385 . S
Mn468 O493 2.209 . S
Mn468 O494 2.094 . S
Mn469 O474 2.121 . S
Mn469 N476 2.257 . S
Mn469 N485 2.282 . S
Mn469 O493 2.215 . S
Mn469 O495 2.117 . S
C470 O492 1.234 . S
C470 O493 1.283 . S
C471 O483 1.281 . S
C471 O484 1.236 . S
C472 O494 1.240 . S
C472 O495 1.264 . S
O473 Mn468 2.095 . S
O473 C482 1.250 . S
O474 Mn469 2.121 . S
O474 C482 1.258 . S
C475 N476 1.326 . S
C475 C479 1.460 . S
C475 H481 0.929 . S
N476 Mn469 2.257 . S
N476 C475 1.326 . S
N476 C480 1.362 . S
C477 C478 1.258 . S
C477 C480 1.431 . S
C477 C497 1.449 . S
C478 C477 1.258 . S
C478 C479 1.477 . S
C478 H498 0.931 . S
C479 C475 1.460 . S
C479 C478 1.477 . S
C479 H499 0.930 . S
C480 N476 1.362 . S
C480 C477 1.431 . S
C480 C490 1.476 . S
H481 C475 0.929 . S
C482 O473 1.250 . S
C482 O474 1.258 . S
O483 Mn468 2.162 . S
O483 C471 1.281 . S
O484 Mn468 2.297 . S
O484 C471 1.236 . S
N485 Mn469 2.282 . S
N485 C486 1.328 . S
N485 C490 1.318 . S
C486 N485 1.328 . S
C486 C487 1.457 . S
C486 H491 0.929 . S
C487 C486 1.457 . S
C487 C488 1.291 . S
C487 H500 0.931 . S
C488 C487 1.291 . S
C488 C489 1.373 . S
C488 H501 0.929 . S
C489 C488 1.373 . S
C489 C490 1.396 . S
C489 C496 1.403 . S
C490 C480 1.476 . S
C490 N485 1.318 . S
C490 C489 1.396 . S
H491 C486 0.929 . S
O492 Mn468 2.385 . S
O492 C470 1.234 . S
O493 Mn468 2.209 . S
O493 Mn469 2.215 . S
O493 C470 1.283 . S
O494 Mn468 2.094 . S
O494 C472 1.240 . S
O495 Mn469 2.117 . S
O495 C472 1.264 . S
C496 C489 1.403 . S
C496 C497 1.399 . S
C496 H502 0.929 . S
C497 C477 1.449 . S
C497 C496 1.399 . S
C497 H503 0.930 . S
H498 C478 0.931 . S
H499 C479 0.930 . S
H500 C487 0.931 . S
H501 C488 0.929 . S
H502 C496 0.929 . S
H503 C497 0.930 . S
Mn504 O509 2.095 . S
Mn504 O519 2.162 . S
Mn504 O520 2.297 . S
Mn504 O528 2.385 . S
Mn504 O529 2.209 . S
Mn504 O530 2.094 . S
Mn505 O510 2.121 . S
Mn505 N512 2.257 . S
Mn505 N521 2.282 . S
Mn505 O529 2.215 . S
Mn505 O531 2.117 . S
C506 O528 1.234 . S
C506 O529 1.283 . S
C507 O519 1.281 . S
C507 O520 1.236 . S
C508 O530 1.240 . S
C508 O531 1.264 . S
O509 Mn504 2.095 . S
O509 C518 1.250 . S
O510 Mn505 2.121 . S
O510 C518 1.258 . S
C511 N512 1.326 . S
C511 C515 1.460 . S
C511 H517 0.929 . S
N512 Mn505 2.257 . S
N512 C511 1.326 . S
N512 C516 1.362 . S
C513 C514 1.258 . S
C513 C516 1.431 . S
C513 C533 1.449 . S
C514 C513 1.258 . S
C514 C515 1.477 . S
C514 H534 0.931 . S
C515 C511 1.460 . S
C515 C514 1.477 . S
C515 H535 0.930 . S
C516 N512 1.362 . S
C516 C513 1.431 . S
C516 C526 1.476 . S
H517 C511 0.929 . S
C518 O509 1.250 . S
C518 O510 1.258 . S
O519 Mn504 2.162 . S
O519 C507 1.281 . S
O520 Mn504 2.297 . S
O520 C507 1.236 . S
N521 Mn505 2.282 . S
N521 C522 1.328 . S
N521 C526 1.318 . S
C522 N521 1.328 . S
C522 C523 1.457 . S
C522 H527 0.929 . S
C523 C522 1.457 . S
C523 C524 1.291 . S
C523 H536 0.931 . S
C524 C523 1.291 . S
C524 C525 1.373 . S
C524 H537 0.929 . S
C525 C524 1.373 . S
C525 C526 1.396 . S
C525 C532 1.403 . S
C526 C516 1.476 . S
C526 N521 1.318 . S
C526 C525 1.396 . S
H527 C522 0.929 . S
O528 Mn504 2.385 . S
O528 C506 1.234 . S
O529 Mn504 2.209 . S
O529 Mn505 2.215 . S
O529 C506 1.283 . S
O530 Mn504 2.094 . S
O530 C508 1.240 . S
O531 Mn505 2.117 . S
O531 C508 1.264 . S
C532 C525 1.403 . S
C532 C533 1.399 . S
C532 H538 0.929 . S
C533 C513 1.449 . S
C533 C532 1.399 . S
C533 H539 0.930 . S
H534 C514 0.931 . S
H535 C515 0.930 . S
H536 C523 0.931 . S
H537 C524 0.929 . S
H538 C532 0.929 . S
H539 C533 0.930 . S
Mn540 O545 2.095 . S
Mn540 O555 2.162 . S
Mn540 O556 2.297 . S
Mn540 O564 2.385 . S
Mn540 O565 2.209 . S
Mn540 O566 2.094 . S
Mn541 O546 2.121 . S
Mn541 N548 2.257 . S
Mn541 N557 2.282 . S
Mn541 O565 2.215 . S
Mn541 O567 2.117 . S
C542 O564 1.234 . S
C542 O565 1.283 . S
C543 O555 1.281 . S
C543 O556 1.236 . S
C544 O566 1.240 . S
C544 O567 1.264 . S
O545 Mn540 2.095 . S
O545 C554 1.250 . S
O546 Mn541 2.121 . S
O546 C554 1.258 . S
C547 N548 1.326 . S
C547 C551 1.460 . S
C547 H553 0.929 . S
N548 Mn541 2.257 . S
N548 C547 1.326 . S
N548 C552 1.362 . S
C549 C550 1.258 . S
C549 C552 1.431 . S
C549 C569 1.449 . S
C550 C549 1.258 . S
C550 C551 1.477 . S
C550 H570 0.931 . S
C551 C547 1.460 . S
C551 C550 1.477 . S
C551 H571 0.930 . S
C552 N548 1.362 . S
C552 C549 1.431 . S
C552 C562 1.476 . S
H553 C547 0.929 . S
C554 O545 1.250 . S
C554 O546 1.258 . S
O555 Mn540 2.162 . S
O555 C543 1.281 . S
O556 Mn540 2.297 . S
O556 C543 1.236 . S
N557 Mn541 2.282 . S
N557 C558 1.328 . S
N557 C562 1.318 . S
C558 N557 1.328 . S
C558 C559 1.457 . S
C558 H563 0.929 . S
C559 C558 1.457 . S
C559 C560 1.291 . S
C559 H572 0.931 . S
C560 C559 1.291 . S
C560 C561 1.373 . S
C560 H573 0.929 . S
C561 C560 1.373 . S
C561 C562 1.396 . S
C561 C568 1.403 . S
C562 C552 1.476 . S
C562 N557 1.318 . S
C562 C561 1.396 . S
H563 C558 0.929 . S
O564 Mn540 2.385 . S
O564 C542 1.234 . S
O565 Mn540 2.209 . S
O565 Mn541 2.215 . S
O565 C542 1.283 . S
O566 Mn540 2.094 . S
O566 C544 1.240 . S
O567 Mn541 2.117 . S
O567 C544 1.264 . S
C568 C561 1.403 . S
C568 C569 1.399 . S
C568 H574 0.929 . S
C569 C549 1.449 . S
C569 C568 1.399 . S
C569 H575 0.930 . S
H570 C550 0.931 . S
H571 C551 0.930 . S
H572 C559 0.931 . S
H573 C560 0.929 . S
H574 C568 0.929 . S
H575 C569 0.930 . S
Mn576 O581 2.095 . S
Mn576 O591 2.162 . S
Mn576 O592 2.297 . S
Mn576 O600 2.385 . S
Mn576 O601 2.209 . S
Mn576 O602 2.094 . S
Mn577 O582 2.121 . S
Mn577 N584 2.257 . S
Mn577 N593 2.282 . S
Mn577 O601 2.215 . S
Mn577 O603 2.117 . S
C578 O600 1.234 . S
C578 O601 1.283 . S
C579 O591 1.281 . S
C579 O592 1.236 . S
C580 O602 1.240 . S
C580 O603 1.264 . S
O581 Mn576 2.095 . S
O581 C590 1.250 . S
O582 Mn577 2.121 . S
O582 C590 1.258 . S
C583 N584 1.326 . S
C583 C587 1.460 . S
C583 H589 0.929 . S
N584 Mn577 2.257 . S
N584 C583 1.326 . S
N584 C588 1.362 . S
C585 C586 1.258 . S
C585 C588 1.431 . S
C585 C605 1.449 . S
C586 C585 1.258 . S
C586 C587 1.477 . S
C586 H606 0.931 . S
C587 C583 1.460 . S
C587 C586 1.477 . S
C587 H607 0.930 . S
C588 N584 1.362 . S
C588 C585 1.431 . S
C588 C598 1.476 . S
H589 C583 0.929 . S
C590 O581 1.250 . S
C590 O582 1.258 . S
O591 Mn576 2.162 . S
O591 C579 1.281 . S
O592 Mn576 2.297 . S
O592 C579 1.236 . S
N593 Mn577 2.282 . S
N593 C594 1.328 . S
N593 C598 1.318 . S
C594 N593 1.328 . S
C594 C595 1.457 . S
C594 H599 0.929 . S
C595 C594 1.457 . S
C595 C596 1.291 . S
C595 H608 0.931 . S
C596 C595 1.291 . S
C596 C597 1.373 . S
C596 H609 0.929 . S
C597 C596 1.373 . S
C597 C598 1.396 . S
C597 C604 1.403 . S
C598 C588 1.476 . S
C598 N593 1.318 . S
C598 C597 1.396 . S
H599 C594 0.929 . S
O600 Mn576 2.385 . S
O600 C578 1.234 . S
O601 Mn576 2.209 . S
O601 Mn577 2.215 . S
O601 C578 1.283 . S
O602 Mn576 2.094 . S
O602 C580 1.240 . S
O603 Mn577 2.117 . S
O603 C580 1.264 . S
C604 C597 1.403 . S
C604 C605 1.399 . S
C604 H610 0.929 . S
C605 C585 1.449 . S
C605 C604 1.399 . S
C605 H611 0.930 . S
H606 C586 0.931 . S
H607 C587 0.930 . S
H608 C595 0.931 . S
H609 C596 0.929 . S
H610 C604 0.929 . S
H611 C605 0.930 . S
Mn612 O617 2.095 . S
Mn612 O627 2.162 . S
Mn612 O628 2.297 . S
Mn612 O636 2.385 . S
Mn612 O637 2.209 . S
Mn612 O638 2.094 . S
Mn613 O618 2.121 . S
Mn613 N620 2.257 . S
Mn613 N629 2.282 . S
Mn613 O637 2.215 . S
Mn613 O639 2.117 . S
C614 O636 1.234 . S
C614 O637 1.283 . S
C615 O627 1.281 . S
C615 O628 1.236 . S
C616 O638 1.240 . S
C616 O639 1.264 . S
O617 Mn612 2.095 . S
O617 C626 1.250 . S
O618 Mn613 2.121 . S
O618 C626 1.258 . S
C619 N620 1.326 . S
C619 C623 1.460 . S
C619 H625 0.929 . S
N620 Mn613 2.257 . S
N620 C619 1.326 . S
N620 C624 1.362 . S
C621 C622 1.258 . S
C621 C624 1.431 . S
C621 C641 1.449 . S
C622 C621 1.258 . S
C622 C623 1.477 . S
C622 H642 0.931 . S
C623 C619 1.460 . S
C623 C622 1.477 . S
C623 H643 0.930 . S
C624 N620 1.362 . S
C624 C621 1.431 . S
C624 C634 1.476 . S
H625 C619 0.929 . S
C626 O617 1.250 . S
C626 O618 1.258 . S
O627 Mn612 2.162 . S
O627 C615 1.281 . S
O628 Mn612 2.297 . S
O628 C615 1.236 . S
N629 Mn613 2.282 . S
N629 C630 1.328 . S
N629 C634 1.318 . S
C630 N629 1.328 . S
C630 C631 1.457 . S
C630 H635 0.929 . S
C631 C630 1.457 . S
C631 C632 1.291 . S
C631 H644 0.931 . S
C632 C631 1.291 . S
C632 C633 1.373 . S
C632 H645 0.929 . S
C633 C632 1.373 . S
C633 C634 1.396 . S
C633 C640 1.403 . S
C634 C624 1.476 . S
C634 N629 1.318 . S
C634 C633 1.396 . S
H635 C630 0.929 . S
O636 Mn612 2.385 . S
O636 C614 1.234 . S
O637 Mn612 2.209 . S
O637 Mn613 2.215 . S
O637 C614 1.283 . S
O638 Mn612 2.094 . S
O638 C616 1.240 . S
O639 Mn613 2.117 . S
O639 C616 1.264 . S
C640 C633 1.403 . S
C640 C641 1.399 . S
C640 H646 0.929 . S
C641 C621 1.449 . S
C641 C640 1.399 . S
C641 H647 0.930 . S
H642 C622 0.931 . S
H643 C623 0.930 . S
H644 C631 0.931 . S
H645 C632 0.929 . S
H646 C640 0.929 . S
H647 C641 0.930 . S
Mn648 O653 2.095 . S
Mn648 O663 2.162 . S
Mn648 O664 2.297 . S
Mn648 O672 2.385 . S
Mn648 O673 2.209 . S
Mn648 O674 2.094 . S
Mn649 O654 2.121 . S
Mn649 N656 2.257 . S
Mn649 N665 2.282 . S
Mn649 O673 2.215 . S
Mn649 O675 2.117 . S
C650 O672 1.234 . S
C650 O673 1.283 . S
C651 O663 1.281 . S
C651 O664 1.236 . S
C652 O674 1.240 . S
C652 O675 1.264 . S
O653 Mn648 2.095 . S
O653 C662 1.250 . S
O654 Mn649 2.121 . S
O654 C662 1.258 . S
C655 N656 1.326 . S
C655 C659 1.460 . S
C655 H661 0.929 . S
N656 Mn649 2.257 . S
N656 C655 1.326 . S
N656 C660 1.362 . S
C657 C658 1.258 . S
C657 C660 1.431 . S
C657 C677 1.449 . S
C658 C657 1.258 . S
C658 C659 1.477 . S
C658 H678 0.931 . S
C659 C655 1.460 . S
C659 C658 1.477 . S
C659 H679 0.930 . S
C660 N656 1.362 . S
C660 C657 1.431 . S
C660 C670 1.476 . S
H661 C655 0.929 . S
C662 O653 1.250 . S
C662 O654 1.258 . S
O663 Mn648 2.162 . S
O663 C651 1.281 . S
O664 Mn648 2.297 . S
O664 C651 1.236 . S
N665 Mn649 2.282 . S
N665 C666 1.328 . S
N665 C670 1.318 . S
C666 N665 1.328 . S
C666 C667 1.457 . S
C666 H671 0.929 . S
C667 C666 1.457 . S
C667 C668 1.291 . S
C667 H680 0.931 . S
C668 C667 1.291 . S
C668 C669 1.373 . S
C668 H681 0.929 . S
C669 C668 1.373 . S
C669 C670 1.396 . S
C669 C676 1.403 . S
C670 C660 1.476 . S
C670 N665 1.318 . S
C670 C669 1.396 . S
H671 C666 0.929 . S
O672 Mn648 2.385 . S
O672 C650 1.234 . S
O673 Mn648 2.209 . S
O673 Mn649 2.215 . S
O673 C650 1.283 . S
O674 Mn648 2.094 . S
O674 C652 1.240 . S
O675 Mn649 2.117 . S
O675 C652 1.264 . S
C676 C669 1.403 . S
C676 C677 1.399 . S
C676 H682 0.929 . S
C677 C657 1.449 . S
C677 C676 1.399 . S
C677 H683 0.930 . S
H678 C658 0.931 . S
H679 C659 0.930 . S
H680 C667 0.931 . S
H681 C668 0.929 . S
H682 C676 0.929 . S
H683 C677 0.930 . S
Mn684 O689 2.095 . S
Mn684 O699 2.162 . S
Mn684 O700 2.297 . S
Mn684 O708 2.385 . S
Mn684 O709 2.209 . S
Mn684 O710 2.094 . S
Mn685 O690 2.121 . S
Mn685 N692 2.257 . S
Mn685 N701 2.282 . S
Mn685 O709 2.215 . S
Mn685 O711 2.117 . S
C686 O708 1.234 . S
C686 O709 1.283 . S
C687 O699 1.281 . S
C687 O700 1.236 . S
C688 O710 1.240 . S
C688 O711 1.264 . S
O689 Mn684 2.095 . S
O689 C698 1.250 . S
O690 Mn685 2.121 . S
O690 C698 1.258 . S
C691 N692 1.326 . S
C691 C695 1.460 . S
C691 H697 0.929 . S
N692 Mn685 2.257 . S
N692 C691 1.326 . S
N692 C696 1.362 . S
C693 C694 1.258 . S
C693 C696 1.431 . S
C693 C713 1.449 . S
C694 C693 1.258 . S
C694 C695 1.477 . S
C694 H714 0.931 . S
C695 C691 1.460 . S
C695 C694 1.477 . S
C695 H715 0.930 . S
C696 N692 1.362 . S
C696 C693 1.431 . S
C696 C706 1.476 . S
H697 C691 0.929 . S
C698 O689 1.250 . S
C698 O690 1.258 . S
O699 Mn684 2.162 . S
O699 C687 1.281 . S
O700 Mn684 2.297 . S
O700 C687 1.236 . S
N701 Mn685 2.282 . S
N701 C702 1.328 . S
N701 C706 1.318 . S
C702 N701 1.328 . S
C702 C703 1.457 . S
C702 H707 0.929 . S
C703 C702 1.457 . S
C703 C704 1.291 . S
C703 H716 0.931 . S
C704 C703 1.291 . S
C704 C705 1.373 . S
C704 H717 0.929 . S
C705 C704 1.373 . S
C705 C706 1.396 . S
C705 C712 1.403 . S
C706 C696 1.476 . S
C706 N701 1.318 . S
C706 C705 1.396 . S
H707 C702 0.929 . S
O708 Mn684 2.385 . S
O708 C686 1.234 . S
O709 Mn684 2.209 . S
O709 Mn685 2.215 . S
O709 C686 1.283 . S
O710 Mn684 2.094 . S
O710 C688 1.240 . S
O711 Mn685 2.117 . S
O711 C688 1.264 . S
C712 C705 1.403 . S
C712 C713 1.399 . S
C712 H718 0.929 . S
C713 C693 1.449 . S
C713 C712 1.399 . S
C713 H719 0.930 . S
H714 C694 0.931 . S
H715 C695 0.930 . S
H716 C703 0.931 . S
H717 C704 0.929 . S
H718 C712 0.929 . S
H719 C713 0.930 . S
Mn720 O725 2.095 . S
Mn720 O735 2.162 . S
Mn720 O736 2.297 . S
Mn720 O744 2.385 . S
Mn720 O745 2.209 . S
Mn720 O746 2.094 . S
Mn721 O726 2.121 . S
Mn721 N728 2.257 . S
Mn721 N737 2.282 . S
Mn721 O745 2.215 . S
Mn721 O747 2.117 . S
C722 O744 1.234 . S
C722 O745 1.283 . S
C723 O735 1.281 . S
C723 O736 1.236 . S
C724 O746 1.240 . S
C724 O747 1.264 . S
O725 Mn720 2.095 . S
O725 C734 1.250 . S
O726 Mn721 2.121 . S
O726 C734 1.258 . S
C727 N728 1.326 . S
C727 C731 1.460 . S
C727 H733 0.929 . S
N728 Mn721 2.257 . S
N728 C727 1.326 . S
N728 C732 1.362 . S
C729 C730 1.258 . S
C729 C732 1.431 . S
C729 C749 1.449 . S
C730 C729 1.258 . S
C730 C731 1.477 . S
C730 H750 0.931 . S
C731 C727 1.460 . S
C731 C730 1.477 . S
C731 H751 0.930 . S
C732 N728 1.362 . S
C732 C729 1.431 . S
C732 C742 1.476 . S
H733 C727 0.929 . S
C734 O725 1.250 . S
C734 O726 1.258 . S
O735 Mn720 2.162 . S
O735 C723 1.281 . S
O736 Mn720 2.297 . S
O736 C723 1.236 . S
N737 Mn721 2.282 . S
N737 C738 1.328 . S
N737 C742 1.318 . S
C738 N737 1.328 . S
C738 C739 1.457 . S
C738 H743 0.929 . S
C739 C738 1.457 . S
C739 C740 1.291 . S
C739 H752 0.931 . S
C740 C739 1.291 . S
C740 C741 1.373 . S
C740 H753 0.929 . S
C741 C740 1.373 . S
C741 C742 1.396 . S
C741 C748 1.403 . S
C742 C732 1.476 . S
C742 N737 1.318 . S
C742 C741 1.396 . S
H743 C738 0.929 . S
O744 Mn720 2.385 . S
O744 C722 1.234 . S
O745 Mn720 2.209 . S
O745 Mn721 2.215 . S
O745 C722 1.283 . S
O746 Mn720 2.094 . S
O746 C724 1.240 . S
O747 Mn721 2.117 . S
O747 C724 1.264 . S
C748 C741 1.403 . S
C748 C749 1.399 . S
C748 H754 0.929 . S
C749 C729 1.449 . S
C749 C748 1.399 . S
C749 H755 0.930 . S
H750 C730 0.931 . S
H751 C731 0.930 . S
H752 C739 0.931 . S
H753 C740 0.929 . S
H754 C748 0.929 . S
H755 C749 0.930 . S
Mn756 O761 2.095 . S
Mn756 O771 2.162 . S
Mn756 O772 2.297 . S
Mn756 O780 2.385 . S
Mn756 O781 2.209 . S
Mn756 O782 2.094 . S
Mn757 O762 2.121 . S
Mn757 N764 2.257 . S
Mn757 N773 2.282 . S
Mn757 O781 2.215 . S
Mn757 O783 2.117 . S
C758 O780 1.234 . S
C758 O781 1.283 . S
C759 O771 1.281 . S
C759 O772 1.236 . S
C760 O782 1.240 . S
C760 O783 1.264 . S
O761 Mn756 2.095 . S
O761 C770 1.250 . S
O762 Mn757 2.121 . S
O762 C770 1.258 . S
C763 N764 1.326 . S
C763 C767 1.460 . S
C763 H769 0.929 . S
N764 Mn757 2.257 . S
N764 C763 1.326 . S
N764 C768 1.362 . S
C765 C766 1.258 . S
C765 C768 1.431 . S
C765 C785 1.449 . S
C766 C765 1.258 . S
C766 C767 1.477 . S
C766 H786 0.931 . S
C767 C763 1.460 . S
C767 C766 1.477 . S
C767 H787 0.930 . S
C768 N764 1.362 . S
C768 C765 1.431 . S
C768 C778 1.476 . S
H769 C763 0.929 . S
C770 O761 1.250 . S
C770 O762 1.258 . S
O771 Mn756 2.162 . S
O771 C759 1.281 . S
O772 Mn756 2.297 . S
O772 C759 1.236 . S
N773 Mn757 2.282 . S
N773 C774 1.328 . S
N773 C778 1.318 . S
C774 N773 1.328 . S
C774 C775 1.457 . S
C774 H779 0.929 . S
C775 C774 1.457 . S
C775 C776 1.291 . S
C775 H788 0.931 . S
C776 C775 1.291 . S
C776 C777 1.373 . S
C776 H789 0.929 . S
C777 C776 1.373 . S
C777 C778 1.396 . S
C777 C784 1.403 . S
C778 C768 1.476 . S
C778 N773 1.318 . S
C778 C777 1.396 . S
H779 C774 0.929 . S
O780 Mn756 2.385 . S
O780 C758 1.234 . S
O781 Mn756 2.209 . S
O781 Mn757 2.215 . S
O781 C758 1.283 . S
O782 Mn756 2.094 . S
O782 C760 1.240 . S
O783 Mn757 2.117 . S
O783 C760 1.264 . S
C784 C777 1.403 . S
C784 C785 1.399 . S
C784 H790 0.929 . S
C785 C765 1.449 . S
C785 C784 1.399 . S
C785 H791 0.930 . S
H786 C766 0.931 . S
H787 C767 0.930 . S
H788 C775 0.931 . S
H789 C776 0.929 . S
H790 C784 0.929 . S
H791 C785 0.930 . S
Mn792 O797 2.095 . S
Mn792 O807 2.162 . S
Mn792 O808 2.297 . S
Mn792 O816 2.385 . S
Mn792 O817 2.209 . S
Mn792 O818 2.094 . S
Mn793 O798 2.121 . S
Mn793 N800 2.257 . S
Mn793 N809 2.282 . S
Mn793 O817 2.215 . S
Mn793 O819 2.117 . S
C794 O816 1.234 . S
C794 O817 1.283 . S
C795 O807 1.281 . S
C795 O808 1.236 . S
C796 O818 1.240 . S
C796 O819 1.264 . S
O797 Mn792 2.095 . S
O797 C806 1.250 . S
O798 Mn793 2.121 . S
O798 C806 1.258 . S
C799 N800 1.326 . S
C799 C803 1.460 . S
C799 H805 0.929 . S
N800 Mn793 2.257 . S
N800 C799 1.326 . S
N800 C804 1.362 . S
C801 C802 1.258 . S
C801 C804 1.431 . S
C801 C821 1.449 . S
C802 C801 1.258 . S
C802 C803 1.477 . S
C802 H822 0.931 . S
C803 C799 1.460 . S
C803 C802 1.477 . S
C803 H823 0.930 . S
C804 N800 1.362 . S
C804 C801 1.431 . S
C804 C814 1.476 . S
H805 C799 0.929 . S
C806 O797 1.250 . S
C806 O798 1.258 . S
O807 Mn792 2.162 . S
O807 C795 1.281 . S
O808 Mn792 2.297 . S
O808 C795 1.236 . S
N809 Mn793 2.282 . S
N809 C810 1.328 . S
N809 C814 1.318 . S
C810 N809 1.328 . S
C810 C811 1.457 . S
C810 H815 0.929 . S
C811 C810 1.457 . S
C811 C812 1.291 . S
C811 H824 0.931 . S
C812 C811 1.291 . S
C812 C813 1.373 . S
C812 H825 0.929 . S
C813 C812 1.373 . S
C813 C814 1.396 . S
C813 C820 1.403 . S
C814 C804 1.476 . S
C814 N809 1.318 . S
C814 C813 1.396 . S
H815 C810 0.929 . S
O816 Mn792 2.385 . S
O816 C794 1.234 . S
O817 Mn792 2.209 . S
O817 Mn793 2.215 . S
O817 C794 1.283 . S
O818 Mn792 2.094 . S
O818 C796 1.240 . S
O819 Mn793 2.117 . S
O819 C796 1.264 . S
C820 C813 1.403 . S
C820 C821 1.399 . S
C820 H826 0.929 . S
C821 C801 1.449 . S
C821 C820 1.399 . S
C821 H827 0.930 . S
H822 C802 0.931 . S
H823 C803 0.930 . S
H824 C811 0.931 . S
H825 C812 0.929 . S
H826 C820 0.929 . S
H827 C821 0.930 . S
Mn828 O833 2.095 . S
Mn828 O843 2.162 . S
Mn828 O844 2.297 . S
Mn828 O852 2.385 . S
Mn828 O853 2.209 . S
Mn828 O854 2.094 . S
Mn829 O834 2.121 . S
Mn829 N836 2.257 . S
Mn829 N845 2.282 . S
Mn829 O853 2.215 . S
Mn829 O855 2.117 . S
C830 O852 1.234 . S
C830 O853 1.283 . S
C831 O843 1.281 . S
C831 O844 1.236 . S
C832 O854 1.240 . S
C832 O855 1.264 . S
O833 Mn828 2.095 . S
O833 C842 1.250 . S
O834 Mn829 2.121 . S
O834 C842 1.258 . S
C835 N836 1.326 . S
C835 C839 1.460 . S
C835 H841 0.929 . S
N836 Mn829 2.257 . S
N836 C835 1.326 . S
N836 C840 1.362 . S
C837 C838 1.258 . S
C837 C840 1.431 . S
C837 C857 1.449 . S
C838 C837 1.258 . S
C838 C839 1.477 . S
C838 H858 0.931 . S
C839 C835 1.460 . S
C839 C838 1.477 . S
C839 H859 0.930 . S
C840 N836 1.362 . S
C840 C837 1.431 . S
C840 C850 1.476 . S
H841 C835 0.929 . S
C842 O833 1.250 . S
C842 O834 1.258 . S
O843 Mn828 2.162 . S
O843 C831 1.281 . S
O844 Mn828 2.297 . S
O844 C831 1.236 . S
N845 Mn829 2.282 . S
N845 C846 1.328 . S
N845 C850 1.318 . S
C846 N845 1.328 . S
C846 C847 1.457 . S
C846 H851 0.929 . S
C847 C846 1.457 . S
C847 C848 1.291 . S
C847 H860 0.931 . S
C848 C847 1.291 . S
C848 C849 1.373 . S
C848 H861 0.929 . S
C849 C848 1.373 . S
C849 C850 1.396 . S
C849 C856 1.403 . S
C850 C840 1.476 . S
C850 N845 1.318 . S
C850 C849 1.396 . S
H851 C846 0.929 . S
O852 Mn828 2.385 . S
O852 C830 1.234 . S
O853 Mn828 2.209 . S
O853 Mn829 2.215 . S
O853 C830 1.283 . S
O854 Mn828 2.094 . S
O854 C832 1.240 . S
O855 Mn829 2.117 . S
O855 C832 1.264 . S
C856 C849 1.403 . S
C856 C857 1.399 . S
C856 H862 0.929 . S
C857 C837 1.449 . S
C857 C856 1.399 . S
C857 H863 0.930 . S
H858 C838 0.931 . S
H859 C839 0.930 . S
H860 C847 0.931 . S
H861 C848 0.929 . S
H862 C856 0.929 . S
H863 C857 0.930 . S
C864 C865 1.369 . S
C864 C866 1.419 1_545 S
C864 H868 0.930 . S
C865 C864 1.369 . S
C865 C874 1.429 . S
C866 C864 1.419 1_565 S
C866 C867 1.363 . S
C866 H869 0.929 . S
C867 C866 1.363 . S
C867 C873 1.428 . S
H868 C864 0.930 . S
H869 C866 0.929 . S
S870 N871 1.613 1_565 S
S870 N872 1.610 . S
N871 S870 1.613 1_545 S
N871 C874 1.350 . S
N872 S870 1.610 . S
N872 C873 1.351 . S
C873 C867 1.428 . S
C873 N872 1.351 . S
C873 C874 1.434 1_565 S
C874 C865 1.429 . S
C874 N871 1.350 . S
C874 C873 1.434 1_545 S
C875 C876 1.369 . S
C875 C877 1.419 . S
C875 H879 0.930 . S
C876 C875 1.369 . S
C876 C885 1.429 . S
C877 C875 1.419 . S
C877 C878 1.363 . S
C877 H880 0.929 . S
C878 C877 1.363 . S
C878 C884 1.428 . S
H879 C875 0.930 . S
H880 C877 0.929 . S
S881 N882 1.613 . S
S881 N883 1.610 . S
N882 S881 1.613 . S
N882 C885 1.350 . S
N883 S881 1.610 . S
N883 C884 1.351 . S
C884 C878 1.428 . S
C884 N883 1.351 . S
C884 C885 1.434 . S
C885 C876 1.429 . S
C885 N882 1.350 . S
C885 C884 1.434 . S
C886 C887 1.369 . S
C886 C888 1.419 1_655 S
C886 H890 0.930 . S
C887 C886 1.369 . S
C887 C896 1.429 . S
C888 C886 1.419 1_455 S
C888 C889 1.363 . S
C888 H891 0.929 . S
C889 C888 1.363 . S
C889 C895 1.428 . S
H890 C886 0.930 . S
H891 C888 0.929 . S
S892 N893 1.613 1_455 S
S892 N894 1.610 . S
N893 S892 1.613 1_655 S
N893 C896 1.350 . S
N894 S892 1.610 . S
N894 C895 1.351 . S
C895 C889 1.428 . S
C895 N894 1.351 . S
C895 C896 1.434 1_455 S
C896 C887 1.429 . S
C896 N893 1.350 . S
C896 C895 1.434 1_655 S
C897 C898 1.369 . S
C897 C899 1.419 1_565 S
C897 H901 0.930 . S
C898 C897 1.369 . S
C898 C907 1.429 . S
C899 C897 1.419 1_545 S
C899 C900 1.363 . S
C899 H902 0.929 . S
C900 C899 1.363 . S
C900 C906 1.428 . S
H901 C897 0.930 . S
H902 C899 0.929 . S
S903 N904 1.613 1_545 S
S903 N905 1.610 . S
N904 S903 1.613 1_565 S
N904 C907 1.350 . S
N905 S903 1.610 . S
N905 C906 1.351 . S
C906 C900 1.428 . S
C906 N905 1.351 . S
C906 C907 1.434 1_545 S
C907 C898 1.429 . S
C907 N904 1.350 . S
C907 C906 1.434 1_565 S
C908 C909 1.369 . S
C908 C910 1.419 . S
C908 H912 0.930 . S
C909 C908 1.369 . S
C909 C918 1.429 . S
C910 C908 1.419 . S
C910 C911 1.363 . S
C910 H913 0.929 . S
C911 C910 1.363 . S
C911 C917 1.428 . S
H912 C908 0.930 . S
H913 C910 0.929 . S
S914 N915 1.613 . S
S914 N916 1.610 . S
N915 S914 1.613 . S
N915 C918 1.350 . S
N916 S914 1.610 . S
N916 C917 1.351 . S
C917 C911 1.428 . S
C917 N916 1.351 . S
C917 C918 1.434 . S
C918 C909 1.429 . S
C918 N915 1.350 . S
C918 C917 1.434 . S
C919 C920 1.369 . S
C919 C921 1.419 1_455 S
C919 H923 0.930 . S
C920 C919 1.369 . S
C920 C929 1.429 . S
C921 C919 1.419 1_655 S
C921 C922 1.363 . S
C921 H924 0.929 . S
C922 C921 1.363 . S
C922 C928 1.428 . S
H923 C919 0.930 . S
H924 C921 0.929 . S
S925 N926 1.613 1_655 S
S925 N927 1.610 . S
N926 S925 1.613 1_455 S
N926 C929 1.350 . S
N927 S925 1.610 . S
N927 C928 1.351 . S
C928 C922 1.428 . S
C928 N927 1.351 . S
C928 C929 1.434 1_655 S
C929 C920 1.429 . S
C929 N926 1.350 . S
C929 C928 1.434 1_455 S
C930 C931 1.369 . S
C930 C932 1.419 1_565 S
C930 H934 0.930 . S
C931 C930 1.369 . S
C931 C940 1.429 . S
C932 C930 1.419 1_545 S
C932 C933 1.363 . S
C932 H935 0.929 . S
C933 C932 1.363 . S
C933 C939 1.428 . S
H934 C930 0.930 . S
H935 C932 0.929 . S
S936 N937 1.613 1_545 S
S936 N938 1.610 . S
N937 S936 1.613 1_565 S
N937 C940 1.350 . S
N938 S936 1.610 . S
N938 C939 1.351 . S
C939 C933 1.428 . S
C939 N938 1.351 . S
C939 C940 1.434 1_545 S
C940 C931 1.429 . S
C940 N937 1.350 . S
C940 C939 1.434 1_565 S
C941 C942 1.369 . S
C941 C943 1.419 . S
C941 H945 0.930 . S
C942 C941 1.369 . S
C942 C951 1.429 . S
C943 C941 1.419 . S
C943 C944 1.363 . S
C943 H946 0.929 . S
C944 C943 1.363 . S
C944 C950 1.428 . S
H945 C941 0.930 . S
H946 C943 0.929 . S
S947 N948 1.613 . S
S947 N949 1.610 . S
N948 S947 1.613 . S
N948 C951 1.350 . S
N949 S947 1.610 . S
N949 C950 1.351 . S
C950 C944 1.428 . S
C950 N949 1.351 . S
C950 C951 1.434 . S
C951 C942 1.429 . S
C951 N948 1.350 . S
C951 C950 1.434 . S
C952 C953 1.369 . S
C952 C954 1.419 1_655 S
C952 H956 0.930 . S
C953 C952 1.369 . S
C953 C962 1.429 . S
C954 C952 1.419 1_455 S
C954 C955 1.363 . S
C954 H957 0.929 . S
C955 C954 1.363 . S
C955 C961 1.428 . S
H956 C952 0.930 . S
H957 C954 0.929 . S
S958 N959 1.613 . S
S958 N960 1.610 1_655 S
N959 S958 1.613 . S
N959 C962 1.350 . S
N960 S958 1.610 1_455 S
N960 C961 1.351 . S
C961 C955 1.428 . S
C961 N960 1.351 . S
C961 C962 1.434 1_455 S
C962 C953 1.429 . S
C962 N959 1.350 . S
C962 C961 1.434 1_655 S
C963 C964 1.369 . S
C963 C965 1.419 1_545 S
C963 H967 0.930 . S
C964 C963 1.369 . S
C964 C973 1.429 . S
C965 C963 1.419 1_565 S
C965 C966 1.363 . S
C965 H968 0.929 . S
C966 C965 1.363 . S
C966 C972 1.428 . S
H967 C963 0.930 . S
H968 C965 0.929 . S
S969 N970 1.613 . S
S969 N971 1.610 1_545 S
N970 S969 1.613 . S
N970 C973 1.350 . S
N971 S969 1.610 1_565 S
N971 C972 1.351 . S
C972 C966 1.428 . S
C972 N971 1.351 . S
C972 C973 1.434 1_565 S
C973 C964 1.429 . S
C973 N970 1.350 . S
C973 C972 1.434 1_545 S
C974 C975 1.369 . S
C974 C976 1.419 . S
C974 H978 0.930 . S
C975 C974 1.369 . S
C975 C984 1.429 . S
C976 C974 1.419 . S
C976 C977 1.363 . S
C976 H979 0.929 . S
C977 C976 1.363 . S
C977 C983 1.428 . S
H978 C974 0.930 . S
H979 C976 0.929 . S
S980 N981 1.613 . S
S980 N982 1.610 . S
N981 S980 1.613 . S
N981 C984 1.350 . S
N982 S980 1.610 . S
N982 C983 1.351 . S
C983 C977 1.428 . S
C983 N982 1.351 . S
C983 C984 1.434 . S
C984 C975 1.429 . S
C984 N981 1.350 . S
C984 C983 1.434 . S
C985 C986 1.369 . S
C985 C987 1.419 1_455 S
C985 H989 0.930 . S
C986 C985 1.369 . S
C986 C995 1.429 . S
C987 C985 1.419 1_655 S
C987 C988 1.363 . S
C987 H990 0.929 . S
C988 C987 1.363 . S
C988 C994 1.428 . S
H989 C985 0.930 . S
H990 C987 0.929 . S
S991 N992 1.613 1_655 S
S991 N993 1.610 . S
N992 S991 1.613 1_455 S
N992 C995 1.350 . S
N993 S991 1.610 . S
N993 C994 1.351 . S
C994 C988 1.428 . S
C994 N993 1.351 . S
C994 C995 1.434 1_655 S
C995 C986 1.429 . S
C995 N992 1.350 . S
C995 C994 1.434 1_455 S
C996 C997 1.369 . S
C996 C998 1.419 . S
C996 H1000 0.930 . S
C997 C996 1.369 . S
C997 C1006 1.429 . S
C998 C996 1.419 . S
C998 C999 1.363 . S
C998 H1001 0.929 . S
C999 C998 1.363 . S
C999 C1005 1.428 . S
H1000 C996 0.930 . S
H1001 C998 0.929 . S
S1002 N1003 1.613 . S
S1002 N1004 1.610 . S
N1003 S1002 1.613 . S
N1003 C1006 1.350 . S
N1004 S1002 1.610 . S
N1004 C1005 1.351 . S
C1005 C999 1.428 . S
C1005 N1004 1.351 . S
C1005 C1006 1.434 . S
C1006 C997 1.429 . S
C1006 N1003 1.350 . S
C1006 C1005 1.434 . S
C1007 C1008 1.369 . S
C1007 C1009 1.419 . S
C1007 H1011 0.930 . S
C1008 C1007 1.369 . S
C1008 C1017 1.429 . S
C1009 C1007 1.419 . S
C1009 C1010 1.363 . S
C1009 H1012 0.929 . S
C1010 C1009 1.363 . S
C1010 C1016 1.428 . S
H1011 C1007 0.930 . S
H1012 C1009 0.929 . S
S1013 N1014 1.613 . S
S1013 N1015 1.610 . S
N1014 S1013 1.613 . S
N1014 C1017 1.350 . S
N1015 S1013 1.610 . S
N1015 C1016 1.351 . S
C1016 C1010 1.428 . S
C1016 N1015 1.351 . S
C1016 C1017 1.434 . S
C1017 C1008 1.429 . S
C1017 N1014 1.350 . S
C1017 C1016 1.434 . S
C1018 C1019 1.369 . S
C1018 C1020 1.419 . S
C1018 H1022 0.930 . S
C1019 C1018 1.369 . S
C1019 C1028 1.429 . S
C1020 C1018 1.419 . S
C1020 C1021 1.363 . S
C1020 H1023 0.929 . S
C1021 C1020 1.363 . S
C1021 C1027 1.428 . S
H1022 C1018 0.930 . S
H1023 C1020 0.929 . S
S1024 N1025 1.613 . S
S1024 N1026 1.610 . S
N1025 S1024 1.613 . S
N1025 C1028 1.350 . S
N1026 S1024 1.610 . S
N1026 C1027 1.351 . S
C1027 C1021 1.428 . S
C1027 N1026 1.351 . S
C1027 C1028 1.434 . S
C1028 C1019 1.429 . S
C1028 N1025 1.350 . S
C1028 C1027 1.434 . S
C1029 C1030 1.369 . S
C1029 C1031 1.419 . S
C1029 H1033 0.930 . S
C1030 C1029 1.369 . S
C1030 C1039 1.429 . S
C1031 C1029 1.419 . S
C1031 C1032 1.363 . S
C1031 H1034 0.929 . S
C1032 C1031 1.363 . S
C1032 C1038 1.428 . S
H1033 C1029 0.930 . S
H1034 C1031 0.929 . S
S1035 N1036 1.613 . S
S1035 N1037 1.610 . S
N1036 S1035 1.613 . S
N1036 C1039 1.350 . S
N1037 S1035 1.610 . S
N1037 C1038 1.351 . S
C1038 C1032 1.428 . S
C1038 N1037 1.351 . S
C1038 C1039 1.434 . S
C1039 C1030 1.429 . S
C1039 N1036 1.350 . S
C1039 C1038 1.434 . S
C1040 C1041 1.369 . S
C1040 C1042 1.419 . S
C1040 H1044 0.930 . S
C1041 C1040 1.369 . S
C1041 C1050 1.429 . S
C1042 C1040 1.419 . S
C1042 C1043 1.363 . S
C1042 H1045 0.929 . S
C1043 C1042 1.363 . S
C1043 C1049 1.428 . S
H1044 C1040 0.930 . S
H1045 C1042 0.929 . S
S1046 N1047 1.613 . S
S1046 N1048 1.610 . S
N1047 S1046 1.613 . S
N1047 C1050 1.350 . S
N1048 S1046 1.610 . S
N1048 C1049 1.351 . S
C1049 C1043 1.428 . S
C1049 N1048 1.351 . S
C1049 C1050 1.434 . S
C1050 C1041 1.429 . S
C1050 N1047 1.350 . S
C1050 C1049 1.434 . S
C1051 C1052 1.369 . S
C1051 C1053 1.419 . S
C1051 H1055 0.930 . S
C1052 C1051 1.369 . S
C1052 C1061 1.429 . S
C1053 C1051 1.419 . S
C1053 C1054 1.363 . S
C1053 H1056 0.929 . S
C1054 C1053 1.363 . S
C1054 C1060 1.428 . S
H1055 C1051 0.930 . S
H1056 C1053 0.929 . S
S1057 N1058 1.613 . S
S1057 N1059 1.610 . S
N1058 S1057 1.613 . S
N1058 C1061 1.350 . S
N1059 S1057 1.610 . S
N1059 C1060 1.351 . S
C1060 C1054 1.428 . S
C1060 N1059 1.351 . S
C1060 C1061 1.434 . S
C1061 C1052 1.429 . S
C1061 N1058 1.350 . S
C1061 C1060 1.434 . S
C1062 C1063 1.369 . S
C1062 C1064 1.419 . S
C1062 H1066 0.930 . S
C1063 C1062 1.369 . S
C1063 C1072 1.429 . S
C1064 C1062 1.419 . S
C1064 C1065 1.363 . S
C1064 H1067 0.929 . S
C1065 C1064 1.363 . S
C1065 C1071 1.428 . S
H1066 C1062 0.930 . S
H1067 C1064 0.929 . S
S1068 N1069 1.613 . S
S1068 N1070 1.610 . S
N1069 S1068 1.613 . S
N1069 C1072 1.350 . S
N1070 S1068 1.610 . S
N1070 C1071 1.351 . S
C1071 C1065 1.428 . S
C1071 N1070 1.351 . S
C1071 C1072 1.434 . S
C1072 C1063 1.429 . S
C1072 N1069 1.350 . S
C1072 C1071 1.434 . S
C1073 C1074 1.369 . S
C1073 C1075 1.419 . S
C1073 H1077 0.930 . S
C1074 C1073 1.369 . S
C1074 C1083 1.429 . S
C1075 C1073 1.419 . S
C1075 C1076 1.363 . S
C1075 H1078 0.929 . S
C1076 C1075 1.363 . S
C1076 C1082 1.428 . S
H1077 C1073 0.930 . S
H1078 C1075 0.929 . S
S1079 N1080 1.613 . S
S1079 N1081 1.610 . S
N1080 S1079 1.613 . S
N1080 C1083 1.350 . S
N1081 S1079 1.610 . S
N1081 C1082 1.351 . S
C1082 C1076 1.428 . S
C1082 N1081 1.351 . S
C1082 C1083 1.434 . S
C1083 C1074 1.429 . S
C1083 N1080 1.350 . S
C1083 C1082 1.434 . S
C1084 C1085 1.369 . S
C1084 C1086 1.419 . S
C1084 H1088 0.930 . S
C1085 C1084 1.369 . S
C1085 C1094 1.429 . S
C1086 C1084 1.419 . S
C1086 C1087 1.363 . S
C1086 H1089 0.929 . S
C1087 C1086 1.363 . S
C1087 C1093 1.428 . S
H1088 C1084 0.930 . S
H1089 C1086 0.929 . S
S1090 N1091 1.613 . S
S1090 N1092 1.610 . S
N1091 S1090 1.613 . S
N1091 C1094 1.350 . S
N1092 S1090 1.610 . S
N1092 C1093 1.351 . S
C1093 C1087 1.428 . S
C1093 N1092 1.351 . S
C1093 C1094 1.434 . S
C1094 C1085 1.429 . S
C1094 N1091 1.350 . S
C1094 C1093 1.434 . S
C1095 C1096 1.369 . S
C1095 C1097 1.419 . S
C1095 H1099 0.930 . S
C1096 C1095 1.369 . S
C1096 C1105 1.429 . S
C1097 C1095 1.419 . S
C1097 C1098 1.363 . S
C1097 H1100 0.929 . S
C1098 C1097 1.363 . S
C1098 C1104 1.428 . S
H1099 C1095 0.930 . S
H1100 C1097 0.929 . S
S1101 N1102 1.613 . S
S1101 N1103 1.610 . S
N1102 S1101 1.613 . S
N1102 C1105 1.350 . S
N1103 S1101 1.610 . S
N1103 C1104 1.351 . S
C1104 C1098 1.428 . S
C1104 N1103 1.351 . S
C1104 C1105 1.434 . S
C1105 C1096 1.429 . S
C1105 N1102 1.350 . S
C1105 C1104 1.434 . S
C1106 C1107 1.369 . S
C1106 C1108 1.419 . S
C1106 H1110 0.930 . S
C1107 C1106 1.369 . S
C1107 C1116 1.429 . S
C1108 C1106 1.419 . S
C1108 C1109 1.363 . S
C1108 H1111 0.929 . S
C1109 C1108 1.363 . S
C1109 C1115 1.428 . S
H1110 C1106 0.930 . S
H1111 C1108 0.929 . S
S1112 N1113 1.613 . S
S1112 N1114 1.610 . S
N1113 S1112 1.613 . S
N1113 C1116 1.350 . S
N1114 S1112 1.610 . S
N1114 C1115 1.351 . S
C1115 C1109 1.428 . S
C1115 N1114 1.351 . S
C1115 C1116 1.434 . S
C1116 C1107 1.429 . S
C1116 N1113 1.350 . S
C1116 C1115 1.434 . S
C1117 C1118 1.369 . S
C1117 C1119 1.419 . S
C1117 H1121 0.930 . S
C1118 C1117 1.369 . S
C1118 C1127 1.429 . S
C1119 C1117 1.419 . S
C1119 C1120 1.363 . S
C1119 H1122 0.929 . S
C1120 C1119 1.363 . S
C1120 C1126 1.428 . S
H1121 C1117 0.930 . S
H1122 C1119 0.929 . S
S1123 N1124 1.613 . S
S1123 N1125 1.610 . S
N1124 S1123 1.613 . S
N1124 C1127 1.350 . S
N1125 S1123 1.610 . S
N1125 C1126 1.351 . S
C1126 C1120 1.428 . S
C1126 N1125 1.351 . S
C1126 C1127 1.434 . S
C1127 C1118 1.429 . S
C1127 N1124 1.350 . S
C1127 C1126 1.434 . S
C1128 C1129 1.369 . S
C1128 C1130 1.419 1_554 S
C1128 H1132 0.930 . S
C1129 C1128 1.369 . S
C1129 C1138 1.429 . S
C1130 C1128 1.419 1_556 S
C1130 C1131 1.363 . S
C1130 H1133 0.929 . S
C1131 C1130 1.363 . S
C1131 C1137 1.428 . S
H1132 C1128 0.930 . S
H1133 C1130 0.929 . S
S1134 N1135 1.615 1_556 S
S1134 N1136 1.609 . S
N1135 S1134 1.615 1_554 S
N1135 C1138 1.350 . S
N1136 S1134 1.609 . S
N1136 C1137 1.351 . S
C1137 C1131 1.428 . S
C1137 N1136 1.351 . S
C1137 C1138 1.434 1_556 S
C1138 C1129 1.429 . S
C1138 N1135 1.350 . S
C1138 C1137 1.434 1_554 S
C1139 C1140 1.369 . S
C1139 C1141 1.419 1_556 S
C1139 H1143 0.930 . S
C1140 C1139 1.369 . S
C1140 C1149 1.429 . S
C1141 C1139 1.419 1_554 S
C1141 C1142 1.363 . S
C1141 H1144 0.929 . S
C1142 C1141 1.363 . S
C1142 C1148 1.428 . S
H1143 C1139 0.930 . S
H1144 C1141 0.929 . S
S1145 N1146 1.615 1_554 S
S1145 N1147 1.609 . S
N1146 S1145 1.615 1_556 S
N1146 C1149 1.350 . S
N1147 S1145 1.609 . S
N1147 C1148 1.351 . S
C1148 C1142 1.428 . S
C1148 N1147 1.351 . S
C1148 C1149 1.434 1_554 S
C1149 C1140 1.429 . S
C1149 N1146 1.350 . S
C1149 C1148 1.434 1_556 S
C1150 C1151 1.369 . S
C1150 C1152 1.419 1_556 S
C1150 H1154 0.930 . S
C1151 C1150 1.369 . S
C1151 C1160 1.429 . S
C1152 C1150 1.419 1_554 S
C1152 C1153 1.363 . S
C1152 H1155 0.929 . S
C1153 C1152 1.363 . S
C1153 C1159 1.428 . S
H1154 C1150 0.930 . S
H1155 C1152 0.929 . S
S1156 N1157 1.615 1_554 S
S1156 N1158 1.609 . S
N1157 S1156 1.615 1_556 S
N1157 C1160 1.350 . S
N1158 S1156 1.609 . S
N1158 C1159 1.351 . S
C1159 C1153 1.428 . S
C1159 N1158 1.351 . S
C1159 C1160 1.434 1_554 S
C1160 C1151 1.429 . S
C1160 N1157 1.350 . S
C1160 C1159 1.434 1_556 S
C1161 C1162 1.369 . S
C1161 C1163 1.419 1_554 S
C1161 H1165 0.930 . S
C1162 C1161 1.369 . S
C1162 C1171 1.429 . S
C1163 C1161 1.419 1_556 S
C1163 C1164 1.363 . S
C1163 H1166 0.929 . S
C1164 C1163 1.363 . S
C1164 C1170 1.428 . S
H1165 C1161 0.930 . S
H1166 C1163 0.929 . S
S1167 N1168 1.615 1_556 S
S1167 N1169 1.609 . S
N1168 S1167 1.615 1_554 S
N1168 C1171 1.350 . S
N1169 S1167 1.609 . S
N1169 C1170 1.351 . S
C1170 C1164 1.428 . S
C1170 N1169 1.351 . S
C1170 C1171 1.434 1_556 S
C1171 C1162 1.429 . S
C1171 N1168 1.350 . S
C1171 C1170 1.434 1_554 S
C1172 C1173 1.369 . S
C1172 C1174 1.419 1_554 S
C1172 H1176 0.930 . S
C1173 C1172 1.369 . S
C1173 C1182 1.429 . S
C1174 C1172 1.419 1_556 S
C1174 C1175 1.363 . S
C1174 H1177 0.929 . S
C1175 C1174 1.363 . S
C1175 C1181 1.428 . S
H1176 C1172 0.930 . S
H1177 C1174 0.929 . S
S1178 N1179 1.615 1_556 S
S1178 N1180 1.609 . S
N1179 S1178 1.615 1_554 S
N1179 C1182 1.350 . S
N1180 S1178 1.609 . S
N1180 C1181 1.351 . S
C1181 C1175 1.428 . S
C1181 N1180 1.351 . S
C1181 C1182 1.434 1_556 S
C1182 C1173 1.429 . S
C1182 N1179 1.350 . S
C1182 C1181 1.434 1_554 S
C1183 C1184 1.369 . S
C1183 C1185 1.419 1_556 S
C1183 H1187 0.930 . S
C1184 C1183 1.369 . S
C1184 C1193 1.429 . S
C1185 C1183 1.419 1_554 S
C1185 C1186 1.363 . S
C1185 H1188 0.929 . S
C1186 C1185 1.363 . S
C1186 C1192 1.428 . S
H1187 C1183 0.930 . S
H1188 C1185 0.929 . S
S1189 N1190 1.615 1_554 S
S1189 N1191 1.609 . S
N1190 S1189 1.615 1_556 S
N1190 C1193 1.350 . S
N1191 S1189 1.609 . S
N1191 C1192 1.351 . S
C1192 C1186 1.428 . S
C1192 N1191 1.351 . S
C1192 C1193 1.434 1_554 S
C1193 C1184 1.429 . S
C1193 N1190 1.350 . S
C1193 C1192 1.434 1_556 S
C1194 C1195 1.369 . S
C1194 C1196 1.419 . S
C1194 H1198 0.930 . S
C1195 C1194 1.369 . S
C1195 C1204 1.429 . S
C1196 C1194 1.419 . S
C1196 C1197 1.363 . S
C1196 H1199 0.929 . S
C1197 C1196 1.363 . S
C1197 C1203 1.428 . S
H1198 C1194 0.930 . S
H1199 C1196 0.929 . S
S1200 N1201 1.613 . S
S1200 N1202 1.610 . S
N1201 S1200 1.613 . S
N1201 C1204 1.350 . S
N1202 S1200 1.610 . S
N1202 C1203 1.351 . S
C1203 C1197 1.428 . S
C1203 N1202 1.351 . S
C1203 C1204 1.434 . S
C1204 C1195 1.429 . S
C1204 N1201 1.350 . S
C1204 C1203 1.434 . S
C1205 C1206 1.369 . S
C1205 C1207 1.419 . S
C1205 H1209 0.930 . S
C1206 C1205 1.369 . S
C1206 C1215 1.429 . S
C1207 C1205 1.419 . S
C1207 C1208 1.363 . S
C1207 H1210 0.929 . S
C1208 C1207 1.363 . S
C1208 C1214 1.428 . S
H1209 C1205 0.930 . S
H1210 C1207 0.929 . S
S1211 N1212 1.613 . S
S1211 N1213 1.610 . S
N1212 S1211 1.613 . S
N1212 C1215 1.350 . S
N1213 S1211 1.610 . S
N1213 C1214 1.351 . S
C1214 C1208 1.428 . S
C1214 N1213 1.351 . S
C1214 C1215 1.434 . S
C1215 C1206 1.429 . S
C1215 N1212 1.350 . S
C1215 C1214 1.434 . S
C1216 C1217 1.369 . S
C1216 C1218 1.419 . S
C1216 H1220 0.930 . S
C1217 C1216 1.369 . S
C1217 C1226 1.429 . S
C1218 C1216 1.419 . S
C1218 C1219 1.363 . S
C1218 H1221 0.929 . S
C1219 C1218 1.363 . S
C1219 C1225 1.428 . S
H1220 C1216 0.930 . S
H1221 C1218 0.929 . S
S1222 N1223 1.613 . S
S1222 N1224 1.610 . S
N1223 S1222 1.613 . S
N1223 C1226 1.350 . S
N1224 S1222 1.610 . S
N1224 C1225 1.351 . S
C1225 C1219 1.428 . S
C1225 N1224 1.351 . S
C1225 C1226 1.434 . S
C1226 C1217 1.429 . S
C1226 N1223 1.350 . S
C1226 C1225 1.434 . S
C1227 C1228 1.369 . S
C1227 C1229 1.419 . S
C1227 H1231 0.930 . S
C1228 C1227 1.369 . S
C1228 C1237 1.429 . S
C1229 C1227 1.419 . S
C1229 C1230 1.363 . S
C1229 H1232 0.929 . S
C1230 C1229 1.363 . S
C1230 C1236 1.428 . S
H1231 C1227 0.930 . S
H1232 C1229 0.929 . S
S1233 N1234 1.613 . S
S1233 N1235 1.610 . S
N1234 S1233 1.613 . S
N1234 C1237 1.350 . S
N1235 S1233 1.610 . S
N1235 C1236 1.351 . S
C1236 C1230 1.428 . S
C1236 N1235 1.351 . S
C1236 C1237 1.434 . S
C1237 C1228 1.429 . S
C1237 N1234 1.350 . S
C1237 C1236 1.434 . S
C1238 C1239 1.369 . S
C1238 C1240 1.419 . S
C1238 H1242 0.930 . S
C1239 C1238 1.369 . S
C1239 C1248 1.429 . S
C1240 C1238 1.419 . S
C1240 C1241 1.363 . S
C1240 H1243 0.929 . S
C1241 C1240 1.363 . S
C1241 C1247 1.428 . S
H1242 C1238 0.930 . S
H1243 C1240 0.929 . S
S1244 N1245 1.613 . S
S1244 N1246 1.610 . S
N1245 S1244 1.613 . S
N1245 C1248 1.350 . S
N1246 S1244 1.610 . S
N1246 C1247 1.351 . S
C1247 C1241 1.428 . S
C1247 N1246 1.351 . S
C1247 C1248 1.434 . S
C1248 C1239 1.429 . S
C1248 N1245 1.350 . S
C1248 C1247 1.434 . S
C1249 C1250 1.369 . S
C1249 C1251 1.419 . S
C1249 H1253 0.930 . S
C1250 C1249 1.369 . S
C1250 C1259 1.429 . S
C1251 C1249 1.419 . S
C1251 C1252 1.363 . S
C1251 H1254 0.929 . S
C1252 C1251 1.363 . S
C1252 C1258 1.428 . S
H1253 C1249 0.930 . S
H1254 C1251 0.929 . S
S1255 N1256 1.613 . S
S1255 N1257 1.610 . S
N1256 S1255 1.613 . S
N1256 C1259 1.350 . S
N1257 S1255 1.610 . S
N1257 C1258 1.351 . S
C1258 C1252 1.428 . S
C1258 N1257 1.351 . S
C1258 C1259 1.434 . S
C1259 C1250 1.429 . S
C1259 N1256 1.350 . S
C1259 C1258 1.434 . S
C1260 C1261 1.369 . S
C1260 C1262 1.419 . S
C1260 H1264 0.930 . S
C1261 C1260 1.369 . S
C1261 C1270 1.429 . S
C1262 C1260 1.419 . S
C1262 C1263 1.363 . S
C1262 H1265 0.929 . S
C1263 C1262 1.363 . S
C1263 C1269 1.428 . S
H1264 C1260 0.930 . S
H1265 C1262 0.929 . S
S1266 N1267 1.613 . S
S1266 N1268 1.610 . S
N1267 S1266 1.613 . S
N1267 C1270 1.350 . S
N1268 S1266 1.610 . S
N1268 C1269 1.351 . S
C1269 C1263 1.428 . S
C1269 N1268 1.351 . S
C1269 C1270 1.434 . S
C1270 C1261 1.429 . S
C1270 N1267 1.350 . S
C1270 C1269 1.434 . S
C1271 C1272 1.369 . S
C1271 C1273 1.419 . S
C1271 H1275 0.930 . S
C1272 C1271 1.369 . S
C1272 C1281 1.429 . S
C1273 C1271 1.419 . S
C1273 C1274 1.363 . S
C1273 H1276 0.929 . S
C1274 C1273 1.363 . S
C1274 C1280 1.428 . S
H1275 C1271 0.930 . S
H1276 C1273 0.929 . S
S1277 N1278 1.613 . S
S1277 N1279 1.610 . S
N1278 S1277 1.613 . S
N1278 C1281 1.350 . S
N1279 S1277 1.610 . S
N1279 C1280 1.351 . S
C1280 C1274 1.428 . S
C1280 N1279 1.351 . S
C1280 C1281 1.434 . S
C1281 C1272 1.429 . S
C1281 N1278 1.350 . S
C1281 C1280 1.434 . S
C1282 C1283 1.369 . S
C1282 C1284 1.419 . S
C1282 H1286 0.930 . S
C1283 C1282 1.369 . S
C1283 C1292 1.429 . S
C1284 C1282 1.419 . S
C1284 C1285 1.363 . S
C1284 H1287 0.929 . S
C1285 C1284 1.363 . S
C1285 C1291 1.428 . S
H1286 C1282 0.930 . S
H1287 C1284 0.929 . S
S1288 N1289 1.613 . S
S1288 N1290 1.610 . S
N1289 S1288 1.613 . S
N1289 C1292 1.350 . S
N1290 S1288 1.610 . S
N1290 C1291 1.351 . S
C1291 C1285 1.428 . S
C1291 N1290 1.351 . S
C1291 C1292 1.434 . S
C1292 C1283 1.429 . S
C1292 N1289 1.350 . S
C1292 C1291 1.434 . S
C1293 C1294 1.369 . S
C1293 C1295 1.419 . S
C1293 H1297 0.930 . S
C1294 C1293 1.369 . S
C1294 C1303 1.429 . S
C1295 C1293 1.419 . S
C1295 C1296 1.363 . S
C1295 H1298 0.929 . S
C1296 C1295 1.363 . S
C1296 C1302 1.428 . S
H1297 C1293 0.930 . S
H1298 C1295 0.929 . S
S1299 N1300 1.613 . S
S1299 N1301 1.610 . S
N1300 S1299 1.613 . S
N1300 C1303 1.350 . S
N1301 S1299 1.610 . S
N1301 C1302 1.351 . S
C1302 C1296 1.428 . S
C1302 N1301 1.351 . S
C1302 C1303 1.434 . S
C1303 C1294 1.429 . S
C1303 N1300 1.350 . S
C1303 C1302 1.434 . S
C1304 C1305 1.369 . S
C1304 C1306 1.419 . S
C1304 H1308 0.930 . S
C1305 C1304 1.369 . S
C1305 C1314 1.429 . S
C1306 C1304 1.419 . S
C1306 C1307 1.363 . S
C1306 H1309 0.929 . S
C1307 C1306 1.363 . S
C1307 C1313 1.428 . S
H1308 C1304 0.930 . S
H1309 C1306 0.929 . S
S1310 N1311 1.613 . S
S1310 N1312 1.610 . S
N1311 S1310 1.613 . S
N1311 C1314 1.350 . S
N1312 S1310 1.610 . S
N1312 C1313 1.351 . S
C1313 C1307 1.428 . S
C1313 N1312 1.351 . S
C1313 C1314 1.434 . S
C1314 C1305 1.429 . S
C1314 N1311 1.350 . S
C1314 C1313 1.434 . S
C1315 C1316 1.369 . S
C1315 C1317 1.419 . S
C1315 H1319 0.930 . S
C1316 C1315 1.369 . S
C1316 C1325 1.429 . S
C1317 C1315 1.419 . S
C1317 C1318 1.363 . S
C1317 H1320 0.929 . S
C1318 C1317 1.363 . S
C1318 C1324 1.428 . S
H1319 C1315 0.930 . S
H1320 C1317 0.929 . S
S1321 N1322 1.613 . S
S1321 N1323 1.610 . S
N1322 S1321 1.613 . S
N1322 C1325 1.350 . S
N1323 S1321 1.610 . S
N1323 C1324 1.351 . S
C1324 C1318 1.428 . S
C1324 N1323 1.351 . S
C1324 C1325 1.434 . S
C1325 C1316 1.429 . S
C1325 N1322 1.350 . S
C1325 C1324 1.434 . S
C1326 C1327 1.369 . S
C1326 C1328 1.419 . S
C1326 H1330 0.930 . S
C1327 C1326 1.369 . S
C1327 C1336 1.429 . S
C1328 C1326 1.419 . S
C1328 C1329 1.363 . S
C1328 H1331 0.929 . S
C1329 C1328 1.363 . S
C1329 C1335 1.428 . S
H1330 C1326 0.930 . S
H1331 C1328 0.929 . S
S1332 N1333 1.613 . S
S1332 N1334 1.610 . S
N1333 S1332 1.613 . S
N1333 C1336 1.350 . S
N1334 S1332 1.610 . S
N1334 C1335 1.351 . S
C1335 C1329 1.428 . S
C1335 N1334 1.351 . S
C1335 C1336 1.434 . S
C1336 C1327 1.429 . S
C1336 N1333 1.350 . S
C1336 C1335 1.434 . S
C1337 C1338 1.369 . S
C1337 C1339 1.419 . S
C1337 H1341 0.930 . S
C1338 C1337 1.369 . S
C1338 C1347 1.429 . S
C1339 C1337 1.419 . S
C1339 C1340 1.363 . S
C1339 H1342 0.929 . S
C1340 C1339 1.363 . S
C1340 C1346 1.428 . S
H1341 C1337 0.930 . S
H1342 C1339 0.929 . S
S1343 N1344 1.613 . S
S1343 N1345 1.610 . S
N1344 S1343 1.613 . S
N1344 C1347 1.350 . S
N1345 S1343 1.610 . S
N1345 C1346 1.351 . S
C1346 C1340 1.428 . S
C1346 N1345 1.351 . S
C1346 C1347 1.434 . S
C1347 C1338 1.429 . S
C1347 N1344 1.350 . S
C1347 C1346 1.434 . S
C1348 C1349 1.369 . S
C1348 C1350 1.419 . S
C1348 H1352 0.930 . S
C1349 C1348 1.369 . S
C1349 C1358 1.429 . S
C1350 C1348 1.419 . S
C1350 C1351 1.363 . S
C1350 H1353 0.929 . S
C1351 C1350 1.363 . S
C1351 C1357 1.428 . S
H1352 C1348 0.930 . S
H1353 C1350 0.929 . S
S1354 N1355 1.613 . S
S1354 N1356 1.610 . S
N1355 S1354 1.613 . S
N1355 C1358 1.350 . S
N1356 S1354 1.610 . S
N1356 C1357 1.351 . S
C1357 C1351 1.428 . S
C1357 N1356 1.351 . S
C1357 C1358 1.434 . S
C1358 C1349 1.429 . S
C1358 N1355 1.350 . S
C1358 C1357 1.434 . S
C1359 C1360 1.369 . S
C1359 C1361 1.419 . S
C1359 H1363 0.930 . S
C1360 C1359 1.369 . S
C1360 C1369 1.429 . S
C1361 C1359 1.419 . S
C1361 C1362 1.363 . S
C1361 H1364 0.929 . S
C1362 C1361 1.363 . S
C1362 C1368 1.428 . S
H1363 C1359 0.930 . S
H1364 C1361 0.929 . S
S1365 N1366 1.613 . S
S1365 N1367 1.610 . S
N1366 S1365 1.613 . S
N1366 C1369 1.350 . S
N1367 S1365 1.610 . S
N1367 C1368 1.351 . S
C1368 C1362 1.428 . S
C1368 N1367 1.351 . S
C1368 C1369 1.434 . S
C1369 C1360 1.429 . S
C1369 N1366 1.350 . S
C1369 C1368 1.434 . S
C1370 C1371 1.369 . S
C1370 C1372 1.419 . S
C1370 H1374 0.930 . S
C1371 C1370 1.369 . S
C1371 C1380 1.429 . S
C1372 C1370 1.419 . S
C1372 C1373 1.363 . S
C1372 H1375 0.929 . S
C1373 C1372 1.363 . S
C1373 C1379 1.428 . S
H1374 C1370 0.930 . S
H1375 C1372 0.929 . S
S1376 N1377 1.613 . S
S1376 N1378 1.610 . S
N1377 S1376 1.613 . S
N1377 C1380 1.350 . S
N1378 S1376 1.610 . S
N1378 C1379 1.351 . S
C1379 C1373 1.428 . S
C1379 N1378 1.351 . S
C1379 C1380 1.434 . S
C1380 C1371 1.429 . S
C1380 N1377 1.350 . S
C1380 C1379 1.434 . S
C1381 C1382 1.369 . S
C1381 C1383 1.419 . S
C1381 H1385 0.930 . S
C1382 C1381 1.369 . S
C1382 C1391 1.429 . S
C1383 C1381 1.419 . S
C1383 C1384 1.363 . S
C1383 H1386 0.929 . S
C1384 C1383 1.363 . S
C1384 C1390 1.428 . S
H1385 C1381 0.930 . S
H1386 C1383 0.929 . S
S1387 N1388 1.613 . S
S1387 N1389 1.610 . S
N1388 S1387 1.613 . S
N1388 C1391 1.350 . S
N1389 S1387 1.610 . S
N1389 C1390 1.351 . S
C1390 C1384 1.428 . S
C1390 N1389 1.351 . S
C1390 C1391 1.434 . S
C1391 C1382 1.429 . S
C1391 N1388 1.350 . S
C1391 C1390 1.434 . S
C865 C3 1.516 . S
C867 C255 1.515 . S
C876 C291 1.514 . S
C878 C39 1.515 . S
C887 C75 1.517 . S
C889 C327 1.515 . S
C898 C111 1.517 . S
C900 C363 1.515 . S
C909 C399 1.516 . S
C911 C147 1.517 . S
C920 C183 1.517 . S
C922 C219 1.516 . S
C931 C435 1.515 . S
C933 C687 1.515 . S
C942 C471 1.515 . S
C944 C723 1.516 . S
C953 C759 1.515 . S
C955 C507 1.516 . S
C964 C543 1.515 . S
C966 C795 1.516 . S
C975 C579 1.515 . S
C977 C831 1.517 . S
C986 C651 1.516 . S
C988 C615 1.515 . S
C997 C4 1.384 . S
C999 C292 1.385 . S
C1008 C328 1.385 . S
C1010 C40 1.386 . S
C1019 C364 1.388 . S
C1021 C76 1.387 . S
C1030 C112 1.387 . S
C1032 C400 1.386 . S
C1041 C148 1.385 . S
C1043 C220 1.385 . S
C1052 C184 1.388 . S
C1054 C256 1.387 . S
C1063 C724 1.386 . S
C1065 C436 1.385 . S
C1074 C472 1.387 . S
C1076 C760 1.387 . S
C1085 C796 1.384 . S
C1087 C508 1.384 . S
C1096 C832 1.386 . S
C1098 C544 1.386 . S
C1107 C652 1.384 . S
C1109 C580 1.384 . S
C1118 C616 1.385 . S
C1120 C688 1.385 . S
C1129 C14 1.493 . S
C1131 C554 1.492 . S
C1140 C590 1.484 . S
C1142 C50 1.486 . S
C1151 C626 1.493 . S
C1153 C86 1.492 . S
C1162 C122 1.485 . S
C1164 C446 1.486 . S
C1173 C158 1.485 . S
C1175 C482 1.486 . S
C1184 C518 1.489 . S
C1186 C194 1.489 . S
C1195 C770 1.484 . S
C1197 C230 1.485 . S
C1206 C806 1.486 . S
C1208 C266 1.487 . S
C1217 C842 1.490 . S
C1219 C302 1.490 . S
C1228 C662 1.493 . S
C1230 C338 1.492 . S
C1239 C374 1.492 . S
C1241 C698 1.491 . S
C1250 C410 1.489 . S
C1252 C734 1.489 . S
C1261 C2 1.458 . S
C1263 C362 1.458 . S
C1272 C398 1.457 . S
C1274 C38 1.457 . S
C1283 C218 1.457 . S
C1285 C74 1.457 . S
C1294 C110 1.458 . S
C1296 C254 1.458 . S
C1305 C146 1.457 . S
C1307 C290 1.457 . S
C1316 C182 1.457 . S
C1318 C326 1.457 . S
C1327 C434 1.459 . S
C1329 C794 1.459 . S
C1338 C470 1.459 . S
C1340 C830 1.459 . S
C1349 C506 1.458 . S
C1351 C650 1.458 . S
C1360 C686 1.458 . S
C1362 C542 1.458 . S
C1371 C578 1.459 . S
C1373 C722 1.459 . S
C1382 C614 1.457 . S
C1384 C758 1.457 . S
