# Generated by pormake.
# Topology unf, (4)-cn, num edge types: 1
# Building blocks:
#     Node 0, Type 0, BuildingBlock: ICAMEG_clean_sbu_1, # of connection points: 4
#     Node 1, Type 0, BuildingBlock: ICAMEG_clean_sbu_1, # of connection points: 4
#     Node 2, Type 0, BuildingBlock: ICAMEG_clean_sbu_1, # of connection points: 4
#     Node 3, Type 0, BuildingBlock: ICAMEG_clean_sbu_1, # of connection points: 4
#     Node 4, Type 0, BuildingBlock: ICAMEG_clean_sbu_1, # of connection points: 4
#     Node 5, Type 0, BuildingBlock: ICAMEG_clean_sbu_1, # of connection points: 4
#     Node 6, Type 0, BuildingBlock: ICAMEG_clean_sbu_1, # of connection points: 4
#     Node 7, Type 0, BuildingBlock: ICAMEG_clean_sbu_1, # of connection points: 4
#     Node 8, Type 0, BuildingBlock: ICAMEG_clean_sbu_1, # of connection points: 4
#     Node 9, Type 0, BuildingBlock: ICAMEG_clean_sbu_1, # of connection points: 4
#     Node 10, Type 0, BuildingBlock: ICAMEG_clean_sbu_1, # of connection points: 4
#     Node 11, Type 0, BuildingBlock: ICAMEG_clean_sbu_1, # of connection points: 4
#     Edge 12, Type (0, 0), BuildingBlock: MIFKUJ_clean_linker_0, # of connection points: 2
#     Edge 13, Type (0, 0), BuildingBlock: MIFKUJ_clean_linker_0, # of connection points: 2
#     Edge 14, Type (0, 0), BuildingBlock: MIFKUJ_clean_linker_0, # of connection points: 2
#     Edge 15, Type (0, 0), BuildingBlock: MIFKUJ_clean_linker_0, # of connection points: 2
#     Edge 16, Type (0, 0), BuildingBlock: MIFKUJ_clean_linker_0, # of connection points: 2
#     Edge 17, Type (0, 0), BuildingBlock: MIFKUJ_clean_linker_0, # of connection points: 2
#     Edge 18, Type (0, 0), BuildingBlock: MIFKUJ_clean_linker_0, # of connection points: 2
#     Edge 19, Type (0, 0), BuildingBlock: MIFKUJ_clean_linker_0, # of connection points: 2
#     Edge 20, Type (0, 0), BuildingBlock: MIFKUJ_clean_linker_0, # of connection points: 2
#     Edge 21, Type (0, 0), BuildingBlock: MIFKUJ_clean_linker_0, # of connection points: 2
#     Edge 22, Type (0, 0), BuildingBlock: MIFKUJ_clean_linker_0, # of connection points: 2
#     Edge 23, Type (0, 0), BuildingBlock: MIFKUJ_clean_linker_0, # of connection points: 2
#     Edge 24, Type (0, 0), BuildingBlock: MIFKUJ_clean_linker_0, # of connection points: 2
#     Edge 25, Type (0, 0), BuildingBlock: MIFKUJ_clean_linker_0, # of connection points: 2
#     Edge 26, Type (0, 0), BuildingBlock: MIFKUJ_clean_linker_0, # of connection points: 2
#     Edge 27, Type (0, 0), BuildingBlock: MIFKUJ_clean_linker_0, # of connection points: 2
#     Edge 28, Type (0, 0), BuildingBlock: MIFKUJ_clean_linker_0, # of connection points: 2
#     Edge 29, Type (0, 0), BuildingBlock: MIFKUJ_clean_linker_0, # of connection points: 2
#     Edge 30, Type (0, 0), BuildingBlock: MIFKUJ_clean_linker_0, # of connection points: 2
#     Edge 31, Type (0, 0), BuildingBlock: MIFKUJ_clean_linker_0, # of connection points: 2
#     Edge 32, Type (0, 0), BuildingBlock: MIFKUJ_clean_linker_0, # of connection points: 2
#     Edge 33, Type (0, 0), BuildingBlock: MIFKUJ_clean_linker_0, # of connection points: 2
#     Edge 34, Type (0, 0), BuildingBlock: MIFKUJ_clean_linker_0, # of connection points: 2
#     Edge 35, Type (0, 0), BuildingBlock: MIFKUJ_clean_linker_0, # of connection points: 2
# Relax obj value: 0.235
# Max RMSD: 0.193
# Mean RMSD: 0.193
data_MOF--net-unf--node1-ICAMEG_clean_sbu_1--edge1-MIFKUJ_clean_linker_0
_symmetry_space_group_name_H-M    P1
_symmetry_Int_Tables_number       1
_symmetry_cell_setting            triclinic
loop_
_symmetry_equiv_pos_as_xyz
'x, y, z'
_cell_length_a     49.109492
_cell_length_b     49.090522
_cell_length_c     52.728912
_cell_angle_alpha  90.016083
_cell_angle_beta   90.010511
_cell_angle_gamma 119.97771
loop_
_atom_site_label
_atom_site_type_symbol
_atom_site_fract_x
_atom_site_fract_y
_atom_site_fract_z
_atom_type_partial_charge
Co0 Co 0.13964 0.42584 0.05238 0.0
Co1 Co 0.09907 0.41076 0.10844 0.0
O2 O 0.13721 0.42097 0.0892 0.0
C3 C 0.1621 0.38033 0.05972 0.0
O4 O 0.13685 0.36289 0.07332 0.0
C5 C 0.15358 0.46015 0.13845 0.0
O6 O 0.16778 0.47383 0.11725 0.0
O7 O 0.09742 0.44738 0.09309 0.0
O8 O 0.11237 0.44533 0.05322 0.0
H9 H 0.98953 0.39237 0.11998 0.0
H10 H 0.19936 0.45007 0.08091 0.0
O11 O 0.16687 0.40631 0.05045 0.0
H12 H 0.20651 0.54243 0.03758 0.0
H13 H 0.19379 0.45007 0.96748 0.0
H14 H 0.09337 0.41521 0.01193 0.0
H15 H 0.15964 0.49001 0.03233 0.0
H16 H 0.19087 0.44533 0.0141 0.0
O17 O 0.12556 0.4369 0.13792 0.0
H18 H 0.0373 0.40458 0.09588 0.0
H19 H 0.08035 0.39549 0.16275 0.0
H20 H 0.09527 0.41972 0.96533 0.0
H21 H 0.24692 0.50197 0.08635 0.0
H22 H 0.14577 0.43729 0.94278 0.0
H23 H 0.25064 0.54865 0.06469 0.0
O24 O 0.10163 0.3838 0.04819 0.0
H25 H 0.15072 0.35503 0.14847 0.0
H26 H 0.05134 0.34304 0.11549 0.0
H27 H 0.05232 0.29675 0.13245 0.0
H28 H 0.10226 0.3026 0.14917 0.0
H29 H 0.14878 0.40061 0.1311 0.0
H30 H 0.03312 0.38341 0.18761 0.0
H31 H 0.98723 0.3817 0.16621 0.0
O32 O 0.07151 0.38346 0.08027 0.0
C33 C 0.09921 0.45429 0.06947 0.0
C34 C 0.00937 0.39305 0.12953 0.0
C35 C 0.03386 0.38807 0.16748 0.0
N36 N 0.06165 0.40084 0.12786 0.0
C37 C 0.0365 0.39994 0.11597 0.0
C38 C 0.0606 0.39506 0.15331 0.0
C39 C 0.00811 0.38708 0.15546 0.0
C40 C 0.20095 0.4702 0.0712 0.0
N41 N 0.1767 0.46701 0.05637 0.0
C42 C 0.22787 0.49956 0.07445 0.0
C43 C 0.22992 0.52575 0.06234 0.0
C44 C 0.20514 0.52229 0.04717 0.0
C45 C 0.17857 0.49256 0.04438 0.0
C46 C 0.17167 0.44247 0.97709 0.0
C47 C 0.11548 0.42304 1.00229 0.0
C48 C 0.16987 0.43971 1.00349 0.0
N49 N 0.14204 0.43025 0.01575 0.0
C50 C 0.11639 0.42548 0.97588 0.0
C51 C 0.14472 0.4353 0.96324 0.0
C52 C 0.0752 0.37252 0.0594 0.0
C53 C 0.12878 0.35221 0.14136 0.0
C54 C 0.07318 0.3458 0.1227 0.0
C55 C 0.07358 0.31949 0.13232 0.0
C56 C 0.1016 0.32279 0.14171 0.0
N57 N 0.0999 0.37463 0.12254 0.0
C58 C 0.12749 0.378 0.13162 0.0
Co59 Co 0.56925 0.71052 0.06025 0.0
Co60 Co 0.59697 0.69053 0.11298 0.0
O61 O 0.58113 0.71529 0.096 0.0
C62 C 0.61449 0.77866 0.06446 0.0
O63 O 0.63343 0.77136 0.07643 0.0
C64 C 0.54783 0.68921 0.14751 0.0
O65 O 0.52956 0.68398 0.12777 0.0
O66 O 0.5606 0.64992 0.1003 0.0
O67 O 0.55113 0.66411 0.06226 0.0
H68 H 0.62779 0.60729 0.11859 0.0
H69 H 0.55038 0.74669 0.0938 0.0
O70 O 0.58757 0.75707 0.05711 0.0
H71 H 0.45112 0.65818 0.06181 0.0
H72 H 0.52693 0.73439 0.98154 0.0
H73 H 0.57177 0.67258 0.01743 0.0
H74 H 0.50213 0.6646 0.0484 0.0
H75 H 0.54164 0.73942 0.02674 0.0
O76 O 0.57381 0.68956 0.14485 0.0
H77 H 0.6078 0.63859 0.0975 0.0
H78 H 0.6203 0.69038 0.16528 0.0
H79 H 0.55714 0.66664 0.9722 0.0
H80 H 0.49993 0.74136 0.1075 0.0
H81 H 0.53454 0.6977 0.95397 0.0
H82 H 0.44982 0.69678 0.09153 0.0
O83 O 0.61021 0.71475 0.04982 0.0
H84 H 0.64919 0.79896 0.15107 0.0
H85 H 0.66641 0.71663 0.11386 0.0
H86 H 0.71199 0.76669 0.12762 0.0
H87 H 0.70353 0.80826 0.14645 0.0
H88 H 0.60434 0.74876 0.13678 0.0
H89 H 0.64015 0.6594 0.1872 0.0
H90 H 0.6441 0.61758 0.1638 0.0
O91 O 0.62129 0.69205 0.08212 0.0
C92 C 0.54807 0.64322 0.07819 0.0
C93 C 0.62615 0.62543 0.12901 0.0
C94 C 0.63304 0.65464 0.16752 0.0
N95 N 0.61276 0.66624 0.13015 0.0
C96 C 0.61486 0.64326 0.11716 0.0
C97 C 0.62163 0.67201 0.15504 0.0
C98 C 0.63529 0.63121 0.15437 0.0
C99 C 0.52869 0.72743 0.08655 0.0
N100 N 0.5292 0.70602 0.07027 0.0
C101 C 0.50019 0.72445 0.09447 0.0
C102 C 0.47208 0.69939 0.08555 0.0
C103 C 0.4728 0.6777 0.06889 0.0
C104 C 0.50174 0.68139 0.06144 0.0
C105 C 0.53671 0.7207 0.98927 0.0
C106 C 0.56179 0.68606 0.00968 0.0
C107 C 0.54515 0.7235 0.01483 0.0
N108 N 0.55738 0.70617 0.02475 0.0
C109 C 0.55362 0.68265 0.98404 0.0
C110 C 0.54098 0.7001 0.97381 0.0
C111 C 0.62617 0.70347 0.05976 0.0
C112 C 0.65319 0.78099 0.14297 0.0
C113 C 0.66252 0.73463 0.12193 0.0
C114 C 0.68843 0.76291 0.12976 0.0
C115 C 0.68366 0.78621 0.14033 0.0
N116 N 0.63269 0.72964 0.12462 0.0
C117 C 0.62785 0.75242 0.13495 0.0
Co118 Co 0.29268 0.85895 0.04821 0.0
Co119 Co 0.31712 0.906 0.10114 0.0
O120 O 0.28883 0.86641 0.08397 0.0
C121 C 0.22572 0.84163 0.05205 0.0
O122 O 0.23493 0.86861 0.06351 0.0
C123 C 0.31078 0.85462 0.13552 0.0
O124 O 0.31433 0.84052 0.1157 0.0
O125 O 0.35517 0.90434 0.0893 0.0
O126 O 0.33954 0.88398 0.0503 0.0
H127 H 0.40997 0.01529 0.10879 0.0
H128 H 0.25308 0.80425 0.08109 0.0
O129 O 0.24584 0.83397 0.0451 0.0
H130 H 0.33602 0.78513 0.0481 0.0
H131 H 0.26375 0.79345 0.96872 0.0
H132 H 0.33248 0.8983 0.00571 0.0
H133 H 0.33423 0.83262 0.03561 0.0
H134 H 0.25984 0.8033 0.01408 0.0
O135 O 0.31371 0.88181 0.13311 0.0
H136 H 0.37444 0.96562 0.08687 0.0
H137 H 0.31892 0.9302 0.15338 0.0
H138 H 0.33738 0.88939 0.96033 0.0
H139 H 0.25372 0.75622 0.09382 0.0
H140 H 0.30284 0.83665 0.94155 0.0
H141 H 0.2955 0.74649 0.07737 0.0
O142 O 0.29202 0.89781 0.03858 0.0
H143 H 0.20836 0.86305 0.13704 0.0
H144 H 0.29973 0.95612 0.10014 0.0
H145 H 0.2528 0.95911 0.11221 0.0
H146 H 0.2067 0.91236 0.13088 0.0
H147 H 0.25558 0.86094 0.1244 0.0
H148 H 0.35398 0.9794 0.17612 0.0
H149 H 0.39986 0.02242 0.15379 0.0
O150 O 0.32038 0.93086 0.06998 0.0
C151 C 0.36102 0.89887 0.06676 0.0
C152 C 0.39009 0.9967 0.11875 0.0
C153 C 0.3587 0.97654 0.15654 0.0
N154 N 0.34475 0.94492 0.11883 0.0
C155 C 0.36988 0.96851 0.10642 0.0
C156 C 0.33902 0.94866 0.14359 0.0
C157 C 0.38441 1.00068 0.14399 0.0
C158 C 0.27112 0.79999 0.07363 0.0
N159 N 0.29358 0.8212 0.05761 0.0
C160 C 0.27145 0.77284 0.081 0.0
C161 C 0.29494 0.76743 0.07181 0.0
C162 C 0.31771 0.78912 0.05541 0.0
C163 C 0.31667 0.81605 0.04849 0.0
C164 C 0.27896 0.81652 0.97669 0.0
C165 C 0.31748 0.87523 0.99772 0.0
C166 C 0.2768 0.82226 1.00235 0.0
N167 N 0.29605 0.85129 0.01257 0.0
C168 C 0.32031 0.87035 0.97199 0.0
C169 C 0.30091 0.84076 0.96146 0.0
C170 C 0.30762 0.92532 0.04806 0.0
C171 C 0.22835 0.88362 0.12904 0.0
C172 C 0.27976 0.93565 0.10821 0.0
C173 C 0.25327 0.93751 0.11505 0.0
C174 C 0.22742 0.91128 0.12553 0.0
N175 N 0.28054 0.90845 0.11174 0.0
C176 C 0.25525 0.88262 0.12196 0.0
Co177 Co 0.5645 0.85684 0.4588 0.0
Co178 Co 0.58963 0.90511 0.40649 0.0
O179 O 0.57709 0.8652 0.42334 0.0
C180 C 0.614 0.83951 0.45467 0.0
O181 O 0.63179 0.8669 0.44385 0.0
C182 C 0.54356 0.85519 0.37173 0.0
O183 O 0.52501 0.84201 0.39127 0.0
O184 O 0.55052 0.90473 0.41817 0.0
O185 O 0.54279 0.88196 0.4565 0.0
H186 H 0.60941 0.01571 0.40012 0.0
H187 H 0.55092 0.8034 0.42474 0.0
O188 O 0.58632 0.83175 0.46191 0.0
H189 H 0.44752 0.78305 0.4553 0.0
H190 H 0.52499 0.78818 0.53632 0.0
H191 H 0.56183 0.89441 0.50196 0.0
H192 H 0.49617 0.83001 0.4696 0.0
H193 H 0.54069 0.80002 0.49147 0.0
O194 O 0.56869 0.88163 0.37438 0.0
H195 H 0.59372 0.96534 0.42148 0.0
H196 H 0.61283 0.92977 0.35449 0.0
H197 H 0.54599 0.88337 0.54694 0.0
H198 H 0.50292 0.75601 0.41016 0.0
H199 H 0.52749 0.83005 0.56434 0.0
H200 H 0.45073 0.74563 0.4254 0.0
O201 O 0.60349 0.89565 0.46985 0.0
H202 H 0.65247 0.85904 0.37009 0.0
H203 H 0.65771 0.95364 0.40747 0.0
H204 H 0.70671 0.95489 0.39501 0.0
H205 H 0.70428 0.90737 0.37611 0.0
H206 H 0.6041 0.85868 0.38306 0.0
H207 H 0.62852 0.9797 0.33234 0.0
H208 H 0.62696 0.02314 0.3552 0.0
O209 O 0.61155 0.92907 0.43784 0.0
C210 C 0.53777 0.89818 0.44019 0.0
C211 C 0.61016 0.99695 0.38994 0.0
C212 C 0.62084 0.97672 0.35189 0.0
N213 N 0.60218 0.94455 0.38923 0.0
C214 C 0.6013 0.96835 0.40194 0.0
C215 C 0.61177 0.94843 0.3645 0.0
C216 C 0.61999 1.0011 0.36474 0.0
C217 C 0.52833 0.79887 0.43169 0.0
N218 N 0.52636 0.8194 0.44808 0.0
C219 C 0.50121 0.77207 0.42327 0.0
C220 C 0.47194 0.7663 0.43178 0.0
C221 C 0.47012 0.78731 0.44853 0.0
C222 C 0.49774 0.81392 0.4565 0.0
C223 C 0.533 0.81155 0.52894 0.0
C224 C 0.55362 0.87106 0.50939 0.0
C225 C 0.542 0.81842 0.50357 0.0
N226 N 0.55199 0.84784 0.49407 0.0
C227 C 0.54478 0.86501 0.53486 0.0
C228 C 0.5344 0.83504 0.54464 0.0
C229 C 0.6171 0.92324 0.46027 0.0
C230 C 0.65384 0.87994 0.37821 0.0
C231 C 0.65645 0.93284 0.39932 0.0
C232 C 0.68428 0.93371 0.39225 0.0
C233 C 0.6829 0.90705 0.38163 0.0
N234 N 0.62801 0.90619 0.39585 0.0
C235 C 0.62649 0.87994 0.38548 0.0
Co236 Co 0.14181 0.71438 0.44991 0.0
Co237 Co 0.09508 0.69038 0.39673 0.0
O238 O 0.13486 0.71771 0.41395 0.0
C239 C 0.16127 0.78192 0.44559 0.0
O240 O 0.13346 0.77346 0.43602 0.0
C241 C 0.14578 0.69322 0.36339 0.0
O242 O 0.15921 0.68959 0.38362 0.0
O243 O 0.09422 0.65155 0.41 0.0
O244 O 0.11512 0.66767 0.44876 0.0
H245 H 0.98396 0.60074 0.39024 0.0
H246 H 0.1973 0.75149 0.41697 0.0
O247 O 0.16844 0.76125 0.45192 0.0
H248 H 0.21159 0.66645 0.45227 0.0
H249 H 0.2071 0.74378 0.52952 0.0
H250 H 0.10166 0.67676 0.49296 0.0
H251 H 0.16525 0.67082 0.46382 0.0
H252 H 0.1976 0.74666 0.48391 0.0
O253 O 0.11898 0.69129 0.36526 0.0
H254 H 0.03408 0.63548 0.41187 0.0
H255 H 0.07168 0.68747 0.34395 0.0
H256 H 0.11018 0.67296 0.53859 0.0
H257 H 0.2442 0.74826 0.40519 0.0
H258 H 0.16321 0.70664 0.55717 0.0
H259 H 0.25151 0.70542 0.42281 0.0
O260 O 0.10375 0.71678 0.45908 0.0
H261 H 0.14426 0.79935 0.35995 0.0
H262 H 0.04707 0.71053 0.39424 0.0
H263 H 0.04706 0.75844 0.38033 0.0
H264 H 0.09595 0.80329 0.36297 0.0
H265 H 0.14322 0.75086 0.37376 0.0
H266 H 0.02202 0.65307 0.32151 0.0
H267 H 0.97768 0.6094 0.34471 0.0
O268 O 0.07066 0.69006 0.42723 0.0
C269 C 0.09913 0.64592 0.43278 0.0
C270 C 0.0031 0.61967 0.37992 0.0
C271 C 0.02449 0.64902 0.34134 0.0
N272 N 0.05585 0.66343 0.37919 0.0
C273 C 0.03156 0.63945 0.39208 0.0
C274 C 0.05262 0.66832 0.35412 0.0
C275 C 0.99961 0.62454 0.35437 0.0
C276 C 0.2005 0.73301 0.42495 0.0
N277 N 0.17859 0.71141 0.4411 0.0
C278 C 0.22702 0.7312 0.41811 0.0
C279 C 0.23107 0.70711 0.42796 0.0
C280 C 0.20866 0.68522 0.44446 0.0
C281 C 0.1824 0.68773 0.45085 0.0
C282 C 0.1839 0.72895 0.52164 0.0
C283 C 0.12486 0.69137 0.50086 0.0
C284 C 0.17837 0.73051 0.49584 0.0
N285 N 0.14916 0.71173 0.48574 0.0
C286 C 0.12951 0.68917 0.52673 0.0
C287 C 0.15927 0.70809 0.53714 0.0
C288 C 0.07638 0.70281 0.44916 0.0
C289 C 0.12277 0.77983 0.3672 0.0
C290 C 0.06841 0.72987 0.38663 0.0
C291 C 0.06825 0.75695 0.37877 0.0
C292 C 0.09567 0.78208 0.36901 0.0
N293 N 0.09504 0.72774 0.38465 0.0
C294 C 0.12201 0.75229 0.37506 0.0
Co295 Co 0.29397 0.43443 0.45361 0.0
Co296 Co 0.31659 0.41061 0.40017 0.0
O297 O 0.28994 0.42376 0.41765 0.0
C298 C 0.22654 0.38681 0.44873 0.0
O299 O 0.23519 0.36883 0.43689 0.0
C300 C 0.31436 0.4587 0.36657 0.0
O301 O 0.31877 0.47632 0.3866 0.0
O302 O 0.35587 0.44845 0.41293 0.0
O303 O 0.34071 0.45476 0.45168 0.0
H304 H 0.40479 0.38701 0.39272 0.0
H305 H 0.25622 0.45204 0.42075 0.0
O306 O 0.24717 0.414 0.45648 0.0
H307 H 0.34107 0.55208 0.45516 0.0
H308 H 0.26648 0.47127 0.53367 0.0
H309 H 0.33272 0.43254 0.49601 0.0
H310 H 0.33715 0.50168 0.46713 0.0
H311 H 0.26247 0.45835 0.48811 0.0
O312 O 0.31549 0.43341 0.3687 0.0
H313 H 0.3711 0.40345 0.41472 0.0
H314 H 0.31804 0.38923 0.34743 0.0
H315 H 0.33768 0.44544 0.54158 0.0
H316 H 0.25902 0.50186 0.40849 0.0
H317 H 0.30439 0.46496 0.5607 0.0
H318 H 0.30176 0.55237 0.42567 0.0
O319 O 0.29172 0.39403 0.46291 0.0
H320 H 0.2076 0.3521 0.3634 0.0
H321 H 0.29502 0.34205 0.39893 0.0
H322 H 0.24649 0.29444 0.38547 0.0
H323 H 0.20236 0.29932 0.36749 0.0
H324 H 0.25653 0.39911 0.37698 0.0
H325 H 0.35134 0.37286 0.32463 0.0
H326 H 0.39503 0.37159 0.3473 0.0
O327 O 0.31728 0.38678 0.43069 0.0
C328 C 0.362 0.46004 0.43538 0.0
C329 C 0.38587 0.38753 0.3826 0.0
C330 C 0.35589 0.37963 0.34438 0.0
N331 N 0.34275 0.39755 0.38236 0.0
C332 C 0.36671 0.39684 0.39497 0.0
C333 C 0.33722 0.38909 0.35737 0.0
C334 C 0.38038 0.37889 0.35713 0.0
C335 C 0.27469 0.47389 0.42851 0.0
N336 N 0.29649 0.47395 0.44466 0.0
C337 C 0.27624 0.50204 0.42141 0.0
C338 C 0.30026 0.53037 0.43102 0.0
C339 C 0.32235 0.53023 0.44754 0.0
C340 C 0.3201 0.50163 0.45417 0.0
C341 C 0.28115 0.46284 0.52555 0.0
C342 C 0.31828 0.4412 0.50414 0.0
C343 C 0.27893 0.45542 0.49978 0.0
N344 N 0.2975 0.44492 0.48937 0.0
C345 C 0.32114 0.44839 0.52998 0.0
C346 C 0.30243 0.4593 0.5407 0.0
C347 C 0.30516 0.3802 0.45282 0.0
C348 C 0.22677 0.34972 0.37096 0.0
C349 C 0.27597 0.34439 0.39108 0.0
C350 C 0.24854 0.31734 0.38347 0.0
C351 C 0.2238 0.32009 0.37336 0.0
N352 N 0.27877 0.3734 0.38856 0.0
C353 C 0.2546 0.37627 0.37864 0.0
Co354 Co 0.85655 0.57129 0.95562 0.0
Co355 Co 0.90452 0.59183 0.90356 0.0
O356 O 0.86461 0.5811 0.9197 0.0
C357 C 0.8388 0.62064 0.95044 0.0
O358 O 0.86752 0.64008 0.94266 0.0
C359 C 0.85413 0.54576 0.86926 0.0
O360 O 0.83992 0.52871 0.8893 0.0
O361 O 0.90234 0.55247 0.9168 0.0
O362 O 0.8825 0.55023 0.95564 0.0
H363 H 0.01421 0.60868 0.89979 0.0
H364 H 0.80221 0.55349 0.92139 0.0
O365 O 0.83054 0.59236 0.95626 0.0
H366 H 0.78481 0.45392 0.95866 0.0
H367 H 0.78905 0.53747 0.03402 0.0
H368 H 0.8951 0.57343 0.99976 0.0
H369 H 0.83144 0.50429 0.97042 0.0
H370 H 0.79999 0.54932 0.98847 0.0
O371 O 0.88119 0.57021 0.87152 0.0
H372 H 0.96341 0.59388 0.91994 0.0
H373 H 0.93042 0.61302 0.85155 0.0
H374 H 0.88512 0.56157 0.04537 0.0
H375 H 0.75504 0.5037 0.90938 0.0
H376 H 0.83177 0.54345 0.06279 0.0
H377 H 0.74617 0.45343 0.92799 0.0
O378 O 0.89493 0.61155 0.96493 0.0
H379 H 0.86258 0.65674 0.86407 0.0
H380 H 0.95484 0.65933 0.90366 0.0
H381 H 0.95824 0.70887 0.88967 0.0
H382 H 0.91193 0.70777 0.86967 0.0
H383 H 0.86005 0.60778 0.87851 0.0
H384 H 0.98075 0.62764 0.83053 0.0
H385 H 0.02317 0.62576 0.85475 0.0
O386 O 0.92848 0.61419 0.93475 0.0
C387 C 0.89743 0.54279 0.93983 0.0
C388 C 0.99592 0.60961 0.88903 0.0
C389 C 0.97712 0.6202 0.85016 0.0
N390 N 0.94393 0.60254 0.88697 0.0
C391 C 0.96709 0.60128 0.90036 0.0
C392 C 0.94859 0.61172 0.86212 0.0
C393 C 1.00092 0.61917 0.86376 0.0
C394 C 0.79832 0.53176 0.92981 0.0
N395 N 0.81952 0.53182 0.94664 0.0
C396 C 0.77165 0.50362 0.92283 0.0
C397 C 0.76673 0.47542 0.93324 0.0
C398 C 0.78842 0.47567 0.95042 0.0
C399 C 0.81485 0.50425 0.95693 0.0
C400 C 0.81238 0.5453 0.02665 0.0
C401 C 0.87178 0.56539 0.00716 0.0
C402 C 0.81873 0.55211 1.00089 0.0
N403 N 0.8481 0.56183 0.99143 0.0
C404 C 0.86629 0.55879 0.03302 0.0
C405 C 0.83636 0.54865 0.04278 0.0
C406 C 0.92261 0.62256 0.95602 0.0
C407 C 0.88297 0.6575 0.87266 0.0
C408 C 0.93455 0.65862 0.89497 0.0
C409 C 0.93665 0.68676 0.88707 0.0
C410 C 0.91065 0.68613 0.87584 0.0
N411 N 0.90736 0.6306 0.89168 0.0
C412 C 0.88173 0.62982 0.88077 0.0
Co413 Co 0.4373 0.29162 0.95558 0.0
Co414 Co 0.41359 0.31792 0.90455 0.0
O415 O 0.4258 0.28946 0.92 0.0
C416 C 0.38873 0.22467 0.94944 0.0
O417 O 0.37051 0.23417 0.93923 0.0
C418 C 0.45942 0.31528 0.86883 0.0
O419 O 0.47809 0.32019 0.88822 0.0
O420 O 0.45295 0.35581 0.91709 0.0
O421 O 0.45822 0.33855 0.95525 0.0
H422 H 0.39331 0.40867 0.90232 0.0
H423 H 0.45324 0.25493 0.92 0.0
O424 O 0.41633 0.24468 0.95681 0.0
H425 H 0.55473 0.33727 0.95431 0.0
H426 H 0.47552 0.25951 0.03234 0.0
H427 H 0.43721 0.32862 1.00006 0.0
H428 H 0.50505 0.33351 0.96835 0.0
H429 H 0.4613 0.25781 0.98726 0.0
O430 O 0.43425 0.31642 0.87193 0.0
H431 H 0.41014 0.3738 0.92166 0.0
H432 H 0.39026 0.32172 0.85317 0.0
H433 H 0.45146 0.3313 0.04521 0.0
H434 H 0.5023 0.25762 0.90562 0.0
H435 H 0.47076 0.29657 0.06162 0.0
H436 H 0.55354 0.2991 0.92276 0.0
O437 O 0.39738 0.28951 0.96636 0.0
H438 H 0.34949 0.21091 0.86511 0.0
H439 H 0.34565 0.29895 0.90666 0.0
H440 H 0.29628 0.2521 0.89342 0.0
H441 H 0.29801 0.20771 0.87243 0.0
H442 H 0.39826 0.25798 0.87887 0.0
H443 H 0.37359 0.3563 0.83295 0.0
H444 H 0.37483 0.40001 0.85763 0.0
O445 O 0.39213 0.31914 0.93641 0.0
C446 C 0.46427 0.36076 0.93963 0.0
C447 C 0.39267 0.38972 0.89136 0.0
C448 C 0.38166 0.36035 0.85242 0.0
N449 N 0.4013 0.34579 0.88858 0.0
C450 C 0.40217 0.36987 0.90222 0.0
C451 C 0.39132 0.34096 0.86393 0.0
C452 C 0.38232 0.38486 0.86628 0.0
C453 C 0.47541 0.27283 0.92775 0.0
N454 N 0.47627 0.29398 0.94506 0.0
C455 C 0.50313 0.27433 0.91945 0.0
C456 C 0.53187 0.29764 0.92903 0.0
C457 C 0.53255 0.31909 0.94671 0.0
C458 C 0.50436 0.31692 0.95453 0.0
C459 C 0.46718 0.2748 0.0254 0.0
C460 C 0.44576 0.31355 0.00702 0.0
C461 C 0.45902 0.27388 0.99992 0.0
N462 N 0.44863 0.29324 0.99101 0.0
C463 C 0.45371 0.31512 0.03263 0.0
C464 C 0.46452 0.2956 0.04182 0.0
C465 C 0.38524 0.30538 0.95791 0.0
C466 C 0.34844 0.23017 0.87414 0.0
C467 C 0.34663 0.27972 0.89757 0.0
C468 C 0.31858 0.25327 0.89008 0.0
C469 C 0.31957 0.22837 0.87829 0.0
N470 N 0.37489 0.28137 0.89335 0.0
C471 C 0.37601 0.25698 0.88186 0.0
Co472 Co 0.71136 0.13951 0.95074 0.0
Co473 Co 0.6918 0.09441 0.89636 0.0
O474 O 0.71699 0.13384 0.91486 0.0
C475 C 0.77901 0.15984 0.9475 0.0
O476 O 0.77121 0.13442 0.93412 0.0
C477 C 0.6935 0.14533 0.86373 0.0
O478 O 0.68906 0.15808 0.88404 0.0
O479 O 0.65135 0.09072 0.90888 0.0
O480 O 0.66494 0.11315 0.94742 0.0
H481 H 0.60641 0.98182 0.88609 0.0
H482 H 0.75068 0.19589 0.91938 0.0
O483 O 0.75791 0.16572 0.95521 0.0
H484 H 0.66389 0.20975 0.951 0.0
H485 H 0.73506 0.20164 0.03177 0.0
H486 H 0.67056 0.09777 0.99184 0.0
H487 H 0.66732 0.16298 0.9629 0.0
H488 H 0.74113 0.19398 0.98633 0.0
O489 O 0.69248 0.11891 0.86538 0.0
H490 H 0.63837 0.03144 0.90933 0.0
H491 H 0.69235 0.07388 0.84312 0.0
H492 H 0.66353 0.10446 0.03726 0.0
H493 H 0.74839 0.24322 0.90725 0.0
H494 H 0.69595 0.15669 0.05754 0.0
H495 H 0.70467 0.25032 0.92302 0.0
O496 O 0.71324 0.10118 0.96 0.0
H497 H 0.802 0.15004 0.86177 0.0
H498 H 0.71552 0.04923 0.89316 0.0
H499 H 0.76526 0.05267 0.87988 0.0
H500 H 0.80894 0.1034 0.86397 0.0
H501 H 0.7518 0.14557 0.87504 0.0
H502 H 0.66079 0.02479 0.81911 0.0
H503 H 0.61752 0.97827 0.84062 0.0
O504 O 0.69172 0.06934 0.92635 0.0
C505 C 0.64433 0.09633 0.93095 0.0
C506 C 0.62518 0.00193 0.87649 0.0
C507 C 0.65567 0.02606 0.83889 0.0
N508 N 0.66712 0.0556 0.87759 0.0
C509 C 0.64338 0.0301 0.88956 0.0
C510 C 0.67336 0.05386 0.85256 0.0
C511 C 0.63142 0.99996 0.85098 0.0
C512 C 0.73179 0.19899 0.92655 0.0
N513 N 0.70919 0.17672 0.94186 0.0
C514 C 0.73053 0.22576 0.91952 0.0
C515 C 0.70596 0.22969 0.92833 0.0
C516 C 0.68304 0.20692 0.944 0.0
C517 C 0.68503 0.18041 0.95059 0.0
C518 C 0.72078 0.17877 0.02315 0.0
C519 C 0.68464 0.12062 1.00047 0.0
C520 C 0.72417 0.17428 0.99744 0.0
N521 N 0.70612 0.1455 0.9864 0.0
C522 C 0.6806 0.12424 0.02623 0.0
C523 C 0.69882 0.15355 0.03759 0.0
C524 C 0.70204 0.0745 0.9491 0.0
C525 C 0.78303 0.12778 0.86841 0.0
C526 C 0.73439 0.07137 0.88628 0.0
C527 C 0.76249 0.07317 0.87873 0.0
C528 C 0.78697 0.10161 0.86977 0.0
N529 N 0.73064 0.09711 0.88482 0.0
C530 C 0.75451 0.12506 0.87595 0.0
Co531 Co 0.43187 0.14246 0.5567 0.0
Co532 Co 0.4054 0.09653 0.61066 0.0
O533 O 0.42059 0.13638 0.59262 0.0
C534 C 0.38569 0.1644 0.56103 0.0
O535 O 0.3679 0.13923 0.57458 0.0
C536 C 0.45526 0.1461 0.64388 0.0
O537 O 0.47261 0.15935 0.62375 0.0
O538 O 0.44125 0.0916 0.59755 0.0
O539 O 0.45137 0.11545 0.55955 0.0
H540 H 0.37545 0.98298 0.61907 0.0
H541 H 0.44949 0.1984 0.58885 0.0
O542 O 0.41215 0.1694 0.55273 0.0
H543 H 0.5497 0.21143 0.55696 0.0
H544 H 0.47159 0.20633 0.47668 0.0
H545 H 0.43082 0.10133 0.51487 0.0
H546 H 0.49926 0.16527 0.54461 0.0
H547 H 0.45719 0.19764 0.52195 0.0
O548 O 0.42979 0.11986 0.6418 0.0
H549 H 0.39425 0.03326 0.59661 0.0
H550 H 0.38388 0.07516 0.6637 0.0
H551 H 0.44541 0.10918 0.46958 0.0
H552 H 0.49934 0.24512 0.60143 0.0
H553 H 0.46585 0.16189 0.45021 0.0
H554 H 0.54994 0.2518 0.58552 0.0
O555 O 0.39135 0.10465 0.54701 0.0
H556 H 0.35524 0.15509 0.64809 0.0
H557 H 0.33609 0.0533 0.61446 0.0
H558 H 0.29126 0.05868 0.62888 0.0
H559 H 0.30071 0.10987 0.64592 0.0
H560 H 0.39926 0.14878 0.6331 0.0
H561 H 0.36506 0.02531 0.68689 0.0
H562 H 0.36063 0.97872 0.66452 0.0
O563 O 0.37965 0.07253 0.58065 0.0
C564 C 0.4544 0.09779 0.57567 0.0
C565 C 0.3772 0.00308 0.629 0.0
C566 C 0.37147 0.02687 0.66709 0.0
N567 N 0.39025 0.05718 0.62883 0.0
C568 C 0.38785 0.03164 0.61639 0.0
C569 C 0.38228 0.05509 0.65388 0.0
C570 C 0.36895 1.00073 0.65452 0.0
C571 C 0.47139 0.20132 0.58162 0.0
N572 N 0.47147 0.17916 0.56597 0.0
C573 C 0.49955 0.22775 0.58891 0.0
C574 C 0.52793 0.23144 0.58002 0.0
C575 C 0.52781 0.20878 0.56402 0.0
C576 C 0.49919 0.18261 0.55718 0.0
C577 C 0.46269 0.18321 0.48491 0.0
C578 C 0.43987 0.12442 0.50661 0.0
C579 C 0.45439 0.17812 0.51052 0.0
N580 N 0.44327 0.14903 0.52108 0.0
C581 C 0.448 0.12867 0.48095 0.0
C582 C 0.45948 0.15828 0.47008 0.0
C583 C 0.3749 0.07811 0.55791 0.0
C584 C 0.35081 0.13264 0.64074 0.0
C585 C 0.34036 0.07569 0.62162 0.0
C586 C 0.3149 0.07857 0.62989 0.0
C587 C 0.32022 0.10728 0.63948 0.0
N588 N 0.3703 0.10065 0.62289 0.0
C589 C 0.37568 0.12887 0.63232 0.0
Co590 Co 0.86194 0.28758 0.55077 0.0
Co591 Co 0.90669 0.317 0.60437 0.0
O592 O 0.8677 0.28692 0.58729 0.0
C593 C 0.84266 0.22045 0.55933 0.0
O594 O 0.86974 0.22962 0.57058 0.0
C595 C 0.85381 0.31147 0.63654 0.0
O596 O 0.83929 0.31209 0.61585 0.0
O597 O 0.90461 0.35346 0.5892 0.0
O598 O 0.88762 0.33453 0.55007 0.0
H599 H 0.01443 0.41245 0.61041 0.0
H600 H 0.80539 0.25185 0.58291 0.0
O601 O 0.83606 0.24062 0.55054 0.0
H602 H 0.79008 0.33236 0.53984 0.0
H603 H 0.80045 0.25183 0.46927 0.0
H604 H 0.90375 0.32274 0.50777 0.0
H605 H 0.83758 0.32866 0.53177 0.0
H606 H 0.80782 0.25223 0.51557 0.0
O607 O 0.88166 0.31589 0.63516 0.0
H608 H 0.96562 0.37418 0.58878 0.0
H609 H 0.93007 0.32359 0.65754 0.0
H610 H 0.89736 0.32326 0.46144 0.0
H611 H 0.7573 0.25439 0.59124 0.0
H612 H 0.8454 0.28761 0.44188 0.0
H613 H 0.74948 0.29497 0.56971 0.0
O614 O 0.90069 0.2853 0.54451 0.0
H615 H 0.86395 0.21166 0.64674 0.0
H616 H 0.95764 0.30095 0.60843 0.0
H617 H 0.96111 0.25588 0.62512 0.0
H618 H 0.91406 0.21085 0.64452 0.0
H619 H 0.86141 0.25703 0.6296 0.0
H620 H 0.97842 0.36145 0.67998 0.0
H621 H 0.02107 0.40623 0.65637 0.0
O622 O 0.93266 0.31796 0.57461 0.0
C623 C 0.9009 0.35739 0.56568 0.0
C624 C 0.99602 0.39303 0.62091 0.0
C625 C 0.97579 0.36444 0.65996 0.0
N626 N 0.94498 0.34668 0.62185 0.0
C627 C 0.96833 0.37126 0.60875 0.0
C628 C 0.9484 0.34314 0.64717 0.0
C629 C 0.99973 0.38954 0.6467 0.0
C630 C 0.802 0.26935 0.57324 0.0
N631 N 0.8243 0.2901 0.55688 0.0
C632 C 0.77479 0.27077 0.57813 0.0
C633 C 0.77044 0.29358 0.56609 0.0
C634 C 0.79324 0.3146 0.54936 0.0
C635 C 0.82018 0.3125 0.54496 0.0
C636 C 0.82319 0.26752 0.47757 0.0
C637 C 0.88101 0.30729 0.49944 0.0
C638 C 0.82751 0.26781 0.50377 0.0
N639 N 0.85612 0.28767 0.51439 0.0
C640 C 0.87756 0.30763 0.47317 0.0
C641 C 0.84841 0.28761 0.46221 0.0
C642 C 0.92793 0.30243 0.55405 0.0
C643 C 0.88465 0.23121 0.63844 0.0
C644 C 0.93703 0.28144 0.61681 0.0
C645 C 0.93916 0.25599 0.62626 0.0
C646 C 0.91276 0.23074 0.63715 0.0
N647 N 0.90942 0.2818 0.61825 0.0
C648 C 0.8834 0.25706 0.62881 0.0
Co649 Co 0.71329 0.57266 0.55548 0.0
Co650 Co 0.69063 0.5972 0.60856 0.0
O651 O 0.71726 0.58405 0.5912 0.0
C652 C 0.78057 0.62202 0.55797 0.0
O653 O 0.77183 0.64194 0.56565 0.0
C654 C 0.69258 0.54882 0.64181 0.0
O655 O 0.68798 0.53138 0.62164 0.0
O656 O 0.65126 0.55955 0.59557 0.0
O657 O 0.66661 0.55183 0.55734 0.0
H658 H 0.60323 0.62204 0.61567 0.0
H659 H 0.75168 0.55649 0.58904 0.0
O660 O 0.76021 0.59357 0.55304 0.0
H661 H 0.6679 0.45524 0.55553 0.0
H662 H 0.74213 0.5353 0.47641 0.0
H663 H 0.67396 0.57253 0.51267 0.0
H664 H 0.67093 0.50503 0.5428 0.0
H665 H 0.74587 0.54922 0.52174 0.0
O666 O 0.69151 0.57418 0.63995 0.0
H667 H 0.63688 0.60552 0.59371 0.0
H668 H 0.68856 0.61775 0.66147 0.0
H669 H 0.66927 0.55862 0.46734 0.0
H670 H 0.74978 0.50732 0.60202 0.0
H671 H 0.70352 0.53985 0.44891 0.0
H672 H 0.70757 0.4562 0.5853 0.0
O673 O 0.71436 0.61237 0.54542 0.0
H674 H 0.80019 0.65562 0.64434 0.0
H675 H 0.71193 0.66563 0.61085 0.0
H676 H 0.76056 0.71318 0.62416 0.0
H677 H 0.80513 0.70831 0.64113 0.0
H678 H 0.75104 0.60859 0.63106 0.0
H679 H 0.65529 0.63417 0.68423 0.0
H680 H 0.6123 0.63648 0.66129 0.0
O681 O 0.69034 0.62118 0.57807 0.0
C682 C 0.64527 0.54728 0.57334 0.0
C683 C 0.62183 0.62105 0.6259 0.0
C684 C 0.65101 0.6278 0.66438 0.0
N685 N 0.66448 0.61034 0.62632 0.0
C686 C 0.64096 0.61167 0.61356 0.0
C687 C 0.66966 0.61829 0.65142 0.0
C688 C 0.62692 0.62913 0.65149 0.0
C689 C 0.73347 0.53438 0.58144 0.0
N690 N 0.71148 0.53365 0.56512 0.0
C691 C 0.73242 0.5066 0.58896 0.0
C692 C 0.70869 0.47792 0.57962 0.0
C693 C 0.6864 0.47736 0.56294 0.0
C694 C 0.68815 0.50562 0.55588 0.0
C695 C 0.72704 0.5434 0.48423 0.0
C696 C 0.68883 0.56421 0.50485 0.0
C697 C 0.72911 0.55139 0.50986 0.0
N698 N 0.71001 0.56148 0.51988 0.0
C699 C 0.68612 0.55645 0.47914 0.0
C700 C 0.70537 0.54595 0.46881 0.0
C701 C 0.70154 0.62678 0.55562 0.0
C702 C 0.78081 0.65796 0.63724 0.0
C703 C 0.73115 0.66328 0.61826 0.0
C704 C 0.75864 0.69031 0.6258 0.0
C705 C 0.78362 0.68756 0.63533 0.0
N706 N 0.72849 0.63429 0.62031 0.0
C707 C 0.75289 0.63142 0.62968 0.0
H708 H 0.15736 0.32335 0.07096 0.0
H709 H 0.19297 0.30458 0.05741 0.0
H710 H 0.2527 0.39371 0.02102 0.0
H711 H 0.21744 0.41242 0.03415 0.0
H712 H 0.2397 0.34554 0.9898 0.0
H713 H 0.27315 0.3738 0.07704 0.0
H714 H 0.26533 0.37086 0.12338 0.0
H715 H 0.23481 0.27223 0.12191 0.0
H716 H 0.24205 0.27452 0.07549 0.0
H717 H 0.38198 0.35833 0.96275 0.0
H718 H 0.34222 0.36505 0.98484 0.0
H719 H 0.29796 0.26894 0.01082 0.0
H720 H 0.33881 0.26237 0.98912 0.0
H721 H 0.29632 0.3104 0.04714 0.0
H722 H 0.26869 0.2841 0.95983 0.0
H723 H 0.28047 0.28919 0.91406 0.0
H724 H 0.30123 0.38513 0.9158 0.0
H725 H 0.28998 0.38077 0.96169 0.0
C726 C 0.17823 0.339 0.06025 0.0
C727 C 0.18443 0.36931 0.05351 0.0
C728 C 0.19857 0.32826 0.05256 0.0
C729 C 0.22547 0.34773 0.03815 0.0
C730 C 0.23198 0.37819 0.03196 0.0
C731 C 0.21177 0.38888 0.03956 0.0
C732 C 0.24658 0.33651 0.0286 0.0
C733 C 0.2521 0.33793 1.00238 0.0
C734 C 0.26203 0.3256 0.04489 0.0
C735 C 0.25776 0.32425 0.07277 0.0
C736 C 0.2645 0.35143 0.08658 0.0
C737 C 0.26023 0.34989 0.11286 0.0
C738 C 0.24948 0.32135 0.12557 0.0
C739 C 0.24307 0.29431 0.11203 0.0
C740 C 0.24727 0.29571 0.08574 0.0
C741 C 0.36395 0.33868 0.97333 0.0
C742 C 0.36302 0.30964 0.97384 0.0
C743 C 0.34129 0.34256 0.986 0.0
C744 C 0.31669 0.31726 0.99892 0.0
C745 C 0.31665 0.28868 1.00078 0.0
C746 C 0.33986 0.28493 0.98838 0.0
C747 C 0.29009 0.32053 0.00854 0.0
C748 C 0.28342 0.31744 0.03459 0.0
C749 C 0.27346 0.32991 0.99213 0.0
C750 C 0.27856 0.33212 0.96424 0.0
C751 C 0.27576 0.30629 0.95046 0.0
C752 C 0.28241 0.30906 0.9245 0.0
C753 C 0.29166 0.33748 0.91204 0.0
C754 C 0.29405 0.36312 0.92548 0.0
C755 C 0.28746 0.36049 0.95146 0.0
H756 H 0.29696 0.33962 0.89197 0.0
H757 H 0.24619 0.32021 0.14592 0.0
H758 H 0.58246 0.80063 0.03691 0.0
H759 H 0.60129 0.85407 0.02213 0.0
H760 H 0.68877 0.88548 0.06194 0.0
H761 H 0.6703 0.83161 0.07643 0.0
H762 H 0.61893 0.90889 0.04283 0.0
H763 H 0.74821 0.94275 0.02642 0.0
H764 H 0.77971 0.91716 0.01829 0.0
H765 H 0.69962 0.83852 0.98411 0.0
H766 H 0.66781 0.86382 0.99173 0.0
H767 H 0.70381 0.06889 1.0008 0.0
H768 H 0.69315 0.02184 0.02484 0.0
H769 H 0.68326 0.97214 0.95493 0.0
H770 H 0.69308 0.01852 0.93081 0.0
H771 H 0.7172 0.96064 0.99219 0.0
H772 H 0.62228 0.96352 0.98089 0.0
H773 H 0.58818 0.98669 0.98365 0.0
H774 H 0.59153 0.98473 0.06499 0.0
H775 H 0.62723 0.96301 0.06266 0.0
C776 C 0.60565 0.81887 0.04272 0.0
C777 C 0.62504 0.81174 0.05763 0.0
C778 C 0.61632 0.84952 0.03432 0.0
C779 C 0.64658 0.87377 0.04065 0.0
C780 C 0.66551 0.86705 0.05648 0.0
C781 C 0.6549 0.83626 0.0648 0.0
C782 C 0.6586 0.90552 0.02943 0.0
C783 C 0.64063 0.92039 0.03205 0.0
C784 C 0.68659 0.92028 0.0149 0.0
C785 C 0.70557 0.90501 0.00995 0.0
C786 C 0.73738 0.92003 0.01712 0.0
C787 C 0.75527 0.90558 0.0126 0.0
C788 C 0.74164 0.87618 1.00079 0.0
C789 C 0.71012 0.86123 0.99336 0.0
C790 C 0.69214 0.8756 0.99779 0.0
C791 C 0.69978 0.04809 0.99053 0.0
C792 C 0.69919 0.04748 0.96384 0.0
C793 C 0.69367 0.02124 0.00431 0.0
C794 C 0.68736 0.99354 0.99163 0.0
C795 C 0.68822 0.99334 0.96506 0.0
C796 C 0.69375 0.0199 0.9513 0.0
C797 C 0.67763 0.96399 0.00575 0.0
C798 C 0.69595 0.94951 1.00356 0.0
C799 C 0.64949 0.94917 0.02006 0.0
C800 C 0.62798 0.9622 0.02159 0.0
C801 C 0.61622 0.9685 0.99938 0.0
C802 C 0.59648 0.98131 1.00088 0.0
C803 C 0.58758 0.98717 0.0245 0.0
C804 C 0.59853 0.98029 0.04669 0.0
C805 C 0.61868 0.96789 0.04529 0.0
H806 H 0.5722 0.997 0.02564 0.0
H807 H 0.75552 0.86502 0.99733 0.0
H808 H 0.17548 0.85025 0.06177 0.0
H809 H 0.12062 0.81609 0.04875 0.0
H810 H 0.14546 0.75133 0.01516 0.0
H811 H 0.19994 0.7851 0.02783 0.0
H812 H 0.11112 0.76509 0.98306 0.0
H813 H 0.1067 0.73537 0.07131 0.0
H814 H 0.113 0.74547 0.11735 0.0
H815 H 0.04797 0.77981 0.11482 0.0
H816 H 0.04162 0.7703 0.06866 0.0
H817 H 0.97798 0.62408 0.96056 0.0
H818 H 0.02567 0.66395 0.98124 0.0
H819 H 0.97721 0.71222 0.006 0.0
H820 H 0.92855 0.67128 0.98575 0.0
H821 H 0.02047 0.71415 0.04209 0.0
H822 H 0.02053 0.73782 0.95406 0.0
H823 H 0.01226 0.72386 0.90869 0.0
H824 H 0.08522 0.69996 0.91091 0.0
H825 H 0.09365 0.71335 0.95641 0.0
C826 C 0.16918 0.82864 0.05174 0.0
C827 C 0.19215 0.8205 0.04574 0.0
C828 C 0.13783 0.80913 0.04436 0.0
C829 C 0.12898 0.78118 0.03096 0.0
C830 C 0.15179 0.77287 0.02535 0.0
C831 C 0.18297 0.79222 0.0327 0.0
C832 C 0.09624 0.76067 0.02202 0.0
C833 C 0.09135 0.75394 0.996 0.0
C834 C 0.07024 0.74688 0.03877 0.0
C835 C 0.07399 0.7525 0.0665 0.0
C836 C 0.09396 0.74534 0.08053 0.0
C837 C 0.0975 0.7509 0.10666 0.0
C838 C 0.08098 0.76337 0.11899 0.0
C839 C 0.06081 0.77022 0.10523 0.0
C840 C 0.05722 0.76473 0.0791 0.0
C841 C 0.97736 0.64302 0.97058 0.0
C842 C 0.94984 0.64502 0.97118 0.0
C843 C 0.0046 0.66576 0.98244 0.0
C844 C 0.00519 0.69148 0.99458 0.0
C845 C 0.97725 0.69266 0.99654 0.0
C846 C 0.94959 0.66939 0.98497 0.0
C847 C 0.03573 0.71788 1.00333 0.0
C848 C 0.04018 0.72583 0.02915 0.0
C849 C 0.06145 0.73294 0.98641 0.0
C850 C 0.05766 0.72652 0.95869 0.0
C851 C 0.03482 0.72959 0.94488 0.0
C852 C 0.03005 0.72171 0.91915 0.0
C853 C 0.04815 0.71096 0.90693 0.0
C854 C 0.07122 0.7083 0.92039 0.0
C855 C 0.07606 0.7161 0.94615 0.0
H856 H 0.04431 0.70472 0.88704 0.0
H857 H 0.08375 0.76766 0.13922 0.0
H858 H 0.71009 0.63854 0.50431 0.0
H859 H 0.70135 0.67618 0.48 0.0
H860 H 0.67657 0.70598 0.54885 0.0
H861 H 0.68472 0.6686 0.5731 0.0
H862 H 0.64491 0.67926 0.47693 0.0
H863 H 0.70758 0.78492 0.54579 0.0
H864 H 0.75308 0.80752 0.57479 0.0
H865 H 0.79712 0.76705 0.53025 0.0
H866 H 0.75212 0.74461 0.50076 0.0
H867 H 0.58284 0.7811 0.47607 0.0
H868 H 0.60323 0.74607 0.48559 0.0
H869 H 0.69268 0.81279 0.45298 0.0
H870 H 0.67251 0.84838 0.44361 0.0
H871 H 0.70037 0.79302 0.498 0.0
H872 H 0.64347 0.74366 0.42277 0.0
H873 H 0.59808 0.72037 0.3937 0.0
H874 H 0.5444 0.64837 0.44834 0.0
H875 H 0.58925 0.67152 0.47794 0.0
C876 C 0.7031 0.65335 0.51429 0.0
C877 C 0.69836 0.65066 0.54072 0.0
C878 C 0.69799 0.6747 0.50036 0.0
C879 C 0.68862 0.69402 0.5127 0.0
C880 C 0.68421 0.69158 0.53902 0.0
C881 C 0.68889 0.6701 0.55286 0.0
C882 C 0.68241 0.71629 0.49837 0.0
C883 C 0.65719 0.70421 0.48124 0.0
C884 C 0.69881 0.74885 0.50383 0.0
C885 C 0.72636 0.76294 0.52113 0.0
C886 C 0.72706 0.78103 0.54207 0.0
C887 C 0.75275 0.79377 0.55862 0.0
C888 C 0.77794 0.78867 0.55439 0.0
C889 C 0.77755 0.77091 0.53354 0.0
C890 C 0.75194 0.75815 0.51692 0.0
C891 C 0.60681 0.78833 0.47073 0.0
C892 C 0.6261 0.81766 0.45917 0.0
C893 C 0.61836 0.76811 0.47603 0.0
C894 C 0.64938 0.77661 0.46974 0.0
C895 C 0.66863 0.80571 0.45792 0.0
C896 C 0.65706 0.82601 0.45258 0.0
C897 C 0.6621 0.7559 0.47709 0.0
C898 C 0.68844 0.76824 0.49312 0.0
C899 C 0.64679 0.7236 0.47047 0.0
C900 C 0.61974 0.70949 0.45266 0.0
C901 C 0.62192 0.723 0.42868 0.0
C902 C 0.59627 0.7098 0.41209 0.0
C903 C 0.56836 0.68294 0.41918 0.0
C904 C 0.56604 0.66919 0.44287 0.0
C905 C 0.59159 0.68233 0.45956 0.0
H906 H 0.54855 0.67273 0.4063 0.0
H907 H 0.79778 0.79851 0.56725 0.0
H908 H 0.14899 0.8301 0.45216 0.0
H909 H 0.18575 0.8836 0.46655 0.0
H910 H 0.26136 0.86275 0.46485 0.0
H911 H 0.22452 0.80904 0.45157 0.0
H912 H 0.26313 0.88784 0.507 0.0
H913 H 0.25477 0.91454 0.42158 0.0
H914 H 0.22787 0.91576 0.38247 0.0
H915 H 0.18766 0.96369 0.42207 0.0
H916 H 0.21397 0.96237 0.46153 0.0
H917 H 0.36916 0.07062 0.50617 0.0
H918 H 0.33292 0.0228 0.48294 0.0
H919 H 0.28702 0.97868 0.55318 0.0
H920 H 0.32425 0.0252 0.57647 0.0
H921 H 0.27387 0.98731 0.47384 0.0
H922 H 0.26411 0.90484 0.55586 0.0
H923 H 0.29555 0.90381 0.59199 0.0
H924 H 0.38059 0.9676 0.55298 0.0
H925 H 0.34957 0.9684 0.51634 0.0
C926 C 0.17355 0.83713 0.45451 0.0
C927 C 0.18385 0.81534 0.45095 0.0
C928 C 0.19461 0.86778 0.46262 0.0
C929 C 0.22645 0.87737 0.46674 0.0
C930 C 0.23692 0.85594 0.46201 0.0
C931 C 0.21584 0.82523 0.45437 0.0
C932 C 0.24836 0.90865 0.478 0.0
C933 C 0.2655 0.90955 0.49959 0.0
C934 C 0.2519 0.93715 0.46829 0.0
C935 C 0.23614 0.93811 0.44457 0.0
C936 C 0.24001 0.92514 0.422 0.0
C937 C 0.22489 0.92588 0.39976 0.0
C938 C 0.20601 0.93973 0.3998 0.0
C939 C 0.20227 0.95294 0.42207 0.0
C940 C 0.21731 0.95223 0.44438 0.0
C941 C 0.35115 0.0508 0.51662 0.0
C942 C 0.35004 0.05154 0.54326 0.0
C943 C 0.33039 0.02347 0.5033 0.0
C944 C 0.30783 0.99667 0.51637 0.0
C945 C 0.30499 0.99851 0.54271 0.0
C946 C 0.32619 0.02535 0.55604 0.0
C947 C 0.28831 0.9663 0.50288 0.0
C948 C 0.27156 0.96556 0.48103 0.0
C949 C 0.28576 0.93789 0.51185 0.0
C950 C 0.30457 0.93705 0.53355 0.0
C951 C 0.28952 0.91854 0.55496 0.0
C952 C 0.30725 0.91798 0.5755 0.0
C953 C 0.34004 0.93571 0.57478 0.0
C954 C 0.35519 0.95399 0.5535 0.0
C955 C 0.33757 0.95454 0.53287 0.0
H956 H 0.35371 0.93516 0.59066 0.0
H957 H 0.19433 0.94028 0.38256 0.0
H958 H 0.98856 0.34964 0.55921 0.0
H959 H 0.03433 0.35799 0.53497 0.0
H960 H 0.97694 0.27269 0.49298 0.0
H961 H 0.93039 0.26436 0.5169 0.0
H962 H 0.03972 0.28404 0.51454 0.0
H963 H 0.99373 0.3283 0.46108 0.0
H964 H 0.96887 0.35991 0.45103 0.0
H965 H 0.05179 0.44358 0.47572 0.0
H966 H 0.07698 0.41236 0.48644 0.0
H967 H 0.17547 0.32949 0.43676 0.0
H968 H 0.12044 0.30996 0.44843 0.0
H969 H 0.14689 0.39826 0.48525 0.0
H970 H 0.20151 0.41804 0.47339 0.0
H971 H 0.09359 0.3782 0.4593 0.0
H972 H 0.1358 0.33326 0.51869 0.0
H973 H 0.16087 0.30226 0.53038 0.0
H974 H 0.08517 0.22036 0.49541 0.0
H975 H 0.05986 0.25104 0.48322 0.0
C976 C 0.98553 0.33248 0.54494 0.0
C977 C 0.95576 0.30632 0.53998 0.0
C978 C 0.01175 0.33738 0.53105 0.0
C979 C 0.00891 0.31603 0.51217 0.0
C980 C 0.97948 0.28942 0.5075 0.0
C981 C 0.95298 0.28477 0.52112 0.0
C982 C 0.03699 0.32233 0.49728 0.0
C983 C 0.05119 0.30414 0.50194 0.0
C984 C 0.05206 0.34888 0.48125 0.0
C985 C 0.03715 0.3679 0.47477 0.0
C986 C 0.00658 0.35339 0.46462 0.0
C987 C 0.99244 0.37124 0.45876 0.0
C988 C 0.00874 0.4037 0.46276 0.0
C989 C 0.03922 0.41841 0.47264 0.0
C990 C 0.05344 0.40064 0.4786 0.0
C991 C 0.1695 0.3448 0.44719 0.0
C992 C 0.19295 0.37524 0.45432 0.0
C993 C 0.13806 0.33358 0.45389 0.0
C994 C 0.12958 0.35253 0.46796 0.0
C995 C 0.15283 0.38321 0.47438 0.0
C996 C 0.18414 0.39444 0.46767 0.0
C997 C 0.09687 0.34038 0.477 0.0
C998 C 0.08184 0.35762 0.47137 0.0
C999 C 0.08112 0.31302 0.49223 0.0
C1000 C 0.09615 0.29452 0.49977 0.0
C1001 C 0.12463 0.3087 0.51334 0.0
C1002 C 0.13886 0.29118 0.52007 0.0
C1003 C 0.12468 0.25939 0.51356 0.0
C1004 C 0.09616 0.24501 0.50039 0.0
C1005 C 0.08186 0.26244 0.49357 0.0
H1006 H 0.13575 0.24587 0.51877 0.0
H1007 H 0.99775 0.41741 0.45813 0.0
H1008 H 0.63635 0.71199 0.00824 0.0
H1009 H 0.67135 0.70071 0.98271 0.0
H1010 H 0.70543 0.67912 0.05082 0.0
H1011 H 0.67047 0.68959 0.07625 0.0
H1012 H 0.73455 0.72111 0.97962 0.0
H1013 H 0.70598 0.61086 0.04194 0.0
H1014 H 0.66164 0.57205 0.06778 0.0
H1015 H 0.59785 0.59029 0.02526 0.0
H1016 H 0.64142 0.62801 0.9985 0.0
H1017 H 0.85149 0.67896 0.96542 0.0
H1018 H 0.8136 0.69521 0.97718 0.0
H1019 H 0.73741 0.60411 0.95478 0.0
H1020 H 0.77531 0.5872 0.94484 0.0
H1021 H 0.72177 0.61568 0.9953 0.0
H1022 H 0.76022 0.6775 0.92141 0.0
H1023 H 0.79898 0.71439 0.89074 0.0
H1024 H 0.83336 0.78815 0.94633 0.0
H1025 H 0.79511 0.75159 0.97748 0.0
C1026 C 0.65166 0.70531 0.0178 0.0
C1027 C 0.65027 0.70134 0.04431 0.0
C1028 C 0.67168 0.69894 1.00317 0.0
C1029 C 0.69055 0.68854 0.01485 0.0
C1030 C 0.69066 0.68659 0.04138 0.0
C1031 C 0.67062 0.69268 0.05592 0.0
C1032 C 0.70848 0.67735 0.99966 0.0
C1033 C 0.7318 0.69805 0.98287 0.0
C1034 C 0.70379 0.64669 1.00308 0.0
C1035 C 0.67714 0.62263 0.01837 0.0
C1036 C 0.68244 0.6063 0.03789 0.0
C1037 C 0.65739 0.5844 0.05269 0.0
C1038 C 0.62692 0.57867 0.0482 0.0
C1039 C 0.62139 0.59458 0.02872 0.0
C1040 C 0.64626 0.61618 0.01369 0.0
C1041 C 0.82665 0.66262 0.9627 0.0
C1042 C 0.81627 0.63184 0.95431 0.0
C1043 C 0.80494 0.67198 0.96924 0.0
C1044 C 0.77243 0.65109 0.96663 0.0
C1045 C 0.76224 0.6207 0.95717 0.0
C1046 C 0.7839 0.61105 0.95138 0.0
C1047 C 0.74913 0.65992 0.97583 0.0
C1048 C 0.72457 0.63866 0.9916 0.0
C1049 C 0.75186 0.68954 0.97052 0.0
C1050 C 0.7749 0.71171 0.95185 0.0
C1051 C 0.77618 0.70153 0.92716 0.0
C1052 C 0.79805 0.72239 0.90967 0.0
C1053 C 0.81865 0.75358 0.91659 0.0
C1054 C 0.81739 0.76398 0.941 0.0
C1055 C 0.79558 0.7432 0.95857 0.0
H1056 H 0.83557 0.7697 0.90302 0.0
H1057 H 0.60762 0.56191 0.05982 0.0
H1058 H 0.42104 0.19796 0.96938 0.0
H1059 H 0.40171 0.14273 0.97837 0.0
H1060 H 0.31094 0.11881 0.94781 0.0
H1061 H 0.3301 0.17459 0.93901 0.0
H1062 H 0.30472 0.08944 0.99204 0.0
H1063 H 0.35833 0.09927 0.91539 0.0
H1064 H 0.40121 0.12259 0.88399 0.0
H1065 H 0.46202 0.11006 0.93513 0.0
H1066 H 0.41977 0.08711 0.96707 0.0
H1067 H 0.26861 0.92799 0.01211 0.0
H1068 H 0.27716 0.97453 0.98794 0.0
H1069 H 0.36691 0.02998 0.02466 0.0
H1070 H 0.35829 0.98417 0.04914 0.0
H1071 H 0.36554 0.03721 0.96891 0.0
H1072 H 0.31237 0.0364 0.04757 0.0
H1073 H 0.26819 0.01148 0.07771 0.0
H1074 H 0.20424 0.00522 0.0194 0.0
H1075 H 0.24804 0.02958 0.98877 0.0
C1076 C 0.397 0.18104 0.96437 0.0
C1077 C 0.3771 0.19075 0.95349 0.0
C1078 C 0.38603 0.14936 0.96939 0.0
C1079 C 0.35499 0.12652 0.96346 0.0
C1080 C 0.33502 0.13603 0.95244 0.0
C1081 C 0.34603 0.16788 0.94739 0.0
C1082 C 0.34343 0.09309 0.97004 0.0
C1083 C 0.31755 0.07773 0.98643 0.0
C1084 C 0.36018 0.07775 0.96281 0.0
C1085 C 0.38583 0.09154 0.9437 0.0
C1086 C 0.38091 0.10166 0.92004 0.0
C1087 C 0.40511 0.11479 0.90213 0.0
C1088 C 0.4343 0.11773 0.90757 0.0
C1089 C 0.43938 0.10766 0.93096 0.0
C1090 C 0.41529 0.09455 0.94896 0.0
C1091 C 0.29018 0.95012 0.01489 0.0
C1092 C 0.31265 0.95258 0.03267 0.0
C1093 C 0.29502 0.97658 1.00111 0.0
C1094 C 0.32268 0.00558 0.00455 0.0
C1095 C 0.34548 0.00777 0.02171 0.0
C1096 C 0.34038 0.98163 0.03583 0.0
C1097 C 0.32764 0.03431 0.99139 0.0
C1098 C 0.3523 0.04871 0.97387 0.0
C1099 C 0.30957 0.04858 0.99731 0.0
C1100 C 0.28338 0.0344 0.01581 0.0
C1101 C 0.28884 0.02943 0.04112 0.0
C1102 C 0.26389 0.01546 0.0583 0.0
C1103 C 0.23341 0.00668 0.05046 0.0
C1104 C 0.22785 0.01196 0.02543 0.0
C1105 C 0.25273 0.02584 0.00815 0.0
H1106 H 0.21411 0.99587 0.06378 0.0
H1107 H 0.45298 0.12776 0.89367 0.0
H1108 H 0.07228 0.33784 0.01747 0.0
H1109 H 0.02501 0.2973 0.99617 0.0
H1110 H 0.96716 0.3094 0.0515 0.0
H1111 H 0.01393 0.34881 0.07332 0.0
H1112 H 0.94308 0.25013 0.04195 0.0
H1113 H 0.98342 0.34424 0.99117 0.0
H1114 H 0.02429 0.38828 0.96634 0.0
H1115 H 0.02757 0.32298 0.91396 0.0
H1116 H 0.98707 0.27851 0.93876 0.0
H1117 H 0.80065 0.20761 0.98184 0.0
H1118 H 0.85414 0.23979 0.9975 0.0
H1119 H 0.886 0.19234 0.94708 0.0
H1120 H 0.83203 0.15945 0.93127 0.0
H1121 H 0.92585 0.26335 0.95108 0.0
H1122 H 0.87875 0.16902 1.00186 0.0
H1123 H 0.83624 0.12777 0.02761 0.0
H1124 H 0.84386 0.19743 0.08088 0.0
H1125 H 0.88609 0.23917 0.05523 0.0
C1126 C 0.04948 0.33166 0.02521 0.0
C1127 C 0.04695 0.34675 0.04704 0.0
C1128 C 0.02248 0.30858 0.01294 0.0
C1129 C 0.99248 0.3006 0.022 0.0
C1130 C 0.99 0.31509 0.04413 0.0
C1131 C 0.01687 0.33778 0.05656 0.0
C1132 C 0.96347 0.27789 0.00829 0.0
C1133 C 0.93938 0.25312 0.02209 0.0
C1134 C 0.95873 0.28135 0.98223 0.0
C1135 C 0.98249 0.30806 0.96696 0.0
C1136 C 0.99298 0.33928 0.97443 0.0
C1137 C 0.01607 0.36431 0.96037 0.0
C1138 C 0.02858 0.35843 0.93863 0.0
C1139 C 0.01791 0.3275 0.93084 0.0
C1140 C 0.99488 0.30237 0.94488 0.0
C1141 C 0.81896 0.20407 0.97384 0.0
C1142 C 0.81201 0.18076 0.95542 0.0
C1143 C 0.84953 0.22252 0.98285 0.0
C1144 C 0.87386 0.21824 0.97355 0.0
C1145 C 0.86742 0.1959 0.95446 0.0
C1146 C 0.83662 0.17709 0.94557 0.0
C1147 C 0.90553 0.23626 0.98497 0.0
C1148 C 0.92996 0.26011 0.97078 0.0
C1149 C 0.91046 0.23236 0.0108 0.0
C1150 C 0.88546 0.20724 0.02653 0.0
C1151 C 0.87122 0.17557 0.01898 0.0
C1152 C 0.84719 0.15209 0.03357 0.0
C1153 C 0.83732 0.15998 0.05585 0.0
C1154 C 0.85153 0.19135 0.06362 0.0
C1155 C 0.87554 0.21492 0.04908 0.0
H1156 H 0.81869 0.14177 0.06711 0.0
H1157 H 0.0465 0.37785 0.92779 0.0
H1158 H 0.4092 0.20942 0.52444 0.0
H1159 H 0.39169 0.2461 0.51284 0.0
H1160 H 0.32087 0.20787 0.57137 0.0
H1161 H 0.33773 0.16998 0.58257 0.0
H1162 H 0.29648 0.21734 0.5309 0.0
H1163 H 0.38916 0.28103 0.57748 0.0
H1164 H 0.44437 0.30433 0.59111 0.0
H1165 H 0.47552 0.3461 0.5176 0.0
H1166 H 0.42054 0.3225 0.50333 0.0
H1167 H 0.28424 0.35891 0.5013 0.0
H1168 H 0.29334 0.32186 0.52619 0.0
H1169 H 0.3429 0.31107 0.4631 0.0
H1170 H 0.33394 0.34747 0.43812 0.0
H1171 H 0.37466 0.32966 0.51597 0.0
H1172 H 0.27899 0.25534 0.46923 0.0
H1173 H 0.22322 0.23444 0.45819 0.0
H1174 H 0.19792 0.2165 0.53687 0.0
H1175 H 0.25367 0.23775 0.54839 0.0
C1176 C 0.38999 0.20884 0.53499 0.0
C1177 C 0.37497 0.18688 0.55454 0.0
C1178 C 0.38009 0.23002 0.52842 0.0
C1179 C 0.3554 0.23034 0.5416 0.0
C1180 C 0.3401 0.20824 0.56103 0.0
C1181 C 0.34977 0.18664 0.56742 0.0
C1182 C 0.3453 0.25325 0.53429 0.0
C1183 C 0.31357 0.24201 0.52813 0.0
C1184 C 0.3674 0.28561 0.53083 0.0
C1185 C 0.40063 0.29979 0.53928 0.0
C1186 C 0.40777 0.29495 0.56414 0.0
C1187 C 0.43904 0.30823 0.57199 0.0
C1188 C 0.46344 0.32663 0.55522 0.0
C1189 C 0.45661 0.33182 0.53057 0.0
C1190 C 0.42538 0.3185 0.52259 0.0
C1191 C 0.29684 0.34844 0.49265 0.0
C1192 C 0.30845 0.35634 0.46769 0.0
C1193 C 0.30201 0.32734 0.50691 0.0
C1194 C 0.31898 0.31405 0.49646 0.0
C1195 C 0.32997 0.32135 0.4715 0.0
C1196 C 0.3247 0.34215 0.45724 0.0
C1197 C 0.32654 0.29327 0.51146 0.0
C1198 C 0.35772 0.30505 0.51918 0.0
C1199 C 0.30396 0.26169 0.51671 0.0
C1200 C 0.27049 0.24848 0.50969 0.0
C1201 C 0.26157 0.24721 0.48419 0.0
C1202 C 0.22996 0.23524 0.47784 0.0
C1203 C 0.20705 0.22425 0.49682 0.0
C1204 C 0.2157 0.22507 0.52219 0.0
C1205 C 0.24728 0.23706 0.52863 0.0
H1206 H 0.1826 0.21502 0.49188 0.0
H1207 H 0.48763 0.33692 0.56134 0.0
H1208 H 0.8516 0.16992 0.56636 0.0
H1209 H 0.8142 0.11447 0.55691 0.0
H1210 H 0.74503 0.13944 0.53442 0.0
H1211 H 0.78186 0.1944 0.54385 0.0
H1212 H 0.71846 0.08596 0.56196 0.0
H1213 H 0.78979 0.13022 0.49073 0.0
H1214 H 0.84186 0.15612 0.47017 0.0
H1215 H 0.85665 0.08088 0.49406 0.0
H1216 H 0.80479 0.05474 0.51507 0.0
H1217 H 0.65232 0.98438 0.44524 0.0
H1218 H 0.69008 0.02926 0.46983 0.0
H1219 H 0.67255 0.96971 0.53497 0.0
H1220 H 0.63405 0.92405 0.51039 0.0
H1221 H 0.74507 0.03463 0.49295 0.0
H1222 H 0.67508 0.00193 0.57555 0.0
H1223 H 0.6243 0.98504 0.5969 0.0
H1224 H 0.60628 0.0431 0.54668 0.0
H1225 H 0.65686 0.06005 0.52496 0.0
C1226 C 0.8283 0.16349 0.55966 0.0
C1227 C 0.81981 0.18661 0.55566 0.0
C1228 C 0.80701 0.13184 0.55422 0.0
C1229 C 0.77689 0.12286 0.54481 0.0
C1230 C 0.76808 0.14578 0.54172 0.0
C1231 C 0.7893 0.17728 0.54698 0.0
C1232 C 0.75482 0.09006 0.53675 0.0
C1233 C 0.72447 0.07455 0.54713 0.0
C1234 C 0.76254 0.07511 0.51738 0.0
C1235 C 0.79365 0.09077 0.50475 0.0
C1236 C 0.80428 0.11935 0.49178 0.0
C1237 C 0.83372 0.13404 0.48002 0.0
C1238 C 0.85261 0.12021 0.48089 0.0
C1239 C 0.84204 0.0916 0.49346 0.0
C1240 C 0.81263 0.07684 0.5053 0.0
C1241 C 0.65628 0.98054 0.46479 0.0
C1242 C 0.64022 0.95035 0.4757 0.0
C1243 C 0.67792 0.00639 0.47886 0.0
C1244 C 0.68404 0.0029 0.50424 0.0
C1245 C 0.66792 0.97298 0.51547 0.0
C1246 C 0.64616 0.94687 0.5013 0.0
C1247 C 0.70861 0.03071 0.518 0.0
C1248 C 0.73945 0.0455 0.50848 0.0
C1249 C 0.7013 0.04518 0.53793 0.0
C1250 C 0.66933 0.03179 0.54846 0.0
C1251 C 0.65996 0.01059 0.56882 0.0
C1252 C 0.63141 0.00126 0.58111 0.0
C1253 C 0.61225 0.01326 0.57331 0.0
C1254 C 0.62127 0.03403 0.55282 0.0
C1255 C 0.64974 0.04333 0.54041 0.0
H1256 H 0.59029 0.00623 0.58299 0.0
H1257 H 0.87539 0.13162 0.47176 0.0
H1258 H 0.07435 0.71446 0.5 0.0
H1259 H 0.02764 0.70231 0.52518 0.0
H1260 H 0.97079 0.67141 0.45746 0.0
H1261 H 0.01673 0.68258 0.43243 0.0
H1262 H 0.98419 0.72025 0.5262 0.0
H1263 H 0.90372 0.60579 0.46822 0.0
H1264 H 0.90939 0.56494 0.44553 0.0
H1265 H 0.98987 0.58519 0.49099 0.0
H1266 H 0.98433 0.62566 0.51432 0.0
H1267 H 0.82566 0.67889 0.54004 0.0
H1268 H 0.8794 0.69406 0.52789 0.0
H1269 H 0.86502 0.60477 0.55506 0.0
H1270 H 0.81053 0.58878 0.56532 0.0
H1271 H 0.89205 0.61345 0.51474 0.0
H1272 H 0.91577 0.68049 0.58534 0.0
H1273 H 0.91382 0.71933 0.61381 0.0
H1274 H 0.95202 0.78899 0.55498 0.0
H1275 H 0.95378 0.75045 0.526 0.0
C1276 C 0.05195 0.70538 0.49045 0.0
C1277 C 0.04929 0.69922 0.4642 0.0
C1278 C 0.0253 0.69849 0.50487 0.0
C1279 C 0.99565 0.68539 0.49326 0.0
C1280 C 0.99332 0.68087 0.46691 0.0
C1281 C 0.01973 0.68744 0.45258 0.0
C1282 C 0.96669 0.67506 0.50846 0.0
C1283 C 0.96402 0.69688 0.52388 0.0
C1284 C 0.94091 0.64409 0.50636 0.0
C1285 C 0.94372 0.61897 0.4929 0.0
C1286 C 0.92247 0.60136 0.47353 0.0
C1287 C 0.92568 0.57827 0.46054 0.0
C1288 C 0.95 0.5725 0.4668 0.0
C1289 C 0.97106 0.58968 0.48616 0.0
C1290 C 0.9679 0.61271 0.49925 0.0
C1291 C 0.83419 0.66273 0.54367 0.0
C1292 C 0.81405 0.63269 0.55355 0.0
C1293 C 0.86504 0.67147 0.53691 0.0
C1294 C 0.87672 0.6508 0.54083 0.0
C1295 C 0.85674 0.62117 0.55165 0.0
C1296 C 0.82562 0.61206 0.55763 0.0
C1297 C 0.90877 0.65907 0.53187 0.0
C1298 C 0.91213 0.63675 0.51754 0.0
C1299 C 0.93556 0.6891 0.53606 0.0
C1300 C 0.93471 0.71248 0.55343 0.0
C1301 C 0.92358 0.70403 0.57841 0.0
C1302 C 0.92253 0.72601 0.59465 0.0
C1303 C 0.93275 0.75659 0.5862 0.0
C1304 C 0.94411 0.76528 0.5615 0.0
C1305 C 0.94518 0.7434 0.54517 0.0
H1306 H 0.93191 0.77356 0.5988 0.0
H1307 H 0.95252 0.5547 0.45667 0.0
H1308 H 0.29834 0.50398 0.35661 0.0
H1309 H 0.27318 0.50945 0.31829 0.0
H1310 H 0.27947 0.43344 0.2832 0.0
H1311 H 0.30415 0.42756 0.32137 0.0
H1312 H 0.28719 0.52156 0.26847 0.0
H1313 H 0.2131 0.3873 0.25039 0.0
H1314 H 0.18987 0.33778 0.27474 0.0
H1315 H 0.187 0.38653 0.34142 0.0
H1316 H 0.20983 0.4362 0.31741 0.0
H1317 H 0.21758 0.49108 0.14493 0.0
H1318 H 0.24663 0.496 0.18393 0.0
H1319 H 0.15955 0.45095 0.22585 0.0
H1320 H 0.13037 0.44484 0.18673 0.0
H1321 H 0.19091 0.42569 0.23944 0.0
H1322 H 0.21797 0.53329 0.23092 0.0
H1323 H 0.2379 0.58445 0.20953 0.0
H1324 H 0.32843 0.59215 0.20083 0.0
H1325 H 0.30893 0.54085 0.2219 0.0
C1326 C 0.29481 0.48873 0.3406 0.0
C1327 C 0.30316 0.46519 0.34223 0.0
C1328 C 0.2804 0.4919 0.31866 0.0
C1329 C 0.27389 0.47153 0.29792 0.0
C1330 C 0.28367 0.4491 0.29906 0.0
C1331 C 0.29796 0.44587 0.32094 0.0
C1332 C 0.25545 0.47245 0.27567 0.0
C1333 C 0.26615 0.50061 0.26208 0.0
C1334 C 0.22751 0.44537 0.2676 0.0
C1335 C 0.21346 0.41551 0.28214 0.0
C1336 C 0.20741 0.38741 0.27022 0.0
C1337 C 0.19434 0.35932 0.28398 0.0
C1338 C 0.18706 0.35902 0.30963 0.0
C1339 C 0.19276 0.3868 0.32157 0.0
C1340 C 0.2058 0.41493 0.30791 0.0
C1341 C 0.20465 0.48275 0.16253 0.0
C1342 C 0.17159 0.46762 0.16265 0.0
C1343 C 0.22135 0.48564 0.18493 0.0
C1344 C 0.20548 0.47407 0.20812 0.0
C1345 C 0.17251 0.45997 0.20833 0.0
C1346 C 0.1558 0.45664 0.18591 0.0
C1347 C 0.2228 0.47475 0.23177 0.0
C1348 C 0.21192 0.44677 0.24569 0.0
C1349 C 0.25009 0.50222 0.24044 0.0
C1350 C 0.2619 0.53309 0.2278 0.0
C1351 C 0.24207 0.54579 0.22429 0.0
C1352 C 0.2533 0.57483 0.21225 0.0
C1353 C 0.28439 0.59151 0.20377 0.0
C1354 C 0.30434 0.5792 0.20738 0.0
C1355 C 0.29322 0.55016 0.2194 0.0
H1356 H 0.29304 0.61399 0.19446 0.0
H1357 H 0.17692 0.33725 0.32022 0.0
H1358 H 0.49937 0.70005 0.15903 0.0
H1359 H 0.49308 0.72441 0.19748 0.0
H1360 H 0.57589 0.72861 0.22952 0.0
H1361 H 0.58197 0.7038 0.19152 0.0
H1362 H 0.5339 0.71509 0.26583 0.0
H1363 H 0.57898 0.79229 0.19983 0.0
H1364 H 0.58129 0.81387 0.15715 0.0
H1365 H 0.4948 0.81312 0.17128 0.0
H1366 H 0.49173 0.79103 0.21393 0.0
H1367 H 0.57836 0.87506 0.32807 0.0
H1368 H 0.57388 0.84408 0.29047 0.0
H1369 H 0.49254 0.76401 0.32261 0.0
H1370 H 0.4972 0.79476 0.36062 0.0
H1371 H 0.53209 0.81449 0.25429 0.0
H1372 H 0.49367 0.69714 0.30629 0.0
H1373 H 0.49758 0.67871 0.34898 0.0
H1374 H 0.58248 0.766 0.363 0.0
H1375 H 0.57933 0.78475 0.32029 0.0
C1376 C 0.51592 0.70562 0.17443 0.0
C1377 C 0.54126 0.70001 0.17203 0.0
C1378 C 0.51242 0.71977 0.19639 0.0
C1379 C 0.53429 0.72887 0.21637 0.0
C1380 C 0.55869 0.7219 0.21447 0.0
C1381 C 0.56217 0.70772 0.1926 0.0
C1382 C 0.53301 0.74728 0.23854 0.0
C1383 C 0.53321 0.73666 0.26327 0.0
C1384 C 0.53289 0.77591 0.2354 0.0
C1385 C 0.53496 0.78971 0.20996 0.0
C1386 C 0.56036 0.79656 0.19377 0.0
C1387 C 0.56182 0.80888 0.16959 0.0
C1388 C 0.53816 0.81479 0.16148 0.0
C1389 C 0.51307 0.80848 0.17757 0.0
C1390 C 0.51147 0.79607 0.20176 0.0
C1391 C 0.55924 0.85097 0.32709 0.0
C1392 C 0.5382 0.83745 0.34753 0.0
C1393 C 0.55668 0.83325 0.30547 0.0
C1394 C 0.53313 0.80151 0.3037 0.0
C1395 C 0.51124 0.7883 0.3236 0.0
C1396 C 0.51381 0.80601 0.3453 0.0
C1397 C 0.53254 0.78208 0.28159 0.0
C1398 C 0.5322 0.79262 0.25687 0.0
C1399 C 0.53342 0.75383 0.28475 0.0
C1400 C 0.53603 0.74245 0.31021 0.0
C1401 C 0.51324 0.71232 0.31845 0.0
C1402 C 0.51532 0.70184 0.34265 0.0
C1403 C 0.54018 0.72123 0.35872 0.0
C1404 C 0.56316 0.75106 0.35057 0.0
C1405 C 0.56123 0.76163 0.32637 0.0
H1406 H 0.54165 0.71313 0.37748 0.0
H1407 H 0.53931 0.82431 0.14275 0.0
H1408 H 0.30793 0.87854 0.18174 0.0
H1409 H 0.28353 0.84973 0.22069 0.0
H1410 H 0.26012 0.7625 0.1833 0.0
H1411 H 0.2855 0.7914 0.14451 0.0
H1412 H 0.22695 0.81089 0.23122 0.0
H1413 H 0.25091 0.70635 0.22594 0.0
H1414 H 0.2922 0.69558 0.21095 0.0
H1415 H 0.36134 0.7933 0.21893 0.0
H1416 H 0.32056 0.80457 0.23428 0.0
H1417 H 0.12339 0.69668 0.31662 0.0
H1418 H 0.15355 0.72143 0.27827 0.0
H1419 H 0.23914 0.74223 0.31705 0.0
H1420 H 0.20891 0.71657 0.35533 0.0
H1421 H 0.24362 0.72831 0.27 0.0
H1422 H 0.21868 0.80106 0.30878 0.0
H1423 H 0.18472 0.81884 0.32837 0.0
H1424 H 0.12895 0.79485 0.26054 0.0
H1425 H 0.16299 0.77731 0.24041 0.0
C1426 C 0.29806 0.85327 0.1819 0.0
C1427 C 0.29888 0.83737 0.15995 0.0
C1428 C 0.2839 0.83673 0.20421 0.0
C1429 C 0.26994 0.80379 0.20521 0.0
C1430 C 0.27116 0.7879 0.18338 0.0
C1431 C 0.28568 0.8045 0.16111 0.0
C1432 C 0.25284 0.78618 0.22862 0.0
C1433 C 0.23071 0.79284 0.23956 0.0
C1434 C 0.25787 0.7629 0.24011 0.0
C1435 C 0.28259 0.75633 0.23099 0.0
C1436 C 0.27493 0.72551 0.22456 0.0
C1437 C 0.29825 0.71933 0.21599 0.0
C1438 C 0.32935 0.74376 0.2139 0.0
C1439 C 0.33722 0.77442 0.22045 0.0
C1440 C 0.314 0.78072 0.22905 0.0
C1441 C 0.14858 0.70611 0.31693 0.0
C1442 C 0.16367 0.70468 0.33918 0.0
C1443 C 0.1659 0.72052 0.29498 0.0
C1444 C 0.19884 0.73445 0.29477 0.0
C1445 C 0.21382 0.73182 0.31662 0.0
C1446 C 0.19645 0.71708 0.33855 0.0
C1447 C 0.2176 0.75285 0.27222 0.0
C1448 C 0.23991 0.7463 0.26147 0.0
C1449 C 0.21362 0.77704 0.26136 0.0
C1450 C 0.19315 0.78762 0.27321 0.0
C1451 C 0.19907 0.79946 0.2981 0.0
C1452 C 0.17983 0.80951 0.30929 0.0
C1453 C 0.15447 0.80771 0.29582 0.0
C1454 C 0.14854 0.79615 0.27099 0.0
C1455 C 0.16789 0.78629 0.25963 0.0
H1456 H 0.13951 0.81539 0.30457 0.0
H1457 H 0.34736 0.73892 0.20725 0.0
H1458 H 0.79068 0.51 0.86078 0.0
H1459 H 0.76213 0.50598 0.8217 0.0
H1460 H 0.85008 0.56378 0.78301 0.0
H1461 H 0.8786 0.56895 0.82234 0.0
H1462 H 0.81421 0.58398 0.77068 0.0
H1463 H 0.79983 0.4807 0.77209 0.0
H1464 H 0.78533 0.42861 0.78961 0.0
H1465 H 0.68981 0.40751 0.79839 0.0
H1466 H 0.70382 0.45964 0.7812 0.0
H1467 H 0.71265 0.50633 0.65004 0.0
H1468 H 0.73865 0.50126 0.68796 0.0
H1469 H 0.72482 0.57122 0.72595 0.0
H1470 H 0.69954 0.57692 0.68807 0.0
H1471 H 0.72556 0.48543 0.73622 0.0
H1472 H 0.78592 0.61828 0.76063 0.0
H1473 H 0.80605 0.66897 0.73831 0.0
H1474 H 0.82018 0.62846 0.67089 0.0
H1475 H 0.80006 0.57765 0.69275 0.0
C1476 C 0.80398 0.52143 0.84384 0.0
C1477 C 0.83699 0.53973 0.84473 0.0
C1478 C 0.78758 0.51905 0.82139 0.0
C1479 C 0.80379 0.53434 0.7991 0.0
C1480 C 0.83684 0.55183 0.79984 0.0
C1481 C 0.8532 0.55463 0.82236 0.0
C1482 C 0.78643 0.53371 0.77548 0.0
C1483 C 0.79487 0.56232 0.76327 0.0
C1484 C 0.76147 0.50554 0.76516 0.0
C1485 C 0.75295 0.4742 0.77558 0.0
C1486 C 0.77578 0.46505 0.77794 0.0
C1487 C 0.76764 0.43549 0.78778 0.0
C1488 C 0.73669 0.41479 0.79517 0.0
C1489 C 0.71379 0.42358 0.79268 0.0
C1490 C 0.7218 0.45312 0.78287 0.0
C1491 C 0.71472 0.52031 0.6666 0.0
C1492 C 0.70413 0.5422 0.66587 0.0
C1493 C 0.72965 0.51739 0.68831 0.0
C1494 C 0.73432 0.53627 0.70976 0.0
C1495 C 0.72221 0.55686 0.70951 0.0
C1496 C 0.70753 0.55996 0.68782 0.0
C1497 C 0.7531 0.53568 0.73192 0.0
C1498 C 0.7449 0.50696 0.7438 0.0
C1499 C 0.77906 0.56357 0.74146 0.0
C1500 C 0.79123 0.59414 0.72826 0.0
C1501 C 0.79335 0.62025 0.74105 0.0
C1502 C 0.80467 0.64897 0.72845 0.0
C1503 C 0.8142 0.65191 0.70314 0.0
C1504 C 0.81252 0.62614 0.6904 0.0
C1505 C 0.80109 0.59736 0.70287 0.0
H1506 H 0.82299 0.67417 0.69343 0.0
H1507 H 0.73043 0.39192 0.80277 0.0
H1508 H 0.42355 0.29991 0.82569 0.0
H1509 H 0.42794 0.27409 0.78759 0.0
H1510 H 0.51124 0.27769 0.8179 0.0
H1511 H 0.50667 0.30304 0.85639 0.0
H1512 H 0.4688 0.28671 0.75044 0.0
H1513 H 0.51137 0.2108 0.80201 0.0
H1514 H 0.50901 0.18963 0.84493 0.0
H1515 H 0.42286 0.18932 0.85959 0.0
H1516 H 0.42448 0.21007 0.81667 0.0
H1517 H 0.50239 0.20645 0.65443 0.0
H1518 H 0.50849 0.23732 0.6927 0.0
H1519 H 0.42845 0.15733 0.72632 0.0
H1520 H 0.42264 0.12623 0.68854 0.0
H1521 H 0.47049 0.18722 0.76182 0.0
H1522 H 0.42199 0.21635 0.69666 0.0
H1523 H 0.41763 0.23465 0.6541 0.0
H1524 H 0.50267 0.32227 0.66684 0.0
H1525 H 0.50781 0.30426 0.70935 0.0
C1526 C 0.44309 0.29562 0.82419 0.0
C1527 C 0.46468 0.30351 0.84428 0.0
C1528 C 0.44559 0.28086 0.80228 0.0
C1529 C 0.46967 0.27347 0.79987 0.0
C1530 C 0.49214 0.28264 0.81938 0.0
C1531 C 0.48961 0.29736 0.84137 0.0
C1532 C 0.47011 0.25468 0.77766 0.0
C1533 C 0.46945 0.26511 0.75296 0.0
C1534 C 0.4701 0.22598 0.78077 0.0
C1535 C 0.46827 0.21232 0.80624 0.0
C1536 C 0.49184 0.20603 0.81434 0.0
C1537 C 0.49064 0.19414 0.83868 0.0
C1538 C 0.46589 0.18829 0.85501 0.0
C1539 C 0.44209 0.194 0.84696 0.0
C1540 C 0.44314 0.20583 0.82264 0.0
C1541 C 0.48643 0.19523 0.67014 0.0
C1542 C 0.46194 0.1638 0.66825 0.0
C1543 C 0.48981 0.21302 0.692 0.0
C1544 C 0.46862 0.1999 0.71238 0.0
C1545 C 0.44511 0.16811 0.71096 0.0
C1546 C 0.44178 0.15032 0.68921 0.0
C1547 C 0.4697 0.21951 0.73455 0.0
C1548 C 0.4704 0.2091 0.75926 0.0
C1549 C 0.46875 0.24773 0.73146 0.0
C1550 C 0.46546 0.25884 0.70608 0.0
C1551 C 0.43986 0.23945 0.69033 0.0
C1552 C 0.43724 0.24976 0.66621 0.0
C1553 C 0.4599 0.27957 0.65774 0.0
C1554 C 0.48517 0.29916 0.67341 0.0
C1555 C 0.48794 0.28892 0.69752 0.0
H1556 H 0.45785 0.28751 0.63906 0.0
H1557 H 0.46515 0.17936 0.8739 0.0
H1558 H 0.70141 0.12477 0.81751 0.0
H1559 H 0.7262 0.15599 0.77966 0.0
H1560 H 0.73741 0.23889 0.81746 0.0
H1561 H 0.71198 0.20757 0.85541 0.0
H1562 H 0.72368 0.24052 0.76871 0.0
H1563 H 0.80026 0.22662 0.81316 0.0
H1564 H 0.82179 0.19742 0.83543 0.0
H1565 H 0.80996 0.14298 0.76831 0.0
H1566 H 0.78844 0.17206 0.74558 0.0
H1567 H 0.87794 0.31513 0.68405 0.0
H1568 H 0.84925 0.29142 0.72319 0.0
H1569 H 0.76135 0.25684 0.68327 0.0
H1570 H 0.79001 0.28153 0.64425 0.0
H1571 H 0.81505 0.2346 0.73538 0.0
H1572 H 0.70164 0.24284 0.72329 0.0
H1573 H 0.68559 0.27911 0.70536 0.0
H1574 H 0.77961 0.35642 0.71443 0.0
H1575 H 0.79613 0.3207 0.73269 0.0
C1576 C 0.70871 0.14956 0.81774 0.0
C1577 C 0.70477 0.16361 0.83966 0.0
C1578 C 0.7231 0.16748 0.79604 0.0
C1579 C 0.73432 0.20002 0.79574 0.0
C1580 C 0.72909 0.21388 0.81715 0.0
C1581 C 0.7145 0.19589 0.83889 0.0
C1582 C 0.75282 0.21962 0.77357 0.0
C1583 C 0.74362 0.23919 0.76137 0.0
C1584 C 0.77948 0.21878 0.76433 0.0
C1585 C 0.7925 0.20129 0.77777 0.0
C1586 C 0.8021 0.2083 0.8032 0.0
C1587 C 0.81433 0.1918 0.81589 0.0
C1588 C 0.81706 0.16819 0.80336 0.0
C1589 C 0.80777 0.16122 0.77802 0.0
C1590 C 0.79566 0.17779 0.76519 0.0
C1591 C 0.85249 0.30299 0.68368 0.0
C1592 C 0.83634 0.30042 0.66095 0.0
C1593 C 0.83604 0.28923 0.70612 0.0
C1594 C 0.80297 0.27227 0.70646 0.0
C1595 C 0.78678 0.27023 0.68385 0.0
C1596 C 0.80325 0.28437 0.66144 0.0
C1597 C 0.78568 0.25526 0.73001 0.0
C1598 C 0.7951 0.23603 0.74254 0.0
C1599 C 0.7599 0.25731 0.73998 0.0
C1600 C 0.75017 0.279 0.72911 0.0
C1601 C 0.71886 0.26759 0.72153 0.0
C1602 C 0.70969 0.28805 0.71129 0.0
C1603 C 0.73159 0.32002 0.70868 0.0
C1604 C 0.7627 0.33162 0.71636 0.0
C1605 C 0.77199 0.31127 0.72662 0.0
H1606 H 0.72445 0.33582 0.70075 0.0
H1607 H 0.82645 0.15536 0.81325 0.0
H1608 H 0.10603 0.48064 0.02268 0.0
H1609 H 0.07158 0.49585 1.00187 0.0
H1610 H 0.01755 0.47718 0.07059 0.0
H1611 H 0.05226 0.46167 0.09184 0.0
H1612 H 0.97988 0.44871 0.02974 0.0
H1613 H 0.06317 0.55235 0.0488 0.0
H1614 H 0.11787 0.59619 0.05049 0.0
H1615 H 0.12327 0.59637 0.96921 0.0
H1616 H 0.06873 0.55221 0.96703 0.0
H1617 H 0.88787 0.51418 0.98601 0.0
H1618 H 0.9217 0.49873 0.00769 0.0
H1619 H 0.97882 0.51972 0.94052 0.0
H1620 H 0.945 0.53568 0.91855 0.0
H1621 H 0.0148 0.54729 0.98127 0.0
H1622 H 0.93209 0.4434 0.96202 0.0
H1623 H 0.87754 0.39931 0.96003 0.0
H1624 H 0.87116 0.3993 0.04124 0.0
H1625 H 0.92556 0.4437 0.04371 0.0
C1626 C 0.08729 0.48033 0.03372 0.0
C1627 C 0.08197 0.46968 0.05905 0.0
C1628 C 0.06752 0.48912 0.02167 0.0
C1629 C 0.04187 0.48773 0.03456 0.0
C1630 C 0.03714 0.47839 0.06018 0.0
C1631 C 0.05716 0.46972 0.07239 0.0
C1632 C 0.01917 0.49419 0.02063 0.0
C1633 C 0.98742 0.47052 0.01953 0.0
C1634 C 0.0291 0.52218 0.00654 0.0
C1635 C 0.06192 0.54877 0.00777 0.0
C1636 C 0.0761 0.56156 0.03129 0.0
C1637 C 0.10707 0.5865 0.03233 0.0
C1638 C 0.12406 0.59901 0.00997 0.0
C1639 C 0.11009 0.58664 0.98652 0.0
C1640 C 0.07913 0.56167 0.98537 0.0
C1641 C 0.90722 0.51497 0.97552 0.0
C1642 C 0.91377 0.52659 0.95048 0.0
C1643 C 0.9266 0.506 0.98804 0.0
C1644 C 0.95297 0.50805 0.97586 0.0
C1645 C 0.95872 0.51807 0.95042 0.0
C1646 C 0.9392 0.527 0.93779 0.0
C1647 C 0.97549 0.50178 0.99031 0.0
C1648 C 0.00722 0.52549 0.9915 0.0
C1649 C 0.96556 0.4738 0.00444 0.0
C1650 C 0.93282 0.44709 1.00303 0.0
C1651 C 0.91898 0.43418 0.97945 0.0
C1652 C 0.88809 0.40909 0.97824 0.0
C1653 C 0.87087 0.39656 1.00049 0.0
C1654 C 0.88452 0.40905 0.02402 0.0
C1655 C 0.91539 0.43416 0.02533 0.0
H1656 H 0.84696 0.37714 0.99951 0.0
H1657 H 0.14803 0.61833 0.01082 0.0
H1658 H 0.51112 0.61945 0.03618 0.0
H1659 H 0.49705 0.57083 0.01411 0.0
H1660 H 0.5374 0.54334 0.07463 0.0
H1661 H 0.55221 0.59273 0.09687 0.0
H1662 H 0.5585 0.53628 0.03104 0.0
H1663 H 0.4561 0.50414 0.06204 0.0
H1664 H 0.40867 0.50764 0.07101 0.0
H1665 H 0.39385 0.51207 0.99122 0.0
H1666 H 0.44146 0.50906 0.98176 0.0
H1667 H 0.4994 0.38083 0.98296 0.0
H1668 H 0.51495 0.4292 0.00628 0.0
H1669 H 0.48131 0.46284 0.94512 0.0
H1670 H 0.46589 0.41433 0.92134 0.0
H1671 H 0.45601 0.46524 0.99042 0.0
H1672 H 0.55869 0.4975 0.95923 0.0
H1673 H 0.60711 0.49581 0.95048 0.0
H1674 H 0.62263 0.49319 0.03035 0.0
H1675 H 0.57393 0.49415 0.03961 0.0
C1676 C 0.51643 0.60285 0.04525 0.0
C1677 C 0.53303 0.61032 0.06839 0.0
C1678 C 0.50821 0.57482 0.03252 0.0
C1679 C 0.51594 0.5531 0.04263 0.0
C1680 C 0.53113 0.55966 0.06636 0.0
C1681 C 0.53939 0.58786 0.0792 0.0
C1682 C 0.51043 0.52508 0.02734 0.0
C1683 C 0.53599 0.52054 0.02244 0.0
C1684 C 0.48116 0.50474 0.0156 0.0
C1685 C 0.45254 0.50665 0.02121 0.0
C1686 C 0.44289 0.50613 0.04641 0.0
C1687 C 0.41594 0.50798 0.05158 0.0
C1688 C 0.3983 0.51015 0.0317 0.0
C1689 C 0.40755 0.51042 0.0066 0.0
C1690 C 0.4345 0.50861 1.00132 0.0
C1691 C 0.49598 0.39877 0.97405 0.0
C1692 C 0.48088 0.39329 0.9503 0.0
C1693 C 0.50494 0.42655 0.98751 0.0
C1694 C 0.49913 0.4497 0.97763 0.0
C1695 C 0.48585 0.44524 0.95326 0.0
C1696 C 0.47717 0.41749 0.93959 0.0
C1697 C 0.50438 0.47701 0.99369 0.0
C1698 C 0.47864 0.48121 0.99886 0.0
C1699 C 0.53355 0.49711 0.00564 0.0
C1700 C 0.56231 0.49539 1.0001 0.0
C1701 C 0.57212 0.49604 0.97494 0.0
C1702 C 0.5997 0.49532 0.96988 0.0
C1703 C 0.61786 0.49425 0.98984 0.0
C1704 C 0.60848 0.49389 0.0149 0.0
C1705 C 0.58086 0.49448 0.02006 0.0
H1706 H 0.63927 0.49382 0.98588 0.0
H1707 H 0.37743 0.51156 0.03574 0.0
H1708 H 0.38284 0.88364 0.02459 0.0
H1709 H 0.43191 0.91666 1.00226 0.0
H1710 H 0.46297 0.98406 0.0633 0.0
H1711 H 0.41395 0.95051 0.08627 0.0
H1712 H 0.46501 0.01094 0.01675 0.0
H1713 H 0.5029 0.94722 0.0517 0.0
H1714 H 0.50446 0.89946 0.06357 0.0
H1715 H 0.49877 0.87384 0.98508 0.0
H1716 H 0.4968 0.92129 0.97274 0.0
H1717 H 0.61998 0.1105 0.97203 0.0
H1718 H 0.57104 0.07628 0.99381 0.0
H1719 H 0.54423 0.00784 0.93384 0.0
H1720 H 0.59383 0.04215 0.91182 0.0
H1721 H 0.53843 0.98085 0.97863 0.0
H1722 H 0.50527 0.04903 0.94487 0.0
H1723 H 0.50844 0.09949 0.93464 0.0
H1724 H 0.50923 0.11955 0.01398 0.0
H1725 H 0.50691 0.06956 0.02474 0.0
C1726 C 0.40039 0.90501 0.03374 0.0
C1727 C 0.394 0.91459 0.05714 0.0
C1728 C 0.42855 0.92396 0.02084 0.0
C1729 C 0.45107 0.95308 0.03089 0.0
C1730 C 0.44581 0.9618 0.05503 0.0
C1731 C 0.41775 0.94251 0.06821 0.0
C1732 C 0.47839 0.97538 0.01505 0.0
C1733 C 0.48158 0.00469 0.00891 0.0
C1734 C 0.49932 0.96682 1.004 0.0
C1735 C 0.4992 0.93758 0.01133 0.0
C1736 C 0.50149 0.93116 0.03699 0.0
C1737 C 0.50261 0.90422 0.04379 0.0
C1738 C 0.50159 0.88356 0.0251 0.0
C1739 C 0.49948 0.88982 0.99955 0.0
C1740 C 0.49837 0.91675 0.99264 0.0
C1741 C 0.60344 0.08856 0.96299 0.0
C1742 C 0.61117 0.07911 0.94013 0.0
C1743 C 0.57526 0.06893 0.97556 0.0
C1744 C 0.55374 0.03936 0.96557 0.0
C1745 C 0.56046 0.03051 0.94201 0.0
C1746 C 0.58877 0.0503 0.92931 0.0
C1747 C 0.52586 0.01691 0.98091 0.0
C1748 C 0.52223 0.98736 0.98673 0.0
C1749 C 0.50494 0.02553 0.992 0.0
C1750 C 0.50622 0.05561 0.98561 0.0
C1751 C 0.50643 0.06432 0.96016 0.0
C1752 C 0.50806 0.09285 0.95427 0.0
C1753 C 0.50908 0.11274 0.97365 0.0
C1754 C 0.50847 0.10414 0.99899 0.0
C1755 C 0.50703 0.0757 0.00499 0.0
H1756 H 0.51026 0.13479 0.96904 0.0
H1757 H 0.50253 0.86275 0.0304 0.0
H1758 H 0.53734 0.9502 0.42052 0.0
H1759 H 0.52205 0.98406 0.44333 0.0
H1760 H 0.48409 0.91625 0.50393 0.0
H1761 H 0.49971 0.88277 0.48173 0.0
H1762 H 0.46734 0.97994 0.46662 0.0
H1763 H 0.51318 0.95274 0.55768 0.0
H1764 H 0.54857 0.93228 0.56848 0.0
H1765 H 0.60357 0.97573 0.50186 0.0
H1766 H 0.56879 0.99667 0.49086 0.0
H1767 H 0.45073 0.04336 0.59446 0.0
H1768 H 0.46572 0.009 0.57193 0.0
H1769 H 0.50812 0.07821 0.51273 0.0
H1770 H 0.49344 0.11244 0.53483 0.0
H1771 H 0.52302 0.01387 0.54934 0.0
H1772 H 0.47587 0.03654 0.45551 0.0
H1773 H 0.43983 0.05515 0.442 0.0
H1774 H 0.38942 0.02303 0.51221 0.0
H1775 H 0.42393 0.00282 0.52548 0.0
C1776 C 0.52505 0.9421 0.43839 0.0
C1777 C 0.52052 0.91404 0.44951 0.0
C1778 C 0.51627 0.96151 0.45142 0.0
C1779 C 0.50264 0.95307 0.47566 0.0
C1780 C 0.49513 0.92358 0.48549 0.0
C1781 C 0.50403 0.90436 0.47265 0.0
C1782 C 0.49955 0.97619 0.49203 0.0
C1783 C 0.47977 0.98766 0.48453 0.0
C1784 C 0.51555 0.98606 0.51557 0.0
C1785 C 0.53827 0.97609 0.52341 0.0
C1786 C 0.53302 0.95818 0.54551 0.0
C1787 C 0.55283 0.94627 0.55153 0.0
C1788 C 0.57809 0.95236 0.53569 0.0
C1789 C 0.58384 0.97071 0.51396 0.0
C1790 C 0.56414 0.98267 0.50787 0.0
C1791 C 0.46409 0.0517 0.57706 0.0
C1792 C 0.47039 0.08058 0.56637 0.0
C1793 C 0.47265 0.03199 0.56417 0.0
C1794 C 0.48756 0.04078 0.54039 0.0
C1795 C 0.4963 0.07072 0.53087 0.0
C1796 C 0.48785 0.09033 0.54365 0.0
C1797 C 0.49065 0.01766 0.52398 0.0
C1798 C 0.51054 0.00622 0.53144 0.0
C1799 C 0.47495 0.00808 0.50023 0.0
C1800 C 0.45282 0.01854 0.49166 0.0
C1801 C 0.45681 0.03308 0.46791 0.0
C1802 C 0.43652 0.04379 0.46023 0.0
C1803 C 0.41221 0.04018 0.47618 0.0
C1804 C 0.40801 0.02563 0.49974 0.0
C1805 C 0.42787 0.01444 0.50732 0.0
H1806 H 0.39671 0.04874 0.47032 0.0
H1807 H 0.59341 0.94316 0.5404 0.0
H1808 H 0.94713 0.41361 0.58619 0.0
H1809 H 0.97954 0.46295 0.56328 0.0
H1810 H 0.92203 0.42347 0.49665 0.0
H1811 H 0.89027 0.37423 0.519 0.0
H1812 H 0.98046 0.44753 0.48385 0.0
H1813 H 0.92269 0.48425 0.53168 0.0
H1814 H 0.9006 0.4952 0.56975 0.0
H1815 H 0.99364 0.55461 0.59899 0.0
H1816 H 0.01629 0.54369 0.56122 0.0
H1817 H 0.04907 0.59257 0.41189 0.0
H1818 H 0.0142 0.54321 0.43404 0.0
H1819 H 0.07446 0.57628 0.49972 0.0
H1820 H 0.10917 0.62526 0.47798 0.0
H1821 H 0.01368 0.55586 0.51246 0.0
H1822 H 0.07054 0.5164 0.46501 0.0
H1823 H 0.09193 0.50473 0.42684 0.0
H1824 H 0.99881 0.45068 0.39616 0.0
H1825 H 0.97691 0.4623 0.43408 0.0
C1826 C 0.94099 0.41562 0.56683 0.0
C1827 C 0.91623 0.38962 0.55446 0.0
C1828 C 0.95957 0.44395 0.5537 0.0
C1829 C 0.95347 0.44702 0.52806 0.0
C1830 C 0.92756 0.42173 0.51627 0.0
C1831 C 0.90921 0.39351 0.52924 0.0
C1832 C 0.97515 0.47546 0.51284 0.0
C1833 C 0.98727 0.47118 0.48995 0.0
C1834 C 0.98469 0.50648 0.52089 0.0
C1835 C 0.97117 0.51285 0.54375 0.0
C1836 C 0.93843 0.4994 0.54634 0.0
C1837 C 0.92581 0.50566 0.56784 0.0
C1838 C 0.9457 0.52551 0.58682 0.0
C1839 C 0.97826 0.53919 0.5843 0.0
C1840 C 0.99101 0.533 0.56284 0.0
C1841 C 0.05531 0.58908 0.43081 0.0
C1842 C 0.08188 0.61324 0.44313 0.0
C1843 C 0.03526 0.56082 0.44352 0.0
C1844 C 0.04149 0.55611 0.46872 0.0
C1845 C 0.0689 0.57943 0.48044 0.0
C1846 C 0.08889 0.60747 0.46781 0.0
C1847 C 0.01885 0.52781 0.48351 0.0
C1848 C 0.00663 0.53216 0.50631 0.0
C1849 C 0.00901 0.49683 0.4753 0.0
C1850 C 0.02215 0.49049 0.45223 0.0
C1851 C 0.05468 0.50232 0.44999 0.0
C1852 C 0.06688 0.49563 0.42845 0.0
C1853 C 0.04675 0.47705 0.40905 0.0
C1854 C 0.01438 0.46513 0.41117 0.0
C1855 C 0.00206 0.47176 0.43268 0.0
H1856 H 0.05624 0.47184 0.39241 0.0
H1857 H 0.93588 0.53034 0.60344 0.0
H1858 H 0.41344 0.45777 0.4168 0.0
H1859 H 0.46246 0.47291 0.4397 0.0
H1860 H 0.43429 0.51416 0.49894 0.0
H1861 H 0.38519 0.49858 0.47666 0.0
H1862 H 0.49895 0.54937 0.48793 0.0
H1863 H 0.41913 0.44157 0.5053 0.0
H1864 H 0.38107 0.38674 0.49377 0.0
H1865 H 0.45534 0.37594 0.46138 0.0
H1866 H 0.49378 0.43093 0.47225 0.0
H1867 H 0.59452 0.55207 0.59001 0.0
H1868 H 0.54666 0.53806 0.5658 0.0
H1869 H 0.57398 0.49272 0.5094 0.0
H1870 H 0.62195 0.50715 0.53304 0.0
H1871 H 0.51056 0.45991 0.51799 0.0
H1872 H 0.59025 0.56492 0.49942 0.0
H1873 H 0.63011 0.62011 0.50792 0.0
H1874 H 0.55914 0.63685 0.5393 0.0
H1875 H 0.51886 0.58153 0.53143 0.0
C1876 C 0.4179 0.4706 0.43442 0.0
C1877 C 0.39497 0.4764 0.44502 0.0
C1878 C 0.44593 0.47915 0.44757 0.0
C1879 C 0.4518 0.49416 0.47131 0.0
C1880 C 0.43024 0.50243 0.48078 0.0
C1881 C 0.40211 0.4935 0.4679 0.0
C1882 C 0.47896 0.49911 0.48732 0.0
C1883 C 0.50132 0.5298 0.49472 0.0
C1884 C 0.48247 0.47362 0.49578 0.0
C1885 C 0.45929 0.44053 0.48928 0.0
C1886 C 0.42731 0.42763 0.49546 0.0
C1887 C 0.40566 0.3965 0.48905 0.0
C1888 C 0.41578 0.37795 0.4767 0.0
C1889 C 0.44754 0.39041 0.47083 0.0
C1890 C 0.46926 0.42155 0.4771 0.0
C1891 C 0.59009 0.53859 0.57275 0.0
C1892 C 0.6125 0.53128 0.56333 0.0
C1893 C 0.56276 0.53074 0.55881 0.0
C1894 C 0.55704 0.51493 0.53546 0.0
C1895 C 0.57795 0.50515 0.52722 0.0
C1896 C 0.6054 0.51337 0.54088 0.0
C1897 C 0.53044 0.51016 0.51879 0.0
C1898 C 0.50819 0.47951 0.51126 0.0
C1899 C 0.5273 0.53573 0.50994 0.0
C1900 C 0.55156 0.56891 0.51515 0.0
C1901 C 0.58317 0.58023 0.50844 0.0
C1902 C 0.60585 0.61158 0.51309 0.0
C1903 C 0.59719 0.63195 0.52422 0.0
C1904 C 0.56582 0.62101 0.53074 0.0
C1905 C 0.54306 0.58965 0.5262 0.0
H1906 H 0.61472 0.65625 0.52769 0.0
H1907 H 0.39909 0.35386 0.47178 0.0
loop_
_geom_bond_atom_site_label_1
_geom_bond_atom_site_label_2
_geom_bond_distance
_geom_bond_site_symmetry_2
_ccdc_geom_bond_type
Co0 O2 2.143 . S
Co0 O8 2.074 . S
Co0 O11 2.093 . S
Co0 O24 2.097 . S
Co0 N41 2.151 . S
Co0 N49 2.214 1_554 S
Co1 O2 2.160 . S
Co1 O7 2.058 . S
Co1 O17 2.057 . S
Co1 O32 2.037 . S
Co1 N36 2.145 . S
Co1 N57 2.257 . S
O2 Co0 2.143 . S
O2 Co1 2.160 . S
C3 O4 1.278 . S
C3 O11 1.224 . S
O4 C3 1.278 . S
C5 O6 1.245 . S
C5 O17 1.232 . S
O6 C5 1.245 . S
O7 Co1 2.058 . S
O7 C33 1.269 . S
O8 Co0 2.074 . S
O8 C33 1.257 . S
H9 C34 0.930 . S
H10 C40 0.930 . S
O11 Co0 2.093 . S
O11 C3 1.224 . S
H12 C44 0.929 . S
H13 C46 0.930 . S
H14 C47 0.930 . S
H15 C45 0.929 . S
H16 C48 0.928 . S
O17 Co1 2.057 . S
O17 C5 1.232 . S
H18 C37 0.929 . S
H19 C38 0.929 . S
H20 C50 0.931 . S
H21 C42 0.929 . S
H22 C51 0.930 . S
H23 C43 0.931 . S
O24 Co0 2.097 . S
O24 C52 1.214 . S
H25 C53 0.929 . S
H26 C54 0.929 . S
H27 C55 0.930 . S
H28 C56 0.929 . S
H29 C58 0.930 . S
H30 C35 0.930 . S
H31 C39 0.922 1_655 S
O32 Co1 2.037 . S
O32 C52 1.234 . S
C33 O7 1.269 . S
C33 O8 1.257 . S
C34 H9 0.930 . S
C34 C37 1.388 1_655 S
C34 C39 1.416 1_655 S
C35 H30 0.930 . S
C35 C38 1.404 . S
C35 C39 1.364 . S
N36 Co1 2.145 . S
N36 C37 1.397 . S
N36 C38 1.334 . S
C37 H18 0.929 . S
C37 C34 1.388 1_455 S
C37 N36 1.397 . S
C38 H19 0.929 . S
C38 C35 1.404 . S
C38 N36 1.334 . S
C39 H31 0.922 1_455 S
C39 C34 1.416 1_455 S
C39 C35 1.364 . S
C40 H10 0.930 . S
C40 N41 1.330 . S
C40 C42 1.446 . S
N41 Co0 2.151 . S
N41 C40 1.330 . S
N41 C45 1.418 . S
C42 H21 0.929 . S
C42 C40 1.446 . S
C42 C43 1.332 . S
C43 H23 0.931 . S
C43 C42 1.332 . S
C43 C44 1.267 . S
C44 H12 0.929 . S
C44 C43 1.267 . S
C44 C45 1.251 . S
C45 H15 0.929 . S
C45 N41 1.418 . S
C45 C44 1.251 . S
C46 H13 0.930 . S
C46 C48 1.406 . S
C46 C51 1.261 . S
C47 H14 0.930 . S
C47 N49 1.325 . S
C47 C50 1.357 . S
C48 H16 0.928 . S
C48 C46 1.406 . S
C48 N49 1.261 . S
N49 Co0 2.214 1_556 S
N49 C47 1.325 . S
N49 C48 1.261 . S
C50 H20 0.931 . S
C50 C47 1.357 . S
C50 C51 1.312 . S
C51 H22 0.930 . S
C51 C46 1.261 . S
C51 C50 1.312 . S
C52 O24 1.214 . S
C52 O32 1.234 . S
C53 H25 0.929 . S
C53 C56 1.391 . S
C53 C58 1.391 . S
C54 H26 0.929 . S
C54 C55 1.390 . S
C54 N57 1.391 . S
C55 H27 0.930 . S
C55 C54 1.390 . S
C55 C56 1.392 . S
C56 H28 0.929 . S
C56 C53 1.391 . S
C56 C55 1.392 . S
N57 Co1 2.257 . S
N57 C54 1.391 . S
N57 C58 1.388 . S
C58 H29 0.930 . S
C58 C53 1.391 . S
C58 N57 1.388 . S
Co59 O61 2.143 . S
Co59 O67 2.074 . S
Co59 O70 2.093 . S
Co59 O83 2.097 . S
Co59 N100 2.151 . S
Co59 N108 2.214 1_554 S
Co60 O61 2.160 . S
Co60 O66 2.058 . S
Co60 O76 2.057 . S
Co60 O91 2.037 . S
Co60 N95 2.145 . S
Co60 N116 2.257 . S
O61 Co59 2.143 . S
O61 Co60 2.160 . S
C62 O63 1.278 . S
C62 O70 1.224 . S
O63 C62 1.278 . S
C64 O65 1.245 . S
C64 O76 1.232 . S
O65 C64 1.245 . S
O66 Co60 2.058 . S
O66 C92 1.269 . S
O67 Co59 2.074 . S
O67 C92 1.257 . S
H68 C93 0.930 . S
H69 C99 0.930 . S
O70 Co59 2.093 . S
O70 C62 1.224 . S
H71 C103 0.929 . S
H72 C105 0.930 . S
H73 C106 0.930 . S
H74 C104 0.929 . S
H75 C107 0.928 . S
O76 Co60 2.057 . S
O76 C64 1.232 . S
H77 C96 0.929 . S
H78 C97 0.929 . S
H79 C109 0.931 . S
H80 C101 0.929 . S
H81 C110 0.930 . S
H82 C102 0.931 . S
O83 Co59 2.097 . S
O83 C111 1.214 . S
H84 C112 0.929 . S
H85 C113 0.929 . S
H86 C114 0.930 . S
H87 C115 0.929 . S
H88 C117 0.930 . S
H89 C94 0.930 . S
H90 C98 0.930 . S
O91 Co60 2.037 . S
O91 C111 1.234 . S
C92 O66 1.269 . S
C92 O67 1.257 . S
C93 H68 0.930 . S
C93 C96 1.388 . S
C93 C98 1.418 . S
C94 H89 0.930 . S
C94 C97 1.404 . S
C94 C98 1.353 . S
N95 Co60 2.145 . S
N95 C96 1.397 . S
N95 C97 1.334 . S
C96 H77 0.929 . S
C96 C93 1.388 . S
C96 N95 1.397 . S
C97 H78 0.929 . S
C97 C94 1.404 . S
C97 N95 1.334 . S
C98 H90 0.930 . S
C98 C93 1.418 . S
C98 C94 1.353 . S
C99 H69 0.930 . S
C99 N100 1.330 . S
C99 C101 1.446 . S
N100 Co59 2.151 . S
N100 C99 1.330 . S
N100 C104 1.418 . S
C101 H80 0.929 . S
C101 C99 1.446 . S
C101 C102 1.332 . S
C102 H82 0.931 . S
C102 C101 1.332 . S
C102 C103 1.267 . S
C103 H71 0.929 . S
C103 C102 1.267 . S
C103 C104 1.251 . S
C104 H74 0.929 . S
C104 N100 1.418 . S
C104 C103 1.251 . S
C105 H72 0.930 . S
C105 C107 1.406 . S
C105 C110 1.261 . S
C106 H73 0.930 . S
C106 N108 1.325 . S
C106 C109 1.357 . S
C107 H75 0.928 . S
C107 C105 1.406 . S
C107 N108 1.261 . S
N108 Co59 2.214 1_556 S
N108 C106 1.325 . S
N108 C107 1.261 . S
C109 H79 0.931 . S
C109 C106 1.357 . S
C109 C110 1.312 . S
C110 H81 0.930 . S
C110 C105 1.261 . S
C110 C109 1.312 . S
C111 O83 1.214 . S
C111 O91 1.234 . S
C112 H84 0.929 . S
C112 C115 1.391 . S
C112 C117 1.391 . S
C113 H85 0.929 . S
C113 C114 1.390 . S
C113 N116 1.391 . S
C114 H86 0.930 . S
C114 C113 1.390 . S
C114 C115 1.392 . S
C115 H87 0.929 . S
C115 C112 1.391 . S
C115 C114 1.392 . S
N116 Co60 2.257 . S
N116 C113 1.391 . S
N116 C117 1.388 . S
C117 H88 0.930 . S
C117 C112 1.391 . S
C117 N116 1.388 . S
Co118 O120 2.143 . S
Co118 O126 2.074 . S
Co118 O129 2.093 . S
Co118 O142 2.097 . S
Co118 N159 2.151 . S
Co118 N167 2.214 1_554 S
Co119 O120 2.160 . S
Co119 O125 2.058 . S
Co119 O135 2.057 . S
Co119 O150 2.037 . S
Co119 N154 2.145 . S
Co119 N175 2.257 . S
O120 Co118 2.143 . S
O120 Co119 2.160 . S
C121 O122 1.278 . S
C121 O129 1.224 . S
O122 C121 1.278 . S
C123 O124 1.245 . S
C123 O135 1.232 . S
O124 C123 1.245 . S
O125 Co119 2.058 . S
O125 C151 1.269 . S
O126 Co118 2.074 . S
O126 C151 1.257 . S
H127 C152 0.930 . S
H128 C158 0.930 . S
O129 Co118 2.093 . S
O129 C121 1.224 . S
H130 C162 0.929 . S
H131 C164 0.930 . S
H132 C165 0.930 . S
H133 C163 0.929 . S
H134 C166 0.928 . S
O135 Co119 2.057 . S
O135 C123 1.232 . S
H136 C155 0.929 . S
H137 C156 0.929 . S
H138 C168 0.931 . S
H139 C160 0.929 . S
H140 C169 0.930 . S
H141 C161 0.931 . S
O142 Co118 2.097 . S
O142 C170 1.214 . S
H143 C171 0.929 . S
H144 C172 0.929 . S
H145 C173 0.930 . S
H146 C174 0.929 . S
H147 C176 0.930 . S
H148 C153 0.930 . S
H149 C157 0.921 1_545 S
O150 Co119 2.037 . S
O150 C170 1.234 . S
C151 O125 1.269 . S
C151 O126 1.257 . S
C152 H127 0.930 . S
C152 C155 1.388 1_545 S
C152 C157 1.418 1_545 S
C153 H148 0.930 . S
C153 C156 1.404 . S
C153 C157 1.362 . S
N154 Co119 2.145 . S
N154 C155 1.397 . S
N154 C156 1.334 . S
C155 H136 0.929 . S
C155 C152 1.388 1_565 S
C155 N154 1.397 . S
C156 H137 0.929 . S
C156 C153 1.404 . S
C156 N154 1.334 . S
C157 H149 0.921 1_565 S
C157 C152 1.418 1_565 S
C157 C153 1.362 . S
C158 H128 0.930 . S
C158 N159 1.330 . S
C158 C160 1.446 . S
N159 Co118 2.151 . S
N159 C158 1.330 . S
N159 C163 1.418 . S
C160 H139 0.929 . S
C160 C158 1.446 . S
C160 C161 1.332 . S
C161 H141 0.931 . S
C161 C160 1.332 . S
C161 C162 1.267 . S
C162 H130 0.929 . S
C162 C161 1.267 . S
C162 C163 1.251 . S
C163 H133 0.929 . S
C163 N159 1.418 . S
C163 C162 1.251 . S
C164 H131 0.930 . S
C164 C166 1.406 . S
C164 C169 1.261 . S
C165 H132 0.930 . S
C165 N167 1.325 . S
C165 C168 1.357 . S
C166 H134 0.928 . S
C166 C164 1.406 . S
C166 N167 1.261 . S
N167 Co118 2.214 1_556 S
N167 C165 1.325 . S
N167 C166 1.261 . S
C168 H138 0.931 . S
C168 C165 1.357 . S
C168 C169 1.312 . S
C169 H140 0.930 . S
C169 C164 1.261 . S
C169 C168 1.312 . S
C170 O142 1.214 . S
C170 O150 1.234 . S
C171 H143 0.929 . S
C171 C174 1.391 . S
C171 C176 1.391 . S
C172 H144 0.929 . S
C172 C173 1.390 . S
C172 N175 1.391 . S
C173 H145 0.930 . S
C173 C172 1.390 . S
C173 C174 1.392 . S
C174 H146 0.929 . S
C174 C171 1.391 . S
C174 C173 1.392 . S
N175 Co119 2.257 . S
N175 C172 1.391 . S
N175 C176 1.388 . S
C176 H147 0.930 . S
C176 C171 1.391 . S
C176 N175 1.388 . S
Co177 O179 2.143 . S
Co177 O185 2.074 . S
Co177 O188 2.093 . S
Co177 O201 2.097 . S
Co177 N218 2.151 . S
Co177 N226 2.214 . S
Co178 O179 2.160 . S
Co178 O184 2.058 . S
Co178 O194 2.057 . S
Co178 O209 2.037 . S
Co178 N213 2.145 . S
Co178 N234 2.257 . S
O179 Co177 2.143 . S
O179 Co178 2.160 . S
C180 O181 1.278 . S
C180 O188 1.224 . S
O181 C180 1.278 . S
C182 O183 1.245 . S
C182 O194 1.232 . S
O183 C182 1.245 . S
O184 Co178 2.058 . S
O184 C210 1.269 . S
O185 Co177 2.074 . S
O185 C210 1.257 . S
H186 C211 0.930 . S
H187 C217 0.930 . S
O188 Co177 2.093 . S
O188 C180 1.224 . S
H189 C221 0.929 . S
H190 C223 0.930 . S
H191 C224 0.930 . S
H192 C222 0.929 . S
H193 C225 0.928 . S
O194 Co178 2.057 . S
O194 C182 1.232 . S
H195 C214 0.929 . S
H196 C215 0.929 . S
H197 C227 0.931 . S
H198 C219 0.929 . S
H199 C228 0.930 . S
H200 C220 0.931 . S
O201 Co177 2.097 . S
O201 C229 1.214 . S
H202 C230 0.929 . S
H203 C231 0.929 . S
H204 C232 0.930 . S
H205 C233 0.929 . S
H206 C235 0.930 . S
H207 C212 0.930 . S
H208 C216 0.922 1_545 S
O209 Co178 2.037 . S
O209 C229 1.234 . S
C210 O184 1.269 . S
C210 O185 1.257 . S
C211 H186 0.930 . S
C211 C214 1.388 1_545 S
C211 C216 1.416 1_545 S
C212 H207 0.930 . S
C212 C215 1.404 . S
C212 C216 1.364 . S
N213 Co178 2.145 . S
N213 C214 1.397 . S
N213 C215 1.334 . S
C214 H195 0.929 . S
C214 C211 1.388 1_565 S
C214 N213 1.397 . S
C215 H196 0.929 . S
C215 C212 1.404 . S
C215 N213 1.334 . S
C216 H208 0.922 1_565 S
C216 C211 1.416 1_565 S
C216 C212 1.364 . S
C217 H187 0.930 . S
C217 N218 1.330 . S
C217 C219 1.446 . S
N218 Co177 2.151 . S
N218 C217 1.330 . S
N218 C222 1.418 . S
C219 H198 0.929 . S
C219 C217 1.446 . S
C219 C220 1.332 . S
C220 H200 0.931 . S
C220 C219 1.332 . S
C220 C221 1.267 . S
C221 H189 0.929 . S
C221 C220 1.267 . S
C221 C222 1.251 . S
C222 H192 0.929 . S
C222 N218 1.418 . S
C222 C221 1.251 . S
C223 H190 0.930 . S
C223 C225 1.406 . S
C223 C228 1.261 . S
C224 H191 0.930 . S
C224 N226 1.325 . S
C224 C227 1.357 . S
C225 H193 0.928 . S
C225 C223 1.406 . S
C225 N226 1.261 . S
N226 Co177 2.214 . S
N226 C224 1.325 . S
N226 C225 1.261 . S
C227 H197 0.931 . S
C227 C224 1.357 . S
C227 C228 1.312 . S
C228 H199 0.930 . S
C228 C223 1.261 . S
C228 C227 1.312 . S
C229 O201 1.214 . S
C229 O209 1.234 . S
C230 H202 0.929 . S
C230 C233 1.391 . S
C230 C235 1.391 . S
C231 H203 0.929 . S
C231 C232 1.390 . S
C231 N234 1.391 . S
C232 H204 0.930 . S
C232 C231 1.390 . S
C232 C233 1.392 . S
C233 H205 0.929 . S
C233 C230 1.391 . S
C233 C232 1.392 . S
N234 Co178 2.257 . S
N234 C231 1.391 . S
N234 C235 1.388 . S
C235 H206 0.930 . S
C235 C230 1.391 . S
C235 N234 1.388 . S
Co236 O238 2.143 . S
Co236 O244 2.074 . S
Co236 O247 2.093 . S
Co236 O260 2.097 . S
Co236 N277 2.151 . S
Co236 N285 2.214 . S
Co237 O238 2.160 . S
Co237 O243 2.058 . S
Co237 O253 2.057 . S
Co237 O268 2.037 . S
Co237 N272 2.145 . S
Co237 N293 2.257 . S
O238 Co236 2.143 . S
O238 Co237 2.160 . S
C239 O240 1.278 . S
C239 O247 1.224 . S
O240 C239 1.278 . S
C241 O242 1.245 . S
C241 O253 1.232 . S
O242 C241 1.245 . S
O243 Co237 2.058 . S
O243 C269 1.269 . S
O244 Co236 2.074 . S
O244 C269 1.257 . S
H245 C270 0.930 . S
H246 C276 0.930 . S
O247 Co236 2.093 . S
O247 C239 1.224 . S
H248 C280 0.929 . S
H249 C282 0.930 . S
H250 C283 0.930 . S
H251 C281 0.929 . S
H252 C284 0.928 . S
O253 Co237 2.057 . S
O253 C241 1.232 . S
H254 C273 0.929 . S
H255 C274 0.929 . S
H256 C286 0.931 . S
H257 C278 0.929 . S
H258 C287 0.930 . S
H259 C279 0.931 . S
O260 Co236 2.097 . S
O260 C288 1.214 . S
H261 C289 0.929 . S
H262 C290 0.929 . S
H263 C291 0.930 . S
H264 C292 0.929 . S
H265 C294 0.930 . S
H266 C271 0.930 . S
H267 C275 0.921 1_655 S
O268 Co237 2.037 . S
O268 C288 1.234 . S
C269 O243 1.269 . S
C269 O244 1.257 . S
C270 H245 0.930 . S
C270 C273 1.388 1_655 S
C270 C275 1.418 1_655 S
C271 H266 0.930 . S
C271 C274 1.404 . S
C271 C275 1.362 . S
N272 Co237 2.145 . S
N272 C273 1.397 . S
N272 C274 1.334 . S
C273 H254 0.929 . S
C273 C270 1.388 1_455 S
C273 N272 1.397 . S
C274 H255 0.929 . S
C274 C271 1.404 . S
C274 N272 1.334 . S
C275 H267 0.921 1_455 S
C275 C270 1.418 1_455 S
C275 C271 1.362 . S
C276 H246 0.930 . S
C276 N277 1.330 . S
C276 C278 1.446 . S
N277 Co236 2.151 . S
N277 C276 1.330 . S
N277 C281 1.418 . S
C278 H257 0.929 . S
C278 C276 1.446 . S
C278 C279 1.332 . S
C279 H259 0.931 . S
C279 C278 1.332 . S
C279 C280 1.267 . S
C280 H248 0.929 . S
C280 C279 1.267 . S
C280 C281 1.251 . S
C281 H251 0.929 . S
C281 N277 1.418 . S
C281 C280 1.251 . S
C282 H249 0.930 . S
C282 C284 1.406 . S
C282 C287 1.261 . S
C283 H250 0.930 . S
C283 N285 1.325 . S
C283 C286 1.357 . S
C284 H252 0.928 . S
C284 C282 1.406 . S
C284 N285 1.261 . S
N285 Co236 2.214 . S
N285 C283 1.325 . S
N285 C284 1.261 . S
C286 H256 0.931 . S
C286 C283 1.357 . S
C286 C287 1.312 . S
C287 H258 0.930 . S
C287 C282 1.261 . S
C287 C286 1.312 . S
C288 O260 1.214 . S
C288 O268 1.234 . S
C289 H261 0.929 . S
C289 C292 1.391 . S
C289 C294 1.391 . S
C290 H262 0.929 . S
C290 C291 1.390 . S
C290 N293 1.391 . S
C291 H263 0.930 . S
C291 C290 1.390 . S
C291 C292 1.392 . S
C292 H264 0.929 . S
C292 C289 1.391 . S
C292 C291 1.392 . S
N293 Co237 2.257 . S
N293 C290 1.391 . S
N293 C294 1.388 . S
C294 H265 0.930 . S
C294 C289 1.391 . S
C294 N293 1.388 . S
Co295 O297 2.143 . S
Co295 O303 2.074 . S
Co295 O306 2.093 . S
Co295 O319 2.097 . S
Co295 N336 2.151 . S
Co295 N344 2.214 . S
Co296 O297 2.160 . S
Co296 O302 2.058 . S
Co296 O312 2.057 . S
Co296 O327 2.037 . S
Co296 N331 2.145 . S
Co296 N352 2.257 . S
O297 Co295 2.143 . S
O297 Co296 2.160 . S
C298 O299 1.278 . S
C298 O306 1.224 . S
O299 C298 1.278 . S
C300 O301 1.245 . S
C300 O312 1.232 . S
O301 C300 1.245 . S
O302 Co296 2.058 . S
O302 C328 1.269 . S
O303 Co295 2.074 . S
O303 C328 1.257 . S
H304 C329 0.930 . S
H305 C335 0.930 . S
O306 Co295 2.093 . S
O306 C298 1.224 . S
H307 C339 0.929 . S
H308 C341 0.930 . S
H309 C342 0.930 . S
H310 C340 0.929 . S
H311 C343 0.928 . S
O312 Co296 2.057 . S
O312 C300 1.232 . S
H313 C332 0.929 . S
H314 C333 0.929 . S
H315 C345 0.931 . S
H316 C337 0.929 . S
H317 C346 0.930 . S
H318 C338 0.931 . S
O319 Co295 2.097 . S
O319 C347 1.214 . S
H320 C348 0.929 . S
H321 C349 0.929 . S
H322 C350 0.930 . S
H323 C351 0.929 . S
H324 C353 0.930 . S
H325 C330 0.930 . S
H326 C334 0.930 . S
O327 Co296 2.037 . S
O327 C347 1.234 . S
C328 O302 1.269 . S
C328 O303 1.257 . S
C329 H304 0.930 . S
C329 C332 1.388 . S
C329 C334 1.418 . S
C330 H325 0.930 . S
C330 C333 1.404 . S
C330 C334 1.353 . S
N331 Co296 2.145 . S
N331 C332 1.397 . S
N331 C333 1.334 . S
C332 H313 0.929 . S
C332 C329 1.388 . S
C332 N331 1.397 . S
C333 H314 0.929 . S
C333 C330 1.404 . S
C333 N331 1.334 . S
C334 H326 0.930 . S
C334 C329 1.418 . S
C334 C330 1.353 . S
C335 H305 0.930 . S
C335 N336 1.330 . S
C335 C337 1.446 . S
N336 Co295 2.151 . S
N336 C335 1.330 . S
N336 C340 1.418 . S
C337 H316 0.929 . S
C337 C335 1.446 . S
C337 C338 1.332 . S
C338 H318 0.931 . S
C338 C337 1.332 . S
C338 C339 1.267 . S
C339 H307 0.929 . S
C339 C338 1.267 . S
C339 C340 1.251 . S
C340 H310 0.929 . S
C340 N336 1.418 . S
C340 C339 1.251 . S
C341 H308 0.930 . S
C341 C343 1.406 . S
C341 C346 1.261 . S
C342 H309 0.930 . S
C342 N344 1.325 . S
C342 C345 1.357 . S
C343 H311 0.928 . S
C343 C341 1.406 . S
C343 N344 1.261 . S
N344 Co295 2.214 . S
N344 C342 1.325 . S
N344 C343 1.261 . S
C345 H315 0.931 . S
C345 C342 1.357 . S
C345 C346 1.312 . S
C346 H317 0.930 . S
C346 C341 1.261 . S
C346 C345 1.312 . S
C347 O319 1.214 . S
C347 O327 1.234 . S
C348 H320 0.929 . S
C348 C351 1.391 . S
C348 C353 1.391 . S
C349 H321 0.929 . S
C349 C350 1.390 . S
C349 N352 1.391 . S
C350 H322 0.930 . S
C350 C349 1.390 . S
C350 C351 1.392 . S
C351 H323 0.929 . S
C351 C348 1.391 . S
C351 C350 1.392 . S
N352 Co296 2.257 . S
N352 C349 1.391 . S
N352 C353 1.388 . S
C353 H324 0.930 . S
C353 C348 1.391 . S
C353 N352 1.388 . S
Co354 O356 2.143 . S
Co354 O362 2.074 . S
Co354 O365 2.093 . S
Co354 O378 2.097 . S
Co354 N395 2.151 . S
Co354 N403 2.214 1_556 S
Co355 O356 2.160 . S
Co355 O361 2.058 . S
Co355 O371 2.057 . S
Co355 O386 2.037 . S
Co355 N390 2.145 . S
Co355 N411 2.257 . S
O356 Co354 2.143 . S
O356 Co355 2.160 . S
C357 O358 1.278 . S
C357 O365 1.224 . S
O358 C357 1.278 . S
C359 O360 1.245 . S
C359 O371 1.232 . S
O360 C359 1.245 . S
O361 Co355 2.058 . S
O361 C387 1.269 . S
O362 Co354 2.074 . S
O362 C387 1.257 . S
H363 C388 0.930 . S
H364 C394 0.930 . S
O365 Co354 2.093 . S
O365 C357 1.224 . S
H366 C398 0.929 . S
H367 C400 0.930 . S
H368 C401 0.930 . S
H369 C399 0.929 . S
H370 C402 0.928 . S
O371 Co355 2.057 . S
O371 C359 1.232 . S
H372 C391 0.929 . S
H373 C392 0.929 . S
H374 C404 0.931 . S
H375 C396 0.929 . S
H376 C405 0.930 . S
H377 C397 0.931 . S
O378 Co354 2.097 . S
O378 C406 1.214 . S
H379 C407 0.929 . S
H380 C408 0.929 . S
H381 C409 0.930 . S
H382 C410 0.929 . S
H383 C412 0.930 . S
H384 C389 0.930 . S
H385 C393 0.922 1_455 S
O386 Co355 2.037 . S
O386 C406 1.234 . S
C387 O361 1.269 . S
C387 O362 1.257 . S
C388 H363 0.930 . S
C388 C391 1.388 1_455 S
C388 C393 1.416 1_455 S
C389 H384 0.930 . S
C389 C392 1.404 . S
C389 C393 1.364 . S
N390 Co355 2.145 . S
N390 C391 1.397 . S
N390 C392 1.334 . S
C391 H372 0.929 . S
C391 C388 1.388 1_655 S
C391 N390 1.397 . S
C392 H373 0.929 . S
C392 C389 1.404 . S
C392 N390 1.334 . S
C393 H385 0.922 1_655 S
C393 C388 1.416 1_655 S
C393 C389 1.364 . S
C394 H364 0.930 . S
C394 N395 1.330 . S
C394 C396 1.446 . S
N395 Co354 2.151 . S
N395 C394 1.330 . S
N395 C399 1.418 . S
C396 H375 0.929 . S
C396 C394 1.446 . S
C396 C397 1.332 . S
C397 H377 0.931 . S
C397 C396 1.332 . S
C397 C398 1.267 . S
C398 H366 0.929 . S
C398 C397 1.267 . S
C398 C399 1.251 . S
C399 H369 0.929 . S
C399 N395 1.418 . S
C399 C398 1.251 . S
C400 H367 0.930 . S
C400 C402 1.406 . S
C400 C405 1.261 . S
C401 H368 0.930 . S
C401 N403 1.325 . S
C401 C404 1.357 . S
C402 H370 0.928 . S
C402 C400 1.406 . S
C402 N403 1.261 . S
N403 Co354 2.214 1_554 S
N403 C401 1.325 . S
N403 C402 1.261 . S
C404 H374 0.931 . S
C404 C401 1.357 . S
C404 C405 1.312 . S
C405 H376 0.930 . S
C405 C400 1.261 . S
C405 C404 1.312 . S
C406 O378 1.214 . S
C406 O386 1.234 . S
C407 H379 0.929 . S
C407 C410 1.391 . S
C407 C412 1.391 . S
C408 H380 0.929 . S
C408 C409 1.390 . S
C408 N411 1.391 . S
C409 H381 0.930 . S
C409 C408 1.390 . S
C409 C410 1.392 . S
C410 H382 0.929 . S
C410 C407 1.391 . S
C410 C409 1.392 . S
N411 Co355 2.257 . S
N411 C408 1.391 . S
N411 C412 1.388 . S
C412 H383 0.930 . S
C412 C407 1.391 . S
C412 N411 1.388 . S
Co413 O415 2.143 . S
Co413 O421 2.074 . S
Co413 O424 2.093 . S
Co413 O437 2.097 . S
Co413 N454 2.151 . S
Co413 N462 2.214 1_556 S
Co414 O415 2.160 . S
Co414 O420 2.058 . S
Co414 O430 2.057 . S
Co414 O445 2.037 . S
Co414 N449 2.145 . S
Co414 N470 2.257 . S
O415 Co413 2.143 . S
O415 Co414 2.160 . S
C416 O417 1.278 . S
C416 O424 1.224 . S
O417 C416 1.278 . S
C418 O419 1.245 . S
C418 O430 1.232 . S
O419 C418 1.245 . S
O420 Co414 2.058 . S
O420 C446 1.269 . S
O421 Co413 2.074 . S
O421 C446 1.257 . S
H422 C447 0.930 . S
H423 C453 0.930 . S
O424 Co413 2.093 . S
O424 C416 1.224 . S
H425 C457 0.929 . S
H426 C459 0.930 . S
H427 C460 0.930 . S
H428 C458 0.929 . S
H429 C461 0.928 . S
O430 Co414 2.057 . S
O430 C418 1.232 . S
H431 C450 0.929 . S
H432 C451 0.929 . S
H433 C463 0.931 . S
H434 C455 0.929 . S
H435 C464 0.930 . S
H436 C456 0.931 . S
O437 Co413 2.097 . S
O437 C465 1.214 . S
H438 C466 0.929 . S
H439 C467 0.929 . S
H440 C468 0.930 . S
H441 C469 0.929 . S
H442 C471 0.930 . S
H443 C448 0.930 . S
H444 C452 0.930 . S
O445 Co414 2.037 . S
O445 C465 1.234 . S
C446 O420 1.269 . S
C446 O421 1.257 . S
C447 H422 0.930 . S
C447 C450 1.388 . S
C447 C452 1.418 . S
C448 H443 0.930 . S
C448 C451 1.404 . S
C448 C452 1.353 . S
N449 Co414 2.145 . S
N449 C450 1.397 . S
N449 C451 1.334 . S
C450 H431 0.929 . S
C450 C447 1.388 . S
C450 N449 1.397 . S
C451 H432 0.929 . S
C451 C448 1.404 . S
C451 N449 1.334 . S
C452 H444 0.930 . S
C452 C447 1.418 . S
C452 C448 1.353 . S
C453 H423 0.930 . S
C453 N454 1.330 . S
C453 C455 1.446 . S
N454 Co413 2.151 . S
N454 C453 1.330 . S
N454 C458 1.418 . S
C455 H434 0.929 . S
C455 C453 1.446 . S
C455 C456 1.332 . S
C456 H436 0.931 . S
C456 C455 1.332 . S
C456 C457 1.267 . S
C457 H425 0.929 . S
C457 C456 1.267 . S
C457 C458 1.251 . S
C458 H428 0.929 . S
C458 N454 1.418 . S
C458 C457 1.251 . S
C459 H426 0.930 . S
C459 C461 1.406 . S
C459 C464 1.261 . S
C460 H427 0.930 . S
C460 N462 1.325 . S
C460 C463 1.357 . S
C461 H429 0.928 . S
C461 C459 1.406 . S
C461 N462 1.261 . S
N462 Co413 2.214 1_554 S
N462 C460 1.325 . S
N462 C461 1.261 . S
C463 H433 0.931 . S
C463 C460 1.357 . S
C463 C464 1.312 . S
C464 H435 0.930 . S
C464 C459 1.261 . S
C464 C463 1.312 . S
C465 O437 1.214 . S
C465 O445 1.234 . S
C466 H438 0.929 . S
C466 C469 1.391 . S
C466 C471 1.391 . S
C467 H439 0.929 . S
C467 C468 1.390 . S
C467 N470 1.391 . S
C468 H440 0.930 . S
C468 C467 1.390 . S
C468 C469 1.392 . S
C469 H441 0.929 . S
C469 C466 1.391 . S
C469 C468 1.392 . S
N470 Co414 2.257 . S
N470 C467 1.391 . S
N470 C471 1.388 . S
C471 H442 0.930 . S
C471 C466 1.391 . S
C471 N470 1.388 . S
Co472 O474 2.143 . S
Co472 O480 2.074 . S
Co472 O483 2.093 . S
Co472 O496 2.097 . S
Co472 N513 2.151 . S
Co472 N521 2.214 1_556 S
Co473 O474 2.160 . S
Co473 O479 2.058 . S
Co473 O489 2.057 . S
Co473 O504 2.037 . S
Co473 N508 2.145 . S
Co473 N529 2.257 . S
O474 Co472 2.143 . S
O474 Co473 2.160 . S
C475 O476 1.278 . S
C475 O483 1.224 . S
O476 C475 1.278 . S
C477 O478 1.245 . S
C477 O489 1.232 . S
O478 C477 1.245 . S
O479 Co473 2.058 . S
O479 C505 1.269 . S
O480 Co472 2.074 . S
O480 C505 1.257 . S
H481 C506 0.930 . S
H482 C512 0.930 . S
O483 Co472 2.093 . S
O483 C475 1.224 . S
H484 C516 0.929 . S
H485 C518 0.930 . S
H486 C519 0.930 . S
H487 C517 0.929 . S
H488 C520 0.928 . S
O489 Co473 2.057 . S
O489 C477 1.232 . S
H490 C509 0.929 . S
H491 C510 0.929 . S
H492 C522 0.931 . S
H493 C514 0.929 . S
H494 C523 0.930 . S
H495 C515 0.931 . S
O496 Co472 2.097 . S
O496 C524 1.214 . S
H497 C525 0.929 . S
H498 C526 0.929 . S
H499 C527 0.930 . S
H500 C528 0.929 . S
H501 C530 0.930 . S
H502 C507 0.930 . S
H503 C511 0.921 1_565 S
O504 Co473 2.037 . S
O504 C524 1.234 . S
C505 O479 1.269 . S
C505 O480 1.257 . S
C506 H481 0.930 . S
C506 C509 1.388 1_565 S
C506 C511 1.418 1_565 S
C507 H502 0.930 . S
C507 C510 1.404 . S
C507 C511 1.362 . S
N508 Co473 2.145 . S
N508 C509 1.397 . S
N508 C510 1.334 . S
C509 H490 0.929 . S
C509 C506 1.388 1_545 S
C509 N508 1.397 . S
C510 H491 0.929 . S
C510 C507 1.404 . S
C510 N508 1.334 . S
C511 H503 0.921 1_545 S
C511 C506 1.418 1_545 S
C511 C507 1.362 . S
C512 H482 0.930 . S
C512 N513 1.330 . S
C512 C514 1.446 . S
N513 Co472 2.151 . S
N513 C512 1.330 . S
N513 C517 1.418 . S
C514 H493 0.929 . S
C514 C512 1.446 . S
C514 C515 1.332 . S
C515 H495 0.931 . S
C515 C514 1.332 . S
C515 C516 1.267 . S
C516 H484 0.929 . S
C516 C515 1.267 . S
C516 C517 1.251 . S
C517 H487 0.929 . S
C517 N513 1.418 . S
C517 C516 1.251 . S
C518 H485 0.930 . S
C518 C520 1.406 . S
C518 C523 1.261 . S
C519 H486 0.930 . S
C519 N521 1.325 . S
C519 C522 1.357 . S
C520 H488 0.928 . S
C520 C518 1.406 . S
C520 N521 1.261 . S
N521 Co472 2.214 1_554 S
N521 C519 1.325 . S
N521 C520 1.261 . S
C522 H492 0.931 . S
C522 C519 1.357 . S
C522 C523 1.312 . S
C523 H494 0.930 . S
C523 C518 1.261 . S
C523 C522 1.312 . S
C524 O496 1.214 . S
C524 O504 1.234 . S
C525 H497 0.929 . S
C525 C528 1.391 . S
C525 C530 1.391 . S
C526 H498 0.929 . S
C526 C527 1.390 . S
C526 N529 1.391 . S
C527 H499 0.930 . S
C527 C526 1.390 . S
C527 C528 1.392 . S
C528 H500 0.929 . S
C528 C525 1.391 . S
C528 C527 1.392 . S
N529 Co473 2.257 . S
N529 C526 1.391 . S
N529 C530 1.388 . S
C530 H501 0.930 . S
C530 C525 1.391 . S
C530 N529 1.388 . S
Co531 O533 2.143 . S
Co531 O539 2.074 . S
Co531 O542 2.093 . S
Co531 O555 2.097 . S
Co531 N572 2.151 . S
Co531 N580 2.214 . S
Co532 O533 2.160 . S
Co532 O538 2.058 . S
Co532 O548 2.057 . S
Co532 O563 2.037 . S
Co532 N567 2.145 . S
Co532 N588 2.257 . S
O533 Co531 2.143 . S
O533 Co532 2.160 . S
C534 O535 1.278 . S
C534 O542 1.224 . S
O535 C534 1.278 . S
C536 O537 1.245 . S
C536 O548 1.232 . S
O537 C536 1.245 . S
O538 Co532 2.058 . S
O538 C564 1.269 . S
O539 Co531 2.074 . S
O539 C564 1.257 . S
H540 C565 0.930 . S
H541 C571 0.930 . S
O542 Co531 2.093 . S
O542 C534 1.224 . S
H543 C575 0.929 . S
H544 C577 0.930 . S
H545 C578 0.930 . S
H546 C576 0.929 . S
H547 C579 0.928 . S
O548 Co532 2.057 . S
O548 C536 1.232 . S
H549 C568 0.929 . S
H550 C569 0.929 . S
H551 C581 0.931 . S
H552 C573 0.929 . S
H553 C582 0.930 . S
H554 C574 0.931 . S
O555 Co531 2.097 . S
O555 C583 1.214 . S
H556 C584 0.929 . S
H557 C585 0.929 . S
H558 C586 0.930 . S
H559 C587 0.929 . S
H560 C589 0.930 . S
H561 C566 0.930 . S
H562 C570 0.922 1_565 S
O563 Co532 2.037 . S
O563 C583 1.234 . S
C564 O538 1.269 . S
C564 O539 1.257 . S
C565 H540 0.930 . S
C565 C568 1.388 1_565 S
C565 C570 1.416 1_565 S
C566 H561 0.930 . S
C566 C569 1.404 . S
C566 C570 1.364 . S
N567 Co532 2.145 . S
N567 C568 1.397 . S
N567 C569 1.334 . S
C568 H549 0.929 . S
C568 C565 1.388 1_545 S
C568 N567 1.397 . S
C569 H550 0.929 . S
C569 C566 1.404 . S
C569 N567 1.334 . S
C570 H562 0.922 1_545 S
C570 C565 1.416 1_545 S
C570 C566 1.364 . S
C571 H541 0.930 . S
C571 N572 1.330 . S
C571 C573 1.446 . S
N572 Co531 2.151 . S
N572 C571 1.330 . S
N572 C576 1.418 . S
C573 H552 0.929 . S
C573 C571 1.446 . S
C573 C574 1.332 . S
C574 H554 0.931 . S
C574 C573 1.332 . S
C574 C575 1.267 . S
C575 H543 0.929 . S
C575 C574 1.267 . S
C575 C576 1.251 . S
C576 H546 0.929 . S
C576 N572 1.418 . S
C576 C575 1.251 . S
C577 H544 0.930 . S
C577 C579 1.406 . S
C577 C582 1.261 . S
C578 H545 0.930 . S
C578 N580 1.325 . S
C578 C581 1.357 . S
C579 H547 0.928 . S
C579 C577 1.406 . S
C579 N580 1.261 . S
N580 Co531 2.214 . S
N580 C578 1.325 . S
N580 C579 1.261 . S
C581 H551 0.931 . S
C581 C578 1.357 . S
C581 C582 1.312 . S
C582 H553 0.930 . S
C582 C577 1.261 . S
C582 C581 1.312 . S
C583 O555 1.214 . S
C583 O563 1.234 . S
C584 H556 0.929 . S
C584 C587 1.391 . S
C584 C589 1.391 . S
C585 H557 0.929 . S
C585 C586 1.390 . S
C585 N588 1.391 . S
C586 H558 0.930 . S
C586 C585 1.390 . S
C586 C587 1.392 . S
C587 H559 0.929 . S
C587 C584 1.391 . S
C587 C586 1.392 . S
N588 Co532 2.257 . S
N588 C585 1.391 . S
N588 C589 1.388 . S
C589 H560 0.930 . S
C589 C584 1.391 . S
C589 N588 1.388 . S
Co590 O592 2.143 . S
Co590 O598 2.074 . S
Co590 O601 2.093 . S
Co590 O614 2.097 . S
Co590 N631 2.151 . S
Co590 N639 2.214 . S
Co591 O592 2.160 . S
Co591 O597 2.058 . S
Co591 O607 2.057 . S
Co591 O622 2.037 . S
Co591 N626 2.145 . S
Co591 N647 2.257 . S
O592 Co590 2.143 . S
O592 Co591 2.160 . S
C593 O594 1.278 . S
C593 O601 1.224 . S
O594 C593 1.278 . S
C595 O596 1.245 . S
C595 O607 1.232 . S
O596 C595 1.245 . S
O597 Co591 2.058 . S
O597 C623 1.269 . S
O598 Co590 2.074 . S
O598 C623 1.257 . S
H599 C624 0.930 . S
H600 C630 0.930 . S
O601 Co590 2.093 . S
O601 C593 1.224 . S
H602 C634 0.929 . S
H603 C636 0.930 . S
H604 C637 0.930 . S
H605 C635 0.929 . S
H606 C638 0.928 . S
O607 Co591 2.057 . S
O607 C595 1.232 . S
H608 C627 0.929 . S
H609 C628 0.929 . S
H610 C640 0.931 . S
H611 C632 0.929 . S
H612 C641 0.930 . S
H613 C633 0.931 . S
O614 Co590 2.097 . S
O614 C642 1.214 . S
H615 C643 0.929 . S
H616 C644 0.929 . S
H617 C645 0.930 . S
H618 C646 0.929 . S
H619 C648 0.930 . S
H620 C625 0.930 . S
H621 C629 0.921 1_455 S
O622 Co591 2.037 . S
O622 C642 1.234 . S
C623 O597 1.269 . S
C623 O598 1.257 . S
C624 H599 0.930 . S
C624 C627 1.388 1_455 S
C624 C629 1.418 1_455 S
C625 H620 0.930 . S
C625 C628 1.404 . S
C625 C629 1.362 . S
N626 Co591 2.145 . S
N626 C627 1.397 . S
N626 C628 1.334 . S
C627 H608 0.929 . S
C627 C624 1.388 1_655 S
C627 N626 1.397 . S
C628 H609 0.929 . S
C628 C625 1.404 . S
C628 N626 1.334 . S
C629 H621 0.921 1_655 S
C629 C624 1.418 1_655 S
C629 C625 1.362 . S
C630 H600 0.930 . S
C630 N631 1.330 . S
C630 C632 1.446 . S
N631 Co590 2.151 . S
N631 C630 1.330 . S
N631 C635 1.418 . S
C632 H611 0.929 . S
C632 C630 1.446 . S
C632 C633 1.332 . S
C633 H613 0.931 . S
C633 C632 1.332 . S
C633 C634 1.267 . S
C634 H602 0.929 . S
C634 C633 1.267 . S
C634 C635 1.251 . S
C635 H605 0.929 . S
C635 N631 1.418 . S
C635 C634 1.251 . S
C636 H603 0.930 . S
C636 C638 1.406 . S
C636 C641 1.261 . S
C637 H604 0.930 . S
C637 N639 1.325 . S
C637 C640 1.357 . S
C638 H606 0.928 . S
C638 C636 1.406 . S
C638 N639 1.261 . S
N639 Co590 2.214 . S
N639 C637 1.325 . S
N639 C638 1.261 . S
C640 H610 0.931 . S
C640 C637 1.357 . S
C640 C641 1.312 . S
C641 H612 0.930 . S
C641 C636 1.261 . S
C641 C640 1.312 . S
C642 O614 1.214 . S
C642 O622 1.234 . S
C643 H615 0.929 . S
C643 C646 1.391 . S
C643 C648 1.391 . S
C644 H616 0.929 . S
C644 C645 1.390 . S
C644 N647 1.391 . S
C645 H617 0.930 . S
C645 C644 1.390 . S
C645 C646 1.392 . S
C646 H618 0.929 . S
C646 C643 1.391 . S
C646 C645 1.392 . S
N647 Co591 2.257 . S
N647 C644 1.391 . S
N647 C648 1.388 . S
C648 H619 0.930 . S
C648 C643 1.391 . S
C648 N647 1.388 . S
Co649 O651 2.143 . S
Co649 O657 2.074 . S
Co649 O660 2.093 . S
Co649 O673 2.097 . S
Co649 N690 2.151 . S
Co649 N698 2.214 . S
Co650 O651 2.160 . S
Co650 O656 2.058 . S
Co650 O666 2.057 . S
Co650 O681 2.037 . S
Co650 N685 2.145 . S
Co650 N706 2.257 . S
O651 Co649 2.143 . S
O651 Co650 2.160 . S
C652 O653 1.278 . S
C652 O660 1.224 . S
O653 C652 1.278 . S
C654 O655 1.245 . S
C654 O666 1.232 . S
O655 C654 1.245 . S
O656 Co650 2.058 . S
O656 C682 1.269 . S
O657 Co649 2.074 . S
O657 C682 1.257 . S
H658 C683 0.930 . S
H659 C689 0.930 . S
O660 Co649 2.093 . S
O660 C652 1.224 . S
H661 C693 0.929 . S
H662 C695 0.930 . S
H663 C696 0.930 . S
H664 C694 0.929 . S
H665 C697 0.928 . S
O666 Co650 2.057 . S
O666 C654 1.232 . S
H667 C686 0.929 . S
H668 C687 0.929 . S
H669 C699 0.931 . S
H670 C691 0.929 . S
H671 C700 0.930 . S
H672 C692 0.931 . S
O673 Co649 2.097 . S
O673 C701 1.214 . S
H674 C702 0.929 . S
H675 C703 0.929 . S
H676 C704 0.930 . S
H677 C705 0.929 . S
H678 C707 0.930 . S
H679 C684 0.930 . S
H680 C688 0.930 . S
O681 Co650 2.037 . S
O681 C701 1.234 . S
C682 O656 1.269 . S
C682 O657 1.257 . S
C683 H658 0.930 . S
C683 C686 1.388 . S
C683 C688 1.418 . S
C684 H679 0.930 . S
C684 C687 1.404 . S
C684 C688 1.353 . S
N685 Co650 2.145 . S
N685 C686 1.397 . S
N685 C687 1.334 . S
C686 H667 0.929 . S
C686 C683 1.388 . S
C686 N685 1.397 . S
C687 H668 0.929 . S
C687 C684 1.404 . S
C687 N685 1.334 . S
C688 H680 0.930 . S
C688 C683 1.418 . S
C688 C684 1.353 . S
C689 H659 0.930 . S
C689 N690 1.330 . S
C689 C691 1.446 . S
N690 Co649 2.151 . S
N690 C689 1.330 . S
N690 C694 1.418 . S
C691 H670 0.929 . S
C691 C689 1.446 . S
C691 C692 1.332 . S
C692 H672 0.931 . S
C692 C691 1.332 . S
C692 C693 1.267 . S
C693 H661 0.929 . S
C693 C692 1.267 . S
C693 C694 1.251 . S
C694 H664 0.929 . S
C694 N690 1.418 . S
C694 C693 1.251 . S
C695 H662 0.930 . S
C695 C697 1.406 . S
C695 C700 1.261 . S
C696 H663 0.930 . S
C696 N698 1.325 . S
C696 C699 1.357 . S
C697 H665 0.928 . S
C697 C695 1.406 . S
C697 N698 1.261 . S
N698 Co649 2.214 . S
N698 C696 1.325 . S
N698 C697 1.261 . S
C699 H669 0.931 . S
C699 C696 1.357 . S
C699 C700 1.312 . S
C700 H671 0.930 . S
C700 C695 1.261 . S
C700 C699 1.312 . S
C701 O673 1.214 . S
C701 O681 1.234 . S
C702 H674 0.929 . S
C702 C705 1.391 . S
C702 C707 1.391 . S
C703 H675 0.929 . S
C703 C704 1.390 . S
C703 N706 1.391 . S
C704 H676 0.930 . S
C704 C703 1.390 . S
C704 C705 1.392 . S
C705 H677 0.929 . S
C705 C702 1.391 . S
C705 C704 1.392 . S
N706 Co650 2.257 . S
N706 C703 1.391 . S
N706 C707 1.388 . S
C707 H678 0.930 . S
C707 C702 1.391 . S
C707 N706 1.388 . S
H708 C726 0.951 . S
H709 C728 0.951 . S
H710 C730 0.950 . S
H711 C731 0.950 . S
H712 C733 0.950 . S
H713 C736 0.950 . S
H714 C737 0.950 . S
H715 C739 0.950 . S
H716 C740 0.950 . S
H717 C741 0.951 . S
H718 C743 0.951 . S
H719 C745 0.950 . S
H720 C746 0.950 . S
H721 C748 0.950 . S
H722 C751 0.950 . S
H723 C752 0.950 . S
H724 C754 0.950 . S
H725 C755 0.950 . S
C726 H708 0.951 . S
C726 C727 1.366 . S
C726 C728 1.388 . S
C727 C726 1.366 . S
C727 C731 1.385 . S
C728 H709 0.951 . S
C728 C726 1.388 . S
C728 C729 1.366 . S
C729 C728 1.366 . S
C729 C730 1.414 . S
C729 C732 1.499 . S
C730 H710 0.950 . S
C730 C729 1.414 . S
C730 C731 1.374 . S
C731 H711 0.950 . S
C731 C727 1.385 . S
C731 C730 1.374 . S
C732 C729 1.499 . S
C732 C733 1.373 1_554 S
C732 C734 1.389 . S
C733 H712 0.950 . S
C733 C732 1.373 1_556 S
C733 C749 1.377 . S
C734 C732 1.389 . S
C734 C735 1.524 . S
C734 C748 1.377 . S
C735 C734 1.524 . S
C735 C736 1.397 . S
C735 C740 1.363 . S
C736 H713 0.950 . S
C736 C735 1.397 . S
C736 C737 1.334 . S
C737 H714 0.950 . S
C737 C736 1.334 . S
C737 C738 1.287 . S
C738 C737 1.287 . S
C738 C739 1.524 . S
C738 H757 0.913 . S
C739 H715 0.950 . S
C739 C738 1.524 . S
C739 C740 1.415 . S
C740 H716 0.950 . S
C740 C735 1.363 . S
C740 C739 1.415 . S
C741 H717 0.951 . S
C741 C742 1.366 . S
C741 C743 1.388 . S
C742 C741 1.366 . S
C742 C746 1.385 . S
C743 H718 0.951 . S
C743 C741 1.388 . S
C743 C744 1.366 . S
C744 C743 1.366 . S
C744 C745 1.414 . S
C744 C747 1.499 . S
C745 H719 0.950 . S
C745 C744 1.414 . S
C745 C746 1.374 . S
C746 H720 0.950 . S
C746 C742 1.385 . S
C746 C745 1.374 . S
C747 C744 1.499 . S
C747 C748 1.373 1_556 S
C747 C749 1.389 . S
C748 H721 0.950 . S
C748 C734 1.377 . S
C748 C747 1.373 1_554 S
C749 C733 1.377 . S
C749 C747 1.389 . S
C749 C750 1.524 . S
C750 C749 1.524 . S
C750 C751 1.397 . S
C750 C755 1.363 . S
C751 H722 0.950 . S
C751 C750 1.397 . S
C751 C752 1.334 . S
C752 H723 0.950 . S
C752 C751 1.334 . S
C752 C753 1.287 . S
C753 C752 1.287 . S
C753 C754 1.524 . S
C753 H756 0.999 . S
C754 H724 0.950 . S
C754 C753 1.524 . S
C754 C755 1.415 . S
C755 H725 0.950 . S
C755 C750 1.363 . S
C755 C754 1.415 . S
H756 C753 0.999 . S
H757 C738 0.913 . S
H758 C776 0.957 . S
H759 C778 0.951 1_556 S
H760 C780 0.950 . S
H761 C781 0.950 . S
H762 C783 0.950 . S
H763 C786 0.950 . S
H764 C787 0.950 . S
H765 C789 0.950 . S
H766 C790 0.950 . S
H767 C791 0.951 . S
H768 C793 0.951 1_554 S
H769 C795 0.950 1_565 S
H770 C796 0.950 . S
H771 C798 0.950 . S
H772 C801 0.950 . S
H773 C802 0.950 . S
H774 C804 0.950 . S
H775 C805 0.950 . S
C776 H758 0.957 . S
C776 C777 1.366 . S
C776 C778 1.388 . S
C777 C776 1.366 . S
C777 C781 1.385 . S
C778 H759 0.951 1_554 S
C778 C776 1.388 . S
C778 C779 1.366 . S
C779 C778 1.366 . S
C779 C780 1.414 . S
C779 C782 1.499 . S
C780 H760 0.950 . S
C780 C779 1.414 . S
C780 C781 1.374 . S
C781 H761 0.950 . S
C781 C777 1.385 . S
C781 C780 1.374 . S
C782 C779 1.499 . S
C782 C783 1.373 . S
C782 C784 1.394 . S
C783 H762 0.950 . S
C783 C782 1.373 . S
C783 C799 1.377 1_554 S
C784 C782 1.394 . S
C784 C785 1.526 . S
C784 C798 1.371 1_554 S
C785 C784 1.526 . S
C785 C786 1.397 . S
C785 C790 1.363 1_554 S
C786 H763 0.950 . S
C786 C785 1.397 . S
C786 C787 1.334 . S
C787 H764 0.950 . S
C787 C786 1.334 . S
C787 C788 1.287 . S
C788 C787 1.287 . S
C788 C789 1.524 1_554 S
C788 H807 0.913 . S
C789 H765 0.950 . S
C789 C788 1.524 1_556 S
C789 C790 1.415 . S
C790 H766 0.950 . S
C790 C785 1.363 1_556 S
C790 C789 1.415 . S
C791 H767 0.951 . S
C791 C792 1.366 . S
C791 C793 1.388 . S
C792 C791 1.366 . S
C792 C796 1.385 . S
C793 H768 0.951 1_556 S
C793 C791 1.388 . S
C793 C794 1.366 1_545 S
C794 C793 1.366 1_565 S
C794 C795 1.414 1_565 S
C794 C797 1.499 . S
C795 H769 0.950 1_545 S
C795 C794 1.414 1_545 S
C795 C796 1.374 . S
C796 H770 0.950 . S
C796 C792 1.385 . S
C796 C795 1.374 . S
C797 C794 1.499 . S
C797 C798 1.373 . S
C797 C799 1.389 . S
C798 H771 0.950 . S
C798 C784 1.371 1_556 S
C798 C797 1.373 . S
C799 C783 1.377 1_556 S
C799 C797 1.389 . S
C799 C800 1.524 . S
C800 C799 1.524 . S
C800 C801 1.397 . S
C800 C805 1.363 1_556 S
C801 H772 0.950 . S
C801 C800 1.397 . S
C801 C802 1.334 . S
C802 H773 0.950 . S
C802 C801 1.334 . S
C802 C803 1.287 . S
C803 C802 1.287 . S
C803 C804 1.524 1_556 S
C803 H806 0.999 . S
C804 H774 0.950 . S
C804 C803 1.524 1_554 S
C804 C805 1.415 . S
C805 H775 0.950 . S
C805 C800 1.363 1_554 S
C805 C804 1.415 . S
H806 C803 0.999 . S
H807 C788 0.913 . S
H808 C826 0.951 . S
H809 C828 0.951 . S
H810 C830 0.950 . S
H811 C831 0.950 . S
H812 C833 0.950 . S
H813 C836 0.950 . S
H814 C837 0.950 . S
H815 C839 0.950 . S
H816 C840 0.950 . S
H817 C841 0.951 . S
H818 C843 0.931 1_455 S
H819 C845 0.950 . S
H820 C846 0.950 . S
H821 C848 0.950 . S
H822 C851 0.950 . S
H823 C852 0.950 . S
H824 C854 0.950 . S
H825 C855 0.950 . S
C826 H808 0.951 . S
C826 C827 1.366 . S
C826 C828 1.388 . S
C827 C826 1.366 . S
C827 C831 1.385 . S
C828 H809 0.951 . S
C828 C826 1.388 . S
C828 C829 1.366 . S
C829 C828 1.366 . S
C829 C830 1.414 . S
C829 C832 1.499 . S
C830 H810 0.950 . S
C830 C829 1.414 . S
C830 C831 1.374 . S
C831 H811 0.950 . S
C831 C827 1.385 . S
C831 C830 1.374 . S
C832 C829 1.499 . S
C832 C833 1.373 1_554 S
C832 C834 1.389 . S
C833 H812 0.950 . S
C833 C832 1.373 1_556 S
C833 C849 1.377 . S
C834 C832 1.389 . S
C834 C835 1.524 . S
C834 C848 1.377 . S
C835 C834 1.524 . S
C835 C836 1.397 . S
C835 C840 1.363 . S
C836 H813 0.950 . S
C836 C835 1.397 . S
C836 C837 1.334 . S
C837 H814 0.950 . S
C837 C836 1.334 . S
C837 C838 1.287 . S
C838 C837 1.287 . S
C838 C839 1.524 . S
C838 H857 0.913 . S
C839 H815 0.950 . S
C839 C838 1.524 . S
C839 C840 1.415 . S
C840 H816 0.950 . S
C840 C835 1.363 . S
C840 C839 1.415 . S
C841 H817 0.951 . S
C841 C842 1.366 . S
C841 C843 1.403 . S
C842 C841 1.366 . S
C842 C846 1.385 . S
C843 H818 0.931 1_655 S
C843 C841 1.403 . S
C843 C844 1.370 1_655 S
C844 C843 1.370 1_455 S
C844 C845 1.414 1_455 S
C844 C847 1.499 . S
C845 H819 0.950 . S
C845 C844 1.414 1_655 S
C845 C846 1.374 . S
C846 H820 0.950 . S
C846 C842 1.385 . S
C846 C845 1.374 . S
C847 C844 1.499 . S
C847 C848 1.373 1_556 S
C847 C849 1.389 . S
C848 H821 0.950 . S
C848 C834 1.377 . S
C848 C847 1.373 1_554 S
C849 C833 1.377 . S
C849 C847 1.389 . S
C849 C850 1.524 . S
C850 C849 1.524 . S
C850 C851 1.397 . S
C850 C855 1.363 . S
C851 H822 0.950 . S
C851 C850 1.397 . S
C851 C852 1.334 . S
C852 H823 0.950 . S
C852 C851 1.334 . S
C852 C853 1.287 . S
C853 C852 1.287 . S
C853 C854 1.524 . S
C853 H856 0.999 . S
C854 H824 0.950 . S
C854 C853 1.524 . S
C854 C855 1.415 . S
C855 H825 0.950 . S
C855 C850 1.363 . S
C855 C854 1.415 . S
H856 C853 0.999 . S
H857 C838 0.913 . S
H858 C876 0.951 . S
H859 C878 0.951 . S
H860 C880 0.950 . S
H861 C881 0.950 . S
H862 C883 0.950 . S
H863 C886 0.950 . S
H864 C887 0.950 . S
H865 C889 0.950 . S
H866 C890 0.950 . S
H867 C891 0.951 . S
H868 C893 0.951 . S
H869 C895 0.950 . S
H870 C896 0.950 . S
H871 C898 0.950 . S
H872 C901 0.950 . S
H873 C902 0.950 . S
H874 C904 0.950 . S
H875 C905 0.950 . S
C876 H858 0.951 . S
C876 C877 1.366 . S
C876 C878 1.388 . S
C877 C876 1.366 . S
C877 C881 1.385 . S
C878 H859 0.951 . S
C878 C876 1.388 . S
C878 C879 1.366 . S
C879 C878 1.366 . S
C879 C880 1.414 . S
C879 C882 1.499 . S
C880 H860 0.950 . S
C880 C879 1.414 . S
C880 C881 1.374 . S
C881 H861 0.950 . S
C881 C877 1.385 . S
C881 C880 1.374 . S
C882 C879 1.499 . S
C882 C883 1.373 . S
C882 C884 1.389 . S
C883 H862 0.950 . S
C883 C882 1.373 . S
C883 C899 1.377 . S
C884 C882 1.389 . S
C884 C885 1.524 . S
C884 C898 1.377 . S
C885 C884 1.524 . S
C885 C886 1.397 . S
C885 C890 1.363 . S
C886 H863 0.950 . S
C886 C885 1.397 . S
C886 C887 1.334 . S
C887 H864 0.950 . S
C887 C886 1.334 . S
C887 C888 1.287 . S
C888 C887 1.287 . S
C888 C889 1.524 . S
C888 H907 0.913 . S
C889 H865 0.950 . S
C889 C888 1.524 . S
C889 C890 1.415 . S
C890 H866 0.950 . S
C890 C885 1.363 . S
C890 C889 1.415 . S
C891 H867 0.951 . S
C891 C892 1.366 . S
C891 C893 1.388 . S
C892 C891 1.366 . S
C892 C896 1.385 . S
C893 H868 0.951 . S
C893 C891 1.388 . S
C893 C894 1.366 . S
C894 C893 1.366 . S
C894 C895 1.414 . S
C894 C897 1.499 . S
C895 H869 0.950 . S
C895 C894 1.414 . S
C895 C896 1.374 . S
C896 H870 0.950 . S
C896 C892 1.385 . S
C896 C895 1.374 . S
C897 C894 1.499 . S
C897 C898 1.373 . S
C897 C899 1.389 . S
C898 H871 0.950 . S
C898 C884 1.377 . S
C898 C897 1.373 . S
C899 C883 1.377 . S
C899 C897 1.389 . S
C899 C900 1.524 . S
C900 C899 1.524 . S
C900 C901 1.397 . S
C900 C905 1.363 . S
C901 H872 0.950 . S
C901 C900 1.397 . S
C901 C902 1.334 . S
C902 H873 0.950 . S
C902 C901 1.334 . S
C902 C903 1.287 . S
C903 C902 1.287 . S
C903 C904 1.524 . S
C903 H906 0.999 . S
C904 H874 0.950 . S
C904 C903 1.524 . S
C904 C905 1.415 . S
C905 H875 0.950 . S
C905 C900 1.363 . S
C905 C904 1.415 . S
H906 C903 0.999 . S
H907 C888 0.913 . S
H908 C926 0.951 . S
H909 C928 0.951 . S
H910 C930 0.950 . S
H911 C931 0.950 . S
H912 C933 0.950 . S
H913 C936 0.950 . S
H914 C937 0.950 . S
H915 C939 0.950 . S
H916 C940 0.950 . S
H917 C941 0.951 . S
H918 C943 0.951 . S
H919 C945 0.950 1_565 S
H920 C946 0.950 . S
H921 C948 0.950 . S
H922 C951 0.950 . S
H923 C952 0.950 . S
H924 C954 0.950 . S
H925 C955 0.950 . S
C926 H908 0.951 . S
C926 C927 1.366 . S
C926 C928 1.388 . S
C927 C926 1.366 . S
C927 C931 1.385 . S
C928 H909 0.951 . S
C928 C926 1.388 . S
C928 C929 1.366 . S
C929 C928 1.366 . S
C929 C930 1.414 . S
C929 C932 1.499 . S
C930 H910 0.950 . S
C930 C929 1.414 . S
C930 C931 1.374 . S
C931 H911 0.950 . S
C931 C927 1.385 . S
C931 C930 1.374 . S
C932 C929 1.499 . S
C932 C933 1.373 . S
C932 C934 1.389 . S
C933 H912 0.950 . S
C933 C932 1.373 . S
C933 C949 1.377 . S
C934 C932 1.389 . S
C934 C935 1.524 . S
C934 C948 1.377 . S
C935 C934 1.524 . S
C935 C936 1.397 . S
C935 C940 1.363 . S
C936 H913 0.950 . S
C936 C935 1.397 . S
C936 C937 1.334 . S
C937 H914 0.950 . S
C937 C936 1.334 . S
C937 C938 1.287 . S
C938 C937 1.287 . S
C938 C939 1.524 . S
C938 H957 0.913 . S
C939 H915 0.950 . S
C939 C938 1.524 . S
C939 C940 1.415 . S
C940 H916 0.950 . S
C940 C935 1.363 . S
C940 C939 1.415 . S
C941 H917 0.951 . S
C941 C942 1.366 . S
C941 C943 1.388 . S
C942 C941 1.366 . S
C942 C946 1.385 . S
C943 H918 0.951 . S
C943 C941 1.388 . S
C943 C944 1.366 1_545 S
C944 C943 1.366 1_565 S
C944 C945 1.414 1_565 S
C944 C947 1.499 . S
C945 H919 0.950 1_545 S
C945 C944 1.414 1_545 S
C945 C946 1.374 . S
C946 H920 0.950 . S
C946 C942 1.385 . S
C946 C945 1.374 . S
C947 C944 1.499 . S
C947 C948 1.373 . S
C947 C949 1.389 . S
C948 H921 0.950 . S
C948 C934 1.377 . S
C948 C947 1.373 . S
C949 C933 1.377 . S
C949 C947 1.389 . S
C949 C950 1.524 . S
C950 C949 1.524 . S
C950 C951 1.397 . S
C950 C955 1.363 . S
C951 H922 0.950 . S
C951 C950 1.397 . S
C951 C952 1.334 . S
C952 H923 0.950 . S
C952 C951 1.334 . S
C952 C953 1.287 . S
C953 C952 1.287 . S
C953 C954 1.524 . S
C953 H956 0.999 . S
C954 H924 0.950 . S
C954 C953 1.524 . S
C954 C955 1.415 . S
C955 H925 0.950 . S
C955 C950 1.363 . S
C955 C954 1.415 . S
H956 C953 0.999 . S
H957 C938 0.913 . S
H958 C976 0.951 . S
H959 C978 0.951 1_455 S
H960 C980 0.950 . S
H961 C981 0.950 . S
H962 C983 0.950 . S
H963 C986 0.958 1_655 S
H964 C987 0.950 . S
H965 C989 0.950 . S
H966 C990 0.950 . S
H967 C991 0.951 . S
H968 C993 0.951 . S
H969 C995 0.950 . S
H970 C996 0.950 . S
H971 C998 0.950 . S
H972 C1001 0.950 . S
H973 C1002 0.950 . S
H974 C1004 0.950 . S
H975 C1005 0.950 . S
C976 H958 0.951 . S
C976 C977 1.366 . S
C976 C978 1.388 . S
C977 C976 1.366 . S
C977 C981 1.385 . S
C978 H959 0.951 1_655 S
C978 C976 1.388 . S
C978 C979 1.366 1_655 S
C979 C978 1.366 1_455 S
C979 C980 1.414 1_455 S
C979 C982 1.499 . S
C980 H960 0.950 . S
C980 C979 1.414 1_655 S
C980 C981 1.374 . S
C981 H961 0.950 . S
C981 C977 1.385 . S
C981 C980 1.374 . S
C982 C979 1.499 . S
C982 C983 1.373 . S
C982 C984 1.389 . S
C983 H962 0.950 . S
C983 C982 1.373 . S
C983 C999 1.377 . S
C984 C982 1.389 . S
C984 C985 1.524 . S
C984 C998 1.377 . S
C985 C984 1.524 . S
C985 C986 1.397 . S
C985 C990 1.363 . S
C986 H963 0.958 1_455 S
C986 C985 1.397 . S
C986 C987 1.334 1_455 S
C987 H964 0.950 . S
C987 C986 1.334 1_655 S
C987 C988 1.287 . S
C988 C987 1.287 . S
C988 C989 1.524 1_655 S
C988 H1007 0.913 . S
C989 H965 0.950 . S
C989 C988 1.524 1_455 S
C989 C990 1.415 . S
C990 H966 0.950 . S
C990 C985 1.363 . S
C990 C989 1.415 . S
C991 H967 0.951 . S
C991 C992 1.366 . S
C991 C993 1.388 . S
C992 C991 1.366 . S
C992 C996 1.385 . S
C993 H968 0.951 . S
C993 C991 1.388 . S
C993 C994 1.366 . S
C994 C993 1.366 . S
C994 C995 1.414 . S
C994 C997 1.499 . S
C995 H969 0.950 . S
C995 C994 1.414 . S
C995 C996 1.374 . S
C996 H970 0.950 . S
C996 C992 1.385 . S
C996 C995 1.374 . S
C997 C994 1.499 . S
C997 C998 1.373 . S
C997 C999 1.389 . S
C998 H971 0.950 . S
C998 C984 1.377 . S
C998 C997 1.373 . S
C999 C983 1.377 . S
C999 C997 1.389 . S
C999 C1000 1.524 . S
C1000 C999 1.524 . S
C1000 C1001 1.397 . S
C1000 C1005 1.363 . S
C1001 H972 0.950 . S
C1001 C1000 1.397 . S
C1001 C1002 1.334 . S
C1002 H973 0.950 . S
C1002 C1001 1.334 . S
C1002 C1003 1.287 . S
C1003 C1002 1.287 . S
C1003 C1004 1.524 . S
C1003 H1006 0.999 . S
C1004 H974 0.950 . S
C1004 C1003 1.524 . S
C1004 C1005 1.415 . S
C1005 H975 0.950 . S
C1005 C1000 1.363 . S
C1005 C1004 1.415 . S
H1006 C1003 0.999 . S
H1007 C988 0.913 . S
H1008 C1026 0.951 . S
H1009 C1028 0.951 1_556 S
H1010 C1030 0.950 . S
H1011 C1031 0.950 . S
H1012 C1033 0.950 . S
H1013 C1036 0.950 . S
H1014 C1037 0.950 . S
H1015 C1039 0.936 1_556 S
H1016 C1040 0.911 1_556 S
H1017 C1041 0.951 . S
H1018 C1043 0.951 1_554 S
H1019 C1045 0.950 . S
H1020 C1046 0.950 . S
H1021 C1048 0.950 . S
H1022 C1051 0.950 . S
H1023 C1052 0.950 . S
H1024 C1054 0.950 1_554 S
H1025 C1055 0.981 . S
C1026 H1008 0.951 . S
C1026 C1027 1.366 . S
C1026 C1028 1.388 . S
C1027 C1026 1.366 . S
C1027 C1031 1.385 . S
C1028 H1009 0.951 1_554 S
C1028 C1026 1.388 . S
C1028 C1029 1.366 . S
C1029 C1028 1.366 . S
C1029 C1030 1.414 . S
C1029 C1032 1.499 . S
C1030 H1010 0.950 . S
C1030 C1029 1.414 . S
C1030 C1031 1.374 . S
C1031 H1011 0.950 . S
C1031 C1027 1.385 . S
C1031 C1030 1.374 . S
C1032 C1029 1.499 . S
C1032 C1033 1.373 . S
C1032 C1034 1.389 . S
C1033 H1012 0.950 . S
C1033 C1032 1.373 . S
C1033 C1049 1.377 1_554 S
C1034 C1032 1.389 . S
C1034 C1035 1.524 . S
C1034 C1048 1.377 1_554 S
C1035 C1034 1.524 . S
C1035 C1036 1.397 . S
C1035 C1040 1.388 . S
C1036 H1013 0.950 . S
C1036 C1035 1.397 . S
C1036 C1037 1.334 . S
C1037 H1014 0.950 . S
C1037 C1036 1.334 . S
C1037 C1038 1.287 . S
C1038 C1037 1.287 . S
C1038 C1039 1.524 . S
C1038 H1057 0.913 . S
C1039 H1015 0.936 1_554 S
C1039 C1038 1.524 . S
C1039 C1040 1.429 . S
C1040 H1016 0.911 1_554 S
C1040 C1035 1.388 . S
C1040 C1039 1.429 . S
C1041 H1017 0.951 . S
C1041 C1042 1.366 . S
C1041 C1043 1.388 . S
C1042 C1041 1.366 . S
C1042 C1046 1.385 . S
C1043 H1018 0.951 1_556 S
C1043 C1041 1.388 . S
C1043 C1044 1.366 . S
C1044 C1043 1.366 . S
C1044 C1045 1.414 . S
C1044 C1047 1.499 . S
C1045 H1019 0.950 . S
C1045 C1044 1.414 . S
C1045 C1046 1.374 . S
C1046 H1020 0.950 . S
C1046 C1042 1.385 . S
C1046 C1045 1.374 . S
C1047 C1044 1.499 . S
C1047 C1048 1.373 . S
C1047 C1049 1.389 . S
C1048 H1021 0.950 . S
C1048 C1034 1.377 1_556 S
C1048 C1047 1.373 . S
C1049 C1033 1.377 1_556 S
C1049 C1047 1.389 . S
C1049 C1050 1.524 . S
C1050 C1049 1.524 . S
C1050 C1051 1.397 . S
C1050 C1055 1.343 1_556 S
C1051 H1022 0.950 . S
C1051 C1050 1.397 . S
C1051 C1052 1.334 . S
C1052 H1023 0.950 . S
C1052 C1051 1.334 . S
C1052 C1053 1.287 . S
C1053 C1052 1.287 . S
C1053 C1054 1.524 . S
C1053 H1056 0.999 . S
C1054 H1024 0.950 1_556 S
C1054 C1053 1.524 . S
C1054 C1055 1.405 1_556 S
C1055 H1025 0.981 . S
C1055 C1050 1.343 1_554 S
C1055 C1054 1.405 1_554 S
H1056 C1053 0.999 . S
H1057 C1038 0.913 . S
H1058 C1076 0.951 . S
H1059 C1078 0.951 . S
H1060 C1080 0.950 . S
H1061 C1081 0.950 . S
H1062 C1083 0.950 . S
H1063 C1086 0.950 . S
H1064 C1087 0.950 . S
H1065 C1089 0.950 . S
H1066 C1090 0.950 . S
H1067 C1091 0.951 . S
H1068 C1093 0.951 . S
H1069 C1095 0.950 1_545 S
H1070 C1096 0.950 . S
H1071 C1098 0.950 . S
H1072 C1101 0.950 . S
H1073 C1102 0.950 . S
H1074 C1104 0.950 . S
H1075 C1105 0.950 . S
C1076 H1058 0.951 . S
C1076 C1077 1.366 . S
C1076 C1078 1.388 . S
C1077 C1076 1.366 . S
C1077 C1081 1.385 . S
C1078 H1059 0.951 . S
C1078 C1076 1.388 . S
C1078 C1079 1.366 . S
C1079 C1078 1.366 . S
C1079 C1080 1.414 . S
C1079 C1082 1.499 . S
C1080 H1060 0.950 . S
C1080 C1079 1.414 . S
C1080 C1081 1.374 . S
C1081 H1061 0.950 . S
C1081 C1077 1.385 . S
C1081 C1080 1.374 . S
C1082 C1079 1.499 . S
C1082 C1083 1.373 1_556 S
C1082 C1084 1.389 . S
C1083 H1062 0.950 . S
C1083 C1082 1.373 1_554 S
C1083 C1099 1.377 . S
C1084 C1082 1.389 . S
C1084 C1085 1.524 . S
C1084 C1098 1.377 . S
C1085 C1084 1.524 . S
C1085 C1086 1.397 . S
C1085 C1090 1.363 . S
C1086 H1063 0.950 . S
C1086 C1085 1.397 . S
C1086 C1087 1.334 . S
C1087 H1064 0.950 . S
C1087 C1086 1.334 . S
C1087 C1088 1.287 . S
C1088 C1087 1.287 . S
C1088 C1089 1.524 . S
C1088 H1107 0.913 . S
C1089 H1065 0.950 . S
C1089 C1088 1.524 . S
C1089 C1090 1.415 . S
C1090 H1066 0.950 . S
C1090 C1085 1.363 . S
C1090 C1089 1.415 . S
C1091 H1067 0.951 . S
C1091 C1092 1.366 . S
C1091 C1093 1.388 . S
C1092 C1091 1.366 . S
C1092 C1096 1.385 . S
C1093 H1068 0.951 . S
C1093 C1091 1.388 . S
C1093 C1094 1.366 1_565 S
C1094 C1093 1.366 1_545 S
C1094 C1095 1.414 1_545 S
C1094 C1097 1.499 . S
C1095 H1069 0.950 1_565 S
C1095 C1094 1.414 1_565 S
C1095 C1096 1.374 . S
C1096 H1070 0.950 . S
C1096 C1092 1.385 . S
C1096 C1095 1.374 . S
C1097 C1094 1.499 . S
C1097 C1098 1.373 1_554 S
C1097 C1099 1.389 . S
C1098 H1071 0.950 . S
C1098 C1084 1.377 . S
C1098 C1097 1.373 1_556 S
C1099 C1083 1.377 . S
C1099 C1097 1.389 . S
C1099 C1100 1.524 . S
C1100 C1099 1.524 . S
C1100 C1101 1.397 . S
C1100 C1105 1.363 . S
C1101 H1072 0.950 . S
C1101 C1100 1.397 . S
C1101 C1102 1.334 . S
C1102 H1073 0.950 . S
C1102 C1101 1.334 . S
C1102 C1103 1.287 . S
C1103 C1102 1.287 . S
C1103 C1104 1.524 . S
C1103 H1106 0.999 . S
C1104 H1074 0.950 . S
C1104 C1103 1.524 . S
C1104 C1105 1.415 . S
C1105 H1075 0.950 . S
C1105 C1100 1.363 . S
C1105 C1104 1.415 . S
H1106 C1103 0.999 . S
H1107 C1088 0.913 . S
H1108 C1126 0.951 . S
H1109 C1128 0.951 . S
H1110 C1130 0.950 1_655 S
H1111 C1131 0.950 . S
H1112 C1133 0.950 . S
H1113 C1136 0.958 . S
H1114 C1137 0.950 . S
H1115 C1139 0.948 . S
H1116 C1140 0.950 . S
H1117 C1141 0.951 . S
H1118 C1143 0.951 . S
H1119 C1145 0.950 . S
H1120 C1146 0.950 . S
H1121 C1148 0.950 . S
H1122 C1151 0.950 . S
H1123 C1152 0.950 . S
H1124 C1154 0.950 . S
H1125 C1155 0.950 . S
C1126 H1108 0.951 . S
C1126 C1127 1.366 . S
C1126 C1128 1.388 . S
C1127 C1126 1.366 . S
C1127 C1131 1.385 . S
C1128 H1109 0.951 . S
C1128 C1126 1.388 . S
C1128 C1129 1.366 1_455 S
C1129 C1128 1.366 1_655 S
C1129 C1130 1.414 1_655 S
C1129 C1132 1.499 . S
C1130 H1110 0.950 1_455 S
C1130 C1129 1.414 1_455 S
C1130 C1131 1.374 . S
C1131 H1111 0.950 . S
C1131 C1127 1.385 . S
C1131 C1130 1.374 . S
C1132 C1129 1.499 . S
C1132 C1133 1.373 . S
C1132 C1134 1.389 1_554 S
C1133 H1112 0.950 . S
C1133 C1132 1.373 . S
C1133 C1149 1.377 . S
C1134 C1132 1.389 1_556 S
C1134 C1135 1.524 . S
C1134 C1148 1.377 . S
C1135 C1134 1.524 . S
C1135 C1136 1.401 . S
C1135 C1140 1.363 . S
C1136 H1113 0.958 . S
C1136 C1135 1.401 . S
C1136 C1137 1.321 1_655 S
C1137 H1114 0.950 . S
C1137 C1136 1.321 1_455 S
C1137 C1138 1.287 . S
C1138 C1137 1.287 . S
C1138 C1139 1.523 . S
C1138 H1157 0.913 . S
C1139 H1115 0.948 . S
C1139 C1138 1.523 . S
C1139 C1140 1.418 1_455 S
C1140 H1116 0.950 . S
C1140 C1135 1.363 . S
C1140 C1139 1.418 1_655 S
C1141 H1117 0.951 . S
C1141 C1142 1.366 . S
C1141 C1143 1.388 . S
C1142 C1141 1.366 . S
C1142 C1146 1.385 . S
C1143 H1118 0.951 . S
C1143 C1141 1.388 . S
C1143 C1144 1.366 . S
C1144 C1143 1.366 . S
C1144 C1145 1.414 . S
C1144 C1147 1.499 . S
C1145 H1119 0.950 . S
C1145 C1144 1.414 . S
C1145 C1146 1.374 . S
C1146 H1120 0.950 . S
C1146 C1142 1.385 . S
C1146 C1145 1.374 . S
C1147 C1144 1.499 . S
C1147 C1148 1.373 . S
C1147 C1149 1.389 1_556 S
C1148 H1121 0.950 . S
C1148 C1134 1.377 . S
C1148 C1147 1.373 . S
C1149 C1133 1.377 . S
C1149 C1147 1.389 1_554 S
C1149 C1150 1.524 . S
C1150 C1149 1.524 . S
C1150 C1151 1.397 . S
C1150 C1155 1.363 . S
C1151 H1122 0.950 . S
C1151 C1150 1.397 . S
C1151 C1152 1.334 . S
C1152 H1123 0.950 . S
C1152 C1151 1.334 . S
C1152 C1153 1.287 . S
C1153 C1152 1.287 . S
C1153 C1154 1.524 . S
C1153 H1156 0.999 . S
C1154 H1124 0.950 . S
C1154 C1153 1.524 . S
C1154 C1155 1.415 . S
C1155 H1125 0.950 . S
C1155 C1150 1.363 . S
C1155 C1154 1.415 . S
H1156 C1153 0.999 . S
H1157 C1138 0.913 . S
H1158 C1176 0.951 . S
H1159 C1178 0.951 . S
H1160 C1180 0.950 . S
H1161 C1181 0.950 . S
H1162 C1183 0.950 . S
H1163 C1186 0.950 . S
H1164 C1187 0.950 . S
H1165 C1189 0.950 . S
H1166 C1190 0.950 . S
H1167 C1191 0.951 . S
H1168 C1193 0.951 . S
H1169 C1195 0.950 . S
H1170 C1196 0.950 . S
H1171 C1198 0.950 . S
H1172 C1201 0.950 . S
H1173 C1202 0.950 . S
H1174 C1204 0.950 . S
H1175 C1205 0.950 . S
C1176 H1158 0.951 . S
C1176 C1177 1.366 . S
C1176 C1178 1.388 . S
C1177 C1176 1.366 . S
C1177 C1181 1.385 . S
C1178 H1159 0.951 . S
C1178 C1176 1.388 . S
C1178 C1179 1.366 . S
C1179 C1178 1.366 . S
C1179 C1180 1.414 . S
C1179 C1182 1.499 . S
C1180 H1160 0.950 . S
C1180 C1179 1.414 . S
C1180 C1181 1.374 . S
C1181 H1161 0.950 . S
C1181 C1177 1.385 . S
C1181 C1180 1.374 . S
C1182 C1179 1.499 . S
C1182 C1183 1.373 . S
C1182 C1184 1.389 . S
C1183 H1162 0.950 . S
C1183 C1182 1.373 . S
C1183 C1199 1.377 . S
C1184 C1182 1.389 . S
C1184 C1185 1.524 . S
C1184 C1198 1.377 . S
C1185 C1184 1.524 . S
C1185 C1186 1.397 . S
C1185 C1190 1.363 . S
C1186 H1163 0.950 . S
C1186 C1185 1.397 . S
C1186 C1187 1.334 . S
C1187 H1164 0.950 . S
C1187 C1186 1.334 . S
C1187 C1188 1.287 . S
C1188 C1187 1.287 . S
C1188 C1189 1.524 . S
C1188 H1207 0.913 . S
C1189 H1165 0.950 . S
C1189 C1188 1.524 . S
C1189 C1190 1.415 . S
C1190 H1166 0.950 . S
C1190 C1185 1.363 . S
C1190 C1189 1.415 . S
C1191 H1167 0.951 . S
C1191 C1192 1.366 . S
C1191 C1193 1.388 . S
C1192 C1191 1.366 . S
C1192 C1196 1.385 . S
C1193 H1168 0.951 . S
C1193 C1191 1.388 . S
C1193 C1194 1.366 . S
C1194 C1193 1.366 . S
C1194 C1195 1.414 . S
C1194 C1197 1.499 . S
C1195 H1169 0.950 . S
C1195 C1194 1.414 . S
C1195 C1196 1.374 . S
C1196 H1170 0.950 . S
C1196 C1192 1.385 . S
C1196 C1195 1.374 . S
C1197 C1194 1.499 . S
C1197 C1198 1.373 . S
C1197 C1199 1.389 . S
C1198 H1171 0.950 . S
C1198 C1184 1.377 . S
C1198 C1197 1.373 . S
C1199 C1183 1.377 . S
C1199 C1197 1.389 . S
C1199 C1200 1.524 . S
C1200 C1199 1.524 . S
C1200 C1201 1.397 . S
C1200 C1205 1.363 . S
C1201 H1172 0.950 . S
C1201 C1200 1.397 . S
C1201 C1202 1.334 . S
C1202 H1173 0.950 . S
C1202 C1201 1.334 . S
C1202 C1203 1.287 . S
C1203 C1202 1.287 . S
C1203 C1204 1.524 . S
C1203 H1206 0.999 . S
C1204 H1174 0.950 . S
C1204 C1203 1.524 . S
C1204 C1205 1.415 . S
C1205 H1175 0.950 . S
C1205 C1200 1.363 . S
C1205 C1204 1.415 . S
H1206 C1203 0.999 . S
H1207 C1188 0.913 . S
H1208 C1226 0.951 . S
H1209 C1228 0.951 . S
H1210 C1230 0.950 . S
H1211 C1231 0.950 . S
H1212 C1233 0.950 . S
H1213 C1236 0.950 . S
H1214 C1237 0.950 . S
H1215 C1239 0.950 . S
H1216 C1240 0.950 . S
H1217 C1241 0.951 . S
H1218 C1243 0.951 1_545 S
H1219 C1245 0.950 . S
H1220 C1246 0.950 . S
H1221 C1248 0.950 . S
H1222 C1251 0.966 . S
H1223 C1252 0.950 . S
H1224 C1254 0.950 . S
H1225 C1255 0.950 . S
C1226 H1208 0.951 . S
C1226 C1227 1.366 . S
C1226 C1228 1.388 . S
C1227 C1226 1.366 . S
C1227 C1231 1.385 . S
C1228 H1209 0.951 . S
C1228 C1226 1.388 . S
C1228 C1229 1.366 . S
C1229 C1228 1.366 . S
C1229 C1230 1.414 . S
C1229 C1232 1.499 . S
C1230 H1210 0.950 . S
C1230 C1229 1.414 . S
C1230 C1231 1.374 . S
C1231 H1211 0.950 . S
C1231 C1227 1.385 . S
C1231 C1230 1.374 . S
C1232 C1229 1.499 . S
C1232 C1233 1.373 . S
C1232 C1234 1.389 . S
C1233 H1212 0.950 . S
C1233 C1232 1.373 . S
C1233 C1249 1.377 . S
C1234 C1232 1.389 . S
C1234 C1235 1.524 . S
C1234 C1248 1.377 . S
C1235 C1234 1.524 . S
C1235 C1236 1.397 . S
C1235 C1240 1.363 . S
C1236 H1213 0.950 . S
C1236 C1235 1.397 . S
C1236 C1237 1.334 . S
C1237 H1214 0.950 . S
C1237 C1236 1.334 . S
C1237 C1238 1.287 . S
C1238 C1237 1.287 . S
C1238 C1239 1.524 . S
C1238 H1257 0.913 . S
C1239 H1215 0.950 . S
C1239 C1238 1.524 . S
C1239 C1240 1.415 . S
C1240 H1216 0.950 . S
C1240 C1235 1.363 . S
C1240 C1239 1.415 . S
C1241 H1217 0.951 . S
C1241 C1242 1.366 . S
C1241 C1243 1.388 . S
C1242 C1241 1.366 . S
C1242 C1246 1.385 . S
C1243 H1218 0.951 1_565 S
C1243 C1241 1.388 . S
C1243 C1244 1.366 1_565 S
C1244 C1243 1.366 1_545 S
C1244 C1245 1.414 1_545 S
C1244 C1247 1.499 . S
C1245 H1219 0.950 . S
C1245 C1244 1.414 1_565 S
C1245 C1246 1.374 . S
C1246 H1220 0.950 . S
C1246 C1242 1.385 . S
C1246 C1245 1.374 . S
C1247 C1244 1.499 . S
C1247 C1248 1.373 . S
C1247 C1249 1.389 . S
C1248 H1221 0.950 . S
C1248 C1234 1.377 . S
C1248 C1247 1.373 . S
C1249 C1233 1.377 . S
C1249 C1247 1.389 . S
C1249 C1250 1.524 . S
C1250 C1249 1.524 . S
C1250 C1251 1.397 . S
C1250 C1255 1.363 . S
C1251 H1222 0.966 . S
C1251 C1250 1.397 . S
C1251 C1252 1.334 1_545 S
C1252 H1223 0.950 . S
C1252 C1251 1.334 1_565 S
C1252 C1253 1.287 . S
C1253 C1252 1.287 . S
C1253 C1254 1.524 1_565 S
C1253 H1256 0.999 . S
C1254 H1224 0.950 . S
C1254 C1253 1.524 1_545 S
C1254 C1255 1.415 . S
C1255 H1225 0.950 . S
C1255 C1250 1.363 . S
C1255 C1254 1.415 . S
H1256 C1253 0.999 . S
H1257 C1238 0.913 . S
H1258 C1276 0.951 . S
H1259 C1278 0.951 1_655 S
H1260 C1280 0.950 1_655 S
H1261 C1281 0.950 . S
H1262 C1283 0.950 . S
H1263 C1286 0.950 . S
H1264 C1287 0.950 . S
H1265 C1289 0.950 . S
H1266 C1290 0.950 . S
H1267 C1291 0.951 . S
H1268 C1293 0.951 . S
H1269 C1295 0.950 . S
H1270 C1296 0.950 . S
H1271 C1298 0.950 . S
H1272 C1301 0.950 . S
H1273 C1302 0.950 . S
H1274 C1304 0.950 . S
H1275 C1305 0.950 . S
C1276 H1258 0.951 . S
C1276 C1277 1.366 . S
C1276 C1278 1.388 . S
C1277 C1276 1.366 . S
C1277 C1281 1.385 . S
C1278 H1259 0.951 1_455 S
C1278 C1276 1.388 . S
C1278 C1279 1.366 1_455 S
C1279 C1278 1.366 1_655 S
C1279 C1280 1.414 1_655 S
C1279 C1282 1.499 . S
C1280 H1260 0.950 1_455 S
C1280 C1279 1.414 1_455 S
C1280 C1281 1.374 . S
C1281 H1261 0.950 . S
C1281 C1277 1.385 . S
C1281 C1280 1.374 . S
C1282 C1279 1.499 . S
C1282 C1283 1.373 . S
C1282 C1284 1.389 . S
C1283 H1262 0.950 . S
C1283 C1282 1.373 . S
C1283 C1299 1.377 . S
C1284 C1282 1.389 . S
C1284 C1285 1.524 . S
C1284 C1298 1.377 . S
C1285 C1284 1.524 . S
C1285 C1286 1.397 . S
C1285 C1290 1.363 . S
C1286 H1263 0.950 . S
C1286 C1285 1.397 . S
C1286 C1287 1.334 . S
C1287 H1264 0.950 . S
C1287 C1286 1.334 . S
C1287 C1288 1.287 . S
C1288 C1287 1.287 . S
C1288 C1289 1.524 . S
C1288 H1307 0.913 . S
C1289 H1265 0.950 . S
C1289 C1288 1.524 . S
C1289 C1290 1.415 . S
C1290 H1266 0.950 . S
C1290 C1285 1.363 . S
C1290 C1289 1.415 . S
C1291 H1267 0.951 . S
C1291 C1292 1.366 . S
C1291 C1293 1.388 . S
C1292 C1291 1.366 . S
C1292 C1296 1.385 . S
C1293 H1268 0.951 . S
C1293 C1291 1.388 . S
C1293 C1294 1.366 . S
C1294 C1293 1.366 . S
C1294 C1295 1.414 . S
C1294 C1297 1.499 . S
C1295 H1269 0.950 . S
C1295 C1294 1.414 . S
C1295 C1296 1.374 . S
C1296 H1270 0.950 . S
C1296 C1292 1.385 . S
C1296 C1295 1.374 . S
C1297 C1294 1.499 . S
C1297 C1298 1.373 . S
C1297 C1299 1.389 . S
C1298 H1271 0.950 . S
C1298 C1284 1.377 . S
C1298 C1297 1.373 . S
C1299 C1283 1.377 . S
C1299 C1297 1.389 . S
C1299 C1300 1.524 . S
C1300 C1299 1.524 . S
C1300 C1301 1.397 . S
C1300 C1305 1.363 . S
C1301 H1272 0.950 . S
C1301 C1300 1.397 . S
C1301 C1302 1.334 . S
C1302 H1273 0.950 . S
C1302 C1301 1.334 . S
C1302 C1303 1.287 . S
C1303 C1302 1.287 . S
C1303 C1304 1.524 . S
C1303 H1306 0.999 . S
C1304 H1274 0.950 . S
C1304 C1303 1.524 . S
C1304 C1305 1.415 . S
C1305 H1275 0.950 . S
C1305 C1300 1.363 . S
C1305 C1304 1.415 . S
H1306 C1303 0.999 . S
H1307 C1288 0.913 . S
H1308 C1326 0.951 . S
H1309 C1328 0.951 . S
H1310 C1330 0.950 . S
H1311 C1331 0.950 . S
H1312 C1333 0.950 . S
H1313 C1336 0.950 . S
H1314 C1337 0.950 . S
H1315 C1339 0.950 . S
H1316 C1340 0.950 . S
H1317 C1341 0.951 . S
H1318 C1343 0.951 . S
H1319 C1345 0.950 . S
H1320 C1346 0.950 . S
H1321 C1348 0.950 . S
H1322 C1351 0.950 . S
H1323 C1352 0.950 . S
H1324 C1354 0.950 . S
H1325 C1355 0.950 . S
C1326 H1308 0.951 . S
C1326 C1327 1.366 . S
C1326 C1328 1.388 . S
C1327 C1326 1.366 . S
C1327 C1331 1.385 . S
C1328 H1309 0.951 . S
C1328 C1326 1.388 . S
C1328 C1329 1.366 . S
C1329 C1328 1.366 . S
C1329 C1330 1.414 . S
C1329 C1332 1.499 . S
C1330 H1310 0.950 . S
C1330 C1329 1.414 . S
C1330 C1331 1.374 . S
C1331 H1311 0.950 . S
C1331 C1327 1.385 . S
C1331 C1330 1.374 . S
C1332 C1329 1.499 . S
C1332 C1333 1.373 . S
C1332 C1334 1.389 . S
C1333 H1312 0.950 . S
C1333 C1332 1.373 . S
C1333 C1349 1.377 . S
C1334 C1332 1.389 . S
C1334 C1335 1.524 . S
C1334 C1348 1.377 . S
C1335 C1334 1.524 . S
C1335 C1336 1.397 . S
C1335 C1340 1.363 . S
C1336 H1313 0.950 . S
C1336 C1335 1.397 . S
C1336 C1337 1.334 . S
C1337 H1314 0.950 . S
C1337 C1336 1.334 . S
C1337 C1338 1.287 . S
C1338 C1337 1.287 . S
C1338 C1339 1.524 . S
C1338 H1357 0.913 . S
C1339 H1315 0.950 . S
C1339 C1338 1.524 . S
C1339 C1340 1.415 . S
C1340 H1316 0.950 . S
C1340 C1335 1.363 . S
C1340 C1339 1.415 . S
C1341 H1317 0.951 . S
C1341 C1342 1.366 . S
C1341 C1343 1.388 . S
C1342 C1341 1.366 . S
C1342 C1346 1.385 . S
C1343 H1318 0.951 . S
C1343 C1341 1.388 . S
C1343 C1344 1.366 . S
C1344 C1343 1.366 . S
C1344 C1345 1.414 . S
C1344 C1347 1.499 . S
C1345 H1319 0.950 . S
C1345 C1344 1.414 . S
C1345 C1346 1.374 . S
C1346 H1320 0.950 . S
C1346 C1342 1.385 . S
C1346 C1345 1.374 . S
C1347 C1344 1.499 . S
C1347 C1348 1.373 . S
C1347 C1349 1.389 . S
C1348 H1321 0.950 . S
C1348 C1334 1.377 . S
C1348 C1347 1.373 . S
C1349 C1333 1.377 . S
C1349 C1347 1.389 . S
C1349 C1350 1.524 . S
C1350 C1349 1.524 . S
C1350 C1351 1.397 . S
C1350 C1355 1.363 . S
C1351 H1322 0.950 . S
C1351 C1350 1.397 . S
C1351 C1352 1.334 . S
C1352 H1323 0.950 . S
C1352 C1351 1.334 . S
C1352 C1353 1.287 . S
C1353 C1352 1.287 . S
C1353 C1354 1.524 . S
C1353 H1356 0.999 . S
C1354 H1324 0.950 . S
C1354 C1353 1.524 . S
C1354 C1355 1.415 . S
C1355 H1325 0.950 . S
C1355 C1350 1.363 . S
C1355 C1354 1.415 . S
H1356 C1353 0.999 . S
H1357 C1338 0.913 . S
H1358 C1376 0.951 . S
H1359 C1378 0.951 . S
H1360 C1380 0.950 . S
H1361 C1381 0.950 . S
H1362 C1383 0.950 . S
H1363 C1386 0.950 . S
H1364 C1387 0.950 . S
H1365 C1389 0.950 . S
H1366 C1390 0.950 . S
H1367 C1391 0.951 . S
H1368 C1393 0.951 . S
H1369 C1395 0.950 . S
H1370 C1396 0.950 . S
H1371 C1398 0.950 . S
H1372 C1401 0.950 . S
H1373 C1402 0.950 . S
H1374 C1404 0.950 . S
H1375 C1405 0.950 . S
C1376 H1358 0.951 . S
C1376 C1377 1.366 . S
C1376 C1378 1.388 . S
C1377 C1376 1.366 . S
C1377 C1381 1.385 . S
C1378 H1359 0.951 . S
C1378 C1376 1.388 . S
C1378 C1379 1.366 . S
C1379 C1378 1.366 . S
C1379 C1380 1.414 . S
C1379 C1382 1.499 . S
C1380 H1360 0.950 . S
C1380 C1379 1.414 . S
C1380 C1381 1.374 . S
C1381 H1361 0.950 . S
C1381 C1377 1.385 . S
C1381 C1380 1.374 . S
C1382 C1379 1.499 . S
C1382 C1383 1.373 . S
C1382 C1384 1.389 . S
C1383 H1362 0.950 . S
C1383 C1382 1.373 . S
C1383 C1399 1.377 . S
C1384 C1382 1.389 . S
C1384 C1385 1.524 . S
C1384 C1398 1.377 . S
C1385 C1384 1.524 . S
C1385 C1386 1.397 . S
C1385 C1390 1.363 . S
C1386 H1363 0.950 . S
C1386 C1385 1.397 . S
C1386 C1387 1.334 . S
C1387 H1364 0.950 . S
C1387 C1386 1.334 . S
C1387 C1388 1.287 . S
C1388 C1387 1.287 . S
C1388 C1389 1.524 . S
C1388 H1407 0.913 . S
C1389 H1365 0.950 . S
C1389 C1388 1.524 . S
C1389 C1390 1.415 . S
C1390 H1366 0.950 . S
C1390 C1385 1.363 . S
C1390 C1389 1.415 . S
C1391 H1367 0.951 . S
C1391 C1392 1.366 . S
C1391 C1393 1.388 . S
C1392 C1391 1.366 . S
C1392 C1396 1.385 . S
C1393 H1368 0.951 . S
C1393 C1391 1.388 . S
C1393 C1394 1.366 . S
C1394 C1393 1.366 . S
C1394 C1395 1.414 . S
C1394 C1397 1.499 . S
C1395 H1369 0.950 . S
C1395 C1394 1.414 . S
C1395 C1396 1.374 . S
C1396 H1370 0.950 . S
C1396 C1392 1.385 . S
C1396 C1395 1.374 . S
C1397 C1394 1.499 . S
C1397 C1398 1.373 . S
C1397 C1399 1.389 . S
C1398 H1371 0.950 . S
C1398 C1384 1.377 . S
C1398 C1397 1.373 . S
C1399 C1383 1.377 . S
C1399 C1397 1.389 . S
C1399 C1400 1.524 . S
C1400 C1399 1.524 . S
C1400 C1401 1.397 . S
C1400 C1405 1.363 . S
C1401 H1372 0.950 . S
C1401 C1400 1.397 . S
C1401 C1402 1.334 . S
C1402 H1373 0.950 . S
C1402 C1401 1.334 . S
C1402 C1403 1.287 . S
C1403 C1402 1.287 . S
C1403 C1404 1.524 . S
C1403 H1406 0.999 . S
C1404 H1374 0.950 . S
C1404 C1403 1.524 . S
C1404 C1405 1.415 . S
C1405 H1375 0.950 . S
C1405 C1400 1.363 . S
C1405 C1404 1.415 . S
H1406 C1403 0.999 . S
H1407 C1388 0.913 . S
H1408 C1426 0.951 . S
H1409 C1428 0.951 . S
H1410 C1430 0.950 . S
H1411 C1431 0.950 . S
H1412 C1433 0.950 . S
H1413 C1436 0.950 . S
H1414 C1437 0.950 . S
H1415 C1439 0.950 . S
H1416 C1440 0.950 . S
H1417 C1441 0.951 . S
H1418 C1443 0.951 . S
H1419 C1445 0.950 . S
H1420 C1446 0.950 . S
H1421 C1448 0.950 . S
H1422 C1451 0.950 . S
H1423 C1452 0.950 . S
H1424 C1454 0.950 . S
H1425 C1455 0.950 . S
C1426 H1408 0.951 . S
C1426 C1427 1.366 . S
C1426 C1428 1.388 . S
C1427 C1426 1.366 . S
C1427 C1431 1.385 . S
C1428 H1409 0.951 . S
C1428 C1426 1.388 . S
C1428 C1429 1.366 . S
C1429 C1428 1.366 . S
C1429 C1430 1.414 . S
C1429 C1432 1.499 . S
C1430 H1410 0.950 . S
C1430 C1429 1.414 . S
C1430 C1431 1.374 . S
C1431 H1411 0.950 . S
C1431 C1427 1.385 . S
C1431 C1430 1.374 . S
C1432 C1429 1.499 . S
C1432 C1433 1.373 . S
C1432 C1434 1.389 . S
C1433 H1412 0.950 . S
C1433 C1432 1.373 . S
C1433 C1449 1.377 . S
C1434 C1432 1.389 . S
C1434 C1435 1.524 . S
C1434 C1448 1.377 . S
C1435 C1434 1.524 . S
C1435 C1436 1.397 . S
C1435 C1440 1.363 . S
C1436 H1413 0.950 . S
C1436 C1435 1.397 . S
C1436 C1437 1.334 . S
C1437 H1414 0.950 . S
C1437 C1436 1.334 . S
C1437 C1438 1.287 . S
C1438 C1437 1.287 . S
C1438 C1439 1.524 . S
C1438 H1457 0.913 . S
C1439 H1415 0.950 . S
C1439 C1438 1.524 . S
C1439 C1440 1.415 . S
C1440 H1416 0.950 . S
C1440 C1435 1.363 . S
C1440 C1439 1.415 . S
C1441 H1417 0.951 . S
C1441 C1442 1.366 . S
C1441 C1443 1.388 . S
C1442 C1441 1.366 . S
C1442 C1446 1.385 . S
C1443 H1418 0.951 . S
C1443 C1441 1.388 . S
C1443 C1444 1.366 . S
C1444 C1443 1.366 . S
C1444 C1445 1.414 . S
C1444 C1447 1.499 . S
C1445 H1419 0.950 . S
C1445 C1444 1.414 . S
C1445 C1446 1.374 . S
C1446 H1420 0.950 . S
C1446 C1442 1.385 . S
C1446 C1445 1.374 . S
C1447 C1444 1.499 . S
C1447 C1448 1.373 . S
C1447 C1449 1.389 . S
C1448 H1421 0.950 . S
C1448 C1434 1.377 . S
C1448 C1447 1.373 . S
C1449 C1433 1.377 . S
C1449 C1447 1.389 . S
C1449 C1450 1.524 . S
C1450 C1449 1.524 . S
C1450 C1451 1.397 . S
C1450 C1455 1.363 . S
C1451 H1422 0.950 . S
C1451 C1450 1.397 . S
C1451 C1452 1.334 . S
C1452 H1423 0.950 . S
C1452 C1451 1.334 . S
C1452 C1453 1.287 . S
C1453 C1452 1.287 . S
C1453 C1454 1.524 . S
C1453 H1456 0.999 . S
C1454 H1424 0.950 . S
C1454 C1453 1.524 . S
C1454 C1455 1.415 . S
C1455 H1425 0.950 . S
C1455 C1450 1.363 . S
C1455 C1454 1.415 . S
H1456 C1453 0.999 . S
H1457 C1438 0.913 . S
H1458 C1476 0.951 . S
H1459 C1478 0.951 . S
H1460 C1480 0.950 . S
H1461 C1481 0.950 . S
H1462 C1483 0.950 . S
H1463 C1486 0.950 . S
H1464 C1487 0.950 . S
H1465 C1489 0.950 . S
H1466 C1490 0.950 . S
H1467 C1491 0.951 . S
H1468 C1493 0.951 . S
H1469 C1495 0.950 . S
H1470 C1496 0.950 . S
H1471 C1498 0.950 . S
H1472 C1501 0.950 . S
H1473 C1502 0.950 . S
H1474 C1504 0.950 . S
H1475 C1505 0.950 . S
C1476 H1458 0.951 . S
C1476 C1477 1.366 . S
C1476 C1478 1.388 . S
C1477 C1476 1.366 . S
C1477 C1481 1.385 . S
C1478 H1459 0.951 . S
C1478 C1476 1.388 . S
C1478 C1479 1.366 . S
C1479 C1478 1.366 . S
C1479 C1480 1.414 . S
C1479 C1482 1.499 . S
C1480 H1460 0.950 . S
C1480 C1479 1.414 . S
C1480 C1481 1.374 . S
C1481 H1461 0.950 . S
C1481 C1477 1.385 . S
C1481 C1480 1.374 . S
C1482 C1479 1.499 . S
C1482 C1483 1.373 . S
C1482 C1484 1.389 . S
C1483 H1462 0.950 . S
C1483 C1482 1.373 . S
C1483 C1499 1.377 . S
C1484 C1482 1.389 . S
C1484 C1485 1.524 . S
C1484 C1498 1.377 . S
C1485 C1484 1.524 . S
C1485 C1486 1.397 . S
C1485 C1490 1.363 . S
C1486 H1463 0.950 . S
C1486 C1485 1.397 . S
C1486 C1487 1.334 . S
C1487 H1464 0.950 . S
C1487 C1486 1.334 . S
C1487 C1488 1.287 . S
C1488 C1487 1.287 . S
C1488 C1489 1.524 . S
C1488 H1507 0.913 . S
C1489 H1465 0.950 . S
C1489 C1488 1.524 . S
C1489 C1490 1.415 . S
C1490 H1466 0.950 . S
C1490 C1485 1.363 . S
C1490 C1489 1.415 . S
C1491 H1467 0.951 . S
C1491 C1492 1.366 . S
C1491 C1493 1.388 . S
C1492 C1491 1.366 . S
C1492 C1496 1.385 . S
C1493 H1468 0.951 . S
C1493 C1491 1.388 . S
C1493 C1494 1.366 . S
C1494 C1493 1.366 . S
C1494 C1495 1.414 . S
C1494 C1497 1.499 . S
C1495 H1469 0.950 . S
C1495 C1494 1.414 . S
C1495 C1496 1.374 . S
C1496 H1470 0.950 . S
C1496 C1492 1.385 . S
C1496 C1495 1.374 . S
C1497 C1494 1.499 . S
C1497 C1498 1.373 . S
C1497 C1499 1.389 . S
C1498 H1471 0.950 . S
C1498 C1484 1.377 . S
C1498 C1497 1.373 . S
C1499 C1483 1.377 . S
C1499 C1497 1.389 . S
C1499 C1500 1.524 . S
C1500 C1499 1.524 . S
C1500 C1501 1.397 . S
C1500 C1505 1.363 . S
C1501 H1472 0.950 . S
C1501 C1500 1.397 . S
C1501 C1502 1.334 . S
C1502 H1473 0.950 . S
C1502 C1501 1.334 . S
C1502 C1503 1.287 . S
C1503 C1502 1.287 . S
C1503 C1504 1.524 . S
C1503 H1506 0.999 . S
C1504 H1474 0.950 . S
C1504 C1503 1.524 . S
C1504 C1505 1.415 . S
C1505 H1475 0.950 . S
C1505 C1500 1.363 . S
C1505 C1504 1.415 . S
H1506 C1503 0.999 . S
H1507 C1488 0.913 . S
H1508 C1526 0.951 . S
H1509 C1528 0.951 . S
H1510 C1530 0.950 . S
H1511 C1531 0.950 . S
H1512 C1533 0.950 . S
H1513 C1536 0.950 . S
H1514 C1537 0.950 . S
H1515 C1539 0.950 . S
H1516 C1540 0.950 . S
H1517 C1541 0.951 . S
H1518 C1543 0.951 . S
H1519 C1545 0.950 . S
H1520 C1546 0.950 . S
H1521 C1548 0.950 . S
H1522 C1551 0.950 . S
H1523 C1552 0.950 . S
H1524 C1554 0.950 . S
H1525 C1555 0.950 . S
C1526 H1508 0.951 . S
C1526 C1527 1.366 . S
C1526 C1528 1.388 . S
C1527 C1526 1.366 . S
C1527 C1531 1.385 . S
C1528 H1509 0.951 . S
C1528 C1526 1.388 . S
C1528 C1529 1.366 . S
C1529 C1528 1.366 . S
C1529 C1530 1.414 . S
C1529 C1532 1.499 . S
C1530 H1510 0.950 . S
C1530 C1529 1.414 . S
C1530 C1531 1.374 . S
C1531 H1511 0.950 . S
C1531 C1527 1.385 . S
C1531 C1530 1.374 . S
C1532 C1529 1.499 . S
C1532 C1533 1.373 . S
C1532 C1534 1.389 . S
C1533 H1512 0.950 . S
C1533 C1532 1.373 . S
C1533 C1549 1.377 . S
C1534 C1532 1.389 . S
C1534 C1535 1.524 . S
C1534 C1548 1.377 . S
C1535 C1534 1.524 . S
C1535 C1536 1.397 . S
C1535 C1540 1.363 . S
C1536 H1513 0.950 . S
C1536 C1535 1.397 . S
C1536 C1537 1.334 . S
C1537 H1514 0.950 . S
C1537 C1536 1.334 . S
C1537 C1538 1.287 . S
C1538 C1537 1.287 . S
C1538 C1539 1.524 . S
C1538 H1557 0.913 . S
C1539 H1515 0.950 . S
C1539 C1538 1.524 . S
C1539 C1540 1.415 . S
C1540 H1516 0.950 . S
C1540 C1535 1.363 . S
C1540 C1539 1.415 . S
C1541 H1517 0.951 . S
C1541 C1542 1.366 . S
C1541 C1543 1.388 . S
C1542 C1541 1.366 . S
C1542 C1546 1.385 . S
C1543 H1518 0.951 . S
C1543 C1541 1.388 . S
C1543 C1544 1.366 . S
C1544 C1543 1.366 . S
C1544 C1545 1.414 . S
C1544 C1547 1.499 . S
C1545 H1519 0.950 . S
C1545 C1544 1.414 . S
C1545 C1546 1.374 . S
C1546 H1520 0.950 . S
C1546 C1542 1.385 . S
C1546 C1545 1.374 . S
C1547 C1544 1.499 . S
C1547 C1548 1.373 . S
C1547 C1549 1.389 . S
C1548 H1521 0.950 . S
C1548 C1534 1.377 . S
C1548 C1547 1.373 . S
C1549 C1533 1.377 . S
C1549 C1547 1.389 . S
C1549 C1550 1.524 . S
C1550 C1549 1.524 . S
C1550 C1551 1.397 . S
C1550 C1555 1.363 . S
C1551 H1522 0.950 . S
C1551 C1550 1.397 . S
C1551 C1552 1.334 . S
C1552 H1523 0.950 . S
C1552 C1551 1.334 . S
C1552 C1553 1.287 . S
C1553 C1552 1.287 . S
C1553 C1554 1.524 . S
C1553 H1556 0.999 . S
C1554 H1524 0.950 . S
C1554 C1553 1.524 . S
C1554 C1555 1.415 . S
C1555 H1525 0.950 . S
C1555 C1550 1.363 . S
C1555 C1554 1.415 . S
H1556 C1553 0.999 . S
H1557 C1538 0.913 . S
H1558 C1576 0.951 . S
H1559 C1578 0.951 . S
H1560 C1580 0.950 . S
H1561 C1581 0.950 . S
H1562 C1583 0.950 . S
H1563 C1586 0.950 . S
H1564 C1587 0.950 . S
H1565 C1589 0.950 . S
H1566 C1590 0.950 . S
H1567 C1591 0.951 . S
H1568 C1593 0.951 . S
H1569 C1595 0.950 . S
H1570 C1596 0.950 . S
H1571 C1598 0.950 . S
H1572 C1601 0.950 . S
H1573 C1602 0.950 . S
H1574 C1604 0.950 . S
H1575 C1605 0.950 . S
C1576 H1558 0.951 . S
C1576 C1577 1.366 . S
C1576 C1578 1.388 . S
C1577 C1576 1.366 . S
C1577 C1581 1.385 . S
C1578 H1559 0.951 . S
C1578 C1576 1.388 . S
C1578 C1579 1.366 . S
C1579 C1578 1.366 . S
C1579 C1580 1.414 . S
C1579 C1582 1.499 . S
C1580 H1560 0.950 . S
C1580 C1579 1.414 . S
C1580 C1581 1.374 . S
C1581 H1561 0.950 . S
C1581 C1577 1.385 . S
C1581 C1580 1.374 . S
C1582 C1579 1.499 . S
C1582 C1583 1.373 . S
C1582 C1584 1.389 . S
C1583 H1562 0.950 . S
C1583 C1582 1.373 . S
C1583 C1599 1.377 . S
C1584 C1582 1.389 . S
C1584 C1585 1.524 . S
C1584 C1598 1.377 . S
C1585 C1584 1.524 . S
C1585 C1586 1.397 . S
C1585 C1590 1.363 . S
C1586 H1563 0.950 . S
C1586 C1585 1.397 . S
C1586 C1587 1.334 . S
C1587 H1564 0.950 . S
C1587 C1586 1.334 . S
C1587 C1588 1.287 . S
C1588 C1587 1.287 . S
C1588 C1589 1.524 . S
C1588 H1607 0.913 . S
C1589 H1565 0.950 . S
C1589 C1588 1.524 . S
C1589 C1590 1.415 . S
C1590 H1566 0.950 . S
C1590 C1585 1.363 . S
C1590 C1589 1.415 . S
C1591 H1567 0.951 . S
C1591 C1592 1.366 . S
C1591 C1593 1.388 . S
C1592 C1591 1.366 . S
C1592 C1596 1.385 . S
C1593 H1568 0.951 . S
C1593 C1591 1.388 . S
C1593 C1594 1.366 . S
C1594 C1593 1.366 . S
C1594 C1595 1.414 . S
C1594 C1597 1.499 . S
C1595 H1569 0.950 . S
C1595 C1594 1.414 . S
C1595 C1596 1.374 . S
C1596 H1570 0.950 . S
C1596 C1592 1.385 . S
C1596 C1595 1.374 . S
C1597 C1594 1.499 . S
C1597 C1598 1.373 . S
C1597 C1599 1.389 . S
C1598 H1571 0.950 . S
C1598 C1584 1.377 . S
C1598 C1597 1.373 . S
C1599 C1583 1.377 . S
C1599 C1597 1.389 . S
C1599 C1600 1.524 . S
C1600 C1599 1.524 . S
C1600 C1601 1.397 . S
C1600 C1605 1.363 . S
C1601 H1572 0.950 . S
C1601 C1600 1.397 . S
C1601 C1602 1.334 . S
C1602 H1573 0.950 . S
C1602 C1601 1.334 . S
C1602 C1603 1.287 . S
C1603 C1602 1.287 . S
C1603 C1604 1.524 . S
C1603 H1606 0.999 . S
C1604 H1574 0.950 . S
C1604 C1603 1.524 . S
C1604 C1605 1.415 . S
C1605 H1575 0.950 . S
C1605 C1600 1.363 . S
C1605 C1604 1.415 . S
H1606 C1603 0.999 . S
H1607 C1588 0.913 . S
H1608 C1626 0.951 . S
H1609 C1628 0.951 1_556 S
H1610 C1630 0.950 . S
H1611 C1631 0.950 . S
H1612 C1633 0.950 . S
H1613 C1636 0.950 . S
H1614 C1637 0.950 . S
H1615 C1639 0.950 . S
H1616 C1640 0.950 . S
H1617 C1641 0.951 . S
H1618 C1643 0.951 1_554 S
H1619 C1645 0.950 . S
H1620 C1646 0.950 . S
H1621 C1648 0.950 . S
H1622 C1651 0.950 . S
H1623 C1652 0.950 . S
H1624 C1654 0.950 . S
H1625 C1655 0.950 . S
C1626 H1608 0.951 . S
C1626 C1627 1.366 . S
C1626 C1628 1.388 . S
C1627 C1626 1.366 . S
C1627 C1631 1.385 . S
C1628 H1609 0.951 1_554 S
C1628 C1626 1.388 . S
C1628 C1629 1.366 . S
C1629 C1628 1.366 . S
C1629 C1630 1.414 . S
C1629 C1632 1.499 . S
C1630 H1610 0.950 . S
C1630 C1629 1.414 . S
C1630 C1631 1.374 . S
C1631 H1611 0.950 . S
C1631 C1627 1.385 . S
C1631 C1630 1.374 . S
C1632 C1629 1.499 . S
C1632 C1633 1.373 1_455 S
C1632 C1634 1.389 1_554 S
C1633 H1612 0.950 . S
C1633 C1632 1.373 1_655 S
C1633 C1649 1.377 . S
C1634 C1632 1.389 1_556 S
C1634 C1635 1.524 . S
C1634 C1648 1.377 . S
C1635 C1634 1.524 . S
C1635 C1636 1.397 1_556 S
C1635 C1640 1.363 . S
C1636 H1613 0.950 . S
C1636 C1635 1.397 1_554 S
C1636 C1637 1.334 . S
C1637 H1614 0.950 . S
C1637 C1636 1.334 . S
C1637 C1638 1.287 1_554 S
C1638 C1637 1.287 1_556 S
C1638 C1639 1.524 . S
C1638 H1657 0.913 . S
C1639 H1615 0.950 . S
C1639 C1638 1.524 . S
C1639 C1640 1.415 . S
C1640 H1616 0.950 . S
C1640 C1635 1.363 . S
C1640 C1639 1.415 . S
C1641 H1617 0.951 . S
C1641 C1642 1.366 . S
C1641 C1643 1.388 . S
C1642 C1641 1.366 . S
C1642 C1646 1.385 . S
C1643 H1618 0.951 1_556 S
C1643 C1641 1.388 . S
C1643 C1644 1.366 . S
C1644 C1643 1.366 . S
C1644 C1645 1.414 . S
C1644 C1647 1.499 . S
C1645 H1619 0.950 . S
C1645 C1644 1.414 . S
C1645 C1646 1.374 . S
C1646 H1620 0.950 . S
C1646 C1642 1.385 . S
C1646 C1645 1.374 . S
C1647 C1644 1.499 . S
C1647 C1648 1.373 1_655 S
C1647 C1649 1.389 1_556 S
C1648 H1621 0.950 . S
C1648 C1634 1.377 . S
C1648 C1647 1.373 1_455 S
C1649 C1633 1.377 . S
C1649 C1647 1.389 1_554 S
C1649 C1650 1.524 . S
C1650 C1649 1.524 . S
C1650 C1651 1.397 1_554 S
C1650 C1655 1.363 . S
C1651 H1622 0.950 . S
C1651 C1650 1.397 1_556 S
C1651 C1652 1.334 . S
C1652 H1623 0.950 . S
C1652 C1651 1.334 . S
C1652 C1653 1.287 1_556 S
C1653 C1652 1.287 1_554 S
C1653 C1654 1.524 . S
C1653 H1656 0.999 . S
C1654 H1624 0.950 . S
C1654 C1653 1.524 . S
C1654 C1655 1.415 . S
C1655 H1625 0.950 . S
C1655 C1650 1.363 . S
C1655 C1654 1.415 . S
H1656 C1653 0.999 . S
H1657 C1638 0.913 . S
H1658 C1676 0.951 . S
H1659 C1678 0.951 1_556 S
H1660 C1680 0.950 . S
H1661 C1681 0.950 . S
H1662 C1683 0.950 . S
H1663 C1686 0.950 . S
H1664 C1687 0.950 . S
H1665 C1689 0.950 . S
H1666 C1690 0.950 . S
H1667 C1691 0.951 . S
H1668 C1693 0.951 1_554 S
H1669 C1695 0.950 . S
H1670 C1696 0.950 . S
H1671 C1698 0.950 . S
H1672 C1701 0.950 . S
H1673 C1702 0.950 . S
H1674 C1704 0.950 . S
H1675 C1705 0.950 . S
C1676 H1658 0.951 . S
C1676 C1677 1.366 . S
C1676 C1678 1.388 . S
C1677 C1676 1.366 . S
C1677 C1681 1.385 . S
C1678 H1659 0.951 1_554 S
C1678 C1676 1.388 . S
C1678 C1679 1.366 . S
C1679 C1678 1.366 . S
C1679 C1680 1.414 . S
C1679 C1682 1.499 . S
C1680 H1660 0.950 . S
C1680 C1679 1.414 . S
C1680 C1681 1.374 . S
C1681 H1661 0.950 . S
C1681 C1677 1.385 . S
C1681 C1680 1.374 . S
C1682 C1679 1.499 . S
C1682 C1683 1.373 . S
C1682 C1684 1.408 . S
C1683 H1662 0.950 . S
C1683 C1682 1.373 . S
C1683 C1699 1.357 1_554 S
C1684 C1682 1.408 . S
C1684 C1685 1.527 . S
C1684 C1698 1.357 1_554 S
C1685 C1684 1.527 . S
C1685 C1686 1.397 . S
C1685 C1690 1.363 1_554 S
C1686 H1663 0.950 . S
C1686 C1685 1.397 . S
C1686 C1687 1.334 . S
C1687 H1664 0.950 . S
C1687 C1686 1.334 . S
C1687 C1688 1.287 . S
C1688 C1687 1.287 . S
C1688 C1689 1.524 1_554 S
C1688 H1707 0.913 . S
C1689 H1665 0.950 . S
C1689 C1688 1.524 1_556 S
C1689 C1690 1.415 . S
C1690 H1666 0.950 . S
C1690 C1685 1.363 1_556 S
C1690 C1689 1.415 . S
C1691 H1667 0.951 . S
C1691 C1692 1.366 . S
C1691 C1693 1.388 . S
C1692 C1691 1.366 . S
C1692 C1696 1.385 . S
C1693 H1668 0.951 1_556 S
C1693 C1691 1.388 . S
C1693 C1694 1.366 . S
C1694 C1693 1.366 . S
C1694 C1695 1.414 . S
C1694 C1697 1.499 . S
C1695 H1669 0.950 . S
C1695 C1694 1.414 . S
C1695 C1696 1.374 . S
C1696 H1670 0.950 . S
C1696 C1692 1.385 . S
C1696 C1695 1.374 . S
C1697 C1694 1.499 . S
C1697 C1698 1.373 . S
C1697 C1699 1.408 . S
C1698 H1671 0.950 . S
C1698 C1684 1.357 1_556 S
C1698 C1697 1.373 . S
C1699 C1683 1.357 1_556 S
C1699 C1697 1.408 . S
C1699 C1700 1.527 . S
C1700 C1699 1.527 . S
C1700 C1701 1.397 . S
C1700 C1705 1.363 1_556 S
C1701 H1672 0.950 . S
C1701 C1700 1.397 . S
C1701 C1702 1.334 . S
C1702 H1673 0.950 . S
C1702 C1701 1.334 . S
C1702 C1703 1.287 . S
C1703 C1702 1.287 . S
C1703 C1704 1.524 1_556 S
C1703 H1706 0.999 . S
C1704 H1674 0.950 . S
C1704 C1703 1.524 1_554 S
C1704 C1705 1.415 . S
C1705 H1675 0.950 . S
C1705 C1700 1.363 1_554 S
C1705 C1704 1.415 . S
H1706 C1703 0.999 . S
H1707 C1688 0.913 . S
H1708 C1726 0.951 . S
H1709 C1728 0.951 1_556 S
H1710 C1730 0.950 . S
H1711 C1731 0.950 . S
H1712 C1733 0.950 . S
H1713 C1736 0.950 1_554 S
H1714 C1737 0.950 . S
H1715 C1739 0.950 . S
H1716 C1740 0.950 . S
H1717 C1741 0.951 . S
H1718 C1743 0.951 1_554 S
H1719 C1745 0.950 . S
H1720 C1746 0.950 . S
H1721 C1748 0.950 . S
H1722 C1751 0.950 1_556 S
H1723 C1752 0.950 . S
H1724 C1754 0.950 . S
H1725 C1755 0.950 . S
C1726 H1708 0.951 . S
C1726 C1727 1.366 . S
C1726 C1728 1.388 . S
C1727 C1726 1.366 . S
C1727 C1731 1.385 . S
C1728 H1709 0.951 1_554 S
C1728 C1726 1.388 . S
C1728 C1729 1.366 . S
C1729 C1728 1.366 . S
C1729 C1730 1.414 . S
C1729 C1732 1.499 . S
C1730 H1710 0.950 . S
C1730 C1729 1.414 . S
C1730 C1731 1.374 . S
C1731 H1711 0.950 . S
C1731 C1727 1.385 . S
C1731 C1730 1.374 . S
C1732 C1729 1.499 . S
C1732 C1733 1.373 1_565 S
C1732 C1734 1.389 1_554 S
C1733 H1712 0.950 . S
C1733 C1732 1.373 1_545 S
C1733 C1749 1.377 . S
C1734 C1732 1.389 1_556 S
C1734 C1735 1.524 . S
C1734 C1748 1.377 . S
C1735 C1734 1.524 . S
C1735 C1736 1.397 . S
C1735 C1740 1.363 . S
C1736 H1713 0.950 1_556 S
C1736 C1735 1.397 . S
C1736 C1737 1.334 . S
C1737 H1714 0.950 . S
C1737 C1736 1.334 . S
C1737 C1738 1.287 . S
C1738 C1737 1.287 . S
C1738 C1739 1.524 . S
C1738 H1757 0.913 . S
C1739 H1715 0.950 . S
C1739 C1738 1.524 . S
C1739 C1740 1.415 . S
C1740 H1716 0.950 . S
C1740 C1735 1.363 . S
C1740 C1739 1.415 . S
C1741 H1717 0.951 . S
C1741 C1742 1.366 . S
C1741 C1743 1.388 . S
C1742 C1741 1.366 . S
C1742 C1746 1.385 . S
C1743 H1718 0.951 1_556 S
C1743 C1741 1.388 . S
C1743 C1744 1.366 . S
C1744 C1743 1.366 . S
C1744 C1745 1.414 . S
C1744 C1747 1.499 . S
C1745 H1719 0.950 . S
C1745 C1744 1.414 . S
C1745 C1746 1.374 . S
C1746 H1720 0.950 . S
C1746 C1742 1.385 . S
C1746 C1745 1.374 . S
C1747 C1744 1.499 . S
C1747 C1748 1.373 1_545 S
C1747 C1749 1.389 1_556 S
C1748 H1721 0.950 . S
C1748 C1734 1.377 . S
C1748 C1747 1.373 1_565 S
C1749 C1733 1.377 . S
C1749 C1747 1.389 1_554 S
C1749 C1750 1.524 . S
C1750 C1749 1.524 . S
C1750 C1751 1.397 . S
C1750 C1755 1.363 . S
C1751 H1722 0.950 1_554 S
C1751 C1750 1.397 . S
C1751 C1752 1.334 . S
C1752 H1723 0.950 . S
C1752 C1751 1.334 . S
C1752 C1753 1.287 . S
C1753 C1752 1.287 . S
C1753 C1754 1.524 . S
C1753 H1756 0.999 . S
C1754 H1724 0.950 . S
C1754 C1753 1.524 . S
C1754 C1755 1.415 . S
C1755 H1725 0.950 . S
C1755 C1750 1.363 . S
C1755 C1754 1.415 . S
H1756 C1753 0.999 . S
H1757 C1738 0.913 . S
H1758 C1776 0.951 . S
H1759 C1778 0.951 . S
H1760 C1780 0.950 . S
H1761 C1781 0.950 . S
H1762 C1783 0.950 . S
H1763 C1786 0.950 . S
H1764 C1787 0.950 . S
H1765 C1789 0.950 . S
H1766 C1790 0.950 . S
H1767 C1791 0.951 . S
H1768 C1793 0.951 . S
H1769 C1795 0.950 . S
H1770 C1796 0.950 . S
H1771 C1798 0.950 . S
H1772 C1801 0.950 . S
H1773 C1802 0.950 . S
H1774 C1804 0.950 . S
H1775 C1805 0.950 . S
C1776 H1758 0.951 . S
C1776 C1777 1.366 . S
C1776 C1778 1.388 . S
C1777 C1776 1.366 . S
C1777 C1781 1.385 . S
C1778 H1759 0.951 . S
C1778 C1776 1.388 . S
C1778 C1779 1.366 . S
C1779 C1778 1.366 . S
C1779 C1780 1.414 . S
C1779 C1782 1.499 . S
C1780 H1760 0.950 . S
C1780 C1779 1.414 . S
C1780 C1781 1.374 . S
C1781 H1761 0.950 . S
C1781 C1777 1.385 . S
C1781 C1780 1.374 . S
C1782 C1779 1.499 . S
C1782 C1783 1.373 . S
C1782 C1784 1.389 . S
C1783 H1762 0.950 . S
C1783 C1782 1.373 . S
C1783 C1799 1.377 1_565 S
C1784 C1782 1.389 . S
C1784 C1785 1.524 . S
C1784 C1798 1.377 1_565 S
C1785 C1784 1.524 . S
C1785 C1786 1.397 . S
C1785 C1790 1.363 1_565 S
C1786 H1763 0.950 . S
C1786 C1785 1.397 . S
C1786 C1787 1.334 . S
C1787 H1764 0.950 . S
C1787 C1786 1.334 . S
C1787 C1788 1.287 . S
C1788 C1787 1.287 . S
C1788 C1789 1.524 1_565 S
C1788 H1807 0.913 . S
C1789 H1765 0.950 . S
C1789 C1788 1.524 1_545 S
C1789 C1790 1.415 . S
C1790 H1766 0.950 . S
C1790 C1785 1.363 1_545 S
C1790 C1789 1.415 . S
C1791 H1767 0.951 . S
C1791 C1792 1.366 . S
C1791 C1793 1.388 . S
C1792 C1791 1.366 . S
C1792 C1796 1.385 . S
C1793 H1768 0.951 . S
C1793 C1791 1.388 . S
C1793 C1794 1.366 . S
C1794 C1793 1.366 . S
C1794 C1795 1.414 . S
C1794 C1797 1.499 . S
C1795 H1769 0.950 . S
C1795 C1794 1.414 . S
C1795 C1796 1.374 . S
C1796 H1770 0.950 . S
C1796 C1792 1.385 . S
C1796 C1795 1.374 . S
C1797 C1794 1.499 . S
C1797 C1798 1.373 . S
C1797 C1799 1.389 . S
C1798 H1771 0.950 . S
C1798 C1784 1.377 1_545 S
C1798 C1797 1.373 . S
C1799 C1783 1.377 1_545 S
C1799 C1797 1.389 . S
C1799 C1800 1.524 . S
C1800 C1799 1.524 . S
C1800 C1801 1.397 . S
C1800 C1805 1.363 1_545 S
C1801 H1772 0.950 . S
C1801 C1800 1.397 . S
C1801 C1802 1.334 . S
C1802 H1773 0.950 . S
C1802 C1801 1.334 . S
C1802 C1803 1.287 . S
C1803 C1802 1.287 . S
C1803 C1804 1.524 1_545 S
C1803 H1806 0.999 . S
C1804 H1774 0.950 . S
C1804 C1803 1.524 1_565 S
C1804 C1805 1.415 . S
C1805 H1775 0.950 . S
C1805 C1800 1.363 1_565 S
C1805 C1804 1.415 . S
H1806 C1803 0.999 . S
H1807 C1788 0.913 . S
H1808 C1826 0.951 . S
H1809 C1828 0.951 . S
H1810 C1830 0.950 . S
H1811 C1831 0.950 . S
H1812 C1833 0.950 . S
H1813 C1836 0.950 . S
H1814 C1837 0.950 . S
H1815 C1839 0.950 . S
H1816 C1840 0.950 1_455 S
H1817 C1841 0.951 . S
H1818 C1843 0.951 . S
H1819 C1845 0.950 . S
H1820 C1846 0.950 . S
H1821 C1848 0.950 . S
H1822 C1851 0.950 . S
H1823 C1852 0.950 . S
H1824 C1854 0.950 . S
H1825 C1855 0.950 1_655 S
C1826 H1808 0.951 . S
C1826 C1827 1.366 . S
C1826 C1828 1.388 . S
C1827 C1826 1.366 . S
C1827 C1831 1.385 . S
C1828 H1809 0.951 . S
C1828 C1826 1.388 . S
C1828 C1829 1.366 . S
C1829 C1828 1.366 . S
C1829 C1830 1.414 . S
C1829 C1832 1.499 . S
C1830 H1810 0.950 . S
C1830 C1829 1.414 . S
C1830 C1831 1.374 . S
C1831 H1811 0.950 . S
C1831 C1827 1.385 . S
C1831 C1830 1.374 . S
C1832 C1829 1.499 . S
C1832 C1833 1.373 . S
C1832 C1834 1.389 . S
C1833 H1812 0.950 . S
C1833 C1832 1.373 . S
C1833 C1849 1.377 1_655 S
C1834 C1832 1.389 . S
C1834 C1835 1.524 . S
C1834 C1848 1.377 1_655 S
C1835 C1834 1.524 . S
C1835 C1836 1.397 . S
C1835 C1840 1.363 . S
C1836 H1813 0.950 . S
C1836 C1835 1.397 . S
C1836 C1837 1.334 . S
C1837 H1814 0.950 . S
C1837 C1836 1.334 . S
C1837 C1838 1.287 . S
C1838 C1837 1.287 . S
C1838 C1839 1.524 . S
C1838 H1857 0.913 . S
C1839 H1815 0.950 . S
C1839 C1838 1.524 . S
C1839 C1840 1.415 . S
C1840 H1816 0.950 1_655 S
C1840 C1835 1.363 . S
C1840 C1839 1.415 . S
C1841 H1817 0.951 . S
C1841 C1842 1.366 . S
C1841 C1843 1.388 . S
C1842 C1841 1.366 . S
C1842 C1846 1.385 . S
C1843 H1818 0.951 . S
C1843 C1841 1.388 . S
C1843 C1844 1.366 . S
C1844 C1843 1.366 . S
C1844 C1845 1.414 . S
C1844 C1847 1.499 . S
C1845 H1819 0.950 . S
C1845 C1844 1.414 . S
C1845 C1846 1.374 . S
C1846 H1820 0.950 . S
C1846 C1842 1.385 . S
C1846 C1845 1.374 . S
C1847 C1844 1.499 . S
C1847 C1848 1.373 . S
C1847 C1849 1.389 . S
C1848 H1821 0.950 . S
C1848 C1834 1.377 1_455 S
C1848 C1847 1.373 . S
C1849 C1833 1.377 1_455 S
C1849 C1847 1.389 . S
C1849 C1850 1.524 . S
C1850 C1849 1.524 . S
C1850 C1851 1.397 . S
C1850 C1855 1.363 . S
C1851 H1822 0.950 . S
C1851 C1850 1.397 . S
C1851 C1852 1.334 . S
C1852 H1823 0.950 . S
C1852 C1851 1.334 . S
C1852 C1853 1.287 . S
C1853 C1852 1.287 . S
C1853 C1854 1.524 . S
C1853 H1856 0.999 . S
C1854 H1824 0.950 . S
C1854 C1853 1.524 . S
C1854 C1855 1.415 . S
C1855 H1825 0.950 1_455 S
C1855 C1850 1.363 . S
C1855 C1854 1.415 . S
H1856 C1853 0.999 . S
H1857 C1838 0.913 . S
H1858 C1876 0.951 . S
H1859 C1878 0.951 . S
H1860 C1880 0.950 . S
H1861 C1881 0.950 . S
H1862 C1883 0.950 . S
H1863 C1886 0.950 . S
H1864 C1887 0.950 . S
H1865 C1889 0.950 . S
H1866 C1890 0.950 . S
H1867 C1891 0.951 . S
H1868 C1893 0.951 . S
H1869 C1895 0.950 . S
H1870 C1896 0.950 . S
H1871 C1898 0.950 . S
H1872 C1901 0.950 . S
H1873 C1902 0.950 . S
H1874 C1904 0.950 . S
H1875 C1905 0.950 . S
C1876 H1858 0.951 . S
C1876 C1877 1.366 . S
C1876 C1878 1.388 . S
C1877 C1876 1.366 . S
C1877 C1881 1.385 . S
C1878 H1859 0.951 . S
C1878 C1876 1.388 . S
C1878 C1879 1.366 . S
C1879 C1878 1.366 . S
C1879 C1880 1.414 . S
C1879 C1882 1.499 . S
C1880 H1860 0.950 . S
C1880 C1879 1.414 . S
C1880 C1881 1.374 . S
C1881 H1861 0.950 . S
C1881 C1877 1.385 . S
C1881 C1880 1.374 . S
C1882 C1879 1.499 . S
C1882 C1883 1.373 . S
C1882 C1884 1.389 . S
C1883 H1862 0.950 . S
C1883 C1882 1.373 . S
C1883 C1899 1.377 . S
C1884 C1882 1.389 . S
C1884 C1885 1.524 . S
C1884 C1898 1.377 . S
C1885 C1884 1.524 . S
C1885 C1886 1.397 . S
C1885 C1890 1.363 . S
C1886 H1863 0.950 . S
C1886 C1885 1.397 . S
C1886 C1887 1.334 . S
C1887 H1864 0.950 . S
C1887 C1886 1.334 . S
C1887 C1888 1.287 . S
C1888 C1887 1.287 . S
C1888 C1889 1.524 . S
C1888 H1907 0.913 . S
C1889 H1865 0.950 . S
C1889 C1888 1.524 . S
C1889 C1890 1.415 . S
C1890 H1866 0.950 . S
C1890 C1885 1.363 . S
C1890 C1889 1.415 . S
C1891 H1867 0.951 . S
C1891 C1892 1.366 . S
C1891 C1893 1.388 . S
C1892 C1891 1.366 . S
C1892 C1896 1.385 . S
C1893 H1868 0.951 . S
C1893 C1891 1.388 . S
C1893 C1894 1.366 . S
C1894 C1893 1.366 . S
C1894 C1895 1.414 . S
C1894 C1897 1.499 . S
C1895 H1869 0.950 . S
C1895 C1894 1.414 . S
C1895 C1896 1.374 . S
C1896 H1870 0.950 . S
C1896 C1892 1.385 . S
C1896 C1895 1.374 . S
C1897 C1894 1.499 . S
C1897 C1898 1.373 . S
C1897 C1899 1.389 . S
C1898 H1871 0.950 . S
C1898 C1884 1.377 . S
C1898 C1897 1.373 . S
C1899 C1883 1.377 . S
C1899 C1897 1.389 . S
C1899 C1900 1.524 . S
C1900 C1899 1.524 . S
C1900 C1901 1.397 . S
C1900 C1905 1.363 . S
C1901 H1872 0.950 . S
C1901 C1900 1.397 . S
C1901 C1902 1.334 . S
C1902 H1873 0.950 . S
C1902 C1901 1.334 . S
C1902 C1903 1.287 . S
C1903 C1902 1.287 . S
C1903 C1904 1.524 . S
C1903 H1906 0.999 . S
C1904 H1874 0.950 . S
C1904 C1903 1.524 . S
C1904 C1905 1.415 . S
C1905 H1875 0.950 . S
C1905 C1900 1.363 . S
C1905 C1904 1.415 . S
H1906 C1903 0.999 . S
H1907 C1888 0.913 . S
C727 C3 0.688 . S
C742 C465 0.688 . S
C777 C62 0.689 . S
C792 C524 0.688 . S
C827 C121 0.688 . S
C842 C406 0.688 . S
C877 C701 0.688 . S
C892 C180 0.688 . S
C927 C239 0.688 . S
C942 C583 0.688 . S
C977 C642 0.687 . S
C992 C298 0.688 . S
C1027 C111 0.688 . S
C1042 C357 0.688 . S
C1077 C416 0.688 . S
C1092 C170 0.688 . S
C1127 C52 0.687 . S
C1142 C475 0.688 . S
C1177 C534 0.688 . S
C1192 C347 0.687 . S
C1227 C593 0.688 . S
C1242 C229 0.687 . S
C1277 C288 0.688 . S
C1292 C652 0.688 . S
C1327 C300 1.657 . S
C1342 C5 1.657 . S
C1377 C64 1.657 . S
C1392 C182 1.657 . S
C1427 C123 1.657 . S
C1442 C241 1.657 . S
C1477 C359 1.657 . S
C1492 C654 1.657 . S
C1527 C418 1.657 . S
C1542 C536 1.657 . S
C1577 C477 1.657 . S
C1592 C595 1.657 . S
C1627 C33 1.767 . S
C1642 C387 1.767 . S
C1677 C92 1.766 . S
C1692 C446 1.766 . S
C1727 C151 1.767 . S
C1742 C505 1.767 . S
C1777 C210 1.767 . S
C1792 C564 1.767 . S
C1827 C623 1.766 . S
C1842 C269 1.766 . S
C1877 C328 1.767 . S
C1892 C682 1.767 . S
