# Generated by pormake.
# Topology unr, (4)-cn, num edge types: 1
# Building blocks:
#     Node 0, Type 0, BuildingBlock: QUQFOY_clean_sbu_1, # of connection points: 4
#     Node 1, Type 0, BuildingBlock: QUQFOY_clean_sbu_1, # of connection points: 4
#     Node 2, Type 0, BuildingBlock: QUQFOY_clean_sbu_1, # of connection points: 4
#     Node 3, Type 0, BuildingBlock: QUQFOY_clean_sbu_1, # of connection points: 4
#     Node 4, Type 0, BuildingBlock: QUQFOY_clean_sbu_1, # of connection points: 4
#     Node 5, Type 0, BuildingBlock: QUQFOY_clean_sbu_1, # of connection points: 4
#     Node 6, Type 0, BuildingBlock: QUQFOY_clean_sbu_1, # of connection points: 4
#     Node 7, Type 0, BuildingBlock: QUQFOY_clean_sbu_1, # of connection points: 4
#     Node 8, Type 0, BuildingBlock: QUQFOY_clean_sbu_1, # of connection points: 4
#     Node 9, Type 0, BuildingBlock: QUQFOY_clean_sbu_1, # of connection points: 4
#     Node 10, Type 0, BuildingBlock: QUQFOY_clean_sbu_1, # of connection points: 4
#     Node 11, Type 0, BuildingBlock: QUQFOY_clean_sbu_1, # of connection points: 4
#     Node 12, Type 0, BuildingBlock: QUQFOY_clean_sbu_1, # of connection points: 4
#     Node 13, Type 0, BuildingBlock: QUQFOY_clean_sbu_1, # of connection points: 4
#     Node 14, Type 0, BuildingBlock: QUQFOY_clean_sbu_1, # of connection points: 4
#     Node 15, Type 0, BuildingBlock: QUQFOY_clean_sbu_1, # of connection points: 4
#     Node 16, Type 0, BuildingBlock: QUQFOY_clean_sbu_1, # of connection points: 4
#     Node 17, Type 0, BuildingBlock: QUQFOY_clean_sbu_1, # of connection points: 4
#     Node 18, Type 0, BuildingBlock: QUQFOY_clean_sbu_1, # of connection points: 4
#     Node 19, Type 0, BuildingBlock: QUQFOY_clean_sbu_1, # of connection points: 4
#     Node 20, Type 0, BuildingBlock: QUQFOY_clean_sbu_1, # of connection points: 4
#     Node 21, Type 0, BuildingBlock: QUQFOY_clean_sbu_1, # of connection points: 4
#     Node 22, Type 0, BuildingBlock: QUQFOY_clean_sbu_1, # of connection points: 4
#     Node 23, Type 0, BuildingBlock: QUQFOY_clean_sbu_1, # of connection points: 4
#     Node 24, Type 0, BuildingBlock: QUQFOY_clean_sbu_1, # of connection points: 4
#     Node 25, Type 0, BuildingBlock: QUQFOY_clean_sbu_1, # of connection points: 4
#     Node 26, Type 0, BuildingBlock: QUQFOY_clean_sbu_1, # of connection points: 4
#     Node 27, Type 0, BuildingBlock: QUQFOY_clean_sbu_1, # of connection points: 4
#     Node 28, Type 0, BuildingBlock: QUQFOY_clean_sbu_1, # of connection points: 4
#     Node 29, Type 0, BuildingBlock: QUQFOY_clean_sbu_1, # of connection points: 4
#     Node 30, Type 0, BuildingBlock: QUQFOY_clean_sbu_1, # of connection points: 4
#     Node 31, Type 0, BuildingBlock: QUQFOY_clean_sbu_1, # of connection points: 4
#     Node 32, Type 0, BuildingBlock: QUQFOY_clean_sbu_1, # of connection points: 4
#     Node 33, Type 0, BuildingBlock: QUQFOY_clean_sbu_1, # of connection points: 4
#     Node 34, Type 0, BuildingBlock: QUQFOY_clean_sbu_1, # of connection points: 4
#     Node 35, Type 0, BuildingBlock: QUQFOY_clean_sbu_1, # of connection points: 4
#     Edge 36, Type (0, 0), BuildingBlock: OJICUG_clean_linker_0, # of connection points: 2
#     Edge 37, Type (0, 0), BuildingBlock: OJICUG_clean_linker_0, # of connection points: 2
#     Edge 38, Type (0, 0), BuildingBlock: OJICUG_clean_linker_0, # of connection points: 2
#     Edge 39, Type (0, 0), BuildingBlock: OJICUG_clean_linker_0, # of connection points: 2
#     Edge 40, Type (0, 0), BuildingBlock: OJICUG_clean_linker_0, # of connection points: 2
#     Edge 41, Type (0, 0), BuildingBlock: OJICUG_clean_linker_0, # of connection points: 2
#     Edge 42, Type (0, 0), BuildingBlock: OJICUG_clean_linker_0, # of connection points: 2
#     Edge 43, Type (0, 0), BuildingBlock: OJICUG_clean_linker_0, # of connection points: 2
#     Edge 44, Type (0, 0), BuildingBlock: OJICUG_clean_linker_0, # of connection points: 2
#     Edge 45, Type (0, 0), BuildingBlock: OJICUG_clean_linker_0, # of connection points: 2
#     Edge 46, Type (0, 0), BuildingBlock: OJICUG_clean_linker_0, # of connection points: 2
#     Edge 47, Type (0, 0), BuildingBlock: OJICUG_clean_linker_0, # of connection points: 2
#     Edge 48, Type (0, 0), BuildingBlock: OJICUG_clean_linker_0, # of connection points: 2
#     Edge 49, Type (0, 0), BuildingBlock: OJICUG_clean_linker_0, # of connection points: 2
#     Edge 50, Type (0, 0), BuildingBlock: OJICUG_clean_linker_0, # of connection points: 2
#     Edge 51, Type (0, 0), BuildingBlock: OJICUG_clean_linker_0, # of connection points: 2
#     Edge 52, Type (0, 0), BuildingBlock: OJICUG_clean_linker_0, # of connection points: 2
#     Edge 53, Type (0, 0), BuildingBlock: OJICUG_clean_linker_0, # of connection points: 2
#     Edge 54, Type (0, 0), BuildingBlock: OJICUG_clean_linker_0, # of connection points: 2
#     Edge 55, Type (0, 0), BuildingBlock: OJICUG_clean_linker_0, # of connection points: 2
#     Edge 56, Type (0, 0), BuildingBlock: OJICUG_clean_linker_0, # of connection points: 2
#     Edge 57, Type (0, 0), BuildingBlock: OJICUG_clean_linker_0, # of connection points: 2
#     Edge 58, Type (0, 0), BuildingBlock: OJICUG_clean_linker_0, # of connection points: 2
#     Edge 59, Type (0, 0), BuildingBlock: OJICUG_clean_linker_0, # of connection points: 2
#     Edge 60, Type (0, 0), BuildingBlock: OJICUG_clean_linker_0, # of connection points: 2
#     Edge 61, Type (0, 0), BuildingBlock: OJICUG_clean_linker_0, # of connection points: 2
#     Edge 62, Type (0, 0), BuildingBlock: OJICUG_clean_linker_0, # of connection points: 2
#     Edge 63, Type (0, 0), BuildingBlock: OJICUG_clean_linker_0, # of connection points: 2
#     Edge 64, Type (0, 0), BuildingBlock: OJICUG_clean_linker_0, # of connection points: 2
#     Edge 65, Type (0, 0), BuildingBlock: OJICUG_clean_linker_0, # of connection points: 2
#     Edge 66, Type (0, 0), BuildingBlock: OJICUG_clean_linker_0, # of connection points: 2
#     Edge 67, Type (0, 0), BuildingBlock: OJICUG_clean_linker_0, # of connection points: 2
#     Edge 68, Type (0, 0), BuildingBlock: OJICUG_clean_linker_0, # of connection points: 2
#     Edge 69, Type (0, 0), BuildingBlock: OJICUG_clean_linker_0, # of connection points: 2
#     Edge 70, Type (0, 0), BuildingBlock: OJICUG_clean_linker_0, # of connection points: 2
#     Edge 71, Type (0, 0), BuildingBlock: OJICUG_clean_linker_0, # of connection points: 2
#     Edge 72, Type (0, 0), BuildingBlock: OJICUG_clean_linker_0, # of connection points: 2
#     Edge 73, Type (0, 0), BuildingBlock: OJICUG_clean_linker_0, # of connection points: 2
#     Edge 74, Type (0, 0), BuildingBlock: OJICUG_clean_linker_0, # of connection points: 2
#     Edge 75, Type (0, 0), BuildingBlock: OJICUG_clean_linker_0, # of connection points: 2
#     Edge 76, Type (0, 0), BuildingBlock: OJICUG_clean_linker_0, # of connection points: 2
#     Edge 77, Type (0, 0), BuildingBlock: OJICUG_clean_linker_0, # of connection points: 2
#     Edge 78, Type (0, 0), BuildingBlock: OJICUG_clean_linker_0, # of connection points: 2
#     Edge 79, Type (0, 0), BuildingBlock: OJICUG_clean_linker_0, # of connection points: 2
#     Edge 80, Type (0, 0), BuildingBlock: OJICUG_clean_linker_0, # of connection points: 2
#     Edge 81, Type (0, 0), BuildingBlock: OJICUG_clean_linker_0, # of connection points: 2
#     Edge 82, Type (0, 0), BuildingBlock: OJICUG_clean_linker_0, # of connection points: 2
#     Edge 83, Type (0, 0), BuildingBlock: OJICUG_clean_linker_0, # of connection points: 2
#     Edge 84, Type (0, 0), BuildingBlock: OJICUG_clean_linker_0, # of connection points: 2
#     Edge 85, Type (0, 0), BuildingBlock: OJICUG_clean_linker_0, # of connection points: 2
#     Edge 86, Type (0, 0), BuildingBlock: OJICUG_clean_linker_0, # of connection points: 2
#     Edge 87, Type (0, 0), BuildingBlock: OJICUG_clean_linker_0, # of connection points: 2
#     Edge 88, Type (0, 0), BuildingBlock: OJICUG_clean_linker_0, # of connection points: 2
#     Edge 89, Type (0, 0), BuildingBlock: OJICUG_clean_linker_0, # of connection points: 2
#     Edge 90, Type (0, 0), BuildingBlock: OJICUG_clean_linker_0, # of connection points: 2
#     Edge 91, Type (0, 0), BuildingBlock: OJICUG_clean_linker_0, # of connection points: 2
#     Edge 92, Type (0, 0), BuildingBlock: OJICUG_clean_linker_0, # of connection points: 2
#     Edge 93, Type (0, 0), BuildingBlock: OJICUG_clean_linker_0, # of connection points: 2
#     Edge 94, Type (0, 0), BuildingBlock: OJICUG_clean_linker_0, # of connection points: 2
#     Edge 95, Type (0, 0), BuildingBlock: OJICUG_clean_linker_0, # of connection points: 2
#     Edge 96, Type (0, 0), BuildingBlock: OJICUG_clean_linker_0, # of connection points: 2
#     Edge 97, Type (0, 0), BuildingBlock: OJICUG_clean_linker_0, # of connection points: 2
#     Edge 98, Type (0, 0), BuildingBlock: OJICUG_clean_linker_0, # of connection points: 2
#     Edge 99, Type (0, 0), BuildingBlock: OJICUG_clean_linker_0, # of connection points: 2
#     Edge 100, Type (0, 0), BuildingBlock: OJICUG_clean_linker_0, # of connection points: 2
#     Edge 101, Type (0, 0), BuildingBlock: OJICUG_clean_linker_0, # of connection points: 2
#     Edge 102, Type (0, 0), BuildingBlock: OJICUG_clean_linker_0, # of connection points: 2
#     Edge 103, Type (0, 0), BuildingBlock: OJICUG_clean_linker_0, # of connection points: 2
#     Edge 104, Type (0, 0), BuildingBlock: OJICUG_clean_linker_0, # of connection points: 2
#     Edge 105, Type (0, 0), BuildingBlock: OJICUG_clean_linker_0, # of connection points: 2
#     Edge 106, Type (0, 0), BuildingBlock: OJICUG_clean_linker_0, # of connection points: 2
#     Edge 107, Type (0, 0), BuildingBlock: OJICUG_clean_linker_0, # of connection points: 2
# Relax obj value: 0.297
# Max RMSD: 0.115
# Mean RMSD: 0.115
data_MOF--net-unr--node1-QUQFOY_clean_sbu_1--edge1-OJICUG_clean_linker_0
_symmetry_space_group_name_H-M    P1
_symmetry_Int_Tables_number       1
_symmetry_cell_setting            triclinic
loop_
_symmetry_equiv_pos_as_xyz
'x, y, z'
_cell_length_a     36.782352
_cell_length_b     36.771765
_cell_length_c     102.65684
_cell_angle_alpha  90.023265
_cell_angle_beta   89.987923
_cell_angle_gamma 119.99761
loop_
_atom_site_label
_atom_site_type_symbol
_atom_site_fract_x
_atom_site_fract_y
_atom_site_fract_z
_atom_type_partial_charge
O0 O 0.13967 0.06128 0.17515 0.0
Cd1 Cd 0.17133 0.12509 0.17528 0.0
Cd2 Cd 0.15609 0.11284 0.20208 0.0
O3 O 0.15222 0.05687 0.19592 0.0
O4 O 0.21581 0.14309 0.16205 0.0
O5 O 0.22732 0.1496 0.18347 0.0
C6 C 0.24131 0.15166 0.17175 0.0
C7 C 0.15459 0.123 0.22471 0.0
C8 C 0.14042 0.03991 0.18473 0.0
C9 C 0.11182 0.14731 0.18407 0.0
O10 O 0.11566 0.13045 0.19436 0.0
O11 O 0.13544 0.15324 0.17435 0.0
O12 O 0.1246 0.0919 0.2187 0.0
O13 O 0.18789 0.14721 0.2181 0.0
O14 O 0.92017 0.0733 0.17511 0.0
Cd15 Cd 0.8564 0.04114 0.17484 0.0
Cd16 Cd 0.86721 0.03716 0.20177 0.0
O17 O 0.92367 0.08921 0.19596 0.0
O18 O 0.83921 0.06815 0.16155 0.0
O19 O 0.8313 0.07225 0.18293 0.0
C20 C 0.82997 0.08465 0.17122 0.0
C21 C 0.85634 0.02423 0.22433 0.0
C22 C 0.94114 0.09482 0.18484 0.0
C23 C 0.83374 0.95911 0.18341 0.0
O24 O 0.84976 0.97945 0.19382 0.0
O25 O 0.82854 0.97714 0.17365 0.0
O26 O 0.88744 0.02539 0.21831 0.0
O27 O 0.83256 0.03405 0.21778 0.0
O28 O 0.90937 0.84208 0.17515 0.0
Cd29 Cd 0.94106 0.81 0.17525 0.0
Cd30 Cd 0.94525 0.82649 0.2021 0.0
O31 O 0.89344 0.83097 0.19602 0.0
O32 O 0.91391 0.76534 0.16209 0.0
O33 O 0.90944 0.75408 0.18352 0.0
C34 C 0.89712 0.73998 0.17183 0.0
C35 C 0.95781 0.82914 0.22471 0.0
C36 C 0.88789 0.8422 0.18479 0.0
C37 C 0.02332 0.86927 0.18371 0.0
O38 O 0.00311 0.86581 0.19408 0.0
O39 O 0.00508 0.84557 0.17404 0.0
O40 O 0.95717 0.85914 0.21855 0.0
O41 O 0.94777 0.79527 0.21827 0.0
O42 O 0.05644 0.14286 0.32629 0.0
Cd43 Cd 0.12019 0.17524 0.32664 0.0
Cd44 Cd 0.10973 0.15925 0.29964 0.0
O45 O 0.05277 0.15395 0.30534 0.0
O46 O 0.13649 0.21927 0.33996 0.0
O47 O 0.14487 0.2315 0.31859 0.0
C48 C 0.14575 0.24506 0.33031 0.0
C49 C 0.12064 0.15645 0.27709 0.0
C50 C 0.03533 0.1425 0.31648 0.0
C51 C 0.14439 0.11664 0.31838 0.0
O52 O 0.12837 0.12031 0.30788 0.0
O53 O 0.14886 0.13993 0.32807 0.0
O54 O 0.08999 0.12634 0.28321 0.0
O55 O 0.14391 0.1905 0.28352 0.0
O56 O 0.83732 0.91004 0.32618 0.0
Cd57 Cd 0.80535 0.94187 0.32606 0.0
Cd58 Cd 0.8206 0.94481 0.29928 0.0
O59 O 0.8251 0.89308 0.3054 0.0
O60 O 0.76085 0.91518 0.33927 0.0
O61 O 0.74937 0.91018 0.31785 0.0
C62 C 0.73538 0.89819 0.32957 0.0
C63 C 0.82227 0.95664 0.27666 0.0
C64 C 0.83696 0.88809 0.3166 0.0
C65 C 0.86467 0.02365 0.31727 0.0
O66 O 0.86084 0.00291 0.30699 0.0
O67 O 0.84108 0.00595 0.327 0.0
O68 O 0.85229 0.95569 0.2827 0.0
O69 O 0.78881 0.94722 0.28324 0.0
O70 O 0.06979 0.92451 0.32692 0.0
Cd71 Cd 0.03831 0.86072 0.32674 0.0
Cd72 Cd 0.03515 0.87301 0.29992 0.0
O73 O 0.08669 0.92932 0.30613 0.0
O74 O 0.06526 0.84307 0.3399 0.0
O75 O 0.07028 0.83682 0.31847 0.0
C76 C 0.08234 0.83481 0.33017 0.0
C77 C 0.02366 0.86288 0.27728 0.0
C78 C 0.09172 0.94612 0.31735 0.0
C79 C 0.95629 0.83735 0.31795 0.0
O80 O 0.97688 0.85434 0.30765 0.0
O81 O 0.97424 0.8319 0.32769 0.0
O82 O 0.02407 0.89363 0.28332 0.0
O83 O 0.03334 0.83908 0.28388 0.0
O84 O 0.83866 0.92268 0.82661 0.0
Cd85 Cd 0.80731 0.85887 0.8266 0.0
Cd86 Cd 0.82189 0.87072 0.79978 0.0
O87 O 0.82576 0.92674 0.80585 0.0
O88 O 0.763 0.84086 0.83989 0.0
O89 O 0.75117 0.83388 0.81849 0.0
C90 C 0.73733 0.83196 0.83022 0.0
C91 C 0.82331 0.86033 0.77716 0.0
C92 C 0.83774 0.94388 0.817 0.0
C93 C 0.86712 0.83717 0.81775 0.0
O94 O 0.8628 0.85368 0.80745 0.0
O95 O 0.84366 0.8312 0.82751 0.0
O96 O 0.85323 0.89157 0.78315 0.0
O97 O 0.79007 0.83609 0.7838 0.0
O98 O 0.05941 0.91246 0.82642 0.0
Cd99 Cd 0.12317 0.94445 0.82662 0.0
Cd100 Cd 0.11203 0.94928 0.79968 0.0
O101 O 0.05555 0.89723 0.8055 0.0
O102 O 0.14022 0.91722 0.83988 0.0
O103 O 0.14815 0.91325 0.81849 0.0
C104 C 0.14943 0.90075 0.83019 0.0
C105 C 0.12244 0.96259 0.77712 0.0
C106 C 0.03827 0.89129 0.81667 0.0
C107 C 0.14619 0.02684 0.8183 0.0
O108 O 0.13007 0.00687 0.80784 0.0
O109 O 0.15124 0.00842 0.82799 0.0
O110 O 0.09166 0.9617 0.78327 0.0
O111 O 0.14615 0.95238 0.78353 0.0
O112 O 0.06936 0.1424 0.82689 0.0
Cd113 Cd 0.03725 0.17408 0.82676 0.0
Cd114 Cd 0.03399 0.15849 0.79993 0.0
O115 O 0.08607 0.15462 0.80609 0.0
O116 O 0.06384 0.2186 0.83998 0.0
O117 O 0.06874 0.2301 0.81857 0.0
C118 C 0.08074 0.2441 0.83028 0.0
C119 C 0.02222 0.1568 0.77731 0.0
C120 C 0.09138 0.14302 0.81729 0.0
C121 C 0.95541 0.11456 0.81805 0.0
O122 O 0.97598 0.11833 0.80773 0.0
O123 O 0.97324 0.13819 0.82776 0.0
O124 O 0.02316 0.12675 0.78334 0.0
O125 O 0.03151 0.19021 0.78389 0.0
O126 O 0.92014 0.84198 0.67539 0.0
Cd127 Cd 0.85636 0.80986 0.67525 0.0
Cd128 Cd 0.86753 0.82497 0.70215 0.0
O129 O 0.92418 0.83 0.69624 0.0
O130 O 0.83916 0.76539 0.66205 0.0
O131 O 0.83185 0.75387 0.68346 0.0
C132 C 0.83033 0.73991 0.67177 0.0
C133 C 0.85696 0.82704 0.72473 0.0
C134 C 0.94141 0.84184 0.68509 0.0
C135 C 0.83306 0.86874 0.68386 0.0
O136 O 0.8494 0.86474 0.69425 0.0
O137 O 0.82793 0.84548 0.67411 0.0
O138 O 0.88778 0.85715 0.71867 0.0
O139 O 0.83332 0.79331 0.71821 0.0
O140 O 0.13877 0.07487 0.67506 0.0
Cd141 Cd 0.1708 0.0431 0.67522 0.0
Cd142 Cd 0.15575 0.04027 0.702 0.0
O143 O 0.15124 0.09197 0.69582 0.0
O144 O 0.21542 0.06982 0.66205 0.0
O145 O 0.22667 0.07484 0.68348 0.0
C146 C 0.24077 0.08683 0.67178 0.0
C147 C 0.15478 0.02899 0.72463 0.0
C148 C 0.13931 0.09693 0.68463 0.0
C149 C 0.11175 0.96127 0.68407 0.0
O150 O 0.11554 0.98201 0.69435 0.0
O151 O 0.13522 0.97901 0.67433 0.0
O152 O 0.12451 0.02968 0.71866 0.0
O153 O 0.18803 0.03828 0.71796 0.0
O154 O 0.90699 0.06097 0.67533 0.0
Cd155 Cd 0.93829 0.12475 0.67529 0.0
Cd156 Cd 0.94306 0.11317 0.7022 0.0
O157 O 0.89146 0.0565 0.69624 0.0
O158 O 0.91084 0.14158 0.66205 0.0
O159 O 0.90639 0.14892 0.68345 0.0
C160 C 0.89399 0.1503 0.67174 0.0
C161 C 0.95593 0.12352 0.72479 0.0
C162 C 0.88581 0.0395 0.68504 0.0
C163 C 0.02088 0.14872 0.68368 0.0
O164 O 0.00091 0.13213 0.6941 0.0
O165 O 0.0023 0.15364 0.67401 0.0
O166 O 0.95556 0.09296 0.71864 0.0
O167 O 0.94546 0.14699 0.71835 0.0
O168 O 0.80604 0.39574 0.50854 0.0
Cd169 Cd 0.83814 0.45953 0.50868 0.0
Cd170 Cd 0.82204 0.4473 0.5355 0.0
O171 O 0.81755 0.39101 0.52939 0.0
O172 O 0.88286 0.47717 0.49556 0.0
O173 O 0.89395 0.4837 0.517 0.0
C174 C 0.90813 0.48561 0.50531 0.0
C175 C 0.81989 0.45732 0.55812 0.0
C176 C 0.80612 0.37418 0.51816 0.0
C177 C 0.77901 0.48259 0.51724 0.0
O178 O 0.7825 0.46575 0.52759 0.0
O179 O 0.80265 0.48809 0.50756 0.0
O180 O 0.7898 0.42661 0.55201 0.0
O181 O 0.85358 0.48117 0.55162 0.0
O182 O 0.58729 0.40823 0.50851 0.0
Cd183 Cd 0.5235 0.37623 0.5085 0.0
Cd184 Cd 0.5352 0.37303 0.53535 0.0
O185 O 0.59141 0.42495 0.5293 0.0
O186 O 0.50583 0.40293 0.49525 0.0
O187 O 0.49894 0.40773 0.51666 0.0
C188 C 0.49711 0.41979 0.50494 0.0
C189 C 0.5248 0.36121 0.55796 0.0
C190 C 0.60855 0.43015 0.51813 0.0
C191 C 0.50089 0.29437 0.51726 0.0
O192 O 0.51749 0.31499 0.52759 0.0
O193 O 0.4953 0.31219 0.50752 0.0
O194 O 0.55582 0.36212 0.55196 0.0
O195 O 0.5008 0.37057 0.55135 0.0
O196 O 0.57479 0.17631 0.50853 0.0
Cd197 Cd 0.60658 0.14432 0.5084 0.0
Cd198 Cd 0.61074 0.15969 0.53529 0.0
O199 O 0.55895 0.16446 0.5294 0.0
O200 O 0.57929 0.0998 0.49521 0.0
O201 O 0.57524 0.08836 0.51663 0.0
C202 C 0.56273 0.07435 0.50494 0.0
C203 C 0.62346 0.16181 0.55787 0.0
C204 C 0.55338 0.17613 0.51824 0.0
C205 C 0.68879 0.20339 0.51691 0.0
O206 O 0.66855 0.19944 0.52732 0.0
O207 O 0.67058 0.18005 0.50718 0.0
O208 O 0.62271 0.19191 0.55181 0.0
O209 O 0.61341 0.12809 0.55134 0.0
O210 O 0.72449 0.47564 0.66019 0.0
Cd211 Cd 0.78826 0.50754 0.66015 0.0
Cd212 Cd 0.7764 0.49193 0.6333 0.0
O213 O 0.72016 0.48761 0.63936 0.0
O214 O 0.80587 0.55217 0.67331 0.0
O215 O 0.81269 0.56345 0.65189 0.0
C216 C 0.81451 0.57755 0.66358 0.0
C217 C 0.78667 0.49007 0.61068 0.0
C218 C 0.70314 0.47602 0.65055 0.0
C219 C 0.81119 0.44837 0.65153 0.0
O220 O 0.79457 0.45212 0.64117 0.0
O221 O 0.8166 0.47185 0.66125 0.0
O222 O 0.75583 0.45994 0.61674 0.0
O223 O 0.81053 0.52364 0.61724 0.0
O224 O 0.50491 0.24492 0.6597 0.0
Cd225 Cd 0.47305 0.27684 0.6599 0.0
Cd226 Cd 0.48868 0.2814 0.63298 0.0
O227 O 0.49325 0.22943 0.63881 0.0
O228 O 0.42875 0.24963 0.67315 0.0
O229 O 0.41694 0.24558 0.65176 0.0
C230 C 0.40312 0.23311 0.66346 0.0
C231 C 0.49114 0.29444 0.61041 0.0
C232 C 0.50478 0.22365 0.64996 0.0
C233 C 0.53227 0.35916 0.65149 0.0
O234 O 0.52838 0.33908 0.64105 0.0
O235 O 0.50884 0.34082 0.6612 0.0
O236 O 0.52113 0.29358 0.6165 0.0
O237 O 0.45736 0.28436 0.61689 0.0
O238 O 0.73629 0.25637 0.65991 0.0
Cd239 Cd 0.70414 0.19257 0.65979 0.0
Cd240 Cd 0.70143 0.20484 0.63299 0.0
O241 O 0.75338 0.26086 0.63915 0.0
O242 O 0.73059 0.17452 0.673 0.0
O243 O 0.73559 0.16801 0.65158 0.0
C244 C 0.74752 0.16594 0.6633 0.0
C245 C 0.68988 0.19476 0.61036 0.0
C246 C 0.75843 0.27779 0.65034 0.0
C247 C 0.62254 0.17052 0.65094 0.0
O248 O 0.64336 0.18731 0.64066 0.0
O249 O 0.64011 0.16455 0.66068 0.0
O250 O 0.69091 0.22581 0.61638 0.0
O251 O 0.69899 0.17055 0.61696 0.0
O252 O 0.50574 0.25729 0.16013 0.0
Cd253 Cd 0.47343 0.1935 0.1598 0.0
Cd254 Cd 0.48917 0.20644 0.13302 0.0
O255 O 0.49373 0.26256 0.13937 0.0
O256 O 0.4288 0.17559 0.17297 0.0
O257 O 0.4176 0.16983 0.15154 0.0
C258 C 0.4035 0.16757 0.16325 0.0
C259 C 0.49064 0.19662 0.11037 0.0
C260 C 0.50542 0.2791 0.15062 0.0
C261 C 0.53214 0.1703 0.15093 0.0
O262 O 0.52873 0.18764 0.14069 0.0
O263 O 0.5086 0.16457 0.16066 0.0
O264 O 0.52089 0.22736 0.11643 0.0
O265 O 0.45716 0.17269 0.11695 0.0
O266 O 0.72349 0.2425 0.15932 0.0
Cd267 Cd 0.78728 0.27442 0.15929 0.0
Cd268 Cd 0.77535 0.27772 0.13251 0.0
O269 O 0.7191 0.22582 0.13852 0.0
O270 O 0.8049 0.2476 0.17252 0.0
O271 O 0.81179 0.24289 0.1511 0.0
C272 C 0.8136 0.23076 0.16282 0.0
C273 C 0.78577 0.28996 0.10991 0.0
C274 C 0.70208 0.22067 0.1497 0.0
C275 C 0.80964 0.35627 0.15061 0.0
O276 O 0.79292 0.33565 0.1403 0.0
O277 O 0.81547 0.33848 0.16033 0.0
O278 O 0.75468 0.28881 0.11594 0.0
O279 O 0.80979 0.28051 0.11648 0.0
O280 O 0.73698 0.47553 0.15974 0.0
Cd281 Cd 0.70574 0.50805 0.16012 0.0
Cd282 Cd 0.7 0.49191 0.13309 0.0
O283 O 0.7516 0.48648 0.13878 0.0
O284 O 0.73373 0.55228 0.17336 0.0
O285 O 0.73729 0.56419 0.15199 0.0
C286 C 0.75017 0.57791 0.16367 0.0
C287 C 0.68604 0.48885 0.11057 0.0
C288 C 0.75763 0.47507 0.14992 0.0
C289 C 0.62286 0.44958 0.15192 0.0
O290 O 0.64248 0.45322 0.1414 0.0
O291 O 0.64175 0.47282 0.16161 0.0
O292 O 0.68655 0.45876 0.11671 0.0
O293 O 0.69701 0.52301 0.11695 0.0
O294 O 0.58536 0.17609 0.00832 0.0
Cd295 Cd 0.5216 0.14361 0.00837 0.0
Cd296 Cd 0.5336 0.16023 0.03527 0.0
O297 O 0.59016 0.16523 0.02921 0.0
O298 O 0.50445 0.09885 0.99527 0.0
O299 O 0.49765 0.08783 0.01671 0.0
C300 C 0.496 0.07363 0.00504 0.0
C301 C 0.52351 0.16304 0.05786 0.0
C302 C 0.60698 0.17647 0.01799 0.0
C303 C 0.49774 0.20229 0.01678 0.0
O304 O 0.51447 0.19898 0.02718 0.0
O305 O 0.49271 0.17876 0.00711 0.0
O306 O 0.55401 0.19314 0.05168 0.0
O307 O 0.49999 0.12901 0.05146 0.0
O308 O 0.80508 0.40813 0.00856 0.0
Cd309 Cd 0.83698 0.37625 0.00823 0.0
Cd310 Cd 0.82203 0.37185 0.03517 0.0
O311 O 0.81727 0.42376 0.02943 0.0
O312 O 0.88136 0.40367 0.99502 0.0
O313 O 0.89303 0.40738 0.01642 0.0
C314 C 0.90692 0.42005 0.00473 0.0
C315 C 0.81978 0.35858 0.05771 0.0
C316 C 0.80538 0.42942 0.01832 0.0
C317 C 0.77787 0.294 0.01671 0.0
O318 O 0.78206 0.31419 0.02715 0.0
O319 O 0.80109 0.31223 0.00696 0.0
O320 O 0.78982 0.35968 0.05168 0.0
O321 O 0.85348 0.36866 0.05119 0.0
O322 O 0.57256 0.39426 0.00855 0.0
Cd323 Cd 0.60433 0.45805 0.00886 0.0
Cd324 Cd 0.60706 0.44518 0.03558 0.0
O325 O 0.55519 0.38925 0.0293 0.0
O326 O 0.57774 0.47615 0.9957 0.0
O327 O 0.57244 0.48199 0.01715 0.0
C328 C 0.56057 0.48427 0.00544 0.0
C329 C 0.61841 0.45516 0.05822 0.0
C330 C 0.5503 0.37259 0.01807 0.0
C331 C 0.68606 0.48046 0.01768 0.0
O332 O 0.66526 0.46316 0.02792 0.0
O333 O 0.6684 0.48659 0.00799 0.0
O334 O 0.61747 0.42414 0.0522 0.0
O335 O 0.6093 0.47935 0.0516 0.0
O336 O 0.47273 0.7266 0.84236 0.0
Cd337 Cd 0.50527 0.79038 0.84239 0.0
Cd338 Cd 0.48894 0.77854 0.86926 0.0
O339 O 0.48392 0.72193 0.86323 0.0
O340 O 0.54953 0.80732 0.82913 0.0
O341 O 0.56133 0.8144 0.85053 0.0
C342 C 0.5751 0.81591 0.83881 0.0
C343 C 0.48669 0.78892 0.89185 0.0
C344 C 0.47249 0.70503 0.85202 0.0
C345 C 0.44664 0.81427 0.85085 0.0
O346 O 0.4499 0.79745 0.86124 0.0
O347 O 0.47022 0.81939 0.84119 0.0
O348 O 0.4565 0.75827 0.88574 0.0
O349 O 0.52051 0.81246 0.88536 0.0
O350 O 0.25521 0.74198 0.84202 0.0
Cd351 Cd 0.19142 0.71043 0.84201 0.0
Cd352 Cd 0.20305 0.70712 0.86887 0.0
O353 O 0.25953 0.75868 0.86281 0.0
O354 O 0.17402 0.73749 0.8288 0.0
O355 O 0.16721 0.7422 0.85022 0.0
C356 C 0.16544 0.7544 0.83852 0.0
C357 C 0.19256 0.69521 0.89148 0.0
C358 C 0.27661 0.76375 0.85165 0.0
C359 C 0.16811 0.62839 0.85079 0.0
O360 O 0.18479 0.64896 0.86112 0.0
O361 O 0.16278 0.64633 0.84102 0.0
O362 O 0.22345 0.69587 0.88547 0.0
O363 O 0.16881 0.70493 0.88487 0.0
O364 O 0.24023 0.50864 0.84236 0.0
Cd365 Cd 0.27149 0.47612 0.8423 0.0
Cd366 Cd 0.2757 0.49196 0.86922 0.0
O367 O 0.22429 0.49726 0.86323 0.0
O368 O 0.24412 0.4318 0.82905 0.0
O369 O 0.23956 0.42007 0.85045 0.0
C370 C 0.22722 0.40625 0.83874 0.0
C371 C 0.28856 0.4945 0.8918 0.0
C372 C 0.21893 0.50888 0.85204 0.0
C373 C 0.35386 0.53466 0.85085 0.0
O374 O 0.33364 0.53106 0.86123 0.0
O375 O 0.33555 0.51131 0.84112 0.0
O376 O 0.28803 0.5246 0.88566 0.0
O377 O 0.27812 0.46055 0.88536 0.0
O378 O 0.39104 0.80942 0.9937 0.0
Cd379 Cd 0.45482 0.84144 0.99372 0.0
Cd380 Cd 0.44312 0.82545 0.96683 0.0
O381 O 0.38681 0.8211 0.97284 0.0
O382 O 0.47222 0.88616 0.00686 0.0
O383 O 0.47923 0.89729 0.98542 0.0
C384 C 0.48091 0.91147 0.9971 0.0
C385 C 0.45338 0.823 0.94424 0.0
C386 C 0.36973 0.80961 0.98402 0.0
C387 C 0.47795 0.78228 0.98524 0.0
O388 O 0.4614 0.78592 0.97485 0.0
O389 O 0.48323 0.80583 0.99493 0.0
O390 O 0.42256 0.79302 0.95035 0.0
O391 O 0.4772 0.85676 0.95072 0.0
O392 O 0.17119 0.57842 0.99319 0.0
Cd393 Cd 0.13934 0.61035 0.99326 0.0
Cd394 Cd 0.15537 0.61473 0.9664 0.0
O395 O 0.1597 0.5627 0.97231 0.0
O396 O 0.09475 0.58312 0.00642 0.0
O397 O 0.08339 0.57907 0.985 0.0
C398 C 0.06933 0.56657 0.99668 0.0
C399 C 0.15806 0.62778 0.94383 0.0
C400 C 0.17111 0.55702 0.9835 0.0
C401 C 0.19884 0.69258 0.98487 0.0
O402 O 0.19511 0.67241 0.97447 0.0
O403 O 0.17519 0.67436 0.99454 0.0
O404 O 0.18791 0.62675 0.94995 0.0
O405 O 0.12425 0.61781 0.95028 0.0
O406 O 0.40265 0.59026 0.9937 0.0
Cd407 Cd 0.37061 0.52646 0.99358 0.0
Cd408 Cd 0.36787 0.53869 0.96676 0.0
O409 O 0.41981 0.59473 0.97294 0.0
O410 O 0.39718 0.50848 0.00677 0.0
O411 O 0.40216 0.50207 0.98534 0.0
C412 C 0.41414 0.50001 0.99706 0.0
C413 C 0.35612 0.52842 0.94415 0.0
C414 C 0.42483 0.61167 0.98413 0.0
C415 C 0.28897 0.50417 0.98472 0.0
O416 O 0.3098 0.52102 0.97445 0.0
O417 O 0.30656 0.49827 0.99447 0.0
O418 O 0.35723 0.55954 0.95015 0.0
O419 O 0.36535 0.5043 0.95076 0.0
O420 O 0.17245 0.59064 0.49367 0.0
Cd421 Cd 0.14021 0.52685 0.49376 0.0
Cd422 Cd 0.15579 0.53819 0.46682 0.0
O423 O 0.16076 0.59481 0.4728 0.0
O424 O 0.09569 0.50972 0.50694 0.0
O425 O 0.0843 0.50252 0.48552 0.0
C426 C 0.07028 0.501 0.49721 0.0
C427 C 0.1581 0.52787 0.44422 0.0
C428 C 0.17239 0.61196 0.48398 0.0
C429 C 0.19882 0.5031 0.48521 0.0
O430 O 0.19503 0.51951 0.4748 0.0
O431 O 0.1756 0.4982 0.49495 0.0
O432 O 0.18826 0.55851 0.45034 0.0
O433 O 0.12427 0.50429 0.4507 0.0
O434 O 0.39093 0.57788 0.49328 0.0
Cd435 Cd 0.45471 0.60969 0.493 0.0
Cd436 Cd 0.4419 0.61263 0.46626 0.0
O437 O 0.38586 0.56083 0.4725 0.0
O438 O 0.47271 0.58311 0.50619 0.0
O439 O 0.47878 0.57786 0.48475 0.0
C440 C 0.48098 0.56598 0.49647 0.0
C441 C 0.45189 0.62417 0.44363 0.0
C442 C 0.36923 0.55582 0.48374 0.0
C443 C 0.47721 0.69152 0.48425 0.0
O444 O 0.46004 0.67081 0.47398 0.0
O445 O 0.48318 0.67376 0.49394 0.0
O446 O 0.421 0.62339 0.44967 0.0
O447 O 0.47594 0.61479 0.45021 0.0
O448 O 0.40419 0.81007 0.49321 0.0
Cd449 Cd 0.37235 0.84202 0.49339 0.0
Cd450 Cd 0.36814 0.82683 0.46652 0.0
O451 O 0.42004 0.82218 0.47235 0.0
O452 O 0.39964 0.88652 0.50658 0.0
O453 O 0.40362 0.89801 0.48517 0.0
C454 C 0.41616 0.912 0.49686 0.0
C455 C 0.35545 0.82492 0.44394 0.0
C456 C 0.42561 0.81038 0.48348 0.0
C457 C 0.29016 0.78283 0.48488 0.0
O458 O 0.31038 0.7868 0.47447 0.0
O459 O 0.30836 0.80624 0.49461 0.0
O460 O 0.35634 0.79483 0.44996 0.0
O461 O 0.36532 0.85852 0.45051 0.0
O462 O 0.25191 0.5091 0.34201 0.0
Cd463 Cd 0.18813 0.47734 0.34229 0.0
Cd464 Cd 0.20097 0.49313 0.36904 0.0
O465 O 0.25692 0.49718 0.3628 0.0
O466 O 0.17 0.43274 0.32909 0.0
O467 O 0.16381 0.42138 0.35051 0.0
C468 C 0.1616 0.4073 0.33879 0.0
C469 C 0.191 0.49469 0.39168 0.0
C470 C 0.27357 0.5087 0.35156 0.0
C471 C 0.16598 0.53696 0.35104 0.0
O472 O 0.18306 0.53333 0.36131 0.0
O473 O 0.15993 0.51318 0.34135 0.0
O474 O 0.22194 0.52477 0.38563 0.0
O475 O 0.16687 0.4613 0.38508 0.0
O476 O 0.47127 0.73999 0.34182 0.0
Cd477 Cd 0.50319 0.70813 0.34162 0.0
Cd478 Cd 0.48769 0.70379 0.36859 0.0
O479 O 0.48307 0.75569 0.3627 0.0
O480 O 0.5474 0.7353 0.32834 0.0
O481 O 0.55935 0.73954 0.34973 0.0
C482 C 0.57309 0.75193 0.33802 0.0
C483 C 0.48526 0.69087 0.39117 0.0
C484 C 0.47149 0.76137 0.35154 0.0
C485 C 0.44421 0.62583 0.35013 0.0
O486 O 0.44815 0.646 0.36055 0.0
O487 O 0.46746 0.64412 0.34039 0.0
O488 O 0.45523 0.69164 0.38507 0.0
O489 O 0.51906 0.701 0.38469 0.0
O490 O 0.24018 0.72872 0.34219 0.0
Cd491 Cd 0.27226 0.79253 0.34206 0.0
Cd492 Cd 0.27602 0.7813 0.36894 0.0
O493 O 0.22398 0.72497 0.36302 0.0
O494 O 0.24535 0.80998 0.32881 0.0
O495 O 0.24103 0.81739 0.35022 0.0
C496 C 0.22874 0.81897 0.33851 0.0
C497 C 0.28842 0.79175 0.39153 0.0
C498 C 0.21852 0.70763 0.35188 0.0
C499 C 0.35423 0.81511 0.35068 0.0
O500 O 0.33382 0.79881 0.36106 0.0
O501 O 0.33625 0.82055 0.34094 0.0
O502 O 0.28737 0.76073 0.38548 0.0
O503 O 0.27889 0.81574 0.38498 0.0
C504 C 0.05482 0.15421 0.19443 0.0
C505 C 0.07374 0.1507 0.18296 0.0
H506 H -0.00247 0.13945 0.20403 0.0
C507 C 0.05039 0.13848 0.17138 0.0
H508 H 0.07237 0.16406 0.20346 0.0
C509 C 0.00727 0.12393 0.17172 0.0
C510 C 0.98719 0.12166 0.18363 0.0
H511 H 0.06422 0.13554 0.16241 0.0
H512 H -0.01077 0.11102 0.16289 0.0
C513 C 0.01184 0.13982 0.19477 0.0
C514 C 0.84442 0.90743 0.17085 0.0
C515 C 0.83078 0.91781 0.18228 0.0
H516 H 0.87343 0.87474 0.16267 0.0
C517 C 0.82647 0.89503 0.19374 0.0
H518 H 0.84802 0.92449 0.1619 0.0
C519 C 0.84146 0.86693 0.19426 0.0
C520 C 0.86091 0.86118 0.18332 0.0
H521 H 0.81557 0.90218 0.20266 0.0
H522 H 0.84112 0.85271 0.20353 0.0
C523 C 0.85949 0.87929 0.17137 0.0
C524 C 0.1162 0.96893 0.19425 0.0
C525 C 0.12162 -0.00604 0.18329 0.0
H526 H 0.081 0.90798 0.20277 0.0
C527 C 0.10317 0.97423 0.17139 0.0
H528 H 0.1307 0.98297 0.20348 0.0
C529 C 0.07495 0.93103 0.17096 0.0
C530 C 0.0648 0.90724 0.18244 0.0
H531 H 0.10748 0.99258 0.16268 0.0
H532 H 0.05757 0.91745 0.16206 0.0
C533 C 0.08798 0.92586 0.19382 0.0
C534 C 0.15313 0.0603 0.30838 0.0
C535 C 0.14803 0.07874 0.31972 0.0
H536 H 0.13936 0.00336 0.29872 0.0
C537 C 0.13402 0.05482 0.33116 0.0
H538 H 0.16434 0.07829 0.29945 0.0
C539 C 0.11926 0.01165 0.33071 0.0
C540 C 0.11854 0.9921 0.31884 0.0
H541 H 0.12981 0.06826 0.34003 0.0
H542 H 0.10496 -0.00679 0.33939 0.0
C543 C 0.13847 0.01727 0.30793 0.0
C544 C 0.9216 0.08749 0.30687 0.0
C545 C 0.90271 0.06518 0.31836 0.0
H546 H 0.97883 0.13003 0.29725 0.0
C547 C 0.92609 0.0765 0.32993 0.0
H548 H 0.90404 0.07963 0.29784 0.0
C549 C 0.96918 0.10519 0.32958 0.0
C550 C -0.01077 0.12292 0.31766 0.0
H551 H 0.9123 0.05983 0.33892 0.0
H552 H 0.98723 0.11051 0.33842 0.0
C553 C 0.96455 0.11616 0.30652 0.0
C554 C 0.87451 0.8602 0.33 0.0
C555 C 0.85642 0.86154 0.31805 0.0
H556 H 0.92037 0.84974 0.33948 0.0
C557 C 0.86294 0.8428 0.30706 0.0
H558 H 0.86938 0.87357 0.33873 0.0
C559 C 0.89181 0.82879 0.30755 0.0
C560 C 0.91453 0.83328 0.31903 0.0
H561 H 0.84878 0.84244 0.29777 0.0
H562 H 0.89956 0.81854 0.2986 0.0
C563 C 0.90338 0.84603 0.3305 0.0
C564 C 0.9244 0.83101 0.80728 0.0
C565 C 0.90553 0.83433 0.81879 0.0
H566 H 0.98166 0.84631 0.79756 0.0
C567 C 0.92912 0.84692 0.83031 0.0
H568 H 0.90668 0.82091 0.79827 0.0
C569 C 0.97231 0.86191 0.82989 0.0
C570 C -0.00774 0.86428 0.81794 0.0
H571 H 0.91535 0.84974 0.83932 0.0
H572 H -0.00952 0.87502 0.83869 0.0
C573 C 0.96746 0.84588 0.80685 0.0
C574 C 0.13866 0.11936 0.80782 0.0
C575 C 0.11869 0.12441 0.81875 0.0
H576 H 0.16511 0.08476 0.79932 0.0
C577 C 0.11988 0.10587 0.83063 0.0
H578 H 0.1392 0.13395 0.7986 0.0
C579 C 0.13518 0.07792 0.83107 0.0
C580 C 0.14926 0.06814 0.81961 0.0
H581 H 0.10555 0.10989 0.83932 0.0
H582 H 0.13134 0.06045 0.83995 0.0
C583 C 0.15387 0.09144 0.80826 0.0
C584 C 0.86276 0.01482 0.80734 0.0
C585 C 0.8567 0.98988 0.81837 0.0
H586 H 0.89863 0.07561 0.79877 0.0
C587 C 0.87477 0.00968 0.83029 0.0
H588 H 0.8486 0.00071 0.79808 0.0
C589 C 0.9032 0.05284 0.83071 0.0
C590 C 0.91394 0.0765 0.8192 0.0
H591 H 0.86998 0.99141 0.83905 0.0
H592 H 0.92022 0.06647 0.83966 0.0
C593 C 0.8912 0.05783 0.80775 0.0
C594 C 0.85749 0.97379 0.67172 0.0
C595 C 0.85909 -0.00653 0.68365 0.0
H596 H 0.84624 0.91711 0.66229 0.0
C597 C 0.84013 0.96842 0.69466 0.0
H598 H 0.87103 0.99215 0.66297 0.0
C599 C 0.82549 0.92539 0.69419 0.0
C600 C 0.82966 0.90682 0.68273 0.0
H601 H 0.83994 0.98242 0.70392 0.0
H602 H 0.81499 0.9075 0.70315 0.0
C603 C 0.84275 0.93063 0.67125 0.0
C604 C 0.05032 0.90824 0.67147 0.0
C605 C 0.07387 0.91962 0.68301 0.0
H606 H -0.01094 0.874 0.66307 0.0
C607 C 0.05527 0.89717 0.6945 0.0
H608 H 0.0639 0.92502 0.66248 0.0
C609 C 0.01238 0.86827 0.6949 0.0
C610 C 0.98748 0.86147 0.6838 0.0
H611 H 0.07298 0.90508 0.7035 0.0
H612 H -0.0017 0.8543 0.70418 0.0
C613 C 0.00728 0.87935 0.67187 0.0
C614 C 0.08592 0.15762 0.69373 0.0
C615 C 0.06253 0.15267 0.68237 0.0
H616 H 0.12918 0.14398 0.70337 0.0
C617 C 0.0728 0.13912 0.6709 0.0
H618 H 0.07886 0.16847 0.70268 0.0
C619 C 0.1014 0.12461 0.67131 0.0
C620 C 0.12009 0.1237 0.68319 0.0
H621 H 0.05527 0.13503 0.66201 0.0
H622 H 0.10581 0.11061 0.6626 0.0
C623 C 0.11451 0.14324 0.69414 0.0
C624 C 0.67436 0.45855 0.50489 0.0
C625 C 0.65455 0.45705 0.51678 0.0
H626 H 0.73111 0.4696 0.49557 0.0
C627 C 0.67946 0.47608 0.52781 0.0
H628 H 0.65611 0.44496 0.49613 0.0
C629 C 0.72245 0.49058 0.52742 0.0
C630 C 0.74112 0.48626 0.51602 0.0
H631 H 0.66535 0.47634 0.53705 0.0
H632 H 0.74021 0.50105 0.53641 0.0
C633 C 0.7175 0.47319 0.5045 0.0
C634 C 0.49375 0.23039 0.52763 0.0
C635 C 0.49752 0.2529 0.51616 0.0
H636 H 0.50833 0.18785 0.5373 0.0
C637 C 0.51007 0.24186 0.50463 0.0
H638 H 0.48367 0.23804 0.53664 0.0
C639 C 0.52465 0.21331 0.50503 0.0
C640 C 0.52664 0.19543 0.51695 0.0
H641 H 0.51322 0.25868 0.49565 0.0
H642 H 0.53779 0.20824 0.49623 0.0
C643 C 0.5082 0.20185 0.52803 0.0
C644 C 0.74054 0.26544 0.50428 0.0
C645 C 0.73021 0.2415 0.51573 0.0
H646 H 0.77329 0.32707 0.49607 0.0
C647 C 0.75318 0.25999 0.52715 0.0
H648 H 0.72333 0.25196 0.49535 0.0
C649 C 0.78142 0.30305 0.52764 0.0
C650 C 0.78709 0.3282 0.5167 0.0
H651 H 0.74607 0.242 0.53609 0.0
H652 H 0.79578 0.31697 0.5369 0.0
C653 C 0.76881 0.30863 0.50477 0.0
C654 C 0.80143 0.38654 0.66418 0.0
C655 C 0.81473 0.41038 0.65271 0.0
H656 H 0.77295 0.32498 0.67243 0.0
C657 C 0.8192 0.39189 0.64128 0.0
H658 H 0.79772 0.40003 0.67311 0.0
C659 C 0.80464 0.34888 0.64082 0.0
C660 C 0.78538 0.32377 0.65179 0.0
H661 H 0.82986 0.40982 0.63233 0.0
H662 H 0.80502 0.33493 0.63156 0.0
C663 C 0.78672 0.34338 0.66371 0.0
C664 C 0.58916 0.42362 0.64138 0.0
C665 C 0.57043 0.40051 0.65276 0.0
H666 H 0.64633 0.4662 0.63174 0.0
C667 C 0.59418 0.41061 0.66425 0.0
H668 H 0.57132 0.4167 0.63242 0.0
C669 C 0.63739 0.43876 0.66383 0.0
C670 C 0.65718 0.45716 0.65195 0.0
H671 H 0.58052 0.3933 0.67315 0.0
H672 H 0.65567 0.44306 0.67256 0.0
C673 C 0.63223 0.45174 0.64097 0.0
C674 C 0.55886 0.16388 0.64051 0.0
C675 C 0.58115 0.16733 0.65201 0.0
H676 H 0.51662 0.17886 0.63083 0.0
C677 C 0.57003 0.17975 0.66355 0.0
H678 H 0.56658 0.15391 0.6315 0.0
C679 C 0.54161 0.1945 0.66315 0.0
C680 C 0.52395 0.19678 0.65121 0.0
H681 H 0.58669 0.18267 0.67254 0.0
H682 H 0.53648 0.20752 0.67196 0.0
C683 C 0.53046 0.17849 0.64011 0.0
C684 C 0.63647 0.19246 0.16304 0.0
C685 C 0.65606 0.19411 0.15108 0.0
H686 H 0.58008 0.18188 0.17249 0.0
C687 C 0.63095 0.17576 0.14004 0.0
H688 H 0.65487 0.20553 0.1718 0.0
C689 C 0.58809 0.16186 0.1405 0.0
C690 C 0.56975 0.16608 0.15199 0.0
H691 H 0.64487 0.17565 0.13075 0.0
H692 H 0.57024 0.15195 0.13152 0.0
C693 C 0.59347 0.1784 0.1635 0.0
C694 C 0.80076 0.40887 0.16332 0.0
C695 C 0.81298 0.39773 0.15174 0.0
H696 H 0.77347 0.44273 0.17183 0.0
C697 C 0.81648 0.42017 0.14027 0.0
H698 H 0.7978 0.39209 0.17229 0.0
C699 C 0.80214 0.44881 0.13994 0.0
C700 C 0.7841 0.45542 0.15109 0.0
H701 H 0.8263 0.41245 0.13123 0.0
H702 H 0.80182 0.4628 0.13069 0.0
C703 C 0.78631 0.43754 0.16299 0.0
C704 C 0.52943 0.35043 0.1414 0.0
C705 C 0.52443 0.32503 0.15222 0.0
H706 H 0.56427 0.41165 0.13304 0.0
C707 C 0.54335 0.34436 0.16412 0.0
H708 H 0.51453 0.33669 0.13218 0.0
C709 C 0.57163 0.38754 0.16464 0.0
C710 C 0.58132 0.41171 0.15326 0.0
H711 H 0.53938 0.32572 0.17273 0.0
H712 H 0.58938 0.40081 0.1735 0.0
C713 C 0.55765 0.39348 0.14193 0.0
C714 C 0.50338 0.30134 0.02739 0.0
C715 C 0.52331 0.32666 0.01651 0.0
H716 H 0.47759 0.24023 0.03579 0.0
C717 C 0.52254 0.30725 0.00459 0.0
H718 H 0.50253 0.31514 0.03663 0.0
C719 C 0.50776 0.26409 0.00409 0.0
C720 C 0.49383 0.24004 0.0155 0.0
H721 H 0.53683 0.32582 0.99594 0.0
H722 H 0.51199 0.25077 0.99519 0.0
C723 C 0.48872 0.25832 0.02688 0.0
C724 C 0.72119 0.22973 0.02698 0.0
C725 C 0.73966 0.25263 0.01555 0.0
H726 H 0.66425 0.18717 0.03675 0.0
C727 C 0.71569 0.24224 0.00411 0.0
H728 H 0.7392 0.23688 0.03592 0.0
C729 C 0.67252 0.21395 0.0046 0.0
C730 C 0.65297 0.19571 0.01654 0.0
H731 H 0.72914 0.2594 0.99516 0.0
H732 H 0.65406 0.20938 0.9959 0.0
C733 C 0.67815 0.2015 0.02748 0.0
C734 C 0.77899 0.47373 0.02834 0.0
C735 C 0.78583 0.45597 0.01717 0.0
H736 H 0.74215 0.49726 0.0371 0.0
C737 C 0.768 0.45826 0.00527 0.0
H738 H 0.79292 0.47333 0.0376 0.0
C739 C 0.73912 0.47243 0.00496 0.0
C740 C 0.7277 0.48424 0.01657 0.0
H741 H 0.77339 0.44565 0.99641 0.0
H742 H 0.72238 0.46951 0.99599 0.0
C743 C 0.7501 0.48774 0.02804 0.0
C744 C 0.3424 0.79133 0.83842 0.0
C745 C 0.32266 0.79021 0.8503 0.0
H746 H 0.39893 0.80157 0.82915 0.0
C747 C 0.34763 0.80915 0.86133 0.0
H748 H 0.32411 0.77779 0.82967 0.0
C749 C 0.39052 0.82315 0.86096 0.0
C750 C 0.40904 0.81843 0.84958 0.0
H751 H 0.3336 0.8097 0.87055 0.0
H752 H 0.40828 0.83356 0.86995 0.0
C753 C 0.38543 0.80547 0.83806 0.0
C754 C 0.17685 0.57545 0.83824 0.0
C755 C 0.16428 0.5867 0.84973 0.0
H756 H 0.20418 0.54133 0.82996 0.0
C757 C 0.16007 0.56413 0.86122 0.0
H758 H 0.18033 0.59233 0.82925 0.0
C759 C 0.17412 0.53528 0.86169 0.0
C760 C 0.19258 0.52859 0.85067 0.0
H761 H 0.14997 0.57194 0.87019 0.0
H762 H 0.17394 0.52121 0.87098 0.0
C763 C 0.19101 0.54658 0.83871 0.0
C764 C 0.40621 0.59632 0.8382 0.0
C765 C 0.39552 0.57246 0.84967 0.0
H766 H 0.43959 0.65785 0.82995 0.0
C767 C 0.41847 0.59088 0.8611 0.0
H768 H 0.38903 0.5829 0.82926 0.0
C769 C 0.44704 0.63385 0.86158 0.0
C770 C 0.45309 0.659 0.8506 0.0
H771 H 0.41109 0.57293 0.87006 0.0
H772 H 0.46137 0.64776 0.87084 0.0
C773 C 0.43482 0.63943 0.83867 0.0
C774 C 0.45307 0.67727 0.99749 0.0
C775 C 0.45186 0.65763 0.98558 0.0
H776 H 0.46407 0.73396 0.00686 0.0
C777 C 0.47138 0.68273 0.97463 0.0
H778 H 0.43909 0.65888 0.0062 0.0
C779 C 0.48609 0.72577 0.97508 0.0
C780 C 0.48148 0.7443 0.98648 0.0
H781 H 0.47187 0.66875 0.96539 0.0
H782 H 0.49694 0.7437 0.96613 0.0
C783 C 0.46791 0.72045 0.99794 0.0
C784 C 0.26066 0.74407 0.99765 0.0
C785 C 0.237 0.73393 0.98615 0.0
H786 H 0.32209 0.77659 0.006 0.0
C787 C 0.25579 0.75702 0.97477 0.0
H788 H 0.24695 0.72676 0.00655 0.0
C789 C 0.29887 0.78517 0.97438 0.0
C790 C 0.32374 0.79066 0.98538 0.0
H791 H 0.23802 0.75005 0.96579 0.0
H792 H 0.31302 0.79963 0.96516 0.0
C793 C 0.30387 0.77226 0.99726 0.0
C794 C 0.20792 0.52809 0.9968 0.0
C795 C 0.19024 0.53014 0.98484 0.0
H796 H 0.25306 0.51653 0.00627 0.0
C797 C 0.19675 0.51164 0.97379 0.0
H798 H 0.20278 0.54127 0.00558 0.0
C799 C 0.22518 0.49708 0.97425 0.0
C800 C 0.2475 0.5008 0.98576 0.0
H801 H 0.18289 0.51182 0.96449 0.0
H802 H 0.23291 0.48697 0.96527 0.0
C803 C 0.23636 0.5134 0.99727 0.0
C804 C 0.26083 0.51314 0.49779 0.0
C805 C 0.23671 0.4994 0.48638 0.0
H806 H 0.32258 0.54201 0.5059 0.0
C807 C 0.25493 0.49454 0.47495 0.0
H808 H 0.24757 0.51716 0.50672 0.0
C809 C 0.29793 0.50919 0.4744 0.0
C810 C 0.3233 0.52888 0.48529 0.0
H811 H 0.23678 0.48354 0.46604 0.0
H812 H 0.31166 0.5085 0.46513 0.0
C813 C 0.30398 0.5279 0.49724 0.0
C814 C 0.46868 0.7443 0.49695 0.0
C815 C 0.48091 0.73313 0.48539 0.0
H816 H 0.44139 0.77819 0.50544 0.0
C817 C 0.48464 0.75568 0.47393 0.0
H818 H 0.46556 0.72743 0.50592 0.0
C819 C 0.47045 0.78442 0.47359 0.0
C820 C 0.45227 0.79098 0.48471 0.0
H821 H 0.49448 0.74792 0.4649 0.0
H822 H 0.47024 0.79846 0.46433 0.0
C823 C 0.45433 0.77304 0.49661 0.0
C824 C 0.22587 0.72592 0.47468 0.0
C825 C 0.24878 0.74467 0.48609 0.0
H826 H 0.18319 0.66875 0.46504 0.0
C827 C 0.2383 0.72102 0.4976 0.0
H828 H 0.23309 0.74369 0.4657 0.0
C829 C 0.20991 0.67785 0.49721 0.0
C830 C 0.19164 0.658 0.48531 0.0
H831 H 0.25545 0.7347 0.50653 0.0
H832 H 0.20528 0.65962 0.50597 0.0
C833 C 0.19751 0.68289 0.47428 0.0
C834 C 0.17321 0.63684 0.36171 0.0
C835 C 0.19165 0.66159 0.35061 0.0
H836 H 0.14874 0.57622 0.37037 0.0
C837 C 0.18963 0.64159 0.33871 0.0
H838 H 0.17339 0.65109 0.37097 0.0
C839 C 0.17502 0.59845 0.33835 0.0
C840 C 0.16252 0.57499 0.3499 0.0
H841 H 0.20276 0.65971 0.3299 0.0
H842 H 0.17817 0.58468 0.32939 0.0
C843 C 0.15877 0.59384 0.36135 0.0
C844 C 0.3448 0.53307 0.36089 0.0
C845 C 0.31948 0.52756 0.35 0.0
H846 H 0.40597 0.56828 0.36926 0.0
C847 C 0.33886 0.54592 0.33807 0.0
H848 H 0.33102 0.51863 0.37015 0.0
C849 C 0.38204 0.57415 0.33753 0.0
C850 C 0.40615 0.58437 0.34894 0.0
H851 H 0.32028 0.54155 0.32941 0.0
H852 H 0.39537 0.59146 0.3286 0.0
C853 C 0.38785 0.56126 0.36035 0.0
C854 C 0.40616 0.80522 0.33798 0.0
C855 C 0.39554 0.81817 0.34951 0.0
H856 H 0.43915 0.77687 0.32957 0.0
C857 C 0.41821 0.82197 0.36095 0.0
H858 H 0.38921 0.80204 0.32903 0.0
C859 C 0.44645 0.80715 0.36133 0.0
C860 C 0.45243 0.78834 0.35026 0.0
H861 H 0.41089 0.83235 0.36995 0.0
H862 H 0.46058 0.80706 0.37058 0.0
C863 C 0.43442 0.79029 0.33836 0.0
C864 C 0.10273 0.11161 0.25732 0.0
C865 C 0.12996 0.14977 0.26354 0.0
H866 H 0.08971 0.07308 0.24052 0.0
C867 C 0.16683 0.17899 0.25704 0.0
H868 H 0.07422 0.08815 0.26203 0.0
C869 C 0.17598 0.1701 0.24454 0.0
C870 C 0.14838 0.13185 0.23837 0.0
H871 H 0.18868 0.20848 0.26164 0.0
H872 H 0.20419 0.19333 0.23964 0.0
C873 C 0.11182 0.10278 0.24496 0.0
C874 C 0.87485 -0.00145 0.24424 0.0
C875 C 0.84705 0.00843 0.2379 0.0
H876 H 0.88829 0.97373 0.26111 0.0
C877 C 0.80966 -0.00024 0.24427 0.0
H878 H 0.9038 0.00444 0.23963 0.0
C879 C 0.80052 0.98165 0.25676 0.0
C880 C 0.82863 0.97193 0.26304 0.0
H881 H 0.78739 0.00659 0.23957 0.0
H882 H 0.77186 0.97581 0.26155 0.0
C883 C 0.86575 0.98053 0.25658 0.0
C884 C -0.00064 0.81613 0.25737 0.0
C885 C 0.00877 0.85394 0.26361 0.0
H886 H 0.97508 0.77802 0.24015 0.0
C887 C 0.0003 0.88241 0.25705 0.0
H888 H 0.0051 0.79335 0.26223 0.0
C889 C 0.98276 0.87346 0.24464 0.0
C890 C 0.97318 0.83579 0.23834 0.0
H891 H 0.00688 0.91173 0.26156 0.0
H892 H 0.97697 0.89647 0.23995 0.0
C893 C 0.98169 0.80712 0.24481 0.0
C894 C 0.87543 0.87133 0.74463 0.0
C895 C 0.84781 0.83349 0.73833 0.0
H896 H 0.88883 0.90965 0.76149 0.0
C897 C 0.81067 0.80453 0.74476 0.0
H898 H 0.90418 0.89457 0.73997 0.0
C899 C 0.80162 0.81341 0.75728 0.0
C900 C 0.82955 0.85141 0.76352 0.0
H901 H 0.78853 0.77529 0.74009 0.0
H902 H 0.77316 0.79042 0.76212 0.0
C903 C 0.86642 0.88017 0.757 0.0
C904 C 0.16826 0.98631 0.75699 0.0
C905 C 0.13136 0.97833 0.76353 0.0
H906 H 0.20525 0.00936 0.73952 0.0
C907 C 0.10368 0.98867 0.75734 0.0
H908 H 0.19044 0.97912 0.76157 0.0
C909 C 0.11236 0.00635 0.74495 0.0
C910 C 0.14896 0.01418 0.7383 0.0
H911 H 0.07512 0.98333 0.76209 0.0
H912 H 0.08991 0.01348 0.74052 0.0
C913 C 0.177 0.00411 0.74445 0.0
C914 C 0.97946 0.16959 0.74486 0.0
C915 C 0.97144 0.13254 0.7384 0.0
H916 H 0.00257 0.20696 0.76227 0.0
C917 C 0.98162 0.10489 0.74469 0.0
H918 H 0.97238 0.19175 0.74021 0.0
C919 C -0.00074 0.11378 0.75709 0.0
C920 C 0.00722 0.15059 0.76364 0.0
H921 H 0.97623 0.0762 0.74 0.0
H922 H 0.00631 0.09137 0.76159 0.0
C923 C -0.00278 0.17855 0.75741 0.0
C924 C 0.84206 0.50355 0.57816 0.0
C925 C 0.81351 0.46612 0.57177 0.0
H926 H 0.8558 0.5411 0.5955 0.0
C927 C 0.77613 0.43787 0.57816 0.0
H928 H 0.87093 0.52617 0.57342 0.0
C929 C 0.7673 0.4466 0.59057 0.0
C930 C 0.79559 0.48383 0.59704 0.0
H931 H 0.75325 0.40885 0.57354 0.0
H932 H 0.73818 0.42374 0.59514 0.0
C933 C 0.83316 0.51234 0.59071 0.0
C934 C 0.54447 0.33788 0.57816 0.0
C935 C 0.51583 0.34613 0.57161 0.0
H936 H 0.55869 0.31448 0.59521 0.0
C937 C 0.4779 0.3363 0.57784 0.0
H938 H 0.57389 0.34478 0.57367 0.0
C939 C 0.46893 0.31843 0.59037 0.0
C940 C 0.49775 0.3101 0.59682 0.0
H941 H 0.455 0.34188 0.57298 0.0
H942 H 0.43973 0.31149 0.59502 0.0
C943 C 0.53555 0.32011 0.59053 0.0
C944 C 0.64716 0.13924 0.57789 0.0
C945 C 0.63901 0.16823 0.57147 0.0
H946 H 0.6704 0.12502 0.59527 0.0
C947 C 0.64912 0.20602 0.57779 0.0
H948 H 0.64015 0.11005 0.57321 0.0
C949 C 0.66682 0.21477 0.59018 0.0
C950 C 0.6749 0.18597 0.59669 0.0
H951 H 0.64363 0.22928 0.57313 0.0
H952 H 0.67381 0.2442 0.59469 0.0
C953 C 0.66496 0.14804 0.59043 0.0
C954 C 0.54228 0.20762 0.07772 0.0
C955 C 0.51457 0.16972 0.07146 0.0
H956 H 0.55594 0.246 0.0946 0.0
C957 C 0.47754 0.14082 0.07795 0.0
H958 H 0.57095 0.23082 0.07302 0.0
C959 C 0.46866 0.14978 0.09048 0.0
C960 C 0.4967 0.18778 0.09669 0.0
H961 H 0.45532 0.11154 0.07331 0.0
H962 H 0.44028 0.1268 0.09536 0.0
C963 C 0.53348 0.21652 0.09012 0.0
C964 C 0.77536 0.33243 0.07756 0.0
C965 C 0.81315 0.34254 0.07125 0.0
H966 H 0.73691 0.30718 0.09438 0.0
C967 C 0.84186 0.33385 0.07761 0.0
H968 H 0.75231 0.33833 0.07296 0.0
C969 C 0.83278 0.31549 0.09007 0.0
C970 C 0.79485 0.30553 0.09632 0.0
H971 H 0.87104 0.34085 0.07293 0.0
H972 H 0.85559 0.30964 0.09486 0.0
C973 C 0.76633 0.31416 0.08987 0.0
C974 C 0.66239 0.51133 0.09051 0.0
C975 C 0.66987 0.48204 0.09703 0.0
H976 H 0.63946 0.52567 0.07309 0.0
C977 C 0.65866 0.44373 0.09086 0.0
H978 H 0.67025 0.54093 0.09507 0.0
C979 C 0.64068 0.43485 0.07851 0.0
C980 C 0.6334 0.46401 0.07188 0.0
H981 H 0.66358 0.42022 0.0956 0.0
H982 H 0.63291 0.40506 0.07409 0.0
C983 C 0.64428 0.50238 0.07801 0.0
C984 C 0.49997 0.84469 0.9243 0.0
C985 C 0.46233 0.81642 0.93063 0.0
H986 H 0.53781 0.85801 0.90704 0.0
C987 C 0.43398 0.77907 0.92423 0.0
H988 H 0.52265 0.87353 0.92904 0.0
C989 C 0.44284 0.77001 0.91186 0.0
C990 C 0.48029 0.79804 0.90546 0.0
H991 H 0.40481 0.75638 0.92881 0.0
H992 H 0.41991 0.74093 0.90728 0.0
C993 C 0.50889 0.83557 0.91179 0.0
C994 C 0.20261 0.65332 0.92399 0.0
C995 C 0.16486 0.64355 0.93026 0.0
H996 H 0.24114 0.67799 0.90715 0.0
C997 C 0.13631 0.65229 0.92381 0.0
H998 H 0.22554 0.64737 0.92865 0.0
C999 C 0.14551 0.67035 0.91131 0.0
C1000 C 0.1834 0.67995 0.9051 0.0
H1001 H 0.10715 0.64555 0.92846 0.0
H1002 H 0.12281 0.67625 0.90647 0.0
C1003 C 0.21176 0.67128 0.91163 0.0
C1004 C 0.31472 0.53913 0.91163 0.0
C1005 C 0.30435 0.50116 0.90537 0.0
H1006 H 0.33991 0.57767 0.92844 0.0
C1007 C 0.31254 0.47225 0.91183 0.0
H1008 H 0.3092 0.56233 0.90695 0.0
C1009 C 0.33066 0.4813 0.92432 0.0
C1010 C 0.34086 0.51939 0.93052 0.0
H1011 H 0.30534 0.44293 0.9072 0.0
H1012 H 0.33613 0.45833 0.92918 0.0
C1013 C 0.33273 0.54812 0.92397 0.0
C1014 C 0.13554 0.48178 0.42415 0.0
C1015 C 0.16454 0.51886 0.43061 0.0
H1016 H 0.1213 0.44442 0.40674 0.0
C1017 C 0.20233 0.54656 0.4243 0.0
H1018 H 0.10635 0.45958 0.42882 0.0
C1019 C 0.21105 0.53768 0.41189 0.0
C1020 C 0.18225 0.50086 0.40535 0.0
H1021 H 0.22559 0.57526 0.42898 0.0
H1022 H 0.24048 0.56013 0.40738 0.0
C1023 C 0.14433 0.47284 0.4116 0.0
C1024 C 0.44092 0.6652 0.41106 0.0
C1025 C 0.4787 0.67522 0.40476 0.0
H1026 H 0.40266 0.64053 0.42795 0.0
C1027 C 0.50755 0.6669 0.41119 0.0
H1028 H 0.41776 0.67082 0.4064 0.0
C1029 C 0.49864 0.64902 0.42372 0.0
C1030 C 0.46074 0.6392 0.42997 0.0
H1031 H 0.53673 0.67384 0.40653 0.0
H1032 H 0.52157 0.64346 0.42856 0.0
C1033 C 0.43207 0.64744 0.42345 0.0
C1034 C 0.33114 0.84725 0.424 0.0
C1035 C 0.33994 0.81857 0.43034 0.0
H1036 H 0.30719 0.86113 0.40672 0.0
C1037 C 0.33043 0.78108 0.42394 0.0
H1038 H 0.33769 0.87621 0.42875 0.0
C1039 C 0.3126 0.77226 0.41157 0.0
C1040 C 0.30378 0.80069 0.40515 0.0
H1041 H 0.33647 0.75808 0.42852 0.0
H1042 H 0.30605 0.74304 0.407 0.0
C1043 C 0.31321 0.83838 0.41148 0.0
C1044 C 0.30939 0.16154 0.18016 0.0
C1045 C 0.28382 0.15825 0.16955 0.0
H1046 H 0.3668 0.16597 0.18651 0.0
C1047 C 0.29731 0.15656 0.15686 0.0
H1048 H 0.29965 0.16238 0.19006 0.0
C1049 C 0.33554 0.15803 0.15483 0.0
C1050 C 0.36108 0.16125 0.16544 0.0
H1051 H 0.27811 0.15356 0.14848 0.0
H1052 H 0.34527 0.15716 0.14493 0.0
C1053 C 0.34761 0.16299 0.17813 0.0
C1054 C 0.81928 0.14237 0.17964 0.0
C1055 C 0.82337 0.12059 0.16902 0.0
H1056 H 0.81407 0.1949 0.18603 0.0
C1057 C 0.82581 0.13626 0.15637 0.0
H1058 H 0.81786 0.13142 0.18952 0.0
C1059 C 0.82421 0.17299 0.15438 0.0
C1060 C 0.82014 0.19478 0.165 0.0
H1061 H 0.82945 0.12046 0.14799 0.0
H1062 H 0.82564 0.18395 0.1445 0.0
C1063 C 0.8177 0.17911 0.17765 0.0
C1064 C 0.83931 0.67179 0.18036 0.0
C1065 C 0.86098 0.69751 0.16971 0.0
H1066 H 0.7867 0.61426 0.18684 0.0
C1067 C 0.84502 0.6842 0.15708 0.0
H1068 H 0.8505 0.68139 0.19022 0.0
C1069 C 0.80812 0.646 0.15515 0.0
C1070 C 0.78643 0.6203 0.16581 0.0
H1071 H 0.86072 0.70351 0.14867 0.0
H1072 H 0.79692 0.63642 0.14529 0.0
C1073 C 0.80242 0.63358 0.17843 0.0
C1074 C 0.15738 0.35153 0.32393 0.0
C1075 C 0.15502 0.36478 0.33659 0.0
H1076 H 0.15733 0.30378 0.31203 0.0
C1077 C 0.15107 0.33893 0.3472 0.0
H1078 H 0.16091 0.37095 0.31555 0.0
C1079 C 0.14958 0.30066 0.34518 0.0
C1080 C 0.15201 0.28747 0.33252 0.0
H1081 H 0.1497 0.34847 0.35709 0.0
H1082 H 0.14607 0.28125 0.35355 0.0
C1083 C 0.15592 0.31329 0.32192 0.0
C1084 C 0.62882 0.80352 0.32315 0.0
C1085 C 0.61555 0.78795 0.33582 0.0
H1086 H 0.67666 0.85114 0.31126 0.0
C1087 C 0.64135 0.80989 0.34643 0.0
H1088 H 0.60944 0.7876 0.31478 0.0
C1089 C 0.67961 0.84666 0.34442 0.0
C1090 C 0.69289 0.8622 0.33176 0.0
H1091 H 0.63178 0.79903 0.35631 0.0
H1092 H 0.69898 0.86257 0.3528 0.0
C1093 C 0.66709 0.84027 0.32115 0.0
C1094 C 0.13402 0.83067 0.34499 0.0
C1095 C 0.11846 0.82849 0.33233 0.0
H1096 H 0.18166 0.83042 0.35685 0.0
C1097 C 0.14046 0.82485 0.3217 0.0
H1098 H 0.11806 0.83398 0.35338 0.0
C1099 C 0.17725 0.82338 0.32368 0.0
C1100 C 0.19278 0.82552 0.33634 0.0
H1101 H 0.12959 0.82364 0.31182 0.0
H1102 H 0.19319 0.82005 0.31529 0.0
C1103 C 0.17081 0.82923 0.34697 0.0
C1104 C 0.6689 0.82134 0.82187 0.0
C1105 C 0.69477 0.82521 0.83246 0.0
H1106 H 0.61125 0.81644 0.81555 0.0
C1107 C 0.68153 0.82739 0.84514 0.0
H1108 H 0.67843 0.82011 0.81197 0.0
C1109 C 0.64328 0.82588 0.84718 0.0
C1110 C 0.61747 0.82212 0.83659 0.0
H1111 H 0.70096 0.83084 0.8535 0.0
H1112 H 0.63376 0.82716 0.85708 0.0
C1113 C 0.63065 0.81983 0.82392 0.0
C1114 C 0.1615 0.8062 0.82371 0.0
C1115 C 0.15904 0.79047 0.83635 0.0
H1116 H 0.16142 0.85398 0.81186 0.0
C1117 C 0.15503 0.81226 0.84698 0.0
H1118 H 0.16508 0.7904 0.81531 0.0
C1119 C 0.1535 0.84903 0.84501 0.0
C1120 C 0.15595 0.86475 0.83236 0.0
H1121 H 0.15359 0.80125 0.85686 0.0
H1122 H 0.1499 0.86482 0.8534 0.0
C1123 C 0.15999 0.84297 0.82173 0.0
C1124 C 0.17552 0.35057 0.82388 0.0
C1125 C 0.19105 0.36386 0.83654 0.0
H1126 H 0.1279 0.30273 0.81198 0.0
C1127 C 0.169 0.33816 0.84716 0.0
H1128 H 0.19153 0.36988 0.8155 0.0
C1129 C 0.13219 0.29994 0.84515 0.0
C1130 C 0.1167 0.28661 0.83248 0.0
H1131 H 0.17984 0.34775 0.85705 0.0
H1132 H 0.11621 0.28061 0.85353 0.0
C1133 C 0.13872 0.31234 0.82187 0.0
C1134 C 0.82478 0.64569 0.65505 0.0
C1135 C 0.82096 0.62007 0.66571 0.0
H1136 H 0.82968 0.70322 0.64859 0.0
C1137 C 0.81866 0.63352 0.67834 0.0
H1138 H 0.8261 0.63598 0.64518 0.0
C1139 C 0.82011 0.67179 0.68029 0.0
C1140 C 0.82393 0.69742 0.66963 0.0
H1141 H 0.81522 0.61427 0.68675 0.0
H1142 H 0.81879 0.68149 0.69016 0.0
C1143 C 0.82624 0.68397 0.657 0.0
C1144 C 0.34725 0.1815 0.67828 0.0
C1145 C 0.36063 0.1971 0.66563 0.0
H1146 H 0.29931 0.13383 0.69013 0.0
C1147 C 0.33492 0.17521 0.65499 0.0
H1148 H 0.36656 0.19739 0.68667 0.0
C1149 C 0.29665 0.13844 0.65697 0.0
C1150 C 0.28327 0.12284 0.66962 0.0
H1151 H 0.34458 0.18611 0.64511 0.0
H1152 H 0.27735 0.12255 0.64857 0.0
C1153 C 0.30897 0.14474 0.68025 0.0
C1154 C 0.80546 0.15562 0.65489 0.0
C1155 C 0.78345 0.15936 0.6655 0.0
H1156 H 0.85826 0.15089 0.64851 0.0
C1157 C 0.79894 0.16154 0.67816 0.0
H1158 H 0.79463 0.15438 0.645 0.0
C1159 C 0.83575 0.16014 0.68017 0.0
C1160 C 0.8578 0.15648 0.66955 0.0
H1161 H 0.78297 0.1649 0.68655 0.0
H1162 H 0.8466 0.16141 0.69006 0.0
C1163 C 0.84226 0.15421 0.65689 0.0
C1164 C 0.00233 0.49107 0.48865 0.0
C1165 C 0.02785 0.49472 0.49932 0.0
H1166 H 0.94496 0.48642 0.48216 0.0
C1167 C 0.01434 0.49698 0.51195 0.0
H1168 H 0.01209 0.4898 0.47879 0.0
C1169 C 0.97612 0.49562 0.51388 0.0
C1170 C 0.9506 0.49196 0.50321 0.0
H1171 H 0.03351 0.50028 0.52037 0.0
H1172 H 0.96636 0.49688 0.52374 0.0
C1173 C 0.96412 0.48973 0.49058 0.0
C1174 C 0.48706 0.47791 0.51335 0.0
C1175 C 0.49056 0.45574 0.50274 0.0
H1176 H 0.48238 0.53077 0.51971 0.0
C1177 C 0.49247 0.47105 0.49006 0.0
H1178 H 0.48606 0.46724 0.52325 0.0
C1179 C 0.49094 0.5078 0.48804 0.0
C1180 C 0.48746 0.52998 0.49866 0.0
H1181 H 0.49565 0.45495 0.48168 0.0
H1182 H 0.49195 0.51848 0.47815 0.0
C1183 C 0.48555 0.51466 0.51133 0.0
C1184 C 0.50502 0.00618 0.5135 0.0
C1185 C 0.52664 0.03185 0.50283 0.0
H1186 H 0.45252 0.94863 0.52 0.0
C1187 C 0.51069 0.01845 0.49022 0.0
H1188 H 0.51619 0.01585 0.52336 0.0
C1189 C 0.47386 0.98018 0.4883 0.0
C1190 C 0.45224 0.9545 0.49897 0.0
H1191 H 0.52636 0.03773 0.4818 0.0
H1192 H 0.46268 0.9705 0.47844 0.0
C1193 C 0.46818 0.96791 0.51159 0.0
C1194 C 0.48624 0.00579 0.01367 0.0
C1195 C 0.48986 0.0312 0.00298 0.0
H1196 H 0.48165 0.94847 0.02022 0.0
C1197 C 0.49218 0.01761 0.99036 0.0
H1198 H 0.48492 0.01561 0.02352 0.0
C1199 C 0.4909 0.9794 0.98848 0.0
C1200 C 0.48724 0.95396 0.99917 0.0
H1201 H 0.49547 0.0367 0.98192 0.0
H1202 H 0.4922 0.96957 0.97862 0.0
C1203 C 0.48496 0.96757 0.01178 0.0
C1204 C 0.97515 0.47766 0.01329 0.0
C1205 C 0.94943 0.45612 0.00262 0.0
H1206 H 0.03274 0.53008 0.01981 0.0
C1207 C 0.96281 0.47214 0.99001 0.0
H1208 H 0.9655 0.46643 0.02315 0.0
C1209 C 0.00111 0.50896 0.98811 0.0
C1210 C 0.02682 0.5305 0.99878 0.0
H1211 H 0.94349 0.45654 0.98159 0.0
H1212 H 0.01076 0.52019 0.97825 0.0
C1213 C 0.01343 0.51448 0.01139 0.0
C1214 C 0.47241 0.49029 0.9886 0.0
C1215 C 0.45015 0.49353 0.99923 0.0
H1216 H 0.5254 0.48593 0.98221 0.0
C1217 C 0.46542 0.49528 0.0119 0.0
H1218 H 0.46177 0.48942 0.97871 0.0
C1219 C 0.50222 0.49387 0.0139 0.0
C1220 C 0.5245 0.49066 0.00327 0.0
H1221 H 0.44924 0.49825 0.02029 0.0
H1222 H 0.51287 0.49475 0.0238 0.0
C1223 C 0.50922 0.4889 0.9906 0.0
loop_
_geom_bond_atom_site_label_1
_geom_bond_atom_site_label_2
_geom_bond_distance
_geom_bond_site_symmetry_2
_ccdc_geom_bond_type
O0 Cd1 2.223 . S
O0 C8 1.315 . S
Cd1 O0 2.223 . S
Cd1 O4 2.297 . S
Cd1 O5 2.439 . S
Cd1 O11 2.240 . S
Cd2 O3 2.240 . S
Cd2 O10 2.223 . S
Cd2 O12 2.297 . S
Cd2 O13 2.439 . S
O3 Cd2 2.240 . S
O3 C8 1.279 . S
O4 Cd1 2.297 . S
O4 C6 1.247 . S
O5 Cd1 2.439 . S
O5 C6 1.208 . S
C6 O4 1.247 . S
C6 O5 1.208 . S
C7 O12 1.247 . S
C7 O13 1.208 . S
C8 O0 1.315 . S
C8 O3 1.279 . S
C9 O10 1.315 . S
C9 O11 1.279 . S
O10 Cd2 2.223 . S
O10 C9 1.315 . S
O11 Cd1 2.240 . S
O11 C9 1.279 . S
O12 Cd2 2.297 . S
O12 C7 1.247 . S
O13 Cd2 2.439 . S
O13 C7 1.208 . S
O14 Cd15 2.223 . S
O14 C22 1.315 . S
Cd15 O14 2.223 . S
Cd15 O18 2.297 . S
Cd15 O19 2.439 . S
Cd15 O25 2.240 1_545 S
Cd16 O17 2.240 . S
Cd16 O24 2.223 1_545 S
Cd16 O26 2.297 1_545 S
Cd16 O27 2.439 . S
O17 Cd16 2.240 . S
O17 C22 1.279 . S
O18 Cd15 2.297 . S
O18 C20 1.247 . S
O19 Cd15 2.439 . S
O19 C20 1.208 . S
C20 O18 1.247 . S
C20 O19 1.208 . S
C21 O26 1.247 . S
C21 O27 1.208 1_565 S
C22 O14 1.315 . S
C22 O17 1.279 . S
C23 O24 1.315 . S
C23 O25 1.279 . S
O24 Cd16 2.223 1_565 S
O24 C23 1.315 . S
O25 Cd15 2.240 1_565 S
O25 C23 1.279 . S
O26 Cd16 2.297 1_565 S
O26 C21 1.247 . S
O27 Cd16 2.439 . S
O27 C21 1.208 1_545 S
O28 Cd29 2.223 . S
O28 C36 1.315 . S
Cd29 O28 2.223 . S
Cd29 O32 2.297 . S
Cd29 O33 2.439 . S
Cd29 O39 2.240 1_655 S
Cd30 O31 2.240 . S
Cd30 O38 2.223 1_655 S
Cd30 O40 2.297 1_655 S
Cd30 O41 2.439 . S
O31 Cd30 2.240 . S
O31 C36 1.279 . S
O32 Cd29 2.297 . S
O32 C34 1.247 . S
O33 Cd29 2.439 . S
O33 C34 1.208 . S
C34 O32 1.247 . S
C34 O33 1.208 . S
C35 O40 1.247 . S
C35 O41 1.208 1_455 S
C36 O28 1.315 . S
C36 O31 1.279 . S
C37 O38 1.315 . S
C37 O39 1.279 . S
O38 Cd30 2.223 1_455 S
O38 C37 1.315 . S
O39 Cd29 2.240 1_455 S
O39 C37 1.279 . S
O40 Cd30 2.297 1_455 S
O40 C35 1.247 . S
O41 Cd30 2.439 . S
O41 C35 1.208 1_655 S
O42 Cd43 2.223 . S
O42 C50 1.315 . S
Cd43 O42 2.223 . S
Cd43 O46 2.297 . S
Cd43 O47 2.439 . S
Cd43 O53 2.240 . S
Cd44 O45 2.240 . S
Cd44 O52 2.223 . S
Cd44 O54 2.297 . S
Cd44 O55 2.439 . S
O45 Cd44 2.240 . S
O45 C50 1.279 . S
O46 Cd43 2.297 . S
O46 C48 1.247 . S
O47 Cd43 2.439 . S
O47 C48 1.208 . S
C48 O46 1.247 . S
C48 O47 1.208 . S
C49 O54 1.247 . S
C49 O55 1.208 . S
C50 O42 1.315 . S
C50 O45 1.279 . S
C51 O52 1.315 . S
C51 O53 1.279 . S
O52 Cd44 2.223 . S
O52 C51 1.315 . S
O53 Cd43 2.240 . S
O53 C51 1.279 . S
O54 Cd44 2.297 . S
O54 C49 1.247 . S
O55 Cd44 2.439 . S
O55 C49 1.208 . S
O56 Cd57 2.223 . S
O56 C64 1.315 . S
Cd57 O56 2.223 . S
Cd57 O60 2.297 . S
Cd57 O61 2.439 . S
Cd57 O67 2.240 1_565 S
Cd58 O59 2.240 . S
Cd58 O66 2.223 1_565 S
Cd58 O68 2.297 1_565 S
Cd58 O69 2.439 . S
O59 Cd58 2.240 . S
O59 C64 1.279 . S
O60 Cd57 2.297 . S
O60 C62 1.247 . S
O61 Cd57 2.439 . S
O61 C62 1.208 . S
C62 O60 1.247 . S
C62 O61 1.208 . S
C63 O68 1.247 . S
C63 O69 1.208 1_545 S
C64 O56 1.315 . S
C64 O59 1.279 . S
C65 O66 1.315 . S
C65 O67 1.279 . S
O66 Cd58 2.223 1_545 S
O66 C65 1.315 . S
O67 Cd57 2.240 1_545 S
O67 C65 1.279 . S
O68 Cd58 2.297 1_545 S
O68 C63 1.247 . S
O69 Cd58 2.439 . S
O69 C63 1.208 1_565 S
O70 Cd71 2.223 . S
O70 C78 1.315 . S
Cd71 O70 2.223 . S
Cd71 O74 2.297 . S
Cd71 O75 2.439 . S
Cd71 O81 2.240 1_455 S
Cd72 O73 2.240 . S
Cd72 O80 2.223 1_455 S
Cd72 O82 2.297 1_455 S
Cd72 O83 2.439 . S
O73 Cd72 2.240 . S
O73 C78 1.279 . S
O74 Cd71 2.297 . S
O74 C76 1.247 . S
O75 Cd71 2.439 . S
O75 C76 1.208 . S
C76 O74 1.247 . S
C76 O75 1.208 . S
C77 O82 1.247 . S
C77 O83 1.208 1_655 S
C78 O70 1.315 . S
C78 O73 1.279 . S
C79 O80 1.315 . S
C79 O81 1.279 . S
O80 Cd72 2.223 1_655 S
O80 C79 1.315 . S
O81 Cd71 2.240 1_655 S
O81 C79 1.279 . S
O82 Cd72 2.297 1_655 S
O82 C77 1.247 . S
O83 Cd72 2.439 . S
O83 C77 1.208 1_455 S
O84 Cd85 2.223 . S
O84 C92 1.315 . S
Cd85 O84 2.223 . S
Cd85 O88 2.297 . S
Cd85 O89 2.439 . S
Cd85 O95 2.240 . S
Cd86 O87 2.240 . S
Cd86 O94 2.223 . S
Cd86 O96 2.297 . S
Cd86 O97 2.439 . S
O87 Cd86 2.240 . S
O87 C92 1.279 . S
O88 Cd85 2.297 . S
O88 C90 1.247 . S
O89 Cd85 2.439 . S
O89 C90 1.208 . S
C90 O88 1.247 . S
C90 O89 1.208 . S
C91 O96 1.247 . S
C91 O97 1.208 . S
C92 O84 1.315 . S
C92 O87 1.279 . S
C93 O94 1.315 . S
C93 O95 1.279 . S
O94 Cd86 2.223 . S
O94 C93 1.315 . S
O95 Cd85 2.240 . S
O95 C93 1.279 . S
O96 Cd86 2.297 . S
O96 C91 1.247 . S
O97 Cd86 2.439 . S
O97 C91 1.208 . S
O98 Cd99 2.223 . S
O98 C106 1.315 . S
Cd99 O98 2.223 . S
Cd99 O102 2.297 . S
Cd99 O103 2.439 . S
Cd99 O109 2.240 1_565 S
Cd100 O101 2.240 . S
Cd100 O108 2.223 1_565 S
Cd100 O110 2.297 1_565 S
Cd100 O111 2.439 . S
O101 Cd100 2.240 . S
O101 C106 1.279 . S
O102 Cd99 2.297 . S
O102 C104 1.247 . S
O103 Cd99 2.439 . S
O103 C104 1.208 . S
C104 O102 1.247 . S
C104 O103 1.208 . S
C105 O110 1.247 . S
C105 O111 1.208 1_545 S
C106 O98 1.315 . S
C106 O101 1.279 . S
C107 O108 1.315 . S
C107 O109 1.279 . S
O108 Cd100 2.223 1_545 S
O108 C107 1.315 . S
O109 Cd99 2.240 1_545 S
O109 C107 1.279 . S
O110 Cd100 2.297 1_545 S
O110 C105 1.247 . S
O111 Cd100 2.439 . S
O111 C105 1.208 1_565 S
O112 Cd113 2.223 . S
O112 C120 1.315 . S
Cd113 O112 2.223 . S
Cd113 O116 2.297 . S
Cd113 O117 2.439 . S
Cd113 O123 2.240 1_455 S
Cd114 O115 2.240 . S
Cd114 O122 2.223 1_455 S
Cd114 O124 2.297 1_455 S
Cd114 O125 2.439 . S
O115 Cd114 2.240 . S
O115 C120 1.279 . S
O116 Cd113 2.297 . S
O116 C118 1.247 . S
O117 Cd113 2.439 . S
O117 C118 1.208 . S
C118 O116 1.247 . S
C118 O117 1.208 . S
C119 O124 1.247 . S
C119 O125 1.208 1_655 S
C120 O112 1.315 . S
C120 O115 1.279 . S
C121 O122 1.315 . S
C121 O123 1.279 . S
O122 Cd114 2.223 1_655 S
O122 C121 1.315 . S
O123 Cd113 2.240 1_655 S
O123 C121 1.279 . S
O124 Cd114 2.297 1_655 S
O124 C119 1.247 . S
O125 Cd114 2.439 . S
O125 C119 1.208 1_455 S
O126 Cd127 2.223 . S
O126 C134 1.315 . S
Cd127 O126 2.223 . S
Cd127 O130 2.297 . S
Cd127 O131 2.439 . S
Cd127 O137 2.240 . S
Cd128 O129 2.240 . S
Cd128 O136 2.223 . S
Cd128 O138 2.297 . S
Cd128 O139 2.439 . S
O129 Cd128 2.240 . S
O129 C134 1.279 . S
O130 Cd127 2.297 . S
O130 C132 1.247 . S
O131 Cd127 2.439 . S
O131 C132 1.208 . S
C132 O130 1.247 . S
C132 O131 1.208 . S
C133 O138 1.247 . S
C133 O139 1.208 . S
C134 O126 1.315 . S
C134 O129 1.279 . S
C135 O136 1.315 . S
C135 O137 1.279 . S
O136 Cd128 2.223 . S
O136 C135 1.315 . S
O137 Cd127 2.240 . S
O137 C135 1.279 . S
O138 Cd128 2.297 . S
O138 C133 1.247 . S
O139 Cd128 2.439 . S
O139 C133 1.208 . S
O140 Cd141 2.223 . S
O140 C148 1.315 . S
Cd141 O140 2.223 . S
Cd141 O144 2.297 . S
Cd141 O145 2.439 . S
Cd141 O151 2.240 1_545 S
Cd142 O143 2.240 . S
Cd142 O150 2.223 1_545 S
Cd142 O152 2.297 1_545 S
Cd142 O153 2.439 . S
O143 Cd142 2.240 . S
O143 C148 1.279 . S
O144 Cd141 2.297 . S
O144 C146 1.247 . S
O145 Cd141 2.439 . S
O145 C146 1.208 . S
C146 O144 1.247 . S
C146 O145 1.208 . S
C147 O152 1.247 . S
C147 O153 1.208 1_565 S
C148 O140 1.315 . S
C148 O143 1.279 . S
C149 O150 1.315 . S
C149 O151 1.279 . S
O150 Cd142 2.223 1_565 S
O150 C149 1.315 . S
O151 Cd141 2.240 1_565 S
O151 C149 1.279 . S
O152 Cd142 2.297 1_565 S
O152 C147 1.247 . S
O153 Cd142 2.439 . S
O153 C147 1.208 1_545 S
O154 Cd155 2.223 . S
O154 C162 1.315 . S
Cd155 O154 2.223 . S
Cd155 O158 2.297 . S
Cd155 O159 2.439 . S
Cd155 O165 2.240 1_655 S
Cd156 O157 2.240 . S
Cd156 O164 2.223 1_655 S
Cd156 O166 2.297 1_655 S
Cd156 O167 2.439 . S
O157 Cd156 2.240 . S
O157 C162 1.279 . S
O158 Cd155 2.297 . S
O158 C160 1.247 . S
O159 Cd155 2.439 . S
O159 C160 1.208 . S
C160 O158 1.247 . S
C160 O159 1.208 . S
C161 O166 1.247 . S
C161 O167 1.208 1_455 S
C162 O154 1.315 . S
C162 O157 1.279 . S
C163 O164 1.315 . S
C163 O165 1.279 . S
O164 Cd156 2.223 1_455 S
O164 C163 1.315 . S
O165 Cd155 2.240 1_455 S
O165 C163 1.279 . S
O166 Cd156 2.297 1_455 S
O166 C161 1.247 . S
O167 Cd156 2.439 . S
O167 C161 1.208 1_655 S
O168 Cd169 2.223 . S
O168 C176 1.315 . S
Cd169 O168 2.223 . S
Cd169 O172 2.297 . S
Cd169 O173 2.439 . S
Cd169 O179 2.240 . S
Cd170 O171 2.240 . S
Cd170 O178 2.223 . S
Cd170 O180 2.297 . S
Cd170 O181 2.439 . S
O171 Cd170 2.240 . S
O171 C176 1.279 . S
O172 Cd169 2.297 . S
O172 C174 1.247 . S
O173 Cd169 2.439 . S
O173 C174 1.208 . S
C174 O172 1.247 . S
C174 O173 1.208 . S
C175 O180 1.247 . S
C175 O181 1.208 . S
C176 O168 1.315 . S
C176 O171 1.279 . S
C177 O178 1.315 . S
C177 O179 1.279 . S
O178 Cd170 2.223 . S
O178 C177 1.315 . S
O179 Cd169 2.240 . S
O179 C177 1.279 . S
O180 Cd170 2.297 . S
O180 C175 1.247 . S
O181 Cd170 2.439 . S
O181 C175 1.208 . S
O182 Cd183 2.223 . S
O182 C190 1.315 . S
Cd183 O182 2.223 . S
Cd183 O186 2.297 . S
Cd183 O187 2.439 . S
Cd183 O193 2.240 . S
Cd184 O185 2.240 . S
Cd184 O192 2.223 . S
Cd184 O194 2.297 . S
Cd184 O195 2.439 . S
O185 Cd184 2.240 . S
O185 C190 1.279 . S
O186 Cd183 2.297 . S
O186 C188 1.247 . S
O187 Cd183 2.439 . S
O187 C188 1.208 . S
C188 O186 1.247 . S
C188 O187 1.208 . S
C189 O194 1.247 . S
C189 O195 1.208 . S
C190 O182 1.315 . S
C190 O185 1.279 . S
C191 O192 1.315 . S
C191 O193 1.279 . S
O192 Cd184 2.223 . S
O192 C191 1.315 . S
O193 Cd183 2.240 . S
O193 C191 1.279 . S
O194 Cd184 2.297 . S
O194 C189 1.247 . S
O195 Cd184 2.439 . S
O195 C189 1.208 . S
O196 Cd197 2.223 . S
O196 C204 1.315 . S
Cd197 O196 2.223 . S
Cd197 O200 2.297 . S
Cd197 O201 2.439 . S
Cd197 O207 2.240 . S
Cd198 O199 2.240 . S
Cd198 O206 2.223 . S
Cd198 O208 2.297 . S
Cd198 O209 2.439 . S
O199 Cd198 2.240 . S
O199 C204 1.279 . S
O200 Cd197 2.297 . S
O200 C202 1.247 . S
O201 Cd197 2.439 . S
O201 C202 1.208 . S
C202 O200 1.247 . S
C202 O201 1.208 . S
C203 O208 1.247 . S
C203 O209 1.208 . S
C204 O196 1.315 . S
C204 O199 1.279 . S
C205 O206 1.315 . S
C205 O207 1.279 . S
O206 Cd198 2.223 . S
O206 C205 1.315 . S
O207 Cd197 2.240 . S
O207 C205 1.279 . S
O208 Cd198 2.297 . S
O208 C203 1.247 . S
O209 Cd198 2.439 . S
O209 C203 1.208 . S
O210 Cd211 2.223 . S
O210 C218 1.315 . S
Cd211 O210 2.223 . S
Cd211 O214 2.297 . S
Cd211 O215 2.439 . S
Cd211 O221 2.240 . S
Cd212 O213 2.240 . S
Cd212 O220 2.223 . S
Cd212 O222 2.297 . S
Cd212 O223 2.439 . S
O213 Cd212 2.240 . S
O213 C218 1.279 . S
O214 Cd211 2.297 . S
O214 C216 1.247 . S
O215 Cd211 2.439 . S
O215 C216 1.208 . S
C216 O214 1.247 . S
C216 O215 1.208 . S
C217 O222 1.247 . S
C217 O223 1.208 . S
C218 O210 1.315 . S
C218 O213 1.279 . S
C219 O220 1.315 . S
C219 O221 1.279 . S
O220 Cd212 2.223 . S
O220 C219 1.315 . S
O221 Cd211 2.240 . S
O221 C219 1.279 . S
O222 Cd212 2.297 . S
O222 C217 1.247 . S
O223 Cd212 2.439 . S
O223 C217 1.208 . S
O224 Cd225 2.223 . S
O224 C232 1.315 . S
Cd225 O224 2.223 . S
Cd225 O228 2.297 . S
Cd225 O229 2.439 . S
Cd225 O235 2.240 . S
Cd226 O227 2.240 . S
Cd226 O234 2.223 . S
Cd226 O236 2.297 . S
Cd226 O237 2.439 . S
O227 Cd226 2.240 . S
O227 C232 1.279 . S
O228 Cd225 2.297 . S
O228 C230 1.247 . S
O229 Cd225 2.439 . S
O229 C230 1.208 . S
C230 O228 1.247 . S
C230 O229 1.208 . S
C231 O236 1.247 . S
C231 O237 1.208 . S
C232 O224 1.315 . S
C232 O227 1.279 . S
C233 O234 1.315 . S
C233 O235 1.279 . S
O234 Cd226 2.223 . S
O234 C233 1.315 . S
O235 Cd225 2.240 . S
O235 C233 1.279 . S
O236 Cd226 2.297 . S
O236 C231 1.247 . S
O237 Cd226 2.439 . S
O237 C231 1.208 . S
O238 Cd239 2.223 . S
O238 C246 1.315 . S
Cd239 O238 2.223 . S
Cd239 O242 2.297 . S
Cd239 O243 2.439 . S
Cd239 O249 2.240 . S
Cd240 O241 2.240 . S
Cd240 O248 2.223 . S
Cd240 O250 2.297 . S
Cd240 O251 2.439 . S
O241 Cd240 2.240 . S
O241 C246 1.279 . S
O242 Cd239 2.297 . S
O242 C244 1.247 . S
O243 Cd239 2.439 . S
O243 C244 1.208 . S
C244 O242 1.247 . S
C244 O243 1.208 . S
C245 O250 1.247 . S
C245 O251 1.208 . S
C246 O238 1.315 . S
C246 O241 1.279 . S
C247 O248 1.315 . S
C247 O249 1.279 . S
O248 Cd240 2.223 . S
O248 C247 1.315 . S
O249 Cd239 2.240 . S
O249 C247 1.279 . S
O250 Cd240 2.297 . S
O250 C245 1.247 . S
O251 Cd240 2.439 . S
O251 C245 1.208 . S
O252 Cd253 2.223 . S
O252 C260 1.315 . S
Cd253 O252 2.223 . S
Cd253 O256 2.297 . S
Cd253 O257 2.439 . S
Cd253 O263 2.240 . S
Cd254 O255 2.240 . S
Cd254 O262 2.223 . S
Cd254 O264 2.297 . S
Cd254 O265 2.439 . S
O255 Cd254 2.240 . S
O255 C260 1.279 . S
O256 Cd253 2.297 . S
O256 C258 1.247 . S
O257 Cd253 2.439 . S
O257 C258 1.208 . S
C258 O256 1.247 . S
C258 O257 1.208 . S
C259 O264 1.247 . S
C259 O265 1.208 . S
C260 O252 1.315 . S
C260 O255 1.279 . S
C261 O262 1.315 . S
C261 O263 1.279 . S
O262 Cd254 2.223 . S
O262 C261 1.315 . S
O263 Cd253 2.240 . S
O263 C261 1.279 . S
O264 Cd254 2.297 . S
O264 C259 1.247 . S
O265 Cd254 2.439 . S
O265 C259 1.208 . S
O266 Cd267 2.223 . S
O266 C274 1.315 . S
Cd267 O266 2.223 . S
Cd267 O270 2.297 . S
Cd267 O271 2.439 . S
Cd267 O277 2.240 . S
Cd268 O269 2.240 . S
Cd268 O276 2.223 . S
Cd268 O278 2.297 . S
Cd268 O279 2.439 . S
O269 Cd268 2.240 . S
O269 C274 1.279 . S
O270 Cd267 2.297 . S
O270 C272 1.247 . S
O271 Cd267 2.439 . S
O271 C272 1.208 . S
C272 O270 1.247 . S
C272 O271 1.208 . S
C273 O278 1.247 . S
C273 O279 1.208 . S
C274 O266 1.315 . S
C274 O269 1.279 . S
C275 O276 1.315 . S
C275 O277 1.279 . S
O276 Cd268 2.223 . S
O276 C275 1.315 . S
O277 Cd267 2.240 . S
O277 C275 1.279 . S
O278 Cd268 2.297 . S
O278 C273 1.247 . S
O279 Cd268 2.439 . S
O279 C273 1.208 . S
O280 Cd281 2.223 . S
O280 C288 1.315 . S
Cd281 O280 2.223 . S
Cd281 O284 2.297 . S
Cd281 O285 2.439 . S
Cd281 O291 2.240 . S
Cd282 O283 2.240 . S
Cd282 O290 2.223 . S
Cd282 O292 2.297 . S
Cd282 O293 2.439 . S
O283 Cd282 2.240 . S
O283 C288 1.279 . S
O284 Cd281 2.297 . S
O284 C286 1.247 . S
O285 Cd281 2.439 . S
O285 C286 1.208 . S
C286 O284 1.247 . S
C286 O285 1.208 . S
C287 O292 1.247 . S
C287 O293 1.208 . S
C288 O280 1.315 . S
C288 O283 1.279 . S
C289 O290 1.315 . S
C289 O291 1.279 . S
O290 Cd282 2.223 . S
O290 C289 1.315 . S
O291 Cd281 2.240 . S
O291 C289 1.279 . S
O292 Cd282 2.297 . S
O292 C287 1.247 . S
O293 Cd282 2.439 . S
O293 C287 1.208 . S
O294 Cd295 2.222 . S
O294 C302 1.310 . S
Cd295 O294 2.222 . S
Cd295 O298 2.297 1_554 S
Cd295 O299 2.439 . S
Cd295 O305 2.240 . S
Cd296 O297 2.240 . S
Cd296 O304 2.223 . S
Cd296 O306 2.297 . S
Cd296 O307 2.439 . S
O297 Cd296 2.240 . S
O297 C302 1.279 . S
O298 Cd295 2.297 1_556 S
O298 C300 1.247 1_556 S
O299 Cd295 2.439 . S
O299 C300 1.208 . S
C300 O298 1.247 1_554 S
C300 O299 1.208 . S
C301 O306 1.247 . S
C301 O307 1.208 . S
C302 O294 1.310 . S
C302 O297 1.279 . S
C303 O304 1.315 . S
C303 O305 1.279 . S
O304 Cd296 2.223 . S
O304 C303 1.315 . S
O305 Cd295 2.240 . S
O305 C303 1.279 . S
O306 Cd296 2.297 . S
O306 C301 1.247 . S
O307 Cd296 2.439 . S
O307 C301 1.208 . S
O308 Cd309 2.222 . S
O308 C316 1.310 . S
Cd309 O308 2.222 . S
Cd309 O312 2.297 1_554 S
Cd309 O313 2.439 . S
Cd309 O319 2.240 . S
Cd310 O311 2.240 . S
Cd310 O318 2.223 . S
Cd310 O320 2.297 . S
Cd310 O321 2.439 . S
O311 Cd310 2.240 . S
O311 C316 1.279 . S
O312 Cd309 2.297 1_556 S
O312 C314 1.247 1_556 S
O313 Cd309 2.439 . S
O313 C314 1.208 . S
C314 O312 1.247 1_554 S
C314 O313 1.208 . S
C315 O320 1.247 . S
C315 O321 1.208 . S
C316 O308 1.310 . S
C316 O311 1.279 . S
C317 O318 1.315 . S
C317 O319 1.279 . S
O318 Cd310 2.223 . S
O318 C317 1.315 . S
O319 Cd309 2.240 . S
O319 C317 1.279 . S
O320 Cd310 2.297 . S
O320 C315 1.247 . S
O321 Cd310 2.439 . S
O321 C315 1.208 . S
O322 Cd323 2.222 . S
O322 C330 1.310 . S
Cd323 O322 2.222 . S
Cd323 O326 2.297 1_554 S
Cd323 O327 2.439 . S
Cd323 O333 2.240 . S
Cd324 O325 2.240 . S
Cd324 O332 2.223 . S
Cd324 O334 2.297 . S
Cd324 O335 2.439 . S
O325 Cd324 2.240 . S
O325 C330 1.279 . S
O326 Cd323 2.297 1_556 S
O326 C328 1.247 1_556 S
O327 Cd323 2.439 . S
O327 C328 1.208 . S
C328 O326 1.247 1_554 S
C328 O327 1.208 . S
C329 O334 1.247 . S
C329 O335 1.208 . S
C330 O322 1.310 . S
C330 O325 1.279 . S
C331 O332 1.315 . S
C331 O333 1.279 . S
O332 Cd324 2.223 . S
O332 C331 1.315 . S
O333 Cd323 2.240 . S
O333 C331 1.279 . S
O334 Cd324 2.297 . S
O334 C329 1.247 . S
O335 Cd324 2.439 . S
O335 C329 1.208 . S
O336 Cd337 2.223 . S
O336 C344 1.315 . S
Cd337 O336 2.223 . S
Cd337 O340 2.297 . S
Cd337 O341 2.439 . S
Cd337 O347 2.240 . S
Cd338 O339 2.240 . S
Cd338 O346 2.223 . S
Cd338 O348 2.297 . S
Cd338 O349 2.439 . S
O339 Cd338 2.240 . S
O339 C344 1.279 . S
O340 Cd337 2.297 . S
O340 C342 1.247 . S
O341 Cd337 2.439 . S
O341 C342 1.208 . S
C342 O340 1.247 . S
C342 O341 1.208 . S
C343 O348 1.247 . S
C343 O349 1.208 . S
C344 O336 1.315 . S
C344 O339 1.279 . S
C345 O346 1.315 . S
C345 O347 1.279 . S
O346 Cd338 2.223 . S
O346 C345 1.315 . S
O347 Cd337 2.240 . S
O347 C345 1.279 . S
O348 Cd338 2.297 . S
O348 C343 1.247 . S
O349 Cd338 2.439 . S
O349 C343 1.208 . S
O350 Cd351 2.223 . S
O350 C358 1.315 . S
Cd351 O350 2.223 . S
Cd351 O354 2.297 . S
Cd351 O355 2.439 . S
Cd351 O361 2.240 . S
Cd352 O353 2.240 . S
Cd352 O360 2.223 . S
Cd352 O362 2.297 . S
Cd352 O363 2.439 . S
O353 Cd352 2.240 . S
O353 C358 1.279 . S
O354 Cd351 2.297 . S
O354 C356 1.247 . S
O355 Cd351 2.439 . S
O355 C356 1.208 . S
C356 O354 1.247 . S
C356 O355 1.208 . S
C357 O362 1.247 . S
C357 O363 1.208 . S
C358 O350 1.315 . S
C358 O353 1.279 . S
C359 O360 1.315 . S
C359 O361 1.279 . S
O360 Cd352 2.223 . S
O360 C359 1.315 . S
O361 Cd351 2.240 . S
O361 C359 1.279 . S
O362 Cd352 2.297 . S
O362 C357 1.247 . S
O363 Cd352 2.439 . S
O363 C357 1.208 . S
O364 Cd365 2.223 . S
O364 C372 1.315 . S
Cd365 O364 2.223 . S
Cd365 O368 2.297 . S
Cd365 O369 2.439 . S
Cd365 O375 2.240 . S
Cd366 O367 2.240 . S
Cd366 O374 2.223 . S
Cd366 O376 2.297 . S
Cd366 O377 2.439 . S
O367 Cd366 2.240 . S
O367 C372 1.279 . S
O368 Cd365 2.297 . S
O368 C370 1.247 . S
O369 Cd365 2.439 . S
O369 C370 1.208 . S
C370 O368 1.247 . S
C370 O369 1.208 . S
C371 O376 1.247 . S
C371 O377 1.208 . S
C372 O364 1.315 . S
C372 O367 1.279 . S
C373 O374 1.315 . S
C373 O375 1.279 . S
O374 Cd366 2.223 . S
O374 C373 1.315 . S
O375 Cd365 2.240 . S
O375 C373 1.279 . S
O376 Cd366 2.297 . S
O376 C371 1.247 . S
O377 Cd366 2.439 . S
O377 C371 1.208 . S
O378 Cd379 2.222 . S
O378 C386 1.310 . S
Cd379 O378 2.222 . S
Cd379 O382 2.297 1_556 S
Cd379 O383 2.439 . S
Cd379 O389 2.240 . S
Cd380 O381 2.240 . S
Cd380 O388 2.223 . S
Cd380 O390 2.297 . S
Cd380 O391 2.439 . S
O381 Cd380 2.240 . S
O381 C386 1.279 . S
O382 Cd379 2.297 1_554 S
O382 C384 1.247 1_554 S
O383 Cd379 2.439 . S
O383 C384 1.208 . S
C384 O382 1.247 1_556 S
C384 O383 1.208 . S
C385 O390 1.247 . S
C385 O391 1.208 . S
C386 O378 1.310 . S
C386 O381 1.279 . S
C387 O388 1.315 . S
C387 O389 1.279 . S
O388 Cd380 2.223 . S
O388 C387 1.315 . S
O389 Cd379 2.240 . S
O389 C387 1.279 . S
O390 Cd380 2.297 . S
O390 C385 1.247 . S
O391 Cd380 2.439 . S
O391 C385 1.208 . S
O392 Cd393 2.222 . S
O392 C400 1.310 . S
Cd393 O392 2.222 . S
Cd393 O396 2.297 1_556 S
Cd393 O397 2.439 . S
Cd393 O403 2.240 . S
Cd394 O395 2.240 . S
Cd394 O402 2.223 . S
Cd394 O404 2.297 . S
Cd394 O405 2.439 . S
O395 Cd394 2.240 . S
O395 C400 1.279 . S
O396 Cd393 2.297 1_554 S
O396 C398 1.247 1_554 S
O397 Cd393 2.439 . S
O397 C398 1.208 . S
C398 O396 1.247 1_556 S
C398 O397 1.208 . S
C399 O404 1.247 . S
C399 O405 1.208 . S
C400 O392 1.310 . S
C400 O395 1.279 . S
C401 O402 1.315 . S
C401 O403 1.279 . S
O402 Cd394 2.223 . S
O402 C401 1.315 . S
O403 Cd393 2.240 . S
O403 C401 1.279 . S
O404 Cd394 2.297 . S
O404 C399 1.247 . S
O405 Cd394 2.439 . S
O405 C399 1.208 . S
O406 Cd407 2.222 . S
O406 C414 1.310 . S
Cd407 O406 2.222 . S
Cd407 O410 2.297 1_556 S
Cd407 O411 2.439 . S
Cd407 O417 2.240 . S
Cd408 O409 2.240 . S
Cd408 O416 2.223 . S
Cd408 O418 2.297 . S
Cd408 O419 2.439 . S
O409 Cd408 2.240 . S
O409 C414 1.279 . S
O410 Cd407 2.297 1_554 S
O410 C412 1.247 1_554 S
O411 Cd407 2.439 . S
O411 C412 1.208 . S
C412 O410 1.247 1_556 S
C412 O411 1.208 . S
C413 O418 1.247 . S
C413 O419 1.208 . S
C414 O406 1.310 . S
C414 O409 1.279 . S
C415 O416 1.315 . S
C415 O417 1.279 . S
O416 Cd408 2.223 . S
O416 C415 1.315 . S
O417 Cd407 2.240 . S
O417 C415 1.279 . S
O418 Cd408 2.297 . S
O418 C413 1.247 . S
O419 Cd408 2.439 . S
O419 C413 1.208 . S
O420 Cd421 2.223 . S
O420 C428 1.315 . S
Cd421 O420 2.223 . S
Cd421 O424 2.297 . S
Cd421 O425 2.439 . S
Cd421 O431 2.240 . S
Cd422 O423 2.240 . S
Cd422 O430 2.223 . S
Cd422 O432 2.297 . S
Cd422 O433 2.439 . S
O423 Cd422 2.240 . S
O423 C428 1.279 . S
O424 Cd421 2.297 . S
O424 C426 1.247 . S
O425 Cd421 2.439 . S
O425 C426 1.208 . S
C426 O424 1.247 . S
C426 O425 1.208 . S
C427 O432 1.247 . S
C427 O433 1.208 . S
C428 O420 1.315 . S
C428 O423 1.279 . S
C429 O430 1.315 . S
C429 O431 1.279 . S
O430 Cd422 2.223 . S
O430 C429 1.315 . S
O431 Cd421 2.240 . S
O431 C429 1.279 . S
O432 Cd422 2.297 . S
O432 C427 1.247 . S
O433 Cd422 2.439 . S
O433 C427 1.208 . S
O434 Cd435 2.223 . S
O434 C442 1.315 . S
Cd435 O434 2.223 . S
Cd435 O438 2.297 . S
Cd435 O439 2.439 . S
Cd435 O445 2.240 . S
Cd436 O437 2.240 . S
Cd436 O444 2.223 . S
Cd436 O446 2.297 . S
Cd436 O447 2.439 . S
O437 Cd436 2.240 . S
O437 C442 1.279 . S
O438 Cd435 2.297 . S
O438 C440 1.247 . S
O439 Cd435 2.439 . S
O439 C440 1.208 . S
C440 O438 1.247 . S
C440 O439 1.208 . S
C441 O446 1.247 . S
C441 O447 1.208 . S
C442 O434 1.315 . S
C442 O437 1.279 . S
C443 O444 1.315 . S
C443 O445 1.279 . S
O444 Cd436 2.223 . S
O444 C443 1.315 . S
O445 Cd435 2.240 . S
O445 C443 1.279 . S
O446 Cd436 2.297 . S
O446 C441 1.247 . S
O447 Cd436 2.439 . S
O447 C441 1.208 . S
O448 Cd449 2.223 . S
O448 C456 1.315 . S
Cd449 O448 2.223 . S
Cd449 O452 2.297 . S
Cd449 O453 2.439 . S
Cd449 O459 2.240 . S
Cd450 O451 2.240 . S
Cd450 O458 2.223 . S
Cd450 O460 2.297 . S
Cd450 O461 2.439 . S
O451 Cd450 2.240 . S
O451 C456 1.279 . S
O452 Cd449 2.297 . S
O452 C454 1.247 . S
O453 Cd449 2.439 . S
O453 C454 1.208 . S
C454 O452 1.247 . S
C454 O453 1.208 . S
C455 O460 1.247 . S
C455 O461 1.208 . S
C456 O448 1.315 . S
C456 O451 1.279 . S
C457 O458 1.315 . S
C457 O459 1.279 . S
O458 Cd450 2.223 . S
O458 C457 1.315 . S
O459 Cd449 2.240 . S
O459 C457 1.279 . S
O460 Cd450 2.297 . S
O460 C455 1.247 . S
O461 Cd450 2.439 . S
O461 C455 1.208 . S
O462 Cd463 2.223 . S
O462 C470 1.315 . S
Cd463 O462 2.223 . S
Cd463 O466 2.297 . S
Cd463 O467 2.439 . S
Cd463 O473 2.240 . S
Cd464 O465 2.240 . S
Cd464 O472 2.223 . S
Cd464 O474 2.297 . S
Cd464 O475 2.439 . S
O465 Cd464 2.240 . S
O465 C470 1.279 . S
O466 Cd463 2.297 . S
O466 C468 1.247 . S
O467 Cd463 2.439 . S
O467 C468 1.208 . S
C468 O466 1.247 . S
C468 O467 1.208 . S
C469 O474 1.247 . S
C469 O475 1.208 . S
C470 O462 1.315 . S
C470 O465 1.279 . S
C471 O472 1.315 . S
C471 O473 1.279 . S
O472 Cd464 2.223 . S
O472 C471 1.315 . S
O473 Cd463 2.240 . S
O473 C471 1.279 . S
O474 Cd464 2.297 . S
O474 C469 1.247 . S
O475 Cd464 2.439 . S
O475 C469 1.208 . S
O476 Cd477 2.223 . S
O476 C484 1.315 . S
Cd477 O476 2.223 . S
Cd477 O480 2.297 . S
Cd477 O481 2.439 . S
Cd477 O487 2.240 . S
Cd478 O479 2.240 . S
Cd478 O486 2.223 . S
Cd478 O488 2.297 . S
Cd478 O489 2.439 . S
O479 Cd478 2.240 . S
O479 C484 1.279 . S
O480 Cd477 2.297 . S
O480 C482 1.247 . S
O481 Cd477 2.439 . S
O481 C482 1.208 . S
C482 O480 1.247 . S
C482 O481 1.208 . S
C483 O488 1.247 . S
C483 O489 1.208 . S
C484 O476 1.315 . S
C484 O479 1.279 . S
C485 O486 1.315 . S
C485 O487 1.279 . S
O486 Cd478 2.223 . S
O486 C485 1.315 . S
O487 Cd477 2.240 . S
O487 C485 1.279 . S
O488 Cd478 2.297 . S
O488 C483 1.247 . S
O489 Cd478 2.439 . S
O489 C483 1.208 . S
O490 Cd491 2.223 . S
O490 C498 1.315 . S
Cd491 O490 2.223 . S
Cd491 O494 2.297 . S
Cd491 O495 2.439 . S
Cd491 O501 2.240 . S
Cd492 O493 2.240 . S
Cd492 O500 2.223 . S
Cd492 O502 2.297 . S
Cd492 O503 2.439 . S
O493 Cd492 2.240 . S
O493 C498 1.279 . S
O494 Cd491 2.297 . S
O494 C496 1.247 . S
O495 Cd491 2.439 . S
O495 C496 1.208 . S
C496 O494 1.247 . S
C496 O495 1.208 . S
C497 O502 1.247 . S
C497 O503 1.208 . S
C498 O490 1.315 . S
C498 O493 1.279 . S
C499 O500 1.315 . S
C499 O501 1.279 . S
O500 Cd492 2.223 . S
O500 C499 1.315 . S
O501 Cd491 2.240 . S
O501 C499 1.279 . S
O502 Cd492 2.297 . S
O502 C497 1.247 . S
O503 Cd492 2.439 . S
O503 C497 1.208 . S
C504 C505 1.387 . S
C504 H508 0.950 . S
C504 C513 1.390 1_455 S
C505 C504 1.387 . S
C505 C507 1.387 . S
H506 C513 0.950 . S
C507 C505 1.387 . S
C507 C509 1.390 1_455 S
C507 H511 0.950 . S
H508 C504 0.950 . S
C509 C507 1.390 1_655 S
C509 C510 1.387 . S
C509 H512 0.950 . S
C510 C509 1.387 . S
C510 C513 1.387 . S
H511 C507 0.950 . S
H512 C509 0.950 . S
C513 C504 1.390 1_655 S
C513 H506 0.950 . S
C513 C510 1.387 . S
C514 C515 1.387 . S
C514 H518 0.950 . S
C514 C523 1.390 . S
C515 C514 1.387 . S
C515 C517 1.387 . S
H516 C523 0.950 . S
C517 C515 1.387 . S
C517 C519 1.390 . S
C517 H521 0.950 . S
H518 C514 0.950 . S
C519 C517 1.390 . S
C519 C520 1.387 . S
C519 H522 0.950 . S
C520 C519 1.387 . S
C520 C523 1.387 . S
H521 C517 0.950 . S
H522 C519 0.950 . S
C523 C514 1.390 . S
C523 H516 0.950 . S
C523 C520 1.387 . S
C524 C525 1.387 . S
C524 H528 0.950 . S
C524 C533 1.390 1_545 S
C525 C524 1.387 . S
C525 C527 1.387 . S
H526 C533 0.950 . S
C527 C525 1.387 . S
C527 C529 1.390 1_545 S
C527 H531 0.950 . S
H528 C524 0.950 . S
C529 C527 1.390 1_565 S
C529 C530 1.387 . S
C529 H532 0.950 . S
C530 C529 1.387 . S
C530 C533 1.387 . S
H531 C527 0.950 . S
H532 C529 0.950 . S
C533 C524 1.390 1_565 S
C533 H526 0.950 . S
C533 C530 1.387 . S
C534 C535 1.387 . S
C534 H538 0.950 . S
C534 C543 1.390 1_545 S
C535 C534 1.387 . S
C535 C537 1.387 . S
H536 C543 0.950 . S
C537 C535 1.387 . S
C537 C539 1.390 1_545 S
C537 H541 0.950 . S
H538 C534 0.950 . S
C539 C537 1.390 1_565 S
C539 C540 1.387 . S
C539 H542 0.950 . S
C540 C539 1.387 . S
C540 C543 1.387 . S
H541 C537 0.950 . S
H542 C539 0.950 . S
C543 C534 1.390 1_565 S
C543 H536 0.950 . S
C543 C540 1.387 . S
C544 C545 1.387 . S
C544 H548 0.950 . S
C544 C553 1.390 1_655 S
C545 C544 1.387 . S
C545 C547 1.387 . S
H546 C553 0.950 . S
C547 C545 1.387 . S
C547 C549 1.390 1_655 S
C547 H551 0.950 . S
H548 C544 0.950 . S
C549 C547 1.390 1_455 S
C549 C550 1.387 . S
C549 H552 0.950 . S
C550 C549 1.387 . S
C550 C553 1.387 . S
H551 C547 0.950 . S
H552 C549 0.950 . S
C553 C544 1.390 1_455 S
C553 H546 0.950 . S
C553 C550 1.387 . S
C554 C555 1.387 . S
C554 H558 0.950 . S
C554 C563 1.390 . S
C555 C554 1.387 . S
C555 C557 1.387 . S
H556 C563 0.950 . S
C557 C555 1.387 . S
C557 C559 1.390 . S
C557 H561 0.950 . S
H558 C554 0.950 . S
C559 C557 1.390 . S
C559 C560 1.387 . S
C559 H562 0.950 . S
C560 C559 1.387 . S
C560 C563 1.387 . S
H561 C557 0.950 . S
H562 C559 0.950 . S
C563 C554 1.390 . S
C563 H556 0.950 . S
C563 C560 1.387 . S
C564 C565 1.387 . S
C564 H568 0.950 . S
C564 C573 1.390 1_655 S
C565 C564 1.387 . S
C565 C567 1.387 . S
H566 C573 0.950 . S
C567 C565 1.387 . S
C567 C569 1.390 1_655 S
C567 H571 0.950 . S
H568 C564 0.950 . S
C569 C567 1.390 1_455 S
C569 C570 1.387 . S
C569 H572 0.950 . S
C570 C569 1.387 . S
C570 C573 1.387 . S
H571 C567 0.950 . S
H572 C569 0.950 . S
C573 C564 1.390 1_455 S
C573 H566 0.950 . S
C573 C570 1.387 . S
C574 C575 1.387 . S
C574 H578 0.950 . S
C574 C583 1.390 . S
C575 C574 1.387 . S
C575 C577 1.387 . S
H576 C583 0.950 . S
C577 C575 1.387 . S
C577 C579 1.390 . S
C577 H581 0.950 . S
H578 C574 0.950 . S
C579 C577 1.390 . S
C579 C580 1.387 . S
C579 H582 0.950 . S
C580 C579 1.387 . S
C580 C583 1.387 . S
H581 C577 0.950 . S
H582 C579 0.950 . S
C583 C574 1.390 . S
C583 H576 0.950 . S
C583 C580 1.387 . S
C584 C585 1.387 . S
C584 H588 0.950 . S
C584 C593 1.390 1_565 S
C585 C584 1.387 . S
C585 C587 1.387 . S
H586 C593 0.950 . S
C587 C585 1.387 . S
C587 C589 1.390 1_565 S
C587 H591 0.950 . S
H588 C584 0.950 . S
C589 C587 1.390 1_545 S
C589 C590 1.387 . S
C589 H592 0.950 . S
C590 C589 1.387 . S
C590 C593 1.387 . S
H591 C587 0.950 . S
H592 C589 0.950 . S
C593 C584 1.390 1_545 S
C593 H586 0.950 . S
C593 C590 1.387 . S
C594 C595 1.387 . S
C594 H598 0.950 . S
C594 C603 1.390 1_545 S
C595 C594 1.387 . S
C595 C597 1.387 . S
H596 C603 0.950 . S
C597 C595 1.387 . S
C597 C599 1.390 1_545 S
C597 H601 0.950 . S
H598 C594 0.950 . S
C599 C597 1.390 1_565 S
C599 C600 1.387 . S
C599 H602 0.950 . S
C600 C599 1.387 . S
C600 C603 1.387 . S
H601 C597 0.950 . S
H602 C599 0.950 . S
C603 C594 1.390 1_565 S
C603 H596 0.950 . S
C603 C600 1.387 . S
C604 C605 1.387 . S
C604 H608 0.950 . S
C604 C613 1.390 1_455 S
C605 C604 1.387 . S
C605 C607 1.387 . S
H606 C613 0.950 . S
C607 C605 1.387 . S
C607 C609 1.390 1_455 S
C607 H611 0.950 . S
H608 C604 0.950 . S
C609 C607 1.390 1_655 S
C609 C610 1.387 . S
C609 H612 0.950 . S
C610 C609 1.387 . S
C610 C613 1.387 . S
H611 C607 0.950 . S
H612 C609 0.950 . S
C613 C604 1.390 1_655 S
C613 H606 0.950 . S
C613 C610 1.387 . S
C614 C615 1.387 . S
C614 H618 0.950 . S
C614 C623 1.390 . S
C615 C614 1.387 . S
C615 C617 1.387 . S
H616 C623 0.950 . S
C617 C615 1.387 . S
C617 C619 1.390 . S
C617 H621 0.950 . S
H618 C614 0.950 . S
C619 C617 1.390 . S
C619 C620 1.387 . S
C619 H622 0.950 . S
C620 C619 1.387 . S
C620 C623 1.387 . S
H621 C617 0.950 . S
H622 C619 0.950 . S
C623 C614 1.390 . S
C623 H616 0.950 . S
C623 C620 1.387 . S
C624 C625 1.387 . S
C624 H628 0.950 . S
C624 C633 1.390 . S
C625 C624 1.387 . S
C625 C627 1.387 . S
H626 C633 0.950 . S
C627 C625 1.387 . S
C627 C629 1.390 . S
C627 H631 0.950 . S
H628 C624 0.950 . S
C629 C627 1.390 . S
C629 C630 1.387 . S
C629 H632 0.950 . S
C630 C629 1.387 . S
C630 C633 1.387 . S
H631 C627 0.950 . S
H632 C629 0.950 . S
C633 C624 1.390 . S
C633 H626 0.950 . S
C633 C630 1.387 . S
C634 C635 1.387 . S
C634 H638 0.950 . S
C634 C643 1.390 . S
C635 C634 1.387 . S
C635 C637 1.387 . S
H636 C643 0.950 . S
C637 C635 1.387 . S
C637 C639 1.390 . S
C637 H641 0.950 . S
H638 C634 0.950 . S
C639 C637 1.390 . S
C639 C640 1.387 . S
C639 H642 0.950 . S
C640 C639 1.387 . S
C640 C643 1.387 . S
H641 C637 0.950 . S
H642 C639 0.950 . S
C643 C634 1.390 . S
C643 H636 0.950 . S
C643 C640 1.387 . S
C644 C645 1.387 . S
C644 H648 0.950 . S
C644 C653 1.390 . S
C645 C644 1.387 . S
C645 C647 1.387 . S
H646 C653 0.950 . S
C647 C645 1.387 . S
C647 C649 1.390 . S
C647 H651 0.950 . S
H648 C644 0.950 . S
C649 C647 1.390 . S
C649 C650 1.387 . S
C649 H652 0.950 . S
C650 C649 1.387 . S
C650 C653 1.387 . S
H651 C647 0.950 . S
H652 C649 0.950 . S
C653 C644 1.390 . S
C653 H646 0.950 . S
C653 C650 1.387 . S
C654 C655 1.387 . S
C654 H658 0.950 . S
C654 C663 1.390 . S
C655 C654 1.387 . S
C655 C657 1.387 . S
H656 C663 0.950 . S
C657 C655 1.387 . S
C657 C659 1.390 . S
C657 H661 0.950 . S
H658 C654 0.950 . S
C659 C657 1.390 . S
C659 C660 1.387 . S
C659 H662 0.950 . S
C660 C659 1.387 . S
C660 C663 1.387 . S
H661 C657 0.950 . S
H662 C659 0.950 . S
C663 C654 1.390 . S
C663 H656 0.950 . S
C663 C660 1.387 . S
C664 C665 1.387 . S
C664 H668 0.950 . S
C664 C673 1.390 . S
C665 C664 1.387 . S
C665 C667 1.387 . S
H666 C673 0.950 . S
C667 C665 1.387 . S
C667 C669 1.390 . S
C667 H671 0.950 . S
H668 C664 0.950 . S
C669 C667 1.390 . S
C669 C670 1.387 . S
C669 H672 0.950 . S
C670 C669 1.387 . S
C670 C673 1.387 . S
H671 C667 0.950 . S
H672 C669 0.950 . S
C673 C664 1.390 . S
C673 H666 0.950 . S
C673 C670 1.387 . S
C674 C675 1.387 . S
C674 H678 0.950 . S
C674 C683 1.390 . S
C675 C674 1.387 . S
C675 C677 1.387 . S
H676 C683 0.950 . S
C677 C675 1.387 . S
C677 C679 1.390 . S
C677 H681 0.950 . S
H678 C674 0.950 . S
C679 C677 1.390 . S
C679 C680 1.387 . S
C679 H682 0.950 . S
C680 C679 1.387 . S
C680 C683 1.387 . S
H681 C677 0.950 . S
H682 C679 0.950 . S
C683 C674 1.390 . S
C683 H676 0.950 . S
C683 C680 1.387 . S
C684 C685 1.387 . S
C684 H688 0.950 . S
C684 C693 1.390 . S
C685 C684 1.387 . S
C685 C687 1.387 . S
H686 C693 0.950 . S
C687 C685 1.387 . S
C687 C689 1.390 . S
C687 H691 0.950 . S
H688 C684 0.950 . S
C689 C687 1.390 . S
C689 C690 1.387 . S
C689 H692 0.950 . S
C690 C689 1.387 . S
C690 C693 1.387 . S
H691 C687 0.950 . S
H692 C689 0.950 . S
C693 C684 1.390 . S
C693 H686 0.950 . S
C693 C690 1.387 . S
C694 C695 1.387 . S
C694 H698 0.950 . S
C694 C703 1.390 . S
C695 C694 1.387 . S
C695 C697 1.387 . S
H696 C703 0.950 . S
C697 C695 1.387 . S
C697 C699 1.390 . S
C697 H701 0.950 . S
H698 C694 0.950 . S
C699 C697 1.390 . S
C699 C700 1.387 . S
C699 H702 0.950 . S
C700 C699 1.387 . S
C700 C703 1.387 . S
H701 C697 0.950 . S
H702 C699 0.950 . S
C703 C694 1.390 . S
C703 H696 0.950 . S
C703 C700 1.387 . S
C704 C705 1.387 . S
C704 H708 0.950 . S
C704 C713 1.390 . S
C705 C704 1.387 . S
C705 C707 1.387 . S
H706 C713 0.950 . S
C707 C705 1.387 . S
C707 C709 1.390 . S
C707 H711 0.950 . S
H708 C704 0.950 . S
C709 C707 1.390 . S
C709 C710 1.387 . S
C709 H712 0.950 . S
C710 C709 1.387 . S
C710 C713 1.387 . S
H711 C707 0.950 . S
H712 C709 0.950 . S
C713 C704 1.390 . S
C713 H706 0.950 . S
C713 C710 1.387 . S
C714 C715 1.387 . S
C714 H718 0.950 . S
C714 C723 1.390 . S
C715 C714 1.387 . S
C715 C717 1.387 . S
H716 C723 0.950 . S
C717 C715 1.387 . S
C717 C719 1.390 . S
C717 H721 0.950 . S
H718 C714 0.950 . S
C719 C717 1.390 . S
C719 C720 1.387 . S
C719 H722 0.950 . S
C720 C719 1.387 . S
C720 C723 1.387 . S
H721 C717 0.950 . S
H722 C719 0.950 . S
C723 C714 1.390 . S
C723 H716 0.950 . S
C723 C720 1.387 . S
C724 C725 1.387 . S
C724 H728 0.950 . S
C724 C733 1.390 . S
C725 C724 1.387 . S
C725 C727 1.387 . S
H726 C733 0.950 . S
C727 C725 1.387 . S
C727 C729 1.390 . S
C727 H731 0.950 . S
H728 C724 0.950 . S
C729 C727 1.390 . S
C729 C730 1.387 . S
C729 H732 0.950 . S
C730 C729 1.387 . S
C730 C733 1.387 . S
H731 C727 0.950 . S
H732 C729 0.950 . S
C733 C724 1.390 . S
C733 H726 0.950 . S
C733 C730 1.387 . S
C734 C735 1.387 . S
C734 H738 0.950 . S
C734 C743 1.390 . S
C735 C734 1.387 . S
C735 C737 1.387 . S
H736 C743 0.950 . S
C737 C735 1.387 . S
C737 C739 1.390 . S
C737 H741 0.950 1_554 S
H738 C734 0.950 . S
C739 C737 1.390 . S
C739 C740 1.387 . S
C739 H742 0.949 1_554 S
C740 C739 1.387 . S
C740 C743 1.387 . S
H741 C737 0.950 1_556 S
H742 C739 0.949 1_556 S
C743 C734 1.390 . S
C743 H736 0.950 . S
C743 C740 1.387 . S
C744 C745 1.387 . S
C744 H748 0.950 . S
C744 C753 1.390 . S
C745 C744 1.387 . S
C745 C747 1.387 . S
H746 C753 0.950 . S
C747 C745 1.387 . S
C747 C749 1.390 . S
C747 H751 0.950 . S
H748 C744 0.950 . S
C749 C747 1.390 . S
C749 C750 1.387 . S
C749 H752 0.950 . S
C750 C749 1.387 . S
C750 C753 1.387 . S
H751 C747 0.950 . S
H752 C749 0.950 . S
C753 C744 1.390 . S
C753 H746 0.950 . S
C753 C750 1.387 . S
C754 C755 1.387 . S
C754 H758 0.950 . S
C754 C763 1.390 . S
C755 C754 1.387 . S
C755 C757 1.387 . S
H756 C763 0.950 . S
C757 C755 1.387 . S
C757 C759 1.390 . S
C757 H761 0.950 . S
H758 C754 0.950 . S
C759 C757 1.390 . S
C759 C760 1.387 . S
C759 H762 0.950 . S
C760 C759 1.387 . S
C760 C763 1.387 . S
H761 C757 0.950 . S
H762 C759 0.950 . S
C763 C754 1.390 . S
C763 H756 0.950 . S
C763 C760 1.387 . S
C764 C765 1.387 . S
C764 H768 0.950 . S
C764 C773 1.390 . S
C765 C764 1.387 . S
C765 C767 1.387 . S
H766 C773 0.950 . S
C767 C765 1.387 . S
C767 C769 1.390 . S
C767 H771 0.950 . S
H768 C764 0.950 . S
C769 C767 1.390 . S
C769 C770 1.387 . S
C769 H772 0.950 . S
C770 C769 1.387 . S
C770 C773 1.387 . S
H771 C767 0.950 . S
H772 C769 0.950 . S
C773 C764 1.390 . S
C773 H766 0.950 . S
C773 C770 1.387 . S
C774 C775 1.387 . S
C774 H778 0.950 . S
C774 C783 1.390 . S
C775 C774 1.387 . S
C775 C777 1.387 . S
H776 C783 0.950 . S
C777 C775 1.387 . S
C777 C779 1.390 . S
C777 H781 0.950 . S
H778 C774 0.950 . S
C779 C777 1.390 . S
C779 C780 1.387 . S
C779 H782 0.950 . S
C780 C779 1.387 . S
C780 C783 1.387 . S
H781 C777 0.950 . S
H782 C779 0.950 . S
C783 C774 1.390 . S
C783 H776 0.950 . S
C783 C780 1.387 . S
C784 C785 1.387 . S
C784 H788 0.950 1_556 S
C784 C793 1.390 . S
C785 C784 1.387 . S
C785 C787 1.387 . S
H786 C793 0.950 1_554 S
C787 C785 1.387 . S
C787 C789 1.390 . S
C787 H791 0.950 . S
H788 C784 0.950 1_554 S
C789 C787 1.390 . S
C789 C790 1.387 . S
C789 H792 0.950 . S
C790 C789 1.387 . S
C790 C793 1.387 . S
H791 C787 0.950 . S
H792 C789 0.950 . S
C793 C784 1.390 . S
C793 H786 0.950 1_556 S
C793 C790 1.387 . S
C794 C795 1.387 . S
C794 H798 0.950 1_556 S
C794 C803 1.390 . S
C795 C794 1.387 . S
C795 C797 1.387 . S
H796 C803 0.950 1_554 S
C797 C795 1.387 . S
C797 C799 1.390 . S
C797 H801 0.950 . S
H798 C794 0.950 1_554 S
C799 C797 1.390 . S
C799 C800 1.387 . S
C799 H802 0.950 . S
C800 C799 1.387 . S
C800 C803 1.387 . S
H801 C797 0.950 . S
H802 C799 0.950 . S
C803 C794 1.390 . S
C803 H796 0.950 1_556 S
C803 C800 1.387 . S
C804 C805 1.387 . S
C804 H808 0.950 . S
C804 C813 1.390 . S
C805 C804 1.387 . S
C805 C807 1.387 . S
H806 C813 0.950 . S
C807 C805 1.387 . S
C807 C809 1.390 . S
C807 H811 0.950 . S
H808 C804 0.950 . S
C809 C807 1.390 . S
C809 C810 1.387 . S
C809 H812 0.950 . S
C810 C809 1.387 . S
C810 C813 1.387 . S
H811 C807 0.950 . S
H812 C809 0.950 . S
C813 C804 1.390 . S
C813 H806 0.950 . S
C813 C810 1.387 . S
C814 C815 1.387 . S
C814 H818 0.950 . S
C814 C823 1.390 . S
C815 C814 1.387 . S
C815 C817 1.387 . S
H816 C823 0.950 . S
C817 C815 1.387 . S
C817 C819 1.390 . S
C817 H821 0.950 . S
H818 C814 0.950 . S
C819 C817 1.390 . S
C819 C820 1.387 . S
C819 H822 0.950 . S
C820 C819 1.387 . S
C820 C823 1.387 . S
H821 C817 0.950 . S
H822 C819 0.950 . S
C823 C814 1.390 . S
C823 H816 0.950 . S
C823 C820 1.387 . S
C824 C825 1.387 . S
C824 H828 0.950 . S
C824 C833 1.390 . S
C825 C824 1.387 . S
C825 C827 1.387 . S
H826 C833 0.950 . S
C827 C825 1.387 . S
C827 C829 1.390 . S
C827 H831 0.950 . S
H828 C824 0.950 . S
C829 C827 1.390 . S
C829 C830 1.387 . S
C829 H832 0.950 . S
C830 C829 1.387 . S
C830 C833 1.387 . S
H831 C827 0.950 . S
H832 C829 0.950 . S
C833 C824 1.390 . S
C833 H826 0.950 . S
C833 C830 1.387 . S
C834 C835 1.387 . S
C834 H838 0.950 . S
C834 C843 1.390 . S
C835 C834 1.387 . S
C835 C837 1.387 . S
H836 C843 0.950 . S
C837 C835 1.387 . S
C837 C839 1.390 . S
C837 H841 0.950 . S
H838 C834 0.950 . S
C839 C837 1.390 . S
C839 C840 1.387 . S
C839 H842 0.950 . S
C840 C839 1.387 . S
C840 C843 1.387 . S
H841 C837 0.950 . S
H842 C839 0.950 . S
C843 C834 1.390 . S
C843 H836 0.950 . S
C843 C840 1.387 . S
C844 C845 1.387 . S
C844 H848 0.950 . S
C844 C853 1.390 . S
C845 C844 1.387 . S
C845 C847 1.387 . S
H846 C853 0.950 . S
C847 C845 1.387 . S
C847 C849 1.390 . S
C847 H851 0.950 . S
H848 C844 0.950 . S
C849 C847 1.390 . S
C849 C850 1.387 . S
C849 H852 0.950 . S
C850 C849 1.387 . S
C850 C853 1.387 . S
H851 C847 0.950 . S
H852 C849 0.950 . S
C853 C844 1.390 . S
C853 H846 0.950 . S
C853 C850 1.387 . S
C854 C855 1.387 . S
C854 H858 0.950 . S
C854 C863 1.390 . S
C855 C854 1.387 . S
C855 C857 1.387 . S
H856 C863 0.950 . S
C857 C855 1.387 . S
C857 C859 1.390 . S
C857 H861 0.950 . S
H858 C854 0.950 . S
C859 C857 1.390 . S
C859 C860 1.387 . S
C859 H862 0.950 . S
C860 C859 1.387 . S
C860 C863 1.387 . S
H861 C857 0.950 . S
H862 C859 0.950 . S
C863 C854 1.390 . S
C863 H856 0.950 . S
C863 C860 1.387 . S
C864 C865 1.387 . S
C864 H868 0.950 . S
C864 C873 1.390 . S
C865 C864 1.387 . S
C865 C867 1.387 . S
H866 C873 0.950 . S
C867 C865 1.387 . S
C867 C869 1.390 . S
C867 H871 0.950 . S
H868 C864 0.950 . S
C869 C867 1.390 . S
C869 C870 1.387 . S
C869 H872 0.950 . S
C870 C869 1.387 . S
C870 C873 1.387 . S
H871 C867 0.950 . S
H872 C869 0.950 . S
C873 C864 1.390 . S
C873 H866 0.950 . S
C873 C870 1.387 . S
C874 C875 1.387 . S
C874 H878 0.950 . S
C874 C883 1.390 1_565 S
C875 C874 1.387 . S
C875 C877 1.387 . S
H876 C883 0.950 . S
C877 C875 1.387 . S
C877 C879 1.390 1_565 S
C877 H881 0.950 . S
H878 C874 0.950 . S
C879 C877 1.390 1_545 S
C879 C880 1.387 . S
C879 H882 0.950 . S
C880 C879 1.387 . S
C880 C883 1.387 . S
H881 C877 0.950 . S
H882 C879 0.950 . S
C883 C874 1.390 1_545 S
C883 H876 0.950 . S
C883 C880 1.387 . S
C884 C885 1.387 . S
C884 H888 0.950 . S
C884 C893 1.390 . S
C885 C884 1.387 . S
C885 C887 1.387 1_655 S
H886 C893 0.950 . S
C887 C885 1.387 1_455 S
C887 C889 1.390 . S
C887 H891 0.950 . S
H888 C884 0.950 . S
C889 C887 1.390 . S
C889 C890 1.387 . S
C889 H892 0.950 . S
C890 C889 1.387 . S
C890 C893 1.387 1_455 S
H891 C887 0.950 . S
H892 C889 0.950 . S
C893 C884 1.390 . S
C893 H886 0.950 . S
C893 C890 1.387 1_655 S
C894 C895 1.387 . S
C894 H898 0.950 . S
C894 C903 1.390 . S
C895 C894 1.387 . S
C895 C897 1.387 . S
H896 C903 0.950 . S
C897 C895 1.387 . S
C897 C899 1.390 . S
C897 H901 0.950 . S
H898 C894 0.950 . S
C899 C897 1.390 . S
C899 C900 1.387 . S
C899 H902 0.950 . S
C900 C899 1.387 . S
C900 C903 1.387 . S
H901 C897 0.950 . S
H902 C899 0.950 . S
C903 C894 1.390 . S
C903 H896 0.950 . S
C903 C900 1.387 . S
C904 C905 1.387 . S
C904 H908 0.950 . S
C904 C913 1.390 1_545 S
C905 C904 1.387 . S
C905 C907 1.387 . S
H906 C913 0.950 . S
C907 C905 1.387 . S
C907 C909 1.390 1_545 S
C907 H911 0.950 . S
H908 C904 0.950 . S
C909 C907 1.390 1_565 S
C909 C910 1.387 . S
C909 H912 0.950 . S
C910 C909 1.387 . S
C910 C913 1.387 . S
H911 C907 0.950 . S
H912 C909 0.950 . S
C913 C904 1.390 1_565 S
C913 H906 0.950 . S
C913 C910 1.387 . S
C914 C915 1.387 1_655 S
C914 H918 0.950 . S
C914 C923 1.390 . S
C915 C914 1.387 1_455 S
C915 C917 1.387 . S
H916 C923 0.950 . S
C917 C915 1.387 . S
C917 C919 1.390 . S
C917 H921 0.950 . S
H918 C914 0.950 . S
C919 C917 1.390 . S
C919 C920 1.387 1_455 S
C919 H922 0.950 . S
C920 C919 1.387 1_655 S
C920 C923 1.387 . S
H921 C917 0.950 . S
H922 C919 0.950 . S
C923 C914 1.390 . S
C923 H916 0.950 . S
C923 C920 1.387 . S
C924 C925 1.387 . S
C924 H928 0.950 . S
C924 C933 1.390 . S
C925 C924 1.387 . S
C925 C927 1.387 . S
H926 C933 0.950 . S
C927 C925 1.387 . S
C927 C929 1.390 . S
C927 H931 0.950 . S
H928 C924 0.950 . S
C929 C927 1.390 . S
C929 C930 1.387 . S
C929 H932 0.950 . S
C930 C929 1.387 . S
C930 C933 1.387 . S
H931 C927 0.950 . S
H932 C929 0.950 . S
C933 C924 1.390 . S
C933 H926 0.950 . S
C933 C930 1.387 . S
C934 C935 1.387 . S
C934 H938 0.950 . S
C934 C943 1.390 . S
C935 C934 1.387 . S
C935 C937 1.387 . S
H936 C943 0.950 . S
C937 C935 1.387 . S
C937 C939 1.390 . S
C937 H941 0.950 . S
H938 C934 0.950 . S
C939 C937 1.390 . S
C939 C940 1.387 . S
C939 H942 0.950 . S
C940 C939 1.387 . S
C940 C943 1.387 . S
H941 C937 0.950 . S
H942 C939 0.950 . S
C943 C934 1.390 . S
C943 H936 0.950 . S
C943 C940 1.387 . S
C944 C945 1.387 . S
C944 H948 0.950 . S
C944 C953 1.390 . S
C945 C944 1.387 . S
C945 C947 1.387 . S
H946 C953 0.950 . S
C947 C945 1.387 . S
C947 C949 1.390 . S
C947 H951 0.950 . S
H948 C944 0.950 . S
C949 C947 1.390 . S
C949 C950 1.387 . S
C949 H952 0.950 . S
C950 C949 1.387 . S
C950 C953 1.387 . S
H951 C947 0.950 . S
H952 C949 0.950 . S
C953 C944 1.390 . S
C953 H946 0.950 . S
C953 C950 1.387 . S
C954 C955 1.387 . S
C954 H958 0.950 . S
C954 C963 1.390 . S
C955 C954 1.387 . S
C955 C957 1.387 . S
H956 C963 0.950 . S
C957 C955 1.387 . S
C957 C959 1.390 . S
C957 H961 0.950 . S
H958 C954 0.950 . S
C959 C957 1.390 . S
C959 C960 1.387 . S
C959 H962 0.950 . S
C960 C959 1.387 . S
C960 C963 1.387 . S
H961 C957 0.950 . S
H962 C959 0.950 . S
C963 C954 1.390 . S
C963 H956 0.950 . S
C963 C960 1.387 . S
C964 C965 1.387 . S
C964 H968 0.950 . S
C964 C973 1.390 . S
C965 C964 1.387 . S
C965 C967 1.387 . S
H966 C973 0.950 . S
C967 C965 1.387 . S
C967 C969 1.390 . S
C967 H971 0.950 . S
H968 C964 0.950 . S
C969 C967 1.390 . S
C969 C970 1.387 . S
C969 H972 0.950 . S
C970 C969 1.387 . S
C970 C973 1.387 . S
H971 C967 0.950 . S
H972 C969 0.950 . S
C973 C964 1.390 . S
C973 H966 0.950 . S
C973 C970 1.387 . S
C974 C975 1.387 . S
C974 H978 0.950 . S
C974 C983 1.390 . S
C975 C974 1.387 . S
C975 C977 1.387 . S
H976 C983 0.950 . S
C977 C975 1.387 . S
C977 C979 1.390 . S
C977 H981 0.950 . S
H978 C974 0.950 . S
C979 C977 1.390 . S
C979 C980 1.387 . S
C979 H982 0.950 . S
C980 C979 1.387 . S
C980 C983 1.387 . S
H981 C977 0.950 . S
H982 C979 0.950 . S
C983 C974 1.390 . S
C983 H976 0.950 . S
C983 C980 1.387 . S
C984 C985 1.387 . S
C984 H988 0.950 . S
C984 C993 1.390 . S
C985 C984 1.387 . S
C985 C987 1.387 . S
H986 C993 0.950 . S
C987 C985 1.387 . S
C987 C989 1.390 . S
C987 H991 0.950 . S
H988 C984 0.950 . S
C989 C987 1.390 . S
C989 C990 1.387 . S
C989 H992 0.950 . S
C990 C989 1.387 . S
C990 C993 1.387 . S
H991 C987 0.950 . S
H992 C989 0.950 . S
C993 C984 1.390 . S
C993 H986 0.950 . S
C993 C990 1.387 . S
C994 C995 1.387 . S
C994 H998 0.950 . S
C994 C1003 1.390 . S
C995 C994 1.387 . S
C995 C997 1.387 . S
H996 C1003 0.950 . S
C997 C995 1.387 . S
C997 C999 1.390 . S
C997 H1001 0.950 . S
H998 C994 0.950 . S
C999 C997 1.390 . S
C999 C1000 1.387 . S
C999 H1002 0.950 . S
C1000 C999 1.387 . S
C1000 C1003 1.387 . S
H1001 C997 0.950 . S
H1002 C999 0.950 . S
C1003 C994 1.390 . S
C1003 H996 0.950 . S
C1003 C1000 1.387 . S
C1004 C1005 1.387 . S
C1004 H1008 0.950 . S
C1004 C1013 1.390 . S
C1005 C1004 1.387 . S
C1005 C1007 1.387 . S
H1006 C1013 0.950 . S
C1007 C1005 1.387 . S
C1007 C1009 1.390 . S
C1007 H1011 0.950 . S
H1008 C1004 0.950 . S
C1009 C1007 1.390 . S
C1009 C1010 1.387 . S
C1009 H1012 0.950 . S
C1010 C1009 1.387 . S
C1010 C1013 1.387 . S
H1011 C1007 0.950 . S
H1012 C1009 0.950 . S
C1013 C1004 1.390 . S
C1013 H1006 0.950 . S
C1013 C1010 1.387 . S
C1014 C1015 1.387 . S
C1014 H1018 0.950 . S
C1014 C1023 1.390 . S
C1015 C1014 1.387 . S
C1015 C1017 1.387 . S
H1016 C1023 0.950 . S
C1017 C1015 1.387 . S
C1017 C1019 1.390 . S
C1017 H1021 0.950 . S
H1018 C1014 0.950 . S
C1019 C1017 1.390 . S
C1019 C1020 1.387 . S
C1019 H1022 0.950 . S
C1020 C1019 1.387 . S
C1020 C1023 1.387 . S
H1021 C1017 0.950 . S
H1022 C1019 0.950 . S
C1023 C1014 1.390 . S
C1023 H1016 0.950 . S
C1023 C1020 1.387 . S
C1024 C1025 1.387 . S
C1024 H1028 0.950 . S
C1024 C1033 1.390 . S
C1025 C1024 1.387 . S
C1025 C1027 1.387 . S
H1026 C1033 0.950 . S
C1027 C1025 1.387 . S
C1027 C1029 1.390 . S
C1027 H1031 0.950 . S
H1028 C1024 0.950 . S
C1029 C1027 1.390 . S
C1029 C1030 1.387 . S
C1029 H1032 0.950 . S
C1030 C1029 1.387 . S
C1030 C1033 1.387 . S
H1031 C1027 0.950 . S
H1032 C1029 0.950 . S
C1033 C1024 1.390 . S
C1033 H1026 0.950 . S
C1033 C1030 1.387 . S
C1034 C1035 1.387 . S
C1034 H1038 0.950 . S
C1034 C1043 1.390 . S
C1035 C1034 1.387 . S
C1035 C1037 1.387 . S
H1036 C1043 0.950 . S
C1037 C1035 1.387 . S
C1037 C1039 1.390 . S
C1037 H1041 0.950 . S
H1038 C1034 0.950 . S
C1039 C1037 1.390 . S
C1039 C1040 1.387 . S
C1039 H1042 0.950 . S
C1040 C1039 1.387 . S
C1040 C1043 1.387 . S
H1041 C1037 0.950 . S
H1042 C1039 0.950 . S
C1043 C1034 1.390 . S
C1043 H1036 0.950 . S
C1043 C1040 1.387 . S
C1044 C1045 1.387 . S
C1044 H1048 0.950 . S
C1044 C1053 1.390 . S
C1045 C1044 1.387 . S
C1045 C1047 1.387 . S
H1046 C1053 0.950 . S
C1047 C1045 1.387 . S
C1047 C1049 1.390 . S
C1047 H1051 0.950 . S
H1048 C1044 0.950 . S
C1049 C1047 1.390 . S
C1049 C1050 1.387 . S
C1049 H1052 0.950 . S
C1050 C1049 1.387 . S
C1050 C1053 1.387 . S
H1051 C1047 0.950 . S
H1052 C1049 0.950 . S
C1053 C1044 1.390 . S
C1053 H1046 0.950 . S
C1053 C1050 1.387 . S
C1054 C1055 1.387 . S
C1054 H1058 0.950 . S
C1054 C1063 1.390 . S
C1055 C1054 1.387 . S
C1055 C1057 1.387 . S
H1056 C1063 0.950 . S
C1057 C1055 1.387 . S
C1057 C1059 1.390 . S
C1057 H1061 0.950 . S
H1058 C1054 0.950 . S
C1059 C1057 1.390 . S
C1059 C1060 1.387 . S
C1059 H1062 0.950 . S
C1060 C1059 1.387 . S
C1060 C1063 1.387 . S
H1061 C1057 0.950 . S
H1062 C1059 0.950 . S
C1063 C1054 1.390 . S
C1063 H1056 0.950 . S
C1063 C1060 1.387 . S
C1064 C1065 1.387 . S
C1064 H1068 0.950 . S
C1064 C1073 1.390 . S
C1065 C1064 1.387 . S
C1065 C1067 1.387 . S
H1066 C1073 0.950 . S
C1067 C1065 1.387 . S
C1067 C1069 1.390 . S
C1067 H1071 0.950 . S
H1068 C1064 0.950 . S
C1069 C1067 1.390 . S
C1069 C1070 1.387 . S
C1069 H1072 0.950 . S
C1070 C1069 1.387 . S
C1070 C1073 1.387 . S
H1071 C1067 0.950 . S
H1072 C1069 0.950 . S
C1073 C1064 1.390 . S
C1073 H1066 0.950 . S
C1073 C1070 1.387 . S
C1074 C1075 1.387 . S
C1074 H1078 0.950 . S
C1074 C1083 1.390 . S
C1075 C1074 1.387 . S
C1075 C1077 1.387 . S
H1076 C1083 0.950 . S
C1077 C1075 1.387 . S
C1077 C1079 1.390 . S
C1077 H1081 0.950 . S
H1078 C1074 0.950 . S
C1079 C1077 1.390 . S
C1079 C1080 1.387 . S
C1079 H1082 0.950 . S
C1080 C1079 1.387 . S
C1080 C1083 1.387 . S
H1081 C1077 0.950 . S
H1082 C1079 0.950 . S
C1083 C1074 1.390 . S
C1083 H1076 0.950 . S
C1083 C1080 1.387 . S
C1084 C1085 1.387 . S
C1084 H1088 0.950 . S
C1084 C1093 1.390 . S
C1085 C1084 1.387 . S
C1085 C1087 1.387 . S
H1086 C1093 0.950 . S
C1087 C1085 1.387 . S
C1087 C1089 1.390 . S
C1087 H1091 0.950 . S
H1088 C1084 0.950 . S
C1089 C1087 1.390 . S
C1089 C1090 1.387 . S
C1089 H1092 0.950 . S
C1090 C1089 1.387 . S
C1090 C1093 1.387 . S
H1091 C1087 0.950 . S
H1092 C1089 0.950 . S
C1093 C1084 1.390 . S
C1093 H1086 0.950 . S
C1093 C1090 1.387 . S
C1094 C1095 1.387 . S
C1094 H1098 0.950 . S
C1094 C1103 1.390 . S
C1095 C1094 1.387 . S
C1095 C1097 1.387 . S
H1096 C1103 0.950 . S
C1097 C1095 1.387 . S
C1097 C1099 1.390 . S
C1097 H1101 0.950 . S
H1098 C1094 0.950 . S
C1099 C1097 1.390 . S
C1099 C1100 1.387 . S
C1099 H1102 0.950 . S
C1100 C1099 1.387 . S
C1100 C1103 1.387 . S
H1101 C1097 0.950 . S
H1102 C1099 0.950 . S
C1103 C1094 1.390 . S
C1103 H1096 0.950 . S
C1103 C1100 1.387 . S
C1104 C1105 1.387 . S
C1104 H1108 0.950 . S
C1104 C1113 1.390 . S
C1105 C1104 1.387 . S
C1105 C1107 1.387 . S
H1106 C1113 0.950 . S
C1107 C1105 1.387 . S
C1107 C1109 1.390 . S
C1107 H1111 0.950 . S
H1108 C1104 0.950 . S
C1109 C1107 1.390 . S
C1109 C1110 1.387 . S
C1109 H1112 0.950 . S
C1110 C1109 1.387 . S
C1110 C1113 1.387 . S
H1111 C1107 0.950 . S
H1112 C1109 0.950 . S
C1113 C1104 1.390 . S
C1113 H1106 0.950 . S
C1113 C1110 1.387 . S
C1114 C1115 1.387 . S
C1114 H1118 0.950 . S
C1114 C1123 1.390 . S
C1115 C1114 1.387 . S
C1115 C1117 1.387 . S
H1116 C1123 0.950 . S
C1117 C1115 1.387 . S
C1117 C1119 1.390 . S
C1117 H1121 0.950 . S
H1118 C1114 0.950 . S
C1119 C1117 1.390 . S
C1119 C1120 1.387 . S
C1119 H1122 0.950 . S
C1120 C1119 1.387 . S
C1120 C1123 1.387 . S
H1121 C1117 0.950 . S
H1122 C1119 0.950 . S
C1123 C1114 1.390 . S
C1123 H1116 0.950 . S
C1123 C1120 1.387 . S
C1124 C1125 1.387 . S
C1124 H1128 0.950 . S
C1124 C1133 1.390 . S
C1125 C1124 1.387 . S
C1125 C1127 1.387 . S
H1126 C1133 0.950 . S
C1127 C1125 1.387 . S
C1127 C1129 1.390 . S
C1127 H1131 0.950 . S
H1128 C1124 0.950 . S
C1129 C1127 1.390 . S
C1129 C1130 1.387 . S
C1129 H1132 0.950 . S
C1130 C1129 1.387 . S
C1130 C1133 1.387 . S
H1131 C1127 0.950 . S
H1132 C1129 0.950 . S
C1133 C1124 1.390 . S
C1133 H1126 0.950 . S
C1133 C1130 1.387 . S
C1134 C1135 1.387 . S
C1134 H1138 0.950 . S
C1134 C1143 1.390 . S
C1135 C1134 1.387 . S
C1135 C1137 1.387 . S
H1136 C1143 0.950 . S
C1137 C1135 1.387 . S
C1137 C1139 1.390 . S
C1137 H1141 0.950 . S
H1138 C1134 0.950 . S
C1139 C1137 1.390 . S
C1139 C1140 1.387 . S
C1139 H1142 0.950 . S
C1140 C1139 1.387 . S
C1140 C1143 1.387 . S
H1141 C1137 0.950 . S
H1142 C1139 0.950 . S
C1143 C1134 1.390 . S
C1143 H1136 0.950 . S
C1143 C1140 1.387 . S
C1144 C1145 1.387 . S
C1144 H1148 0.950 . S
C1144 C1153 1.390 . S
C1145 C1144 1.387 . S
C1145 C1147 1.387 . S
H1146 C1153 0.950 . S
C1147 C1145 1.387 . S
C1147 C1149 1.390 . S
C1147 H1151 0.950 . S
H1148 C1144 0.950 . S
C1149 C1147 1.390 . S
C1149 C1150 1.387 . S
C1149 H1152 0.950 . S
C1150 C1149 1.387 . S
C1150 C1153 1.387 . S
H1151 C1147 0.950 . S
H1152 C1149 0.950 . S
C1153 C1144 1.390 . S
C1153 H1146 0.950 . S
C1153 C1150 1.387 . S
C1154 C1155 1.387 . S
C1154 H1158 0.950 . S
C1154 C1163 1.390 . S
C1155 C1154 1.387 . S
C1155 C1157 1.387 . S
H1156 C1163 0.950 . S
C1157 C1155 1.387 . S
C1157 C1159 1.390 . S
C1157 H1161 0.950 . S
H1158 C1154 0.950 . S
C1159 C1157 1.390 . S
C1159 C1160 1.387 . S
C1159 H1162 0.950 . S
C1160 C1159 1.387 . S
C1160 C1163 1.387 . S
H1161 C1157 0.950 . S
H1162 C1159 0.950 . S
C1163 C1154 1.390 . S
C1163 H1156 0.950 . S
C1163 C1160 1.387 . S
C1164 C1165 1.387 . S
C1164 H1168 0.950 . S
C1164 C1173 1.392 . S
C1165 C1164 1.387 . S
C1165 C1167 1.386 1_455 S
H1166 C1173 0.950 . S
C1167 C1165 1.386 1_655 S
C1167 C1169 1.392 . S
C1167 H1171 0.950 . S
H1168 C1164 0.950 . S
C1169 C1167 1.392 . S
C1169 C1170 1.387 . S
C1169 H1172 0.950 . S
C1170 C1169 1.387 . S
C1170 C1173 1.386 1_655 S
H1171 C1167 0.950 . S
H1172 C1169 0.950 . S
C1173 C1164 1.392 . S
C1173 H1166 0.950 . S
C1173 C1170 1.386 1_455 S
C1174 C1175 1.387 . S
C1174 H1178 0.950 . S
C1174 C1183 1.390 . S
C1175 C1174 1.387 . S
C1175 C1177 1.387 . S
H1176 C1183 0.950 . S
C1177 C1175 1.387 . S
C1177 C1179 1.390 . S
C1177 H1181 0.950 . S
H1178 C1174 0.950 . S
C1179 C1177 1.390 . S
C1179 C1180 1.387 . S
C1179 H1182 0.950 . S
C1180 C1179 1.387 . S
C1180 C1183 1.387 . S
H1181 C1177 0.950 . S
H1182 C1179 0.950 . S
C1183 C1174 1.390 . S
C1183 H1176 0.950 . S
C1183 C1180 1.387 . S
C1184 C1185 1.387 . S
C1184 H1188 0.950 . S
C1184 C1193 1.390 1_545 S
C1185 C1184 1.387 . S
C1185 C1187 1.387 . S
H1186 C1193 0.950 . S
C1187 C1185 1.387 . S
C1187 C1189 1.390 1_545 S
C1187 H1191 0.950 . S
H1188 C1184 0.950 . S
C1189 C1187 1.390 1_565 S
C1189 C1190 1.387 . S
C1189 H1192 0.950 . S
C1190 C1189 1.387 . S
C1190 C1193 1.387 . S
H1191 C1187 0.950 . S
H1192 C1189 0.950 . S
C1193 C1184 1.390 1_565 S
C1193 H1186 0.950 . S
C1193 C1190 1.387 . S
C1194 C1195 1.387 . S
C1194 H1198 0.950 . S
C1194 C1203 1.390 1_545 S
C1195 C1194 1.387 . S
C1195 C1197 1.387 1_554 S
H1196 C1203 0.950 . S
C1197 C1195 1.387 1_556 S
C1197 C1199 1.390 1_545 S
C1197 H1201 0.950 . S
H1198 C1194 0.950 . S
C1199 C1197 1.390 1_565 S
C1199 C1200 1.387 . S
C1199 H1202 0.950 . S
C1200 C1199 1.387 . S
C1200 C1203 1.387 1_556 S
H1201 C1197 0.950 . S
H1202 C1199 0.950 . S
C1203 C1194 1.390 1_565 S
C1203 H1196 0.950 . S
C1203 C1200 1.387 1_554 S
C1204 C1205 1.387 . S
C1204 H1208 0.950 . S
C1204 C1213 1.390 1_655 S
C1205 C1204 1.387 . S
C1205 C1207 1.387 1_554 S
H1206 C1213 0.950 . S
C1207 C1205 1.387 1_556 S
C1207 C1209 1.390 1_655 S
C1207 H1211 0.950 . S
H1208 C1204 0.950 . S
C1209 C1207 1.390 1_455 S
C1209 C1210 1.387 . S
C1209 H1212 0.950 . S
C1210 C1209 1.387 . S
C1210 C1213 1.387 1_556 S
H1211 C1207 0.950 . S
H1212 C1209 0.950 . S
C1213 C1204 1.390 1_455 S
C1213 H1206 0.950 . S
C1213 C1210 1.387 1_554 S
C1214 C1215 1.387 . S
C1214 H1218 0.950 . S
C1214 C1223 1.390 . S
C1215 C1214 1.387 . S
C1215 C1217 1.387 1_556 S
H1216 C1223 0.950 . S
C1217 C1215 1.387 1_554 S
C1217 C1219 1.390 . S
C1217 H1221 0.950 . S
H1218 C1214 0.950 . S
C1219 C1217 1.390 . S
C1219 C1220 1.387 . S
C1219 H1222 0.950 . S
C1220 C1219 1.387 . S
C1220 C1223 1.387 1_554 S
H1221 C1217 0.950 . S
H1222 C1219 0.950 . S
C1223 C1214 1.390 . S
C1223 H1216 0.950 . S
C1223 C1220 1.387 1_556 S
C505 C9 1.467 . S
C510 C22 1.599 . S
C515 C23 1.471 . S
C520 C36 1.600 . S
C525 C8 1.600 . S
C530 C37 1.468 . S
C535 C51 1.468 . S
C540 C78 1.599 . S
C545 C65 1.469 . S
C550 C50 1.599 . S
C555 C64 1.601 . S
C560 C79 1.472 . S
C565 C93 1.470 . S
C570 C106 1.601 . S
C575 C120 1.601 . S
C580 C107 1.472 . S
C585 C92 1.601 . S
C590 C121 1.471 . S
C595 C162 1.599 . S
C600 C135 1.468 . S
C605 C149 1.467 . S
C610 C134 1.600 . S
C615 C163 1.471 . S
C620 C148 1.601 . S
C625 C190 1.601 . S
C630 C177 1.471 . S
C635 C191 1.467 . S
C640 C204 1.600 . S
C645 C205 1.470 . S
C650 C176 1.601 . S
C655 C219 1.470 . S
C660 C246 1.601 . S
C665 C233 1.467 . S
C670 C218 1.600 . S
C675 C247 1.469 . S
C680 C232 1.599 . S
C685 C274 1.599 . S
C690 C261 1.467 . S
C695 C275 1.467 . S
C700 C288 1.600 . S
C705 C260 1.600 . S
C710 C289 1.470 . S
C715 C330 1.599 . S
C720 C303 1.470 . S
C725 C317 1.471 . S
C730 C302 1.600 . S
C735 C316 1.600 . S
C740 C331 1.471 . S
C745 C358 1.601 . S
C750 C345 1.471 . S
C755 C359 1.472 . S
C760 C372 1.601 . S
C765 C373 1.470 . S
C770 C344 1.601 . S
C775 C414 1.600 . S
C780 C387 1.471 . S
C785 C401 1.471 . S
C790 C386 1.601 . S
C795 C400 1.601 . S
C800 C415 1.471 . S
C805 C429 1.468 . S
C810 C442 1.599 . S
C815 C443 1.468 . S
C820 C456 1.600 . S
C825 C457 1.471 . S
C830 C428 1.601 . S
C835 C498 1.601 . S
C840 C471 1.469 . S
C845 C470 1.601 . S
C850 C485 1.471 . S
C855 C499 1.467 . S
C860 C484 1.599 . S
C865 C49 1.782 . S
C870 C7 1.781 . S
C875 C21 1.781 . S
C880 C63 1.782 . S
C885 C77 1.781 . S
C890 C35 1.778 . S
C895 C133 1.778 . S
C900 C91 1.781 . S
C905 C105 1.782 . S
C910 C147 1.782 . S
C915 C161 1.782 . S
C920 C119 1.781 . S
C925 C175 1.779 . S
C930 C217 1.779 . S
C935 C189 1.782 . S
C940 C231 1.782 . S
C945 C203 1.779 . S
C950 C245 1.780 . S
C955 C301 1.779 . S
C960 C259 1.780 . S
C965 C315 1.779 . S
C970 C273 1.779 . S
C975 C287 1.783 . S
C980 C329 1.781 . S
C985 C385 1.779 . S
C990 C343 1.779 . S
C995 C399 1.782 . S
C1000 C357 1.781 . S
C1005 C371 1.783 . S
C1010 C413 1.781 . S
C1015 C427 1.782 . S
C1020 C469 1.780 . S
C1025 C483 1.779 . S
C1030 C441 1.779 . S
C1035 C455 1.782 . S
C1040 C497 1.780 . S
C1045 C6 1.715 . S
C1050 C258 1.715 . S
C1055 C20 1.716 . S
C1060 C272 1.716 . S
C1065 C34 1.716 . S
C1070 C286 1.716 . S
C1075 C468 1.716 . S
C1080 C48 1.716 . S
C1085 C482 1.716 . S
C1090 C62 1.716 . S
C1095 C76 1.713 . S
C1100 C496 1.713 . S
C1105 C90 1.713 . S
C1110 C342 1.713 . S
C1115 C356 1.713 . S
C1120 C104 1.713 . S
C1125 C370 1.713 . S
C1130 C118 1.713 . S
C1135 C216 1.716 . S
C1140 C132 1.716 . S
C1145 C230 1.713 . S
C1150 C146 1.713 . S
C1155 C244 1.716 . S
C1160 C160 1.716 . S
C1165 C426 1.713 . S
C1170 C174 1.713 . S
C1175 C188 1.716 . S
C1180 C440 1.716 . S
C1185 C202 1.716 . S
C1190 C454 1.716 . S
C1195 C300 1.713 . S
C1200 C384 1.713 . S
C1205 C314 1.713 . S
C1210 C398 1.713 . S
C1215 C412 1.716 . S
C1220 C328 1.716 . S
