# Generated by pormake.
# Topology wfy, (7)-cn, num edge types: 1
# Building blocks:
#     Node 0, Type 0, BuildingBlock: HICVOG_clean_sbu_0, # of connection points: 7
#     Node 1, Type 0, BuildingBlock: HICVOG_clean_sbu_0, # of connection points: 7
#     Node 2, Type 0, BuildingBlock: HICVOG_clean_sbu_0, # of connection points: 7
#     Node 3, Type 0, BuildingBlock: HICVOG_clean_sbu_0, # of connection points: 7
#     Node 4, Type 0, BuildingBlock: HICVOG_clean_sbu_0, # of connection points: 7
#     Node 5, Type 0, BuildingBlock: HICVOG_clean_sbu_0, # of connection points: 7
#     Node 6, Type 0, BuildingBlock: HICVOG_clean_sbu_0, # of connection points: 7
#     Node 7, Type 0, BuildingBlock: HICVOG_clean_sbu_0, # of connection points: 7
#     Edge 8, Type (0, 0), BuildingBlock: XIVTED_clean_linker_0, # of connection points: 2
#     Edge 9, Type (0, 0), BuildingBlock: XIVTED_clean_linker_0, # of connection points: 2
#     Edge 10, Type (0, 0), BuildingBlock: XIVTED_clean_linker_0, # of connection points: 2
#     Edge 11, Type (0, 0), BuildingBlock: XIVTED_clean_linker_0, # of connection points: 2
#     Edge 12, Type (0, 0), BuildingBlock: XIVTED_clean_linker_0, # of connection points: 2
#     Edge 13, Type (0, 0), BuildingBlock: XIVTED_clean_linker_0, # of connection points: 2
#     Edge 14, Type (0, 0), BuildingBlock: XIVTED_clean_linker_0, # of connection points: 2
#     Edge 15, Type (0, 0), BuildingBlock: XIVTED_clean_linker_0, # of connection points: 2
#     Edge 16, Type (0, 0), BuildingBlock: XIVTED_clean_linker_0, # of connection points: 2
#     Edge 17, Type (0, 0), BuildingBlock: XIVTED_clean_linker_0, # of connection points: 2
#     Edge 18, Type (0, 0), BuildingBlock: XIVTED_clean_linker_0, # of connection points: 2
#     Edge 19, Type (0, 0), BuildingBlock: XIVTED_clean_linker_0, # of connection points: 2
#     Edge 20, Type (0, 0), BuildingBlock: XIVTED_clean_linker_0, # of connection points: 2
#     Edge 21, Type (0, 0), BuildingBlock: XIVTED_clean_linker_0, # of connection points: 2
#     Edge 22, Type (0, 0), BuildingBlock: XIVTED_clean_linker_0, # of connection points: 2
#     Edge 23, Type (0, 0), BuildingBlock: XIVTED_clean_linker_0, # of connection points: 2
#     Edge 24, Type (0, 0), BuildingBlock: XIVTED_clean_linker_0, # of connection points: 2
#     Edge 25, Type (0, 0), BuildingBlock: XIVTED_clean_linker_0, # of connection points: 2
#     Edge 26, Type (0, 0), BuildingBlock: XIVTED_clean_linker_0, # of connection points: 2
#     Edge 27, Type (0, 0), BuildingBlock: XIVTED_clean_linker_0, # of connection points: 2
#     Edge 28, Type (0, 0), BuildingBlock: XIVTED_clean_linker_0, # of connection points: 2
#     Edge 29, Type (0, 0), BuildingBlock: XIVTED_clean_linker_0, # of connection points: 2
#     Edge 30, Type (0, 0), BuildingBlock: XIVTED_clean_linker_0, # of connection points: 2
#     Edge 31, Type (0, 0), BuildingBlock: XIVTED_clean_linker_0, # of connection points: 2
#     Edge 32, Type (0, 0), BuildingBlock: XIVTED_clean_linker_0, # of connection points: 2
#     Edge 33, Type (0, 0), BuildingBlock: XIVTED_clean_linker_0, # of connection points: 2
#     Edge 34, Type (0, 0), BuildingBlock: XIVTED_clean_linker_0, # of connection points: 2
#     Edge 35, Type (0, 0), BuildingBlock: XIVTED_clean_linker_0, # of connection points: 2
# Relax obj value: 0.129
# Max RMSD: 0.240
# Mean RMSD: 0.240
data_MOF--net-wfy--node1-HICVOG_clean_sbu_0--edge1-XIVTED_clean_linker_0
_symmetry_space_group_name_H-M    P1
_symmetry_Int_Tables_number       1
_symmetry_cell_setting            triclinic
loop_
_symmetry_equiv_pos_as_xyz
'x, y, z'
_cell_length_a     38.861243
_cell_length_b     38.852824
_cell_length_c     24.948847
_cell_angle_alpha  89.946344
_cell_angle_beta   90.048106
_cell_angle_gamma 90.191433
loop_
_atom_site_label
_atom_site_type_symbol
_atom_site_fract_x
_atom_site_fract_y
_atom_site_fract_z
_atom_type_partial_charge
Zn0 Zn 0.32736 0.08737 0.07029 0.0
C1 C 0.30577 0.18718 0.06118 0.0
N2 N 0.3397 0.19002 0.07175 0.0
C3 C 0.35106 0.15763 0.06716 0.0
N4 N 0.32539 0.13575 0.05537 0.0
N5 N 0.297 0.15411 0.0502 0.0
C6 C 0.19086 0.15486 0.03698 0.0
O7 O 0.19406 0.12529 0.06201 0.0
O8 O 0.37634 0.06965 0.06291 0.0
Zn9 Zn 0.26017 0.13792 1.00385 0.0
N10 N 0.31406 0.08207 0.14421 0.0
C11 C 0.27859 0.09831 0.2174 0.0
C12 C 0.28811 0.10168 0.16387 0.0
C13 C 0.33067 0.05886 0.1756 0.0
N14 N 0.29487 0.07486 0.24869 0.0
C15 C 0.32063 0.05463 0.22941 0.0
O16 O 0.2468 0.08676 0.01414 0.0
C17 C 0.26312 0.05831 0.01699 0.0
O18 O 0.29488 0.05687 0.02916 0.0
H19 H 0.27497 0.11979 0.13821 0.0
H20 H 0.35148 0.0442 0.1584 0.0
C21 C 0.27101 0.16527 0.89316 0.0
C22 C 0.28685 0.16361 0.84214 0.0
C23 C 0.3181 0.11444 0.87058 0.0
C24 C 0.30258 0.11622 0.92066 0.0
N25 N 0.27897 0.14106 0.93103 0.0
N26 N 0.30978 0.13793 0.83263 0.0
H27 H 0.25236 0.18503 0.90227 0.0
C28 C 0.38604 0.04979 0.02539 0.0
O29 O 0.36392 0.04102 0.98793 0.0
O30 O 0.21638 0.1666 0.01048 0.0
H31 H 0.30944 0.09789 0.9513 0.0
H32 H 0.25815 0.11389 0.23384 0.0
H33 H 0.3367 0.09456 0.86191 0.0
Zn34 Zn 0.13662 0.75545 0.02137 0.0
C35 C 0.16234 0.67355 0.93441 0.0
N36 N 0.19287 0.68913 0.92878 0.0
C37 C 0.18743 0.72068 0.94925 0.0
N38 N 0.15441 0.72436 0.96608 0.0
N39 N 0.1389 0.69464 0.95596 0.0
C40 C 0.04786 0.63224 0.98781 0.0
O41 O 0.02985 0.65799 1.00695 0.0
O42 O 0.16217 0.80136 0.02347 0.0
Zn43 Zn 0.09081 0.68723 0.94289 0.0
N44 N 0.14321 0.73056 0.08858 0.0
C45 C 0.13149 0.67801 0.13437 0.0
C46 C 0.12645 0.69983 0.0908 0.0
C47 C 0.16442 0.7408 0.12928 0.0
N48 N 0.153 0.68782 0.17442 0.0
C49 C 0.16957 0.71873 0.17359 0.0
O50 O 0.05936 0.72219 0.97517 0.0
C51 C 0.05781 0.75084 0.99954 0.0
O52 O 0.08492 0.76626 0.01591 0.0
H53 H 0.10971 0.69209 0.05828 0.0
H54 H 0.1778 0.76521 0.12647 0.0
C55 C 0.05998 0.67319 0.84168 0.0
C56 C 0.0547 0.67724 0.78624 0.0
C57 C 0.101 0.71739 0.78376 0.0
C58 C 0.10521 0.71413 0.83895 0.0
N59 N 0.08485 0.69189 0.86663 0.0
N60 N 0.07579 0.69915 0.75888 0.0
H61 H 0.04458 0.65563 0.86527 0.0
C62 C 0.15812 0.82329 0.98606 0.0
O63 O 0.13815 0.81561 0.94529 0.0
O64 O 0.07541 0.63861 0.96202 0.0
H65 H 0.12475 0.72894 0.85951 0.0
H66 H 0.11859 0.65333 0.1362 0.0
H67 H 0.11724 0.73467 0.76096 0.0
Zn68 Zn 0.6882 0.92497 0.07865 0.0
C69 C 0.71144 0.82602 0.06005 0.0
N70 N 0.67747 0.82201 0.06932 0.0
C71 C 0.66547 0.85427 0.06825 0.0
N72 N 0.69079 0.87719 0.05953 0.0
N73 N 0.71957 0.85967 0.05259 0.0
C74 C 0.82421 0.86068 0.03398 0.0
O75 O 0.8202 0.88931 0.06121 0.0
O76 O 0.63986 0.94403 0.06989 0.0
Zn77 Zn 0.7544 0.87668 1.00265 0.0
N78 N 0.70019 0.92854 0.15337 0.0
C79 C 0.73328 0.91096 0.22853 0.0
C80 C 0.72487 0.90791 0.17448 0.0
C81 C 0.68368 0.95227 0.18377 0.0
N82 N 0.7172 0.93505 0.25882 0.0
C83 C 0.6926 0.9562 0.23814 0.0
O84 O 0.76684 0.92836 0.0095 0.0
C85 C 0.75131 0.95635 0.02105 0.0
O86 O 0.72152 0.95629 0.04205 0.0
H87 H 0.73781 0.88928 0.14957 0.0
H88 H 0.6639 0.96755 0.16508 0.0
C89 C 0.74017 0.84717 0.89476 0.0
C90 C 0.72316 0.84793 0.84458 0.0
C91 C 0.69354 0.89837 0.87179 0.0
C92 C 0.71032 0.89753 0.92101 0.0
N93 N 0.73355 0.87235 0.93156 0.0
N94 N 0.70045 0.87381 0.83485 0.0
H95 H 0.75875 0.82736 0.90406 0.0
C96 C 0.62047 0.94003 0.02928 0.0
O97 O 0.63156 0.92186 0.98844 0.0
O98 O 0.79896 0.84911 1.00668 0.0
H99 H 0.70491 0.91692 0.95083 0.0
H100 H 0.75274 0.89463 0.24617 0.0
H101 H 0.67516 0.91844 0.86292 0.0
Zn102 Zn 0.92765 0.3273 0.94281 0.0
C103 C 0.82866 0.30172 0.95534 0.0
N104 N 0.82455 0.33508 0.94183 0.0
C105 C 0.85656 0.34779 0.94429 0.0
N106 N 0.87942 0.32346 0.95768 0.0
N107 N 0.86212 0.29454 0.96611 0.0
C108 C 0.86421 0.18971 0.99301 0.0
O109 O 0.89479 0.19263 0.97104 0.0
O110 O 0.94615 0.37595 0.95293 0.0
Zn111 Zn 0.8778 0.26124 0.01986 0.0
N112 N 0.9335 0.31562 0.86849 0.0
C113 C 0.91833 0.2818 0.79278 0.0
C114 C 0.91438 0.28982 0.8468 0.0
C115 C 0.95666 0.33355 0.83872 0.0
N116 N 0.94179 0.2994 0.76309 0.0
C117 C 0.96146 0.32507 0.78444 0.0
O118 O 0.92983 0.25024 0.01883 0.0
C119 C 0.9578 0.26569 1.00641 0.0
O120 O 0.95773 0.29438 0.98193 0.0
H121 H 0.89611 0.27581 0.87119 0.0
H122 H 0.97078 0.35423 0.85758 0.0
C123 C 0.84684 0.27371 0.12717 0.0
C124 C 0.84124 0.29512 0.17208 0.0
C125 C 0.88148 0.33535 0.1372 0.0
C126 C 0.88703 0.31418 0.09312 0.0
N127 N 0.86937 0.28411 0.08831 0.0
N128 N 0.85866 0.32548 0.17534 0.0
H129 H 0.83287 0.24975 0.12254 0.0
C130 C 0.93899 0.39687 0.99044 0.0
O131 O 0.91702 0.38757 0.02777 0.0
O132 O 0.85095 0.21598 0.01548 0.0
H133 H 0.90495 0.32188 0.06221 0.0
H134 H 0.90315 0.26152 0.77466 0.0
H135 H 0.89509 0.35957 0.14099 0.0
Zn136 Zn 0.82523 0.58524 0.56715 0.0
C137 C 0.79568 0.68232 0.57438 0.0
N138 N 0.82749 0.68591 0.59506 0.0
C139 C 0.8423 0.65563 0.58394 0.0
N140 N 0.82049 0.63407 0.55916 0.0
N141 N 0.79113 0.65069 0.55263 0.0
C142 C 0.68804 0.65116 0.53394 0.0
O143 O 0.69237 0.62243 0.56089 0.0
O144 O 0.87477 0.56952 0.55855 0.0
Zn145 Zn 0.75746 0.63548 0.50031 0.0
N146 N 0.81252 0.57693 0.64054 0.0
C147 C 0.77427 0.58849 0.71249 0.0
C148 C 0.78373 0.59262 0.6591 0.0
C149 C 0.83203 0.55667 0.67287 0.0
N150 N 0.79342 0.56793 0.7447 0.0
C151 C 0.82201 0.55146 0.72647 0.0
O152 O 0.7455 0.5839 0.50466 0.0
C153 C 0.76249 0.55588 0.50792 0.0
O154 O 0.79371 0.55503 0.52329 0.0
H155 H 0.76834 0.60826 0.63256 0.0
H156 H 0.85497 0.54497 0.65671 0.0
C157 C 0.76979 0.66585 0.39223 0.0
C158 C 0.79106 0.67124 0.34698 0.0
C159 C 0.83067 0.63041 0.38137 0.0
C160 C 0.80972 0.62519 0.42585 0.0
N161 N 0.77995 0.64315 0.43102 0.0
N162 N 0.82102 0.65336 0.34332 0.0
H163 H 0.7462 0.68021 0.39727 0.0
C164 C 0.88736 0.55725 0.51561 0.0
O165 O 0.86799 0.55561 0.4725 0.0
O166 O 0.71286 0.66275 0.50576 0.0
H167 H 0.81749 0.60741 0.45685 0.0
H168 H 0.7516 0.60109 0.72806 0.0
H169 H 0.85461 0.61653 0.37731 0.0
Zn170 Zn 0.63747 0.25202 0.52218 0.0
C171 C 0.66073 0.16611 0.44934 0.0
N172 N 0.69259 0.1793 0.44821 0.0
C173 C 0.68764 0.21296 0.45858 0.0
N174 N 0.65381 0.2198 0.46696 0.0
N175 N 0.63709 0.19042 0.45933 0.0
C176 C 0.57603 0.11508 0.48629 0.0
O177 O 0.60187 0.11946 0.51956 0.0
O178 O 0.66362 0.29771 0.52175 0.0
Zn179 Zn 0.58882 0.18664 0.44232 0.0
N180 N 0.64546 0.22791 0.58988 0.0
C181 C 0.63476 0.17578 0.6374 0.0
C182 C 0.62882 0.19718 0.5936 0.0
C183 C 0.66736 0.2386 0.62941 0.0
N184 N 0.65688 0.18606 0.67632 0.0
C185 C 0.67332 0.21702 0.67411 0.0
O186 O 0.55871 0.22055 0.47904 0.0
C187 C 0.55804 0.24877 0.50464 0.0
O188 O 0.58571 0.26373 0.51975 0.0
H189 H 0.61145 0.18912 0.56212 0.0
H190 H 0.68058 0.26303 0.62544 0.0
C191 C 0.56097 0.17963 0.3373 0.0
C192 C 0.55698 0.18761 0.28261 0.0
C193 C 0.60078 0.23019 0.29116 0.0
C194 C 0.60393 0.22265 0.34551 0.0
N195 N 0.58411 0.19745 0.36732 0.0
N196 N 0.57737 0.21271 0.26122 0.0
H197 H 0.54624 0.15944 0.35632 0.0
C198 C 0.65904 0.31979 0.48467 0.0
O199 O 0.63812 0.31246 0.4449 0.0
O200 O 0.56798 0.13896 0.45376 0.0
H201 H 0.62206 0.23664 0.37011 0.0
H202 H 0.62198 0.15107 0.64036 0.0
H203 H 0.61652 0.25003 0.273 0.0
Zn204 Zn 0.18739 0.42723 0.56342 0.0
C205 C 0.21557 0.3289 0.56665 0.0
N206 N 0.18237 0.32454 0.58078 0.0
C207 C 0.16873 0.35576 0.57242 0.0
N208 N 0.1924 0.37842 0.55544 0.0
N209 N 0.22182 0.36171 0.55089 0.0
C210 C 0.32605 0.36216 0.53481 0.0
O211 O 0.32201 0.39127 0.56078 0.0
O212 O 0.13758 0.44224 0.55468 0.0
Zn213 Zn 0.25642 0.37764 0.50074 0.0
N214 N 0.1996 0.43666 0.63669 0.0
C215 C 0.23417 0.42486 0.7131 0.0
C216 C 0.22606 0.41919 0.65945 0.0
C217 C 0.18129 0.46018 0.66494 0.0
N218 N 0.21611 0.44857 0.7413 0.0
C219 C 0.18995 0.46679 0.71867 0.0
O220 O 0.26793 0.42933 0.50702 0.0
C221 C 0.25042 0.45712 0.5075 0.0
O222 O 0.21849 0.45757 0.51887 0.0
H223 H 0.24059 0.40091 0.63616 0.0
H224 H 0.16023 0.47334 0.64551 0.0
C225 C 0.2456 0.3477 0.39203 0.0
C226 C 0.22496 0.34256 0.34597 0.0
C227 C 0.18537 0.38391 0.37856 0.0
C228 C 0.20567 0.38885 0.42386 0.0
N229 N 0.23514 0.37056 0.4303 0.0
N230 N 0.19532 0.36082 0.34101 0.0
H231 H 0.26888 0.33299 0.39811 0.0
C232 C 0.12327 0.45069 0.51077 0.0
O233 O 0.14086 0.44848 0.46598 0.0
O234 O 0.30104 0.35036 0.50722 0.0
H235 H 0.19757 0.40661 0.45455 0.0
H236 H 0.25493 0.4109 0.73202 0.0
H237 H 0.16167 0.39807 0.3735 0.0
Zn238 Zn 0.37635 0.76108 0.52055 0.0
C239 C 0.3533 0.84601 0.44344 0.0
N240 N 0.32133 0.83311 0.44338 0.0
C241 C 0.32602 0.79969 0.45592 0.0
N242 N 0.35981 0.79274 0.46449 0.0
N243 N 0.37676 0.82176 0.45493 0.0
C244 C 0.43771 0.89625 0.48054 0.0
O245 O 0.41162 0.89158 0.5132 0.0
O246 O 0.34975 0.71564 0.522 0.0
Zn247 Zn 0.42496 0.82488 0.43764 0.0
N248 N 0.36943 0.78647 0.58725 0.0
C249 C 0.38238 0.83921 0.63163 0.0
C250 C 0.38741 0.81651 0.58925 0.0
C251 C 0.34704 0.7777 0.62725 0.0
N252 N 0.35967 0.83093 0.67085 0.0
C253 C 0.34192 0.80069 0.67034 0.0
O254 O 0.45486 0.7913 0.47539 0.0
C255 C 0.4556 0.76343 0.50194 0.0
O256 O 0.42798 0.74875 0.51782 0.0
H257 H 0.4051 0.82305 0.55736 0.0
H258 H 0.33272 0.75382 0.62478 0.0
C259 C 0.45257 0.82981 0.33218 0.0
C260 C 0.45623 0.82087 0.27784 0.0
C261 C 0.41188 0.77908 0.28844 0.0
C262 C 0.40907 0.78753 0.34248 0.0
N263 N 0.42932 0.81281 0.3631 0.0
N264 N 0.43541 0.79573 0.2576 0.0
H265 H 0.46762 0.85014 0.35021 0.0
C266 C 0.3547 0.6931 0.48579 0.0
O267 O 0.37617 0.69989 0.44652 0.0
O268 O 0.44611 0.87253 0.44802 0.0
H269 H 0.39082 0.77421 0.36777 0.0
H270 H 0.39622 0.86339 0.63316 0.0
H271 H 0.39579 0.75918 0.27123 0.0
H272 H 0.32091 0.05291 0.33895 0.0
H273 H 0.38437 0.85853 0.3482 0.0
H274 H 0.35415 0.99426 0.20127 0.0
H275 H 0.33517 0.90894 0.48079 0.0
H276 H 0.38737 0.91316 0.30057 0.0
H277 H 0.33855 1.00538 0.3968 0.0
C278 C 0.33232 0.03037 0.32078 0.0
C279 C 0.33579 0.02784 0.26483 0.0
C280 C 0.37675 0.91261 0.34069 0.0
C281 C 0.35608 0.97331 0.33109 0.0
C282 C 0.37581 0.88146 0.36833 0.0
C283 C 0.36083 0.8796 0.41916 0.0
C284 C 0.36168 0.94191 0.36359 0.0
C285 C 0.34743 0.90965 0.44185 0.0
C286 C 0.34246 1.00328 0.35395 0.0
C287 C 0.35116 0.99801 0.24391 0.0
N288 N 0.34795 0.93963 0.41373 0.0
N289 N 0.36037 0.97187 0.27701 0.0
H290 H 0.99285 0.65296 0.82741 0.0
H291 H 0.90523 0.64362 0.53978 0.0
H292 H 0.04904 0.66437 0.67888 0.0
H293 H 0.85038 0.64403 0.68968 0.0
H294 H 0.95954 0.6365 0.58922 0.0
H295 H 0.94281 0.63463 0.77704 0.0
C296 C 0.99522 0.65085 0.78437 0.0
C297 C 0.02553 0.66059 0.75751 0.0
C298 C 0.93557 0.63752 0.61125 0.0
C299 C 0.96725 0.64051 0.69922 0.0
C300 C 0.90473 0.64145 0.58307 0.0
C301 C 0.87377 0.64464 0.61112 0.0
C302 C 0.93511 0.63717 0.66765 0.0
C303 C 0.87403 0.64186 0.66699 0.0
C304 C 0.96626 0.6406 0.75546 0.0
C305 C 0.02615 0.6577 0.70135 0.0
N306 N 0.9043 0.63864 0.69354 0.0
N307 N 0.99732 0.64841 0.67403 0.0
H308 H 0.67931 0.10429 0.49049 0.0
H309 H 0.65545 0.01477 0.20865 0.0
H310 H 0.62959 0.15123 0.35501 0.0
H311 H 0.69579 0.96141 0.34745 0.0
H312 H 0.63757 0.06125 0.26587 0.0
H313 H 0.67779 0.04875 0.44379 0.0
C314 C 0.66703 0.10255 0.45158 0.0
C315 C 0.65345 0.13195 0.42707 0.0
C316 C 0.64989 0.03915 0.284 0.0
C317 C 0.65277 0.06928 0.37264 0.0
C318 C 0.66008 0.0121 0.25112 0.0
C319 C 0.67756 0.98359 0.27273 0.0
C320 C 0.65766 0.0383 0.3389 0.0
C321 C 0.68293 0.98289 0.32852 0.0
C322 C 0.66624 0.07099 0.42488 0.0
C323 C 0.63868 0.12886 0.3762 0.0
N324 N 0.67348 0.01002 0.3595 0.0
N325 N 0.63905 0.09816 0.35037 0.0
H326 H 0.02044 0.3604 0.81629 0.0
H327 H 0.10517 0.3478 0.52874 0.0
H328 H 0.96493 0.32719 0.67504 0.0
H329 H 0.1579 0.38291 0.67039 0.0
H330 H 0.05027 0.35155 0.57702 0.0
H331 H 0.0669 0.38023 0.75975 0.0
C332 C 0.01736 0.3579 0.77342 0.0
C333 C 0.98836 0.34174 0.75073 0.0
C334 C 0.07373 0.35929 0.59718 0.0
C335 C 0.04278 0.36369 0.68542 0.0
C336 C 0.1049 0.35727 0.56957 0.0
C337 C 0.13567 0.36538 0.59581 0.0
C338 C 0.07373 0.36874 0.65161 0.0
C339 C 0.13446 0.37705 0.64876 0.0
C340 C 0.04432 0.36912 0.74097 0.0
C341 C 0.98689 0.33893 0.69459 0.0
N342 N 0.104 0.37796 0.67523 0.0
N343 N 0.0139 0.34931 0.66396 0.0
H344 H 0.82371 0.55188 0.83587 0.0
H345 H 0.88466 0.35781 0.84652 0.0
H346 H 0.86014 0.49396 0.69956 0.0
H347 H 0.84445 0.41197 0.98292 0.0
H348 H 0.88939 0.41192 0.79788 0.0
H349 H 0.84359 0.50584 0.89482 0.0
C350 C 0.83641 0.52983 0.81831 0.0
C351 C 0.83985 0.52683 0.76245 0.0
C352 C 0.88042 0.41231 0.83896 0.0
C353 C 0.86248 0.4739 0.82981 0.0
C354 C 0.87843 0.3814 0.86707 0.0
C355 C 0.86537 0.38076 0.91924 0.0
C356 C 0.86807 0.44262 0.86268 0.0
C357 C 0.8551 0.41171 0.94284 0.0
C358 C 0.84781 0.50358 0.85207 0.0
C359 C 0.85695 0.49782 0.74216 0.0
N360 N 0.85632 0.44146 0.91414 0.0
N361 N 0.86713 0.47232 0.77578 0.0
H362 H 0.49754 0.15246 0.31323 0.0
H363 H 0.4148 0.16615 0.02455 0.0
H364 H 0.55436 0.18543 0.17312 0.0
H365 H 0.36157 0.1294 0.16462 0.0
H366 H 0.46943 0.16226 0.0736 0.0
H367 H 0.45159 0.13266 0.2557 0.0
C368 C 0.50103 0.15494 0.27044 0.0
C369 C 0.53026 0.17102 0.24837 0.0
C370 C 0.44594 0.15404 0.09316 0.0
C371 C 0.47637 0.14908 0.18185 0.0
C372 C 0.4149 0.15611 0.06508 0.0
C373 C 0.38402 0.14738 0.09051 0.0
C374 C 0.44569 0.14403 0.14736 0.0
C375 C 0.38505 0.13527 0.14328 0.0
C376 C 0.47434 0.14372 0.2374 0.0
C377 C 0.53221 0.17376 0.19223 0.0
N378 N 0.41535 0.13436 0.17025 0.0
N379 N 0.50545 0.1634 0.16102 0.0
H380 H 0.16109 0.52714 0.68177 0.0
H381 H 0.14543 0.60996 0.97341 0.0
H382 H 0.18167 0.47035 0.82728 0.0
H383 H 0.16187 0.66672 0.82722 0.0
H384 H 0.14102 0.55649 0.92055 0.0
H385 H 0.14239 0.57573 0.7354 0.0
C386 C 0.16086 0.52438 0.72493 0.0
C387 C 0.17323 0.49448 0.75 0.0
C388 C 0.14483 0.58081 0.90011 0.0
C389 C 0.15256 0.55072 0.81164 0.0
C390 C 0.1472 0.61113 0.93011 0.0
C391 C 0.15378 0.64242 0.9042 0.0
C392 C 0.1489 0.58224 0.84415 0.0
C393 C 0.15645 0.64295 0.84833 0.0
C394 C 0.15043 0.5524 0.75556 0.0
C395 C 0.17281 0.49306 0.80628 0.0
N396 N 0.15409 0.61327 0.82011 0.0
N397 N 0.16304 0.52095 0.8353 0.0
H398 H 0.45796 0.82247 0.16821 0.0
H399 H 0.65303 0.88405 0.16399 0.0
H400 H 0.51674 0.85425 0.30701 0.0
H401 H 0.60225 0.83941 0.02744 0.0
H402 H 0.59817 0.88762 0.21033 0.0
H403 H 0.50556 0.84105 0.11104 0.0
C404 C 0.48052 0.83377 0.18679 0.0
C405 C 0.48305 0.83652 0.24286 0.0
C406 C 0.59869 0.87787 0.16968 0.0
C407 C 0.5376 0.85795 0.17738 0.0
C408 C 0.63001 0.87659 0.14283 0.0
C409 C 0.63185 0.86263 0.09132 0.0
C410 C 0.56915 0.86395 0.14542 0.0
C411 C 0.60157 0.85081 0.06702 0.0
C412 C 0.50763 0.84447 0.15399 0.0
C413 C 0.5129 0.85177 0.26431 0.0
N414 N 0.57138 0.85139 0.09453 0.0
N415 N 0.53902 0.86154 0.23158 0.0
H416 H 0.43802 0.06083 0.09824 0.0
H417 H 0.57082 0.93434 0.95151 0.0
H418 H 0.41447 1.00514 0.95304 0.0
H419 H 0.59097 0.9821 0.10454 0.0
H420 H 0.51423 0.96165 0.94991 0.0
H421 H 0.49506 0.03432 0.09936 0.0
C422 C 0.44483 0.0431 0.0665 0.0
C423 C 0.42129 0.03514 0.02554 0.0
C424 C 0.53101 0.96617 0.98386 0.0
C425 C 0.48666 1.00462 0.02666 0.0
C426 C 0.56338 0.95057 0.98479 0.0
C427 C 0.5858 0.95598 0.02813 0.0
C428 C 0.52091 0.98749 0.0265 0.0
C429 C 0.57461 0.97721 0.07021 0.0
C430 C 0.47742 0.02791 0.06724 0.0
C431 C 0.43168 0.01204 0.98545 0.0
N432 N 0.54304 0.99223 0.06827 0.0
N433 N 0.46351 0.99761 0.98706 0.0
H434 H 0.92509 0.45064 0.05823 0.0
H435 H 0.07061 0.57451 0.93537 0.0
H436 H 0.99028 0.42201 0.92566 0.0
H437 H 0.99357 0.60871 0.04765 0.0
H438 H 0.04491 0.51693 0.93708 0.0
H439 H 0.95279 0.50727 0.05995 0.0
C440 C 0.94526 0.45621 0.02953 0.0
C441 C 0.95536 0.43144 0.99179 0.0
C442 C 0.03371 0.537 0.96151 0.0
C443 C 0.98735 0.49631 0.9937 0.0
C444 C 0.04852 0.56986 0.96082 0.0
C445 C 0.03427 0.59656 0.99145 0.0
C446 C 1.00451 0.53064 0.9933 0.0
C447 C 1.00541 0.589 0.0233 0.0
C448 C 0.96105 0.4886 0.0305 0.0
C449 C 0.9816 0.44025 0.95548 0.0
N450 N 0.99151 0.55681 0.02337 0.0
N451 N 0.99671 0.47187 0.95743 0.0
H452 H 0.93214 0.55036 0.60017 0.0
H453 H 0.08324 0.46785 0.42422 0.0
H454 H 0.92329 0.53117 0.4303 0.0
H455 H 0.08277 0.46693 0.59723 0.0
H456 H 0.02622 0.49432 0.42514 0.0
H457 H 0.98923 0.52394 0.59922 0.0
C458 C 0.94221 0.54072 0.56261 0.0
C459 C 0.92274 0.5429 0.51524 0.0
C460 C 0.03855 0.48824 0.46291 0.0
C461 C 0.98822 0.51257 0.51395 0.0
C462 C 0.07114 0.4731 0.46243 0.0
C463 C 0.08794 0.46518 0.51071 0.0
C464 C 0.02263 0.49585 0.51203 0.0
C465 C 0.07087 0.47258 0.55899 0.0
C466 C 0.97479 0.52551 0.56216 0.0
C467 C 0.93726 0.52999 0.46781 0.0
N468 N 0.03928 0.48764 0.55841 0.0
N469 N 0.96906 0.51543 0.46838 0.0
H470 H 0.59867 0.05023 0.51064 0.0
H471 H 0.4148 0.96076 0.50584 0.0
H472 H 0.50818 0.10597 0.46145 0.0
H473 H 0.50585 0.90568 0.45775 0.0
H474 H 0.44858 0.01441 0.50711 0.0
H475 H 0.56494 0.99653 0.50886 0.0
C476 C 0.57168 0.05117 0.49986 0.0
C477 C 0.55614 0.08253 0.48625 0.0
C478 C 0.46107 0.99052 0.49635 0.0
C479 C 0.51748 0.02156 0.48499 0.0
C480 C 0.44192 0.95996 0.49587 0.0
C481 C 0.4576 0.9288 0.4817 0.0
C482 C 0.49633 0.98971 0.48401 0.0
C483 C 0.49276 0.9292 0.46869 0.0
C484 C 0.55256 0.02058 0.49857 0.0
C485 C 0.52115 0.08229 0.47205 0.0
N486 N 0.51105 0.95911 0.4707 0.0
N487 N 0.50289 0.05234 0.47233 0.0
H488 H 0.26554 0.34449 0.63942 0.0
H489 H 0.28067 0.14892 0.73626 0.0
H490 H 0.22045 0.2599 0.55256 0.0
H491 H 0.27802 0.23427 0.84655 0.0
H492 H 0.2728 0.18903 0.66166 0.0
H493 H 0.2869 0.30377 0.70687 0.0
C494 C 0.26163 0.31721 0.63305 0.0
C495 C 0.24134 0.3055 0.59014 0.0
C496 C 0.27396 0.19899 0.70216 0.0
C497 C 0.26494 0.25897 0.66765 0.0
C498 C 0.27832 0.17614 0.74481 0.0
C499 C 0.27951 0.18818 0.79787 0.0
C500 C 0.27151 0.23439 0.71223 0.0
C501 C 0.27656 0.22379 0.80643 0.0
C502 C 0.2732 0.29407 0.67218 0.0
C503 C 0.23632 0.26991 0.5847 0.0
N504 N 0.27284 0.24569 0.76401 0.0
N505 N 0.24771 0.24792 0.62325 0.0
H506 H 0.17374 0.77986 0.22838 0.0
H507 H 0.33824 0.74211 0.39558 0.0
H508 H 0.21642 0.67762 0.22364 0.0
H509 H 0.25654 0.80409 0.46012 0.0
H510 H 0.29779 0.71771 0.33057 0.0
H511 H 0.2089 0.7922 0.30799 0.0
C512 C 0.1908 0.76019 0.24373 0.0
C513 C 0.19241 0.72779 0.2192 0.0
C514 C 0.28848 0.7358 0.36016 0.0
C515 C 0.23251 0.74163 0.31015 0.0
C516 C 0.31143 0.7491 0.3983 0.0
C517 C 0.30072 0.77473 0.4342 0.0
C518 C 0.25499 0.74913 0.35691 0.0
C519 C 0.26584 0.78421 0.43346 0.0
C520 C 0.21048 0.76705 0.2895 0.0
C521 C 0.21453 0.70297 0.24138 0.0
N522 N 0.24449 0.77219 0.39448 0.0
N523 N 0.23408 0.71051 0.28519 0.0
H524 H 0.78581 0.7499 0.55234 0.0
H525 H 0.73469 0.77783 0.85337 0.0
H526 H 0.74778 0.66642 0.64927 0.0
H527 H 0.72414 0.85933 0.73702 0.0
H528 H 0.74172 0.73656 0.77958 0.0
H529 H 0.76231 0.79089 0.61712 0.0
C530 C 0.77091 0.74025 0.58586 0.0
C531 C 0.76824 0.70474 0.59498 0.0
C532 C 0.73767 0.76348 0.77033 0.0
C533 C 0.74356 0.75131 0.67135 0.0
C534 C 0.73417 0.7871 0.81244 0.0
C535 C 0.72922 0.8222 0.80144 0.0
C536 C 0.73683 0.7751 0.71689 0.0
C537 C 0.728 0.83256 0.74743 0.0
C538 C 0.75808 0.76362 0.62343 0.0
C539 C 0.74983 0.69358 0.64022 0.0
N540 N 0.73217 0.80927 0.70732 0.0
N541 N 0.73905 0.71672 0.67756 0.0
H542 H 0.79126 0.3352 0.21575 0.0
H543 H 0.75717 0.20957 0.46248 0.0
H544 H 0.83809 0.23523 0.23018 0.0
H545 H 0.67446 0.2687 0.39422 0.0
H546 H 0.79591 0.23236 0.3936 0.0
H547 H 0.75538 0.32229 0.29455 0.0
C548 C 0.79378 0.31044 0.23536 0.0
C549 C 0.81726 0.286 0.21606 0.0
C550 C 0.7695 0.24116 0.39482 0.0
C551 C 0.77757 0.27182 0.30723 0.0
C552 C 0.74753 0.22871 0.43469 0.0
C553 C 0.7125 0.23756 0.43468 0.0
C554 C 0.75655 0.2631 0.35505 0.0
C555 C 0.70132 0.26193 0.3969 0.0
C556 C 0.77347 0.30323 0.2803 0.0
C557 C 0.81987 0.2545 0.24321 0.0
N558 N 0.72318 0.2736 0.35817 0.0
N559 N 0.8005 0.24843 0.28775 0.0
H560 H 0.83297 0.71874 0.29976 0.0
H561 H 0.70286 0.75688 0.06058 0.0
H562 H 0.72997 0.67754 0.29251 0.0
H563 H 0.77133 0.83637 0.11753 0.0
H564 H 0.72486 0.71821 0.12979 0.0
H565 H 0.82039 0.75466 0.22089 0.0
C566 C 0.80762 0.71747 0.28175 0.0
C567 C 0.78229 0.69548 0.30307 0.0
C568 C 0.73565 0.74385 0.12629 0.0
C569 C 0.76835 0.7353 0.2118 0.0
C570 C 0.7236 0.76577 0.08619 0.0
C571 C 0.73503 0.80007 0.08342 0.0
C572 C 0.75984 0.75601 0.16347 0.0
C573 C 0.76183 0.81017 0.11795 0.0
C574 C 0.80058 0.73783 0.23676 0.0
C575 C 0.75001 0.69454 0.27794 0.0
N576 N 0.77303 0.78837 0.15717 0.0
N577 N 0.74408 0.71389 0.23332 0.0
H578 H 0.84 0.24033 0.90315 0.0
H579 H 0.67894 0.27943 0.72499 0.0
H580 H 0.75949 0.3085 0.95542 0.0
H581 H 0.7195 0.17626 0.72673 0.0
H582 H 0.71394 0.29294 0.80413 0.0
H583 H 0.80018 0.21567 0.83674 0.0
C584 C 0.81354 0.24898 0.90252 0.0
C585 C 0.80308 0.27663 0.93483 0.0
C586 C 0.71516 0.26733 0.78714 0.0
C587 C 0.75826 0.25002 0.85712 0.0
C588 C 0.69555 0.25979 0.74158 0.0
C589 C 0.69651 0.22677 0.71902 0.0
C590 C 0.73645 0.24194 0.80976 0.0
C591 C 0.71808 0.20207 0.7429 0.0
C592 C 0.79102 0.23533 0.86389 0.0
C593 C 0.76865 0.28732 0.93118 0.0
N594 N 0.73751 0.21022 0.78662 0.0
N595 N 0.74782 0.27475 0.89203 0.0
H596 H 0.18312 0.29546 0.29773 0.0
H597 H 0.3155 0.25607 0.06265 0.0
H598 H 0.28667 0.33545 0.29368 0.0
H599 H 0.24544 0.17732 0.11733 0.0
H600 H 0.29328 0.29484 0.13139 0.0
H601 H 0.19624 0.25939 0.21939 0.0
C602 C 0.2087 0.29641 0.28055 0.0
C603 C 0.23403 0.31812 0.30259 0.0
C604 C 0.28218 0.26936 0.12746 0.0
C605 C 0.2486 0.27815 0.21192 0.0
C606 C 0.29436 0.24741 0.08761 0.0
C607 C 0.28241 0.21332 0.08424 0.0
C608 C 0.25741 0.25742 0.16385 0.0
C609 C 0.25519 0.20343 0.11806 0.0
C610 C 0.21605 0.27598 0.23585 0.0
C611 C 0.26661 0.31867 0.27853 0.0
N612 N 0.24388 0.22525 0.15706 0.0
N613 N 0.27285 0.29926 0.23416 0.0
H614 H 0.25591 0.72515 0.96553 0.0
H615 H 0.29067 0.84163 0.70828 0.0
H616 H 0.17185 0.77467 0.88418 0.0
H617 H 0.34005 0.74405 0.73571 0.0
H618 H 0.25404 0.83142 0.78733 0.0
H619 H 0.29565 0.749 0.89889 0.0
C620 C 0.24608 0.74288 0.93569 0.0
C621 C 0.21054 0.74854 0.93121 0.0
C622 C 0.27294 0.81235 0.77594 0.0
C623 C 0.25567 0.77494 0.85389 0.0
C624 C 0.29364 0.818 0.73087 0.0
C625 C 0.31796 0.79333 0.71509 0.0
C626 C 0.27753 0.78241 0.80651 0.0
C627 C 0.32117 0.76337 0.746 0.0
C628 C 0.26866 0.75578 0.89698 0.0
C629 C 0.19908 0.77075 0.8905 0.0
N630 N 0.30139 0.75887 0.79053 0.0
N631 N 0.22151 0.78277 0.85284 0.0
H632 H 0.20093 0.03753 0.05735 0.0
H633 H 0.18744 0.8601 0.90491 0.0
H634 H 0.28471 1.00395 0.95731 0.0
H635 H 0.16466 0.86494 0.0738 0.0
H636 H 0.21204 0.9185 0.9099 0.0
H637 H 0.17495 0.9797 0.04981 0.0
C638 C 0.21346 0.01819 0.03303 0.0
C639 C 0.2449 0.02539 1.00777 0.0
C640 C 0.20161 0.90668 0.94574 0.0
C641 C 0.21532 0.95989 0.99854 0.0
C642 C 0.18761 0.87351 0.94297 0.0
C643 C 0.17427 0.85774 0.98912 0.0
C644 C 0.20108 0.92457 0.99456 0.0
C645 C 0.17505 0.87615 0.03748 0.0
C646 C 0.19885 0.98526 0.02918 0.0
C647 C 0.26042 0.99932 0.97734 0.0
N648 N 0.18784 0.90884 0.03886 0.0
N649 N 0.24533 0.96778 0.97315 0.0
H650 H 0.99551 0.72528 0.96706 0.0
H651 H 0.88438 0.88235 0.08059 0.0
H652 H 0.04074 0.81202 0.04959 0.0
H653 H 0.84219 0.80014 0.98436 0.0
H654 H 0.94107 0.85554 0.07466 0.0
H655 H 0.93896 0.75092 0.97793 0.0
C656 C 0.99366 0.74975 0.98762 0.0
C657 C 0.02323 0.7665 1.00733 0.0
C658 C 0.91941 0.84331 0.05495 0.0
C659 C 0.95785 0.79616 0.01991 0.0
C660 C 0.88694 0.85856 0.0584 0.0
C661 C 0.85835 0.84356 0.03278 0.0
C662 C 0.92348 0.8127 0.02581 0.0
C663 C 0.86341 0.81271 1.00464 0.0
C664 C 0.96118 0.76441 0.99375 0.0
C665 C 0.01881 0.79815 0.03364 0.0
N666 N 0.89529 0.79838 1.00187 0.0
N667 N 0.98678 0.81195 0.03911 0.0
H668 H 0.81649 0.97053 0.98171 0.0
H669 H 0.79923 0.1743 0.02952 0.0
H670 H 0.72481 0.0202 0.04081 0.0
H671 H 0.88871 0.12752 0.95815 0.0
H672 H 0.77163 0.11768 0.03319 0.0
H673 H 0.84361 0.02739 0.97187 0.0
C674 C 0.80199 0.99327 0.99237 0.0
C675 C 0.76828 0.99035 0.01225 0.0
C676 C 0.79728 0.11977 0.01656 0.0
C677 C 0.79923 0.05556 1.00132 0.0
C678 C 0.81306 0.15216 0.01449 0.0
C679 C 0.84641 0.15577 0.99365 0.0
C680 C 0.81496 0.09058 0.99792 0.0
C681 C 0.86299 0.12605 0.9746 0.0
C682 C 0.8175 0.02575 0.98679 0.0
C683 C 0.75085 0.0209 0.02545 0.0
N684 N 0.84719 0.09476 0.9774 0.0
N685 N 0.7665 0.05201 0.01993 0.0
H686 H 0.97221 0.2019 0.0507 0.0
H687 H 0.17513 0.21846 0.99543 0.0
H688 H 0.0215 0.29268 0.98611 0.0
H689 H 0.12953 0.13211 0.07834 0.0
H690 H 0.11863 0.24594 0.99221 0.0
H691 H 0.02919 0.17564 0.06204 0.0
C692 C 0.99489 0.21641 0.03925 0.0
C693 C 0.99184 0.24955 0.01721 0.0
C694 C 0.12098 0.22103 0.01134 0.0
C695 C 0.05713 0.21957 0.02974 0.0
C696 C 0.15329 0.20532 0.01315 0.0
C697 C 0.15717 0.17286 0.03704 0.0
C698 C 0.09213 0.20412 0.03324 0.0
C699 C 0.12784 0.15714 0.05947 0.0
C700 C 0.02743 0.20139 0.04567 0.0
C701 C 0.02231 0.26704 1.00305 0.0
N702 N 0.0966 0.17279 0.05675 0.0
N703 N 0.05346 0.25182 0.00929 0.0
H704 H 0.66881 0.35998 0.57328 0.0
H705 H 0.78494 0.5029 0.44572 0.0
H706 H 0.68539 0.35811 0.40248 0.0
H707 H 0.70183 0.53268 0.5499 0.0
H708 H 0.75916 0.44512 0.43792 0.0
H709 H 0.69204 0.41903 0.5759 0.0
C710 C 0.67771 0.37188 0.53651 0.0
C711 C 0.67522 0.35427 0.48758 0.0
C712 C 0.74648 0.46447 0.46203 0.0
C713 C 0.70212 0.42118 0.49051 0.0
C714 C 0.76106 0.49732 0.46641 0.0
C715 C 0.74516 0.52258 0.49791 0.0
C716 C 0.71662 0.4565 0.4911 0.0
C717 C 0.71452 0.51401 0.52456 0.0
C718 C 0.69062 0.40554 0.53798 0.0
C719 C 0.6868 0.37093 0.44094 0.0
N720 N 0.70151 0.48146 0.52132 0.0
N721 N 0.70016 0.40334 0.44359 0.0
H722 H 0.38652 0.38479 0.57963 0.0
H723 H 0.4949 0.22219 0.4795 0.0
H724 H 0.34334 0.29984 0.49049 0.0
H725 H 0.54244 0.31174 0.5509 0.0
H726 H 0.43888 0.24877 0.49012 0.0
H727 H 0.44293 0.35706 0.57608 0.0
C728 C 0.3888 0.3602 0.55954 0.0
C729 C 0.36004 0.34469 0.53514 0.0
C730 C 0.46147 0.26268 0.50362 0.0
C731 C 0.42477 0.31279 0.53101 0.0
C732 C 0.49367 0.24748 0.49764 0.0
C733 C 0.52376 0.26475 0.5141 0.0
C734 C 0.45889 0.29557 0.52634 0.0
C735 C 0.52009 0.29742 0.53754 0.0
C736 C 0.42111 0.34444 0.55745 0.0
C737 C 0.36471 0.31285 0.50969 0.0
N738 N 0.48827 0.31181 0.54282 0.0
N739 N 0.39639 0.29803 0.50827 0.0
H740 H 0.22909 0.51 0.44386 0.0
H741 H 0.34354 0.6535 0.57484 0.0
H742 H 0.30992 0.48081 0.55301 0.0
H743 H 0.32892 0.65458 0.40354 0.0
H744 H 0.31993 0.59459 0.57765 0.0
H745 H 0.25486 0.56782 0.43691 0.0
C746 C 0.25245 0.51573 0.4659 0.0
C747 C 0.26771 0.4906 0.49853 0.0
C748 C 0.32185 0.60788 0.53958 0.0
C749 C 0.29624 0.55675 0.49256 0.0
C750 C 0.33498 0.64147 0.53799 0.0
C751 C 0.33814 0.65879 0.48888 0.0
C752 C 0.31082 0.59204 0.49199 0.0
C753 C 0.32699 0.64197 0.44216 0.0
C754 C 0.26702 0.5486 0.46198 0.0
C755 C 0.29772 0.49936 0.52682 0.0
N756 N 0.31343 0.60964 0.44489 0.0
N757 N 0.31073 0.53193 0.5239 0.0
H758 H 0.62782 0.62866 0.57966 0.0
H759 H 0.51859 0.78987 0.47583 0.0
H760 H 0.6703 0.71291 0.488 0.0
H761 H 0.47145 0.7009 0.54974 0.0
H762 H 0.57467 0.76354 0.48686 0.0
H763 H 0.57125 0.65609 0.57566 0.0
C764 C 0.62535 0.65302 0.55892 0.0
C765 C 0.65396 0.66843 0.53395 0.0
C766 C 0.55216 0.74969 0.50082 0.0
C767 C 0.58908 0.69998 0.5293 0.0
C768 C 0.51991 0.76475 0.4946 0.0
C769 C 0.48992 0.74757 0.51164 0.0
C770 C 0.55489 0.71703 0.52436 0.0
C771 C 0.49373 0.71513 0.5359 0.0
C772 C 0.59296 0.66861 0.55657 0.0
C773 C 0.64906 0.69998 0.50766 0.0
N774 N 0.52561 0.70087 0.54141 0.0
N775 N 0.61731 0.71464 0.50601 0.0
loop_
_geom_bond_atom_site_label_1
_geom_bond_atom_site_label_2
_geom_bond_distance
_geom_bond_site_symmetry_2
_ccdc_geom_bond_type
Zn0 N4 2.020 . S
Zn0 O8 2.019 . S
Zn0 N10 2.119 . S
Zn0 O18 1.975 . S
C1 N2 1.334 . S
C1 N5 1.336 . S
N2 C1 1.334 . S
N2 C3 1.334 . S
C3 N2 1.334 . S
C3 N4 1.336 . S
N4 Zn0 2.020 . S
N4 C3 1.336 . S
N4 N5 1.354 . S
N5 C1 1.336 . S
N5 N4 1.354 . S
N5 Zn9 2.020 . S
C6 O7 1.244 . S
C6 O30 1.257 . S
O7 C6 1.244 . S
O8 Zn0 2.019 . S
O8 C28 1.257 . S
Zn9 N5 2.020 . S
Zn9 O16 1.975 . S
Zn9 N25 2.119 1_554 S
Zn9 O30 2.019 . S
N10 Zn0 2.119 . S
N10 C12 1.334 . S
N10 C13 1.328 . S
C11 C12 1.391 . S
C11 N14 1.329 1_545 S
C11 H32 0.930 . S
C12 N10 1.334 . S
C12 C11 1.391 . S
C12 H19 0.930 . S
C13 N10 1.328 . S
C13 C15 1.392 1_545 S
C13 H20 0.934 . S
N14 C11 1.329 1_565 S
N14 C15 1.331 . S
C15 C13 1.392 1_565 S
C15 N14 1.331 . S
O16 Zn9 1.975 . S
O16 C17 1.252 . S
C17 O16 1.252 . S
C17 O18 1.252 . S
O18 Zn0 1.975 . S
O18 C17 1.252 . S
H19 C12 0.930 . S
H20 C13 0.934 . S
C21 C22 1.392 . S
C21 N25 1.328 . S
C21 H27 0.930 . S
C22 C21 1.392 . S
C22 N26 1.331 . S
C23 C24 1.391 . S
C23 N26 1.329 . S
C23 H33 0.930 . S
C24 C23 1.391 . S
C24 N25 1.334 . S
C24 H31 0.930 . S
N25 Zn9 2.119 1_556 S
N25 C21 1.328 . S
N25 C24 1.334 . S
N26 C22 1.331 . S
N26 C23 1.329 . S
H27 C21 0.930 . S
C28 O8 1.257 . S
C28 O29 1.244 . S
O29 C28 1.244 . S
O30 C6 1.257 . S
O30 Zn9 2.019 . S
H31 C24 0.930 . S
H32 C11 0.930 . S
H33 C23 0.930 . S
Zn34 N38 2.020 . S
Zn34 O42 2.019 . S
Zn34 N44 2.119 1_556 S
Zn34 O52 1.975 . S
C35 N36 1.334 . S
C35 N39 1.336 . S
N36 C35 1.334 . S
N36 C37 1.334 . S
C37 N36 1.334 . S
C37 N38 1.336 . S
N38 Zn34 2.020 . S
N38 C37 1.336 . S
N38 N39 1.354 . S
N39 C35 1.336 . S
N39 N38 1.354 . S
N39 Zn43 2.020 . S
C40 O41 1.244 . S
C40 O64 1.257 . S
O41 C40 1.244 . S
O42 Zn34 2.019 . S
O42 C62 1.257 . S
Zn43 N39 2.020 . S
Zn43 O50 1.975 . S
Zn43 N59 2.119 . S
Zn43 O64 2.019 . S
N44 Zn34 2.119 1_554 S
N44 C46 1.334 . S
N44 C47 1.328 . S
C45 C46 1.391 . S
C45 N48 1.329 . S
C45 H66 0.930 . S
C46 N44 1.334 . S
C46 C45 1.391 . S
C46 H53 0.930 . S
C47 N44 1.328 . S
C47 C49 1.392 . S
C47 H54 0.930 . S
N48 C45 1.329 . S
N48 C49 1.331 . S
C49 C47 1.392 . S
C49 N48 1.331 . S
O50 Zn43 1.975 . S
O50 C51 1.252 . S
C51 O50 1.252 . S
C51 O52 1.252 . S
O52 Zn34 1.975 . S
O52 C51 1.252 . S
H53 C46 0.930 . S
H54 C47 0.930 . S
C55 C56 1.392 1_455 S
C55 N59 1.328 . S
C55 H61 0.934 . S
C56 C55 1.392 1_655 S
C56 N60 1.331 . S
C57 C58 1.391 . S
C57 N60 1.329 1_455 S
C57 H67 0.930 . S
C58 C57 1.391 . S
C58 N59 1.334 . S
C58 H65 0.930 . S
N59 Zn43 2.119 . S
N59 C55 1.328 . S
N59 C58 1.334 . S
N60 C56 1.331 . S
N60 C57 1.329 1_655 S
H61 C55 0.934 . S
C62 O42 1.257 . S
C62 O63 1.244 . S
O63 C62 1.244 . S
O64 C40 1.257 . S
O64 Zn43 2.019 . S
H65 C58 0.930 . S
H66 C45 0.930 . S
H67 C57 0.930 . S
Zn68 N72 2.020 . S
Zn68 O76 2.019 . S
Zn68 N78 2.119 . S
Zn68 O86 1.975 . S
C69 N70 1.334 . S
C69 N73 1.336 . S
N70 C69 1.334 . S
N70 C71 1.334 . S
C71 N70 1.334 . S
C71 N72 1.336 . S
N72 Zn68 2.020 . S
N72 C71 1.336 . S
N72 N73 1.354 . S
N73 C69 1.336 . S
N73 N72 1.354 . S
N73 Zn77 2.020 . S
C74 O75 1.244 . S
C74 O98 1.257 . S
O75 C74 1.244 . S
O76 Zn68 2.019 . S
O76 C96 1.257 . S
Zn77 N73 2.020 . S
Zn77 O84 1.975 . S
Zn77 N93 2.119 1_554 S
Zn77 O98 2.019 . S
N78 Zn68 2.119 . S
N78 C80 1.334 . S
N78 C81 1.328 . S
C79 C80 1.391 . S
C79 N82 1.329 1_565 S
C79 H100 0.930 . S
C80 N78 1.334 . S
C80 C79 1.391 . S
C80 H87 0.930 . S
C81 N78 1.328 . S
C81 C83 1.392 1_565 S
C81 H88 0.934 . S
N82 C79 1.329 1_545 S
N82 C83 1.331 . S
C83 C81 1.392 1_545 S
C83 N82 1.331 . S
O84 Zn77 1.975 . S
O84 C85 1.252 . S
C85 O84 1.252 . S
C85 O86 1.252 . S
O86 Zn68 1.975 . S
O86 C85 1.252 . S
H87 C80 0.930 . S
H88 C81 0.934 . S
C89 C90 1.392 . S
C89 N93 1.328 . S
C89 H95 0.930 . S
C90 C89 1.392 . S
C90 N94 1.331 . S
C91 C92 1.391 . S
C91 N94 1.329 . S
C91 H101 0.930 . S
C92 C91 1.391 . S
C92 N93 1.334 . S
C92 H99 0.930 . S
N93 Zn77 2.119 1_556 S
N93 C89 1.328 . S
N93 C92 1.334 . S
N94 C90 1.331 . S
N94 C91 1.329 . S
H95 C89 0.930 . S
C96 O76 1.257 . S
C96 O97 1.244 . S
O97 C96 1.244 . S
O98 C74 1.257 . S
O98 Zn77 2.019 . S
H99 C92 0.930 . S
H100 C79 0.930 . S
H101 C91 0.930 . S
Zn102 N106 2.020 . S
Zn102 O110 2.019 . S
Zn102 N112 2.119 . S
Zn102 O120 1.975 . S
C103 N104 1.334 . S
C103 N107 1.336 . S
N104 C103 1.334 . S
N104 C105 1.334 . S
C105 N104 1.334 . S
C105 N106 1.336 . S
N106 Zn102 2.020 . S
N106 C105 1.336 . S
N106 N107 1.354 . S
N107 C103 1.336 . S
N107 N106 1.354 . S
N107 Zn111 2.020 . S
C108 O109 1.244 . S
C108 O132 1.257 . S
O109 C108 1.244 . S
O110 Zn102 2.019 . S
O110 C130 1.257 . S
Zn111 N107 2.020 . S
Zn111 O118 1.975 . S
Zn111 N127 2.119 1_556 S
Zn111 O132 2.019 . S
N112 Zn102 2.119 . S
N112 C114 1.334 . S
N112 C115 1.328 . S
C113 C114 1.391 . S
C113 N116 1.329 1_655 S
C113 H134 0.930 . S
C114 N112 1.334 . S
C114 C113 1.391 . S
C114 H121 0.930 . S
C115 N112 1.328 . S
C115 C117 1.392 1_655 S
C115 H122 0.934 . S
N116 C113 1.329 1_455 S
N116 C117 1.331 . S
C117 C115 1.392 1_455 S
C117 N116 1.331 . S
O118 Zn111 1.975 . S
O118 C119 1.252 . S
C119 O118 1.252 . S
C119 O120 1.252 . S
O120 Zn102 1.975 . S
O120 C119 1.252 . S
H121 C114 0.930 . S
H122 C115 0.934 . S
C123 C124 1.392 . S
C123 N127 1.328 . S
C123 H129 0.930 . S
C124 C123 1.392 . S
C124 N128 1.331 . S
C125 C126 1.391 . S
C125 N128 1.329 . S
C125 H135 0.930 . S
C126 C125 1.391 . S
C126 N127 1.334 . S
C126 H133 0.930 . S
N127 Zn111 2.119 1_554 S
N127 C123 1.328 . S
N127 C126 1.334 . S
N128 C124 1.331 . S
N128 C125 1.329 . S
H129 C123 0.930 . S
C130 O110 1.257 . S
C130 O131 1.244 . S
O131 C130 1.244 . S
O132 C108 1.257 . S
O132 Zn111 2.019 . S
H133 C126 0.930 . S
H134 C113 0.930 . S
H135 C125 0.930 . S
Zn136 N140 2.020 . S
Zn136 O144 2.019 . S
Zn136 N146 2.119 . S
Zn136 O154 1.975 . S
C137 N138 1.334 . S
C137 N141 1.336 . S
N138 C137 1.334 . S
N138 C139 1.334 . S
C139 N138 1.334 . S
C139 N140 1.336 . S
N140 Zn136 2.020 . S
N140 C139 1.336 . S
N140 N141 1.354 . S
N141 C137 1.336 . S
N141 N140 1.354 . S
N141 Zn145 2.020 . S
C142 O143 1.244 . S
C142 O166 1.257 . S
O143 C142 1.244 . S
O144 Zn136 2.019 . S
O144 C164 1.257 . S
Zn145 N141 2.020 . S
Zn145 O152 1.975 . S
Zn145 N161 2.119 . S
Zn145 O166 2.019 . S
N146 Zn136 2.119 . S
N146 C148 1.334 . S
N146 C149 1.328 . S
C147 C148 1.391 . S
C147 N150 1.329 . S
C147 H168 0.930 . S
C148 N146 1.334 . S
C148 C147 1.391 . S
C148 H155 0.930 . S
C149 N146 1.328 . S
C149 C151 1.392 . S
C149 H156 0.930 . S
N150 C147 1.329 . S
N150 C151 1.331 . S
C151 C149 1.392 . S
C151 N150 1.331 . S
O152 Zn145 1.975 . S
O152 C153 1.252 . S
C153 O152 1.252 . S
C153 O154 1.252 . S
O154 Zn136 1.975 . S
O154 C153 1.252 . S
H155 C148 0.930 . S
H156 C149 0.930 . S
C157 C158 1.392 . S
C157 N161 1.328 . S
C157 H163 0.930 . S
C158 C157 1.392 . S
C158 N162 1.331 . S
C159 C160 1.391 . S
C159 N162 1.329 . S
C159 H169 0.930 . S
C160 C159 1.391 . S
C160 N161 1.334 . S
C160 H167 0.930 . S
N161 Zn145 2.119 . S
N161 C157 1.328 . S
N161 C160 1.334 . S
N162 C158 1.331 . S
N162 C159 1.329 . S
H163 C157 0.930 . S
C164 O144 1.257 . S
C164 O165 1.244 . S
O165 C164 1.244 . S
O166 C142 1.257 . S
O166 Zn145 2.019 . S
H167 C160 0.930 . S
H168 C147 0.930 . S
H169 C159 0.930 . S
Zn170 N174 2.020 . S
Zn170 O178 2.019 . S
Zn170 N180 2.119 . S
Zn170 O188 1.975 . S
C171 N172 1.334 . S
C171 N175 1.336 . S
N172 C171 1.334 . S
N172 C173 1.334 . S
C173 N172 1.334 . S
C173 N174 1.336 . S
N174 Zn170 2.020 . S
N174 C173 1.336 . S
N174 N175 1.354 . S
N175 C171 1.336 . S
N175 N174 1.354 . S
N175 Zn179 2.020 . S
C176 O177 1.244 . S
C176 O200 1.257 . S
O177 C176 1.244 . S
O178 Zn170 2.019 . S
O178 C198 1.257 . S
Zn179 N175 2.020 . S
Zn179 O186 1.975 . S
Zn179 N195 2.119 . S
Zn179 O200 2.019 . S
N180 Zn170 2.119 . S
N180 C182 1.334 . S
N180 C183 1.328 . S
C181 C182 1.391 . S
C181 N184 1.329 . S
C181 H202 0.930 . S
C182 N180 1.334 . S
C182 C181 1.391 . S
C182 H189 0.930 . S
C183 N180 1.328 . S
C183 C185 1.392 . S
C183 H190 0.930 . S
N184 C181 1.329 . S
N184 C185 1.331 . S
C185 C183 1.392 . S
C185 N184 1.331 . S
O186 Zn179 1.975 . S
O186 C187 1.252 . S
C187 O186 1.252 . S
C187 O188 1.252 . S
O188 Zn170 1.975 . S
O188 C187 1.252 . S
H189 C182 0.930 . S
H190 C183 0.930 . S
C191 C192 1.392 . S
C191 N195 1.328 . S
C191 H197 0.930 . S
C192 C191 1.392 . S
C192 N196 1.331 . S
C193 C194 1.391 . S
C193 N196 1.329 . S
C193 H203 0.930 . S
C194 C193 1.391 . S
C194 N195 1.334 . S
C194 H201 0.930 . S
N195 Zn179 2.119 . S
N195 C191 1.328 . S
N195 C194 1.334 . S
N196 C192 1.331 . S
N196 C193 1.329 . S
H197 C191 0.930 . S
C198 O178 1.257 . S
C198 O199 1.244 . S
O199 C198 1.244 . S
O200 C176 1.257 . S
O200 Zn179 2.019 . S
H201 C194 0.930 . S
H202 C181 0.930 . S
H203 C193 0.930 . S
Zn204 N208 2.020 . S
Zn204 O212 2.019 . S
Zn204 N214 2.119 . S
Zn204 O222 1.975 . S
C205 N206 1.334 . S
C205 N209 1.336 . S
N206 C205 1.334 . S
N206 C207 1.334 . S
C207 N206 1.334 . S
C207 N208 1.336 . S
N208 Zn204 2.020 . S
N208 C207 1.336 . S
N208 N209 1.354 . S
N209 C205 1.336 . S
N209 N208 1.354 . S
N209 Zn213 2.020 . S
C210 O211 1.244 . S
C210 O234 1.257 . S
O211 C210 1.244 . S
O212 Zn204 2.019 . S
O212 C232 1.257 . S
Zn213 N209 2.020 . S
Zn213 O220 1.975 . S
Zn213 N229 2.119 . S
Zn213 O234 2.019 . S
N214 Zn204 2.119 . S
N214 C216 1.334 . S
N214 C217 1.328 . S
C215 C216 1.391 . S
C215 N218 1.329 . S
C215 H236 0.930 . S
C216 N214 1.334 . S
C216 C215 1.391 . S
C216 H223 0.930 . S
C217 N214 1.328 . S
C217 C219 1.392 . S
C217 H224 0.930 . S
N218 C215 1.329 . S
N218 C219 1.331 . S
C219 C217 1.392 . S
C219 N218 1.331 . S
O220 Zn213 1.975 . S
O220 C221 1.252 . S
C221 O220 1.252 . S
C221 O222 1.252 . S
O222 Zn204 1.975 . S
O222 C221 1.252 . S
H223 C216 0.930 . S
H224 C217 0.930 . S
C225 C226 1.392 . S
C225 N229 1.328 . S
C225 H231 0.930 . S
C226 C225 1.392 . S
C226 N230 1.331 . S
C227 C228 1.391 . S
C227 N230 1.329 . S
C227 H237 0.930 . S
C228 C227 1.391 . S
C228 N229 1.334 . S
C228 H235 0.930 . S
N229 Zn213 2.119 . S
N229 C225 1.328 . S
N229 C228 1.334 . S
N230 C226 1.331 . S
N230 C227 1.329 . S
H231 C225 0.930 . S
C232 O212 1.257 . S
C232 O233 1.244 . S
O233 C232 1.244 . S
O234 C210 1.257 . S
O234 Zn213 2.019 . S
H235 C228 0.930 . S
H236 C215 0.930 . S
H237 C227 0.930 . S
Zn238 N242 2.020 . S
Zn238 O246 2.019 . S
Zn238 N248 2.119 . S
Zn238 O256 1.975 . S
C239 N240 1.334 . S
C239 N243 1.336 . S
N240 C239 1.334 . S
N240 C241 1.334 . S
C241 N240 1.334 . S
C241 N242 1.336 . S
N242 Zn238 2.020 . S
N242 C241 1.336 . S
N242 N243 1.354 . S
N243 C239 1.336 . S
N243 N242 1.354 . S
N243 Zn247 2.020 . S
C244 O245 1.244 . S
C244 O268 1.257 . S
O245 C244 1.244 . S
O246 Zn238 2.019 . S
O246 C266 1.257 . S
Zn247 N243 2.020 . S
Zn247 O254 1.975 . S
Zn247 N263 2.119 . S
Zn247 O268 2.019 . S
N248 Zn238 2.119 . S
N248 C250 1.334 . S
N248 C251 1.328 . S
C249 C250 1.391 . S
C249 N252 1.329 . S
C249 H270 0.930 . S
C250 N248 1.334 . S
C250 C249 1.391 . S
C250 H257 0.930 . S
C251 N248 1.328 . S
C251 C253 1.392 . S
C251 H258 0.930 . S
N252 C249 1.329 . S
N252 C253 1.331 . S
C253 C251 1.392 . S
C253 N252 1.331 . S
O254 Zn247 1.975 . S
O254 C255 1.252 . S
C255 O254 1.252 . S
C255 O256 1.252 . S
O256 Zn238 1.975 . S
O256 C255 1.252 . S
H257 C250 0.930 . S
H258 C251 0.930 . S
C259 C260 1.392 . S
C259 N263 1.328 . S
C259 H265 0.930 . S
C260 C259 1.392 . S
C260 N264 1.331 . S
C261 C262 1.391 . S
C261 N264 1.329 . S
C261 H271 0.930 . S
C262 C261 1.391 . S
C262 N263 1.334 . S
C262 H269 0.930 . S
N263 Zn247 2.119 . S
N263 C259 1.328 . S
N263 C262 1.334 . S
N264 C260 1.331 . S
N264 C261 1.329 . S
H265 C259 0.930 . S
C266 O246 1.257 . S
C266 O267 1.244 . S
O267 C266 1.244 . S
O268 C244 1.257 . S
O268 Zn247 2.019 . S
H269 C262 0.930 . S
H270 C249 0.930 . S
H271 C261 0.930 . S
H272 C278 0.930 . S
H273 C282 0.930 . S
H274 C287 0.929 . S
H275 C285 0.929 . S
H276 C280 0.929 . S
H277 C286 0.929 . S
C278 H272 0.930 . S
C278 C279 1.367 . S
C278 C286 1.378 . S
C279 C278 1.367 . S
C279 C287 1.433 . S
C280 H276 0.929 . S
C280 C282 1.378 . S
C280 C284 1.350 . S
C281 C284 1.463 . S
C281 C286 1.350 . S
C281 N289 1.427 . S
C282 H273 0.930 . S
C282 C280 1.378 . S
C282 C283 1.367 . S
C283 C282 1.367 . S
C283 C285 1.433 . S
C284 C280 1.350 . S
C284 C281 1.463 . S
C284 N288 1.427 . S
C285 H275 0.929 . S
C285 C283 1.433 . S
C285 N288 1.384 . S
C286 H277 0.929 . S
C286 C278 1.378 . S
C286 C281 1.350 . S
C287 H274 0.929 . S
C287 C279 1.433 . S
C287 N289 1.384 . S
N288 C284 1.427 . S
N288 C285 1.384 . S
N289 C281 1.427 . S
N289 C287 1.384 . S
H290 C296 0.930 . S
H291 C300 0.930 . S
H292 C305 0.929 . S
H293 C303 0.929 . S
H294 C298 0.929 . S
H295 C304 0.929 . S
C296 H290 0.930 . S
C296 C297 1.367 . S
C296 C304 1.378 . S
C297 C296 1.367 . S
C297 C305 1.433 . S
C298 H294 0.929 . S
C298 C300 1.378 . S
C298 C302 1.350 . S
C299 C302 1.463 . S
C299 C304 1.350 . S
C299 N307 1.427 . S
C300 H291 0.930 . S
C300 C298 1.378 . S
C300 C301 1.367 . S
C301 C300 1.367 . S
C301 C303 1.433 . S
C302 C298 1.350 . S
C302 C299 1.463 . S
C302 N306 1.427 . S
C303 H293 0.929 . S
C303 C301 1.433 . S
C303 N306 1.384 . S
C304 H295 0.929 . S
C304 C296 1.378 . S
C304 C299 1.350 . S
C305 H292 0.929 . S
C305 C297 1.433 . S
C305 N307 1.384 . S
N306 C302 1.427 . S
N306 C303 1.384 . S
N307 C299 1.427 . S
N307 C305 1.384 . S
H308 C314 0.930 . S
H309 C318 0.930 . S
H310 C323 0.929 . S
H311 C321 0.929 . S
H312 C316 0.929 . S
H313 C322 0.929 . S
C314 H308 0.930 . S
C314 C315 1.367 . S
C314 C322 1.378 . S
C315 C314 1.367 . S
C315 C323 1.433 . S
C316 H312 0.929 . S
C316 C318 1.378 . S
C316 C320 1.350 . S
C317 C320 1.463 . S
C317 C322 1.350 . S
C317 N325 1.427 . S
C318 H309 0.930 . S
C318 C316 1.378 . S
C318 C319 1.367 . S
C319 C318 1.367 . S
C319 C321 1.433 . S
C320 C316 1.350 . S
C320 C317 1.463 . S
C320 N324 1.427 . S
C321 H311 0.929 . S
C321 C319 1.433 . S
C321 N324 1.384 . S
C322 H313 0.929 . S
C322 C314 1.378 . S
C322 C317 1.350 . S
C323 H310 0.929 . S
C323 C315 1.433 . S
C323 N325 1.384 . S
N324 C320 1.427 . S
N324 C321 1.384 . S
N325 C317 1.427 . S
N325 C323 1.384 . S
H326 C332 0.930 . S
H327 C336 0.930 . S
H328 C341 0.929 . S
H329 C339 0.929 . S
H330 C334 0.929 . S
H331 C340 0.929 . S
C332 H326 0.930 . S
C332 C333 1.367 . S
C332 C340 1.378 . S
C333 C332 1.367 . S
C333 C341 1.433 . S
C334 H330 0.929 . S
C334 C336 1.378 . S
C334 C338 1.350 . S
C335 C338 1.463 . S
C335 C340 1.350 . S
C335 N343 1.427 . S
C336 H327 0.930 . S
C336 C334 1.378 . S
C336 C337 1.367 . S
C337 C336 1.367 . S
C337 C339 1.433 . S
C338 C334 1.350 . S
C338 C335 1.463 . S
C338 N342 1.427 . S
C339 H329 0.929 . S
C339 C337 1.433 . S
C339 N342 1.384 . S
C340 H331 0.929 . S
C340 C332 1.378 . S
C340 C335 1.350 . S
C341 H328 0.929 . S
C341 C333 1.433 . S
C341 N343 1.384 . S
N342 C338 1.427 . S
N342 C339 1.384 . S
N343 C335 1.427 . S
N343 C341 1.384 . S
H344 C350 0.930 . S
H345 C354 0.930 . S
H346 C359 0.929 . S
H347 C357 0.929 . S
H348 C352 0.929 . S
H349 C358 0.929 . S
C350 H344 0.930 . S
C350 C351 1.367 . S
C350 C358 1.378 . S
C351 C350 1.367 . S
C351 C359 1.433 . S
C352 H348 0.929 . S
C352 C354 1.378 . S
C352 C356 1.350 . S
C353 C356 1.463 . S
C353 C358 1.350 . S
C353 N361 1.427 . S
C354 H345 0.930 . S
C354 C352 1.378 . S
C354 C355 1.367 . S
C355 C354 1.367 . S
C355 C357 1.433 . S
C356 C352 1.350 . S
C356 C353 1.463 . S
C356 N360 1.427 . S
C357 H347 0.929 . S
C357 C355 1.433 . S
C357 N360 1.384 . S
C358 H349 0.929 . S
C358 C350 1.378 . S
C358 C353 1.350 . S
C359 H346 0.929 . S
C359 C351 1.433 . S
C359 N361 1.384 . S
N360 C356 1.427 . S
N360 C357 1.384 . S
N361 C353 1.427 . S
N361 C359 1.384 . S
H362 C368 0.930 . S
H363 C372 0.930 . S
H364 C377 0.929 . S
H365 C375 0.929 . S
H366 C370 0.929 . S
H367 C376 0.929 . S
C368 H362 0.930 . S
C368 C369 1.367 . S
C368 C376 1.378 . S
C369 C368 1.367 . S
C369 C377 1.433 . S
C370 H366 0.929 . S
C370 C372 1.378 . S
C370 C374 1.350 . S
C371 C374 1.463 . S
C371 C376 1.350 . S
C371 N379 1.427 . S
C372 H363 0.930 . S
C372 C370 1.378 . S
C372 C373 1.367 . S
C373 C372 1.367 . S
C373 C375 1.433 . S
C374 C370 1.350 . S
C374 C371 1.463 . S
C374 N378 1.427 . S
C375 H365 0.929 . S
C375 C373 1.433 . S
C375 N378 1.384 . S
C376 H367 0.929 . S
C376 C368 1.378 . S
C376 C371 1.350 . S
C377 H364 0.929 . S
C377 C369 1.433 . S
C377 N379 1.384 . S
N378 C374 1.427 . S
N378 C375 1.384 . S
N379 C371 1.427 . S
N379 C377 1.384 . S
H380 C386 0.930 . S
H381 C390 0.930 . S
H382 C395 0.929 . S
H383 C393 0.929 . S
H384 C388 0.929 . S
H385 C394 0.929 . S
C386 H380 0.930 . S
C386 C387 1.367 . S
C386 C394 1.378 . S
C387 C386 1.367 . S
C387 C395 1.433 . S
C388 H384 0.929 . S
C388 C390 1.378 . S
C388 C392 1.350 . S
C389 C392 1.463 . S
C389 C394 1.350 . S
C389 N397 1.427 . S
C390 H381 0.930 . S
C390 C388 1.378 . S
C390 C391 1.367 . S
C391 C390 1.367 . S
C391 C393 1.433 . S
C392 C388 1.350 . S
C392 C389 1.463 . S
C392 N396 1.427 . S
C393 H383 0.929 . S
C393 C391 1.433 . S
C393 N396 1.384 . S
C394 H385 0.929 . S
C394 C386 1.378 . S
C394 C389 1.350 . S
C395 H382 0.929 . S
C395 C387 1.433 . S
C395 N397 1.384 . S
N396 C392 1.427 . S
N396 C393 1.384 . S
N397 C389 1.427 . S
N397 C395 1.384 . S
H398 C404 0.930 . S
H399 C408 0.930 . S
H400 C413 0.929 . S
H401 C411 0.929 . S
H402 C406 0.929 . S
H403 C412 0.929 . S
C404 H398 0.930 . S
C404 C405 1.367 . S
C404 C412 1.378 . S
C405 C404 1.367 . S
C405 C413 1.433 . S
C406 H402 0.929 . S
C406 C408 1.378 . S
C406 C410 1.350 . S
C407 C410 1.463 . S
C407 C412 1.350 . S
C407 N415 1.427 . S
C408 H399 0.930 . S
C408 C406 1.378 . S
C408 C409 1.367 . S
C409 C408 1.367 . S
C409 C411 1.433 . S
C410 C406 1.350 . S
C410 C407 1.463 . S
C410 N414 1.427 . S
C411 H401 0.929 . S
C411 C409 1.433 . S
C411 N414 1.384 . S
C412 H403 0.929 . S
C412 C404 1.378 . S
C412 C407 1.350 . S
C413 H400 0.929 . S
C413 C405 1.433 . S
C413 N415 1.384 . S
N414 C410 1.427 . S
N414 C411 1.384 . S
N415 C407 1.427 . S
N415 C413 1.384 . S
H416 C422 0.930 . S
H417 C426 0.930 . S
H418 C431 0.929 1_565 S
H419 C429 0.929 1_545 S
H420 C424 0.929 . S
H421 C430 0.929 . S
C422 H416 0.930 . S
C422 C423 1.367 . S
C422 C430 1.378 . S
C423 C422 1.367 . S
C423 C431 1.433 1_554 S
C424 H420 0.929 . S
C424 C426 1.378 . S
C424 C428 1.350 1_556 S
C425 C428 1.463 1_545 S
C425 C430 1.350 . S
C425 N433 1.427 1_544 S
C426 H417 0.930 . S
C426 C424 1.378 . S
C426 C427 1.367 1_556 S
C427 C426 1.367 1_554 S
C427 C429 1.433 . S
C428 C424 1.350 1_554 S
C428 C425 1.463 1_565 S
C428 N432 1.427 1_565 S
C429 H419 0.929 1_565 S
C429 C427 1.433 . S
C429 N432 1.384 1_565 S
C430 H421 0.929 . S
C430 C422 1.378 . S
C430 C425 1.350 . S
C431 H418 0.929 1_545 S
C431 C423 1.433 1_556 S
C431 N433 1.384 1_545 S
N432 C428 1.427 1_545 S
N432 C429 1.384 1_545 S
N433 C425 1.427 1_566 S
N433 C431 1.384 1_565 S
H434 C440 0.930 . S
H435 C444 0.930 . S
H436 C449 0.929 1_455 S
H437 C447 0.929 1_655 S
H438 C442 0.929 . S
H439 C448 0.929 . S
C440 H434 0.930 . S
C440 C441 1.367 1_554 S
C440 C448 1.378 . S
C441 C440 1.367 1_556 S
C441 C449 1.433 . S
C442 H438 0.929 . S
C442 C444 1.378 . S
C442 C446 1.350 . S
C443 C446 1.463 1_655 S
C443 C448 1.350 1_556 S
C443 N451 1.427 1_655 S
C444 H435 0.930 . S
C444 C442 1.378 . S
C444 C445 1.367 . S
C445 C444 1.367 . S
C445 C447 1.433 1_556 S
C446 C442 1.350 . S
C446 C443 1.463 1_455 S
C446 N450 1.427 1_456 S
C447 H437 0.929 1_455 S
C447 C445 1.433 1_554 S
C447 N450 1.384 1_455 S
C448 H439 0.929 . S
C448 C440 1.378 . S
C448 C443 1.350 1_554 S
C449 H436 0.929 1_655 S
C449 C441 1.433 . S
C449 N451 1.384 1_655 S
N450 C446 1.427 1_654 S
N450 C447 1.384 1_655 S
N451 C443 1.427 1_455 S
N451 C449 1.384 1_455 S
H452 C458 0.930 . S
H453 C462 0.930 . S
H454 C467 0.929 . S
H455 C465 0.929 . S
H456 C460 0.929 . S
H457 C466 0.929 . S
C458 H452 0.930 . S
C458 C459 1.367 . S
C458 C466 1.378 . S
C459 C458 1.367 . S
C459 C467 1.433 . S
C460 H456 0.929 . S
C460 C462 1.378 . S
C460 C464 1.350 . S
C461 C464 1.463 1_655 S
C461 C466 1.350 . S
C461 N469 1.427 . S
C462 H453 0.930 . S
C462 C460 1.378 . S
C462 C463 1.367 . S
C463 C462 1.367 . S
C463 C465 1.433 . S
C464 C460 1.350 . S
C464 C461 1.463 1_455 S
C464 N468 1.427 . S
C465 H455 0.929 . S
C465 C463 1.433 . S
C465 N468 1.384 . S
C466 H457 0.929 . S
C466 C458 1.378 . S
C466 C461 1.350 . S
C467 H454 0.929 . S
C467 C459 1.433 . S
C467 N469 1.384 . S
N468 C464 1.427 . S
N468 C465 1.384 . S
N469 C461 1.427 . S
N469 C467 1.384 . S
H470 C476 0.930 . S
H471 C480 0.930 . S
H472 C485 0.929 . S
H473 C483 0.929 . S
H474 C478 0.929 . S
H475 C484 0.929 . S
C476 H470 0.930 . S
C476 C477 1.367 . S
C476 C484 1.378 . S
C477 C476 1.367 . S
C477 C485 1.433 . S
C478 H474 0.929 . S
C478 C480 1.378 . S
C478 C482 1.350 . S
C479 C482 1.463 1_545 S
C479 C484 1.350 . S
C479 N487 1.427 . S
C480 H471 0.930 . S
C480 C478 1.378 . S
C480 C481 1.367 . S
C481 C480 1.367 . S
C481 C483 1.433 . S
C482 C478 1.350 . S
C482 C479 1.463 1_565 S
C482 N486 1.427 . S
C483 H473 0.929 . S
C483 C481 1.433 . S
C483 N486 1.384 . S
C484 H475 0.929 . S
C484 C476 1.378 . S
C484 C479 1.350 . S
C485 H472 0.929 . S
C485 C477 1.433 . S
C485 N487 1.384 . S
N486 C482 1.427 . S
N486 C483 1.384 . S
N487 C479 1.427 . S
N487 C485 1.384 . S
H488 C494 0.930 . S
H489 C498 0.930 . S
H490 C503 0.929 . S
H491 C501 0.929 . S
H492 C496 0.929 . S
H493 C502 0.929 . S
C494 H488 0.930 . S
C494 C495 1.367 . S
C494 C502 1.378 . S
C495 C494 1.367 . S
C495 C503 1.433 . S
C496 H492 0.929 . S
C496 C498 1.378 . S
C496 C500 1.350 . S
C497 C500 1.463 . S
C497 C502 1.350 . S
C497 N505 1.427 . S
C498 H489 0.930 . S
C498 C496 1.378 . S
C498 C499 1.367 . S
C499 C498 1.367 . S
C499 C501 1.433 . S
C500 C496 1.350 . S
C500 C497 1.463 . S
C500 N504 1.427 . S
C501 H491 0.929 . S
C501 C499 1.433 . S
C501 N504 1.384 . S
C502 H493 0.929 . S
C502 C494 1.378 . S
C502 C497 1.350 . S
C503 H490 0.929 . S
C503 C495 1.433 . S
C503 N505 1.384 . S
N504 C500 1.427 . S
N504 C501 1.384 . S
N505 C497 1.427 . S
N505 C503 1.384 . S
H506 C512 0.930 . S
H507 C516 0.930 . S
H508 C521 0.929 . S
H509 C519 0.929 . S
H510 C514 0.929 . S
H511 C520 0.929 . S
C512 H506 0.930 . S
C512 C513 1.367 . S
C512 C520 1.378 . S
C513 C512 1.367 . S
C513 C521 1.433 . S
C514 H510 0.929 . S
C514 C516 1.378 . S
C514 C518 1.350 . S
C515 C518 1.463 . S
C515 C520 1.350 . S
C515 N523 1.427 . S
C516 H507 0.930 . S
C516 C514 1.378 . S
C516 C517 1.367 . S
C517 C516 1.367 . S
C517 C519 1.433 . S
C518 C514 1.350 . S
C518 C515 1.463 . S
C518 N522 1.427 . S
C519 H509 0.929 . S
C519 C517 1.433 . S
C519 N522 1.384 . S
C520 H511 0.929 . S
C520 C512 1.378 . S
C520 C515 1.350 . S
C521 H508 0.929 . S
C521 C513 1.433 . S
C521 N523 1.384 . S
N522 C518 1.427 . S
N522 C519 1.384 . S
N523 C515 1.427 . S
N523 C521 1.384 . S
H524 C530 0.930 . S
H525 C534 0.930 . S
H526 C539 0.929 . S
H527 C537 0.929 . S
H528 C532 0.929 . S
H529 C538 0.929 . S
C530 H524 0.930 . S
C530 C531 1.367 . S
C530 C538 1.378 . S
C531 C530 1.367 . S
C531 C539 1.433 . S
C532 H528 0.929 . S
C532 C534 1.378 . S
C532 C536 1.350 . S
C533 C536 1.463 . S
C533 C538 1.350 . S
C533 N541 1.427 . S
C534 H525 0.930 . S
C534 C532 1.378 . S
C534 C535 1.367 . S
C535 C534 1.367 . S
C535 C537 1.433 . S
C536 C532 1.350 . S
C536 C533 1.463 . S
C536 N540 1.427 . S
C537 H527 0.929 . S
C537 C535 1.433 . S
C537 N540 1.384 . S
C538 H529 0.929 . S
C538 C530 1.378 . S
C538 C533 1.350 . S
C539 H526 0.929 . S
C539 C531 1.433 . S
C539 N541 1.384 . S
N540 C536 1.427 . S
N540 C537 1.384 . S
N541 C533 1.427 . S
N541 C539 1.384 . S
H542 C548 0.930 . S
H543 C552 0.930 . S
H544 C557 0.929 . S
H545 C555 0.929 . S
H546 C550 0.929 . S
H547 C556 0.929 . S
C548 H542 0.930 . S
C548 C549 1.367 . S
C548 C556 1.378 . S
C549 C548 1.367 . S
C549 C557 1.433 . S
C550 H546 0.929 . S
C550 C552 1.378 . S
C550 C554 1.350 . S
C551 C554 1.463 . S
C551 C556 1.350 . S
C551 N559 1.427 . S
C552 H543 0.930 . S
C552 C550 1.378 . S
C552 C553 1.367 . S
C553 C552 1.367 . S
C553 C555 1.433 . S
C554 C550 1.350 . S
C554 C551 1.463 . S
C554 N558 1.427 . S
C555 H545 0.929 . S
C555 C553 1.433 . S
C555 N558 1.384 . S
C556 H547 0.929 . S
C556 C548 1.378 . S
C556 C551 1.350 . S
C557 H544 0.929 . S
C557 C549 1.433 . S
C557 N559 1.384 . S
N558 C554 1.427 . S
N558 C555 1.384 . S
N559 C551 1.427 . S
N559 C557 1.384 . S
H560 C566 0.930 . S
H561 C570 0.930 . S
H562 C575 0.929 . S
H563 C573 0.929 . S
H564 C568 0.929 . S
H565 C574 0.929 . S
C566 H560 0.930 . S
C566 C567 1.367 . S
C566 C574 1.378 . S
C567 C566 1.367 . S
C567 C575 1.433 . S
C568 H564 0.929 . S
C568 C570 1.378 . S
C568 C572 1.350 . S
C569 C572 1.463 . S
C569 C574 1.350 . S
C569 N577 1.427 . S
C570 H561 0.930 . S
C570 C568 1.378 . S
C570 C571 1.367 . S
C571 C570 1.367 . S
C571 C573 1.433 . S
C572 C568 1.350 . S
C572 C569 1.463 . S
C572 N576 1.427 . S
C573 H563 0.929 . S
C573 C571 1.433 . S
C573 N576 1.384 . S
C574 H565 0.929 . S
C574 C566 1.378 . S
C574 C569 1.350 . S
C575 H562 0.929 . S
C575 C567 1.433 . S
C575 N577 1.384 . S
N576 C572 1.427 . S
N576 C573 1.384 . S
N577 C569 1.427 . S
N577 C575 1.384 . S
H578 C584 0.930 . S
H579 C588 0.930 . S
H580 C593 0.929 . S
H581 C591 0.929 . S
H582 C586 0.929 . S
H583 C592 0.929 . S
C584 H578 0.930 . S
C584 C585 1.367 . S
C584 C592 1.378 . S
C585 C584 1.367 . S
C585 C593 1.433 . S
C586 H582 0.929 . S
C586 C588 1.378 . S
C586 C590 1.350 . S
C587 C590 1.463 . S
C587 C592 1.350 . S
C587 N595 1.427 . S
C588 H579 0.930 . S
C588 C586 1.378 . S
C588 C589 1.367 . S
C589 C588 1.367 . S
C589 C591 1.433 . S
C590 C586 1.350 . S
C590 C587 1.463 . S
C590 N594 1.427 . S
C591 H581 0.929 . S
C591 C589 1.433 . S
C591 N594 1.384 . S
C592 H583 0.929 . S
C592 C584 1.378 . S
C592 C587 1.350 . S
C593 H580 0.929 . S
C593 C585 1.433 . S
C593 N595 1.384 . S
N594 C590 1.427 . S
N594 C591 1.384 . S
N595 C587 1.427 . S
N595 C593 1.384 . S
H596 C602 0.930 . S
H597 C606 0.930 . S
H598 C611 0.929 . S
H599 C609 0.929 . S
H600 C604 0.929 . S
H601 C610 0.929 . S
C602 H596 0.930 . S
C602 C603 1.367 . S
C602 C610 1.378 . S
C603 C602 1.367 . S
C603 C611 1.433 . S
C604 H600 0.929 . S
C604 C606 1.378 . S
C604 C608 1.350 . S
C605 C608 1.463 . S
C605 C610 1.350 . S
C605 N613 1.427 . S
C606 H597 0.930 . S
C606 C604 1.378 . S
C606 C607 1.367 . S
C607 C606 1.367 . S
C607 C609 1.433 . S
C608 C604 1.350 . S
C608 C605 1.463 . S
C608 N612 1.427 . S
C609 H599 0.929 . S
C609 C607 1.433 . S
C609 N612 1.384 . S
C610 H601 0.929 . S
C610 C602 1.378 . S
C610 C605 1.350 . S
C611 H598 0.929 . S
C611 C603 1.433 . S
C611 N613 1.384 . S
N612 C608 1.427 . S
N612 C609 1.384 . S
N613 C605 1.427 . S
N613 C611 1.384 . S
H614 C620 0.930 . S
H615 C624 0.930 . S
H616 C629 0.929 . S
H617 C627 0.929 . S
H618 C622 0.929 . S
H619 C628 0.929 . S
C620 H614 0.930 . S
C620 C621 1.367 . S
C620 C628 1.378 . S
C621 C620 1.367 . S
C621 C629 1.433 . S
C622 H618 0.929 . S
C622 C624 1.378 . S
C622 C626 1.350 . S
C623 C626 1.463 . S
C623 C628 1.350 . S
C623 N631 1.427 . S
C624 H615 0.930 . S
C624 C622 1.378 . S
C624 C625 1.367 . S
C625 C624 1.367 . S
C625 C627 1.433 . S
C626 C622 1.350 . S
C626 C623 1.463 . S
C626 N630 1.427 . S
C627 H617 0.929 . S
C627 C625 1.433 . S
C627 N630 1.384 . S
C628 H619 0.929 . S
C628 C620 1.378 . S
C628 C623 1.350 . S
C629 H616 0.929 . S
C629 C621 1.433 . S
C629 N631 1.384 . S
N630 C626 1.427 . S
N630 C627 1.384 . S
N631 C623 1.427 . S
N631 C629 1.384 . S
H632 C638 0.922 1_545 S
H633 C642 0.930 . S
H634 C647 0.929 1_545 S
H635 C645 0.929 1_554 S
H636 C640 0.929 . S
H637 C646 0.929 . S
C638 H632 0.922 1_565 S
C638 C639 1.367 1_564 S
C638 C646 1.378 . S
C639 C638 1.367 1_546 S
C639 C647 1.433 1_545 S
C640 H636 0.929 . S
C640 C642 1.378 . S
C640 C644 1.350 . S
C641 C644 1.463 . S
C641 C646 1.350 1_556 S
C641 N649 1.427 . S
C642 H633 0.930 . S
C642 C640 1.378 . S
C642 C643 1.367 . S
C643 C642 1.367 . S
C643 C645 1.433 . S
C644 C640 1.350 . S
C644 C641 1.463 . S
C644 N648 1.427 1_556 S
C645 H635 0.929 1_556 S
C645 C643 1.433 . S
C645 N648 1.384 1_556 S
C646 H637 0.929 . S
C646 C638 1.378 . S
C646 C641 1.350 1_554 S
C647 H634 0.929 1_565 S
C647 C639 1.433 1_565 S
C647 N649 1.384 . S
N648 C644 1.427 1_554 S
N648 C645 1.384 1_554 S
N649 C641 1.427 . S
N649 C647 1.384 . S
H650 C656 0.930 . S
H651 C660 0.930 . S
H652 C665 0.950 . S
H653 C663 0.929 1_556 S
H654 C658 0.929 . S
H655 C664 0.929 . S
C656 H650 0.930 . S
C656 C657 1.367 1_656 S
C656 C664 1.378 . S
C657 C656 1.367 1_454 S
C657 C665 1.439 . S
C658 H654 0.929 . S
C658 C660 1.378 . S
C658 C662 1.350 . S
C659 C662 1.463 . S
C659 C664 1.350 1_554 S
C659 N667 1.427 . S
C660 H651 0.930 . S
C660 C658 1.378 . S
C660 C661 1.367 . S
C661 C660 1.367 . S
C661 C663 1.433 . S
C662 C658 1.350 . S
C662 C659 1.463 . S
C662 N666 1.426 1_554 S
C663 H653 0.929 1_554 S
C663 C661 1.433 . S
C663 N666 1.383 1_554 S
C664 H655 0.929 . S
C664 C656 1.378 . S
C664 C659 1.350 1_556 S
C665 H652 0.950 . S
C665 C657 1.439 . S
C665 N667 1.357 1_455 S
N666 C662 1.426 1_556 S
N666 C663 1.383 1_556 S
N667 C659 1.427 . S
N667 C665 1.357 1_655 S
H668 C674 0.930 . S
H669 C678 0.930 . S
H670 C683 0.929 . S
H671 C681 0.929 . S
H672 C676 0.929 . S
H673 C682 0.929 . S
C674 H668 0.930 . S
C674 C675 1.367 . S
C674 C682 1.378 1_565 S
C675 C674 1.367 . S
C675 C683 1.433 1_565 S
C676 H672 0.929 . S
C676 C678 1.378 . S
C676 C680 1.350 . S
C677 C680 1.463 . S
C677 C682 1.350 . S
C677 N685 1.427 . S
C678 H669 0.930 . S
C678 C676 1.378 . S
C678 C679 1.367 . S
C679 C678 1.367 . S
C679 C681 1.433 . S
C680 C676 1.350 . S
C680 C677 1.463 . S
C680 N684 1.427 . S
C681 H671 0.929 . S
C681 C679 1.433 . S
C681 N684 1.384 . S
C682 H673 0.929 . S
C682 C674 1.378 1_545 S
C682 C677 1.350 . S
C683 H670 0.929 . S
C683 C675 1.433 1_545 S
C683 N685 1.384 . S
N684 C680 1.427 . S
N684 C681 1.384 . S
N685 C677 1.427 . S
N685 C683 1.384 . S
H686 C692 0.930 . S
H687 C696 0.930 1_556 S
H688 C701 0.929 . S
H689 C699 0.929 . S
H690 C694 0.919 1_556 S
H691 C700 0.929 . S
C692 H686 0.930 . S
C692 C693 1.367 . S
C692 C700 1.378 1_655 S
C693 C692 1.367 . S
C693 C701 1.433 1_654 S
C694 H690 0.919 1_554 S
C694 C696 1.379 . S
C694 C698 1.358 . S
C695 C698 1.463 . S
C695 C700 1.350 . S
C695 N703 1.427 1_554 S
C696 H687 0.930 1_554 S
C696 C694 1.379 . S
C696 C697 1.367 . S
C697 C696 1.367 . S
C697 C699 1.433 . S
C698 C694 1.358 . S
C698 C695 1.463 . S
C698 N702 1.427 . S
C699 H689 0.929 . S
C699 C697 1.433 . S
C699 N702 1.384 . S
C700 H691 0.929 . S
C700 C692 1.378 1_455 S
C700 C695 1.350 . S
C701 H688 0.929 . S
C701 C693 1.433 1_456 S
C701 N703 1.384 . S
N702 C698 1.427 . S
N702 C699 1.384 . S
N703 C695 1.427 1_556 S
N703 C701 1.384 . S
H704 C710 0.930 . S
H705 C714 0.930 . S
H706 C719 0.929 . S
H707 C717 0.929 . S
H708 C712 0.929 . S
H709 C718 0.929 . S
C710 H704 0.930 . S
C710 C711 1.367 . S
C710 C718 1.378 . S
C711 C710 1.367 . S
C711 C719 1.433 . S
C712 H708 0.929 . S
C712 C714 1.378 . S
C712 C716 1.350 . S
C713 C716 1.463 . S
C713 C718 1.350 . S
C713 N721 1.427 . S
C714 H705 0.930 . S
C714 C712 1.378 . S
C714 C715 1.367 . S
C715 C714 1.367 . S
C715 C717 1.433 . S
C716 C712 1.350 . S
C716 C713 1.463 . S
C716 N720 1.427 . S
C717 H707 0.929 . S
C717 C715 1.433 . S
C717 N720 1.384 . S
C718 H709 0.929 . S
C718 C710 1.378 . S
C718 C713 1.350 . S
C719 H706 0.929 . S
C719 C711 1.433 . S
C719 N721 1.384 . S
N720 C716 1.427 . S
N720 C717 1.384 . S
N721 C713 1.427 . S
N721 C719 1.384 . S
H722 C728 0.930 . S
H723 C732 0.930 . S
H724 C737 0.929 . S
H725 C735 0.929 . S
H726 C730 0.929 . S
H727 C736 0.929 . S
C728 H722 0.930 . S
C728 C729 1.367 . S
C728 C736 1.378 . S
C729 C728 1.367 . S
C729 C737 1.433 . S
C730 H726 0.929 . S
C730 C732 1.378 . S
C730 C734 1.350 . S
C731 C734 1.463 . S
C731 C736 1.350 . S
C731 N739 1.427 . S
C732 H723 0.930 . S
C732 C730 1.378 . S
C732 C733 1.367 . S
C733 C732 1.367 . S
C733 C735 1.433 . S
C734 C730 1.350 . S
C734 C731 1.463 . S
C734 N738 1.427 . S
C735 H725 0.929 . S
C735 C733 1.433 . S
C735 N738 1.384 . S
C736 H727 0.929 . S
C736 C728 1.378 . S
C736 C731 1.350 . S
C737 H724 0.929 . S
C737 C729 1.433 . S
C737 N739 1.384 . S
N738 C734 1.427 . S
N738 C735 1.384 . S
N739 C731 1.427 . S
N739 C737 1.384 . S
H740 C746 0.930 . S
H741 C750 0.930 . S
H742 C755 0.929 . S
H743 C753 0.929 . S
H744 C748 0.929 . S
H745 C754 0.929 . S
C746 H740 0.930 . S
C746 C747 1.367 . S
C746 C754 1.378 . S
C747 C746 1.367 . S
C747 C755 1.433 . S
C748 H744 0.929 . S
C748 C750 1.378 . S
C748 C752 1.350 . S
C749 C752 1.463 . S
C749 C754 1.350 . S
C749 N757 1.427 . S
C750 H741 0.930 . S
C750 C748 1.378 . S
C750 C751 1.367 . S
C751 C750 1.367 . S
C751 C753 1.433 . S
C752 C748 1.350 . S
C752 C749 1.463 . S
C752 N756 1.427 . S
C753 H743 0.929 . S
C753 C751 1.433 . S
C753 N756 1.384 . S
C754 H745 0.929 . S
C754 C746 1.378 . S
C754 C749 1.350 . S
C755 H742 0.929 . S
C755 C747 1.433 . S
C755 N757 1.384 . S
N756 C752 1.427 . S
N756 C753 1.384 . S
N757 C749 1.427 . S
N757 C755 1.384 . S
H758 C764 0.930 . S
H759 C768 0.930 . S
H760 C773 0.929 . S
H761 C771 0.929 . S
H762 C766 0.929 . S
H763 C772 0.929 . S
C764 H758 0.930 . S
C764 C765 1.367 . S
C764 C772 1.378 . S
C765 C764 1.367 . S
C765 C773 1.433 . S
C766 H762 0.929 . S
C766 C768 1.378 . S
C766 C770 1.350 . S
C767 C770 1.463 . S
C767 C772 1.350 . S
C767 N775 1.427 . S
C768 H759 0.930 . S
C768 C766 1.378 . S
C768 C769 1.367 . S
C769 C768 1.367 . S
C769 C771 1.433 . S
C770 C766 1.350 . S
C770 C767 1.463 . S
C770 N774 1.427 . S
C771 H761 0.929 . S
C771 C769 1.433 . S
C771 N774 1.384 . S
C772 H763 0.929 . S
C772 C764 1.378 . S
C772 C767 1.350 . S
C773 H760 0.929 . S
C773 C765 1.433 . S
C773 N775 1.384 . S
N774 C770 1.427 . S
N774 C771 1.384 . S
N775 C767 1.427 . S
N775 C773 1.384 . S
C279 C15 0.645 . S
C283 C239 0.680 . S
C297 C56 0.650 . S
C301 C139 0.686 . S
C315 C171 0.677 . S
C319 C83 0.651 . S
C333 C117 0.653 . S
C337 C207 0.664 . S
C351 C151 0.649 . S
C355 C105 0.667 . S
C369 C192 0.645 . S
C373 C3 0.702 . S
C387 C219 0.652 . S
C391 C35 0.674 . S
C405 C260 0.642 . S
C409 C71 0.698 . S
C423 C28 1.555 . S
C427 C96 1.559 . S
C441 C130 1.560 . S
C445 C40 1.554 . S
C459 C164 1.555 . S
C463 C232 1.561 . S
C477 C176 1.556 . S
C481 C244 1.557 . S
C495 C205 1.529 . S
C499 C22 1.689 . S
C513 C49 1.689 . S
C517 C241 1.530 . S
C531 C137 1.546 . S
C535 C90 1.695 . S
C549 C124 1.682 . S
C553 C173 1.524 . S
C567 C158 1.683 . S
C571 C69 1.529 . S
C585 C103 1.539 . S
C589 C185 1.694 . S
C603 C226 1.684 . S
C607 C1 1.532 . S
C621 C37 1.526 . S
C625 C253 1.682 . S
C639 C17 1.907 1_556 S
C643 C62 1.941 . S
C657 C51 1.908 1_554 S
C661 C74 1.942 . S
C675 C85 1.912 1_556 S
C679 C108 1.935 . S
C693 C119 1.918 1_554 S
C697 C6 1.936 . S
C711 C198 1.938 . S
C715 C153 1.918 . S
C729 C210 1.943 . S
C733 C187 1.909 . S
C747 C221 1.918 . S
C751 C266 1.938 . S
C765 C142 1.943 . S
C769 C255 1.910 . S
