# Generated by pormake.
# Topology afi, (4)-cn, num edge types: 1
# Building blocks:
#     Node 0, Type 0, BuildingBlock: TATPOV_clean_sbu_0, # of connection points: 4
#     Node 1, Type 0, BuildingBlock: TATPOV_clean_sbu_0, # of connection points: 4
#     Node 2, Type 0, BuildingBlock: TATPOV_clean_sbu_0, # of connection points: 4
#     Node 3, Type 0, BuildingBlock: TATPOV_clean_sbu_0, # of connection points: 4
#     Node 4, Type 0, BuildingBlock: TATPOV_clean_sbu_0, # of connection points: 4
#     Node 5, Type 0, BuildingBlock: TATPOV_clean_sbu_0, # of connection points: 4
#     Node 6, Type 0, BuildingBlock: TATPOV_clean_sbu_0, # of connection points: 4
#     Node 7, Type 0, BuildingBlock: TATPOV_clean_sbu_0, # of connection points: 4
#     Node 8, Type 0, BuildingBlock: TATPOV_clean_sbu_0, # of connection points: 4
#     Node 9, Type 0, BuildingBlock: TATPOV_clean_sbu_0, # of connection points: 4
#     Node 10, Type 0, BuildingBlock: TATPOV_clean_sbu_0, # of connection points: 4
#     Node 11, Type 0, BuildingBlock: TATPOV_clean_sbu_0, # of connection points: 4
#     Node 12, Type 0, BuildingBlock: TATPOV_clean_sbu_0, # of connection points: 4
#     Node 13, Type 0, BuildingBlock: TATPOV_clean_sbu_0, # of connection points: 4
#     Node 14, Type 0, BuildingBlock: TATPOV_clean_sbu_0, # of connection points: 4
#     Node 15, Type 0, BuildingBlock: TATPOV_clean_sbu_0, # of connection points: 4
#     Node 16, Type 0, BuildingBlock: TATPOV_clean_sbu_0, # of connection points: 4
#     Node 17, Type 0, BuildingBlock: TATPOV_clean_sbu_0, # of connection points: 4
#     Node 18, Type 0, BuildingBlock: TATPOV_clean_sbu_0, # of connection points: 4
#     Node 19, Type 0, BuildingBlock: TATPOV_clean_sbu_0, # of connection points: 4
#     Node 20, Type 0, BuildingBlock: TATPOV_clean_sbu_0, # of connection points: 4
#     Node 21, Type 0, BuildingBlock: TATPOV_clean_sbu_0, # of connection points: 4
#     Node 22, Type 0, BuildingBlock: TATPOV_clean_sbu_0, # of connection points: 4
#     Node 23, Type 0, BuildingBlock: TATPOV_clean_sbu_0, # of connection points: 4
#     Edge 24, Type (0, 0), BuildingBlock: OJICUG_clean_linker_0, # of connection points: 2
#     Edge 25, Type (0, 0), BuildingBlock: OJICUG_clean_linker_0, # of connection points: 2
#     Edge 26, Type (0, 0), BuildingBlock: OJICUG_clean_linker_0, # of connection points: 2
#     Edge 27, Type (0, 0), BuildingBlock: OJICUG_clean_linker_0, # of connection points: 2
#     Edge 28, Type (0, 0), BuildingBlock: OJICUG_clean_linker_0, # of connection points: 2
#     Edge 29, Type (0, 0), BuildingBlock: OJICUG_clean_linker_0, # of connection points: 2
#     Edge 30, Type (0, 0), BuildingBlock: OJICUG_clean_linker_0, # of connection points: 2
#     Edge 31, Type (0, 0), BuildingBlock: OJICUG_clean_linker_0, # of connection points: 2
#     Edge 32, Type (0, 0), BuildingBlock: OJICUG_clean_linker_0, # of connection points: 2
#     Edge 33, Type (0, 0), BuildingBlock: OJICUG_clean_linker_0, # of connection points: 2
#     Edge 34, Type (0, 0), BuildingBlock: OJICUG_clean_linker_0, # of connection points: 2
#     Edge 35, Type (0, 0), BuildingBlock: OJICUG_clean_linker_0, # of connection points: 2
#     Edge 36, Type (0, 0), BuildingBlock: OJICUG_clean_linker_0, # of connection points: 2
#     Edge 37, Type (0, 0), BuildingBlock: OJICUG_clean_linker_0, # of connection points: 2
#     Edge 38, Type (0, 0), BuildingBlock: OJICUG_clean_linker_0, # of connection points: 2
#     Edge 39, Type (0, 0), BuildingBlock: OJICUG_clean_linker_0, # of connection points: 2
#     Edge 40, Type (0, 0), BuildingBlock: OJICUG_clean_linker_0, # of connection points: 2
#     Edge 41, Type (0, 0), BuildingBlock: OJICUG_clean_linker_0, # of connection points: 2
#     Edge 42, Type (0, 0), BuildingBlock: OJICUG_clean_linker_0, # of connection points: 2
#     Edge 43, Type (0, 0), BuildingBlock: OJICUG_clean_linker_0, # of connection points: 2
#     Edge 44, Type (0, 0), BuildingBlock: OJICUG_clean_linker_0, # of connection points: 2
#     Edge 45, Type (0, 0), BuildingBlock: OJICUG_clean_linker_0, # of connection points: 2
#     Edge 46, Type (0, 0), BuildingBlock: OJICUG_clean_linker_0, # of connection points: 2
#     Edge 47, Type (0, 0), BuildingBlock: OJICUG_clean_linker_0, # of connection points: 2
#     Edge 48, Type (0, 0), BuildingBlock: OJICUG_clean_linker_0, # of connection points: 2
#     Edge 49, Type (0, 0), BuildingBlock: OJICUG_clean_linker_0, # of connection points: 2
#     Edge 50, Type (0, 0), BuildingBlock: OJICUG_clean_linker_0, # of connection points: 2
#     Edge 51, Type (0, 0), BuildingBlock: OJICUG_clean_linker_0, # of connection points: 2
#     Edge 52, Type (0, 0), BuildingBlock: OJICUG_clean_linker_0, # of connection points: 2
#     Edge 53, Type (0, 0), BuildingBlock: OJICUG_clean_linker_0, # of connection points: 2
#     Edge 54, Type (0, 0), BuildingBlock: OJICUG_clean_linker_0, # of connection points: 2
#     Edge 55, Type (0, 0), BuildingBlock: OJICUG_clean_linker_0, # of connection points: 2
#     Edge 56, Type (0, 0), BuildingBlock: OJICUG_clean_linker_0, # of connection points: 2
#     Edge 57, Type (0, 0), BuildingBlock: OJICUG_clean_linker_0, # of connection points: 2
#     Edge 58, Type (0, 0), BuildingBlock: OJICUG_clean_linker_0, # of connection points: 2
#     Edge 59, Type (0, 0), BuildingBlock: OJICUG_clean_linker_0, # of connection points: 2
#     Edge 60, Type (0, 0), BuildingBlock: OJICUG_clean_linker_0, # of connection points: 2
#     Edge 61, Type (0, 0), BuildingBlock: OJICUG_clean_linker_0, # of connection points: 2
#     Edge 62, Type (0, 0), BuildingBlock: OJICUG_clean_linker_0, # of connection points: 2
#     Edge 63, Type (0, 0), BuildingBlock: OJICUG_clean_linker_0, # of connection points: 2
#     Edge 64, Type (0, 0), BuildingBlock: OJICUG_clean_linker_0, # of connection points: 2
#     Edge 65, Type (0, 0), BuildingBlock: OJICUG_clean_linker_0, # of connection points: 2
#     Edge 66, Type (0, 0), BuildingBlock: OJICUG_clean_linker_0, # of connection points: 2
#     Edge 67, Type (0, 0), BuildingBlock: OJICUG_clean_linker_0, # of connection points: 2
#     Edge 68, Type (0, 0), BuildingBlock: OJICUG_clean_linker_0, # of connection points: 2
#     Edge 69, Type (0, 0), BuildingBlock: OJICUG_clean_linker_0, # of connection points: 2
#     Edge 70, Type (0, 0), BuildingBlock: OJICUG_clean_linker_0, # of connection points: 2
#     Edge 71, Type (0, 0), BuildingBlock: OJICUG_clean_linker_0, # of connection points: 2
# Relax obj value: 0.049
# Max RMSD: 0.069
# Mean RMSD: 0.069
data_MOF--net-afi--node1-TATPOV_clean_sbu_0--edge1-OJICUG_clean_linker_0
_symmetry_space_group_name_H-M    P1
_symmetry_Int_Tables_number       1
_symmetry_cell_setting            triclinic
loop_
_symmetry_equiv_pos_as_xyz
'x, y, z'
_cell_length_a     49.190696
_cell_length_b     49.602031
_cell_length_c     28.559458
_cell_angle_alpha  90.01701
_cell_angle_beta   90.000585
_cell_angle_gamma 119.92828
loop_
_atom_site_label
_atom_site_type_symbol
_atom_site_fract_x
_atom_site_fract_y
_atom_site_fract_z
_atom_type_partial_charge
Zn0 Zn 0.44019 0.10289 0.34257 0.0
Zn1 Zn 0.44068 0.103 0.24615 0.0
O2 O 0.39603 0.06977 0.26357 0.0
O3 O 0.39428 0.07028 0.34059 0.0
O4 O 0.4405 0.1032 0.17532 0.0
O5 O 0.45344 0.14831 0.34085 0.0
O6 O 0.45272 0.14731 0.26367 0.0
C7 C 0.38082 0.05956 0.30168 0.0
C8 C 0.48474 0.08789 0.30167 0.0
O9 O 0.47434 0.09213 0.26316 0.0
O10 O 0.47359 0.0905 0.34031 0.0
C11 C 0.43369 0.07862 0.15245 0.0
O12 O 0.42679 0.05308 0.17557 0.0
C13 C 0.45731 0.16207 0.30202 0.0
Zn14 Zn 0.27917 0.3739 0.34196 0.0
Zn15 Zn 0.27973 0.37497 0.24617 0.0
O16 O 0.2979 0.34734 0.26398 0.0
O17 O 0.2959 0.34423 0.34091 0.0
O18 O 0.27912 0.3743 0.17537 0.0
O19 O 0.23303 0.3596 0.34158 0.0
O20 O 0.23478 0.36223 0.26461 0.0
C21 C 0.30339 0.33751 0.30201 0.0
C22 C 0.32062 0.43449 0.30072 0.0
O23 O 0.31051 0.42003 0.26211 0.0
O24 O 0.31076 0.42023 0.33931 0.0
C25 C 0.26333 0.34911 0.15264 0.0
O26 O 0.247 0.32298 0.17586 0.0
C27 C 0.2196 0.3573 0.30277 0.0
Zn28 Zn 0.83038 0.31423 0.34555 0.0
Zn29 Zn 0.8309 0.31459 0.24913 0.0
O30 O 0.87604 0.32768 0.26588 0.0
O31 O 0.8766 0.32804 0.34309 0.0
O32 O 0.8305 0.31484 0.17827 0.0
O33 O 0.79925 0.26831 0.34338 0.0
O34 O 0.80038 0.26942 0.26624 0.0
C35 C 0.8907 0.33191 0.30439 0.0
C36 C 0.81348 0.357 0.30536 0.0
O37 O 0.81826 0.34681 0.26709 0.0
O38 O 0.81649 0.34638 0.34415 0.0
C39 C 0.83837 0.2979 0.15512 0.0
O40 O 0.84675 0.2802 0.17795 0.0
C41 C 0.79046 0.25438 0.30443 0.0
Zn42 Zn 0.48808 0.8466 0.34264 0.0
Zn43 Zn 0.48769 0.8466 0.24618 0.0
O44 O 0.53213 0.88026 0.2635 0.0
O45 O 0.5338 0.8797 0.34054 0.0
O46 O 0.48773 0.84637 0.17534 0.0
O47 O 0.47579 0.80144 0.3408 0.0
O48 O 0.47681 0.8026 0.26364 0.0
C49 C 0.54725 0.89056 0.30168 0.0
C50 C 0.44314 0.86104 0.3019 0.0
O51 O 0.45365 0.85694 0.2634 0.0
O52 O 0.45429 0.85844 0.34054 0.0
C53 C 0.49284 0.87046 0.15249 0.0
O54 O 0.49807 0.89551 0.17562 0.0
C55 C 0.47255 0.78788 0.30194 0.0
Zn56 Zn 0.65979 0.58013 0.34209 0.0
Zn57 Zn 0.65949 0.57926 0.24637 0.0
O58 O 0.6415 0.607 0.26456 0.0
O59 O 0.64331 0.61002 0.34148 0.0
O60 O 0.66069 0.58075 0.17554 0.0
O61 O 0.70584 0.59401 0.3423 0.0
O62 O 0.70417 0.59128 0.26534 0.0
C63 C 0.63597 0.61685 0.30255 0.0
C64 C 0.6183 0.51962 0.30008 0.0
O65 O 0.62847 0.53411 0.26152 0.0
O66 O 0.62808 0.53385 0.33873 0.0
C67 C 0.63582 0.5735 0.15257 0.0
O68 O 0.6097 0.5653 0.1756 0.0
C69 C 0.71923 0.59599 0.30357 0.0
Zn70 Zn 0.10489 0.63416 0.34545 0.0
Zn71 Zn 0.1044 0.6338 0.24905 0.0
O72 O 0.05909 0.62003 0.2654 0.0
O73 O 0.05854 0.61973 0.34262 0.0
O74 O 0.10514 0.63388 0.17819 0.0
O75 O 0.13535 0.68025 0.34361 0.0
O76 O 0.13401 0.67914 0.26647 0.0
C77 C 0.04441 0.61563 0.30391 0.0
C78 C 0.12233 0.59179 0.30545 0.0
O79 O 0.11748 0.60192 0.26718 0.0
O80 O 0.11928 0.6024 0.34423 0.0
C81 C 0.08932 0.60872 0.15537 0.0
O82 O 0.0725 0.58266 0.17854 0.0
C83 C 0.1437 0.69425 0.30467 0.0
Zn84 Zn 0.84926 0.53743 0.26209 0.0
Zn85 Zn 0.84964 0.53766 0.35824 0.0
O86 O 0.89601 0.56121 0.34127 0.0
O87 O 0.89656 0.56136 0.26409 0.0
O88 O 0.84941 0.53784 0.42909 0.0
O89 O 0.82506 0.56032 0.26319 0.0
O90 O 0.82508 0.55941 0.3403 0.0
C91 C 0.91109 0.56853 0.30278 0.0
C92 C 0.82218 0.47625 0.30322 0.0
O93 O 0.8294 0.49156 0.34143 0.0
O94 O 0.82732 0.49032 0.26437 0.0
C95 C 0.86275 0.56334 0.45166 0.0
O96 O 0.87661 0.58964 0.42824 0.0
C97 C 0.81752 0.56711 0.30199 0.0
Zn98 Zn 0.28192 0.87955 0.26087 0.0
Zn99 Zn 0.28319 0.87975 0.35668 0.0
O100 O 0.28769 0.92147 0.33794 0.0
O101 O 0.28407 0.92118 0.26115 0.0
O102 O 0.28218 0.87995 0.42748 0.0
O103 O 0.24123 0.83893 0.26181 0.0
O104 O 0.24373 0.83944 0.33882 0.0
C105 C 0.28794 0.93503 0.29993 0.0
C106 C 0.33514 0.87766 0.30218 0.0
O107 O 0.32247 0.87793 0.34092 0.0
O108 O 0.32264 0.87839 0.2637 0.0
C109 C 0.304 0.90218 0.45048 0.0
O110 O 0.3271 0.92512 0.42751 0.0
C111 C 0.23021 0.82596 0.30084 0.0
Zn112 Zn 0.46975 0.33482 0.25846 0.0
Zn113 Zn 0.46974 0.33504 0.35506 0.0
O114 O 0.42637 0.32801 0.3384 0.0
O115 O 0.4253 0.32699 0.26123 0.0
O116 O 0.47031 0.3352 0.42591 0.0
O117 O 0.47641 0.29804 0.2605 0.0
O118 O 0.4749 0.29814 0.33764 0.0
C119 C 0.41186 0.32481 0.30003 0.0
C120 C 0.51811 0.3918 0.29876 0.0
O121 O 0.50628 0.37774 0.33716 0.0
O122 O 0.50668 0.37854 0.26002 0.0
C123 C 0.46865 0.35633 0.44879 0.0
O124 O 0.46656 0.37814 0.4257 0.0
C125 C 0.47716 0.28619 0.2994 0.0
Zn126 Zn 0.08575 0.41086 0.26197 0.0
Zn127 Zn 0.08569 0.41069 0.35815 0.0
O128 O 0.03925 0.38671 0.34132 0.0
O129 O 0.03845 0.38637 0.26415 0.0
O130 O 0.08599 0.41017 0.42905 0.0
O131 O 0.11064 0.38866 0.2626 0.0
O132 O 0.11084 0.38963 0.33971 0.0
C133 C 0.02404 0.37915 0.30293 0.0
C134 C 0.11252 0.47205 0.30333 0.0
O135 O 0.10559 0.45681 0.34158 0.0
O136 O 0.10721 0.45793 0.26448 0.0
C137 C 0.07257 0.42218 0.45212 0.0
O138 O 0.05865 0.4349 0.42919 0.0
C139 C 0.11856 0.38218 0.30131 0.0
Zn140 Zn 0.64681 0.07079 0.26072 0.0
Zn141 Zn 0.64566 0.07073 0.35665 0.0
O142 O 0.64072 0.02881 0.33816 0.0
O143 O 0.64424 0.02898 0.26136 0.0
O144 O 0.64661 0.07068 0.42749 0.0
O145 O 0.68782 0.11107 0.26161 0.0
O146 O 0.68557 0.11061 0.33865 0.0
C147 C 0.64031 0.01516 0.30015 0.0
C148 C 0.59379 0.07301 0.30197 0.0
O149 O 0.60651 0.07281 0.3407 0.0
O150 O 0.60625 0.07222 0.26349 0.0
C151 C 0.62432 0.04893 0.45049 0.0
O152 O 0.60078 0.02643 0.42751 0.0
C153 C 0.69917 0.12389 0.30062 0.0
Zn154 Zn 0.46959 0.61908 0.25859 0.0
Zn155 Zn 0.46959 0.61906 0.35518 0.0
O156 O 0.51317 0.62667 0.33835 0.0
O157 O 0.51425 0.62751 0.2612 0.0
O158 O 0.46925 0.61909 0.42599 0.0
O159 O 0.46199 0.6553 0.26051 0.0
O160 O 0.46321 0.65521 0.33767 0.0
C161 C 0.52775 0.62992 0.30002 0.0
C162 C 0.4216 0.56195 0.29935 0.0
O163 O 0.43336 0.57612 0.33771 0.0
O164 O 0.43299 0.57516 0.26057 0.0
C165 C 0.47235 0.59877 0.4488 0.0
O166 O 0.47578 0.57776 0.42564 0.0
C167 C 0.4606 0.66685 0.29936 0.0
Zn168 Zn 0.49003 0.84773 0.75911 0.0
Zn169 Zn 0.48939 0.84731 0.85567 0.0
O170 O 0.53386 0.88105 0.83887 0.0
O171 O 0.53575 0.88089 0.76182 0.0
O172 O 0.48905 0.84681 0.92651 0.0
O173 O 0.47779 0.80256 0.76058 0.0
O174 O 0.47853 0.80338 0.83776 0.0
C175 C 0.54908 0.89156 0.80083 0.0
C176 C 0.445 0.86199 0.79996 0.0
O177 O 0.45547 0.85775 0.83839 0.0
O178 O 0.45617 0.85951 0.76126 0.0
C179 C 0.49379 0.87077 0.94941 0.0
O180 O 0.49898 0.89581 0.92632 0.0
C181 C 0.47439 0.78883 0.79931 0.0
Zn182 Zn 0.66051 0.58019 0.75986 0.0
Zn183 Zn 0.65959 0.5792 0.85568 0.0
O184 O 0.64112 0.60645 0.83716 0.0
O185 O 0.64327 0.60948 0.76024 0.0
O186 O 0.66055 0.58063 0.9265 0.0
O187 O 0.70676 0.59481 0.76045 0.0
O188 O 0.70453 0.59196 0.83738 0.0
C189 C 0.63556 0.61612 0.79903 0.0
C190 C 0.61939 0.51946 0.80148 0.0
O191 O 0.62915 0.53395 0.84015 0.0
O192 O 0.62931 0.53376 0.76293 0.0
C193 C 0.63568 0.57336 0.94949 0.0
O194 O 0.60953 0.5651 0.92649 0.0
C195 C 0.71995 0.59699 0.79944 0.0
Zn196 Zn 0.10572 0.63268 0.76214 0.0
Zn197 Zn 0.10528 0.63288 0.85841 0.0
O198 O 0.06013 0.61977 0.84186 0.0
O199 O 0.05954 0.61897 0.76466 0.0
O200 O 0.10589 0.63331 0.92929 0.0
O201 O 0.13669 0.6786 0.76336 0.0
O202 O 0.13546 0.67803 0.8405 0.0
C203 C 0.04549 0.61538 0.80331 0.0
C204 C 0.12233 0.58991 0.80284 0.0
O205 O 0.11766 0.60035 0.84095 0.0
O206 O 0.11949 0.60049 0.76391 0.0
C207 C 0.08981 0.60829 0.95227 0.0
O208 O 0.07287 0.58217 0.92926 0.0
C209 C 0.14527 0.69284 0.8021 0.0
Zn210 Zn 0.43834 0.10174 0.75915 0.0
Zn211 Zn 0.4391 0.10235 0.85567 0.0
O212 O 0.39443 0.06903 0.83872 0.0
O213 O 0.39244 0.06906 0.7617 0.0
O214 O 0.43928 0.10284 0.9265 0.0
O215 O 0.45155 0.14717 0.7605 0.0
O216 O 0.45113 0.14657 0.83769 0.0
C217 C 0.37911 0.05856 0.80075 0.0
C218 C 0.48301 0.08697 0.80023 0.0
O219 O 0.47265 0.09138 0.83864 0.0
O220 O 0.47183 0.08941 0.76152 0.0
C221 C 0.43282 0.07836 0.94938 0.0
O222 O 0.42599 0.05284 0.92627 0.0
C223 C 0.45557 0.16113 0.7992 0.0
Zn224 Zn 0.27856 0.37371 0.76023 0.0
Zn225 Zn 0.27983 0.37499 0.8561 0.0
O226 O 0.29846 0.34785 0.83788 0.0
O227 O 0.29605 0.34465 0.76096 0.0
O228 O 0.27955 0.37441 0.92691 0.0
O229 O 0.23223 0.35866 0.76149 0.0
O230 O 0.23462 0.36152 0.83842 0.0
C231 C 0.30395 0.33815 0.79969 0.0
C232 C 0.31967 0.43457 0.80108 0.0
O233 O 0.31002 0.42015 0.8398 0.0
O234 O 0.30963 0.42019 0.7626 0.0
C235 C 0.26353 0.34923 0.94956 0.0
O236 O 0.24694 0.32318 0.92624 0.0
C237 C 0.21905 0.35622 0.80058 0.0
Zn238 Zn 0.82983 0.31567 0.7622 0.0
Zn239 Zn 0.83031 0.31554 0.85849 0.0
O240 O 0.87528 0.32796 0.84159 0.0
O241 O 0.87586 0.32874 0.7644 0.0
O242 O 0.82999 0.3154 0.92936 0.0
O243 O 0.79819 0.26992 0.76368 0.0
O244 O 0.79922 0.27058 0.84083 0.0
C245 C 0.88988 0.33215 0.80304 0.0
C246 C 0.81377 0.35888 0.8031 0.0
O247 O 0.81837 0.3484 0.84123 0.0
O248 O 0.81657 0.34825 0.76418 0.0
C249 C 0.83794 0.29835 0.95202 0.0
O250 O 0.84628 0.2808 0.92868 0.0
C251 C 0.78917 0.2558 0.80243 0.0
Zn252 Zn 0.08454 0.40825 0.84532 0.0
Zn253 Zn 0.08443 0.40866 0.74901 0.0
O254 O 0.038 0.38488 0.76578 0.0
O255 O 0.03722 0.38394 0.84295 0.0
O256 O 0.0849 0.40868 0.67811 0.0
O257 O 0.10938 0.38596 0.84384 0.0
O258 O 0.10938 0.38733 0.76676 0.0
C259 C 0.0228 0.37712 0.80417 0.0
C260 C 0.11151 0.4697 0.8048 0.0
O261 O 0.10457 0.45465 0.76637 0.0
O262 O 0.1061 0.45538 0.84347 0.0
C263 C 0.07182 0.42111 0.65524 0.0
O264 O 0.05799 0.43385 0.67838 0.0
C265 C 0.11717 0.37964 0.80487 0.0
Zn266 Zn 0.64574 0.07145 0.84317 0.0
Zn267 Zn 0.64523 0.07174 0.74727 0.0
O268 O 0.64102 0.03012 0.76577 0.0
O269 O 0.64409 0.03007 0.84261 0.0
O270 O 0.64646 0.07162 0.67643 0.0
O271 O 0.68632 0.11214 0.84286 0.0
O272 O 0.68468 0.11196 0.76578 0.0
C273 C 0.64068 0.01647 0.80372 0.0
C274 C 0.59249 0.07284 0.80117 0.0
O275 O 0.6056 0.07307 0.76262 0.0
O276 O 0.60478 0.07208 0.83982 0.0
C277 C 0.62428 0.04964 0.65358 0.0
O278 O 0.60084 0.02716 0.67672 0.0
C279 C 0.69784 0.12521 0.80408 0.0
Zn280 Zn 0.46917 0.61893 0.84197 0.0
Zn281 Zn 0.46913 0.61877 0.74552 0.0
O282 O 0.51254 0.62584 0.76236 0.0
O283 O 0.51362 0.6268 0.8395 0.0
O284 O 0.46883 0.61879 0.67471 0.0
O285 O 0.46216 0.65549 0.84009 0.0
O286 O 0.46339 0.65536 0.76294 0.0
C287 C 0.52706 0.62897 0.80071 0.0
C288 C 0.42068 0.56199 0.80147 0.0
O289 O 0.43251 0.57601 0.76304 0.0
O290 O 0.43223 0.57523 0.84019 0.0
C291 C 0.47203 0.59854 0.65186 0.0
O292 O 0.4755 0.57755 0.67498 0.0
C293 C 0.461 0.66716 0.80124 0.0
Zn294 Zn 0.85078 0.54013 0.84498 0.0
Zn295 Zn 0.85112 0.53959 0.74871 0.0
O296 O 0.89751 0.56301 0.76558 0.0
O297 O 0.8981 0.5639 0.84276 0.0
O298 O 0.85066 0.5391 0.67787 0.0
O299 O 0.82661 0.56309 0.84297 0.0
O300 O 0.82676 0.56162 0.7659 0.0
C301 C 0.91261 0.5706 0.80406 0.0
C302 C 0.8235 0.47862 0.80486 0.0
O303 O 0.83069 0.49365 0.76641 0.0
O304 O 0.82877 0.49298 0.84349 0.0
C305 C 0.86364 0.56438 0.65475 0.0
O306 O 0.87741 0.59092 0.67759 0.0
C307 C 0.81916 0.56962 0.80389 0.0
Zn308 Zn 0.28315 0.87897 0.84291 0.0
Zn309 Zn 0.28372 0.87874 0.74713 0.0
O310 O 0.28749 0.92016 0.76591 0.0
O311 O 0.28434 0.92015 0.84273 0.0
O312 O 0.2824 0.87897 0.67633 0.0
O313 O 0.24291 0.83794 0.84255 0.0
O314 O 0.24477 0.83808 0.7655 0.0
C315 C 0.28768 0.93374 0.80387 0.0
C316 C 0.33659 0.8779 0.80084 0.0
O317 O 0.3235 0.8777 0.76228 0.0
O318 O 0.32427 0.87864 0.83948 0.0
C319 C 0.30409 0.90144 0.65354 0.0
O320 O 0.32709 0.92435 0.67672 0.0
C321 C 0.23172 0.82468 0.80375 0.0
Zn322 Zn 0.47035 0.33496 0.842 0.0
Zn323 Zn 0.47028 0.33521 0.74555 0.0
O324 O 0.42711 0.32873 0.76227 0.0
O325 O 0.42611 0.32767 0.83943 0.0
O326 O 0.47077 0.33537 0.6747 0.0
O327 O 0.47642 0.29784 0.83996 0.0
O328 O 0.4748 0.29788 0.76284 0.0
C329 C 0.41269 0.32568 0.80068 0.0
C330 C 0.51916 0.39167 0.80195 0.0
O331 O 0.50722 0.37773 0.7635 0.0
O332 O 0.50761 0.37843 0.84064 0.0
C333 C 0.46901 0.35646 0.65188 0.0
O334 O 0.46692 0.37825 0.67505 0.0
C335 C 0.47689 0.28584 0.80106 0.0
C336 C 0.33503 0.01653 0.3431 0.0
C337 C 0.34928 0.03162 0.30097 0.0
H338 H 0.30301 0.9735 0.37587 0.0
C339 C 0.33585 0.01681 0.25834 0.0
H340 H 0.34426 0.02762 0.37658 0.0
C341 C 0.3119 -0.01421 0.25794 0.0
C342 C 0.30136 0.96913 0.30016 0.0
H343 H 0.34575 0.02812 0.22523 0.0
H344 H 0.3043 0.97407 0.22448 0.0
C345 C 0.31119 -0.01453 0.3427 0.0
C346 C 0.36506 0.3203 0.25835 0.0
C347 C 0.38002 0.32079 0.30054 0.0
H348 H 0.32814 0.32424 0.22566 0.0
C349 C 0.36538 0.31999 0.34314 0.0
H350 H 0.37539 0.32025 0.22488 0.0
C351 C 0.33805 0.32195 0.34359 0.0
C352 C 0.32505 0.32499 0.30142 0.0
H353 H 0.37597 0.3197 0.37626 0.0
H354 H 0.32863 0.32356 0.37709 0.0
C355 C 0.33779 0.32235 0.25878 0.0
C356 C 0.94107 0.34765 0.34635 0.0
C357 C 0.92442 0.34189 0.30408 0.0
H358 H -0.01442 0.36368 0.3792 0.0
C359 C 0.94045 0.3464 0.26153 0.0
H360 H 0.92936 0.34421 0.37976 0.0
C361 C -0.02733 0.35744 0.26123 0.0
C362 C -0.01048 0.36424 0.30346 0.0
H363 H 0.92826 0.34194 0.22836 0.0
H364 H -0.01555 0.36136 0.22779 0.0
C365 C -0.0267 0.35872 0.34605 0.0
C366 C 0.59222 0.93338 0.25851 0.0
C367 C 0.5787 0.91859 0.3011 0.0
H368 H 0.6239 -0.02393 0.22473 0.0
C369 C 0.59285 0.93369 0.34328 0.0
H370 H 0.58238 0.92205 0.22538 0.0
C371 C 0.61672 0.96473 0.34295 0.0
C372 C 0.6267 -0.01896 0.30042 0.0
H373 H 0.58354 0.92263 0.37674 0.0
H374 H 0.62487 -0.02328 0.37613 0.0
C375 C 0.6162 0.96438 0.25817 0.0
C376 C 0.57424 0.63488 0.34331 0.0
C377 C 0.55962 0.63401 0.30064 0.0
H378 H 0.61088 0.6312 0.37743 0.0
C379 C 0.57455 0.63431 0.25852 0.0
H380 H 0.56367 0.6353 0.37637 0.0
C381 C 0.60173 0.6321 0.25909 0.0
C382 C 0.61443 0.62952 0.3018 0.0
H383 H 0.56422 0.63428 0.225 0.0
H384 H 0.61132 0.63003 0.22601 0.0
C385 C 0.60149 0.63277 0.34388 0.0
C386 C -0.00585 0.60028 0.34589 0.0
C387 C 0.01063 0.6054 0.30359 0.0
H388 H 0.94981 0.58492 0.37885 0.0
C389 C -0.00556 0.60022 0.26105 0.0
H390 H 0.00599 0.60426 0.37929 0.0
C391 C 0.96224 0.58924 0.26081 0.0
C392 C 0.94558 0.58319 0.30311 0.0
H393 H 0.0065 0.60414 0.22785 0.0
H394 H 0.95033 0.58484 0.22741 0.0
C395 C 0.96195 0.58929 0.34566 0.0
C396 C 0.59463 0.93508 0.75979 0.0
C397 C 0.58043 0.91973 0.80179 0.0
H398 H 0.62628 -0.0216 0.72742 0.0
C399 C 0.59365 0.93444 0.84455 0.0
H400 H 0.58556 0.92408 0.72621 0.0
C401 C 0.61729 0.96559 0.84524 0.0
C402 C 0.62771 -0.01756 0.80317 0.0
H403 H 0.58379 0.92293 0.87756 0.0
H404 H 0.62471 -0.02281 0.87881 0.0
C405 C 0.61816 0.96626 0.76048 0.0
C406 C 0.60068 0.63134 0.75722 0.0
C407 C 0.61373 0.62845 0.79943 0.0
H408 H 0.56279 0.63361 0.72446 0.0
C409 C 0.60101 0.6312 0.84202 0.0
H410 H 0.61006 0.6296 0.72376 0.0
C411 C 0.5738 0.63335 0.84239 0.0
C412 C 0.55884 0.63283 0.80019 0.0
H413 H 0.61067 0.62938 0.87519 0.0
H414 H 0.56352 0.63354 0.87585 0.0
C415 C 0.5734 0.6334 0.7576 0.0
C416 C 0.9637 0.59095 0.84612 0.0
C417 C 0.94706 0.58483 0.80378 0.0
H418 H 0.00781 0.60528 0.87922 0.0
C419 C 0.96336 0.59031 0.76128 0.0
H420 H 0.95184 0.58701 0.87949 0.0
C421 C -0.00456 0.60069 0.76115 0.0
C422 C 0.01187 0.60583 0.80351 0.0
H423 H 0.95124 0.58588 0.72805 0.0
H424 H 0.00722 0.60418 0.72779 0.0
C425 C -0.00422 0.60132 0.84599 0.0
C426 C 0.33334 0.01512 0.75988 0.0
C427 C 0.34766 0.0305 0.80182 0.0
H428 H 0.30167 0.97175 0.7276 0.0
C429 C 0.33453 0.01581 0.84463 0.0
H430 H 0.34234 0.02609 0.72627 0.0
C431 C 0.31093 -0.01535 0.84538 0.0
C432 C 0.30045 0.96775 0.80334 0.0
H433 H 0.34448 0.02734 0.8776 0.0
H434 H 0.30363 0.97306 0.87896 0.0
C435 C 0.30985 -0.01608 0.76063 0.0
C436 C 0.33897 0.32327 0.75759 0.0
C437 C 0.3259 0.32597 0.7999 0.0
H438 H 0.37693 0.32126 0.7246 0.0
C439 C 0.33869 0.3232 0.84239 0.0
H440 H 0.32953 0.32502 0.72419 0.0
C441 C 0.36599 0.3212 0.84259 0.0
C442 C 0.38095 0.3219 0.80031 0.0
H443 H 0.32899 0.32486 0.87562 0.0
H444 H 0.3763 0.32096 0.87599 0.0
C445 C 0.36633 0.32136 0.75779 0.0
C446 C -0.02786 0.35764 0.76115 0.0
C447 C -0.01169 0.36264 0.80369 0.0
H448 H 0.92838 0.34414 0.72757 0.0
C449 C -0.0285 0.35587 0.84595 0.0
H450 H -0.01561 0.36259 0.72798 0.0
C451 C 0.9394 0.34542 0.84574 0.0
C452 C 0.92345 0.34148 0.80325 0.0
H453 H -0.01675 0.3594 0.87935 0.0
H454 H 0.92724 0.34099 0.87893 0.0
C455 C 0.94003 0.34717 0.76094 0.0
C456 C 0.46995 0.21064 0.25865 0.0
C457 C 0.4661 0.19513 0.30137 0.0
H458 H 0.47701 0.25192 0.22451 0.0
C459 C 0.46948 0.21113 0.34351 0.0
H460 H 0.46787 0.19905 0.22559 0.0
C461 C 0.4748 0.24148 0.34291 0.0
C462 C 0.47686 0.25636 0.30017 0.0
H463 H 0.467 0.19992 0.37703 0.0
H464 H 0.47608 0.25277 0.37597 0.0
C465 C 0.47533 0.241 0.25805 0.0
C466 C 0.15098 0.36384 0.25942 0.0
C467 C 0.13941 0.36872 0.30168 0.0
H468 H 0.18519 0.35562 0.22655 0.0
C469 C 0.15042 0.36356 0.34422 0.0
H470 H 0.14259 0.36707 0.22599 0.0
C471 C 0.17473 0.35676 0.34452 0.0
C472 C 0.18856 0.35516 0.30229 0.0
H473 H 0.14158 0.36658 0.37738 0.0
H474 H 0.18411 0.355 0.37797 0.0
C475 C 0.17534 0.35712 0.25972 0.0
C476 C 0.73617 0.17191 0.34458 0.0
C477 C 0.72561 0.15616 0.30172 0.0
H478 H 0.76475 0.21532 0.37905 0.0
C479 C 0.73802 0.1726 0.25978 0.0
H480 H 0.72711 0.15992 0.37752 0.0
C481 C 0.75945 0.20445 0.26064 0.0
C482 C 0.76893 0.22045 0.30346 0.0
H483 H 0.73039 0.16115 0.22615 0.0
H484 H 0.76806 0.2166 0.2277 0.0
C485 C 0.75761 0.20373 0.34544 0.0
C486 C 0.46294 0.73961 0.34336 0.0
C487 C 0.4655 0.75533 0.30123 0.0
H488 H 0.45905 0.69906 0.37583 0.0
C489 C 0.46301 0.74026 0.25849 0.0
H490 H 0.46445 0.75048 0.37689 0.0
C491 C 0.4598 0.71072 0.2579 0.0
C492 C 0.4591 0.69576 0.30003 0.0
H493 H 0.46456 0.75165 0.22544 0.0
H494 H 0.4591 0.70018 0.22437 0.0
C495 C 0.45978 0.7101 0.34277 0.0
C496 C 0.76292 0.59498 0.26069 0.0
C497 C 0.74986 0.59721 0.30325 0.0
H498 H 0.79477 0.58381 0.22689 0.0
C499 C 0.76317 0.59477 0.3455 0.0
H500 H 0.75347 0.5971 0.22752 0.0
C501 C 0.78673 0.5869 0.34514 0.0
C502 C 0.79748 0.58148 0.30255 0.0
H503 H 0.75388 0.59668 0.37894 0.0
H504 H 0.79514 0.58327 0.37828 0.0
C505 C 0.78652 0.58719 0.26034 0.0
C506 C 0.17277 0.74444 0.26091 0.0
C507 C 0.16406 0.72837 0.30372 0.0
H508 H 0.2 0.7881 0.22642 0.0
C509 C 0.17475 0.74524 0.3457 0.0
H510 H 0.16459 0.73216 0.22797 0.0
C511 C 0.19485 0.77736 0.34484 0.0
C512 C 0.20471 0.79325 0.30198 0.0
H513 H 0.16812 0.73361 0.3793 0.0
H514 H 0.20352 0.78951 0.37778 0.0
C515 C 0.19286 0.77656 0.26005 0.0
C516 C 0.46058 0.71119 0.84281 0.0
C517 C 0.45999 0.69633 0.80061 0.0
H518 H 0.46555 0.75215 0.87551 0.0
C519 C 0.46125 0.71097 0.75795 0.0
H520 H 0.45944 0.70042 0.87629 0.0
C521 C 0.46479 0.74065 0.75752 0.0
C522 C 0.46716 0.75622 0.79975 0.0
H523 H 0.46065 0.70003 0.72483 0.0
H524 H 0.4667 0.75174 0.72406 0.0
C525 C 0.46416 0.74088 0.84238 0.0
C526 C 0.76379 0.59697 0.84337 0.0
C527 C 0.75084 0.59879 0.80046 0.0
H528 H 0.79579 0.58642 0.87814 0.0
C529 C 0.76457 0.59645 0.75858 0.0
H530 H 0.75403 0.59905 0.87627 0.0
C531 C 0.7884 0.58897 0.75965 0.0
C532 C 0.79901 0.58386 0.80261 0.0
H533 H 0.75538 0.59808 0.72489 0.0
H534 H 0.79711 0.58535 0.72679 0.0
C535 C 0.78767 0.58956 0.84444 0.0
C536 C 0.19491 0.77546 0.84538 0.0
C537 C 0.20649 0.79184 0.80317 0.0
H538 H 0.16679 0.73129 0.87821 0.0
C539 C 0.19651 0.77561 0.76058 0.0
H540 H 0.20216 0.78726 0.87882 0.0
C541 C 0.17644 0.74348 0.76027 0.0
C542 C 0.16589 0.72693 0.80253 0.0
H543 H 0.205 0.78751 0.72744 0.0
H544 H 0.16965 0.7316 0.72685 0.0
C545 C 0.17484 0.74332 0.84506 0.0
C546 C 0.47472 0.24055 0.84254 0.0
C547 C 0.47608 0.25576 0.80035 0.0
H548 H 0.46708 0.19862 0.87527 0.0
C549 C 0.4734 0.24053 0.75769 0.0
H550 H 0.47687 0.25172 0.87601 0.0
C551 C 0.46769 0.21005 0.7573 0.0
C552 C 0.46456 0.19424 0.79955 0.0
H553 H 0.47451 0.25169 0.72459 0.0
H554 H 0.46477 0.1986 0.72386 0.0
C555 C 0.46896 0.21005 0.84214 0.0
C556 C 0.15013 0.36154 0.84572 0.0
C557 C 0.13811 0.36629 0.80383 0.0
H558 H 0.18496 0.35384 0.87761 0.0
C559 C 0.14889 0.3613 0.76094 0.0
H560 H 0.14192 0.36465 0.87939 0.0
C561 C 0.17345 0.35488 0.75993 0.0
C562 C 0.18776 0.3535 0.80179 0.0
H563 H 0.1397 0.36421 0.72804 0.0
H564 H 0.18267 0.35329 0.72623 0.0
C565 C 0.17474 0.3552 0.84472 0.0
C566 C 0.75765 0.20565 0.84543 0.0
C567 C 0.76737 0.22192 0.80288 0.0
H568 H 0.72846 0.16211 0.8792 0.0
C569 C 0.75618 0.20549 0.76063 0.0
H570 H 0.76614 0.21757 0.87858 0.0
C571 C 0.73475 0.17365 0.76095 0.0
C572 C 0.72404 0.15761 0.80354 0.0
H573 H 0.76349 0.21728 0.7272 0.0
H574 H 0.72584 0.16188 0.72781 0.0
C575 C 0.73621 0.17379 0.84576 0.0
C576 C 0.44077 0.10587 0.07543 0.0
C577 C 0.43349 0.07868 0.1005 0.0
H578 H 0.44627 0.12715 1.00821 0.0
C579 C 0.42599 0.05145 0.0754 0.0
H580 H 0.44665 0.12726 0.09364 0.0
C581 C 0.42578 0.05139 1.02643 0.0
C582 C 0.43305 0.07855 1.00134 0.0
H583 H 0.42027 0.03009 0.09354 0.0
H584 H 0.41989 0.02998 1.00827 0.0
C585 C 0.44055 0.10581 1.02641 0.0
C586 C 0.2459 0.3214 1.02654 0.0
C587 C 0.26353 0.34926 1.00151 0.0
H588 H 0.23199 0.29948 0.09365 0.0
C589 C 0.28111 0.37709 1.02666 0.0
H590 H 0.23209 0.29953 1.00833 0.0
C591 C 0.28104 0.37706 0.07566 0.0
C592 C 0.2634 0.3492 0.10068 0.0
H593 H 0.29496 0.39898 1.00852 0.0
H594 H 0.29485 0.39893 0.09389 0.0
C595 C 0.24584 0.32137 0.07553 0.0
C596 C 0.84686 0.27945 1.02881 0.0
C597 C 0.83794 0.29828 1.00399 0.0
H598 H 0.85399 0.26456 0.0957 0.0
C599 C 0.8291 0.31701 1.02934 0.0
H600 H 0.85381 0.26474 1.01045 0.0
C601 C 0.82921 0.3169 0.07837 0.0
C602 C 0.83816 0.29807 0.10316 0.0
H603 H 0.8221 0.3318 1.01135 0.0
H604 H 0.82229 0.33161 0.0968 0.0
C605 C 0.84697 0.27935 0.07778 0.0
C606 C 0.49858 0.89706 0.07545 0.0
C607 C 0.49299 0.87039 0.10053 0.0
H608 H 0.50323 0.91812 1.00834 0.0
C609 C 0.4876 0.84376 0.07544 0.0
H610 H 0.50281 0.91798 0.09361 0.0
C611 C 0.48785 0.84384 1.02642 0.0
C612 C 0.49348 0.87055 1.00137 0.0
H613 H 0.4832 0.82281 0.09364 0.0
H614 H 0.48362 0.82294 1.0082 0.0
C615 C 0.49882 0.89714 1.02648 0.0
C616 C 0.66374 0.58223 0.07551 0.0
C617 C 0.63605 0.5739 0.10061 0.0
H618 H 0.68541 0.58864 1.00823 0.0
C619 C 0.60839 0.5657 0.07554 0.0
H620 H 0.68547 0.5887 0.09371 0.0
C621 C 0.60836 0.56566 1.02658 0.0
C622 C 0.63598 0.57383 1.00144 0.0
H623 H 0.58665 0.55919 0.0937 0.0
H624 H 0.58658 0.55912 1.00847 0.0
C625 C 0.6637 0.5822 1.02648 0.0
C626 C 0.10758 0.63641 1.02923 0.0
C627 C 0.08994 0.60852 1.00423 0.0
H628 H 0.12126 0.65842 0.0964 0.0
C629 C 0.07225 0.58074 1.02942 0.0
H630 H 0.12147 0.65823 1.01095 0.0
C631 C 0.07213 0.58085 0.07839 0.0
C632 C 0.08969 0.60873 0.10341 0.0
H633 H 0.05841 0.55883 1.01134 0.0
H634 H 0.0582 0.55901 0.0966 0.0
C635 C 0.10745 0.63652 0.07825 0.0
C636 C 0.8779 0.59199 0.57738 0.0
C637 C 0.8633 0.56399 0.60279 0.0
H638 H 0.88917 0.61376 0.51001 0.0
C639 C 0.84845 0.53571 0.57803 0.0
H640 H 0.88956 0.6142 0.59528 0.0
C641 C 0.84822 0.53546 0.52901 0.0
C642 C 0.86284 0.56348 0.50363 0.0
H643 H 0.83697 0.51371 0.59648 0.0
H644 H 0.83658 0.51327 0.51106 0.0
C645 C 0.87767 0.59174 0.52841 0.0
C646 C 0.2794 0.87713 0.57639 0.0
C647 C 0.30372 0.90169 0.60159 0.0
H648 H 0.26036 0.85799 0.50905 0.0
C649 C 0.32789 0.9265 0.57663 0.0
H650 H 0.2604 0.85766 0.59449 0.0
C651 C 0.32787 0.92669 0.52767 0.0
C652 C 0.30367 0.90207 0.50244 0.0
H653 H 0.34697 0.94582 0.59489 0.0
H654 H 0.34693 0.94614 0.50963 0.0
C655 C 0.27938 0.87732 0.52737 0.0
C656 C 0.46713 0.37978 0.57486 0.0
C657 C 0.46912 0.35643 0.59992 0.0
H658 H 0.46543 0.39808 0.50776 0.0
C659 C 0.4711 0.33307 0.57481 0.0
H660 H 0.46559 0.39814 0.59304 0.0
C661 C 0.471 0.33304 0.52579 0.0
C662 C 0.46893 0.35636 0.50075 0.0
H663 H 0.47267 0.31474 0.59298 0.0
H664 H 0.47251 0.31468 0.50755 0.0
C665 C 0.46704 0.37975 0.52588 0.0
C666 C 0.0576 0.43512 0.57827 0.0
C667 C 0.07211 0.42131 0.60327 0.0
H668 H 0.04636 0.44622 0.51125 0.0
C669 C 0.08686 0.40778 0.5781 0.0
H670 H 0.04603 0.44576 0.59648 0.0
C671 C 0.08705 0.40805 0.52906 0.0
C672 C 0.07251 0.42186 0.50409 0.0
H673 H 0.09827 0.39695 0.59624 0.0
H674 H 0.0986 0.39742 0.51076 0.0
C675 C 0.05779 0.43538 0.5293 0.0
C676 C 0.59989 0.02497 0.52766 0.0
C677 C 0.62462 0.04907 0.50245 0.0
H678 H 0.58039 0.00623 0.59485 0.0
C679 C 0.64944 0.0733 0.52742 0.0
H680 H 0.5804 0.00593 0.5096 0.0
C681 C 0.64942 0.07348 0.57645 0.0
C682 C 0.6246 0.04943 0.60162 0.0
H683 H 0.66887 0.09223 0.50912 0.0
H684 H 0.66885 0.09253 0.59458 0.0
C685 C 0.59988 0.02515 0.57663 0.0
C686 C 0.46852 0.62115 0.52585 0.0
C687 C 0.47216 0.59875 0.50075 0.0
H688 H 0.4656 0.63868 0.59308 0.0
C689 C 0.47566 0.57628 0.52582 0.0
H690 H 0.46575 0.63879 0.50766 0.0
C691 C 0.47558 0.57622 0.57479 0.0
C692 C 0.47199 0.59863 0.5999 0.0
H693 H 0.47851 0.55868 0.50764 0.0
H694 H 0.47837 0.55857 0.59292 0.0
C695 C 0.46843 0.62109 0.57486 0.0
C696 C 0.52408 0.07899 0.34399 0.0
C697 C 0.51118 0.08173 0.30155 0.0
H698 H 0.56024 0.07408 0.37744 0.0
C699 C 0.52481 0.08011 0.25919 0.0
H700 H 0.5141 0.08005 0.37728 0.0
C701 C 0.55132 0.07671 0.2593 0.0
C702 C 0.56475 0.07488 0.30178 0.0
H703 H 0.5154 0.08206 0.22588 0.0
H704 H 0.56157 0.07606 0.22605 0.0
C705 C 0.55059 0.07562 0.3441 0.0
C706 C 0.38166 0.51412 0.25767 0.0
C707 C 0.39482 0.5298 0.2999 0.0
H708 H 0.34782 0.47186 0.2248 0.0
C709 C 0.38245 0.51431 0.34249 0.0
H710 H 0.39055 0.52542 0.22424 0.0
C711 C 0.35786 0.48355 0.3428 0.0
C712 C 0.34516 0.46766 0.30053 0.0
H713 H 0.39199 0.52577 0.37564 0.0
H714 H 0.34918 0.4721 0.3762 0.0
C715 C 0.3571 0.48339 0.25799 0.0
C716 C 0.80984 0.42698 0.2617 0.0
C717 C 0.81246 0.4428 0.30383 0.0
H718 H 0.80783 0.38722 0.22907 0.0
C719 C 0.8101 0.42763 0.34647 0.0
H720 H 0.81124 0.43784 0.2282 0.0
C721 C 0.80809 0.39854 0.34695 0.0
C722 C 0.80848 0.38406 0.3048 0.0
H723 H 0.81169 0.439 0.37957 0.0
H724 H 0.80814 0.38832 0.38044 0.0
C725 C 0.80792 0.39793 0.26218 0.0
C726 C 0.40341 0.86935 0.2594 0.0
C727 C 0.41686 0.86744 0.30178 0.0
H728 H 0.36711 0.87417 0.22625 0.0
C729 C 0.40412 0.87043 0.34421 0.0
H730 H 0.41273 0.86724 0.2261 0.0
C731 C 0.37795 0.87436 0.34431 0.0
C732 C 0.36398 0.87542 0.30198 0.0
H733 H 0.41398 0.86917 0.3775 0.0
H734 H 0.36841 0.87607 0.37765 0.0
C735 C 0.37724 0.87331 0.2595 0.0
C736 C 0.5815 0.47041 0.34211 0.0
C737 C 0.59394 0.48639 0.29983 0.0
H738 H 0.54781 0.42802 0.37498 0.0
C739 C 0.58203 0.47063 0.25729 0.0
H740 H 0.59019 0.48187 0.37551 0.0
C741 C 0.55773 0.43976 0.257 0.0
C742 C 0.54482 0.42399 0.29925 0.0
H743 H 0.59112 0.48224 0.22409 0.0
H744 H 0.54883 0.42844 0.22357 0.0
C745 C 0.55718 0.43953 0.34182 0.0
C746 C 0.12734 0.55006 0.34706 0.0
C747 C 0.12713 0.56462 0.3049 0.0
H748 H 0.12322 0.50939 0.37969 0.0
C749 C 0.12744 0.55061 0.26228 0.0
H750 H 0.12742 0.56036 0.38054 0.0
C751 C 0.12514 0.52138 0.26181 0.0
C752 C 0.12237 0.50554 0.30395 0.0
H753 H 0.12762 0.56134 0.22917 0.0
H754 H 0.12359 0.51046 0.22831 0.0
C755 C 0.12493 0.52079 0.34658 0.0
C756 C 0.40566 0.87109 0.75799 0.0
C757 C 0.4187 0.86835 0.80029 0.0
H758 H 0.36958 0.87633 0.72495 0.0
C759 C 0.40549 0.87043 0.84281 0.0
H760 H 0.41534 0.8697 0.7246 0.0
C761 C 0.37924 0.87425 0.843 0.0
C762 C 0.36563 0.87603 0.80067 0.0
H763 H 0.41506 0.86855 0.87602 0.0
H764 H 0.36928 0.8752 0.87637 0.0
C765 C 0.37939 0.87487 0.75818 0.0
C766 C 0.58289 0.47026 0.75909 0.0
C767 C 0.59522 0.48615 0.80148 0.0
H768 H 0.54921 0.42795 0.72593 0.0
C769 C 0.58324 0.47029 0.84392 0.0
H770 H 0.59163 0.4818 0.72577 0.0
C771 C 0.55894 0.43943 0.84399 0.0
C772 C 0.54605 0.42377 0.80164 0.0
H773 H 0.59226 0.48182 0.87719 0.0
H774 H 0.54994 0.42805 0.87735 0.0
C775 C 0.55854 0.43938 0.75917 0.0
C776 C 0.12627 0.54815 0.84632 0.0
C777 C 0.12676 0.56251 0.80366 0.0
H778 H 0.12158 0.50763 0.8802 0.0
C779 C 0.12748 0.54815 0.76156 0.0
H780 H 0.12602 0.55871 0.8794 0.0
C781 C 0.12484 0.51879 0.762 0.0
C782 C 0.12153 0.50322 0.80455 0.0
H783 H 0.12819 0.55872 0.72806 0.0
H784 H 0.12357 0.50759 0.72885 0.0
C785 C 0.12374 0.51882 0.84676 0.0
C786 C 0.54948 0.07588 0.84329 0.0
C787 C 0.56325 0.07435 0.80097 0.0
H788 H 0.51323 0.08087 0.8763 0.0
C789 C 0.54929 0.07515 0.75847 0.0
H790 H 0.55957 0.07517 0.87667 0.0
C791 C 0.52267 0.07834 0.75827 0.0
C792 C 0.50948 0.08085 0.80057 0.0
H793 H 0.55919 0.07382 0.72526 0.0
H794 H 0.51286 0.0795 0.72488 0.0
C795 C 0.52288 0.07912 0.84309 0.0
C796 C 0.35657 0.48357 0.75858 0.0
C797 C 0.34402 0.46781 0.80098 0.0
H798 H 0.39065 0.52567 0.72541 0.0
C799 C 0.35606 0.4837 0.8434 0.0
H800 H 0.34779 0.472 0.72527 0.0
C801 C 0.38063 0.51442 0.84347 0.0
C802 C 0.39372 0.52994 0.80112 0.0
H803 H 0.3469 0.47228 0.87668 0.0
H804 H 0.38963 0.52583 0.87682 0.0
C805 C 0.38118 0.51433 0.75865 0.0
C806 C 0.80948 0.40049 0.84653 0.0
C807 C 0.80916 0.38618 0.8039 0.0
H808 H 0.81372 0.44086 0.88035 0.0
C809 C 0.80819 0.40036 0.76178 0.0
H810 H 0.80987 0.39003 0.87963 0.0
C811 C 0.81043 0.42955 0.76218 0.0
C812 C 0.81362 0.44513 0.8047 0.0
H813 H 0.80754 0.38979 0.7283 0.0
H814 H 0.81151 0.44064 0.72901 0.0
C815 C 0.81163 0.42966 0.84693 0.0
loop_
_geom_bond_atom_site_label_1
_geom_bond_atom_site_label_2
_geom_bond_distance
_geom_bond_site_symmetry_2
_ccdc_geom_bond_type
Zn0 O3 2.031 . S
Zn0 O5 2.049 . S
Zn0 O10 2.067 . S
Zn1 O2 1.962 . S
Zn1 O4 1.986 . S
Zn1 O6 1.996 . S
Zn1 O9 1.943 . S
O2 Zn1 1.962 . S
O2 C7 1.254 . S
O3 Zn0 2.031 . S
O3 C7 1.269 . S
O4 Zn1 1.986 . S
O4 C11 1.262 . S
O5 Zn0 2.049 . S
O5 C13 1.260 . S
O6 Zn1 1.996 . S
O6 C13 1.257 . S
C7 O2 1.254 . S
C7 O3 1.269 . S
C8 O9 1.249 . S
C8 O10 1.270 . S
O9 Zn1 1.943 . S
O9 C8 1.249 . S
O10 Zn0 2.067 . S
O10 C8 1.270 . S
C11 O4 1.262 . S
C11 O12 1.232 . S
O12 C11 1.232 . S
C13 O5 1.260 . S
C13 O6 1.257 . S
Zn14 O17 2.031 . S
Zn14 O19 2.049 . S
Zn14 O24 2.067 . S
Zn15 O16 1.962 . S
Zn15 O18 1.986 . S
Zn15 O20 1.996 . S
Zn15 O23 1.943 . S
O16 Zn15 1.962 . S
O16 C21 1.254 . S
O17 Zn14 2.031 . S
O17 C21 1.269 . S
O18 Zn15 1.986 . S
O18 C25 1.262 . S
O19 Zn14 2.049 . S
O19 C27 1.260 . S
O20 Zn15 1.996 . S
O20 C27 1.257 . S
C21 O16 1.254 . S
C21 O17 1.269 . S
C22 O23 1.249 . S
C22 O24 1.270 . S
O23 Zn15 1.943 . S
O23 C22 1.249 . S
O24 Zn14 2.067 . S
O24 C22 1.270 . S
C25 O18 1.262 . S
C25 O26 1.232 . S
O26 C25 1.232 . S
C27 O19 1.260 . S
C27 O20 1.257 . S
Zn28 O31 2.031 . S
Zn28 O33 2.049 . S
Zn28 O38 2.067 . S
Zn29 O30 1.962 . S
Zn29 O32 1.986 . S
Zn29 O34 1.996 . S
Zn29 O37 1.943 . S
O30 Zn29 1.962 . S
O30 C35 1.254 . S
O31 Zn28 2.031 . S
O31 C35 1.269 . S
O32 Zn29 1.986 . S
O32 C39 1.262 . S
O33 Zn28 2.049 . S
O33 C41 1.260 . S
O34 Zn29 1.996 . S
O34 C41 1.257 . S
C35 O30 1.254 . S
C35 O31 1.269 . S
C36 O37 1.249 . S
C36 O38 1.270 . S
O37 Zn29 1.943 . S
O37 C36 1.249 . S
O38 Zn28 2.067 . S
O38 C36 1.270 . S
C39 O32 1.262 . S
C39 O40 1.232 . S
O40 C39 1.232 . S
C41 O33 1.260 . S
C41 O34 1.257 . S
Zn42 O45 2.031 . S
Zn42 O47 2.049 . S
Zn42 O52 2.067 . S
Zn43 O44 1.962 . S
Zn43 O46 1.986 . S
Zn43 O48 1.996 . S
Zn43 O51 1.943 . S
O44 Zn43 1.962 . S
O44 C49 1.254 . S
O45 Zn42 2.031 . S
O45 C49 1.269 . S
O46 Zn43 1.986 . S
O46 C53 1.262 . S
O47 Zn42 2.049 . S
O47 C55 1.260 . S
O48 Zn43 1.996 . S
O48 C55 1.257 . S
C49 O44 1.254 . S
C49 O45 1.269 . S
C50 O51 1.249 . S
C50 O52 1.270 . S
O51 Zn43 1.943 . S
O51 C50 1.249 . S
O52 Zn42 2.067 . S
O52 C50 1.270 . S
C53 O46 1.262 . S
C53 O54 1.232 . S
O54 C53 1.232 . S
C55 O47 1.260 . S
C55 O48 1.257 . S
Zn56 O59 2.031 . S
Zn56 O61 2.049 . S
Zn56 O66 2.067 . S
Zn57 O58 1.962 . S
Zn57 O60 1.986 . S
Zn57 O62 1.996 . S
Zn57 O65 1.943 . S
O58 Zn57 1.962 . S
O58 C63 1.254 . S
O59 Zn56 2.031 . S
O59 C63 1.269 . S
O60 Zn57 1.986 . S
O60 C67 1.262 . S
O61 Zn56 2.049 . S
O61 C69 1.260 . S
O62 Zn57 1.996 . S
O62 C69 1.257 . S
C63 O58 1.254 . S
C63 O59 1.269 . S
C64 O65 1.249 . S
C64 O66 1.270 . S
O65 Zn57 1.943 . S
O65 C64 1.249 . S
O66 Zn56 2.067 . S
O66 C64 1.270 . S
C67 O60 1.262 . S
C67 O68 1.232 . S
O68 C67 1.232 . S
C69 O61 1.260 . S
C69 O62 1.257 . S
Zn70 O73 2.031 . S
Zn70 O75 2.049 . S
Zn70 O80 2.067 . S
Zn71 O72 1.962 . S
Zn71 O74 1.986 . S
Zn71 O76 1.996 . S
Zn71 O79 1.943 . S
O72 Zn71 1.962 . S
O72 C77 1.254 . S
O73 Zn70 2.031 . S
O73 C77 1.269 . S
O74 Zn71 1.986 . S
O74 C81 1.262 . S
O75 Zn70 2.049 . S
O75 C83 1.260 . S
O76 Zn71 1.996 . S
O76 C83 1.257 . S
C77 O72 1.254 . S
C77 O73 1.269 . S
C78 O79 1.249 . S
C78 O80 1.270 . S
O79 Zn71 1.943 . S
O79 C78 1.249 . S
O80 Zn70 2.067 . S
O80 C78 1.270 . S
C81 O74 1.262 . S
C81 O82 1.232 . S
O82 C81 1.232 . S
C83 O75 1.260 . S
C83 O76 1.257 . S
Zn84 O87 2.031 . S
Zn84 O89 2.049 . S
Zn84 O94 2.067 . S
Zn85 O86 1.962 . S
Zn85 O88 1.986 . S
Zn85 O90 1.996 . S
Zn85 O93 1.943 . S
O86 Zn85 1.962 . S
O86 C91 1.254 . S
O87 Zn84 2.031 . S
O87 C91 1.269 . S
O88 Zn85 1.986 . S
O88 C95 1.262 . S
O89 Zn84 2.049 . S
O89 C97 1.260 . S
O90 Zn85 1.996 . S
O90 C97 1.257 . S
C91 O86 1.254 . S
C91 O87 1.269 . S
C92 O93 1.249 . S
C92 O94 1.270 . S
O93 Zn85 1.943 . S
O93 C92 1.249 . S
O94 Zn84 2.067 . S
O94 C92 1.270 . S
C95 O88 1.262 . S
C95 O96 1.232 . S
O96 C95 1.232 . S
C97 O89 1.260 . S
C97 O90 1.257 . S
Zn98 O101 2.031 . S
Zn98 O103 2.049 . S
Zn98 O108 2.067 . S
Zn99 O100 1.962 . S
Zn99 O102 1.986 . S
Zn99 O104 1.996 . S
Zn99 O107 1.943 . S
O100 Zn99 1.962 . S
O100 C105 1.254 . S
O101 Zn98 2.031 . S
O101 C105 1.269 . S
O102 Zn99 1.986 . S
O102 C109 1.262 . S
O103 Zn98 2.049 . S
O103 C111 1.260 . S
O104 Zn99 1.996 . S
O104 C111 1.257 . S
C105 O100 1.254 . S
C105 O101 1.269 . S
C106 O107 1.249 . S
C106 O108 1.270 . S
O107 Zn99 1.943 . S
O107 C106 1.249 . S
O108 Zn98 2.067 . S
O108 C106 1.270 . S
C109 O102 1.262 . S
C109 O110 1.232 . S
O110 C109 1.232 . S
C111 O103 1.260 . S
C111 O104 1.257 . S
Zn112 O115 2.031 . S
Zn112 O117 2.049 . S
Zn112 O122 2.067 . S
Zn113 O114 1.962 . S
Zn113 O116 1.986 . S
Zn113 O118 1.996 . S
Zn113 O121 1.943 . S
O114 Zn113 1.962 . S
O114 C119 1.254 . S
O115 Zn112 2.031 . S
O115 C119 1.269 . S
O116 Zn113 1.986 . S
O116 C123 1.262 . S
O117 Zn112 2.049 . S
O117 C125 1.260 . S
O118 Zn113 1.996 . S
O118 C125 1.257 . S
C119 O114 1.254 . S
C119 O115 1.269 . S
C120 O121 1.249 . S
C120 O122 1.270 . S
O121 Zn113 1.943 . S
O121 C120 1.249 . S
O122 Zn112 2.067 . S
O122 C120 1.270 . S
C123 O116 1.262 . S
C123 O124 1.232 . S
O124 C123 1.232 . S
C125 O117 1.260 . S
C125 O118 1.257 . S
Zn126 O129 2.031 . S
Zn126 O131 2.049 . S
Zn126 O136 2.067 . S
Zn127 O128 1.962 . S
Zn127 O130 1.986 . S
Zn127 O132 1.996 . S
Zn127 O135 1.943 . S
O128 Zn127 1.962 . S
O128 C133 1.254 . S
O129 Zn126 2.031 . S
O129 C133 1.269 . S
O130 Zn127 1.986 . S
O130 C137 1.262 . S
O131 Zn126 2.049 . S
O131 C139 1.260 . S
O132 Zn127 1.996 . S
O132 C139 1.257 . S
C133 O128 1.254 . S
C133 O129 1.269 . S
C134 O135 1.249 . S
C134 O136 1.270 . S
O135 Zn127 1.943 . S
O135 C134 1.249 . S
O136 Zn126 2.067 . S
O136 C134 1.270 . S
C137 O130 1.262 . S
C137 O138 1.232 . S
O138 C137 1.232 . S
C139 O131 1.260 . S
C139 O132 1.257 . S
Zn140 O143 2.031 . S
Zn140 O145 2.049 . S
Zn140 O150 2.067 . S
Zn141 O142 1.962 . S
Zn141 O144 1.986 . S
Zn141 O146 1.996 . S
Zn141 O149 1.943 . S
O142 Zn141 1.962 . S
O142 C147 1.254 . S
O143 Zn140 2.031 . S
O143 C147 1.269 . S
O144 Zn141 1.986 . S
O144 C151 1.262 . S
O145 Zn140 2.049 . S
O145 C153 1.260 . S
O146 Zn141 1.996 . S
O146 C153 1.257 . S
C147 O142 1.254 . S
C147 O143 1.269 . S
C148 O149 1.249 . S
C148 O150 1.270 . S
O149 Zn141 1.943 . S
O149 C148 1.249 . S
O150 Zn140 2.067 . S
O150 C148 1.270 . S
C151 O144 1.262 . S
C151 O152 1.232 . S
O152 C151 1.232 . S
C153 O145 1.260 . S
C153 O146 1.257 . S
Zn154 O157 2.031 . S
Zn154 O159 2.049 . S
Zn154 O164 2.067 . S
Zn155 O156 1.962 . S
Zn155 O158 1.986 . S
Zn155 O160 1.996 . S
Zn155 O163 1.943 . S
O156 Zn155 1.962 . S
O156 C161 1.254 . S
O157 Zn154 2.031 . S
O157 C161 1.269 . S
O158 Zn155 1.986 . S
O158 C165 1.262 . S
O159 Zn154 2.049 . S
O159 C167 1.260 . S
O160 Zn155 1.996 . S
O160 C167 1.257 . S
C161 O156 1.254 . S
C161 O157 1.269 . S
C162 O163 1.249 . S
C162 O164 1.270 . S
O163 Zn155 1.943 . S
O163 C162 1.249 . S
O164 Zn154 2.067 . S
O164 C162 1.270 . S
C165 O158 1.262 . S
C165 O166 1.232 . S
O166 C165 1.232 . S
C167 O159 1.260 . S
C167 O160 1.257 . S
Zn168 O171 2.031 . S
Zn168 O173 2.049 . S
Zn168 O178 2.067 . S
Zn169 O170 1.962 . S
Zn169 O172 1.986 . S
Zn169 O174 1.996 . S
Zn169 O177 1.943 . S
O170 Zn169 1.962 . S
O170 C175 1.254 . S
O171 Zn168 2.031 . S
O171 C175 1.269 . S
O172 Zn169 1.986 . S
O172 C179 1.262 . S
O173 Zn168 2.049 . S
O173 C181 1.260 . S
O174 Zn169 1.996 . S
O174 C181 1.257 . S
C175 O170 1.254 . S
C175 O171 1.269 . S
C176 O177 1.249 . S
C176 O178 1.270 . S
O177 Zn169 1.943 . S
O177 C176 1.249 . S
O178 Zn168 2.067 . S
O178 C176 1.270 . S
C179 O172 1.262 . S
C179 O180 1.232 . S
O180 C179 1.232 . S
C181 O173 1.260 . S
C181 O174 1.257 . S
Zn182 O185 2.031 . S
Zn182 O187 2.049 . S
Zn182 O192 2.067 . S
Zn183 O184 1.962 . S
Zn183 O186 1.986 . S
Zn183 O188 1.996 . S
Zn183 O191 1.943 . S
O184 Zn183 1.962 . S
O184 C189 1.254 . S
O185 Zn182 2.031 . S
O185 C189 1.269 . S
O186 Zn183 1.986 . S
O186 C193 1.262 . S
O187 Zn182 2.049 . S
O187 C195 1.260 . S
O188 Zn183 1.996 . S
O188 C195 1.257 . S
C189 O184 1.254 . S
C189 O185 1.269 . S
C190 O191 1.249 . S
C190 O192 1.270 . S
O191 Zn183 1.943 . S
O191 C190 1.249 . S
O192 Zn182 2.067 . S
O192 C190 1.270 . S
C193 O186 1.262 . S
C193 O194 1.232 . S
O194 C193 1.232 . S
C195 O187 1.260 . S
C195 O188 1.257 . S
Zn196 O199 2.031 . S
Zn196 O201 2.049 . S
Zn196 O206 2.067 . S
Zn197 O198 1.962 . S
Zn197 O200 1.986 . S
Zn197 O202 1.996 . S
Zn197 O205 1.943 . S
O198 Zn197 1.962 . S
O198 C203 1.254 . S
O199 Zn196 2.031 . S
O199 C203 1.269 . S
O200 Zn197 1.986 . S
O200 C207 1.262 . S
O201 Zn196 2.049 . S
O201 C209 1.260 . S
O202 Zn197 1.996 . S
O202 C209 1.257 . S
C203 O198 1.254 . S
C203 O199 1.269 . S
C204 O205 1.249 . S
C204 O206 1.270 . S
O205 Zn197 1.943 . S
O205 C204 1.249 . S
O206 Zn196 2.067 . S
O206 C204 1.270 . S
C207 O200 1.262 . S
C207 O208 1.232 . S
O208 C207 1.232 . S
C209 O201 1.260 . S
C209 O202 1.257 . S
Zn210 O213 2.031 . S
Zn210 O215 2.049 . S
Zn210 O220 2.067 . S
Zn211 O212 1.962 . S
Zn211 O214 1.986 . S
Zn211 O216 1.996 . S
Zn211 O219 1.943 . S
O212 Zn211 1.962 . S
O212 C217 1.254 . S
O213 Zn210 2.031 . S
O213 C217 1.269 . S
O214 Zn211 1.986 . S
O214 C221 1.262 . S
O215 Zn210 2.049 . S
O215 C223 1.260 . S
O216 Zn211 1.996 . S
O216 C223 1.257 . S
C217 O212 1.254 . S
C217 O213 1.269 . S
C218 O219 1.249 . S
C218 O220 1.270 . S
O219 Zn211 1.943 . S
O219 C218 1.249 . S
O220 Zn210 2.067 . S
O220 C218 1.270 . S
C221 O214 1.262 . S
C221 O222 1.232 . S
O222 C221 1.232 . S
C223 O215 1.260 . S
C223 O216 1.257 . S
Zn224 O227 2.031 . S
Zn224 O229 2.049 . S
Zn224 O234 2.067 . S
Zn225 O226 1.962 . S
Zn225 O228 1.986 . S
Zn225 O230 1.996 . S
Zn225 O233 1.943 . S
O226 Zn225 1.962 . S
O226 C231 1.254 . S
O227 Zn224 2.031 . S
O227 C231 1.269 . S
O228 Zn225 1.986 . S
O228 C235 1.262 . S
O229 Zn224 2.049 . S
O229 C237 1.260 . S
O230 Zn225 1.996 . S
O230 C237 1.257 . S
C231 O226 1.254 . S
C231 O227 1.269 . S
C232 O233 1.249 . S
C232 O234 1.270 . S
O233 Zn225 1.943 . S
O233 C232 1.249 . S
O234 Zn224 2.067 . S
O234 C232 1.270 . S
C235 O228 1.262 . S
C235 O236 1.232 . S
O236 C235 1.232 . S
C237 O229 1.260 . S
C237 O230 1.257 . S
Zn238 O241 2.031 . S
Zn238 O243 2.049 . S
Zn238 O248 2.067 . S
Zn239 O240 1.962 . S
Zn239 O242 1.986 . S
Zn239 O244 1.996 . S
Zn239 O247 1.943 . S
O240 Zn239 1.962 . S
O240 C245 1.254 . S
O241 Zn238 2.031 . S
O241 C245 1.269 . S
O242 Zn239 1.986 . S
O242 C249 1.262 . S
O243 Zn238 2.049 . S
O243 C251 1.260 . S
O244 Zn239 1.996 . S
O244 C251 1.257 . S
C245 O240 1.254 . S
C245 O241 1.269 . S
C246 O247 1.249 . S
C246 O248 1.270 . S
O247 Zn239 1.943 . S
O247 C246 1.249 . S
O248 Zn238 2.067 . S
O248 C246 1.270 . S
C249 O242 1.262 . S
C249 O250 1.232 . S
O250 C249 1.232 . S
C251 O243 1.260 . S
C251 O244 1.257 . S
Zn252 O255 2.031 . S
Zn252 O257 2.049 . S
Zn252 O262 2.067 . S
Zn253 O254 1.962 . S
Zn253 O256 1.986 . S
Zn253 O258 1.996 . S
Zn253 O261 1.943 . S
O254 Zn253 1.962 . S
O254 C259 1.254 . S
O255 Zn252 2.031 . S
O255 C259 1.269 . S
O256 Zn253 1.986 . S
O256 C263 1.262 . S
O257 Zn252 2.049 . S
O257 C265 1.260 . S
O258 Zn253 1.996 . S
O258 C265 1.257 . S
C259 O254 1.254 . S
C259 O255 1.269 . S
C260 O261 1.249 . S
C260 O262 1.270 . S
O261 Zn253 1.943 . S
O261 C260 1.249 . S
O262 Zn252 2.067 . S
O262 C260 1.270 . S
C263 O256 1.262 . S
C263 O264 1.232 . S
O264 C263 1.232 . S
C265 O257 1.260 . S
C265 O258 1.257 . S
Zn266 O269 2.031 . S
Zn266 O271 2.049 . S
Zn266 O276 2.067 . S
Zn267 O268 1.962 . S
Zn267 O270 1.986 . S
Zn267 O272 1.996 . S
Zn267 O275 1.943 . S
O268 Zn267 1.962 . S
O268 C273 1.254 . S
O269 Zn266 2.031 . S
O269 C273 1.269 . S
O270 Zn267 1.986 . S
O270 C277 1.262 . S
O271 Zn266 2.049 . S
O271 C279 1.260 . S
O272 Zn267 1.996 . S
O272 C279 1.257 . S
C273 O268 1.254 . S
C273 O269 1.269 . S
C274 O275 1.249 . S
C274 O276 1.270 . S
O275 Zn267 1.943 . S
O275 C274 1.249 . S
O276 Zn266 2.067 . S
O276 C274 1.270 . S
C277 O270 1.262 . S
C277 O278 1.232 . S
O278 C277 1.232 . S
C279 O271 1.260 . S
C279 O272 1.257 . S
Zn280 O283 2.031 . S
Zn280 O285 2.049 . S
Zn280 O290 2.067 . S
Zn281 O282 1.962 . S
Zn281 O284 1.986 . S
Zn281 O286 1.996 . S
Zn281 O289 1.943 . S
O282 Zn281 1.962 . S
O282 C287 1.254 . S
O283 Zn280 2.031 . S
O283 C287 1.269 . S
O284 Zn281 1.986 . S
O284 C291 1.262 . S
O285 Zn280 2.049 . S
O285 C293 1.260 . S
O286 Zn281 1.996 . S
O286 C293 1.257 . S
C287 O282 1.254 . S
C287 O283 1.269 . S
C288 O289 1.249 . S
C288 O290 1.270 . S
O289 Zn281 1.943 . S
O289 C288 1.249 . S
O290 Zn280 2.067 . S
O290 C288 1.270 . S
C291 O284 1.262 . S
C291 O292 1.232 . S
O292 C291 1.232 . S
C293 O285 1.260 . S
C293 O286 1.257 . S
Zn294 O297 2.031 . S
Zn294 O299 2.049 . S
Zn294 O304 2.067 . S
Zn295 O296 1.962 . S
Zn295 O298 1.986 . S
Zn295 O300 1.996 . S
Zn295 O303 1.943 . S
O296 Zn295 1.962 . S
O296 C301 1.254 . S
O297 Zn294 2.031 . S
O297 C301 1.269 . S
O298 Zn295 1.986 . S
O298 C305 1.262 . S
O299 Zn294 2.049 . S
O299 C307 1.260 . S
O300 Zn295 1.996 . S
O300 C307 1.257 . S
C301 O296 1.254 . S
C301 O297 1.269 . S
C302 O303 1.249 . S
C302 O304 1.270 . S
O303 Zn295 1.943 . S
O303 C302 1.249 . S
O304 Zn294 2.067 . S
O304 C302 1.270 . S
C305 O298 1.262 . S
C305 O306 1.232 . S
O306 C305 1.232 . S
C307 O299 1.260 . S
C307 O300 1.257 . S
Zn308 O311 2.031 . S
Zn308 O313 2.049 . S
Zn308 O318 2.067 . S
Zn309 O310 1.962 . S
Zn309 O312 1.986 . S
Zn309 O314 1.996 . S
Zn309 O317 1.943 . S
O310 Zn309 1.962 . S
O310 C315 1.254 . S
O311 Zn308 2.031 . S
O311 C315 1.269 . S
O312 Zn309 1.986 . S
O312 C319 1.262 . S
O313 Zn308 2.049 . S
O313 C321 1.260 . S
O314 Zn309 1.996 . S
O314 C321 1.257 . S
C315 O310 1.254 . S
C315 O311 1.269 . S
C316 O317 1.249 . S
C316 O318 1.270 . S
O317 Zn309 1.943 . S
O317 C316 1.249 . S
O318 Zn308 2.067 . S
O318 C316 1.270 . S
C319 O312 1.262 . S
C319 O320 1.232 . S
O320 C319 1.232 . S
C321 O313 1.260 . S
C321 O314 1.257 . S
Zn322 O325 2.031 . S
Zn322 O327 2.049 . S
Zn322 O332 2.067 . S
Zn323 O324 1.962 . S
Zn323 O326 1.986 . S
Zn323 O328 1.996 . S
Zn323 O331 1.943 . S
O324 Zn323 1.962 . S
O324 C329 1.254 . S
O325 Zn322 2.031 . S
O325 C329 1.269 . S
O326 Zn323 1.986 . S
O326 C333 1.262 . S
O327 Zn322 2.049 . S
O327 C335 1.260 . S
O328 Zn323 1.996 . S
O328 C335 1.257 . S
C329 O324 1.254 . S
C329 O325 1.269 . S
C330 O331 1.249 . S
C330 O332 1.270 . S
O331 Zn323 1.943 . S
O331 C330 1.249 . S
O332 Zn322 2.067 . S
O332 C330 1.270 . S
C333 O326 1.262 . S
C333 O334 1.232 . S
O334 C333 1.232 . S
C335 O327 1.260 . S
C335 O328 1.257 . S
C336 C337 1.387 . S
C336 H340 0.950 . S
C336 C345 1.390 1_545 S
C337 C336 1.387 . S
C337 C339 1.387 . S
H338 C345 0.950 . S
C339 C337 1.387 . S
C339 C341 1.390 1_545 S
C339 H343 0.950 . S
H340 C336 0.950 . S
C341 C339 1.390 1_565 S
C341 C342 1.387 . S
C341 H344 0.950 . S
C342 C341 1.387 . S
C342 C345 1.387 . S
H343 C339 0.950 . S
H344 C341 0.950 . S
C345 C336 1.390 1_565 S
C345 H338 0.950 . S
C345 C342 1.387 . S
C346 C347 1.387 . S
C346 H350 0.950 . S
C346 C355 1.390 . S
C347 C346 1.387 . S
C347 C349 1.387 . S
H348 C355 0.950 . S
C349 C347 1.387 . S
C349 C351 1.390 . S
C349 H353 0.950 . S
H350 C346 0.950 . S
C351 C349 1.390 . S
C351 C352 1.387 . S
C351 H354 0.950 . S
C352 C351 1.387 . S
C352 C355 1.387 . S
H353 C349 0.950 . S
H354 C351 0.950 . S
C355 C346 1.390 . S
C355 H348 0.950 . S
C355 C352 1.387 . S
C356 C357 1.387 . S
C356 H360 0.950 . S
C356 C365 1.390 1_655 S
C357 C356 1.387 . S
C357 C359 1.387 . S
H358 C365 0.950 . S
C359 C357 1.387 . S
C359 C361 1.390 1_655 S
C359 H363 0.950 . S
H360 C356 0.950 . S
C361 C359 1.390 1_455 S
C361 C362 1.387 . S
C361 H364 0.950 . S
C362 C361 1.387 . S
C362 C365 1.387 . S
H363 C359 0.950 . S
H364 C361 0.950 . S
C365 C356 1.390 1_455 S
C365 H358 0.950 . S
C365 C362 1.387 . S
C366 C367 1.387 . S
C366 H370 0.950 . S
C366 C375 1.390 1_565 S
C367 C366 1.387 . S
C367 C369 1.387 . S
H368 C375 0.950 . S
C369 C367 1.387 . S
C369 C371 1.390 1_565 S
C369 H373 0.950 . S
H370 C366 0.950 . S
C371 C369 1.390 1_545 S
C371 C372 1.387 . S
C371 H374 0.950 . S
C372 C371 1.387 . S
C372 C375 1.387 . S
H373 C369 0.950 . S
H374 C371 0.950 . S
C375 C366 1.390 1_545 S
C375 H368 0.950 . S
C375 C372 1.387 . S
C376 C377 1.387 . S
C376 H380 0.950 . S
C376 C385 1.390 . S
C377 C376 1.387 . S
C377 C379 1.387 . S
H378 C385 0.950 . S
C379 C377 1.387 . S
C379 C381 1.390 . S
C379 H383 0.950 . S
H380 C376 0.950 . S
C381 C379 1.390 . S
C381 C382 1.387 . S
C381 H384 0.950 . S
C382 C381 1.387 . S
C382 C385 1.387 . S
H383 C379 0.950 . S
H384 C381 0.950 . S
C385 C376 1.390 . S
C385 H378 0.950 . S
C385 C382 1.387 . S
C386 C387 1.387 . S
C386 H390 0.950 . S
C386 C395 1.390 1_455 S
C387 C386 1.387 . S
C387 C389 1.387 . S
H388 C395 0.950 . S
C389 C387 1.387 . S
C389 C391 1.390 1_455 S
C389 H393 0.950 . S
H390 C386 0.950 . S
C391 C389 1.390 1_655 S
C391 C392 1.387 . S
C391 H394 0.950 . S
C392 C391 1.387 . S
C392 C395 1.387 . S
H393 C389 0.950 . S
H394 C391 0.950 . S
C395 C386 1.390 1_655 S
C395 H388 0.950 . S
C395 C392 1.387 . S
C396 C397 1.387 . S
C396 H400 0.950 . S
C396 C405 1.390 1_565 S
C397 C396 1.387 . S
C397 C399 1.387 . S
H398 C405 0.950 . S
C399 C397 1.387 . S
C399 C401 1.390 1_565 S
C399 H403 0.950 . S
H400 C396 0.950 . S
C401 C399 1.390 1_545 S
C401 C402 1.387 . S
C401 H404 0.950 . S
C402 C401 1.387 . S
C402 C405 1.387 . S
H403 C399 0.950 . S
H404 C401 0.950 . S
C405 C396 1.390 1_545 S
C405 H398 0.950 . S
C405 C402 1.387 . S
C406 C407 1.387 . S
C406 H410 0.950 . S
C406 C415 1.390 . S
C407 C406 1.387 . S
C407 C409 1.387 . S
H408 C415 0.950 . S
C409 C407 1.387 . S
C409 C411 1.390 . S
C409 H413 0.950 . S
H410 C406 0.950 . S
C411 C409 1.390 . S
C411 C412 1.387 . S
C411 H414 0.950 . S
C412 C411 1.387 . S
C412 C415 1.387 . S
H413 C409 0.950 . S
H414 C411 0.950 . S
C415 C406 1.390 . S
C415 H408 0.950 . S
C415 C412 1.387 . S
C416 C417 1.387 . S
C416 H420 0.950 . S
C416 C425 1.390 1_655 S
C417 C416 1.387 . S
C417 C419 1.387 . S
H418 C425 0.950 . S
C419 C417 1.387 . S
C419 C421 1.390 1_655 S
C419 H423 0.950 . S
H420 C416 0.950 . S
C421 C419 1.390 1_455 S
C421 C422 1.387 . S
C421 H424 0.950 . S
C422 C421 1.387 . S
C422 C425 1.387 . S
H423 C419 0.950 . S
H424 C421 0.950 . S
C425 C416 1.390 1_455 S
C425 H418 0.950 . S
C425 C422 1.387 . S
C426 C427 1.387 . S
C426 H430 0.950 . S
C426 C435 1.390 1_545 S
C427 C426 1.387 . S
C427 C429 1.387 . S
H428 C435 0.950 . S
C429 C427 1.387 . S
C429 C431 1.390 1_545 S
C429 H433 0.950 . S
H430 C426 0.950 . S
C431 C429 1.390 1_565 S
C431 C432 1.387 . S
C431 H434 0.950 . S
C432 C431 1.387 . S
C432 C435 1.387 . S
H433 C429 0.950 . S
H434 C431 0.950 . S
C435 C426 1.390 1_565 S
C435 H428 0.950 . S
C435 C432 1.387 . S
C436 C437 1.387 . S
C436 H440 0.950 . S
C436 C445 1.390 . S
C437 C436 1.387 . S
C437 C439 1.387 . S
H438 C445 0.950 . S
C439 C437 1.387 . S
C439 C441 1.390 . S
C439 H443 0.950 . S
H440 C436 0.950 . S
C441 C439 1.390 . S
C441 C442 1.387 . S
C441 H444 0.950 . S
C442 C441 1.387 . S
C442 C445 1.387 . S
H443 C439 0.950 . S
H444 C441 0.950 . S
C445 C436 1.390 . S
C445 H438 0.950 . S
C445 C442 1.387 . S
C446 C447 1.387 . S
C446 H450 0.950 . S
C446 C455 1.390 1_455 S
C447 C446 1.387 . S
C447 C449 1.387 . S
H448 C455 0.950 . S
C449 C447 1.387 . S
C449 C451 1.390 1_455 S
C449 H453 0.950 . S
H450 C446 0.950 . S
C451 C449 1.390 1_655 S
C451 C452 1.387 . S
C451 H454 0.950 . S
C452 C451 1.387 . S
C452 C455 1.387 . S
H453 C449 0.950 . S
H454 C451 0.950 . S
C455 C446 1.390 1_655 S
C455 H448 0.950 . S
C455 C452 1.387 . S
C456 C457 1.387 . S
C456 H460 0.950 . S
C456 C465 1.390 . S
C457 C456 1.387 . S
C457 C459 1.387 . S
H458 C465 0.950 . S
C459 C457 1.387 . S
C459 C461 1.390 . S
C459 H463 0.950 . S
H460 C456 0.950 . S
C461 C459 1.390 . S
C461 C462 1.387 . S
C461 H464 0.950 . S
C462 C461 1.387 . S
C462 C465 1.387 . S
H463 C459 0.950 . S
H464 C461 0.950 . S
C465 C456 1.390 . S
C465 H458 0.950 . S
C465 C462 1.387 . S
C466 C467 1.387 . S
C466 H470 0.950 . S
C466 C475 1.390 . S
C467 C466 1.387 . S
C467 C469 1.387 . S
H468 C475 0.950 . S
C469 C467 1.387 . S
C469 C471 1.390 . S
C469 H473 0.950 . S
H470 C466 0.950 . S
C471 C469 1.390 . S
C471 C472 1.387 . S
C471 H474 0.950 . S
C472 C471 1.387 . S
C472 C475 1.387 . S
H473 C469 0.950 . S
H474 C471 0.950 . S
C475 C466 1.390 . S
C475 H468 0.950 . S
C475 C472 1.387 . S
C476 C477 1.387 . S
C476 H480 0.950 . S
C476 C485 1.390 . S
C477 C476 1.387 . S
C477 C479 1.387 . S
H478 C485 0.950 . S
C479 C477 1.387 . S
C479 C481 1.390 . S
C479 H483 0.950 . S
H480 C476 0.950 . S
C481 C479 1.390 . S
C481 C482 1.387 . S
C481 H484 0.950 . S
C482 C481 1.387 . S
C482 C485 1.387 . S
H483 C479 0.950 . S
H484 C481 0.950 . S
C485 C476 1.390 . S
C485 H478 0.950 . S
C485 C482 1.387 . S
C486 C487 1.387 . S
C486 H490 0.950 . S
C486 C495 1.390 . S
C487 C486 1.387 . S
C487 C489 1.387 . S
H488 C495 0.950 . S
C489 C487 1.387 . S
C489 C491 1.390 . S
C489 H493 0.950 . S
H490 C486 0.950 . S
C491 C489 1.390 . S
C491 C492 1.387 . S
C491 H494 0.950 . S
C492 C491 1.387 . S
C492 C495 1.387 . S
H493 C489 0.950 . S
H494 C491 0.950 . S
C495 C486 1.390 . S
C495 H488 0.950 . S
C495 C492 1.387 . S
C496 C497 1.387 . S
C496 H500 0.950 . S
C496 C505 1.390 . S
C497 C496 1.387 . S
C497 C499 1.387 . S
H498 C505 0.950 . S
C499 C497 1.387 . S
C499 C501 1.390 . S
C499 H503 0.950 . S
H500 C496 0.950 . S
C501 C499 1.390 . S
C501 C502 1.387 . S
C501 H504 0.950 . S
C502 C501 1.387 . S
C502 C505 1.387 . S
H503 C499 0.950 . S
H504 C501 0.950 . S
C505 C496 1.390 . S
C505 H498 0.950 . S
C505 C502 1.387 . S
C506 C507 1.387 . S
C506 H510 0.950 . S
C506 C515 1.390 . S
C507 C506 1.387 . S
C507 C509 1.387 . S
H508 C515 0.950 . S
C509 C507 1.387 . S
C509 C511 1.390 . S
C509 H513 0.950 . S
H510 C506 0.950 . S
C511 C509 1.390 . S
C511 C512 1.387 . S
C511 H514 0.950 . S
C512 C511 1.387 . S
C512 C515 1.387 . S
H513 C509 0.950 . S
H514 C511 0.950 . S
C515 C506 1.390 . S
C515 H508 0.950 . S
C515 C512 1.387 . S
C516 C517 1.387 . S
C516 H520 0.950 . S
C516 C525 1.390 . S
C517 C516 1.387 . S
C517 C519 1.387 . S
H518 C525 0.950 . S
C519 C517 1.387 . S
C519 C521 1.390 . S
C519 H523 0.950 . S
H520 C516 0.950 . S
C521 C519 1.390 . S
C521 C522 1.387 . S
C521 H524 0.950 . S
C522 C521 1.387 . S
C522 C525 1.387 . S
H523 C519 0.950 . S
H524 C521 0.950 . S
C525 C516 1.390 . S
C525 H518 0.950 . S
C525 C522 1.387 . S
C526 C527 1.387 . S
C526 H530 0.950 . S
C526 C535 1.390 . S
C527 C526 1.387 . S
C527 C529 1.387 . S
H528 C535 0.950 . S
C529 C527 1.387 . S
C529 C531 1.390 . S
C529 H533 0.950 . S
H530 C526 0.950 . S
C531 C529 1.390 . S
C531 C532 1.387 . S
C531 H534 0.950 . S
C532 C531 1.387 . S
C532 C535 1.387 . S
H533 C529 0.950 . S
H534 C531 0.950 . S
C535 C526 1.390 . S
C535 H528 0.950 . S
C535 C532 1.387 . S
C536 C537 1.387 . S
C536 H540 0.950 . S
C536 C545 1.390 . S
C537 C536 1.387 . S
C537 C539 1.387 . S
H538 C545 0.950 . S
C539 C537 1.387 . S
C539 C541 1.390 . S
C539 H543 0.950 . S
H540 C536 0.950 . S
C541 C539 1.390 . S
C541 C542 1.387 . S
C541 H544 0.950 . S
C542 C541 1.387 . S
C542 C545 1.387 . S
H543 C539 0.950 . S
H544 C541 0.950 . S
C545 C536 1.390 . S
C545 H538 0.950 . S
C545 C542 1.387 . S
C546 C547 1.387 . S
C546 H550 0.950 . S
C546 C555 1.390 . S
C547 C546 1.387 . S
C547 C549 1.387 . S
H548 C555 0.950 . S
C549 C547 1.387 . S
C549 C551 1.390 . S
C549 H553 0.950 . S
H550 C546 0.950 . S
C551 C549 1.390 . S
C551 C552 1.387 . S
C551 H554 0.950 . S
C552 C551 1.387 . S
C552 C555 1.387 . S
H553 C549 0.950 . S
H554 C551 0.950 . S
C555 C546 1.390 . S
C555 H548 0.950 . S
C555 C552 1.387 . S
C556 C557 1.387 . S
C556 H560 0.950 . S
C556 C565 1.390 . S
C557 C556 1.387 . S
C557 C559 1.387 . S
H558 C565 0.950 . S
C559 C557 1.387 . S
C559 C561 1.390 . S
C559 H563 0.950 . S
H560 C556 0.950 . S
C561 C559 1.390 . S
C561 C562 1.387 . S
C561 H564 0.950 . S
C562 C561 1.387 . S
C562 C565 1.387 . S
H563 C559 0.950 . S
H564 C561 0.950 . S
C565 C556 1.390 . S
C565 H558 0.950 . S
C565 C562 1.387 . S
C566 C567 1.387 . S
C566 H570 0.950 . S
C566 C575 1.390 . S
C567 C566 1.387 . S
C567 C569 1.387 . S
H568 C575 0.950 . S
C569 C567 1.387 . S
C569 C571 1.390 . S
C569 H573 0.950 . S
H570 C566 0.950 . S
C571 C569 1.390 . S
C571 C572 1.387 . S
C571 H574 0.950 . S
C572 C571 1.387 . S
C572 C575 1.387 . S
H573 C569 0.950 . S
H574 C571 0.950 . S
C575 C566 1.390 . S
C575 H568 0.950 . S
C575 C572 1.387 . S
C576 C577 1.387 . S
C576 H580 0.950 . S
C576 C585 1.390 1_554 S
C577 C576 1.387 . S
C577 C579 1.387 . S
H578 C585 0.950 . S
C579 C577 1.387 . S
C579 C581 1.390 1_554 S
C579 H583 0.950 . S
H580 C576 0.950 . S
C581 C579 1.390 1_556 S
C581 C582 1.387 . S
C581 H584 0.950 . S
C582 C581 1.387 . S
C582 C585 1.387 . S
H583 C579 0.950 . S
H584 C581 0.950 . S
C585 C576 1.390 1_556 S
C585 H578 0.950 . S
C585 C582 1.387 . S
C586 C587 1.387 . S
C586 H590 0.950 . S
C586 C595 1.390 1_556 S
C587 C586 1.387 . S
C587 C589 1.387 . S
H588 C595 0.950 . S
C589 C587 1.387 . S
C589 C591 1.390 1_556 S
C589 H593 0.950 . S
H590 C586 0.950 . S
C591 C589 1.390 1_554 S
C591 C592 1.387 . S
C591 H594 0.950 . S
C592 C591 1.387 . S
C592 C595 1.387 . S
H593 C589 0.950 . S
H594 C591 0.950 . S
C595 C586 1.390 1_554 S
C595 H588 0.950 . S
C595 C592 1.387 . S
C596 C597 1.387 . S
C596 H600 0.950 . S
C596 C605 1.390 1_556 S
C597 C596 1.387 . S
C597 C599 1.387 . S
H598 C605 0.950 . S
C599 C597 1.387 . S
C599 C601 1.390 1_556 S
C599 H603 0.950 . S
H600 C596 0.950 . S
C601 C599 1.390 1_554 S
C601 C602 1.387 . S
C601 H604 0.950 . S
C602 C601 1.387 . S
C602 C605 1.387 . S
H603 C599 0.950 . S
H604 C601 0.950 . S
C605 C596 1.390 1_554 S
C605 H598 0.950 . S
C605 C602 1.387 . S
C606 C607 1.387 . S
C606 H610 0.950 . S
C606 C615 1.390 1_554 S
C607 C606 1.387 . S
C607 C609 1.387 . S
H608 C615 0.950 . S
C609 C607 1.387 . S
C609 C611 1.390 1_554 S
C609 H613 0.950 . S
H610 C606 0.950 . S
C611 C609 1.390 1_556 S
C611 C612 1.387 . S
C611 H614 0.950 . S
C612 C611 1.387 . S
C612 C615 1.387 . S
H613 C609 0.950 . S
H614 C611 0.950 . S
C615 C606 1.390 1_556 S
C615 H608 0.950 . S
C615 C612 1.387 . S
C616 C617 1.387 . S
C616 H620 0.950 . S
C616 C625 1.390 1_554 S
C617 C616 1.387 . S
C617 C619 1.387 . S
H618 C625 0.950 . S
C619 C617 1.387 . S
C619 C621 1.390 1_554 S
C619 H623 0.950 . S
H620 C616 0.950 . S
C621 C619 1.390 1_556 S
C621 C622 1.387 . S
C621 H624 0.950 . S
C622 C621 1.387 . S
C622 C625 1.387 . S
H623 C619 0.950 . S
H624 C621 0.950 . S
C625 C616 1.390 1_556 S
C625 H618 0.950 . S
C625 C622 1.387 . S
C626 C627 1.387 . S
C626 H630 0.950 . S
C626 C635 1.390 1_556 S
C627 C626 1.387 . S
C627 C629 1.387 . S
H628 C635 0.950 . S
C629 C627 1.387 . S
C629 C631 1.390 1_556 S
C629 H633 0.950 . S
H630 C626 0.950 . S
C631 C629 1.390 1_554 S
C631 C632 1.387 . S
C631 H634 0.950 . S
C632 C631 1.387 . S
C632 C635 1.387 . S
H633 C629 0.950 . S
H634 C631 0.950 . S
C635 C626 1.390 1_554 S
C635 H628 0.950 . S
C635 C632 1.387 . S
C636 C637 1.387 . S
C636 H640 0.950 . S
C636 C645 1.390 . S
C637 C636 1.387 . S
C637 C639 1.387 . S
H638 C645 0.950 . S
C639 C637 1.387 . S
C639 C641 1.390 . S
C639 H643 0.950 . S
H640 C636 0.950 . S
C641 C639 1.390 . S
C641 C642 1.387 . S
C641 H644 0.950 . S
C642 C641 1.387 . S
C642 C645 1.387 . S
H643 C639 0.950 . S
H644 C641 0.950 . S
C645 C636 1.390 . S
C645 H638 0.950 . S
C645 C642 1.387 . S
C646 C647 1.387 . S
C646 H650 0.950 . S
C646 C655 1.390 . S
C647 C646 1.387 . S
C647 C649 1.387 . S
H648 C655 0.950 . S
C649 C647 1.387 . S
C649 C651 1.390 . S
C649 H653 0.950 . S
H650 C646 0.950 . S
C651 C649 1.390 . S
C651 C652 1.387 . S
C651 H654 0.950 . S
C652 C651 1.387 . S
C652 C655 1.387 . S
H653 C649 0.950 . S
H654 C651 0.950 . S
C655 C646 1.390 . S
C655 H648 0.950 . S
C655 C652 1.387 . S
C656 C657 1.387 . S
C656 H660 0.950 . S
C656 C665 1.390 . S
C657 C656 1.387 . S
C657 C659 1.387 . S
H658 C665 0.950 . S
C659 C657 1.387 . S
C659 C661 1.390 . S
C659 H663 0.950 . S
H660 C656 0.950 . S
C661 C659 1.390 . S
C661 C662 1.387 . S
C661 H664 0.950 . S
C662 C661 1.387 . S
C662 C665 1.387 . S
H663 C659 0.950 . S
H664 C661 0.950 . S
C665 C656 1.390 . S
C665 H658 0.950 . S
C665 C662 1.387 . S
C666 C667 1.387 . S
C666 H670 0.950 . S
C666 C675 1.390 . S
C667 C666 1.387 . S
C667 C669 1.387 . S
H668 C675 0.950 . S
C669 C667 1.387 . S
C669 C671 1.390 . S
C669 H673 0.950 . S
H670 C666 0.950 . S
C671 C669 1.390 . S
C671 C672 1.387 . S
C671 H674 0.950 . S
C672 C671 1.387 . S
C672 C675 1.387 . S
H673 C669 0.950 . S
H674 C671 0.950 . S
C675 C666 1.390 . S
C675 H668 0.950 . S
C675 C672 1.387 . S
C676 C677 1.387 . S
C676 H680 0.950 . S
C676 C685 1.390 . S
C677 C676 1.387 . S
C677 C679 1.387 . S
H678 C685 0.950 . S
C679 C677 1.387 . S
C679 C681 1.390 . S
C679 H683 0.950 . S
H680 C676 0.950 . S
C681 C679 1.390 . S
C681 C682 1.387 . S
C681 H684 0.950 . S
C682 C681 1.387 . S
C682 C685 1.387 . S
H683 C679 0.950 . S
H684 C681 0.950 . S
C685 C676 1.390 . S
C685 H678 0.950 . S
C685 C682 1.387 . S
C686 C687 1.387 . S
C686 H690 0.950 . S
C686 C695 1.390 . S
C687 C686 1.387 . S
C687 C689 1.387 . S
H688 C695 0.950 . S
C689 C687 1.387 . S
C689 C691 1.390 . S
C689 H693 0.950 . S
H690 C686 0.950 . S
C691 C689 1.390 . S
C691 C692 1.387 . S
C691 H694 0.950 . S
C692 C691 1.387 . S
C692 C695 1.387 . S
H693 C689 0.950 . S
H694 C691 0.950 . S
C695 C686 1.390 . S
C695 H688 0.950 . S
C695 C692 1.387 . S
C696 C697 1.387 . S
C696 H700 0.950 . S
C696 C705 1.390 . S
C697 C696 1.387 . S
C697 C699 1.387 . S
H698 C705 0.950 . S
C699 C697 1.387 . S
C699 C701 1.390 . S
C699 H703 0.950 . S
H700 C696 0.950 . S
C701 C699 1.390 . S
C701 C702 1.387 . S
C701 H704 0.950 . S
C702 C701 1.387 . S
C702 C705 1.387 . S
H703 C699 0.950 . S
H704 C701 0.950 . S
C705 C696 1.390 . S
C705 H698 0.950 . S
C705 C702 1.387 . S
C706 C707 1.387 . S
C706 H710 0.950 . S
C706 C715 1.390 . S
C707 C706 1.387 . S
C707 C709 1.387 . S
H708 C715 0.950 . S
C709 C707 1.387 . S
C709 C711 1.390 . S
C709 H713 0.950 . S
H710 C706 0.950 . S
C711 C709 1.390 . S
C711 C712 1.387 . S
C711 H714 0.950 . S
C712 C711 1.387 . S
C712 C715 1.387 . S
H713 C709 0.950 . S
H714 C711 0.950 . S
C715 C706 1.390 . S
C715 H708 0.950 . S
C715 C712 1.387 . S
C716 C717 1.387 . S
C716 H720 0.950 . S
C716 C725 1.390 . S
C717 C716 1.387 . S
C717 C719 1.387 . S
H718 C725 0.950 . S
C719 C717 1.387 . S
C719 C721 1.390 . S
C719 H723 0.950 . S
H720 C716 0.950 . S
C721 C719 1.390 . S
C721 C722 1.387 . S
C721 H724 0.950 . S
C722 C721 1.387 . S
C722 C725 1.387 . S
H723 C719 0.950 . S
H724 C721 0.950 . S
C725 C716 1.390 . S
C725 H718 0.950 . S
C725 C722 1.387 . S
C726 C727 1.387 . S
C726 H730 0.950 . S
C726 C735 1.390 . S
C727 C726 1.387 . S
C727 C729 1.387 . S
H728 C735 0.950 . S
C729 C727 1.387 . S
C729 C731 1.390 . S
C729 H733 0.950 . S
H730 C726 0.950 . S
C731 C729 1.390 . S
C731 C732 1.387 . S
C731 H734 0.950 . S
C732 C731 1.387 . S
C732 C735 1.387 . S
H733 C729 0.950 . S
H734 C731 0.950 . S
C735 C726 1.390 . S
C735 H728 0.950 . S
C735 C732 1.387 . S
C736 C737 1.387 . S
C736 H740 0.950 . S
C736 C745 1.390 . S
C737 C736 1.387 . S
C737 C739 1.387 . S
H738 C745 0.950 . S
C739 C737 1.387 . S
C739 C741 1.390 . S
C739 H743 0.950 . S
H740 C736 0.950 . S
C741 C739 1.390 . S
C741 C742 1.387 . S
C741 H744 0.950 . S
C742 C741 1.387 . S
C742 C745 1.387 . S
H743 C739 0.950 . S
H744 C741 0.950 . S
C745 C736 1.390 . S
C745 H738 0.950 . S
C745 C742 1.387 . S
C746 C747 1.387 . S
C746 H750 0.950 . S
C746 C755 1.390 . S
C747 C746 1.387 . S
C747 C749 1.387 . S
H748 C755 0.950 . S
C749 C747 1.387 . S
C749 C751 1.390 . S
C749 H753 0.950 . S
H750 C746 0.950 . S
C751 C749 1.390 . S
C751 C752 1.387 . S
C751 H754 0.950 . S
C752 C751 1.387 . S
C752 C755 1.387 . S
H753 C749 0.950 . S
H754 C751 0.950 . S
C755 C746 1.390 . S
C755 H748 0.950 . S
C755 C752 1.387 . S
C756 C757 1.387 . S
C756 H760 0.950 . S
C756 C765 1.390 . S
C757 C756 1.387 . S
C757 C759 1.387 . S
H758 C765 0.950 . S
C759 C757 1.387 . S
C759 C761 1.390 . S
C759 H763 0.950 . S
H760 C756 0.950 . S
C761 C759 1.390 . S
C761 C762 1.387 . S
C761 H764 0.950 . S
C762 C761 1.387 . S
C762 C765 1.387 . S
H763 C759 0.950 . S
H764 C761 0.950 . S
C765 C756 1.390 . S
C765 H758 0.950 . S
C765 C762 1.387 . S
C766 C767 1.387 . S
C766 H770 0.950 . S
C766 C775 1.390 . S
C767 C766 1.387 . S
C767 C769 1.387 . S
H768 C775 0.950 . S
C769 C767 1.387 . S
C769 C771 1.390 . S
C769 H773 0.950 . S
H770 C766 0.950 . S
C771 C769 1.390 . S
C771 C772 1.387 . S
C771 H774 0.950 . S
C772 C771 1.387 . S
C772 C775 1.387 . S
H773 C769 0.950 . S
H774 C771 0.950 . S
C775 C766 1.390 . S
C775 H768 0.950 . S
C775 C772 1.387 . S
C776 C777 1.387 . S
C776 H780 0.950 . S
C776 C785 1.390 . S
C777 C776 1.387 . S
C777 C779 1.387 . S
H778 C785 0.950 . S
C779 C777 1.387 . S
C779 C781 1.390 . S
C779 H783 0.950 . S
H780 C776 0.950 . S
C781 C779 1.390 . S
C781 C782 1.387 . S
C781 H784 0.950 . S
C782 C781 1.387 . S
C782 C785 1.387 . S
H783 C779 0.950 . S
H784 C781 0.950 . S
C785 C776 1.390 . S
C785 H778 0.950 . S
C785 C782 1.387 . S
C786 C787 1.387 . S
C786 H790 0.950 . S
C786 C795 1.390 . S
C787 C786 1.387 . S
C787 C789 1.387 . S
H788 C795 0.950 . S
C789 C787 1.387 . S
C789 C791 1.390 . S
C789 H793 0.950 . S
H790 C786 0.950 . S
C791 C789 1.390 . S
C791 C792 1.387 . S
C791 H794 0.950 . S
C792 C791 1.387 . S
C792 C795 1.387 . S
H793 C789 0.950 . S
H794 C791 0.950 . S
C795 C786 1.390 . S
C795 H788 0.950 . S
C795 C792 1.387 . S
C796 C797 1.387 . S
C796 H800 0.950 . S
C796 C805 1.390 . S
C797 C796 1.387 . S
C797 C799 1.387 . S
H798 C805 0.950 . S
C799 C797 1.387 . S
C799 C801 1.390 . S
C799 H803 0.950 . S
H800 C796 0.950 . S
C801 C799 1.390 . S
C801 C802 1.387 . S
C801 H804 0.950 . S
C802 C801 1.387 . S
C802 C805 1.387 . S
H803 C799 0.950 . S
H804 C801 0.950 . S
C805 C796 1.390 . S
C805 H798 0.950 . S
C805 C802 1.387 . S
C806 C807 1.387 . S
C806 H810 0.950 . S
C806 C815 1.390 . S
C807 C806 1.387 . S
C807 C809 1.387 . S
H808 C815 0.950 . S
C809 C807 1.387 . S
C809 C811 1.390 . S
C809 H813 0.950 . S
H810 C806 0.950 . S
C811 C809 1.390 . S
C811 C812 1.387 . S
C811 H814 0.950 . S
C812 C811 1.387 . S
C812 C815 1.387 . S
H813 C809 0.950 . S
H814 C811 0.950 . S
C815 C806 1.390 . S
C815 H808 0.950 . S
C815 C812 1.387 . S
C337 C7 1.389 . S
C342 C105 1.389 . S
C347 C119 1.389 . S
C352 C21 1.390 . S
C357 C35 1.389 . S
C362 C133 1.389 . S
C367 C49 1.389 . S
C372 C147 1.389 . S
C377 C161 1.390 . S
C382 C63 1.390 . S
C387 C77 1.389 . S
C392 C91 1.390 . S
C397 C175 1.390 . S
C402 C273 1.390 . S
C407 C189 1.390 . S
C412 C287 1.389 . S
C417 C301 1.389 . S
C422 C203 1.389 . S
C427 C217 1.390 . S
C432 C315 1.390 . S
C437 C231 1.390 . S
C442 C329 1.389 . S
C447 C259 1.389 . S
C452 C245 1.389 . S
C457 C13 1.275 . S
C462 C125 1.274 . S
C467 C139 1.272 . S
C472 C27 1.272 . S
C477 C153 1.272 . S
C482 C41 1.272 . S
C487 C55 1.273 . S
C492 C167 1.273 . S
C497 C69 1.277 . S
C502 C97 1.277 . S
C507 C83 1.273 . S
C512 C111 1.273 . S
C517 C293 1.274 . S
C522 C181 1.274 . S
C527 C195 1.277 . S
C532 C307 1.277 . S
C537 C321 1.274 . S
C542 C209 1.274 . S
C547 C335 1.274 . S
C552 C223 1.274 . S
C557 C265 1.272 . S
C562 C237 1.272 . S
C567 C251 1.275 . S
C572 C279 1.275 . S
C577 C11 1.508 . S
C582 C221 1.507 . S
C587 C235 1.508 . S
C592 C25 1.507 . S
C597 C249 1.508 . S
C602 C39 1.507 . S
C607 C53 1.507 . S
C612 C179 1.508 . S
C617 C67 1.507 . S
C622 C193 1.508 . S
C627 C207 1.508 . S
C632 C81 1.507 . S
C637 C305 1.508 . S
C642 C95 1.507 . S
C647 C319 1.507 . S
C652 C109 1.508 . S
C657 C333 1.507 . S
C662 C123 1.508 . S
C667 C263 1.507 . S
C672 C137 1.508 . S
C677 C151 1.507 . S
C682 C277 1.508 . S
C687 C165 1.507 . S
C692 C291 1.508 . S
C697 C8 1.487 . S
C702 C148 1.487 . S
C707 C162 1.485 . S
C712 C22 1.485 . S
C717 C92 1.487 . S
C722 C36 1.487 . S
C727 C50 1.485 . S
C732 C106 1.485 . S
C737 C64 1.486 . S
C742 C120 1.487 . S
C747 C78 1.486 . S
C752 C134 1.487 . S
C757 C176 1.485 . S
C762 C316 1.485 . S
C767 C190 1.487 . S
C772 C330 1.486 . S
C777 C204 1.486 . S
C782 C260 1.487 . S
C787 C274 1.485 . S
C792 C218 1.485 . S
C797 C232 1.487 . S
C802 C288 1.486 . S
C807 C246 1.486 . S
C812 C302 1.487 . S
