# Generated by pormake.
# Topology smu, (6)-cn, num edge types: 1
# Building blocks:
#     Node 0, Type 0, BuildingBlock: VOLQOD_clean_sbu_1, # of connection points: 6
#     Node 1, Type 0, BuildingBlock: VOLQOD_clean_sbu_1, # of connection points: 6
#     Node 2, Type 0, BuildingBlock: VOLQOD_clean_sbu_1, # of connection points: 6
#     Node 3, Type 0, BuildingBlock: VOLQOD_clean_sbu_1, # of connection points: 6
#     Node 4, Type 0, BuildingBlock: VOLQOD_clean_sbu_1, # of connection points: 6
#     Node 5, Type 0, BuildingBlock: VOLQOD_clean_sbu_1, # of connection points: 6
#     Edge 6, Type (0, 0), BuildingBlock: ZUJKAS_clean_linker_0, # of connection points: 2
#     Edge 7, Type (0, 0), BuildingBlock: ZUJKAS_clean_linker_0, # of connection points: 2
#     Edge 8, Type (0, 0), BuildingBlock: ZUJKAS_clean_linker_0, # of connection points: 2
#     Edge 9, Type (0, 0), BuildingBlock: ZUJKAS_clean_linker_0, # of connection points: 2
#     Edge 10, Type (0, 0), BuildingBlock: ZUJKAS_clean_linker_0, # of connection points: 2
#     Edge 11, Type (0, 0), BuildingBlock: ZUJKAS_clean_linker_0, # of connection points: 2
#     Edge 12, Type (0, 0), BuildingBlock: ZUJKAS_clean_linker_0, # of connection points: 2
#     Edge 13, Type (0, 0), BuildingBlock: ZUJKAS_clean_linker_0, # of connection points: 2
#     Edge 14, Type (0, 0), BuildingBlock: ZUJKAS_clean_linker_0, # of connection points: 2
#     Edge 15, Type (0, 0), BuildingBlock: ZUJKAS_clean_linker_0, # of connection points: 2
#     Edge 16, Type (0, 0), BuildingBlock: ZUJKAS_clean_linker_0, # of connection points: 2
#     Edge 17, Type (0, 0), BuildingBlock: ZUJKAS_clean_linker_0, # of connection points: 2
#     Edge 18, Type (0, 0), BuildingBlock: ZUJKAS_clean_linker_0, # of connection points: 2
#     Edge 19, Type (0, 0), BuildingBlock: ZUJKAS_clean_linker_0, # of connection points: 2
#     Edge 20, Type (0, 0), BuildingBlock: ZUJKAS_clean_linker_0, # of connection points: 2
#     Edge 21, Type (0, 0), BuildingBlock: ZUJKAS_clean_linker_0, # of connection points: 2
#     Edge 22, Type (0, 0), BuildingBlock: ZUJKAS_clean_linker_0, # of connection points: 2
#     Edge 23, Type (0, 0), BuildingBlock: ZUJKAS_clean_linker_0, # of connection points: 2
# Relax obj value: 0.300
# Max RMSD: 0.244
# Mean RMSD: 0.244
data_MOF--net-smu--node1-VOLQOD_clean_sbu_1--edge1-ZUJKAS_clean_linker_0
_symmetry_space_group_name_H-M    P1
_symmetry_Int_Tables_number       1
_symmetry_cell_setting            triclinic
loop_
_symmetry_equiv_pos_as_xyz
'x, y, z'
_cell_length_a     38.902207
_cell_length_b     38.916783
_cell_length_c     41.621795
_cell_angle_alpha  90.044576
_cell_angle_beta   89.940069
_cell_angle_gamma 119.92151
loop_
_atom_site_label
_atom_site_type_symbol
_atom_site_fract_x
_atom_site_fract_y
_atom_site_fract_z
_atom_type_partial_charge
O0 O 0.38997 0.15603 0.23662 0.0
Zn1 Zn 0.34013 0.10544 0.22683 0.0
O2 O 0.32667 0.06724 0.26119 0.0
Zn3 Zn 0.32743 0.02091 0.24429 0.0
Zn4 Zn 0.36489 0.09177 0.29527 0.0
Zn5 Zn 0.27537 0.05319 0.27889 0.0
O6 O 0.27415 0.97137 0.25102 0.0
O7 O 0.23716 -0.00256 0.26669 0.0
O8 O 0.34301 0.08393 0.18349 0.0
O9 O 0.33553 0.02526 0.19638 0.0
O10 O 0.3741 0.01781 0.26227 0.0
O11 O 0.40278 0.07153 0.29332 0.0
O12 O 0.33938 0.07824 0.33901 0.0
O13 O 0.30032 0.12319 0.22454 0.0
O14 O 0.27577 0.05304 0.32727 0.0
O15 O 0.25691 0.09051 0.2633 0.0
C16 C 0.40459 0.17176 0.2637 0.0
C17 C 0.24061 0.96788 0.25806 0.0
C18 C 0.40244 0.04167 0.28042 0.0
C19 C 0.34088 0.05134 0.1755 0.0
C20 C 0.30336 0.06307 0.34782 0.0
C21 C 0.27007 0.11644 0.24101 0.0
O22 O 0.3951 0.15113 0.28936 0.0
O23 O 0.7648 0.60605 0.22438 0.0
Zn24 Zn 0.75929 0.65317 0.21379 0.0
O25 O 0.73239 0.66389 0.2482 0.0
Zn26 Zn 0.6831 0.65934 0.23232 0.0
Zn27 Zn 0.72338 0.62844 0.28351 0.0
Zn28 Zn 0.76651 0.71629 0.26406 0.0
O29 O 0.68466 0.7126 0.23517 0.0
O30 O 0.74915 0.75146 0.24491 0.0
O31 O 0.7323 0.64621 0.1711 0.0
O32 O 0.67753 0.64701 0.18487 0.0
O33 O 0.63584 0.61278 0.25369 0.0
O34 O 0.66582 0.5888 0.28456 0.0
O35 O 0.73636 0.65641 0.32632 0.0
O36 O 0.81595 0.69627 0.21037 0.0
O37 O 0.76251 0.71942 0.31209 0.0
O38 O 0.82312 0.73544 0.25161 0.0
C39 C 0.76649 0.59161 0.25141 0.0
C40 C 0.71565 0.7469 0.23661 0.0
C41 C 0.63449 0.58655 0.27292 0.0
C42 C 0.69935 0.64368 0.1637 0.0
C43 C 0.75054 0.69277 0.33369 0.0
C44 C 0.83781 0.72534 0.22857 0.0
O45 O 0.75439 0.60003 0.27713 0.0
O46 O 0.82764 0.22756 0.21568 0.0
Zn47 Zn 0.87814 0.22804 0.20511 0.0
O48 O 0.91657 0.25247 0.23937 0.0
Zn49 Zn 0.96307 0.3001 0.22361 0.0
Zn50 Zn 0.89235 0.26459 0.27441 0.0
Zn51 Zn 0.93096 0.21515 0.2554 0.0
O52 O 0.01274 0.29563 0.22953 0.0
O53 O 0.98411 0.23053 0.23818 0.0
O54 O 0.90039 0.2532 0.16205 0.0
O55 O 0.95867 0.30459 0.17568 0.0
O56 O 0.96562 0.34931 0.24303 0.0
O57 O 0.91198 0.32242 0.27431 0.0
O58 O 0.90684 0.25168 0.31725 0.0
O59 O 0.85939 0.17004 0.20243 0.0
O60 O 0.93589 0.21722 0.30371 0.0
O61 O 0.8914 0.15949 0.24181 0.0
C62 C 0.81224 0.22494 0.24326 0.0
C63 C 0.01448 0.26374 0.2314 0.0
C64 C 0.94157 0.35262 0.26197 0.0
C65 C 0.93297 0.28395 0.15449 0.0
C66 C 0.92467 0.23299 0.32504 0.0
C67 C 0.86539 0.14654 0.21962 0.0
O68 O 0.83324 0.23514 0.26872 0.0
O69 O 0.1536 0.39335 0.75882 0.0
Zn70 Zn 0.10378 0.34318 0.77118 0.0
O71 O 0.06324 0.32725 0.73836 0.0
Zn72 Zn 0.01833 0.32967 0.75612 0.0
Zn73 Zn 0.08605 0.3632 0.70306 0.0
Zn74 Zn 0.04834 0.27544 0.7216 0.0
O75 O 0.96803 0.27666 0.75073 0.0
O76 O -0.00694 0.23853 0.73543 0.0
O77 O 0.08409 0.347 0.81529 0.0
O78 O 0.02466 0.33868 0.80387 0.0
O79 O 0.0163 0.37689 0.73793 0.0
O80 O 0.06937 0.40382 0.70603 0.0
O81 O 0.06831 0.33632 0.66029 0.0
O82 O 0.12209 0.30365 0.77309 0.0
O83 O 0.04575 0.27349 0.67314 0.0
O84 O 0.08633 0.25761 0.73684 0.0
C85 C 0.16754 0.40207 0.73041 0.0
C86 C 0.96403 0.24278 0.74426 0.0
C87 C 0.04048 0.4048 0.71956 0.0
C88 C 0.05162 0.34469 0.82409 0.0
C89 C 0.05349 0.30016 0.65217 0.0
C90 C 0.11398 0.27224 0.75773 0.0
O91 O 0.14523 0.3889 0.70583 0.0
O92 O 0.2195 0.83094 0.78317 0.0
Zn93 Zn 0.22319 0.88271 0.79442 0.0
O94 O 0.2495 0.92126 0.76059 0.0
Zn95 Zn 0.29783 0.96656 0.7768 0.0
Zn96 Zn 0.26155 0.89666 0.7257 0.0
Zn97 Zn 0.21388 0.93795 0.74445 0.0
O98 O 0.29587 0.01764 0.7712 0.0
O99 O 0.23099 0.99128 0.76234 0.0
O100 O 0.24888 0.90317 0.83756 0.0
O101 O 0.30138 0.961 0.8246 0.0
O102 O 0.34654 0.96747 0.75812 0.0
O103 O 0.31909 0.91381 0.72698 0.0
O104 O 0.25084 0.91334 0.6829 0.0
O105 O 0.16599 0.86735 0.79738 0.0
O106 O 0.21733 0.94358 0.69613 0.0
O107 O 0.15732 0.90039 0.75777 0.0
C108 C 0.21778 0.81591 0.75559 0.0
C109 C 0.26472 0.0207 0.76946 0.0
C110 C 0.34949 0.94277 0.73975 0.0
C111 C 0.2802 0.93505 0.84545 0.0
C112 C 0.23326 0.93225 0.67499 0.0
C113 C 0.14343 0.87477 0.78025 0.0
O114 O 0.22996 0.8374 0.73043 0.0
O115 O 0.61718 0.7786 0.77724 0.0
Zn116 Zn 0.66007 0.76541 0.78598 0.0
O117 O 0.66643 0.73695 0.75025 0.0
Zn118 Zn 0.65646 0.68496 0.76519 0.0
Zn119 Zn 0.63023 0.73195 0.71646 0.0
Zn120 Zn 0.71913 0.76761 0.73255 0.0
O121 O 0.70617 0.68042 0.76002 0.0
O122 O 0.75018 0.74173 0.74422 0.0
O123 O 0.65062 0.73638 0.82786 0.0
O124 O 0.64572 0.67933 0.81295 0.0
O125 O 0.60697 0.64067 0.74376 0.0
O126 O 0.58708 0.67608 0.7155 0.0
O127 O 0.65546 0.74389 0.67247 0.0
O128 O 0.70792 0.81872 0.79062 0.0
O129 O 0.71887 0.76803 0.6843 0.0
O130 O 0.74589 0.82389 0.74897 0.0
C131 C 0.60113 0.78047 0.75114 0.0
C132 C 0.74156 0.70702 0.75301 0.0
C133 C 0.58152 0.64293 0.72585 0.0
C134 C 0.64516 0.70212 0.83467 0.0
C135 C 0.69132 0.75764 0.6637 0.0
C136 C 0.73833 0.83905 0.77322 0.0
O137 O 0.60572 0.76601 0.72509 0.0
H138 H 0.35394 0.9819 0.87064 0.0
H139 H 0.37133 -0.00031 0.92705 0.0
H140 H 0.24806 0.92778 0.95341 0.0
H141 H 0.23096 0.90822 0.89736 0.0
H142 H 0.35292 0.03982 0.96459 0.0
H143 H 0.29521 0.89281 0.02064 0.0
H144 H 0.29917 0.89941 0.97767 0.0
H145 H 0.25655 0.89473 -0.00115 0.0
C146 C 0.3307 0.96934 0.8886 0.0
C147 C 0.29114 0.94345 0.87968 0.0
C148 C 0.34064 0.97958 0.92082 0.0
C149 C 0.31115 0.9646 0.94469 0.0
C150 C 0.2716 0.93869 0.93572 0.0
H151 H 0.31946 0.0795 0.12386 0.0
H152 H 0.31607 0.05978 0.06773 0.0
C153 C 0.26178 0.92772 0.90361 0.0
C154 C 0.32128 0.97824 0.97851 0.0
H155 H 0.30497 0.9459 0.05616 0.0
C156 C 0.34292 0.01921 0.98459 0.0
C157 C 0.30906 0.95152 0.00471 0.0
C158 C 0.28913 0.90721 9e-05 0.0
C159 C 0.35143 0.03417 0.01603 0.0
C160 C 0.3364 0.00749 0.04225 0.0
C161 C 0.31601 0.9665 0.03616 0.0
C162 C 0.34048 0.02121 0.07611 0.0
C163 C 0.37689 0.07838 0.02064 0.0
C164 C 0.35422 0.00531 0.09982 0.0
C165 C 0.355 0.01564 0.13208 0.0
C166 C 0.34261 0.04253 0.14121 0.0
C167 C 0.32975 0.05916 0.11745 0.0
C168 C 0.32809 0.04811 0.08529 0.0
H169 H 0.39738 0.0923 1e-05 0.0
H170 H 0.35757 0.09179 0.02202 0.0
H171 H 0.39475 0.08568 0.04299 0.0
H172 H 0.36385 0.98444 0.09343 0.0
H173 H 0.36511 0.00241 0.14991 0.0
H174 H 0.6445 0.75018 0.61197 0.0
H175 H 0.65792 0.74464 0.55532 0.0
H176 H 0.77186 0.75906 0.58075 0.0
H177 H 0.75936 0.76611 0.63715 0.0
H178 H 0.77729 0.79817 0.52686 0.0
H179 H 0.64917 0.64553 0.5179 0.0
H180 H 0.63505 0.68122 0.52928 0.0
H181 H 0.6657 0.67128 0.55569 0.0
C182 C 0.67257 0.75255 0.60546 0.0
C183 C 0.7007 0.75823 0.62912 0.0
C184 C 0.68007 0.74907 0.57309 0.0
C185 C 0.71545 0.75035 0.56387 0.0
C186 C 0.74424 0.7577 0.58729 0.0
H187 H 0.7434 0.64882 0.38711 0.0
H188 H 0.73847 0.66504 0.44304 0.0
C189 C 0.73702 0.76174 0.61957 0.0
C190 C 0.72216 0.74294 0.53006 0.0
H191 H 0.68292 0.67511 0.46941 0.0
C192 C 0.75671 0.77123 0.51429 0.0
C193 C 0.6957 0.7074 0.51389 0.0
C194 C 0.65955 0.67444 0.53014 0.0
C195 C 0.76537 0.76514 0.48272 0.0
C196 C 0.7381 0.7303 0.46613 0.0
C197 C 0.7037 0.70194 0.48201 0.0
C198 C 0.74453 0.72227 0.4324 0.0
C199 C 0.80412 0.79562 0.46786 0.0
C200 C 0.74992 0.74915 0.40776 0.0
C201 C 0.7534 0.74021 0.3758 0.0
C202 C 0.75066 0.70381 0.36776 0.0
C203 C 0.74558 0.67709 0.39248 0.0
C204 C 0.7427 0.6863 0.42447 0.0
H205 H 0.82648 0.81322 0.48651 0.0
H206 H 0.81655 0.7815 0.45205 0.0
H207 H 0.79907 0.81649 0.4532 0.0
H208 H 0.75032 0.77658 0.4131 0.0
H209 H 0.75682 0.76124 0.35729 0.0
H210 H 0.9828 0.35712 0.12937 0.0
H211 H 0.00196 0.37403 0.0731 0.0
H212 H 0.92652 0.25138 0.04662 0.0
H213 H 0.90564 0.23485 0.1025 0.0
H214 H 0.04078 0.35366 0.03572 0.0
H215 H 0.89477 0.30092 0.97906 0.0
H216 H 0.90112 0.30463 0.02206 0.0
H217 H 0.89509 0.26147 0.00091 0.0
C218 C 0.96979 0.33393 0.11141 0.0
C219 C 0.94246 0.29473 0.12027 0.0
C220 C 0.98083 0.34359 0.07927 0.0
C221 C 0.96523 0.31416 0.05537 0.0
C222 C 0.93799 0.27494 0.06429 0.0
H223 H 0.07976 0.32204 0.87505 0.0
H224 H 0.06041 0.31805 0.9314 0.0
C225 C 0.92624 0.26544 0.09632 0.0
C226 C 0.97928 0.32398 0.02157 0.0
H227 H 0.94751 0.30957 0.94377 0.0
C228 C 0.02033 0.34447 0.01564 0.0
C229 C 0.95281 0.31281 0.99524 0.0
C230 C 0.90855 0.29417 -0.00032 0.0
C231 C 0.03556 0.35302 0.98424 0.0
C232 C 0.00903 0.33917 0.95788 0.0
C233 C 0.968 0.31975 0.96384 0.0
C234 C 0.02285 0.34381 0.92395 0.0
C235 C 0.07993 0.37737 0.97985 0.0
C236 C 0.00751 0.35864 0.90066 0.0
C237 C 0.01758 0.35975 0.86829 0.0
C238 C 0.04375 0.34668 0.85859 0.0
C239 C 0.06002 0.3329 0.88193 0.0
C240 C 0.04916 0.33087 0.91422 0.0
H241 H 0.09423 0.39722 0.00076 0.0
H242 H 0.09236 0.35723 0.97805 0.0
H243 H 0.0879 0.3958 0.95779 0.0
H244 H 0.98715 0.36877 0.90745 0.0
H245 H 0.00462 0.37055 0.8508 0.0
H246 H 0.35362 0.07603 0.39821 0.0
H247 H 0.33578 0.05468 0.45389 0.0
H248 H 0.21227 0.00864 0.43143 0.0
H249 H 0.22965 0.02937 0.37552 0.0
H250 H 0.29462 0.07231 0.50049 0.0
H251 H 0.21514 0.91225 0.46849 0.0
H252 H 0.24717 0.95038 0.44061 0.0
H253 H 0.19801 0.94169 0.44829 0.0
C254 C 0.32266 0.06166 0.40509 0.0
C255 C 0.29305 0.05408 0.38226 0.0
C256 C 0.31254 0.0495 0.43695 0.0
C257 C 0.27267 0.02946 0.44661 0.0
C258 C 0.24315 0.02336 0.42429 0.0
H259 H 0.20198 0.97546 0.64886 0.0
H260 H 0.20792 -0.00163 0.59331 0.0
C261 C 0.25321 0.03545 0.39238 0.0
C262 C 0.26214 0.01397 0.47981 0.0
H263 H 0.21499 0.92817 0.52317 0.0
C264 C 0.277 0.04083 0.50551 0.0
C265 C 0.23953 0.97283 0.48618 0.0
C266 C 0.22426 0.94249 0.45951 0.0
C267 C 0.27014 0.02764 0.5375 0.0
C268 C 0.2473 0.98652 0.54387 0.0
C269 C 0.23215 0.95968 0.51816 0.0
C270 C 0.24108 0.9706 0.57701 0.0
C271 C 0.28857 0.05771 0.56416 0.0
C272 C 0.25644 0.94617 0.58592 0.0
C273 C 0.25288 0.93278 0.61752 0.0
C274 C 0.23374 0.94349 0.64088 0.0
C275 C 0.21711 0.96684 0.63157 0.0
C276 C 0.22068 0.98018 0.59988 0.0
H277 H 0.31209 0.08693 0.5551 0.0
H278 H 0.26532 0.06205 0.57578 0.0
H279 H 0.30161 0.0472 0.58277 0.0
H280 H 0.27212 0.93826 0.56857 0.0
H281 H 0.26593 0.91475 0.62376 0.0
H282 H 0.61458 0.62686 0.8584 0.0
H283 H 0.61232 0.6072 0.91456 0.0
H284 H 0.66667 0.72982 0.94348 0.0
H285 H 0.66728 0.74936 0.88781 0.0
H286 H 0.66995 0.62306 0.95333 0.0
H287 H 0.58157 0.68233 0.00881 0.0
H288 H 0.58515 0.67912 0.96582 0.0
H289 H 0.62285 0.72104 0.98771 0.0
C290 C 0.62538 0.64952 0.87684 0.0
C291 C 0.64087 0.68964 0.86869 0.0
C292 C 0.62413 0.63826 0.90891 0.0
C293 C 0.63866 0.66691 0.93342 0.0
C294 C 0.65401 0.70696 0.92526 0.0
H295 H 0.74679 0.66261 0.11077 0.0
H296 H 0.72809 0.66251 0.05486 0.0
C297 C 0.65461 0.71815 0.89331 0.0
C298 C 0.64072 0.65552 0.96714 0.0
H299 H 0.62474 0.67236 0.0447 0.0
C300 C 0.65944 0.63328 0.97329 0.0
C301 C 0.62624 0.66795 0.99328 0.0
C302 C 0.60243 0.68851 0.9885 0.0
C303 C 0.66584 0.6249 0.00479 0.0
C304 C 0.6546 0.64049 0.03092 0.0
C305 C 0.63406 0.66095 0.02476 0.0
C306 C 0.66539 0.63767 0.06468 0.0
C307 C 0.68448 0.59932 0.00958 0.0
C308 C 0.63664 0.62466 0.0891 0.0
C309 C 0.64749 0.6257 0.12125 0.0
C310 C 0.68726 0.63938 0.12959 0.0
C311 C 0.71583 0.65139 0.10508 0.0
C312 C 0.70508 0.65106 0.07302 0.0
H313 H 0.67731 0.57824 0.98929 0.0
H314 H 0.71721 0.61845 0.01037 0.0
H315 H 0.67438 0.58211 0.03228 0.0
H316 H 0.60586 0.61435 0.08334 0.0
H317 H 0.62479 0.61621 0.13961 0.0
H318 H 0.90689 0.26477 0.37671 0.0
H319 H 0.92889 0.26863 0.43214 0.0
H320 H 0.98698 0.20269 0.4067 0.0
H321 H 0.96557 0.19907 0.35091 0.0
H322 H 0.91695 0.20973 0.47688 0.0
H323 H 0.07644 0.30553 0.4461 0.0
H324 H 0.03715 0.29635 0.41834 0.0
H325 H 0.05093 0.2592 0.42488 0.0
C326 C 0.92412 0.25081 0.38284 0.0
C327 C 0.93477 0.23193 0.35923 0.0
C328 C 0.93662 0.25302 0.41459 0.0
C329 C 0.96008 0.23651 0.42338 0.0
C330 C 0.9695 0.21626 0.40024 0.0
H331 H 0.01825 0.22559 0.62581 0.0
H332 H -0.00328 0.20695 0.57013 0.0
C333 C 0.95703 0.21405 0.36841 0.0
C334 C 0.97558 0.24179 0.45659 0.0
H335 H 0.06096 0.28814 0.50054 0.0
C336 C 0.94844 0.22656 0.48211 0.0
C337 C 0.01667 0.26417 0.46324 0.0
C338 C 0.04709 0.28259 0.43678 0.0
C339 C 0.96125 0.23361 0.51419 0.0
C340 C 0.00235 0.25601 0.52083 0.0
C341 C 0.02951 0.27071 0.49531 0.0
C342 C 0.01754 0.26702 0.55406 0.0
C343 C 0.93066 0.2184 0.54069 0.0
C344 C 0.03759 0.30705 0.56315 0.0
C345 C 0.05016 0.31786 0.59483 0.0
C346 C 0.04301 0.28879 0.61806 0.0
C347 C 0.02405 0.24873 0.60859 0.0
C348 C 0.01151 0.23797 0.57684 0.0
H349 H 0.90042 0.20892 0.53147 0.0
H350 H 0.93004 0.19243 0.55227 0.0
H351 H 0.93822 0.24148 0.55936 0.0
H352 H 0.04268 0.32994 0.54588 0.0
H353 H 0.06477 0.34898 0.60119 0.0
H354 H 0.45911 0.07237 0.32679 0.0
H355 H 0.5281 0.08924 0.32019 0.0
H356 H 0.49875 0.02491 0.23071 0.0
H357 H 0.42944 0.00783 0.23706 0.0
H358 H 0.57471 0.04834 0.30198 0.0
H359 H 0.56649 0.14857 0.21035 0.0
H360 H 0.5285 0.12382 0.2404 0.0
H361 H 0.53177 0.09632 0.20708 0.0
C362 C 0.46701 0.06052 0.30632 0.0
C363 C 0.43916 0.03954 0.28209 0.0
C364 C 0.5064 0.07008 0.30264 0.0
C365 C 0.51838 0.05891 0.2747 0.0
C366 C 0.48986 0.03395 0.25233 0.0
H367 H 0.75764 0.18562 0.19611 0.0
H368 H 0.68633 0.14231 0.20274 0.0
C369 C 0.45028 0.02411 0.25608 0.0
C370 C 0.56086 0.07968 0.26643 0.0
H371 H 0.62922 0.15764 0.2221 0.0
C372 C 0.58674 0.07188 0.28423 0.0
C373 C 0.57618 0.11049 0.24338 0.0
C374 C 0.54949 0.12067 0.22424 0.0
C375 C 0.62792 0.09456 0.27977 0.0
C376 C 0.64331 0.12641 0.25762 0.0
C377 C 0.61727 0.13334 0.23917 0.0
C378 C 0.68635 0.1536 0.25365 0.0
C379 C 0.6545 0.08418 0.29877 0.0
C380 C 0.70968 0.17552 0.27984 0.0
C381 C 0.7505 0.20036 0.27618 0.0
C382 C 0.76858 0.20402 0.24613 0.0
C383 C 0.74472 0.18357 0.21958 0.0
C384 C 0.70397 0.15856 0.22334 0.0
H385 H 0.63835 0.05279 0.30685 0.0
H386 H 0.68066 0.08916 0.28441 0.0
H387 H 0.66523 0.10323 0.32048 0.0
H388 H 0.69637 0.17309 0.30321 0.0
H389 H 0.76798 0.21587 0.29706 0.0
H390 H 0.61424 0.53752 0.3245 0.0
H391 H 0.56405 0.46726 0.32504 0.0
H392 H 0.52102 0.48002 0.23297 0.0
H393 H 0.57116 0.55061 0.23225 0.0
H394 H 0.47289 0.41586 0.309 0.0
H395 H 0.58229 0.41279 0.22401 0.0
H396 H 0.59536 0.45401 0.25077 0.0
H397 H 0.56519 0.44727 0.21618 0.0
C398 C 0.59308 0.52572 0.30494 0.0
C399 C 0.59694 0.54927 0.27808 0.0
C400 C 0.56439 0.48564 0.30535 0.0
C401 C 0.53941 0.46862 0.27885 0.0
C402 C 0.54025 0.49288 0.25359 0.0
H403 H 0.42396 0.22499 0.21478 0.0
H404 H 0.45498 0.29677 0.21899 0.0
C405 C 0.56878 0.53317 0.25328 0.0
C406 C 0.5185 0.42521 0.27508 0.0
H407 H 0.52797 0.35176 0.23884 0.0
C408 C 0.48457 0.40168 0.2935 0.0
C409 C 0.53429 0.40714 0.25503 0.0
C410 C 0.57141 0.43139 0.23542 0.0
C411 C 0.46566 0.36012 0.29214 0.0
C412 C 0.48194 0.34203 0.27252 0.0
C413 C 0.5157 0.36575 0.25393 0.0
C414 C 0.46418 0.29851 0.27036 0.0
C415 C 0.42818 0.33603 0.31131 0.0
C416 C 0.46034 0.2758 0.29772 0.0
C417 C 0.44251 0.23457 0.29545 0.0
C418 C 0.4286 0.21547 0.26568 0.0
C419 C 0.43426 0.23863 0.23811 0.0
C420 C 0.45183 0.2797 0.24046 0.0
H421 H 0.41396 0.35374 0.31784 0.0
H422 H 0.40649 0.30942 0.29771 0.0
H423 H 0.4355 0.32596 0.3339 0.0
H424 H 0.47079 0.28991 0.32087 0.0
H425 H 0.43878 0.21766 0.31712 0.0
H426 H 0.91492 0.3764 0.31285 0.0
H427 H 0.89795 0.42891 0.31224 0.0
H428 H 0.95365 0.46743 0.21953 0.0
H429 H 0.97087 0.41481 0.21993 0.0
H430 H 0.939 0.51758 0.29706 0.0
H431 H 0.82802 0.41429 0.20844 0.0
H432 H 0.85482 0.39909 0.23475 0.0
H433 H 0.87939 0.43031 0.20088 0.0
C434 C 0.92487 0.39698 0.29286 0.0
C435 C 0.94359 0.39118 0.26617 0.0
C436 C 0.91525 0.427 0.29261 0.0
C437 C 0.92402 0.45143 0.26562 0.0
C438 C 0.94654 0.44857 0.24048 0.0
H439 H 0.80318 0.57549 0.20256 0.0
H440 H 0.84368 0.54405 0.20632 0.0
C441 C 0.9565 0.41865 0.24082 0.0
C442 C 0.90336 0.47421 0.2615 0.0
H443 H 0.82346 0.46975 0.22378 0.0
C444 C 0.914 0.50752 0.28083 0.0
C445 C 0.87053 0.46051 0.24054 0.0
C446 C 0.85715 0.42396 0.22004 0.0
C447 C 0.89259 0.52778 0.27959 0.0
C448 C 0.85919 0.51352 0.2591 0.0
C449 C 0.849 0.4805 0.2395 0.0
C450 C 0.83434 0.53239 0.25732 0.0
C451 C 0.90614 0.56441 0.29993 0.0
C452 C 0.81468 0.53521 0.28463 0.0
C453 C 0.79143 0.55328 0.28263 0.0
C454 C 0.78715 0.56843 0.25317 0.0
C455 C 0.80576 0.56417 0.22566 0.0
C456 C 0.82912 0.54636 0.22775 0.0
H457 H 0.93775 0.57749 0.30703 0.0
H458 H 0.90236 0.58724 0.28698 0.0
H459 H 0.88808 0.55638 0.3222 0.0
H460 H 0.81739 0.52352 0.3075 0.0
H461 H 0.77738 0.55593 0.30423 0.0
H462 H 0.0737 0.46206 0.67375 0.0
H463 H 0.09011 0.53097 0.67964 0.0
H464 H 0.02307 0.50179 0.76779 0.0
H465 H 0.00647 0.43255 0.76219 0.0
H466 H 0.04711 0.57591 0.69471 0.0
H467 H 0.14532 0.57272 0.79081 0.0
H468 H 0.12244 0.53396 0.76111 0.0
H469 H 0.09324 0.53701 0.7932 0.0
C470 C 0.06132 0.46999 0.69384 0.0
C471 C 0.03951 0.44214 0.71787 0.0
C472 C 0.07061 0.50933 0.69709 0.0
C473 C 0.05834 0.52134 0.72441 0.0
C474 C 0.03297 0.49289 0.74666 0.0
H475 H 0.1757 0.76093 0.80177 0.0
H476 H 0.13374 0.68954 0.79476 0.0
C477 C 0.02342 0.45337 0.74334 0.0
C478 C 0.07784 0.56393 0.73208 0.0
H479 H 0.15259 0.6344 0.77768 0.0
C480 C 0.06982 0.58881 0.7131 0.0
C481 C 0.10759 0.58039 0.75597 0.0
C482 C 0.11803 0.55484 0.77641 0.0
C483 C 0.09116 0.63009 0.71726 0.0
C484 C 0.12192 0.64664 0.74037 0.0
C485 C 0.12911 0.62157 0.7599 0.0
C486 C 0.14768 0.6899 0.74437 0.0
C487 C 0.08051 0.65552 0.69696 0.0
C488 C 0.17043 0.71355 0.71859 0.0
C489 C 0.19448 0.75446 0.72247 0.0
C490 C 0.19654 0.77229 0.75234 0.0
C491 C 0.17493 0.7482 0.77844 0.0
C492 C 0.1507 0.7074 0.77446 0.0
H493 H 0.04956 0.63838 0.68793 0.0
H494 H 0.08387 0.68148 0.71071 0.0
H495 H 0.10055 0.66656 0.67582 0.0
H496 H 0.16947 0.7004 0.69543 0.0
H497 H 0.21091 0.77214 0.70194 0.0
H498 H 0.41251 0.97544 0.78108 0.0
H499 H 0.46742 0.96159 0.78237 0.0
H500 H 0.42676 0.89714 0.69324 0.0
H501 H 0.37204 0.91076 0.69176 0.0
H502 H 0.44667 0.88058 0.78486 0.0
H503 H 0.54846 0.95743 0.68315 0.0
H504 H 0.51587 0.97353 0.69976 0.0
H505 H 0.49691 0.93241 0.67231 0.0
C506 C 0.41616 0.95961 0.76116 0.0
C507 C 0.38781 0.94386 0.73646 0.0
C508 C 0.44745 0.95162 0.762 0.0
C509 C 0.45118 0.92849 0.73785 0.0
C510 C 0.42478 0.91556 0.71185 0.0
H511 H 0.55409 0.78243 0.70312 0.0
H512 H 0.51992 0.82081 0.7018 0.0
C513 C 0.39336 0.92316 0.71115 0.0
C514 C 0.47789 0.91207 0.74226 0.0
H515 H 0.55043 0.90156 0.70535 0.0
C516 C 0.46992 0.8857 0.76786 0.0
C517 C 0.50768 0.91844 0.71975 0.0
C518 C 0.51805 0.94727 0.69233 0.0
C519 C 0.48972 0.86406 0.77077 0.0
C520 C 0.51902 0.86979 0.74787 0.0
C521 C 0.52786 0.89712 0.72281 0.0
C522 C 0.53985 0.84672 0.74892 0.0
C523 C 0.47763 0.83385 0.79739 0.0
C524 C 0.56243 0.84865 0.77582 0.0
C525 C 0.58152 0.82636 0.77684 0.0
C526 C 0.57892 0.80218 0.75073 0.0
C527 C 0.55657 0.80062 0.72367 0.0
C528 C 0.53719 0.82266 0.72281 0.0
H529 H 0.44808 0.82581 0.80746 0.0
H530 H 0.4767 0.8064 0.78875 0.0
H531 H 0.49959 0.84643 0.81717 0.0
H532 H 0.56559 0.86768 0.79593 0.0
H533 H 0.59896 0.82871 0.79787 0.0
H534 H 0.2241 0.46616 0.76297 0.0
H535 H 0.2962 0.4964 0.75741 0.0
H536 H 0.27937 0.4092 0.68557 0.0
H537 H 0.20765 0.38121 0.68929 0.0
H538 H 0.34323 0.46979 0.76915 0.0
H539 H 0.3563 0.50411 0.63887 0.0
H540 H 0.31057 0.48727 0.66048 0.0
H541 H 0.32521 0.45236 0.64709 0.0
C542 C 0.23604 0.4542 0.74553 0.0
C543 C 0.21068 0.42215 0.72601 0.0
C544 C 0.27709 0.47116 0.74251 0.0
C545 C 0.29335 0.45558 0.72059 0.0
C546 C 0.26777 0.42277 0.70172 0.0
H547 H 0.55353 0.56551 0.74528 0.0
H548 H 0.48503 0.51042 0.7407 0.0
C549 C 0.22681 0.40673 0.70394 0.0
C550 C 0.33702 0.47346 0.71806 0.0
H551 H 0.41456 0.51628 0.66552 0.0
C552 C 0.35888 0.48 0.74648 0.0
C553 C 0.35738 0.48633 0.68839 0.0
C554 C 0.3362 0.48251 0.65705 0.0
C555 C 0.40047 0.5014 0.74642 0.0
C556 C 0.4208 0.51491 0.71681 0.0
C557 C 0.39891 0.50574 0.68816 0.0
C558 C 0.46366 0.54471 0.71535 0.0
C559 C 0.42189 0.5116 0.77828 0.0
C560 C 0.47494 0.58121 0.70064 0.0
C561 C 0.51387 0.61203 0.70238 0.0
C562 C 0.54256 0.60746 0.71938 0.0
C563 C 0.53199 0.57011 0.73239 0.0
C564 C 0.4928 0.53876 0.73007 0.0
H565 H 0.40137 0.50528 0.79886 0.0
H566 H 0.43659 0.49367 0.78148 0.0
H567 H 0.44496 0.54344 0.77916 0.0
H568 H 0.45316 0.58661 0.68901 0.0
H569 H 0.52085 0.64015 0.69168 0.0
H570 H 0.20161 0.10818 0.2669 0.0
H571 H 0.17435 0.15228 0.25967 0.0
H572 H 0.2719 0.22705 0.19721 0.0
H573 H 0.29894 0.18279 0.20363 0.0
H574 H 0.21007 0.23395 0.27362 0.0
H575 H 0.17461 0.20303 0.14338 0.0
H576 H 0.18624 0.17219 0.16816 0.0
H577 H 0.22495 0.22005 0.15536 0.0
C578 C 0.21709 0.13379 0.25141 0.0
C579 C 0.25219 0.1417 0.23561 0.0
C580 C 0.20164 0.15909 0.24746 0.0
C581 C 0.22105 0.19274 0.22775 0.0
C582 C 0.25619 0.20091 0.21211 0.0
H583 H 0.0912 0.32657 0.2351 0.0
H584 H 0.15252 0.32301 0.22989 0.0
C585 C 0.27152 0.1755 0.21583 0.0
C586 C 0.2037 0.21861 0.22344 0.0
H587 H 0.15179 0.24096 0.16963 0.0
C588 C 0.19803 0.23634 0.25077 0.0
C589 C 0.18861 0.22198 0.19345 0.0
C590 C 0.1936 0.20319 0.16337 0.0
C591 C 0.17464 0.25441 0.24948 0.0
C592 C 0.15694 0.25497 0.22001 0.0
C593 C 0.1657 0.24057 0.1921 0.0
C594 C 0.12189 0.26015 0.21939 0.0
C595 C 0.16605 0.2695 0.28013 0.0
C596 C 0.08489 0.22634 0.21435 0.0
C597 C 0.05037 0.22822 0.21738 0.0
C598 C 0.05199 0.26405 0.22545 0.0
C599 C 0.08917 0.29856 0.22901 0.0
C600 C 0.12407 0.29656 0.22613 0.0
H601 H 0.18128 0.26568 0.30124 0.0
H602 H 0.17594 0.30149 0.27759 0.0
H603 H 0.13362 0.25357 0.28484 0.0
H604 H 0.08261 0.19797 0.2092 0.0
H605 H 0.02226 0.20121 0.21399 0.0
H606 H 0.89425 0.78716 0.26355 0.0
H607 H 0.96587 0.81404 0.26178 0.0
H608 H 0.95188 0.73424 0.18452 0.0
H609 H 0.87999 0.70709 0.18587 0.0
H610 H 0.00278 0.76266 0.26945 0.0
H611 H 0.04077 0.84875 0.15504 0.0
H612 H -0.00401 0.83661 0.1769 0.0
H613 H -5e-05 0.79851 0.15592 0.0
C614 C 0.90631 0.77562 0.24586 0.0
C615 C 0.88135 0.74493 0.2249 0.0
C616 C 0.94721 0.7909 0.24499 0.0
C617 C 0.9639 0.77596 0.22309 0.0
C618 C 0.9394 0.7462 0.20145 0.0
H619 H 0.22459 0.90813 0.21531 0.0
H620 H 0.15925 0.8496 0.20492 0.0
C621 C 0.89838 0.73083 0.20228 0.0
C622 C 0.00695 0.79107 0.22406 0.0
H623 H 0.09343 0.85904 0.18869 0.0
C624 C 0.02271 0.78305 0.25146 0.0
C625 C 0.03264 0.81695 0.20023 0.0
C626 C 0.01678 0.82598 0.1703 0.0
C627 C 0.06367 0.80279 0.25687 0.0
C628 C 0.08918 0.83161 0.23457 0.0
C629 C 0.07368 0.8369 0.20575 0.0
C630 C 0.12983 0.862 0.24361 0.0
C631 C 0.07915 0.79429 0.28728 0.0
C632 C 0.13474 0.88781 0.26894 0.0
C633 C 0.17148 0.92113 0.2746 0.0
C634 C 0.20411 0.92923 0.2551 0.0
C635 C 0.19987 0.90227 0.23082 0.0
C636 C 0.1627 0.869 0.22483 0.0
H637 H 0.05946 0.76329 0.29539 0.0
H638 H 0.10962 0.79928 0.28389 0.0
H639 H 0.0799 0.81431 0.30662 0.0
H640 H 0.10958 0.8834 0.28327 0.0
H641 H 0.174 0.94141 0.29352 0.0
H642 H 0.8722 0.08685 0.24789 0.0
H643 H 0.82618 0.01566 0.24389 0.0
H644 H 0.75218 0.03711 0.17943 0.0
H645 H 0.79841 0.10844 0.18275 0.0
H646 H 0.74419 0.97447 0.25981 0.0
H647 H 0.77087 0.95575 0.13096 0.0
H648 H 0.80418 -0.00037 0.15334 0.0
H649 H 0.7568 0.99208 0.14075 0.0
C650 C 0.84637 0.07649 0.23261 0.0
C651 C 0.83917 0.10334 0.21549 0.0
C652 C 0.81998 0.03583 0.23051 0.0
C653 C 0.78588 0.02122 0.21131 0.0
C654 C 0.77857 0.0478 0.19406 0.0
H655 H 0.6518 0.75973 0.23703 0.0
H656 H 0.65403 0.82317 0.22603 0.0
C657 C 0.8051 0.08854 0.19599 0.0
C658 C 0.75855 0.97798 0.20955 0.0
H659 H 0.73435 0.89823 0.16141 0.0
C660 C 0.74104 0.95764 0.23814 0.0
C661 C 0.7542 0.95637 0.18107 0.0
C662 C 0.77257 0.97685 0.14974 0.0
C663 C 0.72254 0.9162 0.23975 0.0
C664 C 0.72134 0.8948 0.21193 0.0
C665 C 0.73523 0.91488 0.18261 0.0
C666 C 0.71671 0.8549 0.21468 0.0
C667 C 0.70798 0.89595 0.27181 0.0
C668 C 0.75083 0.85179 0.21113 0.0
C669 C 0.7497 0.81629 0.21748 0.0
C670 C 0.71433 0.78283 0.22746 0.0
C671 C 0.67947 0.78518 0.22954 0.0
C672 C 0.68071 0.82126 0.22334 0.0
H673 H 0.71179 0.91713 0.29126 0.0
H674 H 0.67605 0.87338 0.27009 0.0
H675 H 0.72434 0.88042 0.27855 0.0
H676 H 0.7789 0.87742 0.20457 0.0
H677 H 0.77696 0.81534 0.2151 0.0
H678 H 0.18107 0.30139 0.79431 0.0
H679 H 0.2261 0.27508 0.7994 0.0
H680 H 0.15032 0.17715 0.7377 0.0
H681 H 0.10543 0.20364 0.73183 0.0
H682 H 0.21346 0.2061 0.82367 0.0
H683 H 0.25781 0.21582 0.69659 0.0
H684 H 0.23287 0.24106 0.71194 0.0
H685 H 0.20483 0.18968 0.70025 0.0
C686 C 0.17387 0.2742 0.78179 0.0
C687 C 0.13962 0.25463 0.76255 0.0
C688 C 0.19981 0.25937 0.78464 0.0
C689 C 0.19209 0.22478 0.76828 0.0
C690 C 0.15748 0.20462 0.74971 0.0
H691 H 0.20775 0.02986 0.79785 0.0
H692 H 0.20402 0.09006 0.80243 0.0
C693 C 0.13159 0.21953 0.74669 0.0
C694 C 0.21879 0.20822 0.77203 0.0
H695 H 0.26285 0.16626 0.72887 0.0
C696 C 0.22514 0.19827 0.803 0.0
C697 C 0.23527 0.19922 0.74522 0.0
C698 C 0.23274 0.21246 0.71168 0.0
C699 C 0.24387 0.17585 0.8075 0.0
C700 C 0.25573 0.16251 0.78034 0.0
C701 C 0.25325 0.17607 0.74969 0.0
C702 C 0.26235 0.12837 0.7824 0.0
C703 C 0.24876 0.16473 0.8412 0.0
C704 C 0.29653 0.12986 0.76961 0.0
C705 C 0.29876 0.09508 0.76697 0.0
C706 C 0.26637 0.05856 0.77636 0.0
C707 C 0.23303 0.05762 0.79024 0.0
C708 C 0.23105 0.09212 0.79323 0.0
H709 H 0.25339 0.18843 0.8585 0.0
H710 H 0.22132 0.13733 0.84843 0.0
H711 H 0.27413 0.15927 0.84291 0.0
H712 H 0.32075 0.15756 0.76072 0.0
H713 H 0.32468 0.09641 0.75606 0.0
H714 H 0.08566 0.88781 0.75566 0.0
H715 H 0.01374 0.84424 0.75982 0.0
H716 H 0.03108 0.76283 0.81835 0.0
H717 H 0.10296 0.80625 0.81473 0.0
H718 H 0.97803 0.73225 0.75747 0.0
H719 H 0.94148 0.81668 0.84565 0.0
H720 H 0.97619 0.84537 0.81453 0.0
H721 H 0.98967 0.82038 0.84384 0.0
C722 C 0.07421 0.8609 0.76974 0.0
C723 C 0.10004 0.85056 0.7849 0.0
C724 C 0.03319 0.83611 0.77211 0.0
C725 C 0.01739 0.80054 0.78945 0.0
C726 C 0.0429 0.7903 0.80498 0.0
H727 H 0.75921 0.67803 0.8061 0.0
H728 H 0.8251 0.68766 0.81904 0.0
C729 C 0.08392 0.81526 0.80294 0.0
C730 C 0.97416 0.77333 0.78992 0.0
H731 H 0.888 0.76747 0.81481 0.0
C732 C 0.95821 0.73936 0.77049 0.0
C733 C 0.94865 0.78252 0.80732 0.0
C734 C 0.96469 0.81805 0.82926 0.0
C735 C 0.91708 0.71584 0.76619 0.0
C736 C 0.89164 0.72678 0.78169 0.0
C737 C 0.90759 0.75906 0.80301 0.0
C738 C 0.84979 0.71019 0.772 0.0
C739 C 0.90123 0.6805 0.74408 0.0
C740 C 0.84165 0.7183 0.74099 0.0
C741 C 0.80449 0.71332 0.73379 0.0
C742 C 0.77477 0.69969 0.75735 0.0
C743 C 0.78158 0.68796 0.78744 0.0
C744 C 0.81917 0.69363 0.79487 0.0
H745 H 0.92187 0.66859 0.74256 0.0
H746 H 0.87173 0.65654 0.75222 0.0
H747 H 0.89793 0.68969 0.71956 0.0
H748 H 0.86504 0.73181 0.7232 0.0
H749 H 0.79989 0.72292 0.71055 0.0
H750 H 0.9314 0.18002 0.70445 0.0
H751 H 0.87729 0.11388 0.71693 0.0
H752 H 0.8572 0.15674 0.80666 0.0
H753 H 0.9117 0.22374 0.79393 0.0
H754 H 0.87597 0.09624 0.81273 0.0
H755 H 0.75665 0.05331 0.72346 0.0
H756 H 0.80439 0.07743 0.70446 0.0
H757 H 0.79179 0.10451 0.73272 0.0
C758 C 0.91446 0.17563 0.72628 0.0
C759 C 0.92553 0.20666 0.7483 0.0
C760 C 0.88339 0.13792 0.7333 0.0
C761 C 0.86303 0.13054 0.76257 0.0
C762 C 0.87234 0.16208 0.78378 0.0
H763 H 0.73181 0.88076 0.82347 0.0
H764 H 0.75964 0.9525 0.82668 0.0
C765 C 0.90324 0.20021 0.77648 0.0
C766 C 0.83777 0.08898 0.77273 0.0
H767 H 0.7672 -7e-05 0.74286 0.0
C768 C 0.85126 0.07515 0.7982 0.0
C769 C 0.80568 0.0617 0.75367 0.0
C770 C 0.78855 0.0751 0.72726 0.0
C771 C 0.83586 0.03443 0.80316 0.0
C772 C 0.80624 0.0073 0.78221 0.0
C773 C 0.7905 0.02105 0.75848 0.0
C774 C 0.79334 0.96475 0.7827 0.0
C775 C 0.85317 0.02062 0.82913 0.0
C776 C 0.8041 0.9483 0.75732 0.0
C777 C 0.78842 0.90738 0.75538 0.0
C778 C 0.76139 0.8823 0.77867 0.0
C779 C 0.75247 0.89923 0.80505 0.0
C780 C 0.76826 0.94018 0.80699 0.0
H781 H 0.87805 0.04575 0.84197 0.0
H782 H 0.82977 0.00248 0.84688 0.0
H783 H 0.86404 0.00156 0.81859 0.0
H784 H 0.82362 0.96708 0.73844 0.0
H785 H 0.79587 0.89537 0.73476 0.0
loop_
_geom_bond_atom_site_label_1
_geom_bond_atom_site_label_2
_geom_bond_distance
_geom_bond_site_symmetry_2
_ccdc_geom_bond_type
O0 Zn1 1.953 . S
O0 C16 1.225 . S
Zn1 O0 1.953 . S
Zn1 O2 1.949 . S
Zn1 O8 1.919 . S
Zn1 O13 1.924 . S
O2 Zn1 1.949 . S
O2 Zn3 1.923 . S
O2 Zn4 1.950 . S
O2 Zn5 1.945 . S
Zn3 O2 1.923 . S
Zn3 O6 1.933 . S
Zn3 O9 1.941 . S
Zn3 O10 1.965 . S
Zn4 O2 1.950 . S
Zn4 O11 1.938 . S
Zn4 O12 1.906 . S
Zn4 O22 1.953 . S
Zn5 O2 1.945 . S
Zn5 O7 1.932 . S
Zn5 O14 1.977 . S
Zn5 O15 1.910 . S
O6 Zn3 1.933 . S
O6 C17 1.226 1_545 S
O7 Zn5 1.932 . S
O7 C17 1.307 1_545 S
O8 Zn1 1.919 . S
O8 C19 1.253 . S
O9 Zn3 1.941 . S
O9 C19 1.283 . S
O10 Zn3 1.965 . S
O10 C18 1.303 . S
O11 Zn4 1.938 . S
O11 C18 1.247 . S
O12 Zn4 1.906 . S
O12 C20 1.304 . S
O13 Zn1 1.924 . S
O13 C21 1.311 . S
O14 Zn5 1.977 . S
O14 C20 1.272 . S
O15 Zn5 1.910 . S
O15 C21 1.231 . S
C16 O0 1.225 . S
C16 O22 1.298 . S
C17 O6 1.226 1_565 S
C17 O7 1.307 1_565 S
C18 O10 1.303 . S
C18 O11 1.247 . S
C19 O8 1.253 . S
C19 O9 1.283 . S
C20 O12 1.304 . S
C20 O14 1.272 . S
C21 O13 1.311 . S
C21 O15 1.231 . S
O22 Zn4 1.953 . S
O22 C16 1.298 . S
O23 Zn24 1.953 . S
O23 C39 1.225 . S
Zn24 O23 1.953 . S
Zn24 O25 1.949 . S
Zn24 O31 1.919 . S
Zn24 O36 1.924 . S
O25 Zn24 1.949 . S
O25 Zn26 1.923 . S
O25 Zn27 1.950 . S
O25 Zn28 1.945 . S
Zn26 O25 1.923 . S
Zn26 O29 1.933 . S
Zn26 O32 1.941 . S
Zn26 O33 1.965 . S
Zn27 O25 1.950 . S
Zn27 O34 1.938 . S
Zn27 O35 1.906 . S
Zn27 O45 1.953 . S
Zn28 O25 1.945 . S
Zn28 O30 1.932 . S
Zn28 O37 1.977 . S
Zn28 O38 1.910 . S
O29 Zn26 1.933 . S
O29 C40 1.226 . S
O30 Zn28 1.932 . S
O30 C40 1.307 . S
O31 Zn24 1.919 . S
O31 C42 1.253 . S
O32 Zn26 1.941 . S
O32 C42 1.283 . S
O33 Zn26 1.965 . S
O33 C41 1.303 . S
O34 Zn27 1.938 . S
O34 C41 1.247 . S
O35 Zn27 1.906 . S
O35 C43 1.304 . S
O36 Zn24 1.924 . S
O36 C44 1.311 . S
O37 Zn28 1.977 . S
O37 C43 1.272 . S
O38 Zn28 1.910 . S
O38 C44 1.231 . S
C39 O23 1.225 . S
C39 O45 1.298 . S
C40 O29 1.226 . S
C40 O30 1.307 . S
C41 O33 1.303 . S
C41 O34 1.247 . S
C42 O31 1.253 . S
C42 O32 1.283 . S
C43 O35 1.304 . S
C43 O37 1.272 . S
C44 O36 1.311 . S
C44 O38 1.231 . S
O45 Zn27 1.953 . S
O45 C39 1.298 . S
O46 Zn47 1.953 . S
O46 C62 1.225 . S
Zn47 O46 1.953 . S
Zn47 O48 1.949 . S
Zn47 O54 1.919 . S
Zn47 O59 1.924 . S
O48 Zn47 1.949 . S
O48 Zn49 1.923 . S
O48 Zn50 1.950 . S
O48 Zn51 1.945 . S
Zn49 O48 1.923 . S
Zn49 O52 1.933 . S
Zn49 O55 1.941 . S
Zn49 O56 1.965 . S
Zn50 O48 1.950 . S
Zn50 O57 1.938 . S
Zn50 O58 1.906 . S
Zn50 O68 1.953 . S
Zn51 O48 1.945 . S
Zn51 O53 1.932 . S
Zn51 O60 1.977 . S
Zn51 O61 1.910 . S
O52 Zn49 1.933 . S
O52 C63 1.226 1_655 S
O53 Zn51 1.932 . S
O53 C63 1.307 1_655 S
O54 Zn47 1.919 . S
O54 C65 1.253 . S
O55 Zn49 1.941 . S
O55 C65 1.283 . S
O56 Zn49 1.965 . S
O56 C64 1.303 . S
O57 Zn50 1.938 . S
O57 C64 1.247 . S
O58 Zn50 1.906 . S
O58 C66 1.304 . S
O59 Zn47 1.924 . S
O59 C67 1.311 . S
O60 Zn51 1.977 . S
O60 C66 1.272 . S
O61 Zn51 1.910 . S
O61 C67 1.231 . S
C62 O46 1.225 . S
C62 O68 1.298 . S
C63 O52 1.226 1_455 S
C63 O53 1.307 1_455 S
C64 O56 1.303 . S
C64 O57 1.247 . S
C65 O54 1.253 . S
C65 O55 1.283 . S
C66 O58 1.304 . S
C66 O60 1.272 . S
C67 O59 1.311 . S
C67 O61 1.231 . S
O68 Zn50 1.953 . S
O68 C62 1.298 . S
O69 Zn70 1.953 . S
O69 C85 1.225 . S
Zn70 O69 1.953 . S
Zn70 O71 1.949 . S
Zn70 O77 1.919 . S
Zn70 O82 1.924 . S
O71 Zn70 1.949 . S
O71 Zn72 1.923 . S
O71 Zn73 1.950 . S
O71 Zn74 1.945 . S
Zn72 O71 1.923 . S
Zn72 O75 1.933 . S
Zn72 O78 1.941 . S
Zn72 O79 1.965 . S
Zn73 O71 1.950 . S
Zn73 O80 1.938 . S
Zn73 O81 1.906 . S
Zn73 O91 1.953 . S
Zn74 O71 1.945 . S
Zn74 O76 1.932 . S
Zn74 O83 1.977 . S
Zn74 O84 1.910 . S
O75 Zn72 1.933 . S
O75 C86 1.226 1_455 S
O76 Zn74 1.932 . S
O76 C86 1.307 1_455 S
O77 Zn70 1.919 . S
O77 C88 1.253 . S
O78 Zn72 1.941 . S
O78 C88 1.283 . S
O79 Zn72 1.965 . S
O79 C87 1.303 . S
O80 Zn73 1.938 . S
O80 C87 1.247 . S
O81 Zn73 1.906 . S
O81 C89 1.304 . S
O82 Zn70 1.924 . S
O82 C90 1.311 . S
O83 Zn74 1.977 . S
O83 C89 1.272 . S
O84 Zn74 1.910 . S
O84 C90 1.231 . S
C85 O69 1.225 . S
C85 O91 1.298 . S
C86 O75 1.226 1_655 S
C86 O76 1.307 1_655 S
C87 O79 1.303 . S
C87 O80 1.247 . S
C88 O77 1.253 . S
C88 O78 1.283 . S
C89 O81 1.304 . S
C89 O83 1.272 . S
C90 O82 1.311 . S
C90 O84 1.231 . S
O91 Zn73 1.953 . S
O91 C85 1.298 . S
O92 Zn93 1.953 . S
O92 C108 1.225 . S
Zn93 O92 1.953 . S
Zn93 O94 1.949 . S
Zn93 O100 1.919 . S
Zn93 O105 1.924 . S
O94 Zn93 1.949 . S
O94 Zn95 1.923 . S
O94 Zn96 1.950 . S
O94 Zn97 1.945 . S
Zn95 O94 1.923 . S
Zn95 O98 1.933 . S
Zn95 O101 1.941 . S
Zn95 O102 1.965 . S
Zn96 O94 1.950 . S
Zn96 O103 1.938 . S
Zn96 O104 1.906 . S
Zn96 O114 1.953 . S
Zn97 O94 1.945 . S
Zn97 O99 1.932 . S
Zn97 O106 1.977 . S
Zn97 O107 1.910 . S
O98 Zn95 1.933 . S
O98 C109 1.226 1_565 S
O99 Zn97 1.932 . S
O99 C109 1.307 1_565 S
O100 Zn93 1.919 . S
O100 C111 1.253 . S
O101 Zn95 1.941 . S
O101 C111 1.283 . S
O102 Zn95 1.965 . S
O102 C110 1.303 . S
O103 Zn96 1.938 . S
O103 C110 1.247 . S
O104 Zn96 1.906 . S
O104 C112 1.304 . S
O105 Zn93 1.924 . S
O105 C113 1.311 . S
O106 Zn97 1.977 . S
O106 C112 1.272 . S
O107 Zn97 1.910 . S
O107 C113 1.231 . S
C108 O92 1.225 . S
C108 O114 1.298 . S
C109 O98 1.226 1_545 S
C109 O99 1.307 1_545 S
C110 O102 1.303 . S
C110 O103 1.247 . S
C111 O100 1.253 . S
C111 O101 1.283 . S
C112 O104 1.304 . S
C112 O106 1.272 . S
C113 O105 1.311 . S
C113 O107 1.231 . S
O114 Zn96 1.953 . S
O114 C108 1.298 . S
O115 Zn116 1.953 . S
O115 C131 1.225 . S
Zn116 O115 1.953 . S
Zn116 O117 1.949 . S
Zn116 O123 1.919 . S
Zn116 O128 1.924 . S
O117 Zn116 1.949 . S
O117 Zn118 1.923 . S
O117 Zn119 1.950 . S
O117 Zn120 1.945 . S
Zn118 O117 1.923 . S
Zn118 O121 1.933 . S
Zn118 O124 1.941 . S
Zn118 O125 1.965 . S
Zn119 O117 1.950 . S
Zn119 O126 1.938 . S
Zn119 O127 1.906 . S
Zn119 O137 1.953 . S
Zn120 O117 1.945 . S
Zn120 O122 1.932 . S
Zn120 O129 1.977 . S
Zn120 O130 1.910 . S
O121 Zn118 1.933 . S
O121 C132 1.226 . S
O122 Zn120 1.932 . S
O122 C132 1.307 . S
O123 Zn116 1.919 . S
O123 C134 1.253 . S
O124 Zn118 1.941 . S
O124 C134 1.283 . S
O125 Zn118 1.965 . S
O125 C133 1.303 . S
O126 Zn119 1.938 . S
O126 C133 1.247 . S
O127 Zn119 1.906 . S
O127 C135 1.304 . S
O128 Zn116 1.924 . S
O128 C136 1.311 . S
O129 Zn120 1.977 . S
O129 C135 1.272 . S
O130 Zn120 1.910 . S
O130 C136 1.231 . S
C131 O115 1.225 . S
C131 O137 1.298 . S
C132 O121 1.226 . S
C132 O122 1.307 . S
C133 O125 1.303 . S
C133 O126 1.247 . S
C134 O123 1.253 . S
C134 O124 1.283 . S
C135 O127 1.304 . S
C135 O129 1.272 . S
C136 O128 1.311 . S
C136 O130 1.231 . S
O137 Zn119 1.953 . S
O137 C131 1.298 . S
H138 C146 0.929 . S
H139 C148 0.930 . S
H140 C150 0.930 . S
H141 C153 0.929 . S
H142 C156 0.930 . S
H143 C158 0.960 1_554 S
H144 C158 0.960 . S
H145 C158 0.960 . S
C146 H138 0.929 . S
C146 C147 1.377 . S
C146 C148 1.384 . S
C147 C146 1.377 . S
C147 C153 1.390 . S
C148 H139 0.930 . S
C148 C146 1.384 . S
C148 C149 1.372 . S
C149 C148 1.372 . S
C149 C150 1.400 . S
C149 C154 1.490 . S
C150 H140 0.930 . S
C150 C149 1.400 . S
C150 C153 1.386 . S
H151 C167 0.930 . S
H152 C168 0.931 . S
C153 H141 0.929 . S
C153 C147 1.390 . S
C153 C150 1.386 . S
C154 C149 1.490 . S
C154 C156 1.395 1_565 S
C154 C157 1.403 . S
H155 C161 0.930 . S
C156 H142 0.930 . S
C156 C154 1.395 1_545 S
C156 C159 1.403 1_556 S
C157 C154 1.403 . S
C157 C158 1.524 . S
C157 C161 1.400 1_556 S
C158 H143 0.960 1_556 S
C158 H144 0.960 . S
C158 H145 0.960 . S
C158 C157 1.524 . S
C159 C156 1.403 1_554 S
C159 C160 1.392 . S
C159 C163 1.495 . S
C160 C159 1.392 . S
C160 C161 1.385 1_545 S
C160 C162 1.478 . S
C161 H155 0.930 . S
C161 C157 1.400 1_554 S
C161 C160 1.385 1_565 S
C162 C160 1.478 . S
C162 C164 1.381 . S
C162 C168 1.383 . S
C163 C159 1.495 . S
C163 H169 0.959 1_554 S
C163 H170 0.961 . S
C163 H171 0.960 . S
C164 C162 1.381 . S
C164 C165 1.394 . S
C164 H172 0.930 . S
C165 C164 1.394 . S
C165 C166 1.383 . S
C165 H173 0.929 . S
C166 C165 1.383 . S
C166 C167 1.377 . S
C167 H151 0.930 . S
C167 C166 1.377 . S
C167 C168 1.379 . S
C168 H152 0.931 . S
C168 C162 1.383 . S
C168 C167 1.379 . S
H169 C163 0.959 1_556 S
H170 C163 0.961 . S
H171 C163 0.960 . S
H172 C164 0.930 . S
H173 C165 0.929 . S
H174 C182 0.929 . S
H175 C184 0.930 . S
H176 C186 0.930 . S
H177 C189 0.929 . S
H178 C192 0.930 . S
H179 C194 0.960 . S
H180 C194 0.960 . S
H181 C194 0.960 . S
C182 H174 0.929 . S
C182 C183 1.377 . S
C182 C184 1.384 . S
C183 C182 1.377 . S
C183 C189 1.390 . S
C184 H175 0.930 . S
C184 C182 1.384 . S
C184 C185 1.372 . S
C185 C184 1.372 . S
C185 C186 1.400 . S
C185 C190 1.490 . S
C186 H176 0.930 . S
C186 C185 1.400 . S
C186 C189 1.386 . S
H187 C203 0.930 . S
H188 C204 0.931 . S
C189 H177 0.929 . S
C189 C183 1.390 . S
C189 C186 1.386 . S
C190 C185 1.490 . S
C190 C192 1.395 . S
C190 C193 1.403 . S
H191 C197 0.930 . S
C192 H178 0.930 . S
C192 C190 1.395 . S
C192 C195 1.403 . S
C193 C190 1.403 . S
C193 C194 1.524 . S
C193 C197 1.400 . S
C194 H179 0.960 . S
C194 H180 0.960 . S
C194 H181 0.960 . S
C194 C193 1.524 . S
C195 C192 1.403 . S
C195 C196 1.392 . S
C195 C199 1.495 . S
C196 C195 1.392 . S
C196 C197 1.385 . S
C196 C198 1.478 . S
C197 H191 0.930 . S
C197 C193 1.400 . S
C197 C196 1.385 . S
C198 C196 1.478 . S
C198 C200 1.381 . S
C198 C204 1.383 . S
C199 C195 1.495 . S
C199 H205 0.959 . S
C199 H206 0.961 . S
C199 H207 0.960 . S
C200 C198 1.381 . S
C200 C201 1.394 . S
C200 H208 0.930 . S
C201 C200 1.394 . S
C201 C202 1.383 . S
C201 H209 0.929 . S
C202 C201 1.383 . S
C202 C203 1.377 . S
C203 H187 0.930 . S
C203 C202 1.377 . S
C203 C204 1.379 . S
C204 H188 0.931 . S
C204 C198 1.383 . S
C204 C203 1.379 . S
H205 C199 0.959 . S
H206 C199 0.961 . S
H207 C199 0.960 . S
H208 C200 0.930 . S
H209 C201 0.929 . S
H210 C218 0.929 . S
H211 C220 0.930 . S
H212 C222 0.930 . S
H213 C225 0.929 . S
H214 C228 0.930 . S
H215 C230 0.960 1_556 S
H216 C230 0.960 . S
H217 C230 0.960 . S
C218 H210 0.929 . S
C218 C219 1.377 . S
C218 C220 1.384 . S
C219 C218 1.377 . S
C219 C225 1.390 . S
C220 H211 0.930 . S
C220 C218 1.384 . S
C220 C221 1.372 . S
C221 C220 1.372 . S
C221 C222 1.400 . S
C221 C226 1.490 . S
C222 H212 0.930 . S
C222 C221 1.400 . S
C222 C225 1.386 . S
H223 C239 0.930 . S
H224 C240 0.931 . S
C225 H213 0.929 . S
C225 C219 1.390 . S
C225 C222 1.386 . S
C226 C221 1.490 . S
C226 C228 1.395 1_655 S
C226 C229 1.403 . S
H227 C233 0.930 . S
C228 H214 0.930 . S
C228 C226 1.395 1_455 S
C228 C231 1.403 1_554 S
C229 C226 1.403 . S
C229 C230 1.524 . S
C229 C233 1.400 1_554 S
C230 H215 0.960 1_554 S
C230 H216 0.960 . S
C230 H217 0.960 . S
C230 C229 1.524 . S
C231 C228 1.403 1_556 S
C231 C232 1.392 . S
C231 C235 1.495 . S
C232 C231 1.392 . S
C232 C233 1.385 1_455 S
C232 C234 1.478 . S
C233 H227 0.930 . S
C233 C229 1.400 1_556 S
C233 C232 1.385 1_655 S
C234 C232 1.478 . S
C234 C236 1.381 . S
C234 C240 1.383 . S
C235 C231 1.495 . S
C235 H241 0.959 1_556 S
C235 H242 0.961 . S
C235 H243 0.960 . S
C236 C234 1.381 . S
C236 C237 1.394 . S
C236 H244 0.930 . S
C237 C236 1.394 . S
C237 C238 1.383 . S
C237 H245 0.929 . S
C238 C237 1.383 . S
C238 C239 1.377 . S
C239 H223 0.930 . S
C239 C238 1.377 . S
C239 C240 1.379 . S
C240 H224 0.931 . S
C240 C234 1.383 . S
C240 C239 1.379 . S
H241 C235 0.959 1_554 S
H242 C235 0.961 . S
H243 C235 0.960 . S
H244 C236 0.930 . S
H245 C237 0.929 . S
H246 C254 0.929 . S
H247 C256 0.930 . S
H248 C258 0.938 . S
H249 C261 0.929 . S
H250 C264 0.930 . S
H251 C266 0.960 . S
H252 C266 0.960 . S
H253 C266 0.960 . S
C254 H246 0.929 . S
C254 C255 1.377 . S
C254 C256 1.384 . S
C255 C254 1.377 . S
C255 C261 1.390 . S
C256 H247 0.930 . S
C256 C254 1.384 . S
C256 C257 1.372 . S
C257 C256 1.372 . S
C257 C258 1.400 . S
C257 C262 1.490 . S
C258 H248 0.938 . S
C258 C257 1.400 . S
C258 C261 1.386 . S
H259 C275 0.930 . S
H260 C276 0.931 . S
C261 H249 0.929 . S
C261 C255 1.390 . S
C261 C258 1.386 . S
C262 C257 1.490 . S
C262 C264 1.395 . S
C262 C265 1.403 1_545 S
H263 C269 0.930 . S
C264 H250 0.930 . S
C264 C262 1.395 . S
C264 C267 1.403 . S
C265 C262 1.403 1_565 S
C265 C266 1.524 . S
C265 C269 1.400 . S
C266 H251 0.960 . S
C266 H252 0.960 . S
C266 H253 0.960 . S
C266 C265 1.524 . S
C267 C264 1.403 . S
C267 C268 1.392 1_545 S
C267 C271 1.495 . S
C268 C267 1.392 1_565 S
C268 C269 1.385 . S
C268 C270 1.478 . S
C269 H263 0.930 . S
C269 C265 1.400 . S
C269 C268 1.385 . S
C270 C268 1.478 . S
C270 C272 1.381 . S
C270 C276 1.383 . S
C271 C267 1.495 . S
C271 H277 0.959 . S
C271 H278 0.961 . S
C271 H279 0.960 . S
C272 C270 1.381 . S
C272 C273 1.394 . S
C272 H280 0.928 1_565 S
C273 C272 1.394 . S
C273 C274 1.383 . S
C273 H281 0.929 . S
C274 C273 1.383 . S
C274 C275 1.377 . S
C275 H259 0.930 . S
C275 C274 1.377 . S
C275 C276 1.379 . S
C276 H260 0.931 . S
C276 C270 1.383 . S
C276 C275 1.379 . S
H277 C271 0.959 . S
H278 C271 0.961 . S
H279 C271 0.960 . S
H280 C272 0.928 1_545 S
H281 C273 0.929 . S
H282 C290 0.929 . S
H283 C292 0.930 . S
H284 C294 0.930 . S
H285 C297 0.929 . S
H286 C300 0.930 . S
H287 C302 0.960 1_554 S
H288 C302 0.960 . S
H289 C302 0.960 . S
C290 H282 0.929 . S
C290 C291 1.377 . S
C290 C292 1.384 . S
C291 C290 1.377 . S
C291 C297 1.390 . S
C292 H283 0.930 . S
C292 C290 1.384 . S
C292 C293 1.372 . S
C293 C292 1.372 . S
C293 C294 1.400 . S
C293 C298 1.490 . S
C294 H284 0.930 . S
C294 C293 1.400 . S
C294 C297 1.386 . S
H295 C311 0.930 . S
H296 C312 0.931 . S
C297 H285 0.929 . S
C297 C291 1.390 . S
C297 C294 1.386 . S
C298 C293 1.490 . S
C298 C300 1.395 . S
C298 C301 1.403 . S
H299 C305 0.930 . S
C300 H286 0.930 . S
C300 C298 1.395 . S
C300 C303 1.403 1_556 S
C301 C298 1.403 . S
C301 C302 1.524 . S
C301 C305 1.400 1_556 S
C302 H287 0.960 1_556 S
C302 H288 0.960 . S
C302 H289 0.960 . S
C302 C301 1.524 . S
C303 C300 1.403 1_554 S
C303 C304 1.392 . S
C303 C307 1.495 . S
C304 C303 1.392 . S
C304 C305 1.385 . S
C304 C306 1.478 . S
C305 H299 0.930 . S
C305 C301 1.400 1_554 S
C305 C304 1.385 . S
C306 C304 1.478 . S
C306 C308 1.381 . S
C306 C312 1.383 . S
C307 C303 1.495 . S
C307 H313 0.959 1_554 S
C307 H314 0.961 . S
C307 H315 0.960 . S
C308 C306 1.381 . S
C308 C309 1.394 . S
C308 H316 0.930 . S
C309 C308 1.394 . S
C309 C310 1.383 . S
C309 H317 0.929 . S
C310 C309 1.383 . S
C310 C311 1.377 . S
C311 H295 0.930 . S
C311 C310 1.377 . S
C311 C312 1.379 . S
C312 H296 0.931 . S
C312 C306 1.383 . S
C312 C311 1.379 . S
H313 C307 0.959 1_556 S
H314 C307 0.961 . S
H315 C307 0.960 . S
H316 C308 0.930 . S
H317 C309 0.929 . S
H318 C326 0.929 . S
H319 C328 0.930 . S
H320 C330 0.930 . S
H321 C333 0.929 . S
H322 C336 0.930 . S
H323 C338 0.960 . S
H324 C338 0.960 . S
H325 C338 0.960 . S
C326 H318 0.929 . S
C326 C327 1.377 . S
C326 C328 1.384 . S
C327 C326 1.377 . S
C327 C333 1.390 . S
C328 H319 0.930 . S
C328 C326 1.384 . S
C328 C329 1.372 . S
C329 C328 1.372 . S
C329 C330 1.400 . S
C329 C334 1.490 . S
C330 H320 0.930 . S
C330 C329 1.400 . S
C330 C333 1.386 . S
H331 C347 0.930 . S
H332 C348 0.931 . S
C333 H321 0.929 . S
C333 C327 1.390 . S
C333 C330 1.386 . S
C334 C329 1.490 . S
C334 C336 1.395 . S
C334 C337 1.403 1_655 S
H335 C341 0.930 . S
C336 H322 0.930 . S
C336 C334 1.395 . S
C336 C339 1.403 . S
C337 C334 1.403 1_455 S
C337 C338 1.524 . S
C337 C341 1.400 . S
C338 H323 0.960 . S
C338 H324 0.960 . S
C338 H325 0.960 . S
C338 C337 1.524 . S
C339 C336 1.403 . S
C339 C340 1.392 1_655 S
C339 C343 1.495 . S
C340 C339 1.392 1_455 S
C340 C341 1.385 . S
C340 C342 1.478 . S
C341 H335 0.930 . S
C341 C337 1.400 . S
C341 C340 1.385 . S
C342 C340 1.478 . S
C342 C344 1.381 . S
C342 C348 1.383 . S
C343 C339 1.495 . S
C343 H349 0.959 . S
C343 H350 0.961 . S
C343 H351 0.960 . S
C344 C342 1.381 . S
C344 C345 1.394 . S
C344 H352 0.930 . S
C345 C344 1.394 . S
C345 C346 1.383 . S
C345 H353 0.929 . S
C346 C345 1.383 . S
C346 C347 1.377 . S
C347 H331 0.930 . S
C347 C346 1.377 . S
C347 C348 1.379 . S
C348 H332 0.931 . S
C348 C342 1.383 . S
C348 C347 1.379 . S
H349 C343 0.959 . S
H350 C343 0.961 . S
H351 C343 0.960 . S
H352 C344 0.930 . S
H353 C345 0.929 . S
H354 C362 0.929 . S
H355 C364 0.930 . S
H356 C366 0.930 . S
H357 C369 0.929 . S
H358 C372 0.930 . S
H359 C374 0.960 . S
H360 C374 0.960 . S
H361 C374 0.960 . S
C362 H354 0.929 . S
C362 C363 1.377 . S
C362 C364 1.384 . S
C363 C362 1.377 . S
C363 C369 1.390 . S
C364 H355 0.930 . S
C364 C362 1.384 . S
C364 C365 1.372 . S
C365 C364 1.372 . S
C365 C366 1.400 . S
C365 C370 1.490 . S
C366 H356 0.930 . S
C366 C365 1.400 . S
C366 C369 1.386 . S
H367 C383 0.930 . S
H368 C384 0.931 . S
C369 H357 0.929 . S
C369 C363 1.390 . S
C369 C366 1.386 . S
C370 C365 1.490 . S
C370 C372 1.395 . S
C370 C373 1.403 . S
H371 C377 0.930 . S
C372 H358 0.930 . S
C372 C370 1.395 . S
C372 C375 1.403 . S
C373 C370 1.403 . S
C373 C374 1.524 . S
C373 C377 1.400 . S
C374 H359 0.960 . S
C374 H360 0.960 . S
C374 H361 0.960 . S
C374 C373 1.524 . S
C375 C372 1.403 . S
C375 C376 1.392 . S
C375 C379 1.495 . S
C376 C375 1.392 . S
C376 C377 1.385 . S
C376 C378 1.478 . S
C377 H371 0.930 . S
C377 C373 1.400 . S
C377 C376 1.385 . S
C378 C376 1.478 . S
C378 C380 1.381 . S
C378 C384 1.383 . S
C379 C375 1.495 . S
C379 H385 0.959 . S
C379 H386 0.961 . S
C379 H387 0.960 . S
C380 C378 1.381 . S
C380 C381 1.394 . S
C380 H388 0.930 . S
C381 C380 1.394 . S
C381 C382 1.383 . S
C381 H389 0.929 . S
C382 C381 1.383 . S
C382 C383 1.377 . S
C383 H367 0.930 . S
C383 C382 1.377 . S
C383 C384 1.379 . S
C384 H368 0.931 . S
C384 C378 1.383 . S
C384 C383 1.379 . S
H385 C379 0.959 . S
H386 C379 0.961 . S
H387 C379 0.960 . S
H388 C380 0.930 . S
H389 C381 0.929 . S
H390 C398 0.929 . S
H391 C400 0.930 . S
H392 C402 0.930 . S
H393 C405 0.929 . S
H394 C408 0.930 . S
H395 C410 0.960 . S
H396 C410 0.960 . S
H397 C410 0.960 . S
C398 H390 0.929 . S
C398 C399 1.377 . S
C398 C400 1.384 . S
C399 C398 1.377 . S
C399 C405 1.390 . S
C400 H391 0.930 . S
C400 C398 1.384 . S
C400 C401 1.372 . S
C401 C400 1.372 . S
C401 C402 1.400 . S
C401 C406 1.490 . S
C402 H392 0.930 . S
C402 C401 1.400 . S
C402 C405 1.386 . S
H403 C419 0.930 . S
H404 C420 0.931 . S
C405 H393 0.929 . S
C405 C399 1.390 . S
C405 C402 1.386 . S
C406 C401 1.490 . S
C406 C408 1.395 . S
C406 C409 1.403 . S
H407 C413 0.930 . S
C408 H394 0.930 . S
C408 C406 1.395 . S
C408 C411 1.403 . S
C409 C406 1.403 . S
C409 C410 1.524 . S
C409 C413 1.400 . S
C410 H395 0.960 . S
C410 H396 0.960 . S
C410 H397 0.960 . S
C410 C409 1.524 . S
C411 C408 1.403 . S
C411 C412 1.392 . S
C411 C415 1.495 . S
C412 C411 1.392 . S
C412 C413 1.385 . S
C412 C414 1.478 . S
C413 H407 0.930 . S
C413 C409 1.400 . S
C413 C412 1.385 . S
C414 C412 1.478 . S
C414 C416 1.381 . S
C414 C420 1.383 . S
C415 C411 1.495 . S
C415 H421 0.959 . S
C415 H422 0.961 . S
C415 H423 0.960 . S
C416 C414 1.381 . S
C416 C417 1.394 . S
C416 H424 0.930 . S
C417 C416 1.394 . S
C417 C418 1.383 . S
C417 H425 0.929 . S
C418 C417 1.383 . S
C418 C419 1.377 . S
C419 H403 0.930 . S
C419 C418 1.377 . S
C419 C420 1.379 . S
C420 H404 0.931 . S
C420 C414 1.383 . S
C420 C419 1.379 . S
H421 C415 0.959 . S
H422 C415 0.961 . S
H423 C415 0.960 . S
H424 C416 0.930 . S
H425 C417 0.929 . S
H426 C434 0.929 . S
H427 C436 0.930 . S
H428 C438 0.930 . S
H429 C441 0.929 . S
H430 C444 0.930 . S
H431 C446 0.960 . S
H432 C446 0.960 . S
H433 C446 0.960 . S
C434 H426 0.929 . S
C434 C435 1.377 . S
C434 C436 1.384 . S
C435 C434 1.377 . S
C435 C441 1.390 . S
C436 H427 0.930 . S
C436 C434 1.384 . S
C436 C437 1.372 . S
C437 C436 1.372 . S
C437 C438 1.400 . S
C437 C442 1.490 . S
C438 H428 0.930 . S
C438 C437 1.400 . S
C438 C441 1.386 . S
H439 C455 0.930 . S
H440 C456 0.931 . S
C441 H429 0.929 . S
C441 C435 1.390 . S
C441 C438 1.386 . S
C442 C437 1.490 . S
C442 C444 1.395 . S
C442 C445 1.403 . S
H443 C449 0.930 . S
C444 H430 0.930 . S
C444 C442 1.395 . S
C444 C447 1.403 . S
C445 C442 1.403 . S
C445 C446 1.524 . S
C445 C449 1.400 . S
C446 H431 0.960 . S
C446 H432 0.960 . S
C446 H433 0.960 . S
C446 C445 1.524 . S
C447 C444 1.403 . S
C447 C448 1.392 . S
C447 C451 1.495 . S
C448 C447 1.392 . S
C448 C449 1.385 . S
C448 C450 1.478 . S
C449 H443 0.930 . S
C449 C445 1.400 . S
C449 C448 1.385 . S
C450 C448 1.478 . S
C450 C452 1.381 . S
C450 C456 1.383 . S
C451 C447 1.495 . S
C451 H457 0.959 . S
C451 H458 0.961 . S
C451 H459 0.960 . S
C452 C450 1.381 . S
C452 C453 1.394 . S
C452 H460 0.930 . S
C453 C452 1.394 . S
C453 C454 1.383 . S
C453 H461 0.929 . S
C454 C453 1.383 . S
C454 C455 1.377 . S
C455 H439 0.930 . S
C455 C454 1.377 . S
C455 C456 1.379 . S
C456 H440 0.931 . S
C456 C450 1.383 . S
C456 C455 1.379 . S
H457 C451 0.959 . S
H458 C451 0.961 . S
H459 C451 0.960 . S
H460 C452 0.930 . S
H461 C453 0.929 . S
H462 C470 0.929 . S
H463 C472 0.930 . S
H464 C474 0.930 . S
H465 C477 0.929 . S
H466 C480 0.930 . S
H467 C482 0.960 . S
H468 C482 0.960 . S
H469 C482 0.960 . S
C470 H462 0.929 . S
C470 C471 1.377 . S
C470 C472 1.384 . S
C471 C470 1.377 . S
C471 C477 1.390 . S
C472 H463 0.930 . S
C472 C470 1.384 . S
C472 C473 1.372 . S
C473 C472 1.372 . S
C473 C474 1.400 . S
C473 C478 1.490 . S
C474 H464 0.930 . S
C474 C473 1.400 . S
C474 C477 1.386 . S
H475 C491 0.930 . S
H476 C492 0.931 . S
C477 H465 0.929 . S
C477 C471 1.390 . S
C477 C474 1.386 . S
C478 C473 1.490 . S
C478 C480 1.395 . S
C478 C481 1.403 . S
H479 C485 0.930 . S
C480 H466 0.930 . S
C480 C478 1.395 . S
C480 C483 1.403 . S
C481 C478 1.403 . S
C481 C482 1.524 . S
C481 C485 1.400 . S
C482 H467 0.960 . S
C482 H468 0.960 . S
C482 H469 0.960 . S
C482 C481 1.524 . S
C483 C480 1.403 . S
C483 C484 1.392 . S
C483 C487 1.495 . S
C484 C483 1.392 . S
C484 C485 1.385 . S
C484 C486 1.478 . S
C485 H479 0.930 . S
C485 C481 1.400 . S
C485 C484 1.385 . S
C486 C484 1.478 . S
C486 C488 1.381 . S
C486 C492 1.383 . S
C487 C483 1.495 . S
C487 H493 0.959 . S
C487 H494 0.961 . S
C487 H495 0.960 . S
C488 C486 1.381 . S
C488 C489 1.394 . S
C488 H496 0.930 . S
C489 C488 1.394 . S
C489 C490 1.383 . S
C489 H497 0.929 . S
C490 C489 1.383 . S
C490 C491 1.377 . S
C491 H475 0.930 . S
C491 C490 1.377 . S
C491 C492 1.379 . S
C492 H476 0.931 . S
C492 C486 1.383 . S
C492 C491 1.379 . S
H493 C487 0.959 . S
H494 C487 0.961 . S
H495 C487 0.960 . S
H496 C488 0.930 . S
H497 C489 0.929 . S
H498 C506 0.929 . S
H499 C508 0.930 . S
H500 C510 0.930 . S
H501 C513 0.929 . S
H502 C516 0.930 . S
H503 C518 0.960 . S
H504 C518 0.960 . S
H505 C518 0.960 . S
C506 H498 0.929 . S
C506 C507 1.377 . S
C506 C508 1.384 . S
C507 C506 1.377 . S
C507 C513 1.390 . S
C508 H499 0.930 . S
C508 C506 1.384 . S
C508 C509 1.372 . S
C509 C508 1.372 . S
C509 C510 1.400 . S
C509 C514 1.490 . S
C510 H500 0.930 . S
C510 C509 1.400 . S
C510 C513 1.386 . S
H511 C527 0.930 . S
H512 C528 0.931 . S
C513 H501 0.929 . S
C513 C507 1.390 . S
C513 C510 1.386 . S
C514 C509 1.490 . S
C514 C516 1.395 . S
C514 C517 1.403 . S
H515 C521 0.930 . S
C516 H502 0.930 . S
C516 C514 1.395 . S
C516 C519 1.403 . S
C517 C514 1.403 . S
C517 C518 1.524 . S
C517 C521 1.400 . S
C518 H503 0.960 . S
C518 H504 0.960 . S
C518 H505 0.960 . S
C518 C517 1.524 . S
C519 C516 1.403 . S
C519 C520 1.392 . S
C519 C523 1.495 . S
C520 C519 1.392 . S
C520 C521 1.385 . S
C520 C522 1.478 . S
C521 H515 0.930 . S
C521 C517 1.400 . S
C521 C520 1.385 . S
C522 C520 1.478 . S
C522 C524 1.381 . S
C522 C528 1.383 . S
C523 C519 1.495 . S
C523 H529 0.959 . S
C523 H530 0.961 . S
C523 H531 0.960 . S
C524 C522 1.381 . S
C524 C525 1.394 . S
C524 H532 0.930 . S
C525 C524 1.394 . S
C525 C526 1.383 . S
C525 H533 0.929 . S
C526 C525 1.383 . S
C526 C527 1.377 . S
C527 H511 0.930 . S
C527 C526 1.377 . S
C527 C528 1.379 . S
C528 H512 0.931 . S
C528 C522 1.383 . S
C528 C527 1.379 . S
H529 C523 0.959 . S
H530 C523 0.961 . S
H531 C523 0.960 . S
H532 C524 0.930 . S
H533 C525 0.929 . S
H534 C542 0.929 . S
H535 C544 0.930 . S
H536 C546 0.930 . S
H537 C549 0.929 . S
H538 C552 0.930 . S
H539 C554 0.960 . S
H540 C554 0.960 . S
H541 C554 0.960 . S
C542 H534 0.929 . S
C542 C543 1.377 . S
C542 C544 1.384 . S
C543 C542 1.377 . S
C543 C549 1.390 . S
C544 H535 0.930 . S
C544 C542 1.384 . S
C544 C545 1.372 . S
C545 C544 1.372 . S
C545 C546 1.400 . S
C545 C550 1.490 . S
C546 H536 0.930 . S
C546 C545 1.400 . S
C546 C549 1.386 . S
H547 C563 0.930 . S
H548 C564 0.931 . S
C549 H537 0.929 . S
C549 C543 1.390 . S
C549 C546 1.386 . S
C550 C545 1.490 . S
C550 C552 1.395 . S
C550 C553 1.403 . S
H551 C557 0.930 . S
C552 H538 0.930 . S
C552 C550 1.395 . S
C552 C555 1.403 . S
C553 C550 1.403 . S
C553 C554 1.524 . S
C553 C557 1.400 . S
C554 H539 0.960 . S
C554 H540 0.960 . S
C554 H541 0.960 . S
C554 C553 1.524 . S
C555 C552 1.403 . S
C555 C556 1.392 . S
C555 C559 1.495 . S
C556 C555 1.392 . S
C556 C557 1.385 . S
C556 C558 1.478 . S
C557 H551 0.930 . S
C557 C553 1.400 . S
C557 C556 1.385 . S
C558 C556 1.478 . S
C558 C560 1.381 . S
C558 C564 1.383 . S
C559 C555 1.495 . S
C559 H565 0.959 . S
C559 H566 0.961 . S
C559 H567 0.960 . S
C560 C558 1.381 . S
C560 C561 1.394 . S
C560 H568 0.930 . S
C561 C560 1.394 . S
C561 C562 1.383 . S
C561 H569 0.929 . S
C562 C561 1.383 . S
C562 C563 1.377 . S
C563 H547 0.930 . S
C563 C562 1.377 . S
C563 C564 1.379 . S
C564 H548 0.931 . S
C564 C558 1.383 . S
C564 C563 1.379 . S
H565 C559 0.959 . S
H566 C559 0.961 . S
H567 C559 0.960 . S
H568 C560 0.930 . S
H569 C561 0.929 . S
H570 C578 0.929 . S
H571 C580 0.930 . S
H572 C582 0.930 . S
H573 C585 0.929 . S
H574 C588 0.930 . S
H575 C590 0.960 . S
H576 C590 0.960 . S
H577 C590 0.960 . S
C578 H570 0.929 . S
C578 C579 1.377 . S
C578 C580 1.384 . S
C579 C578 1.377 . S
C579 C585 1.390 . S
C580 H571 0.930 . S
C580 C578 1.384 . S
C580 C581 1.372 . S
C581 C580 1.372 . S
C581 C582 1.400 . S
C581 C586 1.490 . S
C582 H572 0.930 . S
C582 C581 1.400 . S
C582 C585 1.386 . S
H583 C599 0.930 . S
H584 C600 0.931 . S
C585 H573 0.929 . S
C585 C579 1.390 . S
C585 C582 1.386 . S
C586 C581 1.490 . S
C586 C588 1.395 . S
C586 C589 1.403 . S
H587 C593 0.930 . S
C588 H574 0.930 . S
C588 C586 1.395 . S
C588 C591 1.403 . S
C589 C586 1.403 . S
C589 C590 1.524 . S
C589 C593 1.400 . S
C590 H575 0.960 . S
C590 H576 0.960 . S
C590 H577 0.960 . S
C590 C589 1.524 . S
C591 C588 1.403 . S
C591 C592 1.392 . S
C591 C595 1.495 . S
C592 C591 1.392 . S
C592 C593 1.385 . S
C592 C594 1.478 . S
C593 H587 0.930 . S
C593 C589 1.400 . S
C593 C592 1.385 . S
C594 C592 1.478 . S
C594 C596 1.381 . S
C594 C600 1.383 . S
C595 C591 1.495 . S
C595 H601 0.959 . S
C595 H602 0.961 . S
C595 H603 0.960 . S
C596 C594 1.381 . S
C596 C597 1.394 . S
C596 H604 0.930 . S
C597 C596 1.394 . S
C597 C598 1.383 . S
C597 H605 0.929 1_455 S
C598 C597 1.383 . S
C598 C599 1.377 . S
C599 H583 0.930 . S
C599 C598 1.377 . S
C599 C600 1.379 . S
C600 H584 0.931 . S
C600 C594 1.383 . S
C600 C599 1.379 . S
H601 C595 0.959 . S
H602 C595 0.961 . S
H603 C595 0.960 . S
H604 C596 0.930 . S
H605 C597 0.929 1_655 S
H606 C614 0.929 . S
H607 C616 0.930 . S
H608 C618 0.930 . S
H609 C621 0.929 . S
H610 C624 0.930 . S
H611 C626 0.960 . S
H612 C626 0.960 . S
H613 C626 0.960 . S
C614 H606 0.929 . S
C614 C615 1.377 . S
C614 C616 1.384 . S
C615 C614 1.377 . S
C615 C621 1.390 . S
C616 H607 0.930 . S
C616 C614 1.384 . S
C616 C617 1.372 . S
C617 C616 1.372 . S
C617 C618 1.400 . S
C617 C622 1.490 1_655 S
C618 H608 0.930 . S
C618 C617 1.400 . S
C618 C621 1.386 . S
H619 C635 0.930 . S
H620 C636 0.931 . S
C621 H609 0.929 . S
C621 C615 1.390 . S
C621 C618 1.386 . S
C622 C617 1.490 1_455 S
C622 C624 1.395 . S
C622 C625 1.403 . S
H623 C629 0.930 . S
C624 H610 0.930 . S
C624 C622 1.395 . S
C624 C627 1.403 . S
C625 C622 1.403 . S
C625 C626 1.524 . S
C625 C629 1.400 . S
C626 H611 0.960 . S
C626 H612 0.960 . S
C626 H613 0.960 . S
C626 C625 1.524 . S
C627 C624 1.403 . S
C627 C628 1.392 . S
C627 C631 1.495 . S
C628 C627 1.392 . S
C628 C629 1.385 . S
C628 C630 1.478 . S
C629 H623 0.930 . S
C629 C625 1.400 . S
C629 C628 1.385 . S
C630 C628 1.478 . S
C630 C632 1.381 . S
C630 C636 1.383 . S
C631 C627 1.495 . S
C631 H637 0.959 . S
C631 H638 0.961 . S
C631 H639 0.960 . S
C632 C630 1.381 . S
C632 C633 1.394 . S
C632 H640 0.930 . S
C633 C632 1.394 . S
C633 C634 1.383 . S
C633 H641 0.929 1_565 S
C634 C633 1.383 . S
C634 C635 1.377 . S
C635 H619 0.930 . S
C635 C634 1.377 . S
C635 C636 1.379 . S
C636 H620 0.931 . S
C636 C630 1.383 . S
C636 C635 1.379 . S
H637 C631 0.959 . S
H638 C631 0.961 . S
H639 C631 0.960 . S
H640 C632 0.930 . S
H641 C633 0.929 1_545 S
H642 C650 0.929 . S
H643 C652 0.930 . S
H644 C654 0.930 . S
H645 C657 0.929 . S
H646 C660 0.930 . S
H647 C662 0.960 . S
H648 C662 0.960 . S
H649 C662 0.960 . S
C650 H642 0.929 . S
C650 C651 1.377 . S
C650 C652 1.384 . S
C651 C650 1.377 . S
C651 C657 1.390 . S
C652 H643 0.930 . S
C652 C650 1.384 . S
C652 C653 1.372 . S
C653 C652 1.372 . S
C653 C654 1.400 . S
C653 C658 1.490 1_545 S
C654 H644 0.930 . S
C654 C653 1.400 . S
C654 C657 1.386 . S
H655 C671 0.930 . S
H656 C672 0.931 . S
C657 H645 0.929 . S
C657 C651 1.390 . S
C657 C654 1.386 . S
C658 C653 1.490 1_565 S
C658 C660 1.395 . S
C658 C661 1.403 . S
H659 C665 0.930 . S
C660 H646 0.930 . S
C660 C658 1.395 . S
C660 C663 1.403 . S
C661 C658 1.403 . S
C661 C662 1.524 . S
C661 C665 1.400 . S
C662 H647 0.960 . S
C662 H648 0.960 . S
C662 H649 0.960 . S
C662 C661 1.524 . S
C663 C660 1.403 . S
C663 C664 1.392 . S
C663 C667 1.495 . S
C664 C663 1.392 . S
C664 C665 1.385 . S
C664 C666 1.478 . S
C665 H659 0.930 . S
C665 C661 1.400 . S
C665 C664 1.385 . S
C666 C664 1.478 . S
C666 C668 1.381 . S
C666 C672 1.383 . S
C667 C663 1.495 . S
C667 H673 0.959 . S
C667 H674 0.961 . S
C667 H675 0.960 . S
C668 C666 1.381 . S
C668 C669 1.394 . S
C668 H676 0.930 . S
C669 C668 1.394 . S
C669 C670 1.383 . S
C669 H677 0.929 . S
C670 C669 1.383 . S
C670 C671 1.377 . S
C671 H655 0.930 . S
C671 C670 1.377 . S
C671 C672 1.379 . S
C672 H656 0.931 . S
C672 C666 1.383 . S
C672 C671 1.379 . S
H673 C667 0.959 . S
H674 C667 0.961 . S
H675 C667 0.960 . S
H676 C668 0.930 . S
H677 C669 0.929 . S
H678 C686 0.929 . S
H679 C688 0.930 . S
H680 C690 0.930 . S
H681 C693 0.929 . S
H682 C696 0.930 . S
H683 C698 0.960 . S
H684 C698 0.960 . S
H685 C698 0.960 . S
C686 H678 0.929 . S
C686 C687 1.377 . S
C686 C688 1.384 . S
C687 C686 1.377 . S
C687 C693 1.390 . S
C688 H679 0.930 . S
C688 C686 1.384 . S
C688 C689 1.372 . S
C689 C688 1.372 . S
C689 C690 1.400 . S
C689 C694 1.490 . S
C690 H680 0.930 . S
C690 C689 1.400 . S
C690 C693 1.386 . S
H691 C707 0.930 . S
H692 C708 0.931 . S
C693 H681 0.929 . S
C693 C687 1.390 . S
C693 C690 1.386 . S
C694 C689 1.490 . S
C694 C696 1.395 . S
C694 C697 1.403 . S
H695 C701 0.930 . S
C696 H682 0.930 . S
C696 C694 1.395 . S
C696 C699 1.403 . S
C697 C694 1.403 . S
C697 C698 1.524 . S
C697 C701 1.400 . S
C698 H683 0.960 . S
C698 H684 0.960 . S
C698 H685 0.960 . S
C698 C697 1.524 . S
C699 C696 1.403 . S
C699 C700 1.392 . S
C699 C703 1.495 . S
C700 C699 1.392 . S
C700 C701 1.385 . S
C700 C702 1.478 . S
C701 H695 0.930 . S
C701 C697 1.400 . S
C701 C700 1.385 . S
C702 C700 1.478 . S
C702 C704 1.381 . S
C702 C708 1.383 . S
C703 C699 1.495 . S
C703 H709 0.959 . S
C703 H710 0.961 . S
C703 H711 0.960 . S
C704 C702 1.381 . S
C704 C705 1.394 . S
C704 H712 0.930 . S
C705 C704 1.394 . S
C705 C706 1.383 . S
C705 H713 0.929 . S
C706 C705 1.383 . S
C706 C707 1.377 . S
C707 H691 0.930 . S
C707 C706 1.377 . S
C707 C708 1.379 . S
C708 H692 0.931 . S
C708 C702 1.383 . S
C708 C707 1.379 . S
H709 C703 0.959 . S
H710 C703 0.961 . S
H711 C703 0.960 . S
H712 C704 0.930 . S
H713 C705 0.929 . S
H714 C722 0.929 . S
H715 C724 0.930 . S
H716 C726 0.930 . S
H717 C729 0.929 . S
H718 C732 0.930 . S
H719 C734 0.960 . S
H720 C734 0.954 1_455 S
H721 C734 0.960 1_455 S
C722 H714 0.929 . S
C722 C723 1.377 . S
C722 C724 1.384 . S
C723 C722 1.377 . S
C723 C729 1.390 . S
C724 H715 0.930 . S
C724 C722 1.384 . S
C724 C725 1.372 . S
C725 C724 1.372 . S
C725 C726 1.400 . S
C725 C730 1.490 1_455 S
C726 H716 0.930 . S
C726 C725 1.400 . S
C726 C729 1.386 . S
H727 C743 0.930 . S
H728 C744 0.931 . S
C729 H717 0.929 . S
C729 C723 1.390 . S
C729 C726 1.386 . S
C730 C725 1.490 1_655 S
C730 C732 1.395 . S
C730 C733 1.403 . S
H731 C737 0.930 . S
C732 H718 0.930 . S
C732 C730 1.395 . S
C732 C735 1.403 . S
C733 C730 1.403 . S
C733 C734 1.524 . S
C733 C737 1.400 . S
C734 H719 0.960 . S
C734 H720 0.954 1_655 S
C734 H721 0.960 1_655 S
C734 C733 1.524 . S
C735 C732 1.403 . S
C735 C736 1.392 . S
C735 C739 1.495 . S
C736 C735 1.392 . S
C736 C737 1.385 . S
C736 C738 1.478 . S
C737 H731 0.930 . S
C737 C733 1.400 . S
C737 C736 1.385 . S
C738 C736 1.478 . S
C738 C740 1.381 . S
C738 C744 1.383 . S
C739 C735 1.495 . S
C739 H745 0.959 . S
C739 H746 0.961 . S
C739 H747 0.960 . S
C740 C738 1.381 . S
C740 C741 1.394 . S
C740 H748 0.930 . S
C741 C740 1.394 . S
C741 C742 1.383 . S
C741 H749 0.929 . S
C742 C741 1.383 . S
C742 C743 1.377 . S
C743 H727 0.930 . S
C743 C742 1.377 . S
C743 C744 1.379 . S
C744 H728 0.931 . S
C744 C738 1.383 . S
C744 C743 1.379 . S
H745 C739 0.959 . S
H746 C739 0.961 . S
H747 C739 0.960 . S
H748 C740 0.930 . S
H749 C741 0.929 . S
H750 C758 0.929 1_455 S
H751 C760 0.930 . S
H752 C762 0.930 . S
H753 C765 0.929 . S
H754 C768 0.930 . S
H755 C770 0.960 . S
H756 C770 0.960 . S
H757 C770 0.960 . S
C758 H750 0.929 1_655 S
C758 C759 1.377 . S
C758 C760 1.384 . S
C759 C758 1.377 . S
C759 C765 1.390 . S
C760 H751 0.930 . S
C760 C758 1.384 . S
C760 C761 1.372 . S
C761 C760 1.372 . S
C761 C762 1.400 . S
C761 C766 1.490 . S
C762 H752 0.930 . S
C762 C761 1.400 . S
C762 C765 1.386 . S
H763 C779 0.930 . S
H764 C780 0.931 . S
C765 H753 0.929 . S
C765 C759 1.390 . S
C765 C762 1.386 . S
C766 C761 1.490 . S
C766 C768 1.395 . S
C766 C769 1.403 . S
H767 C773 0.930 . S
C768 H754 0.930 . S
C768 C766 1.395 . S
C768 C771 1.403 . S
C769 C766 1.403 . S
C769 C770 1.524 . S
C769 C773 1.400 . S
C770 H755 0.960 . S
C770 H756 0.960 . S
C770 H757 0.960 . S
C770 C769 1.524 . S
C771 C768 1.403 . S
C771 C772 1.392 . S
C771 C775 1.495 . S
C772 C771 1.392 . S
C772 C773 1.385 . S
C772 C774 1.478 1_545 S
C773 H767 0.930 . S
C773 C769 1.400 . S
C773 C772 1.385 . S
C774 C772 1.478 1_565 S
C774 C776 1.381 . S
C774 C780 1.383 . S
C775 C771 1.495 . S
C775 H781 0.959 . S
C775 H782 0.961 1_545 S
C775 H783 0.960 1_545 S
C776 C774 1.381 . S
C776 C777 1.394 . S
C776 H784 0.930 . S
C777 C776 1.394 . S
C777 C778 1.383 . S
C777 H785 0.929 . S
C778 C777 1.383 . S
C778 C779 1.377 . S
C779 H763 0.930 . S
C779 C778 1.377 . S
C779 C780 1.379 . S
C780 H764 0.931 . S
C780 C774 1.383 . S
C780 C779 1.379 . S
H781 C775 0.959 . S
H782 C775 0.961 1_565 S
H783 C775 0.960 1_565 S
H784 C776 0.930 . S
H785 C777 0.929 . S
C147 C111 1.782 . S
C166 C19 1.779 . S
C183 C135 1.796 . S
C202 C43 1.789 . S
C219 C65 1.782 . S
C238 C88 1.777 . S
C255 C20 1.796 . S
C274 C112 1.791 . S
C291 C134 1.783 . S
C310 C42 1.774 . S
C327 C66 1.796 . S
C346 C89 1.792 . S
C363 C18 1.098 . S
C382 C62 1.113 . S
C399 C41 1.100 . S
C418 C16 1.116 . S
C435 C64 1.099 . S
C454 C39 1.116 . S
C471 C87 1.105 . S
C490 C108 1.120 . S
C507 C110 1.107 . S
C526 C131 1.118 . S
C543 C85 1.119 . S
C562 C133 1.122 . S
C579 C21 0.620 . S
C598 C63 0.627 . S
C615 C44 0.621 . S
C634 C17 0.622 . S
C651 C67 0.624 . S
C670 C40 0.592 . S
C687 C90 0.633 . S
C706 C109 0.693 . S
C723 C113 0.631 . S
C742 C132 0.696 . S
C759 C86 0.636 . S
C778 C136 0.583 . S
