# Generated by pormake.
# Topology nfc, (4)-cn, num edge types: 1
# Building blocks:
#     Node 0, Type 0, BuildingBlock: ESEHIV_clean_sbu_0, # of connection points: 4
#     Node 1, Type 0, BuildingBlock: ESEHIV_clean_sbu_0, # of connection points: 4
#     Node 2, Type 0, BuildingBlock: ESEHIV_clean_sbu_0, # of connection points: 4
#     Node 3, Type 0, BuildingBlock: ESEHIV_clean_sbu_0, # of connection points: 4
#     Node 4, Type 0, BuildingBlock: ESEHIV_clean_sbu_0, # of connection points: 4
#     Node 5, Type 0, BuildingBlock: ESEHIV_clean_sbu_0, # of connection points: 4
#     Node 6, Type 0, BuildingBlock: ESEHIV_clean_sbu_0, # of connection points: 4
#     Node 7, Type 0, BuildingBlock: ESEHIV_clean_sbu_0, # of connection points: 4
#     Node 8, Type 0, BuildingBlock: ESEHIV_clean_sbu_0, # of connection points: 4
#     Node 9, Type 0, BuildingBlock: ESEHIV_clean_sbu_0, # of connection points: 4
#     Node 10, Type 0, BuildingBlock: ESEHIV_clean_sbu_0, # of connection points: 4
#     Node 11, Type 0, BuildingBlock: ESEHIV_clean_sbu_0, # of connection points: 4
#     Node 12, Type 0, BuildingBlock: ESEHIV_clean_sbu_0, # of connection points: 4
#     Node 13, Type 0, BuildingBlock: ESEHIV_clean_sbu_0, # of connection points: 4
#     Node 14, Type 0, BuildingBlock: ESEHIV_clean_sbu_0, # of connection points: 4
#     Node 15, Type 0, BuildingBlock: ESEHIV_clean_sbu_0, # of connection points: 4
#     Edge 16, Type (0, 0), BuildingBlock: ZUJKAS_clean_linker_0, # of connection points: 2
#     Edge 17, Type (0, 0), BuildingBlock: ZUJKAS_clean_linker_0, # of connection points: 2
#     Edge 18, Type (0, 0), BuildingBlock: ZUJKAS_clean_linker_0, # of connection points: 2
#     Edge 19, Type (0, 0), BuildingBlock: ZUJKAS_clean_linker_0, # of connection points: 2
#     Edge 20, Type (0, 0), BuildingBlock: ZUJKAS_clean_linker_0, # of connection points: 2
#     Edge 21, Type (0, 0), BuildingBlock: ZUJKAS_clean_linker_0, # of connection points: 2
#     Edge 22, Type (0, 0), BuildingBlock: ZUJKAS_clean_linker_0, # of connection points: 2
#     Edge 23, Type (0, 0), BuildingBlock: ZUJKAS_clean_linker_0, # of connection points: 2
#     Edge 24, Type (0, 0), BuildingBlock: ZUJKAS_clean_linker_0, # of connection points: 2
#     Edge 25, Type (0, 0), BuildingBlock: ZUJKAS_clean_linker_0, # of connection points: 2
#     Edge 26, Type (0, 0), BuildingBlock: ZUJKAS_clean_linker_0, # of connection points: 2
#     Edge 27, Type (0, 0), BuildingBlock: ZUJKAS_clean_linker_0, # of connection points: 2
#     Edge 28, Type (0, 0), BuildingBlock: ZUJKAS_clean_linker_0, # of connection points: 2
#     Edge 29, Type (0, 0), BuildingBlock: ZUJKAS_clean_linker_0, # of connection points: 2
#     Edge 30, Type (0, 0), BuildingBlock: ZUJKAS_clean_linker_0, # of connection points: 2
#     Edge 31, Type (0, 0), BuildingBlock: ZUJKAS_clean_linker_0, # of connection points: 2
#     Edge 32, Type (0, 0), BuildingBlock: ZUJKAS_clean_linker_0, # of connection points: 2
#     Edge 33, Type (0, 0), BuildingBlock: ZUJKAS_clean_linker_0, # of connection points: 2
#     Edge 34, Type (0, 0), BuildingBlock: ZUJKAS_clean_linker_0, # of connection points: 2
#     Edge 35, Type (0, 0), BuildingBlock: ZUJKAS_clean_linker_0, # of connection points: 2
#     Edge 36, Type (0, 0), BuildingBlock: ZUJKAS_clean_linker_0, # of connection points: 2
#     Edge 37, Type (0, 0), BuildingBlock: ZUJKAS_clean_linker_0, # of connection points: 2
#     Edge 38, Type (0, 0), BuildingBlock: ZUJKAS_clean_linker_0, # of connection points: 2
#     Edge 39, Type (0, 0), BuildingBlock: ZUJKAS_clean_linker_0, # of connection points: 2
#     Edge 40, Type (0, 0), BuildingBlock: ZUJKAS_clean_linker_0, # of connection points: 2
#     Edge 41, Type (0, 0), BuildingBlock: ZUJKAS_clean_linker_0, # of connection points: 2
#     Edge 42, Type (0, 0), BuildingBlock: ZUJKAS_clean_linker_0, # of connection points: 2
#     Edge 43, Type (0, 0), BuildingBlock: ZUJKAS_clean_linker_0, # of connection points: 2
#     Edge 44, Type (0, 0), BuildingBlock: ZUJKAS_clean_linker_0, # of connection points: 2
#     Edge 45, Type (0, 0), BuildingBlock: ZUJKAS_clean_linker_0, # of connection points: 2
#     Edge 46, Type (0, 0), BuildingBlock: ZUJKAS_clean_linker_0, # of connection points: 2
#     Edge 47, Type (0, 0), BuildingBlock: ZUJKAS_clean_linker_0, # of connection points: 2
# Relax obj value: 0.066
# Max RMSD: 0.211
# Mean RMSD: 0.157
data_MOF--net-nfc--node1-ESEHIV_clean_sbu_0--edge1-ZUJKAS_clean_linker_0
_symmetry_space_group_name_H-M    P1
_symmetry_Int_Tables_number       1
_symmetry_cell_setting            triclinic
loop_
_symmetry_equiv_pos_as_xyz
'x, y, z'
_cell_length_a     50.244267
_cell_length_b     50.112827
_cell_length_c     39.383126
_cell_angle_alpha  88.846746
_cell_angle_beta   88.835351
_cell_angle_gamma 81.979083
loop_
_atom_site_label
_atom_site_type_symbol
_atom_site_fract_x
_atom_site_fract_y
_atom_site_fract_z
_atom_type_partial_charge
Cu0 Cu 0.98167 0.05296 0.02381 0.0
N1 N 0.9454 0.05311 0.01417 0.0
N2 N 0.90851 0.04018 0.99239 0.0
C3 C 0.93567 0.03631 0.99281 0.0
C4 C 0.90092 0.06029 0.0144 0.0
C5 C 0.92373 0.06824 0.02775 0.0
O6 O 1.00127 0.03569 0.98533 0.0
C7 C 1.01186 0.02675 0.0788 0.0
O8 O 0.03317 0.03075 0.06055 0.0
H9 H 0.94831 0.021 0.97863 0.0
H10 H 0.92449 0.08369 0.04636 0.0
N11 N 0.98938 0.08822 0.02834 0.0
N12 N 1.00738 0.12366 0.04687 0.0
C13 C 1.00607 0.09697 0.05072 0.0
C14 C 0.97969 0.11006 0.00973 0.0
C15 C 0.99072 0.13191 0.02104 0.0
C16 C 0.02349 0.04116 0.97295 0.0
O17 O 0.03667 0.05795 0.98872 0.0
H18 H 0.01734 0.0839 0.0691 0.0
H19 H 0.96558 0.11006 0.98934 0.0
O20 O 0.98861 0.03368 0.06665 0.0
H21 H 0.88039 0.06869 0.02042 0.0
H22 H 0.9865 0.15233 0.01115 0.0
Cu23 Cu 0.32021 0.78262 0.24723 0.0
N24 N 0.29722 0.77783 0.21186 0.0
N25 N 0.2826 0.7771 0.15865 0.0
C26 C 0.30143 0.78453 0.17915 0.0
C27 C 0.2658 0.76536 0.17953 0.0
C28 C 0.27491 0.76577 0.2123 0.0
O29 O 0.35651 0.77305 0.22755 0.0
C30 C 0.2863 0.82596 0.27228 0.0
O31 O 0.26965 0.80854 0.26694 0.0
H32 H 0.31828 0.79438 0.17069 0.0
H33 H 0.26619 0.75738 0.23473 0.0
N34 N 0.31427 0.75988 0.28393 0.0
N35 N 0.30832 0.74678 0.33786 0.0
C36 C 0.31428 0.76678 0.31677 0.0
C37 C 0.30819 0.73459 0.28403 0.0
C38 C 0.30455 0.72642 0.31729 0.0
C39 C 0.37361 0.75378 0.23868 0.0
O40 O 0.36906 0.74244 0.26818 0.0
H41 H 0.31877 0.78613 0.32488 0.0
H42 H 0.30631 0.72303 0.26152 0.0
O43 O 0.31108 0.81943 0.26419 0.0
H44 H 0.24869 0.75623 0.17166 0.0
H45 H 0.29908 0.70715 0.32553 0.0
Cu46 Cu 0.5934 0.01663 0.54991 0.0
N47 N 0.62706 0.02642 0.53755 0.0
N48 N 0.65739 0.0511 0.51528 0.0
C49 C 0.63116 0.04757 0.51728 0.0
C50 C 0.67021 0.03124 0.53515 0.0
C51 C 0.65149 0.01617 0.5489 0.0
O52 O 0.57027 0.0252 0.51118 0.0
C53 C 0.55682 0.03923 0.60126 0.0
O54 O 0.53825 0.03017 0.58348 0.0
H55 H 0.61497 0.06064 0.50521 0.0
H56 H 0.65537 0.99933 0.56655 0.0
N57 N 0.59472 0.97976 0.56161 0.0
N58 N 0.58139 0.94122 0.58138 0.0
C59 C 0.57499 0.96826 0.57746 0.0
C60 C 0.61439 0.9593 0.55524 0.0
C61 C 0.60628 0.9356 0.56736 0.0
C62 C 0.5741 1.00934 0.48618 0.0
O63 O 0.59216 0.9878 0.48876 0.0
H64 H 0.55628 0.97959 0.58598 0.0
H65 H 0.63311 0.96134 0.54205 0.0
O66 O 0.58086 0.03683 0.58983 0.0
H67 H 0.69159 0.0278 0.53966 0.0
H68 H 0.6177 0.91573 0.56518 0.0
Cu69 Cu 0.27417 0.24101 0.75885 0.0
N70 N 0.2953 0.2429 0.71943 0.0
N71 N 0.30649 0.24296 0.66415 0.0
C72 C 0.28746 0.23885 0.6877 0.0
C73 C 0.32712 0.24986 0.68196 0.0
C74 C 0.32012 0.2499 0.71598 0.0
O75 O 0.23719 0.25561 0.74649 0.0
C76 C 0.30468 0.19535 0.78373 0.0
O77 O 0.32297 0.21025 0.7737 0.0
H78 H 0.26775 0.23392 0.68207 0.0
H79 H 0.33219 0.25497 0.73669 0.0
N80 N 0.28534 0.26215 0.7929 0.0
N81 N 0.29424 0.27391 0.84545 0.0
C82 C 0.28379 0.25611 0.82623 0.0
C83 C 0.29726 0.2846 0.79081 0.0
C84 C 0.30262 0.29202 0.82329 0.0
C85 C 0.23433 0.28001 0.73561 0.0
O86 O 0.25556 0.29263 0.73438 0.0
H87 H 0.27503 0.23894 0.83615 0.0
H88 H 0.30203 0.29468 0.76739 0.0
O89 O 0.28004 0.20422 0.77812 0.0
H90 H 0.34592 0.25468 0.6713 0.0
H91 H 0.31241 0.30905 0.82999 0.0
Cu92 Cu 0.07524 0.01566 0.52261 0.0
N93 N 0.05271 1.00397 0.49051 0.0
N94 N 0.0364 0.99721 0.43945 0.0
C95 C 0.05399 1.00941 0.45697 0.0
C96 C 0.02353 0.98353 0.46306 0.0
C97 C 0.03365 0.98775 0.49454 0.0
O98 O 0.11154 1.0095 0.50203 0.0
C99 C 0.03692 0.05609 0.54536 0.0
O100 O 0.02409 0.03497 0.54664 0.0
H101 H 0.06821 0.02147 0.44564 0.0
H102 H 0.02771 0.97938 0.51859 0.0
N103 N 0.07449 0.99575 0.56343 0.0
N104 N 0.07284 0.98726 0.61935 0.0
C105 C 0.07399 1.00621 0.59473 0.0
C106 C 0.07342 0.96924 0.5685 0.0
C107 C 0.07262 0.96392 0.60299 0.0
C108 C 0.11925 0.98515 0.49345 0.0
O109 O 0.1031 0.96718 0.50002 0.0
H110 H 0.07435 0.02737 0.59936 0.0
H111 H 0.07262 0.95482 0.54864 0.0
O112 O 0.06113 0.05298 0.53399 0.0
H113 H 1.00787 0.97143 0.45803 0.0
H114 H 0.07109 0.94459 0.61509 0.0
Cu115 Cu 0.34679 0.72921 0.7591 0.0
N116 N 0.38265 0.73497 0.7514 0.0
N117 N 0.41812 0.75446 0.73315 0.0
C118 C 0.39113 0.75491 0.73221 0.0
C119 C 0.42687 0.73335 0.75383 0.0
C120 C 0.40503 0.7215 0.76511 0.0
O121 O 0.32889 0.7325 0.71578 0.0
C122 C 0.30635 0.7596 0.80019 0.0
O123 O 0.28894 0.74958 0.78145 0.0
H124 H 0.3777 0.76953 0.71795 0.0
H125 H 0.40539 0.70462 0.78271 0.0
N126 N 0.34418 0.69463 0.7774 0.0
N127 N 0.32732 0.66093 0.80532 0.0
C128 C 0.32404 0.68762 0.79745 0.0
C129 C 0.36082 0.67159 0.77228 0.0
C130 C 0.3506 0.65087 0.78947 0.0
C131 C 0.32157 0.75467 0.70013 0.0
O132 O 0.32391 0.77747 0.71492 0.0
H133 H 0.307 0.70178 0.80544 0.0
H134 H 0.37897 0.66989 0.75678 0.0
O135 O 0.33125 0.75487 0.79253 0.0
H136 H 0.4475 0.72733 0.76121 0.0
H137 H 0.35979 0.63003 0.79012 0.0
Cu138 Cu 0.50932 1.01403 0.04977 0.0
N139 N 0.53278 0.02163 0.01462 0.0
N140 N 0.54705 0.03049 0.96196 0.0
C141 C 0.52705 0.02246 0.98136 0.0
C142 C 0.5662 0.03471 0.98405 0.0
C143 C 0.55731 0.02928 0.01649 0.0
O144 O 0.47313 0.02045 0.0303 0.0
C145 C 0.54342 0.97507 0.0845 0.0
O146 O 0.55573 0.99635 0.08734 0.0
H147 H 0.50808 0.01819 0.97182 0.0
H148 H 0.56775 0.03142 0.0398 0.0
N149 N 0.51095 0.03823 0.08511 0.0
N150 N 0.5122 0.05393 0.13778 0.0
C151 C 0.50694 0.03335 0.11844 0.0
C152 C 0.51895 0.06274 0.08319 0.0
C153 C 0.51958 0.07254 0.11552 0.0
C154 C 0.46601 0.04472 0.02007 0.0
O155 O 0.4825 0.06238 0.02486 0.0
H156 H 0.50172 1.0144 0.12825 0.0
H157 H 0.52473 0.07249 0.05998 0.0
O158 O 0.5216 0.97753 0.06787 0.0
H159 H 0.58523 0.04139 0.97741 0.0
H160 H 0.52562 0.09166 0.12199 0.0
Cu161 Cu 0.23565 0.31049 0.26082 0.0
N162 N 0.20048 0.30274 0.25601 0.0
N163 N 0.16541 0.28447 0.23707 0.0
C164 C 0.19195 0.2862 0.23323 0.0
C165 C 0.15702 0.30069 0.26331 0.0
C166 C 0.17864 0.31188 0.27489 0.0
O167 O 0.25424 0.30555 0.21744 0.0
C168 C 0.24486 0.27 0.31344 0.0
O169 O 0.22195 0.26261 0.30461 0.0
H170 H 0.20513 0.27525 0.21467 0.0
H171 H 0.17851 0.32561 0.29576 0.0
N172 N 0.23571 0.34613 0.27384 0.0
N173 N 0.24974 0.38181 0.29758 0.0
C174 C 0.25567 0.35535 0.29047 0.0
C175 C 0.21648 0.36746 0.27011 0.0
C176 C 0.22504 0.38949 0.28482 0.0
C177 C 0.26267 0.28241 0.20567 0.0
O178 O 0.26008 0.26084 0.2243 0.0
H179 H 0.27394 0.34267 0.29786 0.0
H180 H 0.19751 0.36697 0.25779 0.0
O181 O 0.25435 0.28849 0.29645 0.0
H182 H 0.13667 0.30446 0.27335 0.0
H183 H 0.21401 0.40963 0.28578 0.0
Cu184 Cu 0.81752 0.26887 0.74712 0.0
N185 N 0.79969 0.26476 0.70701 0.0
N186 N 0.79444 0.24993 0.65479 0.0
C187 C 0.80877 0.24643 0.68351 0.0
C188 C 0.77551 0.27136 0.66052 0.0
C189 C 0.77882 0.2805 0.6928 0.0
O190 O 0.85548 0.26466 0.73266 0.0
C191 C 0.77865 0.30537 0.77908 0.0
O192 O 0.76482 0.2856 0.77316 0.0
H193 H 0.82661 0.23184 0.68674 0.0
H194 H 0.76762 0.29809 0.70439 0.0
N195 N 0.81163 0.24086 0.77694 0.0
N196 N 0.80897 0.21753 0.82547 0.0
C197 C 0.81302 0.2413 0.81096 0.0
C198 C 0.80636 0.21605 0.76952 0.0
C199 C 0.80477 0.20155 0.79947 0.0
C200 C 0.87289 0.24568 0.74377 0.0
O201 O 0.86718 0.23214 0.77122 0.0
H202 H 0.81779 0.2585 0.8246 0.0
H203 H 0.80422 0.20892 0.74413 0.0
O204 O 0.80319 0.30297 0.76903 0.0
H205 H 0.76082 0.28027 0.64238 0.0
H206 H 0.80083 0.18091 0.80187 0.0
Cu207 Cu 0.7739 0.74192 0.26044 0.0
N208 N 0.79557 0.74439 0.22147 0.0
N209 N 0.80627 0.74649 0.16608 0.0
C210 C 0.78802 0.74031 0.1896 0.0
C211 C 0.82625 0.75454 0.18407 0.0
C212 C 0.81955 0.75333 0.21817 0.0
O213 O 0.73704 0.7557 0.24655 0.0
C214 C 0.80521 0.69677 0.28531 0.0
O215 O 0.82311 0.7124 0.27614 0.0
H216 H 0.76906 0.73365 0.1839 0.0
H217 H 0.83093 0.75943 0.23897 0.0
N218 N 0.78345 0.76347 0.29513 0.0
N219 N 0.79042 0.77576 0.34817 0.0
C220 C 0.78132 0.75738 0.32842 0.0
C221 C 0.79424 0.78658 0.29358 0.0
C222 C 0.79849 0.79427 0.3263 0.0
C223 C 0.73485 0.77888 0.23189 0.0
O224 O 0.75629 0.79114 0.22952 0.0
H225 H 0.77307 0.73978 0.33786 0.0
H226 H 0.79897 0.79697 0.27038 0.0
O227 O 0.7805 0.70504 0.27933 0.0
H228 H 0.84388 0.76197 0.17341 0.0
H229 H 0.80729 0.81184 0.33334 0.0
Cu230 Cu 0.82962 0.2415 0.26811 0.0
N231 N 0.81315 0.23712 0.22688 0.0
N232 N 0.80357 0.22342 0.17553 0.0
C233 C 0.81843 0.2176 0.20366 0.0
C234 C 0.78859 0.24745 0.18137 0.0
C235 C 0.79471 0.25591 0.21282 0.0
O236 O 0.85012 0.27212 0.26139 0.0
C237 C 0.7796 0.23606 0.30184 0.0
O238 O 0.77173 0.23146 0.27123 0.0
H239 H 0.83348 0.2001 0.20683 0.0
H240 H 0.78686 0.27485 0.22441 0.0
N241 N 0.8536 0.21125 0.28075 0.0
N242 N 0.86947 0.18416 0.32381 0.0
C243 C 0.84752 0.1953 0.30684 0.0
C244 C 0.8806 0.20906 0.27999 0.0
C245 C 0.89044 0.19236 0.30652 0.0
C246 C 0.86387 0.27203 0.23367 0.0
O247 O 0.86377 0.25179 0.21304 0.0
H248 H 0.82728 0.19566 0.31679 0.0
H249 H 0.89207 0.22177 0.26479 0.0
O250 O 0.80246 0.24405 0.30542 0.0
H251 H 0.77527 0.25885 0.1634 0.0
H252 H 0.91101 0.18945 0.31503 0.0
Cu253 Cu 0.7285 0.81678 0.76233 0.0
N254 N 0.6928 0.81274 0.75355 0.0
N255 N 0.6571 0.79704 0.73218 0.0
C256 C 0.68423 0.79505 0.73235 0.0
C257 C 0.64835 0.81684 0.75419 0.0
C258 C 0.67038 0.82646 0.76727 0.0
O259 O 0.74932 0.80905 0.72082 0.0
C260 C 0.76507 0.78915 0.8097 0.0
O261 O 0.78367 0.79799 0.79029 0.0
H262 H 0.69768 0.7807 0.71778 0.0
H263 H 0.67009 0.84234 0.78553 0.0
N264 N 0.731 0.85234 0.77405 0.0
N265 N 0.74547 0.88769 0.79811 0.0
C266 C 0.74677 0.86057 0.79794 0.0
C267 C 0.71919 0.87501 0.75868 0.0
C268 C 0.72806 0.89684 0.77343 0.0
C269 C 0.75593 0.78555 0.70908 0.0
O270 O 0.75072 0.76453 0.7272 0.0
H271 H 0.75965 0.84689 0.81409 0.0
H272 H 0.70549 0.87557 0.73776 0.0
O273 O 0.74066 0.79371 0.8007 0.0
H274 H 0.62752 0.82411 0.7602 0.0
H275 H 0.72223 0.91779 0.76638 0.0
Cu276 Cu 0.48255 0.56148 0.51368 0.0
N277 N 0.44696 0.55917 0.50221 0.0
N278 N 0.41137 0.54401 0.47967 0.0
C279 C 0.43819 0.53934 0.48472 0.0
C280 C 0.40304 0.56779 0.49477 0.0
C281 C 0.42498 0.57704 0.5086 0.0
O282 O 0.50502 0.54862 0.47501 0.0
C283 C 0.51408 0.53717 0.56815 0.0
O284 O 0.53441 0.54438 0.55039 0.0
H285 H 0.45128 0.52177 0.47603 0.0
H286 H 0.42497 0.59566 0.52204 0.0
N287 N 0.48695 0.59748 0.52078 0.0
N288 N 0.50194 0.63397 0.54124 0.0
C289 C 0.50147 0.60715 0.545 0.0
C290 C 0.47777 0.61893 0.50115 0.0
C291 C 0.48694 0.64143 0.51367 0.0
C292 C 0.5102 0.52399 0.46681 0.0
O293 O 0.50272 0.50535 0.48741 0.0
H294 H 0.51219 0.59463 0.56435 0.0
H295 H 0.46563 0.61814 0.47892 0.0
O296 O 0.49068 0.54126 0.55569 0.0
H297 H 0.38266 0.57816 0.49531 0.0
H298 H 0.48293 0.66166 0.50312 0.0
Cu299 Cu 0.08052 0.49796 0.04487 0.0
N300 N 0.11589 0.49683 0.02799 0.0
N301 N 0.15164 0.50984 1.00051 0.0
C302 C 0.1251 0.51591 0.00803 0.0
C303 C 0.15935 0.48599 0.0165 0.0
C304 C 0.13735 0.47811 0.03352 0.0
O305 O 0.05751 0.51545 0.00945 0.0
C306 C 0.05529 0.52799 0.09984 0.0
O307 O 0.03294 0.52668 0.08359 0.0
H308 H 0.11247 0.53385 0.9991 0.0
H309 H 0.13712 0.46017 0.0492 0.0
N310 N 0.07167 0.4635 0.05633 0.0
N311 N 0.05022 0.43118 0.08039 0.0
C312 C 0.05183 0.45793 0.07791 0.0
C313 C 0.08307 0.43948 0.0447 0.0
C314 C 0.07001 0.4196 0.05945 0.0
C315 C 0.04169 0.50336 0.99243 0.0
O316 O 0.03804 0.47873 1.00135 0.0
H317 H 0.03851 0.47334 0.09097 0.0
H318 H 0.09959 0.43661 0.0265 0.0
O319 O 0.07763 0.5183 0.08627 0.0
H320 H 0.17959 0.47525 0.0166 0.0
H321 H 0.07495 0.39824 0.05502 0.0
Cu322 Cu 0.5659 0.51826 0.0172 0.0
N323 N 0.5417 0.5148 0.98268 0.0
N324 N 0.52587 0.51208 0.93039 0.0
C325 C 0.5478 0.51334 0.94925 0.0
C326 C 0.50518 0.51274 0.95294 0.0
C327 C 0.51504 0.51433 0.9852 0.0
O328 O 0.60187 0.50524 0.99835 0.0
C329 C 0.54414 0.57452 0.02162 0.0
O330 O 0.5346 0.5718 0.99128 0.0
H331 H 0.56784 0.51398 0.93895 0.0
H332 H 0.50356 0.51546 0.00879 0.0
N333 N 0.5584 0.49718 0.05501 0.0
N334 N 0.55273 0.48606 0.10979 0.0
C335 C 0.56272 0.50312 0.08746 0.0
C336 C 0.54513 0.47564 0.05671 0.0
C337 C 0.54175 0.46863 0.09044 0.0
C338 C 0.60683 0.48001 0.99259 0.0
O339 O 0.58859 0.4647 1.00151 0.0
H340 H 0.57255 0.52005 0.09443 0.0
H341 H 0.53764 0.46628 0.03502 0.0
O342 O 0.56017 0.55515 0.03456 0.0
H343 H 0.48442 0.5121 0.94661 0.0
H344 H 0.53101 0.45267 0.09992 0.0
Cu345 Cu 1.01012 0.5152 0.54875 0.0
N346 N 0.03361 0.52435 0.51446 0.0
N347 N 0.04869 0.53229 0.46196 0.0
C348 C 0.02959 0.52234 0.48101 0.0
C349 C 0.06547 0.54084 0.48444 0.0
C350 C 0.05611 0.53591 0.51682 0.0
O351 O 0.97424 0.52074 0.52844 0.0
C352 C 0.04598 0.47677 0.58094 0.0
O353 O 0.05786 0.49845 0.5825 0.0
H354 H 1.01235 0.51462 0.47094 0.0
H355 H 0.06478 0.54093 0.54036 0.0
N356 N 1.01022 0.53856 0.5853 0.0
N357 N 1.00914 0.55288 0.63884 0.0
C358 C 1.00572 0.53245 0.61818 0.0
C359 C 0.01668 0.56373 0.58505 0.0
C360 C 0.01594 0.57265 0.61795 0.0
C361 C 0.96662 0.54496 0.51841 0.0
O362 O 0.9825 0.5631 0.5237 0.0
H363 H 1.00118 0.51291 0.62676 0.0
H364 H 0.02214 0.57466 0.56261 0.0
O365 O 0.02347 0.47871 0.5659 0.0
H366 H 0.08318 0.55008 0.47802 0.0
H367 H 0.02038 0.5921 0.62578 0.0
H368 H 0.05758 0.01827 0.11661 0.0
H369 H 0.06078 1.00894 0.17769 0.0
H370 H 0.97546 1.0059 0.18387 0.0
H371 H 0.97198 0.01563 0.12297 0.0
H372 H 0.99156 0.03937 0.23046 0.0
H373 H 0.05742 0.94101 0.23503 0.0
H374 H 0.07133 0.96615 0.2099 0.0
H375 H 0.04099 0.95439 0.19674 0.0
C376 C 0.03956 0.01515 0.13083 0.0
C377 C 0.01451 0.01776 0.11486 0.0
C378 C 0.04145 1.00968 0.16576 0.0
C379 C 0.0184 1.00644 0.18534 0.0
C380 C 0.99352 1.00825 0.16927 0.0
H381 H 0.01775 0.95972 0.40073 0.0
H382 H 1.012 0.96149 0.33909 0.0
C383 C 0.99159 1.01378 0.13441 0.0
C384 C 0.01981 1.00341 0.2229 0.0
H385 H 0.05087 0.96494 0.28714 0.0
C386 C 1.00438 0.02297 0.24284 0.0
C387 C 0.0363 0.98186 0.23907 0.0
C388 C 0.05226 0.9595 0.21912 0.0
C389 C 1.00551 0.02196 0.27843 0.0
C390 C 0.02289 1.00109 0.29455 0.0
C391 C 0.03776 0.98109 0.27471 0.0
C392 C 0.02625 1.00003 0.33193 0.0
C393 C 0.98795 0.0432 0.29847 0.0
C394 C 0.03637 0.02099 0.34832 0.0
C395 C 0.03952 0.02013 0.38351 0.0
C396 C 0.03276 0.99818 0.40312 0.0
C397 C 0.02279 0.97709 0.38655 0.0
C398 C 0.01968 0.97797 0.35128 0.0
H399 H 0.97074 0.05301 0.28334 0.0
H400 H 0.98 0.03444 0.32206 0.0
H401 H 1.00004 0.05904 0.30574 0.0
H402 H 0.04196 0.03802 0.33383 0.0
H403 H 0.04702 0.03682 0.39535 0.0
H404 H 0.29893 0.79093 0.37775 0.0
H405 H 0.29819 0.79179 0.43966 0.0
H406 H 0.31107 0.70492 0.44372 0.0
H407 H 0.31303 0.70382 0.38175 0.0
H408 H 0.26551 0.77114 0.48739 0.0
H409 H 0.37137 0.72372 0.50184 0.0
H410 H 0.35799 0.73615 0.46148 0.0
H411 H 0.35137 0.70397 0.47805 0.0
C412 C 0.30197 0.77196 0.39167 0.0
C413 C 0.30647 0.74728 0.37454 0.0
C414 C 0.30127 0.77251 0.42716 0.0
C415 C 0.30506 0.74845 0.44634 0.0
C416 C 0.30868 0.72377 0.42943 0.0
H417 H 0.31705 0.7108 0.66162 0.0
H418 H 0.31025 0.70981 0.60047 0.0
C419 C 0.3095 0.72318 0.39392 0.0
C420 C 0.30551 0.74925 0.484 0.0
H421 H 0.34498 0.7302 0.55229 0.0
C422 C 0.28289 0.76224 0.5016 0.0
C423 C 0.32827 0.73776 0.5025 0.0
C424 C 0.35373 0.72484 0.48504 0.0
C425 C 0.28228 0.76363 0.53724 0.0
C426 C 0.30496 0.75195 0.55566 0.0
C427 C 0.32754 0.73899 0.53808 0.0
C428 C 0.30602 0.75307 0.59321 0.0
C429 C 0.25724 0.77718 0.55495 0.0
C430 C 0.30554 0.77779 0.60953 0.0
C431 C 0.30945 0.77846 0.64459 0.0
C432 C 0.31405 0.75439 0.66391 0.0
C433 C 0.31359 0.72974 0.64758 0.0
C434 C 0.30974 0.7291 0.61259 0.0
H435 H 0.23957 0.77941 0.5381 0.0
H436 H 0.25258 0.76561 0.57815 0.0
H437 H 0.26055 0.79759 0.56277 0.0
H438 H 0.30313 0.79651 0.59497 0.0
H439 H 0.30979 0.79778 0.65631 0.0
H440 H 0.51706 1.00886 0.91578 0.0
H441 H 0.51689 0.01664 0.85444 0.0
H442 H 0.57723 0.06921 0.8634 0.0
H443 H 0.57717 0.06213 0.92496 0.0
H444 H 0.50778 0.06925 0.81658 0.0
H445 H 0.60837 1.00946 0.79401 0.0
H446 H 0.58887 1.00581 0.83243 0.0
H447 H 0.60607 0.03464 0.82626 0.0
C448 C 0.53012 0.02232 0.90494 0.0
C449 C 0.54719 0.0348 0.92556 0.0
C450 C 0.53002 0.02667 0.86978 0.0
C451 C 0.54714 0.04336 0.85447 0.0
C452 C 0.56407 0.05602 0.8748 0.0
H453 H 0.58746 0.06607 0.64143 0.0
H454 H 0.58301 0.07178 0.70284 0.0
C455 C 0.5641 0.0518 0.91 0.0
C456 C 0.54765 0.047 0.81711 0.0
H457 H 0.58633 0.03047 0.7465 0.0
C458 C 0.52496 0.0609 0.80116 0.0
C459 C 0.57013 0.03615 0.79724 0.0
C460 C 0.59474 0.0205 0.81317 0.0
C461 C 0.52419 0.06431 0.76566 0.0
C462 C 0.54649 0.05292 0.74567 0.0
C463 C 0.56928 0.03932 0.7618 0.0
C464 C 0.54644 0.05366 0.70796 0.0
C465 C 0.49969 0.08034 0.75004 0.0
C466 C 0.52694 0.04227 0.69021 0.0
C467 C 0.52926 0.0393 0.65498 0.0
C468 C 0.55141 0.04719 0.63699 0.0
C469 C 0.57021 0.05971 0.65459 0.0
C470 C 0.56772 0.06295 0.6897 0.0
H471 H 0.4889 0.09479 0.76837 0.0
H472 H 0.5051 0.09171 0.72702 0.0
H473 H 0.48561 0.06636 0.74263 0.0
H474 H 0.51069 0.03437 0.70375 0.0
H475 H 0.51458 0.02933 0.64223 0.0
H476 H 0.29945 0.22989 0.88705 0.0
H477 H 0.29925 0.22916 0.94913 0.0
H478 H 0.29274 0.31589 0.94891 0.0
H479 H 0.29304 0.31675 0.88667 0.0
H480 H 0.32934 0.29041 0.99645 0.0
H481 H 0.23129 0.25118 0.00631 0.0
H482 H 0.25655 0.23086 0.9816 0.0
H483 H 0.24376 0.26434 0.96703 0.0
C484 C 0.29784 0.24882 0.9002 0.0
C485 C 0.29586 0.27343 0.88195 0.0
C486 C 0.29777 0.24836 0.93567 0.0
C487 C 0.29543 0.2725 0.95361 0.0
C488 C 0.29444 0.29704 0.93552 0.0
H489 H 0.27065 0.32295 0.16074 0.0
H490 H 0.28182 0.31914 0.10026 0.0
C491 C 0.29467 0.29751 0.89999 0.0
C492 C 0.29328 0.27224 0.99121 0.0
H493 H 0.25374 0.25541 0.05758 0.0
C494 C 0.31284 0.28275 0.00986 0.0
C495 C 0.27173 0.26219 0.00862 0.0
C496 C 0.24949 0.25172 0.98993 0.0
C497 C 0.31147 0.28338 0.04551 0.0
C498 C 0.28977 0.27358 0.06284 0.0
C499 C 0.27044 0.26276 0.04421 0.0
C500 C 0.28582 0.27558 0.10015 0.0
C501 C 0.33335 0.29429 0.06433 0.0
C502 C 0.28425 0.25235 0.1202 0.0
C503 C 0.27773 0.25446 0.15483 0.0
C504 C 0.2724 0.27988 0.16996 0.0
C505 C 0.27468 0.30306 0.14994 0.0
C506 C 0.28125 0.30092 0.11537 0.0
H507 H 0.35203 0.29372 0.0486 0.0
H508 H 0.32644 0.3156 0.07086 0.0
H509 H 0.33814 0.28272 0.0883 0.0
H510 H 0.28753 0.23262 0.10886 0.0
H511 H 0.27609 0.23622 0.16947 0.0
H512 H 0.09535 0.95387 0.66883 0.0
H513 H 0.09125 0.96071 0.73027 0.0
H514 H 0.04038 0.03633 0.7128 0.0
H515 H 0.04548 0.03 0.65146 0.0
H516 H 0.07399 0.04207 0.76044 0.0
H517 H 0.02933 0.94915 0.79029 0.0
H518 H 0.06184 0.9423 0.77024 0.0
H519 H 0.03427 0.96068 0.74729 0.0
C520 C 0.08326 0.97188 0.67824 0.0
C521 C 0.07065 0.99136 0.65546 0.0
C522 C 0.08077 0.97572 0.71333 0.0
C523 C 0.06498 0.99875 0.72635 0.0
C524 C 0.05263 0.01835 0.7035 0.0
H525 H 0.99363 0.02002 0.92594 0.0
H526 H 1.00597 1.00906 0.86722 0.0
C527 C 0.05556 0.01477 0.66844 0.0
C528 C 0.0614 1.00274 0.76366 0.0
H529 H 0.04087 0.97381 0.83719 0.0
C530 C 0.06671 0.02714 0.77721 0.0
C531 C 0.05163 0.9834 0.78559 0.0
C532 C 0.04367 0.95755 0.77259 0.0
C533 C 0.06218 0.03294 0.81178 0.0
C534 C 0.05308 1.01331 0.83388 0.0
C535 C 0.04814 0.98875 0.82041 0.0
C536 C 0.04658 0.01858 0.87044 0.0
C537 C 0.06611 0.06051 0.82383 0.0
C538 C 0.06547 0.02695 0.89232 0.0
C539 C 0.05826 0.03374 0.92595 0.0
C540 C 0.03225 0.03161 0.93856 0.0
C541 C 0.01386 0.02188 0.91711 0.0
C542 C 0.0209 0.01559 0.88343 0.0
H543 H 0.06569 0.07536 0.80244 0.0
H544 H 0.05034 0.0682 0.84273 0.0
H545 H 0.086 0.05926 0.83592 0.0
H546 H 0.08568 0.02858 0.88331 0.0
H547 H 0.07296 0.04091 0.94194 0.0
H548 H 0.89786 0.20228 0.37388 0.0
H549 H 0.88705 0.20081 0.43424 0.0
H550 H 0.82728 0.14908 0.41533 0.0
H551 H 0.8374 0.15163 0.35431 0.0
H552 H 0.80522 0.1883 0.44881 0.0
H553 H 0.89893 0.15394 0.51518 0.0
H554 H 0.90478 0.18153 0.4878 0.0
H555 H 0.89665 0.15082 0.46983 0.0
C556 C 0.88325 0.18963 0.38268 0.0
C557 C 0.8686 0.17688 0.35936 0.0
C558 C 0.87706 0.18874 0.4174 0.0
C559 C 0.85653 0.17455 0.42971 0.0
C560 C 0.84327 0.16011 0.40663 0.0
H561 H 0.81755 0.19815 0.64739 0.0
H562 H 0.8309 0.17529 0.59404 0.0
C563 C 0.84915 0.1614 0.3718 0.0
C564 C 0.84613 0.17853 0.46525 0.0
H565 H 0.86599 0.18591 0.54656 0.0
C566 C 0.8185 0.18707 0.47021 0.0
C567 C 0.86316 0.17658 0.49369 0.0
C568 C 0.89246 0.1649 0.49129 0.0
C569 C 0.80776 0.19533 0.50201 0.0
C570 C 0.82526 0.19624 0.52949 0.0
C571 C 0.85259 0.18593 0.5253 0.0
C572 C 0.81594 0.20941 0.5619 0.0
C573 C 0.77774 0.20326 0.50559 0.0
C574 C 0.80317 0.23621 0.56166 0.0
C575 C 0.79538 0.24922 0.59204 0.0
C576 C 0.80062 0.23587 0.6234 0.0
C577 C 0.81338 0.20901 0.62363 0.0
C578 C 0.82098 0.19592 0.59318 0.0
H579 H 0.76689 0.19183 0.4878 0.0
H580 H 0.77042 0.19962 0.53183 0.0
H581 H 0.77258 0.22499 0.49909 0.0
H582 H 0.79978 0.24736 0.53793 0.0
H583 H 0.78612 0.27005 0.59097 0.0
H584 H 0.48708 0.02357 0.18301 0.0
H585 H 0.49244 0.02107 0.24444 0.0
H586 H 0.54351 0.08341 0.23791 0.0
H587 H 0.53936 0.08521 0.17647 0.0
H588 H 0.56639 0.0404 0.27293 0.0
H589 H 0.46238 0.06892 0.32167 0.0
H590 H 0.46502 0.04213 0.29171 0.0
H591 H 0.47211 0.07494 0.27809 0.0
C592 C 0.49941 0.03683 0.19453 0.0
C593 C 0.51294 0.05444 0.17445 0.0
C594 C 0.5021 0.03566 0.22983 0.0
C595 C 0.51808 0.05231 0.24587 0.0
C596 C 0.53091 0.0705 0.2261 0.0
H597 H 0.54599 0.05767 0.46507 0.0
H598 H 0.53027 0.06983 0.40738 0.0
C599 C 0.52837 0.07158 0.19083 0.0
C600 C 0.52372 0.04884 0.28266 0.0
H601 H 0.49422 0.04681 0.3615 0.0
C602 C 0.55059 0.04212 0.29228 0.0
C603 C 0.50315 0.05134 0.30798 0.0
C604 C 0.47407 0.06 0.29941 0.0
C605 C 0.55742 0.03697 0.32632 0.0
C606 C 0.53678 0.03802 0.35141 0.0
C607 C 0.50995 0.04569 0.3421 0.0
C608 C 0.54296 0.03018 0.38712 0.0
C609 C 0.58672 0.03027 0.33515 0.0
C610 C 0.55433 1.00369 0.39496 0.0
C611 C 0.56336 0.99675 0.42762 0.0
C612 C 0.56101 0.01614 0.45322 0.0
C613 C 0.54811 0.04232 0.44587 0.0
C614 C 0.53915 0.04929 0.41297 0.0
H615 H 0.60004 0.03719 0.31492 0.0
H616 H 0.59095 0.03959 0.35945 0.0
H617 H 0.59188 1.00809 0.3381 0.0
H618 H 0.55701 0.98855 0.37546 0.0
H619 H 0.5729 0.97633 0.43253 0.0
H620 H 0.76012 0.75033 0.13027 0.0
H621 H 0.75569 0.75275 0.0688 0.0
H622 H 0.8417 0.74793 0.0568 0.0
H623 H 0.84647 0.74436 0.11845 0.0
H624 H 0.77025 0.79197 0.02644 0.0
H625 H 0.825 0.69261 0.9892 0.0
H626 H 0.81451 0.70011 0.03249 0.0
H627 H 0.84404 0.71207 0.01484 0.0
C628 C 0.77821 0.74915 0.11472 0.0
C629 C 0.80371 0.74698 0.12955 0.0
C630 C 0.7756 0.75075 0.07946 0.0
C631 C 0.79837 0.75016 0.05811 0.0
C632 C 0.82387 0.74787 0.07269 0.0
H633 H 0.8141 0.78195 0.84056 0.0
H634 H 0.82313 0.77069 0.90047 0.0
C635 C 0.82653 0.74618 0.10803 0.0
C636 C 0.7951 0.75363 0.02078 0.0
H637 H 0.81188 0.72392 0.9444 0.0
C638 C 0.77927 0.77702 0.00855 0.0
C639 C 0.80701 0.73418 0.99741 0.0
C640 C 0.8234 0.70821 0.00908 0.0
C641 C 0.77509 0.78156 0.97368 0.0
C642 C 0.78679 0.76204 0.95036 0.0
C643 C 0.8029 0.73879 0.96241 0.0
C644 C 0.7821 0.76557 0.9134 0.0
C645 C 0.75843 0.80739 0.96196 0.0
C646 C 0.75625 0.76548 0.90066 0.0
C647 C 0.75102 0.77182 0.86651 0.0
C648 C 0.77157 0.77841 0.84439 0.0
C649 C 0.79779 0.77707 0.85688 0.0
C650 C 0.80301 0.77064 0.8911 0.0
H651 H 0.75578 0.82273 0.98217 0.0
H652 H 0.76785 0.81601 0.93927 0.0
H653 H 0.73823 0.80308 0.9548 0.0
H654 H 0.73992 0.76128 0.91742 0.0
H655 H 0.73063 0.7725 0.85778 0.0
H656 H 0.47723 0.51807 0.61108 0.0
H657 H 0.48071 0.5102 0.67251 0.0
H658 H 0.56141 0.53017 0.66899 0.0
H659 H 0.55825 0.53798 0.60753 0.0
H660 H 0.52366 0.47483 0.71354 0.0
H661 H 0.51429 0.5852 0.73556 0.0
H662 H 0.50354 0.57162 0.6968 0.0
H663 H 0.53867 0.57151 0.70414 0.0
C664 C 0.49588 0.52041 0.62325 0.0
C665 C 0.51742 0.52881 0.60437 0.0
C666 C 0.49782 0.51588 0.65835 0.0
C667 C 0.5212 0.51988 0.67525 0.0
C668 C 0.54313 0.52717 0.65637 0.0
H669 H 0.56528 0.4906 0.88689 0.0
H670 H 0.56403 0.49126 0.82472 0.0
C671 C 0.5413 0.53151 0.62123 0.0
C672 C 0.52206 0.51797 0.71284 0.0
H673 H 0.52086 0.55641 0.78365 0.0
C674 C 0.52313 0.49261 0.72893 0.0
C675 C 0.52105 0.54127 0.73275 0.0
C676 C 0.51915 0.56903 0.71663 0.0
C677 C 0.52354 0.48994 0.76455 0.0
C678 C 0.52285 0.51323 0.78444 0.0
C679 C 0.52149 0.53859 0.76831 0.0
C680 C 0.52329 0.51181 0.82209 0.0
C681 C 0.52429 0.46233 0.78076 0.0
C682 C 0.50088 0.52333 0.8412 0.0
C683 C 0.50153 0.52299 0.87671 0.0
C684 C 0.52477 0.51144 0.89381 0.0
C685 C 0.54717 0.49985 0.87452 0.0
C686 C 0.54641 0.5 0.83901 0.0
H687 H 0.51966 0.44717 0.76236 0.0
H688 H 0.54467 0.45567 0.79079 0.0
H689 H 0.50973 0.46288 0.80242 0.0
H690 H 0.4829 0.5327 0.82859 0.0
H691 H 0.48408 0.53237 0.89074 0.0
H692 H 0.79812 0.25163 0.87786 0.0
H693 H 0.80236 0.24062 0.93825 0.0
H694 H 0.82598 0.15683 0.91511 0.0
H695 H 0.82208 0.16776 0.85426 0.0
H696 H 0.78717 0.16626 0.96913 0.0
H697 H 0.87438 0.2204 0.98734 0.0
H698 H 0.84735 0.24095 0.96614 0.0
H699 H 0.8642 0.2112 0.94593 0.0
C700 C 0.80447 0.23089 0.88549 0.0
C701 C 0.81009 0.21064 0.86117 0.0
C702 C 0.80686 0.22463 0.92003 0.0
C703 C 0.81503 0.19801 0.93103 0.0
C704 C 0.81986 0.17753 0.90703 0.0
H705 H 0.84809 0.19412 0.14813 0.0
H706 H 0.8535 0.17837 0.08958 0.0
C707 C 0.81748 0.1838 0.87232 0.0
C708 C 0.81815 0.19198 0.96777 0.0
H709 H 0.84809 0.21272 0.03749 0.0
C710 C 0.80086 0.17593 0.98412 0.0
C711 C 0.8365 0.204 0.98713 0.0
C712 C 0.85687 0.21987 0.97069 0.0
C713 C 0.79994 0.17344 0.0197 0.0
C714 C 0.8164 0.18775 0.03921 0.0
C715 C 0.83523 0.20194 0.02263 0.0
C716 C 0.81209 0.19152 0.07627 0.0
C717 C 0.78082 0.15611 0.03599 0.0
C718 C 0.78689 0.20346 0.08849 0.0
C719 C 0.78375 0.21229 0.12186 0.0
C720 C 0.80581 0.20969 0.14362 0.0
C721 C 0.83068 0.19623 0.13206 0.0
C722 C 0.83381 0.18733 0.09857 0.0
H723 H 0.77814 0.13902 0.01945 0.0
H724 H 0.788 0.14797 0.06112 0.0
H725 H 0.76083 0.16837 0.03955 0.0
H726 H 0.76996 0.20752 0.07168 0.0
H727 H 0.7643 0.22229 0.1302 0.0
H728 H 0.0977 0.53426 0.13987 0.0
H729 H 0.097 0.5399 0.20138 0.0
H730 H 1.01065 0.5446 0.20333 0.0
H731 H 1.01106 0.53926 0.14166 0.0
H732 H 0.03153 0.58119 0.24814 0.0
H733 H 0.08139 0.47545 0.26246 0.0
H734 H 0.09884 0.49661 0.23511 0.0
H735 H 0.06653 0.48872 0.22321 0.0
C736 C 0.07849 0.53693 0.15325 0.0
C737 C 0.05444 0.53596 0.1359 0.0
C738 C 0.07816 0.54005 0.18842 0.0
C739 C 0.05384 0.5421 0.20691 0.0
C740 C 0.02965 0.54289 0.18948 0.0
H741 H 0.0282 0.50062 0.41712 0.0
H742 H 0.02915 0.50478 0.35528 0.0
C743 C 0.02993 0.53984 0.15423 0.0
C744 C 0.0538 0.5414 0.24452 0.0
H745 H 0.07414 0.50082 0.31247 0.0
C746 C 0.04089 0.56369 0.26228 0.0
C747 C 0.0657 0.51834 0.26279 0.0
C748 C 0.07871 0.49329 0.24502 0.0
C749 C 0.03975 0.56359 0.29798 0.0
C750 C 0.05212 0.54071 0.31622 0.0
C751 C 0.06489 0.51841 0.29839 0.0
C752 C 0.05118 0.53894 0.35381 0.0
C753 C 0.02479 0.58766 0.31588 0.0
C754 C 0.0635 0.5566 0.37351 0.0
C755 C 0.06288 0.55435 0.40899 0.0
C756 C 0.04997 0.53434 0.42538 0.0
C757 C 0.03792 0.51653 0.40543 0.0
C758 C 0.03858 0.51877 0.37005 0.0
H759 H 1.01141 0.60077 0.29841 0.0
H760 H 1.0125 0.58116 0.33746 0.0
H761 H 0.03949 0.59985 0.32617 0.0
H762 H 0.07376 0.572 0.36146 0.0
H763 H 0.07219 0.56851 0.42353 0.0
H764 H 0.7659 0.82523 0.66381 0.0
H765 H 0.77626 0.82081 0.60317 0.0
H766 H 0.77856 0.73465 0.61247 0.0
H767 H 0.76773 0.73888 0.6732 0.0
H768 H 0.8186 0.79215 0.56608 0.0
H769 H 0.72141 0.75589 0.54061 0.0
H770 H 0.72817 0.77047 0.58051 0.0
H771 H 0.74185 0.73622 0.57148 0.0
C772 C 0.76885 0.80527 0.65311 0.0
C773 C 0.76568 0.78242 0.67336 0.0
C774 C 0.7748 0.8028 0.61839 0.0
C775 C 0.77765 0.77747 0.60317 0.0
C776 C 0.77586 0.75446 0.62358 0.0
H777 H 0.79289 0.73207 0.39054 0.0
H778 H 0.79189 0.7318 0.45256 0.0
C779 C 0.76985 0.75691 0.65834 0.0
C780 C 0.78138 0.77545 0.56576 0.0
H781 H 0.75131 0.75801 0.49402 0.0
C782 C 0.80393 0.78463 0.5503 0.0
C783 C 0.76216 0.76572 0.54521 0.0
C784 C 0.7369 0.75672 0.56016 0.0
C785 C 0.80787 0.78419 0.51486 0.0
C786 C 0.78851 0.77471 0.49433 0.0
C787 C 0.76615 0.76522 0.50982 0.0
C788 C 0.79065 0.77493 0.45667 0.0
C789 C 0.83284 0.79358 0.49972 0.0
C790 C 0.7902 0.79929 0.43832 0.0
C791 C 0.79057 0.79956 0.40276 0.0
C792 C 0.7912 0.77546 0.38484 0.0
C793 C 0.79195 0.75106 0.4034 0.0
C794 C 0.79157 0.75083 0.4389 0.0
H795 H 0.84885 0.79327 0.51884 0.0
H796 H 0.84087 0.78083 0.47808 0.0
H797 H 0.82781 0.81462 0.49012 0.0
H798 H 0.78888 0.81821 0.45149 0.0
H799 H 0.78962 0.81872 0.38936 0.0
H800 H 0.55516 0.53023 0.14803 0.0
H801 H 0.55265 0.53289 0.20977 0.0
H802 H 0.5454 0.44826 0.21722 0.0
H803 H 0.54816 0.44531 0.15525 0.0
H804 H 0.50722 0.48034 0.25614 0.0
H805 H 0.6091 0.50541 0.28009 0.0
H806 H 0.59095 0.52734 0.24929 0.0
H807 H 0.60018 0.4922 0.24019 0.0
C808 C 0.55355 0.51202 0.16266 0.0
C809 C 0.55203 0.48749 0.14646 0.0
C810 C 0.55212 0.51359 0.19809 0.0
C811 C 0.5493 0.49068 0.21819 0.0
C812 C 0.54773 0.46617 0.20221 0.0
H813 H 0.51814 0.47421 0.43753 0.0
H814 H 0.52979 0.46392 0.37809 0.0
C815 C 0.54917 0.46456 0.16674 0.0
C816 C 0.54654 0.49273 0.25575 0.0
H817 H 0.57729 0.51188 0.32613 0.0
C818 C 0.52267 0.48691 0.27153 0.0
C819 C 0.56671 0.50135 0.27579 0.0
C820 C 0.59329 0.5067 0.26057 0.0
C821 C 0.51796 0.49045 0.30656 0.0
C822 C 0.53791 0.49958 0.3265 0.0
C823 C 0.56202 0.50489 0.31084 0.0
C824 C 0.53349 0.50508 0.36329 0.0
C825 C 0.49122 0.48543 0.32167 0.0
C826 C 0.53292 0.53139 0.37508 0.0
C827 C 0.52649 0.53731 0.40907 0.0
C828 C 0.52057 0.51699 0.43206 0.0
C829 C 0.52244 0.49038 0.42053 0.0
C830 C 0.5289 0.48448 0.38648 0.0
H831 H 0.47599 0.48444 0.30183 0.0
H832 H 0.49384 0.4659 0.33583 0.0
H833 H 0.48334 0.50149 0.33972 0.0
H834 H 0.53656 0.54757 0.35769 0.0
H835 H 0.52534 0.558 0.41704 0.0
H836 H 0.2394 0.77605 0.11827 0.0
H837 H 0.23915 0.777 0.0561 0.0
H838 H 0.3234 0.78534 0.05354 0.0
H839 H 0.3242 0.7833 0.11524 0.0
H840 H 0.25255 0.81536 0.00751 0.0
H841 H 0.32041 0.71859 0.99688 0.0
H842 H 0.30414 0.72973 0.03638 0.0
H843 H 0.33408 0.74277 0.02191 0.0
C844 C 0.25794 0.77788 0.10454 0.0
C845 C 0.28188 0.77932 0.12201 0.0
C846 C 0.25768 0.77866 0.06898 0.0
C847 C 0.28135 0.78079 0.05023 0.0
C848 C 0.305 0.78319 0.06752 0.0
H849 H 0.33716 0.78286 0.84413 0.0
H850 H 0.32775 0.79137 0.90427 0.0
C851 C 0.30533 0.78231 0.10296 0.0
C852 C 0.28173 0.77976 0.01262 0.0
H853 H 0.31314 0.74495 0.94608 0.0
C854 C 0.26559 0.79986 0.99401 0.0
C855 C 0.29858 0.75934 0.99511 0.0
C856 C 0.31508 0.73622 0.01357 0.0
C857 C 0.2667 0.80061 0.95827 0.0
C858 C 0.28432 0.78077 0.94097 0.0
C859 C 0.29989 0.76033 0.95955 0.0
C860 C 0.28752 0.78075 0.90354 0.0
C861 C 0.24971 0.82292 0.93916 0.0
C862 C 0.26764 0.77276 0.88303 0.0
C863 C 0.27296 0.76779 0.8485 0.0
C864 C 0.29834 0.77056 0.83413 0.0
C865 C 0.31747 0.78036 0.85438 0.0
C866 C 0.31215 0.78526 0.88877 0.0
H867 H 0.23945 0.83857 0.95638 0.0
H868 H 0.26233 0.8326 0.92043 0.0
H869 H 0.2342 0.81433 0.92485 0.0
H870 H 0.2486 0.7689 0.8941 0.0
H871 H 0.25781 0.7602 0.83367 0.0
H872 H 1.00918 0.48204 0.94851 0.0
H873 H 0.99907 0.49684 0.8901 0.0
H874 H 0.04095 0.5653 0.90293 0.0
H875 H 0.05145 0.55056 0.96134 0.0
H876 H 0.97385 0.54678 0.85888 0.0
H877 H 0.08245 0.52164 0.82518 0.0
H878 H 0.06825 0.51053 0.86456 0.0
H879 H 0.07456 0.54479 0.85938 0.0
C880 C 0.01588 0.5005 0.93916 0.0
C881 C 0.03146 0.5149 0.95948 0.0
C882 C 1.01003 0.50894 0.90577 0.0
C883 C 0.01969 0.53186 0.89207 0.0
C884 C 0.03369 0.54729 0.91292 0.0
H885 H 0.03342 0.58395 0.68111 0.0
H886 H 0.03333 0.58193 0.74299 0.0
C887 C 0.03956 0.53889 0.94635 0.0
C888 C 0.01699 0.53822 0.85531 0.0
H889 H 0.05354 0.53871 0.78135 0.0
C890 C 0.99124 0.54518 0.84189 0.0
C891 C 0.03974 0.53602 0.83326 0.0
C892 C 0.06783 0.52764 0.84613 0.0
C893 C 0.98765 0.55011 0.8069 0.0
C894 C 1.01039 0.54741 0.78478 0.0
C895 C 0.03614 0.54084 0.79835 0.0
C896 C 1.00811 0.55035 0.74734 0.0
C897 C 0.95958 0.55839 0.79402 0.0
C898 C 0.99388 0.53333 0.72912 0.0
C899 C 0.99368 0.53459 0.69362 0.0
C900 C 1.00796 0.55271 0.67554 0.0
C901 C 0.02189 0.56999 0.69398 0.0
C902 C 0.022 0.56877 0.72946 0.0
H903 H 0.94579 0.56742 0.81442 0.0
H904 H 0.95948 0.57313 0.77257 0.0
H905 H 0.95157 0.54033 0.78489 0.0
H906 H 0.98349 0.51854 0.7423 0.0
H907 H 0.9825 0.52118 0.68041 0.0
H908 H 0.28989 0.28451 0.34174 0.0
H909 H 0.30574 0.27468 0.39946 0.0
H910 H 0.24323 0.225 0.41755 0.0
H911 H 0.22731 0.23451 0.35973 0.0
H912 H 0.27262 0.28946 0.45572 0.0
H913 H 0.30937 0.17976 0.45973 0.0
H914 H 0.30515 0.19899 0.42043 0.0
H915 H 0.27649 0.1885 0.44222 0.0
C916 C 0.27985 0.27098 0.35768 0.0
C917 C 0.2572 0.26043 0.34614 0.0
C918 C 0.28895 0.26542 0.3907 0.0
C919 C 0.27577 0.249 0.41273 0.0
C920 C 0.25399 0.23735 0.4008 0.0
H921 H 0.27337 0.21572 0.62859 0.0
H922 H 0.2675 0.21678 0.56717 0.0
C923 C 0.24483 0.24293 0.36775 0.0
C924 C 0.28278 0.24669 0.44915 0.0
H925 H 0.30296 0.20175 0.51302 0.0
C926 C 0.27954 0.27032 0.4682 0.0
C927 C 0.29153 0.22166 0.46536 0.0
C928 C 0.29609 0.19578 0.44588 0.0
C929 C 0.28419 0.26959 0.50321 0.0
C930 C 0.29291 0.24457 0.51951 0.0
C931 C 0.29635 0.22091 0.50043 0.0
C932 C 0.29783 0.24261 0.55654 0.0
C933 C 0.27881 0.29553 0.52262 0.0
C934 C 0.31725 0.2563 0.57091 0.0
C935 C 0.32042 0.25607 0.6061 0.0
C936 C 0.30438 0.24191 0.62767 0.0
C937 C 0.28567 0.22733 0.61296 0.0
C938 C 0.28245 0.22768 0.57777 0.0
H939 H 0.26582 0.31146 0.50826 0.0
H940 H 0.26898 0.2923 0.54759 0.0
H941 H 0.29815 0.30302 0.52725 0.0
H942 H 0.3297 0.26755 0.55492 0.0
H943 H 0.33496 0.2676 0.61632 0.0
H944 H 0.02345 0.17147 0.02748 0.0
H945 H 0.05047 0.19863 0.0597 0.0
H946 H 0.05522 0.14007 0.14177 0.0
H947 H 0.02789 0.1129 0.11 0.0
H948 H 0.04009 0.22154 0.12412 0.0
H949 H 0.13437 0.14907 0.12267 0.0
H950 H 0.10686 0.1463 0.09475 0.0
H951 H 0.10524 0.1353 0.13835 0.0
C952 C 0.03001 0.16436 0.05245 0.0
C953 C 0.02343 0.13981 0.06594 0.0
C954 C 0.04561 0.17991 0.0708 0.0
C955 C 0.0552 0.17124 0.10296 0.0
C956 C 0.04853 0.14692 0.1167 0.0
H957 H 0.11831 0.26707 0.25638 0.0
H958 H 0.09143 0.24025 0.22348 0.0
C959 C 0.03287 0.13136 0.09841 0.0
C960 C 0.07178 0.1879 0.1223 0.0
H961 H 0.13357 0.18737 0.15732 0.0
C962 C 0.06054 0.21409 0.13134 0.0
C963 C 0.09858 0.17829 0.13136 0.0
C964 C 0.11214 0.1508 0.12107 0.0
C965 C 0.07521 0.23076 0.14965 0.0
C966 C 0.10176 0.22089 0.15952 0.0
C967 C 0.11315 0.19485 0.14999 0.0
C968 C 0.11812 0.23733 0.17953 0.0
C969 C 0.06229 0.25898 0.15782 0.0
C970 C 0.14241 0.24419 0.16612 0.0
C971 C 0.15787 0.25964 0.18487 0.0
C972 C 0.14948 0.26844 0.21763 0.0
C973 C 0.12524 0.2612 0.23108 0.0
C974 C 0.10979 0.2458 0.21228 0.0
H975 H 0.04485 0.26574 0.14134 0.0
H976 H 0.05494 0.25944 0.18459 0.0
H977 H 0.07699 0.27351 0.15483 0.0
H978 H 0.14928 0.23782 0.14092 0.0
H979 H 0.17621 0.26496 0.17342 0.0
H980 H 0.14475 0.93423 0.48762 0.0
H981 H 0.18223 0.91771 0.45044 0.0
H982 H 0.1893 0.9991 0.41772 0.0
H983 H 0.15086 0.016 0.45503 0.0
H984 H 0.18875 0.9663 0.3642 0.0
H985 H 0.26202 0.91575 0.45469 0.0
H986 H 0.23006 0.90466 0.46264 0.0
H987 H 0.23367 0.93962 0.46819 0.0
C988 C 0.15447 0.94881 0.47302 0.0
C989 C 0.14473 0.97649 0.47435 0.0
C990 C 0.1762 0.93927 0.45192 0.0
C991 C 0.18908 0.95709 0.43162 0.0
C992 C 0.17991 0.98493 0.43341 0.0
H993 H 0.31447 0.86026 0.30698 0.0
H994 H 0.29526 0.89821 0.34277 0.0
C995 C 0.15803 0.99459 0.45484 0.0
C996 C 0.21003 0.94587 0.40634 0.0
H997 H 0.26346 0.89598 0.39808 0.0
C998 C 0.20552 0.95144 0.37167 0.0
C999 C 0.2324 0.92689 0.41577 0.0
C1000 C 0.23996 0.92165 0.4524 0.0
C1001 C 0.22116 0.93683 0.3464 0.0
C1002 C 0.24147 0.91562 0.35598 0.0
C1003 C 0.24761 0.91182 0.39053 0.0
C1004 C 0.25385 0.89502 0.33132 0.0
C1005 C 0.21513 0.94375 0.30966 0.0
C1006 C 0.23713 0.88064 0.31288 0.0
C1007 C 0.24799 0.85918 0.29258 0.0
C1008 C 0.27594 0.85122 0.29029 0.0
C1009 C 0.29289 0.86603 0.30794 0.0
C1010 C 0.28191 0.88764 0.3285 0.0
H1011 H 0.2078 0.96559 0.30631 0.0
H1012 H 0.23312 0.93844 0.29302 0.0
H1013 H 0.19897 0.9325 0.3013 0.0
H1014 H 0.21547 0.88527 0.31524 0.0
H1015 H 0.23428 0.84825 0.27945 0.0
H1016 H 0.47136 0.74535 0.71624 0.0
H1017 H 0.49872 0.77737 0.69061 0.0
H1018 H 0.42891 0.83791 0.68613 0.0
H1019 H 0.40153 0.80628 0.71259 0.0
H1020 H 0.49406 0.80489 0.62831 0.0
H1021 H 0.4829 0.87715 0.73427 0.0
H1022 H 0.47384 0.84363 0.73865 0.0
H1023 H 0.45165 0.86992 0.71787 0.0
C1024 C 0.46181 0.76554 0.71016 0.0
C1025 C 0.43416 0.77317 0.71685 0.0
C1026 C 0.4775 0.78381 0.69527 0.0
C1027 C 0.46605 0.81026 0.68693 0.0
C1028 C 0.43838 0.81782 0.69293 0.0
H1029 H 0.52708 0.94909 0.59316 0.0
H1030 H 0.49961 0.91721 0.61855 0.0
C1031 C 0.42264 0.79953 0.70775 0.0
C1032 C 0.48299 0.82976 0.67164 0.0
H1033 H 0.50436 0.89074 0.68385 0.0
C1034 C 0.49647 0.82356 0.64058 0.0
C1035 C 0.48605 0.85425 0.68753 0.0
C1036 C 0.47306 0.86161 0.72157 0.0
C1037 C 0.51264 0.84123 0.62486 0.0
C1038 C 0.51563 0.86571 0.64072 0.0
C1039 C 0.50206 0.87199 0.67168 0.0
C1040 C 0.53266 0.88513 0.62549 0.0
C1041 C 0.52591 0.83386 0.59099 0.0
C1042 C 0.56054 0.87794 0.62135 0.0
C1043 C 0.57648 0.89627 0.60706 0.0
C1044 C 0.56493 0.92233 0.59656 0.0
C1045 C 0.53694 0.92947 0.60111 0.0
C1046 C 0.52107 0.91115 0.61554 0.0
H1047 H 0.5171 0.81739 0.57881 0.0
H1048 H 0.52407 0.85164 0.57346 0.0
H1049 H 0.54763 0.82694 0.59472 0.0
H1050 H 0.57006 0.85817 0.62946 0.0
H1051 H 0.5979 0.89001 0.60467 0.0
H1052 H 0.27418 0.16663 0.82674 0.0
H1053 H 0.29134 0.13102 0.86792 0.0
H1054 H 0.37215 0.13472 0.83086 0.0
H1055 H 0.35526 0.16907 0.78944 0.0
H1056 H 0.36577 0.08397 0.8454 0.0
H1057 H 0.3269 0.14884 0.95363 0.0
H1058 H 0.3022 0.1399 0.92522 0.0
H1059 H 0.326 0.16136 0.91041 0.0
C1060 C 0.29551 0.15936 0.82696 0.0
C1061 C 0.31335 0.17093 0.80501 0.0
C1062 C 0.30536 0.13923 0.85078 0.0
C1063 C 0.33319 0.13054 0.85314 0.0
C1064 C 0.35065 0.14103 0.82981 0.0
H1065 H 0.44532 0.09591 0.00311 0.0
H1066 H 0.40885 0.11138 0.96518 0.0
C1067 C 0.3409 0.16086 0.80611 0.0
C1068 C 0.345 0.11204 0.88086 0.0
H1069 H 0.35616 0.10972 0.9663 0.0
C1070 C 0.36331 0.08929 0.87195 0.0
C1071 C 0.34189 0.119 0.91556 0.0
C1072 C 0.32337 0.14367 0.92695 0.0
C1073 C 0.37992 0.07457 0.89619 0.0
C1074 C 0.37763 0.08227 0.93066 0.0
C1075 C 0.3579 0.10376 0.93993 0.0
C1076 C 0.39832 0.07174 0.95615 0.0
C1077 C 0.40116 0.05227 0.8842 0.0
C1078 C 0.40446 0.04413 0.96465 0.0
C1079 C 0.42586 0.03501 0.98646 0.0
C1080 C 0.44128 0.0534 1.00024 0.0
C1081 C 0.43414 0.08103 0.99284 0.0
C1082 C 0.41307 0.09002 0.97114 0.0
H1083 H 0.40318 0.05191 0.85606 0.0
H1084 H 0.42101 0.05451 0.89484 0.0
H1085 H 0.3957 0.03256 0.89306 0.0
H1086 H 0.39305 0.02962 0.95403 0.0
H1087 H 0.43076 1.01361 0.99172 0.0
H1088 H 0.85786 0.03093 0.00927 0.0
H1089 H 0.82946 1.00457 0.97772 0.0
H1090 H 0.89157 0.98943 0.90057 0.0
H1091 H 0.92013 0.01552 0.93212 0.0
H1092 H 0.8089 1.01127 0.91491 0.0
H1093 H 0.87617 0.91396 0.92215 0.0
H1094 H 0.88116 0.94248 0.94731 0.0
H1095 H 0.89246 0.94056 0.90365 0.0
C1096 C 0.86545 0.0221 0.98553 0.0
C1097 C 0.8914 0.02521 0.9734 0.0
C1098 C 0.84921 1.00693 0.96756 0.0
C1099 C 0.85854 0.99452 0.93708 0.0
C1100 C 0.88419 0.99811 0.92451 0.0
H1101 H 0.7611 0.93622 0.78232 0.0
H1102 H 0.78764 0.96221 0.81695 0.0
C1103 C 0.9005 1.01312 0.94256 0.0
C1104 C 0.84124 0.9783 0.91812 0.0
H1105 H 0.83976 0.91641 0.88382 0.0
C1106 C 0.81561 0.99048 0.90827 0.0
C1107 C 0.84975 0.95101 0.9099 0.0
C1108 C 0.87627 0.93612 0.92159 0.0
C1109 C 0.79854 0.97637 0.88984 0.0
C1110 C 0.80755 0.94948 0.88026 0.0
C1111 C 0.83294 0.93711 0.89078 0.0
C1112 C 0.79103 0.93382 0.85932 0.0
C1113 C 0.77083 0.99032 0.88132 0.0
C1114 C 0.78463 0.90879 0.87108 0.0
C1115 C 0.76959 0.89375 0.85115 0.0
C1116 C 0.76062 0.90339 0.81896 0.0
C1117 C 0.76717 0.92842 0.80721 0.0
C1118 C 0.78234 0.94335 0.82706 0.0
H1119 H 0.76414 1.00714 0.89885 0.0
H1120 H 0.7712 0.99892 0.85517 0.0
H1121 H 0.75582 0.976 0.88252 0.0
H1122 H 0.79117 0.90093 0.89582 0.0
H1123 H 0.76477 0.87468 0.86112 0.0
H1124 H 0.91089 0.2026 0.75765 0.0
H1125 H 0.94404 0.17936 0.71876 0.0
H1126 H 0.92186 0.24025 0.64161 0.0
H1127 H 0.88767 0.26325 0.68026 0.0
H1128 H 0.92234 0.19311 0.61573 0.0
H1129 H 0.01694 0.18877 0.68485 0.0
H1130 H 0.99242 0.17571 0.71166 0.0
H1131 H 0.98688 0.21053 0.69769 0.0
C1132 C 0.91339 0.2115 0.7327 0.0
C1133 C 0.8965 0.23488 0.72219 0.0
C1134 C 0.93263 0.1982 0.71045 0.0
C1135 C 0.93594 0.20815 0.67725 0.0
C1136 C 0.91989 0.23218 0.66711 0.0
H1137 H 0.05745 0.10405 0.55405 0.0
H1138 H 0.03453 0.14519 0.58093 0.0
C1139 C 0.90041 0.24542 0.68934 0.0
C1140 C 0.95386 0.19178 0.65234 0.0
H1141 H 0.01505 0.15261 0.64464 0.0
C1142 C 0.94282 0.18475 0.62181 0.0
C1143 C 0.98086 0.18118 0.65953 0.0
C1144 C 0.99501 0.18973 0.69005 0.0
C1145 C 0.95724 0.16608 0.59969 0.0
C1146 C 0.98318 0.15336 0.60871 0.0
C1147 C 0.995 0.16186 0.63791 0.0
C1148 C 0.99701 0.12941 0.59031 0.0
C1149 C 0.94421 0.15988 0.56712 0.0
C1150 C 0.98377 0.10679 0.58686 0.0
C1151 C 0.99667 0.08354 0.5715 0.0
C1152 C 0.02342 0.08197 0.55947 0.0
C1153 C 0.03681 0.10462 0.5628 0.0
C1154 C 0.02374 0.12811 0.57823 0.0
H1155 H 0.93041 0.17766 0.55776 0.0
H1156 H 0.95938 0.15363 0.5469 0.0
H1157 H 0.93201 0.14331 0.57194 0.0
H1158 H 0.96352 0.10682 0.59684 0.0
H1159 H 0.98567 0.06653 0.56969 0.0
H1160 H 0.79941 0.21655 0.36371 0.0
H1161 H 0.77771 0.18763 0.40351 0.0
H1162 H 0.70503 0.20191 0.34599 0.0
H1163 H 0.72675 0.22979 0.30533 0.0
H1164 H 0.72949 0.19383 0.44464 0.0
H1165 H 0.72636 0.11979 0.34247 0.0
H1166 H 0.74601 0.14725 0.33867 0.0
H1167 H 0.71037 0.15314 0.33189 0.0
C1168 C 0.7786 0.2141 0.35996 0.0
C1169 C 0.76491 0.22525 0.33104 0.0
C1170 C 0.76625 0.19753 0.38279 0.0
C1171 C 0.73995 0.19217 0.37744 0.0
C1172 C 0.72554 0.20521 0.35026 0.0
H1173 H 0.63662 0.08099 0.46101 0.0
H1174 H 0.65642 0.11625 0.4299 0.0
C1175 C 0.73793 0.22138 0.32719 0.0
C1176 C 0.72817 0.17163 0.39869 0.0
H1177 H 0.70363 0.11151 0.394 0.0
C1178 C 0.72396 0.17575 0.43367 0.0
C1179 C 0.72103 0.14795 0.38438 0.0
C1180 C 0.72638 0.14155 0.34737 0.0
C1181 C 0.71213 0.15724 0.45449 0.0
C1182 C 0.70463 0.13374 0.44003 0.0
C1183 C 0.70913 0.12956 0.40511 0.0
C1184 C 0.6921 0.11313 0.4604 0.0
C1185 C 0.70718 0.1634 0.4916 0.0
C1186 C 0.70554 0.09934 0.48787 0.0
C1187 C 0.69415 0.07919 0.50591 0.0
C1188 C 0.66907 0.07214 0.49681 0.0
C1189 C 0.65572 0.08598 0.46919 0.0
C1190 C 0.66712 0.10613 0.45119 0.0
H1191 H 0.707 0.18517 0.49657 0.0
H1192 H 0.68779 0.15736 0.5007 0.0
H1193 H 0.72356 0.15197 0.50665 0.0
H1194 H 0.72509 0.10386 0.49508 0.0
H1195 H 0.70504 0.06926 0.52711 0.0
H1196 H 0.68258 0.76742 0.24089 0.0
H1197 H 0.64159 0.79186 0.21513 0.0
H1198 H 0.68964 0.84438 0.16137 0.0
H1199 H 0.73001 0.82051 0.18653 0.0
H1200 H 0.62192 0.84802 0.22047 0.0
H1201 H 0.64279 0.82146 0.08623 0.0
H1202 H 0.65955 0.80232 0.12094 0.0
H1203 H 0.67118 0.83279 0.10544 0.0
C1204 C 0.68433 0.784 0.2233 0.0
C1205 C 0.70962 0.792 0.21589 0.0
C1206 C 0.66093 0.79796 0.20862 0.0
C1207 C 0.66256 0.81971 0.18581 0.0
C1208 C 0.68783 0.82736 0.17825 0.0
H1209 H 0.58 0.9692 0.1346 0.0
H1210 H 0.60308 0.92795 0.15975 0.0
C1211 C 0.71096 0.81375 0.19302 0.0
C1212 C 0.63816 0.83596 0.17125 0.0
H1213 H 0.61389 0.86372 0.09606 0.0
C1214 C 0.61975 0.85094 0.19325 0.0
C1215 C 0.63496 0.83961 0.13572 0.0
C1216 C 0.65303 0.82296 0.11072 0.0
C1217 C 0.5997 0.87097 0.18073 0.0
C1218 C 0.5982 0.8764 0.14531 0.0
C1219 C 0.61514 0.85986 0.12322 0.0
C1220 C 0.58201 0.90125 0.13122 0.0
C1221 C 0.58091 0.88683 0.2057 0.0
C1222 C 0.56252 0.9002 0.10625 0.0
C1223 C 0.54905 0.92409 0.0916 0.0
C1224 C 0.55532 0.94936 0.10121 0.0
C1225 C 0.57464 0.95016 0.12643 0.0
C1226 C 0.58776 0.9265 0.14117 0.0
H1227 H 0.57814 0.87475 0.22914 0.0
H1228 H 0.58966 0.90496 0.21312 0.0
H1229 H 0.56093 0.8935 0.19445 0.0
H1230 H 0.55794 0.88092 0.09788 0.0
H1231 H 0.53441 0.92276 0.07213 0.0
H1232 H 0.52019 0.68047 0.52112 0.0
H1233 H 0.54601 0.70815 0.55434 0.0
H1234 H 0.5431 0.65366 0.64002 0.0
H1235 H 0.51724 0.62581 0.60694 0.0
H1236 H 0.53394 0.73503 0.61373 0.0
H1237 H 0.6232 0.65748 0.63009 0.0
H1238 H 0.59711 0.65394 0.60035 0.0
H1239 H 0.59225 0.6468 0.64481 0.0
C1240 C 0.52482 0.67441 0.54709 0.0
C1241 C 0.51667 0.65074 0.56121 0.0
C1242 C 0.53972 0.69025 0.56604 0.0
C1243 C 0.54692 0.68279 0.59952 0.0
C1244 C 0.53839 0.6595 0.61397 0.0
H1245 H 0.60628 0.787 0.74713 0.0
H1246 H 0.57924 0.7599 0.71481 0.0
C1247 C 0.52354 0.64358 0.59499 0.0
C1248 C 0.56319 0.69955 0.61923 0.0
H1249 H 0.62241 0.69772 0.66107 0.0
C1250 C 0.55329 0.72687 0.62407 0.0
C1251 C 0.58865 0.68904 0.6323 0.0
C1252 C 0.60111 0.66029 0.6264 0.0
C1253 C 0.56799 0.74384 0.64185 0.0
C1254 C 0.59305 0.73312 0.65581 0.0
C1255 C 0.60308 0.70588 0.65066 0.0
C1256 C 0.60938 0.74989 0.67537 0.0
C1257 C 0.55685 0.77327 0.64471 0.0
C1258 C 0.63558 0.75291 0.66442 0.0
C1259 C 0.65116 0.76841 0.6829 0.0
C1260 C 0.64094 0.78116 0.71292 0.0
C1261 C 0.6147 0.77794 0.72389 0.0
C1262 C 0.59916 0.76241 0.7054 0.0
H1263 H 0.54145 0.77953 0.62525 0.0
H1264 H 0.54724 0.7769 0.67011 0.0
H1265 H 0.57304 0.78618 0.64177 0.0
H1266 H 0.64392 0.74342 0.64134 0.0
H1267 H 0.67109 0.77062 0.67338 0.0
H1268 H 0.62801 0.42718 0.99228 0.0
H1269 H 0.66388 0.40495 0.95606 0.0
H1270 H 0.67664 0.48179 0.91231 0.0
H1271 H 0.64026 0.50442 0.94885 0.0
H1272 H 0.67107 0.44299 0.8637 0.0
H1273 H 0.74547 0.40022 0.9585 0.0
H1274 H 0.71242 0.39255 0.96896 0.0
H1275 H 0.7187 0.42707 0.9683 0.0
C1276 C 0.63869 0.43952 0.97542 0.0
C1277 C 0.63126 0.46764 0.97359 0.0
C1278 C 0.6594 0.42672 0.9548 0.0
C1279 C 0.67333 0.44163 0.93169 0.0
C1280 C 0.66637 0.46984 0.93017 0.0
H1281 H 0.80196 0.34546 0.80969 0.0
H1282 H 0.77922 0.38248 0.84452 0.0
C1283 C 0.64568 0.48278 0.95117 0.0
C1284 C 0.69338 0.42716 0.90749 0.0
H1285 H 0.74795 0.378 0.90433 0.0
C1286 C 0.68819 0.42919 0.87255 0.0
C1287 C 0.71599 0.40933 0.91879 0.0
C1288 C 0.72366 0.40734 0.95567 0.0
C1289 C 0.70387 0.41266 0.84902 0.0
C1290 C 0.72517 0.39332 0.86069 0.0
C1291 C 0.73148 0.39257 0.89531 0.0
C1292 C 0.73927 0.37206 0.83805 0.0
C1293 C 0.69707 0.41565 0.81189 0.0
C1294 C 0.72452 0.35379 0.82299 0.0
C1295 C 0.7374 0.3327 0.80338 0.0
C1296 C 0.76548 0.32918 0.79821 0.0
C1297 C 0.78032 0.34768 0.81293 0.0
C1298 C 0.76734 0.36879 0.83291 0.0
H1299 H 0.68678 0.43623 0.80578 0.0
H1300 H 0.71538 0.41148 0.79552 0.0
H1301 H 0.68322 0.4011 0.80569 0.0
H1302 H 0.70297 0.35544 0.82708 0.0
H1303 H 0.72524 0.3189 0.79257 0.0
H1304 H 0.87825 0.28569 0.16981 0.0
H1305 H 0.90848 0.31744 0.15167 0.0
H1306 H 0.91753 0.33895 0.25578 0.0
H1307 H 0.88666 0.307 0.27439 0.0
H1308 H 0.9051 0.37698 0.16736 0.0
H1309 H 0.99623 0.31073 0.21301 0.0
H1310 H 0.96548 0.29747 0.20438 0.0
H1311 H 0.96742 0.31754 0.24116 0.0
C1312 C 0.88642 0.2973 0.18899 0.0
C1313 C 0.88011 0.29368 0.22363 0.0
C1314 C 0.90369 0.31552 0.17848 0.0
C1315 C 0.91545 0.33043 0.2023 0.0
C1316 C 0.90875 0.32753 0.23695 0.0
H1317 H 0.01773 0.45177 0.13302 0.0
H1318 H 0.98498 0.42939 0.16548 0.0
C1319 C 0.89103 0.3094 0.24755 0.0
C1320 C 0.93542 0.34802 0.19024 0.0
H1321 H 1.00308 0.34894 0.18021 0.0
C1322 C 0.92652 0.37119 0.1707 0.0
C1323 C 0.96336 0.34015 0.19413 0.0
C1324 C 0.97394 0.31508 0.21417 0.0
C1325 C 0.9448 0.38636 0.1544 0.0
C1326 C 0.97278 0.37816 0.15769 0.0
C1327 C 0.98166 0.3553 0.17782 0.0
C1328 C 0.99305 0.3919 0.1385 0.0
C1329 C 0.93412 0.41034 0.13248 0.0
C1330 C 1.00882 0.37823 0.11276 0.0
C1331 C 0.02745 0.39103 0.09384 0.0
C1332 C 0.03107 0.41786 0.10035 0.0
C1333 C 0.01543 0.43135 0.12664 0.0
C1334 C 0.99664 0.41853 0.14542 0.0
H1335 H 0.91219 0.41148 0.12822 0.0
H1336 H 0.93772 0.42911 0.14504 0.0
H1337 H 0.94477 0.40954 0.10746 0.0
H1338 H 1.00639 0.35769 0.1069 0.0
H1339 H 0.03868 0.37986 0.07378 0.0
H1340 H 0.94267 0.59593 0.50631 0.0
H1341 H 0.90598 0.61138 0.46867 0.0
H1342 H 0.89683 0.52908 0.44751 0.0
H1343 H 0.93463 0.51321 0.48518 0.0
H1344 H 0.89765 0.55829 0.38986 0.0
H1345 H 0.82626 0.61632 0.47732 0.0
H1346 H 0.85859 0.62693 0.48148 0.0
H1347 H 0.85411 0.59268 0.49247 0.0
C1348 C 0.9327 0.58094 0.49416 0.0
C1349 C 0.94168 0.55326 0.49885 0.0
C1350 C 0.91139 0.5899 0.47279 0.0
C1351 C 0.89808 0.57151 0.45566 0.0
C1352 C 0.90654 0.54372 0.46074 0.0
H1353 H 0.77545 0.66673 0.32745 0.0
H1354 H 0.79321 0.63002 0.36685 0.0
C1355 C 0.92806 0.53464 0.48237 0.0
C1356 C 0.87733 0.58193 0.43021 0.0
H1357 H 0.8255 0.63295 0.41821 0.0
C1358 C 0.88143 0.57413 0.39623 0.0
C1359 C 0.85558 0.60213 0.43828 0.0
C1360 C 0.84822 0.60973 0.47448 0.0
C1361 C 0.86609 0.58766 0.36997 0.0
C1362 C 0.84659 0.61011 0.37769 0.0
C1363 C 0.84077 0.61618 0.41195 0.0
C1364 C 0.8348 0.62957 0.35092 0.0
C1365 C 0.87153 0.57815 0.33408 0.0
C1366 C 0.85205 0.64145 0.32863 0.0
C1367 C 0.84198 0.66213 0.30617 0.0
C1368 C 0.81434 0.67189 0.30554 0.0
C1369 C 0.7968 0.65951 0.32704 0.0
C1370 C 0.80697 0.63862 0.34969 0.0
H1371 H 0.87755 0.55597 0.3337 0.0
H1372 H 0.85368 0.58346 0.31787 0.0
H1373 H 0.88849 0.58761 0.32295 0.0
H1374 H 0.8736 0.63562 0.32959 0.0
H1375 H 0.85615 0.67118 0.2901 0.0
H1376 H 0.2327 0.42565 0.33573 0.0
H1377 H 0.26066 0.45317 0.36633 0.0
H1378 H 0.33198 0.40254 0.3314 0.0
H1379 H 0.30421 0.37513 0.30042 0.0
H1380 H 0.3004 0.43407 0.41826 0.0
H1381 H 0.34476 0.48125 0.30551 0.0
H1382 H 0.31435 0.46595 0.30342 0.0
H1383 H 0.34643 0.44517 0.30518 0.0
C1384 C 0.25433 0.42052 0.33425 0.0
C1385 C 0.26619 0.3982 0.3155 0.0
C1386 C 0.27027 0.43618 0.35193 0.0
C1387 C 0.29839 0.43006 0.35087 0.0
C1388 C 0.31032 0.4078 0.33225 0.0
H1389 H 0.42853 0.50498 0.43375 0.0
H1390 H 0.40119 0.47669 0.40402 0.0
C1391 C 0.2944 0.39201 0.31479 0.0
C1392 C 0.31523 0.44667 0.36976 0.0
H1393 H 0.36158 0.49009 0.3591 0.0
C1394 C 0.31373 0.44641 0.40538 0.0
C1395 C 0.33272 0.46256 0.35288 0.0
C1396 C 0.33465 0.46403 0.31463 0.0
C1397 C 0.32955 0.46132 0.42463 0.0
C1398 C 0.34682 0.47756 0.40775 0.0
C1399 C 0.34834 0.47772 0.37208 0.0
C1400 C 0.36343 0.49458 0.42656 0.0
C1401 C 0.3281 0.45894 0.46286 0.0
C1402 C 0.35138 0.51434 0.44896 0.0
C1403 C 0.36704 0.53039 0.46645 0.0
C1404 C 0.39516 0.52733 0.46165 0.0
C1405 C 0.40709 0.50774 0.43874 0.0
C1406 C 0.39142 0.49161 0.42142 0.0
H1407 H 0.32057 0.44003 0.47132 0.0
H1408 H 0.34809 0.45943 0.47418 0.0
H1409 H 0.31397 0.47609 0.4729 0.0
H1410 H 0.32978 0.51752 0.45279 0.0
H1411 H 0.35701 0.54505 0.4839 0.0
H1412 H 0.54733 0.58002 0.09073 0.0
H1413 H 0.52166 0.61452 0.12617 0.0
H1414 H 0.48822 0.65584 0.03641 0.0
H1415 H 0.51327 0.62116 1.0009 0.0
H1416 H 0.51818 0.6695 0.13159 0.0
H1417 H 0.42094 0.64299 0.08843 0.0
H1418 H 0.4526 0.62257 0.07903 0.0
H1419 H 0.44204 0.65268 0.05438 0.0
C1420 C 0.53483 0.59666 0.07845 0.0
C1421 C 0.53224 0.59763 0.04288 0.0
C1422 C 0.52006 0.61637 0.09881 0.0
C1423 C 0.5024 0.63749 0.08411 0.0
C1424 C 0.50106 0.63937 0.04851 0.0
H1425 H 0.38193 0.7626 0.17033 0.0
H1426 H 0.4149 0.73674 0.13258 0.0
C1427 C 0.51562 0.6196 0.02817 0.0
C1428 C 0.48471 0.65691 0.10596 0.0
H1429 H 0.41882 0.68094 0.12359 0.0
C1430 C 0.49646 0.67198 0.12982 0.0
C1431 C 0.45628 0.66018 0.10386 0.0
C1432 C 0.44216 0.64358 0.0803 0.0
C1433 C 0.48065 0.69034 0.15125 0.0
C1434 C 0.45227 0.69356 0.1491 0.0
C1435 C 0.44055 0.67867 0.12508 0.0
C1436 C 0.43421 0.71124 0.1725 0.0
C1437 C 0.49449 0.70637 0.17575 0.0
C1438 C 0.43417 0.70579 0.20762 0.0
C1439 C 0.41532 0.72051 0.22926 0.0
C1440 C 0.39598 0.74106 0.21634 0.0
C1441 C 0.39663 0.74711 0.18127 0.0
C1442 C 0.41542 0.73224 0.1596 0.0
H1443 H 0.51571 0.70731 0.16791 0.0
H1444 H 0.48381 0.72723 0.17788 0.0
H1445 H 0.49451 0.69656 0.20126 0.0
H1446 H 0.44806 0.68941 0.2182 0.0
H1447 H 0.41538 0.71515 0.25604 0.0
H1448 H 0.28661 0.68151 0.84864 0.0
H1449 H 0.2563 0.6566 0.88172 0.0
H1450 H 0.29663 0.58191 0.84206 0.0
H1451 H 0.32666 0.60648 0.80823 0.0
H1452 H 0.22128 0.61922 0.85689 0.0
H1453 H 0.29735 0.57063 0.94743 0.0
H1454 H 0.30228 0.60007 0.92213 0.0
H1455 H 0.3066 0.56741 0.9032 0.0
C1456 C 0.28907 0.65983 0.84657 0.0
C1457 C 0.30941 0.64621 0.82549 0.0
C1458 C 0.27168 0.64558 0.86574 0.0
C1459 C 0.27435 0.61735 0.8647 0.0
C1460 C 0.29445 0.60366 0.84373 0.0
H1461 H 0.19686 0.49147 0.96433 0.0
H1462 H 0.22559 0.51815 0.93107 0.0
C1463 C 0.31173 0.61786 0.82437 0.0
C1464 C 0.25592 0.60218 0.88516 0.0
H1465 H 0.25461 0.55593 0.94997 0.0
C1466 C 0.2285 0.60548 0.87738 0.0
C1467 C 0.26537 0.58417 0.91178 0.0
C1468 C 0.29446 0.58041 0.92195 0.0
C1469 C 0.2104 0.59077 0.8949 0.0
C1470 C 0.21983 0.57274 0.92164 0.0
C1471 C 0.24728 0.56965 0.92953 0.0
C1472 C 0.20176 0.55661 0.9415 0.0
C1473 C 0.18155 0.59407 0.88376 0.0
C1474 C 0.17879 0.56919 0.95883 0.0
C1475 C 0.16219 0.5539 0.97778 0.0
C1476 C 0.16839 0.52565 0.98034 0.0
C1477 C 0.19155 0.51315 0.96323 0.0
C1478 C 0.20799 0.52842 0.94407 0.0
H1479 H 0.17946 0.60206 0.85728 0.0
H1480 H 0.17333 0.57463 0.88541 0.0
H1481 H 0.1692 0.60864 0.90054 0.0
H1482 H 0.17386 0.59093 0.95817 0.0
H1483 H 0.14484 0.56428 0.99107 0.0
H1484 H 0.03313 0.42472 0.57701 0.0
H1485 H 0.05637 0.38366 0.60503 0.0
H1486 H 0.11109 0.43097 0.65047 0.0
H1487 H 0.08846 0.47141 0.62306 0.0
H1488 H 0.11429 0.36195 0.60003 0.0
H1489 H 0.08229 0.38869 0.73162 0.0
H1490 H 0.0646 0.4038 0.69497 0.0
H1491 H 0.09461 0.41592 0.70872 0.0
C1492 C 0.05002 0.4263 0.59313 0.0
C1493 C 0.05884 0.45144 0.59775 0.0
C1494 C 0.0633 0.40285 0.60907 0.0
C1495 C 0.08526 0.40431 0.63028 0.0
C1496 C 0.09395 0.42936 0.63475 0.0
H1497 H 0.22061 0.33401 0.72928 0.0
H1498 H 0.18041 0.35902 0.70464 0.0
C1499 C 0.08098 0.45253 0.61879 0.0
C1500 C 0.10011 0.38001 0.64731 0.0
H1501 H 0.12359 0.35798 0.72527 0.0
C1502 C 0.11575 0.36053 0.62746 0.0
C1503 C 0.10202 0.37814 0.68312 0.0
C1504 C 0.08477 0.39761 0.70589 0.0
C1505 C 0.1348 0.34059 0.64238 0.0
C1506 C 0.13809 0.34006 0.67802 0.0
C1507 C 0.12112 0.35839 0.69795 0.0
C1508 C 0.16164 0.32382 0.69442 0.0
C1509 C 0.15267 0.32148 0.61984 0.0
C1510 C 0.16435 0.29554 0.69755 0.0
C1511 C 0.1875 0.28098 0.71207 0.0
C1512 C 0.20834 0.29453 0.72332 0.0
C1513 C 0.2051 0.32284 0.72074 0.0
C1514 C 0.18205 0.33725 0.70666 0.0
H1515 H 0.14856 0.32544 0.59246 0.0
H1516 H 0.1741 0.32318 0.62441 0.0
H1517 H 0.14955 0.30044 0.62614 0.0
H1518 H 0.14872 0.28476 0.68851 0.0
H1519 H 0.18943 0.2592 0.71358 0.0
loop_
_geom_bond_atom_site_label_1
_geom_bond_atom_site_label_2
_geom_bond_distance
_geom_bond_site_symmetry_2
_ccdc_geom_bond_type
Cu0 N1 1.999 1_545 S
Cu0 O6 1.974 1_554 S
Cu0 N11 1.985 1_655 S
Cu0 O20 1.959 . S
N1 Cu0 1.999 1_565 S
N1 C3 1.263 1_554 S
N1 C5 1.389 . S
N2 C3 1.358 . S
N2 C4 1.400 1_556 S
C3 N1 1.263 1_556 S
C3 N2 1.358 . S
C3 H9 0.930 . S
C4 N2 1.400 1_554 S
C4 C5 1.351 . S
C4 H21 0.930 . S
C5 N1 1.389 . S
C5 C4 1.351 . S
C5 H10 0.930 1_565 S
O6 Cu0 1.974 1_556 S
O6 C16 1.282 1_655 S
C7 O8 1.261 . S
C7 O20 1.251 1_465 S
O8 C7 1.261 . S
H9 C3 0.930 . S
H10 C5 0.930 1_545 S
N11 Cu0 1.985 1_455 S
N11 C13 1.335 . S
N11 C14 1.390 . S
N12 C13 1.345 . S
N12 C15 1.336 . S
C13 N11 1.335 . S
C13 N12 1.345 . S
C13 H18 0.930 . S
C14 N11 1.390 . S
C14 C15 1.346 . S
C14 H19 0.930 1_554 S
C15 N12 1.336 . S
C15 C14 1.346 . S
C15 H22 0.929 . S
C16 O6 1.282 1_455 S
C16 O17 1.216 1_545 S
O17 C16 1.216 1_565 S
H18 C13 0.930 . S
H19 C14 0.930 1_556 S
O20 Cu0 1.959 . S
O20 C7 1.251 1_645 S
H21 C4 0.930 . S
H22 C15 0.929 . S
Cu23 N24 1.999 . S
Cu23 O29 1.974 . S
Cu23 N34 1.985 . S
Cu23 O43 1.959 . S
N24 Cu23 1.999 . S
N24 C26 1.263 . S
N24 C28 1.389 . S
N25 C26 1.358 . S
N25 C27 1.400 . S
C26 N24 1.263 . S
C26 N25 1.358 . S
C26 H32 0.930 . S
C27 N25 1.400 . S
C27 C28 1.351 . S
C27 H44 0.930 . S
C28 N24 1.389 . S
C28 C27 1.351 . S
C28 H33 0.930 . S
O29 Cu23 1.974 . S
O29 C39 1.282 . S
C30 O31 1.261 . S
C30 O43 1.251 . S
O31 C30 1.261 . S
H32 C26 0.930 . S
H33 C28 0.930 . S
N34 Cu23 1.985 . S
N34 C36 1.335 . S
N34 C37 1.390 . S
N35 C36 1.345 . S
N35 C38 1.336 . S
C36 N34 1.335 . S
C36 N35 1.345 . S
C36 H41 0.930 . S
C37 N34 1.390 . S
C37 C38 1.346 . S
C37 H42 0.930 . S
C38 N35 1.336 . S
C38 C37 1.346 . S
C38 H45 0.929 . S
C39 O29 1.282 . S
C39 O40 1.216 . S
O40 C39 1.216 . S
H41 C36 0.930 . S
H42 C37 0.930 . S
O43 Cu23 1.959 . S
O43 C30 1.251 . S
H44 C27 0.930 . S
H45 C38 0.929 . S
Cu46 N47 1.999 . S
Cu46 O52 1.974 . S
Cu46 N57 1.985 1_545 S
Cu46 O66 1.959 . S
N47 Cu46 1.999 . S
N47 C49 1.263 . S
N47 C51 1.389 . S
N48 C49 1.358 . S
N48 C50 1.400 . S
C49 N47 1.263 . S
C49 N48 1.358 . S
C49 H55 0.930 . S
C50 N48 1.400 . S
C50 C51 1.351 . S
C50 H67 0.930 . S
C51 N47 1.389 . S
C51 C50 1.351 . S
C51 H56 0.930 . S
O52 Cu46 1.974 . S
O52 C62 1.282 . S
C53 O54 1.261 . S
C53 O66 1.251 . S
O54 C53 1.261 . S
H55 C49 0.930 . S
H56 C51 0.930 . S
N57 Cu46 1.985 1_565 S
N57 C59 1.335 . S
N57 C60 1.390 . S
N58 C59 1.345 . S
N58 C61 1.336 . S
C59 N57 1.335 . S
C59 N58 1.345 . S
C59 H64 0.930 . S
C60 N57 1.390 . S
C60 C61 1.346 . S
C60 H65 0.930 . S
C61 N58 1.336 . S
C61 C60 1.346 . S
C61 H68 0.929 . S
C62 O52 1.282 . S
C62 O63 1.216 . S
O63 C62 1.216 . S
H64 C59 0.930 . S
H65 C60 0.930 . S
O66 Cu46 1.959 . S
O66 C53 1.251 . S
H67 C50 0.930 . S
H68 C61 0.929 . S
Cu69 N70 1.999 . S
Cu69 O75 1.974 . S
Cu69 N80 1.985 . S
Cu69 O89 1.959 . S
N70 Cu69 1.999 . S
N70 C72 1.263 . S
N70 C74 1.389 . S
N71 C72 1.358 . S
N71 C73 1.400 . S
C72 N70 1.263 . S
C72 N71 1.358 . S
C72 H78 0.930 . S
C73 N71 1.400 . S
C73 C74 1.351 . S
C73 H90 0.930 . S
C74 N70 1.389 . S
C74 C73 1.351 . S
C74 H79 0.930 . S
O75 Cu69 1.974 . S
O75 C85 1.282 . S
C76 O77 1.261 . S
C76 O89 1.251 . S
O77 C76 1.261 . S
H78 C72 0.930 . S
H79 C74 0.930 . S
N80 Cu69 1.985 . S
N80 C82 1.335 . S
N80 C83 1.390 . S
N81 C82 1.345 . S
N81 C84 1.336 . S
C82 N80 1.335 . S
C82 N81 1.345 . S
C82 H87 0.930 . S
C83 N80 1.390 . S
C83 C84 1.346 . S
C83 H88 0.930 . S
C84 N81 1.336 . S
C84 C83 1.346 . S
C84 H91 0.929 . S
C85 O75 1.282 . S
C85 O86 1.216 . S
O86 C85 1.216 . S
H87 C82 0.930 . S
H88 C83 0.930 . S
O89 Cu69 1.959 . S
O89 C76 1.251 . S
H90 C73 0.930 . S
H91 C84 0.929 . S
Cu92 N93 1.999 . S
Cu92 O98 1.974 1_545 S
Cu92 N103 1.985 1_545 S
Cu92 O112 1.959 1_455 S
N93 Cu92 1.999 . S
N93 C95 1.263 . S
N93 C97 1.389 1_455 S
N94 C95 1.358 1_655 S
N94 C96 1.400 . S
C95 N93 1.263 . S
C95 N94 1.358 1_455 S
C95 H101 0.930 1_545 S
C96 N94 1.400 . S
C96 C97 1.351 . S
C96 H113 0.930 . S
C97 N93 1.389 1_655 S
C97 C96 1.351 . S
C97 H102 0.930 . S
O98 Cu92 1.974 1_565 S
O98 C108 1.282 . S
C99 O100 1.261 . S
C99 O112 1.251 . S
O100 C99 1.261 . S
H101 C95 0.930 1_565 S
H102 C97 0.930 . S
N103 Cu92 1.985 1_565 S
N103 C105 1.335 1_565 S
N103 C106 1.390 . S
N104 C105 1.345 1_565 S
N104 C107 1.336 . S
C105 N103 1.335 1_545 S
C105 N104 1.345 1_545 S
C105 H110 0.930 . S
C106 N103 1.390 . S
C106 C107 1.346 . S
C106 H111 0.930 . S
C107 N104 1.336 . S
C107 C106 1.346 . S
C107 H114 0.929 . S
C108 O98 1.282 . S
C108 O109 1.216 . S
O109 C108 1.216 . S
H110 C105 0.930 . S
H111 C106 0.930 . S
O112 Cu92 1.959 1_655 S
O112 C99 1.251 . S
H113 C96 0.930 . S
H114 C107 0.929 . S
Cu115 N116 1.999 . S
Cu115 O121 1.974 . S
Cu115 N126 1.985 . S
Cu115 O135 1.959 . S
N116 Cu115 1.999 . S
N116 C118 1.263 . S
N116 C120 1.389 . S
N117 C118 1.358 . S
N117 C119 1.400 . S
C118 N116 1.263 . S
C118 N117 1.358 . S
C118 H124 0.930 . S
C119 N117 1.400 . S
C119 C120 1.351 . S
C119 H136 0.930 . S
C120 N116 1.389 . S
C120 C119 1.351 . S
C120 H125 0.930 . S
O121 Cu115 1.974 . S
O121 C131 1.282 . S
C122 O123 1.261 . S
C122 O135 1.251 . S
O123 C122 1.261 . S
H124 C118 0.930 . S
H125 C120 0.930 . S
N126 Cu115 1.985 . S
N126 C128 1.335 . S
N126 C129 1.390 . S
N127 C128 1.345 . S
N127 C130 1.336 . S
C128 N126 1.335 . S
C128 N127 1.345 . S
C128 H133 0.930 . S
C129 N126 1.390 . S
C129 C130 1.346 . S
C129 H134 0.930 . S
C130 N127 1.336 . S
C130 C129 1.346 . S
C130 H137 0.929 . S
C131 O121 1.282 . S
C131 O132 1.216 . S
O132 C131 1.216 . S
H133 C128 0.930 . S
H134 C129 0.930 . S
O135 Cu115 1.959 . S
O135 C122 1.251 . S
H136 C119 0.930 . S
H137 C130 0.929 . S
Cu138 N139 1.999 1_544 S
Cu138 O144 1.974 1_554 S
Cu138 N149 1.985 . S
Cu138 O158 1.959 1_545 S
N139 Cu138 1.999 1_566 S
N139 C141 1.263 1_565 S
N139 C143 1.389 . S
N140 C141 1.358 1_565 S
N140 C142 1.400 . S
C141 N139 1.263 1_545 S
C141 N140 1.358 1_545 S
C141 H147 0.930 . S
C142 N140 1.400 . S
C142 C143 1.351 . S
C142 H159 0.930 . S
C143 N139 1.389 . S
C143 C142 1.351 . S
C143 H148 0.930 . S
O144 Cu138 1.974 1_556 S
O144 C154 1.282 . S
C145 O146 1.261 1_565 S
C145 O158 1.251 . S
O146 C145 1.261 1_545 S
H147 C141 0.930 . S
H148 C143 0.930 . S
N149 Cu138 1.985 . S
N149 C151 1.335 . S
N149 C152 1.390 . S
N150 C151 1.345 . S
N150 C153 1.336 . S
C151 N149 1.335 . S
C151 N150 1.345 . S
C151 H156 0.930 1_545 S
C152 N149 1.390 . S
C152 C153 1.346 . S
C152 H157 0.930 . S
C153 N150 1.336 . S
C153 C152 1.346 . S
C153 H160 0.929 . S
C154 O144 1.282 . S
C154 O155 1.216 . S
O155 C154 1.216 . S
H156 C151 0.930 1_565 S
H157 C152 0.930 . S
O158 Cu138 1.959 1_565 S
O158 C145 1.251 . S
H159 C142 0.930 . S
H160 C153 0.929 . S
Cu161 N162 1.999 . S
Cu161 O167 1.974 . S
Cu161 N172 1.985 . S
Cu161 O181 1.959 . S
N162 Cu161 1.999 . S
N162 C164 1.263 . S
N162 C166 1.389 . S
N163 C164 1.358 . S
N163 C165 1.400 . S
C164 N162 1.263 . S
C164 N163 1.358 . S
C164 H170 0.930 . S
C165 N163 1.400 . S
C165 C166 1.351 . S
C165 H182 0.930 . S
C166 N162 1.389 . S
C166 C165 1.351 . S
C166 H171 0.930 . S
O167 Cu161 1.974 . S
O167 C177 1.282 . S
C168 O169 1.261 . S
C168 O181 1.251 . S
O169 C168 1.261 . S
H170 C164 0.930 . S
H171 C166 0.930 . S
N172 Cu161 1.985 . S
N172 C174 1.335 . S
N172 C175 1.390 . S
N173 C174 1.345 . S
N173 C176 1.336 . S
C174 N172 1.335 . S
C174 N173 1.345 . S
C174 H179 0.930 . S
C175 N172 1.390 . S
C175 C176 1.346 . S
C175 H180 0.930 . S
C176 N173 1.336 . S
C176 C175 1.346 . S
C176 H183 0.929 . S
C177 O167 1.282 . S
C177 O178 1.216 . S
O178 C177 1.216 . S
H179 C174 0.930 . S
H180 C175 0.930 . S
O181 Cu161 1.959 . S
O181 C168 1.251 . S
H182 C165 0.930 . S
H183 C176 0.929 . S
Cu184 N185 1.999 . S
Cu184 O190 1.974 . S
Cu184 N195 1.985 . S
Cu184 O204 1.959 . S
N185 Cu184 1.999 . S
N185 C187 1.263 . S
N185 C189 1.389 . S
N186 C187 1.358 . S
N186 C188 1.400 . S
C187 N185 1.263 . S
C187 N186 1.358 . S
C187 H193 0.930 . S
C188 N186 1.400 . S
C188 C189 1.351 . S
C188 H205 0.930 . S
C189 N185 1.389 . S
C189 C188 1.351 . S
C189 H194 0.930 . S
O190 Cu184 1.974 . S
O190 C200 1.282 . S
C191 O192 1.261 . S
C191 O204 1.251 . S
O192 C191 1.261 . S
H193 C187 0.930 . S
H194 C189 0.930 . S
N195 Cu184 1.985 . S
N195 C197 1.335 . S
N195 C198 1.390 . S
N196 C197 1.345 . S
N196 C199 1.336 . S
C197 N195 1.335 . S
C197 N196 1.345 . S
C197 H202 0.930 . S
C198 N195 1.390 . S
C198 C199 1.346 . S
C198 H203 0.930 . S
C199 N196 1.336 . S
C199 C198 1.346 . S
C199 H206 0.929 . S
C200 O190 1.282 . S
C200 O201 1.216 . S
O201 C200 1.216 . S
H202 C197 0.930 . S
H203 C198 0.930 . S
O204 Cu184 1.959 . S
O204 C191 1.251 . S
H205 C188 0.930 . S
H206 C199 0.929 . S
Cu207 N208 1.999 . S
Cu207 O213 1.974 . S
Cu207 N218 1.985 . S
Cu207 O227 1.959 . S
N208 Cu207 1.999 . S
N208 C210 1.263 . S
N208 C212 1.389 . S
N209 C210 1.358 . S
N209 C211 1.400 . S
C210 N208 1.263 . S
C210 N209 1.358 . S
C210 H216 0.930 . S
C211 N209 1.400 . S
C211 C212 1.351 . S
C211 H228 0.930 . S
C212 N208 1.389 . S
C212 C211 1.351 . S
C212 H217 0.930 . S
O213 Cu207 1.974 . S
O213 C223 1.282 . S
C214 O215 1.261 . S
C214 O227 1.251 . S
O215 C214 1.261 . S
H216 C210 0.930 . S
H217 C212 0.930 . S
N218 Cu207 1.985 . S
N218 C220 1.335 . S
N218 C221 1.390 . S
N219 C220 1.345 . S
N219 C222 1.336 . S
C220 N218 1.335 . S
C220 N219 1.345 . S
C220 H225 0.930 . S
C221 N218 1.390 . S
C221 C222 1.346 . S
C221 H226 0.930 . S
C222 N219 1.336 . S
C222 C221 1.346 . S
C222 H229 0.929 . S
C223 O213 1.282 . S
C223 O224 1.216 . S
O224 C223 1.216 . S
H225 C220 0.930 . S
H226 C221 0.930 . S
O227 Cu207 1.959 . S
O227 C214 1.251 . S
H228 C211 0.930 . S
H229 C222 0.929 . S
Cu230 N231 1.999 . S
Cu230 O236 1.974 . S
Cu230 N241 1.985 . S
Cu230 O250 1.959 . S
N231 Cu230 1.999 . S
N231 C233 1.263 . S
N231 C235 1.389 . S
N232 C233 1.358 . S
N232 C234 1.400 . S
C233 N231 1.263 . S
C233 N232 1.358 . S
C233 H239 0.930 . S
C234 N232 1.400 . S
C234 C235 1.351 . S
C234 H251 0.930 . S
C235 N231 1.389 . S
C235 C234 1.351 . S
C235 H240 0.930 . S
O236 Cu230 1.974 . S
O236 C246 1.282 . S
C237 O238 1.261 . S
C237 O250 1.251 . S
O238 C237 1.261 . S
H239 C233 0.930 . S
H240 C235 0.930 . S
N241 Cu230 1.985 . S
N241 C243 1.335 . S
N241 C244 1.390 . S
N242 C243 1.345 . S
N242 C245 1.336 . S
C243 N241 1.335 . S
C243 N242 1.345 . S
C243 H248 0.930 . S
C244 N241 1.390 . S
C244 C245 1.346 . S
C244 H249 0.930 . S
C245 N242 1.336 . S
C245 C244 1.346 . S
C245 H252 0.929 . S
C246 O236 1.282 . S
C246 O247 1.216 . S
O247 C246 1.216 . S
H248 C243 0.930 . S
H249 C244 0.930 . S
O250 Cu230 1.959 . S
O250 C237 1.251 . S
H251 C234 0.930 . S
H252 C245 0.929 . S
Cu253 N254 1.999 . S
Cu253 O259 1.974 . S
Cu253 N264 1.985 . S
Cu253 O273 1.959 . S
N254 Cu253 1.999 . S
N254 C256 1.263 . S
N254 C258 1.389 . S
N255 C256 1.358 . S
N255 C257 1.400 . S
C256 N254 1.263 . S
C256 N255 1.358 . S
C256 H262 0.930 . S
C257 N255 1.400 . S
C257 C258 1.351 . S
C257 H274 0.930 . S
C258 N254 1.389 . S
C258 C257 1.351 . S
C258 H263 0.930 . S
O259 Cu253 1.974 . S
O259 C269 1.282 . S
C260 O261 1.261 . S
C260 O273 1.251 . S
O261 C260 1.261 . S
H262 C256 0.930 . S
H263 C258 0.930 . S
N264 Cu253 1.985 . S
N264 C266 1.335 . S
N264 C267 1.390 . S
N265 C266 1.345 . S
N265 C268 1.336 . S
C266 N264 1.335 . S
C266 N265 1.345 . S
C266 H271 0.930 . S
C267 N264 1.390 . S
C267 C268 1.346 . S
C267 H272 0.930 . S
C268 N265 1.336 . S
C268 C267 1.346 . S
C268 H275 0.929 . S
C269 O259 1.282 . S
C269 O270 1.216 . S
O270 C269 1.216 . S
H271 C266 0.930 . S
H272 C267 0.930 . S
O273 Cu253 1.959 . S
O273 C260 1.251 . S
H274 C257 0.930 . S
H275 C268 0.929 . S
Cu276 N277 1.999 . S
Cu276 O282 1.974 . S
Cu276 N287 1.985 . S
Cu276 O296 1.959 . S
N277 Cu276 1.999 . S
N277 C279 1.263 . S
N277 C281 1.389 . S
N278 C279 1.358 . S
N278 C280 1.400 . S
C279 N277 1.263 . S
C279 N278 1.358 . S
C279 H285 0.930 . S
C280 N278 1.400 . S
C280 C281 1.351 . S
C280 H297 0.930 . S
C281 N277 1.389 . S
C281 C280 1.351 . S
C281 H286 0.930 . S
O282 Cu276 1.974 . S
O282 C292 1.282 . S
C283 O284 1.261 . S
C283 O296 1.251 . S
O284 C283 1.261 . S
H285 C279 0.930 . S
H286 C281 0.930 . S
N287 Cu276 1.985 . S
N287 C289 1.335 . S
N287 C290 1.390 . S
N288 C289 1.345 . S
N288 C291 1.336 . S
C289 N287 1.335 . S
C289 N288 1.345 . S
C289 H294 0.930 . S
C290 N287 1.390 . S
C290 C291 1.346 . S
C290 H295 0.930 . S
C291 N288 1.336 . S
C291 C290 1.346 . S
C291 H298 0.929 . S
C292 O282 1.282 . S
C292 O293 1.216 . S
O293 C292 1.216 . S
H294 C289 0.930 . S
H295 C290 0.930 . S
O296 Cu276 1.959 . S
O296 C283 1.251 . S
H297 C280 0.930 . S
H298 C291 0.929 . S
Cu299 N300 1.999 . S
Cu299 O305 1.974 1_554 S
Cu299 N310 1.985 . S
Cu299 O319 1.959 . S
N300 Cu299 1.999 . S
N300 C302 1.263 1_554 S
N300 C304 1.389 . S
N301 C302 1.358 . S
N301 C303 1.400 1_556 S
C302 N300 1.263 1_556 S
C302 N301 1.358 . S
C302 H308 0.930 . S
C303 N301 1.400 1_554 S
C303 C304 1.351 . S
C303 H320 0.930 . S
C304 N300 1.389 . S
C304 C303 1.351 . S
C304 H309 0.930 . S
O305 Cu299 1.974 1_556 S
O305 C315 1.282 . S
C306 O307 1.261 . S
C306 O319 1.251 . S
O307 C306 1.261 . S
H308 C302 0.930 . S
H309 C304 0.930 . S
N310 Cu299 1.985 . S
N310 C312 1.335 . S
N310 C313 1.393 1_455 S
N311 C312 1.345 1_655 S
N311 C314 1.336 . S
C312 N310 1.335 . S
C312 N311 1.345 1_455 S
C312 H317 0.930 . S
C313 N310 1.393 1_655 S
C313 C314 1.343 . S
C313 H318 0.930 1_554 S
C314 N311 1.336 . S
C314 C313 1.343 . S
C314 H321 0.929 . S
C315 O305 1.282 . S
C315 O316 1.216 . S
O316 C315 1.216 . S
H317 C312 0.930 . S
H318 C313 0.930 1_556 S
O319 Cu299 1.959 . S
O319 C306 1.251 . S
H320 C303 0.930 . S
H321 C314 0.929 . S
Cu322 N323 1.999 1_554 S
Cu322 O328 1.974 . S
Cu322 N333 1.985 . S
Cu322 O342 1.959 . S
N323 Cu322 1.999 1_556 S
N323 C325 1.263 . S
N323 C327 1.389 . S
N324 C325 1.358 . S
N324 C326 1.400 . S
C325 N323 1.263 . S
C325 N324 1.358 . S
C325 H331 0.930 . S
C326 N324 1.400 . S
C326 C327 1.351 . S
C326 H343 0.930 . S
C327 N323 1.389 . S
C327 C326 1.351 . S
C327 H332 0.930 . S
O328 Cu322 1.974 . S
O328 C338 1.282 1_554 S
C329 O330 1.261 . S
C329 O342 1.251 . S
O330 C329 1.261 . S
H331 C325 0.930 . S
H332 C327 0.930 . S
N333 Cu322 1.985 . S
N333 C335 1.335 . S
N333 C336 1.390 . S
N334 C335 1.345 . S
N334 C337 1.336 . S
C335 N333 1.335 . S
C335 N334 1.345 . S
C335 H340 0.930 . S
C336 N333 1.390 . S
C336 C337 1.346 . S
C336 H341 0.930 . S
C337 N334 1.336 . S
C337 C336 1.346 . S
C337 H344 0.929 . S
C338 O328 1.282 1_556 S
C338 O339 1.212 1_556 S
O339 C338 1.212 1_554 S
H340 C335 0.930 . S
H341 C336 0.930 . S
O342 Cu322 1.959 . S
O342 C329 1.251 . S
H343 C326 0.930 . S
H344 C337 0.929 . S
Cu345 N346 1.999 . S
Cu345 O351 1.974 . S
Cu345 N356 1.985 . S
Cu345 O365 1.959 . S
N346 Cu345 1.999 . S
N346 C348 1.263 . S
N346 C350 1.389 . S
N347 C348 1.358 . S
N347 C349 1.400 . S
C348 N346 1.263 . S
C348 N347 1.358 . S
C348 H354 0.930 . S
C349 N347 1.400 . S
C349 C350 1.351 . S
C349 H366 0.930 . S
C350 N346 1.389 . S
C350 C349 1.351 . S
C350 H355 0.930 . S
O351 Cu345 1.974 . S
O351 C361 1.282 . S
C352 O353 1.261 . S
C352 O365 1.251 . S
O353 C352 1.261 . S
H354 C348 0.930 . S
H355 C350 0.930 . S
N356 Cu345 1.985 . S
N356 C358 1.335 . S
N356 C359 1.390 . S
N357 C358 1.345 . S
N357 C360 1.336 . S
C358 N356 1.335 . S
C358 N357 1.345 . S
C358 H363 0.930 . S
C359 N356 1.390 . S
C359 C360 1.346 . S
C359 H364 0.930 . S
C360 N357 1.336 . S
C360 C359 1.346 . S
C360 H367 0.929 . S
C361 O351 1.282 . S
C361 O362 1.216 . S
O362 C361 1.216 . S
H363 C358 0.930 . S
H364 C359 0.930 . S
O365 Cu345 1.959 . S
O365 C352 1.251 . S
H366 C349 0.930 . S
H367 C360 0.929 . S
H368 C376 0.929 . S
H369 C378 0.930 . S
H370 C380 0.930 . S
H371 C383 0.929 . S
H372 C386 0.930 . S
H373 C388 0.960 . S
H374 C388 0.960 . S
H375 C388 0.960 . S
C376 H368 0.929 . S
C376 C377 1.377 1_545 S
C376 C378 1.384 . S
C377 C376 1.377 1_565 S
C377 C383 1.390 1_455 S
C378 H369 0.930 . S
C378 C376 1.384 . S
C378 C379 1.372 . S
C379 C378 1.372 . S
C379 C380 1.400 1_445 S
C379 C384 1.490 . S
C380 H370 0.930 . S
C380 C379 1.400 1_665 S
C380 C383 1.386 . S
H381 C397 0.930 1_565 S
H382 C398 0.931 1_565 S
C383 H371 0.929 . S
C383 C377 1.390 1_655 S
C383 C380 1.386 . S
C384 C379 1.490 . S
C384 C386 1.395 1_455 S
C384 C387 1.403 1_545 S
H385 C391 0.930 . S
C386 H372 0.930 . S
C386 C384 1.395 1_655 S
C386 C389 1.403 . S
C387 C384 1.403 1_565 S
C387 C388 1.524 . S
C387 C391 1.400 . S
C388 H373 0.960 . S
C388 H374 0.960 . S
C388 H375 0.960 . S
C388 C387 1.524 . S
C389 C386 1.403 . S
C389 C390 1.392 . S
C389 C393 1.495 . S
C390 C389 1.392 . S
C390 C391 1.385 1_645 S
C390 C392 1.478 . S
C391 H385 0.930 . S
C391 C387 1.400 . S
C391 C390 1.385 1_465 S
C392 C390 1.478 . S
C392 C394 1.381 1_655 S
C392 C398 1.383 . S
C393 C389 1.495 . S
C393 H399 0.959 . S
C393 H400 0.961 . S
C393 H401 0.960 . S
C394 C392 1.381 1_455 S
C394 C395 1.394 . S
C394 H402 0.930 . S
C395 C394 1.394 . S
C395 C396 1.383 1_455 S
C395 H403 0.929 . S
C396 C395 1.383 1_655 S
C396 C397 1.377 . S
C397 H381 0.930 1_545 S
C397 C396 1.377 . S
C397 C398 1.379 . S
C398 H382 0.931 1_545 S
C398 C392 1.383 . S
C398 C397 1.379 . S
H399 C393 0.959 . S
H400 C393 0.961 . S
H401 C393 0.960 . S
H402 C394 0.930 . S
H403 C395 0.929 . S
H404 C412 0.929 . S
H405 C414 0.930 . S
H406 C416 0.930 . S
H407 C419 0.929 . S
H408 C422 0.930 . S
H409 C424 0.960 . S
H410 C424 0.960 . S
H411 C424 0.960 . S
C412 H404 0.929 . S
C412 C413 1.377 . S
C412 C414 1.384 . S
C413 C412 1.377 . S
C413 C419 1.390 . S
C414 H405 0.930 . S
C414 C412 1.384 . S
C414 C415 1.372 . S
C415 C414 1.372 . S
C415 C416 1.400 . S
C415 C420 1.490 . S
C416 H406 0.930 . S
C416 C415 1.400 . S
C416 C419 1.386 . S
H417 C433 0.930 . S
H418 C434 0.931 . S
C419 H407 0.929 . S
C419 C413 1.390 . S
C419 C416 1.386 . S
C420 C415 1.490 . S
C420 C422 1.395 . S
C420 C423 1.403 . S
H421 C427 0.930 . S
C422 H408 0.930 . S
C422 C420 1.395 . S
C422 C425 1.403 . S
C423 C420 1.403 . S
C423 C424 1.524 . S
C423 C427 1.400 . S
C424 H409 0.960 . S
C424 H410 0.960 . S
C424 H411 0.960 . S
C424 C423 1.524 . S
C425 C422 1.403 . S
C425 C426 1.392 . S
C425 C429 1.495 . S
C426 C425 1.392 . S
C426 C427 1.385 . S
C426 C428 1.478 . S
C427 H421 0.930 . S
C427 C423 1.400 . S
C427 C426 1.385 . S
C428 C426 1.478 . S
C428 C430 1.381 . S
C428 C434 1.383 . S
C429 C425 1.495 . S
C429 H435 0.959 . S
C429 H436 0.961 . S
C429 H437 0.960 . S
C430 C428 1.381 . S
C430 C431 1.394 . S
C430 H438 0.930 . S
C431 C430 1.394 . S
C431 C432 1.383 . S
C431 H439 0.929 . S
C432 C431 1.383 . S
C432 C433 1.377 . S
C433 H417 0.930 . S
C433 C432 1.377 . S
C433 C434 1.379 . S
C434 H418 0.931 . S
C434 C428 1.383 . S
C434 C433 1.379 . S
H435 C429 0.959 . S
H436 C429 0.961 . S
H437 C429 0.960 . S
H438 C430 0.930 . S
H439 C431 0.929 . S
H440 C448 0.929 . S
H441 C450 0.930 . S
H442 C452 0.930 1_565 S
H443 C455 0.930 . S
H444 C458 0.930 . S
H445 C460 0.960 . S
H446 C460 0.960 . S
H447 C460 0.960 . S
C448 H440 0.929 . S
C448 C449 1.377 . S
C448 C450 1.384 . S
C449 C448 1.377 . S
C449 C455 1.392 1_545 S
C450 H441 0.930 . S
C450 C448 1.384 . S
C450 C451 1.372 . S
C451 C450 1.372 . S
C451 C452 1.400 . S
C451 C456 1.490 . S
C452 H442 0.930 1_545 S
C452 C451 1.400 . S
C452 C455 1.384 1_545 S
H453 C469 0.930 . S
H454 C470 0.931 . S
C455 H443 0.930 . S
C455 C449 1.392 1_565 S
C455 C452 1.384 1_565 S
C456 C451 1.490 . S
C456 C458 1.395 . S
C456 C459 1.403 1_545 S
H457 C463 0.930 . S
C458 H444 0.930 . S
C458 C456 1.395 . S
C458 C461 1.403 . S
C459 C456 1.403 1_565 S
C459 C460 1.524 . S
C459 C463 1.400 . S
C460 H445 0.960 . S
C460 H446 0.960 . S
C460 H447 0.960 . S
C460 C459 1.524 . S
C461 C458 1.403 . S
C461 C462 1.392 . S
C461 C465 1.495 . S
C462 C461 1.392 . S
C462 C463 1.385 1_545 S
C462 C464 1.478 . S
C463 H457 0.930 . S
C463 C459 1.400 . S
C463 C462 1.385 1_565 S
C464 C462 1.478 . S
C464 C466 1.381 . S
C464 C470 1.383 . S
C465 C461 1.495 . S
C465 H471 0.959 . S
C465 H472 0.961 . S
C465 H473 0.960 . S
C466 C464 1.381 . S
C466 C467 1.394 . S
C466 H474 0.930 . S
C467 C466 1.394 . S
C467 C468 1.383 . S
C467 H475 0.929 . S
C468 C467 1.383 . S
C468 C469 1.377 . S
C469 H453 0.930 . S
C469 C468 1.377 . S
C469 C470 1.379 . S
C470 H454 0.931 . S
C470 C464 1.383 . S
C470 C469 1.379 . S
H471 C465 0.959 . S
H472 C465 0.961 . S
H473 C465 0.960 . S
H474 C466 0.930 . S
H475 C467 0.929 . S
H476 C484 0.929 . S
H477 C486 0.930 . S
H478 C488 0.930 . S
H479 C491 0.929 . S
H480 C494 0.930 . S
H481 C496 0.960 . S
H482 C496 0.960 1_556 S
H483 C496 0.960 1_556 S
C484 H476 0.929 . S
C484 C485 1.377 . S
C484 C486 1.384 . S
C485 C484 1.377 . S
C485 C491 1.390 . S
C486 H477 0.930 . S
C486 C484 1.384 . S
C486 C487 1.372 . S
C487 C486 1.372 . S
C487 C488 1.400 . S
C487 C492 1.490 1_556 S
C488 H478 0.930 . S
C488 C487 1.400 . S
C488 C491 1.386 . S
H489 C505 0.930 . S
H490 C506 0.931 . S
C491 H479 0.929 . S
C491 C485 1.390 . S
C491 C488 1.386 . S
C492 C487 1.490 1_554 S
C492 C494 1.395 . S
C492 C495 1.403 . S
H493 C499 0.930 . S
C494 H480 0.930 . S
C494 C492 1.395 . S
C494 C497 1.403 . S
C495 C492 1.403 . S
C495 C496 1.524 . S
C495 C499 1.400 . S
C496 H481 0.960 . S
C496 H482 0.960 1_554 S
C496 H483 0.960 1_554 S
C496 C495 1.524 . S
C497 C494 1.403 . S
C497 C498 1.392 . S
C497 C501 1.495 . S
C498 C497 1.392 . S
C498 C499 1.385 . S
C498 C500 1.478 . S
C499 H493 0.930 . S
C499 C495 1.400 . S
C499 C498 1.385 . S
C500 C498 1.478 . S
C500 C502 1.381 . S
C500 C506 1.383 . S
C501 C497 1.495 . S
C501 H507 0.959 . S
C501 H508 0.961 . S
C501 H509 0.960 . S
C502 C500 1.381 . S
C502 C503 1.394 . S
C502 H510 0.930 . S
C503 C502 1.394 . S
C503 C504 1.383 . S
C503 H511 0.929 . S
C504 C503 1.383 . S
C504 C505 1.377 . S
C505 H489 0.930 . S
C505 C504 1.377 . S
C505 C506 1.379 . S
C506 H490 0.931 . S
C506 C500 1.383 . S
C506 C505 1.379 . S
H507 C501 0.959 . S
H508 C501 0.961 . S
H509 C501 0.960 . S
H510 C502 0.930 . S
H511 C503 0.929 . S
H512 C520 0.929 . S
H513 C522 0.930 . S
H514 C524 0.930 . S
H515 C527 0.929 . S
H516 C530 0.930 . S
H517 C532 0.960 . S
H518 C532 0.960 1_455 S
H519 C532 0.960 . S
C520 H512 0.929 . S
C520 C521 1.377 . S
C520 C522 1.384 . S
C521 C520 1.377 . S
C521 C527 1.390 1_465 S
C522 H513 0.930 . S
C522 C520 1.384 . S
C522 C523 1.372 . S
C523 C522 1.372 . S
C523 C524 1.400 1_465 S
C523 C528 1.492 . S
C524 H514 0.930 . S
C524 C523 1.400 1_645 S
C524 C527 1.386 . S
H525 C541 0.930 . S
H526 C542 0.931 . S
C527 H515 0.929 . S
C527 C521 1.390 1_645 S
C527 C524 1.386 . S
C528 C523 1.492 . S
C528 C530 1.377 1_565 S
C528 C531 1.418 . S
H529 C535 0.930 1_655 S
C530 H516 0.930 . S
C530 C528 1.377 1_545 S
C530 C533 1.403 . S
C531 C528 1.418 . S
C531 C532 1.524 1_455 S
C531 C535 1.400 . S
C532 H517 0.960 . S
C532 H518 0.960 1_655 S
C532 H519 0.960 . S
C532 C531 1.524 1_655 S
C533 C530 1.403 . S
C533 C534 1.392 . S
C533 C537 1.495 . S
C534 C533 1.392 . S
C534 C535 1.385 1_545 S
C534 C536 1.478 . S
C535 H529 0.930 1_455 S
C535 C531 1.400 . S
C535 C534 1.385 1_565 S
C536 C534 1.478 . S
C536 C538 1.381 1_545 S
C536 C542 1.383 1_455 S
C537 C533 1.495 . S
C537 H543 0.959 . S
C537 H544 0.961 . S
C537 H545 0.960 . S
C538 C536 1.381 1_565 S
C538 C539 1.394 . S
C538 H546 0.930 . S
C539 C538 1.394 . S
C539 C540 1.383 1_565 S
C539 H547 0.929 . S
C540 C539 1.383 1_545 S
C540 C541 1.377 1_455 S
C541 H525 0.930 . S
C541 C540 1.377 1_655 S
C541 C542 1.379 . S
C542 H526 0.931 . S
C542 C536 1.383 1_655 S
C542 C541 1.379 . S
H543 C537 0.959 . S
H544 C537 0.961 . S
H545 C537 0.960 . S
H546 C538 0.930 . S
H547 C539 0.929 . S
H548 C556 0.929 . S
H549 C558 0.930 . S
H550 C560 0.930 . S
H551 C563 0.929 . S
H552 C566 0.930 . S
H553 C568 0.960 . S
H554 C568 0.960 . S
H555 C568 0.960 . S
C556 H548 0.929 . S
C556 C557 1.377 . S
C556 C558 1.384 . S
C557 C556 1.377 . S
C557 C563 1.390 . S
C558 H549 0.930 . S
C558 C556 1.384 . S
C558 C559 1.372 . S
C559 C558 1.372 . S
C559 C560 1.400 . S
C559 C564 1.490 . S
C560 H550 0.930 . S
C560 C559 1.400 . S
C560 C563 1.386 . S
H561 C577 0.930 . S
H562 C578 0.931 . S
C563 H551 0.929 . S
C563 C557 1.390 . S
C563 C560 1.386 . S
C564 C559 1.490 . S
C564 C566 1.395 . S
C564 C567 1.403 . S
H565 C571 0.930 . S
C566 H552 0.930 . S
C566 C564 1.395 . S
C566 C569 1.403 . S
C567 C564 1.403 . S
C567 C568 1.524 . S
C567 C571 1.400 . S
C568 H553 0.960 . S
C568 H554 0.960 . S
C568 H555 0.960 . S
C568 C567 1.524 . S
C569 C566 1.403 . S
C569 C570 1.392 . S
C569 C573 1.495 . S
C570 C569 1.392 . S
C570 C571 1.385 . S
C570 C572 1.478 . S
C571 H565 0.930 . S
C571 C567 1.400 . S
C571 C570 1.385 . S
C572 C570 1.478 . S
C572 C574 1.381 . S
C572 C578 1.383 . S
C573 C569 1.495 . S
C573 H579 0.959 . S
C573 H580 0.961 . S
C573 H581 0.960 . S
C574 C572 1.381 . S
C574 C575 1.394 . S
C574 H582 0.930 . S
C575 C574 1.394 . S
C575 C576 1.383 . S
C575 H583 0.929 . S
C576 C575 1.383 . S
C576 C577 1.377 . S
C577 H561 0.930 . S
C577 C576 1.377 . S
C577 C578 1.379 . S
C578 H562 0.931 . S
C578 C572 1.383 . S
C578 C577 1.379 . S
H579 C573 0.959 . S
H580 C573 0.961 . S
H581 C573 0.960 . S
H582 C574 0.930 . S
H583 C575 0.929 . S
H584 C592 0.929 . S
H585 C594 0.930 . S
H586 C596 0.930 . S
H587 C599 0.929 . S
H588 C602 0.930 . S
H589 C604 0.960 . S
H590 C604 0.960 . S
H591 C604 0.960 . S
C592 H584 0.929 . S
C592 C593 1.377 . S
C592 C594 1.384 . S
C593 C592 1.377 . S
C593 C599 1.390 . S
C594 H585 0.930 . S
C594 C592 1.384 . S
C594 C595 1.372 . S
C595 C594 1.372 . S
C595 C596 1.400 . S
C595 C600 1.490 . S
C596 H586 0.930 . S
C596 C595 1.400 . S
C596 C599 1.386 . S
H597 C613 0.930 . S
H598 C614 0.931 . S
C599 H587 0.929 . S
C599 C593 1.390 . S
C599 C596 1.386 . S
C600 C595 1.490 . S
C600 C602 1.395 1_545 S
C600 C603 1.403 . S
H601 C607 0.930 . S
C602 H588 0.930 . S
C602 C600 1.395 1_565 S
C602 C605 1.403 . S
C603 C600 1.403 . S
C603 C604 1.524 . S
C603 C607 1.400 . S
C604 H589 0.960 . S
C604 H590 0.960 . S
C604 H591 0.960 . S
C604 C603 1.524 . S
C605 C602 1.403 . S
C605 C606 1.392 1_565 S
C605 C609 1.495 . S
C606 C605 1.392 1_545 S
C606 C607 1.385 . S
C606 C608 1.478 . S
C607 H601 0.930 . S
C607 C603 1.400 . S
C607 C606 1.385 . S
C608 C606 1.478 . S
C608 C610 1.381 . S
C608 C614 1.383 . S
C609 C605 1.495 . S
C609 H615 0.959 . S
C609 H616 0.961 . S
C609 H617 0.960 . S
C610 C608 1.381 . S
C610 C611 1.394 . S
C610 H618 0.930 . S
C611 C610 1.394 . S
C611 C612 1.383 . S
C611 H619 0.929 . S
C612 C611 1.383 . S
C612 C613 1.377 . S
C613 H597 0.930 . S
C613 C612 1.377 . S
C613 C614 1.379 . S
C614 H598 0.931 . S
C614 C608 1.383 . S
C614 C613 1.379 . S
H615 C609 0.959 . S
H616 C609 0.961 . S
H617 C609 0.960 . S
H618 C610 0.930 . S
H619 C611 0.929 . S
H620 C628 0.929 . S
H621 C630 0.930 . S
H622 C632 0.930 . S
H623 C635 0.929 . S
H624 C638 0.930 . S
H625 C640 0.960 . S
H626 C640 0.960 . S
H627 C640 0.960 . S
C628 H620 0.929 . S
C628 C629 1.377 . S
C628 C630 1.384 . S
C629 C628 1.377 . S
C629 C635 1.390 . S
C630 H621 0.930 . S
C630 C628 1.384 . S
C630 C631 1.372 . S
C631 C630 1.372 . S
C631 C632 1.400 . S
C631 C636 1.490 . S
C632 H622 0.930 . S
C632 C631 1.400 . S
C632 C635 1.386 . S
H633 C649 0.930 . S
H634 C650 0.931 . S
C635 H623 0.929 . S
C635 C629 1.390 . S
C635 C632 1.386 . S
C636 C631 1.490 . S
C636 C638 1.395 . S
C636 C639 1.403 . S
H637 C643 0.930 . S
C638 H624 0.930 . S
C638 C636 1.395 . S
C638 C641 1.403 1_554 S
C639 C636 1.403 . S
C639 C640 1.524 . S
C639 C643 1.400 1_554 S
C640 H625 0.960 . S
C640 H626 0.960 . S
C640 H627 0.960 . S
C640 C639 1.524 . S
C641 C638 1.403 1_556 S
C641 C642 1.392 . S
C641 C645 1.495 . S
C642 C641 1.392 . S
C642 C643 1.385 . S
C642 C644 1.478 . S
C643 H637 0.930 . S
C643 C639 1.400 1_556 S
C643 C642 1.385 . S
C644 C642 1.478 . S
C644 C646 1.381 . S
C644 C650 1.383 . S
C645 C641 1.495 . S
C645 H651 0.959 . S
C645 H652 0.961 . S
C645 H653 0.960 . S
C646 C644 1.381 . S
C646 C647 1.394 . S
C646 H654 0.930 . S
C647 C646 1.394 . S
C647 C648 1.383 . S
C647 H655 0.929 . S
C648 C647 1.383 . S
C648 C649 1.377 . S
C649 H633 0.930 . S
C649 C648 1.377 . S
C649 C650 1.379 . S
C650 H634 0.931 . S
C650 C644 1.383 . S
C650 C649 1.379 . S
H651 C645 0.959 . S
H652 C645 0.961 . S
H653 C645 0.960 . S
H654 C646 0.930 . S
H655 C647 0.929 . S
H656 C664 0.929 . S
H657 C666 0.930 . S
H658 C668 0.930 . S
H659 C671 0.929 . S
H660 C674 0.930 . S
H661 C676 0.960 . S
H662 C676 0.960 . S
H663 C676 0.960 . S
C664 H656 0.929 . S
C664 C665 1.377 . S
C664 C666 1.384 . S
C665 C664 1.377 . S
C665 C671 1.390 . S
C666 H657 0.930 . S
C666 C664 1.384 . S
C666 C667 1.372 . S
C667 C666 1.372 . S
C667 C668 1.400 . S
C667 C672 1.490 . S
C668 H658 0.930 . S
C668 C667 1.400 . S
C668 C671 1.386 . S
H669 C685 0.930 . S
H670 C686 0.931 . S
C671 H659 0.929 . S
C671 C665 1.390 . S
C671 C668 1.386 . S
C672 C667 1.490 . S
C672 C674 1.395 . S
C672 C675 1.403 . S
H673 C679 0.930 . S
C674 H660 0.930 . S
C674 C672 1.395 . S
C674 C677 1.403 . S
C675 C672 1.403 . S
C675 C676 1.524 . S
C675 C679 1.400 . S
C676 H661 0.960 . S
C676 H662 0.960 . S
C676 H663 0.960 . S
C676 C675 1.524 . S
C677 C674 1.403 . S
C677 C678 1.392 . S
C677 C681 1.495 . S
C678 C677 1.392 . S
C678 C679 1.385 . S
C678 C680 1.478 . S
C679 H673 0.930 . S
C679 C675 1.400 . S
C679 C678 1.385 . S
C680 C678 1.478 . S
C680 C682 1.381 . S
C680 C686 1.383 . S
C681 C677 1.495 . S
C681 H687 0.959 . S
C681 H688 0.961 . S
C681 H689 0.960 . S
C682 C680 1.381 . S
C682 C683 1.394 . S
C682 H690 0.930 . S
C683 C682 1.394 . S
C683 C684 1.383 . S
C683 H691 0.929 . S
C684 C683 1.383 . S
C684 C685 1.377 . S
C685 H669 0.930 . S
C685 C684 1.377 . S
C685 C686 1.379 . S
C686 H670 0.931 . S
C686 C680 1.383 . S
C686 C685 1.379 . S
H687 C681 0.959 . S
H688 C681 0.961 . S
H689 C681 0.960 . S
H690 C682 0.930 . S
H691 C683 0.929 . S
H692 C700 0.929 . S
H693 C702 0.930 . S
H694 C704 0.930 . S
H695 C707 0.929 . S
H696 C710 0.930 1_556 S
H697 C712 0.960 1_554 S
H698 C712 0.960 . S
H699 C712 0.960 . S
C700 H692 0.929 . S
C700 C701 1.377 . S
C700 C702 1.384 . S
C701 C700 1.377 . S
C701 C707 1.390 . S
C702 H693 0.930 . S
C702 C700 1.384 . S
C702 C703 1.372 . S
C703 C702 1.372 . S
C703 C704 1.400 . S
C703 C708 1.490 . S
C704 H694 0.930 . S
C704 C703 1.400 . S
C704 C707 1.386 . S
H705 C721 0.930 . S
H706 C722 0.931 . S
C707 H695 0.929 . S
C707 C701 1.390 . S
C707 C704 1.386 . S
C708 C703 1.490 . S
C708 C710 1.395 1_556 S
C708 C711 1.403 1_556 S
H709 C715 0.930 . S
C710 H696 0.930 1_554 S
C710 C708 1.395 1_554 S
C710 C713 1.403 . S
C711 C708 1.403 1_554 S
C711 C712 1.524 1_554 S
C711 C715 1.400 . S
C712 H697 0.960 1_556 S
C712 H698 0.960 . S
C712 H699 0.960 . S
C712 C711 1.524 1_556 S
C713 C710 1.403 . S
C713 C714 1.392 . S
C713 C717 1.495 . S
C714 C713 1.392 . S
C714 C715 1.385 . S
C714 C716 1.478 . S
C715 H709 0.930 . S
C715 C711 1.400 . S
C715 C714 1.385 . S
C716 C714 1.478 . S
C716 C718 1.381 . S
C716 C722 1.383 . S
C717 C713 1.495 . S
C717 H723 0.959 . S
C717 H724 0.961 . S
C717 H725 0.960 . S
C718 C716 1.381 . S
C718 C719 1.394 . S
C718 H726 0.930 . S
C719 C718 1.394 . S
C719 C720 1.383 . S
C719 H727 0.929 . S
C720 C719 1.383 . S
C720 C721 1.377 . S
C721 H705 0.930 . S
C721 C720 1.377 . S
C721 C722 1.379 . S
C722 H706 0.931 . S
C722 C716 1.383 . S
C722 C721 1.379 . S
H723 C717 0.959 . S
H724 C717 0.961 . S
H725 C717 0.960 . S
H726 C718 0.930 . S
H727 C719 0.929 . S
H728 C736 0.929 . S
H729 C738 0.930 . S
H730 C740 0.930 . S
H731 C743 0.929 . S
H732 C746 0.930 . S
H733 C748 0.960 . S
H734 C748 0.960 . S
H735 C748 0.960 . S
C736 H728 0.929 . S
C736 C737 1.377 . S
C736 C738 1.384 . S
C737 C736 1.377 . S
C737 C743 1.390 . S
C738 H729 0.930 . S
C738 C736 1.384 . S
C738 C739 1.372 . S
C739 C738 1.372 . S
C739 C740 1.400 . S
C739 C744 1.490 . S
C740 H730 0.930 . S
C740 C739 1.400 . S
C740 C743 1.386 . S
H741 C757 0.930 . S
H742 C758 0.931 . S
C743 H731 0.929 . S
C743 C737 1.390 . S
C743 C740 1.386 . S
C744 C739 1.490 . S
C744 C746 1.395 . S
C744 C747 1.403 . S
H745 C751 0.930 . S
C746 H732 0.930 . S
C746 C744 1.395 . S
C746 C749 1.403 . S
C747 C744 1.403 . S
C747 C748 1.524 . S
C747 C751 1.400 . S
C748 H733 0.960 . S
C748 H734 0.960 . S
C748 H735 0.960 . S
C748 C747 1.524 . S
C749 C746 1.403 . S
C749 C750 1.392 . S
C749 C753 1.495 . S
C750 C749 1.392 . S
C750 C751 1.385 . S
C750 C752 1.478 . S
C751 H745 0.930 . S
C751 C747 1.400 . S
C751 C750 1.385 . S
C752 C750 1.478 . S
C752 C754 1.381 . S
C752 C758 1.383 . S
C753 C749 1.495 . S
C753 H759 0.959 . S
C753 H760 0.961 . S
C753 H761 0.960 . S
C754 C752 1.381 . S
C754 C755 1.394 . S
C754 H762 0.930 . S
C755 C754 1.394 . S
C755 C756 1.383 . S
C755 H763 0.929 . S
C756 C755 1.383 . S
C756 C757 1.377 . S
C757 H741 0.930 . S
C757 C756 1.377 . S
C757 C758 1.379 . S
C758 H742 0.931 . S
C758 C752 1.383 . S
C758 C757 1.379 . S
H759 C753 0.959 . S
H760 C753 0.961 . S
H761 C753 0.960 . S
H762 C754 0.930 . S
H763 C755 0.929 . S
H764 C772 0.929 . S
H765 C774 0.930 . S
H766 C776 0.930 . S
H767 C779 0.929 . S
H768 C782 0.930 . S
H769 C784 0.960 . S
H770 C784 0.960 . S
H771 C784 0.960 . S
C772 H764 0.929 . S
C772 C773 1.377 . S
C772 C774 1.384 . S
C773 C772 1.377 . S
C773 C779 1.390 . S
C774 H765 0.930 . S
C774 C772 1.384 . S
C774 C775 1.372 . S
C775 C774 1.372 . S
C775 C776 1.400 . S
C775 C780 1.490 . S
C776 H766 0.930 . S
C776 C775 1.400 . S
C776 C779 1.386 . S
H777 C793 0.930 . S
H778 C794 0.931 . S
C779 H767 0.929 . S
C779 C773 1.390 . S
C779 C776 1.386 . S
C780 C775 1.490 . S
C780 C782 1.395 . S
C780 C783 1.403 . S
H781 C787 0.930 . S
C782 H768 0.930 . S
C782 C780 1.395 . S
C782 C785 1.403 . S
C783 C780 1.403 . S
C783 C784 1.524 . S
C783 C787 1.400 . S
C784 H769 0.960 . S
C784 H770 0.960 . S
C784 H771 0.960 . S
C784 C783 1.524 . S
C785 C782 1.403 . S
C785 C786 1.392 . S
C785 C789 1.495 . S
C786 C785 1.392 . S
C786 C787 1.385 . S
C786 C788 1.478 . S
C787 H781 0.930 . S
C787 C783 1.400 . S
C787 C786 1.385 . S
C788 C786 1.478 . S
C788 C790 1.381 . S
C788 C794 1.383 . S
C789 C785 1.495 . S
C789 H795 0.959 . S
C789 H796 0.961 . S
C789 H797 0.960 . S
C790 C788 1.381 . S
C790 C791 1.394 . S
C790 H798 0.930 . S
C791 C790 1.394 . S
C791 C792 1.383 . S
C791 H799 0.929 . S
C792 C791 1.383 . S
C792 C793 1.377 . S
C793 H777 0.930 . S
C793 C792 1.377 . S
C793 C794 1.379 . S
C794 H778 0.931 . S
C794 C788 1.383 . S
C794 C793 1.379 . S
H795 C789 0.959 . S
H796 C789 0.961 . S
H797 C789 0.960 . S
H798 C790 0.930 . S
H799 C791 0.929 . S
H800 C808 0.929 . S
H801 C810 0.930 . S
H802 C812 0.930 . S
H803 C815 0.929 . S
H804 C818 0.930 . S
H805 C820 0.960 . S
H806 C820 0.960 . S
H807 C820 0.960 . S
C808 H800 0.929 . S
C808 C809 1.377 . S
C808 C810 1.384 . S
C809 C808 1.377 . S
C809 C815 1.390 . S
C810 H801 0.930 . S
C810 C808 1.384 . S
C810 C811 1.372 . S
C811 C810 1.372 . S
C811 C812 1.400 . S
C811 C816 1.490 . S
C812 H802 0.930 . S
C812 C811 1.400 . S
C812 C815 1.386 . S
H813 C829 0.930 . S
H814 C830 0.931 . S
C815 H803 0.929 . S
C815 C809 1.390 . S
C815 C812 1.386 . S
C816 C811 1.490 . S
C816 C818 1.395 . S
C816 C819 1.403 . S
H817 C823 0.930 . S
C818 H804 0.930 . S
C818 C816 1.395 . S
C818 C821 1.403 . S
C819 C816 1.403 . S
C819 C820 1.524 . S
C819 C823 1.400 . S
C820 H805 0.960 . S
C820 H806 0.960 . S
C820 H807 0.960 . S
C820 C819 1.524 . S
C821 C818 1.403 . S
C821 C822 1.392 . S
C821 C825 1.495 . S
C822 C821 1.392 . S
C822 C823 1.385 . S
C822 C824 1.478 . S
C823 H817 0.930 . S
C823 C819 1.400 . S
C823 C822 1.385 . S
C824 C822 1.478 . S
C824 C826 1.381 . S
C824 C830 1.383 . S
C825 C821 1.495 . S
C825 H831 0.959 . S
C825 H832 0.961 . S
C825 H833 0.960 . S
C826 C824 1.381 . S
C826 C827 1.394 . S
C826 H834 0.930 . S
C827 C826 1.394 . S
C827 C828 1.383 . S
C827 H835 0.929 . S
C828 C827 1.383 . S
C828 C829 1.377 . S
C829 H813 0.930 . S
C829 C828 1.377 . S
C829 C830 1.379 . S
C830 H814 0.931 . S
C830 C824 1.383 . S
C830 C829 1.379 . S
H831 C825 0.959 . S
H832 C825 0.961 . S
H833 C825 0.960 . S
H834 C826 0.930 . S
H835 C827 0.929 . S
H836 C844 0.929 . S
H837 C846 0.930 . S
H838 C848 0.930 . S
H839 C851 0.929 . S
H840 C854 0.930 . S
H841 C856 0.960 . S
H842 C856 0.960 . S
H843 C856 0.960 . S
C844 H836 0.929 . S
C844 C845 1.377 . S
C844 C846 1.384 . S
C845 C844 1.377 . S
C845 C851 1.390 . S
C846 H837 0.930 . S
C846 C844 1.384 . S
C846 C847 1.372 . S
C847 C846 1.372 . S
C847 C848 1.400 . S
C847 C852 1.490 . S
C848 H838 0.930 . S
C848 C847 1.400 . S
C848 C851 1.386 . S
H849 C865 0.930 . S
H850 C866 0.931 . S
C851 H839 0.929 . S
C851 C845 1.390 . S
C851 C848 1.386 . S
C852 C847 1.490 . S
C852 C854 1.395 . S
C852 C855 1.403 . S
H853 C859 0.930 . S
C854 H840 0.930 . S
C854 C852 1.395 . S
C854 C857 1.403 1_554 S
C855 C852 1.403 . S
C855 C856 1.524 . S
C855 C859 1.400 1_554 S
C856 H841 0.960 . S
C856 H842 0.960 . S
C856 H843 0.960 . S
C856 C855 1.524 . S
C857 C854 1.403 1_556 S
C857 C858 1.392 . S
C857 C861 1.495 . S
C858 C857 1.392 . S
C858 C859 1.385 . S
C858 C860 1.478 . S
C859 H853 0.930 . S
C859 C855 1.400 1_556 S
C859 C858 1.385 . S
C860 C858 1.478 . S
C860 C862 1.381 . S
C860 C866 1.383 . S
C861 C857 1.495 . S
C861 H867 0.959 . S
C861 H868 0.961 . S
C861 H869 0.960 . S
C862 C860 1.381 . S
C862 C863 1.394 . S
C862 H870 0.930 . S
C863 C862 1.394 . S
C863 C864 1.383 . S
C863 H871 0.929 . S
C864 C863 1.383 . S
C864 C865 1.377 . S
C865 H849 0.930 . S
C865 C864 1.377 . S
C865 C866 1.379 . S
C866 H850 0.931 . S
C866 C860 1.383 . S
C866 C865 1.379 . S
H867 C861 0.959 . S
H868 C861 0.961 . S
H869 C861 0.960 . S
H870 C862 0.930 . S
H871 C863 0.929 . S
H872 C880 0.929 1_655 S
H873 C882 0.930 1_655 S
H874 C884 0.930 . S
H875 C887 0.929 . S
H876 C890 0.930 1_655 S
H877 C892 0.960 . S
H878 C892 0.960 . S
H879 C892 0.960 . S
C880 H872 0.929 1_455 S
C880 C881 1.377 . S
C880 C882 1.384 . S
C881 C880 1.377 . S
C881 C887 1.390 . S
C882 H873 0.930 1_455 S
C882 C880 1.384 . S
C882 C883 1.372 . S
C883 C882 1.372 . S
C883 C884 1.400 . S
C883 C888 1.490 . S
C884 H874 0.930 . S
C884 C883 1.400 . S
C884 C887 1.386 . S
H885 C901 0.930 . S
H886 C902 0.931 . S
C887 H875 0.929 . S
C887 C881 1.390 . S
C887 C884 1.386 . S
C888 C883 1.490 . S
C888 C890 1.395 . S
C888 C891 1.403 . S
H889 C895 0.930 . S
C890 H876 0.930 1_455 S
C890 C888 1.395 . S
C890 C893 1.403 . S
C891 C888 1.403 . S
C891 C892 1.524 . S
C891 C895 1.400 . S
C892 H877 0.960 . S
C892 H878 0.960 . S
C892 H879 0.960 . S
C892 C891 1.524 . S
C893 C890 1.403 . S
C893 C894 1.392 . S
C893 C897 1.495 1_455 S
C894 C893 1.392 . S
C894 C895 1.385 . S
C894 C896 1.478 . S
C895 H889 0.930 . S
C895 C891 1.400 . S
C895 C894 1.385 . S
C896 C894 1.478 . S
C896 C898 1.381 . S
C896 C902 1.383 . S
C897 C893 1.495 1_655 S
C897 H903 0.959 . S
C897 H904 0.961 . S
C897 H905 0.960 . S
C898 C896 1.381 . S
C898 C899 1.394 . S
C898 H906 0.930 1_455 S
C899 C898 1.394 . S
C899 C900 1.383 . S
C899 H907 0.929 1_455 S
C900 C899 1.383 . S
C900 C901 1.377 . S
C901 H885 0.930 . S
C901 C900 1.377 . S
C901 C902 1.379 . S
C902 H886 0.931 . S
C902 C896 1.383 . S
C902 C901 1.379 . S
H903 C897 0.959 . S
H904 C897 0.961 . S
H905 C897 0.960 . S
H906 C898 0.930 1_655 S
H907 C899 0.929 1_655 S
H908 C916 0.929 . S
H909 C918 0.930 . S
H910 C920 0.930 . S
H911 C923 0.929 . S
H912 C926 0.930 . S
H913 C928 0.960 . S
H914 C928 0.960 . S
H915 C928 0.960 . S
C916 H908 0.929 . S
C916 C917 1.377 . S
C916 C918 1.384 . S
C917 C916 1.377 . S
C917 C923 1.390 . S
C918 H909 0.930 . S
C918 C916 1.384 . S
C918 C919 1.372 . S
C919 C918 1.372 . S
C919 C920 1.400 . S
C919 C924 1.490 . S
C920 H910 0.930 . S
C920 C919 1.400 . S
C920 C923 1.386 . S
H921 C937 0.930 . S
H922 C938 0.931 . S
C923 H911 0.929 . S
C923 C917 1.390 . S
C923 C920 1.386 . S
C924 C919 1.490 . S
C924 C926 1.395 . S
C924 C927 1.403 . S
H925 C931 0.930 . S
C926 H912 0.930 . S
C926 C924 1.395 . S
C926 C929 1.403 . S
C927 C924 1.403 . S
C927 C928 1.524 . S
C927 C931 1.400 . S
C928 H913 0.960 . S
C928 H914 0.960 . S
C928 H915 0.960 . S
C928 C927 1.524 . S
C929 C926 1.403 . S
C929 C930 1.392 . S
C929 C933 1.495 . S
C930 C929 1.392 . S
C930 C931 1.385 . S
C930 C932 1.478 . S
C931 H925 0.930 . S
C931 C927 1.400 . S
C931 C930 1.385 . S
C932 C930 1.478 . S
C932 C934 1.381 . S
C932 C938 1.383 . S
C933 C929 1.495 . S
C933 H939 0.959 . S
C933 H940 0.961 . S
C933 H941 0.960 . S
C934 C932 1.381 . S
C934 C935 1.394 . S
C934 H942 0.930 . S
C935 C934 1.394 . S
C935 C936 1.383 . S
C935 H943 0.929 . S
C936 C935 1.383 . S
C936 C937 1.377 . S
C937 H921 0.930 . S
C937 C936 1.377 . S
C937 C938 1.379 . S
C938 H922 0.931 . S
C938 C932 1.383 . S
C938 C937 1.379 . S
H939 C933 0.959 . S
H940 C933 0.961 . S
H941 C933 0.960 . S
H942 C934 0.930 . S
H943 C935 0.929 . S
H944 C952 0.929 . S
H945 C954 0.930 . S
H946 C956 0.930 . S
H947 C959 0.929 . S
H948 C962 0.930 . S
H949 C964 0.960 . S
H950 C964 0.960 . S
H951 C964 0.960 . S
C952 H944 0.929 . S
C952 C953 1.377 . S
C952 C954 1.384 . S
C953 C952 1.377 . S
C953 C959 1.390 . S
C954 H945 0.930 . S
C954 C952 1.384 . S
C954 C955 1.372 . S
C955 C954 1.372 . S
C955 C956 1.400 . S
C955 C960 1.490 . S
C956 H946 0.930 . S
C956 C955 1.400 . S
C956 C959 1.386 . S
H957 C973 0.930 . S
H958 C974 0.931 . S
C959 H947 0.929 . S
C959 C953 1.390 . S
C959 C956 1.386 . S
C960 C955 1.490 . S
C960 C962 1.395 . S
C960 C963 1.403 . S
H961 C967 0.930 . S
C962 H948 0.930 . S
C962 C960 1.395 . S
C962 C965 1.403 . S
C963 C960 1.403 . S
C963 C964 1.524 . S
C963 C967 1.400 . S
C964 H949 0.960 . S
C964 H950 0.960 . S
C964 H951 0.960 . S
C964 C963 1.524 . S
C965 C962 1.403 . S
C965 C966 1.392 . S
C965 C969 1.495 . S
C966 C965 1.392 . S
C966 C967 1.385 . S
C966 C968 1.478 . S
C967 H961 0.930 . S
C967 C963 1.400 . S
C967 C966 1.385 . S
C968 C966 1.478 . S
C968 C970 1.381 . S
C968 C974 1.383 . S
C969 C965 1.495 . S
C969 H975 0.959 . S
C969 H976 0.961 . S
C969 H977 0.960 . S
C970 C968 1.381 . S
C970 C971 1.394 . S
C970 H978 0.930 . S
C971 C970 1.394 . S
C971 C972 1.383 . S
C971 H979 0.929 . S
C972 C971 1.383 . S
C972 C973 1.377 . S
C973 H957 0.930 . S
C973 C972 1.377 . S
C973 C974 1.379 . S
C974 H958 0.931 . S
C974 C968 1.383 . S
C974 C973 1.379 . S
H975 C969 0.959 . S
H976 C969 0.961 . S
H977 C969 0.960 . S
H978 C970 0.930 . S
H979 C971 0.929 . S
H980 C988 0.929 . S
H981 C990 0.930 . S
H982 C992 0.930 . S
H983 C995 0.929 . S
H984 C998 0.930 . S
H985 C1000 0.960 . S
H986 C1000 0.960 . S
H987 C1000 0.960 . S
C988 H980 0.929 . S
C988 C989 1.377 . S
C988 C990 1.384 . S
C989 C988 1.377 . S
C989 C995 1.390 . S
C990 H981 0.930 . S
C990 C988 1.384 . S
C990 C991 1.372 . S
C991 C990 1.372 . S
C991 C992 1.400 . S
C991 C996 1.490 . S
C992 H982 0.930 . S
C992 C991 1.400 . S
C992 C995 1.386 . S
H993 C1009 0.930 . S
H994 C1010 0.931 . S
C995 H983 0.929 . S
C995 C989 1.390 . S
C995 C992 1.386 . S
C996 C991 1.490 . S
C996 C998 1.395 . S
C996 C999 1.403 . S
H997 C1003 0.930 . S
C998 H984 0.930 . S
C998 C996 1.395 . S
C998 C1001 1.403 . S
C999 C996 1.403 . S
C999 C1000 1.524 . S
C999 C1003 1.400 . S
C1000 H985 0.960 . S
C1000 H986 0.960 . S
C1000 H987 0.960 . S
C1000 C999 1.524 . S
C1001 C998 1.403 . S
C1001 C1002 1.392 . S
C1001 C1005 1.495 . S
C1002 C1001 1.392 . S
C1002 C1003 1.385 . S
C1002 C1004 1.478 . S
C1003 H997 0.930 . S
C1003 C999 1.400 . S
C1003 C1002 1.385 . S
C1004 C1002 1.478 . S
C1004 C1006 1.381 . S
C1004 C1010 1.383 . S
C1005 C1001 1.495 . S
C1005 H1011 0.959 . S
C1005 H1012 0.961 . S
C1005 H1013 0.960 . S
C1006 C1004 1.381 . S
C1006 C1007 1.394 . S
C1006 H1014 0.930 . S
C1007 C1006 1.394 . S
C1007 C1008 1.383 . S
C1007 H1015 0.929 . S
C1008 C1007 1.383 . S
C1008 C1009 1.377 . S
C1009 H993 0.930 . S
C1009 C1008 1.377 . S
C1009 C1010 1.379 . S
C1010 H994 0.931 . S
C1010 C1004 1.383 . S
C1010 C1009 1.379 . S
H1011 C1005 0.959 . S
H1012 C1005 0.961 . S
H1013 C1005 0.960 . S
H1014 C1006 0.930 . S
H1015 C1007 0.929 . S
H1016 C1024 0.929 . S
H1017 C1026 0.930 . S
H1018 C1028 0.930 . S
H1019 C1031 0.929 . S
H1020 C1034 0.930 . S
H1021 C1036 0.960 . S
H1022 C1036 0.960 . S
H1023 C1036 0.960 . S
C1024 H1016 0.929 . S
C1024 C1025 1.377 . S
C1024 C1026 1.384 . S
C1025 C1024 1.377 . S
C1025 C1031 1.390 . S
C1026 H1017 0.930 . S
C1026 C1024 1.384 . S
C1026 C1027 1.372 . S
C1027 C1026 1.372 . S
C1027 C1028 1.400 . S
C1027 C1032 1.490 . S
C1028 H1018 0.930 . S
C1028 C1027 1.400 . S
C1028 C1031 1.386 . S
H1029 C1045 0.930 . S
H1030 C1046 0.931 . S
C1031 H1019 0.929 . S
C1031 C1025 1.390 . S
C1031 C1028 1.386 . S
C1032 C1027 1.490 . S
C1032 C1034 1.395 . S
C1032 C1035 1.403 . S
H1033 C1039 0.930 . S
C1034 H1020 0.930 . S
C1034 C1032 1.395 . S
C1034 C1037 1.403 . S
C1035 C1032 1.403 . S
C1035 C1036 1.524 . S
C1035 C1039 1.400 . S
C1036 H1021 0.960 . S
C1036 H1022 0.960 . S
C1036 H1023 0.960 . S
C1036 C1035 1.524 . S
C1037 C1034 1.403 . S
C1037 C1038 1.392 . S
C1037 C1041 1.495 . S
C1038 C1037 1.392 . S
C1038 C1039 1.385 . S
C1038 C1040 1.478 . S
C1039 H1033 0.930 . S
C1039 C1035 1.400 . S
C1039 C1038 1.385 . S
C1040 C1038 1.478 . S
C1040 C1042 1.381 . S
C1040 C1046 1.383 . S
C1041 C1037 1.495 . S
C1041 H1047 0.959 . S
C1041 H1048 0.961 . S
C1041 H1049 0.960 . S
C1042 C1040 1.381 . S
C1042 C1043 1.394 . S
C1042 H1050 0.930 . S
C1043 C1042 1.394 . S
C1043 C1044 1.383 . S
C1043 H1051 0.929 . S
C1044 C1043 1.383 . S
C1044 C1045 1.377 . S
C1045 H1029 0.930 . S
C1045 C1044 1.377 . S
C1045 C1046 1.379 . S
C1046 H1030 0.931 . S
C1046 C1040 1.383 . S
C1046 C1045 1.379 . S
H1047 C1041 0.959 . S
H1048 C1041 0.961 . S
H1049 C1041 0.960 . S
H1050 C1042 0.930 . S
H1051 C1043 0.929 . S
H1052 C1060 0.929 . S
H1053 C1062 0.930 . S
H1054 C1064 0.930 . S
H1055 C1067 0.929 . S
H1056 C1070 0.930 . S
H1057 C1072 0.960 . S
H1058 C1072 0.960 . S
H1059 C1072 0.960 . S
C1060 H1052 0.929 . S
C1060 C1061 1.377 . S
C1060 C1062 1.384 . S
C1061 C1060 1.377 . S
C1061 C1067 1.390 . S
C1062 H1053 0.930 . S
C1062 C1060 1.384 . S
C1062 C1063 1.372 . S
C1063 C1062 1.372 . S
C1063 C1064 1.400 . S
C1063 C1068 1.490 . S
C1064 H1054 0.930 . S
C1064 C1063 1.400 . S
C1064 C1067 1.386 . S
H1065 C1081 0.930 . S
H1066 C1082 0.931 . S
C1067 H1055 0.929 . S
C1067 C1061 1.390 . S
C1067 C1064 1.386 . S
C1068 C1063 1.490 . S
C1068 C1070 1.395 . S
C1068 C1071 1.403 . S
H1069 C1075 0.930 . S
C1070 H1056 0.930 . S
C1070 C1068 1.395 . S
C1070 C1073 1.403 . S
C1071 C1068 1.403 . S
C1071 C1072 1.524 . S
C1071 C1075 1.400 . S
C1072 H1057 0.960 . S
C1072 H1058 0.960 . S
C1072 H1059 0.960 . S
C1072 C1071 1.524 . S
C1073 C1070 1.403 . S
C1073 C1074 1.392 . S
C1073 C1077 1.495 . S
C1074 C1073 1.392 . S
C1074 C1075 1.385 . S
C1074 C1076 1.478 . S
C1075 H1069 0.930 . S
C1075 C1071 1.400 . S
C1075 C1074 1.385 . S
C1076 C1074 1.478 . S
C1076 C1078 1.381 . S
C1076 C1082 1.383 . S
C1077 C1073 1.495 . S
C1077 H1083 0.959 . S
C1077 H1084 0.961 . S
C1077 H1085 0.960 . S
C1078 C1076 1.381 . S
C1078 C1079 1.394 . S
C1078 H1086 0.930 . S
C1079 C1078 1.394 . S
C1079 C1080 1.383 . S
C1079 H1087 0.929 1_556 S
C1080 C1079 1.383 . S
C1080 C1081 1.377 . S
C1081 H1065 0.930 . S
C1081 C1080 1.377 . S
C1081 C1082 1.379 . S
C1082 H1066 0.931 . S
C1082 C1076 1.383 . S
C1082 C1081 1.379 . S
H1083 C1077 0.959 . S
H1084 C1077 0.961 . S
H1085 C1077 0.960 . S
H1086 C1078 0.930 . S
H1087 C1079 0.929 1_554 S
H1088 C1096 0.929 1_554 S
H1089 C1098 0.930 . S
H1090 C1100 0.930 . S
H1091 C1103 0.929 . S
H1092 C1106 0.930 . S
H1093 C1108 0.960 . S
H1094 C1108 0.960 . S
H1095 C1108 0.960 . S
C1096 H1088 0.929 1_556 S
C1096 C1097 1.377 . S
C1096 C1098 1.384 . S
C1097 C1096 1.377 . S
C1097 C1103 1.390 . S
C1098 H1089 0.930 . S
C1098 C1096 1.384 . S
C1098 C1099 1.372 . S
C1099 C1098 1.372 . S
C1099 C1100 1.400 . S
C1099 C1104 1.490 . S
C1100 H1090 0.930 . S
C1100 C1099 1.400 . S
C1100 C1103 1.386 . S
H1101 C1117 0.930 . S
H1102 C1118 0.931 . S
C1103 H1091 0.929 . S
C1103 C1097 1.390 . S
C1103 C1100 1.386 . S
C1104 C1099 1.490 . S
C1104 C1106 1.395 . S
C1104 C1107 1.403 . S
H1105 C1111 0.930 . S
C1106 H1092 0.930 . S
C1106 C1104 1.395 . S
C1106 C1109 1.403 . S
C1107 C1104 1.403 . S
C1107 C1108 1.524 . S
C1107 C1111 1.400 . S
C1108 H1093 0.960 . S
C1108 H1094 0.960 . S
C1108 H1095 0.960 . S
C1108 C1107 1.524 . S
C1109 C1106 1.403 . S
C1109 C1110 1.392 . S
C1109 C1113 1.495 . S
C1110 C1109 1.392 . S
C1110 C1111 1.385 . S
C1110 C1112 1.478 . S
C1111 H1105 0.930 . S
C1111 C1107 1.400 . S
C1111 C1110 1.385 . S
C1112 C1110 1.478 . S
C1112 C1114 1.381 . S
C1112 C1118 1.383 . S
C1113 C1109 1.495 . S
C1113 H1119 0.959 . S
C1113 H1120 0.961 . S
C1113 H1121 0.960 . S
C1114 C1112 1.381 . S
C1114 C1115 1.394 . S
C1114 H1122 0.930 . S
C1115 C1114 1.394 . S
C1115 C1116 1.383 . S
C1115 H1123 0.929 . S
C1116 C1115 1.383 . S
C1116 C1117 1.377 . S
C1117 H1101 0.930 . S
C1117 C1116 1.377 . S
C1117 C1118 1.379 . S
C1118 H1102 0.931 . S
C1118 C1112 1.383 . S
C1118 C1117 1.379 . S
H1119 C1113 0.959 . S
H1120 C1113 0.961 . S
H1121 C1113 0.960 . S
H1122 C1114 0.930 . S
H1123 C1115 0.929 . S
H1124 C1132 0.929 . S
H1125 C1134 0.930 . S
H1126 C1136 0.930 . S
H1127 C1139 0.929 . S
H1128 C1142 0.930 . S
H1129 C1144 0.960 . S
H1130 C1144 0.960 . S
H1131 C1144 0.960 . S
C1132 H1124 0.929 . S
C1132 C1133 1.377 . S
C1132 C1134 1.384 . S
C1133 C1132 1.377 . S
C1133 C1139 1.390 . S
C1134 H1125 0.930 . S
C1134 C1132 1.384 . S
C1134 C1135 1.372 . S
C1135 C1134 1.372 . S
C1135 C1136 1.400 . S
C1135 C1140 1.490 . S
C1136 H1126 0.930 . S
C1136 C1135 1.400 . S
C1136 C1139 1.386 . S
H1137 C1153 0.930 . S
H1138 C1154 0.931 . S
C1139 H1127 0.929 . S
C1139 C1133 1.390 . S
C1139 C1136 1.386 . S
C1140 C1135 1.490 . S
C1140 C1142 1.395 . S
C1140 C1143 1.403 . S
H1141 C1147 0.930 . S
C1142 H1128 0.930 . S
C1142 C1140 1.395 . S
C1142 C1145 1.403 . S
C1143 C1140 1.403 . S
C1143 C1144 1.524 . S
C1143 C1147 1.400 . S
C1144 H1129 0.960 . S
C1144 H1130 0.960 . S
C1144 H1131 0.960 . S
C1144 C1143 1.524 . S
C1145 C1142 1.403 . S
C1145 C1146 1.392 . S
C1145 C1149 1.495 . S
C1146 C1145 1.392 . S
C1146 C1147 1.385 . S
C1146 C1148 1.478 . S
C1147 H1141 0.930 . S
C1147 C1143 1.400 . S
C1147 C1146 1.385 . S
C1148 C1146 1.478 . S
C1148 C1150 1.381 . S
C1148 C1154 1.383 . S
C1149 C1145 1.495 . S
C1149 H1155 0.959 . S
C1149 H1156 0.961 . S
C1149 H1157 0.960 . S
C1150 C1148 1.381 . S
C1150 C1151 1.394 . S
C1150 H1158 0.930 . S
C1151 C1150 1.394 . S
C1151 C1152 1.383 . S
C1151 H1159 0.929 . S
C1152 C1151 1.383 . S
C1152 C1153 1.377 . S
C1153 H1137 0.930 . S
C1153 C1152 1.377 . S
C1153 C1154 1.379 . S
C1154 H1138 0.931 . S
C1154 C1148 1.383 . S
C1154 C1153 1.379 . S
H1155 C1149 0.959 . S
H1156 C1149 0.961 . S
H1157 C1149 0.960 . S
H1158 C1150 0.930 . S
H1159 C1151 0.929 . S
H1160 C1168 0.929 . S
H1161 C1170 0.930 . S
H1162 C1172 0.930 . S
H1163 C1175 0.929 . S
H1164 C1178 0.930 . S
H1165 C1180 0.960 . S
H1166 C1180 0.960 . S
H1167 C1180 0.960 . S
C1168 H1160 0.929 . S
C1168 C1169 1.377 . S
C1168 C1170 1.384 . S
C1169 C1168 1.377 . S
C1169 C1175 1.390 . S
C1170 H1161 0.930 . S
C1170 C1168 1.384 . S
C1170 C1171 1.372 . S
C1171 C1170 1.372 . S
C1171 C1172 1.400 . S
C1171 C1176 1.490 . S
C1172 H1162 0.930 . S
C1172 C1171 1.400 . S
C1172 C1175 1.386 . S
H1173 C1189 0.930 . S
H1174 C1190 0.931 . S
C1175 H1163 0.929 . S
C1175 C1169 1.390 . S
C1175 C1172 1.386 . S
C1176 C1171 1.490 . S
C1176 C1178 1.395 . S
C1176 C1179 1.403 . S
H1177 C1183 0.930 . S
C1178 H1164 0.930 . S
C1178 C1176 1.395 . S
C1178 C1181 1.403 . S
C1179 C1176 1.403 . S
C1179 C1180 1.524 . S
C1179 C1183 1.400 . S
C1180 H1165 0.960 . S
C1180 H1166 0.960 . S
C1180 H1167 0.960 . S
C1180 C1179 1.524 . S
C1181 C1178 1.403 . S
C1181 C1182 1.392 . S
C1181 C1185 1.495 . S
C1182 C1181 1.392 . S
C1182 C1183 1.385 . S
C1182 C1184 1.478 . S
C1183 H1177 0.930 . S
C1183 C1179 1.400 . S
C1183 C1182 1.385 . S
C1184 C1182 1.478 . S
C1184 C1186 1.381 . S
C1184 C1190 1.383 . S
C1185 C1181 1.495 . S
C1185 H1191 0.959 . S
C1185 H1192 0.961 . S
C1185 H1193 0.960 . S
C1186 C1184 1.381 . S
C1186 C1187 1.394 . S
C1186 H1194 0.930 . S
C1187 C1186 1.394 . S
C1187 C1188 1.383 . S
C1187 H1195 0.929 . S
C1188 C1187 1.383 . S
C1188 C1189 1.377 . S
C1189 H1173 0.930 . S
C1189 C1188 1.377 . S
C1189 C1190 1.379 . S
C1190 H1174 0.931 . S
C1190 C1184 1.383 . S
C1190 C1189 1.379 . S
H1191 C1185 0.959 . S
H1192 C1185 0.961 . S
H1193 C1185 0.960 . S
H1194 C1186 0.930 . S
H1195 C1187 0.929 . S
H1196 C1204 0.929 . S
H1197 C1206 0.930 . S
H1198 C1208 0.930 . S
H1199 C1211 0.929 . S
H1200 C1214 0.930 . S
H1201 C1216 0.960 . S
H1202 C1216 0.960 . S
H1203 C1216 0.960 . S
C1204 H1196 0.929 . S
C1204 C1205 1.377 . S
C1204 C1206 1.384 . S
C1205 C1204 1.377 . S
C1205 C1211 1.390 . S
C1206 H1197 0.930 . S
C1206 C1204 1.384 . S
C1206 C1207 1.372 . S
C1207 C1206 1.372 . S
C1207 C1208 1.400 . S
C1207 C1212 1.490 . S
C1208 H1198 0.930 . S
C1208 C1207 1.400 . S
C1208 C1211 1.386 . S
H1209 C1225 0.930 . S
H1210 C1226 0.931 . S
C1211 H1199 0.929 . S
C1211 C1205 1.390 . S
C1211 C1208 1.386 . S
C1212 C1207 1.490 . S
C1212 C1214 1.395 . S
C1212 C1215 1.403 . S
H1213 C1219 0.930 . S
C1214 H1200 0.930 . S
C1214 C1212 1.395 . S
C1214 C1217 1.403 . S
C1215 C1212 1.403 . S
C1215 C1216 1.524 . S
C1215 C1219 1.400 . S
C1216 H1201 0.960 . S
C1216 H1202 0.960 . S
C1216 H1203 0.960 . S
C1216 C1215 1.524 . S
C1217 C1214 1.403 . S
C1217 C1218 1.392 . S
C1217 C1221 1.495 . S
C1218 C1217 1.392 . S
C1218 C1219 1.385 . S
C1218 C1220 1.478 . S
C1219 H1213 0.930 . S
C1219 C1215 1.400 . S
C1219 C1218 1.385 . S
C1220 C1218 1.478 . S
C1220 C1222 1.381 . S
C1220 C1226 1.383 . S
C1221 C1217 1.495 . S
C1221 H1227 0.959 . S
C1221 H1228 0.961 . S
C1221 H1229 0.960 . S
C1222 C1220 1.381 . S
C1222 C1223 1.394 . S
C1222 H1230 0.930 . S
C1223 C1222 1.394 . S
C1223 C1224 1.383 . S
C1223 H1231 0.929 . S
C1224 C1223 1.383 . S
C1224 C1225 1.377 . S
C1225 H1209 0.930 . S
C1225 C1224 1.377 . S
C1225 C1226 1.379 . S
C1226 H1210 0.931 . S
C1226 C1220 1.383 . S
C1226 C1225 1.379 . S
H1227 C1221 0.959 . S
H1228 C1221 0.961 . S
H1229 C1221 0.960 . S
H1230 C1222 0.930 . S
H1231 C1223 0.929 . S
H1232 C1240 0.929 . S
H1233 C1242 0.930 . S
H1234 C1244 0.930 . S
H1235 C1247 0.929 . S
H1236 C1250 0.930 . S
H1237 C1252 0.960 . S
H1238 C1252 0.960 . S
H1239 C1252 0.960 . S
C1240 H1232 0.929 . S
C1240 C1241 1.377 . S
C1240 C1242 1.384 . S
C1241 C1240 1.377 . S
C1241 C1247 1.390 . S
C1242 H1233 0.930 . S
C1242 C1240 1.384 . S
C1242 C1243 1.372 . S
C1243 C1242 1.372 . S
C1243 C1244 1.400 . S
C1243 C1248 1.490 . S
C1244 H1234 0.930 . S
C1244 C1243 1.400 . S
C1244 C1247 1.386 . S
H1245 C1261 0.930 . S
H1246 C1262 0.931 . S
C1247 H1235 0.929 . S
C1247 C1241 1.390 . S
C1247 C1244 1.386 . S
C1248 C1243 1.490 . S
C1248 C1250 1.395 . S
C1248 C1251 1.403 . S
H1249 C1255 0.930 . S
C1250 H1236 0.930 . S
C1250 C1248 1.395 . S
C1250 C1253 1.403 . S
C1251 C1248 1.403 . S
C1251 C1252 1.524 . S
C1251 C1255 1.400 . S
C1252 H1237 0.960 . S
C1252 H1238 0.960 . S
C1252 H1239 0.960 . S
C1252 C1251 1.524 . S
C1253 C1250 1.403 . S
C1253 C1254 1.392 . S
C1253 C1257 1.495 . S
C1254 C1253 1.392 . S
C1254 C1255 1.385 . S
C1254 C1256 1.478 . S
C1255 H1249 0.930 . S
C1255 C1251 1.400 . S
C1255 C1254 1.385 . S
C1256 C1254 1.478 . S
C1256 C1258 1.381 . S
C1256 C1262 1.383 . S
C1257 C1253 1.495 . S
C1257 H1263 0.959 . S
C1257 H1264 0.961 . S
C1257 H1265 0.960 . S
C1258 C1256 1.381 . S
C1258 C1259 1.394 . S
C1258 H1266 0.930 . S
C1259 C1258 1.394 . S
C1259 C1260 1.383 . S
C1259 H1267 0.929 . S
C1260 C1259 1.383 . S
C1260 C1261 1.377 . S
C1261 H1245 0.930 . S
C1261 C1260 1.377 . S
C1261 C1262 1.379 . S
C1262 H1246 0.931 . S
C1262 C1256 1.383 . S
C1262 C1261 1.379 . S
H1263 C1257 0.959 . S
H1264 C1257 0.961 . S
H1265 C1257 0.960 . S
H1266 C1258 0.930 . S
H1267 C1259 0.929 . S
H1268 C1276 0.929 . S
H1269 C1278 0.930 . S
H1270 C1280 0.930 . S
H1271 C1283 0.929 . S
H1272 C1286 0.930 . S
H1273 C1288 0.960 . S
H1274 C1288 0.960 . S
H1275 C1288 0.960 . S
C1276 H1268 0.929 . S
C1276 C1277 1.377 . S
C1276 C1278 1.384 . S
C1277 C1276 1.377 . S
C1277 C1283 1.390 . S
C1278 H1269 0.930 . S
C1278 C1276 1.384 . S
C1278 C1279 1.372 . S
C1279 C1278 1.372 . S
C1279 C1280 1.400 . S
C1279 C1284 1.490 . S
C1280 H1270 0.930 . S
C1280 C1279 1.400 . S
C1280 C1283 1.386 . S
H1281 C1297 0.930 . S
H1282 C1298 0.931 . S
C1283 H1271 0.929 . S
C1283 C1277 1.390 . S
C1283 C1280 1.386 . S
C1284 C1279 1.490 . S
C1284 C1286 1.395 . S
C1284 C1287 1.403 . S
H1285 C1291 0.930 . S
C1286 H1272 0.930 . S
C1286 C1284 1.395 . S
C1286 C1289 1.403 . S
C1287 C1284 1.403 . S
C1287 C1288 1.524 . S
C1287 C1291 1.400 . S
C1288 H1273 0.960 . S
C1288 H1274 0.960 . S
C1288 H1275 0.960 . S
C1288 C1287 1.524 . S
C1289 C1286 1.403 . S
C1289 C1290 1.392 . S
C1289 C1293 1.495 . S
C1290 C1289 1.392 . S
C1290 C1291 1.385 . S
C1290 C1292 1.478 . S
C1291 H1285 0.930 . S
C1291 C1287 1.400 . S
C1291 C1290 1.385 . S
C1292 C1290 1.478 . S
C1292 C1294 1.381 . S
C1292 C1298 1.383 . S
C1293 C1289 1.495 . S
C1293 H1299 0.959 . S
C1293 H1300 0.961 . S
C1293 H1301 0.960 . S
C1294 C1292 1.381 . S
C1294 C1295 1.394 . S
C1294 H1302 0.930 . S
C1295 C1294 1.394 . S
C1295 C1296 1.383 . S
C1295 H1303 0.929 . S
C1296 C1295 1.383 . S
C1296 C1297 1.377 . S
C1297 H1281 0.930 . S
C1297 C1296 1.377 . S
C1297 C1298 1.379 . S
C1298 H1282 0.931 . S
C1298 C1292 1.383 . S
C1298 C1297 1.379 . S
H1299 C1293 0.959 . S
H1300 C1293 0.961 . S
H1301 C1293 0.960 . S
H1302 C1294 0.930 . S
H1303 C1295 0.929 . S
H1304 C1312 0.929 . S
H1305 C1314 0.930 . S
H1306 C1316 0.930 . S
H1307 C1319 0.929 . S
H1308 C1322 0.930 . S
H1309 C1324 0.960 . S
H1310 C1324 0.960 . S
H1311 C1324 0.960 . S
C1312 H1304 0.929 . S
C1312 C1313 1.377 . S
C1312 C1314 1.384 . S
C1313 C1312 1.377 . S
C1313 C1319 1.390 . S
C1314 H1305 0.930 . S
C1314 C1312 1.384 . S
C1314 C1315 1.372 . S
C1315 C1314 1.372 . S
C1315 C1316 1.400 . S
C1315 C1320 1.490 . S
C1316 H1306 0.930 . S
C1316 C1315 1.400 . S
C1316 C1319 1.386 . S
H1317 C1333 0.930 . S
H1318 C1334 0.931 . S
C1319 H1307 0.929 . S
C1319 C1313 1.390 . S
C1319 C1316 1.386 . S
C1320 C1315 1.490 . S
C1320 C1322 1.395 . S
C1320 C1323 1.403 . S
H1321 C1327 0.930 . S
C1322 H1308 0.930 . S
C1322 C1320 1.395 . S
C1322 C1325 1.403 . S
C1323 C1320 1.403 . S
C1323 C1324 1.524 . S
C1323 C1327 1.400 . S
C1324 H1309 0.960 . S
C1324 H1310 0.960 . S
C1324 H1311 0.960 . S
C1324 C1323 1.524 . S
C1325 C1322 1.403 . S
C1325 C1326 1.392 . S
C1325 C1329 1.495 . S
C1326 C1325 1.392 . S
C1326 C1327 1.385 . S
C1326 C1328 1.478 . S
C1327 H1321 0.930 . S
C1327 C1323 1.400 . S
C1327 C1326 1.385 . S
C1328 C1326 1.478 . S
C1328 C1330 1.381 . S
C1328 C1334 1.383 . S
C1329 C1325 1.495 . S
C1329 H1335 0.959 . S
C1329 H1336 0.961 . S
C1329 H1337 0.960 . S
C1330 C1328 1.381 . S
C1330 C1331 1.394 . S
C1330 H1338 0.930 . S
C1331 C1330 1.394 . S
C1331 C1332 1.383 . S
C1331 H1339 0.929 . S
C1332 C1331 1.383 . S
C1332 C1333 1.377 . S
C1333 H1317 0.930 . S
C1333 C1332 1.377 . S
C1333 C1334 1.379 . S
C1334 H1318 0.931 . S
C1334 C1328 1.383 . S
C1334 C1333 1.379 . S
H1335 C1329 0.959 . S
H1336 C1329 0.961 . S
H1337 C1329 0.960 . S
H1338 C1330 0.930 . S
H1339 C1331 0.929 . S
H1340 C1348 0.929 1_455 S
H1341 C1350 0.930 . S
H1342 C1352 0.930 . S
H1343 C1355 0.929 . S
H1344 C1358 0.930 . S
H1345 C1360 0.960 . S
H1346 C1360 0.960 . S
H1347 C1360 0.960 . S
C1348 H1340 0.929 1_655 S
C1348 C1349 1.377 . S
C1348 C1350 1.384 . S
C1349 C1348 1.377 . S
C1349 C1355 1.390 . S
C1350 H1341 0.930 . S
C1350 C1348 1.384 . S
C1350 C1351 1.372 . S
C1351 C1350 1.372 . S
C1351 C1352 1.400 . S
C1351 C1356 1.490 . S
C1352 H1342 0.930 . S
C1352 C1351 1.400 . S
C1352 C1355 1.386 . S
H1353 C1369 0.930 . S
H1354 C1370 0.931 . S
C1355 H1343 0.929 . S
C1355 C1349 1.390 . S
C1355 C1352 1.386 . S
C1356 C1351 1.490 . S
C1356 C1358 1.395 . S
C1356 C1359 1.403 . S
H1357 C1363 0.930 . S
C1358 H1344 0.930 . S
C1358 C1356 1.395 . S
C1358 C1361 1.403 . S
C1359 C1356 1.403 . S
C1359 C1360 1.524 . S
C1359 C1363 1.400 . S
C1360 H1345 0.960 . S
C1360 H1346 0.960 . S
C1360 H1347 0.960 . S
C1360 C1359 1.524 . S
C1361 C1358 1.403 . S
C1361 C1362 1.392 . S
C1361 C1365 1.495 . S
C1362 C1361 1.392 . S
C1362 C1363 1.385 . S
C1362 C1364 1.478 . S
C1363 H1357 0.930 . S
C1363 C1359 1.400 . S
C1363 C1362 1.385 . S
C1364 C1362 1.478 . S
C1364 C1366 1.381 . S
C1364 C1370 1.383 . S
C1365 C1361 1.495 . S
C1365 H1371 0.959 . S
C1365 H1372 0.961 . S
C1365 H1373 0.960 . S
C1366 C1364 1.381 . S
C1366 C1367 1.394 . S
C1366 H1374 0.930 . S
C1367 C1366 1.394 . S
C1367 C1368 1.383 . S
C1367 H1375 0.929 . S
C1368 C1367 1.383 . S
C1368 C1369 1.377 . S
C1369 H1353 0.930 . S
C1369 C1368 1.377 . S
C1369 C1370 1.379 . S
C1370 H1354 0.931 . S
C1370 C1364 1.383 . S
C1370 C1369 1.379 . S
H1371 C1365 0.959 . S
H1372 C1365 0.961 . S
H1373 C1365 0.960 . S
H1374 C1366 0.930 . S
H1375 C1367 0.929 . S
H1376 C1384 0.929 . S
H1377 C1386 0.930 . S
H1378 C1388 0.930 . S
H1379 C1391 0.929 . S
H1380 C1394 0.930 . S
H1381 C1396 0.960 . S
H1382 C1396 0.960 . S
H1383 C1396 0.960 . S
C1384 H1376 0.929 . S
C1384 C1385 1.377 . S
C1384 C1386 1.384 . S
C1385 C1384 1.377 . S
C1385 C1391 1.390 . S
C1386 H1377 0.930 . S
C1386 C1384 1.384 . S
C1386 C1387 1.372 . S
C1387 C1386 1.372 . S
C1387 C1388 1.400 . S
C1387 C1392 1.490 . S
C1388 H1378 0.930 . S
C1388 C1387 1.400 . S
C1388 C1391 1.386 . S
H1389 C1405 0.930 . S
H1390 C1406 0.931 . S
C1391 H1379 0.929 . S
C1391 C1385 1.390 . S
C1391 C1388 1.386 . S
C1392 C1387 1.490 . S
C1392 C1394 1.395 . S
C1392 C1395 1.403 . S
H1393 C1399 0.930 . S
C1394 H1380 0.930 . S
C1394 C1392 1.395 . S
C1394 C1397 1.403 . S
C1395 C1392 1.403 . S
C1395 C1396 1.524 . S
C1395 C1399 1.400 . S
C1396 H1381 0.960 . S
C1396 H1382 0.960 . S
C1396 H1383 0.960 . S
C1396 C1395 1.524 . S
C1397 C1394 1.403 . S
C1397 C1398 1.392 . S
C1397 C1401 1.495 . S
C1398 C1397 1.392 . S
C1398 C1399 1.385 . S
C1398 C1400 1.478 . S
C1399 H1393 0.930 . S
C1399 C1395 1.400 . S
C1399 C1398 1.385 . S
C1400 C1398 1.478 . S
C1400 C1402 1.381 . S
C1400 C1406 1.383 . S
C1401 C1397 1.495 . S
C1401 H1407 0.959 . S
C1401 H1408 0.961 . S
C1401 H1409 0.960 . S
C1402 C1400 1.381 . S
C1402 C1403 1.394 . S
C1402 H1410 0.930 . S
C1403 C1402 1.394 . S
C1403 C1404 1.383 . S
C1403 H1411 0.929 . S
C1404 C1403 1.383 . S
C1404 C1405 1.377 . S
C1405 H1389 0.930 . S
C1405 C1404 1.377 . S
C1405 C1406 1.379 . S
C1406 H1390 0.931 . S
C1406 C1400 1.383 . S
C1406 C1405 1.379 . S
H1407 C1401 0.959 . S
H1408 C1401 0.961 . S
H1409 C1401 0.960 . S
H1410 C1402 0.930 . S
H1411 C1403 0.929 . S
H1412 C1420 0.929 . S
H1413 C1422 0.930 . S
H1414 C1424 0.930 . S
H1415 C1427 0.929 . S
H1416 C1430 0.930 . S
H1417 C1432 0.960 . S
H1418 C1432 0.960 . S
H1419 C1432 0.960 . S
C1420 H1412 0.929 . S
C1420 C1421 1.377 . S
C1420 C1422 1.384 . S
C1421 C1420 1.377 . S
C1421 C1427 1.390 . S
C1422 H1413 0.930 . S
C1422 C1420 1.384 . S
C1422 C1423 1.372 . S
C1423 C1422 1.372 . S
C1423 C1424 1.400 . S
C1423 C1428 1.490 . S
C1424 H1414 0.930 . S
C1424 C1423 1.400 . S
C1424 C1427 1.386 . S
H1425 C1441 0.930 . S
H1426 C1442 0.931 . S
C1427 H1415 0.929 . S
C1427 C1421 1.390 . S
C1427 C1424 1.386 . S
C1428 C1423 1.490 . S
C1428 C1430 1.395 . S
C1428 C1431 1.403 . S
H1429 C1435 0.930 . S
C1430 H1416 0.930 . S
C1430 C1428 1.395 . S
C1430 C1433 1.403 . S
C1431 C1428 1.403 . S
C1431 C1432 1.524 . S
C1431 C1435 1.400 . S
C1432 H1417 0.960 . S
C1432 H1418 0.960 . S
C1432 H1419 0.960 . S
C1432 C1431 1.524 . S
C1433 C1430 1.403 . S
C1433 C1434 1.392 . S
C1433 C1437 1.495 . S
C1434 C1433 1.392 . S
C1434 C1435 1.385 . S
C1434 C1436 1.478 . S
C1435 H1429 0.930 . S
C1435 C1431 1.400 . S
C1435 C1434 1.385 . S
C1436 C1434 1.478 . S
C1436 C1438 1.381 . S
C1436 C1442 1.383 . S
C1437 C1433 1.495 . S
C1437 H1443 0.959 . S
C1437 H1444 0.961 . S
C1437 H1445 0.960 . S
C1438 C1436 1.381 . S
C1438 C1439 1.394 . S
C1438 H1446 0.930 . S
C1439 C1438 1.394 . S
C1439 C1440 1.383 . S
C1439 H1447 0.929 . S
C1440 C1439 1.383 . S
C1440 C1441 1.377 . S
C1441 H1425 0.930 . S
C1441 C1440 1.377 . S
C1441 C1442 1.379 . S
C1442 H1426 0.931 . S
C1442 C1436 1.383 . S
C1442 C1441 1.379 . S
H1443 C1437 0.959 . S
H1444 C1437 0.961 . S
H1445 C1437 0.960 . S
H1446 C1438 0.930 . S
H1447 C1439 0.929 . S
H1448 C1456 0.929 . S
H1449 C1458 0.930 . S
H1450 C1460 0.930 . S
H1451 C1463 0.929 . S
H1452 C1466 0.930 . S
H1453 C1468 0.960 . S
H1454 C1468 0.960 . S
H1455 C1468 0.960 . S
C1456 H1448 0.929 . S
C1456 C1457 1.377 . S
C1456 C1458 1.384 . S
C1457 C1456 1.377 . S
C1457 C1463 1.390 . S
C1458 H1449 0.930 . S
C1458 C1456 1.384 . S
C1458 C1459 1.372 . S
C1459 C1458 1.372 . S
C1459 C1460 1.400 . S
C1459 C1464 1.490 . S
C1460 H1450 0.930 . S
C1460 C1459 1.400 . S
C1460 C1463 1.386 . S
H1461 C1477 0.930 . S
H1462 C1478 0.931 . S
C1463 H1451 0.929 . S
C1463 C1457 1.390 . S
C1463 C1460 1.386 . S
C1464 C1459 1.490 . S
C1464 C1466 1.395 . S
C1464 C1467 1.403 . S
H1465 C1471 0.930 . S
C1466 H1452 0.930 . S
C1466 C1464 1.395 . S
C1466 C1469 1.403 . S
C1467 C1464 1.403 . S
C1467 C1468 1.524 . S
C1467 C1471 1.400 . S
C1468 H1453 0.960 . S
C1468 H1454 0.960 . S
C1468 H1455 0.960 . S
C1468 C1467 1.524 . S
C1469 C1466 1.403 . S
C1469 C1470 1.392 . S
C1469 C1473 1.495 . S
C1470 C1469 1.392 . S
C1470 C1471 1.385 . S
C1470 C1472 1.478 . S
C1471 H1465 0.930 . S
C1471 C1467 1.400 . S
C1471 C1470 1.385 . S
C1472 C1470 1.478 . S
C1472 C1474 1.381 . S
C1472 C1478 1.383 . S
C1473 C1469 1.495 . S
C1473 H1479 0.959 . S
C1473 H1480 0.961 . S
C1473 H1481 0.960 . S
C1474 C1472 1.381 . S
C1474 C1475 1.394 . S
C1474 H1482 0.930 . S
C1475 C1474 1.394 . S
C1475 C1476 1.383 . S
C1475 H1483 0.929 . S
C1476 C1475 1.383 . S
C1476 C1477 1.377 . S
C1477 H1461 0.930 . S
C1477 C1476 1.377 . S
C1477 C1478 1.379 . S
C1478 H1462 0.931 . S
C1478 C1472 1.383 . S
C1478 C1477 1.379 . S
H1479 C1473 0.959 . S
H1480 C1473 0.961 . S
H1481 C1473 0.960 . S
H1482 C1474 0.930 . S
H1483 C1475 0.929 . S
H1484 C1492 0.929 . S
H1485 C1494 0.930 . S
H1486 C1496 0.930 . S
H1487 C1499 0.929 . S
H1488 C1502 0.930 . S
H1489 C1504 0.960 . S
H1490 C1504 0.960 . S
H1491 C1504 0.960 . S
C1492 H1484 0.929 . S
C1492 C1493 1.377 . S
C1492 C1494 1.384 . S
C1493 C1492 1.377 . S
C1493 C1499 1.390 . S
C1494 H1485 0.930 . S
C1494 C1492 1.384 . S
C1494 C1495 1.372 . S
C1495 C1494 1.372 . S
C1495 C1496 1.400 . S
C1495 C1500 1.490 . S
C1496 H1486 0.930 . S
C1496 C1495 1.400 . S
C1496 C1499 1.386 . S
H1497 C1513 0.930 . S
H1498 C1514 0.931 . S
C1499 H1487 0.929 . S
C1499 C1493 1.390 . S
C1499 C1496 1.386 . S
C1500 C1495 1.490 . S
C1500 C1502 1.395 . S
C1500 C1503 1.403 . S
H1501 C1507 0.930 . S
C1502 H1488 0.930 . S
C1502 C1500 1.395 . S
C1502 C1505 1.403 . S
C1503 C1500 1.403 . S
C1503 C1504 1.524 . S
C1503 C1507 1.400 . S
C1504 H1489 0.960 . S
C1504 H1490 0.960 . S
C1504 H1491 0.960 . S
C1504 C1503 1.524 . S
C1505 C1502 1.403 . S
C1505 C1506 1.392 . S
C1505 C1509 1.495 . S
C1506 C1505 1.392 . S
C1506 C1507 1.385 . S
C1506 C1508 1.478 . S
C1507 H1501 0.930 . S
C1507 C1503 1.400 . S
C1507 C1506 1.385 . S
C1508 C1506 1.478 . S
C1508 C1510 1.381 . S
C1508 C1514 1.383 . S
C1509 C1505 1.495 . S
C1509 H1515 0.959 . S
C1509 H1516 0.961 . S
C1509 H1517 0.960 . S
C1510 C1508 1.381 . S
C1510 C1511 1.394 . S
C1510 H1518 0.930 . S
C1511 C1510 1.394 . S
C1511 C1512 1.383 . S
C1511 H1519 0.929 . S
C1512 C1511 1.383 . S
C1512 C1513 1.377 . S
C1513 H1497 0.930 . S
C1513 C1512 1.377 . S
C1513 C1514 1.379 . S
C1514 H1498 0.931 . S
C1514 C1508 1.383 . S
C1514 C1513 1.379 . S
H1515 C1509 0.959 . S
H1516 C1509 0.961 . S
H1517 C1509 0.960 . S
H1518 C1510 0.930 . S
H1519 C1511 0.929 . S
C377 C7 0.946 . S
C396 N94 0.924 . S
C413 N35 0.952 . S
C432 C131 0.949 . S
C449 N140 0.945 1_545 S
C468 C53 0.962 . S
C485 N81 0.971 . S
C504 C177 0.982 . S
C521 N104 0.919 . S
C540 C16 0.929 . S
C557 N242 0.264 . S
C576 N186 0.389 . S
C593 N150 0.903 . S
C612 C62 0.919 . S
C629 N209 0.905 . S
C648 C260 0.918 . S
C665 C283 0.959 . S
C684 N324 0.976 . S
C701 N196 0.332 . S
C720 N232 0.296 . S
C737 C306 0.936 . S
C756 N347 0.952 . S
C773 C269 0.976 . S
C792 N219 0.949 . S
C809 N334 0.910 . S
C828 C292 0.902 . S
C845 N25 0.925 . S
C864 C122 0.926 . S
C881 C315 0.928 . S
C900 N357 0.903 . S
C917 C168 0.918 . S
C936 N71 0.930 . S
C953 N12 1.478 . S
C972 N163 1.434 . S
C989 C108 1.595 . S
C1008 C30 1.591 . S
C1025 N117 1.607 . S
C1044 N58 1.615 . S
C1061 C76 1.609 . S
C1080 C154 1.611 . S
C1097 N2 1.493 . S
C1116 N265 1.497 . S
C1133 C200 1.559 . S
C1152 C99 1.575 . S
C1169 C237 1.668 . S
C1188 N48 1.665 . S
C1205 C223 1.607 . S
C1224 C145 1.613 . S
C1241 N288 1.474 . S
C1260 N255 1.455 . S
C1277 C338 1.583 . S
C1296 C191 1.577 . S
C1313 C246 1.641 . S
C1332 N311 1.621 . S
C1349 C361 1.554 1_655 S
C1368 C214 1.556 . S
C1385 N173 1.494 . S
C1404 N278 1.484 . S
C1421 C329 1.579 . S
C1440 C39 1.576 . S
C1457 N127 1.640 . S
C1476 N301 1.645 . S
C1493 C352 1.556 . S
C1512 C85 1.535 . S
