# Generated by pormake.
# Topology umw, (4)-cn, num edge types: 1
# Building blocks:
#     Node 0, Type 0, BuildingBlock: KUFVIS_clean_sbu_0, # of connection points: 4
#     Node 1, Type 0, BuildingBlock: KUFVIS_clean_sbu_0, # of connection points: 4
#     Node 2, Type 0, BuildingBlock: KUFVIS_clean_sbu_0, # of connection points: 4
#     Node 3, Type 0, BuildingBlock: KUFVIS_clean_sbu_0, # of connection points: 4
#     Node 4, Type 0, BuildingBlock: KUFVIS_clean_sbu_0, # of connection points: 4
#     Node 5, Type 0, BuildingBlock: KUFVIS_clean_sbu_0, # of connection points: 4
#     Node 6, Type 0, BuildingBlock: KUFVIS_clean_sbu_0, # of connection points: 4
#     Node 7, Type 0, BuildingBlock: KUFVIS_clean_sbu_0, # of connection points: 4
#     Edge 8, Type (0, 0), BuildingBlock: AJUNOK_clean_linker_0, # of connection points: 2
#     Edge 9, Type (0, 0), BuildingBlock: AJUNOK_clean_linker_0, # of connection points: 2
#     Edge 10, Type (0, 0), BuildingBlock: AJUNOK_clean_linker_0, # of connection points: 2
#     Edge 11, Type (0, 0), BuildingBlock: AJUNOK_clean_linker_0, # of connection points: 2
#     Edge 12, Type (0, 0), BuildingBlock: AJUNOK_clean_linker_0, # of connection points: 2
#     Edge 13, Type (0, 0), BuildingBlock: AJUNOK_clean_linker_0, # of connection points: 2
#     Edge 14, Type (0, 0), BuildingBlock: AJUNOK_clean_linker_0, # of connection points: 2
#     Edge 15, Type (0, 0), BuildingBlock: AJUNOK_clean_linker_0, # of connection points: 2
#     Edge 16, Type (0, 0), BuildingBlock: AJUNOK_clean_linker_0, # of connection points: 2
#     Edge 17, Type (0, 0), BuildingBlock: AJUNOK_clean_linker_0, # of connection points: 2
#     Edge 18, Type (0, 0), BuildingBlock: AJUNOK_clean_linker_0, # of connection points: 2
#     Edge 19, Type (0, 0), BuildingBlock: AJUNOK_clean_linker_0, # of connection points: 2
#     Edge 20, Type (0, 0), BuildingBlock: AJUNOK_clean_linker_0, # of connection points: 2
#     Edge 21, Type (0, 0), BuildingBlock: AJUNOK_clean_linker_0, # of connection points: 2
#     Edge 22, Type (0, 0), BuildingBlock: AJUNOK_clean_linker_0, # of connection points: 2
#     Edge 23, Type (0, 0), BuildingBlock: AJUNOK_clean_linker_0, # of connection points: 2
# Relax obj value: 0.127
# Max RMSD: 0.104
# Mean RMSD: 0.104
data_MOF--net-umw--node1-KUFVIS_clean_sbu_0--edge1-AJUNOK_clean_linker_0
_symmetry_space_group_name_H-M    P1
_symmetry_Int_Tables_number       1
_symmetry_cell_setting            triclinic
loop_
_symmetry_equiv_pos_as_xyz
'x, y, z'
_cell_length_a     29.730499
_cell_length_b     29.723818
_cell_length_c     19.220235
_cell_angle_alpha  90.081953
_cell_angle_beta   89.287003
_cell_angle_gamma 89.62011
loop_
_atom_site_label
_atom_site_type_symbol
_atom_site_fract_x
_atom_site_fract_y
_atom_site_fract_z
_atom_type_partial_charge
Mn0 Mn 0.44701 0.20676 0.27852 0.0
Mn1 Mn 0.55886 0.18593 0.27928 0.0
C2 C 0.48501 0.20037 0.37935 0.0
C3 C 0.38913 0.26117 0.29425 0.0
C4 C 0.48956 0.11148 0.27391 0.0
O5 O 0.46424 0.2199 0.17657 0.0
O6 O 0.53571 0.19563 0.18566 0.0
C7 C 0.58141 0.27869 0.23417 0.0
N8 N 0.58498 0.24478 0.28152 0.0
C9 C 0.62801 0.29175 0.35792 0.0
C10 C 0.62461 0.32707 0.31002 0.0
C11 C 0.60123 0.32048 0.24786 0.0
C12 C 0.60692 0.25105 0.34195 0.0
H13 H 0.56348 0.27414 0.1863 0.0
C14 C 0.50269 0.2096 0.14993 0.0
O15 O 0.38005 0.22088 0.2718 0.0
O16 O 0.43117 0.27092 0.29674 0.0
N17 N 0.58856 0.17673 0.36604 0.0
C18 C 0.59944 0.13663 0.39579 0.0
C19 C 0.62666 0.13571 0.45499 0.0
C20 C 0.64418 0.17595 0.4812 0.0
C21 C 0.63658 0.21623 0.44535 0.0
C22 C 0.60956 0.21476 0.38611 0.0
H23 H 0.58804 0.1056 0.37364 0.0
O24 O 0.44204 0.19529 0.37918 0.0
O25 O 0.50481 0.21102 0.32149 0.0
O26 O 0.45521 0.13739 0.26364 0.0
O27 O 0.52998 0.12592 0.28189 0.0
C28 C 0.65694 0.25716 0.46363 0.0
C29 C 0.6523 0.29506 0.42022 0.0
H30 H 0.64021 0.35922 0.32008 0.0
H31 H 0.59855 0.34754 0.2105 0.0
H32 H 0.63442 0.10404 0.47995 0.0
H33 H 0.66522 0.17517 0.5268 0.0
H34 H 0.67731 0.25951 0.50984 0.0
H35 H 0.66875 0.32616 0.43411 0.0
Mn36 Mn 0.83905 0.45879 0.53906 0.0
Mn37 Mn 0.88283 0.56298 0.55237 0.0
C38 C 0.83702 0.4962 0.64311 0.0
C39 C 0.77994 0.40668 0.54443 0.0
C40 C 0.9397 0.47933 0.5535 0.0
O41 O 0.83662 0.4793 0.43723 0.0
O42 O 0.87575 0.54298 0.45532 0.0
C43 C 0.80933 0.61558 0.48726 0.0
N44 N 0.83835 0.60896 0.54063 0.0
C45 C 0.82022 0.68152 0.58967 0.0
C46 C 0.79024 0.68916 0.53513 0.0
C47 C 0.78451 0.65589 0.48404 0.0
C48 C 0.84368 0.64053 0.59048 0.0
H49 H 0.80545 0.59058 0.44709 0.0
C50 C 0.85657 0.51484 0.41524 0.0
O51 O 0.8202 0.39429 0.52494 0.0
O52 O 0.7729 0.44968 0.54663 0.0
N53 N 0.89135 0.58847 0.64231 0.0
C54 C 0.91771 0.57365 0.69499 0.0
C55 C 0.92451 0.6015 0.75276 0.0
C56 C 0.90494 0.64463 0.75528 0.0
C57 C 0.87775 0.6591 0.70047 0.0
C58 C 0.87178 0.62963 0.64453 0.0
H59 H 0.93287 0.54063 0.69318 0.0
O60 O 0.84046 0.45289 0.64003 0.0
O61 O 0.83848 0.51834 0.58462 0.0
O62 O 0.90895 0.45236 0.53403 0.0
O63 O 0.9323 0.52064 0.56621 0.0
C64 C 0.85554 0.70114 0.69977 0.0
C65 C 0.82685 0.71238 0.64433 0.0
H66 H 0.77109 0.72023 0.53237 0.0
H67 H 0.76137 0.6615 0.44186 0.0
H68 H 0.94488 0.5897 0.79502 0.0
H69 H 0.91041 0.66602 0.80001 0.0
H70 H 0.85959 0.72469 0.74225 0.0
H71 H 0.80926 0.74441 0.64506 0.0
Mn72 Mn 0.6045 0.85396 0.80406 0.0
Mn73 Mn 0.49354 0.87813 0.79961 0.0
C74 C 0.5658 0.87595 0.90296 0.0
C75 C 0.65862 0.79739 0.83145 0.0
C76 C 0.56613 0.94537 0.758 0.0
O77 O 0.58622 0.82823 0.7085 0.0
O78 O 0.51239 0.84476 0.7157 0.0
C79 C 0.46486 0.78335 0.81534 0.0
N80 N 0.46335 0.82687 0.83763 0.0
C81 C 0.41676 0.80696 0.93609 0.0
C82 C 0.41727 0.76209 0.91355 0.0
C83 C 0.44157 0.75022 0.85305 0.0
C84 C 0.44102 0.8384 0.89676 0.0
H85 H 0.48409 0.77387 0.76958 0.0
C86 C 0.54618 0.82726 0.68411 0.0
O87 O 0.67028 0.83372 0.79815 0.0
O88 O 0.6161 0.79255 0.84146 0.0
N89 N 0.46896 0.91035 0.87767 0.0
C90 C 0.46764 0.95577 0.88755 0.0
C91 C 0.44174 0.97384 0.94258 0.0
C92 C 0.41747 0.94507 -0.0131 0.0
C93 C 0.41789 0.89865 0.9741 0.0
C94 C 0.44307 0.8828 0.91697 0.0
H95 H 0.48581 0.97813 0.85323 0.0
O96 O 0.60913 0.8784 0.90036 0.0
O97 O 0.5469 0.85983 0.84835 0.0
O98 O 0.60069 0.9198 0.76755 0.0
O99 O 0.52528 0.93201 0.76491 0.0
C100 C 0.39326 0.86766 0.01453 0.0
C101 C 0.39315 0.82172 -0.00397 0.0
H102 H 0.39924 0.73646 0.94239 0.0
H103 H 0.44248 0.71558 0.83565 0.0
H104 H 0.4408 1.00983 0.95118 0.0
H105 H 0.39797 0.95906 0.02977 0.0
H106 H 0.37406 0.87885 0.05966 0.0
H107 H 0.37421 0.79816 0.02761 0.0
Mn108 Mn 0.22687 0.60082 0.04327 0.0
Mn109 Mn 0.18195 0.49673 0.03461 0.0
C110 C 0.1987 0.56524 0.14152 0.0
C111 C 0.28698 0.64794 0.07416 0.0
C112 C 0.12992 0.58219 0.00058 0.0
O113 O 0.24961 0.57885 0.94582 0.0
O114 O 0.21614 0.51118 0.94915 0.0
C115 C 0.27086 0.45128 0.04145 0.0
N116 N 0.22788 0.45624 0.06583 0.0
C117 C 0.24176 0.40442 0.15954 0.0
C118 C 0.2857 0.39783 0.13413 0.0
C119 C 0.30038 0.42157 0.07506 0.0
C120 C 0.21397 0.43472 0.12411 0.0
H121 H 0.28286 0.47046 -0.00251 0.0
C122 C 0.24076 0.54029 0.9186 0.0
O123 O 0.25335 0.66321 0.03826 0.0
O124 O 0.28868 0.60475 0.08171 0.0
N125 N 0.14771 0.47606 0.11319 0.0
C126 C 0.1031 0.48302 0.12704 0.0
C127 C 0.08242 0.46035 0.18287 0.0
C128 C 0.10745 0.42975 0.22261 0.0
C129 C 0.15262 0.42123 0.20499 0.0
C130 C 0.17114 0.44433 0.14808 0.0
H131 H 0.08335 0.50556 0.09563 0.0
O132 O 0.20304 0.6084 0.14025 0.0
O133 O 0.21155 0.54404 0.08593 0.0
O134 O 0.16255 0.60966 0.00717 0.0
O135 O 0.13349 0.53939 0.00791 0.0
C136 C 0.17981 0.39035 0.24113 0.0
C137 C 0.22457 0.38238 0.21895 0.0
H138 H 0.30858 0.37499 0.15999 0.0
H139 H 0.33451 0.41729 0.05583 0.0
H140 H 0.04726 0.46639 0.1951 0.0
H141 H 0.09153 0.41257 0.26593 0.0
H142 H 0.16664 0.37255 0.28602 0.0
H143 H 0.24532 0.35887 0.24753 0.0
Mn144 Mn 0.45059 0.82168 0.2673 0.0
Mn145 Mn 0.56135 0.84775 0.26772 0.0
C146 C 0.4867 0.84046 0.16663 0.0
C147 C 0.39695 0.7647 0.24871 0.0
C148 C 0.48742 0.91689 0.29543 0.0
O149 O 0.46897 0.80318 0.36656 0.0
O150 O 0.54108 0.82408 0.35786 0.0
C151 C 0.58986 0.75226 0.27746 0.0
N152 N 0.59111 0.79248 0.24357 0.0
C153 C 0.63673 0.76084 0.15118 0.0
C154 C 0.63604 0.71917 0.18522 0.0
C155 C 0.61244 0.71487 0.2486 0.0
C156 C 0.61296 0.79671 0.18185 0.0
H157 H 0.57156 0.74862 0.32595 0.0
C158 C 0.50814 0.80808 0.39252 0.0
O159 O 0.38527 0.80288 0.27725 0.0
O160 O 0.43949 0.75823 0.23957 0.0
N161 N 0.58859 0.87119 0.18488 0.0
C162 C 0.59524 0.91531 0.1689 0.0
C163 C 0.62173 0.92662 0.11052 0.0
C164 C 0.64247 0.8925 0.07073 0.0
C165 C 0.6387 0.84763 0.09217 0.0
C166 C 0.61242 0.83862 0.15148 0.0
H167 H 0.58018 0.94163 0.20044 0.0
O168 O 0.4434 0.84003 0.16938 0.0
O169 O 0.50813 0.82616 0.2208 0.0
O170 O 0.45376 0.88969 0.29354 0.0
O171 O 0.52888 0.90475 0.28798 0.0
C172 C 0.66203 0.81186 0.05941 0.0
C173 C 0.66071 0.76838 0.08863 0.0
H174 H 0.65375 0.69036 0.16342 0.0
H175 H 0.61169 0.6828 0.27518 0.0
H176 H 0.62614 0.96154 0.09628 0.0
H177 H 0.66276 0.90131 0.02565 0.0
H178 H 0.68206 0.81767 0.01287 0.0
H179 H 0.6794 0.74129 0.06385 0.0
Mn180 Mn 0.22453 0.43706 0.50115 0.0
Mn181 Mn 0.19471 0.54707 0.51299 0.0
C182 C 0.20175 0.47668 0.40468 0.0
C183 C 0.27921 0.38228 0.46961 0.0
C184 C 0.13133 0.47043 0.54915 0.0
O185 O 0.24814 0.45483 0.59908 0.0
O186 O 0.22685 0.52763 0.59655 0.0
C187 C 0.28826 0.58042 0.50298 0.0
N188 N 0.2453 0.58043 0.47914 0.0
C189 C 0.26548 0.62938 0.38418 0.0
C190 C 0.30984 0.6301 0.40799 0.0
C191 C 0.32128 0.60546 0.46761 0.0
C192 C 0.23415 0.60341 0.42114 0.0
H193 H 0.29738 0.56109 0.54824 0.0
C194 C 0.24529 0.49427 0.6269 0.0
O195 O 0.24327 0.37142 0.50496 0.0
O196 O 0.28603 0.42494 0.46246 0.0
N197 N 0.16303 0.57237 0.43615 0.0
C198 C 0.1179 0.57166 0.42442 0.0
C199 C 0.1001 0.59709 0.36953 0.0
C200 C 0.12873 0.62373 0.32825 0.0
C201 C 0.17473 0.6255 0.34329 0.0
C202 C 0.1903 0.60013 0.39952 0.0
H203 H 0.09565 0.55172 0.45655 0.0
O204 O 0.20123 0.43327 0.4045 0.0
O205 O 0.21701 0.4957 0.46008 0.0
O206 O 0.15898 0.4379 0.5376 0.0
O207 O 0.14146 0.51224 0.54395 0.0
C208 C 0.20561 0.65192 0.30534 0.0
C209 C 0.25111 0.65338 0.3252 0.0
H210 H 0.33538 0.6494 0.38088 0.0
H211 H 0.3555 0.60564 0.48612 0.0
H212 H 0.06445 0.59607 0.35897 0.0
H213 H 0.11499 0.64292 0.28552 0.0
H214 H 0.19471 0.67135 0.26091 0.0
H215 H 0.27461 0.6736 0.29539 0.0
Mn216 Mn 0.60797 0.23564 0.73543 0.0
Mn217 Mn 0.49535 0.21918 0.74066 0.0
C218 C 0.56908 0.22668 0.63627 0.0
C219 C 0.66493 0.29003 0.71697 0.0
C220 C 0.56322 0.14201 0.75087 0.0
O221 O 0.59322 0.24901 0.83779 0.0
O222 O 0.51976 0.23178 0.83273 0.0
C223 C 0.47772 0.31506 0.77497 0.0
N224 N 0.47134 0.27897 0.73247 0.0
C225 C 0.42826 0.32409 0.653 0.0
C226 C 0.43413 0.36154 0.69627 0.0
C227 C 0.45906 0.35699 0.75744 0.0
C228 C 0.4483 0.2833 0.67263 0.0
H229 H 0.49721 0.31208 0.82165 0.0
C230 C 0.55445 0.24351 0.866 0.0
O231 O 0.67505 0.24997 0.73971 0.0
O232 O 0.6227 0.29927 0.71518 0.0
N233 N 0.46383 0.20723 0.65625 0.0
C234 C 0.45109 0.16637 0.63149 0.0
C235 C 0.42288 0.1639 0.57352 0.0
C236 C 0.40604 0.20355 0.54377 0.0
C237 C 0.41552 0.24502 0.57482 0.0
C238 C 0.44363 0.24513 0.63288 0.0
H239 H 0.4624 0.13595 0.65596 0.0
O240 O 0.61218 0.22273 0.63524 0.0
O241 O 0.54964 0.23926 0.69385 0.0
O242 O 0.59882 0.16681 0.75356 0.0
O243 O 0.52283 0.15789 0.74467 0.0
C244 C 0.396 0.28584 0.55301 0.0
C245 C 0.40269 0.32549 0.59176 0.0
H246 H 0.41945 0.39385 0.68324 0.0
H247 H 0.4639 0.38577 0.79102 0.0
H248 H 0.41392 0.1315 0.5522 0.0
H249 H 0.38409 0.20161 0.49931 0.0
H250 H 0.3748 0.28686 0.50764 0.0
H251 H 0.38692 0.35656 0.57514 0.0
Mn252 Mn 0.84138 0.62738 -0.00108 0.0
Mn253 Mn 0.88559 0.52116 0.01146 0.0
C254 C 0.84334 0.58263 0.90161 0.0
C255 C 0.78173 0.67952 -0.01341 0.0
C256 C 0.94185 0.60572 0.00993 0.0
O257 O 0.83585 0.61459 0.10404 0.0
O258 O 0.86338 0.54337 0.10165 0.0
C259 C 0.80527 0.46836 0.05186 0.0
N260 N 0.84265 0.47379 0.01128 0.0
C261 C 0.83454 0.40017 0.9609 0.0
C262 C 0.79604 0.3936 0.00252 0.0
C263 C 0.78127 0.4279 0.048 0.0
C264 C 0.8576 0.44075 0.96806 0.0
H265 H 0.7941 0.49465 0.08701 0.0
C266 C 0.84574 0.57698 0.13316 0.0
O267 O 0.82177 0.69236 0.0037 0.0
O268 O 0.77503 0.63647 -0.0124 0.0
N269 N 0.90945 0.49368 0.92905 0.0
C270 C 0.94227 0.50861 0.885 0.0
C271 C 0.95836 0.4802 0.83169 0.0
C272 C 0.94104 0.43653 0.82509 0.0
C273 C 0.90764 0.4217 0.87177 0.0
C274 C 0.8934 0.45128 0.92443 0.0
H275 H 0.95621 0.54178 0.89102 0.0
O276 O 0.8459 0.62595 0.89765 0.0
O277 O 0.8443 0.56468 0.96381 0.0
O278 O 0.91044 0.63487 0.00522 0.0
O279 O 0.93503 0.56378 0.01315 0.0
C280 C 0.88631 0.37968 0.86598 0.0
C281 C 0.84981 0.36892 0.91051 0.0
H282 H 0.77705 0.36272 -0.001 0.0
H283 H 0.75145 0.42315 0.07994 0.0
H284 H 0.98412 0.49189 0.7959 0.0
H285 H 0.95306 0.41497 0.78324 0.0
H286 H 0.8967 0.356 0.82592 0.0
H287 H 0.83279 0.33711 0.90401 0.0
C288 C 0.51542 0.24935 0.46756 0.0
C289 C 0.50667 0.20566 0.44443 0.0
C290 C 0.53441 0.25602 0.53222 0.0
C291 C 0.5455 0.21898 0.57337 0.0
H292 H 0.50716 0.27829 0.4358 0.0
H293 H 0.54115 0.28999 0.54963 0.0
S294 S 0.52901 0.09835 0.53446 0.0
N295 N 0.50749 0.12537 0.46741 0.0
N296 N 0.5491 0.13765 0.58629 0.0
C297 C 0.53819 0.17516 0.54973 0.0
C298 C 0.51648 0.16853 0.48582 0.0
C299 C 0.83362 0.49163 0.77084 0.0
C300 C 0.8263 0.51674 0.71028 0.0
C301 C 0.83024 0.5125 0.83525 0.0
C302 C 0.82738 0.55875 0.83991 0.0
H303 H 0.84171 0.45607 0.76883 0.0
H304 H 0.82834 0.49322 0.8811 0.0
S305 S 0.76304 0.62429 0.71135 0.0
N306 N 0.78059 0.57909 0.6682 0.0
N307 N 0.7854 0.621 0.7895 0.0
C308 C 0.80756 0.58106 0.78354 0.0
C309 C 0.80542 0.55889 0.71812 0.0
C310 C 0.5212 0.81582 0.05774 0.0
C311 C 0.50833 0.85121 0.10163 0.0
C312 C 0.53889 0.82481 -0.00785 0.0
C313 C 0.54494 0.86933 0.97009 0.0
H314 H 0.51699 0.78115 0.0739 0.0
H315 H 0.54851 0.79683 0.95878 0.0
S316 S 0.51759 0.9733 0.06813 0.0
N317 N 0.50006 0.93187 0.11874 0.0
N318 N 0.53975 0.94899 -0.00194 0.0
C319 C 0.53312 0.90502 0.01413 0.0
C320 C 0.51251 0.89581 0.07933 0.0
C321 C 0.15943 0.51034 0.30732 0.0
C322 C 0.20046 0.50015 0.33879 0.0
C323 C 0.15868 0.5339 0.24441 0.0
C324 C 0.19884 0.54281 0.20843 0.0
H325 H 0.12797 0.50115 0.33232 0.0
H326 H 0.12674 0.54443 0.22331 0.0
S327 S 0.31471 0.5203 0.26785 0.0
N328 N 0.28198 0.50109 0.33102 0.0
N329 N 0.28049 0.54013 0.20803 0.0
C330 C 0.23999 0.5315 0.23855 0.0
C331 C 0.24081 0.51061 0.3046 0.0
C332 C 0.36749 0.33698 0.34103 0.0
C333 C 0.35623 0.29142 0.33162 0.0
C334 C 0.34327 0.36513 0.38708 0.0
C335 C 0.30651 0.34929 0.42693 0.0
H336 H 0.39617 0.351 0.31352 0.0
H337 H 0.3537 0.39986 0.39131 0.0
S338 S 0.26303 0.23243 0.42291 0.0
N339 N 0.30568 0.23154 0.36697 0.0
N340 N 0.25978 0.28447 0.45299 0.0
C341 C 0.29444 0.30383 0.41773 0.0
C342 C 0.31921 0.27502 0.37026 0.0
C343 C 0.76192 0.33101 0.59978 0.0
C344 C 0.74891 0.37562 0.58365 0.0
C345 C 0.73635 0.30398 0.64612 0.0
C346 C 0.69692 0.32055 0.67903 0.0
H347 H 0.79246 0.31694 0.57716 0.0
H348 H 0.747 0.26955 0.65484 0.0
S349 S 0.64845 0.43522 0.65662 0.0
N350 N 0.69336 0.43463 0.60542 0.0
N351 N 0.64687 0.38503 0.69296 0.0
C352 C 0.68396 0.36519 0.66389 0.0
C353 C 0.70937 0.39227 0.61617 0.0
C354 C 0.76339 0.75247 0.92436 0.0
C355 C 0.7491 0.71068 0.95152 0.0
C356 C 0.73501 0.7795 0.88288 0.0
C357 C 0.69092 0.76609 0.86696 0.0
H358 H 0.79718 0.76411 0.93402 0.0
H359 H 0.74743 0.81155 0.86439 0.0
S360 S 0.63669 0.66002 0.92574 0.0
N361 N 0.68748 0.65764 0.9592 0.0
N362 N 0.63448 0.70789 0.88252 0.0
C363 C 0.67628 0.72442 0.89402 0.0
C364 C 0.70515 0.69695 0.93579 0.0
C365 C 0.30571 0.72404 0.12602 0.0
C366 C 0.31596 0.67785 0.11771 0.0
C367 C 0.32969 0.75151 0.17267 0.0
C368 C 0.36502 0.73401 0.21295 0.0
H369 H 0.27877 0.73916 0.09649 0.0
H370 H 0.32171 0.7871 0.175 0.0
S371 S 0.40418 0.61528 0.2142 0.0
N372 N 0.36333 0.61593 0.15684 0.0
N373 N 0.40803 0.66741 0.24305 0.0
C374 C 0.37504 0.68791 0.20611 0.0
C375 C 0.35071 0.65995 0.15903 0.0
C376 C 0.50883 0.99235 0.33881 0.0
C377 C 0.47936 0.96617 0.29955 0.0
C378 C 0.51012 0.03913 0.33167 0.0
C379 C 0.48278 0.06215 0.28389 0.0
H380 H 0.53235 0.97633 0.37375 0.0
H381 H 0.53345 0.05722 0.36349 0.0
S382 S 0.39715 1.00947 0.17186 0.0
N383 N 0.4196 0.96671 0.21432 0.0
N384 N 0.42272 0.0551 0.20004 0.0
C385 C 0.45121 0.03671 0.24695 0.0
C386 C 0.44945 0.98866 0.25487 0.0
C387 C 1.0125 0.48336 0.61522 0.0
C388 C 0.98713 0.4644 0.56112 0.0
C389 C 0.05956 0.48176 0.61435 0.0
C390 C 0.0832 0.46028 0.56011 0.0
H391 H 0.99604 0.5023 0.65637 0.0
H392 H 0.07761 0.49976 0.65423 0.0
S393 S 0.0333 0.40171 0.40935 0.0
N394 N 0.98936 0.42064 0.45438 0.0
N395 N 0.07818 0.41671 0.45344 0.0
C396 C 0.05844 0.43786 0.50871 0.0
C397 C 1.01026 0.43998 0.50916 0.0
C398 C 0.53552 1.01895 0.71793 0.0
C399 C 0.57167 0.99475 0.74637 0.0
C400 C 0.53367 0.0659 0.71999 0.0
C401 C 0.56823 0.09175 0.74916 0.0
H402 H 0.50713 1.00138 0.69613 0.0
H403 H 0.5042 0.0818 0.69892 0.0
S404 S 0.67194 0.04537 0.8283 0.0
N405 N 0.64395 1.00034 0.80363 0.0
N406 N 0.64114 0.0892 0.80507 0.0
C407 C 0.60583 0.06826 0.77509 0.0
C408 C 0.60745 1.01981 0.77401 0.0
C409 C 1.0141 0.60856 0.07048 0.0
C410 C 0.9896 0.61861 0.01038 0.0
C411 C 0.06048 0.60018 0.06685 0.0
C412 C 0.08389 0.60088 0.00285 0.0
H413 H 0.99665 0.60318 0.11958 0.0
H414 H 0.07762 0.59007 0.11383 0.0
S415 S 0.0367 0.63155 0.83214 0.0
N416 N 0.9932 0.63421 0.8865 0.0
N417 N 0.08057 0.61726 0.87949 0.0
C418 C 0.06078 0.61454 0.94337 0.0
C419 C 1.01349 0.62376 0.94727 0.0
C420 C 0.51499 0.26726 0.9747 0.0
C421 C 0.54873 0.24101 0.94169 0.0
C422 C 0.49824 0.2561 0.04118 0.0
C423 C 0.51392 0.21762 0.07582 0.0
H424 H 0.50052 0.29585 0.948 0.0
H425 H 0.47339 0.2779 0.06576 0.0
S426 S 0.59826 0.13509 0.00768 0.0
N427 N 0.5951 0.17382 0.94646 0.0
N428 N 0.56312 0.15171 0.06988 0.0
C429 C 0.54703 0.19068 0.04235 0.0
C430 C 0.56465 0.2027 -0.02417 0.0
C431 C 0.80981 0.54226 0.23678 0.0
C432 C 0.84293 0.57093 0.20872 0.0
C433 C 0.81495 0.52226 0.30259 0.0
C434 C 0.85393 0.5295 0.34167 0.0
H435 H 0.78058 0.53385 0.2064 0.0
H436 H 0.78819 0.50137 0.3231 0.0
S437 S 0.9523 0.59845 0.28753 0.0
N438 N 0.91655 0.60373 0.22299 0.0
N439 N 0.9272 0.56577 0.34529 0.0
C440 C 0.88747 0.55775 0.31331 0.0
C441 C 0.8817 0.57859 0.24734 0.0
C442 C 0.57175 0.808 0.56257 0.0
C443 C 0.53721 0.8098 0.61278 0.0
C444 C 0.56195 0.8031 0.49176 0.0
C445 C 0.51713 0.80025 0.46785 0.0
H446 H 0.60634 0.81357 0.57727 0.0
H447 H 0.5899 0.80449 0.45514 0.0
S448 S 0.41532 0.79178 0.58001 0.0
N449 N 0.45689 0.79914 0.63492 0.0
N450 N 0.43881 0.79138 0.50175 0.0
C451 C 0.48276 0.79691 0.5181 0.0
C452 C 0.49272 0.80143 0.59046 0.0
C453 C 0.26068 0.5606 0.79442 0.0
C454 C 0.25549 0.52772 0.84609 0.0
C455 C 0.26215 0.54871 0.72345 0.0
C456 C 0.25823 0.50343 0.70076 0.0
H457 H 0.26016 0.59593 0.80833 0.0
H458 H 0.26325 0.57578 0.6858 0.0
S459 S 0.25456 0.40373 0.8159 0.0
N460 N 0.25476 0.44701 0.86978 0.0
N461 N 0.25656 0.42538 0.73691 0.0
C462 C 0.25809 0.47001 0.75206 0.0
C463 C 0.25682 0.48199 0.82441 0.0
loop_
_geom_bond_atom_site_label_1
_geom_bond_atom_site_label_2
_geom_bond_distance
_geom_bond_site_symmetry_2
_ccdc_geom_bond_type
Mn0 O5 2.095 . S
Mn0 O15 2.162 . S
Mn0 O16 2.297 . S
Mn0 O24 2.385 . S
Mn0 O25 2.209 . S
Mn0 O26 2.094 . S
Mn1 O6 2.121 . S
Mn1 N8 2.257 . S
Mn1 N17 2.282 . S
Mn1 O25 2.215 . S
Mn1 O27 2.117 . S
C2 O24 1.234 . S
C2 O25 1.283 . S
C3 O15 1.281 . S
C3 O16 1.236 . S
C4 O26 1.240 . S
C4 O27 1.264 . S
O5 Mn0 2.095 . S
O5 C14 1.250 . S
O6 Mn1 2.121 . S
O6 C14 1.258 . S
C7 N8 1.326 . S
C7 C11 1.460 . S
C7 H13 0.929 . S
N8 Mn1 2.257 . S
N8 C7 1.326 . S
N8 C12 1.362 . S
C9 C10 1.258 . S
C9 C12 1.431 . S
C9 C29 1.449 . S
C10 C9 1.258 . S
C10 C11 1.477 . S
C10 H30 0.931 . S
C11 C7 1.460 . S
C11 C10 1.477 . S
C11 H31 0.930 . S
C12 N8 1.362 . S
C12 C9 1.431 . S
C12 C22 1.476 . S
H13 C7 0.929 . S
C14 O5 1.250 . S
C14 O6 1.258 . S
O15 Mn0 2.162 . S
O15 C3 1.281 . S
O16 Mn0 2.297 . S
O16 C3 1.236 . S
N17 Mn1 2.282 . S
N17 C18 1.328 . S
N17 C22 1.318 . S
C18 N17 1.328 . S
C18 C19 1.457 . S
C18 H23 0.929 . S
C19 C18 1.457 . S
C19 C20 1.291 . S
C19 H32 0.931 . S
C20 C19 1.291 . S
C20 C21 1.373 . S
C20 H33 0.929 . S
C21 C20 1.373 . S
C21 C22 1.396 . S
C21 C28 1.403 . S
C22 C12 1.476 . S
C22 N17 1.318 . S
C22 C21 1.396 . S
H23 C18 0.929 . S
O24 Mn0 2.385 . S
O24 C2 1.234 . S
O25 Mn0 2.209 . S
O25 Mn1 2.215 . S
O25 C2 1.283 . S
O26 Mn0 2.094 . S
O26 C4 1.240 . S
O27 Mn1 2.117 . S
O27 C4 1.264 . S
C28 C21 1.403 . S
C28 C29 1.399 . S
C28 H34 0.929 . S
C29 C9 1.449 . S
C29 C28 1.399 . S
C29 H35 0.930 . S
H30 C10 0.931 . S
H31 C11 0.930 . S
H32 C19 0.931 . S
H33 C20 0.929 . S
H34 C28 0.929 . S
H35 C29 0.930 . S
Mn36 O41 2.095 . S
Mn36 O51 2.162 . S
Mn36 O52 2.297 . S
Mn36 O60 2.385 . S
Mn36 O61 2.209 . S
Mn36 O62 2.094 . S
Mn37 O42 2.121 . S
Mn37 N44 2.257 . S
Mn37 N53 2.282 . S
Mn37 O61 2.215 . S
Mn37 O63 2.117 . S
C38 O60 1.234 . S
C38 O61 1.283 . S
C39 O51 1.281 . S
C39 O52 1.236 . S
C40 O62 1.240 . S
C40 O63 1.264 . S
O41 Mn36 2.095 . S
O41 C50 1.250 . S
O42 Mn37 2.121 . S
O42 C50 1.258 . S
C43 N44 1.326 . S
C43 C47 1.460 . S
C43 H49 0.929 . S
N44 Mn37 2.257 . S
N44 C43 1.326 . S
N44 C48 1.362 . S
C45 C46 1.258 . S
C45 C48 1.431 . S
C45 C65 1.449 . S
C46 C45 1.258 . S
C46 C47 1.477 . S
C46 H66 0.931 . S
C47 C43 1.460 . S
C47 C46 1.477 . S
C47 H67 0.930 . S
C48 N44 1.362 . S
C48 C45 1.431 . S
C48 C58 1.476 . S
H49 C43 0.929 . S
C50 O41 1.250 . S
C50 O42 1.258 . S
O51 Mn36 2.162 . S
O51 C39 1.281 . S
O52 Mn36 2.297 . S
O52 C39 1.236 . S
N53 Mn37 2.282 . S
N53 C54 1.328 . S
N53 C58 1.318 . S
C54 N53 1.328 . S
C54 C55 1.457 . S
C54 H59 0.929 . S
C55 C54 1.457 . S
C55 C56 1.291 . S
C55 H68 0.931 . S
C56 C55 1.291 . S
C56 C57 1.373 . S
C56 H69 0.929 . S
C57 C56 1.373 . S
C57 C58 1.396 . S
C57 C64 1.403 . S
C58 C48 1.476 . S
C58 N53 1.318 . S
C58 C57 1.396 . S
H59 C54 0.929 . S
O60 Mn36 2.385 . S
O60 C38 1.234 . S
O61 Mn36 2.209 . S
O61 Mn37 2.215 . S
O61 C38 1.283 . S
O62 Mn36 2.094 . S
O62 C40 1.240 . S
O63 Mn37 2.117 . S
O63 C40 1.264 . S
C64 C57 1.403 . S
C64 C65 1.399 . S
C64 H70 0.929 . S
C65 C45 1.449 . S
C65 C64 1.399 . S
C65 H71 0.930 . S
H66 C46 0.931 . S
H67 C47 0.930 . S
H68 C55 0.931 . S
H69 C56 0.929 . S
H70 C64 0.929 . S
H71 C65 0.930 . S
Mn72 O77 2.095 . S
Mn72 O87 2.162 . S
Mn72 O88 2.297 . S
Mn72 O96 2.385 . S
Mn72 O97 2.209 . S
Mn72 O98 2.094 . S
Mn73 O78 2.121 . S
Mn73 N80 2.257 . S
Mn73 N89 2.282 . S
Mn73 O97 2.215 . S
Mn73 O99 2.117 . S
C74 O96 1.234 . S
C74 O97 1.283 . S
C75 O87 1.281 . S
C75 O88 1.236 . S
C76 O98 1.240 . S
C76 O99 1.264 . S
O77 Mn72 2.095 . S
O77 C86 1.250 . S
O78 Mn73 2.121 . S
O78 C86 1.258 . S
C79 N80 1.326 . S
C79 C83 1.460 . S
C79 H85 0.929 . S
N80 Mn73 2.257 . S
N80 C79 1.326 . S
N80 C84 1.362 . S
C81 C82 1.258 . S
C81 C84 1.431 . S
C81 C101 1.449 . S
C82 C81 1.258 . S
C82 C83 1.477 . S
C82 H102 0.931 . S
C83 C79 1.460 . S
C83 C82 1.477 . S
C83 H103 0.930 . S
C84 N80 1.362 . S
C84 C81 1.431 . S
C84 C94 1.476 . S
H85 C79 0.929 . S
C86 O77 1.250 . S
C86 O78 1.258 . S
O87 Mn72 2.162 . S
O87 C75 1.281 . S
O88 Mn72 2.297 . S
O88 C75 1.236 . S
N89 Mn73 2.282 . S
N89 C90 1.328 . S
N89 C94 1.318 . S
C90 N89 1.328 . S
C90 C91 1.457 1_556 S
C90 H95 0.929 . S
C91 C90 1.457 1_554 S
C91 C92 1.291 . S
C91 H104 0.931 . S
C92 C91 1.291 . S
C92 C93 1.373 1_554 S
C92 H105 0.929 . S
C93 C92 1.373 1_556 S
C93 C94 1.396 . S
C93 C100 1.403 1_556 S
C94 C84 1.476 . S
C94 N89 1.318 . S
C94 C93 1.396 . S
H95 C90 0.929 . S
O96 Mn72 2.385 . S
O96 C74 1.234 . S
O97 Mn72 2.209 . S
O97 Mn73 2.215 . S
O97 C74 1.283 . S
O98 Mn72 2.094 . S
O98 C76 1.240 . S
O99 Mn73 2.117 . S
O99 C76 1.264 . S
C100 C93 1.403 1_554 S
C100 C101 1.399 1_554 S
C100 H106 0.929 . S
C101 C81 1.449 . S
C101 C100 1.399 1_556 S
C101 H107 0.930 . S
H102 C82 0.931 . S
H103 C83 0.930 . S
H104 C91 0.931 . S
H105 C92 0.929 . S
H106 C100 0.929 . S
H107 C101 0.930 . S
Mn108 O113 2.095 1_554 S
Mn108 O123 2.162 . S
Mn108 O124 2.297 . S
Mn108 O132 2.385 . S
Mn108 O133 2.209 . S
Mn108 O134 2.094 . S
Mn109 O114 2.121 1_554 S
Mn109 N116 2.257 . S
Mn109 N125 2.282 . S
Mn109 O133 2.215 . S
Mn109 O135 2.117 . S
C110 O132 1.234 . S
C110 O133 1.283 . S
C111 O123 1.281 . S
C111 O124 1.236 . S
C112 O134 1.240 . S
C112 O135 1.264 . S
O113 Mn108 2.095 1_556 S
O113 C122 1.250 . S
O114 Mn109 2.121 1_556 S
O114 C122 1.258 . S
C115 N116 1.326 . S
C115 C119 1.460 . S
C115 H121 0.929 1_554 S
N116 Mn109 2.257 . S
N116 C115 1.326 . S
N116 C120 1.362 . S
C117 C118 1.258 . S
C117 C120 1.431 . S
C117 C137 1.449 . S
C118 C117 1.258 . S
C118 C119 1.477 . S
C118 H138 0.931 . S
C119 C115 1.460 . S
C119 C118 1.477 . S
C119 H139 0.930 . S
C120 N116 1.362 . S
C120 C117 1.431 . S
C120 C130 1.476 . S
H121 C115 0.929 1_556 S
C122 O113 1.250 . S
C122 O114 1.258 . S
O123 Mn108 2.162 . S
O123 C111 1.281 . S
O124 Mn108 2.297 . S
O124 C111 1.236 . S
N125 Mn109 2.282 . S
N125 C126 1.328 . S
N125 C130 1.318 . S
C126 N125 1.328 . S
C126 C127 1.457 . S
C126 H131 0.929 . S
C127 C126 1.457 . S
C127 C128 1.291 . S
C127 H140 0.931 . S
C128 C127 1.291 . S
C128 C129 1.373 . S
C128 H141 0.929 . S
C129 C128 1.373 . S
C129 C130 1.396 . S
C129 C136 1.403 . S
C130 C120 1.476 . S
C130 N125 1.318 . S
C130 C129 1.396 . S
H131 C126 0.929 . S
O132 Mn108 2.385 . S
O132 C110 1.234 . S
O133 Mn108 2.209 . S
O133 Mn109 2.215 . S
O133 C110 1.283 . S
O134 Mn108 2.094 . S
O134 C112 1.240 . S
O135 Mn109 2.117 . S
O135 C112 1.264 . S
C136 C129 1.403 . S
C136 C137 1.399 . S
C136 H142 0.929 . S
C137 C117 1.449 . S
C137 C136 1.399 . S
C137 H143 0.930 . S
H138 C118 0.931 . S
H139 C119 0.930 . S
H140 C127 0.931 . S
H141 C128 0.929 . S
H142 C136 0.929 . S
H143 C137 0.930 . S
Mn144 O149 2.095 . S
Mn144 O159 2.162 . S
Mn144 O160 2.297 . S
Mn144 O168 2.385 . S
Mn144 O169 2.209 . S
Mn144 O170 2.094 . S
Mn145 O150 2.121 . S
Mn145 N152 2.257 . S
Mn145 N161 2.282 . S
Mn145 O169 2.215 . S
Mn145 O171 2.117 . S
C146 O168 1.234 . S
C146 O169 1.283 . S
C147 O159 1.281 . S
C147 O160 1.236 . S
C148 O170 1.240 . S
C148 O171 1.264 . S
O149 Mn144 2.095 . S
O149 C158 1.250 . S
O150 Mn145 2.121 . S
O150 C158 1.258 . S
C151 N152 1.326 . S
C151 C155 1.460 . S
C151 H157 0.929 . S
N152 Mn145 2.257 . S
N152 C151 1.326 . S
N152 C156 1.362 . S
C153 C154 1.258 . S
C153 C156 1.431 . S
C153 C173 1.449 . S
C154 C153 1.258 . S
C154 C155 1.477 . S
C154 H174 0.931 . S
C155 C151 1.460 . S
C155 C154 1.477 . S
C155 H175 0.930 . S
C156 N152 1.362 . S
C156 C153 1.431 . S
C156 C166 1.476 . S
H157 C151 0.929 . S
C158 O149 1.250 . S
C158 O150 1.258 . S
O159 Mn144 2.162 . S
O159 C147 1.281 . S
O160 Mn144 2.297 . S
O160 C147 1.236 . S
N161 Mn145 2.282 . S
N161 C162 1.328 . S
N161 C166 1.318 . S
C162 N161 1.328 . S
C162 C163 1.457 . S
C162 H167 0.929 . S
C163 C162 1.457 . S
C163 C164 1.291 . S
C163 H176 0.931 . S
C164 C163 1.291 . S
C164 C165 1.373 . S
C164 H177 0.929 . S
C165 C164 1.373 . S
C165 C166 1.396 . S
C165 C172 1.403 . S
C166 C156 1.476 . S
C166 N161 1.318 . S
C166 C165 1.396 . S
H167 C162 0.929 . S
O168 Mn144 2.385 . S
O168 C146 1.234 . S
O169 Mn144 2.209 . S
O169 Mn145 2.215 . S
O169 C146 1.283 . S
O170 Mn144 2.094 . S
O170 C148 1.240 . S
O171 Mn145 2.117 . S
O171 C148 1.264 . S
C172 C165 1.403 . S
C172 C173 1.399 . S
C172 H178 0.929 . S
C173 C153 1.449 . S
C173 C172 1.399 . S
C173 H179 0.930 . S
H174 C154 0.931 . S
H175 C155 0.930 . S
H176 C163 0.931 . S
H177 C164 0.929 . S
H178 C172 0.929 . S
H179 C173 0.930 . S
Mn180 O185 2.095 . S
Mn180 O195 2.162 . S
Mn180 O196 2.297 . S
Mn180 O204 2.385 . S
Mn180 O205 2.209 . S
Mn180 O206 2.094 . S
Mn181 O186 2.121 . S
Mn181 N188 2.257 . S
Mn181 N197 2.282 . S
Mn181 O205 2.215 . S
Mn181 O207 2.117 . S
C182 O204 1.234 . S
C182 O205 1.283 . S
C183 O195 1.281 . S
C183 O196 1.236 . S
C184 O206 1.240 . S
C184 O207 1.264 . S
O185 Mn180 2.095 . S
O185 C194 1.250 . S
O186 Mn181 2.121 . S
O186 C194 1.258 . S
C187 N188 1.326 . S
C187 C191 1.460 . S
C187 H193 0.929 . S
N188 Mn181 2.257 . S
N188 C187 1.326 . S
N188 C192 1.362 . S
C189 C190 1.258 . S
C189 C192 1.431 . S
C189 C209 1.449 . S
C190 C189 1.258 . S
C190 C191 1.477 . S
C190 H210 0.931 . S
C191 C187 1.460 . S
C191 C190 1.477 . S
C191 H211 0.930 . S
C192 N188 1.362 . S
C192 C189 1.431 . S
C192 C202 1.476 . S
H193 C187 0.929 . S
C194 O185 1.250 . S
C194 O186 1.258 . S
O195 Mn180 2.162 . S
O195 C183 1.281 . S
O196 Mn180 2.297 . S
O196 C183 1.236 . S
N197 Mn181 2.282 . S
N197 C198 1.328 . S
N197 C202 1.318 . S
C198 N197 1.328 . S
C198 C199 1.457 . S
C198 H203 0.929 . S
C199 C198 1.457 . S
C199 C200 1.291 . S
C199 H212 0.931 . S
C200 C199 1.291 . S
C200 C201 1.373 . S
C200 H213 0.929 . S
C201 C200 1.373 . S
C201 C202 1.396 . S
C201 C208 1.403 . S
C202 C192 1.476 . S
C202 N197 1.318 . S
C202 C201 1.396 . S
H203 C198 0.929 . S
O204 Mn180 2.385 . S
O204 C182 1.234 . S
O205 Mn180 2.209 . S
O205 Mn181 2.215 . S
O205 C182 1.283 . S
O206 Mn180 2.094 . S
O206 C184 1.240 . S
O207 Mn181 2.117 . S
O207 C184 1.264 . S
C208 C201 1.403 . S
C208 C209 1.399 . S
C208 H214 0.929 . S
C209 C189 1.449 . S
C209 C208 1.399 . S
C209 H215 0.930 . S
H210 C190 0.931 . S
H211 C191 0.930 . S
H212 C199 0.931 . S
H213 C200 0.929 . S
H214 C208 0.929 . S
H215 C209 0.930 . S
Mn216 O221 2.095 . S
Mn216 O231 2.162 . S
Mn216 O232 2.297 . S
Mn216 O240 2.385 . S
Mn216 O241 2.209 . S
Mn216 O242 2.094 . S
Mn217 O222 2.121 . S
Mn217 N224 2.257 . S
Mn217 N233 2.282 . S
Mn217 O241 2.215 . S
Mn217 O243 2.117 . S
C218 O240 1.234 . S
C218 O241 1.283 . S
C219 O231 1.281 . S
C219 O232 1.236 . S
C220 O242 1.240 . S
C220 O243 1.264 . S
O221 Mn216 2.095 . S
O221 C230 1.250 . S
O222 Mn217 2.121 . S
O222 C230 1.258 . S
C223 N224 1.326 . S
C223 C227 1.460 . S
C223 H229 0.929 . S
N224 Mn217 2.257 . S
N224 C223 1.326 . S
N224 C228 1.362 . S
C225 C226 1.258 . S
C225 C228 1.431 . S
C225 C245 1.449 . S
C226 C225 1.258 . S
C226 C227 1.477 . S
C226 H246 0.931 . S
C227 C223 1.460 . S
C227 C226 1.477 . S
C227 H247 0.930 . S
C228 N224 1.362 . S
C228 C225 1.431 . S
C228 C238 1.476 . S
H229 C223 0.929 . S
C230 O221 1.250 . S
C230 O222 1.258 . S
O231 Mn216 2.162 . S
O231 C219 1.281 . S
O232 Mn216 2.297 . S
O232 C219 1.236 . S
N233 Mn217 2.282 . S
N233 C234 1.328 . S
N233 C238 1.318 . S
C234 N233 1.328 . S
C234 C235 1.457 . S
C234 H239 0.929 . S
C235 C234 1.457 . S
C235 C236 1.291 . S
C235 H248 0.931 . S
C236 C235 1.291 . S
C236 C237 1.373 . S
C236 H249 0.929 . S
C237 C236 1.373 . S
C237 C238 1.396 . S
C237 C244 1.403 . S
C238 C228 1.476 . S
C238 N233 1.318 . S
C238 C237 1.396 . S
H239 C234 0.929 . S
O240 Mn216 2.385 . S
O240 C218 1.234 . S
O241 Mn216 2.209 . S
O241 Mn217 2.215 . S
O241 C218 1.283 . S
O242 Mn216 2.094 . S
O242 C220 1.240 . S
O243 Mn217 2.117 . S
O243 C220 1.264 . S
C244 C237 1.403 . S
C244 C245 1.399 . S
C244 H250 0.929 . S
C245 C225 1.449 . S
C245 C244 1.399 . S
C245 H251 0.930 . S
H246 C226 0.931 . S
H247 C227 0.930 . S
H248 C235 0.931 . S
H249 C236 0.929 . S
H250 C244 0.929 . S
H251 C245 0.930 . S
Mn252 O257 2.095 . S
Mn252 O267 2.162 . S
Mn252 O268 2.297 . S
Mn252 O276 2.385 1_554 S
Mn252 O277 2.209 1_554 S
Mn252 O278 2.094 . S
Mn253 O258 2.121 . S
Mn253 N260 2.257 . S
Mn253 N269 2.282 1_554 S
Mn253 O277 2.215 1_554 S
Mn253 O279 2.117 . S
C254 O276 1.234 . S
C254 O277 1.283 . S
C255 O267 1.281 . S
C255 O268 1.236 . S
C256 O278 1.240 . S
C256 O279 1.264 . S
O257 Mn252 2.095 . S
O257 C266 1.250 . S
O258 Mn253 2.121 . S
O258 C266 1.258 . S
C259 N260 1.326 . S
C259 C263 1.460 . S
C259 H265 0.929 . S
N260 Mn253 2.257 . S
N260 C259 1.326 . S
N260 C264 1.362 1_554 S
C261 C262 1.258 . S
C261 C264 1.431 . S
C261 C281 1.449 . S
C262 C261 1.258 . S
C262 C263 1.477 1_556 S
C262 H282 0.931 . S
C263 C259 1.460 . S
C263 C262 1.477 1_554 S
C263 H283 0.930 . S
C264 N260 1.362 1_556 S
C264 C261 1.431 . S
C264 C274 1.476 . S
H265 C259 0.929 . S
C266 O257 1.250 . S
C266 O258 1.258 . S
O267 Mn252 2.162 . S
O267 C255 1.281 . S
O268 Mn252 2.297 . S
O268 C255 1.236 . S
N269 Mn253 2.282 1_556 S
N269 C270 1.328 . S
N269 C274 1.318 . S
C270 N269 1.328 . S
C270 C271 1.457 . S
C270 H275 0.929 . S
C271 C270 1.457 . S
C271 C272 1.291 . S
C271 H284 0.931 . S
C272 C271 1.291 . S
C272 C273 1.373 . S
C272 H285 0.929 . S
C273 C272 1.373 . S
C273 C274 1.396 . S
C273 C280 1.403 . S
C274 C264 1.476 . S
C274 N269 1.318 . S
C274 C273 1.396 . S
H275 C270 0.929 . S
O276 Mn252 2.385 1_556 S
O276 C254 1.234 . S
O277 Mn252 2.209 1_556 S
O277 Mn253 2.215 1_556 S
O277 C254 1.283 . S
O278 Mn252 2.094 . S
O278 C256 1.240 . S
O279 Mn253 2.117 . S
O279 C256 1.264 . S
C280 C273 1.403 . S
C280 C281 1.399 . S
C280 H286 0.929 . S
C281 C261 1.449 . S
C281 C280 1.399 . S
C281 H287 0.930 . S
H282 C262 0.931 . S
H283 C263 0.930 . S
H284 C271 0.931 . S
H285 C272 0.929 . S
H286 C280 0.929 . S
H287 C281 0.930 . S
C288 C289 1.369 . S
C288 C290 1.419 . S
C288 H292 0.930 . S
C289 C288 1.369 . S
C289 C298 1.429 . S
C290 C288 1.419 . S
C290 C291 1.363 . S
C290 H293 0.929 . S
C291 C290 1.363 . S
C291 C297 1.428 . S
H292 C288 0.930 . S
H293 C290 0.929 . S
S294 N295 1.613 . S
S294 N296 1.610 . S
N295 S294 1.613 . S
N295 C298 1.350 . S
N296 S294 1.610 . S
N296 C297 1.351 . S
C297 C291 1.428 . S
C297 N296 1.351 . S
C297 C298 1.434 . S
C298 C289 1.429 . S
C298 N295 1.350 . S
C298 C297 1.434 . S
C299 C300 1.369 . S
C299 C301 1.419 . S
C299 H303 0.930 . S
C300 C299 1.369 . S
C300 C309 1.429 . S
C301 C299 1.419 . S
C301 C302 1.363 . S
C301 H304 0.929 . S
C302 C301 1.363 . S
C302 C308 1.428 . S
H303 C299 0.930 . S
H304 C301 0.929 . S
S305 N306 1.613 . S
S305 N307 1.610 . S
N306 S305 1.613 . S
N306 C309 1.350 . S
N307 S305 1.610 . S
N307 C308 1.351 . S
C308 C302 1.428 . S
C308 N307 1.351 . S
C308 C309 1.434 . S
C309 C300 1.429 . S
C309 N306 1.350 . S
C309 C308 1.434 . S
C310 C311 1.369 . S
C310 C312 1.419 . S
C310 H314 0.930 . S
C311 C310 1.369 . S
C311 C320 1.429 . S
C312 C310 1.419 . S
C312 C313 1.363 1_554 S
C312 H315 0.929 1_554 S
C313 C312 1.363 1_556 S
C313 C319 1.428 1_556 S
H314 C310 0.930 . S
H315 C312 0.929 1_556 S
S316 N317 1.613 . S
S316 N318 1.610 1_554 S
N317 S316 1.613 . S
N317 C320 1.350 . S
N318 S316 1.610 1_556 S
N318 C319 1.351 1_556 S
C319 C313 1.428 1_554 S
C319 N318 1.351 1_554 S
C319 C320 1.434 . S
C320 C311 1.429 . S
C320 N317 1.350 . S
C320 C319 1.434 . S
C321 C322 1.369 . S
C321 C323 1.419 . S
C321 H325 0.930 . S
C322 C321 1.369 . S
C322 C331 1.429 . S
C323 C321 1.419 . S
C323 C324 1.363 . S
C323 H326 0.929 . S
C324 C323 1.363 . S
C324 C330 1.428 . S
H325 C321 0.930 . S
H326 C323 0.929 . S
S327 N328 1.613 . S
S327 N329 1.610 . S
N328 S327 1.613 . S
N328 C331 1.350 . S
N329 S327 1.610 . S
N329 C330 1.351 . S
C330 C324 1.428 . S
C330 N329 1.351 . S
C330 C331 1.434 . S
C331 C322 1.429 . S
C331 N328 1.350 . S
C331 C330 1.434 . S
C332 C333 1.369 . S
C332 C334 1.419 . S
C332 H336 0.930 . S
C333 C332 1.369 . S
C333 C342 1.429 . S
C334 C332 1.419 . S
C334 C335 1.363 . S
C334 H337 0.929 . S
C335 C334 1.363 . S
C335 C341 1.428 . S
H336 C332 0.930 . S
H337 C334 0.929 . S
S338 N339 1.613 . S
S338 N340 1.610 . S
N339 S338 1.613 . S
N339 C342 1.350 . S
N340 S338 1.610 . S
N340 C341 1.351 . S
C341 C335 1.428 . S
C341 N340 1.351 . S
C341 C342 1.434 . S
C342 C333 1.429 . S
C342 N339 1.350 . S
C342 C341 1.434 . S
C343 C344 1.369 . S
C343 C345 1.419 . S
C343 H347 0.930 . S
C344 C343 1.369 . S
C344 C353 1.429 . S
C345 C343 1.419 . S
C345 C346 1.363 . S
C345 H348 0.929 . S
C346 C345 1.363 . S
C346 C352 1.428 . S
H347 C343 0.930 . S
H348 C345 0.929 . S
S349 N350 1.613 . S
S349 N351 1.610 . S
N350 S349 1.613 . S
N350 C353 1.350 . S
N351 S349 1.610 . S
N351 C352 1.351 . S
C352 C346 1.428 . S
C352 N351 1.351 . S
C352 C353 1.434 . S
C353 C344 1.429 . S
C353 N350 1.350 . S
C353 C352 1.434 . S
C354 C355 1.369 . S
C354 C356 1.419 . S
C354 H358 0.930 . S
C355 C354 1.369 . S
C355 C364 1.429 . S
C356 C354 1.419 . S
C356 C357 1.363 . S
C356 H359 0.929 . S
C357 C356 1.363 . S
C357 C363 1.428 . S
H358 C354 0.930 . S
H359 C356 0.929 . S
S360 N361 1.613 . S
S360 N362 1.610 1_554 S
N361 S360 1.613 . S
N361 C364 1.350 1_554 S
N362 S360 1.610 1_556 S
N362 C363 1.351 . S
C363 C357 1.428 . S
C363 N362 1.351 . S
C363 C364 1.434 . S
C364 C355 1.429 . S
C364 N361 1.350 1_556 S
C364 C363 1.434 . S
C365 C366 1.369 . S
C365 C367 1.419 . S
C365 H369 0.930 . S
C366 C365 1.369 . S
C366 C375 1.429 . S
C367 C365 1.419 . S
C367 C368 1.363 . S
C367 H370 0.929 . S
C368 C367 1.363 . S
C368 C374 1.428 . S
H369 C365 0.930 . S
H370 C367 0.929 . S
S371 N372 1.613 . S
S371 N373 1.610 . S
N372 S371 1.613 . S
N372 C375 1.350 . S
N373 S371 1.610 . S
N373 C374 1.351 . S
C374 C368 1.428 . S
C374 N373 1.351 . S
C374 C375 1.434 . S
C375 C366 1.429 . S
C375 N372 1.350 . S
C375 C374 1.434 . S
C376 C377 1.369 . S
C376 C378 1.419 1_565 S
C376 H380 0.930 . S
C377 C376 1.369 . S
C377 C386 1.429 . S
C378 C376 1.419 1_545 S
C378 C379 1.363 . S
C378 H381 0.929 . S
C379 C378 1.363 . S
C379 C385 1.428 . S
H380 C376 0.930 . S
H381 C378 0.929 . S
S382 N383 1.613 1_545 S
S382 N384 1.610 . S
N383 S382 1.613 1_565 S
N383 C386 1.350 . S
N384 S382 1.610 . S
N384 C385 1.351 . S
C385 C379 1.428 . S
C385 N384 1.351 . S
C385 C386 1.434 1_545 S
C386 C377 1.429 . S
C386 N383 1.350 . S
C386 C385 1.434 1_565 S
C387 C388 1.369 . S
C387 C389 1.419 1_655 S
C387 H391 0.930 . S
C388 C387 1.369 . S
C388 C397 1.429 . S
C389 C387 1.419 1_455 S
C389 C390 1.363 . S
C389 H392 0.929 . S
C390 C389 1.363 . S
C390 C396 1.428 . S
H391 C387 0.930 . S
H392 C389 0.929 . S
S393 N394 1.613 . S
S393 N395 1.610 1_655 S
N394 S393 1.613 . S
N394 C397 1.350 . S
N395 S393 1.610 1_455 S
N395 C396 1.351 . S
C396 C390 1.428 . S
C396 N395 1.351 . S
C396 C397 1.434 1_455 S
C397 C388 1.429 . S
C397 N394 1.350 . S
C397 C396 1.434 1_655 S
C398 C399 1.369 . S
C398 C400 1.419 1_565 S
C398 H402 0.930 . S
C399 C398 1.369 . S
C399 C408 1.429 . S
C400 C398 1.419 1_545 S
C400 C401 1.363 . S
C400 H403 0.929 . S
C401 C400 1.363 . S
C401 C407 1.428 . S
H402 C398 0.930 . S
H403 C400 0.929 . S
S404 N405 1.613 1_545 S
S404 N406 1.610 . S
N405 S404 1.613 1_565 S
N405 C408 1.350 . S
N406 S404 1.610 . S
N406 C407 1.351 . S
C407 C401 1.428 . S
C407 N406 1.351 . S
C407 C408 1.434 1_545 S
C408 C399 1.429 . S
C408 N405 1.350 . S
C408 C407 1.434 1_565 S
C409 C410 1.369 . S
C409 C411 1.419 1_655 S
C409 H413 0.930 . S
C410 C409 1.369 . S
C410 C419 1.429 . S
C411 C409 1.419 1_455 S
C411 C412 1.363 . S
C411 H414 0.929 . S
C412 C411 1.363 . S
C412 C418 1.428 . S
H413 C409 0.930 . S
H414 C411 0.929 . S
S415 N416 1.595 1_455 S
S415 N417 1.628 . S
N416 S415 1.595 1_655 S
N416 C419 1.350 . S
N417 S415 1.628 . S
N417 C418 1.351 . S
C418 C412 1.428 . S
C418 N417 1.351 . S
C418 C419 1.434 1_455 S
C419 C410 1.429 . S
C419 N416 1.350 . S
C419 C418 1.434 1_655 S
C420 C421 1.369 1_554 S
C420 C422 1.419 . S
C420 H424 0.930 . S
C421 C420 1.369 1_556 S
C421 C430 1.429 1_556 S
C422 C420 1.419 . S
C422 C423 1.363 . S
C422 H425 0.929 . S
C423 C422 1.363 . S
C423 C429 1.428 . S
H424 C420 0.930 . S
H425 C422 0.929 . S
S426 N427 1.613 1_554 S
S426 N428 1.610 . S
N427 S426 1.613 1_556 S
N427 C430 1.350 1_556 S
N428 S426 1.610 . S
N428 C429 1.351 . S
C429 C423 1.428 . S
C429 N428 1.351 . S
C429 C430 1.434 . S
C430 C421 1.429 1_554 S
C430 N427 1.350 1_554 S
C430 C429 1.434 . S
C431 C432 1.369 . S
C431 C433 1.419 . S
C431 H435 0.930 . S
C432 C431 1.369 . S
C432 C441 1.429 . S
C433 C431 1.419 . S
C433 C434 1.363 . S
C433 H436 0.929 . S
C434 C433 1.363 . S
C434 C440 1.428 . S
H435 C431 0.930 . S
H436 C433 0.929 . S
S437 N438 1.613 . S
S437 N439 1.610 . S
N438 S437 1.613 . S
N438 C441 1.350 . S
N439 S437 1.610 . S
N439 C440 1.351 . S
C440 C434 1.428 . S
C440 N439 1.351 . S
C440 C441 1.434 . S
C441 C432 1.429 . S
C441 N438 1.350 . S
C441 C440 1.434 . S
C442 C443 1.369 . S
C442 C444 1.419 . S
C442 H446 0.930 . S
C443 C442 1.369 . S
C443 C452 1.429 . S
C444 C442 1.419 . S
C444 C445 1.363 . S
C444 H447 0.929 . S
C445 C444 1.363 . S
C445 C451 1.428 . S
H446 C442 0.930 . S
H447 C444 0.929 . S
S448 N449 1.613 . S
S448 N450 1.610 . S
N449 S448 1.613 . S
N449 C452 1.350 . S
N450 S448 1.610 . S
N450 C451 1.351 . S
C451 C445 1.428 . S
C451 N450 1.351 . S
C451 C452 1.434 . S
C452 C443 1.429 . S
C452 N449 1.350 . S
C452 C451 1.434 . S
C453 C454 1.369 . S
C453 C455 1.419 . S
C453 H457 0.930 . S
C454 C453 1.369 . S
C454 C463 1.429 . S
C455 C453 1.419 . S
C455 C456 1.363 . S
C455 H458 0.929 . S
C456 C455 1.363 . S
C456 C462 1.428 . S
H457 C453 0.930 . S
H458 C455 0.929 . S
S459 N460 1.613 . S
S459 N461 1.610 . S
N460 S459 1.613 . S
N460 C463 1.350 . S
N461 S459 1.610 . S
N461 C462 1.351 . S
C462 C456 1.428 . S
C462 N461 1.351 . S
C462 C463 1.434 . S
C463 C454 1.429 . S
C463 N460 1.350 . S
C463 C462 1.434 . S
C289 C2 1.008 . S
C291 C218 1.007 . S
C300 C38 1.015 . S
C302 C254 1.007 . S
C311 C146 1.005 . S
C313 C74 1.010 . S
C322 C182 1.013 . S
C324 C110 1.006 . S
C333 C3 1.527 . S
C335 C183 1.521 . S
C344 C39 1.521 . S
C346 C219 1.526 . S
C355 C255 1.527 1_556 S
C357 C75 1.522 . S
C366 C111 1.528 . S
C368 C147 1.522 . S
C377 C148 1.479 . S
C379 C4 1.480 . S
C388 C40 1.478 . S
C390 C184 1.477 . S
C399 C76 1.479 . S
C401 C220 1.480 . S
C410 C256 1.476 . S
C412 C112 1.477 . S
C421 C230 1.375 . S
C423 C14 1.380 . S
C432 C266 1.383 . S
C434 C50 1.377 . S
C443 C86 1.387 . S
C445 C158 1.386 . S
C454 C122 1.376 . S
C456 C194 1.383 . S
