# Generated by pormake.
# Topology umy, (4)-cn, num edge types: 1
# Building blocks:
#     Node 0, Type 0, BuildingBlock: ICAMEG_clean_sbu_1, # of connection points: 4
#     Node 1, Type 0, BuildingBlock: ICAMEG_clean_sbu_1, # of connection points: 4
#     Node 2, Type 0, BuildingBlock: ICAMEG_clean_sbu_1, # of connection points: 4
#     Node 3, Type 0, BuildingBlock: ICAMEG_clean_sbu_1, # of connection points: 4
#     Node 4, Type 0, BuildingBlock: ICAMEG_clean_sbu_1, # of connection points: 4
#     Node 5, Type 0, BuildingBlock: ICAMEG_clean_sbu_1, # of connection points: 4
#     Node 6, Type 0, BuildingBlock: ICAMEG_clean_sbu_1, # of connection points: 4
#     Node 7, Type 0, BuildingBlock: ICAMEG_clean_sbu_1, # of connection points: 4
#     Node 8, Type 0, BuildingBlock: ICAMEG_clean_sbu_1, # of connection points: 4
#     Node 9, Type 0, BuildingBlock: ICAMEG_clean_sbu_1, # of connection points: 4
#     Node 10, Type 0, BuildingBlock: ICAMEG_clean_sbu_1, # of connection points: 4
#     Node 11, Type 0, BuildingBlock: ICAMEG_clean_sbu_1, # of connection points: 4
#     Edge 12, Type (0, 0), BuildingBlock: AJUNOK_clean_linker_0, # of connection points: 2
#     Edge 13, Type (0, 0), BuildingBlock: AJUNOK_clean_linker_0, # of connection points: 2
#     Edge 14, Type (0, 0), BuildingBlock: AJUNOK_clean_linker_0, # of connection points: 2
#     Edge 15, Type (0, 0), BuildingBlock: AJUNOK_clean_linker_0, # of connection points: 2
#     Edge 16, Type (0, 0), BuildingBlock: AJUNOK_clean_linker_0, # of connection points: 2
#     Edge 17, Type (0, 0), BuildingBlock: AJUNOK_clean_linker_0, # of connection points: 2
#     Edge 18, Type (0, 0), BuildingBlock: AJUNOK_clean_linker_0, # of connection points: 2
#     Edge 19, Type (0, 0), BuildingBlock: AJUNOK_clean_linker_0, # of connection points: 2
#     Edge 20, Type (0, 0), BuildingBlock: AJUNOK_clean_linker_0, # of connection points: 2
#     Edge 21, Type (0, 0), BuildingBlock: AJUNOK_clean_linker_0, # of connection points: 2
#     Edge 22, Type (0, 0), BuildingBlock: AJUNOK_clean_linker_0, # of connection points: 2
#     Edge 23, Type (0, 0), BuildingBlock: AJUNOK_clean_linker_0, # of connection points: 2
#     Edge 24, Type (0, 0), BuildingBlock: AJUNOK_clean_linker_0, # of connection points: 2
#     Edge 25, Type (0, 0), BuildingBlock: AJUNOK_clean_linker_0, # of connection points: 2
#     Edge 26, Type (0, 0), BuildingBlock: AJUNOK_clean_linker_0, # of connection points: 2
#     Edge 27, Type (0, 0), BuildingBlock: AJUNOK_clean_linker_0, # of connection points: 2
#     Edge 28, Type (0, 0), BuildingBlock: AJUNOK_clean_linker_0, # of connection points: 2
#     Edge 29, Type (0, 0), BuildingBlock: AJUNOK_clean_linker_0, # of connection points: 2
#     Edge 30, Type (0, 0), BuildingBlock: AJUNOK_clean_linker_0, # of connection points: 2
#     Edge 31, Type (0, 0), BuildingBlock: AJUNOK_clean_linker_0, # of connection points: 2
#     Edge 32, Type (0, 0), BuildingBlock: AJUNOK_clean_linker_0, # of connection points: 2
#     Edge 33, Type (0, 0), BuildingBlock: AJUNOK_clean_linker_0, # of connection points: 2
#     Edge 34, Type (0, 0), BuildingBlock: AJUNOK_clean_linker_0, # of connection points: 2
#     Edge 35, Type (0, 0), BuildingBlock: AJUNOK_clean_linker_0, # of connection points: 2
# Relax obj value: 0.082
# Max RMSD: 0.108
# Mean RMSD: 0.108
data_MOF--net-umy--node1-ICAMEG_clean_sbu_1--edge1-AJUNOK_clean_linker_0
_symmetry_space_group_name_H-M    P1
_symmetry_Int_Tables_number       1
_symmetry_cell_setting            triclinic
loop_
_symmetry_equiv_pos_as_xyz
'x, y, z'
_cell_length_a     30.272119
_cell_length_b     30.283272
_cell_length_c     42.11304
_cell_angle_alpha  90.017712
_cell_angle_beta   90.016009
_cell_angle_gamma 120.00094
loop_
_atom_site_label
_atom_site_type_symbol
_atom_site_fract_x
_atom_site_fract_y
_atom_site_fract_z
_atom_type_partial_charge
Co0 Co 0.07056 0.30021 0.14264 0.0
Co1 Co 0.07561 0.403 0.18081 0.0
O2 O 0.08314 0.37022 0.14247 0.0
C3 C 0.17427 0.35352 0.11184 0.0
O4 O 0.1911 0.38669 0.13521 0.0
C5 C 0.02476 0.42971 0.12879 0.0
O6 O 1.00816 0.38448 0.11621 0.0
O7 O 1.00425 0.3456 0.18748 0.0
O8 O 1.01297 0.2787 0.17402 0.0
H9 H 0.02683 0.40893 0.29418 0.0
H10 H 0.07541 0.34958 0.08116 0.0
O11 O 0.12743 0.31864 0.11113 0.0
H12 H 0.90398 0.19712 0.08444 0.0
H13 H 0.05316 0.14074 0.09312 0.0
H14 H 0.05008 0.22406 0.19306 0.0
H15 H 0.96435 0.21659 0.12863 0.0
H16 H 0.0665 0.22802 0.09278 0.0
O17 O 0.05047 0.44176 0.15448 0.0
H18 H 0.0373 0.3684 0.24621 0.0
H19 H 0.09822 0.50855 0.19612 0.0
H20 H 0.03597 0.13653 0.19446 0.0
H21 H 0.01667 0.33121 0.03608 0.0
H22 H 0.03754 0.09431 0.14423 0.0
H23 H 0.93013 0.25462 0.03762 0.0
O24 O 0.11944 0.31689 0.17841 0.0
H25 H 0.22354 0.53369 0.11684 0.0
H26 H 0.16662 0.4574 0.22299 0.0
H27 H 0.25601 0.52482 0.21513 0.0
H28 H 0.285 0.5635 0.16175 0.0
H29 H 0.1346 0.4658 0.12567 0.0
H30 H 0.08791 0.55047 0.24346 0.0
H31 H 0.05216 0.50062 0.293 0.0
O32 O 0.10148 0.36698 0.20856 0.0
C33 C 0.98866 0.29776 0.18787 0.0
C34 C 0.0425 0.43108 0.27276 0.0
C35 C 0.07672 0.51049 0.24428 0.0
N36 N 0.06832 0.43602 0.21836 0.0
C37 C 0.0486 0.40835 0.24552 0.0
C38 C 0.08228 0.48648 0.2175 0.0
C39 C 0.05668 0.48251 0.27206 0.0
C40 C 0.03796 0.31597 0.08189 0.0
N41 N 0.02316 0.28436 0.10767 0.0
C42 C 1.0048 0.30587 0.05634 0.0
C43 C 0.95623 0.26295 0.05725 0.0
C44 C 0.94149 0.23074 0.08354 0.0
C45 C 0.97567 0.24213 0.10866 0.0
C46 C 0.05229 0.15869 0.11516 0.0
C47 C 0.05051 0.20585 0.17108 0.0
C48 C 0.05994 0.20817 0.11512 0.0
N49 N 0.05871 0.23101 0.14285 0.0
C50 C 0.04262 0.15631 0.17203 0.0
C51 C 0.04353 0.13266 0.14385 0.0
C52 C 0.12221 0.33967 0.20444 0.0
C53 C 0.21132 0.51727 0.14024 0.0
C54 C 0.1789 0.47401 0.19968 0.0
C55 C 0.22957 0.51223 0.19539 0.0
C56 C 0.2458 0.53393 0.16544 0.0
N57 N 0.14527 0.45791 0.17485 0.0
C58 C 0.16093 0.47897 0.14542 0.0
Co59 Co 0.77966 0.0653 0.31473 0.0
Co60 Co 0.6784 0.06982 0.34737 0.0
O61 O 0.72127 0.07615 0.3105 0.0
C62 C 0.83069 0.16543 0.27908 0.0
O63 O 0.81462 0.18541 0.30069 0.0
C64 C 0.60422 0.02019 0.2931 0.0
O65 O 0.63498 1.00678 0.27988 0.0
O66 O 0.66412 0.99873 0.35531 0.0
O67 O 0.74274 1.01094 0.34789 0.0
H68 H 0.615 0.02202 0.45942 0.0
H69 H 0.73927 0.06159 0.25015 0.0
O70 O 0.81883 0.11871 0.28129 0.0
H71 H 0.72161 0.89232 0.26678 0.0
H72 H 0.926 0.04559 0.27517 0.0
H73 H 0.8335 0.0525 0.36966 0.0
H74 H 0.75842 0.95806 0.30854 0.0
H75 H 0.85083 0.05627 0.2695 0.0
O76 O 0.61599 0.04392 0.31951 0.0
H77 H 0.66906 0.03145 0.41329 0.0
H78 H 0.5952 0.09373 0.35885 0.0
H79 H 0.90811 0.04115 0.37646 0.0
H80 H 0.70309 0.99726 0.20749 0.0
H81 H 0.95505 0.0378 0.32899 0.0
H82 H 0.69386 0.91183 0.21574 0.0
O83 O 0.80888 0.11821 0.34854 0.0
H84 H 0.69963 0.21607 0.27992 0.0
H85 H 0.71199 0.1617 0.38834 0.0
H86 H 0.73392 0.2507 0.37883 0.0
H87 H 0.72766 0.27838 0.3243 0.0
H88 H 0.67862 0.12757 0.29043 0.0
H89 H 0.5398 0.08435 0.40426 0.0
H90 H 0.54965 0.04847 0.45507 0.0
O91 O 0.73834 0.0963 0.377 0.0
C92 C 0.69753 0.98511 0.35914 0.0
C93 C 0.61043 0.03788 0.43746 0.0
C94 C 0.56818 0.07276 0.40649 0.0
N95 N 0.63559 0.06337 0.38344 0.0
C96 C 0.64112 0.0435 0.41128 0.0
C97 C 0.59958 0.07783 0.38081 0.0
C98 C 0.57374 0.05266 0.43498 0.0
C99 C 0.7358 0.02466 0.2538 0.0
N100 N 0.75086 0.0136 0.28182 0.0
C101 C 0.71508 0.98831 0.22961 0.0
C102 C 0.70985 0.94036 0.23428 0.0
C103 C 0.72533 0.92937 0.26293 0.0
C104 C 0.74587 0.96666 0.28657 0.0
C105 C 0.90594 0.04709 0.29604 0.0
C106 C 0.85358 0.0509 0.34887 0.0
C107 C 0.86348 0.05339 0.29297 0.0
N108 N 0.83785 0.0552 0.31919 0.0
C109 C 0.89586 0.04452 0.35288 0.0
C110 C 0.92219 0.04267 0.32624 0.0
C111 C 0.78672 0.11934 0.37398 0.0
C112 C 0.7023 0.20442 0.30381 0.0
C113 C 0.70923 0.17343 0.36453 0.0
C114 C 0.72163 0.22388 0.3593 0.0
C115 C 0.7181 0.23938 0.32871 0.0
N116 N 0.69359 0.1393 0.33999 0.0
C117 C 0.69021 0.15427 0.30992 0.0
Co118 Co 0.72209 0.77312 0.48106 0.0
Co119 Co 0.6167 0.67518 0.51661 0.0
O120 O 0.6517 0.71667 0.47908 0.0
C121 C 0.67183 0.82521 0.44861 0.0
O122 O 0.63683 0.80794 0.47091 0.0
C123 C 0.59156 0.59955 0.46394 0.0
O124 O 0.63881 0.62644 0.45395 0.0
O125 O 0.67246 0.65885 0.52342 0.0
O126 O 0.74043 0.73525 0.51291 0.0
H127 H 0.60454 0.6147 0.62912 0.0
H128 H 0.67735 0.73137 0.41804 0.0
O129 O 0.70674 0.81328 0.44901 0.0
H130 H 0.82601 0.70674 0.42734 0.0
H131 H 0.88589 0.91498 0.43581 0.0
H132 H 0.79549 0.82566 0.53343 0.0
H133 H 0.80442 0.74762 0.47056 0.0
H134 H 0.79811 0.84205 0.43317 0.0
O135 O 0.57758 0.613 0.48892 0.0
H136 H 0.648 0.66684 0.58211 0.0
H137 H 0.5096 0.59359 0.52979 0.0
H138 H 0.88345 0.89801 0.53712 0.0
H139 H 0.69795 0.69092 0.37402 0.0
H140 H 0.9292 0.94333 0.48807 0.0
H141 H 0.77265 0.6782 0.37859 0.0
O142 O 0.70377 0.80474 0.51631 0.0
H143 H 0.4911 0.69994 0.45203 0.0
H144 H 0.56308 0.71245 0.55891 0.0
H145 H 0.49786 0.73744 0.5509 0.0
H146 H 0.46137 0.73121 0.49714 0.0
H147 H 0.55675 0.67578 0.46103 0.0
H148 H 0.46466 0.54016 0.57614 0.0
H149 H 0.51214 0.55068 0.62631 0.0
O150 O 0.65338 0.73564 0.54561 0.0
C151 C 0.72025 0.69083 0.52539 0.0
C152 C 0.58336 0.60985 0.60744 0.0
C153 C 0.50491 0.56795 0.57768 0.0
N154 N 0.5814 0.63355 0.55328 0.0
C155 C 0.60775 0.63945 0.58077 0.0
C156 C 0.53062 0.59821 0.55147 0.0
C157 C 0.53156 0.5739 0.60583 0.0
C158 C 0.71023 0.72644 0.42004 0.0
N159 N 0.73968 0.7419 0.4468 0.0
C160 C 0.72157 0.70331 0.39511 0.0
C161 C 0.76343 0.6961 0.39771 0.0
C162 C 0.79334 0.71204 0.42508 0.0
C163 C 0.78081 0.73497 0.44954 0.0
C164 C 0.86637 0.89553 0.45735 0.0
C165 C 0.81524 0.84494 0.51195 0.0
C166 C 0.81659 0.8543 0.45601 0.0
N167 N 0.79172 0.8295 0.48311 0.0
C168 C 0.86502 0.88598 0.5142 0.0
C169 C 0.89066 0.91141 0.48667 0.0
C170 C 0.68123 0.78379 0.5422 0.0
C171 C 0.50657 0.70263 0.47558 0.0
C172 C 0.54741 0.70962 0.53544 0.0
C173 C 0.51043 0.72377 0.53106 0.0
C174 C 0.48996 0.72025 0.5009 0.0
N175 N 0.56348 0.69232 0.51049 0.0
C176 C 0.54359 0.68878 0.48086 0.0
Co177 Co 0.96138 0.72044 0.64424 0.0
Co178 Co 0.95536 0.61739 0.68264 0.0
O179 O 0.9476 0.65006 0.64439 0.0
C180 C 0.85689 0.66791 0.61417 0.0
O181 O 0.83995 0.635 0.63766 0.0
C182 C 1.00699 0.59153 0.63106 0.0
O183 O 0.02704 0.63845 0.62054 0.0
O184 O 0.02712 0.67427 0.689 0.0
O185 O 0.01966 0.74171 0.67503 0.0
H186 H 1.00448 0.61135 0.79593 0.0
H187 H 0.95401 0.66872 0.58328 0.0
O188 O 0.90389 0.70232 0.61324 0.0
H189 H 0.12649 0.81978 0.58403 0.0
H190 H 0.98039 0.88006 0.59402 0.0
H191 H 0.98458 0.798 0.69421 0.0
H192 H 0.06753 0.80275 0.62869 0.0
H193 H 0.96552 0.79222 0.59409 0.0
O194 O 0.97935 0.57805 0.65595 0.0
H195 H 0.99447 0.65207 0.74792 0.0
H196 H 0.93232 0.5117 0.69788 0.0
H197 H 1.00029 0.88612 0.69519 0.0
H198 H 1.01122 0.68472 0.5377 0.0
H199 H 0.99813 0.9277 0.64483 0.0
H200 H 0.09832 0.76053 0.53799 0.0
O201 O 0.9137 0.70531 0.68056 0.0
H202 H 0.8056 0.48733 0.61951 0.0
H203 H 0.86494 0.56424 0.72533 0.0
H204 H 0.77509 0.4976 0.71798 0.0
H205 H 0.74489 0.45863 0.66475 0.0
H206 H 0.89506 0.55444 0.62785 0.0
H207 H 0.94204 0.46955 0.7453 0.0
H208 H 0.97818 0.51942 0.79482 0.0
O209 O 0.93059 0.65423 0.71051 0.0
C210 C 0.04354 0.72228 0.68897 0.0
C211 C 0.98863 0.58919 0.77451 0.0
C212 C 0.95366 0.50964 0.74608 0.0
N213 N 0.96277 0.58433 0.72012 0.0
C214 C 0.98279 0.61203 0.74725 0.0
C215 C 0.94842 0.53377 0.71926 0.0
C216 C 0.9739 0.53763 0.77386 0.0
C217 C 0.99169 0.70203 0.58346 0.0
N218 N 1.00758 0.73462 0.60879 0.0
C219 C 0.02399 0.71078 0.55763 0.0
C220 C 0.07286 0.75328 0.55783 0.0
C221 C 0.08873 0.78646 0.58368 0.0
C222 C 0.05536 0.77646 0.60907 0.0
C223 C 0.9815 0.86239 0.61612 0.0
C224 C 0.98389 0.81592 0.67217 0.0
C225 C 0.97297 0.81259 0.61631 0.0
N226 N 0.97449 0.79008 0.64411 0.0
C227 C 0.99269 0.8658 0.67289 0.0
C228 C 0.99146 0.8891 0.64463 0.0
C229 C 0.91089 0.68252 0.70661 0.0
C230 C 0.81835 0.50388 0.64284 0.0
C231 C 0.85214 0.54749 0.70209 0.0
C232 C 0.8012 0.50971 0.69809 0.0
C233 C 0.78429 0.48785 0.66822 0.0
N234 N 0.88535 0.56299 0.67708 0.0
C235 C 0.86903 0.54174 0.64773 0.0
Co236 Co 0.25517 0.9566 0.81367 0.0
Co237 Co 0.35345 0.94983 0.84908 0.0
O238 O 0.31227 0.94358 0.81136 0.0
C239 C 0.20289 0.85536 0.77925 0.0
O240 O 0.21737 0.83535 0.80177 0.0
C241 C 0.43016 1.00195 0.79715 0.0
O242 O 0.40316 0.02202 0.78689 0.0
O243 O 0.36907 0.02155 0.85617 0.0
O244 O 0.29184 0.01156 0.84647 0.0
H245 H 0.41229 0.99719 0.96198 0.0
H246 H 0.29835 0.95703 0.75057 0.0
O247 O 0.21613 0.90253 0.78051 0.0
H248 H 0.32073 0.12897 0.76297 0.0
H249 H 0.1141 0.98085 0.76929 0.0
H250 H 0.20038 0.97287 0.86665 0.0
H251 H 0.27971 0.06457 0.80513 0.0
H252 H 0.18765 0.96709 0.76615 0.0
O253 O 0.41613 0.97388 0.82183 0.0
H254 H 0.36056 0.98854 0.91473 0.0
H255 H 0.43553 0.92509 0.86257 0.0
H256 H 0.12741 0.98741 0.87091 0.0
H257 H 0.33894 0.02005 0.7076 0.0
H258 H 0.08361 0.99131 0.822 0.0
H259 H 0.35051 0.1068 0.71371 0.0
O260 O 0.2235 0.90495 0.84803 0.0
H261 H 0.33153 0.80119 0.78385 0.0
H262 H 0.31655 0.85847 0.89089 0.0
H263 H 0.29302 0.76876 0.88247 0.0
H264 H 0.30056 0.73961 0.82864 0.0
H265 H 0.35416 0.89047 0.79325 0.0
H266 H 0.48853 0.93354 0.90918 0.0
H267 H 0.47695 0.96963 0.95939 0.0
O268 O 0.29258 0.92506 0.87775 0.0
C269 C 0.33645 0.03645 0.85867 0.0
C270 C 0.41761 0.98124 0.94028 0.0
C271 C 0.46046 0.94564 0.91062 0.0
N272 N 0.39473 0.95608 0.88595 0.0
C273 C 0.38825 0.97607 0.91346 0.0
C274 C 0.43043 0.94109 0.88427 0.0
C275 C 0.45391 0.96585 0.93879 0.0
C276 C 0.3028 0.99454 0.75325 0.0
N277 N 0.28661 1.00706 0.7803 0.0
C278 C 0.326 0.03013 0.72891 0.0
C279 C 0.33257 0.07883 0.73238 0.0
C280 C 0.31593 0.09131 0.76003 0.0
C281 C 0.29294 0.05475 0.78389 0.0
C282 C 0.13279 0.97912 0.79079 0.0
C283 C 0.18165 0.97467 0.84523 0.0
C284 C 0.1743 0.97104 0.78914 0.0
N285 N 0.19819 0.96894 0.81616 0.0
C286 C 0.1403 0.98287 0.84781 0.0
C287 C 0.11573 0.98503 0.82036 0.0
C288 C 0.24439 0.90348 0.87399 0.0
C289 C 0.32826 0.81347 0.80743 0.0
C290 C 0.31988 0.84609 0.86738 0.0
C291 C 0.30656 0.79525 0.86277 0.0
C292 C 0.31082 0.77892 0.83257 0.0
N293 N 0.33707 0.87979 0.84261 0.0
C294 C 0.34122 0.86403 0.81293 0.0
Co295 Co 0.30932 0.24848 0.97885 0.0
Co296 Co 0.41491 0.34553 0.01514 0.0
O297 O 0.37992 0.30461 0.97742 0.0
C298 C 0.36009 0.19637 0.94735 0.0
O299 O 0.39435 0.21352 0.9701 0.0
C300 C 0.43978 0.42159 0.96286 0.0
O301 O 0.39264 0.3945 0.95271 0.0
O302 O 0.35915 0.36172 0.02237 0.0
O303 O 0.29066 0.28637 1.01044 0.0
H304 H 0.42696 0.40339 0.12831 0.0
H305 H 0.35541 0.29013 0.9161 0.0
O306 O 0.32519 0.20833 0.94712 0.0
H307 H 0.20748 0.31616 0.92393 0.0
H308 H 0.14629 0.10744 0.93214 0.0
H309 H 0.23462 0.19589 0.03053 0.0
H310 H 0.22788 0.27494 0.96752 0.0
H311 H 0.23431 0.18007 0.9303 0.0
O312 O 0.45379 0.40817 0.98784 0.0
H313 H 0.38367 0.35165 0.08107 0.0
H314 H 0.52173 0.42762 0.02855 0.0
H315 H 0.14642 0.12379 0.03342 0.0
H316 H 0.33596 0.33086 0.87172 0.0
H317 H 0.1017 0.07894 0.98398 0.0
H318 H 0.26164 0.34431 0.87555 0.0
O319 O 0.32636 0.2163 0.01432 0.0
H320 H 0.54047 0.32202 0.94969 0.0
H321 H 0.46897 0.30802 0.05685 0.0
H322 H 0.53431 0.28335 0.04829 0.0
H323 H 0.57054 0.29031 0.99439 0.0
H324 H 0.47472 0.34587 0.95924 0.0
H325 H 0.56643 0.48048 0.07518 0.0
H326 H 0.51902 0.46844 0.12555 0.0
O327 O 0.37855 0.28457 0.04366 0.0
C328 C 0.31115 0.33034 0.02358 0.0
C329 C 0.44807 0.40894 0.10652 0.0
C330 C 0.52631 0.45228 0.07668 0.0
N331 N 0.45009 0.38651 0.05206 0.0
C332 C 0.42379 0.37965 0.0797 0.0
C333 C 0.50073 0.42234 0.05031 0.0
C334 C 0.4997 0.44547 0.10494 0.0
C335 C 0.32269 0.29537 0.91778 0.0
N336 N 0.29279 0.28013 0.94434 0.0
C337 C 0.31201 0.31866 0.89265 0.0
C338 C 0.27036 0.32628 0.89484 0.0
C339 C 0.23999 0.31056 0.922 0.0
C340 C 0.25186 0.28744 0.94667 0.0
C341 C 0.16535 0.12671 0.95384 0.0
C342 C 0.2153 0.17681 1.00889 0.0
C343 C 0.21524 0.16779 0.95296 0.0
N344 N 0.23951 0.19237 0.98027 0.0
C345 C 0.1654 0.13591 1.01068 0.0
C346 C 0.14034 0.11075 0.98294 0.0
C347 C 0.35001 0.23654 0.04008 0.0
C348 C 0.52511 0.31901 0.97331 0.0
C349 C 0.48454 0.31119 0.03332 0.0
C350 C 0.52159 0.29721 0.02863 0.0
C351 C 0.54191 0.30114 0.99839 0.0
N352 N 0.46827 0.32872 1.0086 0.0
C353 C 0.48804 0.33268 0.97889 0.0
Co354 Co 0.72574 0.95583 0.71187 0.0
Co355 Co 0.62328 0.9527 0.6747 0.0
O356 O 0.65609 0.94445 0.71285 0.0
C357 C 0.67366 0.8527 0.74425 0.0
O358 O 0.64067 0.8335 0.72085 0.0
C359 C 0.59719 1.00342 0.72718 0.0
O360 O 0.64205 0.01894 0.74005 0.0
O361 O 0.6812 0.02381 0.66825 0.0
O362 O 0.74722 0.01279 0.68008 0.0
H363 H 0.61775 1.00334 0.56173 0.0
H364 H 0.67903 0.95341 0.77397 0.0
O365 O 0.70766 0.89986 0.744 0.0
H366 H 0.83319 0.12335 0.76831 0.0
H367 H 0.88688 0.97348 0.75911 0.0
H368 H 0.7988 0.97192 0.66025 0.0
H369 H 0.81105 0.06191 0.72449 0.0
H370 H 0.80052 0.96239 0.76077 0.0
O371 O 0.58519 0.97826 0.70129 0.0
H372 H 0.65804 0.99182 0.60947 0.0
H373 H 0.51794 0.93123 0.65966 0.0
H374 H 0.88543 0.98381 0.65747 0.0
H375 H 0.70017 0.01318 0.81874 0.0
H376 H 0.93004 0.9845 0.70714 0.0
H377 H 0.77763 0.09899 0.81602 0.0
O378 O 0.70682 0.90588 0.67655 0.0
H379 H 0.4914 0.8052 0.73837 0.0
H380 H 0.5676 0.86228 0.63222 0.0
H381 H 0.49895 0.77335 0.6398 0.0
H382 H 0.46026 0.74432 0.69318 0.0
H383 H 0.56052 0.89367 0.72982 0.0
H384 H 0.47628 0.94262 0.61256 0.0
H385 H 0.52622 0.97872 0.56309 0.0
O386 O 0.65851 0.92637 0.64659 0.0
C387 C 0.72877 0.03827 0.66709 0.0
C388 C 0.59556 0.98751 0.58313 0.0
C389 C 0.51619 0.95349 0.61167 0.0
N390 N 0.59042 0.96084 0.63734 0.0
C391 C 0.61815 0.98081 0.61024 0.0
C392 C 0.54006 0.94731 0.63831 0.0
C393 C 0.54422 0.97373 0.58392 0.0
C394 C 0.71301 0.99053 0.7727 0.0
N395 N 0.74361 1.0043 0.74646 0.0
C396 C 0.72468 0.02428 0.79808 0.0
C397 C 0.76809 0.07244 0.79652 0.0
C398 C 0.7992 0.08617 0.76973 0.0
C399 C 0.78628 0.0514 0.74481 0.0
C400 C 0.86784 0.9732 0.73729 0.0
C401 C 0.81798 0.97234 0.682 0.0
C402 C 0.8188 0.96669 0.73809 0.0
N403 N 0.79453 0.96645 0.71067 0.0
C404 C 0.86704 0.97904 0.68026 0.0
C405 C 0.89204 0.97941 0.70813 0.0
C406 C 0.68439 0.90407 0.65055 0.0
C407 C 0.50782 0.81745 0.71498 0.0
C408 C 0.55104 0.84995 0.65554 0.0
C409 C 0.51211 0.79955 0.65967 0.0
C410 C 0.49041 0.78329 0.68962 0.0
N411 N 0.56781 0.88329 0.68051 0.0
C412 C 0.54683 0.86757 0.70996 0.0
Co413 Co 0.7787 0.71622 0.87799 0.0
Co414 Co 0.68231 0.61344 0.83885 0.0
O415 O 0.72276 0.64555 0.87724 0.0
C416 C 0.83218 0.66444 0.90711 0.0
O417 O 0.81678 0.63203 0.88334 0.0
C418 C 0.60472 0.58554 0.89062 0.0
O419 O 0.63197 0.63176 0.90218 0.0
O420 O 0.66643 0.66975 0.83337 0.0
O421 O 0.74092 0.73741 0.84781 0.0
H422 H 0.62533 0.60877 0.72614 0.0
H423 H 0.73471 0.66241 0.93841 0.0
O424 O 0.81876 0.69821 0.90846 0.0
H425 H 0.7115 0.81233 0.94045 0.0
H426 H 0.91779 0.87583 0.92933 0.0
H427 H 0.83171 0.79537 0.82873 0.0
H428 H 0.75396 0.79737 0.89522 0.0
H429 H 0.84606 0.78732 0.92859 0.0
O430 O 0.61913 0.57292 0.86547 0.0
H431 H 0.67599 0.64908 0.77426 0.0
H432 H 0.60123 0.50739 0.82286 0.0
H433 H 0.9028 0.88421 0.82845 0.0
H434 H 0.69281 0.6762 0.98451 0.0
H435 H 0.94645 0.925 0.87902 0.0
H436 H 0.68071 0.75149 0.98565 0.0
O437 O 0.81165 0.70261 0.84119 0.0
H438 H 0.70394 0.48296 0.9 0.0
H439 H 0.72103 0.56269 0.79524 0.0
H440 H 0.74546 0.49678 0.80151 0.0
H441 H 0.73692 0.45638 0.85419 0.0
H442 H 0.68041 0.5494 0.89275 0.0
H443 H 0.54915 0.46558 0.77543 0.0
H444 H 0.56123 0.5163 0.72654 0.0
O445 O 0.74371 0.65181 0.81096 0.0
C446 C 0.69761 0.71784 0.83385 0.0
C447 C 0.61976 0.58621 0.74726 0.0
C448 C 0.57697 0.50588 0.77494 0.0
N449 N 0.64178 0.58069 0.80131 0.0
C450 C 0.64848 0.60884 0.77456 0.0
C451 C 0.60645 0.52983 0.80177 0.0
C452 C 0.58378 0.53435 0.74752 0.0
C453 C 0.7299 0.69545 0.93883 0.0
N454 N 0.74632 0.72884 0.91392 0.0
C455 C 0.706 0.70297 0.96496 0.0
C456 C 0.69914 0.74516 0.96555 0.0
C457 C 0.71629 0.77923 0.94018 0.0
C458 C 0.73993 0.77039 0.91444 0.0
C459 C 0.89906 0.8585 0.90715 0.0
C460 C 0.8503 0.81292 0.85086 0.0
C461 C 0.85852 0.80831 0.90657 0.0
N462 N 0.83452 0.78623 0.87866 0.0
C463 C 0.89063 0.86322 0.85054 0.0
C464 C 0.9151 0.88607 0.87891 0.0
C465 C 0.7916 0.68092 0.81488 0.0
C466 C 0.70765 0.50015 0.8769 0.0
C467 C 0.71721 0.54533 0.81825 0.0
C468 C 0.73104 0.50796 0.82164 0.0
C469 C 0.72623 0.4853 0.8512 0.0
N470 N 0.69896 0.55965 0.84357 0.0
C471 C 0.69417 0.53763 0.87262 0.0
Co472 Co 0.07042 0.77048 0.04158 0.0
Co473 Co 0.08036 0.67359 1.00641 0.0
O474 O 0.08477 0.71428 0.044 0.0
C475 C 0.17165 0.82405 0.07585 0.0
O476 O 0.1916 0.80905 0.05357 0.0
C477 C 0.02715 0.59659 0.05808 0.0
O478 O 1.00691 0.62355 0.06812 0.0
O479 O 1.00865 0.65727 0.99794 0.0
O480 O 1.01579 0.733 1.00878 0.0
H481 H 0.03898 0.61659 0.89279 0.0
H482 H 0.07115 0.72834 0.10483 0.0
O483 O 0.12436 0.81047 0.07464 0.0
H484 H 0.89749 0.70159 0.09225 0.0
H485 H 0.04229 0.9092 0.08573 0.0
H486 H 0.05352 0.8246 0.98849 0.0
H487 H 0.96165 0.74347 0.05005 0.0
H488 H 0.05734 0.8365 0.089 0.0
O489 O 0.05556 0.61065 0.03354 0.0
H490 H 0.0455 0.66789 0.93986 0.0
H491 H 0.10589 0.59182 0.99393 0.0
H492 H 0.03768 0.8967 0.98408 0.0
H493 H 1.0084 0.68698 0.14786 0.0
H494 H 0.03218 0.93969 0.03293 0.0
H495 H 0.92078 0.67319 0.14165 0.0
O496 O 0.12189 0.80298 1.00728 0.0
H497 H 0.22667 0.69602 0.07439 0.0
H498 H 0.17359 0.71151 0.96618 0.0
H499 H 0.26311 0.73558 0.9762 0.0
H500 H 0.29015 0.7278 0.03063 0.0
H501 H 0.13761 0.67285 0.06339 0.0
H502 H 0.09965 0.53941 0.94748 0.0
H503 H 0.06612 0.55173 0.89642 0.0
O504 O 0.10603 0.73477 0.97797 0.0
C505 C 0.99242 0.68887 0.99587 0.0
C506 C 0.05375 0.61092 0.91488 0.0
C507 C 0.08769 0.56754 0.9456 0.0
N508 N 0.07609 0.63295 0.96963 0.0
C509 C 0.05765 0.63996 0.94162 0.0
C510 C 0.09096 0.59722 0.97186 0.0
C511 C 0.06892 0.5745 0.91695 0.0
C512 C 0.03326 0.72294 0.1021 0.0
N513 N 0.02011 0.73835 0.07498 0.0
C514 C 0.99782 0.6993 0.12649 0.0
C515 C 0.94864 0.69149 0.12296 0.0
C516 C 0.93552 0.70734 0.09523 0.0
C517 C 0.97195 0.7308 0.07133 0.0
C518 C 0.04475 0.89089 0.06426 0.0
C519 C 0.05102 0.84298 1.00987 0.0
C520 C 0.05358 0.84989 0.06598 0.0
N521 N 0.05665 0.8265 0.039 0.0
C522 C 0.04209 0.88383 1.00722 0.0
C523 C 0.03903 0.90794 0.03463 0.0
C524 C 0.126 0.78283 0.98169 0.0
C525 C 0.21531 0.69941 0.05056 0.0
C526 C 0.18504 0.70807 0.98995 0.0
C527 C 0.23579 0.72169 0.99546 0.0
C528 C 0.25093 0.7173 0.026 0.0
N529 N 0.15029 0.69044 0.01415 0.0
C530 C 0.16488 0.68614 0.04416 0.0
Co531 Co 0.3094 0.06685 0.2103 0.0
Co532 Co 0.41114 0.07069 0.17188 0.0
O533 O 0.37935 0.07934 0.21033 0.0
C534 C 0.36114 0.17057 0.24227 0.0
O535 O 0.39321 0.18999 0.21844 0.0
C536 C 0.4372 0.01909 0.22322 0.0
O537 O 0.39024 0.99894 0.23374 0.0
O538 O 0.35376 0.99904 0.16623 0.0
O539 O 0.28761 1.00945 0.17872 0.0
H540 H 0.41454 0.01855 0.05896 0.0
H541 H 0.35942 0.071 0.2714 0.0
O542 O 0.32777 0.12318 0.24232 0.0
H543 H 0.20654 0.89991 0.26816 0.0
H544 H 0.14871 0.0467 0.25982 0.0
H545 H 0.23398 0.04833 0.15972 0.0
H546 H 0.22551 0.96059 0.22429 0.0
H547 H 0.2359 0.05986 0.26023 0.0
O548 O 0.4507 0.04692 0.19844 0.0
H549 H 0.37488 0.02935 0.10722 0.0
H550 H 0.51655 0.09343 0.15589 0.0
H551 H 0.14646 0.03427 0.1582 0.0
H552 H 0.34146 0.01203 0.31622 0.0
H553 H 0.10325 0.03354 0.2085 0.0
H554 H 0.26471 0.92563 0.31469 0.0
O555 O 0.32644 0.11609 0.17467 0.0
H556 H 0.54364 0.22102 0.23345 0.0
H557 H 0.46378 0.16019 0.12847 0.0
H558 H 0.53139 0.24984 0.13494 0.0
H559 H 0.57191 0.28077 0.18772 0.0
H560 H 0.47549 0.13176 0.22601 0.0
H561 H 0.5577 0.0828 0.10826 0.0
H562 H 0.50667 0.04536 0.05928 0.0
O563 O 0.37391 0.09511 0.14405 0.0
C564 C 0.30608 0.98418 0.16546 0.0
C565 C 0.43724 0.03504 0.08012 0.0
C566 C 0.51755 0.07102 0.10781 0.0
N567 N 0.44335 0.06229 0.13429 0.0
C568 C 0.415 0.0414 0.1075 0.0
C569 C 0.49398 0.0768 0.13474 0.0
C570 C 0.4889 0.05004 0.08033 0.0
C571 C 0.3257 0.03363 0.27067 0.0
N572 N 0.29366 0.01913 0.24508 0.0
C573 C 0.31584 1.00033 0.29607 0.0
C574 C 0.27282 0.95185 0.29518 0.0
C575 C 0.24024 0.93736 0.26906 0.0
C576 C 0.25135 0.97171 0.2441 0.0
C577 C 0.16714 0.04701 0.23773 0.0
C578 C 0.21543 0.04794 0.18173 0.0
C579 C 0.21665 0.05473 0.23782 0.0
N580 N 0.24014 0.05499 0.21006 0.0
C581 C 0.16586 0.04 0.18071 0.0
C582 C 0.14164 0.03959 0.20893 0.0
C583 C 0.34735 0.11663 0.14826 0.0
C584 C 0.52641 0.20795 0.21031 0.0
C585 C 0.48115 0.17334 0.15154 0.0
C586 C 0.51949 0.22415 0.15504 0.0
C587 C 0.54221 0.24147 0.18465 0.0
N588 N 0.46594 0.14064 0.1768 0.0
C589 C 0.48795 0.15739 0.20593 0.0
Co590 Co 0.25341 0.30438 0.37537 0.0
Co591 Co 0.35129 0.4091 0.33797 0.0
O592 O 0.30899 0.37557 0.37569 0.0
C593 C 0.20284 0.35781 0.40773 0.0
O594 O 0.23106 0.40029 0.39207 0.0
C595 C 0.42685 0.43575 0.39117 0.0
O596 O 0.39826 0.39001 0.40308 0.0
O597 O 0.36725 0.35289 0.33185 0.0
O598 O 0.29348 0.28459 0.3463 0.0
H599 H 0.41222 0.41763 0.22589 0.0
H600 H 0.29268 0.35708 0.43664 0.0
O601 O 0.20956 0.31972 0.40425 0.0
H602 H 0.31927 0.2093 0.4402 0.0
H603 H 0.11338 0.14201 0.42346 0.0
H604 H 0.20394 0.22662 0.32485 0.0
H605 H 0.27905 0.2242 0.3937 0.0
H606 H 0.18421 0.23095 0.42445 0.0
O607 O 0.41378 0.44833 0.36545 0.0
H608 H 0.35975 0.37575 0.27312 0.0
H609 H 0.43334 0.5156 0.32383 0.0
H610 H 0.1337 0.13744 0.32286 0.0
H611 H 0.33221 0.34331 0.484 0.0
H612 H 0.08778 0.09457 0.37241 0.0
H613 H 0.34601 0.26909 0.48592 0.0
O614 O 0.22209 0.31832 0.33792 0.0
H615 H 0.33274 0.54097 0.39981 0.0
H616 H 0.31371 0.46135 0.29476 0.0
H617 H 0.29159 0.52888 0.3013 0.0
H618 H 0.30126 0.56934 0.3541 0.0
H619 H 0.35363 0.4727 0.39234 0.0
H620 H 0.48721 0.55893 0.27735 0.0
H621 H 0.47665 0.50995 0.22785 0.0
O622 O 0.29073 0.37213 0.30915 0.0
C623 C 0.33675 0.3047 0.33237 0.0
C624 C 0.41713 0.43945 0.24729 0.0
C625 C 0.45925 0.51871 0.27618 0.0
N626 N 0.39323 0.44313 0.30116 0.0
C627 C 0.38737 0.41593 0.27406 0.0
C628 C 0.42874 0.4939 0.30247 0.0
C629 C 0.45329 0.49121 0.24841 0.0
C630 C 0.29822 0.3245 0.43739 0.0
N631 N 0.28403 0.2917 0.41222 0.0
C632 C 0.32078 0.317 0.46423 0.0
C633 C 0.3286 0.27542 0.46527 0.0
C634 C 0.31373 0.24194 0.4396 0.0
C635 C 0.29138 0.25076 0.41314 0.0
C636 C 0.13318 0.16021 0.40173 0.0
C637 C 0.18439 0.20815 0.34656 0.0
C638 C 0.1733 0.21061 0.40212 0.0
N639 N 0.19846 0.23391 0.37476 0.0
C640 C 0.14455 0.15767 0.34527 0.0
C641 C 0.11881 0.13364 0.37307 0.0
C642 C 0.24284 0.34193 0.31224 0.0
C643 C 0.32853 0.52375 0.37666 0.0
C644 C 0.31772 0.4785 0.31787 0.0
C645 C 0.30531 0.51687 0.3214 0.0
C646 C 0.31079 0.53959 0.35102 0.0
N647 N 0.33517 0.4632 0.34313 0.0
C648 C 0.34056 0.48525 0.37225 0.0
Co649 Co 0.9601 0.24881 0.54068 0.0
Co650 Co 0.95603 0.34961 0.50728 0.0
O651 O 0.95057 0.308 0.54457 0.0
C652 C 0.8616 0.19932 0.57771 0.0
O653 O 0.84109 0.2148 0.55609 0.0
C654 C 1.00671 0.42489 0.561 0.0
O655 O 0.01919 0.39376 0.57468 0.0
O656 O 0.02657 0.36255 0.49857 0.0
O657 O 1.01207 0.28299 0.50577 0.0
H658 H 0.99981 0.40781 0.39404 0.0
H659 H 0.96836 0.29141 0.60515 0.0
O660 O 0.90852 0.21183 0.57542 0.0
H661 H 0.13663 0.30919 0.58364 0.0
H662 H 0.98422 0.10619 0.58229 0.0
H663 H 0.96034 0.18573 0.48673 0.0
H664 H 0.06784 0.27056 0.54382 0.0
H665 H 0.97569 0.18269 0.58672 0.0
O666 O 0.98358 0.41317 0.53436 0.0
H667 H 0.99142 0.35535 0.44086 0.0
H668 H 0.93339 0.43345 0.49508 0.0
H669 H 0.96966 0.10987 0.48106 0.0
H670 H 0.03579 0.32933 0.64591 0.0
H671 H 0.98155 0.06937 0.52911 0.0
H672 H 0.12073 0.33865 0.6352 0.0
O673 O 0.90521 0.21899 0.50827 0.0
H674 H 0.81273 0.33241 0.57625 0.0
H675 H 0.863 0.31616 0.46741 0.0
H676 H 0.77468 0.29584 0.47788 0.0
H677 H 0.74907 0.30406 0.53262 0.0
H678 H 0.9005 0.3518 0.5648 0.0
H679 H 0.94172 0.48715 0.44894 0.0
H680 H 0.97492 0.47433 0.3979 0.0
O681 O 0.92748 0.28828 0.47853 0.0
C682 C 0.03797 0.32772 0.49383 0.0
C683 C 0.98522 0.4137 0.41613 0.0
C684 C 0.95267 0.45826 0.44695 0.0
N685 N 0.96181 0.39117 0.47069 0.0
C686 C 0.98029 0.38403 0.44273 0.0
C687 C 0.94821 0.42784 0.47304 0.0
C688 C 0.97128 0.45104 0.41832 0.0
C689 C 1.00505 0.29484 0.60045 0.0
N690 N 1.01413 0.27883 0.57213 0.0
C691 C 0.04316 0.31657 0.62356 0.0
C692 C 0.09084 0.32187 0.61751 0.0
C693 C 0.09981 0.30544 0.58856 0.0
C694 C 0.0608 0.2839 0.56602 0.0
C695 C 0.97935 0.12362 0.56114 0.0
C696 C 0.9664 0.16899 0.50767 0.0
C697 C 0.97442 0.16697 0.56351 0.0
N698 N 0.96848 0.18941 0.53694 0.0
C699 C 0.97127 0.12573 0.50435 0.0
C700 C 0.97785 0.10299 0.53132 0.0
C701 C 0.90333 0.24002 0.4825 0.0
C702 C 0.82349 0.32891 0.55227 0.0
C703 C 0.85218 0.31981 0.49131 0.0
C704 C 0.80211 0.3083 0.49708 0.0
C705 C 0.78777 0.31293 0.52779 0.0
N706 N 0.88709 0.33567 0.51542 0.0
C707 C 0.87323 0.34008 0.54561 0.0
C708 C 0.02266 0.51158 0.06084 0.0
C709 C 0.02098 0.55186 0.0765 0.0
C710 C 0.02128 0.47092 0.07783 0.0
C711 C 0.01958 0.46957 0.11124 0.0
H712 H 0.02568 0.51178 0.03519 0.0
H713 H 0.02371 0.44141 0.06472 0.0
S714 S 1.01343 0.56493 0.16366 0.0
N715 N 1.01569 0.58677 0.12741 0.0
N716 N 1.01464 0.51134 0.15931 0.0
C717 C 0.01701 0.50913 0.12717 0.0
C718 C 0.01725 0.54994 0.10983 0.0
C719 C 0.55916 0.0168 0.24228 0.0
C720 C 0.5586 0.01384 0.27564 0.0
C721 C 0.5192 0.0173 0.22552 0.0
C722 C 0.47645 0.01358 0.24135 0.0
H723 H 0.5917 0.02092 0.22905 0.0
H724 H 0.5222 0.02134 0.19992 0.0
S725 S 0.45493 1.00178 0.32846 0.0
N726 N 0.5107 1.00513 0.32383 0.0
N727 N 0.43528 1.00482 0.29236 0.0
C728 C 0.47446 1.0085 0.27461 0.0
C729 C 0.5156 1.00901 0.29173 0.0
C730 C 0.51028 0.51523 0.46014 0.0
C731 C 0.55265 0.55578 0.44497 0.0
C732 C 0.47092 0.47535 0.44264 0.0
C733 C 0.47162 0.47512 0.40922 0.0
H734 H 0.50724 0.51454 0.48579 0.0
H735 H 0.43874 0.44552 0.4554 0.0
S736 S 0.57413 0.57174 0.35794 0.0
N737 N 0.59346 0.59222 0.39445 0.0
N738 N 0.519 0.51831 0.36165 0.0
C739 C 0.51407 0.51503 0.39377 0.0
C740 C 0.55469 0.55502 0.4116 0.0
C741 C 1.00914 0.50971 0.62863 0.0
C742 C 1.0125 0.55233 0.61285 0.0
C743 C 1.00987 0.46992 0.61181 0.0
C744 C 1.01271 0.47045 0.57842 0.0
H745 H 1.00526 0.50672 0.65423 0.0
H746 H 1.00607 0.43753 0.62504 0.0
S747 S 0.02359 0.5737 0.52571 0.0
N748 N 0.02063 0.59328 0.56184 0.0
N749 N 0.0207 0.51815 0.53027 0.0
C750 C 0.01708 0.51327 0.56239 0.0
C751 C 0.01736 0.55427 0.57956 0.0
C752 C 0.55561 1.00691 0.77796 0.0
C753 C 0.55747 1.00906 0.74457 0.0
C754 C 0.51488 1.00575 0.79476 0.0
C755 C 0.47504 1.00804 0.77893 0.0
H756 H 0.5847 1.00393 0.79119 0.0
H757 H 0.51427 1.00236 0.82039 0.0
S758 S 0.46357 0.01718 0.69175 0.0
N759 N 0.5168 0.01531 0.69634 0.0
N760 N 0.44121 0.01455 0.72789 0.0
C761 C 0.47754 0.01229 0.74563 0.0
C762 C 0.51843 0.01238 0.72848 0.0
C763 C 0.5203 0.50652 0.95928 0.0
C764 C 0.47867 0.46535 0.94396 0.0
C765 C 0.55974 0.54641 0.94188 0.0
C766 C 0.55988 0.54599 0.90845 0.0
H767 H 0.52268 0.50769 0.98496 0.0
H768 H 0.59133 0.57679 0.95474 0.0
S769 S 0.45956 0.44747 0.85684 0.0
N770 N 0.43945 0.42754 0.89331 0.0
N771 N 0.51414 0.50147 0.86071 0.0
C772 C 0.51819 0.50541 0.89285 0.0
C773 C 0.47746 0.46543 0.91056 0.0
C774 C 0.19153 0.31309 0.06496 0.0
C775 C 0.20999 0.35285 0.08746 0.0
C776 C 0.22422 0.30782 0.04368 0.0
C777 C 0.27727 0.34219 0.04351 0.0
H778 H 0.15142 0.28456 0.06425 0.0
H779 H 0.20753 0.27538 0.02776 0.0
S780 S 0.34484 0.45658 0.09517 0.0
N781 N 0.28473 0.42971 0.10664 0.0
N782 N 0.34606 0.42038 0.06626 0.0
C783 C 0.29605 0.38386 0.0647 0.0
C784 C 0.26258 0.38899 0.08672 0.0
C785 C 0.887 0.25139 0.25332 0.0
C786 C 0.86638 0.19805 0.25331 0.0
C787 C 0.92447 0.2831 0.23115 0.0
C788 C 0.94351 0.26304 0.2081 0.0
H789 H 0.87523 0.26915 0.27117 0.0
H790 H 0.93988 0.32388 0.23294 0.0
S791 S 0.89796 0.12515 0.19547 0.0
N792 N 0.8644 0.12633 0.22593 0.0
N793 N 0.93528 0.1853 0.18542 0.0
C794 C 0.92144 0.20949 0.20701 0.0
C795 C 0.88291 0.17727 0.22925 0.0
C796 C 0.717 0.8868 0.40414 0.0
C797 C 0.67413 0.86229 0.42417 0.0
C798 C 0.72297 0.92479 0.38267 0.0
C799 C 0.68621 0.94023 0.37978 0.0
H800 H 0.74724 0.87765 0.40551 0.0
H801 H 0.7576 0.94295 0.36868 0.0
S802 S 0.56428 0.88497 0.42464 0.0
N803 N 0.59249 0.8542 0.43836 0.0
N804 N 0.60321 0.92491 0.39758 0.0
C805 C 0.64192 0.91449 0.39866 0.0
C806 C 0.63605 0.87588 0.4209 0.0
C807 C 0.807 0.71431 0.54635 0.0
C808 C 0.75413 0.67921 0.54553 0.0
C809 C 0.8396 0.70913 0.56776 0.0
C810 C 0.82123 0.66876 0.58978 0.0
H811 H 0.82361 0.74721 0.53081 0.0
H812 H 0.87953 0.73818 0.5675 0.0
S813 S 0.68698 0.56317 0.59578 0.0
N814 N 0.68571 0.59978 0.56716 0.0
N815 N 0.74684 0.59069 0.60787 0.0
C816 C 0.76885 0.63201 0.58845 0.0
C817 C 0.73548 0.63701 0.56627 0.0
C818 C 0.10741 0.73692 0.73249 0.0
C819 C 0.08923 0.75692 0.70885 0.0
C820 C 0.1452 0.76885 0.75446 0.0
C821 C 0.16709 0.82234 0.75361 0.0
H822 H 0.091 0.69609 0.73493 0.0
H823 H 0.15621 0.75119 0.77282 0.0
S824 S 0.13831 0.8949 0.69389 0.0
N825 N 0.09971 0.83459 0.68468 0.0
N826 N 0.17133 0.89392 0.72474 0.0
C827 C 0.15153 0.84295 0.7289 0.0
C828 C 0.11261 0.81053 0.70691 0.0
C829 C 0.31178 0.09832 0.8805 0.0
C830 C 0.34769 0.08163 0.87898 0.0
C831 C 0.31718 0.13626 0.90184 0.0
C832 C 0.35863 0.15949 0.92306 0.0
H833 H 0.27816 0.08114 0.86555 0.0
H834 H 0.28756 0.14637 0.90216 0.0
S835 S 0.46616 0.13345 0.92725 0.0
N836 N 0.42863 0.09455 0.89928 0.0
N837 N 0.43827 0.16519 0.9398 0.0
C838 C 0.39602 0.14477 0.9211 0.0
C839 C 0.39073 0.1062 0.89902 0.0
C840 C 0.64956 0.73297 0.78978 0.0
C841 C 0.68633 0.75255 0.81428 0.0
C842 C 0.64434 0.76537 0.76789 0.0
C843 C 0.67507 0.81888 0.7698 0.0
H844 H 0.62589 0.69221 0.78657 0.0
H845 H 0.61702 0.74813 0.74876 0.0
S846 S 0.77173 0.89017 0.83233 0.0
N847 N 0.75077 0.82968 0.84051 0.0
N848 N 0.73932 0.88982 0.80079 0.0
C849 C 0.70942 0.83895 0.79549 0.0
C850 C 0.71542 0.80608 0.81731 0.0
C851 C 0.89016 0.70551 0.95378 0.0
C852 C 0.86902 0.66561 0.93137 0.0
C853 C 0.92819 0.71113 0.97511 0.0
C854 C 0.94707 0.67695 0.97549 0.0
H855 H 0.87836 0.73385 0.95443 0.0
H856 H 0.94374 0.74365 0.99096 0.0
S857 S 0.90104 0.56251 0.92398 0.0
N858 N 0.8675 0.58898 0.91236 0.0
N859 N 0.93832 0.59896 0.95289 0.0
C860 C 0.92451 0.63524 0.95431 0.0
C861 C 0.88584 0.62977 0.9322 0.0
C862 C 0.29039 0.91871 0.12279 0.0
C863 C 0.27091 0.9388 0.14553 0.0
C864 C 0.25817 0.88075 0.101 0.0
C865 C 0.20485 0.86054 0.10117 0.0
H866 H 0.33109 0.93359 0.12098 0.0
H867 H 0.27549 0.86812 0.08337 0.0
S868 S 0.13342 0.89537 0.15817 0.0
N869 N 0.19379 0.93247 0.16789 0.0
N870 N 0.13387 0.86046 0.12828 0.0
C871 C 0.18468 0.87825 0.12491 0.0
C872 C 0.21742 0.9174 0.14667 0.0
C873 C 0.38998 0.25791 0.26592 0.0
C874 C 0.35996 0.20434 0.26799 0.0
C875 C 0.38475 0.29016 0.28796 0.0
C876 C 0.34865 0.27036 0.3128 0.0
H877 H 0.4167 0.27529 0.24653 0.0
H878 H 0.40777 0.33094 0.28458 0.0
S879 S 0.26562 0.13263 0.33151 0.0
N880 N 0.29739 0.13323 0.29958 0.0
N881 N 0.28588 0.19303 0.33959 0.0
C882 C 0.32043 0.21682 0.31604 0.0
C883 C 0.32646 0.18412 0.29406 0.0
C884 C 0.16374 0.39211 0.44703 0.0
C885 C 0.1601 0.3517 0.42839 0.0
C886 C 0.12404 0.38479 0.46794 0.0
C887 C 0.07937 0.33681 0.4709 0.0
H888 H 0.19794 0.42922 0.44603 0.0
H889 H 0.12884 0.41651 0.48236 0.0
S890 S 0.0474 0.22153 0.42296 0.0
N891 N 0.10557 0.26397 0.41158 0.0
N892 N 0.03167 0.25053 0.45007 0.0
C893 C 0.07453 0.29712 0.4511 0.0
C894 C 0.11465 0.30446 0.4301 0.0
C895 C 0.77595 0.14347 0.60392 0.0
C896 C 0.82911 0.16278 0.60315 0.0
C897 C 0.7441 0.10508 0.62555 0.0
C898 C 0.76381 0.08372 0.64721 0.0
H899 H 0.75841 0.1571 0.5871 0.0
H900 H 0.70344 0.09087 0.62443 0.0
S901 S 0.90116 0.12404 0.65697 0.0
N902 N 0.90033 0.16034 0.6281 0.0
N903 N 0.84106 0.08765 0.66747 0.0
C904 C 0.81721 0.10415 0.64741 0.0
C905 C 0.8496 0.14368 0.62579 0.0
C906 C 0.16506 0.33797 0.28898 0.0
C907 C 0.21 0.33591 0.28469 0.0
C908 C 0.13641 0.33817 0.26285 0.0
C909 C 0.15102 0.33515 0.23149 0.0
H910 H 0.15304 0.34147 0.31263 0.0
H911 H 0.10281 0.34126 0.26726 0.0
S912 S 0.26356 0.32488 0.20782 0.0
N913 N 0.26639 0.32802 0.24697 0.0
N914 N 0.21215 0.32751 0.19787 0.0
C915 C 0.19472 0.33085 0.227 0.0
C916 C 0.22435 0.33156 0.2536 0.0
C917 C 0.8881 0.22604 0.42396 0.0
C918 C 0.87416 0.20748 0.45522 0.0
C919 C 0.86074 0.19661 0.39765 0.0
C920 C 0.81786 0.14799 0.40167 0.0
H921 H 0.9205 0.26363 0.41972 0.0
H922 H 0.87233 0.21262 0.37407 0.0
S923 S 0.76677 0.08062 0.4781 0.0
N924 N 0.81571 0.1363 0.48839 0.0
N925 N 0.76405 0.08142 0.43897 0.0
C926 C 0.80403 0.12856 0.43265 0.0
C927 C 0.83227 0.15816 0.45941 0.0
C928 C 0.68255 0.88856 0.59205 0.0
C929 C 0.68804 0.87505 0.62326 0.0
C930 C 0.68245 0.86004 0.56578 0.0
C931 C 0.68677 0.81634 0.56978 0.0
H932 H 0.67786 0.92126 0.58784 0.0
H933 H 0.67715 0.87123 0.54228 0.0
S934 S 0.70495 0.766 0.64599 0.0
N935 N 0.70048 0.81625 0.65631 0.0
N936 N 0.69949 0.76231 0.60693 0.0
C937 C 0.69354 0.80304 0.60066 0.0
C938 C 0.69447 0.83252 0.6274 0.0
C939 C 0.89651 0.68239 0.76516 0.0
C940 C 0.88302 0.68793 0.73394 0.0
C941 C 0.8683 0.68282 0.79146 0.0
C942 C 0.82495 0.68779 0.78749 0.0
H943 H 0.92876 0.67691 0.76932 0.0
H944 H 0.8792 0.67703 0.81493 0.0
S945 S 0.77517 0.70687 0.7113 0.0
N946 N 0.82493 0.70154 0.70095 0.0
N947 N 0.77156 0.70158 0.75037 0.0
C948 C 0.81194 0.69502 0.75661 0.0
C949 C 0.84111 0.69539 0.72985 0.0
C950 C 0.16987 0.82633 0.89711 0.0
C951 C 0.21193 0.87542 0.90131 0.0
C952 C 0.142 0.79696 0.92327 0.0
C953 C 0.15453 0.81603 0.95453 0.0
H954 H 0.15957 0.80981 0.87356 0.0
H955 H 0.11054 0.75884 0.91895 0.0
S956 S 0.25921 0.9443 0.97773 0.0
N957 N 0.26341 0.94304 0.93868 0.0
N958 N 0.2106 0.88829 0.98784 0.0
C959 C 0.19537 0.86594 0.95885 0.0
C960 C 0.22422 0.89547 0.93225 0.0
C961 C 0.34998 0.19369 0.12494 0.0
C962 C 0.34204 0.14422 0.12098 0.0
C963 C 0.35171 0.22293 0.09862 0.0
C964 C 0.34458 0.20338 0.06746 0.0
H965 H 0.35696 0.21066 0.14838 0.0
H966 H 0.35923 0.26139 0.10275 0.0
S967 S 0.31826 0.07393 0.04494 0.0
N968 N 0.3241 0.07567 0.08397 0.0
N969 N 0.3266 0.13019 0.03455 0.0
C970 C 0.33441 0.15305 0.06341 0.0
C971 C 0.33342 0.12363 0.09016 0.0
loop_
_geom_bond_atom_site_label_1
_geom_bond_atom_site_label_2
_geom_bond_distance
_geom_bond_site_symmetry_2
_ccdc_geom_bond_type
Co0 O2 2.143 . S
Co0 O8 2.074 . S
Co0 O11 2.093 . S
Co0 O24 2.097 . S
Co0 N41 2.151 . S
Co0 N49 2.214 . S
Co1 O2 2.160 . S
Co1 O7 2.058 . S
Co1 O17 2.057 . S
Co1 O32 2.037 . S
Co1 N36 2.145 . S
Co1 N57 2.257 . S
O2 Co0 2.143 . S
O2 Co1 2.160 . S
C3 O4 1.278 . S
C3 O11 1.224 . S
O4 C3 1.278 . S
C5 O6 1.245 . S
C5 O17 1.232 . S
O6 C5 1.245 . S
O7 Co1 2.058 . S
O7 C33 1.269 1_455 S
O8 Co0 2.074 . S
O8 C33 1.257 1_455 S
H9 C34 0.930 . S
H10 C40 0.930 . S
O11 Co0 2.093 . S
O11 C3 1.224 . S
H12 C44 0.929 . S
H13 C46 0.930 . S
H14 C47 0.930 . S
H15 C45 0.929 . S
H16 C48 0.928 . S
O17 Co1 2.057 . S
O17 C5 1.232 . S
H18 C37 0.929 . S
H19 C38 0.929 . S
H20 C50 0.931 . S
H21 C42 0.929 1_455 S
H22 C51 0.930 . S
H23 C43 0.931 . S
O24 Co0 2.097 . S
O24 C52 1.214 . S
H25 C53 0.929 . S
H26 C54 0.929 . S
H27 C55 0.930 . S
H28 C56 0.929 . S
H29 C58 0.930 . S
H30 C35 0.930 . S
H31 C39 0.930 . S
O32 Co1 2.037 . S
O32 C52 1.234 . S
C33 O7 1.269 1_655 S
C33 O8 1.257 1_655 S
C34 H9 0.930 . S
C34 C37 1.388 . S
C34 C39 1.418 . S
C35 H30 0.930 . S
C35 C38 1.404 . S
C35 C39 1.353 . S
N36 Co1 2.145 . S
N36 C37 1.397 . S
N36 C38 1.334 . S
C37 H18 0.929 . S
C37 C34 1.388 . S
C37 N36 1.397 . S
C38 H19 0.929 . S
C38 C35 1.404 . S
C38 N36 1.334 . S
C39 H31 0.930 . S
C39 C34 1.418 . S
C39 C35 1.353 . S
C40 H10 0.930 . S
C40 N41 1.330 . S
C40 C42 1.446 1_455 S
N41 Co0 2.151 . S
N41 C40 1.330 . S
N41 C45 1.418 1_455 S
C42 H21 0.929 1_655 S
C42 C40 1.446 1_655 S
C42 C43 1.332 . S
C43 H23 0.931 . S
C43 C42 1.332 . S
C43 C44 1.267 . S
C44 H12 0.929 . S
C44 C43 1.267 . S
C44 C45 1.251 . S
C45 H15 0.929 . S
C45 N41 1.418 1_655 S
C45 C44 1.251 . S
C46 H13 0.930 . S
C46 C48 1.406 . S
C46 C51 1.261 . S
C47 H14 0.930 . S
C47 N49 1.325 . S
C47 C50 1.357 . S
C48 H16 0.928 . S
C48 C46 1.406 . S
C48 N49 1.261 . S
N49 Co0 2.214 . S
N49 C47 1.325 . S
N49 C48 1.261 . S
C50 H20 0.931 . S
C50 C47 1.357 . S
C50 C51 1.312 . S
C51 H22 0.930 . S
C51 C46 1.261 . S
C51 C50 1.312 . S
C52 O24 1.214 . S
C52 O32 1.234 . S
C53 H25 0.929 . S
C53 C56 1.391 . S
C53 C58 1.391 . S
C54 H26 0.929 . S
C54 C55 1.390 . S
C54 N57 1.391 . S
C55 H27 0.930 . S
C55 C54 1.390 . S
C55 C56 1.392 . S
C56 H28 0.929 . S
C56 C53 1.391 . S
C56 C55 1.392 . S
N57 Co1 2.257 . S
N57 C54 1.391 . S
N57 C58 1.388 . S
C58 H29 0.930 . S
C58 C53 1.391 . S
C58 N57 1.388 . S
Co59 O61 2.143 . S
Co59 O67 2.074 . S
Co59 O70 2.093 . S
Co59 O83 2.097 . S
Co59 N100 2.151 . S
Co59 N108 2.214 . S
Co60 O61 2.160 . S
Co60 O66 2.058 . S
Co60 O76 2.057 . S
Co60 O91 2.037 . S
Co60 N95 2.145 . S
Co60 N116 2.257 . S
O61 Co59 2.143 . S
O61 Co60 2.160 . S
C62 O63 1.278 . S
C62 O70 1.224 . S
O63 C62 1.278 . S
C64 O65 1.245 . S
C64 O76 1.232 . S
O65 C64 1.245 . S
O66 Co60 2.058 . S
O66 C92 1.269 1_545 S
O67 Co59 2.074 . S
O67 C92 1.257 1_545 S
H68 C93 0.930 . S
H69 C99 0.930 . S
O70 Co59 2.093 . S
O70 C62 1.224 . S
H71 C103 0.929 . S
H72 C105 0.930 . S
H73 C106 0.930 . S
H74 C104 0.929 . S
H75 C107 0.928 . S
O76 Co60 2.057 . S
O76 C64 1.232 . S
H77 C96 0.929 . S
H78 C97 0.929 . S
H79 C109 0.931 . S
H80 C101 0.929 1_545 S
H81 C110 0.930 . S
H82 C102 0.931 . S
O83 Co59 2.097 . S
O83 C111 1.214 . S
H84 C112 0.929 . S
H85 C113 0.929 . S
H86 C114 0.930 . S
H87 C115 0.929 . S
H88 C117 0.930 . S
H89 C94 0.930 . S
H90 C98 0.930 . S
O91 Co60 2.037 . S
O91 C111 1.234 . S
C92 O66 1.269 1_565 S
C92 O67 1.257 1_565 S
C93 H68 0.930 . S
C93 C96 1.388 . S
C93 C98 1.418 . S
C94 H89 0.930 . S
C94 C97 1.404 . S
C94 C98 1.353 . S
N95 Co60 2.145 . S
N95 C96 1.397 . S
N95 C97 1.334 . S
C96 H77 0.929 . S
C96 C93 1.388 . S
C96 N95 1.397 . S
C97 H78 0.929 . S
C97 C94 1.404 . S
C97 N95 1.334 . S
C98 H90 0.930 . S
C98 C93 1.418 . S
C98 C94 1.353 . S
C99 H69 0.930 . S
C99 N100 1.330 . S
C99 C101 1.446 1_545 S
N100 Co59 2.151 . S
N100 C99 1.330 . S
N100 C104 1.418 1_545 S
C101 H80 0.929 1_565 S
C101 C99 1.446 1_565 S
C101 C102 1.332 . S
C102 H82 0.931 . S
C102 C101 1.332 . S
C102 C103 1.267 . S
C103 H71 0.929 . S
C103 C102 1.267 . S
C103 C104 1.251 . S
C104 H74 0.929 . S
C104 N100 1.418 1_565 S
C104 C103 1.251 . S
C105 H72 0.930 . S
C105 C107 1.406 . S
C105 C110 1.261 . S
C106 H73 0.930 . S
C106 N108 1.325 . S
C106 C109 1.357 . S
C107 H75 0.928 . S
C107 C105 1.406 . S
C107 N108 1.261 . S
N108 Co59 2.214 . S
N108 C106 1.325 . S
N108 C107 1.261 . S
C109 H79 0.931 . S
C109 C106 1.357 . S
C109 C110 1.312 . S
C110 H81 0.930 . S
C110 C105 1.261 . S
C110 C109 1.312 . S
C111 O83 1.214 . S
C111 O91 1.234 . S
C112 H84 0.929 . S
C112 C115 1.391 . S
C112 C117 1.391 . S
C113 H85 0.929 . S
C113 C114 1.390 . S
C113 N116 1.391 . S
C114 H86 0.930 . S
C114 C113 1.390 . S
C114 C115 1.392 . S
C115 H87 0.929 . S
C115 C112 1.391 . S
C115 C114 1.392 . S
N116 Co60 2.257 . S
N116 C113 1.391 . S
N116 C117 1.388 . S
C117 H88 0.930 . S
C117 C112 1.391 . S
C117 N116 1.388 . S
Co118 O120 2.143 . S
Co118 O126 2.074 . S
Co118 O129 2.093 . S
Co118 O142 2.097 . S
Co118 N159 2.151 . S
Co118 N167 2.214 . S
Co119 O120 2.160 . S
Co119 O125 2.058 . S
Co119 O135 2.057 . S
Co119 O150 2.037 . S
Co119 N154 2.145 . S
Co119 N175 2.257 . S
O120 Co118 2.143 . S
O120 Co119 2.160 . S
C121 O122 1.278 . S
C121 O129 1.224 . S
O122 C121 1.278 . S
C123 O124 1.245 . S
C123 O135 1.232 . S
O124 C123 1.245 . S
O125 Co119 2.058 . S
O125 C151 1.269 . S
O126 Co118 2.074 . S
O126 C151 1.257 . S
H127 C152 0.930 . S
H128 C158 0.930 . S
O129 Co118 2.093 . S
O129 C121 1.224 . S
H130 C162 0.929 . S
H131 C164 0.930 . S
H132 C165 0.930 . S
H133 C163 0.929 . S
H134 C166 0.928 . S
O135 Co119 2.057 . S
O135 C123 1.232 . S
H136 C155 0.929 . S
H137 C156 0.929 . S
H138 C168 0.931 . S
H139 C160 0.929 . S
H140 C169 0.930 . S
H141 C161 0.931 . S
O142 Co118 2.097 . S
O142 C170 1.214 . S
H143 C171 0.929 . S
H144 C172 0.929 . S
H145 C173 0.930 . S
H146 C174 0.929 . S
H147 C176 0.930 . S
H148 C153 0.930 . S
H149 C157 0.930 . S
O150 Co119 2.037 . S
O150 C170 1.234 . S
C151 O125 1.269 . S
C151 O126 1.257 . S
C152 H127 0.930 . S
C152 C155 1.388 . S
C152 C157 1.418 . S
C153 H148 0.930 . S
C153 C156 1.404 . S
C153 C157 1.353 . S
N154 Co119 2.145 . S
N154 C155 1.397 . S
N154 C156 1.334 . S
C155 H136 0.929 . S
C155 C152 1.388 . S
C155 N154 1.397 . S
C156 H137 0.929 . S
C156 C153 1.404 . S
C156 N154 1.334 . S
C157 H149 0.930 . S
C157 C152 1.418 . S
C157 C153 1.353 . S
C158 H128 0.930 . S
C158 N159 1.330 . S
C158 C160 1.446 . S
N159 Co118 2.151 . S
N159 C158 1.330 . S
N159 C163 1.418 . S
C160 H139 0.929 . S
C160 C158 1.446 . S
C160 C161 1.332 . S
C161 H141 0.931 . S
C161 C160 1.332 . S
C161 C162 1.267 . S
C162 H130 0.929 . S
C162 C161 1.267 . S
C162 C163 1.251 . S
C163 H133 0.929 . S
C163 N159 1.418 . S
C163 C162 1.251 . S
C164 H131 0.930 . S
C164 C166 1.406 . S
C164 C169 1.261 . S
C165 H132 0.930 . S
C165 N167 1.325 . S
C165 C168 1.357 . S
C166 H134 0.928 . S
C166 C164 1.406 . S
C166 N167 1.261 . S
N167 Co118 2.214 . S
N167 C165 1.325 . S
N167 C166 1.261 . S
C168 H138 0.931 . S
C168 C165 1.357 . S
C168 C169 1.312 . S
C169 H140 0.930 . S
C169 C164 1.261 . S
C169 C168 1.312 . S
C170 O142 1.214 . S
C170 O150 1.234 . S
C171 H143 0.929 . S
C171 C174 1.391 . S
C171 C176 1.391 . S
C172 H144 0.929 . S
C172 C173 1.390 . S
C172 N175 1.391 . S
C173 H145 0.930 . S
C173 C172 1.390 . S
C173 C174 1.392 . S
C174 H146 0.929 . S
C174 C171 1.391 . S
C174 C173 1.392 . S
N175 Co119 2.257 . S
N175 C172 1.391 . S
N175 C176 1.388 . S
C176 H147 0.930 . S
C176 C171 1.391 . S
C176 N175 1.388 . S
Co177 O179 2.143 . S
Co177 O185 2.074 . S
Co177 O188 2.093 . S
Co177 O201 2.097 . S
Co177 N218 2.151 . S
Co177 N226 2.214 . S
Co178 O179 2.160 . S
Co178 O184 2.058 . S
Co178 O194 2.057 . S
Co178 O209 2.037 . S
Co178 N213 2.145 . S
Co178 N234 2.257 . S
O179 Co177 2.143 . S
O179 Co178 2.160 . S
C180 O181 1.278 . S
C180 O188 1.224 . S
O181 C180 1.278 . S
C182 O183 1.245 . S
C182 O194 1.232 . S
O183 C182 1.245 . S
O184 Co178 2.058 . S
O184 C210 1.269 1_655 S
O185 Co177 2.074 . S
O185 C210 1.257 1_655 S
H186 C211 0.930 . S
H187 C217 0.930 . S
O188 Co177 2.093 . S
O188 C180 1.224 . S
H189 C221 0.929 . S
H190 C223 0.930 . S
H191 C224 0.930 . S
H192 C222 0.929 . S
H193 C225 0.928 . S
O194 Co178 2.057 . S
O194 C182 1.232 . S
H195 C214 0.929 . S
H196 C215 0.929 . S
H197 C227 0.931 . S
H198 C219 0.929 1_655 S
H199 C228 0.930 . S
H200 C220 0.931 . S
O201 Co177 2.097 . S
O201 C229 1.214 . S
H202 C230 0.929 . S
H203 C231 0.929 . S
H204 C232 0.930 . S
H205 C233 0.929 . S
H206 C235 0.930 . S
H207 C212 0.930 . S
H208 C216 0.930 . S
O209 Co178 2.037 . S
O209 C229 1.234 . S
C210 O184 1.269 1_455 S
C210 O185 1.257 1_455 S
C211 H186 0.930 . S
C211 C214 1.388 . S
C211 C216 1.418 . S
C212 H207 0.930 . S
C212 C215 1.404 . S
C212 C216 1.353 . S
N213 Co178 2.145 . S
N213 C214 1.397 . S
N213 C215 1.334 . S
C214 H195 0.929 . S
C214 C211 1.388 . S
C214 N213 1.397 . S
C215 H196 0.929 . S
C215 C212 1.404 . S
C215 N213 1.334 . S
C216 H208 0.930 . S
C216 C211 1.418 . S
C216 C212 1.353 . S
C217 H187 0.930 . S
C217 N218 1.330 . S
C217 C219 1.446 1_655 S
N218 Co177 2.151 . S
N218 C217 1.330 . S
N218 C222 1.418 1_655 S
C219 H198 0.929 1_455 S
C219 C217 1.446 1_455 S
C219 C220 1.332 . S
C220 H200 0.931 . S
C220 C219 1.332 . S
C220 C221 1.267 . S
C221 H189 0.929 . S
C221 C220 1.267 . S
C221 C222 1.251 . S
C222 H192 0.929 . S
C222 N218 1.418 1_455 S
C222 C221 1.251 . S
C223 H190 0.930 . S
C223 C225 1.406 . S
C223 C228 1.261 . S
C224 H191 0.930 . S
C224 N226 1.325 . S
C224 C227 1.357 . S
C225 H193 0.928 . S
C225 C223 1.406 . S
C225 N226 1.261 . S
N226 Co177 2.214 . S
N226 C224 1.325 . S
N226 C225 1.261 . S
C227 H197 0.931 . S
C227 C224 1.357 . S
C227 C228 1.312 . S
C228 H199 0.930 . S
C228 C223 1.261 . S
C228 C227 1.312 . S
C229 O201 1.214 . S
C229 O209 1.234 . S
C230 H202 0.929 . S
C230 C233 1.391 . S
C230 C235 1.391 . S
C231 H203 0.929 . S
C231 C232 1.390 . S
C231 N234 1.391 . S
C232 H204 0.930 . S
C232 C231 1.390 . S
C232 C233 1.392 . S
C233 H205 0.929 . S
C233 C230 1.391 . S
C233 C232 1.392 . S
N234 Co178 2.257 . S
N234 C231 1.391 . S
N234 C235 1.388 . S
C235 H206 0.930 . S
C235 C230 1.391 . S
C235 N234 1.388 . S
Co236 O238 2.143 . S
Co236 O244 2.074 . S
Co236 O247 2.093 . S
Co236 O260 2.097 . S
Co236 N277 2.151 . S
Co236 N285 2.214 . S
Co237 O238 2.160 . S
Co237 O243 2.058 . S
Co237 O253 2.057 . S
Co237 O268 2.037 . S
Co237 N272 2.145 . S
Co237 N293 2.257 . S
O238 Co236 2.143 . S
O238 Co237 2.160 . S
C239 O240 1.278 . S
C239 O247 1.224 . S
O240 C239 1.278 . S
C241 O242 1.245 . S
C241 O253 1.232 . S
O242 C241 1.245 . S
O243 Co237 2.058 . S
O243 C269 1.269 1_565 S
O244 Co236 2.074 . S
O244 C269 1.257 1_565 S
H245 C270 0.930 . S
H246 C276 0.930 . S
O247 Co236 2.093 . S
O247 C239 1.224 . S
H248 C280 0.929 . S
H249 C282 0.930 . S
H250 C283 0.930 . S
H251 C281 0.929 . S
H252 C284 0.928 . S
O253 Co237 2.057 . S
O253 C241 1.232 . S
H254 C273 0.929 . S
H255 C274 0.929 . S
H256 C286 0.931 . S
H257 C278 0.929 1_565 S
H258 C287 0.930 . S
H259 C279 0.931 . S
O260 Co236 2.097 . S
O260 C288 1.214 . S
H261 C289 0.929 . S
H262 C290 0.929 . S
H263 C291 0.930 . S
H264 C292 0.929 . S
H265 C294 0.930 . S
H266 C271 0.930 . S
H267 C275 0.930 . S
O268 Co237 2.037 . S
O268 C288 1.234 . S
C269 O243 1.269 1_545 S
C269 O244 1.257 1_545 S
C270 H245 0.930 . S
C270 C273 1.388 . S
C270 C275 1.418 . S
C271 H266 0.930 . S
C271 C274 1.404 . S
C271 C275 1.353 . S
N272 Co237 2.145 . S
N272 C273 1.397 . S
N272 C274 1.334 . S
C273 H254 0.929 . S
C273 C270 1.388 . S
C273 N272 1.397 . S
C274 H255 0.929 . S
C274 C271 1.404 . S
C274 N272 1.334 . S
C275 H267 0.930 . S
C275 C270 1.418 . S
C275 C271 1.353 . S
C276 H246 0.930 . S
C276 N277 1.330 . S
C276 C278 1.446 1_565 S
N277 Co236 2.151 . S
N277 C276 1.330 . S
N277 C281 1.418 1_565 S
C278 H257 0.929 1_545 S
C278 C276 1.446 1_545 S
C278 C279 1.332 . S
C279 H259 0.931 . S
C279 C278 1.332 . S
C279 C280 1.267 . S
C280 H248 0.929 . S
C280 C279 1.267 . S
C280 C281 1.251 . S
C281 H251 0.929 . S
C281 N277 1.418 1_545 S
C281 C280 1.251 . S
C282 H249 0.930 . S
C282 C284 1.406 . S
C282 C287 1.261 . S
C283 H250 0.930 . S
C283 N285 1.325 . S
C283 C286 1.357 . S
C284 H252 0.928 . S
C284 C282 1.406 . S
C284 N285 1.261 . S
N285 Co236 2.214 . S
N285 C283 1.325 . S
N285 C284 1.261 . S
C286 H256 0.931 . S
C286 C283 1.357 . S
C286 C287 1.312 . S
C287 H258 0.930 . S
C287 C282 1.261 . S
C287 C286 1.312 . S
C288 O260 1.214 . S
C288 O268 1.234 . S
C289 H261 0.929 . S
C289 C292 1.391 . S
C289 C294 1.391 . S
C290 H262 0.929 . S
C290 C291 1.390 . S
C290 N293 1.391 . S
C291 H263 0.930 . S
C291 C290 1.390 . S
C291 C292 1.392 . S
C292 H264 0.929 . S
C292 C289 1.391 . S
C292 C291 1.392 . S
N293 Co237 2.257 . S
N293 C290 1.391 . S
N293 C294 1.388 . S
C294 H265 0.930 . S
C294 C289 1.391 . S
C294 N293 1.388 . S
Co295 O297 2.143 . S
Co295 O303 2.074 . S
Co295 O306 2.093 . S
Co295 O319 2.097 1_556 S
Co295 N336 2.151 . S
Co295 N344 2.214 . S
Co296 O297 2.160 . S
Co296 O302 2.060 . S
Co296 O312 2.057 . S
Co296 O327 2.037 1_556 S
Co296 N331 2.145 1_556 S
Co296 N352 2.257 . S
O297 Co295 2.143 . S
O297 Co296 2.160 . S
C298 O299 1.278 . S
C298 O306 1.224 . S
O299 C298 1.278 . S
C300 O301 1.245 . S
C300 O312 1.232 . S
O301 C300 1.245 . S
O302 Co296 2.060 . S
O302 C328 1.268 1_556 S
O303 Co295 2.074 . S
O303 C328 1.257 1_556 S
H304 C329 0.930 . S
H305 C335 0.930 . S
O306 Co295 2.093 . S
O306 C298 1.224 . S
H307 C339 0.929 . S
H308 C341 0.930 . S
H309 C342 0.930 . S
H310 C340 0.929 . S
H311 C343 0.928 . S
O312 Co296 2.057 . S
O312 C300 1.232 . S
H313 C332 0.929 . S
H314 C333 0.929 . S
H315 C345 0.931 . S
H316 C337 0.929 . S
H317 C346 0.930 . S
H318 C338 0.931 . S
O319 Co295 2.097 1_554 S
O319 C347 1.214 . S
H320 C348 0.929 . S
H321 C349 0.929 . S
H322 C350 0.930 . S
H323 C351 0.929 . S
H324 C353 0.930 . S
H325 C330 0.930 . S
H326 C334 0.930 . S
O327 Co296 2.037 1_554 S
O327 C347 1.234 . S
C328 O302 1.268 1_554 S
C328 O303 1.257 1_554 S
C329 H304 0.930 . S
C329 C332 1.388 . S
C329 C334 1.418 . S
C330 H325 0.930 . S
C330 C333 1.404 . S
C330 C334 1.353 . S
N331 Co296 2.145 1_554 S
N331 C332 1.397 . S
N331 C333 1.334 . S
C332 H313 0.929 . S
C332 C329 1.388 . S
C332 N331 1.397 . S
C333 H314 0.929 . S
C333 C330 1.404 . S
C333 N331 1.334 . S
C334 H326 0.930 . S
C334 C329 1.418 . S
C334 C330 1.353 . S
C335 H305 0.930 . S
C335 N336 1.330 . S
C335 C337 1.446 . S
N336 Co295 2.151 . S
N336 C335 1.330 . S
N336 C340 1.418 . S
C337 H316 0.929 . S
C337 C335 1.446 . S
C337 C338 1.332 . S
C338 H318 0.931 . S
C338 C337 1.332 . S
C338 C339 1.267 . S
C339 H307 0.929 . S
C339 C338 1.267 . S
C339 C340 1.251 . S
C340 H310 0.929 . S
C340 N336 1.418 . S
C340 C339 1.251 . S
C341 H308 0.930 . S
C341 C343 1.406 . S
C341 C346 1.261 1_556 S
C342 H309 0.930 . S
C342 N344 1.325 1_554 S
C342 C345 1.357 . S
C343 H311 0.928 . S
C343 C341 1.406 . S
C343 N344 1.261 . S
N344 Co295 2.214 . S
N344 C342 1.325 1_556 S
N344 C343 1.261 . S
C345 H315 0.931 . S
C345 C342 1.357 . S
C345 C346 1.312 . S
C346 H317 0.930 . S
C346 C341 1.261 1_554 S
C346 C345 1.312 . S
C347 O319 1.214 . S
C347 O327 1.234 . S
C348 H320 0.929 . S
C348 C351 1.391 . S
C348 C353 1.391 . S
C349 H321 0.929 . S
C349 C350 1.390 . S
C349 N352 1.391 1_554 S
C350 H322 0.930 . S
C350 C349 1.390 . S
C350 C351 1.392 1_554 S
C351 H323 0.929 . S
C351 C348 1.391 . S
C351 C350 1.392 1_556 S
N352 Co296 2.257 . S
N352 C349 1.391 1_556 S
N352 C353 1.388 . S
C353 H324 0.930 . S
C353 C348 1.391 . S
C353 N352 1.388 . S
Co354 O356 2.143 . S
Co354 O362 2.074 . S
Co354 O365 2.093 . S
Co354 O378 2.097 . S
Co354 N395 2.151 . S
Co354 N403 2.214 . S
Co355 O356 2.160 . S
Co355 O361 2.058 . S
Co355 O371 2.057 . S
Co355 O386 2.037 . S
Co355 N390 2.145 . S
Co355 N411 2.257 . S
O356 Co354 2.143 . S
O356 Co355 2.160 . S
C357 O358 1.278 . S
C357 O365 1.224 . S
O358 C357 1.278 . S
C359 O360 1.245 . S
C359 O371 1.232 . S
O360 C359 1.245 . S
O361 Co355 2.058 . S
O361 C387 1.269 1_565 S
O362 Co354 2.074 . S
O362 C387 1.257 1_565 S
H363 C388 0.930 . S
H364 C394 0.930 . S
O365 Co354 2.093 . S
O365 C357 1.224 . S
H366 C398 0.929 . S
H367 C400 0.930 . S
H368 C401 0.930 . S
H369 C399 0.929 . S
H370 C402 0.928 . S
O371 Co355 2.057 . S
O371 C359 1.232 . S
H372 C391 0.929 . S
H373 C392 0.929 . S
H374 C404 0.931 . S
H375 C396 0.929 1_565 S
H376 C405 0.930 . S
H377 C397 0.931 . S
O378 Co354 2.097 . S
O378 C406 1.214 . S
H379 C407 0.929 . S
H380 C408 0.929 . S
H381 C409 0.930 . S
H382 C410 0.929 . S
H383 C412 0.930 . S
H384 C389 0.930 . S
H385 C393 0.930 . S
O386 Co355 2.037 . S
O386 C406 1.234 . S
C387 O361 1.269 1_545 S
C387 O362 1.257 1_545 S
C388 H363 0.930 . S
C388 C391 1.388 . S
C388 C393 1.418 . S
C389 H384 0.930 . S
C389 C392 1.404 . S
C389 C393 1.353 . S
N390 Co355 2.145 . S
N390 C391 1.397 . S
N390 C392 1.334 . S
C391 H372 0.929 . S
C391 C388 1.388 . S
C391 N390 1.397 . S
C392 H373 0.929 . S
C392 C389 1.404 . S
C392 N390 1.334 . S
C393 H385 0.930 . S
C393 C388 1.418 . S
C393 C389 1.353 . S
C394 H364 0.930 . S
C394 N395 1.330 . S
C394 C396 1.446 1_565 S
N395 Co354 2.151 . S
N395 C394 1.330 . S
N395 C399 1.418 1_565 S
C396 H375 0.929 1_545 S
C396 C394 1.446 1_545 S
C396 C397 1.332 . S
C397 H377 0.931 . S
C397 C396 1.332 . S
C397 C398 1.267 . S
C398 H366 0.929 . S
C398 C397 1.267 . S
C398 C399 1.251 . S
C399 H369 0.929 . S
C399 N395 1.418 1_545 S
C399 C398 1.251 . S
C400 H367 0.930 . S
C400 C402 1.406 . S
C400 C405 1.261 . S
C401 H368 0.930 . S
C401 N403 1.325 . S
C401 C404 1.357 . S
C402 H370 0.928 . S
C402 C400 1.406 . S
C402 N403 1.261 . S
N403 Co354 2.214 . S
N403 C401 1.325 . S
N403 C402 1.261 . S
C404 H374 0.931 . S
C404 C401 1.357 . S
C404 C405 1.312 . S
C405 H376 0.930 . S
C405 C400 1.261 . S
C405 C404 1.312 . S
C406 O378 1.214 . S
C406 O386 1.234 . S
C407 H379 0.929 . S
C407 C410 1.391 . S
C407 C412 1.391 . S
C408 H380 0.929 . S
C408 C409 1.390 . S
C408 N411 1.391 . S
C409 H381 0.930 . S
C409 C408 1.390 . S
C409 C410 1.392 . S
C410 H382 0.929 . S
C410 C407 1.391 . S
C410 C409 1.392 . S
N411 Co355 2.257 . S
N411 C408 1.391 . S
N411 C412 1.388 . S
C412 H383 0.930 . S
C412 C407 1.391 . S
C412 N411 1.388 . S
Co413 O415 2.143 . S
Co413 O421 2.074 . S
Co413 O424 2.093 . S
Co413 O437 2.097 . S
Co413 N454 2.151 . S
Co413 N462 2.214 . S
Co414 O415 2.160 . S
Co414 O420 2.058 . S
Co414 O430 2.057 . S
Co414 O445 2.037 . S
Co414 N449 2.145 . S
Co414 N470 2.257 . S
O415 Co413 2.143 . S
O415 Co414 2.160 . S
C416 O417 1.278 . S
C416 O424 1.224 . S
O417 C416 1.278 . S
C418 O419 1.245 . S
C418 O430 1.232 . S
O419 C418 1.245 . S
O420 Co414 2.058 . S
O420 C446 1.269 . S
O421 Co413 2.074 . S
O421 C446 1.257 . S
H422 C447 0.930 . S
H423 C453 0.930 . S
O424 Co413 2.093 . S
O424 C416 1.224 . S
H425 C457 0.929 . S
H426 C459 0.930 . S
H427 C460 0.930 . S
H428 C458 0.929 . S
H429 C461 0.928 . S
O430 Co414 2.057 . S
O430 C418 1.232 . S
H431 C450 0.929 . S
H432 C451 0.929 . S
H433 C463 0.931 . S
H434 C455 0.929 . S
H435 C464 0.930 . S
H436 C456 0.931 . S
O437 Co413 2.097 . S
O437 C465 1.214 . S
H438 C466 0.929 . S
H439 C467 0.929 . S
H440 C468 0.930 . S
H441 C469 0.929 . S
H442 C471 0.930 . S
H443 C448 0.930 . S
H444 C452 0.930 . S
O445 Co414 2.037 . S
O445 C465 1.234 . S
C446 O420 1.269 . S
C446 O421 1.257 . S
C447 H422 0.930 . S
C447 C450 1.388 . S
C447 C452 1.418 . S
C448 H443 0.930 . S
C448 C451 1.404 . S
C448 C452 1.353 . S
N449 Co414 2.145 . S
N449 C450 1.397 . S
N449 C451 1.334 . S
C450 H431 0.929 . S
C450 C447 1.388 . S
C450 N449 1.397 . S
C451 H432 0.929 . S
C451 C448 1.404 . S
C451 N449 1.334 . S
C452 H444 0.930 . S
C452 C447 1.418 . S
C452 C448 1.353 . S
C453 H423 0.930 . S
C453 N454 1.330 . S
C453 C455 1.446 . S
N454 Co413 2.151 . S
N454 C453 1.330 . S
N454 C458 1.418 . S
C455 H434 0.929 . S
C455 C453 1.446 . S
C455 C456 1.332 . S
C456 H436 0.931 . S
C456 C455 1.332 . S
C456 C457 1.267 . S
C457 H425 0.929 . S
C457 C456 1.267 . S
C457 C458 1.251 . S
C458 H428 0.929 . S
C458 N454 1.418 . S
C458 C457 1.251 . S
C459 H426 0.930 . S
C459 C461 1.406 . S
C459 C464 1.261 . S
C460 H427 0.930 . S
C460 N462 1.325 . S
C460 C463 1.357 . S
C461 H429 0.928 . S
C461 C459 1.406 . S
C461 N462 1.261 . S
N462 Co413 2.214 . S
N462 C460 1.325 . S
N462 C461 1.261 . S
C463 H433 0.931 . S
C463 C460 1.357 . S
C463 C464 1.312 . S
C464 H435 0.930 . S
C464 C459 1.261 . S
C464 C463 1.312 . S
C465 O437 1.214 . S
C465 O445 1.234 . S
C466 H438 0.929 . S
C466 C469 1.391 . S
C466 C471 1.391 . S
C467 H439 0.929 . S
C467 C468 1.390 . S
C467 N470 1.391 . S
C468 H440 0.930 . S
C468 C467 1.390 . S
C468 C469 1.392 . S
C469 H441 0.929 . S
C469 C466 1.391 . S
C469 C468 1.392 . S
N470 Co414 2.257 . S
N470 C467 1.391 . S
N470 C471 1.388 . S
C471 H442 0.930 . S
C471 C466 1.391 . S
C471 N470 1.388 . S
Co472 O474 2.143 . S
Co472 O480 2.074 . S
Co472 O483 2.093 . S
Co472 O496 2.097 1_554 S
Co472 N513 2.151 . S
Co472 N521 2.214 . S
Co473 O474 2.160 . S
Co473 O479 2.060 . S
Co473 O489 2.057 . S
Co473 O504 2.037 1_554 S
Co473 N508 2.145 1_554 S
Co473 N529 2.257 . S
O474 Co472 2.143 . S
O474 Co473 2.160 . S
C475 O476 1.278 . S
C475 O483 1.224 . S
O476 C475 1.278 . S
C477 O478 1.245 . S
C477 O489 1.232 . S
O478 C477 1.245 . S
O479 Co473 2.060 . S
O479 C505 1.268 1_454 S
O480 Co472 2.074 . S
O480 C505 1.257 1_454 S
H481 C506 0.930 . S
H482 C512 0.930 . S
O483 Co472 2.093 . S
O483 C475 1.224 . S
H484 C516 0.929 . S
H485 C518 0.930 . S
H486 C519 0.930 . S
H487 C517 0.929 . S
H488 C520 0.928 . S
O489 Co473 2.057 . S
O489 C477 1.232 . S
H490 C509 0.929 . S
H491 C510 0.929 . S
H492 C522 0.931 . S
H493 C514 0.929 1_455 S
H494 C523 0.930 . S
H495 C515 0.931 . S
O496 Co472 2.097 1_556 S
O496 C524 1.214 . S
H497 C525 0.929 . S
H498 C526 0.929 . S
H499 C527 0.930 . S
H500 C528 0.929 . S
H501 C530 0.930 . S
H502 C507 0.930 . S
H503 C511 0.930 . S
O504 Co473 2.037 1_556 S
O504 C524 1.234 . S
C505 O479 1.268 1_656 S
C505 O480 1.257 1_656 S
C506 H481 0.930 . S
C506 C509 1.388 . S
C506 C511 1.418 . S
C507 H502 0.930 . S
C507 C510 1.404 . S
C507 C511 1.353 . S
N508 Co473 2.145 1_556 S
N508 C509 1.397 . S
N508 C510 1.334 . S
C509 H490 0.929 . S
C509 C506 1.388 . S
C509 N508 1.397 . S
C510 H491 0.929 . S
C510 C507 1.404 . S
C510 N508 1.334 . S
C511 H503 0.930 . S
C511 C506 1.418 . S
C511 C507 1.353 . S
C512 H482 0.930 . S
C512 N513 1.330 . S
C512 C514 1.446 1_455 S
N513 Co472 2.151 . S
N513 C512 1.330 . S
N513 C517 1.418 1_455 S
C514 H493 0.929 1_655 S
C514 C512 1.446 1_655 S
C514 C515 1.332 . S
C515 H495 0.931 . S
C515 C514 1.332 . S
C515 C516 1.267 . S
C516 H484 0.929 . S
C516 C515 1.267 . S
C516 C517 1.251 . S
C517 H487 0.929 . S
C517 N513 1.418 1_655 S
C517 C516 1.251 . S
C518 H485 0.930 . S
C518 C520 1.406 . S
C518 C523 1.261 1_554 S
C519 H486 0.930 . S
C519 N521 1.325 1_556 S
C519 C522 1.357 . S
C520 H488 0.928 . S
C520 C518 1.406 . S
C520 N521 1.261 . S
N521 Co472 2.214 . S
N521 C519 1.325 1_554 S
N521 C520 1.261 . S
C522 H492 0.931 . S
C522 C519 1.357 . S
C522 C523 1.312 . S
C523 H494 0.930 . S
C523 C518 1.261 1_556 S
C523 C522 1.312 . S
C524 O496 1.214 . S
C524 O504 1.234 . S
C525 H497 0.929 . S
C525 C528 1.391 . S
C525 C530 1.391 . S
C526 H498 0.929 . S
C526 C527 1.390 . S
C526 N529 1.391 1_556 S
C527 H499 0.930 . S
C527 C526 1.390 . S
C527 C528 1.392 1_556 S
C528 H500 0.929 . S
C528 C525 1.391 . S
C528 C527 1.392 1_554 S
N529 Co473 2.257 . S
N529 C526 1.391 1_554 S
N529 C530 1.388 . S
C530 H501 0.930 . S
C530 C525 1.391 . S
C530 N529 1.388 . S
Co531 O533 2.143 . S
Co531 O539 2.074 . S
Co531 O542 2.093 . S
Co531 O555 2.097 . S
Co531 N572 2.151 . S
Co531 N580 2.214 . S
Co532 O533 2.160 . S
Co532 O538 2.058 . S
Co532 O548 2.057 . S
Co532 O563 2.037 . S
Co532 N567 2.145 . S
Co532 N588 2.257 . S
O533 Co531 2.143 . S
O533 Co532 2.160 . S
C534 O535 1.278 . S
C534 O542 1.224 . S
O535 C534 1.278 . S
C536 O537 1.245 . S
C536 O548 1.232 . S
O537 C536 1.245 . S
O538 Co532 2.058 . S
O538 C564 1.269 1_545 S
O539 Co531 2.074 . S
O539 C564 1.257 1_545 S
H540 C565 0.930 . S
H541 C571 0.930 . S
O542 Co531 2.093 . S
O542 C534 1.224 . S
H543 C575 0.929 . S
H544 C577 0.930 . S
H545 C578 0.930 . S
H546 C576 0.929 . S
H547 C579 0.928 . S
O548 Co532 2.057 . S
O548 C536 1.232 . S
H549 C568 0.929 . S
H550 C569 0.929 . S
H551 C581 0.931 . S
H552 C573 0.929 1_545 S
H553 C582 0.930 . S
H554 C574 0.931 . S
O555 Co531 2.097 . S
O555 C583 1.214 . S
H556 C584 0.929 . S
H557 C585 0.929 . S
H558 C586 0.930 . S
H559 C587 0.929 . S
H560 C589 0.930 . S
H561 C566 0.930 . S
H562 C570 0.930 . S
O563 Co532 2.037 . S
O563 C583 1.234 . S
C564 O538 1.269 1_565 S
C564 O539 1.257 1_565 S
C565 H540 0.930 . S
C565 C568 1.388 . S
C565 C570 1.418 . S
C566 H561 0.930 . S
C566 C569 1.404 . S
C566 C570 1.353 . S
N567 Co532 2.145 . S
N567 C568 1.397 . S
N567 C569 1.334 . S
C568 H549 0.929 . S
C568 C565 1.388 . S
C568 N567 1.397 . S
C569 H550 0.929 . S
C569 C566 1.404 . S
C569 N567 1.334 . S
C570 H562 0.930 . S
C570 C565 1.418 . S
C570 C566 1.353 . S
C571 H541 0.930 . S
C571 N572 1.330 . S
C571 C573 1.446 1_545 S
N572 Co531 2.151 . S
N572 C571 1.330 . S
N572 C576 1.418 1_545 S
C573 H552 0.929 1_565 S
C573 C571 1.446 1_565 S
C573 C574 1.332 . S
C574 H554 0.931 . S
C574 C573 1.332 . S
C574 C575 1.267 . S
C575 H543 0.929 . S
C575 C574 1.267 . S
C575 C576 1.251 . S
C576 H546 0.929 . S
C576 N572 1.418 1_565 S
C576 C575 1.251 . S
C577 H544 0.930 . S
C577 C579 1.406 . S
C577 C582 1.261 . S
C578 H545 0.930 . S
C578 N580 1.325 . S
C578 C581 1.357 . S
C579 H547 0.928 . S
C579 C577 1.406 . S
C579 N580 1.261 . S
N580 Co531 2.214 . S
N580 C578 1.325 . S
N580 C579 1.261 . S
C581 H551 0.931 . S
C581 C578 1.357 . S
C581 C582 1.312 . S
C582 H553 0.930 . S
C582 C577 1.261 . S
C582 C581 1.312 . S
C583 O555 1.214 . S
C583 O563 1.234 . S
C584 H556 0.929 . S
C584 C587 1.391 . S
C584 C589 1.391 . S
C585 H557 0.929 . S
C585 C586 1.390 . S
C585 N588 1.391 . S
C586 H558 0.930 . S
C586 C585 1.390 . S
C586 C587 1.392 . S
C587 H559 0.929 . S
C587 C584 1.391 . S
C587 C586 1.392 . S
N588 Co532 2.257 . S
N588 C585 1.391 . S
N588 C589 1.388 . S
C589 H560 0.930 . S
C589 C584 1.391 . S
C589 N588 1.388 . S
Co590 O592 2.143 . S
Co590 O598 2.074 . S
Co590 O601 2.093 . S
Co590 O614 2.097 . S
Co590 N631 2.151 . S
Co590 N639 2.214 . S
Co591 O592 2.160 . S
Co591 O597 2.058 . S
Co591 O607 2.057 . S
Co591 O622 2.037 . S
Co591 N626 2.145 . S
Co591 N647 2.257 . S
O592 Co590 2.143 . S
O592 Co591 2.160 . S
C593 O594 1.278 . S
C593 O601 1.224 . S
O594 C593 1.278 . S
C595 O596 1.245 . S
C595 O607 1.232 . S
O596 C595 1.245 . S
O597 Co591 2.058 . S
O597 C623 1.269 . S
O598 Co590 2.074 . S
O598 C623 1.257 . S
H599 C624 0.930 . S
H600 C630 0.930 . S
O601 Co590 2.093 . S
O601 C593 1.224 . S
H602 C634 0.929 . S
H603 C636 0.930 . S
H604 C637 0.930 . S
H605 C635 0.929 . S
H606 C638 0.928 . S
O607 Co591 2.057 . S
O607 C595 1.232 . S
H608 C627 0.929 . S
H609 C628 0.929 . S
H610 C640 0.931 . S
H611 C632 0.929 . S
H612 C641 0.930 . S
H613 C633 0.931 . S
O614 Co590 2.097 . S
O614 C642 1.214 . S
H615 C643 0.929 . S
H616 C644 0.929 . S
H617 C645 0.930 . S
H618 C646 0.929 . S
H619 C648 0.930 . S
H620 C625 0.930 . S
H621 C629 0.930 . S
O622 Co591 2.037 . S
O622 C642 1.234 . S
C623 O597 1.269 . S
C623 O598 1.257 . S
C624 H599 0.930 . S
C624 C627 1.388 . S
C624 C629 1.418 . S
C625 H620 0.930 . S
C625 C628 1.404 . S
C625 C629 1.353 . S
N626 Co591 2.145 . S
N626 C627 1.397 . S
N626 C628 1.334 . S
C627 H608 0.929 . S
C627 C624 1.388 . S
C627 N626 1.397 . S
C628 H609 0.929 . S
C628 C625 1.404 . S
C628 N626 1.334 . S
C629 H621 0.930 . S
C629 C624 1.418 . S
C629 C625 1.353 . S
C630 H600 0.930 . S
C630 N631 1.330 . S
C630 C632 1.446 . S
N631 Co590 2.151 . S
N631 C630 1.330 . S
N631 C635 1.418 . S
C632 H611 0.929 . S
C632 C630 1.446 . S
C632 C633 1.332 . S
C633 H613 0.931 . S
C633 C632 1.332 . S
C633 C634 1.267 . S
C634 H602 0.929 . S
C634 C633 1.267 . S
C634 C635 1.251 . S
C635 H605 0.929 . S
C635 N631 1.418 . S
C635 C634 1.251 . S
C636 H603 0.930 . S
C636 C638 1.406 . S
C636 C641 1.261 . S
C637 H604 0.930 . S
C637 N639 1.325 . S
C637 C640 1.357 . S
C638 H606 0.928 . S
C638 C636 1.406 . S
C638 N639 1.261 . S
N639 Co590 2.214 . S
N639 C637 1.325 . S
N639 C638 1.261 . S
C640 H610 0.931 . S
C640 C637 1.357 . S
C640 C641 1.312 . S
C641 H612 0.930 . S
C641 C636 1.261 . S
C641 C640 1.312 . S
C642 O614 1.214 . S
C642 O622 1.234 . S
C643 H615 0.929 . S
C643 C646 1.391 . S
C643 C648 1.391 . S
C644 H616 0.929 . S
C644 C645 1.390 . S
C644 N647 1.391 . S
C645 H617 0.930 . S
C645 C644 1.390 . S
C645 C646 1.392 . S
C646 H618 0.929 . S
C646 C643 1.391 . S
C646 C645 1.392 . S
N647 Co591 2.257 . S
N647 C644 1.391 . S
N647 C648 1.388 . S
C648 H619 0.930 . S
C648 C643 1.391 . S
C648 N647 1.388 . S
Co649 O651 2.143 . S
Co649 O657 2.074 . S
Co649 O660 2.093 . S
Co649 O673 2.097 . S
Co649 N690 2.151 . S
Co649 N698 2.214 . S
Co650 O651 2.160 . S
Co650 O656 2.058 . S
Co650 O666 2.057 . S
Co650 O681 2.037 . S
Co650 N685 2.145 . S
Co650 N706 2.257 . S
O651 Co649 2.143 . S
O651 Co650 2.160 . S
C652 O653 1.278 . S
C652 O660 1.224 . S
O653 C652 1.278 . S
C654 O655 1.245 . S
C654 O666 1.232 . S
O655 C654 1.245 . S
O656 Co650 2.058 . S
O656 C682 1.269 1_655 S
O657 Co649 2.074 . S
O657 C682 1.257 1_655 S
H658 C683 0.930 . S
H659 C689 0.930 . S
O660 Co649 2.093 . S
O660 C652 1.224 . S
H661 C693 0.929 . S
H662 C695 0.930 . S
H663 C696 0.930 . S
H664 C694 0.929 . S
H665 C697 0.928 . S
O666 Co650 2.057 . S
O666 C654 1.232 . S
H667 C686 0.929 . S
H668 C687 0.929 . S
H669 C699 0.931 . S
H670 C691 0.929 1_655 S
H671 C700 0.930 . S
H672 C692 0.931 . S
O673 Co649 2.097 . S
O673 C701 1.214 . S
H674 C702 0.929 . S
H675 C703 0.929 . S
H676 C704 0.930 . S
H677 C705 0.929 . S
H678 C707 0.930 . S
H679 C684 0.930 . S
H680 C688 0.930 . S
O681 Co650 2.037 . S
O681 C701 1.234 . S
C682 O656 1.269 1_455 S
C682 O657 1.257 1_455 S
C683 H658 0.930 . S
C683 C686 1.388 . S
C683 C688 1.418 . S
C684 H679 0.930 . S
C684 C687 1.404 . S
C684 C688 1.353 . S
N685 Co650 2.145 . S
N685 C686 1.397 . S
N685 C687 1.334 . S
C686 H667 0.929 . S
C686 C683 1.388 . S
C686 N685 1.397 . S
C687 H668 0.929 . S
C687 C684 1.404 . S
C687 N685 1.334 . S
C688 H680 0.930 . S
C688 C683 1.418 . S
C688 C684 1.353 . S
C689 H659 0.930 . S
C689 N690 1.330 . S
C689 C691 1.446 1_655 S
N690 Co649 2.151 . S
N690 C689 1.330 . S
N690 C694 1.418 1_655 S
C691 H670 0.929 1_455 S
C691 C689 1.446 1_455 S
C691 C692 1.332 . S
C692 H672 0.931 . S
C692 C691 1.332 . S
C692 C693 1.267 . S
C693 H661 0.929 . S
C693 C692 1.267 . S
C693 C694 1.251 . S
C694 H664 0.929 . S
C694 N690 1.418 1_455 S
C694 C693 1.251 . S
C695 H662 0.930 . S
C695 C697 1.406 . S
C695 C700 1.261 . S
C696 H663 0.930 . S
C696 N698 1.325 . S
C696 C699 1.357 . S
C697 H665 0.928 . S
C697 C695 1.406 . S
C697 N698 1.261 . S
N698 Co649 2.214 . S
N698 C696 1.325 . S
N698 C697 1.261 . S
C699 H669 0.931 . S
C699 C696 1.357 . S
C699 C700 1.312 . S
C700 H671 0.930 . S
C700 C695 1.261 . S
C700 C699 1.312 . S
C701 O673 1.214 . S
C701 O681 1.234 . S
C702 H674 0.929 . S
C702 C705 1.391 . S
C702 C707 1.391 . S
C703 H675 0.929 . S
C703 C704 1.390 . S
C703 N706 1.391 . S
C704 H676 0.930 . S
C704 C703 1.390 . S
C704 C705 1.392 . S
C705 H677 0.929 . S
C705 C702 1.391 . S
C705 C704 1.392 . S
N706 Co650 2.257 . S
N706 C703 1.391 . S
N706 C707 1.388 . S
C707 H678 0.930 . S
C707 C702 1.391 . S
C707 N706 1.388 . S
C708 C709 1.369 . S
C708 C710 1.419 . S
C708 H712 0.930 . S
C709 C708 1.369 . S
C709 C718 1.429 . S
C710 C708 1.419 . S
C710 C711 1.363 . S
C710 H713 0.929 . S
C711 C710 1.363 . S
C711 C717 1.428 . S
H712 C708 0.930 . S
H713 C710 0.929 . S
S714 N715 1.613 . S
S714 N716 1.610 . S
N715 S714 1.613 . S
N715 C718 1.350 1_655 S
N716 S714 1.610 . S
N716 C717 1.351 1_655 S
C717 C711 1.428 . S
C717 N716 1.351 1_455 S
C717 C718 1.434 . S
C718 C709 1.429 . S
C718 N715 1.350 1_455 S
C718 C717 1.434 . S
C719 C720 1.369 . S
C719 C721 1.419 . S
C719 H723 0.930 . S
C720 C719 1.369 . S
C720 C729 1.429 . S
C721 C719 1.419 . S
C721 C722 1.363 . S
C721 H724 0.929 . S
C722 C721 1.363 . S
C722 C728 1.428 . S
H723 C719 0.930 . S
H724 C721 0.929 . S
S725 N726 1.613 . S
S725 N727 1.610 . S
N726 S725 1.613 . S
N726 C729 1.350 . S
N727 S725 1.610 . S
N727 C728 1.351 . S
C728 C722 1.428 . S
C728 N727 1.351 . S
C728 C729 1.434 . S
C729 C720 1.429 . S
C729 N726 1.350 . S
C729 C728 1.434 . S
C730 C731 1.369 . S
C730 C732 1.419 . S
C730 H734 0.930 . S
C731 C730 1.369 . S
C731 C740 1.429 . S
C732 C730 1.419 . S
C732 C733 1.363 . S
C732 H735 0.929 . S
C733 C732 1.363 . S
C733 C739 1.428 . S
H734 C730 0.930 . S
H735 C732 0.929 . S
S736 N737 1.613 . S
S736 N738 1.610 . S
N737 S736 1.613 . S
N737 C740 1.350 . S
N738 S736 1.610 . S
N738 C739 1.351 . S
C739 C733 1.428 . S
C739 N738 1.351 . S
C739 C740 1.434 . S
C740 C731 1.429 . S
C740 N737 1.350 . S
C740 C739 1.434 . S
C741 C742 1.369 . S
C741 C743 1.419 . S
C741 H745 0.930 1_655 S
C742 C741 1.369 . S
C742 C751 1.429 . S
C743 C741 1.419 . S
C743 C744 1.363 . S
C743 H746 0.929 1_655 S
C744 C743 1.363 . S
C744 C750 1.428 . S
H745 C741 0.930 1_455 S
H746 C743 0.929 1_455 S
S747 N748 1.613 . S
S747 N749 1.610 . S
N748 S747 1.613 . S
N748 C751 1.350 . S
N749 S747 1.610 . S
N749 C750 1.351 . S
C750 C744 1.428 . S
C750 N749 1.351 . S
C750 C751 1.434 . S
C751 C742 1.429 . S
C751 N748 1.350 . S
C751 C750 1.434 . S
C752 C753 1.369 . S
C752 C754 1.419 . S
C752 H756 0.930 . S
C753 C752 1.369 . S
C753 C762 1.429 . S
C754 C752 1.419 . S
C754 C755 1.363 . S
C754 H757 0.929 . S
C755 C754 1.363 . S
C755 C761 1.428 . S
H756 C752 0.930 . S
H757 C754 0.929 . S
S758 N759 1.613 . S
S758 N760 1.610 . S
N759 S758 1.613 . S
N759 C762 1.350 1_545 S
N760 S758 1.610 . S
N760 C761 1.351 1_545 S
C761 C755 1.428 . S
C761 N760 1.351 1_565 S
C761 C762 1.434 . S
C762 C753 1.429 . S
C762 N759 1.350 1_565 S
C762 C761 1.434 . S
C763 C764 1.369 . S
C763 C765 1.419 . S
C763 H767 0.930 . S
C764 C763 1.369 . S
C764 C773 1.429 . S
C765 C763 1.419 . S
C765 C766 1.363 . S
C765 H768 0.929 . S
C766 C765 1.363 . S
C766 C772 1.428 . S
H767 C763 0.930 . S
H768 C765 0.929 . S
S769 N770 1.613 . S
S769 N771 1.610 . S
N770 S769 1.613 . S
N770 C773 1.350 . S
N771 S769 1.610 . S
N771 C772 1.351 . S
C772 C766 1.428 . S
C772 N771 1.351 . S
C772 C773 1.434 . S
C773 C764 1.429 . S
C773 N770 1.350 . S
C773 C772 1.434 . S
C774 C775 1.369 . S
C774 C776 1.419 . S
C774 H778 0.930 . S
C775 C774 1.369 . S
C775 C784 1.429 . S
C776 C774 1.419 . S
C776 C777 1.363 . S
C776 H779 0.929 . S
C777 C776 1.363 . S
C777 C783 1.428 . S
H778 C774 0.930 . S
H779 C776 0.929 . S
S780 N781 1.613 1_556 S
S780 N782 1.610 . S
N781 S780 1.613 1_554 S
N781 C784 1.350 . S
N782 S780 1.610 . S
N782 C783 1.351 1_556 S
C783 C777 1.428 . S
C783 N782 1.351 1_554 S
C783 C784 1.434 . S
C784 C775 1.429 . S
C784 N781 1.350 . S
C784 C783 1.434 . S
C785 C786 1.369 . S
C785 C787 1.419 . S
C785 H789 0.930 . S
C786 C785 1.369 . S
C786 C795 1.429 . S
C787 C785 1.419 . S
C787 C788 1.363 . S
C787 H790 0.929 . S
C788 C787 1.363 . S
C788 C794 1.428 . S
H789 C785 0.930 . S
H790 C787 0.929 . S
S791 N792 1.613 . S
S791 N793 1.610 . S
N792 S791 1.613 . S
N792 C795 1.350 . S
N793 S791 1.610 . S
N793 C794 1.351 . S
C794 C788 1.428 . S
C794 N793 1.351 . S
C794 C795 1.434 . S
C795 C786 1.429 . S
C795 N792 1.350 . S
C795 C794 1.434 . S
C796 C797 1.369 . S
C796 C798 1.419 . S
C796 H800 0.930 . S
C797 C796 1.369 . S
C797 C806 1.429 . S
C798 C796 1.419 . S
C798 C799 1.363 . S
C798 H801 0.929 . S
C799 C798 1.363 . S
C799 C805 1.428 . S
H800 C796 0.930 . S
H801 C798 0.929 . S
S802 N803 1.613 . S
S802 N804 1.610 . S
N803 S802 1.613 . S
N803 C806 1.350 . S
N804 S802 1.610 . S
N804 C805 1.351 . S
C805 C799 1.428 . S
C805 N804 1.351 . S
C805 C806 1.434 . S
C806 C797 1.429 . S
C806 N803 1.350 . S
C806 C805 1.434 . S
C807 C808 1.369 . S
C807 C809 1.419 . S
C807 H811 0.930 . S
C808 C807 1.369 . S
C808 C817 1.429 . S
C809 C807 1.419 . S
C809 C810 1.363 . S
C809 H812 0.929 . S
C810 C809 1.363 . S
C810 C816 1.428 . S
H811 C807 0.930 . S
H812 C809 0.929 . S
S813 N814 1.613 . S
S813 N815 1.610 . S
N814 S813 1.613 . S
N814 C817 1.350 . S
N815 S813 1.610 . S
N815 C816 1.351 . S
C816 C810 1.428 . S
C816 N815 1.351 . S
C816 C817 1.434 . S
C817 C808 1.429 . S
C817 N814 1.350 . S
C817 C816 1.434 . S
C818 C819 1.369 . S
C818 C820 1.419 . S
C818 H822 0.930 . S
C819 C818 1.369 . S
C819 C828 1.429 . S
C820 C818 1.419 . S
C820 C821 1.363 . S
C820 H823 0.929 . S
C821 C820 1.363 . S
C821 C827 1.428 . S
H822 C818 0.930 . S
H823 C820 0.929 . S
S824 N825 1.613 . S
S824 N826 1.610 . S
N825 S824 1.613 . S
N825 C828 1.350 . S
N826 S824 1.610 . S
N826 C827 1.351 . S
C827 C821 1.428 . S
C827 N826 1.351 . S
C827 C828 1.434 . S
C828 C819 1.429 . S
C828 N825 1.350 . S
C828 C827 1.434 . S
C829 C830 1.369 . S
C829 C831 1.419 . S
C829 H833 0.930 . S
C830 C829 1.369 . S
C830 C839 1.429 . S
C831 C829 1.419 . S
C831 C832 1.363 . S
C831 H834 0.929 . S
C832 C831 1.363 . S
C832 C838 1.428 . S
H833 C829 0.930 . S
H834 C831 0.929 . S
S835 N836 1.613 . S
S835 N837 1.610 . S
N836 S835 1.613 . S
N836 C839 1.350 . S
N837 S835 1.610 . S
N837 C838 1.351 . S
C838 C832 1.428 . S
C838 N837 1.351 . S
C838 C839 1.434 . S
C839 C830 1.429 . S
C839 N836 1.350 . S
C839 C838 1.434 . S
C840 C841 1.369 . S
C840 C842 1.419 . S
C840 H844 0.930 . S
C841 C840 1.369 . S
C841 C850 1.429 . S
C842 C840 1.419 . S
C842 C843 1.363 . S
C842 H845 0.929 . S
C843 C842 1.363 . S
C843 C849 1.428 . S
H844 C840 0.930 . S
H845 C842 0.929 . S
S846 N847 1.613 . S
S846 N848 1.610 . S
N847 S846 1.613 . S
N847 C850 1.350 . S
N848 S846 1.610 . S
N848 C849 1.351 . S
C849 C843 1.428 . S
C849 N848 1.351 . S
C849 C850 1.434 . S
C850 C841 1.429 . S
C850 N847 1.350 . S
C850 C849 1.434 . S
C851 C852 1.369 . S
C851 C853 1.419 . S
C851 H855 0.930 . S
C852 C851 1.369 . S
C852 C861 1.429 . S
C853 C851 1.419 . S
C853 C854 1.363 . S
C853 H856 0.929 . S
C854 C853 1.363 . S
C854 C860 1.428 . S
H855 C851 0.930 . S
H856 C853 0.929 . S
S857 N858 1.613 1_554 S
S857 N859 1.610 . S
N858 S857 1.613 1_556 S
N858 C861 1.350 . S
N859 S857 1.610 . S
N859 C860 1.351 1_554 S
C860 C854 1.428 . S
C860 N859 1.351 1_556 S
C860 C861 1.434 . S
C861 C852 1.429 . S
C861 N858 1.350 . S
C861 C860 1.434 . S
C862 C863 1.369 . S
C862 C864 1.419 . S
C862 H866 0.930 . S
C863 C862 1.369 . S
C863 C872 1.429 . S
C864 C862 1.419 . S
C864 C865 1.363 . S
C864 H867 0.929 . S
C865 C864 1.363 . S
C865 C871 1.428 . S
H866 C862 0.930 . S
H867 C864 0.929 . S
S868 N869 1.613 . S
S868 N870 1.610 . S
N869 S868 1.613 . S
N869 C872 1.350 . S
N870 S868 1.610 . S
N870 C871 1.351 . S
C871 C865 1.428 . S
C871 N870 1.351 . S
C871 C872 1.434 . S
C872 C863 1.429 . S
C872 N869 1.350 . S
C872 C871 1.434 . S
C873 C874 1.369 . S
C873 C875 1.419 . S
C873 H877 0.930 . S
C874 C873 1.369 . S
C874 C883 1.429 . S
C875 C873 1.419 . S
C875 C876 1.363 . S
C875 H878 0.929 . S
C876 C875 1.363 . S
C876 C882 1.428 . S
H877 C873 0.930 . S
H878 C875 0.929 . S
S879 N880 1.613 . S
S879 N881 1.610 . S
N880 S879 1.613 . S
N880 C883 1.350 . S
N881 S879 1.610 . S
N881 C882 1.351 . S
C882 C876 1.428 . S
C882 N881 1.351 . S
C882 C883 1.434 . S
C883 C874 1.429 . S
C883 N880 1.350 . S
C883 C882 1.434 . S
C884 C885 1.369 . S
C884 C886 1.419 . S
C884 H888 0.930 . S
C885 C884 1.369 . S
C885 C894 1.429 . S
C886 C884 1.419 . S
C886 C887 1.363 . S
C886 H889 0.929 . S
C887 C886 1.363 . S
C887 C893 1.428 . S
H888 C884 0.930 . S
H889 C886 0.929 . S
S890 N891 1.613 . S
S890 N892 1.610 . S
N891 S890 1.613 . S
N891 C894 1.350 . S
N892 S890 1.610 . S
N892 C893 1.351 . S
C893 C887 1.428 . S
C893 N892 1.351 . S
C893 C894 1.434 . S
C894 C885 1.429 . S
C894 N891 1.350 . S
C894 C893 1.434 . S
C895 C896 1.369 . S
C895 C897 1.419 . S
C895 H899 0.930 . S
C896 C895 1.369 . S
C896 C905 1.429 . S
C897 C895 1.419 . S
C897 C898 1.363 . S
C897 H900 0.929 . S
C898 C897 1.363 . S
C898 C904 1.428 . S
H899 C895 0.930 . S
H900 C897 0.929 . S
S901 N902 1.613 . S
S901 N903 1.610 . S
N902 S901 1.613 . S
N902 C905 1.350 . S
N903 S901 1.610 . S
N903 C904 1.353 . S
C904 C898 1.428 . S
C904 N903 1.353 . S
C904 C905 1.434 . S
C905 C896 1.429 . S
C905 N902 1.350 . S
C905 C904 1.434 . S
C906 C907 1.369 . S
C906 C908 1.419 . S
C906 H910 0.930 . S
C907 C906 1.369 . S
C907 C916 1.429 . S
C908 C906 1.419 . S
C908 C909 1.363 . S
C908 H911 0.929 . S
C909 C908 1.363 . S
C909 C915 1.428 . S
H910 C906 0.930 . S
H911 C908 0.929 . S
S912 N913 1.613 . S
S912 N914 1.610 . S
N913 S912 1.613 . S
N913 C916 1.350 . S
N914 S912 1.610 . S
N914 C915 1.351 . S
C915 C909 1.428 . S
C915 N914 1.351 . S
C915 C916 1.434 . S
C916 C907 1.429 . S
C916 N913 1.350 . S
C916 C915 1.434 . S
C917 C918 1.369 . S
C917 C919 1.419 . S
C917 H921 0.930 . S
C918 C917 1.369 . S
C918 C927 1.429 . S
C919 C917 1.419 . S
C919 C920 1.363 . S
C919 H922 0.929 . S
C920 C919 1.363 . S
C920 C926 1.428 . S
H921 C917 0.930 . S
H922 C919 0.929 . S
S923 N924 1.613 . S
S923 N925 1.610 . S
N924 S923 1.613 . S
N924 C927 1.350 . S
N925 S923 1.610 . S
N925 C926 1.351 . S
C926 C920 1.428 . S
C926 N925 1.351 . S
C926 C927 1.434 . S
C927 C918 1.429 . S
C927 N924 1.350 . S
C927 C926 1.434 . S
C928 C929 1.369 . S
C928 C930 1.419 . S
C928 H932 0.930 . S
C929 C928 1.369 . S
C929 C938 1.429 . S
C930 C928 1.419 . S
C930 C931 1.363 . S
C930 H933 0.929 . S
C931 C930 1.363 . S
C931 C937 1.428 . S
H932 C928 0.930 . S
H933 C930 0.929 . S
S934 N935 1.613 . S
S934 N936 1.610 . S
N935 S934 1.613 . S
N935 C938 1.350 . S
N936 S934 1.610 . S
N936 C937 1.351 . S
C937 C931 1.428 . S
C937 N936 1.351 . S
C937 C938 1.434 . S
C938 C929 1.429 . S
C938 N935 1.350 . S
C938 C937 1.434 . S
C939 C940 1.369 . S
C939 C941 1.419 . S
C939 H943 0.930 . S
C940 C939 1.369 . S
C940 C949 1.429 . S
C941 C939 1.419 . S
C941 C942 1.363 . S
C941 H944 0.929 . S
C942 C941 1.363 . S
C942 C948 1.428 . S
H943 C939 0.930 . S
H944 C941 0.929 . S
S945 N946 1.613 . S
S945 N947 1.610 . S
N946 S945 1.613 . S
N946 C949 1.350 . S
N947 S945 1.610 . S
N947 C948 1.351 . S
C948 C942 1.428 . S
C948 N947 1.351 . S
C948 C949 1.434 . S
C949 C940 1.429 . S
C949 N946 1.350 . S
C949 C948 1.434 . S
C950 C951 1.369 . S
C950 C952 1.419 . S
C950 H954 0.930 . S
C951 C950 1.369 . S
C951 C960 1.429 . S
C952 C950 1.419 . S
C952 C953 1.363 . S
C952 H955 0.929 . S
C953 C952 1.363 . S
C953 C959 1.428 . S
H954 C950 0.930 . S
H955 C952 0.929 . S
S956 N957 1.613 . S
S956 N958 1.610 . S
N957 S956 1.613 . S
N957 C960 1.350 . S
N958 S956 1.610 . S
N958 C959 1.351 . S
C959 C953 1.428 . S
C959 N958 1.351 . S
C959 C960 1.434 . S
C960 C951 1.429 . S
C960 N957 1.350 . S
C960 C959 1.434 . S
C961 C962 1.369 . S
C961 C963 1.419 . S
C961 H965 0.930 . S
C962 C961 1.369 . S
C962 C971 1.429 . S
C963 C961 1.419 . S
C963 C964 1.363 . S
C963 H966 0.929 . S
C964 C963 1.363 . S
C964 C970 1.428 . S
H965 C961 0.930 . S
H966 C963 0.929 . S
S967 N968 1.613 . S
S967 N969 1.610 . S
N968 S967 1.613 . S
N968 C971 1.350 . S
N969 S967 1.610 . S
N969 C970 1.351 . S
C970 C964 1.428 . S
C970 N969 1.351 . S
C970 C971 1.434 . S
C971 C962 1.429 . S
C971 N968 1.350 . S
C971 C970 1.434 . S
C709 C477 1.541 . S
C711 C5 1.536 . S
C720 C64 1.536 . S
C722 C536 1.540 . S
C731 C123 1.541 . S
C733 C595 1.537 . S
C742 C182 1.536 . S
C744 C654 1.538 . S
C753 C359 1.537 . S
C755 C241 1.540 . S
C764 C300 1.537 . S
C766 C418 1.537 . S
C775 C3 1.585 . S
C777 C328 1.586 . S
C786 C62 1.583 . S
C788 C33 1.584 . S
C797 C121 1.585 . S
C799 C92 1.587 . S
C808 C151 1.588 . S
C810 C180 1.584 . S
C819 C210 1.587 . S
C821 C239 1.584 . S
C830 C269 1.588 . S
C832 C298 1.584 . S
C841 C446 1.585 . S
C843 C357 1.584 . S
C852 C416 1.585 . S
C854 C505 1.586 . S
C863 C564 1.585 . S
C865 C475 1.584 . S
C874 C534 1.583 . S
C876 C623 1.584 . S
C885 C593 1.580 . S
C887 C682 1.585 . S
C896 C652 1.580 . S
C898 C387 1.584 . S
C907 C642 1.487 . S
C909 C52 1.488 . S
C918 C701 1.489 . S
C920 C111 1.489 . S
C929 C406 1.489 . S
C931 C170 1.489 . S
C940 C229 1.488 . S
C942 C465 1.488 . S
C951 C288 1.488 . S
C953 C524 1.489 . S
C962 C583 1.489 . S
C964 C347 1.489 . S
