# Generated by pormake.
# Topology ull, (4)-cn, num edge types: 1
# Building blocks:
#     Node 0, Type 0, BuildingBlock: NAHDIM_clean_sbu_0, # of connection points: 4
#     Node 1, Type 0, BuildingBlock: NAHDIM_clean_sbu_0, # of connection points: 4
#     Node 2, Type 0, BuildingBlock: NAHDIM_clean_sbu_0, # of connection points: 4
#     Node 3, Type 0, BuildingBlock: NAHDIM_clean_sbu_0, # of connection points: 4
#     Node 4, Type 0, BuildingBlock: NAHDIM_clean_sbu_0, # of connection points: 4
#     Node 5, Type 0, BuildingBlock: NAHDIM_clean_sbu_0, # of connection points: 4
#     Node 6, Type 0, BuildingBlock: NAHDIM_clean_sbu_0, # of connection points: 4
#     Node 7, Type 0, BuildingBlock: NAHDIM_clean_sbu_0, # of connection points: 4
#     Node 8, Type 0, BuildingBlock: NAHDIM_clean_sbu_0, # of connection points: 4
#     Node 9, Type 0, BuildingBlock: NAHDIM_clean_sbu_0, # of connection points: 4
#     Node 10, Type 0, BuildingBlock: NAHDIM_clean_sbu_0, # of connection points: 4
#     Node 11, Type 0, BuildingBlock: NAHDIM_clean_sbu_0, # of connection points: 4
#     Node 12, Type 0, BuildingBlock: NAHDIM_clean_sbu_0, # of connection points: 4
#     Node 13, Type 0, BuildingBlock: NAHDIM_clean_sbu_0, # of connection points: 4
#     Node 14, Type 0, BuildingBlock: NAHDIM_clean_sbu_0, # of connection points: 4
#     Node 15, Type 0, BuildingBlock: NAHDIM_clean_sbu_0, # of connection points: 4
#     Node 16, Type 0, BuildingBlock: NAHDIM_clean_sbu_0, # of connection points: 4
#     Node 17, Type 0, BuildingBlock: NAHDIM_clean_sbu_0, # of connection points: 4
#     Node 18, Type 0, BuildingBlock: NAHDIM_clean_sbu_0, # of connection points: 4
#     Node 19, Type 0, BuildingBlock: NAHDIM_clean_sbu_0, # of connection points: 4
#     Node 20, Type 0, BuildingBlock: NAHDIM_clean_sbu_0, # of connection points: 4
#     Node 21, Type 0, BuildingBlock: NAHDIM_clean_sbu_0, # of connection points: 4
#     Node 22, Type 0, BuildingBlock: NAHDIM_clean_sbu_0, # of connection points: 4
#     Node 23, Type 0, BuildingBlock: NAHDIM_clean_sbu_0, # of connection points: 4
#     Node 24, Type 0, BuildingBlock: NAHDIM_clean_sbu_0, # of connection points: 4
#     Node 25, Type 0, BuildingBlock: NAHDIM_clean_sbu_0, # of connection points: 4
#     Node 26, Type 0, BuildingBlock: NAHDIM_clean_sbu_0, # of connection points: 4
#     Node 27, Type 0, BuildingBlock: NAHDIM_clean_sbu_0, # of connection points: 4
#     Node 28, Type 0, BuildingBlock: NAHDIM_clean_sbu_0, # of connection points: 4
#     Node 29, Type 0, BuildingBlock: NAHDIM_clean_sbu_0, # of connection points: 4
#     Node 30, Type 0, BuildingBlock: NAHDIM_clean_sbu_0, # of connection points: 4
#     Node 31, Type 0, BuildingBlock: NAHDIM_clean_sbu_0, # of connection points: 4
#     Node 32, Type 0, BuildingBlock: NAHDIM_clean_sbu_0, # of connection points: 4
#     Node 33, Type 0, BuildingBlock: NAHDIM_clean_sbu_0, # of connection points: 4
#     Node 34, Type 0, BuildingBlock: NAHDIM_clean_sbu_0, # of connection points: 4
#     Node 35, Type 0, BuildingBlock: NAHDIM_clean_sbu_0, # of connection points: 4
#     Node 36, Type 0, BuildingBlock: NAHDIM_clean_sbu_0, # of connection points: 4
#     Node 37, Type 0, BuildingBlock: NAHDIM_clean_sbu_0, # of connection points: 4
#     Node 38, Type 0, BuildingBlock: NAHDIM_clean_sbu_0, # of connection points: 4
#     Node 39, Type 0, BuildingBlock: NAHDIM_clean_sbu_0, # of connection points: 4
#     Node 40, Type 0, BuildingBlock: NAHDIM_clean_sbu_0, # of connection points: 4
#     Node 41, Type 0, BuildingBlock: NAHDIM_clean_sbu_0, # of connection points: 4
#     Node 42, Type 0, BuildingBlock: NAHDIM_clean_sbu_0, # of connection points: 4
#     Node 43, Type 0, BuildingBlock: NAHDIM_clean_sbu_0, # of connection points: 4
#     Node 44, Type 0, BuildingBlock: NAHDIM_clean_sbu_0, # of connection points: 4
#     Node 45, Type 0, BuildingBlock: NAHDIM_clean_sbu_0, # of connection points: 4
#     Node 46, Type 0, BuildingBlock: NAHDIM_clean_sbu_0, # of connection points: 4
#     Node 47, Type 0, BuildingBlock: NAHDIM_clean_sbu_0, # of connection points: 4
#     Edge 48, Type (0, 0), BuildingBlock: AJUNOK_clean_linker_0, # of connection points: 2
#     Edge 49, Type (0, 0), BuildingBlock: AJUNOK_clean_linker_0, # of connection points: 2
#     Edge 50, Type (0, 0), BuildingBlock: AJUNOK_clean_linker_0, # of connection points: 2
#     Edge 51, Type (0, 0), BuildingBlock: AJUNOK_clean_linker_0, # of connection points: 2
#     Edge 52, Type (0, 0), BuildingBlock: AJUNOK_clean_linker_0, # of connection points: 2
#     Edge 53, Type (0, 0), BuildingBlock: AJUNOK_clean_linker_0, # of connection points: 2
#     Edge 54, Type (0, 0), BuildingBlock: AJUNOK_clean_linker_0, # of connection points: 2
#     Edge 55, Type (0, 0), BuildingBlock: AJUNOK_clean_linker_0, # of connection points: 2
#     Edge 56, Type (0, 0), BuildingBlock: AJUNOK_clean_linker_0, # of connection points: 2
#     Edge 57, Type (0, 0), BuildingBlock: AJUNOK_clean_linker_0, # of connection points: 2
#     Edge 58, Type (0, 0), BuildingBlock: AJUNOK_clean_linker_0, # of connection points: 2
#     Edge 59, Type (0, 0), BuildingBlock: AJUNOK_clean_linker_0, # of connection points: 2
#     Edge 60, Type (0, 0), BuildingBlock: AJUNOK_clean_linker_0, # of connection points: 2
#     Edge 61, Type (0, 0), BuildingBlock: AJUNOK_clean_linker_0, # of connection points: 2
#     Edge 62, Type (0, 0), BuildingBlock: AJUNOK_clean_linker_0, # of connection points: 2
#     Edge 63, Type (0, 0), BuildingBlock: AJUNOK_clean_linker_0, # of connection points: 2
#     Edge 64, Type (0, 0), BuildingBlock: AJUNOK_clean_linker_0, # of connection points: 2
#     Edge 65, Type (0, 0), BuildingBlock: AJUNOK_clean_linker_0, # of connection points: 2
#     Edge 66, Type (0, 0), BuildingBlock: AJUNOK_clean_linker_0, # of connection points: 2
#     Edge 67, Type (0, 0), BuildingBlock: AJUNOK_clean_linker_0, # of connection points: 2
#     Edge 68, Type (0, 0), BuildingBlock: AJUNOK_clean_linker_0, # of connection points: 2
#     Edge 69, Type (0, 0), BuildingBlock: AJUNOK_clean_linker_0, # of connection points: 2
#     Edge 70, Type (0, 0), BuildingBlock: AJUNOK_clean_linker_0, # of connection points: 2
#     Edge 71, Type (0, 0), BuildingBlock: AJUNOK_clean_linker_0, # of connection points: 2
#     Edge 72, Type (0, 0), BuildingBlock: AJUNOK_clean_linker_0, # of connection points: 2
#     Edge 73, Type (0, 0), BuildingBlock: AJUNOK_clean_linker_0, # of connection points: 2
#     Edge 74, Type (0, 0), BuildingBlock: AJUNOK_clean_linker_0, # of connection points: 2
#     Edge 75, Type (0, 0), BuildingBlock: AJUNOK_clean_linker_0, # of connection points: 2
#     Edge 76, Type (0, 0), BuildingBlock: AJUNOK_clean_linker_0, # of connection points: 2
#     Edge 77, Type (0, 0), BuildingBlock: AJUNOK_clean_linker_0, # of connection points: 2
#     Edge 78, Type (0, 0), BuildingBlock: AJUNOK_clean_linker_0, # of connection points: 2
#     Edge 79, Type (0, 0), BuildingBlock: AJUNOK_clean_linker_0, # of connection points: 2
#     Edge 80, Type (0, 0), BuildingBlock: AJUNOK_clean_linker_0, # of connection points: 2
#     Edge 81, Type (0, 0), BuildingBlock: AJUNOK_clean_linker_0, # of connection points: 2
#     Edge 82, Type (0, 0), BuildingBlock: AJUNOK_clean_linker_0, # of connection points: 2
#     Edge 83, Type (0, 0), BuildingBlock: AJUNOK_clean_linker_0, # of connection points: 2
#     Edge 84, Type (0, 0), BuildingBlock: AJUNOK_clean_linker_0, # of connection points: 2
#     Edge 85, Type (0, 0), BuildingBlock: AJUNOK_clean_linker_0, # of connection points: 2
#     Edge 86, Type (0, 0), BuildingBlock: AJUNOK_clean_linker_0, # of connection points: 2
#     Edge 87, Type (0, 0), BuildingBlock: AJUNOK_clean_linker_0, # of connection points: 2
#     Edge 88, Type (0, 0), BuildingBlock: AJUNOK_clean_linker_0, # of connection points: 2
#     Edge 89, Type (0, 0), BuildingBlock: AJUNOK_clean_linker_0, # of connection points: 2
#     Edge 90, Type (0, 0), BuildingBlock: AJUNOK_clean_linker_0, # of connection points: 2
#     Edge 91, Type (0, 0), BuildingBlock: AJUNOK_clean_linker_0, # of connection points: 2
#     Edge 92, Type (0, 0), BuildingBlock: AJUNOK_clean_linker_0, # of connection points: 2
#     Edge 93, Type (0, 0), BuildingBlock: AJUNOK_clean_linker_0, # of connection points: 2
#     Edge 94, Type (0, 0), BuildingBlock: AJUNOK_clean_linker_0, # of connection points: 2
#     Edge 95, Type (0, 0), BuildingBlock: AJUNOK_clean_linker_0, # of connection points: 2
#     Edge 96, Type (0, 0), BuildingBlock: AJUNOK_clean_linker_0, # of connection points: 2
#     Edge 97, Type (0, 0), BuildingBlock: AJUNOK_clean_linker_0, # of connection points: 2
#     Edge 98, Type (0, 0), BuildingBlock: AJUNOK_clean_linker_0, # of connection points: 2
#     Edge 99, Type (0, 0), BuildingBlock: AJUNOK_clean_linker_0, # of connection points: 2
#     Edge 100, Type (0, 0), BuildingBlock: AJUNOK_clean_linker_0, # of connection points: 2
#     Edge 101, Type (0, 0), BuildingBlock: AJUNOK_clean_linker_0, # of connection points: 2
#     Edge 102, Type (0, 0), BuildingBlock: AJUNOK_clean_linker_0, # of connection points: 2
#     Edge 103, Type (0, 0), BuildingBlock: AJUNOK_clean_linker_0, # of connection points: 2
#     Edge 104, Type (0, 0), BuildingBlock: AJUNOK_clean_linker_0, # of connection points: 2
#     Edge 105, Type (0, 0), BuildingBlock: AJUNOK_clean_linker_0, # of connection points: 2
#     Edge 106, Type (0, 0), BuildingBlock: AJUNOK_clean_linker_0, # of connection points: 2
#     Edge 107, Type (0, 0), BuildingBlock: AJUNOK_clean_linker_0, # of connection points: 2
#     Edge 108, Type (0, 0), BuildingBlock: AJUNOK_clean_linker_0, # of connection points: 2
#     Edge 109, Type (0, 0), BuildingBlock: AJUNOK_clean_linker_0, # of connection points: 2
#     Edge 110, Type (0, 0), BuildingBlock: AJUNOK_clean_linker_0, # of connection points: 2
#     Edge 111, Type (0, 0), BuildingBlock: AJUNOK_clean_linker_0, # of connection points: 2
#     Edge 112, Type (0, 0), BuildingBlock: AJUNOK_clean_linker_0, # of connection points: 2
#     Edge 113, Type (0, 0), BuildingBlock: AJUNOK_clean_linker_0, # of connection points: 2
#     Edge 114, Type (0, 0), BuildingBlock: AJUNOK_clean_linker_0, # of connection points: 2
#     Edge 115, Type (0, 0), BuildingBlock: AJUNOK_clean_linker_0, # of connection points: 2
#     Edge 116, Type (0, 0), BuildingBlock: AJUNOK_clean_linker_0, # of connection points: 2
#     Edge 117, Type (0, 0), BuildingBlock: AJUNOK_clean_linker_0, # of connection points: 2
#     Edge 118, Type (0, 0), BuildingBlock: AJUNOK_clean_linker_0, # of connection points: 2
#     Edge 119, Type (0, 0), BuildingBlock: AJUNOK_clean_linker_0, # of connection points: 2
#     Edge 120, Type (0, 0), BuildingBlock: AJUNOK_clean_linker_0, # of connection points: 2
#     Edge 121, Type (0, 0), BuildingBlock: AJUNOK_clean_linker_0, # of connection points: 2
#     Edge 122, Type (0, 0), BuildingBlock: AJUNOK_clean_linker_0, # of connection points: 2
#     Edge 123, Type (0, 0), BuildingBlock: AJUNOK_clean_linker_0, # of connection points: 2
#     Edge 124, Type (0, 0), BuildingBlock: AJUNOK_clean_linker_0, # of connection points: 2
#     Edge 125, Type (0, 0), BuildingBlock: AJUNOK_clean_linker_0, # of connection points: 2
#     Edge 126, Type (0, 0), BuildingBlock: AJUNOK_clean_linker_0, # of connection points: 2
#     Edge 127, Type (0, 0), BuildingBlock: AJUNOK_clean_linker_0, # of connection points: 2
#     Edge 128, Type (0, 0), BuildingBlock: AJUNOK_clean_linker_0, # of connection points: 2
#     Edge 129, Type (0, 0), BuildingBlock: AJUNOK_clean_linker_0, # of connection points: 2
#     Edge 130, Type (0, 0), BuildingBlock: AJUNOK_clean_linker_0, # of connection points: 2
#     Edge 131, Type (0, 0), BuildingBlock: AJUNOK_clean_linker_0, # of connection points: 2
#     Edge 132, Type (0, 0), BuildingBlock: AJUNOK_clean_linker_0, # of connection points: 2
#     Edge 133, Type (0, 0), BuildingBlock: AJUNOK_clean_linker_0, # of connection points: 2
#     Edge 134, Type (0, 0), BuildingBlock: AJUNOK_clean_linker_0, # of connection points: 2
#     Edge 135, Type (0, 0), BuildingBlock: AJUNOK_clean_linker_0, # of connection points: 2
#     Edge 136, Type (0, 0), BuildingBlock: AJUNOK_clean_linker_0, # of connection points: 2
#     Edge 137, Type (0, 0), BuildingBlock: AJUNOK_clean_linker_0, # of connection points: 2
#     Edge 138, Type (0, 0), BuildingBlock: AJUNOK_clean_linker_0, # of connection points: 2
#     Edge 139, Type (0, 0), BuildingBlock: AJUNOK_clean_linker_0, # of connection points: 2
#     Edge 140, Type (0, 0), BuildingBlock: AJUNOK_clean_linker_0, # of connection points: 2
#     Edge 141, Type (0, 0), BuildingBlock: AJUNOK_clean_linker_0, # of connection points: 2
#     Edge 142, Type (0, 0), BuildingBlock: AJUNOK_clean_linker_0, # of connection points: 2
#     Edge 143, Type (0, 0), BuildingBlock: AJUNOK_clean_linker_0, # of connection points: 2
# Relax obj value: 0.163
# Max RMSD: 0.221
# Mean RMSD: 0.213
data_MOF--net-ull--node1-NAHDIM_clean_sbu_0--edge1-AJUNOK_clean_linker_0
_symmetry_space_group_name_H-M    P1
_symmetry_Int_Tables_number       1
_symmetry_cell_setting            triclinic
loop_
_symmetry_equiv_pos_as_xyz
'x, y, z'
_cell_length_a     43.629725
_cell_length_b     44.531617
_cell_length_c     44.559702
_cell_angle_alpha  89.955038
_cell_angle_beta   90.035852
_cell_angle_gamma 89.957327
loop_
_atom_site_label
_atom_site_type_symbol
_atom_site_fract_x
_atom_site_fract_y
_atom_site_fract_z
_atom_type_partial_charge
C0 C 0.05886 0.33055 0.1379 0.0
O1 O 0.06939 0.34552 0.16111 0.0
O2 O 0.0183 0.37853 0.18368 0.0
Zn3 Zn 0.00068 0.34015 0.1673 0.0
O4 O 0.96049 0.34551 0.1462 0.0
C5 C 0.98709 0.31963 0.22641 0.0
O6 O 0.97838 0.34773 0.22905 0.0
O7 O 0.03038 0.32477 0.13642 0.0
C8 C 0.94881 0.32172 0.13537 0.0
O9 O 0.96245 0.29594 0.14069 0.0
C10 C 0.00656 0.40249 0.1941 0.0
O11 O 0.97663 0.40567 0.19455 0.0
O12 O 0.99693 0.31048 0.20118 0.0
C13 C 0.57956 0.01983 0.22447 0.0
O14 O 0.59787 0.00108 0.23852 0.0
O15 O 0.63042 0.04576 0.14444 0.0
Zn16 Zn 0.62286 0.01322 0.17518 0.0
O17 O 0.65826 0.01036 0.20453 0.0
C18 C 0.62939 0.96869 0.12983 0.0
O19 O 0.64828 0.98925 0.11962 0.0
O20 O 0.58528 0.02659 0.19736 0.0
C21 C 0.68021 0.99168 0.20236 0.0
O22 O 0.68052 0.97282 0.17971 0.0
C23 C 0.65538 0.06007 0.1411 0.0
O24 O 0.67893 0.05335 0.15821 0.0
O25 O 0.61533 0.97363 0.1543 0.0
C26 C 0.93556 0.64478 0.13017 0.0
O27 O 0.95332 0.62134 0.12595 0.0
O28 O 0.96915 0.62182 0.20812 0.0
Zn29 Zn 0.97728 0.65627 0.17967 0.0
O30 O 0.01602 0.65017 0.15582 0.0
C31 C 0.99498 0.69063 0.23049 0.0
O32 O 0.00688 0.66454 0.23786 0.0
O33 O 0.94139 0.66252 0.15174 0.0
C34 C 0.02776 0.67275 0.14264 0.0
O35 O 0.01415 0.69894 0.1452 0.0
C36 C 0.96735 0.59386 0.20275 0.0
O37 O 0.97071 0.58406 0.17517 0.0
O38 O 0.98142 0.69321 0.20538 0.0
C39 C 0.41458 0.00343 0.22812 0.0
O40 O 0.3886 0.01004 0.24144 0.0
O41 O 0.37591 0.97355 0.14721 0.0
Zn42 Zn 0.37795 0.01013 0.17377 0.0
O43 O 0.33968 0.01302 0.1994 0.0
C44 C 0.35685 0.0531 0.13186 0.0
O45 O 0.33206 0.03688 0.136 0.0
O46 O 0.41577 0.00413 0.19961 0.0
C47 C 0.33176 0.03789 0.21109 0.0
O48 O 0.34893 0.06166 0.20636 0.0
C49 C 0.35156 0.95962 0.14015 0.0
O50 O 0.32511 0.96928 0.15042 0.0
O51 O 0.38089 0.04641 0.1466 0.0
C52 C 0.0613 0.61396 0.88301 0.0
O53 O 0.0478 0.58768 0.88088 0.0
O54 O 0.02906 0.58677 0.81678 0.0
Zn55 Zn 0.01824 0.62555 0.83701 0.0
O56 O 0.97945 0.62108 0.86047 0.0
C57 C 0.03081 0.65871 0.783 0.0
O58 O 0.05161 0.63757 0.78011 0.0
O59 O 0.05238 0.6351 0.86591 0.0
C60 C 0.96705 0.64427 0.87174 0.0
O61 O 0.97955 0.67064 0.86672 0.0
C62 C 0.01334 0.57378 0.79661 0.0
O63 O 0.98705 0.58554 0.7883 0.0
O64 O 0.01369 0.65847 0.80607 0.0
C65 C 0.42559 0.00542 0.76641 0.0
O66 O 0.4061 0.98904 0.75103 0.0
O67 O 0.3744 0.02696 0.8475 0.0
Zn68 Zn 0.38428 0.99476 0.81724 0.0
O69 O 0.34799 0.98851 0.78991 0.0
C70 C 0.36968 0.94949 0.85748 0.0
O71 O 0.34449 0.96564 0.85638 0.0
O72 O 0.42142 0.00868 0.79442 0.0
C73 C 0.33733 0.00975 0.77397 0.0
O74 O 0.35082 0.03611 0.77489 0.0
C75 C 0.38442 0.05371 0.84548 0.0
O76 O 0.40065 0.0614 0.8219 0.0
O77 O 0.39201 0.95703 0.84079 0.0
C78 C 0.95242 0.36883 0.85338 0.0
O79 O 0.97355 0.38826 0.86137 0.0
O80 O 0.99693 0.38836 0.78044 0.0
Zn81 Zn 0.99812 0.35382 0.80951 0.0
O82 O 0.03212 0.35597 0.83975 0.0
C83 C 0.98503 0.31179 0.76346 0.0
O84 O 0.96292 0.33123 0.75847 0.0
O85 O 0.95778 0.35148 0.83138 0.0
C86 C 0.0588 0.34605 0.83408 0.0
O87 O 0.06515 0.33669 0.80683 0.0
C88 C 0.99743 0.41634 0.78596 0.0
O89 O 0.0013 0.42549 0.81372 0.0
O90 O 0.00328 0.31643 0.78515 0.0
C91 C 0.58209 0.99264 0.79751 0.0
O92 O 0.57465 0.99371 0.82605 0.0
O93 O 0.63829 0.97099 0.85067 0.0
Zn94 Zn 0.64303 0.00424 0.82025 0.0
O95 O 0.68291 0.99814 0.7984 0.0
C96 C 0.62835 0.04779 0.86561 0.0
O97 O 0.61445 0.02434 0.87722 0.0
O98 O 0.60947 0.99871 0.78994 0.0
C99 C 0.69238 0.0166 0.77876 0.0
O100 O 0.67646 0.04117 0.77377 0.0
C101 C 0.66106 0.96011 0.86474 0.0
O102 O 0.68843 0.97139 0.85988 0.0
O103 O 0.64188 0.04491 0.84051 0.0
C104 C 0.23024 0.02845 0.37807 0.0
O105 O 0.24251 0.00806 0.3605 0.0
O106 O 0.14853 0.06119 0.32882 0.0
Zn107 Zn 0.18076 0.02918 0.33403 0.0
O108 O 0.21013 0.02673 0.29907 0.0
C109 C 0.13789 0.98302 0.32071 0.0
O110 O 0.13378 1.00019 0.29706 0.0
O111 O 0.2042 0.03928 0.37134 0.0
C112 C 0.22985 0.0474 0.29534 0.0
O113 O 0.22939 0.07063 0.31349 0.0
C114 C 0.1513 0.08755 0.33942 0.0
O115 O 0.17747 0.09563 0.35155 0.0
O116 O 0.15825 0.99033 0.33977 0.0
C117 C 0.9222 0.14828 0.36366 0.0
O118 O 0.91426 0.16792 0.38422 0.0
O119 O 0.97272 0.20517 0.39626 0.0
Zn120 Zn 0.98125 0.1811 0.35876 0.0
O121 O 0.02081 0.15797 0.36002 0.0
C122 C 0.98783 0.2373 0.3279 0.0
O123 O 0.99447 0.24655 0.35509 0.0
O124 O 0.94826 0.15043 0.35114 0.0
C125 C 0.04688 0.16807 0.35235 0.0
O126 O 0.04983 0.19668 0.34575 0.0
C127 C 0.96829 0.19611 0.42294 0.0
O128 O 0.96973 0.16723 0.42884 0.0
O129 O 0.982 0.20966 0.32367 0.0
C130 C 0.78837 0.97419 0.41089 0.0
O131 O 0.81817 0.97287 0.41492 0.0
O132 O 0.83793 0.96424 0.34698 0.0
Zn133 Zn 0.80511 0.99609 0.35188 0.0
O134 O 0.77769 0.00043 0.31552 0.0
C135 C 0.84524 0.04394 0.34005 0.0
O136 O 0.84879 0.02726 0.31599 0.0
O137 O 0.77802 0.98452 0.38631 0.0
C138 C 0.77567 0.98194 0.2939 0.0
O139 O 0.79371 0.95831 0.2936 0.0
C140 C 0.8332 0.93634 0.3511 0.0
O141 O 0.8053 0.92712 0.35721 0.0
O142 O 0.82625 0.03539 0.3599 0.0
C143 C 0.05122 0.8884 0.35123 0.0
O144 O 0.04825 0.88137 0.37972 0.0
O145 O 0.02466 0.82299 0.38148 0.0
Zn146 Zn 0.00434 0.84396 0.3464 0.0
O147 O 0.96457 0.86534 0.35591 0.0
C148 C 0.99525 0.78592 0.31981 0.0
O149 O 0.99391 0.77812 0.3482 0.0
O150 O 0.03433 0.87526 0.33205 0.0
C151 C 0.93828 0.85518 0.3489 0.0
O152 O 0.93621 0.8283 0.33698 0.0
C153 C 0.01469 0.81056 0.40525 0.0
O154 O 0.98515 0.81078 0.4109 0.0
O155 O 0.99869 0.81349 0.31318 0.0
C156 C 0.21982 0.9195 0.63335 0.0
O157 O 0.21381 0.90959 0.66048 0.0
O158 O 0.15188 0.93661 0.66829 0.0
Zn159 Zn 0.18668 0.96499 0.65931 0.0
O160 O 0.21547 0.9712 0.6942 0.0
C161 C 0.15333 0.0187 0.66651 0.0
O162 O 0.15242 0.00789 0.69396 0.0
O163 O 0.21089 0.9457 0.62616 0.0
C164 C 0.23577 0.9914 0.69089 0.0
O165 O 0.23554 0.00754 0.66618 0.0
C166 C 0.14912 0.91925 0.69076 0.0
O167 O 0.16998 0.91994 0.71203 0.0
O168 O 0.16806 0.00421 0.64664 0.0
C169 C 0.07441 0.12016 0.63751 0.0
O170 O 0.06677 0.12611 0.60961 0.0
O171 O 0.04488 0.18716 0.6106 0.0
Zn172 Zn 0.02962 0.16538 0.64709 0.0
O173 O 0.98972 0.1437 0.64137 0.0
C174 C 0.00259 0.21419 0.67822 0.0
O175 O 0.98363 0.21207 0.6554 0.0
O176 O 0.06134 0.13463 0.6585 0.0
C177 C 0.97664 0.13543 0.66549 0.0
O178 O 0.98927 0.14254 0.6913 0.0
C179 C 0.03095 0.20146 0.59 0.0
O180 O 0.00087 0.20233 0.58992 0.0
O181 O 0.02489 0.19591 0.67991 0.0
C182 C 0.78936 0.00777 0.60541 0.0
O183 O 0.77145 0.99829 0.62714 0.0
O184 O 0.87049 0.03312 0.6517 0.0
Zn185 Zn 0.83727 0.0021 0.65041 0.0
O186 O 0.80587 0.00998 0.68286 0.0
C187 C 0.87476 0.95895 0.67853 0.0
O188 O 0.8771 0.98173 0.69713 0.0
O189 O 0.8181 0.00832 0.60981 0.0
C190 C 0.79406 0.98906 0.69845 0.0
O191 O 0.80267 0.96123 0.69355 0.0
C192 C 0.87194 0.05507 0.66978 0.0
O193 O 0.85111 0.05785 0.69088 0.0
O194 O 0.85755 0.96169 0.65563 0.0
C195 C 0.95987 0.859 0.69095 0.0
O196 O 0.98532 0.86407 0.70584 0.0
O197 O 0.98149 0.79049 0.62518 0.0
Zn198 Zn 0.99262 0.80691 0.666 0.0
O199 O 0.03228 0.83048 0.66561 0.0
C200 C 0.01797 0.75543 0.6954 0.0
O201 O 0.03971 0.76076 0.67575 0.0
O202 O 0.9579 0.83561 0.67478 0.0
C203 C 0.04742 0.8342 0.68977 0.0
O204 O 0.0375 0.82148 0.71452 0.0
C205 C 0.99498 0.77215 0.60776 0.0
O206 O 0.02189 0.76128 0.61523 0.0
O207 O 0.99485 0.77285 0.69619 0.0
C208 C 0.4342 0.20456 0.00621 0.0
O209 O 0.43953 0.17625 0.01268 0.0
O210 O 0.37565 0.15357 0.02481 0.0
Zn211 Zn 0.37469 0.18176 0.98908 0.0
O212 O 0.33504 0.2054 0.988 0.0
C213 C 0.3688 0.13198 0.94913 0.0
O214 O 0.35333 0.12152 0.97216 0.0
O215 O 0.40864 0.21172 0.99453 0.0
C216 C 0.31151 0.19841 0.97265 0.0
O217 O 0.31214 0.17394 0.95626 0.0
C218 C 0.35184 0.14543 0.03907 0.0
O219 O 0.32498 0.15561 0.03045 0.0
O220 O 0.38047 0.15807 0.95092 0.0
C221 C 0.4233 0.77761 0.00559 0.0
O222 O 0.40395 0.76337 0.02311 0.0
O223 O 0.37153 0.85562 0.97101 0.0
Zn224 Zn 0.37736 0.82625 0.00505 0.0
O225 O 0.34124 0.79736 0.00624 0.0
C226 C 0.35466 0.86498 0.04999 0.0
O227 O 0.33011 0.86146 0.03326 0.0
O228 O 0.41697 0.80419 0.99729 0.0
C229 C 0.31875 0.80025 0.98822 0.0
O230 O 0.31916 0.82228 0.96865 0.0
C231 C 0.38705 0.8555 0.94686 0.0
O232 O 0.40882 0.83543 0.94329 0.0
O233 O 0.37889 0.85074 0.04299 0.0
C234 C 0.22114 0.38427 0.97769 0.0
O235 O 0.24095 0.36448 0.98782 0.0
O236 O 0.14462 0.32974 0.95478 0.0
Zn237 Zn 0.17619 0.33663 0.9868 0.0
O238 O 0.20989 0.3056 0.98543 0.0
C239 C 0.13493 0.31643 0.03178 0.0
O240 O 0.12944 0.2963 0.01092 0.0
O241 O 0.19289 0.37751 0.97726 0.0
C242 C 0.20636 0.27962 0.97413 0.0
O243 O 0.17953 0.27232 0.96295 0.0
C244 C 0.15142 0.335 0.92756 0.0
O245 O 0.1799 0.34172 0.92073 0.0
O246 O 0.15519 0.33633 0.02689 0.0
C247 C 0.57295 0.20598 0.98708 0.0
O248 O 0.56654 0.17737 0.98368 0.0
O249 O 0.63414 0.15326 0.9665 0.0
Zn250 Zn 0.63612 0.18537 0.99833 0.0
O251 O 0.67377 0.21149 0.99455 0.0
C252 C 0.66011 0.14964 0.0459 0.0
O253 O 0.68454 0.15161 0.02881 0.0
O254 O 0.60009 0.2135 0.99419 0.0
C255 C 0.69899 0.2059 0.98143 0.0
O256 O 0.70322 0.17951 0.96894 0.0
C257 C 0.63716 0.15641 0.9383 0.0
O258 O 0.64256 0.18323 0.92723 0.0
O259 O 0.63593 0.16357 0.03804 0.0
C260 C 0.77736 0.62639 0.94256 0.0
O261 O 0.78544 0.65173 0.92965 0.0
O262 O 0.84619 0.66118 0.95703 0.0
Zn263 Zn 0.81097 0.65612 0.98554 0.0
O264 O 0.78482 0.69346 0.98536 0.0
C265 C 0.84209 0.66863 0.04015 0.0
O266 O 0.83963 0.69601 0.02944 0.0
O267 O 0.78548 0.62193 0.96959 0.0
C268 C 0.76362 0.69726 0.00451 0.0
O269 O 0.75992 0.67711 0.02575 0.0
C270 C 0.8614 0.63752 0.95133 0.0
O271 O 0.85337 0.61233 0.9645 0.0
O272 O 0.82967 0.64715 0.02585 0.0
C273 C 0.55552 0.81541 0.01063 0.0
O274 O 0.55171 0.84464 0.01221 0.0
O275 O 0.62217 0.86183 0.03072 0.0
Zn276 Zn 0.62022 0.82968 0.99912 0.0
O277 O 0.65601 0.80158 0.00539 0.0
C278 C 0.64626 0.86868 0.95724 0.0
O279 O 0.66668 0.8685 0.97894 0.0
O280 O 0.58179 0.80507 0.00392 0.0
C281 C 0.67208 0.79054 0.98434 0.0
O282 O 0.66614 0.79835 0.9565 0.0
C283 C 0.61246 0.86081 0.05759 0.0
O284 O 0.59928 0.83621 0.06746 0.0
O285 O 0.62298 0.85165 0.95961 0.0
C286 C 0.22296 0.64046 0.06286 0.0
O287 O 0.21973 0.66806 0.07276 0.0
O288 O 0.14895 0.67657 0.05342 0.0
Zn289 Zn 0.1825 0.66689 0.02367 0.0
O290 O 0.21168 0.70196 0.01914 0.0
C291 C 0.15009 0.63182 0.97913 0.0
O292 O 0.15357 0.6103 0.99904 0.0
O293 O 0.20763 0.63247 0.03997 0.0
C294 C 0.21688 0.71557 0.99459 0.0
O295 O 0.20144 0.70783 0.97049 0.0
C296 C 0.13567 0.65521 0.06722 0.0
O297 O 0.14505 0.62758 0.06247 0.0
O298 O 0.16187 0.65735 0.98436 0.0
C299 C 0.78951 0.38614 0.03557 0.0
O300 O 0.7929 0.35894 0.04649 0.0
O301 O 0.85293 0.34647 0.02616 0.0
Zn302 Zn 0.82253 0.35585 0.99335 0.0
O303 O 0.79205 0.32222 0.98719 0.0
C304 C 0.84657 0.35303 0.93138 0.0
O305 O 0.82577 0.33226 0.92671 0.0
O306 O 0.79937 0.39169 0.00931 0.0
C307 C 0.79727 0.29489 0.98072 0.0
O308 O 0.82566 0.28611 0.9762 0.0
C309 C 0.85386 0.32422 0.04398 0.0
O310 O 0.83427 0.30207 0.04086 0.0
O311 O 0.84757 0.36607 0.95673 0.0
C312 C 0.56283 0.85889 0.64625 0.0
O313 O 0.55199 0.88641 0.64729 0.0
O314 O 0.53125 0.89184 0.71132 0.0
Zn315 Zn 0.51846 0.85282 0.69226 0.0
O316 O 0.4808 0.8579 0.66685 0.0
C317 C 0.49469 0.82701 0.74703 0.0
O318 O 0.48106 0.85323 0.74879 0.0
O319 O 0.55228 0.83954 0.66449 0.0
C320 C 0.47355 0.83608 0.64991 0.0
O321 O 0.48986 0.81129 0.65131 0.0
C322 C 0.51395 0.91265 0.72105 0.0
O323 O 0.48406 0.91012 0.71864 0.0
O324 O 0.51163 0.82153 0.72446 0.0
C325 C 0.09122 0.5017 0.72325 0.0
O326 O 0.1129 0.48429 0.73405 0.0
O327 O 0.13407 0.54707 0.64581 0.0
Zn328 Zn 0.13385 0.51134 0.67381 0.0
O329 O 0.17079 0.5115 0.70179 0.0
C330 C 0.15669 0.46735 0.63273 0.0
O331 O 0.18116 0.48441 0.63469 0.0
O332 O 0.09515 0.51439 0.69801 0.0
C333 C 0.18335 0.48695 0.70976 0.0
O334 O 0.17193 0.46148 0.70001 0.0
C335 C 0.1582 0.55949 0.63584 0.0
O336 O 0.18506 0.54943 0.64463 0.0
O337 O 0.13322 0.47408 0.64821 0.0
C338 C 0.43406 0.14337 0.63361 0.0
O339 O 0.44541 0.11617 0.63619 0.0
O340 O 0.48046 0.11324 0.68823 0.0
Zn341 Zn 0.48387 0.1559 0.67325 0.0
O342 O 0.52031 0.16238 0.64652 0.0
C343 C 0.46729 0.183 0.72985 0.0
O344 O 0.44687 0.16132 0.73021 0.0
O345 O 0.44661 0.1647 0.64804 0.0
C346 C 0.54629 0.14984 0.64927 0.0
O347 O 0.55062 0.13041 0.67107 0.0
C348 C 0.49222 0.10282 0.71215 0.0
O349 O 0.50978 0.12026 0.72856 0.0
O350 O 0.48563 0.18486 0.70779 0.0
C351 C 0.92706 0.47762 0.69695 0.0
O352 O 0.92845 0.47091 0.66828 0.0
O353 O 0.86104 0.457 0.65313 0.0
Zn354 Zn 0.86281 0.49017 0.68406 0.0
O355 O 0.82804 0.48556 0.71345 0.0
C356 C 0.8723 0.53231 0.63709 0.0
O357 O 0.88579 0.50864 0.62547 0.0
O358 O 0.90189 0.48691 0.70786 0.0
C359 C 0.80065 0.49421 0.70898 0.0
O360 O 0.79364 0.50696 0.68328 0.0
C361 C 0.85856 0.42933 0.65972 0.0
O362 O 0.85676 0.42149 0.68809 0.0
O363 O 0.86053 0.53019 0.66308 0.0
C364 C 0.55751 0.14184 0.37297 0.0
O365 O 0.54428 0.11566 0.36899 0.0
O366 O 0.5187 0.11694 0.31125 0.0
Zn367 Zn 0.51125 0.1568 0.33119 0.0
O368 O 0.47317 0.15546 0.35618 0.0
C369 C 0.52648 0.19173 0.27884 0.0
O370 O 0.55001 0.17328 0.27836 0.0
O371 O 0.54711 0.16449 0.3588 0.0
C372 C 0.44662 0.15824 0.3448 0.0
O373 O 0.44395 0.16152 0.31562 0.0
C374 C 0.50717 0.10818 0.2866 0.0
O375 O 0.48782 0.12575 0.27235 0.0
O376 O 0.50705 0.18931 0.2999 0.0
C377 C 0.90983 0.52496 0.29693 0.0
O378 O 0.91655 0.52721 0.32558 0.0
O379 O 0.84854 0.53454 0.35215 0.0
Zn380 Zn 0.84934 0.5052 0.31777 0.0
O381 O 0.81057 0.51024 0.29372 0.0
C382 C 0.8361 0.45746 0.35781 0.0
O383 O 0.81523 0.47721 0.36574 0.0
O384 O 0.88374 0.51489 0.2893 0.0
C385 C 0.79651 0.4888 0.28095 0.0
O386 O 0.80632 0.4612 0.28499 0.0
C387 C 0.85517 0.56232 0.35142 0.0
O388 O 0.86409 0.57454 0.32605 0.0
O389 O 0.85363 0.46374 0.33589 0.0
C390 C 0.45196 0.86934 0.36453 0.0
O391 O 0.45444 0.89818 0.35888 0.0
O392 O 0.48579 0.90509 0.30406 0.0
Zn393 Zn 0.5009 0.86561 0.32092 0.0
O394 O 0.5409 0.86903 0.34365 0.0
C395 C 0.51981 0.8377 0.2643 0.0
O396 O 0.53714 0.86164 0.26153 0.0
O397 O 0.46944 0.85107 0.3508 0.0
C398 C 0.56103 0.84839 0.34244 0.0
O399 O 0.55668 0.82552 0.32436 0.0
C400 C 0.49981 0.92518 0.28913 0.0
O401 O 0.52915 0.92203 0.28337 0.0
O402 O 0.5032 0.8349 0.28756 0.0
C403 C 0.09275 0.46934 0.26631 0.0
O404 O 0.11864 0.45475 0.27019 0.0
O405 O 0.12414 0.4685 0.34052 0.0
Zn406 Zn 0.12407 0.50083 0.30904 0.0
O407 O 0.16235 0.49654 0.28413 0.0
C408 C 0.11017 0.54482 0.35412 0.0
O409 O 0.09444 0.52229 0.3653 0.0
O410 O 0.08796 0.49286 0.28178 0.0
C411 C 0.18727 0.51104 0.28658 0.0
O412 O 0.18972 0.5319 0.30728 0.0
C413 C 0.14643 0.46603 0.35865 0.0
O414 O 0.16933 0.48506 0.35651 0.0
O415 O 0.12358 0.54135 0.32906 0.0
C416 C 0.70586 0.54279 0.87045 0.0
O417 O 0.69779 0.55213 0.8436 0.0
O418 O 0.63174 0.52945 0.84659 0.0
Zn419 Zn 0.66667 0.49991 0.84898 0.0
O420 O 0.68924 0.49722 0.80949 0.0
C421 C 0.62933 0.44946 0.8426 0.0
O422 O 0.62286 0.46529 0.8185 0.0
O423 O 0.69558 0.51766 0.87954 0.0
C424 C 0.71537 0.48461 0.80935 0.0
O425 O 0.72548 0.47247 0.83436 0.0
C426 C 0.62552 0.54578 0.824 0.0
O427 O 0.64169 0.5427 0.79934 0.0
O428 O 0.64943 0.45953 0.86064 0.0
C429 C 0.43834 0.6386 0.87401 0.0
O430 O 0.44606 0.6407 0.90244 0.0
O431 O 0.48452 0.69305 0.90897 0.0
Zn432 Zn 0.49082 0.67714 0.86691 0.0
O433 O 0.52688 0.6492 0.86398 0.0
C434 C 0.47941 0.73455 0.83869 0.0
O435 O 0.45814 0.73635 0.85947 0.0
O436 O 0.45378 0.65307 0.85465 0.0
C437 C 0.53264 0.63887 0.83798 0.0
O438 O 0.51567 0.64781 0.8153 0.0
C439 C 0.49797 0.71603 0.91958 0.0
O440 O 0.51859 0.72987 0.90315 0.0
O441 O 0.49626 0.71128 0.83765 0.0
C442 C 0.26296 0.47619 0.89564 0.0
O443 O 0.24429 0.48294 0.87349 0.0
O444 O 0.34336 0.46423 0.84724 0.0
Zn445 Zn 0.31136 0.49596 0.85485 0.0
O446 O 0.28047 0.49928 0.82079 0.0
C447 C 0.349 0.5471 0.8417 0.0
O448 O 0.34923 0.53466 0.81498 0.0
O449 O 0.29129 0.48189 0.89285 0.0
C450 C 0.28349 0.48478 0.79639 0.0
O451 O 0.308 0.46812 0.79249 0.0
C452 C 0.33626 0.43662 0.84949 0.0
O453 O 0.30738 0.42922 0.8534 0.0
O454 O 0.33323 0.53494 0.86236 0.0
C455 C 0.55222 0.34605 0.8696 0.0
O456 O 0.56017 0.3241 0.8877 0.0
O457 O 0.49692 0.29147 0.90137 0.0
Zn458 Zn 0.48992 0.31816 0.86538 0.0
O459 O 0.45273 0.34479 0.86922 0.0
C460 C 0.47328 0.26588 0.83097 0.0
O461 O 0.46107 0.2577 0.85666 0.0
O462 O 0.52531 0.34657 0.8586 0.0
C463 C 0.4283 0.34199 0.85391 0.0
O464 O 0.4249 0.31849 0.83644 0.0
C465 C 0.50511 0.29942 0.92754 0.0
O466 O 0.5087 0.32809 0.93349 0.0
O467 O 0.48636 0.29132 0.82918 0.0
C468 C 0.71978 0.46474 0.1123 0.0
O469 O 0.71315 0.45311 0.13859 0.0
O470 O 0.63958 0.46798 0.12969 0.0
Zn471 Zn 0.67234 0.49955 0.13352 0.0
O472 O 0.69139 0.49749 0.17487 0.0
C473 C 0.63962 0.55328 0.14667 0.0
O474 O 0.63966 0.5406 0.17329 0.0
O475 O 0.70479 0.48761 0.10347 0.0
C476 C 0.71218 0.51548 0.18341 0.0
O477 O 0.7195 0.53825 0.16608 0.0
C478 C 0.63619 0.44688 0.14862 0.0
O479 O 0.65364 0.44623 0.17262 0.0
O480 O 0.65334 0.54008 0.12523 0.0
C481 C 0.55517 0.65173 0.12278 0.0
O482 O 0.54397 0.65431 0.09552 0.0
O483 O 0.50878 0.71359 0.09665 0.0
Zn484 Zn 0.5062 0.69329 0.13706 0.0
O485 O 0.46943 0.66642 0.14043 0.0
C486 C 0.52217 0.74724 0.1695 0.0
O487 O 0.54174 0.75038 0.14732 0.0
O488 O 0.54326 0.66709 0.14379 0.0
C489 C 0.46581 0.65286 0.1653 0.0
O490 O 0.48529 0.65819 0.18717 0.0
C491 C 0.49219 0.73603 0.08967 0.0
O492 O 0.47141 0.74545 0.10881 0.0
O493 O 0.50451 0.72456 0.16966 0.0
C494 C 0.29588 0.558 0.13416 0.0
O495 O 0.30487 0.56784 0.16051 0.0
O496 O 0.36514 0.54408 0.16032 0.0
Zn497 Zn 0.33062 0.51423 0.1586 0.0
O498 O 0.30638 0.51316 0.19699 0.0
C499 C 0.36867 0.47162 0.12898 0.0
O500 O 0.37498 0.49573 0.11313 0.0
O501 O 0.3028 0.53129 0.1266 0.0
C502 C 0.28278 0.49648 0.1966 0.0
O503 O 0.27741 0.48031 0.17251 0.0
C504 C 0.3743 0.55933 0.18263 0.0
O505 O 0.36256 0.55433 0.20931 0.0
O506 O 0.34839 0.47347 0.14933 0.0
C507 C 0.45599 0.37286 0.12397 0.0
O508 O 0.48162 0.37828 0.10954 0.0
O509 O 0.49062 0.29294 0.1037 0.0
Zn510 Zn 0.49038 0.32038 0.1399 0.0
O511 O 0.52853 0.34541 0.14386 0.0
C512 C 0.51272 0.27704 0.18012 0.0
O513 O 0.53491 0.27862 0.16026 0.0
O514 O 0.45369 0.34859 0.1389 0.0
C515 C 0.54618 0.35414 0.12298 0.0
O516 O 0.54047 0.34612 0.09518 0.0
C517 C 0.48475 0.30016 0.07668 0.0
O518 O 0.47939 0.32843 0.07019 0.0
O519 O 0.48927 0.29365 0.17648 0.0
C520 C 0.91261 0.72156 0.5196 0.0
O521 O 0.88918 0.73771 0.51045 0.0
O522 O 0.86813 0.63771 0.53581 0.0
Zn523 Zn 0.87145 0.67221 0.50703 0.0
O524 O 0.8359 0.70077 0.51334 0.0
C525 C 0.85267 0.6331 0.46146 0.0
O526 O 0.83376 0.62659 0.48345 0.0
O527 O 0.91091 0.69313 0.51797 0.0
C528 C 0.81528 0.70682 0.4941 0.0
O529 O 0.81586 0.69325 0.46795 0.0
C530 C 0.86552 0.64066 0.56404 0.0
O531 O 0.86383 0.66776 0.57554 0.0
O532 O 0.87186 0.65426 0.46533 0.0
C533 C 0.89974 0.27833 0.49735 0.0
O534 O 0.88204 0.26778 0.51874 0.0
O535 O 0.84572 0.3566 0.46376 0.0
Zn536 Zn 0.8558 0.32739 0.49729 0.0
O537 O 0.82121 0.29768 0.50229 0.0
C538 C 0.85366 0.34302 0.56114 0.0
O539 O 0.84159 0.31618 0.56423 0.0
O540 O 0.89377 0.30399 0.48624 0.0
C541 C 0.81623 0.27907 0.48122 0.0
O542 O 0.83291 0.28088 0.45674 0.0
C543 C 0.85861 0.3562 0.43813 0.0
O544 O 0.87892 0.33522 0.43235 0.0
O545 O 0.86185 0.35168 0.53515 0.0
C546 C 0.70107 0.90266 0.47721 0.0
O547 O 0.67156 0.90796 0.47453 0.0
O548 O 0.64855 0.84479 0.46074 0.0
Zn549 Zn 0.67968 0.84401 0.49418 0.0
O550 O 0.70347 0.80519 0.49398 0.0
C551 C 0.64597 0.82953 0.54823 0.0
O552 O 0.649 0.80195 0.53823 0.0
O553 O 0.70981 0.87704 0.48634 0.0
C554 C 0.72614 0.80283 0.51176 0.0
O555 O 0.73175 0.82497 0.53044 0.0
C556 C 0.65621 0.84012 0.43363 0.0
O557 O 0.68488 0.83359 0.42745 0.0
O558 O 0.65789 0.85092 0.53338 0.0
C559 C 0.10275 0.73093 0.46244 0.0
O560 O 0.12943 0.72936 0.4489 0.0
O561 O 0.12236 0.64738 0.45786 0.0
Zn562 Zn 0.12953 0.67972 0.48866 0.0
O563 O 0.17128 0.69866 0.48226 0.0
C564 C 0.14986 0.64067 0.53374 0.0
O565 O 0.17045 0.63696 0.51254 0.0
O566 O 0.09662 0.71156 0.48258 0.0
C567 C 0.18715 0.70909 0.50378 0.0
O568 O 0.17685 0.70643 0.53135 0.0
C569 C 0.13337 0.64793 0.43146 0.0
O570 O 0.15076 0.67062 0.42344 0.0
O571 O 0.12831 0.65944 0.52933 0.0
C572 C 0.30033 0.09827 0.46337 0.0
O573 O 0.33002 0.09499 0.46707 0.0
O574 O 0.34669 0.16365 0.45365 0.0
Zn575 Zn 0.31352 0.15773 0.48454 0.0
O576 O 0.28633 0.19425 0.48819 0.0
C577 C 0.34687 0.16919 0.5384 0.0
O578 O 0.34533 0.19678 0.528 0.0
O579 O 0.28792 0.12294 0.47101 0.0
C580 C 0.283 0.21321 0.46709 0.0
O581 O 0.2986 0.20965 0.44216 0.0
C582 C 0.34212 0.15806 0.42602 0.0
O583 O 0.31465 0.1498 0.41724 0.0
O584 O 0.33383 0.14833 0.52378 0.0
C585 C 0.1078 0.28597 0.52612 0.0
O586 O 0.13467 0.28998 0.53883 0.0
O587 O 0.13407 0.36239 0.53216 0.0
Zn588 Zn 0.13342 0.33386 0.49715 0.0
O589 O 0.17333 0.3111 0.49494 0.0
C590 C 0.14901 0.37722 0.45479 0.0
O591 O 0.17235 0.37789 0.47343 0.0
O592 O 0.09993 0.30355 0.50498 0.0
C593 C 0.18408 0.30073 0.4706 0.0
O594 O 0.16974 0.30646 0.4453 0.0
C595 C 0.15842 0.36989 0.54586 0.0
O596 O 0.18474 0.35844 0.53727 0.0
O597 O 0.12757 0.35853 0.4597 0.0
C598 C 0.73622 0.09325 0.52288 0.0
O599 O 0.75339 0.11191 0.50747 0.0
O600 O 0.65658 0.14323 0.55192 0.0
Zn601 Zn 0.68614 0.13835 0.51772 0.0
O602 O 0.71507 0.17379 0.51544 0.0
C603 C 0.65016 0.15617 0.46602 0.0
O604 O 0.65597 0.18325 0.47619 0.0
O605 O 0.70843 0.10008 0.52796 0.0
C606 C 0.72966 0.1796 0.49144 0.0
O607 O 0.72581 0.16199 0.46809 0.0
C608 C 0.63955 0.16573 0.55723 0.0
O609 O 0.64124 0.18939 0.53972 0.0
O610 O 0.66149 0.13366 0.47969 0.0
C611 C 0.29421 0.84554 0.55462 0.0
O612 O 0.30201 0.81843 0.56343 0.0
O613 O 0.37011 0.82153 0.54425 0.0
Zn614 Zn 0.33669 0.82678 0.51345 0.0
O615 O 0.31312 0.78833 0.50782 0.0
C616 C 0.37465 0.82537 0.4617 0.0
O617 O 0.38051 0.79862 0.47279 0.0
O618 O 0.30669 0.85613 0.53112 0.0
C619 C 0.29227 0.78721 0.48794 0.0
O620 O 0.28928 0.80984 0.46923 0.0
C621 C 0.37952 0.84519 0.55731 0.0
O622 O 0.36803 0.87119 0.54908 0.0
O623 O 0.35526 0.84193 0.47506 0.0
C624 C 0.07981 0.43691 0.22302 0.0
C625 C 0.06979 0.45705 0.24519 0.0
C626 C 0.05903 0.42095 0.20541 0.0
C627 C 0.02719 0.42418 0.20931 0.0
H628 H 0.10404 0.43263 0.21979 0.0
H629 H 0.06817 0.40501 0.18939 0.0
S630 S 0.989 0.47712 0.26173 0.0
N631 N 0.02599 0.48187 0.26811 0.0
N632 N 0.98657 0.4515 0.23503 0.0
C633 C 0.01673 0.44585 0.22996 0.0
C634 C 0.03811 0.46236 0.24791 0.0
C635 C 0.53716 0.05762 0.22521 0.0
C636 C 0.55609 0.03741 0.24103 0.0
C637 C 0.51946 0.0791 0.24025 0.0
C638 C 0.52015 0.08132 0.2717 0.0
H639 H 0.53716 0.05795 0.2009 0.0
H640 H 0.50674 0.09526 0.22698 0.0
S641 S 0.56062 0.02976 0.3239 0.0
N642 N 0.57048 0.01795 0.29015 0.0
N643 N 0.53738 0.0585 0.31838 0.0
C644 C 0.53664 0.05948 0.28789 0.0
C645 C 0.55453 0.03743 0.27257 0.0
C646 C 0.939 0.5484 0.22033 0.0
C647 C 0.95754 0.5733 0.22701 0.0
C648 C 0.92499 0.53177 0.24325 0.0
C649 C 0.92945 0.53908 0.27371 0.0
H650 H 0.9338 0.54276 0.19723 0.0
H651 H 0.90961 0.51373 0.237 0.0
S652 S 0.97994 0.59944 0.30296 0.0
N653 N 0.98242 0.60249 0.26612 0.0
N654 N 0.95658 0.57097 0.30923 0.0
C655 C 0.94992 0.56247 0.28068 0.0
C656 C 0.9638 0.57968 0.25731 0.0
C657 C 0.45359 0.95801 0.28885 0.0
C658 C 0.48168 0.94992 0.27566 0.0
C659 C 0.43307 0.97725 0.27423 0.0
C660 C 0.43954 0.98883 0.24552 0.0
H661 H 0.44679 0.94845 0.3102 0.0
H662 H 0.41118 0.98154 0.28485 0.0
S663 S 0.51182 0.97784 0.20297 0.0
N664 N 0.5165 0.95767 0.23375 0.0
N665 N 0.47766 0.99355 0.20594 0.0
C666 C 0.46852 0.9827 0.233 0.0
C667 C 0.48967 0.96333 0.24816 0.0
C668 C 0.0723 0.5162 0.77382 0.0
C669 C 0.06652 0.51279 0.743 0.0
C670 C 0.05334 0.53418 0.79166 0.0
C671 C 0.02776 0.5491 0.7794 0.0
H672 H 0.09293 0.507 0.78378 0.0
H673 H 0.05991 0.53788 0.81482 0.0
S674 S 0.99869 0.54112 0.70152 0.0
N675 N 0.03062 0.52118 0.70212 0.0
N676 N 0.99467 0.5548 0.73574 0.0
C677 C 0.01974 0.54294 0.74945 0.0
C678 C 0.03926 0.52484 0.73119 0.0
C679 C 0.46725 0.04392 0.76822 0.0
C680 C 0.44803 0.02521 0.751 0.0
C681 C 0.48343 0.06769 0.75509 0.0
C682 C 0.481 0.07376 0.72421 0.0
H683 H 0.4685 0.04133 0.79237 0.0
H684 H 0.49632 0.08251 0.76965 0.0
S685 S 0.43935 0.02754 0.66812 0.0
N686 N 0.43164 0.01144 0.70062 0.0
N687 N 0.46205 0.05612 0.67597 0.0
C688 C 0.46438 0.05344 0.70628 0.0
C689 C 0.44795 0.02913 0.71965 0.0
C690 C 0.96912 0.44223 0.71027 0.0
C691 C 0.95153 0.4676 0.71765 0.0
C692 C 0.98631 0.42721 0.73217 0.0
C693 C 0.98686 0.43722 0.76215 0.0
H694 H 0.96767 0.43239 0.68809 0.0
H695 H 0.99761 0.40645 0.72593 0.0
S696 S 0.95103 0.50714 0.79088 0.0
N697 N 0.94008 0.5053 0.75545 0.0
N698 N 0.97297 0.47743 0.79657 0.0
C699 C 0.97247 0.4647 0.76887 0.0
C700 C 0.95457 0.47976 0.74662 0.0
C701 C 0.57397 0.96706 0.74834 0.0
C702 C 0.56158 0.97768 0.77552 0.0
C703 C 0.5576 0.94727 0.73001 0.0
C704 C 0.52795 0.93779 0.73775 0.0
H705 H 0.59726 0.97253 0.74194 0.0
H706 H 0.56876 0.9384 0.71018 0.0
S707 S 0.48326 0.9622 0.80416 0.0
N708 N 0.51647 0.97963 0.80761 0.0
N709 N 0.4855 0.94273 0.77271 0.0
C710 C 0.51419 0.95013 0.76346 0.0
C711 C 0.53107 0.97001 0.78246 0.0
C712 C 0.23383 0.06415 0.42102 0.0
C713 C 0.24787 0.04207 0.40309 0.0
C714 C 0.25071 0.08092 0.44173 0.0
C715 C 0.28239 0.07638 0.44547 0.0
H716 H 0.20975 0.06945 0.4183 0.0
H717 H 0.23893 0.09845 0.45403 0.0
S718 S 0.32943 0.01846 0.40701 0.0
N719 N 0.29479 0.01438 0.39266 0.0
N720 N 0.3266 0.04596 0.43168 0.0
C721 C 0.29637 0.05294 0.42924 0.0
C722 C 0.2791 0.03579 0.40803 0.0
C723 C 0.92139 0.22715 0.48748 0.0
C724 C 0.92221 0.25835 0.48225 0.0
C725 C 0.93804 0.20713 0.46943 0.0
C726 C 0.95612 0.21756 0.44547 0.0
H727 H 0.90646 0.21788 0.50454 0.0
H728 H 0.93524 0.18326 0.47324 0.0
S729 S 0.97113 0.29738 0.42633 0.0
N730 N 0.94631 0.29888 0.45423 0.0
N731 N 0.97757 0.26133 0.42046 0.0
C732 C 0.95925 0.2488 0.44171 0.0
C733 C 0.94231 0.26917 0.46005 0.0
C734 C 0.714 0.9466 0.44481 0.0
C735 C 0.72374 0.92411 0.46482 0.0
C736 C 0.73517 0.96383 0.42869 0.0
C737 C 0.76695 0.95946 0.43212 0.0
H738 H 0.68984 0.94997 0.4403 0.0
H739 H 0.72647 0.97991 0.41254 0.0
S740 S 0.80431 0.90656 0.48525 0.0
N741 N 0.76725 0.90068 0.48978 0.0
N742 N 0.80709 0.93319 0.4596 0.0
C743 C 0.77702 0.93861 0.45375 0.0
C744 C 0.7554 0.92088 0.47004 0.0
C745 C 0.068 0.79425 0.41712 0.0
C746 C 0.0365 0.7927 0.42375 0.0
C747 C 0.08912 0.77505 0.43082 0.0
C748 C 0.07987 0.75333 0.45188 0.0
H749 H 0.0765 0.80987 0.40044 0.0
H750 H 0.1129 0.7768 0.42404 0.0
S751 S 0.0006 0.74222 0.48 0.0
N752 N 0.99738 0.76937 0.45493 0.0
N753 N 0.0373 0.73315 0.48082 0.0
C754 C 0.04872 0.75261 0.46018 0.0
C755 C 0.02702 0.77231 0.4461 0.0
C756 C 0.25335 0.91307 0.58813 0.0
C757 C 0.23681 0.90029 0.61202 0.0
C758 C 0.27127 0.89516 0.56905 0.0
C759 C 0.27312 0.86385 0.57314 0.0
H760 H 0.25319 0.93715 0.58466 0.0
H761 H 0.28437 0.90605 0.5515 0.0
S762 S 0.23079 0.81908 0.62998 0.0
N763 N 0.22118 0.85421 0.63702 0.0
N764 N 0.25452 0.82062 0.60121 0.0
C765 C 0.25553 0.85072 0.59613 0.0
C766 C 0.23747 0.86892 0.61556 0.0
C767 C 0.08155 0.21938 0.5716 0.0
C768 C 0.04939 0.22035 0.56928 0.0
C769 C 0.10001 0.2399 0.55639 0.0
C770 C 0.08728 0.26226 0.53792 0.0
H771 H 0.09276 0.20334 0.58624 0.0
H772 H 0.12456 0.23867 0.55993 0.0
S773 S 0.00469 0.27175 0.52021 0.0
N774 N 0.00567 0.24351 0.54425 0.0
N775 N 0.04069 0.28216 0.51534 0.0
C776 C 0.05533 0.26223 0.53348 0.0
C777 C 0.03632 0.24127 0.54923 0.0
C778 C 0.74419 0.029 0.57816 0.0
C779 C 0.77605 0.02438 0.57952 0.0
C780 C 0.73139 0.04991 0.5583 0.0
C781 C 0.74988 0.06717 0.53894 0.0
H782 H 0.72903 0.01763 0.59369 0.0
H783 H 0.70687 0.05361 0.55935 0.0
S784 S 0.83404 0.05932 0.52939 0.0
N785 N 0.82541 0.03553 0.55652 0.0
N786 N 0.80129 0.07494 0.51929 0.0
C787 C 0.78147 0.0608 0.53809 0.0
C788 C 0.79455 0.03938 0.55833 0.0
C789 C 0.93321 0.76509 0.54852 0.0
C790 C 0.93737 0.73576 0.53753 0.0
C791 C 0.953 0.7772 0.57007 0.0
C792 C 0.97806 0.76069 0.58125 0.0
H793 H 0.91355 0.77833 0.54173 0.0
H794 H 0.9479 0.79933 0.57884 0.0
S795 S 0.00203 0.68474 0.55624 0.0
N796 N 0.97048 0.69173 0.53696 0.0
N797 N 0.00802 0.71478 0.57713 0.0
C798 C 0.98397 0.73228 0.56872 0.0
C799 C 0.96351 0.71973 0.547 0.0
C800 C 0.48289 0.24585 0.06256 0.0
C801 C 0.47847 0.27612 0.05439 0.0
C802 C 0.47086 0.22245 0.0452 0.0
C803 C 0.45372 0.22844 0.01915 0.0
H804 H 0.49413 0.24013 0.08348 0.0
H805 H 0.47307 0.1997 0.05357 0.0
S806 S 0.44202 0.30308 0.98397 0.0
N807 N 0.46075 0.31034 0.01534 0.0
N808 N 0.43765 0.26627 0.98309 0.0
C809 C 0.45196 0.25829 0.009 0.0
C810 C 0.4645 0.28216 0.02651 0.0
C811 C 0.46787 0.77711 0.97033 0.0
C812 C 0.44824 0.76123 0.9898 0.0
C813 C 0.48612 0.76211 0.94925 0.0
C814 C 0.48527 0.73067 0.94671 0.0
H815 H 0.46778 0.80144 0.97002 0.0
H816 H 0.49916 0.77544 0.93343 0.0
S817 S 0.44418 0.67828 0.99737 0.0
N818 N 0.43389 0.712 0.00903 0.0
N819 N 0.46787 0.6839 0.96904 0.0
C820 C 0.46846 0.7144 0.96817 0.0
C821 C 0.4501 0.72966 0.98988 0.0
C822 C 0.22106 0.44929 0.92281 0.0
C823 C 0.25224 0.45695 0.92077 0.0
C824 C 0.21096 0.42708 0.94273 0.0
C825 C 0.23166 0.41142 0.96132 0.0
H826 H 0.20438 0.45957 0.90799 0.0
H827 H 0.18689 0.42113 0.94232 0.0
S828 S 0.31509 0.42613 0.9681 0.0
N829 N 0.30332 0.44955 0.94177 0.0
N830 N 0.28426 0.40765 0.979 0.0
C831 C 0.26256 0.42034 0.96112 0.0
C832 C 0.27287 0.44314 0.94093 0.0
C833 C 0.55873 0.26016 0.9813 0.0
C834 C 0.55091 0.22966 0.97755 0.0
C835 C 0.54206 0.28302 0.96707 0.0
C836 C 0.51714 0.27624 0.94829 0.0
H837 H 0.5789 0.26642 0.994 0.0
H838 H 0.55019 0.30591 0.9691 0.0
S839 S 0.48297 0.20095 0.93631 0.0
N840 N 0.51314 0.19458 0.9578 0.0
N841 N 0.48229 0.23758 0.93059 0.0
C842 C 0.50726 0.24624 0.94665 0.0
C843 C 0.52399 0.22294 0.96145 0.0
C844 C 0.73577 0.58974 0.87769 0.0
C845 C 0.72508 0.56245 0.88965 0.0
C846 C 0.75263 0.60992 0.89504 0.0
C847 C 0.7597 0.60381 0.92523 0.0
H848 H 0.73091 0.59591 0.85465 0.0
H849 H 0.76002 0.63062 0.88452 0.0
S850 S 0.738 0.53505 0.96736 0.0
N851 N 0.72334 0.52996 0.93356 0.0
N852 N 0.75527 0.56803 0.96633 0.0
C853 C 0.74961 0.57639 0.93752 0.0
C854 C 0.73229 0.55569 0.91972 0.0
C855 C 0.49652 0.7864 0.06533 0.0
C856 C 0.50134 0.75518 0.06401 0.0
C857 C 0.51198 0.80593 0.04582 0.0
C858 C 0.53273 0.79486 0.02432 0.0
H859 H 0.48271 0.79607 0.08306 0.0
H860 H 0.5095 0.82987 0.04933 0.0
S861 S 0.54619 0.71462 0.00615 0.0
N862 N 0.52309 0.71385 0.03548 0.0
N863 N 0.55206 0.7505 0.99871 0.0
C864 C 0.53467 0.76357 0.02037 0.0
C865 C 0.519 0.74372 0.04027 0.0
C866 C 0.23942 0.58799 0.07635 0.0
C867 C 0.24345 0.61929 0.07887 0.0
C868 C 0.25714 0.56793 0.09354 0.0
C869 C 0.2793 0.5786 0.11382 0.0
H870 H 0.22186 0.57897 0.06173 0.0
H871 H 0.25272 0.54407 0.09172 0.0
S872 S 0.30216 0.65807 0.12511 0.0
N873 N 0.27375 0.65962 0.1007 0.0
N874 N 0.30674 0.62212 0.13286 0.0
C875 C 0.28459 0.6097 0.11532 0.0
C876 C 0.26673 0.63 0.09789 0.0
C877 C 0.73861 0.45041 0.06099 0.0
C878 C 0.74148 0.44876 0.09245 0.0
C879 C 0.75544 0.43108 0.04224 0.0
C880 C 0.77542 0.40952 0.05448 0.0
H881 H 0.72213 0.46556 0.05087 0.0
H882 H 0.75158 0.43195 0.01823 0.0
S883 S 0.79559 0.40027 0.13483 0.0
N884 N 0.76921 0.42686 0.13452 0.0
N885 N 0.80041 0.39055 0.09942 0.0
C886 C 0.78012 0.40925 0.08565 0.0
C887 C 0.76326 0.4289 0.10462 0.0
C888 C 0.98926 0.24813 0.27283 0.0
C889 C 0.98718 0.25874 0.30249 0.0
C890 C 0.98915 0.26796 0.24841 0.0
C891 C 0.98651 0.29917 0.25265 0.0
H892 H 0.9914 0.2243 0.2684 0.0
H893 H 0.99106 0.25869 0.22602 0.0
S894 S 0.97955 0.33842 0.32589 0.0
N895 N 0.9819 0.30251 0.33476 0.0
N896 N 0.98142 0.33975 0.28892 0.0
C897 C 0.98401 0.31008 0.28221 0.0
C898 C 0.98445 0.28989 0.3071 0.0
C899 C 0.75047 0.96579 0.24596 0.0
C900 C 0.75192 0.98598 0.27022 0.0
C901 C 0.7275 0.96808 0.22404 0.0
C902 C 0.70486 0.99059 0.22544 0.0
H903 H 0.76707 0.94781 0.24392 0.0
H904 H 0.72737 0.95176 0.20604 0.0
S905 S 0.69871 0.04977 0.28389 0.0
N906 N 0.72893 0.02983 0.2939 0.0
N907 N 0.68582 0.03404 0.25285 0.0
C908 C 0.70625 0.01125 0.24934 0.0
C909 C 0.72974 0.00898 0.27164 0.0
C910 C 0.00079 0.70955 0.28279 0.0
C911 C 0.9953 0.71571 0.2523 0.0
C912 C 0.00033 0.73238 0.30432 0.0
C913 C 0.99476 0.76245 0.29625 0.0
H914 H 0.0051 0.68678 0.29029 0.0
H915 H 0.00469 0.72633 0.32748 0.0
S916 S 0.9794 0.79069 0.21928 0.0
N917 N 0.98418 0.75415 0.21501 0.0
N918 N 0.9837 0.79724 0.25551 0.0
C919 C 0.98943 0.76905 0.26579 0.0
C920 C 0.98958 0.74566 0.24383 0.0
C921 C 0.27509 0.06853 0.26809 0.0
C922 C 0.25441 0.04465 0.27236 0.0
C923 C 0.29958 0.06623 0.24791 0.0
C924 C 0.30465 0.03989 0.23119 0.0
H925 H 0.27262 0.08919 0.28067 0.0
H926 H 0.31496 0.08521 0.24585 0.0
S927 S 0.25649 0.97115 0.23298 0.0
N928 N 0.24011 0.994 0.25733 0.0
N929 N 0.28621 0.98967 0.21949 0.0
C930 C 0.28385 0.01598 0.23477 0.0
C931 C 0.25874 0.01837 0.25528 0.0
C932 C 0.00675 0.7065 0.76452 0.0
C933 C 0.02749 0.68267 0.75993 0.0
C934 C 0.0035 0.72968 0.74341 0.0
C935 C 0.02098 0.7301 0.71689 0.0
H936 H 0.99299 0.70746 0.78473 0.0
H937 H 0.98749 0.74766 0.74818 0.0
S938 S 0.07699 0.67202 0.6929 0.0
N939 N 0.06472 0.66029 0.72591 0.0
N940 N 0.0587 0.70383 0.68644 0.0
C941 C 0.04142 0.70618 0.71171 0.0
C942 C 0.04464 0.68249 0.73314 0.0
C943 C 0.27925 0.0215 0.71155 0.0
C944 C 0.2604 0.99593 0.71345 0.0
C945 C 0.30371 0.0259 0.73144 0.0
C946 C 0.3106 0.00476 0.75393 0.0
H947 H 0.27524 0.03832 0.69441 0.0
H948 H 0.31762 0.04586 0.72877 0.0
S949 S 0.26784 0.93425 0.76913 0.0
N950 N 0.24989 0.94941 0.74022 0.0
N951 N 0.29598 0.95755 0.77749 0.0
C952 C 0.29173 0.97921 0.75638 0.0
C953 C 0.2666 0.97485 0.73623 0.0
C954 C 0.97424 0.25889 0.69761 0.0
C955 C 0.99822 0.23802 0.70107 0.0
C956 C 0.96995 0.28229 0.71813 0.0
C957 C 0.98945 0.28586 0.74303 0.0
H958 H 0.95871 0.25743 0.67869 0.0
H959 H 0.95132 0.29789 0.71415 0.0
S960 S 0.05508 0.23655 0.76317 0.0
N961 N 0.04128 0.22192 0.73194 0.0
N962 N 0.03323 0.2659 0.77052 0.0
C963 C 0.01325 0.26484 0.74713 0.0
C964 C 0.01763 0.24096 0.72617 0.0
C965 C 0.75523 0.0243 0.72021 0.0
C966 C 0.76951 0.99594 0.72049 0.0
C967 C 0.73078 0.03091 0.73951 0.0
C968 C 0.71969 0.00953 0.76009 0.0
H969 H 0.76251 0.04144 0.7045 0.0
H970 H 0.72028 0.0529 0.73795 0.0
S971 S 0.75046 0.93247 0.77127 0.0
N972 N 0.77168 0.94671 0.74412 0.0
N973 N 0.72591 0.95912 0.78047 0.0
C974 C 0.73437 0.98134 0.76125 0.0
C975 C 0.75917 0.97455 0.74144 0.0
C976 C 0.26028 0.26581 0.98764 0.0
C977 C 0.23245 0.25811 0.97359 0.0
C978 C 0.28546 0.24629 0.98738 0.0
C979 C 0.28406 0.21822 0.97292 0.0
H980 H 0.26276 0.28717 0.99899 0.0
H981 H 0.3063 0.25349 0.99845 0.0
S982 S 0.21644 0.18694 0.93305 0.0
N983 N 0.20492 0.22014 0.94503 0.0
N984 N 0.25226 0.18351 0.94446 0.0
C985 C 0.25634 0.2101 0.95888 0.0
C986 C 0.23058 0.22999 0.95924 0.0
C987 C 0.26446 0.73918 0.01543 0.0
C988 C 0.24189 0.73813 0.99283 0.0
C989 C 0.2892 0.75921 0.0137 0.0
C990 C 0.29226 0.77928 0.98947 0.0
H991 H 0.26336 0.72405 0.03445 0.0
H992 H 0.30602 0.75893 0.03159 0.0
S993 S 0.23876 0.78628 0.92486 0.0
N994 N 0.22387 0.75938 0.94574 0.0
N995 N 0.2701 0.79714 0.94253 0.0
C996 C 0.26959 0.77876 0.9669 0.0
C997 C 0.24452 0.75817 0.96856 0.0
C998 C 0.7773 0.2426 0.97264 0.0
C999 C 0.77162 0.27288 0.97992 0.0
C1000 C 0.75368 0.22119 0.97282 0.0
C1001 C 0.72345 0.22911 0.9805 0.0
H1002 H 0.80023 0.23523 0.96695 0.0
H1003 H 0.75933 0.19815 0.96733 0.0
S1004 S 0.69594 0.30567 -4e-05 0.0
N1005 N 0.73301 0.30982 0.99401 0.0
N1006 N 0.68889 0.26971 0.99443 0.0
C1007 C 0.71733 0.2594 0.98737 0.0
C1008 C 0.74131 0.28122 0.98704 0.0
C1009 C 0.73964 0.73778 0.97337 0.0
C1010 C 0.74152 0.7224 0.00094 0.0
C1011 C 0.71742 0.75999 0.96841 0.0
C1012 C 0.69636 0.76805 0.99091 0.0
H1013 H 0.75493 0.73211 0.95508 0.0
H1014 H 0.71665 0.77074 0.94661 0.0
S1015 S 0.6927 0.73587 0.06781 0.0
N1016 N 0.72116 0.71769 0.05152 0.0
N1017 N 0.6796 0.75958 0.04236 0.0
C1018 C 0.69856 0.75349 0.01894 0.0
C1019 C 0.72105 0.73065 0.02389 0.0
C1020 C 0.50032 0.75334 0.78989 0.0
C1021 C 0.48323 0.7588 0.81611 0.0
C1022 C 0.50385 0.77548 0.7678 0.0
C1023 C 0.49056 0.80412 0.77101 0.0
H1024 H 0.51085 0.73163 0.78614 0.0
H1025 H 0.51706 0.76996 0.74798 0.0
S1026 S 0.44491 0.83049 0.83633 0.0
N1027 N 0.45371 0.79538 0.84456 0.0
N1028 N 0.46039 0.83703 0.80318 0.0
C1029 C 0.47372 0.81005 0.79735 0.0
C1030 C 0.47005 0.78741 0.81983 0.0
C1031 C 0.23745 0.5092 0.77289 0.0
C1032 C 0.25896 0.48559 0.77324 0.0
C1033 C 0.21353 0.50995 0.75179 0.0
C1034 C 0.20984 0.4868 0.73062 0.0
H1035 H 0.23906 0.52728 0.78907 0.0
H1036 H 0.19737 0.52842 0.75256 0.0
S1037 S 0.26026 0.42028 0.72143 0.0
N1038 N 0.27534 0.43888 0.74987 0.0
N1039 N 0.23018 0.44007 0.71069 0.0
C1040 C 0.23131 0.46323 0.73052 0.0
C1041 C 0.25593 0.4627 0.75166 0.0
C1042 C 0.45434 0.21905 0.80606 0.0
C1043 C 0.47194 0.2455 0.80463 0.0
C1044 C 0.45287 0.19915 0.78176 0.0
C1045 C 0.4691 0.20472 0.75505 0.0
H1046 H 0.4415 0.21358 0.82613 0.0
H1047 H 0.43904 0.17908 0.78412 0.0
S1048 S 0.51851 0.27087 0.7396 0.0
N1049 N 0.5059 0.27628 0.77408 0.0
N1050 N 0.50322 0.23886 0.72852 0.0
C1051 C 0.4868 0.23111 0.75325 0.0
C1052 C 0.48817 0.25149 0.77797 0.0
C1053 C 0.78547 0.47545 0.75976 0.0
C1054 C 0.77747 0.49076 0.73322 0.0
C1055 C 0.76495 0.47299 0.78377 0.0
C1056 C 0.73547 0.48577 0.78243 0.0
H1057 H 0.80798 0.46549 0.7623 0.0
H1058 H 0.7726 0.46135 0.80377 0.0
S1059 S 0.70247 0.5271 0.71753 0.0
N1060 N 0.73742 0.51803 0.70661 0.0
N1061 N 0.69884 0.51345 0.75179 0.0
C1062 C 0.72679 0.50053 0.75575 0.0
C1063 C 0.74776 0.50301 0.73118 0.0
C1064 C 0.54488 0.21717 0.23216 0.0
C1065 C 0.52231 0.21425 0.2545 0.0
C1066 C 0.5415 0.23758 0.20846 0.0
C1067 C 0.51537 0.256 0.20594 0.0
H1068 H 0.56542 0.20352 0.23281 0.0
H1069 H 0.55962 0.23874 0.1919 0.0
S1070 S 0.44947 0.25738 0.25865 0.0
N1071 N 0.4728 0.23177 0.27269 0.0
N1072 N 0.46648 0.27012 0.22811 0.0
C1073 C 0.49261 0.25348 0.2282 0.0
C1074 C 0.49608 0.23266 0.25245 0.0
C1075 C 0.76938 0.5248 0.24688 0.0
C1076 C 0.77222 0.49551 0.25855 0.0
C1077 C 0.7492 0.53122 0.22325 0.0
C1078 C 0.73066 0.50875 0.21058 0.0
H1079 H 0.78369 0.54281 0.25527 0.0
H1080 H 0.7486 0.55391 0.21446 0.0
S1081 S 0.7274 0.42887 0.2346 0.0
N1082 N 0.75338 0.44415 0.25676 0.0
N1083 N 0.71518 0.45624 0.21264 0.0
C1084 C 0.73219 0.47963 0.22295 0.0
C1085 C 0.75304 0.47301 0.24681 0.0
C1086 C 0.53848 0.79627 0.19195 0.0
C1087 C 0.52089 0.76986 0.194 0.0
C1088 C 0.53793 0.81797 0.21472 0.0
C1089 C 0.5198 0.81421 0.24059 0.0
H1090 H 0.55283 0.80037 0.17255 0.0
H1091 H 0.5519 0.83787 0.21192 0.0
S1092 S 0.46955 0.7489 0.25714 0.0
N1093 N 0.4848 0.74111 0.22418 0.0
N1094 N 0.48378 0.78179 0.26691 0.0
C1095 C 0.50206 0.78788 0.24296 0.0
C1096 C 0.50259 0.76577 0.21972 0.0
C1097 C 0.2611 0.52128 0.24241 0.0
C1098 C 0.25988 0.49792 0.22117 0.0
C1099 C 0.23796 0.52494 0.26395 0.0
C1100 C 0.21268 0.50535 0.26514 0.0
H1101 H 0.27959 0.53749 0.24189 0.0
H1102 H 0.23957 0.54374 0.27927 0.0
S1103 S 0.20035 0.4385 0.21668 0.0
N1104 N 0.2325 0.45346 0.20422 0.0
N1105 N 0.18915 0.46022 0.24458 0.0
C1106 C 0.21187 0.48111 0.24482 0.0
C1107 C 0.23541 0.47743 0.2229 0.0
C1108 C 0.76736 0.7346 0.48015 0.0
C1109 C 0.79171 0.73012 0.50042 0.0
C1110 C 0.74576 0.7575 0.48453 0.0
C1111 C 0.74768 0.77707 0.50926 0.0
H1112 H 0.7651 0.72055 0.46044 0.0
H1113 H 0.72785 0.7603 0.46791 0.0
S1114 S 0.80605 0.77399 0.56994 0.0
N1115 N 0.81567 0.7465 0.54699 0.0
N1116 N 0.77519 0.78952 0.55513 0.0
C1117 C 0.77143 0.77237 0.53017 0.0
C1118 C 0.79338 0.74892 0.52579 0.0
C1119 C 0.76766 0.21066 0.46308 0.0
C1120 C 0.75097 0.20561 0.48963 0.0
C1121 C 0.78831 0.23459 0.46058 0.0
C1122 C 0.79322 0.25465 0.4845 0.0
H1123 H 0.76497 0.19588 0.44396 0.0
H1124 H 0.80065 0.23719 0.43966 0.0
S1125 S 0.75489 0.2519 0.55889 0.0
N1126 N 0.74046 0.2231 0.54036 0.0
N1127 N 0.77927 0.26808 0.53566 0.0
C1128 C 0.77648 0.25013 0.51115 0.0
C1129 C 0.7554 0.22565 0.51372 0.0
C1130 C 0.26217 0.74981 0.51756 0.0
C1131 C 0.26796 0.76406 0.48993 0.0
C1132 C 0.23647 0.73138 0.52152 0.0
C1133 C 0.21576 0.72608 0.4979 0.0
H1134 H 0.2768 0.75398 0.53677 0.0
H1135 H 0.23248 0.72176 0.54351 0.0
S1136 S 0.22224 0.75567 0.42021 0.0
N1137 N 0.25205 0.77 0.43798 0.0
N1138 N 0.20401 0.73494 0.44521 0.0
C1139 C 0.22217 0.73889 0.46968 0.0
C1140 C 0.24816 0.758 0.46577 0.0
C1141 C 0.22604 0.27336 0.44396 0.0
C1142 C 0.21096 0.28034 0.47096 0.0
C1143 C 0.24999 0.25241 0.44317 0.0
C1144 C 0.25962 0.2373 0.46929 0.0
H1145 H 0.21904 0.28384 0.42311 0.0
H1146 H 0.26039 0.24744 0.42168 0.0
S1147 S 0.22884 0.24865 0.54614 0.0
N1148 N 0.20839 0.27145 0.52484 0.0
N1149 N 0.25321 0.23192 0.52328 0.0
C1150 C 0.24536 0.24469 0.49664 0.0
C1151 C 0.22112 0.26625 0.49749 0.0
C1152 C 0.10729 0.33917 0.10926 0.0
C1153 C 0.07915 0.324 0.11205 0.0
C1154 C 0.12546 0.33603 0.08355 0.0
C1155 C 0.11641 0.31733 0.05968 0.0
H1156 H 0.11497 0.35443 0.12662 0.0
H1157 H 0.14654 0.34879 0.08221 0.0
S1158 S 0.04592 0.27063 0.05696 0.0
N1159 N 0.04395 0.28815 0.08953 0.0
N1160 N 0.07815 0.28203 0.0413 0.0
C1161 C 0.08893 0.30102 0.06271 0.0
C1162 C 0.07029 0.30443 0.08884 0.0
C1163 C 0.6305 0.09595 0.10535 0.0
C1164 C 0.65749 0.08407 0.11804 0.0
C1165 C 0.63157 0.11791 0.08284 0.0
C1166 C 0.65969 0.12867 0.07179 0.0
H1167 H 0.60823 0.08811 0.11271 0.0
H1168 H 0.61013 0.12587 0.07348 0.0
S1169 S 0.73705 0.10604 0.09832 0.0
N1170 N 0.71323 0.08565 0.11864 0.0
N1171 N 0.71525 0.1267 0.07613 0.0
C1172 C 0.68688 0.11749 0.08469 0.0
C1173 C 0.68578 0.0953 0.10786 0.0
C1174 C 0.89984 0.62829 0.08946 0.0
C1175 C 0.90978 0.6509 0.10925 0.0
C1176 C 0.87687 0.63383 0.06815 0.0
C1177 C 0.86319 0.66233 0.06548 0.0
H1178 H 0.91015 0.60616 0.09009 0.0
H1179 H 0.87066 0.61588 0.05291 0.0
S1180 S 0.87935 0.72874 0.11319 0.0
N1181 N 0.90279 0.70252 0.1259 0.0
N1182 N 0.85993 0.71297 0.08558 0.0
C1183 C 0.87218 0.68489 0.08572 0.0
C1184 C 0.89536 0.67917 0.10767 0.0
C1185 C 0.32677 0.90138 0.08288 0.0
C1186 C 0.35444 0.88717 0.07489 0.0
C1187 C 0.32597 0.92416 0.10454 0.0
C1188 C 0.35284 0.93389 0.119 0.0
H1189 H 0.30548 0.89526 0.07197 0.0
H1190 H 0.30416 0.93473 0.10938 0.0
S1191 S 0.43098 0.90251 0.10804 0.0
N1192 N 0.40923 0.88336 0.08456 0.0
N1193 N 0.40775 0.92625 0.12514 0.0
C1194 C 0.38057 0.91925 0.11196 0.0
C1195 C 0.38136 0.89588 0.09 0.0
C1196 C 0.09264 0.59569 0.92634 0.0
C1197 C 0.08559 0.61881 0.90589 0.0
C1198 C 0.11419 0.59985 0.94926 0.0
C1199 C 0.12971 0.62731 0.95277 0.0
H1200 H 0.08102 0.57425 0.92509 0.0
H1201 H 0.11816 0.58148 0.96473 0.0
S1202 S 0.12152 0.69437 0.90368 0.0
N1203 N 0.09725 0.66971 0.88958 0.0
N1204 N 0.1378 0.67755 0.93261 0.0
C1205 C 0.12371 0.65034 0.93184 0.0
C1206 C 0.10165 0.64611 0.90846 0.0
C1207 C 0.36258 0.0659 0.89584 0.0
C1208 C 0.37962 0.07505 0.87065 0.0
C1209 C 0.35904 0.08461 0.9208 0.0
C1210 C 0.37239 0.11335 0.92175 0.0
H1211 H 0.35208 0.04387 0.89657 0.0
H1212 H 0.34591 0.0762 0.93963 0.0
S1213 S 0.41842 0.14874 0.86117 0.0
N1214 N 0.40936 0.11533 0.84784 0.0
N1215 N 0.40272 0.1505 0.89482 0.0
C1216 C 0.38906 0.12313 0.8965 0.0
C1217 C 0.39266 0.10401 0.87097 0.0
C1218 C 0.89444 0.37972 0.91588 0.0
C1219 C 0.87136 0.35866 0.90918 0.0
C1220 C 0.92002 0.38333 0.89728 0.0
C1221 C 0.92373 0.36604 0.87112 0.0
H1222 H 0.89326 0.39311 0.93613 0.0
H1223 H 0.93737 0.39936 0.90398 0.0
S1224 S 0.86855 0.30975 0.84173 0.0
N1225 N 0.85288 0.32169 0.87325 0.0
N1226 N 0.90098 0.3285 0.83827 0.0
C1227 C 0.90023 0.34578 0.86339 0.0
C1228 C 0.87406 0.34211 0.88238 0.0
C1229 C 0.67752 0.90564 0.92831 0.0
C1230 C 0.64966 0.89013 0.93193 0.0
C1231 C 0.68105 0.92777 0.90625 0.0
C1232 C 0.6568 0.93557 0.88696 0.0
H1233 H 0.69682 0.90094 0.94288 0.0
H1234 H 0.7029 0.93921 0.90476 0.0
S1235 S 0.57939 0.90079 0.88604 0.0
N1236 N 0.5976 0.88338 0.91351 0.0
N1237 N 0.60414 0.9251 0.87211 0.0
C1238 C 0.62894 0.91981 0.88983 0.0
C1239 C 0.62541 0.89705 0.91224 0.0
C1240 C 0.1285 0.13873 0.34645 0.0
C1241 C 0.12436 0.10783 0.34117 0.0
C1242 C 0.10336 0.15811 0.34986 0.0
C1243 C 0.07313 0.14723 0.34873 0.0
H1244 H 0.15136 0.14808 0.34799 0.0
H1245 H 0.10768 0.18173 0.35386 0.0
S1246 S 0.0497 0.06822 0.33496 0.0
N1247 N 0.08751 0.06735 0.33443 0.0
N1248 N 0.04043 0.10359 0.34126 0.0
C1249 C 0.06864 0.11639 0.34332 0.0
C1250 C 0.09419 0.09676 0.33939 0.0
C1251 C 0.87746 0.115 0.37544 0.0
C1252 C 0.90177 0.1227 0.35619 0.0
C1253 C 0.85907 0.08978 0.36985 0.0
C1254 C 0.86408 0.07136 0.34463 0.0
H1255 H 0.87295 0.12814 0.39541 0.0
H1256 H 0.84099 0.08455 0.38565 0.0
S1257 S 0.92358 0.08293 0.2861 0.0
N1258 N 0.92898 0.11064 0.31007 0.0
N1259 N 0.89448 0.06347 0.29949 0.0
C1260 C 0.8878 0.07931 0.32473 0.0
C1261 C 0.90662 0.10488 0.33052 0.0
C1262 C 0.88954 0.92581 0.35292 0.0
C1263 C 0.85934 0.91491 0.35078 0.0
C1264 C 0.91474 0.90628 0.35313 0.0
C1265 C 0.9109 0.87498 0.35081 0.0
H1266 H 0.89386 0.94971 0.35462 0.0
H1267 H 0.93747 0.91595 0.35454 0.0
S1268 S 0.83661 0.83475 0.34519 0.0
N1269 N 0.82701 0.87058 0.34684 0.0
N1270 N 0.8744 0.8339 0.34684 0.0
C1271 C 0.88083 0.86369 0.34884 0.0
C1272 C 0.85508 0.88362 0.34894 0.0
C1273 C 0.11655 0.9444 0.35565 0.0
C1274 C 0.11695 0.9575 0.3269 0.0
C1275 C 0.09543 0.92196 0.36307 0.0
C1276 C 0.07393 0.91143 0.34201 0.0
H1277 H 0.13223 0.95198 0.37291 0.0
H1278 H 0.0959 0.91298 0.38566 0.0
S1279 S 0.06645 0.937 0.26299 0.0
N1280 N 0.09472 0.95738 0.27679 0.0
N1281 N 0.05511 0.91505 0.2907 0.0
C1282 C 0.07458 0.9237 0.31289 0.0
C1283 C 0.09603 0.94675 0.30536 0.0
C1284 C 0.08014 0.87358 0.66579 0.0
C1285 C 0.07416 0.85482 0.69051 0.0
C1286 C 0.10421 0.89435 0.6663 0.0
C1287 C 0.12356 0.8972 0.69147 0.0
H1288 H 0.06587 0.87257 0.64592 0.0
H1289 H 0.10762 0.90825 0.64663 0.0
S1290 S 0.11835 0.85271 0.7618 0.0
N1291 N 0.09003 0.84 0.74078 0.0
N1292 N 0.13535 0.87898 0.74167 0.0
C1293 C 0.1181 0.87834 0.71627 0.0
C1294 C 0.09343 0.85721 0.7158 0.0
C1295 C 0.11813 0.06059 0.68099 0.0
C1296 C 0.13537 0.04593 0.65866 0.0
C1297 C 0.09912 0.08498 0.67405 0.0
C1298 C 0.09642 0.0957 0.64446 0.0
H1299 H 0.11882 0.05289 0.70404 0.0
H1300 H 0.0859 0.09503 0.692 0.0
S1301 S 0.13853 0.06687 0.578 0.0
N1302 N 0.14987 0.04515 0.60591 0.0
N1303 N 0.1141 0.09093 0.59287 0.0
C1304 C 0.11426 0.0819 0.62202 0.0
C1305 C 0.13374 0.05708 0.62911 0.0
C1306 C 0.93126 0.11331 0.6914 0.0
C1307 C 0.94872 0.11657 0.66503 0.0
C1308 C 0.90599 0.09397 0.69251 0.0
C1309 C 0.89746 0.0768 0.66743 0.0
H1310 H 0.9373 0.12558 0.71153 0.0
H1311 H 0.89357 0.0919 0.71346 0.0
S1312 S 0.93441 0.07837 0.59235 0.0
N1313 N 0.95475 0.10203 0.61274 0.0
N1314 N 0.90744 0.06546 0.61488 0.0
C1315 C 0.91423 0.08038 0.64065 0.0
C1316 C 0.93977 0.10035 0.63942 0.0
C1317 C 0.93833 0.90838 0.70742 0.0
C1318 C 0.93557 0.88241 0.68967 0.0
C1319 C 0.91793 0.93249 0.70429 0.0
C1320 C 0.89397 0.93179 0.68312 0.0
H1321 H 0.9569 0.91055 0.72342 0.0
H1322 H 0.92167 0.95221 0.71802 0.0
S1323 S 0.87473 0.86794 0.63303 0.0
N1324 N 0.90538 0.85658 0.65158 0.0
N1325 N 0.86722 0.90201 0.64563 0.0
C1326 C 0.89008 0.90549 0.66607 0.0
C1327 C 0.91078 0.88078 0.66939 0.0
C1328 C 0.32852 0.08686 0.09663 0.0
C1329 C 0.35655 0.07791 0.10953 0.0
C1330 C 0.32726 0.10906 0.07439 0.0
C1331 C 0.35401 0.12317 0.06385 0.0
H1332 H 0.30722 0.07647 0.10355 0.0
H1333 H 0.30509 0.11474 0.06502 0.0
S1334 S 0.43322 0.10904 0.0911 0.0
N1335 N 0.41173 0.08577 0.11082 0.0
N1336 N 0.4094 0.12741 0.06888 0.0
C1337 C 0.38221 0.11491 0.07692 0.0
C1338 C 0.38347 0.09236 0.09979 0.0
C1339 C 0.39923 0.90644 0.87948 0.0
C1340 C 0.37269 0.92444 0.87931 0.0
C1341 C 0.4034 0.8838 0.901 0.0
C1342 C 0.38132 0.87844 0.92339 0.0
H1343 H 0.41718 0.91003 0.86307 0.0
H1344 H 0.42443 0.87087 0.90042 0.0
S1345 S 0.30679 0.91788 0.93179 0.0
N1346 N 0.32321 0.93423 0.90271 0.0
N1347 N 0.33119 0.89193 0.94313 0.0
C1348 C 0.35433 0.89575 0.92306 0.0
C1349 C 0.34997 0.91865 0.90103 0.0
C1350 C 0.11307 0.33986 0.85119 0.0
C1351 C 0.08186 0.34323 0.85836 0.0
C1352 C 0.13532 0.33681 0.8737 0.0
C1353 C 0.1272 0.33653 0.90426 0.0
H1354 H 0.12048 0.33991 0.82799 0.0
H1355 H 0.1591 0.3347 0.86703 0.0
S1356 S 0.04837 0.34355 0.93499 0.0
N1357 N 0.04386 0.34551 0.89827 0.0
N1358 N 0.08554 0.33943 0.9405 0.0
C1359 C 0.09598 0.33938 0.91175 0.0
C1360 C 0.07337 0.34288 0.88884 0.0
C1361 C 0.62233 0.10283 0.93032 0.0
C1362 C 0.6344 0.12967 0.91853 0.0
C1363 C 0.61999 0.07684 0.91283 0.0
C1364 C 0.62986 0.07637 0.88278 0.0
H1365 H 0.61459 0.10174 0.9534 0.0
H1366 H 0.61076 0.05682 0.92325 0.0
S1367 S 0.66259 0.14085 0.84071 0.0
N1368 N 0.65579 0.15436 0.87456 0.0
N1369 N 0.65161 0.10539 0.84167 0.0
C1370 C 0.64167 0.10313 0.87048 0.0
C1371 C 0.64385 0.12977 0.88832 0.0
C1372 C 0.92432 0.66777 0.90083 0.0
C1373 C 0.93961 0.64167 0.89121 0.0
C1374 C 0.89892 0.66617 0.91998 0.0
C1375 C 0.88787 0.63841 0.93047 0.0
H1376 H 0.93202 0.68974 0.89362 0.0
H1377 H 0.88811 0.68697 0.92683 0.0
S1378 S 0.91933 0.56322 0.91148 0.0
N1379 N 0.94149 0.58705 0.89327 0.0
N1380 N 0.89388 0.58405 0.92928 0.0
C1381 C 0.90276 0.61206 0.92081 0.0
C1382 C 0.92856 0.61368 0.90118 0.0
C1383 C 0.63845 0.93751 0.08426 0.0
C1384 C 0.62462 0.94054 0.11259 0.0
C1385 C 0.63436 0.91167 0.06693 0.0
C1386 C 0.61636 0.88753 0.07715 0.0
H1387 H 0.65251 0.95533 0.0751 0.0
H1388 H 0.64556 0.91074 0.04526 0.0
S1389 S 0.57522 0.88383 0.15003 0.0
N1390 N 0.5922 0.91697 0.15033 0.0
N1391 N 0.58459 0.86822 0.1177 0.0
C1392 C 0.60249 0.89005 0.10558 0.0
C1393 C 0.60657 0.91657 0.12328 0.0
C1394 C 0.06864 0.64064 0.11966 0.0
C1395 C 0.05589 0.66933 0.1241 0.0
C1396 C 0.09459 0.63649 0.10163 0.0
C1397 C 0.10902 0.66084 0.08723 0.0
H1398 H 0.05835 0.62104 0.12994 0.0
H1399 H 0.10318 0.61384 0.09879 0.0
S1400 S 0.08551 0.74086 0.09236 0.0
N1401 N 0.06028 0.72275 0.11318 0.0
N1402 N 0.10902 0.71492 0.07932 0.0
C1403 C 0.09685 0.68976 0.09184 0.0
C1404 C 0.07033 0.69401 0.11022 0.0
C1405 C 0.91067 0.29628 0.10202 0.0
C1406 C 0.92252 0.32306 0.11425 0.0
C1407 C 0.88788 0.29677 0.07984 0.0
C1408 C 0.87636 0.32406 0.06877 0.0
H1409 H 0.91945 0.27467 0.10916 0.0
H1410 H 0.87993 0.27564 0.07066 0.0
S1411 S 0.89683 0.40039 0.09549 0.0
N1412 N 0.91889 0.37764 0.11526 0.0
N1413 N 0.87634 0.37848 0.07339 0.0
C1414 C 0.88705 0.35097 0.08155 0.0
C1415 C 0.91002 0.3505 0.10436 0.0
C1416 C 0.61883 0.8661 0.58152 0.0
C1417 C 0.62662 0.83616 0.57486 0.0
C1418 C 0.59875 0.87312 0.60498 0.0
C1419 C 0.58567 0.85055 0.62299 0.0
H1420 H 0.62774 0.88439 0.56807 0.0
H1421 H 0.59316 0.89653 0.6087 0.0
S1422 S 0.60014 0.76861 0.61636 0.0
N1423 N 0.62079 0.78372 0.58925 0.0
N1424 N 0.5831 0.79694 0.63343 0.0
C1425 C 0.594 0.82052 0.61727 0.0
C1426 C 0.61441 0.81334 0.59321 0.0
C1427 C 0.18115 0.5872 0.59261 0.0
C1428 C 0.15609 0.58257 0.61187 0.0
C1429 C 0.17897 0.60653 0.5679 0.0
C1430 C 0.15178 0.62239 0.56157 0.0
H1431 H 0.20238 0.57503 0.59598 0.0
H1432 H 0.19876 0.60868 0.55339 0.0
S1433 S 0.08039 0.62047 0.60685 0.0
N1434 N 0.10376 0.59695 0.62417 0.0
N1435 N 0.0998 0.63362 0.57787 0.0
C1436 C 0.12693 0.61903 0.58142 0.0
C1437 C 0.12904 0.59902 0.60648 0.0
C1438 C 0.38284 0.18536 0.57903 0.0
C1439 C 0.36628 0.16222 0.56489 0.0
C1440 C 0.40382 0.17919 0.60203 0.0
C1441 C 0.40923 0.14959 0.61175 0.0
H1442 H 0.38028 0.20845 0.57176 0.0
H1443 H 0.41666 0.19772 0.61149 0.0
S1444 S 0.36921 0.08118 0.58471 0.0
N1445 N 0.35481 0.10869 0.56424 0.0
N1446 N 0.3943 0.09714 0.60737 0.0
C1447 C 0.39178 0.12636 0.59886 0.0
C1448 C 0.3703 0.13266 0.57549 0.0
C1449 C 0.86406 0.39416 0.58219 0.0
C1450 C 0.85586 0.36397 0.58708 0.0
C1451 C 0.86495 0.41492 0.60579 0.0
C1452 C 0.85789 0.40643 0.63543 0.0
H1453 H 0.86947 0.40208 0.55982 0.0
H1454 H 0.8712 0.43788 0.60062 0.0
S1455 S 0.8359 0.32989 0.66065 0.0
N1456 N 0.84113 0.32647 0.62413 0.0
N1457 N 0.84295 0.36545 0.66848 0.0
C1458 C 0.85013 0.3762 0.64081 0.0
C1459 C 0.84906 0.35502 0.61668 0.0
C1460 C 0.59112 0.17362 0.40568 0.0
C1461 C 0.58289 0.14505 0.39492 0.0
C1462 C 0.61344 0.177 0.42807 0.0
C1463 C 0.62857 0.15196 0.44056 0.0
H1464 H 0.57967 0.19354 0.39734 0.0
H1465 H 0.61833 0.19945 0.43607 0.0
S1466 S 0.61772 0.0724 0.41785 0.0
N1467 N 0.59329 0.09137 0.39684 0.0
N1468 N 0.63521 0.0977 0.43879 0.0
C1469 C 0.62143 0.12333 0.42912 0.0
C1470 C 0.59861 0.11989 0.40638 0.0
C1471 C 0.86867 0.60829 0.38121 0.0
C1472 C 0.85346 0.58048 0.3793 0.0
C1473 C 0.86824 0.62525 0.40776 0.0
C1474 C 0.85226 0.61524 0.43332 0.0
H1475 H 0.88146 0.61684 0.36221 0.0
H1476 H 0.88056 0.64636 0.40823 0.0
S1477 S 0.80789 0.54428 0.43972 0.0
N1478 N 0.82142 0.544 0.40517 0.0
N1479 N 0.82045 0.57577 0.4548 0.0
C1480 C 0.83656 0.58766 0.43154 0.0
C1481 C 0.83721 0.57032 0.40463 0.0
C1482 C 0.41416 0.81804 0.42169 0.0
C1483 C 0.39229 0.83671 0.43552 0.0
C1484 C 0.43278 0.82858 0.39836 0.0
C1485 C 0.43045 0.85832 0.3879 0.0
H1486 H 0.41738 0.79512 0.42923 0.0
H1487 H 0.44961 0.81339 0.38893 0.0
S1488 S 0.37527 0.91586 0.41488 0.0
N1489 N 0.36822 0.88607 0.43582 0.0
N1490 N 0.40325 0.90589 0.39205 0.0
C1491 C 0.40805 0.87704 0.40088 0.0
C1492 C 0.38897 0.86625 0.42462 0.0
C1493 C 0.17085 0.44129 0.40293 0.0
C1494 C 0.14648 0.44253 0.3823 0.0
C1495 C 0.17147 0.41991 0.42593 0.0
C1496 C 0.14775 0.39877 0.42938 0.0
H1497 H 0.18963 0.45712 0.40154 0.0
H1498 H 0.19072 0.42023 0.44128 0.0
S1499 S 0.079 0.39164 0.38074 0.0
N1500 N 0.09819 0.42016 0.36637 0.0
N1501 N 0.0994 0.37995 0.40969 0.0
C1502 C 0.12336 0.39942 0.4087 0.0
C1503 C 0.12271 0.42128 0.38518 0.0
C1504 C 0.59065 0.57764 0.85512 0.0
C1505 C 0.60173 0.56948 0.82658 0.0
C1506 C 0.56876 0.60039 0.85858 0.0
C1507 C 0.55673 0.61575 0.83362 0.0
H1508 H 0.59912 0.56656 0.87513 0.0
H1509 H 0.56095 0.60567 0.88103 0.0
S1510 S 0.5781 0.60313 0.75391 0.0
N1511 N 0.59911 0.57877 0.77284 0.0
N1512 N 0.55777 0.62137 0.77927 0.0
C1513 C 0.56758 0.60786 0.8049 0.0
C1514 C 0.59011 0.58481 0.80141 0.0
C1515 C 0.39613 0.60282 0.88668 0.0
C1516 C 0.41364 0.61762 0.86468 0.0
C1517 C 0.37452 0.58092 0.87892 0.0
C1518 C 0.36958 0.5727 0.84879 0.0
H1519 H 0.39952 0.60768 0.91027 0.0
H1520 H 0.36228 0.56972 0.89686 0.0
S1521 S 0.40751 0.60648 0.78225 0.0
N1522 N 0.42309 0.62388 0.81117 0.0
N1523 N 0.38256 0.58264 0.79661 0.0
C1524 C 0.38604 0.58814 0.82642 0.0
C1525 C 0.40801 0.61061 0.83434 0.0
C1526 C 0.35279 0.38318 0.84318 0.0
C1527 C 0.3603 0.41312 0.85008 0.0
C1528 C 0.37487 0.36031 0.84457 0.0
C1529 C 0.40515 0.36638 0.85356 0.0
H1530 H 0.32968 0.37737 0.83643 0.0
H1531 H 0.36807 0.33765 0.83877 0.0
S1532 S 0.43653 0.44104 0.87441 0.0
N1533 N 0.40022 0.44761 0.86628 0.0
N1534 N 0.44154 0.40465 0.8694 0.0
C1535 C 0.41293 0.39621 0.86076 0.0
C1536 C 0.39057 0.41957 0.85884 0.0
C1537 C 0.56686 0.39045 0.83855 0.0
C1538 C 0.5737 0.37093 0.8625 0.0
C1539 C 0.58542 0.4152 0.83204 0.0
C1540 C 0.61156 0.4218 0.84932 0.0
H1541 H 0.54677 0.38678 0.82473 0.0
H1542 H 0.57871 0.42961 0.81357 0.0
S1543 S 0.64047 0.37717 0.91386 0.0
N1544 N 0.60919 0.35932 0.90305 0.0
N1545 N 0.64403 0.4061 0.89091 0.0
C1546 C 0.61913 0.40218 0.87301 0.0
C1547 C 0.60026 0.3767 0.87954 0.0
C1548 C 0.581 0.39574 0.10713 0.0
C1549 C 0.57054 0.37624 0.12973 0.0
C1550 C 0.60208 0.41857 0.11353 0.0
C1551 C 0.61386 0.42254 0.14269 0.0
H1552 H 0.57227 0.39389 0.08444 0.0
H1553 H 0.60921 0.43318 0.09539 0.0
S1554 S 0.59493 0.37639 0.20958 0.0
N1555 N 0.57425 0.36171 0.18226 0.0
N1556 N 0.61409 0.4044 0.19423 0.0
C1557 C 0.60413 0.40273 0.16537 0.0
C1558 C 0.58241 0.37966 0.15891 0.0
C1559 C 0.61243 0.58831 0.11154 0.0
C1560 C 0.62091 0.58059 0.14103 0.0
C1561 C 0.59194 0.61193 0.10584 0.0
C1562 C 0.57925 0.62898 0.12937 0.0
H1563 H 0.62079 0.57536 0.09268 0.0
H1564 H 0.58548 0.61632 0.08278 0.0
S1565 S 0.59678 0.62004 0.21053 0.0
N1566 N 0.61695 0.59345 0.19394 0.0
N1567 N 0.57866 0.63786 0.1833 0.0
C1568 C 0.58874 0.62244 0.1589 0.0
C1569 C 0.60948 0.59826 0.1647 0.0
C1570 C 0.43744 0.61602 0.19742 0.0
C1571 C 0.44129 0.63009 0.16932 0.0
C1572 C 0.41549 0.59343 0.20168 0.0
C1573 C 0.39679 0.58376 0.17793 0.0
H1574 H 0.45164 0.62229 0.21635 0.0
H1575 H 0.41359 0.5831 0.22362 0.0
S1576 S 0.39587 0.6147 0.10048 0.0
N1577 N 0.42316 0.63367 0.11774 0.0
N1578 N 0.38216 0.59114 0.12571 0.0
C1579 C 0.39988 0.59802 0.14987 0.0
C1580 C 0.42203 0.6212 0.14558 0.0
C1581 C 0.43397 0.42094 0.1048 0.0
C1582 C 0.43125 0.39584 0.12383 0.0
C1583 C 0.41285 0.44457 0.10578 0.0
C1584 C 0.38805 0.44429 0.12593 0.0
H1585 H 0.45302 0.4228 0.08933 0.0
H1586 H 0.41666 0.46364 0.09115 0.0
S1587 S 0.36875 0.38253 0.17877 0.0
N1588 N 0.40044 0.37112 0.16205 0.0
N1589 N 0.36068 0.41562 0.16399 0.0
C1590 C 0.38416 0.4187 0.14419 0.0
C1591 C 0.40574 0.39448 0.14312 0.0
C1592 C 0.87706 0.55992 0.58864 0.0
C1593 C 0.87006 0.56047 0.61944 0.0
C1594 C 0.87511 0.58586 0.57104 0.0
C1595 C 0.86637 0.61361 0.58349 0.0
H1596 H 0.88398 0.53922 0.57783 0.0
H1597 H 0.88086 0.58407 0.54746 0.0
S1598 S 0.84551 0.62728 0.66309 0.0
N1599 N 0.85379 0.59113 0.66174 0.0
N1600 N 0.85039 0.64005 0.62863 0.0
C1601 C 0.85926 0.61457 0.61429 0.0
C1602 C 0.86101 0.58798 0.63224 0.0
C1603 C 0.82386 0.42613 0.40285 0.0
C1604 C 0.84084 0.42997 0.37625 0.0
C1605 C 0.82935 0.40193 0.42223 0.0
C1606 C 0.85201 0.38034 0.41589 0.0
H1607 H 0.80654 0.44234 0.40925 0.0
H1608 H 0.81595 0.4005 0.44263 0.0
S1609 S 0.90159 0.37876 0.34809 0.0
N1610 N 0.88036 0.40916 0.34381 0.0
N1611 N 0.89065 0.36362 0.38016 0.0
C1612 C 0.86853 0.38329 0.38885 0.0
C1613 C 0.86297 0.40807 0.3691 0.0
C1614 C 0.58371 0.8625 0.39199 0.0
C1615 C 0.58676 0.8479 0.36417 0.0
C1616 C 0.60629 0.85985 0.41423 0.0
C1617 C 0.6331 0.84293 0.40935 0.0
H1618 H 0.56326 0.87535 0.39706 0.0
H1619 H 0.60264 0.87115 0.43545 0.0
S1620 S 0.65304 0.8018 0.3396 0.0
N1621 N 0.61917 0.81679 0.33251 0.0
N1622 N 0.66191 0.81227 0.37407 0.0
C1623 C 0.6369 0.82899 0.38127 0.0
C1624 C 0.61366 0.83132 0.35876 0.0
C1625 C 0.10695 0.5996 0.41926 0.0
C1626 C 0.12683 0.62286 0.4104 0.0
C1627 C 0.10109 0.57502 0.40055 0.0
C1628 C 0.11487 0.57252 0.37212 0.0
H1629 H 0.09597 0.6001 0.44106 0.0
H1630 H 0.08598 0.55757 0.40879 0.0
S1631 S 0.16785 0.62792 0.33752 0.0
N1632 N 0.1596 0.64229 0.37068 0.0
N1633 N 0.14862 0.59608 0.33553 0.0
C1634 C 0.13426 0.59596 0.36259 0.0
C1635 C 0.14024 0.62108 0.3817 0.0
C1636 C 0.42327 0.16134 0.39584 0.0
C1637 C 0.41933 0.15863 0.36461 0.0
C1638 C 0.39816 0.16168 0.41533 0.0
C1639 C 0.36799 0.15907 0.40449 0.0
H1640 H 0.44599 0.16327 0.40546 0.0
H1641 H 0.40258 0.1636 0.43918 0.0
S1642 S 0.34501 0.15172 0.32453 0.0
N1643 N 0.38278 0.15361 0.32363 0.0
N1644 N 0.33552 0.15407 0.36031 0.0
C1645 C 0.36362 0.15652 0.37327 0.0
C1646 C 0.38927 0.15637 0.35334 0.0
C1647 C 0.18398 0.43197 0.59839 0.0
C1648 C 0.1565 0.44118 0.61216 0.0
C1649 C 0.18447 0.40838 0.57765 0.0
C1650 C 0.15746 0.39318 0.56958 0.0
H1651 H 0.20536 0.44326 0.6034 0.0
H1652 H 0.20614 0.40256 0.56733 0.0
S1653 S 0.0797 0.40719 0.60043 0.0
N1654 N 0.10171 0.43218 0.61725 0.0
N1655 N 0.10263 0.38796 0.57812 0.0
C1656 C 0.1299 0.4016 0.5837 0.0
C1657 C 0.12943 0.42552 0.60503 0.0
C1658 C 0.6185 0.14028 0.60282 0.0
C1659 C 0.6167 0.16391 0.58185 0.0
C1660 C 0.59612 0.13642 0.625 0.0
C1661 C 0.5708 0.15586 0.627 0.0
H1662 H 0.63719 0.12427 0.60193 0.0
H1663 H 0.59834 0.11754 0.6402 0.0
S1664 S 0.55617 0.22248 0.57876 0.0
N1665 N 0.58823 0.20798 0.56547 0.0
N1666 N 0.54607 0.20069 0.60705 0.0
C1667 C 0.56912 0.18013 0.60673 0.0
C1668 C 0.59209 0.18419 0.58423 0.0
C1669 C 0.44068 0.81408 0.60951 0.0
C1670 C 0.44854 0.83893 0.62746 0.0
C1671 C 0.41825 0.81628 0.58711 0.0
C1672 C 0.40281 0.84346 0.58156 0.0
H1673 H 0.45209 0.79269 0.61256 0.0
H1674 H 0.41326 0.79651 0.57382 0.0
S1675 S 0.41395 0.91506 0.62299 0.0
N1676 N 0.43839 0.8915 0.63868 0.0
N1677 N 0.39632 0.89567 0.59659 0.0
C1678 C 0.4101 0.86844 0.59961 0.0
C1679 C 0.4329 0.86616 0.62255 0.0
loop_
_geom_bond_atom_site_label_1
_geom_bond_atom_site_label_2
_geom_bond_distance
_geom_bond_site_symmetry_2
_ccdc_geom_bond_type
C0 O1 1.160 . S
C0 O7 1.185 . S
O1 C0 1.160 . S
O2 Zn3 1.899 . S
O2 C10 1.284 . S
Zn3 O2 1.899 . S
Zn3 O4 2.032 1_455 S
Zn3 O7 2.086 . S
Zn3 O12 1.977 . S
O4 Zn3 2.032 1_655 S
O4 C8 1.278 . S
C5 O6 1.203 . S
C5 O12 1.267 . S
O6 C5 1.203 . S
O7 C0 1.185 . S
O7 Zn3 2.086 . S
C8 O4 1.278 . S
C8 O9 1.211 . S
O9 C8 1.211 . S
C10 O2 1.284 . S
C10 O11 1.273 . S
O11 C10 1.273 . S
O12 Zn3 1.977 . S
O12 C5 1.267 . S
C13 O14 1.160 . S
C13 O20 1.185 . S
O14 C13 1.160 . S
O15 Zn16 1.899 . S
O15 C23 1.284 . S
Zn16 O15 1.899 . S
Zn16 O17 2.032 . S
Zn16 O20 2.086 . S
Zn16 O25 1.977 1_545 S
O17 Zn16 2.032 . S
O17 C21 1.278 . S
C18 O19 1.203 . S
C18 O25 1.267 . S
O19 C18 1.203 . S
O20 C13 1.185 . S
O20 Zn16 2.086 . S
C21 O17 1.278 . S
C21 O22 1.211 1_545 S
O22 C21 1.211 1_565 S
C23 O15 1.284 . S
C23 O24 1.273 . S
O24 C23 1.273 . S
O25 Zn16 1.977 1_565 S
O25 C18 1.267 . S
C26 O27 1.160 . S
C26 O33 1.185 . S
O27 C26 1.160 . S
O28 Zn29 1.899 . S
O28 C36 1.284 . S
Zn29 O28 1.899 . S
Zn29 O30 2.032 1_655 S
Zn29 O33 2.086 . S
Zn29 O38 1.977 . S
O30 Zn29 2.032 1_455 S
O30 C34 1.278 . S
C31 O32 1.203 . S
C31 O38 1.267 . S
O32 C31 1.203 . S
O33 C26 1.185 . S
O33 Zn29 2.086 . S
C34 O30 1.278 . S
C34 O35 1.211 . S
O35 C34 1.211 . S
C36 O28 1.284 . S
C36 O37 1.273 . S
O37 C36 1.273 . S
O38 Zn29 1.977 . S
O38 C31 1.267 . S
C39 O40 1.160 . S
C39 O46 1.185 . S
O40 C39 1.160 . S
O41 Zn42 1.899 . S
O41 C49 1.284 . S
Zn42 O41 1.899 . S
Zn42 O43 2.032 . S
Zn42 O46 2.086 . S
Zn42 O51 1.977 1_565 S
O43 Zn42 2.032 . S
O43 C47 1.278 . S
C44 O45 1.203 . S
C44 O51 1.267 . S
O45 C44 1.203 . S
O46 C39 1.185 . S
O46 Zn42 2.086 . S
C47 O43 1.278 . S
C47 O48 1.211 1_565 S
O48 C47 1.211 1_545 S
C49 O41 1.284 . S
C49 O50 1.273 . S
O50 C49 1.273 . S
O51 Zn42 1.977 1_545 S
O51 C44 1.267 . S
C52 O53 1.160 . S
C52 O59 1.185 . S
O53 C52 1.160 . S
O54 Zn55 1.899 . S
O54 C62 1.284 . S
Zn55 O54 1.899 . S
Zn55 O56 2.032 1_455 S
Zn55 O59 2.086 . S
Zn55 O64 1.977 . S
O56 Zn55 2.032 1_655 S
O56 C60 1.278 . S
C57 O58 1.203 . S
C57 O64 1.267 . S
O58 C57 1.203 . S
O59 C52 1.185 . S
O59 Zn55 2.086 . S
C60 O56 1.278 . S
C60 O61 1.211 . S
O61 C60 1.211 . S
C62 O54 1.284 . S
C62 O63 1.273 . S
O63 C62 1.273 . S
O64 Zn55 1.977 . S
O64 C57 1.267 . S
C65 O66 1.160 . S
C65 O72 1.185 . S
O66 C65 1.160 . S
O67 Zn68 1.899 . S
O67 C75 1.284 . S
Zn68 O67 1.899 . S
Zn68 O69 2.032 . S
Zn68 O72 2.086 . S
Zn68 O77 1.977 1_545 S
O69 Zn68 2.032 . S
O69 C73 1.278 . S
C70 O71 1.203 . S
C70 O77 1.267 . S
O71 C70 1.203 . S
O72 C65 1.185 . S
O72 Zn68 2.086 . S
C73 O69 1.278 . S
C73 O74 1.211 1_545 S
O74 C73 1.211 1_565 S
C75 O67 1.284 . S
C75 O76 1.273 . S
O76 C75 1.273 . S
O77 Zn68 1.977 1_565 S
O77 C70 1.267 . S
C78 O79 1.160 . S
C78 O85 1.185 . S
O79 C78 1.160 . S
O80 Zn81 1.899 . S
O80 C88 1.284 . S
Zn81 O80 1.899 . S
Zn81 O82 2.032 1_655 S
Zn81 O85 2.086 . S
Zn81 O90 1.977 . S
O82 Zn81 2.032 1_455 S
O82 C86 1.278 . S
C83 O84 1.203 . S
C83 O90 1.267 . S
O84 C83 1.203 . S
O85 C78 1.185 . S
O85 Zn81 2.086 . S
C86 O82 1.278 . S
C86 O87 1.211 . S
O87 C86 1.211 . S
C88 O80 1.284 . S
C88 O89 1.273 . S
O89 C88 1.273 . S
O90 Zn81 1.977 . S
O90 C83 1.267 . S
C91 O92 1.160 . S
C91 O98 1.185 . S
O92 C91 1.160 . S
O93 Zn94 1.899 . S
O93 C101 1.284 . S
Zn94 O93 1.899 . S
Zn94 O95 2.032 . S
Zn94 O98 2.086 . S
Zn94 O103 1.977 1_565 S
O95 Zn94 2.032 . S
O95 C99 1.278 . S
C96 O97 1.203 . S
C96 O103 1.267 . S
O97 C96 1.203 . S
O98 C91 1.185 . S
O98 Zn94 2.086 . S
C99 O95 1.278 . S
C99 O100 1.211 1_565 S
O100 C99 1.211 1_545 S
C101 O93 1.284 . S
C101 O102 1.273 . S
O102 C101 1.273 . S
O103 Zn94 1.977 1_545 S
O103 C96 1.267 . S
C104 O105 1.160 . S
C104 O111 1.185 . S
O105 C104 1.160 . S
O106 Zn107 1.899 . S
O106 C114 1.284 . S
Zn107 O106 1.899 . S
Zn107 O108 2.032 . S
Zn107 O111 2.086 . S
Zn107 O116 1.977 1_545 S
O108 Zn107 2.032 . S
O108 C112 1.278 . S
C109 O110 1.203 . S
C109 O116 1.267 . S
O110 C109 1.203 . S
O111 C104 1.185 . S
O111 Zn107 2.086 . S
C112 O108 1.278 . S
C112 O113 1.211 . S
O113 C112 1.211 . S
C114 O106 1.284 . S
C114 O115 1.273 . S
O115 C114 1.273 . S
O116 Zn107 1.977 1_565 S
O116 C109 1.267 . S
C117 O118 1.160 . S
C117 O124 1.185 . S
O118 C117 1.160 . S
O119 Zn120 1.899 . S
O119 C127 1.284 . S
Zn120 O119 1.899 . S
Zn120 O121 2.032 1_655 S
Zn120 O124 2.086 . S
Zn120 O129 1.977 . S
O121 Zn120 2.032 1_455 S
O121 C125 1.278 . S
C122 O123 1.203 . S
C122 O129 1.267 . S
O123 C122 1.203 . S
O124 C117 1.185 . S
O124 Zn120 2.086 . S
C125 O121 1.278 . S
C125 O126 1.211 . S
O126 C125 1.211 . S
C127 O119 1.284 . S
C127 O128 1.273 . S
O128 C127 1.273 . S
O129 Zn120 1.977 . S
O129 C122 1.267 . S
C130 O131 1.160 . S
C130 O137 1.185 . S
O131 C130 1.160 . S
O132 Zn133 1.899 . S
O132 C140 1.284 . S
Zn133 O132 1.899 . S
Zn133 O134 2.032 . S
Zn133 O137 2.086 . S
Zn133 O142 1.977 1_565 S
O134 Zn133 2.032 . S
O134 C138 1.278 . S
C135 O136 1.203 . S
C135 O142 1.267 . S
O136 C135 1.203 . S
O137 C130 1.185 . S
O137 Zn133 2.086 . S
C138 O134 1.278 . S
C138 O139 1.211 . S
O139 C138 1.211 . S
C140 O132 1.284 . S
C140 O141 1.273 . S
O141 C140 1.273 . S
O142 Zn133 1.977 1_545 S
O142 C135 1.267 . S
C143 O144 1.160 . S
C143 O150 1.185 . S
O144 C143 1.160 . S
O145 Zn146 1.899 . S
O145 C153 1.284 . S
Zn146 O145 1.899 . S
Zn146 O147 2.032 1_455 S
Zn146 O150 2.086 . S
Zn146 O155 1.977 . S
O147 Zn146 2.032 1_655 S
O147 C151 1.278 . S
C148 O149 1.203 . S
C148 O155 1.267 . S
O149 C148 1.203 . S
O150 C143 1.185 . S
O150 Zn146 2.086 . S
C151 O147 1.278 . S
C151 O152 1.211 . S
O152 C151 1.211 . S
C153 O145 1.284 . S
C153 O154 1.273 . S
O154 C153 1.273 . S
O155 Zn146 1.977 . S
O155 C148 1.267 . S
C156 O157 1.160 . S
C156 O163 1.185 . S
O157 C156 1.160 . S
O158 Zn159 1.899 . S
O158 C166 1.284 . S
Zn159 O158 1.899 . S
Zn159 O160 2.032 . S
Zn159 O163 2.086 . S
Zn159 O168 1.977 1_565 S
O160 Zn159 2.032 . S
O160 C164 1.278 . S
C161 O162 1.203 . S
C161 O168 1.267 . S
O162 C161 1.203 . S
O163 C156 1.185 . S
O163 Zn159 2.086 . S
C164 O160 1.278 . S
C164 O165 1.211 . S
O165 C164 1.211 . S
C166 O158 1.284 . S
C166 O167 1.273 . S
O167 C166 1.273 . S
O168 Zn159 1.977 1_545 S
O168 C161 1.267 . S
C169 O170 1.160 . S
C169 O176 1.185 . S
O170 C169 1.160 . S
O171 Zn172 1.899 . S
O171 C179 1.284 . S
Zn172 O171 1.899 . S
Zn172 O173 2.032 1_455 S
Zn172 O176 2.086 . S
Zn172 O181 1.977 . S
O173 Zn172 2.032 1_655 S
O173 C177 1.278 . S
C174 O175 1.203 . S
C174 O181 1.267 . S
O175 C174 1.203 . S
O176 C169 1.185 . S
O176 Zn172 2.086 . S
C177 O173 1.278 . S
C177 O178 1.211 . S
O178 C177 1.211 . S
C179 O171 1.284 . S
C179 O180 1.273 . S
O180 C179 1.273 . S
O181 Zn172 1.977 . S
O181 C174 1.267 . S
C182 O183 1.160 . S
C182 O189 1.185 . S
O183 C182 1.160 . S
O184 Zn185 1.899 . S
O184 C192 1.284 . S
Zn185 O184 1.899 . S
Zn185 O186 2.032 . S
Zn185 O189 2.086 . S
Zn185 O194 1.977 1_545 S
O186 Zn185 2.032 . S
O186 C190 1.278 . S
C187 O188 1.203 . S
C187 O194 1.267 . S
O188 C187 1.203 . S
O189 C182 1.185 . S
O189 Zn185 2.086 . S
C190 O186 1.278 . S
C190 O191 1.211 . S
O191 C190 1.211 . S
C192 O184 1.284 . S
C192 O193 1.273 . S
O193 C192 1.273 . S
O194 Zn185 1.977 1_565 S
O194 C187 1.267 . S
C195 O196 1.160 . S
C195 O202 1.185 . S
O196 C195 1.160 . S
O197 Zn198 1.899 . S
O197 C205 1.284 . S
Zn198 O197 1.899 . S
Zn198 O199 2.032 1_655 S
Zn198 O202 2.086 . S
Zn198 O207 1.977 . S
O199 Zn198 2.032 1_455 S
O199 C203 1.278 . S
C200 O201 1.203 . S
C200 O207 1.267 . S
O201 C200 1.203 . S
O202 C195 1.185 . S
O202 Zn198 2.086 . S
C203 O199 1.278 . S
C203 O204 1.211 . S
O204 C203 1.211 . S
C205 O197 1.284 . S
C205 O206 1.273 . S
O206 C205 1.273 . S
O207 Zn198 1.977 . S
O207 C200 1.267 . S
C208 O209 1.160 . S
C208 O215 1.185 . S
O209 C208 1.160 . S
O210 Zn211 1.899 . S
O210 C218 1.284 . S
Zn211 O210 1.899 . S
Zn211 O212 2.032 . S
Zn211 O215 2.086 . S
Zn211 O220 1.977 1_554 S
O212 Zn211 2.032 . S
O212 C216 1.278 . S
C213 O214 1.203 . S
C213 O220 1.267 . S
O214 C213 1.203 . S
O215 C208 1.185 . S
O215 Zn211 2.086 . S
C216 O212 1.278 . S
C216 O217 1.211 1_554 S
O217 C216 1.211 1_556 S
C218 O210 1.284 . S
C218 O219 1.273 . S
O219 C218 1.273 . S
O220 Zn211 1.977 1_556 S
O220 C213 1.267 . S
C221 O222 1.160 . S
C221 O228 1.185 . S
O222 C221 1.160 . S
O223 Zn224 1.899 . S
O223 C231 1.284 . S
Zn224 O223 1.899 . S
Zn224 O225 2.032 . S
Zn224 O228 2.086 . S
Zn224 O233 1.977 1_556 S
O225 Zn224 2.032 . S
O225 C229 1.278 . S
C226 O227 1.203 . S
C226 O233 1.267 . S
O227 C226 1.203 . S
O228 C221 1.185 . S
O228 Zn224 2.086 . S
C229 O225 1.278 . S
C229 O230 1.211 1_556 S
O230 C229 1.211 1_554 S
C231 O223 1.284 . S
C231 O232 1.273 . S
O232 C231 1.273 . S
O233 Zn224 1.977 1_554 S
O233 C226 1.267 . S
C234 O235 1.160 . S
C234 O241 1.185 . S
O235 C234 1.160 . S
O236 Zn237 1.899 . S
O236 C244 1.284 . S
Zn237 O236 1.899 . S
Zn237 O238 2.032 . S
Zn237 O241 2.086 . S
Zn237 O246 1.977 1_556 S
O238 Zn237 2.032 . S
O238 C242 1.278 . S
C239 O240 1.203 . S
C239 O246 1.267 . S
O240 C239 1.203 . S
O241 C234 1.185 . S
O241 Zn237 2.086 . S
C242 O238 1.278 . S
C242 O243 1.211 . S
O243 C242 1.211 . S
C244 O236 1.284 . S
C244 O245 1.273 . S
O245 C244 1.273 . S
O246 Zn237 1.977 1_554 S
O246 C239 1.267 . S
C247 O248 1.160 . S
C247 O254 1.185 . S
O248 C247 1.160 . S
O249 Zn250 1.899 . S
O249 C257 1.284 . S
Zn250 O249 1.899 . S
Zn250 O251 2.032 . S
Zn250 O254 2.086 . S
Zn250 O259 1.977 1_556 S
O251 Zn250 2.032 . S
O251 C255 1.278 . S
C252 O253 1.203 . S
C252 O259 1.267 . S
O253 C252 1.203 . S
O254 C247 1.185 . S
O254 Zn250 2.086 . S
C255 O251 1.278 . S
C255 O256 1.211 1_556 S
O256 C255 1.211 1_554 S
C257 O249 1.284 . S
C257 O258 1.273 . S
O258 C257 1.273 . S
O259 Zn250 1.977 1_554 S
O259 C252 1.267 . S
C260 O261 1.160 . S
C260 O267 1.185 . S
O261 C260 1.160 . S
O262 Zn263 1.899 . S
O262 C270 1.284 . S
Zn263 O262 1.899 . S
Zn263 O264 2.032 . S
Zn263 O267 2.086 . S
Zn263 O272 1.977 1_556 S
O264 Zn263 2.032 . S
O264 C268 1.278 . S
C265 O266 1.203 . S
C265 O272 1.267 . S
O266 C265 1.203 . S
O267 C260 1.185 . S
O267 Zn263 2.086 . S
C268 O264 1.278 . S
C268 O269 1.211 . S
O269 C268 1.211 . S
C270 O262 1.284 . S
C270 O271 1.273 . S
O271 C270 1.273 . S
O272 Zn263 1.977 1_554 S
O272 C265 1.267 . S
C273 O274 1.160 . S
C273 O280 1.185 . S
O274 C273 1.160 . S
O275 Zn276 1.899 . S
O275 C283 1.284 . S
Zn276 O275 1.899 . S
Zn276 O277 2.032 . S
Zn276 O280 2.086 . S
Zn276 O285 1.977 1_554 S
O277 Zn276 2.032 . S
O277 C281 1.278 . S
C278 O279 1.203 . S
C278 O285 1.267 . S
O279 C278 1.203 . S
O280 C273 1.185 . S
O280 Zn276 2.086 . S
C281 O277 1.278 . S
C281 O282 1.211 1_554 S
O282 C281 1.211 1_556 S
C283 O275 1.284 . S
C283 O284 1.273 . S
O284 C283 1.273 . S
O285 Zn276 1.977 1_556 S
O285 C278 1.267 . S
C286 O287 1.160 . S
C286 O293 1.185 . S
O287 C286 1.160 . S
O288 Zn289 1.899 . S
O288 C296 1.284 . S
Zn289 O288 1.899 . S
Zn289 O290 2.032 . S
Zn289 O293 2.086 . S
Zn289 O298 1.977 1_554 S
O290 Zn289 2.032 . S
O290 C294 1.278 . S
C291 O292 1.203 . S
C291 O298 1.267 . S
O292 C291 1.203 . S
O293 C286 1.185 . S
O293 Zn289 2.086 . S
C294 O290 1.278 . S
C294 O295 1.211 . S
O295 C294 1.211 . S
C296 O288 1.284 . S
C296 O297 1.273 . S
O297 C296 1.273 . S
O298 Zn289 1.977 1_556 S
O298 C291 1.267 . S
C299 O300 1.160 . S
C299 O306 1.185 . S
O300 C299 1.160 . S
O301 Zn302 1.899 . S
O301 C309 1.284 . S
Zn302 O301 1.899 . S
Zn302 O303 2.032 . S
Zn302 O306 2.086 . S
Zn302 O311 1.977 1_554 S
O303 Zn302 2.032 . S
O303 C307 1.278 . S
C304 O305 1.203 . S
C304 O311 1.267 . S
O305 C304 1.203 . S
O306 C299 1.185 . S
O306 Zn302 2.086 . S
C307 O303 1.278 . S
C307 O308 1.211 . S
O308 C307 1.211 . S
C309 O301 1.284 . S
C309 O310 1.273 . S
O310 C309 1.273 . S
O311 Zn302 1.977 1_556 S
O311 C304 1.267 . S
C312 O313 1.160 . S
C312 O319 1.185 . S
O313 C312 1.160 . S
O314 Zn315 1.899 . S
O314 C322 1.284 . S
Zn315 O314 1.899 . S
Zn315 O316 2.032 . S
Zn315 O319 2.086 . S
Zn315 O324 1.977 . S
O316 Zn315 2.032 . S
O316 C320 1.278 . S
C317 O318 1.203 . S
C317 O324 1.267 . S
O318 C317 1.203 . S
O319 C312 1.185 . S
O319 Zn315 2.086 . S
C320 O316 1.278 . S
C320 O321 1.211 . S
O321 C320 1.211 . S
C322 O314 1.284 . S
C322 O323 1.273 . S
O323 C322 1.273 . S
O324 Zn315 1.977 . S
O324 C317 1.267 . S
C325 O326 1.160 . S
C325 O332 1.185 . S
O326 C325 1.160 . S
O327 Zn328 1.899 . S
O327 C335 1.284 . S
Zn328 O327 1.899 . S
Zn328 O329 2.032 . S
Zn328 O332 2.086 . S
Zn328 O337 1.977 . S
O329 Zn328 2.032 . S
O329 C333 1.278 . S
C330 O331 1.203 . S
C330 O337 1.267 . S
O331 C330 1.203 . S
O332 C325 1.185 . S
O332 Zn328 2.086 . S
C333 O329 1.278 . S
C333 O334 1.211 . S
O334 C333 1.211 . S
C335 O327 1.284 . S
C335 O336 1.273 . S
O336 C335 1.273 . S
O337 Zn328 1.977 . S
O337 C330 1.267 . S
C338 O339 1.160 . S
C338 O345 1.185 . S
O339 C338 1.160 . S
O340 Zn341 1.899 . S
O340 C348 1.284 . S
Zn341 O340 1.899 . S
Zn341 O342 2.032 . S
Zn341 O345 2.086 . S
Zn341 O350 1.977 . S
O342 Zn341 2.032 . S
O342 C346 1.278 . S
C343 O344 1.203 . S
C343 O350 1.267 . S
O344 C343 1.203 . S
O345 C338 1.185 . S
O345 Zn341 2.086 . S
C346 O342 1.278 . S
C346 O347 1.211 . S
O347 C346 1.211 . S
C348 O340 1.284 . S
C348 O349 1.273 . S
O349 C348 1.273 . S
O350 Zn341 1.977 . S
O350 C343 1.267 . S
C351 O352 1.160 . S
C351 O358 1.185 . S
O352 C351 1.160 . S
O353 Zn354 1.899 . S
O353 C361 1.284 . S
Zn354 O353 1.899 . S
Zn354 O355 2.032 . S
Zn354 O358 2.086 . S
Zn354 O363 1.977 . S
O355 Zn354 2.032 . S
O355 C359 1.278 . S
C356 O357 1.203 . S
C356 O363 1.267 . S
O357 C356 1.203 . S
O358 C351 1.185 . S
O358 Zn354 2.086 . S
C359 O355 1.278 . S
C359 O360 1.211 . S
O360 C359 1.211 . S
C361 O353 1.284 . S
C361 O362 1.273 . S
O362 C361 1.273 . S
O363 Zn354 1.977 . S
O363 C356 1.267 . S
C364 O365 1.160 . S
C364 O371 1.185 . S
O365 C364 1.160 . S
O366 Zn367 1.899 . S
O366 C374 1.284 . S
Zn367 O366 1.899 . S
Zn367 O368 2.032 . S
Zn367 O371 2.086 . S
Zn367 O376 1.977 . S
O368 Zn367 2.032 . S
O368 C372 1.278 . S
C369 O370 1.203 . S
C369 O376 1.267 . S
O370 C369 1.203 . S
O371 C364 1.185 . S
O371 Zn367 2.086 . S
C372 O368 1.278 . S
C372 O373 1.211 . S
O373 C372 1.211 . S
C374 O366 1.284 . S
C374 O375 1.273 . S
O375 C374 1.273 . S
O376 Zn367 1.977 . S
O376 C369 1.267 . S
C377 O378 1.160 . S
C377 O384 1.185 . S
O378 C377 1.160 . S
O379 Zn380 1.899 . S
O379 C387 1.284 . S
Zn380 O379 1.899 . S
Zn380 O381 2.032 . S
Zn380 O384 2.086 . S
Zn380 O389 1.977 . S
O381 Zn380 2.032 . S
O381 C385 1.278 . S
C382 O383 1.203 . S
C382 O389 1.267 . S
O383 C382 1.203 . S
O384 C377 1.185 . S
O384 Zn380 2.086 . S
C385 O381 1.278 . S
C385 O386 1.211 . S
O386 C385 1.211 . S
C387 O379 1.284 . S
C387 O388 1.273 . S
O388 C387 1.273 . S
O389 Zn380 1.977 . S
O389 C382 1.267 . S
C390 O391 1.160 . S
C390 O397 1.185 . S
O391 C390 1.160 . S
O392 Zn393 1.899 . S
O392 C400 1.284 . S
Zn393 O392 1.899 . S
Zn393 O394 2.032 . S
Zn393 O397 2.086 . S
Zn393 O402 1.977 . S
O394 Zn393 2.032 . S
O394 C398 1.278 . S
C395 O396 1.203 . S
C395 O402 1.267 . S
O396 C395 1.203 . S
O397 C390 1.185 . S
O397 Zn393 2.086 . S
C398 O394 1.278 . S
C398 O399 1.211 . S
O399 C398 1.211 . S
C400 O392 1.284 . S
C400 O401 1.273 . S
O401 C400 1.273 . S
O402 Zn393 1.977 . S
O402 C395 1.267 . S
C403 O404 1.160 . S
C403 O410 1.185 . S
O404 C403 1.160 . S
O405 Zn406 1.899 . S
O405 C413 1.284 . S
Zn406 O405 1.899 . S
Zn406 O407 2.032 . S
Zn406 O410 2.086 . S
Zn406 O415 1.977 . S
O407 Zn406 2.032 . S
O407 C411 1.278 . S
C408 O409 1.203 . S
C408 O415 1.267 . S
O409 C408 1.203 . S
O410 C403 1.185 . S
O410 Zn406 2.086 . S
C411 O407 1.278 . S
C411 O412 1.211 . S
O412 C411 1.211 . S
C413 O405 1.284 . S
C413 O414 1.273 . S
O414 C413 1.273 . S
O415 Zn406 1.977 . S
O415 C408 1.267 . S
C416 O417 1.160 . S
C416 O423 1.185 . S
O417 C416 1.160 . S
O418 Zn419 1.899 . S
O418 C426 1.284 . S
Zn419 O418 1.899 . S
Zn419 O420 2.032 . S
Zn419 O423 2.086 . S
Zn419 O428 1.977 . S
O420 Zn419 2.032 . S
O420 C424 1.278 . S
C421 O422 1.203 . S
C421 O428 1.267 . S
O422 C421 1.203 . S
O423 C416 1.185 . S
O423 Zn419 2.086 . S
C424 O420 1.278 . S
C424 O425 1.211 . S
O425 C424 1.211 . S
C426 O418 1.284 . S
C426 O427 1.273 . S
O427 C426 1.273 . S
O428 Zn419 1.977 . S
O428 C421 1.267 . S
C429 O430 1.160 . S
C429 O436 1.185 . S
O430 C429 1.160 . S
O431 Zn432 1.899 . S
O431 C439 1.284 . S
Zn432 O431 1.899 . S
Zn432 O433 2.032 . S
Zn432 O436 2.086 . S
Zn432 O441 1.977 . S
O433 Zn432 2.032 . S
O433 C437 1.278 . S
C434 O435 1.203 . S
C434 O441 1.267 . S
O435 C434 1.203 . S
O436 C429 1.185 . S
O436 Zn432 2.086 . S
C437 O433 1.278 . S
C437 O438 1.211 . S
O438 C437 1.211 . S
C439 O431 1.284 . S
C439 O440 1.273 . S
O440 C439 1.273 . S
O441 Zn432 1.977 . S
O441 C434 1.267 . S
C442 O443 1.160 . S
C442 O449 1.185 . S
O443 C442 1.160 . S
O444 Zn445 1.899 . S
O444 C452 1.284 . S
Zn445 O444 1.899 . S
Zn445 O446 2.032 . S
Zn445 O449 2.086 . S
Zn445 O454 1.977 . S
O446 Zn445 2.032 . S
O446 C450 1.278 . S
C447 O448 1.203 . S
C447 O454 1.267 . S
O448 C447 1.203 . S
O449 C442 1.185 . S
O449 Zn445 2.086 . S
C450 O446 1.278 . S
C450 O451 1.211 . S
O451 C450 1.211 . S
C452 O444 1.284 . S
C452 O453 1.273 . S
O453 C452 1.273 . S
O454 Zn445 1.977 . S
O454 C447 1.267 . S
C455 O456 1.160 . S
C455 O462 1.185 . S
O456 C455 1.160 . S
O457 Zn458 1.899 . S
O457 C465 1.284 . S
Zn458 O457 1.899 . S
Zn458 O459 2.032 . S
Zn458 O462 2.086 . S
Zn458 O467 1.977 . S
O459 Zn458 2.032 . S
O459 C463 1.278 . S
C460 O461 1.203 . S
C460 O467 1.267 . S
O461 C460 1.203 . S
O462 C455 1.185 . S
O462 Zn458 2.086 . S
C463 O459 1.278 . S
C463 O464 1.211 . S
O464 C463 1.211 . S
C465 O457 1.284 . S
C465 O466 1.273 . S
O466 C465 1.273 . S
O467 Zn458 1.977 . S
O467 C460 1.267 . S
C468 O469 1.160 . S
C468 O475 1.185 . S
O469 C468 1.160 . S
O470 Zn471 1.899 . S
O470 C478 1.284 . S
Zn471 O470 1.899 . S
Zn471 O472 2.032 . S
Zn471 O475 2.086 . S
Zn471 O480 1.977 . S
O472 Zn471 2.032 . S
O472 C476 1.278 . S
C473 O474 1.203 . S
C473 O480 1.267 . S
O474 C473 1.203 . S
O475 C468 1.185 . S
O475 Zn471 2.086 . S
C476 O472 1.278 . S
C476 O477 1.211 . S
O477 C476 1.211 . S
C478 O470 1.284 . S
C478 O479 1.273 . S
O479 C478 1.273 . S
O480 Zn471 1.977 . S
O480 C473 1.267 . S
C481 O482 1.160 . S
C481 O488 1.185 . S
O482 C481 1.160 . S
O483 Zn484 1.899 . S
O483 C491 1.284 . S
Zn484 O483 1.899 . S
Zn484 O485 2.032 . S
Zn484 O488 2.086 . S
Zn484 O493 1.977 . S
O485 Zn484 2.032 . S
O485 C489 1.278 . S
C486 O487 1.203 . S
C486 O493 1.267 . S
O487 C486 1.203 . S
O488 C481 1.185 . S
O488 Zn484 2.086 . S
C489 O485 1.278 . S
C489 O490 1.211 . S
O490 C489 1.211 . S
C491 O483 1.284 . S
C491 O492 1.273 . S
O492 C491 1.273 . S
O493 Zn484 1.977 . S
O493 C486 1.267 . S
C494 O495 1.160 . S
C494 O501 1.185 . S
O495 C494 1.160 . S
O496 Zn497 1.899 . S
O496 C504 1.284 . S
Zn497 O496 1.899 . S
Zn497 O498 2.032 . S
Zn497 O501 2.086 . S
Zn497 O506 1.977 . S
O498 Zn497 2.032 . S
O498 C502 1.278 . S
C499 O500 1.203 . S
C499 O506 1.267 . S
O500 C499 1.203 . S
O501 C494 1.185 . S
O501 Zn497 2.086 . S
C502 O498 1.278 . S
C502 O503 1.211 . S
O503 C502 1.211 . S
C504 O496 1.284 . S
C504 O505 1.273 . S
O505 C504 1.273 . S
O506 Zn497 1.977 . S
O506 C499 1.267 . S
C507 O508 1.160 . S
C507 O514 1.185 . S
O508 C507 1.160 . S
O509 Zn510 1.899 . S
O509 C517 1.284 . S
Zn510 O509 1.899 . S
Zn510 O511 2.032 . S
Zn510 O514 2.086 . S
Zn510 O519 1.977 . S
O511 Zn510 2.032 . S
O511 C515 1.278 . S
C512 O513 1.203 . S
C512 O519 1.267 . S
O513 C512 1.203 . S
O514 C507 1.185 . S
O514 Zn510 2.086 . S
C515 O511 1.278 . S
C515 O516 1.211 . S
O516 C515 1.211 . S
C517 O509 1.284 . S
C517 O518 1.273 . S
O518 C517 1.273 . S
O519 Zn510 1.977 . S
O519 C512 1.267 . S
C520 O521 1.160 . S
C520 O527 1.185 . S
O521 C520 1.160 . S
O522 Zn523 1.899 . S
O522 C530 1.284 . S
Zn523 O522 1.899 . S
Zn523 O524 2.032 . S
Zn523 O527 2.086 . S
Zn523 O532 1.977 . S
O524 Zn523 2.032 . S
O524 C528 1.278 . S
C525 O526 1.203 . S
C525 O532 1.267 . S
O526 C525 1.203 . S
O527 C520 1.185 . S
O527 Zn523 2.086 . S
C528 O524 1.278 . S
C528 O529 1.211 . S
O529 C528 1.211 . S
C530 O522 1.284 . S
C530 O531 1.273 . S
O531 C530 1.273 . S
O532 Zn523 1.977 . S
O532 C525 1.267 . S
C533 O534 1.160 . S
C533 O540 1.185 . S
O534 C533 1.160 . S
O535 Zn536 1.899 . S
O535 C543 1.284 . S
Zn536 O535 1.899 . S
Zn536 O537 2.032 . S
Zn536 O540 2.086 . S
Zn536 O545 1.977 . S
O537 Zn536 2.032 . S
O537 C541 1.278 . S
C538 O539 1.203 . S
C538 O545 1.267 . S
O539 C538 1.203 . S
O540 C533 1.185 . S
O540 Zn536 2.086 . S
C541 O537 1.278 . S
C541 O542 1.211 . S
O542 C541 1.211 . S
C543 O535 1.284 . S
C543 O544 1.273 . S
O544 C543 1.273 . S
O545 Zn536 1.977 . S
O545 C538 1.267 . S
C546 O547 1.160 . S
C546 O553 1.185 . S
O547 C546 1.160 . S
O548 Zn549 1.899 . S
O548 C556 1.284 . S
Zn549 O548 1.899 . S
Zn549 O550 2.032 . S
Zn549 O553 2.086 . S
Zn549 O558 1.977 . S
O550 Zn549 2.032 . S
O550 C554 1.278 . S
C551 O552 1.203 . S
C551 O558 1.267 . S
O552 C551 1.203 . S
O553 C546 1.185 . S
O553 Zn549 2.086 . S
C554 O550 1.278 . S
C554 O555 1.211 . S
O555 C554 1.211 . S
C556 O548 1.284 . S
C556 O557 1.273 . S
O557 C556 1.273 . S
O558 Zn549 1.977 . S
O558 C551 1.267 . S
C559 O560 1.160 . S
C559 O566 1.185 . S
O560 C559 1.160 . S
O561 Zn562 1.899 . S
O561 C569 1.284 . S
Zn562 O561 1.899 . S
Zn562 O563 2.032 . S
Zn562 O566 2.086 . S
Zn562 O571 1.977 . S
O563 Zn562 2.032 . S
O563 C567 1.278 . S
C564 O565 1.203 . S
C564 O571 1.267 . S
O565 C564 1.203 . S
O566 C559 1.185 . S
O566 Zn562 2.086 . S
C567 O563 1.278 . S
C567 O568 1.211 . S
O568 C567 1.211 . S
C569 O561 1.284 . S
C569 O570 1.273 . S
O570 C569 1.273 . S
O571 Zn562 1.977 . S
O571 C564 1.267 . S
C572 O573 1.160 . S
C572 O579 1.185 . S
O573 C572 1.160 . S
O574 Zn575 1.899 . S
O574 C582 1.284 . S
Zn575 O574 1.899 . S
Zn575 O576 2.032 . S
Zn575 O579 2.086 . S
Zn575 O584 1.977 . S
O576 Zn575 2.032 . S
O576 C580 1.278 . S
C577 O578 1.203 . S
C577 O584 1.267 . S
O578 C577 1.203 . S
O579 C572 1.185 . S
O579 Zn575 2.086 . S
C580 O576 1.278 . S
C580 O581 1.211 . S
O581 C580 1.211 . S
C582 O574 1.284 . S
C582 O583 1.273 . S
O583 C582 1.273 . S
O584 Zn575 1.977 . S
O584 C577 1.267 . S
C585 O586 1.160 . S
C585 O592 1.185 . S
O586 C585 1.160 . S
O587 Zn588 1.899 . S
O587 C595 1.284 . S
Zn588 O587 1.899 . S
Zn588 O589 2.032 . S
Zn588 O592 2.086 . S
Zn588 O597 1.977 . S
O589 Zn588 2.032 . S
O589 C593 1.278 . S
C590 O591 1.203 . S
C590 O597 1.267 . S
O591 C590 1.203 . S
O592 C585 1.185 . S
O592 Zn588 2.086 . S
C593 O589 1.278 . S
C593 O594 1.211 . S
O594 C593 1.211 . S
C595 O587 1.284 . S
C595 O596 1.273 . S
O596 C595 1.273 . S
O597 Zn588 1.977 . S
O597 C590 1.267 . S
C598 O599 1.160 . S
C598 O605 1.185 . S
O599 C598 1.160 . S
O600 Zn601 1.899 . S
O600 C608 1.284 . S
Zn601 O600 1.899 . S
Zn601 O602 2.032 . S
Zn601 O605 2.086 . S
Zn601 O610 1.977 . S
O602 Zn601 2.032 . S
O602 C606 1.278 . S
C603 O604 1.203 . S
C603 O610 1.267 . S
O604 C603 1.203 . S
O605 C598 1.185 . S
O605 Zn601 2.086 . S
C606 O602 1.278 . S
C606 O607 1.211 . S
O607 C606 1.211 . S
C608 O600 1.284 . S
C608 O609 1.273 . S
O609 C608 1.273 . S
O610 Zn601 1.977 . S
O610 C603 1.267 . S
C611 O612 1.160 . S
C611 O618 1.185 . S
O612 C611 1.160 . S
O613 Zn614 1.899 . S
O613 C621 1.284 . S
Zn614 O613 1.899 . S
Zn614 O615 2.032 . S
Zn614 O618 2.086 . S
Zn614 O623 1.977 . S
O615 Zn614 2.032 . S
O615 C619 1.278 . S
C616 O617 1.203 . S
C616 O623 1.267 . S
O617 C616 1.203 . S
O618 C611 1.185 . S
O618 Zn614 2.086 . S
C619 O615 1.278 . S
C619 O620 1.211 . S
O620 C619 1.211 . S
C621 O613 1.284 . S
C621 O622 1.273 . S
O622 C621 1.273 . S
O623 Zn614 1.977 . S
O623 C616 1.267 . S
C624 C625 1.369 . S
C624 C626 1.419 . S
C624 H628 0.930 . S
C625 C624 1.369 . S
C625 C634 1.429 . S
C626 C624 1.419 . S
C626 C627 1.363 . S
C626 H629 0.929 . S
C627 C626 1.363 . S
C627 C633 1.428 . S
H628 C624 0.930 . S
H629 C626 0.929 . S
S630 N631 1.613 . S
S630 N632 1.610 . S
N631 S630 1.613 . S
N631 C634 1.350 . S
N632 S630 1.610 . S
N632 C633 1.351 . S
C633 C627 1.428 . S
C633 N632 1.351 . S
C633 C634 1.434 . S
C634 C625 1.429 . S
C634 N631 1.350 . S
C634 C633 1.434 . S
C635 C636 1.369 . S
C635 C637 1.419 . S
C635 H639 0.930 . S
C636 C635 1.369 . S
C636 C645 1.429 . S
C637 C635 1.419 . S
C637 C638 1.363 . S
C637 H640 0.929 . S
C638 C637 1.363 . S
C638 C644 1.428 . S
H639 C635 0.930 . S
H640 C637 0.929 . S
S641 N642 1.613 . S
S641 N643 1.610 . S
N642 S641 1.613 . S
N642 C645 1.350 . S
N643 S641 1.610 . S
N643 C644 1.351 . S
C644 C638 1.428 . S
C644 N643 1.351 . S
C644 C645 1.434 . S
C645 C636 1.429 . S
C645 N642 1.350 . S
C645 C644 1.434 . S
C646 C647 1.369 . S
C646 C648 1.419 . S
C646 H650 0.930 . S
C647 C646 1.369 . S
C647 C656 1.429 . S
C648 C646 1.419 . S
C648 C649 1.363 . S
C648 H651 0.929 . S
C649 C648 1.363 . S
C649 C655 1.428 . S
H650 C646 0.930 . S
H651 C648 0.929 . S
S652 N653 1.613 . S
S652 N654 1.610 . S
N653 S652 1.613 . S
N653 C656 1.350 . S
N654 S652 1.610 . S
N654 C655 1.351 . S
C655 C649 1.428 . S
C655 N654 1.351 . S
C655 C656 1.434 . S
C656 C647 1.429 . S
C656 N653 1.350 . S
C656 C655 1.434 . S
C657 C658 1.369 . S
C657 C659 1.419 . S
C657 H661 0.930 . S
C658 C657 1.369 . S
C658 C667 1.429 . S
C659 C657 1.419 . S
C659 C660 1.363 . S
C659 H662 0.929 . S
C660 C659 1.363 . S
C660 C666 1.428 . S
H661 C657 0.930 . S
H662 C659 0.929 . S
S663 N664 1.613 . S
S663 N665 1.610 . S
N664 S663 1.613 . S
N664 C667 1.350 . S
N665 S663 1.610 . S
N665 C666 1.351 . S
C666 C660 1.428 . S
C666 N665 1.351 . S
C666 C667 1.434 . S
C667 C658 1.429 . S
C667 N664 1.350 . S
C667 C666 1.434 . S
C668 C669 1.369 . S
C668 C670 1.419 . S
C668 H672 0.930 . S
C669 C668 1.369 . S
C669 C678 1.429 . S
C670 C668 1.419 . S
C670 C671 1.363 . S
C670 H673 0.929 . S
C671 C670 1.363 . S
C671 C677 1.428 . S
H672 C668 0.930 . S
H673 C670 0.929 . S
S674 N675 1.613 . S
S674 N676 1.610 . S
N675 S674 1.613 . S
N675 C678 1.350 . S
N676 S674 1.610 . S
N676 C677 1.351 . S
C677 C671 1.428 . S
C677 N676 1.351 . S
C677 C678 1.434 . S
C678 C669 1.429 . S
C678 N675 1.350 . S
C678 C677 1.434 . S
C679 C680 1.369 . S
C679 C681 1.419 . S
C679 H683 0.930 . S
C680 C679 1.369 . S
C680 C689 1.429 . S
C681 C679 1.419 . S
C681 C682 1.363 . S
C681 H684 0.929 . S
C682 C681 1.363 . S
C682 C688 1.428 . S
H683 C679 0.930 . S
H684 C681 0.929 . S
S685 N686 1.613 . S
S685 N687 1.610 . S
N686 S685 1.613 . S
N686 C689 1.350 . S
N687 S685 1.610 . S
N687 C688 1.351 . S
C688 C682 1.428 . S
C688 N687 1.351 . S
C688 C689 1.434 . S
C689 C680 1.429 . S
C689 N686 1.350 . S
C689 C688 1.434 . S
C690 C691 1.369 . S
C690 C692 1.419 . S
C690 H694 0.930 . S
C691 C690 1.369 . S
C691 C700 1.429 . S
C692 C690 1.419 . S
C692 C693 1.363 . S
C692 H695 0.929 . S
C693 C692 1.363 . S
C693 C699 1.428 . S
H694 C690 0.930 . S
H695 C692 0.929 . S
S696 N697 1.613 . S
S696 N698 1.610 . S
N697 S696 1.613 . S
N697 C700 1.350 . S
N698 S696 1.610 . S
N698 C699 1.351 . S
C699 C693 1.428 . S
C699 N698 1.351 . S
C699 C700 1.434 . S
C700 C691 1.429 . S
C700 N697 1.350 . S
C700 C699 1.434 . S
C701 C702 1.369 . S
C701 C703 1.419 . S
C701 H705 0.930 . S
C702 C701 1.369 . S
C702 C711 1.429 . S
C703 C701 1.419 . S
C703 C704 1.363 . S
C703 H706 0.929 . S
C704 C703 1.363 . S
C704 C710 1.428 . S
H705 C701 0.930 . S
H706 C703 0.929 . S
S707 N708 1.613 . S
S707 N709 1.610 . S
N708 S707 1.613 . S
N708 C711 1.350 . S
N709 S707 1.610 . S
N709 C710 1.351 . S
C710 C704 1.428 . S
C710 N709 1.351 . S
C710 C711 1.434 . S
C711 C702 1.429 . S
C711 N708 1.350 . S
C711 C710 1.434 . S
C712 C713 1.369 . S
C712 C714 1.419 . S
C712 H716 0.930 . S
C713 C712 1.369 . S
C713 C722 1.429 . S
C714 C712 1.419 . S
C714 C715 1.363 . S
C714 H717 0.929 . S
C715 C714 1.363 . S
C715 C721 1.428 . S
H716 C712 0.930 . S
H717 C714 0.929 . S
S718 N719 1.613 . S
S718 N720 1.610 . S
N719 S718 1.613 . S
N719 C722 1.350 . S
N720 S718 1.610 . S
N720 C721 1.351 . S
C721 C715 1.428 . S
C721 N720 1.351 . S
C721 C722 1.434 . S
C722 C713 1.429 . S
C722 N719 1.350 . S
C722 C721 1.434 . S
C723 C724 1.369 . S
C723 C725 1.419 . S
C723 H727 0.930 . S
C724 C723 1.369 . S
C724 C733 1.429 . S
C725 C723 1.419 . S
C725 C726 1.363 . S
C725 H728 0.929 . S
C726 C725 1.363 . S
C726 C732 1.428 . S
H727 C723 0.930 . S
H728 C725 0.929 . S
S729 N730 1.613 . S
S729 N731 1.610 . S
N730 S729 1.613 . S
N730 C733 1.350 . S
N731 S729 1.610 . S
N731 C732 1.351 . S
C732 C726 1.428 . S
C732 N731 1.351 . S
C732 C733 1.434 . S
C733 C724 1.429 . S
C733 N730 1.350 . S
C733 C732 1.434 . S
C734 C735 1.369 . S
C734 C736 1.419 . S
C734 H738 0.930 . S
C735 C734 1.369 . S
C735 C744 1.429 . S
C736 C734 1.419 . S
C736 C737 1.363 . S
C736 H739 0.929 . S
C737 C736 1.363 . S
C737 C743 1.428 . S
H738 C734 0.930 . S
H739 C736 0.929 . S
S740 N741 1.613 . S
S740 N742 1.610 . S
N741 S740 1.613 . S
N741 C744 1.350 . S
N742 S740 1.610 . S
N742 C743 1.351 . S
C743 C737 1.428 . S
C743 N742 1.351 . S
C743 C744 1.434 . S
C744 C735 1.429 . S
C744 N741 1.350 . S
C744 C743 1.434 . S
C745 C746 1.369 . S
C745 C747 1.419 . S
C745 H749 0.930 . S
C746 C745 1.369 . S
C746 C755 1.429 . S
C747 C745 1.419 . S
C747 C748 1.363 . S
C747 H750 0.929 . S
C748 C747 1.363 . S
C748 C754 1.428 . S
H749 C745 0.930 . S
H750 C747 0.929 . S
S751 N752 1.613 . S
S751 N753 1.610 . S
N752 S751 1.613 . S
N752 C755 1.350 . S
N753 S751 1.610 . S
N753 C754 1.351 . S
C754 C748 1.428 . S
C754 N753 1.351 . S
C754 C755 1.434 . S
C755 C746 1.429 . S
C755 N752 1.350 . S
C755 C754 1.434 . S
C756 C757 1.369 . S
C756 C758 1.419 . S
C756 H760 0.930 . S
C757 C756 1.369 . S
C757 C766 1.429 . S
C758 C756 1.419 . S
C758 C759 1.363 . S
C758 H761 0.929 . S
C759 C758 1.363 . S
C759 C765 1.428 . S
H760 C756 0.930 . S
H761 C758 0.929 . S
S762 N763 1.613 . S
S762 N764 1.610 . S
N763 S762 1.613 . S
N763 C766 1.350 . S
N764 S762 1.610 . S
N764 C765 1.351 . S
C765 C759 1.428 . S
C765 N764 1.351 . S
C765 C766 1.434 . S
C766 C757 1.429 . S
C766 N763 1.350 . S
C766 C765 1.434 . S
C767 C768 1.369 . S
C767 C769 1.419 . S
C767 H771 0.930 . S
C768 C767 1.369 . S
C768 C777 1.429 . S
C769 C767 1.419 . S
C769 C770 1.363 . S
C769 H772 0.929 . S
C770 C769 1.363 . S
C770 C776 1.428 . S
H771 C767 0.930 . S
H772 C769 0.929 . S
S773 N774 1.613 . S
S773 N775 1.610 . S
N774 S773 1.613 . S
N774 C777 1.350 . S
N775 S773 1.610 . S
N775 C776 1.351 . S
C776 C770 1.428 . S
C776 N775 1.351 . S
C776 C777 1.434 . S
C777 C768 1.429 . S
C777 N774 1.350 . S
C777 C776 1.434 . S
C778 C779 1.369 . S
C778 C780 1.419 . S
C778 H782 0.930 . S
C779 C778 1.369 . S
C779 C788 1.429 . S
C780 C778 1.419 . S
C780 C781 1.363 . S
C780 H783 0.929 . S
C781 C780 1.363 . S
C781 C787 1.428 . S
H782 C778 0.930 . S
H783 C780 0.929 . S
S784 N785 1.613 . S
S784 N786 1.610 . S
N785 S784 1.613 . S
N785 C788 1.350 . S
N786 S784 1.610 . S
N786 C787 1.351 . S
C787 C781 1.428 . S
C787 N786 1.351 . S
C787 C788 1.434 . S
C788 C779 1.429 . S
C788 N785 1.350 . S
C788 C787 1.434 . S
C789 C790 1.369 . S
C789 C791 1.419 . S
C789 H793 0.930 . S
C790 C789 1.369 . S
C790 C799 1.429 . S
C791 C789 1.419 . S
C791 C792 1.363 . S
C791 H794 0.929 . S
C792 C791 1.363 . S
C792 C798 1.428 . S
H793 C789 0.930 . S
H794 C791 0.929 . S
S795 N796 1.613 . S
S795 N797 1.610 . S
N796 S795 1.613 . S
N796 C799 1.350 . S
N797 S795 1.610 . S
N797 C798 1.351 . S
C798 C792 1.428 . S
C798 N797 1.351 . S
C798 C799 1.434 . S
C799 C790 1.429 . S
C799 N796 1.350 . S
C799 C798 1.434 . S
C800 C801 1.369 . S
C800 C802 1.419 . S
C800 H804 0.930 . S
C801 C800 1.369 . S
C801 C810 1.429 . S
C802 C800 1.419 . S
C802 C803 1.363 . S
C802 H805 0.929 . S
C803 C802 1.363 . S
C803 C809 1.428 . S
H804 C800 0.930 . S
H805 C802 0.929 . S
S806 N807 1.613 . S
S806 N808 1.610 . S
N807 S806 1.613 . S
N807 C810 1.350 . S
N808 S806 1.610 . S
N808 C809 1.351 . S
C809 C803 1.428 . S
C809 N808 1.351 . S
C809 C810 1.434 . S
C810 C801 1.429 . S
C810 N807 1.350 . S
C810 C809 1.434 . S
C811 C812 1.369 . S
C811 C813 1.419 . S
C811 H815 0.930 . S
C812 C811 1.369 . S
C812 C821 1.429 . S
C813 C811 1.419 . S
C813 C814 1.363 . S
C813 H816 0.929 . S
C814 C813 1.363 . S
C814 C820 1.428 . S
H815 C811 0.930 . S
H816 C813 0.929 . S
S817 N818 1.613 . S
S817 N819 1.610 . S
N818 S817 1.613 . S
N818 C821 1.350 . S
N819 S817 1.610 . S
N819 C820 1.351 . S
C820 C814 1.428 . S
C820 N819 1.351 . S
C820 C821 1.434 . S
C821 C812 1.429 . S
C821 N818 1.350 . S
C821 C820 1.434 . S
C822 C823 1.369 . S
C822 C824 1.419 . S
C822 H826 0.930 . S
C823 C822 1.369 . S
C823 C832 1.429 . S
C824 C822 1.419 . S
C824 C825 1.363 . S
C824 H827 0.929 . S
C825 C824 1.363 . S
C825 C831 1.428 . S
H826 C822 0.930 . S
H827 C824 0.929 . S
S828 N829 1.613 . S
S828 N830 1.610 . S
N829 S828 1.613 . S
N829 C832 1.350 . S
N830 S828 1.610 . S
N830 C831 1.351 . S
C831 C825 1.428 . S
C831 N830 1.351 . S
C831 C832 1.434 . S
C832 C823 1.429 . S
C832 N829 1.350 . S
C832 C831 1.434 . S
C833 C834 1.369 . S
C833 C835 1.419 . S
C833 H837 0.930 . S
C834 C833 1.369 . S
C834 C843 1.429 . S
C835 C833 1.419 . S
C835 C836 1.363 . S
C835 H838 0.929 . S
C836 C835 1.363 . S
C836 C842 1.428 . S
H837 C833 0.930 . S
H838 C835 0.929 . S
S839 N840 1.613 . S
S839 N841 1.610 . S
N840 S839 1.613 . S
N840 C843 1.350 . S
N841 S839 1.610 . S
N841 C842 1.351 . S
C842 C836 1.428 . S
C842 N841 1.351 . S
C842 C843 1.434 . S
C843 C834 1.429 . S
C843 N840 1.350 . S
C843 C842 1.434 . S
C844 C845 1.369 . S
C844 C846 1.419 . S
C844 H848 0.930 . S
C845 C844 1.369 . S
C845 C854 1.429 . S
C846 C844 1.419 . S
C846 C847 1.363 . S
C846 H849 0.929 . S
C847 C846 1.363 . S
C847 C853 1.428 . S
H848 C844 0.930 . S
H849 C846 0.929 . S
S850 N851 1.613 . S
S850 N852 1.610 . S
N851 S850 1.613 . S
N851 C854 1.350 . S
N852 S850 1.610 . S
N852 C853 1.351 . S
C853 C847 1.428 . S
C853 N852 1.351 . S
C853 C854 1.434 . S
C854 C845 1.429 . S
C854 N851 1.350 . S
C854 C853 1.434 . S
C855 C856 1.369 . S
C855 C857 1.419 . S
C855 H859 0.930 . S
C856 C855 1.369 . S
C856 C865 1.429 . S
C857 C855 1.419 . S
C857 C858 1.363 . S
C857 H860 0.929 . S
C858 C857 1.363 . S
C858 C864 1.428 . S
H859 C855 0.930 . S
H860 C857 0.929 . S
S861 N862 1.613 . S
S861 N863 1.610 . S
N862 S861 1.613 . S
N862 C865 1.350 . S
N863 S861 1.610 . S
N863 C864 1.351 . S
C864 C858 1.428 . S
C864 N863 1.351 . S
C864 C865 1.434 . S
C865 C856 1.429 . S
C865 N862 1.350 . S
C865 C864 1.434 . S
C866 C867 1.369 . S
C866 C868 1.419 . S
C866 H870 0.930 . S
C867 C866 1.369 . S
C867 C876 1.429 . S
C868 C866 1.419 . S
C868 C869 1.363 . S
C868 H871 0.929 . S
C869 C868 1.363 . S
C869 C875 1.428 . S
H870 C866 0.930 . S
H871 C868 0.929 . S
S872 N873 1.613 . S
S872 N874 1.610 . S
N873 S872 1.613 . S
N873 C876 1.350 . S
N874 S872 1.610 . S
N874 C875 1.351 . S
C875 C869 1.428 . S
C875 N874 1.351 . S
C875 C876 1.434 . S
C876 C867 1.429 . S
C876 N873 1.350 . S
C876 C875 1.434 . S
C877 C878 1.369 . S
C877 C879 1.419 . S
C877 H881 0.930 . S
C878 C877 1.369 . S
C878 C887 1.429 . S
C879 C877 1.419 . S
C879 C880 1.363 . S
C879 H882 0.929 . S
C880 C879 1.363 . S
C880 C886 1.428 . S
H881 C877 0.930 . S
H882 C879 0.929 . S
S883 N884 1.613 . S
S883 N885 1.610 . S
N884 S883 1.613 . S
N884 C887 1.350 . S
N885 S883 1.610 . S
N885 C886 1.351 . S
C886 C880 1.428 . S
C886 N885 1.351 . S
C886 C887 1.434 . S
C887 C878 1.429 . S
C887 N884 1.350 . S
C887 C886 1.434 . S
C888 C889 1.369 . S
C888 C890 1.419 . S
C888 H892 0.930 . S
C889 C888 1.369 . S
C889 C898 1.432 . S
C890 C888 1.419 . S
C890 C891 1.363 1_655 S
C890 H893 0.929 . S
C891 C890 1.363 1_455 S
C891 C897 1.428 . S
H892 C888 0.930 . S
H893 C890 0.929 . S
S894 N895 1.606 1_455 S
S894 N896 1.610 . S
N895 S894 1.606 1_655 S
N895 C898 1.350 . S
N896 S894 1.610 . S
N896 C897 1.351 . S
C897 C891 1.428 . S
C897 N896 1.351 . S
C897 C898 1.431 1_455 S
C898 C889 1.432 . S
C898 N895 1.350 . S
C898 C897 1.431 1_655 S
C899 C900 1.369 . S
C899 C901 1.419 . S
C899 H903 0.930 . S
C900 C899 1.369 . S
C900 C909 1.429 1_565 S
C901 C899 1.419 . S
C901 C902 1.363 1_565 S
C901 H904 0.929 . S
C902 C901 1.363 1_545 S
C902 C908 1.428 . S
H903 C899 0.930 . S
H904 C901 0.929 . S
S905 N906 1.613 . S
S905 N907 1.610 . S
N906 S905 1.613 . S
N906 C909 1.350 . S
N907 S905 1.610 . S
N907 C908 1.351 . S
C908 C902 1.428 . S
C908 N907 1.351 . S
C908 C909 1.434 . S
C909 C900 1.429 1_545 S
C909 N906 1.350 . S
C909 C908 1.434 . S
C910 C911 1.369 1_455 S
C910 C912 1.419 . S
C910 H914 0.930 . S
C911 C910 1.369 1_655 S
C911 C920 1.429 . S
C912 C910 1.419 . S
C912 C913 1.363 . S
C912 H915 0.929 . S
C913 C912 1.363 . S
C913 C919 1.428 1_455 S
H914 C910 0.930 . S
H915 C912 0.929 . S
S916 N917 1.613 . S
S916 N918 1.610 . S
N917 S916 1.613 . S
N917 C920 1.350 . S
N918 S916 1.610 . S
N918 C919 1.351 . S
C919 C913 1.428 1_655 S
C919 N918 1.351 . S
C919 C920 1.434 . S
C920 C911 1.429 . S
C920 N917 1.350 . S
C920 C919 1.434 . S
C921 C922 1.369 . S
C921 C923 1.419 . S
C921 H925 0.930 . S
C922 C921 1.369 . S
C922 C931 1.429 1_545 S
C923 C921 1.419 . S
C923 C924 1.363 1_545 S
C923 H926 0.929 . S
C924 C923 1.363 1_565 S
C924 C930 1.428 . S
H925 C921 0.930 . S
H926 C923 0.929 . S
S927 N928 1.613 . S
S927 N929 1.610 . S
N928 S927 1.613 . S
N928 C931 1.350 . S
N929 S927 1.610 . S
N929 C930 1.351 . S
C930 C924 1.428 . S
C930 N929 1.351 . S
C930 C931 1.434 . S
C931 C922 1.429 1_565 S
C931 N928 1.350 . S
C931 C930 1.434 . S
C932 C933 1.369 1_655 S
C932 C934 1.419 . S
C932 H936 0.930 . S
C933 C932 1.369 1_455 S
C933 C942 1.429 . S
C934 C932 1.419 . S
C934 C935 1.363 . S
C934 H937 0.929 . S
C935 C934 1.363 . S
C935 C941 1.428 1_655 S
H936 C932 0.930 . S
H937 C934 0.929 . S
S938 N939 1.613 . S
S938 N940 1.610 . S
N939 S938 1.613 . S
N939 C942 1.350 . S
N940 S938 1.610 . S
N940 C941 1.351 . S
C941 C935 1.428 1_455 S
C941 N940 1.351 . S
C941 C942 1.434 . S
C942 C933 1.429 . S
C942 N939 1.350 . S
C942 C941 1.434 . S
C943 C944 1.369 1_545 S
C943 C945 1.419 . S
C943 H947 0.930 . S
C944 C943 1.369 1_565 S
C944 C953 1.429 . S
C945 C943 1.419 . S
C945 C946 1.363 . S
C945 H948 0.929 . S
C946 C945 1.363 . S
C946 C952 1.428 1_545 S
H947 C943 0.930 . S
H948 C945 0.929 . S
S949 N950 1.613 . S
S949 N951 1.610 . S
N950 S949 1.613 . S
N950 C953 1.350 . S
N951 S949 1.610 . S
N951 C952 1.351 . S
C952 C946 1.428 1_565 S
C952 N951 1.351 . S
C952 C953 1.434 . S
C953 C944 1.429 . S
C953 N950 1.350 . S
C953 C952 1.434 . S
C954 C955 1.369 1_655 S
C954 C956 1.419 . S
C954 H958 0.930 . S
C955 C954 1.369 1_455 S
C955 C964 1.429 . S
C956 C954 1.419 . S
C956 C957 1.363 . S
C956 H959 0.929 . S
C957 C956 1.363 . S
C957 C963 1.428 1_655 S
H958 C954 0.930 . S
H959 C956 0.929 . S
S960 N961 1.613 . S
S960 N962 1.610 . S
N961 S960 1.613 . S
N961 C964 1.350 . S
N962 S960 1.610 . S
N962 C963 1.351 . S
C963 C957 1.428 1_455 S
C963 N962 1.351 . S
C963 C964 1.434 . S
C964 C955 1.429 . S
C964 N961 1.350 . S
C964 C963 1.434 . S
C965 C966 1.369 . S
C965 C967 1.419 . S
C965 H969 0.930 . S
C966 C965 1.369 . S
C966 C975 1.429 1_545 S
C967 C965 1.419 . S
C967 C968 1.363 1_545 S
C967 H970 0.929 . S
C968 C967 1.363 1_565 S
C968 C974 1.428 . S
H969 C965 0.930 . S
H970 C967 0.929 . S
S971 N972 1.613 . S
S971 N973 1.610 . S
N972 S971 1.613 . S
N972 C975 1.350 . S
N973 S971 1.610 . S
N973 C974 1.351 . S
C974 C968 1.428 . S
C974 N973 1.351 . S
C974 C975 1.434 . S
C975 C966 1.429 1_565 S
C975 N972 1.350 . S
C975 C974 1.434 . S
C976 C977 1.369 . S
C976 C978 1.419 . S
C976 H980 0.930 . S
C977 C976 1.369 . S
C977 C986 1.429 1_556 S
C978 C976 1.419 . S
C978 C979 1.363 1_556 S
C978 H981 0.929 . S
C979 C978 1.363 1_554 S
C979 C985 1.428 . S
H980 C976 0.930 . S
H981 C978 0.929 . S
S982 N983 1.613 . S
S982 N984 1.610 . S
N983 S982 1.613 . S
N983 C986 1.350 . S
N984 S982 1.610 . S
N984 C985 1.351 . S
C985 C979 1.428 . S
C985 N984 1.351 . S
C985 C986 1.434 . S
C986 C977 1.429 1_554 S
C986 N983 1.350 . S
C986 C985 1.434 . S
C987 C988 1.369 . S
C987 C989 1.419 . S
C987 H991 0.930 . S
C988 C987 1.369 . S
C988 C997 1.429 . S
C989 C987 1.419 . S
C989 C990 1.363 1_554 S
C989 H992 0.929 . S
C990 C989 1.363 1_556 S
C990 C996 1.428 . S
H991 C987 0.930 . S
H992 C989 0.929 . S
S993 N994 1.613 1_556 S
S993 N995 1.610 . S
N994 S993 1.613 1_554 S
N994 C997 1.350 . S
N995 S993 1.610 . S
N995 C996 1.351 . S
C996 C990 1.428 . S
C996 N995 1.351 . S
C996 C997 1.434 1_556 S
C997 C988 1.429 . S
C997 N994 1.350 . S
C997 C996 1.434 1_554 S
C998 C999 1.369 . S
C998 C1000 1.419 . S
C998 H1002 0.930 . S
C999 C998 1.369 . S
C999 C1008 1.429 1_554 S
C1000 C998 1.419 . S
C1000 C1001 1.363 1_554 S
C1000 H1003 0.929 . S
C1001 C1000 1.363 1_556 S
C1001 C1007 1.428 . S
H1002 C998 0.930 . S
H1003 C1000 0.929 . S
S1004 N1005 1.613 . S
S1004 N1006 1.610 . S
N1005 S1004 1.613 . S
N1005 C1008 1.350 . S
N1006 S1004 1.610 . S
N1006 C1007 1.351 . S
C1007 C1001 1.428 . S
C1007 N1006 1.351 . S
C1007 C1008 1.434 . S
C1008 C999 1.429 1_556 S
C1008 N1005 1.350 . S
C1008 C1007 1.434 . S
C1009 C1010 1.369 . S
C1009 C1011 1.419 . S
C1009 H1013 0.930 . S
C1010 C1009 1.369 . S
C1010 C1019 1.429 1_556 S
C1011 C1009 1.419 . S
C1011 C1012 1.363 1_556 S
C1011 H1014 0.929 . S
C1012 C1011 1.363 1_554 S
C1012 C1018 1.428 . S
H1013 C1009 0.930 . S
H1014 C1011 0.929 . S
S1015 N1016 1.613 . S
S1015 N1017 1.610 . S
N1016 S1015 1.613 . S
N1016 C1019 1.350 . S
N1017 S1015 1.610 . S
N1017 C1018 1.351 . S
C1018 C1012 1.428 . S
C1018 N1017 1.351 . S
C1018 C1019 1.434 . S
C1019 C1010 1.429 1_554 S
C1019 N1016 1.350 . S
C1019 C1018 1.434 . S
C1020 C1021 1.369 . S
C1020 C1022 1.419 . S
C1020 H1024 0.930 . S
C1021 C1020 1.369 . S
C1021 C1030 1.429 . S
C1022 C1020 1.419 . S
C1022 C1023 1.363 . S
C1022 H1025 0.929 . S
C1023 C1022 1.363 . S
C1023 C1029 1.428 . S
H1024 C1020 0.930 . S
H1025 C1022 0.929 . S
S1026 N1027 1.613 . S
S1026 N1028 1.610 . S
N1027 S1026 1.613 . S
N1027 C1030 1.350 . S
N1028 S1026 1.610 . S
N1028 C1029 1.351 . S
C1029 C1023 1.428 . S
C1029 N1028 1.351 . S
C1029 C1030 1.434 . S
C1030 C1021 1.429 . S
C1030 N1027 1.350 . S
C1030 C1029 1.434 . S
C1031 C1032 1.369 . S
C1031 C1033 1.419 . S
C1031 H1035 0.930 . S
C1032 C1031 1.369 . S
C1032 C1041 1.429 . S
C1033 C1031 1.419 . S
C1033 C1034 1.363 . S
C1033 H1036 0.929 . S
C1034 C1033 1.363 . S
C1034 C1040 1.428 . S
H1035 C1031 0.930 . S
H1036 C1033 0.929 . S
S1037 N1038 1.613 . S
S1037 N1039 1.610 . S
N1038 S1037 1.613 . S
N1038 C1041 1.350 . S
N1039 S1037 1.610 . S
N1039 C1040 1.351 . S
C1040 C1034 1.428 . S
C1040 N1039 1.351 . S
C1040 C1041 1.434 . S
C1041 C1032 1.429 . S
C1041 N1038 1.350 . S
C1041 C1040 1.434 . S
C1042 C1043 1.369 . S
C1042 C1044 1.419 . S
C1042 H1046 0.930 . S
C1043 C1042 1.369 . S
C1043 C1052 1.429 . S
C1044 C1042 1.419 . S
C1044 C1045 1.363 . S
C1044 H1047 0.929 . S
C1045 C1044 1.363 . S
C1045 C1051 1.428 . S
H1046 C1042 0.930 . S
H1047 C1044 0.929 . S
S1048 N1049 1.613 . S
S1048 N1050 1.610 . S
N1049 S1048 1.613 . S
N1049 C1052 1.350 . S
N1050 S1048 1.610 . S
N1050 C1051 1.351 . S
C1051 C1045 1.428 . S
C1051 N1050 1.351 . S
C1051 C1052 1.434 . S
C1052 C1043 1.429 . S
C1052 N1049 1.350 . S
C1052 C1051 1.434 . S
C1053 C1054 1.369 . S
C1053 C1055 1.419 . S
C1053 H1057 0.930 . S
C1054 C1053 1.369 . S
C1054 C1063 1.429 . S
C1055 C1053 1.419 . S
C1055 C1056 1.363 . S
C1055 H1058 0.929 . S
C1056 C1055 1.363 . S
C1056 C1062 1.428 . S
H1057 C1053 0.930 . S
H1058 C1055 0.929 . S
S1059 N1060 1.613 . S
S1059 N1061 1.610 . S
N1060 S1059 1.613 . S
N1060 C1063 1.350 . S
N1061 S1059 1.610 . S
N1061 C1062 1.351 . S
C1062 C1056 1.428 . S
C1062 N1061 1.351 . S
C1062 C1063 1.434 . S
C1063 C1054 1.429 . S
C1063 N1060 1.350 . S
C1063 C1062 1.434 . S
C1064 C1065 1.369 . S
C1064 C1066 1.419 . S
C1064 H1068 0.930 . S
C1065 C1064 1.369 . S
C1065 C1074 1.429 . S
C1066 C1064 1.419 . S
C1066 C1067 1.363 . S
C1066 H1069 0.929 . S
C1067 C1066 1.363 . S
C1067 C1073 1.428 . S
H1068 C1064 0.930 . S
H1069 C1066 0.929 . S
S1070 N1071 1.613 . S
S1070 N1072 1.610 . S
N1071 S1070 1.613 . S
N1071 C1074 1.350 . S
N1072 S1070 1.610 . S
N1072 C1073 1.351 . S
C1073 C1067 1.428 . S
C1073 N1072 1.351 . S
C1073 C1074 1.434 . S
C1074 C1065 1.429 . S
C1074 N1071 1.350 . S
C1074 C1073 1.434 . S
C1075 C1076 1.369 . S
C1075 C1077 1.419 . S
C1075 H1079 0.930 . S
C1076 C1075 1.369 . S
C1076 C1085 1.429 . S
C1077 C1075 1.419 . S
C1077 C1078 1.363 . S
C1077 H1080 0.929 . S
C1078 C1077 1.363 . S
C1078 C1084 1.428 . S
H1079 C1075 0.930 . S
H1080 C1077 0.929 . S
S1081 N1082 1.613 . S
S1081 N1083 1.610 . S
N1082 S1081 1.613 . S
N1082 C1085 1.350 . S
N1083 S1081 1.610 . S
N1083 C1084 1.351 . S
C1084 C1078 1.428 . S
C1084 N1083 1.351 . S
C1084 C1085 1.434 . S
C1085 C1076 1.429 . S
C1085 N1082 1.350 . S
C1085 C1084 1.434 . S
C1086 C1087 1.369 . S
C1086 C1088 1.419 . S
C1086 H1090 0.930 . S
C1087 C1086 1.369 . S
C1087 C1096 1.429 . S
C1088 C1086 1.419 . S
C1088 C1089 1.363 . S
C1088 H1091 0.929 . S
C1089 C1088 1.363 . S
C1089 C1095 1.428 . S
H1090 C1086 0.930 . S
H1091 C1088 0.929 . S
S1092 N1093 1.613 . S
S1092 N1094 1.610 . S
N1093 S1092 1.613 . S
N1093 C1096 1.350 . S
N1094 S1092 1.610 . S
N1094 C1095 1.351 . S
C1095 C1089 1.428 . S
C1095 N1094 1.351 . S
C1095 C1096 1.434 . S
C1096 C1087 1.429 . S
C1096 N1093 1.350 . S
C1096 C1095 1.434 . S
C1097 C1098 1.369 . S
C1097 C1099 1.419 . S
C1097 H1101 0.930 . S
C1098 C1097 1.369 . S
C1098 C1107 1.429 . S
C1099 C1097 1.419 . S
C1099 C1100 1.363 . S
C1099 H1102 0.929 . S
C1100 C1099 1.363 . S
C1100 C1106 1.428 . S
H1101 C1097 0.930 . S
H1102 C1099 0.929 . S
S1103 N1104 1.613 . S
S1103 N1105 1.610 . S
N1104 S1103 1.613 . S
N1104 C1107 1.350 . S
N1105 S1103 1.610 . S
N1105 C1106 1.351 . S
C1106 C1100 1.428 . S
C1106 N1105 1.351 . S
C1106 C1107 1.434 . S
C1107 C1098 1.429 . S
C1107 N1104 1.350 . S
C1107 C1106 1.434 . S
C1108 C1109 1.369 . S
C1108 C1110 1.419 . S
C1108 H1112 0.930 . S
C1109 C1108 1.369 . S
C1109 C1118 1.429 . S
C1110 C1108 1.419 . S
C1110 C1111 1.363 . S
C1110 H1113 0.929 . S
C1111 C1110 1.363 . S
C1111 C1117 1.428 . S
H1112 C1108 0.930 . S
H1113 C1110 0.929 . S
S1114 N1115 1.613 . S
S1114 N1116 1.610 . S
N1115 S1114 1.613 . S
N1115 C1118 1.350 . S
N1116 S1114 1.610 . S
N1116 C1117 1.351 . S
C1117 C1111 1.428 . S
C1117 N1116 1.351 . S
C1117 C1118 1.434 . S
C1118 C1109 1.429 . S
C1118 N1115 1.350 . S
C1118 C1117 1.434 . S
C1119 C1120 1.369 . S
C1119 C1121 1.419 . S
C1119 H1123 0.930 . S
C1120 C1119 1.369 . S
C1120 C1129 1.429 . S
C1121 C1119 1.419 . S
C1121 C1122 1.363 . S
C1121 H1124 0.929 . S
C1122 C1121 1.363 . S
C1122 C1128 1.428 . S
H1123 C1119 0.930 . S
H1124 C1121 0.929 . S
S1125 N1126 1.613 . S
S1125 N1127 1.610 . S
N1126 S1125 1.613 . S
N1126 C1129 1.350 . S
N1127 S1125 1.610 . S
N1127 C1128 1.351 . S
C1128 C1122 1.428 . S
C1128 N1127 1.351 . S
C1128 C1129 1.434 . S
C1129 C1120 1.429 . S
C1129 N1126 1.350 . S
C1129 C1128 1.434 . S
C1130 C1131 1.369 . S
C1130 C1132 1.419 . S
C1130 H1134 0.930 . S
C1131 C1130 1.369 . S
C1131 C1140 1.429 . S
C1132 C1130 1.419 . S
C1132 C1133 1.363 . S
C1132 H1135 0.929 . S
C1133 C1132 1.363 . S
C1133 C1139 1.428 . S
H1134 C1130 0.930 . S
H1135 C1132 0.929 . S
S1136 N1137 1.613 . S
S1136 N1138 1.610 . S
N1137 S1136 1.613 . S
N1137 C1140 1.350 . S
N1138 S1136 1.610 . S
N1138 C1139 1.351 . S
C1139 C1133 1.428 . S
C1139 N1138 1.351 . S
C1139 C1140 1.434 . S
C1140 C1131 1.429 . S
C1140 N1137 1.350 . S
C1140 C1139 1.434 . S
C1141 C1142 1.369 . S
C1141 C1143 1.419 . S
C1141 H1145 0.930 . S
C1142 C1141 1.369 . S
C1142 C1151 1.429 . S
C1143 C1141 1.419 . S
C1143 C1144 1.363 . S
C1143 H1146 0.929 . S
C1144 C1143 1.363 . S
C1144 C1150 1.428 . S
H1145 C1141 0.930 . S
H1146 C1143 0.929 . S
S1147 N1148 1.613 . S
S1147 N1149 1.610 . S
N1148 S1147 1.613 . S
N1148 C1151 1.350 . S
N1149 S1147 1.610 . S
N1149 C1150 1.351 . S
C1150 C1144 1.428 . S
C1150 N1149 1.351 . S
C1150 C1151 1.434 . S
C1151 C1142 1.429 . S
C1151 N1148 1.350 . S
C1151 C1150 1.434 . S
C1152 C1153 1.369 . S
C1152 C1154 1.419 . S
C1152 H1156 0.930 . S
C1153 C1152 1.369 . S
C1153 C1162 1.429 . S
C1154 C1152 1.419 . S
C1154 C1155 1.363 . S
C1154 H1157 0.929 . S
C1155 C1154 1.363 . S
C1155 C1161 1.428 . S
H1156 C1152 0.930 . S
H1157 C1154 0.929 . S
S1158 N1159 1.613 . S
S1158 N1160 1.610 . S
N1159 S1158 1.613 . S
N1159 C1162 1.350 . S
N1160 S1158 1.610 . S
N1160 C1161 1.351 . S
C1161 C1155 1.428 . S
C1161 N1160 1.351 . S
C1161 C1162 1.434 . S
C1162 C1153 1.429 . S
C1162 N1159 1.350 . S
C1162 C1161 1.434 . S
C1163 C1164 1.369 . S
C1163 C1165 1.419 . S
C1163 H1167 0.930 . S
C1164 C1163 1.369 . S
C1164 C1173 1.429 . S
C1165 C1163 1.419 . S
C1165 C1166 1.363 . S
C1165 H1168 0.929 . S
C1166 C1165 1.363 . S
C1166 C1172 1.428 . S
H1167 C1163 0.930 . S
H1168 C1165 0.929 . S
S1169 N1170 1.613 . S
S1169 N1171 1.610 . S
N1170 S1169 1.613 . S
N1170 C1173 1.350 . S
N1171 S1169 1.610 . S
N1171 C1172 1.351 . S
C1172 C1166 1.428 . S
C1172 N1171 1.351 . S
C1172 C1173 1.434 . S
C1173 C1164 1.429 . S
C1173 N1170 1.350 . S
C1173 C1172 1.434 . S
C1174 C1175 1.369 . S
C1174 C1176 1.419 . S
C1174 H1178 0.930 . S
C1175 C1174 1.369 . S
C1175 C1184 1.429 . S
C1176 C1174 1.419 . S
C1176 C1177 1.363 . S
C1176 H1179 0.929 . S
C1177 C1176 1.363 . S
C1177 C1183 1.428 . S
H1178 C1174 0.930 . S
H1179 C1176 0.929 . S
S1180 N1181 1.613 . S
S1180 N1182 1.610 . S
N1181 S1180 1.613 . S
N1181 C1184 1.350 . S
N1182 S1180 1.610 . S
N1182 C1183 1.351 . S
C1183 C1177 1.428 . S
C1183 N1182 1.351 . S
C1183 C1184 1.434 . S
C1184 C1175 1.429 . S
C1184 N1181 1.350 . S
C1184 C1183 1.434 . S
C1185 C1186 1.369 . S
C1185 C1187 1.419 . S
C1185 H1189 0.930 . S
C1186 C1185 1.369 . S
C1186 C1195 1.429 . S
C1187 C1185 1.419 . S
C1187 C1188 1.363 . S
C1187 H1190 0.929 . S
C1188 C1187 1.363 . S
C1188 C1194 1.428 . S
H1189 C1185 0.930 . S
H1190 C1187 0.929 . S
S1191 N1192 1.613 . S
S1191 N1193 1.610 . S
N1192 S1191 1.613 . S
N1192 C1195 1.350 . S
N1193 S1191 1.610 . S
N1193 C1194 1.351 . S
C1194 C1188 1.428 . S
C1194 N1193 1.351 . S
C1194 C1195 1.434 . S
C1195 C1186 1.429 . S
C1195 N1192 1.350 . S
C1195 C1194 1.434 . S
C1196 C1197 1.369 . S
C1196 C1198 1.419 . S
C1196 H1200 0.930 . S
C1197 C1196 1.369 . S
C1197 C1206 1.429 . S
C1198 C1196 1.419 . S
C1198 C1199 1.363 . S
C1198 H1201 0.929 . S
C1199 C1198 1.363 . S
C1199 C1205 1.428 . S
H1200 C1196 0.930 . S
H1201 C1198 0.929 . S
S1202 N1203 1.613 . S
S1202 N1204 1.610 . S
N1203 S1202 1.613 . S
N1203 C1206 1.350 . S
N1204 S1202 1.610 . S
N1204 C1205 1.351 . S
C1205 C1199 1.428 . S
C1205 N1204 1.351 . S
C1205 C1206 1.434 . S
C1206 C1197 1.429 . S
C1206 N1203 1.350 . S
C1206 C1205 1.434 . S
C1207 C1208 1.369 . S
C1207 C1209 1.419 . S
C1207 H1211 0.930 . S
C1208 C1207 1.369 . S
C1208 C1217 1.429 . S
C1209 C1207 1.419 . S
C1209 C1210 1.363 . S
C1209 H1212 0.929 . S
C1210 C1209 1.363 . S
C1210 C1216 1.428 . S
H1211 C1207 0.930 . S
H1212 C1209 0.929 . S
S1213 N1214 1.613 . S
S1213 N1215 1.610 . S
N1214 S1213 1.613 . S
N1214 C1217 1.350 . S
N1215 S1213 1.610 . S
N1215 C1216 1.351 . S
C1216 C1210 1.428 . S
C1216 N1215 1.351 . S
C1216 C1217 1.434 . S
C1217 C1208 1.429 . S
C1217 N1214 1.350 . S
C1217 C1216 1.434 . S
C1218 C1219 1.369 . S
C1218 C1220 1.419 . S
C1218 H1222 0.930 . S
C1219 C1218 1.369 . S
C1219 C1228 1.429 . S
C1220 C1218 1.419 . S
C1220 C1221 1.363 . S
C1220 H1223 0.929 . S
C1221 C1220 1.363 . S
C1221 C1227 1.428 . S
H1222 C1218 0.930 . S
H1223 C1220 0.929 . S
S1224 N1225 1.613 . S
S1224 N1226 1.610 . S
N1225 S1224 1.613 . S
N1225 C1228 1.350 . S
N1226 S1224 1.610 . S
N1226 C1227 1.351 . S
C1227 C1221 1.428 . S
C1227 N1226 1.351 . S
C1227 C1228 1.434 . S
C1228 C1219 1.429 . S
C1228 N1225 1.350 . S
C1228 C1227 1.434 . S
C1229 C1230 1.369 . S
C1229 C1231 1.419 . S
C1229 H1233 0.930 . S
C1230 C1229 1.369 . S
C1230 C1239 1.429 . S
C1231 C1229 1.419 . S
C1231 C1232 1.363 . S
C1231 H1234 0.929 . S
C1232 C1231 1.363 . S
C1232 C1238 1.428 . S
H1233 C1229 0.930 . S
H1234 C1231 0.929 . S
S1235 N1236 1.613 . S
S1235 N1237 1.610 . S
N1236 S1235 1.613 . S
N1236 C1239 1.350 . S
N1237 S1235 1.610 . S
N1237 C1238 1.351 . S
C1238 C1232 1.428 . S
C1238 N1237 1.351 . S
C1238 C1239 1.434 . S
C1239 C1230 1.429 . S
C1239 N1236 1.350 . S
C1239 C1238 1.434 . S
C1240 C1241 1.369 . S
C1240 C1242 1.419 . S
C1240 H1244 0.930 . S
C1241 C1240 1.369 . S
C1241 C1250 1.429 . S
C1242 C1240 1.419 . S
C1242 C1243 1.363 . S
C1242 H1245 0.929 . S
C1243 C1242 1.363 . S
C1243 C1249 1.428 . S
H1244 C1240 0.930 . S
H1245 C1242 0.929 . S
S1246 N1247 1.613 . S
S1246 N1248 1.610 . S
N1247 S1246 1.613 . S
N1247 C1250 1.350 . S
N1248 S1246 1.610 . S
N1248 C1249 1.351 . S
C1249 C1243 1.428 . S
C1249 N1248 1.351 . S
C1249 C1250 1.434 . S
C1250 C1241 1.429 . S
C1250 N1247 1.350 . S
C1250 C1249 1.434 . S
C1251 C1252 1.369 . S
C1251 C1253 1.419 . S
C1251 H1255 0.930 . S
C1252 C1251 1.369 . S
C1252 C1261 1.429 . S
C1253 C1251 1.419 . S
C1253 C1254 1.363 . S
C1253 H1256 0.929 . S
C1254 C1253 1.363 . S
C1254 C1260 1.428 . S
H1255 C1251 0.930 . S
H1256 C1253 0.929 . S
S1257 N1258 1.613 . S
S1257 N1259 1.610 . S
N1258 S1257 1.613 . S
N1258 C1261 1.350 . S
N1259 S1257 1.610 . S
N1259 C1260 1.351 . S
C1260 C1254 1.428 . S
C1260 N1259 1.351 . S
C1260 C1261 1.434 . S
C1261 C1252 1.429 . S
C1261 N1258 1.350 . S
C1261 C1260 1.434 . S
C1262 C1263 1.369 . S
C1262 C1264 1.419 . S
C1262 H1266 0.930 . S
C1263 C1262 1.369 . S
C1263 C1272 1.429 . S
C1264 C1262 1.419 . S
C1264 C1265 1.363 . S
C1264 H1267 0.929 . S
C1265 C1264 1.363 . S
C1265 C1271 1.428 . S
H1266 C1262 0.930 . S
H1267 C1264 0.929 . S
S1268 N1269 1.613 . S
S1268 N1270 1.610 . S
N1269 S1268 1.613 . S
N1269 C1272 1.350 . S
N1270 S1268 1.610 . S
N1270 C1271 1.351 . S
C1271 C1265 1.428 . S
C1271 N1270 1.351 . S
C1271 C1272 1.434 . S
C1272 C1263 1.429 . S
C1272 N1269 1.350 . S
C1272 C1271 1.434 . S
C1273 C1274 1.369 . S
C1273 C1275 1.419 . S
C1273 H1277 0.930 . S
C1274 C1273 1.369 . S
C1274 C1283 1.429 . S
C1275 C1273 1.419 . S
C1275 C1276 1.363 . S
C1275 H1278 0.929 . S
C1276 C1275 1.363 . S
C1276 C1282 1.428 . S
H1277 C1273 0.930 . S
H1278 C1275 0.929 . S
S1279 N1280 1.613 . S
S1279 N1281 1.610 . S
N1280 S1279 1.613 . S
N1280 C1283 1.350 . S
N1281 S1279 1.610 . S
N1281 C1282 1.351 . S
C1282 C1276 1.428 . S
C1282 N1281 1.351 . S
C1282 C1283 1.434 . S
C1283 C1274 1.429 . S
C1283 N1280 1.350 . S
C1283 C1282 1.434 . S
C1284 C1285 1.369 . S
C1284 C1286 1.419 . S
C1284 H1288 0.930 . S
C1285 C1284 1.369 . S
C1285 C1294 1.429 . S
C1286 C1284 1.419 . S
C1286 C1287 1.363 . S
C1286 H1289 0.929 . S
C1287 C1286 1.363 . S
C1287 C1293 1.428 . S
H1288 C1284 0.930 . S
H1289 C1286 0.929 . S
S1290 N1291 1.613 . S
S1290 N1292 1.610 . S
N1291 S1290 1.613 . S
N1291 C1294 1.350 . S
N1292 S1290 1.610 . S
N1292 C1293 1.351 . S
C1293 C1287 1.428 . S
C1293 N1292 1.351 . S
C1293 C1294 1.434 . S
C1294 C1285 1.429 . S
C1294 N1291 1.350 . S
C1294 C1293 1.434 . S
C1295 C1296 1.369 . S
C1295 C1297 1.419 . S
C1295 H1299 0.930 . S
C1296 C1295 1.369 . S
C1296 C1305 1.429 . S
C1297 C1295 1.419 . S
C1297 C1298 1.363 . S
C1297 H1300 0.929 . S
C1298 C1297 1.363 . S
C1298 C1304 1.428 . S
H1299 C1295 0.930 . S
H1300 C1297 0.929 . S
S1301 N1302 1.613 . S
S1301 N1303 1.610 . S
N1302 S1301 1.613 . S
N1302 C1305 1.350 . S
N1303 S1301 1.610 . S
N1303 C1304 1.351 . S
C1304 C1298 1.428 . S
C1304 N1303 1.351 . S
C1304 C1305 1.434 . S
C1305 C1296 1.429 . S
C1305 N1302 1.350 . S
C1305 C1304 1.434 . S
C1306 C1307 1.369 . S
C1306 C1308 1.419 . S
C1306 H1310 0.930 . S
C1307 C1306 1.369 . S
C1307 C1316 1.429 . S
C1308 C1306 1.419 . S
C1308 C1309 1.363 . S
C1308 H1311 0.929 . S
C1309 C1308 1.363 . S
C1309 C1315 1.428 . S
H1310 C1306 0.930 . S
H1311 C1308 0.929 . S
S1312 N1313 1.613 . S
S1312 N1314 1.610 . S
N1313 S1312 1.613 . S
N1313 C1316 1.350 . S
N1314 S1312 1.610 . S
N1314 C1315 1.351 . S
C1315 C1309 1.428 . S
C1315 N1314 1.351 . S
C1315 C1316 1.434 . S
C1316 C1307 1.429 . S
C1316 N1313 1.350 . S
C1316 C1315 1.434 . S
C1317 C1318 1.369 . S
C1317 C1319 1.419 . S
C1317 H1321 0.930 . S
C1318 C1317 1.369 . S
C1318 C1327 1.429 . S
C1319 C1317 1.419 . S
C1319 C1320 1.363 . S
C1319 H1322 0.929 . S
C1320 C1319 1.363 . S
C1320 C1326 1.428 . S
H1321 C1317 0.930 . S
H1322 C1319 0.929 . S
S1323 N1324 1.613 . S
S1323 N1325 1.610 . S
N1324 S1323 1.613 . S
N1324 C1327 1.350 . S
N1325 S1323 1.610 . S
N1325 C1326 1.351 . S
C1326 C1320 1.428 . S
C1326 N1325 1.351 . S
C1326 C1327 1.434 . S
C1327 C1318 1.429 . S
C1327 N1324 1.350 . S
C1327 C1326 1.434 . S
C1328 C1329 1.369 . S
C1328 C1330 1.419 . S
C1328 H1332 0.930 . S
C1329 C1328 1.369 . S
C1329 C1338 1.429 . S
C1330 C1328 1.419 . S
C1330 C1331 1.363 . S
C1330 H1333 0.929 . S
C1331 C1330 1.363 . S
C1331 C1337 1.428 . S
H1332 C1328 0.930 . S
H1333 C1330 0.929 . S
S1334 N1335 1.613 . S
S1334 N1336 1.610 . S
N1335 S1334 1.613 . S
N1335 C1338 1.350 . S
N1336 S1334 1.610 . S
N1336 C1337 1.351 . S
C1337 C1331 1.428 . S
C1337 N1336 1.351 . S
C1337 C1338 1.434 . S
C1338 C1329 1.429 . S
C1338 N1335 1.350 . S
C1338 C1337 1.434 . S
C1339 C1340 1.369 . S
C1339 C1341 1.419 . S
C1339 H1343 0.930 . S
C1340 C1339 1.369 . S
C1340 C1349 1.429 . S
C1341 C1339 1.419 . S
C1341 C1342 1.363 . S
C1341 H1344 0.929 . S
C1342 C1341 1.363 . S
C1342 C1348 1.428 . S
H1343 C1339 0.930 . S
H1344 C1341 0.929 . S
S1345 N1346 1.613 . S
S1345 N1347 1.610 . S
N1346 S1345 1.613 . S
N1346 C1349 1.350 . S
N1347 S1345 1.610 . S
N1347 C1348 1.351 . S
C1348 C1342 1.428 . S
C1348 N1347 1.351 . S
C1348 C1349 1.434 . S
C1349 C1340 1.429 . S
C1349 N1346 1.350 . S
C1349 C1348 1.434 . S
C1350 C1351 1.369 . S
C1350 C1352 1.419 . S
C1350 H1354 0.930 . S
C1351 C1350 1.369 . S
C1351 C1360 1.429 . S
C1352 C1350 1.419 . S
C1352 C1353 1.363 . S
C1352 H1355 0.929 . S
C1353 C1352 1.363 . S
C1353 C1359 1.428 . S
H1354 C1350 0.930 . S
H1355 C1352 0.929 . S
S1356 N1357 1.613 . S
S1356 N1358 1.610 . S
N1357 S1356 1.613 . S
N1357 C1360 1.350 . S
N1358 S1356 1.610 . S
N1358 C1359 1.351 . S
C1359 C1353 1.428 . S
C1359 N1358 1.351 . S
C1359 C1360 1.434 . S
C1360 C1351 1.429 . S
C1360 N1357 1.350 . S
C1360 C1359 1.434 . S
C1361 C1362 1.369 . S
C1361 C1363 1.419 . S
C1361 H1365 0.930 . S
C1362 C1361 1.369 . S
C1362 C1371 1.429 . S
C1363 C1361 1.419 . S
C1363 C1364 1.363 . S
C1363 H1366 0.929 . S
C1364 C1363 1.363 . S
C1364 C1370 1.428 . S
H1365 C1361 0.930 . S
H1366 C1363 0.929 . S
S1367 N1368 1.613 . S
S1367 N1369 1.610 . S
N1368 S1367 1.613 . S
N1368 C1371 1.350 . S
N1369 S1367 1.610 . S
N1369 C1370 1.351 . S
C1370 C1364 1.428 . S
C1370 N1369 1.351 . S
C1370 C1371 1.434 . S
C1371 C1362 1.429 . S
C1371 N1368 1.350 . S
C1371 C1370 1.434 . S
C1372 C1373 1.369 . S
C1372 C1374 1.419 . S
C1372 H1376 0.930 . S
C1373 C1372 1.369 . S
C1373 C1382 1.429 . S
C1374 C1372 1.419 . S
C1374 C1375 1.363 . S
C1374 H1377 0.929 . S
C1375 C1374 1.363 . S
C1375 C1381 1.428 . S
H1376 C1372 0.930 . S
H1377 C1374 0.929 . S
S1378 N1379 1.613 . S
S1378 N1380 1.610 . S
N1379 S1378 1.613 . S
N1379 C1382 1.350 . S
N1380 S1378 1.610 . S
N1380 C1381 1.351 . S
C1381 C1375 1.428 . S
C1381 N1380 1.351 . S
C1381 C1382 1.434 . S
C1382 C1373 1.429 . S
C1382 N1379 1.350 . S
C1382 C1381 1.434 . S
C1383 C1384 1.369 . S
C1383 C1385 1.419 . S
C1383 H1387 0.930 . S
C1384 C1383 1.369 . S
C1384 C1393 1.429 . S
C1385 C1383 1.419 . S
C1385 C1386 1.363 . S
C1385 H1388 0.929 . S
C1386 C1385 1.363 . S
C1386 C1392 1.428 . S
H1387 C1383 0.930 . S
H1388 C1385 0.929 . S
S1389 N1390 1.613 . S
S1389 N1391 1.610 . S
N1390 S1389 1.613 . S
N1390 C1393 1.350 . S
N1391 S1389 1.610 . S
N1391 C1392 1.351 . S
C1392 C1386 1.428 . S
C1392 N1391 1.351 . S
C1392 C1393 1.434 . S
C1393 C1384 1.429 . S
C1393 N1390 1.350 . S
C1393 C1392 1.434 . S
C1394 C1395 1.369 . S
C1394 C1396 1.419 . S
C1394 H1398 0.930 . S
C1395 C1394 1.369 . S
C1395 C1404 1.429 . S
C1396 C1394 1.419 . S
C1396 C1397 1.363 . S
C1396 H1399 0.929 . S
C1397 C1396 1.363 . S
C1397 C1403 1.428 . S
H1398 C1394 0.930 . S
H1399 C1396 0.929 . S
S1400 N1401 1.613 . S
S1400 N1402 1.610 . S
N1401 S1400 1.613 . S
N1401 C1404 1.350 . S
N1402 S1400 1.610 . S
N1402 C1403 1.351 . S
C1403 C1397 1.428 . S
C1403 N1402 1.351 . S
C1403 C1404 1.434 . S
C1404 C1395 1.429 . S
C1404 N1401 1.350 . S
C1404 C1403 1.434 . S
C1405 C1406 1.369 . S
C1405 C1407 1.419 . S
C1405 H1409 0.930 . S
C1406 C1405 1.369 . S
C1406 C1415 1.429 . S
C1407 C1405 1.419 . S
C1407 C1408 1.363 . S
C1407 H1410 0.929 . S
C1408 C1407 1.363 . S
C1408 C1414 1.428 . S
H1409 C1405 0.930 . S
H1410 C1407 0.929 . S
S1411 N1412 1.613 . S
S1411 N1413 1.610 . S
N1412 S1411 1.613 . S
N1412 C1415 1.350 . S
N1413 S1411 1.610 . S
N1413 C1414 1.351 . S
C1414 C1408 1.428 . S
C1414 N1413 1.351 . S
C1414 C1415 1.434 . S
C1415 C1406 1.429 . S
C1415 N1412 1.350 . S
C1415 C1414 1.434 . S
C1416 C1417 1.369 . S
C1416 C1418 1.419 . S
C1416 H1420 0.930 . S
C1417 C1416 1.369 . S
C1417 C1426 1.429 . S
C1418 C1416 1.419 . S
C1418 C1419 1.363 . S
C1418 H1421 0.929 . S
C1419 C1418 1.363 . S
C1419 C1425 1.428 . S
H1420 C1416 0.930 . S
H1421 C1418 0.929 . S
S1422 N1423 1.613 . S
S1422 N1424 1.610 . S
N1423 S1422 1.613 . S
N1423 C1426 1.350 . S
N1424 S1422 1.610 . S
N1424 C1425 1.351 . S
C1425 C1419 1.428 . S
C1425 N1424 1.351 . S
C1425 C1426 1.434 . S
C1426 C1417 1.429 . S
C1426 N1423 1.350 . S
C1426 C1425 1.434 . S
C1427 C1428 1.369 . S
C1427 C1429 1.419 . S
C1427 H1431 0.930 . S
C1428 C1427 1.369 . S
C1428 C1437 1.429 . S
C1429 C1427 1.419 . S
C1429 C1430 1.363 . S
C1429 H1432 0.929 . S
C1430 C1429 1.363 . S
C1430 C1436 1.428 . S
H1431 C1427 0.930 . S
H1432 C1429 0.929 . S
S1433 N1434 1.613 . S
S1433 N1435 1.610 . S
N1434 S1433 1.613 . S
N1434 C1437 1.350 . S
N1435 S1433 1.610 . S
N1435 C1436 1.351 . S
C1436 C1430 1.428 . S
C1436 N1435 1.351 . S
C1436 C1437 1.434 . S
C1437 C1428 1.429 . S
C1437 N1434 1.350 . S
C1437 C1436 1.434 . S
C1438 C1439 1.369 . S
C1438 C1440 1.419 . S
C1438 H1442 0.930 . S
C1439 C1438 1.369 . S
C1439 C1448 1.429 . S
C1440 C1438 1.419 . S
C1440 C1441 1.363 . S
C1440 H1443 0.929 . S
C1441 C1440 1.363 . S
C1441 C1447 1.428 . S
H1442 C1438 0.930 . S
H1443 C1440 0.929 . S
S1444 N1445 1.613 . S
S1444 N1446 1.610 . S
N1445 S1444 1.613 . S
N1445 C1448 1.350 . S
N1446 S1444 1.610 . S
N1446 C1447 1.351 . S
C1447 C1441 1.428 . S
C1447 N1446 1.351 . S
C1447 C1448 1.434 . S
C1448 C1439 1.429 . S
C1448 N1445 1.350 . S
C1448 C1447 1.434 . S
C1449 C1450 1.369 . S
C1449 C1451 1.419 . S
C1449 H1453 0.930 . S
C1450 C1449 1.369 . S
C1450 C1459 1.429 . S
C1451 C1449 1.419 . S
C1451 C1452 1.363 . S
C1451 H1454 0.929 . S
C1452 C1451 1.363 . S
C1452 C1458 1.428 . S
H1453 C1449 0.930 . S
H1454 C1451 0.929 . S
S1455 N1456 1.613 . S
S1455 N1457 1.610 . S
N1456 S1455 1.613 . S
N1456 C1459 1.350 . S
N1457 S1455 1.610 . S
N1457 C1458 1.351 . S
C1458 C1452 1.428 . S
C1458 N1457 1.351 . S
C1458 C1459 1.434 . S
C1459 C1450 1.429 . S
C1459 N1456 1.350 . S
C1459 C1458 1.434 . S
C1460 C1461 1.369 . S
C1460 C1462 1.419 . S
C1460 H1464 0.930 . S
C1461 C1460 1.369 . S
C1461 C1470 1.429 . S
C1462 C1460 1.419 . S
C1462 C1463 1.363 . S
C1462 H1465 0.929 . S
C1463 C1462 1.363 . S
C1463 C1469 1.428 . S
H1464 C1460 0.930 . S
H1465 C1462 0.929 . S
S1466 N1467 1.613 . S
S1466 N1468 1.610 . S
N1467 S1466 1.613 . S
N1467 C1470 1.350 . S
N1468 S1466 1.610 . S
N1468 C1469 1.351 . S
C1469 C1463 1.428 . S
C1469 N1468 1.351 . S
C1469 C1470 1.434 . S
C1470 C1461 1.429 . S
C1470 N1467 1.350 . S
C1470 C1469 1.434 . S
C1471 C1472 1.369 . S
C1471 C1473 1.419 . S
C1471 H1475 0.930 . S
C1472 C1471 1.369 . S
C1472 C1481 1.429 . S
C1473 C1471 1.419 . S
C1473 C1474 1.363 . S
C1473 H1476 0.929 . S
C1474 C1473 1.363 . S
C1474 C1480 1.428 . S
H1475 C1471 0.930 . S
H1476 C1473 0.929 . S
S1477 N1478 1.613 . S
S1477 N1479 1.610 . S
N1478 S1477 1.613 . S
N1478 C1481 1.350 . S
N1479 S1477 1.610 . S
N1479 C1480 1.351 . S
C1480 C1474 1.428 . S
C1480 N1479 1.351 . S
C1480 C1481 1.434 . S
C1481 C1472 1.429 . S
C1481 N1478 1.350 . S
C1481 C1480 1.434 . S
C1482 C1483 1.369 . S
C1482 C1484 1.419 . S
C1482 H1486 0.930 . S
C1483 C1482 1.369 . S
C1483 C1492 1.429 . S
C1484 C1482 1.419 . S
C1484 C1485 1.363 . S
C1484 H1487 0.929 . S
C1485 C1484 1.363 . S
C1485 C1491 1.428 . S
H1486 C1482 0.930 . S
H1487 C1484 0.929 . S
S1488 N1489 1.613 . S
S1488 N1490 1.610 . S
N1489 S1488 1.613 . S
N1489 C1492 1.350 . S
N1490 S1488 1.610 . S
N1490 C1491 1.351 . S
C1491 C1485 1.428 . S
C1491 N1490 1.351 . S
C1491 C1492 1.434 . S
C1492 C1483 1.429 . S
C1492 N1489 1.350 . S
C1492 C1491 1.434 . S
C1493 C1494 1.369 . S
C1493 C1495 1.419 . S
C1493 H1497 0.930 . S
C1494 C1493 1.369 . S
C1494 C1503 1.429 . S
C1495 C1493 1.419 . S
C1495 C1496 1.363 . S
C1495 H1498 0.929 . S
C1496 C1495 1.363 . S
C1496 C1502 1.428 . S
H1497 C1493 0.930 . S
H1498 C1495 0.929 . S
S1499 N1500 1.613 . S
S1499 N1501 1.610 . S
N1500 S1499 1.613 . S
N1500 C1503 1.350 . S
N1501 S1499 1.610 . S
N1501 C1502 1.351 . S
C1502 C1496 1.428 . S
C1502 N1501 1.351 . S
C1502 C1503 1.434 . S
C1503 C1494 1.429 . S
C1503 N1500 1.350 . S
C1503 C1502 1.434 . S
C1504 C1505 1.369 . S
C1504 C1506 1.419 . S
C1504 H1508 0.930 . S
C1505 C1504 1.369 . S
C1505 C1514 1.429 . S
C1506 C1504 1.419 . S
C1506 C1507 1.363 . S
C1506 H1509 0.929 . S
C1507 C1506 1.363 . S
C1507 C1513 1.428 . S
H1508 C1504 0.930 . S
H1509 C1506 0.929 . S
S1510 N1511 1.613 . S
S1510 N1512 1.610 . S
N1511 S1510 1.613 . S
N1511 C1514 1.350 . S
N1512 S1510 1.610 . S
N1512 C1513 1.351 . S
C1513 C1507 1.428 . S
C1513 N1512 1.351 . S
C1513 C1514 1.434 . S
C1514 C1505 1.429 . S
C1514 N1511 1.350 . S
C1514 C1513 1.434 . S
C1515 C1516 1.369 . S
C1515 C1517 1.419 . S
C1515 H1519 0.930 . S
C1516 C1515 1.369 . S
C1516 C1525 1.429 . S
C1517 C1515 1.419 . S
C1517 C1518 1.363 . S
C1517 H1520 0.929 . S
C1518 C1517 1.363 . S
C1518 C1524 1.428 . S
H1519 C1515 0.930 . S
H1520 C1517 0.929 . S
S1521 N1522 1.613 . S
S1521 N1523 1.610 . S
N1522 S1521 1.613 . S
N1522 C1525 1.350 . S
N1523 S1521 1.610 . S
N1523 C1524 1.351 . S
C1524 C1518 1.428 . S
C1524 N1523 1.351 . S
C1524 C1525 1.434 . S
C1525 C1516 1.429 . S
C1525 N1522 1.350 . S
C1525 C1524 1.434 . S
C1526 C1527 1.369 . S
C1526 C1528 1.419 . S
C1526 H1530 0.930 . S
C1527 C1526 1.369 . S
C1527 C1536 1.429 . S
C1528 C1526 1.419 . S
C1528 C1529 1.363 . S
C1528 H1531 0.929 . S
C1529 C1528 1.363 . S
C1529 C1535 1.428 . S
H1530 C1526 0.930 . S
H1531 C1528 0.929 . S
S1532 N1533 1.613 . S
S1532 N1534 1.610 . S
N1533 S1532 1.613 . S
N1533 C1536 1.350 . S
N1534 S1532 1.610 . S
N1534 C1535 1.351 . S
C1535 C1529 1.428 . S
C1535 N1534 1.351 . S
C1535 C1536 1.434 . S
C1536 C1527 1.429 . S
C1536 N1533 1.350 . S
C1536 C1535 1.434 . S
C1537 C1538 1.369 . S
C1537 C1539 1.419 . S
C1537 H1541 0.930 . S
C1538 C1537 1.369 . S
C1538 C1547 1.429 . S
C1539 C1537 1.419 . S
C1539 C1540 1.363 . S
C1539 H1542 0.929 . S
C1540 C1539 1.363 . S
C1540 C1546 1.428 . S
H1541 C1537 0.930 . S
H1542 C1539 0.929 . S
S1543 N1544 1.613 . S
S1543 N1545 1.610 . S
N1544 S1543 1.613 . S
N1544 C1547 1.350 . S
N1545 S1543 1.610 . S
N1545 C1546 1.351 . S
C1546 C1540 1.428 . S
C1546 N1545 1.351 . S
C1546 C1547 1.434 . S
C1547 C1538 1.429 . S
C1547 N1544 1.350 . S
C1547 C1546 1.434 . S
C1548 C1549 1.369 . S
C1548 C1550 1.419 . S
C1548 H1552 0.930 . S
C1549 C1548 1.369 . S
C1549 C1558 1.429 . S
C1550 C1548 1.419 . S
C1550 C1551 1.363 . S
C1550 H1553 0.929 . S
C1551 C1550 1.363 . S
C1551 C1557 1.428 . S
H1552 C1548 0.930 . S
H1553 C1550 0.929 . S
S1554 N1555 1.613 . S
S1554 N1556 1.610 . S
N1555 S1554 1.613 . S
N1555 C1558 1.350 . S
N1556 S1554 1.610 . S
N1556 C1557 1.351 . S
C1557 C1551 1.428 . S
C1557 N1556 1.351 . S
C1557 C1558 1.434 . S
C1558 C1549 1.429 . S
C1558 N1555 1.350 . S
C1558 C1557 1.434 . S
C1559 C1560 1.369 . S
C1559 C1561 1.419 . S
C1559 H1563 0.930 . S
C1560 C1559 1.369 . S
C1560 C1569 1.429 . S
C1561 C1559 1.419 . S
C1561 C1562 1.363 . S
C1561 H1564 0.929 . S
C1562 C1561 1.363 . S
C1562 C1568 1.428 . S
H1563 C1559 0.930 . S
H1564 C1561 0.929 . S
S1565 N1566 1.613 . S
S1565 N1567 1.610 . S
N1566 S1565 1.613 . S
N1566 C1569 1.350 . S
N1567 S1565 1.610 . S
N1567 C1568 1.351 . S
C1568 C1562 1.428 . S
C1568 N1567 1.351 . S
C1568 C1569 1.434 . S
C1569 C1560 1.429 . S
C1569 N1566 1.350 . S
C1569 C1568 1.434 . S
C1570 C1571 1.369 . S
C1570 C1572 1.419 . S
C1570 H1574 0.930 . S
C1571 C1570 1.369 . S
C1571 C1580 1.429 . S
C1572 C1570 1.419 . S
C1572 C1573 1.363 . S
C1572 H1575 0.929 . S
C1573 C1572 1.363 . S
C1573 C1579 1.428 . S
H1574 C1570 0.930 . S
H1575 C1572 0.929 . S
S1576 N1577 1.613 . S
S1576 N1578 1.610 . S
N1577 S1576 1.613 . S
N1577 C1580 1.350 . S
N1578 S1576 1.610 . S
N1578 C1579 1.351 . S
C1579 C1573 1.428 . S
C1579 N1578 1.351 . S
C1579 C1580 1.434 . S
C1580 C1571 1.429 . S
C1580 N1577 1.350 . S
C1580 C1579 1.434 . S
C1581 C1582 1.369 . S
C1581 C1583 1.419 . S
C1581 H1585 0.930 . S
C1582 C1581 1.369 . S
C1582 C1591 1.429 . S
C1583 C1581 1.419 . S
C1583 C1584 1.363 . S
C1583 H1586 0.929 . S
C1584 C1583 1.363 . S
C1584 C1590 1.428 . S
H1585 C1581 0.930 . S
H1586 C1583 0.929 . S
S1587 N1588 1.613 . S
S1587 N1589 1.610 . S
N1588 S1587 1.613 . S
N1588 C1591 1.350 . S
N1589 S1587 1.610 . S
N1589 C1590 1.351 . S
C1590 C1584 1.428 . S
C1590 N1589 1.351 . S
C1590 C1591 1.434 . S
C1591 C1582 1.429 . S
C1591 N1588 1.350 . S
C1591 C1590 1.434 . S
C1592 C1593 1.369 . S
C1592 C1594 1.419 . S
C1592 H1596 0.930 . S
C1593 C1592 1.369 . S
C1593 C1602 1.429 . S
C1594 C1592 1.419 . S
C1594 C1595 1.363 . S
C1594 H1597 0.929 . S
C1595 C1594 1.363 . S
C1595 C1601 1.428 . S
H1596 C1592 0.930 . S
H1597 C1594 0.929 . S
S1598 N1599 1.613 . S
S1598 N1600 1.610 . S
N1599 S1598 1.613 . S
N1599 C1602 1.350 . S
N1600 S1598 1.610 . S
N1600 C1601 1.351 . S
C1601 C1595 1.428 . S
C1601 N1600 1.351 . S
C1601 C1602 1.434 . S
C1602 C1593 1.429 . S
C1602 N1599 1.350 . S
C1602 C1601 1.434 . S
C1603 C1604 1.369 . S
C1603 C1605 1.419 . S
C1603 H1607 0.930 . S
C1604 C1603 1.369 . S
C1604 C1613 1.429 . S
C1605 C1603 1.419 . S
C1605 C1606 1.363 . S
C1605 H1608 0.929 . S
C1606 C1605 1.363 . S
C1606 C1612 1.428 . S
H1607 C1603 0.930 . S
H1608 C1605 0.929 . S
S1609 N1610 1.613 . S
S1609 N1611 1.610 . S
N1610 S1609 1.613 . S
N1610 C1613 1.350 . S
N1611 S1609 1.610 . S
N1611 C1612 1.351 . S
C1612 C1606 1.428 . S
C1612 N1611 1.351 . S
C1612 C1613 1.434 . S
C1613 C1604 1.429 . S
C1613 N1610 1.350 . S
C1613 C1612 1.434 . S
C1614 C1615 1.369 . S
C1614 C1616 1.419 . S
C1614 H1618 0.930 . S
C1615 C1614 1.369 . S
C1615 C1624 1.429 . S
C1616 C1614 1.419 . S
C1616 C1617 1.363 . S
C1616 H1619 0.929 . S
C1617 C1616 1.363 . S
C1617 C1623 1.428 . S
H1618 C1614 0.930 . S
H1619 C1616 0.929 . S
S1620 N1621 1.613 . S
S1620 N1622 1.610 . S
N1621 S1620 1.613 . S
N1621 C1624 1.350 . S
N1622 S1620 1.610 . S
N1622 C1623 1.351 . S
C1623 C1617 1.428 . S
C1623 N1622 1.351 . S
C1623 C1624 1.434 . S
C1624 C1615 1.429 . S
C1624 N1621 1.350 . S
C1624 C1623 1.434 . S
C1625 C1626 1.369 . S
C1625 C1627 1.419 . S
C1625 H1629 0.930 . S
C1626 C1625 1.369 . S
C1626 C1635 1.429 . S
C1627 C1625 1.419 . S
C1627 C1628 1.363 . S
C1627 H1630 0.929 . S
C1628 C1627 1.363 . S
C1628 C1634 1.428 . S
H1629 C1625 0.930 . S
H1630 C1627 0.929 . S
S1631 N1632 1.613 . S
S1631 N1633 1.610 . S
N1632 S1631 1.613 . S
N1632 C1635 1.350 . S
N1633 S1631 1.610 . S
N1633 C1634 1.351 . S
C1634 C1628 1.428 . S
C1634 N1633 1.351 . S
C1634 C1635 1.434 . S
C1635 C1626 1.429 . S
C1635 N1632 1.350 . S
C1635 C1634 1.434 . S
C1636 C1637 1.369 . S
C1636 C1638 1.419 . S
C1636 H1640 0.930 . S
C1637 C1636 1.369 . S
C1637 C1646 1.429 . S
C1638 C1636 1.419 . S
C1638 C1639 1.363 . S
C1638 H1641 0.929 . S
C1639 C1638 1.363 . S
C1639 C1645 1.428 . S
H1640 C1636 0.930 . S
H1641 C1638 0.929 . S
S1642 N1643 1.613 . S
S1642 N1644 1.610 . S
N1643 S1642 1.613 . S
N1643 C1646 1.350 . S
N1644 S1642 1.610 . S
N1644 C1645 1.351 . S
C1645 C1639 1.428 . S
C1645 N1644 1.351 . S
C1645 C1646 1.434 . S
C1646 C1637 1.429 . S
C1646 N1643 1.350 . S
C1646 C1645 1.434 . S
C1647 C1648 1.369 . S
C1647 C1649 1.419 . S
C1647 H1651 0.930 . S
C1648 C1647 1.369 . S
C1648 C1657 1.429 . S
C1649 C1647 1.419 . S
C1649 C1650 1.363 . S
C1649 H1652 0.929 . S
C1650 C1649 1.363 . S
C1650 C1656 1.428 . S
H1651 C1647 0.930 . S
H1652 C1649 0.929 . S
S1653 N1654 1.613 . S
S1653 N1655 1.610 . S
N1654 S1653 1.613 . S
N1654 C1657 1.350 . S
N1655 S1653 1.610 . S
N1655 C1656 1.351 . S
C1656 C1650 1.428 . S
C1656 N1655 1.351 . S
C1656 C1657 1.434 . S
C1657 C1648 1.429 . S
C1657 N1654 1.350 . S
C1657 C1656 1.434 . S
C1658 C1659 1.369 . S
C1658 C1660 1.419 . S
C1658 H1662 0.930 . S
C1659 C1658 1.369 . S
C1659 C1668 1.429 . S
C1660 C1658 1.419 . S
C1660 C1661 1.363 . S
C1660 H1663 0.929 . S
C1661 C1660 1.363 . S
C1661 C1667 1.428 . S
H1662 C1658 0.930 . S
H1663 C1660 0.929 . S
S1664 N1665 1.613 . S
S1664 N1666 1.610 . S
N1665 S1664 1.613 . S
N1665 C1668 1.350 . S
N1666 S1664 1.610 . S
N1666 C1667 1.351 . S
C1667 C1661 1.428 . S
C1667 N1666 1.351 . S
C1667 C1668 1.434 . S
C1668 C1659 1.429 . S
C1668 N1665 1.350 . S
C1668 C1667 1.434 . S
C1669 C1670 1.369 . S
C1669 C1671 1.419 . S
C1669 H1673 0.930 . S
C1670 C1669 1.369 . S
C1670 C1679 1.429 . S
C1671 C1669 1.419 . S
C1671 C1672 1.363 . S
C1671 H1674 0.929 . S
C1672 C1671 1.363 . S
C1672 C1678 1.428 . S
H1673 C1669 0.930 . S
H1674 C1671 0.929 . S
S1675 N1676 1.613 . S
S1675 N1677 1.610 . S
N1676 S1675 1.613 . S
N1676 C1679 1.350 . S
N1677 S1675 1.610 . S
N1677 C1678 1.351 . S
C1678 C1672 1.428 . S
C1678 N1677 1.351 . S
C1678 C1679 1.434 . S
C1679 C1670 1.429 . S
C1679 N1676 1.350 . S
C1679 C1678 1.434 . S
C625 C403 1.386 . S
C627 C10 1.436 . S
C636 C13 1.380 . S
C638 C374 1.436 . S
C647 C36 1.435 . S
C649 C377 1.379 . S
C658 C400 1.436 . S
C660 C39 1.384 . S
C669 C325 1.379 . S
C671 C62 1.435 . S
C680 C65 1.378 . S
C682 C348 1.435 . S
C691 C351 1.386 . S
C693 C88 1.436 . S
C702 C91 1.377 . S
C704 C322 1.435 . S
C713 C104 1.103 . S
C715 C572 1.098 . S
C724 C533 1.376 . S
C726 C127 1.435 . S
C735 C546 1.109 . S
C737 C130 1.103 . S
C746 C153 1.436 . S
C748 C559 1.385 . S
C757 C156 1.096 . S
C759 C611 1.102 . S
C768 C179 1.436 . S
C770 C585 1.385 . S
C779 C182 1.096 . S
C781 C598 1.102 . S
C790 C520 1.380 . S
C792 C205 1.436 . S
C801 C517 1.436 . S
C803 C208 1.385 . S
C812 C221 1.376 . S
C814 C439 1.435 . S
C823 C442 1.098 . S
C825 C234 1.099 . S
C834 C247 1.376 . S
C836 C465 1.435 . S
C845 C416 1.109 . S
C847 C260 1.103 . S
C856 C491 1.436 . S
C858 C273 1.382 . S
C867 C286 1.104 . S
C869 C494 1.098 . S
C878 C468 1.102 . S
C880 C299 1.098 . S
C889 C122 1.206 . S
C891 C5 1.206 . S
C900 C138 1.369 . S
C902 C21 1.377 . S
C911 C31 1.215 . S
C913 C148 1.213 . S
C922 C112 1.369 . S
C924 C47 1.377 . S
C933 C57 1.208 . S
C935 C200 1.206 . S
C944 C164 1.377 . S
C946 C73 1.372 . S
C955 C174 1.215 . S
C957 C83 1.213 . S
C966 C190 1.366 . S
C968 C99 1.379 . S
C977 C242 1.367 . S
C979 C216 1.379 . S
C988 C294 1.369 . S
C990 C229 1.377 . S
C999 C307 1.369 . S
C1001 C255 1.377 . S
C1010 C268 1.367 . S
C1012 C281 1.379 . S
C1021 C434 1.208 . S
C1023 C317 1.206 . S
C1032 C450 1.369 . S
C1034 C333 1.377 . S
C1043 C460 1.213 . S
C1045 C343 1.214 . S
C1054 C359 1.372 . S
C1056 C424 1.375 . S
C1065 C369 1.215 . S
C1067 C512 1.212 . S
C1076 C385 1.373 . S
C1078 C476 1.374 . S
C1087 C486 1.208 . S
C1089 C395 1.212 . S
C1098 C502 1.366 . S
C1100 C411 1.379 . S
C1109 C528 1.379 . S
C1111 C554 1.368 . S
C1120 C606 1.371 . S
C1122 C541 1.376 . S
C1131 C619 1.367 . S
C1133 C567 1.379 . S
C1142 C593 1.378 . S
C1144 C580 1.369 . S
C1153 C0 1.238 . S
C1155 C239 1.197 . S
C1164 C23 1.516 . S
C1166 C252 1.374 . S
C1175 C26 1.237 . S
C1177 C265 1.199 . S
C1186 C226 1.384 . S
C1188 C49 1.513 . S
C1197 C52 1.231 . S
C1199 C291 1.204 . S
C1208 C75 1.513 . S
C1210 C213 1.381 . S
C1219 C304 1.198 . S
C1221 C78 1.235 . S
C1230 C278 1.384 . S
C1232 C101 1.513 . S
C1241 C114 1.489 . S
C1243 C125 1.376 . S
C1252 C117 1.237 . S
C1254 C135 1.198 . S
C1263 C140 1.490 . S
C1265 C151 1.371 . S
C1274 C109 1.199 . S
C1276 C143 1.235 . S
C1285 C203 1.374 . S
C1287 C166 1.488 . S
C1296 C161 1.211 . S
C1298 C169 1.226 . S
C1307 C177 1.381 . S
C1309 C192 1.487 . S
C1318 C195 1.231 . S
C1320 C187 1.204 . S
C1329 C44 1.383 . S
C1331 C218 1.513 . S
C1340 C70 1.373 . S
C1342 C231 1.515 . S
C1351 C86 1.382 . S
C1353 C244 1.487 . S
C1362 C257 1.514 . S
C1364 C96 1.379 . S
C1373 C60 1.375 . S
C1375 C270 1.489 . S
C1384 C18 1.376 . S
C1386 C283 1.515 . S
C1395 C34 1.374 . S
C1397 C296 1.488 . S
C1406 C8 1.383 . S
C1408 C309 1.486 . S
C1417 C551 1.196 . S
C1419 C312 1.236 . S
C1428 C335 1.513 . S
C1430 C564 1.379 . S
C1439 C577 1.207 . S
C1441 C338 1.228 . S
C1450 C538 1.371 . S
C1452 C361 1.516 . S
C1461 C364 1.226 . S
C1463 C603 1.209 . S
C1472 C387 1.516 . S
C1474 C525 1.374 . S
C1483 C616 1.208 . S
C1485 C390 1.229 . S
C1494 C413 1.513 . S
C1496 C590 1.383 . S
C1505 C426 1.487 . S
C1507 C437 1.376 . S
C1516 C429 1.238 . S
C1518 C447 1.198 . S
C1527 C452 1.489 . S
C1529 C463 1.377 . S
C1538 C455 1.226 . S
C1540 C421 1.209 . S
C1549 C515 1.375 . S
C1551 C478 1.489 . S
C1560 C473 1.200 . S
C1562 C481 1.232 . S
C1571 C489 1.383 . S
C1573 C504 1.486 . S
C1582 C507 1.229 . S
C1584 C499 1.206 . S
C1593 C356 1.372 . S
C1595 C530 1.516 . S
C1604 C382 1.380 . S
C1606 C543 1.514 . S
C1615 C398 1.371 . S
C1617 C556 1.489 . S
C1626 C569 1.515 . S
C1628 C408 1.378 . S
C1637 C372 1.372 . S
C1639 C582 1.490 . S
C1648 C330 1.383 . S
C1650 C595 1.514 . S
C1659 C608 1.490 . S
C1661 C346 1.373 . S
C1670 C320 1.375 . S
C1672 C621 1.489 . S
