# Generated by pormake.
# Topology ths, (3)-cn, num edge types: 1
# Building blocks:
#     Node 0, Type 0, BuildingBlock: OLANEW_clean_sbu_2, # of connection points: 3
#     Node 1, Type 0, BuildingBlock: OLANEW_clean_sbu_2, # of connection points: 3
#     Node 2, Type 0, BuildingBlock: OLANEW_clean_sbu_2, # of connection points: 3
#     Node 3, Type 0, BuildingBlock: OLANEW_clean_sbu_2, # of connection points: 3
#     Node 4, Type 0, BuildingBlock: OLANEW_clean_sbu_2, # of connection points: 3
#     Node 5, Type 0, BuildingBlock: OLANEW_clean_sbu_2, # of connection points: 3
#     Node 6, Type 0, BuildingBlock: OLANEW_clean_sbu_2, # of connection points: 3
#     Node 7, Type 0, BuildingBlock: OLANEW_clean_sbu_2, # of connection points: 3
#     Edge 8, Type (0, 0), BuildingBlock: FUNLAD_clean_linker_1, # of connection points: 2
#     Edge 9, Type (0, 0), BuildingBlock: FUNLAD_clean_linker_1, # of connection points: 2
#     Edge 10, Type (0, 0), BuildingBlock: FUNLAD_clean_linker_1, # of connection points: 2
#     Edge 11, Type (0, 0), BuildingBlock: FUNLAD_clean_linker_1, # of connection points: 2
#     Edge 12, Type (0, 0), BuildingBlock: FUNLAD_clean_linker_1, # of connection points: 2
#     Edge 13, Type (0, 0), BuildingBlock: FUNLAD_clean_linker_1, # of connection points: 2
#     Edge 14, Type (0, 0), BuildingBlock: FUNLAD_clean_linker_1, # of connection points: 2
#     Edge 15, Type (0, 0), BuildingBlock: FUNLAD_clean_linker_1, # of connection points: 2
#     Edge 16, Type (0, 0), BuildingBlock: FUNLAD_clean_linker_1, # of connection points: 2
#     Edge 17, Type (0, 0), BuildingBlock: FUNLAD_clean_linker_1, # of connection points: 2
#     Edge 18, Type (0, 0), BuildingBlock: FUNLAD_clean_linker_1, # of connection points: 2
#     Edge 19, Type (0, 0), BuildingBlock: FUNLAD_clean_linker_1, # of connection points: 2
# Relax obj value: 0.000
# Max RMSD: 0.057
# Mean RMSD: 0.052
data_MOF--net-ths--node1-OLANEW_clean_sbu_2--edge1-FUNLAD_clean_linker_1
_symmetry_space_group_name_H-M    P1
_symmetry_Int_Tables_number       1
_symmetry_cell_setting            triclinic
loop_
_symmetry_equiv_pos_as_xyz
'x, y, z'
_cell_length_a     33.156483
_cell_length_b     33.165476
_cell_length_c     81.527507
_cell_angle_alpha  102.3647
_cell_angle_beta   89.983183
_cell_angle_gamma 89.995003
loop_
_atom_site_label
_atom_site_type_symbol
_atom_site_fract_x
_atom_site_fract_y
_atom_site_fract_z
_atom_type_partial_charge
O0 O 0.11974 0.78505 0.04275 0.0
Cd1 Cd 0.1172 0.76354 0.01212 0.0
O2 O 0.15964 0.73368 0.04539 0.0
Cd3 Cd 0.15435 0.70095 0.01924 0.0
O4 O 0.13744 0.64727 -0.0001 0.0
C5 C 0.10321 0.64572 0.99278 0.0
O6 O 0.07909 0.6778 0.99634 0.0
C7 C 0.14075 0.76658 0.05192 0.0
C8 C 0.09736 0.82883 0.99702 0.0
O9 O 0.06997 0.80482 0.0006 0.0
O10 O 0.13403 0.82209 0.00056 0.0
O11 O 0.66269 0.76247 0.32192 0.0
Cd12 Cd 0.66954 0.79373 0.29747 0.0
O13 O 0.63617 0.70504 0.30726 0.0
Cd14 Cd 0.62422 0.73016 0.2851 0.0
O15 O 0.57448 0.74804 0.27057 0.0
C16 C 0.56448 0.78566 0.27212 0.0
O17 O 0.58642 0.81455 0.28154 0.0
C18 C 0.64962 0.72602 0.32105 0.0
C19 C 0.74623 0.78237 0.28312 0.0
O20 O 0.73855 0.81358 0.29499 0.0
O21 O 0.71787 0.75648 0.27808 0.0
O22 O 0.61781 0.2614 0.56354 0.0
Cd23 Cd 0.59502 0.23808 0.53453 0.0
O24 O 0.67469 0.22631 0.56006 0.0
Cd25 Cd 0.65987 0.19672 0.53423 0.0
O26 O 0.6379 0.14635 0.5145 0.0
C27 C 0.60865 0.12571 0.51855 0.0
O28 O 0.59294 0.13681 0.53362 0.0
C29 C 0.65078 0.25106 0.56943 0.0
C30 C 0.57078 0.30376 0.52057 0.0
O31 O 0.54646 0.28737 0.52945 0.0
O32 O 0.60667 0.28925 0.51826 0.0
O33 O 0.22178 0.3443 0.85868 0.0
Cd34 Cd 0.26897 0.39655 0.85331 0.0
O35 O 0.19509 0.33855 0.83365 0.0
Cd36 Cd 0.14723 0.31547 0.81571 0.0
O37 O 0.09171 0.30394 0.80111 0.0
C38 C 0.06449 0.28064 0.80493 0.0
O39 O 0.07042 0.26224 0.81749 0.0
C40 C 0.19571 0.32832 0.84779 0.0
C41 C 0.32466 0.36702 0.82805 0.0
O42 O 0.33251 0.36647 0.84339 0.0
O43 O 0.29038 0.38094 0.8246 0.0
O44 O 0.99016 0.13784 0.90535 0.0
Cd45 Cd 0.94107 0.1037 0.92024 0.0
O46 O 0.99244 0.18744 0.92796 0.0
Cd47 Cd 0.01525 0.24754 0.94115 0.0
O48 O 0.03834 0.30885 0.95251 0.0
C49 C 0.03504 0.33813 0.94479 0.0
O50 O 0.01777 0.33118 0.92995 0.0
C51 C 0.00398 0.17249 0.91304 0.0
C52 C 0.97323 0.03936 0.93321 0.0
O53 O 0.95707 0.03244 0.91861 0.0
O54 O 0.97467 0.07669 0.94165 0.0
O55 O 0.19124 0.80821 0.19145 0.0
Cd56 Cd 0.19011 0.81308 0.22175 0.0
O57 O 0.12536 0.81043 0.18785 0.0
Cd58 Cd 0.107 0.8154 0.21398 0.0
O59 O 0.06221 0.81962 0.23403 0.0
C60 C 0.03095 0.7972 0.2307 0.0
O61 O 0.02796 0.77198 0.21593 0.0
C62 C 0.16097 0.80796 0.1819 0.0
C63 C 0.26688 0.79559 0.23241 0.0
O64 O 0.2408 0.76688 0.22793 0.0
O65 O 0.25663 0.8327 0.23213 0.0
O66 O 0.52469 0.62535 0.42524 0.0
Cd67 Cd 0.4757 0.59645 0.44195 0.0
O68 O 0.52079 0.68535 0.44284 0.0
Cd69 Cd 0.53507 0.75115 0.44946 0.0
O70 O 0.54944 0.81685 0.45583 0.0
C71 C 0.54917 0.83881 0.44481 0.0
O72 O 0.54007 0.82177 0.4292 0.0
C73 C 0.53493 0.66309 0.42945 0.0
C74 C 0.50464 0.5296 0.45404 0.0
O75 O 0.49048 0.52467 0.43913 0.0
O76 O 0.50572 0.56619 0.4632 0.0
O77 O 0.71844 0.2498 0.70495 0.0
Cd78 Cd 0.708 0.25419 0.73501 0.0
O79 O 0.66572 0.28866 0.70266 0.0
Cd80 Cd 0.64645 0.29654 0.72875 0.0
O81 O 0.60893 0.30767 0.75128 0.0
C82 C 0.57281 0.29472 0.7497 0.0
O83 O 0.56017 0.27456 0.73494 0.0
C84 C 0.69593 0.26765 0.69608 0.0
C85 C 0.77982 0.24346 0.7513 0.0
O86 O 0.76826 0.27947 0.74991 0.0
O87 O 0.75749 0.2125 0.74504 0.0
H88 H 0.06463 0.38344 0.96493 0.0
C89 C 0.04987 0.37958 0.95278 0.0
H90 H 0.03119 0.40897 0.93348 0.0
H91 H 0.05721 0.55964 0.00197 0.0
H92 H 0.00109 0.52867 0.01376 0.0
H93 H 0.96978 0.46438 0.99813 0.0
H94 H 0.99508 0.43025 0.97079 0.0
C95 C 0.04495 0.41248 0.9458 0.0
C96 C 0.06004 0.45404 0.95427 0.0
C97 C 0.04346 0.47473 0.96986 0.0
C98 C 0.0601 0.51295 0.97847 0.0
C99 C 0.0447 0.5315 0.99453 0.0
C100 C 0.01259 0.51391 0.00151 0.0
C101 C 0.99509 0.47764 0.99275 0.0
C102 C 0.01015 0.45818 0.97711 0.0
H103 H 0.05829 0.60663 0.97683 0.0
C104 C 0.08842 0.6069 0.98211 0.0
H105 H 0.1398 0.57121 0.98495 0.0
H106 H 0.09779 0.42341 0.9243 0.0
H107 H 0.15178 0.45617 0.91186 0.0
H108 H 0.17871 0.52386 0.92626 0.0
H109 H 0.15193 0.55913 0.95324 0.0
C110 C 0.10943 0.5715 0.97998 0.0
C111 C 0.09185 0.53154 0.97103 0.0
C112 C 0.10754 0.51151 0.95521 0.0
C113 C 0.09167 0.4727 0.94683 0.0
C114 C 0.10839 0.45311 0.93115 0.0
C115 C 0.13944 0.47155 0.92388 0.0
C116 C 0.15463 0.50964 0.93199 0.0
C117 C 0.13902 0.52953 0.94748 0.0
H118 H 0.9997 0.8251 0.2544 0.0
C119 C 0.99715 0.80204 0.24276 0.0
H120 H 0.96011 0.75661 0.22787 0.0
H121 H 0.84622 0.73635 0.28797 0.0
H122 H 0.88899 0.67629 0.28638 0.0
H123 H 0.94963 0.66638 0.26842 0.0
H124 H 0.96806 0.7167 0.25205 0.0
C125 C 0.96279 0.78038 0.23927 0.0
C126 C 0.92733 0.7876 0.25073 0.0
C127 C 0.91659 0.75762 0.25999 0.0
C128 C 0.8812 0.76296 0.27011 0.0
C129 C 0.87204 0.73322 0.27969 0.0
C130 C 0.89652 0.69875 0.27899 0.0
C131 C 0.93069 0.69319 0.2689 0.0
C132 C 0.94084 0.72224 0.25953 0.0
H133 H 0.79019 0.75068 0.26442 0.0
C134 C 0.78626 0.77648 0.27504 0.0
H135 H 0.81342 0.82885 0.29036 0.0
H136 H 0.93868 0.85068 0.23425 0.0
H137 H 0.89639 0.91101 0.23609 0.0
H138 H 0.8353 0.92052 0.25376 0.0
H139 H 0.81606 0.86961 0.26964 0.0
C140 C 0.81728 0.80227 0.28007 0.0
C141 C 0.85609 0.79787 0.27062 0.0
C142 C 0.86747 0.82846 0.26173 0.0
C143 C 0.90295 0.82319 0.25167 0.0
C144 C 0.9126 0.85343 0.24238 0.0
C145 C 0.88845 0.88818 0.24324 0.0
C146 C 0.85404 0.89352 0.25318 0.0
C147 C 0.84342 0.86405 0.26227 0.0
H148 H 0.52863 0.35302 0.51754 0.0
C149 C 0.55737 0.33861 0.51336 0.0
H150 H 0.60786 0.33842 0.49758 0.0
H151 H 0.46138 0.4492 0.47065 0.0
H152 H 0.42187 0.38635 0.4654 0.0
H153 H 0.44861 0.32272 0.47242 0.0
H154 H 0.51442 0.32208 0.48526 0.0
C155 C 0.57886 0.35229 0.50167 0.0
C156 C 0.56524 0.38833 0.49486 0.0
C157 C 0.52792 0.38724 0.48623 0.0
C158 C 0.51383 0.423 0.481 0.0
C159 C 0.47474 0.42224 0.47391 0.0
C160 C 0.45152 0.38643 0.47097 0.0
C161 C 0.46647 0.35069 0.475 0.0
C162 C 0.50418 0.35089 0.48253 0.0
H163 H 0.52176 0.46431 0.45147 0.0
C164 C 0.51856 0.49362 0.46039 0.0
H165 H 0.52258 0.52479 0.48578 0.0
H166 H 0.63827 0.40093 0.51091 0.0
H167 H 0.67974 0.46232 0.51447 0.0
H168 H 0.65768 0.52241 0.50344 0.0
H169 H 0.59378 0.52165 0.48897 0.0
C170 C 0.52533 0.49555 0.4768 0.0
C171 C 0.53862 0.45867 0.4831 0.0
C172 C 0.57645 0.45931 0.49127 0.0
C173 C 0.5896 0.42428 0.49729 0.0
C174 C 0.62704 0.4263 0.5058 0.0
C175 C 0.65117 0.46142 0.50798 0.0
C176 C 0.63872 0.49527 0.50179 0.0
C177 C 0.60188 0.49442 0.49353 0.0
H178 H 0.02225 0.29358 0.78587 0.0
C179 C 0.02592 0.27651 0.79577 0.0
H180 H 0.99769 0.23792 0.80986 0.0
H181 H 0.82239 0.29962 0.79658 0.0
H182 H 0.82966 0.32556 0.8266 0.0
H183 H 0.89445 0.31947 0.84076 0.0
H184 H 0.95226 0.28728 0.82502 0.0
C185 C 0.99505 0.25396 0.7996 0.0
C186 C 0.95521 0.25433 0.7912 0.0
C187 C 0.9217 0.27322 0.80062 0.0
C188 C 0.8845 0.27721 0.79242 0.0
C189 C 0.85149 0.29619 0.80213 0.0
C190 C 0.85522 0.31114 0.81938 0.0
C191 C 0.89167 0.30769 0.82736 0.0
C192 C 0.92464 0.28906 0.81815 0.0
H193 H 0.82651 0.20603 0.76038 0.0
C194 C 0.81801 0.2373 0.75971 0.0
H195 H 0.83381 0.30041 0.76618 0.0
H196 H 0.01133 0.21032 0.77 0.0
H197 H 0.00453 0.18523 0.73991 0.0
H198 H 0.94166 0.19649 0.72534 0.0
H199 H 0.88504 0.23215 0.74079 0.0
C200 C 0.84252 0.26888 0.76628 0.0
C201 C 0.88088 0.26236 0.77483 0.0
C202 C 0.91416 0.24261 0.76547 0.0
C203 C 0.95106 0.23779 0.77373 0.0
C204 C 0.98319 0.21627 0.76424 0.0
C205 C 0.97959 0.20146 0.74698 0.0
C206 C 0.94415 0.20767 0.73879 0.0
C207 C 0.91175 0.22802 0.74784 0.0
H208 H 0.5562 0.32292 0.77589 0.0
C209 C 0.5449 0.30473 0.76408 0.0
H210 H 0.4943 0.27459 0.75118 0.0
H211 H 0.39663 0.26327 0.81662 0.0
H212 H 0.41764 0.19195 0.80724 0.0
H213 H 0.46641 0.17209 0.78405 0.0
H214 H 0.49436 0.22341 0.77005 0.0
C215 C 0.50586 0.29365 0.76275 0.0
C216 C 0.47739 0.30607 0.77704 0.0
C217 C 0.46155 0.27576 0.78515 0.0
C218 C 0.43374 0.28727 0.79863 0.0
C219 C 0.41809 0.25628 0.80641 0.0
C220 C 0.42986 0.21522 0.80114 0.0
C221 C 0.4573 0.20403 0.78807 0.0
C222 C 0.47307 0.2338 0.78013 0.0
H223 H 0.34624 0.35511 0.80187 0.0
C224 C 0.3545 0.35338 0.81461 0.0
H225 H 0.40019 0.3378 0.83025 0.0
H226 H 0.49902 0.37145 0.76321 0.0
H227 H 0.48002 0.44301 0.77326 0.0
H228 H 0.43558 0.46366 0.7979 0.0
H229 H 0.4093 0.41271 0.81242 0.0
C230 C 0.39168 0.34069 0.81769 0.0
C231 C 0.4218 0.32907 0.80395 0.0
C232 C 0.4383 0.35956 0.79606 0.0
C233 C 0.46542 0.34792 0.78235 0.0
C234 C 0.47958 0.37868 0.77409 0.0
C235 C 0.46872 0.41991 0.77967 0.0
C236 C 0.44359 0.43151 0.7935 0.0
C237 C 0.42849 0.40186 0.80166 0.0
H238 H 0.31466 0.75342 0.23733 0.0
C239 C 0.3077 0.78556 0.23753 0.0
H240 H 0.33016 0.84651 0.2419 0.0
H241 H 0.46014 0.74813 0.28232 0.0
H242 H 0.40397 0.74037 0.30043 0.0
H243 H 0.33554 0.76264 0.29449 0.0
H244 H 0.32279 0.79239 0.27032 0.0
C245 C 0.33629 0.81448 0.24219 0.0
C246 C 0.3779 0.80328 0.24652 0.0
C247 C 0.38492 0.78666 0.26093 0.0
C248 C 0.42456 0.77469 0.26458 0.0
C249 C 0.43067 0.7578 0.27895 0.0
C250 C 0.39872 0.75327 0.28949 0.0
C251 C 0.36018 0.76574 0.28613 0.0
C252 C 0.35322 0.78246 0.2721 0.0
H253 H 0.51893 0.82947 0.26659 0.0
C254 C 0.52613 0.79689 0.26506 0.0
H255 H 0.50459 0.73579 0.25747 0.0
H256 H 0.37516 0.83507 0.21817 0.0
H257 H 0.43168 0.84409 0.20042 0.0
H258 H 0.50043 0.82369 0.20689 0.0
H259 H 0.51308 0.79419 0.23118 0.0
C260 C 0.49866 0.76838 0.25827 0.0
C261 C 0.4573 0.7805 0.25413 0.0
C262 C 0.45044 0.79775 0.2399 0.0
C263 C 0.41072 0.80929 0.23613 0.0
C264 C 0.40469 0.826 0.22171 0.0
C265 C 0.43687 0.83125 0.21138 0.0
C266 C 0.47558 0.81979 0.21503 0.0
C267 C 0.48245 0.80308 0.22906 0.0
H268 H 0.55785 0.90111 0.43971 0.0
C269 C 0.55883 0.88323 0.44943 0.0
H270 H 0.57114 0.88401 0.47491 0.0
H271 H 0.68151 0.04061 0.48932 0.0
H272 H 0.73262 0.98717 0.48484 0.0
H273 H 0.71465 0.91448 0.47324 0.0
H274 H 0.64528 0.89481 0.46613 0.0
C275 C 0.56874 0.90181 0.4652 0.0
C276 C 0.57987 0.94621 0.46983 0.0
C277 C 0.62061 0.95733 0.47361 0.0
C278 C 0.63101 0.99931 0.48009 0.0
C279 C 0.67184 0.00932 0.4842 0.0
C280 C 0.70155 0.9789 0.4817 0.0
C281 C 0.69143 0.93798 0.47519 0.0
C282 C 0.65149 0.92711 0.4712 0.0
H283 H 0.57245 0.06901 0.51236 0.0
C284 C 0.59483 0.08722 0.5074 0.0
H285 H 0.6338 0.08985 0.48718 0.0
H286 H 0.49897 0.93562 0.46329 0.0
H287 H 0.44858 0.98962 0.4659 0.0
H288 H 0.46742 0.06285 0.47552 0.0
H289 H 0.53676 0.08241 0.48286 0.0
C290 C 0.61054 0.07261 0.49209 0.0
C291 C 0.60057 0.03007 0.48274 0.0
C292 C 0.56032 0.01931 0.47774 0.0
C293 C 0.54978 0.97722 0.47157 0.0
C294 C 0.50892 0.96716 0.4676 0.0
C295 C 0.47963 0.99786 0.46909 0.0
C296 C 0.49021 0.03908 0.47455 0.0
C297 C 0.53004 0.04987 0.47883 0.0
H298 H 0.11149 0.88467 0.98748 0.0
C299 C 0.08742 0.86357 0.98907 0.0
H300 H 0.02559 0.84921 0.98554 0.0
H301 H 0.96486 0.02603 0.98147 0.0
H302 H 0.93582 0.01794 0.00784 0.0
H303 H 0.95456 0.95896 0.02025 0.0
H304 H 0.00217 0.90748 0.00626 0.0
C305 C 0.05006 0.86956 0.98366 0.0
C306 C 0.04011 0.90574 0.97626 0.0
C307 C 0.01266 0.93595 0.98472 0.0
C308 C 0.00249 0.97043 0.97773 0.0
C309 C 0.97425 -0.00043 0.9863 0.0
C310 C 0.95724 0.99528 0.00146 0.0
C311 C 0.96774 0.96205 0.00843 0.0
C312 C 0.99508 0.93265 0.00023 0.0
H313 H 0.98328 0.97353 0.93301 0.0
C314 C 0.98862 0.00473 0.94014 0.0
H315 H 0.01268 0.04153 0.96232 0.0
H316 H 0.09004 0.85117 0.95564 0.0
H317 H 0.12218 0.86129 0.93014 0.0
H318 H 0.10989 0.92456 0.91958 0.0
H319 H 0.06454 0.97753 0.93423 0.0
C320 C 0.00808 0.01049 0.95492 0.0
C321 C 0.02014 0.97496 0.96238 0.0
C322 C 0.04855 0.94539 0.95416 0.0
C323 C 0.05755 0.91009 0.96082 0.0
C324 C 0.08365 0.87956 0.95166 0.0
C325 C 0.10209 0.88482 0.93691 0.0
C326 C 0.09503 0.92034 0.93092 0.0
C327 C 0.06864 0.95037 0.93939 0.0
H328 H 0.19823 0.79957 0.15894 0.0
C329 C 0.1675 0.80343 0.16369 0.0
H330 H 0.1058 0.80487 0.15737 0.0
H331 H 0.19675 0.83435 0.088 0.0
H332 H 0.21742 0.90063 0.10478 0.0
H333 H 0.20343 0.9189 0.13519 0.0
H334 H 0.16922 0.87077 0.14906 0.0
C335 C 0.13676 0.80247 0.15288 0.0
C336 C 0.14348 0.7929 0.13441 0.0
C337 C 0.16243 0.82193 0.12644 0.0
C338 C 0.16917 0.812 0.10879 0.0
C339 C 0.18969 0.84081 0.10126 0.0
C340 C 0.20192 0.87889 0.11076 0.0
C341 C 0.19415 0.88914 0.12789 0.0
C342 C 0.17464 0.86113 0.13571 0.0
H343 H 0.12165 0.80809 0.0756 0.0
C344 C 0.14086 0.78197 0.0703 0.0
H345 H 0.1799 0.73591 0.07542 0.0
H346 H 0.10669 0.7302 0.14583 0.0
H347 H 0.08438 0.66472 0.12897 0.0
H348 H 0.09395 0.6484 0.09826 0.0
H349 H 0.12606 0.69732 0.08423 0.0
C350 C 0.16169 0.7629 0.08059 0.0
C351 C 0.15576 0.7736 0.0991 0.0
C352 C 0.13658 0.74472 0.10709 0.0
C353 C 0.1305 0.75436 0.12475 0.0
C354 C 0.11166 0.72473 0.13242 0.0
C355 C 0.09875 0.68695 0.1229 0.0
C356 C 0.10419 0.67774 0.10561 0.0
C357 C 0.12279 0.70614 0.09773 0.0
H358 H 0.57112 0.7135 0.42303 0.0
C359 C 0.56094 0.68193 0.41846 0.0
H360 H 0.55986 0.63092 0.39791 0.0
H361 H 0.59262 0.78549 0.35972 0.0
H362 H 0.52854 0.81303 0.37124 0.0
H363 H 0.49158 0.78065 0.39129 0.0
H364 H 0.5186 0.72104 0.40006 0.0
C365 C 0.56934 0.66266 0.4026 0.0
C366 C 0.59178 0.68343 0.3909 0.0
C367 C 0.57485 0.71797 0.38564 0.0
C368 C 0.59552 0.73588 0.37367 0.0
C369 C 0.57815 0.77045 0.36869 0.0
C370 C 0.5413 0.78659 0.37518 0.0
C371 C 0.52055 0.76843 0.3865 0.0
C372 C 0.53676 0.73435 0.39159 0.0
H373 H 0.63319 0.67804 0.33474 0.0
C374 C 0.64516 0.70917 0.33628 0.0
H375 H 0.65918 0.76442 0.35359 0.0
H376 H 0.63372 0.61927 0.39899 0.0
H377 H 0.69794 0.59191 0.38732 0.0
H378 H 0.73296 0.62237 0.36617 0.0
H379 H 0.70391 0.6805 0.35655 0.0
C380 C 0.64933 0.73253 0.35182 0.0
C381 C 0.63203 0.71817 0.36642 0.0
C382 C 0.64949 0.68452 0.37201 0.0
C383 C 0.62934 0.6671 0.38425 0.0
C384 C 0.64753 0.6335 0.38961 0.0
C385 C 0.68446 0.61757 0.38306 0.0
C386 C 0.70417 0.63471 0.37114 0.0
C387 C 0.68708 0.66786 0.36566 0.0
H388 H 0.63721 0.28555 0.59507 0.0
C389 C 0.65901 0.26505 0.58753 0.0
H390 H 0.71044 0.22766 0.58792 0.0
H391 H 0.70482 0.34953 0.66481 0.0
H392 H 0.72474 0.40468 0.65114 0.0
H393 H 0.73003 0.39244 0.62028 0.0
H394 H 0.71533 0.32496 0.60288 0.0
C395 C 0.68954 0.24976 0.59517 0.0
C396 C 0.6908 0.25649 0.61379 0.0
C397 C 0.69987 0.29593 0.62376 0.0
C398 C 0.6971 0.30287 0.64156 0.0
C399 C 0.70623 0.34261 0.65123 0.0
C400 C 0.71782 0.3745 0.64355 0.0
C401 C 0.72077 0.36762 0.62617 0.0
C402 C 0.71204 0.32883 0.61633 0.0
H403 H 0.72904 0.24269 0.67254 0.0
C404 C 0.70394 0.26219 0.67792 0.0
H405 H 0.65516 0.29903 0.6731 0.0
H406 H 0.6739 0.17648 0.59833 0.0
H407 H 0.65374 0.12143 0.61189 0.0
H408 H 0.64676 0.13393 0.64268 0.0
H409 H 0.66022 0.20133 0.66007 0.0
C410 C 0.67976 0.27865 0.66785 0.0
C411 C 0.68558 0.27028 0.64934 0.0
C412 C 0.6773 0.23053 0.63936 0.0
C413 C 0.6805 0.22353 0.62157 0.0
C414 C 0.67191 0.18362 0.61188 0.0
C415 C 0.66021 0.15169 0.6195 0.0
C416 C 0.65634 0.15871 0.63683 0.0
C417 C 0.6645 0.19761 0.64669 0.0
H418 H 0.04696 0.22297 0.91274 0.0
C419 C 0.03324 0.19563 0.90502 0.0
H420 H 0.02909 0.15844 0.88047 0.0
H421 H 0.08996 0.32145 0.85619 0.0
H422 H 0.0192 0.32211 0.84898 0.0
H423 H 0.97213 0.27116 0.85631 0.0
H424 H 0.99568 0.21945 0.87115 0.0
C425 C 0.04321 0.18474 0.88871 0.0
C426 C 0.07274 0.20997 0.88153 0.0
C427 C 0.05892 0.23883 0.87227 0.0
C428 C 0.08641 0.26727 0.86753 0.0
C429 C 0.07103 0.29781 0.85942 0.0
C430 C 0.03028 0.29886 0.85536 0.0
C431 C 0.00375 0.27022 0.85952 0.0
C432 C 0.01766 0.24072 0.86801 0.0
H433 H 0.14905 0.27991 0.84123 0.0
C434 C 0.16555 0.29891 0.85158 0.0
H435 H 0.17398 0.31475 0.87779 0.0
H436 H 0.10938 0.1551 0.89741 0.0
H437 H 0.18083 0.15143 0.90338 0.0
H438 H 0.22905 0.19931 0.89455 0.0
H439 H 0.20618 0.2512 0.87978 0.0
C440 C 0.15728 0.29605 0.86742 0.0
C441 C 0.12808 0.26539 0.87143 0.0
C442 C 0.14208 0.23502 0.87997 0.0
C443 C 0.11436 0.20734 0.88503 0.0
C444 C 0.12913 0.17725 0.89349 0.0
C445 C 0.17008 0.17465 0.89691 0.0
C446 C 0.19722 0.20161 0.89194 0.0
C447 C 0.1836 0.2314 0.88353 0.0
loop_
_geom_bond_atom_site_label_1
_geom_bond_atom_site_label_2
_geom_bond_distance
_geom_bond_site_symmetry_2
_ccdc_geom_bond_type
O0 Cd1 2.300 . S
O0 C7 1.275 . S
Cd1 O0 2.300 . S
Cd1 O9 2.381 . S
Cd1 O10 2.378 . S
O2 Cd3 2.385 . S
O2 C7 1.255 . S
Cd3 O2 2.385 . S
Cd3 O4 2.317 . S
O4 Cd3 2.317 . S
O4 C5 1.232 . S
C5 O4 1.232 . S
C5 O6 1.218 . S
O6 C5 1.218 . S
C7 O0 1.275 . S
C7 O2 1.255 . S
C8 O9 1.258 . S
C8 O10 1.256 . S
O9 Cd1 2.381 . S
O9 C8 1.258 . S
O10 Cd1 2.378 . S
O10 C8 1.256 . S
O11 Cd12 2.300 . S
O11 C18 1.275 . S
Cd12 O11 2.300 . S
Cd12 O20 2.381 . S
Cd12 O21 2.378 . S
O13 Cd14 2.385 . S
O13 C18 1.255 . S
Cd14 O13 2.385 . S
Cd14 O15 2.317 . S
O15 Cd14 2.317 . S
O15 C16 1.232 . S
C16 O15 1.232 . S
C16 O17 1.218 . S
O17 C16 1.218 . S
C18 O11 1.275 . S
C18 O13 1.255 . S
C19 O20 1.258 . S
C19 O21 1.256 . S
O20 Cd12 2.381 . S
O20 C19 1.258 . S
O21 Cd12 2.378 . S
O21 C19 1.256 . S
O22 Cd23 2.300 . S
O22 C29 1.275 . S
Cd23 O22 2.300 . S
Cd23 O31 2.381 . S
Cd23 O32 2.378 . S
O24 Cd25 2.385 . S
O24 C29 1.255 . S
Cd25 O24 2.385 . S
Cd25 O26 2.317 . S
O26 Cd25 2.317 . S
O26 C27 1.232 . S
C27 O26 1.232 . S
C27 O28 1.218 . S
O28 C27 1.218 . S
C29 O22 1.275 . S
C29 O24 1.255 . S
C30 O31 1.258 . S
C30 O32 1.256 . S
O31 Cd23 2.381 . S
O31 C30 1.258 . S
O32 Cd23 2.378 . S
O32 C30 1.256 . S
O33 Cd34 2.300 . S
O33 C40 1.275 . S
Cd34 O33 2.300 . S
Cd34 O42 2.381 . S
Cd34 O43 2.378 . S
O35 Cd36 2.385 . S
O35 C40 1.255 . S
Cd36 O35 2.385 . S
Cd36 O37 2.317 . S
O37 Cd36 2.317 . S
O37 C38 1.232 . S
C38 O37 1.232 . S
C38 O39 1.218 . S
O39 C38 1.218 . S
C40 O33 1.275 . S
C40 O35 1.255 . S
C41 O42 1.258 . S
C41 O43 1.256 . S
O42 Cd34 2.381 . S
O42 C41 1.258 . S
O43 Cd34 2.378 . S
O43 C41 1.256 . S
O44 Cd45 2.300 . S
O44 C51 1.275 . S
Cd45 O44 2.300 . S
Cd45 O53 2.381 . S
Cd45 O54 2.378 . S
O46 Cd47 2.385 . S
O46 C51 1.255 . S
Cd47 O46 2.385 . S
Cd47 O48 2.317 . S
O48 Cd47 2.317 . S
O48 C49 1.232 . S
C49 O48 1.232 . S
C49 O50 1.218 . S
O50 C49 1.218 . S
C51 O44 1.275 . S
C51 O46 1.255 . S
C52 O53 1.258 . S
C52 O54 1.256 . S
O53 Cd45 2.381 . S
O53 C52 1.258 . S
O54 Cd45 2.378 . S
O54 C52 1.256 . S
O55 Cd56 2.300 . S
O55 C62 1.275 . S
Cd56 O55 2.300 . S
Cd56 O64 2.381 . S
Cd56 O65 2.378 . S
O57 Cd58 2.385 . S
O57 C62 1.255 . S
Cd58 O57 2.385 . S
Cd58 O59 2.317 . S
O59 Cd58 2.317 . S
O59 C60 1.232 . S
C60 O59 1.232 . S
C60 O61 1.218 . S
O61 C60 1.218 . S
C62 O55 1.275 . S
C62 O57 1.255 . S
C63 O64 1.258 . S
C63 O65 1.256 . S
O64 Cd56 2.381 . S
O64 C63 1.258 . S
O65 Cd56 2.378 . S
O65 C63 1.256 . S
O66 Cd67 2.300 . S
O66 C73 1.275 . S
Cd67 O66 2.300 . S
Cd67 O75 2.381 . S
Cd67 O76 2.378 . S
O68 Cd69 2.385 . S
O68 C73 1.255 . S
Cd69 O68 2.385 . S
Cd69 O70 2.317 . S
O70 Cd69 2.317 . S
O70 C71 1.232 . S
C71 O70 1.232 . S
C71 O72 1.218 . S
O72 C71 1.218 . S
C73 O66 1.275 . S
C73 O68 1.255 . S
C74 O75 1.258 . S
C74 O76 1.256 . S
O75 Cd67 2.381 . S
O75 C74 1.258 . S
O76 Cd67 2.378 . S
O76 C74 1.256 . S
O77 Cd78 2.300 . S
O77 C84 1.275 . S
Cd78 O77 2.300 . S
Cd78 O86 2.381 . S
Cd78 O87 2.378 . S
O79 Cd80 2.385 . S
O79 C84 1.255 . S
Cd80 O79 2.385 . S
Cd80 O81 2.317 . S
O81 Cd80 2.317 . S
O81 C82 1.232 . S
C82 O81 1.232 . S
C82 O83 1.218 . S
O83 C82 1.218 . S
C84 O77 1.275 . S
C84 O79 1.255 . S
C85 O86 1.258 . S
C85 O87 1.256 . S
O86 Cd78 2.381 . S
O86 C85 1.258 . S
O87 Cd78 2.378 . S
O87 C85 1.256 . S
H88 C89 0.951 . S
C89 H88 0.951 . S
C89 C95 1.265 . S
H90 C95 0.950 . S
H91 C99 0.949 . S
H92 C100 0.950 . S
H93 C101 0.951 . S
H94 C102 0.951 . S
C95 C89 1.265 . S
C95 H90 0.950 . S
C95 C96 1.478 . S
C96 C95 1.478 . S
C96 C97 1.397 1_556 S
C96 C113 1.394 . S
C97 C96 1.397 1_554 S
C97 C98 1.438 . S
C97 C102 1.429 . S
C98 C97 1.438 . S
C98 C99 1.428 . S
C98 C111 1.394 . S
C99 H91 0.949 . S
C99 C98 1.428 . S
C99 C100 1.345 . S
C100 H92 0.950 . S
C100 C99 1.345 . S
C100 C101 1.424 . S
C101 H93 0.951 . S
C101 C100 1.424 . S
C101 C102 1.347 . S
C102 H94 0.951 . S
C102 C97 1.429 . S
C102 C101 1.347 . S
H103 C104 0.951 . S
C104 H103 0.951 . S
C104 C110 1.265 . S
H105 C110 0.950 . S
H106 C114 0.949 . S
H107 C115 0.950 . S
H108 C116 0.951 . S
H109 C117 0.951 . S
C110 C104 1.265 . S
C110 H105 0.950 . S
C110 C111 1.478 . S
C111 C98 1.394 . S
C111 C110 1.478 . S
C111 C112 1.397 1_554 S
C112 C111 1.397 1_556 S
C112 C113 1.438 . S
C112 C117 1.429 . S
C113 C96 1.394 . S
C113 C112 1.438 . S
C113 C114 1.428 . S
C114 H106 0.949 . S
C114 C113 1.428 . S
C114 C115 1.345 . S
C115 H107 0.950 . S
C115 C114 1.345 . S
C115 C116 1.424 . S
C116 H108 0.951 . S
C116 C115 1.424 . S
C116 C117 1.347 . S
C117 H109 0.951 . S
C117 C112 1.429 . S
C117 C116 1.347 . S
H118 C119 0.951 . S
C119 H118 0.951 . S
C119 C125 1.265 1_455 S
H120 C125 0.950 . S
H121 C129 0.949 . S
H122 C130 0.950 . S
H123 C131 0.951 . S
H124 C132 0.951 . S
C125 C119 1.265 1_655 S
C125 H120 0.950 . S
C125 C126 1.478 . S
C126 C125 1.478 . S
C126 C127 1.397 . S
C126 C143 1.394 . S
C127 C126 1.397 . S
C127 C128 1.438 . S
C127 C132 1.429 . S
C128 C127 1.438 . S
C128 C129 1.428 . S
C128 C141 1.394 . S
C129 H121 0.949 . S
C129 C128 1.428 . S
C129 C130 1.345 . S
C130 H122 0.950 . S
C130 C129 1.345 . S
C130 C131 1.424 . S
C131 H123 0.951 . S
C131 C130 1.424 . S
C131 C132 1.347 . S
C132 H124 0.951 . S
C132 C127 1.429 . S
C132 C131 1.347 . S
H133 C134 0.951 . S
C134 H133 0.951 . S
C134 C140 1.265 . S
H135 C140 0.950 . S
H136 C144 0.949 . S
H137 C145 0.950 . S
H138 C146 0.951 . S
H139 C147 0.951 . S
C140 C134 1.265 . S
C140 H135 0.950 . S
C140 C141 1.478 . S
C141 C128 1.394 . S
C141 C140 1.478 . S
C141 C142 1.397 . S
C142 C141 1.397 . S
C142 C143 1.438 . S
C142 C147 1.429 . S
C143 C126 1.394 . S
C143 C142 1.438 . S
C143 C144 1.428 . S
C144 H136 0.949 . S
C144 C143 1.428 . S
C144 C145 1.345 . S
C145 H137 0.950 . S
C145 C144 1.345 . S
C145 C146 1.424 . S
C146 H138 0.951 . S
C146 C145 1.424 . S
C146 C147 1.347 . S
C147 H139 0.951 . S
C147 C142 1.429 . S
C147 C146 1.347 . S
H148 C149 0.951 . S
C149 H148 0.951 . S
C149 C155 1.265 . S
H150 C155 0.950 . S
H151 C159 0.949 . S
H152 C160 0.950 . S
H153 C161 0.951 . S
H154 C162 0.951 . S
C155 C149 1.265 . S
C155 H150 0.950 . S
C155 C156 1.478 . S
C156 C155 1.478 . S
C156 C157 1.397 . S
C156 C173 1.394 . S
C157 C156 1.397 . S
C157 C158 1.438 . S
C157 C162 1.429 . S
C158 C157 1.438 . S
C158 C159 1.428 . S
C158 C171 1.394 . S
C159 H151 0.949 . S
C159 C158 1.428 . S
C159 C160 1.345 . S
C160 H152 0.950 . S
C160 C159 1.345 . S
C160 C161 1.424 . S
C161 H153 0.951 . S
C161 C160 1.424 . S
C161 C162 1.347 . S
C162 H154 0.951 . S
C162 C157 1.429 . S
C162 C161 1.347 . S
H163 C164 0.951 . S
C164 H163 0.951 . S
C164 C170 1.265 . S
H165 C170 0.950 . S
H166 C174 0.949 . S
H167 C175 0.950 . S
H168 C176 0.951 . S
H169 C177 0.951 . S
C170 C164 1.265 . S
C170 H165 0.950 . S
C170 C171 1.478 . S
C171 C158 1.394 . S
C171 C170 1.478 . S
C171 C172 1.397 . S
C172 C171 1.397 . S
C172 C173 1.438 . S
C172 C177 1.429 . S
C173 C156 1.394 . S
C173 C172 1.438 . S
C173 C174 1.428 . S
C174 H166 0.949 . S
C174 C173 1.428 . S
C174 C175 1.345 . S
C175 H167 0.950 . S
C175 C174 1.345 . S
C175 C176 1.424 . S
C176 H168 0.951 . S
C176 C175 1.424 . S
C176 C177 1.347 . S
C177 H169 0.951 . S
C177 C172 1.429 . S
C177 C176 1.347 . S
H178 C179 0.951 . S
C179 H178 0.951 . S
C179 C185 1.265 1_455 S
H180 C185 0.950 . S
H181 C189 0.949 . S
H182 C190 0.950 . S
H183 C191 0.951 . S
H184 C192 0.951 . S
C185 C179 1.265 1_655 S
C185 H180 0.950 . S
C185 C186 1.478 . S
C186 C185 1.478 . S
C186 C187 1.397 . S
C186 C203 1.394 . S
C187 C186 1.397 . S
C187 C188 1.438 . S
C187 C192 1.429 . S
C188 C187 1.438 . S
C188 C189 1.428 . S
C188 C201 1.394 . S
C189 H181 0.949 . S
C189 C188 1.428 . S
C189 C190 1.345 . S
C190 H182 0.950 . S
C190 C189 1.345 . S
C190 C191 1.424 . S
C191 H183 0.951 . S
C191 C190 1.424 . S
C191 C192 1.347 . S
C192 H184 0.951 . S
C192 C187 1.429 . S
C192 C191 1.347 . S
H193 C194 0.951 . S
C194 H193 0.951 . S
C194 C200 1.265 . S
H195 C200 0.950 . S
H196 C204 0.951 . S
H197 C205 0.950 . S
H198 C206 0.951 . S
H199 C207 0.951 . S
C200 C194 1.265 . S
C200 H195 0.950 . S
C200 C201 1.478 . S
C201 C188 1.394 . S
C201 C200 1.478 . S
C201 C202 1.397 . S
C202 C201 1.397 . S
C202 C203 1.438 . S
C202 C207 1.429 . S
C203 C186 1.394 . S
C203 C202 1.438 . S
C203 C204 1.428 . S
C204 H196 0.951 . S
C204 C203 1.428 . S
C204 C205 1.345 . S
C205 H197 0.950 . S
C205 C204 1.345 . S
C205 C206 1.424 . S
C206 H198 0.951 . S
C206 C205 1.424 . S
C206 C207 1.347 . S
C207 H199 0.951 . S
C207 C202 1.429 . S
C207 C206 1.347 . S
H208 C209 0.951 . S
C209 H208 0.951 . S
C209 C215 1.265 . S
H210 C215 0.950 . S
H211 C219 0.949 . S
H212 C220 0.950 . S
H213 C221 0.951 . S
H214 C222 0.951 . S
C215 C209 1.265 . S
C215 H210 0.950 . S
C215 C216 1.478 . S
C216 C215 1.478 . S
C216 C217 1.397 . S
C216 C233 1.394 . S
C217 C216 1.397 . S
C217 C218 1.438 . S
C217 C222 1.429 . S
C218 C217 1.438 . S
C218 C219 1.428 . S
C218 C231 1.394 . S
C219 H211 0.949 . S
C219 C218 1.428 . S
C219 C220 1.345 . S
C220 H212 0.950 . S
C220 C219 1.345 . S
C220 C221 1.424 . S
C221 H213 0.951 . S
C221 C220 1.424 . S
C221 C222 1.347 . S
C222 H214 0.951 . S
C222 C217 1.429 . S
C222 C221 1.347 . S
H223 C224 0.951 . S
C224 H223 0.951 . S
C224 C230 1.265 . S
H225 C230 0.950 . S
H226 C234 0.949 . S
H227 C235 0.950 . S
H228 C236 0.951 . S
H229 C237 0.951 . S
C230 C224 1.265 . S
C230 H225 0.950 . S
C230 C231 1.478 . S
C231 C218 1.394 . S
C231 C230 1.478 . S
C231 C232 1.397 . S
C232 C231 1.397 . S
C232 C233 1.438 . S
C232 C237 1.429 . S
C233 C216 1.394 . S
C233 C232 1.438 . S
C233 C234 1.428 . S
C234 H226 0.949 . S
C234 C233 1.428 . S
C234 C235 1.345 . S
C235 H227 0.950 . S
C235 C234 1.345 . S
C235 C236 1.424 . S
C236 H228 0.951 . S
C236 C235 1.424 . S
C236 C237 1.347 . S
C237 H229 0.951 . S
C237 C232 1.429 . S
C237 C236 1.347 . S
H238 C239 0.951 . S
C239 H238 0.951 . S
C239 C245 1.265 . S
H240 C245 0.950 . S
H241 C249 0.949 . S
H242 C250 0.950 . S
H243 C251 0.951 . S
H244 C252 0.951 . S
C245 C239 1.265 . S
C245 H240 0.950 . S
C245 C246 1.478 . S
C246 C245 1.478 . S
C246 C247 1.397 . S
C246 C263 1.394 . S
C247 C246 1.397 . S
C247 C248 1.438 . S
C247 C252 1.429 . S
C248 C247 1.438 . S
C248 C249 1.428 . S
C248 C261 1.394 . S
C249 H241 0.949 . S
C249 C248 1.428 . S
C249 C250 1.345 . S
C250 H242 0.950 . S
C250 C249 1.345 . S
C250 C251 1.424 . S
C251 H243 0.951 . S
C251 C250 1.424 . S
C251 C252 1.347 . S
C252 H244 0.951 . S
C252 C247 1.429 . S
C252 C251 1.347 . S
H253 C254 0.951 . S
C254 H253 0.951 . S
C254 C260 1.265 . S
H255 C260 0.950 . S
H256 C264 0.949 . S
H257 C265 0.950 . S
H258 C266 0.951 . S
H259 C267 0.951 . S
C260 C254 1.265 . S
C260 H255 0.950 . S
C260 C261 1.478 . S
C261 C248 1.394 . S
C261 C260 1.478 . S
C261 C262 1.397 . S
C262 C261 1.397 . S
C262 C263 1.438 . S
C262 C267 1.429 . S
C263 C246 1.394 . S
C263 C262 1.438 . S
C263 C264 1.428 . S
C264 H256 0.949 . S
C264 C263 1.428 . S
C264 C265 1.345 . S
C265 H257 0.950 . S
C265 C264 1.345 . S
C265 C266 1.424 . S
C266 H258 0.951 . S
C266 C265 1.424 . S
C266 C267 1.347 . S
C267 H259 0.951 . S
C267 C262 1.429 . S
C267 C266 1.347 . S
H268 C269 0.951 . S
C269 H268 0.951 . S
C269 C275 1.265 . S
H270 C275 0.950 . S
H271 C279 0.949 . S
H272 C280 0.950 . S
H273 C281 0.951 . S
H274 C282 0.951 . S
C275 C269 1.265 . S
C275 H270 0.950 . S
C275 C276 1.478 . S
C276 C275 1.478 . S
C276 C277 1.397 . S
C276 C293 1.394 . S
C277 C276 1.397 . S
C277 C278 1.438 1_565 S
C277 C282 1.429 . S
C278 C277 1.438 1_545 S
C278 C279 1.428 . S
C278 C291 1.394 . S
C279 H271 0.949 . S
C279 C278 1.428 . S
C279 C280 1.345 . S
C280 H272 0.950 . S
C280 C279 1.345 . S
C280 C281 1.424 1_545 S
C281 H273 0.951 . S
C281 C280 1.424 1_565 S
C281 C282 1.347 . S
C282 H274 0.951 . S
C282 C277 1.429 . S
C282 C281 1.347 . S
H283 C284 0.951 . S
C284 H283 0.951 . S
C284 C290 1.265 . S
H285 C290 0.950 . S
H286 C294 0.949 . S
H287 C295 0.950 . S
H288 C296 0.951 . S
H289 C297 0.951 . S
C290 C284 1.265 . S
C290 H285 0.950 . S
C290 C291 1.478 . S
C291 C278 1.394 . S
C291 C290 1.478 . S
C291 C292 1.397 . S
C292 C291 1.397 . S
C292 C293 1.438 1_545 S
C292 C297 1.429 . S
C293 C276 1.394 . S
C293 C292 1.438 1_565 S
C293 C294 1.428 . S
C294 H286 0.949 . S
C294 C293 1.428 . S
C294 C295 1.345 . S
C295 H287 0.950 . S
C295 C294 1.345 . S
C295 C296 1.424 1_565 S
C296 H288 0.951 . S
C296 C295 1.424 1_545 S
C296 C297 1.347 . S
C297 H289 0.951 . S
C297 C292 1.429 . S
C297 C296 1.347 . S
H298 C299 0.951 . S
C299 H298 0.951 . S
C299 C305 1.265 . S
H300 C305 0.950 1_556 S
H301 C309 0.949 . S
H302 C310 0.950 . S
H303 C311 0.949 1_554 S
H304 C312 0.951 . S
C305 C299 1.265 . S
C305 H300 0.950 1_554 S
C305 C306 1.478 . S
C306 C305 1.478 . S
C306 C307 1.412 . S
C306 C323 1.394 . S
C307 C306 1.412 . S
C307 C308 1.416 1_564 S
C307 C312 1.439 1_455 S
C308 C307 1.416 1_546 S
C308 C309 1.428 1_455 S
C308 C321 1.394 . S
C309 H301 0.949 . S
C309 C308 1.428 1_655 S
C309 C310 1.345 . S
C310 H302 0.950 . S
C310 C309 1.345 . S
C310 C311 1.425 1_545 S
C311 H303 0.949 1_556 S
C311 C310 1.425 1_565 S
C311 C312 1.347 1_556 S
C312 H304 0.951 . S
C312 C307 1.439 1_655 S
C312 C311 1.347 1_554 S
H313 C314 0.951 . S
C314 H313 0.951 . S
C314 C320 1.265 . S
H315 C320 0.950 1_554 S
H316 C324 0.949 . S
H317 C325 0.950 . S
H318 C326 0.949 1_556 S
H319 C327 0.951 . S
C320 C314 1.265 . S
C320 H315 0.950 1_556 S
C320 C321 1.478 . S
C321 C308 1.394 . S
C321 C320 1.478 . S
C321 C322 1.412 . S
C322 C321 1.412 . S
C322 C323 1.417 1_546 S
C322 C327 1.439 . S
C323 C306 1.394 . S
C323 C322 1.417 1_564 S
C323 C324 1.428 . S
C324 H316 0.949 . S
C324 C323 1.428 . S
C324 C325 1.345 . S
C325 H317 0.950 . S
C325 C324 1.345 . S
C325 C326 1.425 1_565 S
C326 H318 0.949 1_554 S
C326 C325 1.425 1_545 S
C326 C327 1.346 1_554 S
C327 H319 0.951 . S
C327 C322 1.439 . S
C327 C326 1.346 1_556 S
H328 C329 0.951 . S
C329 H328 0.951 . S
C329 C335 1.265 . S
H330 C335 0.950 . S
H331 C339 0.949 . S
H332 C340 0.950 . S
H333 C341 0.951 . S
H334 C342 0.951 . S
C335 C329 1.265 . S
C335 H330 0.950 . S
C335 C336 1.478 . S
C336 C335 1.478 . S
C336 C337 1.397 . S
C336 C353 1.394 . S
C337 C336 1.397 . S
C337 C338 1.438 . S
C337 C342 1.429 . S
C338 C337 1.438 . S
C338 C339 1.428 . S
C338 C351 1.394 . S
C339 H331 0.949 . S
C339 C338 1.428 . S
C339 C340 1.345 . S
C340 H332 0.950 . S
C340 C339 1.345 . S
C340 C341 1.424 . S
C341 H333 0.951 . S
C341 C340 1.424 . S
C341 C342 1.347 . S
C342 H334 0.951 . S
C342 C337 1.429 . S
C342 C341 1.347 . S
H343 C344 0.951 . S
C344 H343 0.951 . S
C344 C350 1.265 . S
H345 C350 0.950 . S
H346 C354 0.949 . S
H347 C355 0.950 . S
H348 C356 0.951 . S
H349 C357 0.951 . S
C350 C344 1.265 . S
C350 H345 0.950 . S
C350 C351 1.478 . S
C351 C338 1.394 . S
C351 C350 1.478 . S
C351 C352 1.397 . S
C352 C351 1.397 . S
C352 C353 1.438 . S
C352 C357 1.429 . S
C353 C336 1.394 . S
C353 C352 1.438 . S
C353 C354 1.428 . S
C354 H346 0.949 . S
C354 C353 1.428 . S
C354 C355 1.345 . S
C355 H347 0.950 . S
C355 C354 1.345 . S
C355 C356 1.424 . S
C356 H348 0.951 . S
C356 C355 1.424 . S
C356 C357 1.347 . S
C357 H349 0.951 . S
C357 C352 1.429 . S
C357 C356 1.347 . S
H358 C359 0.951 . S
C359 H358 0.951 . S
C359 C365 1.265 . S
H360 C365 0.950 . S
H361 C369 0.949 . S
H362 C370 0.950 . S
H363 C371 0.951 . S
H364 C372 0.951 . S
C365 C359 1.265 . S
C365 H360 0.950 . S
C365 C366 1.478 . S
C366 C365 1.478 . S
C366 C367 1.397 . S
C366 C383 1.394 . S
C367 C366 1.397 . S
C367 C368 1.438 . S
C367 C372 1.429 . S
C368 C367 1.438 . S
C368 C369 1.428 . S
C368 C381 1.394 . S
C369 H361 0.949 . S
C369 C368 1.428 . S
C369 C370 1.345 . S
C370 H362 0.950 . S
C370 C369 1.345 . S
C370 C371 1.424 . S
C371 H363 0.951 . S
C371 C370 1.424 . S
C371 C372 1.347 . S
C372 H364 0.951 . S
C372 C367 1.429 . S
C372 C371 1.347 . S
H373 C374 0.951 . S
C374 H373 0.951 . S
C374 C380 1.265 . S
H375 C380 0.950 . S
H376 C384 0.949 . S
H377 C385 0.950 . S
H378 C386 0.951 . S
H379 C387 0.951 . S
C380 C374 1.265 . S
C380 H375 0.950 . S
C380 C381 1.478 . S
C381 C368 1.394 . S
C381 C380 1.478 . S
C381 C382 1.397 . S
C382 C381 1.397 . S
C382 C383 1.438 . S
C382 C387 1.429 . S
C383 C366 1.394 . S
C383 C382 1.438 . S
C383 C384 1.428 . S
C384 H376 0.949 . S
C384 C383 1.428 . S
C384 C385 1.345 . S
C385 H377 0.950 . S
C385 C384 1.345 . S
C385 C386 1.424 . S
C386 H378 0.951 . S
C386 C385 1.424 . S
C386 C387 1.347 . S
C387 H379 0.951 . S
C387 C382 1.429 . S
C387 C386 1.347 . S
H388 C389 0.951 . S
C389 H388 0.951 . S
C389 C395 1.265 . S
H390 C395 0.950 . S
H391 C399 0.949 . S
H392 C400 0.950 . S
H393 C401 0.951 . S
H394 C402 0.951 . S
C395 C389 1.265 . S
C395 H390 0.950 . S
C395 C396 1.478 . S
C396 C395 1.478 . S
C396 C397 1.397 . S
C396 C413 1.394 . S
C397 C396 1.397 . S
C397 C398 1.438 . S
C397 C402 1.429 . S
C398 C397 1.438 . S
C398 C399 1.428 . S
C398 C411 1.394 . S
C399 H391 0.949 . S
C399 C398 1.428 . S
C399 C400 1.345 . S
C400 H392 0.950 . S
C400 C399 1.345 . S
C400 C401 1.424 . S
C401 H393 0.951 . S
C401 C400 1.424 . S
C401 C402 1.347 . S
C402 H394 0.951 . S
C402 C397 1.429 . S
C402 C401 1.347 . S
H403 C404 0.951 . S
C404 H403 0.951 . S
C404 C410 1.265 . S
H405 C410 0.950 . S
H406 C414 0.949 . S
H407 C415 0.950 . S
H408 C416 0.951 . S
H409 C417 0.951 . S
C410 C404 1.265 . S
C410 H405 0.950 . S
C410 C411 1.478 . S
C411 C398 1.394 . S
C411 C410 1.478 . S
C411 C412 1.397 . S
C412 C411 1.397 . S
C412 C413 1.438 . S
C412 C417 1.429 . S
C413 C396 1.394 . S
C413 C412 1.438 . S
C413 C414 1.428 . S
C414 H406 0.949 . S
C414 C413 1.428 . S
C414 C415 1.345 . S
C415 H407 0.950 . S
C415 C414 1.345 . S
C415 C416 1.424 . S
C416 H408 0.951 . S
C416 C415 1.424 . S
C416 C417 1.347 . S
C417 H409 0.951 . S
C417 C412 1.429 . S
C417 C416 1.347 . S
H418 C419 0.951 . S
C419 H418 0.951 . S
C419 C425 1.265 . S
H420 C425 0.950 . S
H421 C429 0.949 . S
H422 C430 0.950 . S
H423 C431 0.951 1_655 S
H424 C432 0.951 . S
C425 C419 1.265 . S
C425 H420 0.950 . S
C425 C426 1.478 . S
C426 C425 1.478 . S
C426 C427 1.397 . S
C426 C443 1.394 . S
C427 C426 1.397 . S
C427 C428 1.438 . S
C427 C432 1.429 . S
C428 C427 1.438 . S
C428 C429 1.428 . S
C428 C441 1.394 . S
C429 H421 0.949 . S
C429 C428 1.428 . S
C429 C430 1.345 . S
C430 H422 0.950 . S
C430 C429 1.345 . S
C430 C431 1.424 . S
C431 H423 0.951 1_455 S
C431 C430 1.424 . S
C431 C432 1.347 . S
C432 H424 0.951 . S
C432 C427 1.429 . S
C432 C431 1.347 . S
H433 C434 0.951 . S
C434 H433 0.951 . S
C434 C440 1.265 . S
H435 C440 0.950 . S
H436 C444 0.949 . S
H437 C445 0.950 . S
H438 C446 0.951 . S
H439 C447 0.951 . S
C440 C434 1.265 . S
C440 H435 0.950 . S
C440 C441 1.478 . S
C441 C428 1.394 . S
C441 C440 1.478 . S
C441 C442 1.397 . S
C442 C441 1.397 . S
C442 C443 1.438 . S
C442 C447 1.429 . S
C443 C426 1.394 . S
C443 C442 1.438 . S
C443 C444 1.428 . S
C444 H436 0.949 . S
C444 C443 1.428 . S
C444 C445 1.345 . S
C445 H437 0.950 . S
C445 C444 1.345 . S
C445 C446 1.424 . S
C446 H438 0.951 . S
C446 C445 1.424 . S
C446 C447 1.347 . S
C447 H439 0.951 . S
C447 C442 1.429 . S
C447 C446 1.347 . S
C89 C49 1.190 . S
C104 C5 1.370 . S
C119 C60 1.321 . S
C134 C19 1.488 . S
C149 C30 1.478 . S
C164 C74 1.493 . S
C179 C38 1.334 . S
C194 C85 1.491 . S
C209 C82 1.305 . S
C224 C41 1.485 . S
C239 C63 1.474 . S
C254 C16 1.270 . S
C269 C71 1.357 . S
C284 C27 1.192 . S
C299 C8 1.476 . S
C314 C52 1.495 . S
C329 C62 1.451 . S
C344 C7 1.464 . S
C359 C73 1.405 . S
C374 C18 1.488 . S
C389 C29 1.484 . S
C404 C84 1.432 . S
C419 C51 1.428 . S
C434 C40 1.468 . S
