# Generated by pormake.
# Topology uoc, (4)-cn, num edge types: 1
# Building blocks:
#     Node 0, Type 0, BuildingBlock: QUQFOY_clean_sbu_3, # of connection points: 4
#     Node 1, Type 0, BuildingBlock: QUQFOY_clean_sbu_3, # of connection points: 4
#     Node 2, Type 0, BuildingBlock: QUQFOY_clean_sbu_3, # of connection points: 4
#     Node 3, Type 0, BuildingBlock: QUQFOY_clean_sbu_3, # of connection points: 4
#     Node 4, Type 0, BuildingBlock: QUQFOY_clean_sbu_3, # of connection points: 4
#     Node 5, Type 0, BuildingBlock: QUQFOY_clean_sbu_3, # of connection points: 4
#     Node 6, Type 0, BuildingBlock: QUQFOY_clean_sbu_3, # of connection points: 4
#     Node 7, Type 0, BuildingBlock: QUQFOY_clean_sbu_3, # of connection points: 4
#     Edge 8, Type (0, 0), BuildingBlock: FUNLAD_clean_linker_0, # of connection points: 2
#     Edge 9, Type (0, 0), BuildingBlock: FUNLAD_clean_linker_0, # of connection points: 2
#     Edge 10, Type (0, 0), BuildingBlock: FUNLAD_clean_linker_0, # of connection points: 2
#     Edge 11, Type (0, 0), BuildingBlock: FUNLAD_clean_linker_0, # of connection points: 2
#     Edge 12, Type (0, 0), BuildingBlock: FUNLAD_clean_linker_0, # of connection points: 2
#     Edge 13, Type (0, 0), BuildingBlock: FUNLAD_clean_linker_0, # of connection points: 2
#     Edge 14, Type (0, 0), BuildingBlock: FUNLAD_clean_linker_0, # of connection points: 2
#     Edge 15, Type (0, 0), BuildingBlock: FUNLAD_clean_linker_0, # of connection points: 2
#     Edge 16, Type (0, 0), BuildingBlock: FUNLAD_clean_linker_0, # of connection points: 2
#     Edge 17, Type (0, 0), BuildingBlock: FUNLAD_clean_linker_0, # of connection points: 2
#     Edge 18, Type (0, 0), BuildingBlock: FUNLAD_clean_linker_0, # of connection points: 2
#     Edge 19, Type (0, 0), BuildingBlock: FUNLAD_clean_linker_0, # of connection points: 2
#     Edge 20, Type (0, 0), BuildingBlock: FUNLAD_clean_linker_0, # of connection points: 2
#     Edge 21, Type (0, 0), BuildingBlock: FUNLAD_clean_linker_0, # of connection points: 2
#     Edge 22, Type (0, 0), BuildingBlock: FUNLAD_clean_linker_0, # of connection points: 2
#     Edge 23, Type (0, 0), BuildingBlock: FUNLAD_clean_linker_0, # of connection points: 2
# Relax obj value: 0.101
# Max RMSD: 0.113
# Mean RMSD: 0.113
data_MOF--net-uoc--node1-QUQFOY_clean_sbu_3--edge1-FUNLAD_clean_linker_0
_symmetry_space_group_name_H-M    P1
_symmetry_Int_Tables_number       1
_symmetry_cell_setting            triclinic
loop_
_symmetry_equiv_pos_as_xyz
'x, y, z'
_cell_length_a     31.54358
_cell_length_b     31.629571
_cell_length_c     65.074596
_cell_angle_alpha  90.04895
_cell_angle_beta   89.967185
_cell_angle_gamma 95.473942
loop_
_atom_site_label
_atom_site_type_symbol
_atom_site_fract_x
_atom_site_fract_y
_atom_site_fract_z
_atom_type_partial_charge
C0 C 0.23497 0.26222 0.07299 0.0
O1 O 0.24854 0.23487 0.08497 0.0
Cd2 Cd 0.20735 0.20636 0.11356 0.0
O3 O 0.19838 0.27518 0.07574 0.0
Cd4 Cd 0.13749 0.26571 0.09952 0.0
C5 C 0.11765 0.16068 0.08958 0.0
O6 O 0.18156 0.26689 0.13007 0.0
O7 O 0.11417 0.25173 0.13499 0.0
O8 O 0.12964 0.34068 0.09357 0.0
C9 C 0.151 0.25984 0.14261 0.0
O10 O 0.15083 0.15533 0.10003 0.0
C11 C 0.08981 0.33559 0.09031 0.0
O12 O 0.10725 0.19785 0.08602 0.0
O13 O 0.07217 0.29784 0.09116 0.0
C14 C 0.76778 0.74362 0.40356 0.0
O15 O 0.74167 0.76103 0.39225 0.0
Cd16 Cd 0.72037 0.73003 0.35957 0.0
O17 O 0.78205 0.70917 0.39797 0.0
Cd18 Cd 0.77564 0.65938 0.36912 0.0
C19 C 0.66971 0.63472 0.37335 0.0
O20 O 0.78414 0.71338 0.34172 0.0
O21 O 0.77028 0.64779 0.33256 0.0
O22 O 0.84816 0.6484 0.37939 0.0
C23 C 0.78143 0.68583 0.32748 0.0
O24 O 0.6658 0.67072 0.36522 0.0
C25 C 0.84396 0.60864 0.37621 0.0
O26 O 0.70637 0.62396 0.37786 0.0
O27 O 0.80773 0.59241 0.37025 0.0
C28 C 0.27709 0.2137 0.57122 0.0
O29 O 0.25706 0.23804 0.58239 0.0
Cd30 Cd 0.28174 0.25907 0.61618 0.0
O31 O 0.31119 0.19984 0.57769 0.0
Cd32 Cd 0.35637 0.20389 0.60831 0.0
C33 C 0.37942 0.3104 0.6057 0.0
O34 O 0.29885 0.19553 0.63357 0.0
O35 O 0.36238 0.21149 0.64535 0.0
O36 O 0.36834 0.13026 0.60169 0.0
C37 C 0.32341 0.20048 0.64896 0.0
O38 O 0.34194 0.31368 0.61241 0.0
C39 C 0.40868 0.13651 0.60191 0.0
O40 O 0.39157 0.27414 0.6016 0.0
O41 O 0.42474 0.1743 0.60509 0.0
C42 C 0.7255 0.76893 0.9051 0.0
O43 O 0.75095 0.75564 0.89199 0.0
Cd44 Cd 0.77579 0.79781 0.86309 0.0
O45 O 0.71281 0.80585 0.90347 0.0
Cd46 Cd 0.71886 0.86889 0.88089 0.0
C47 C 0.82644 0.88621 0.88681 0.0
O48 O 0.71366 0.82626 0.84996 0.0
O49 O 0.72466 0.89387 0.84515 0.0
O50 O 0.64408 0.87069 0.88963 0.0
C51 C 0.71789 0.85701 0.83748 0.0
O52 O 0.82838 0.85267 0.87616 0.0
C53 C 0.64594 0.91029 0.89307 0.0
O54 O 0.79053 0.89866 0.89178 0.0
O55 O 0.68231 0.93103 0.89135 0.0
C56 C 0.73723 0.73411 0.58258 0.0
O57 O 0.75268 0.70867 0.59499 0.0
Cd58 Cd 0.71799 0.69025 0.62725 0.0
O59 O 0.70256 0.74973 0.58677 0.0
Cd60 Cd 0.64841 0.74882 0.61367 0.0
C61 C 0.62176 0.64234 0.6119 0.0
O62 O 0.69925 0.75593 0.64209 0.0
O63 O 0.63241 0.74888 0.65012 0.0
O64 O 0.64157 0.82235 0.6042 0.0
C65 C 0.67081 0.75581 0.65587 0.0
O66 O 0.65722 0.63794 0.62058 0.0
C67 C 0.60147 0.8174 0.60179 0.0
O68 O 0.61212 0.67895 0.60669 0.0
O69 O 0.58326 0.78037 0.6048 0.0
C70 C 0.25339 0.24843 0.90336 0.0
O71 O 0.22664 0.26375 0.89161 0.0
Cd72 Cd 0.19664 0.22393 0.86291 0.0
O73 O 0.26428 0.21117 0.90038 0.0
Cd74 Cd 0.2535 0.15001 0.87688 0.0
C75 C 0.14712 0.13437 0.88624 0.0
O76 O 0.25601 0.19527 0.84685 0.0
O77 O 0.24108 0.12826 0.84108 0.0
O78 O 0.32911 0.14749 0.88275 0.0
C79 C 0.24902 0.16545 0.83394 0.0
O80 O 0.14457 0.16893 0.87649 0.0
C81 C 0.32774 0.10791 0.88611 0.0
O82 O 0.18323 0.12075 0.88966 0.0
O83 O 0.29121 0.08713 0.88541 0.0
C84 C 0.7588 0.73583 0.07568 0.0
O85 O 0.74601 0.76401 0.08748 0.0
Cd86 Cd 0.78667 0.79498 0.11574 0.0
O87 O 0.79501 0.72202 0.07848 0.0
Cd88 Cd 0.85586 0.73144 0.10234 0.0
C89 C 0.87768 0.83601 0.09101 0.0
O90 O 0.81303 0.73637 0.13316 0.0
O91 O 0.88109 0.7476 0.13719 0.0
O92 O 0.86382 0.65563 0.09892 0.0
C93 C 0.84433 0.74411 0.14521 0.0
O94 O 0.84448 0.84288 0.10117 0.0
C95 C 0.90312 0.66069 0.09432 0.0
O96 O 0.8874 0.79832 0.08814 0.0
O97 O 0.92014 0.69865 0.09326 0.0
C98 C 0.24108 0.27848 0.39539 0.0
O99 O 0.2666 0.26321 0.38293 0.0
Cd100 Cd 0.2882 0.29997 0.35183 0.0
O101 O 0.22706 0.31417 0.39182 0.0
Cd102 Cd 0.23134 0.37065 0.36586 0.0
C103 C 0.33758 0.3937 0.37009 0.0
O104 O 0.2232 0.32089 0.33719 0.0
O105 O 0.23601 0.38709 0.32928 0.0
O106 O 0.16005 0.37832 0.37903 0.0
C107 C 0.22668 0.34919 0.32338 0.0
O108 O 0.34136 0.35914 0.3605 0.0
C109 C 0.16299 0.41842 0.37727 0.0
O110 O 0.30103 0.4039 0.37523 0.0
O111 O 0.19773 0.4363 0.37027 0.0
C112 C 0.24598 0.30848 0.04202 0.0
C113 C 0.26031 0.27714 0.05486 0.0
C114 C 0.26559 0.31781 0.02315 0.0
C115 C 0.30018 0.29599 0.01673 0.0
C116 C 0.31659 0.2672 0.03034 0.0
C117 C 0.29695 0.25791 0.04925 0.0
C118 C 0.31411 0.29574 -0.00507 0.0
C119 C 0.30256 0.32332 0.98067 0.0
C120 C 0.2974 0.31089 0.95876 0.0
C121 C 0.26369 0.32586 0.94768 0.0
C122 C 0.2506 0.3071 0.92901 0.0
C123 C 0.27109 0.27304 0.92116 0.0
H124 H 0.34816 0.269 0.95736 0.0
C125 C 0.30739 0.2609 0.93124 0.0
C126 C 0.32074 0.27995 0.94976 0.0
H127 H 0.32468 0.23563 0.92519 0.0
H128 H 0.21813 0.32431 0.04603 0.0
H129 H 0.25128 0.33982 0.01323 0.0
H130 H 0.34311 0.24986 0.02581 0.0
H131 H 0.30909 0.23393 0.05891 0.0
H132 H 0.32837 0.26747 -0.00991 0.0
H133 H 0.28887 0.35195 0.98543 0.0
H134 H 0.24546 0.35001 0.95415 0.0
H135 H 0.22293 0.31759 0.9214 0.0
C136 C 0.79661 0.73862 0.29916 0.0
C137 C 0.79443 0.69654 0.30625 0.0
C138 C 0.80948 0.74828 0.27901 0.0
C139 C 0.82099 0.71602 0.26582 0.0
C140 C 0.81963 0.67425 0.27309 0.0
C141 C 0.80596 0.66446 0.29302 0.0
C142 C 0.83453 0.72464 0.24441 0.0
C143 C 0.81642 0.75236 0.23239 0.0
C144 C 0.82507 0.75451 0.21009 0.0
C145 C 0.79117 0.75795 0.19647 0.0
C146 C 0.79751 0.75503 0.17531 0.0
C147 C 0.83811 0.74953 0.16744 0.0
H148 H 0.89294 0.74893 0.2124 0.0
C149 C 0.87252 0.74841 0.18104 0.0
C150 C 0.86603 0.7507 0.20221 0.0
H151 H 0.90423 0.74461 0.17537 0.0
H152 H 0.78812 0.76393 0.30913 0.0
H153 H 0.81099 0.78094 0.27386 0.0
H154 H 0.82853 0.64895 0.2632 0.0
H155 H 0.80503 0.63181 0.29816 0.0
H156 H 0.85648 0.704 0.23768 0.0
H157 H 0.79095 0.76963 0.23843 0.0
H158 H 0.7594 0.76117 0.20224 0.0
H159 H 0.77053 0.75655 0.16513 0.0
C160 C 0.22883 0.22295 0.54136 0.0
C161 C 0.26253 0.20322 0.5501 0.0
C162 C 0.21891 0.21724 0.52057 0.0
C163 C 0.24237 0.19132 0.50815 0.0
C164 C 0.27437 0.16975 0.51723 0.0
C165 C 0.28431 0.17552 0.53798 0.0
C166 C 0.23915 0.19112 0.48541 0.0
C167 C 0.2063 0.20482 0.47497 0.0
C168 C 0.21047 0.21813 0.45319 0.0
C169 C 0.18939 0.25289 0.44682 0.0
C170 C 0.19836 0.27165 0.42774 0.0
C171 C 0.22832 0.25566 0.41454 0.0
H172 H 0.25366 0.17229 0.4435 0.0
C173 C 0.24698 0.21882 0.42024 0.0
C174 C 0.23806 0.20011 0.43939 0.0
H175 H 0.26953 0.20522 0.41022 0.0
H176 H 0.21139 0.24442 0.55031 0.0
H177 H 0.19464 0.23531 0.51423 0.0
H178 H 0.29304 0.14975 0.50804 0.0
H179 H 0.31022 0.15947 0.54428 0.0
H180 H 0.26738 0.18363 0.47713 0.0
H181 H 0.17797 0.21239 0.48312 0.0
H182 H 0.16768 0.26711 0.45708 0.0
H183 H 0.18279 0.29955 0.42366 0.0
C184 C 0.71669 0.80891 0.80715 0.0
C185 C 0.71469 0.8499 0.81516 0.0
C186 C 0.71191 0.80145 0.78613 0.0
C187 C 0.70478 0.83487 0.77273 0.0
C188 C 0.7028 0.87585 0.78072 0.0
C189 C 0.70821 0.88345 0.80175 0.0
C190 C 0.69637 0.82707 0.75064 0.0
C191 C 0.71417 0.79687 0.74001 0.0
C192 C 0.7028 0.78688 0.71842 0.0
C193 C 0.7339 0.77408 0.70497 0.0
C194 C 0.72361 0.76407 0.68455 0.0
C195 C 0.68175 0.76568 0.67745 0.0
H196 H 0.63592 0.79679 0.72153 0.0
C197 C 0.65041 0.77751 0.69106 0.0
C198 C 0.66086 0.7882 0.71134 0.0
H199 H 0.61786 0.77892 0.686 0.0
H200 H 0.72156 0.78244 0.81715 0.0
H201 H 0.71244 0.76926 0.78054 0.0
H202 H 0.69691 0.90197 0.77068 0.0
H203 H 0.7063 0.91531 0.80756 0.0
H204 H 0.6754 0.84724 0.74287 0.0
H205 H 0.73855 0.77967 0.74711 0.0
H206 H 0.76629 0.77235 0.71021 0.0
H207 H 0.74831 0.75479 0.67439 0.0
C208 C 0.20738 0.29673 0.29542 0.0
C209 C 0.22142 0.33837 0.30145 0.0
C210 C 0.20209 0.28658 0.27464 0.0
C211 C 0.21078 0.31798 0.25954 0.0
C212 C 0.22552 0.35936 0.26557 0.0
C213 C 0.23049 0.36959 0.28634 0.0
C214 C 0.2059 0.30853 0.23736 0.0
C215 C 0.17733 0.27807 0.22989 0.0
C216 C 0.17154 0.27099 0.20756 0.0
C217 C 0.13086 0.25777 0.19992 0.0
C218 C 0.1241 0.25348 0.17877 0.0
C219 C 0.15814 0.26183 0.16497 0.0
H220 H 0.23793 0.2865 0.19924 0.0
C221 C 0.19919 0.27325 0.17271 0.0
C222 C 0.20587 0.27772 0.19379 0.0
H223 H 0.22616 0.27934 0.16246 0.0
H224 H 0.20043 0.27195 0.30674 0.0
H225 H 0.19186 0.25406 0.2705 0.0
H226 H 0.23278 0.38399 0.25419 0.0
H227 H 0.2416 0.40191 0.29053 0.0
H228 H 0.22458 0.32936 0.22678 0.0
H229 H 0.15538 0.26012 0.24024 0.0
H230 H 0.10404 0.25191 0.21028 0.0
H231 H 0.09217 0.24426 0.17324 0.0
C232 C 0.74309 0.7761 0.55013 0.0
C233 C 0.75831 0.74482 0.56273 0.0
C234 C 0.75942 0.78346 0.53043 0.0
C235 C 0.79163 0.75977 0.52287 0.0
C236 C 0.80823 0.7299 0.53584 0.0
C237 C 0.7919 0.7226 0.55563 0.0
C238 C 0.80402 0.76075 0.50085 0.0
C239 C 0.79561 0.79184 0.48772 0.0
C240 C 0.7949 0.78531 0.46517 0.0
C241 C 0.7645 0.80436 0.45349 0.0
C242 C 0.75696 0.79251 0.43303 0.0
C243 C 0.77991 0.76149 0.42392 0.0
H244 H 0.84552 0.74334 0.46373 0.0
C245 C 0.81288 0.74524 0.43509 0.0
C246 C 0.82051 0.75722 0.45547 0.0
H247 H 0.83192 0.72211 0.42831 0.0
H248 H 0.71738 0.79402 0.55519 0.0
H249 H 0.74477 0.80602 0.52095 0.0
H250 H 0.83282 0.71099 0.53037 0.0
H251 H 0.80443 0.6984 0.565 0.0
H252 H 0.81642 0.73225 0.49497 0.0
H253 H 0.78325 0.82045 0.49346 0.0
H254 H 0.7447 0.8265 0.46055 0.0
H255 H 0.73172 0.806 0.42474 0.0
C256 C 0.33462 0.20452 0.68683 0.0
C257 C 0.30744 0.19426 0.67013 0.0
C258 C 0.31998 0.19823 0.70689 0.0
C259 C 0.27773 0.18161 0.71068 0.0
C260 C 0.25071 0.17076 0.694 0.0
C261 C 0.2653 0.17737 0.67387 0.0
C262 C 0.26199 0.17369 0.73188 0.0
C263 C 0.27636 0.19837 0.74771 0.0
C264 C 0.26477 0.18941 0.76941 0.0
C265 C 0.27002 0.22283 0.78363 0.0
C266 C 0.26359 0.21516 0.80454 0.0
C267 C 0.25221 0.17375 0.81169 0.0
H268 H 0.24896 0.12127 0.76607 0.0
C269 C 0.24597 0.14034 0.79746 0.0
C270 C 0.25226 0.14805 0.77649 0.0
H271 H 0.23733 0.10807 0.80255 0.0
H272 H 0.36736 0.21724 0.68442 0.0
H273 H 0.34212 0.20559 0.71938 0.0
H274 H 0.21821 0.15743 0.69656 0.0
H275 H 0.24373 0.16888 0.66127 0.0
H276 H 0.23747 0.14768 0.73432 0.0
H277 H 0.29758 0.22682 0.74468 0.0
H278 H 0.27988 0.25491 0.77858 0.0
H279 H 0.26859 0.2416 0.81513 0.0
C280 C 0.74872 0.69295 0.04347 0.0
C281 C 0.73332 0.72169 0.05746 0.0
C282 C 0.72901 0.6855 0.02445 0.0
C283 C 0.69321 0.70655 0.01907 0.0
C284 C 0.67573 0.73232 0.03382 0.0
C285 C 0.69551 0.73981 0.05283 0.0
C286 C 0.67848 0.70931 -0.00252 0.0
C287 C 0.69116 0.68503 0.98202 0.0
C288 C 0.69294 0.70021 0.96043 0.0
C289 C 0.72577 0.6881 0.94776 0.0
C290 C 0.73512 0.70895 0.92916 0.0
C291 C 0.71176 0.74234 0.92295 0.0
H292 H 0.63988 0.73936 0.96191 0.0
C293 C 0.67648 0.75179 0.93468 0.0
C294 C 0.66681 0.7306 0.95312 0.0
H295 H 0.65706 0.7765 0.92992 0.0
H296 H 0.77753 0.67804 0.04668 0.0
H297 H 0.74407 0.66567 0.01368 0.0
H298 H 0.64819 0.7489 0.03015 0.0
H299 H 0.68245 0.76169 0.06338 0.0
H300 H 0.6618 0.73685 -0.00605 0.0
H301 H 0.7074 0.65716 0.98545 0.0
H302 H 0.74609 0.66443 0.95288 0.0
H303 H 0.76213 0.70053 0.92028 0.0
C304 C 0.09833 0.08206 0.08783 0.0
C305 C 0.08917 0.12338 0.08276 0.0
C306 C 0.06912 0.04719 0.0835 0.0
C307 C 0.03013 0.05287 0.07382 0.0
C308 C 0.02177 0.09399 0.06805 0.0
C309 C 0.05099 0.12886 0.07238 0.0
C310 C 0.99566 0.01769 0.07167 0.0
C311 C 0.00232 0.9763 0.07241 0.0
C312 C 0.96748 0.9415 0.0746 0.0
C313 C 0.97598 0.89976 0.07006 0.0
C314 C 0.94606 0.86554 0.07453 0.0
C315 C 0.90705 0.87234 0.08385 0.0
H316 H 0.92016 0.97986 0.08748 0.0
C317 C 0.89784 0.91422 0.08768 0.0
C318 C 0.92772 0.94841 0.08319 0.0
H319 H 0.86815 0.92062 0.09488 0.0
H320 H 0.1274 0.07669 0.09587 0.0
H321 H 0.07651 0.01629 0.08872 0.0
H322 H 0.99194 0.09936 0.06069 0.0
H323 H 0.04292 0.16025 0.06819 0.0
H324 H 0.96343 0.02657 0.07003 0.0
H325 H 0.03464 0.96722 0.072 0.0
H326 H 0.0064 0.89347 0.06357 0.0
H327 H 0.95421 0.83368 0.07134 0.0
C328 C 0.12231 0.48119 0.37202 0.0
C329 C 0.12703 0.44295 0.38231 0.0
C330 C 0.08654 0.50289 0.37556 0.0
C331 C 0.05552 0.48722 0.38981 0.0
C332 C 0.06113 0.45012 0.40081 0.0
C333 C 0.09635 0.42768 0.39684 0.0
C334 C 0.01646 0.50864 0.3926 0.0
C335 C 0.99229 0.51651 0.37634 0.0
C336 C 0.95301 0.53804 0.37812 0.0
C337 C 0.91809 0.52456 0.36566 0.0
C338 C 0.88173 0.54644 0.36581 0.0
C339 C 0.88034 0.58302 0.37793 0.0
H340 H 0.97799 0.58514 0.40033 0.0
C341 C 0.91516 0.59635 0.39056 0.0
C342 C 0.9511 0.57373 0.39084 0.0
H343 H 0.91482 0.62454 0.40001 0.0
H344 H 0.14553 0.49357 0.36074 0.0
H345 H 0.08288 0.53177 0.36706 0.0
H346 H 0.03751 0.43771 0.4119 0.0
H347 H 0.09952 0.39837 0.40506 0.0
H348 H 0.0062 0.51558 0.40809 0.0
H349 H 0.00078 0.50528 0.36121 0.0
H350 H 0.91912 0.49727 0.35565 0.0
H351 H 0.85542 0.53574 0.35581 0.0
C352 C 0.39864 0.38885 0.60956 0.0
C353 C 0.40993 0.34874 0.60352 0.0
C354 C 0.42845 0.42448 0.60877 0.0
C355 C 0.47019 0.42081 0.60173 0.0
C356 C 0.48118 0.38084 0.59544 0.0
C357 C 0.45143 0.34525 0.59625 0.0
C358 C 0.50387 0.45704 0.60199 0.0
C359 C 0.49577 0.49809 0.60231 0.0
C360 C 0.52965 0.53399 0.6039 0.0
C361 C 0.52069 0.57442 0.59732 0.0
C362 C 0.55087 0.60943 0.59953 0.0
C363 C 0.59068 0.60482 0.60854 0.0
H364 H 0.57736 0.49903 0.61872 0.0
C365 C 0.59979 0.5643 0.61504 0.0
C366 C 0.56959 0.5293 0.61283 0.0
H367 H 0.62997 0.55967 0.62221 0.0
H368 H 0.36704 0.39262 0.61538 0.0
H369 H 0.41889 0.45437 0.61433 0.0
H370 H 0.51312 0.37699 0.59008 0.0
H371 H 0.46128 0.31486 0.59148 0.0
H372 H 0.53665 0.44929 0.60147 0.0
H373 H 0.46322 0.50611 0.60086 0.0
H374 H 0.49009 0.57904 0.59056 0.0
H375 H 0.54271 0.6402 0.5944 0.0
C376 C 0.60845 0.97564 0.89924 0.0
C377 C 0.60699 0.93124 0.89764 0.0
C378 C 0.57092 0.99543 0.90167 0.0
C379 C 0.5311 0.97113 0.90243 0.0
C380 C 0.53 0.9267 0.90183 0.0
C381 C 0.56744 0.90695 0.89936 0.0
C382 C 0.49005 0.99071 0.90342 0.0
C383 C 0.48521 0.02978 0.89607 0.0
C384 C 0.44378 0.04866 0.8951 0.0
C385 C 0.4445 0.09278 0.89263 0.0
C386 C 0.40676 0.11193 0.89018 0.0
C387 C 0.36723 0.08735 0.88996 0.0
H388 H 0.402 0.98978 0.89649 0.0
C389 C 0.36623 0.04321 0.8927 0.0
C390 C 0.40411 0.02398 0.89519 0.0
H391 H 0.33627 0.0234 0.89248 0.0
H392 H 0.63848 0.99521 0.8982 0.0
H393 H 0.5734 0.02968 0.90288 0.0
H394 H 0.4999 0.90716 0.90264 0.0
H395 H 0.56523 0.87263 0.89836 0.0
H396 H 0.46268 0.97117 0.9094 0.0
H397 H 0.51268 0.04902 0.88999 0.0
H398 H 0.47449 0.11259 0.89237 0.0
H399 H 0.40872 0.14604 0.88811 0.0
C400 C 0.90874 0.58241 0.09199 0.0
C401 C 0.92826 0.62417 0.09101 0.0
C402 C 0.93295 0.54787 0.08994 0.0
C403 C 0.97725 0.55447 0.08677 0.0
C404 C 0.99659 0.59623 0.08562 0.0
C405 C 0.97237 0.63074 0.08759 0.0
C406 C 0.00474 0.5189 0.0861 0.0
C407 C 0.99066 0.47893 0.08058 0.0
C408 C 0.01726 0.44262 0.08172 0.0
C409 C 0.99678 0.40128 0.08291 0.0
C410 C 0.02033 0.36636 0.08527 0.0
C411 C 0.06497 0.37208 0.08643 0.0
H412 H 0.07941 0.47907 0.08029 0.0
C413 C 0.08563 0.4132 0.08445 0.0
C414 C 0.06211 0.44809 0.08199 0.0
H415 H 0.12005 0.41854 0.08495 0.0
H416 H 0.87483 0.57634 0.09474 0.0
H417 H 0.91695 0.51626 0.09156 0.0
H418 H 0.03068 0.60223 0.08336 0.0
H419 H 0.98839 0.66255 0.08681 0.0
H420 H 0.03762 0.52633 0.09073 0.0
H421 H 0.95774 0.47183 0.07587 0.0
H422 H 0.96234 0.39602 0.08251 0.0
H423 H 0.00348 0.33501 0.08662 0.0
C424 C 0.4162 0.41429 0.3677 0.0
C425 C 0.37567 0.42357 0.37428 0.0
C426 C 0.45157 0.44396 0.37023 0.0
C427 C 0.44721 0.48352 0.37955 0.0
C428 C 0.40684 0.49244 0.38641 0.0
C429 C 0.3715 0.46278 0.38391 0.0
C430 C 0.48317 0.51734 0.38098 0.0
C431 C 0.52438 0.50952 0.38063 0.0
C432 C 0.56032 0.54348 0.38016 0.0
C433 C 0.60082 0.53354 0.38629 0.0
C434 C 0.63611 0.56354 0.38463 0.0
C435 C 0.63174 0.60417 0.3766 0.0
H436 H 0.52539 0.59303 0.36697 0.0
C437 C 0.59108 0.61441 0.37076 0.0
C438 C 0.55576 0.58439 0.37244 0.0
H439 H 0.58662 0.6453 0.36439 0.0
H440 H 0.42051 0.38452 0.3601 0.0
H441 H 0.48182 0.43623 0.36416 0.0
H442 H 0.40248 0.52273 0.39351 0.0
H443 H 0.34075 0.47105 0.38914 0.0
H444 H 0.47509 0.54977 0.38266 0.0
H445 H 0.53248 0.47693 0.38097 0.0
H446 H 0.60532 0.50222 0.39215 0.0
H447 H 0.66697 0.55451 0.38926 0.0
C448 C 0.41685 0.05962 0.59616 0.0
C449 C 0.4356 0.10127 0.59906 0.0
C450 C 0.44213 0.02591 0.59436 0.0
C451 C 0.48683 0.03324 0.59525 0.0
C452 C 0.50548 0.07497 0.59797 0.0
C453 C 0.48018 0.10868 0.59978 0.0
C454 C 0.51488 0.99811 0.59492 0.0
C455 C 0.50301 0.95914 0.58733 0.0
C456 C 0.5295 0.92309 0.58945 0.0
C457 C 0.50911 0.88175 0.59059 0.0
C458 C 0.53256 0.84723 0.5942 0.0
C459 C 0.57699 0.85338 0.59652 0.0
H460 H 0.59122 0.96021 0.58929 0.0
C461 C 0.59765 0.8945 0.59442 0.0
C462 C 0.57419 0.92903 0.59087 0.0
H463 H 0.63194 0.90015 0.59584 0.0
H464 H 0.38255 0.05287 0.59568 0.0
H465 H 0.42623 0.99423 0.59296 0.0
H466 H 0.53978 0.08149 0.5989 0.0
H467 H 0.49556 0.14045 0.60204 0.0
H468 H 0.54613 0.00463 0.60184 0.0
H469 H 0.47179 0.9523 0.58045 0.0
H470 H 0.47477 0.87627 0.58932 0.0
H471 H 0.51575 0.81585 0.59556 0.0
C472 C 0.86648 0.9514 0.90221 0.0
C473 C 0.8667 0.91155 0.89263 0.0
C474 C 0.90475 0.97642 0.90608 0.0
C475 C 0.94406 0.96211 0.90034 0.0
C476 C 0.94419 0.92147 0.8917 0.0
C477 C 0.90609 0.89659 0.88781 0.0
C478 C 0.98549 0.98866 0.90232 0.0
C479 C 0.98906 0.03146 0.90305 0.0
C480 C 0.03038 0.05815 0.90091 0.0
C481 C 0.02975 0.09971 0.89348 0.0
C482 C 0.06763 0.12476 0.8893 0.0
C483 C 0.10727 0.109 0.89262 0.0
H484 H 0.07202 0.01179 0.91171 0.0
C485 C 0.10806 0.0682 0.9011 0.0
C486 C 0.07003 0.04304 0.90526 0.0
H487 H 0.13803 0.05527 0.9041 0.0
H488 H 0.83673 0.96368 0.90636 0.0
H489 H 0.9032 0.0069 0.91344 0.0
H490 H 0.97389 0.90934 0.88732 0.0
H491 H 0.90761 0.86587 0.88062 0.0
H492 H 0.01406 0.97231 0.90082 0.0
H493 H 0.96044 0.04797 0.9029 0.0
H494 H 0.99978 0.11245 0.89021 0.0
H495 H 0.06571 0.15621 0.88301 0.0
loop_
_geom_bond_atom_site_label_1
_geom_bond_atom_site_label_2
_geom_bond_distance
_geom_bond_site_symmetry_2
_ccdc_geom_bond_type
C0 O1 1.306 . S
C0 O3 1.160 . S
O1 C0 1.306 . S
O1 Cd2 2.228 . S
Cd2 O1 2.228 . S
Cd2 O6 2.273 . S
Cd2 O10 2.277 . S
O3 C0 1.160 . S
O3 Cd4 2.203 . S
Cd4 O3 2.203 . S
Cd4 O6 2.411 . S
Cd4 O7 2.333 . S
Cd4 O8 2.352 . S
Cd4 O12 2.277 . S
Cd4 O13 2.356 . S
C5 O10 1.209 . S
C5 O12 1.226 . S
O6 Cd2 2.273 . S
O6 Cd4 2.411 . S
O6 C9 1.320 . S
O7 Cd4 2.333 . S
O7 C9 1.214 . S
O8 Cd4 2.352 . S
O8 C11 1.258 . S
C9 O6 1.320 . S
C9 O7 1.214 . S
O10 Cd2 2.277 . S
O10 C5 1.209 . S
C11 O8 1.258 . S
C11 O13 1.282 . S
O12 Cd4 2.277 . S
O12 C5 1.226 . S
O13 Cd4 2.356 . S
O13 C11 1.282 . S
C14 O15 1.306 . S
C14 O17 1.160 . S
O15 C14 1.306 . S
O15 Cd16 2.228 . S
Cd16 O15 2.228 . S
Cd16 O20 2.273 . S
Cd16 O24 2.277 . S
O17 C14 1.160 . S
O17 Cd18 2.203 . S
Cd18 O17 2.203 . S
Cd18 O20 2.411 . S
Cd18 O21 2.333 . S
Cd18 O22 2.352 . S
Cd18 O26 2.277 . S
Cd18 O27 2.356 . S
C19 O24 1.209 . S
C19 O26 1.226 . S
O20 Cd16 2.273 . S
O20 Cd18 2.411 . S
O20 C23 1.320 . S
O21 Cd18 2.333 . S
O21 C23 1.214 . S
O22 Cd18 2.352 . S
O22 C25 1.258 . S
C23 O20 1.320 . S
C23 O21 1.214 . S
O24 Cd16 2.277 . S
O24 C19 1.209 . S
C25 O22 1.258 . S
C25 O27 1.282 . S
O26 Cd18 2.277 . S
O26 C19 1.226 . S
O27 Cd18 2.356 . S
O27 C25 1.282 . S
C28 O29 1.306 . S
C28 O31 1.160 . S
O29 C28 1.306 . S
O29 Cd30 2.228 . S
Cd30 O29 2.228 . S
Cd30 O34 2.273 . S
Cd30 O38 2.277 . S
O31 C28 1.160 . S
O31 Cd32 2.203 . S
Cd32 O31 2.203 . S
Cd32 O34 2.411 . S
Cd32 O35 2.333 . S
Cd32 O36 2.352 . S
Cd32 O40 2.277 . S
Cd32 O41 2.356 . S
C33 O38 1.209 . S
C33 O40 1.226 . S
O34 Cd30 2.273 . S
O34 Cd32 2.411 . S
O34 C37 1.320 . S
O35 Cd32 2.333 . S
O35 C37 1.214 . S
O36 Cd32 2.352 . S
O36 C39 1.258 . S
C37 O34 1.320 . S
C37 O35 1.214 . S
O38 Cd30 2.277 . S
O38 C33 1.209 . S
C39 O36 1.258 . S
C39 O41 1.282 . S
O40 Cd32 2.277 . S
O40 C33 1.226 . S
O41 Cd32 2.356 . S
O41 C39 1.282 . S
C42 O43 1.306 . S
C42 O45 1.160 . S
O43 C42 1.306 . S
O43 Cd44 2.228 . S
Cd44 O43 2.228 . S
Cd44 O48 2.273 . S
Cd44 O52 2.277 . S
O45 C42 1.160 . S
O45 Cd46 2.203 . S
Cd46 O45 2.203 . S
Cd46 O48 2.411 . S
Cd46 O49 2.333 . S
Cd46 O50 2.352 . S
Cd46 O54 2.277 . S
Cd46 O55 2.356 . S
C47 O52 1.209 . S
C47 O54 1.226 . S
O48 Cd44 2.273 . S
O48 Cd46 2.411 . S
O48 C51 1.320 . S
O49 Cd46 2.333 . S
O49 C51 1.214 . S
O50 Cd46 2.352 . S
O50 C53 1.258 . S
C51 O48 1.320 . S
C51 O49 1.214 . S
O52 Cd44 2.277 . S
O52 C47 1.209 . S
C53 O50 1.258 . S
C53 O55 1.282 . S
O54 Cd46 2.277 . S
O54 C47 1.226 . S
O55 Cd46 2.356 . S
O55 C53 1.282 . S
C56 O57 1.306 . S
C56 O59 1.160 . S
O57 C56 1.306 . S
O57 Cd58 2.228 . S
Cd58 O57 2.228 . S
Cd58 O62 2.273 . S
Cd58 O66 2.277 . S
O59 C56 1.160 . S
O59 Cd60 2.203 . S
Cd60 O59 2.203 . S
Cd60 O62 2.411 . S
Cd60 O63 2.333 . S
Cd60 O64 2.352 . S
Cd60 O68 2.277 . S
Cd60 O69 2.356 . S
C61 O66 1.209 . S
C61 O68 1.226 . S
O62 Cd58 2.273 . S
O62 Cd60 2.411 . S
O62 C65 1.320 . S
O63 Cd60 2.333 . S
O63 C65 1.214 . S
O64 Cd60 2.352 . S
O64 C67 1.258 . S
C65 O62 1.320 . S
C65 O63 1.214 . S
O66 Cd58 2.277 . S
O66 C61 1.209 . S
C67 O64 1.258 . S
C67 O69 1.282 . S
O68 Cd60 2.277 . S
O68 C61 1.226 . S
O69 Cd60 2.356 . S
O69 C67 1.282 . S
C70 O71 1.306 . S
C70 O73 1.160 . S
O71 C70 1.306 . S
O71 Cd72 2.228 . S
Cd72 O71 2.228 . S
Cd72 O76 2.273 . S
Cd72 O80 2.277 . S
O73 C70 1.160 . S
O73 Cd74 2.203 . S
Cd74 O73 2.203 . S
Cd74 O76 2.411 . S
Cd74 O77 2.333 . S
Cd74 O78 2.352 . S
Cd74 O82 2.277 . S
Cd74 O83 2.356 . S
C75 O80 1.209 . S
C75 O82 1.226 . S
O76 Cd72 2.273 . S
O76 Cd74 2.411 . S
O76 C79 1.320 . S
O77 Cd74 2.333 . S
O77 C79 1.214 . S
O78 Cd74 2.352 . S
O78 C81 1.258 . S
C79 O76 1.320 . S
C79 O77 1.214 . S
O80 Cd72 2.277 . S
O80 C75 1.209 . S
C81 O78 1.258 . S
C81 O83 1.282 . S
O82 Cd74 2.277 . S
O82 C75 1.226 . S
O83 Cd74 2.356 . S
O83 C81 1.282 . S
C84 O85 1.306 . S
C84 O87 1.160 . S
O85 C84 1.306 . S
O85 Cd86 2.228 . S
Cd86 O85 2.228 . S
Cd86 O90 2.273 . S
Cd86 O94 2.277 . S
O87 C84 1.160 . S
O87 Cd88 2.203 . S
Cd88 O87 2.203 . S
Cd88 O90 2.411 . S
Cd88 O91 2.333 . S
Cd88 O92 2.352 . S
Cd88 O96 2.277 . S
Cd88 O97 2.356 . S
C89 O94 1.209 . S
C89 O96 1.226 . S
O90 Cd86 2.273 . S
O90 Cd88 2.411 . S
O90 C93 1.320 . S
O91 Cd88 2.333 . S
O91 C93 1.214 . S
O92 Cd88 2.352 . S
O92 C95 1.258 . S
C93 O90 1.320 . S
C93 O91 1.214 . S
O94 Cd86 2.277 . S
O94 C89 1.209 . S
C95 O92 1.258 . S
C95 O97 1.282 . S
O96 Cd88 2.277 . S
O96 C89 1.226 . S
O97 Cd88 2.356 . S
O97 C95 1.282 . S
C98 O99 1.306 . S
C98 O101 1.160 . S
O99 C98 1.306 . S
O99 Cd100 2.228 . S
Cd100 O99 2.228 . S
Cd100 O104 2.273 . S
Cd100 O108 2.277 . S
O101 C98 1.160 . S
O101 Cd102 2.203 . S
Cd102 O101 2.203 . S
Cd102 O104 2.411 . S
Cd102 O105 2.333 . S
Cd102 O106 2.352 . S
Cd102 O110 2.277 . S
Cd102 O111 2.356 . S
C103 O108 1.209 . S
C103 O110 1.226 . S
O104 Cd100 2.273 . S
O104 Cd102 2.411 . S
O104 C107 1.320 . S
O105 Cd102 2.333 . S
O105 C107 1.214 . S
O106 Cd102 2.352 . S
O106 C109 1.258 . S
C107 O104 1.320 . S
C107 O105 1.214 . S
O108 Cd100 2.277 . S
O108 C103 1.209 . S
C109 O106 1.258 . S
C109 O111 1.282 . S
O110 Cd102 2.277 . S
O110 C103 1.226 . S
O111 Cd102 2.356 . S
O111 C109 1.282 . S
C112 C113 1.386 . S
C112 C114 1.383 . S
C112 H128 0.951 . S
C113 C112 1.386 . S
C113 C117 1.383 . S
C114 C112 1.383 . S
C114 C115 1.402 . S
C114 H129 0.951 . S
C115 C114 1.402 . S
C115 C116 1.375 . S
C115 C118 1.481 . S
C116 C115 1.375 . S
C116 C117 1.367 . S
C116 H130 0.951 . S
C117 C113 1.383 . S
C117 C116 1.367 . S
C117 H131 0.950 . S
C118 C115 1.481 . S
C118 C119 1.297 1_554 S
C118 H132 0.950 . S
C119 C118 1.297 1_556 S
C119 C120 1.479 . S
C119 H133 0.950 . S
C120 C119 1.479 . S
C120 C121 1.375 . S
C120 C126 1.404 . S
C121 C120 1.375 . S
C121 C122 1.369 . S
C121 H134 0.950 . S
C122 C121 1.369 . S
C122 C123 1.392 . S
C122 H135 0.951 . S
C123 C122 1.392 . S
C123 C125 1.384 . S
H124 C126 0.949 . S
C125 C123 1.384 . S
C125 C126 1.385 . S
C125 H127 0.950 . S
C126 C120 1.404 . S
C126 H124 0.949 . S
C126 C125 1.385 . S
H127 C125 0.950 . S
H128 C112 0.951 . S
H129 C114 0.951 . S
H130 C116 0.951 . S
H131 C117 0.950 . S
H132 C118 0.950 . S
H133 C119 0.950 . S
H134 C121 0.950 . S
H135 C122 0.951 . S
C136 C137 1.386 . S
C136 C138 1.383 . S
C136 H152 0.951 . S
C137 C136 1.386 . S
C137 C141 1.383 . S
C138 C136 1.383 . S
C138 C139 1.402 . S
C138 H153 0.951 . S
C139 C138 1.402 . S
C139 C140 1.375 . S
C139 C142 1.481 . S
C140 C139 1.375 . S
C140 C141 1.367 . S
C140 H154 0.951 . S
C141 C137 1.383 . S
C141 C140 1.367 . S
C141 H155 0.950 . S
C142 C139 1.481 . S
C142 C143 1.297 . S
C142 H156 0.950 . S
C143 C142 1.297 . S
C143 C144 1.479 . S
C143 H157 0.950 . S
C144 C143 1.479 . S
C144 C145 1.375 . S
C144 C150 1.404 . S
C145 C144 1.375 . S
C145 C146 1.369 . S
C145 H158 0.950 . S
C146 C145 1.369 . S
C146 C147 1.392 . S
C146 H159 0.951 . S
C147 C146 1.392 . S
C147 C149 1.384 . S
H148 C150 0.949 . S
C149 C147 1.384 . S
C149 C150 1.385 . S
C149 H151 0.950 . S
C150 C144 1.404 . S
C150 H148 0.949 . S
C150 C149 1.385 . S
H151 C149 0.950 . S
H152 C136 0.951 . S
H153 C138 0.951 . S
H154 C140 0.951 . S
H155 C141 0.950 . S
H156 C142 0.950 . S
H157 C143 0.950 . S
H158 C145 0.950 . S
H159 C146 0.951 . S
C160 C161 1.386 . S
C160 C162 1.383 . S
C160 H176 0.951 . S
C161 C160 1.386 . S
C161 C165 1.383 . S
C162 C160 1.383 . S
C162 C163 1.402 . S
C162 H177 0.951 . S
C163 C162 1.402 . S
C163 C164 1.375 . S
C163 C166 1.481 . S
C164 C163 1.375 . S
C164 C165 1.367 . S
C164 H178 0.951 . S
C165 C161 1.383 . S
C165 C164 1.367 . S
C165 H179 0.950 . S
C166 C163 1.481 . S
C166 C167 1.297 . S
C166 H180 0.950 . S
C167 C166 1.297 . S
C167 C168 1.479 . S
C167 H181 0.950 . S
C168 C167 1.479 . S
C168 C169 1.375 . S
C168 C174 1.404 . S
C169 C168 1.375 . S
C169 C170 1.369 . S
C169 H182 0.950 . S
C170 C169 1.369 . S
C170 C171 1.392 . S
C170 H183 0.951 . S
C171 C170 1.392 . S
C171 C173 1.384 . S
H172 C174 0.949 . S
C173 C171 1.384 . S
C173 C174 1.385 . S
C173 H175 0.950 . S
C174 C168 1.404 . S
C174 H172 0.949 . S
C174 C173 1.385 . S
H175 C173 0.950 . S
H176 C160 0.951 . S
H177 C162 0.951 . S
H178 C164 0.951 . S
H179 C165 0.950 . S
H180 C166 0.950 . S
H181 C167 0.950 . S
H182 C169 0.950 . S
H183 C170 0.951 . S
C184 C185 1.386 . S
C184 C186 1.383 . S
C184 H200 0.951 . S
C185 C184 1.386 . S
C185 C189 1.383 . S
C186 C184 1.383 . S
C186 C187 1.402 . S
C186 H201 0.951 . S
C187 C186 1.402 . S
C187 C188 1.375 . S
C187 C190 1.481 . S
C188 C187 1.375 . S
C188 C189 1.367 . S
C188 H202 0.951 . S
C189 C185 1.383 . S
C189 C188 1.367 . S
C189 H203 0.950 . S
C190 C187 1.481 . S
C190 C191 1.297 . S
C190 H204 0.950 . S
C191 C190 1.297 . S
C191 C192 1.479 . S
C191 H205 0.950 . S
C192 C191 1.479 . S
C192 C193 1.375 . S
C192 C198 1.404 . S
C193 C192 1.375 . S
C193 C194 1.369 . S
C193 H206 0.950 . S
C194 C193 1.369 . S
C194 C195 1.392 . S
C194 H207 0.951 . S
C195 C194 1.392 . S
C195 C197 1.384 . S
H196 C198 0.949 . S
C197 C195 1.384 . S
C197 C198 1.385 . S
C197 H199 0.950 . S
C198 C192 1.404 . S
C198 H196 0.949 . S
C198 C197 1.385 . S
H199 C197 0.950 . S
H200 C184 0.951 . S
H201 C186 0.951 . S
H202 C188 0.951 . S
H203 C189 0.950 . S
H204 C190 0.950 . S
H205 C191 0.950 . S
H206 C193 0.950 . S
H207 C194 0.951 . S
C208 C209 1.386 . S
C208 C210 1.383 . S
C208 H224 0.951 . S
C209 C208 1.386 . S
C209 C213 1.383 . S
C210 C208 1.383 . S
C210 C211 1.402 . S
C210 H225 0.951 . S
C211 C210 1.402 . S
C211 C212 1.375 . S
C211 C214 1.481 . S
C212 C211 1.375 . S
C212 C213 1.367 . S
C212 H226 0.951 . S
C213 C209 1.383 . S
C213 C212 1.367 . S
C213 H227 0.950 . S
C214 C211 1.481 . S
C214 C215 1.297 . S
C214 H228 0.950 . S
C215 C214 1.297 . S
C215 C216 1.479 . S
C215 H229 0.950 . S
C216 C215 1.479 . S
C216 C217 1.375 . S
C216 C222 1.404 . S
C217 C216 1.375 . S
C217 C218 1.369 . S
C217 H230 0.950 . S
C218 C217 1.369 . S
C218 C219 1.392 . S
C218 H231 0.951 . S
C219 C218 1.392 . S
C219 C221 1.384 . S
H220 C222 0.949 . S
C221 C219 1.384 . S
C221 C222 1.385 . S
C221 H223 0.950 . S
C222 C216 1.404 . S
C222 H220 0.949 . S
C222 C221 1.385 . S
H223 C221 0.950 . S
H224 C208 0.951 . S
H225 C210 0.951 . S
H226 C212 0.951 . S
H227 C213 0.950 . S
H228 C214 0.950 . S
H229 C215 0.950 . S
H230 C217 0.950 . S
H231 C218 0.951 . S
C232 C233 1.386 . S
C232 C234 1.383 . S
C232 H248 0.951 . S
C233 C232 1.386 . S
C233 C237 1.383 . S
C234 C232 1.383 . S
C234 C235 1.402 . S
C234 H249 0.951 . S
C235 C234 1.402 . S
C235 C236 1.375 . S
C235 C238 1.481 . S
C236 C235 1.375 . S
C236 C237 1.367 . S
C236 H250 0.951 . S
C237 C233 1.383 . S
C237 C236 1.367 . S
C237 H251 0.950 . S
C238 C235 1.481 . S
C238 C239 1.297 . S
C238 H252 0.950 . S
C239 C238 1.297 . S
C239 C240 1.479 . S
C239 H253 0.950 . S
C240 C239 1.479 . S
C240 C241 1.375 . S
C240 C246 1.404 . S
C241 C240 1.375 . S
C241 C242 1.369 . S
C241 H254 0.950 . S
C242 C241 1.369 . S
C242 C243 1.392 . S
C242 H255 0.951 . S
C243 C242 1.392 . S
C243 C245 1.384 . S
H244 C246 0.949 . S
C245 C243 1.384 . S
C245 C246 1.385 . S
C245 H247 0.950 . S
C246 C240 1.404 . S
C246 H244 0.949 . S
C246 C245 1.385 . S
H247 C245 0.950 . S
H248 C232 0.951 . S
H249 C234 0.951 . S
H250 C236 0.951 . S
H251 C237 0.950 . S
H252 C238 0.950 . S
H253 C239 0.950 . S
H254 C241 0.950 . S
H255 C242 0.951 . S
C256 C257 1.386 . S
C256 C258 1.383 . S
C256 H272 0.951 . S
C257 C256 1.386 . S
C257 C261 1.383 . S
C258 C256 1.383 . S
C258 C259 1.402 . S
C258 H273 0.951 . S
C259 C258 1.402 . S
C259 C260 1.375 . S
C259 C262 1.481 . S
C260 C259 1.375 . S
C260 C261 1.367 . S
C260 H274 0.951 . S
C261 C257 1.383 . S
C261 C260 1.367 . S
C261 H275 0.950 . S
C262 C259 1.481 . S
C262 C263 1.297 . S
C262 H276 0.950 . S
C263 C262 1.297 . S
C263 C264 1.479 . S
C263 H277 0.950 . S
C264 C263 1.479 . S
C264 C265 1.375 . S
C264 C270 1.404 . S
C265 C264 1.375 . S
C265 C266 1.369 . S
C265 H278 0.950 . S
C266 C265 1.369 . S
C266 C267 1.392 . S
C266 H279 0.951 . S
C267 C266 1.392 . S
C267 C269 1.384 . S
H268 C270 0.949 . S
C269 C267 1.384 . S
C269 C270 1.385 . S
C269 H271 0.950 . S
C270 C264 1.404 . S
C270 H268 0.949 . S
C270 C269 1.385 . S
H271 C269 0.950 . S
H272 C256 0.951 . S
H273 C258 0.951 . S
H274 C260 0.951 . S
H275 C261 0.950 . S
H276 C262 0.950 . S
H277 C263 0.950 . S
H278 C265 0.950 . S
H279 C266 0.951 . S
C280 C281 1.386 . S
C280 C282 1.383 . S
C280 H296 0.951 . S
C281 C280 1.386 . S
C281 C285 1.383 . S
C282 C280 1.383 . S
C282 C283 1.402 . S
C282 H297 0.951 . S
C283 C282 1.402 . S
C283 C284 1.375 . S
C283 C286 1.481 . S
C284 C283 1.375 . S
C284 C285 1.367 . S
C284 H298 0.951 . S
C285 C281 1.383 . S
C285 C284 1.367 . S
C285 H299 0.950 . S
C286 C283 1.481 . S
C286 C287 1.297 1_554 S
C286 H300 0.950 . S
C287 C286 1.297 1_556 S
C287 C288 1.479 . S
C287 H301 0.950 . S
C288 C287 1.479 . S
C288 C289 1.375 . S
C288 C294 1.404 . S
C289 C288 1.375 . S
C289 C290 1.369 . S
C289 H302 0.950 . S
C290 C289 1.369 . S
C290 C291 1.392 . S
C290 H303 0.951 . S
C291 C290 1.392 . S
C291 C293 1.384 . S
H292 C294 0.949 . S
C293 C291 1.384 . S
C293 C294 1.385 . S
C293 H295 0.950 . S
C294 C288 1.404 . S
C294 H292 0.949 . S
C294 C293 1.385 . S
H295 C293 0.950 . S
H296 C280 0.951 . S
H297 C282 0.951 . S
H298 C284 0.951 . S
H299 C285 0.950 . S
H300 C286 0.950 . S
H301 C287 0.950 . S
H302 C289 0.950 . S
H303 C290 0.951 . S
C304 C305 1.386 . S
C304 C306 1.383 . S
C304 H320 0.951 . S
C305 C304 1.386 . S
C305 C309 1.383 . S
C306 C304 1.383 . S
C306 C307 1.402 . S
C306 H321 0.951 . S
C307 C306 1.402 . S
C307 C308 1.375 . S
C307 C310 1.493 . S
C308 C307 1.375 . S
C308 C309 1.367 . S
C308 H322 0.951 1_455 S
C309 C305 1.383 . S
C309 C308 1.367 . S
C309 H323 0.950 . S
C310 C307 1.493 . S
C310 C311 1.303 1_545 S
C310 H324 0.931 1_455 S
C311 C310 1.303 1_565 S
C311 C312 1.479 1_455 S
C311 H325 0.950 . S
C312 C311 1.479 1_655 S
C312 C313 1.375 . S
C312 C318 1.404 . S
C313 C312 1.375 . S
C313 C314 1.369 . S
C313 H326 0.950 1_655 S
C314 C313 1.369 . S
C314 C315 1.392 . S
C314 H327 0.951 . S
C315 C314 1.392 . S
C315 C317 1.384 . S
H316 C318 0.949 . S
C317 C315 1.384 . S
C317 C318 1.385 . S
C317 H319 0.950 . S
C318 C312 1.404 . S
C318 H316 0.949 . S
C318 C317 1.385 . S
H319 C317 0.950 . S
H320 C304 0.951 . S
H321 C306 0.951 . S
H322 C308 0.951 1_655 S
H323 C309 0.950 . S
H324 C310 0.931 1_655 S
H325 C311 0.950 . S
H326 C313 0.950 1_455 S
H327 C314 0.951 . S
C328 C329 1.386 . S
C328 C330 1.383 . S
C328 H344 0.951 . S
C329 C328 1.386 . S
C329 C333 1.383 . S
C330 C328 1.383 . S
C330 C331 1.402 . S
C330 H345 0.951 . S
C331 C330 1.402 . S
C331 C332 1.375 . S
C331 C334 1.481 . S
C332 C331 1.375 . S
C332 C333 1.367 . S
C332 H346 0.951 . S
C333 C329 1.383 . S
C333 C332 1.367 . S
C333 H347 0.950 . S
C334 C331 1.481 . S
C334 C335 1.297 1_455 S
C334 H348 0.952 . S
C335 C334 1.297 1_655 S
C335 C336 1.479 . S
C335 H349 0.950 . S
C336 C335 1.479 . S
C336 C337 1.375 . S
C336 C342 1.404 . S
C337 C336 1.375 . S
C337 C338 1.369 . S
C337 H350 0.950 . S
C338 C337 1.369 . S
C338 C339 1.392 . S
C338 H351 0.951 . S
C339 C338 1.392 . S
C339 C341 1.384 . S
H340 C342 0.949 . S
C341 C339 1.384 . S
C341 C342 1.385 . S
C341 H343 0.950 . S
C342 C336 1.404 . S
C342 H340 0.949 . S
C342 C341 1.385 . S
H343 C341 0.950 . S
H344 C328 0.951 . S
H345 C330 0.951 . S
H346 C332 0.951 . S
H347 C333 0.950 . S
H348 C334 0.952 . S
H349 C335 0.950 . S
H350 C337 0.950 . S
H351 C338 0.951 . S
C352 C353 1.386 . S
C352 C354 1.383 . S
C352 H368 0.951 . S
C353 C352 1.386 . S
C353 C357 1.383 . S
C354 C352 1.383 . S
C354 C355 1.402 . S
C354 H369 0.951 . S
C355 C354 1.402 . S
C355 C356 1.375 . S
C355 C358 1.481 . S
C356 C355 1.375 . S
C356 C357 1.367 . S
C356 H370 0.951 . S
C357 C353 1.383 . S
C357 C356 1.367 . S
C357 H371 0.950 . S
C358 C355 1.481 . S
C358 C359 1.297 . S
C358 H372 0.950 . S
C359 C358 1.297 . S
C359 C360 1.479 . S
C359 H373 0.950 . S
C360 C359 1.479 . S
C360 C361 1.375 . S
C360 C366 1.404 . S
C361 C360 1.375 . S
C361 C362 1.369 . S
C361 H374 0.950 . S
C362 C361 1.369 . S
C362 C363 1.392 . S
C362 H375 0.951 . S
C363 C362 1.392 . S
C363 C365 1.384 . S
H364 C366 0.949 . S
C365 C363 1.384 . S
C365 C366 1.385 . S
C365 H367 0.950 . S
C366 C360 1.404 . S
C366 H364 0.949 . S
C366 C365 1.385 . S
H367 C365 0.950 . S
H368 C352 0.951 . S
H369 C354 0.951 . S
H370 C356 0.951 . S
H371 C357 0.950 . S
H372 C358 0.950 . S
H373 C359 0.950 . S
H374 C361 0.950 . S
H375 C362 0.951 . S
C376 C377 1.386 . S
C376 C378 1.383 . S
C376 H392 0.951 . S
C377 C376 1.386 . S
C377 C381 1.383 . S
C378 C376 1.383 . S
C378 C379 1.402 . S
C378 H393 0.951 1_565 S
C379 C378 1.402 . S
C379 C380 1.375 . S
C379 C382 1.481 . S
C380 C379 1.375 . S
C380 C381 1.367 . S
C380 H394 0.951 . S
C381 C377 1.383 . S
C381 C380 1.367 . S
C381 H395 0.950 . S
C382 C379 1.481 . S
C382 C383 1.297 1_565 S
C382 H396 0.950 . S
C383 C382 1.297 1_545 S
C383 C384 1.479 . S
C383 H397 0.950 . S
C384 C383 1.479 . S
C384 C385 1.375 . S
C384 C390 1.404 . S
C385 C384 1.375 . S
C385 C386 1.369 . S
C385 H398 0.950 . S
C386 C385 1.369 . S
C386 C387 1.392 . S
C386 H399 0.951 . S
C387 C386 1.392 . S
C387 C389 1.384 . S
H388 C390 0.949 1_565 S
C389 C387 1.384 . S
C389 C390 1.385 . S
C389 H391 0.950 . S
C390 C384 1.404 . S
C390 H388 0.949 1_545 S
C390 C389 1.385 . S
H391 C389 0.950 . S
H392 C376 0.951 . S
H393 C378 0.951 1_545 S
H394 C380 0.951 . S
H395 C381 0.950 . S
H396 C382 0.950 . S
H397 C383 0.950 . S
H398 C385 0.950 . S
H399 C386 0.951 . S
C400 C401 1.386 . S
C400 C402 1.383 . S
C400 H416 0.951 . S
C401 C400 1.386 . S
C401 C405 1.383 . S
C402 C400 1.383 . S
C402 C403 1.402 . S
C402 H417 0.951 . S
C403 C402 1.402 . S
C403 C404 1.375 . S
C403 C406 1.493 . S
C404 C403 1.375 . S
C404 C405 1.367 . S
C404 H418 0.951 1_655 S
C405 C401 1.383 . S
C405 C404 1.367 . S
C405 H419 0.950 . S
C406 C403 1.493 . S
C406 C407 1.299 . S
C406 H420 0.935 1_655 S
C407 C406 1.299 . S
C407 C408 1.479 1_655 S
C407 H421 0.950 . S
C408 C407 1.479 1_455 S
C408 C409 1.375 . S
C408 C414 1.404 . S
C409 C408 1.375 . S
C409 C410 1.369 . S
C409 H422 0.950 1_455 S
C410 C409 1.369 . S
C410 C411 1.392 . S
C410 H423 0.951 . S
C411 C410 1.392 . S
C411 C413 1.384 . S
H412 C414 0.949 . S
C413 C411 1.384 . S
C413 C414 1.385 . S
C413 H415 0.950 . S
C414 C408 1.404 . S
C414 H412 0.949 . S
C414 C413 1.385 . S
H415 C413 0.950 . S
H416 C400 0.951 . S
H417 C402 0.951 . S
H418 C404 0.951 1_455 S
H419 C405 0.950 . S
H420 C406 0.935 1_455 S
H421 C407 0.950 . S
H422 C409 0.950 1_655 S
H423 C410 0.951 . S
C424 C425 1.386 . S
C424 C426 1.383 . S
C424 H440 0.951 . S
C425 C424 1.386 . S
C425 C429 1.383 . S
C426 C424 1.383 . S
C426 C427 1.402 . S
C426 H441 0.951 . S
C427 C426 1.402 . S
C427 C428 1.375 . S
C427 C430 1.481 . S
C428 C427 1.375 . S
C428 C429 1.367 . S
C428 H442 0.951 . S
C429 C425 1.383 . S
C429 C428 1.367 . S
C429 H443 0.950 . S
C430 C427 1.481 . S
C430 C431 1.297 . S
C430 H444 0.950 . S
C431 C430 1.297 . S
C431 C432 1.479 . S
C431 H445 0.950 . S
C432 C431 1.479 . S
C432 C433 1.375 . S
C432 C438 1.404 . S
C433 C432 1.375 . S
C433 C434 1.369 . S
C433 H446 0.950 . S
C434 C433 1.369 . S
C434 C435 1.392 . S
C434 H447 0.951 . S
C435 C434 1.392 . S
C435 C437 1.384 . S
H436 C438 0.949 . S
C437 C435 1.384 . S
C437 C438 1.385 . S
C437 H439 0.950 . S
C438 C432 1.404 . S
C438 H436 0.949 . S
C438 C437 1.385 . S
H439 C437 0.950 . S
H440 C424 0.951 . S
H441 C426 0.951 . S
H442 C428 0.951 . S
H443 C429 0.950 . S
H444 C430 0.950 . S
H445 C431 0.950 . S
H446 C433 0.950 . S
H447 C434 0.951 . S
C448 C449 1.386 . S
C448 C450 1.383 . S
C448 H464 0.951 . S
C449 C448 1.386 . S
C449 C453 1.383 . S
C450 C448 1.383 . S
C450 C451 1.402 . S
C450 H465 0.951 . S
C451 C450 1.402 . S
C451 C452 1.375 . S
C451 C454 1.481 . S
C452 C451 1.375 . S
C452 C453 1.367 . S
C452 H466 0.951 . S
C453 C449 1.383 . S
C453 C452 1.367 . S
C453 H467 0.950 . S
C454 C451 1.481 . S
C454 C455 1.297 1_545 S
C454 H468 0.950 . S
C455 C454 1.297 1_565 S
C455 C456 1.479 . S
C455 H469 0.950 . S
C456 C455 1.479 . S
C456 C457 1.375 . S
C456 C462 1.404 . S
C457 C456 1.375 . S
C457 C458 1.369 . S
C457 H470 0.950 . S
C458 C457 1.369 . S
C458 C459 1.392 . S
C458 H471 0.951 . S
C459 C458 1.392 . S
C459 C461 1.384 . S
H460 C462 0.949 . S
C461 C459 1.384 . S
C461 C462 1.385 . S
C461 H463 0.950 . S
C462 C456 1.404 . S
C462 H460 0.949 . S
C462 C461 1.385 . S
H463 C461 0.950 . S
H464 C448 0.951 . S
H465 C450 0.951 . S
H466 C452 0.951 . S
H467 C453 0.950 . S
H468 C454 0.950 . S
H469 C455 0.950 . S
H470 C457 0.950 . S
H471 C458 0.951 . S
C472 C473 1.386 . S
C472 C474 1.383 . S
C472 H488 0.951 . S
C473 C472 1.386 . S
C473 C477 1.383 . S
C474 C472 1.383 . S
C474 C475 1.402 . S
C474 H489 0.951 1_565 S
C475 C474 1.402 . S
C475 C476 1.375 . S
C475 C478 1.481 . S
C476 C475 1.375 . S
C476 C477 1.367 . S
C476 H490 0.951 . S
C477 C473 1.383 . S
C477 C476 1.367 . S
C477 H491 0.950 . S
C478 C475 1.481 . S
C478 C479 1.297 1_665 S
C478 H492 0.950 1_655 S
C479 C478 1.297 1_445 S
C479 C480 1.479 . S
C479 H493 0.950 1_455 S
C480 C479 1.479 . S
C480 C481 1.375 . S
C480 C486 1.404 . S
C481 C480 1.375 . S
C481 C482 1.369 . S
C481 H494 0.950 . S
C482 C481 1.369 . S
C482 C483 1.392 . S
C482 H495 0.951 . S
C483 C482 1.392 . S
C483 C485 1.384 . S
H484 C486 0.949 . S
C485 C483 1.384 . S
C485 C486 1.385 . S
C485 H487 0.950 . S
C486 C480 1.404 . S
C486 H484 0.949 . S
C486 C485 1.385 . S
H487 C485 0.950 . S
H488 C472 0.951 . S
H489 C474 0.951 1_545 S
H490 C476 0.951 . S
H491 C477 0.950 . S
H492 C478 0.950 1_455 S
H493 C479 0.950 1_655 S
H494 C481 0.950 . S
H495 C482 0.951 . S
C113 C0 1.173 . S
C123 C70 1.157 . S
C137 C23 1.148 . S
C147 C93 1.143 . S
C161 C28 1.134 . S
C171 C98 1.145 . S
C185 C51 1.143 . S
C195 C65 1.134 . S
C209 C107 1.119 . S
C219 C9 1.094 . S
C233 C56 1.168 . S
C243 C14 1.179 . S
C257 C37 1.155 . S
C267 C79 1.155 . S
C281 C84 1.172 . S
C291 C42 1.153 . S
C305 C5 1.576 . S
C315 C89 1.565 . S
C329 C109 1.589 . S
C339 C25 1.547 . S
C353 C33 1.579 . S
C363 C61 1.559 . S
C377 C53 1.581 . S
C387 C81 1.557 . S
C401 C95 1.580 . S
C411 C11 1.563 . S
C425 C103 1.567 . S
C435 C19 1.578 . S
C449 C39 1.577 . S
C459 C67 1.569 . S
C473 C47 1.570 . S
C483 C75 1.569 . S
