# Generated by pormake.
# Topology wir, (6)-cn, num edge types: 1
# Building blocks:
#     Node 0, Type 0, BuildingBlock: BETDEL_clean_sbu_0, # of connection points: 6
#     Node 1, Type 0, BuildingBlock: BETDEL_clean_sbu_0, # of connection points: 6
#     Node 2, Type 0, BuildingBlock: BETDEL_clean_sbu_0, # of connection points: 6
#     Node 3, Type 0, BuildingBlock: BETDEL_clean_sbu_0, # of connection points: 6
#     Node 4, Type 0, BuildingBlock: BETDEL_clean_sbu_0, # of connection points: 6
#     Node 5, Type 0, BuildingBlock: BETDEL_clean_sbu_0, # of connection points: 6
#     Node 6, Type 0, BuildingBlock: BETDEL_clean_sbu_0, # of connection points: 6
#     Node 7, Type 0, BuildingBlock: BETDEL_clean_sbu_0, # of connection points: 6
#     Node 8, Type 0, BuildingBlock: BETDEL_clean_sbu_0, # of connection points: 6
#     Node 9, Type 0, BuildingBlock: BETDEL_clean_sbu_0, # of connection points: 6
#     Node 10, Type 0, BuildingBlock: BETDEL_clean_sbu_0, # of connection points: 6
#     Node 11, Type 0, BuildingBlock: BETDEL_clean_sbu_0, # of connection points: 6
#     Node 12, Type 0, BuildingBlock: BETDEL_clean_sbu_0, # of connection points: 6
#     Node 13, Type 0, BuildingBlock: BETDEL_clean_sbu_0, # of connection points: 6
#     Node 14, Type 0, BuildingBlock: BETDEL_clean_sbu_0, # of connection points: 6
#     Node 15, Type 0, BuildingBlock: BETDEL_clean_sbu_0, # of connection points: 6
#     Node 16, Type 0, BuildingBlock: BETDEL_clean_sbu_0, # of connection points: 6
#     Node 17, Type 0, BuildingBlock: BETDEL_clean_sbu_0, # of connection points: 6
#     Node 18, Type 0, BuildingBlock: BETDEL_clean_sbu_0, # of connection points: 6
#     Node 19, Type 0, BuildingBlock: BETDEL_clean_sbu_0, # of connection points: 6
#     Node 20, Type 0, BuildingBlock: BETDEL_clean_sbu_0, # of connection points: 6
#     Node 21, Type 0, BuildingBlock: BETDEL_clean_sbu_0, # of connection points: 6
#     Node 22, Type 0, BuildingBlock: BETDEL_clean_sbu_0, # of connection points: 6
#     Node 23, Type 0, BuildingBlock: BETDEL_clean_sbu_0, # of connection points: 6
#     Node 24, Type 0, BuildingBlock: BETDEL_clean_sbu_0, # of connection points: 6
#     Node 25, Type 0, BuildingBlock: BETDEL_clean_sbu_0, # of connection points: 6
#     Node 26, Type 0, BuildingBlock: BETDEL_clean_sbu_0, # of connection points: 6
#     Node 27, Type 0, BuildingBlock: BETDEL_clean_sbu_0, # of connection points: 6
#     Node 28, Type 0, BuildingBlock: BETDEL_clean_sbu_0, # of connection points: 6
#     Node 29, Type 0, BuildingBlock: BETDEL_clean_sbu_0, # of connection points: 6
#     Node 30, Type 0, BuildingBlock: BETDEL_clean_sbu_0, # of connection points: 6
#     Node 31, Type 0, BuildingBlock: BETDEL_clean_sbu_0, # of connection points: 6
#     Edge 32, Type (0, 0), BuildingBlock: AJUNOK_clean_linker_0, # of connection points: 2
#     Edge 33, Type (0, 0), BuildingBlock: AJUNOK_clean_linker_0, # of connection points: 2
#     Edge 34, Type (0, 0), BuildingBlock: AJUNOK_clean_linker_0, # of connection points: 2
#     Edge 35, Type (0, 0), BuildingBlock: AJUNOK_clean_linker_0, # of connection points: 2
#     Edge 36, Type (0, 0), BuildingBlock: AJUNOK_clean_linker_0, # of connection points: 2
#     Edge 37, Type (0, 0), BuildingBlock: AJUNOK_clean_linker_0, # of connection points: 2
#     Edge 38, Type (0, 0), BuildingBlock: AJUNOK_clean_linker_0, # of connection points: 2
#     Edge 39, Type (0, 0), BuildingBlock: AJUNOK_clean_linker_0, # of connection points: 2
#     Edge 40, Type (0, 0), BuildingBlock: AJUNOK_clean_linker_0, # of connection points: 2
#     Edge 41, Type (0, 0), BuildingBlock: AJUNOK_clean_linker_0, # of connection points: 2
#     Edge 42, Type (0, 0), BuildingBlock: AJUNOK_clean_linker_0, # of connection points: 2
#     Edge 43, Type (0, 0), BuildingBlock: AJUNOK_clean_linker_0, # of connection points: 2
#     Edge 44, Type (0, 0), BuildingBlock: AJUNOK_clean_linker_0, # of connection points: 2
#     Edge 45, Type (0, 0), BuildingBlock: AJUNOK_clean_linker_0, # of connection points: 2
#     Edge 46, Type (0, 0), BuildingBlock: AJUNOK_clean_linker_0, # of connection points: 2
#     Edge 47, Type (0, 0), BuildingBlock: AJUNOK_clean_linker_0, # of connection points: 2
#     Edge 48, Type (0, 0), BuildingBlock: AJUNOK_clean_linker_0, # of connection points: 2
#     Edge 49, Type (0, 0), BuildingBlock: AJUNOK_clean_linker_0, # of connection points: 2
#     Edge 50, Type (0, 0), BuildingBlock: AJUNOK_clean_linker_0, # of connection points: 2
#     Edge 51, Type (0, 0), BuildingBlock: AJUNOK_clean_linker_0, # of connection points: 2
#     Edge 52, Type (0, 0), BuildingBlock: AJUNOK_clean_linker_0, # of connection points: 2
#     Edge 53, Type (0, 0), BuildingBlock: AJUNOK_clean_linker_0, # of connection points: 2
#     Edge 54, Type (0, 0), BuildingBlock: AJUNOK_clean_linker_0, # of connection points: 2
#     Edge 55, Type (0, 0), BuildingBlock: AJUNOK_clean_linker_0, # of connection points: 2
#     Edge 56, Type (0, 0), BuildingBlock: AJUNOK_clean_linker_0, # of connection points: 2
#     Edge 57, Type (0, 0), BuildingBlock: AJUNOK_clean_linker_0, # of connection points: 2
#     Edge 58, Type (0, 0), BuildingBlock: AJUNOK_clean_linker_0, # of connection points: 2
#     Edge 59, Type (0, 0), BuildingBlock: AJUNOK_clean_linker_0, # of connection points: 2
#     Edge 60, Type (0, 0), BuildingBlock: AJUNOK_clean_linker_0, # of connection points: 2
#     Edge 61, Type (0, 0), BuildingBlock: AJUNOK_clean_linker_0, # of connection points: 2
#     Edge 62, Type (0, 0), BuildingBlock: AJUNOK_clean_linker_0, # of connection points: 2
#     Edge 63, Type (0, 0), BuildingBlock: AJUNOK_clean_linker_0, # of connection points: 2
#     Edge 64, Type (0, 0), BuildingBlock: AJUNOK_clean_linker_0, # of connection points: 2
#     Edge 65, Type (0, 0), BuildingBlock: AJUNOK_clean_linker_0, # of connection points: 2
#     Edge 66, Type (0, 0), BuildingBlock: AJUNOK_clean_linker_0, # of connection points: 2
#     Edge 67, Type (0, 0), BuildingBlock: AJUNOK_clean_linker_0, # of connection points: 2
#     Edge 68, Type (0, 0), BuildingBlock: AJUNOK_clean_linker_0, # of connection points: 2
#     Edge 69, Type (0, 0), BuildingBlock: AJUNOK_clean_linker_0, # of connection points: 2
#     Edge 70, Type (0, 0), BuildingBlock: AJUNOK_clean_linker_0, # of connection points: 2
#     Edge 71, Type (0, 0), BuildingBlock: AJUNOK_clean_linker_0, # of connection points: 2
#     Edge 72, Type (0, 0), BuildingBlock: AJUNOK_clean_linker_0, # of connection points: 2
#     Edge 73, Type (0, 0), BuildingBlock: AJUNOK_clean_linker_0, # of connection points: 2
#     Edge 74, Type (0, 0), BuildingBlock: AJUNOK_clean_linker_0, # of connection points: 2
#     Edge 75, Type (0, 0), BuildingBlock: AJUNOK_clean_linker_0, # of connection points: 2
#     Edge 76, Type (0, 0), BuildingBlock: AJUNOK_clean_linker_0, # of connection points: 2
#     Edge 77, Type (0, 0), BuildingBlock: AJUNOK_clean_linker_0, # of connection points: 2
#     Edge 78, Type (0, 0), BuildingBlock: AJUNOK_clean_linker_0, # of connection points: 2
#     Edge 79, Type (0, 0), BuildingBlock: AJUNOK_clean_linker_0, # of connection points: 2
#     Edge 80, Type (0, 0), BuildingBlock: AJUNOK_clean_linker_0, # of connection points: 2
#     Edge 81, Type (0, 0), BuildingBlock: AJUNOK_clean_linker_0, # of connection points: 2
#     Edge 82, Type (0, 0), BuildingBlock: AJUNOK_clean_linker_0, # of connection points: 2
#     Edge 83, Type (0, 0), BuildingBlock: AJUNOK_clean_linker_0, # of connection points: 2
#     Edge 84, Type (0, 0), BuildingBlock: AJUNOK_clean_linker_0, # of connection points: 2
#     Edge 85, Type (0, 0), BuildingBlock: AJUNOK_clean_linker_0, # of connection points: 2
#     Edge 86, Type (0, 0), BuildingBlock: AJUNOK_clean_linker_0, # of connection points: 2
#     Edge 87, Type (0, 0), BuildingBlock: AJUNOK_clean_linker_0, # of connection points: 2
#     Edge 88, Type (0, 0), BuildingBlock: AJUNOK_clean_linker_0, # of connection points: 2
#     Edge 89, Type (0, 0), BuildingBlock: AJUNOK_clean_linker_0, # of connection points: 2
#     Edge 90, Type (0, 0), BuildingBlock: AJUNOK_clean_linker_0, # of connection points: 2
#     Edge 91, Type (0, 0), BuildingBlock: AJUNOK_clean_linker_0, # of connection points: 2
#     Edge 92, Type (0, 0), BuildingBlock: AJUNOK_clean_linker_0, # of connection points: 2
#     Edge 93, Type (0, 0), BuildingBlock: AJUNOK_clean_linker_0, # of connection points: 2
#     Edge 94, Type (0, 0), BuildingBlock: AJUNOK_clean_linker_0, # of connection points: 2
#     Edge 95, Type (0, 0), BuildingBlock: AJUNOK_clean_linker_0, # of connection points: 2
#     Edge 96, Type (0, 0), BuildingBlock: AJUNOK_clean_linker_0, # of connection points: 2
#     Edge 97, Type (0, 0), BuildingBlock: AJUNOK_clean_linker_0, # of connection points: 2
#     Edge 98, Type (0, 0), BuildingBlock: AJUNOK_clean_linker_0, # of connection points: 2
#     Edge 99, Type (0, 0), BuildingBlock: AJUNOK_clean_linker_0, # of connection points: 2
#     Edge 100, Type (0, 0), BuildingBlock: AJUNOK_clean_linker_0, # of connection points: 2
#     Edge 101, Type (0, 0), BuildingBlock: AJUNOK_clean_linker_0, # of connection points: 2
#     Edge 102, Type (0, 0), BuildingBlock: AJUNOK_clean_linker_0, # of connection points: 2
#     Edge 103, Type (0, 0), BuildingBlock: AJUNOK_clean_linker_0, # of connection points: 2
#     Edge 104, Type (0, 0), BuildingBlock: AJUNOK_clean_linker_0, # of connection points: 2
#     Edge 105, Type (0, 0), BuildingBlock: AJUNOK_clean_linker_0, # of connection points: 2
#     Edge 106, Type (0, 0), BuildingBlock: AJUNOK_clean_linker_0, # of connection points: 2
#     Edge 107, Type (0, 0), BuildingBlock: AJUNOK_clean_linker_0, # of connection points: 2
#     Edge 108, Type (0, 0), BuildingBlock: AJUNOK_clean_linker_0, # of connection points: 2
#     Edge 109, Type (0, 0), BuildingBlock: AJUNOK_clean_linker_0, # of connection points: 2
#     Edge 110, Type (0, 0), BuildingBlock: AJUNOK_clean_linker_0, # of connection points: 2
#     Edge 111, Type (0, 0), BuildingBlock: AJUNOK_clean_linker_0, # of connection points: 2
#     Edge 112, Type (0, 0), BuildingBlock: AJUNOK_clean_linker_0, # of connection points: 2
#     Edge 113, Type (0, 0), BuildingBlock: AJUNOK_clean_linker_0, # of connection points: 2
#     Edge 114, Type (0, 0), BuildingBlock: AJUNOK_clean_linker_0, # of connection points: 2
#     Edge 115, Type (0, 0), BuildingBlock: AJUNOK_clean_linker_0, # of connection points: 2
#     Edge 116, Type (0, 0), BuildingBlock: AJUNOK_clean_linker_0, # of connection points: 2
#     Edge 117, Type (0, 0), BuildingBlock: AJUNOK_clean_linker_0, # of connection points: 2
#     Edge 118, Type (0, 0), BuildingBlock: AJUNOK_clean_linker_0, # of connection points: 2
#     Edge 119, Type (0, 0), BuildingBlock: AJUNOK_clean_linker_0, # of connection points: 2
#     Edge 120, Type (0, 0), BuildingBlock: AJUNOK_clean_linker_0, # of connection points: 2
#     Edge 121, Type (0, 0), BuildingBlock: AJUNOK_clean_linker_0, # of connection points: 2
#     Edge 122, Type (0, 0), BuildingBlock: AJUNOK_clean_linker_0, # of connection points: 2
#     Edge 123, Type (0, 0), BuildingBlock: AJUNOK_clean_linker_0, # of connection points: 2
#     Edge 124, Type (0, 0), BuildingBlock: AJUNOK_clean_linker_0, # of connection points: 2
#     Edge 125, Type (0, 0), BuildingBlock: AJUNOK_clean_linker_0, # of connection points: 2
#     Edge 126, Type (0, 0), BuildingBlock: AJUNOK_clean_linker_0, # of connection points: 2
#     Edge 127, Type (0, 0), BuildingBlock: AJUNOK_clean_linker_0, # of connection points: 2
# Relax obj value: 0.289
# Max RMSD: 0.191
# Mean RMSD: 0.191
data_MOF--net-wir--node1-BETDEL_clean_sbu_0--edge1-AJUNOK_clean_linker_0
_symmetry_space_group_name_H-M    P1
_symmetry_Int_Tables_number       1
_symmetry_cell_setting            triclinic
loop_
_symmetry_equiv_pos_as_xyz
'x, y, z'
_cell_length_a     26.785912
_cell_length_b     26.805231
_cell_length_c     71.150505
_cell_angle_alpha  89.989438
_cell_angle_beta   90.061175
_cell_angle_gamma 89.969785
loop_
_atom_site_label
_atom_site_type_symbol
_atom_site_fract_x
_atom_site_fract_y
_atom_site_fract_z
_atom_type_partial_charge
Dy0 Dy 0.22865 0.22392 0.34804 0.0
C1 C 0.20234 0.0765 0.30564 0.0
C2 C 0.22955 0.3196 0.35963 0.0
Dy3 Dy 0.20086 0.15129 0.33163 0.0
O4 O 0.2696 0.29307 0.35719 0.0
O5 O 0.19022 0.29294 0.3566 0.0
O6 O 0.26579 0.19956 0.37408 0.0
O7 O 0.27201 0.1514 0.35024 0.0
C8 C 0.28219 0.1569 0.36819 0.0
C9 C 0.11798 0.21217 0.33391 0.0
O10 O 0.18795 0.11211 0.35787 0.0
O11 O 0.17519 0.19007 0.36883 0.0
O12 O 0.16368 0.08904 0.31555 0.0
O13 O 0.24041 0.10281 0.31079 0.0
O14 O 0.11803 0.16428 0.33667 0.0
O15 O 0.16233 0.22566 0.32983 0.0
O16 O 0.26939 0.24559 0.32144 0.0
O17 O 0.22344 0.19048 0.30534 0.0
C18 C 0.17318 0.14134 0.37134 0.0
C19 C 0.25445 0.2279 0.30516 0.0
Dy20 Dy 0.07887 0.97774 0.6002 0.0
C21 C 0.23121 0.95312 0.55883 0.0
C22 C 0.98224 0.96995 0.6096 0.0
Dy23 Dy 0.15416 0.95229 0.58387 0.0
O24 O 1.00519 1.01236 0.60767 0.0
O25 O 1.013 0.93314 0.6077 0.0
O26 O 0.10001 1.01771 0.62581 0.0
O27 O 0.14958 1.0234 0.60217 0.0
C28 C 0.1426 0.03452 0.61993 0.0
C29 C 0.09214 0.87026 0.58566 0.0
O30 O 0.19319 0.9418 0.61025 0.0
O31 O 0.11574 0.92784 0.62174 0.0
O32 O 0.21529 0.9138 0.56758 0.0
O33 O 0.20642 0.99173 0.56441 0.0
O34 O 0.13918 0.86995 0.5901 0.0
O35 O 0.08053 0.91437 0.58084 0.0
O36 O 0.05866 1.02135 0.57445 0.0
O37 O 0.11484 0.97756 0.55787 0.0
C38 C 0.16474 0.92726 0.62397 0.0
C39 C 0.0767 1.0079 0.5581 0.0
Dy40 Dy 0.31628 0.84263 0.85226 0.0
C41 C 0.34504 0.98037 0.80744 0.0
C42 C 0.34054 0.75893 0.86999 0.0
Dy43 Dy 0.34459 0.90819 0.83414 0.0
O44 O 0.29706 0.7659 0.86229 0.0
O45 O 0.36781 0.79856 0.86938 0.0
O46 O 0.24706 0.85581 0.8684 0.0
O47 O 0.2835 0.91971 0.85626 0.0
C48 C 0.24921 0.90424 0.86776 0.0
C49 C 0.42363 0.84269 0.83587 0.0
O50 O 0.36266 0.95464 0.85833 0.0
O51 O 0.36316 0.88163 0.87397 0.0
O52 O 0.38456 0.96434 0.81613 0.0
O53 O 0.30576 0.95832 0.81395 0.0
O54 O 0.42669 0.89035 0.83884 0.0
O55 O 0.37821 0.83207 0.83236 0.0
O56 O 0.28095 0.80941 0.82619 0.0
O57 O 0.31056 0.87234 0.80891 0.0
C58 C 0.37166 0.92994 0.87369 0.0
C59 C 0.28745 0.82967 0.80958 0.0
Dy60 Dy 0.48862 0.05807 0.09926 0.0
C61 C 0.32824 0.09098 0.06176 0.0
C62 C 0.58827 0.0538 0.10627 0.0
Dy63 Dy 0.41002 0.09012 0.0848 0.0
O64 O 0.55744 1.01688 0.10866 0.0
O65 O 0.56374 0.09185 0.10009 0.0
O66 O 0.46267 1.02229 0.12568 0.0
O67 O 0.41488 1.01779 0.1017 0.0
C68 C 0.41937 1.00766 0.11958 0.0
C69 C 0.46998 0.17235 0.08801 0.0
O70 O 0.38424 0.10395 0.11352 0.0
O71 O 0.46598 0.11194 0.12124 0.0
O72 O 0.34625 0.12962 0.07034 0.0
O73 O 0.35347 0.05185 0.06655 0.0
O74 O 0.42215 0.17159 0.091 0.0
O75 O 0.48395 0.12862 0.08275 0.0
O76 O 0.49934 1.01568 0.07262 0.0
O77 O 0.45008 0.07109 0.058 0.0
C78 C 0.41865 0.11804 0.12548 0.0
C79 C 0.48376 0.03583 0.05693 0.0
Dy80 Dy 0.23306 0.82386 0.19259 0.0
C81 C 0.20476 0.97334 0.23437 0.0
C82 C 0.24387 0.7283 0.18105 0.0
Dy83 Dy 0.20495 0.89718 0.20889 0.0
O84 O 0.28057 0.75887 0.18381 0.0
O85 O 0.20184 0.75076 0.18401 0.0
O86 O 0.26881 0.85045 0.16661 0.0
O87 O 0.27739 0.89561 0.19115 0.0
C88 C 0.28712 0.8916 0.17316 0.0
C89 C 0.12159 0.83712 0.20618 0.0
O90 O 0.19266 0.93483 0.18228 0.0
O91 O 0.17942 0.85651 0.17165 0.0
O92 O 0.16673 0.96004 0.22426 0.0
O93 O 0.24319 0.94685 0.22974 0.0
O94 O 0.12231 0.88491 0.20323 0.0
O95 O 0.16575 0.82307 0.2105 0.0
O96 O 0.27317 0.80356 0.21934 0.0
O97 O 0.22545 0.85738 0.23529 0.0
C98 C 0.17729 0.90521 0.16901 0.0
C99 C 0.25691 0.8203 0.23553 0.0
Dy100 Dy 0.46817 0.97602 0.44282 0.0
C101 C 0.33085 0.9532 0.48698 0.0
C102 C 0.56466 0.9818 0.43295 0.0
Dy103 Dy 0.40129 0.94764 0.45947 0.0
O104 O 0.53688 1.02063 0.43598 0.0
O105 O 0.53851 0.94138 0.43373 0.0
O106 O 0.44352 1.01187 0.41654 0.0
O107 O 0.39682 1.01953 0.44097 0.0
C108 C 0.4019 0.02969 0.423 0.0
C109 C 0.4621 0.86463 0.45633 0.0
O110 O 0.35562 0.93465 0.43503 0.0
O111 O 0.43103 0.92477 0.4216 0.0
O112 O 0.33951 0.91375 0.47686 0.0
O113 O 0.35884 0.98948 0.48132 0.0
O114 O 0.41386 0.86448 0.45429 0.0
O115 O 0.47587 0.90888 0.46019 0.0
O116 O 0.48789 1.01966 0.46923 0.0
O117 O 0.44201 0.96622 0.48563 0.0
C118 C 0.38179 0.92151 0.42057 0.0
C119 C 0.47489 1.00165 0.48567 0.0
Dy120 Dy 0.3269 0.22013 0.69251 0.0
C121 C 0.34556 0.06904 0.73392 0.0
C122 C 0.33231 0.31678 0.68307 0.0
Dy123 Dy 0.35197 0.14435 0.70854 0.0
O124 O 0.29041 0.29293 0.68505 0.0
O125 O 0.36987 0.2869 0.68494 0.0
O126 O 0.28832 0.19631 0.66658 0.0
O127 O 0.27947 0.15125 0.69127 0.0
C128 C 0.26941 0.15559 0.67337 0.0
C129 C 0.4355 0.20423 0.70645 0.0
O130 O 0.36101 0.10482 0.68239 0.0
O131 O 0.37613 0.18209 0.67096 0.0
O132 O 0.38591 0.08074 0.72482 0.0
O133 O 0.30901 0.09664 0.72825 0.0
O134 O 0.43475 0.15699 0.70234 0.0
O135 O 0.39169 0.2171 0.71127 0.0
O136 O 0.28604 0.23977 0.71929 0.0
O137 O 0.3317 0.18328 0.73497 0.0
C138 C 0.37609 0.13302 0.66872 0.0
C139 C 0.30084 0.2208 0.7354 0.0
Dy140 Dy 0.07657 0.07745 0.94659 0.0
C141 C 0.2199 0.09741 0.99149 0.0
C142 C 0.98057 0.0746 0.93547 0.0
Dy143 Dy 0.14858 0.10515 0.96421 0.0
O144 O 1.00767 0.03513 0.93825 0.0
O145 O 1.00706 0.11448 0.93762 0.0
O146 O 0.10229 0.03892 0.9211 0.0
O147 O 0.14875 0.03411 0.94571 0.0
C148 C 0.1444 1.02318 0.92782 0.0
C149 C 0.08789 0.1876 0.96105 0.0
O150 O 0.18961 0.11975 0.93867 0.0
O151 O 0.11283 0.12969 0.92579 0.0
O152 O 0.21082 0.13765 0.98186 0.0
O153 O 0.19204 0.06153 0.98541 0.0
O154 O 0.13616 0.18801 0.95917 0.0
O155 O 0.07415 0.14326 0.96491 0.0
O156 O 0.05548 0.03513 0.97286 0.0
O157 O 0.10541 0.085 0.98967 0.0
C158 C 0.1619 0.13347 0.92457 0.0
C159 C 0.07031 0.05152 0.98933 0.0
Dy160 Dy 0.84896 0.89822 0.70939 0.0
C161 C 0.81294 0.72973 0.68379 0.0
C162 C 0.85165 0.97392 0.73493 0.0
Dy163 Dy 0.81815 0.82659 0.69381 0.0
O164 O 0.88927 0.95961 0.72481 0.0
O165 O 0.81239 0.94885 0.73019 0.0
O166 O 0.93093 0.88282 0.70358 0.0
O167 O 0.88562 0.82309 0.7116 0.0
C168 C 0.93007 0.83529 0.70708 0.0
C169 C 0.76643 0.89455 0.67353 0.0
O170 O 0.77506 0.8093 0.72013 0.0
O171 O 0.82654 0.85968 0.73589 0.0
O172 O 0.77423 0.75844 0.68572 0.0
O173 O 0.8534 0.75494 0.68648 0.0
O174 O 0.78169 0.85141 0.66762 0.0
O175 O 0.7769 0.89993 0.69142 0.0
O176 O 0.86169 0.9357 0.68283 0.0
O177 O 0.87134 0.85702 0.67225 0.0
C178 C 0.79232 0.82517 0.73629 0.0
C179 C 0.87486 0.90551 0.66942 0.0
Dy180 Dy 0.90108 0.10202 0.45985 0.0
C181 C 0.07311 0.07727 0.43324 0.0
C182 C 0.82437 0.10241 0.48486 0.0
Dy183 Dy 0.97658 0.07526 0.44373 0.0
O184 O 0.83818 0.14053 0.47494 0.0
O185 O 0.85067 0.06384 0.48029 0.0
O186 O 0.91382 0.18457 0.45436 0.0
O187 O 0.97495 0.14094 0.46217 0.0
C188 C 0.96139 0.18502 0.45783 0.0
C189 C 0.91057 1.02012 0.42417 0.0
O190 O 0.9963 0.03397 0.47027 0.0
O191 O 0.9393 0.07864 0.4861 0.0
O192 O 0.04772 0.03643 0.43547 0.0
O193 O 0.04481 0.11574 0.43576 0.0
O194 O 0.9527 0.03703 0.4179 0.0
O195 O 0.90562 0.03022 0.44207 0.0
O196 O 0.86267 0.11134 0.43339 0.0
O197 O 0.94041 0.12648 0.42252 0.0
C198 C 0.97707 0.04802 0.48639 0.0
C199 C 0.89149 0.12674 0.41995 0.0
Dy200 Dy 0.68591 0.14866 0.21 0.0
C201 C 0.72581 0.31469 0.1848 0.0
C202 C 0.68707 0.07547 0.23653 0.0
Dy203 Dy 0.7168 0.21777 0.19381 0.0
O204 O 0.64788 0.08865 0.22698 0.0
O205 O 0.72543 0.10035 0.23077 0.0
O206 O 0.60389 0.16393 0.20379 0.0
O207 O 0.64939 0.22396 0.21127 0.0
C208 C 0.60498 0.21174 0.20681 0.0
C209 C 0.76994 0.14976 0.17458 0.0
O210 O 0.76005 0.23495 0.22035 0.0
O211 O 0.70618 0.18817 0.23637 0.0
O212 O 0.76356 0.28493 0.18702 0.0
O213 O 0.68427 0.29034 0.18594 0.0
O214 O 0.75367 0.1918 0.16792 0.0
O215 O 0.7589 0.14543 0.19246 0.0
O216 O 0.67284 0.10729 0.18446 0.0
O217 O 0.66603 0.18401 0.17169 0.0
C218 C 0.74184 0.22099 0.23662 0.0
C219 C 0.66182 0.13501 0.17008 0.0
Dy220 Dy 0.65241 0.94399 0.95696 0.0
C221 C 0.48641 0.98696 0.93195 0.0
C222 C 0.72475 0.9508 0.98373 0.0
Dy223 Dy 0.58289 0.97369 0.94156 0.0
O224 O 0.71588 0.91113 0.97376 0.0
O225 O 0.69606 0.98672 0.97822 0.0
O226 O 0.64256 0.86143 0.95134 0.0
O227 O 0.57862 0.90354 0.95778 0.0
C228 C 0.59444 0.85988 0.95366 0.0
C229 C 0.64919 0.02699 0.92151 0.0
O230 O 0.5653 1.01489 0.96849 0.0
O231 O 0.61141 0.95869 0.98347 0.0
O232 O 0.51761 1.02311 0.9347 0.0
O233 O 0.50881 0.94439 0.93345 0.0
O234 O 0.60699 1.00994 0.91533 0.0
O235 O 0.65466 1.01665 0.93938 0.0
O236 O 0.69293 0.93156 0.93112 0.0
O237 O 0.61511 0.92253 0.91953 0.0
C238 C 0.57893 0.99453 0.98441 0.0
C239 C 0.66397 0.91903 0.91728 0.0
Dy240 Dy 0.85809 0.14567 0.83309 0.0
C241 C 0.82104 0.31521 0.85933 0.0
C242 C 0.8575 0.07076 0.80723 0.0
Dy243 Dy 0.82799 0.21873 0.84918 0.0
O244 O 0.89651 0.08485 0.81667 0.0
O245 O 0.8189 0.09562 0.8128 0.0
O246 O 0.93995 0.16075 0.83945 0.0
O247 O 0.89494 0.22058 0.83126 0.0
C248 C 0.9392 0.20834 0.83598 0.0
C249 C 0.77466 0.15038 0.86827 0.0
O250 O 0.78635 0.2367 0.82248 0.0
O251 O 0.83741 0.18551 0.80679 0.0
O252 O 0.7828 0.28607 0.8572 0.0
O253 O 0.86209 0.29064 0.85691 0.0
O254 O 0.79126 0.19212 0.875 0.0
O255 O 0.78512 0.14669 0.85035 0.0
O256 O 0.87041 0.10723 0.85944 0.0
O257 O 0.87968 0.18542 0.87091 0.0
C258 C 0.80371 0.22052 0.80637 0.0
C259 C 0.88301 0.13656 0.87319 0.0
Dy260 Dy 0.64973 0.10557 0.58268 0.0
C261 C 0.48702 0.07468 0.60996 0.0
C262 C 0.72225 0.10433 0.55598 0.0
Dy263 Dy 0.58303 0.07866 0.59945 0.0
O264 O 0.71138 0.14261 0.56635 0.0
O265 O 0.69507 0.06663 0.56082 0.0
O266 O 0.63815 0.18883 0.58794 0.0
O267 O 0.57562 0.14547 0.58186 0.0
C268 C 0.59007 0.18955 0.58562 0.0
C269 C 0.64863 1.02348 0.619 0.0
O270 O 0.56095 0.03529 0.57343 0.0
O271 O 0.61003 0.08452 0.5564 0.0
O272 O 0.51383 0.03537 0.60662 0.0
O273 O 0.51389 0.11461 0.60906 0.0
O274 O 0.60745 0.04202 0.62556 0.0
O275 O 0.65353 0.03359 0.60103 0.0
O276 O 0.69571 0.11699 0.60722 0.0
O277 O 0.62071 0.12952 0.62056 0.0
C278 C 0.5747 0.05141 0.55682 0.0
C279 C 0.66995 0.13145 0.6216 0.0
Dy280 Dy 0.69866 0.90841 0.33563 0.0
C281 C 0.72201 0.73848 0.3614 0.0
C282 C 0.69515 0.98282 0.30956 0.0
Dy283 Dy 0.72613 0.835 0.35183 0.0
O284 O 0.65792 0.96921 0.32 0.0
O285 O 0.7345 0.95778 0.31424 0.0
O286 O 0.61661 0.89378 0.34257 0.0
O287 O 0.66038 0.83452 0.33348 0.0
C288 C 0.61649 0.84659 0.33848 0.0
C289 C 0.78353 0.89973 0.37067 0.0
O290 O 0.76829 0.81474 0.32554 0.0
O291 O 0.72196 0.86969 0.30949 0.0
O292 O 0.76361 0.76224 0.35861 0.0
O293 O 0.68425 0.76842 0.36042 0.0
O294 O 0.76639 0.85801 0.37729 0.0
O295 O 0.7719 0.90517 0.35289 0.0
O296 O 0.69189 0.94991 0.36147 0.0
O297 O 0.67794 0.87339 0.37365 0.0
C298 C 0.75349 0.83271 0.30932 0.0
C299 C 0.67789 0.92255 0.37554 0.0
Dy300 Dy 0.88846 0.94584 0.08368 0.0
C301 C 0.05614 0.96661 0.11191 0.0
C302 C 0.81433 0.9496 0.05744 0.0
Dy303 Dy 0.96017 0.96991 0.10124 0.0
O304 O 0.8276 0.90975 0.0665 0.0
O305 O 0.83993 0.98724 0.06342 0.0
O306 O 0.90285 0.86238 0.08762 0.0
O307 O 0.96287 0.90827 0.08103 0.0
C308 C 0.95048 0.86331 0.08424 0.0
C309 C 0.89396 1.02384 0.1212 0.0
O310 O 0.98262 1.01593 0.07621 0.0
O311 O 0.92864 0.97333 0.05833 0.0
O312 O 0.03129 1.00785 0.10982 0.0
O313 O 0.02751 0.9283 0.10961 0.0
O314 O 0.93541 1.00522 0.1275 0.0
O315 O 0.88948 1.01544 0.1031 0.0
O316 O 0.84654 0.93166 0.10909 0.0
O317 O 0.92284 0.91608 0.12116 0.0
C318 C 0.96628 1.00397 0.05943 0.0
C319 C 0.87372 0.91501 0.12283 0.0
Dy320 Dy 0.7145 0.71348 0.84885 0.0
C321 C 0.6894 0.57657 0.80551 0.0
C322 C 0.71834 0.81014 0.85822 0.0
Dy323 Dy 0.68751 0.64835 0.83255 0.0
O324 O 0.75763 0.78334 0.85485 0.0
O325 O 0.67844 0.78295 0.85809 0.0
O326 O 0.7531 0.69323 0.87486 0.0
O327 O 0.75882 0.64263 0.85139 0.0
C328 C 0.77045 0.65072 0.86909 0.0
C329 C 0.60379 0.70832 0.83562 0.0
O330 O 0.67581 0.6016 0.85684 0.0
O331 O 0.66522 0.67611 0.87065 0.0
O332 O 0.65064 0.58747 0.81565 0.0
O333 O 0.72706 0.60334 0.81075 0.0
O334 O 0.60455 0.66053 0.83864 0.0
O335 O 0.64769 0.72204 0.83133 0.0
O336 O 0.7604 0.73444 0.82346 0.0
O337 O 0.70853 0.68882 0.80636 0.0
C338 C 0.66287 0.62689 0.87155 0.0
C339 C 0.74335 0.72248 0.80684 0.0
Dy340 Dy 0.58258 0.47629 0.10269 0.0
C341 C 0.7225 0.44694 0.05947 0.0
C342 C 0.48839 0.49579 0.11378 0.0
Dy343 Dy 0.65036 0.44567 0.08647 0.0
O344 O 0.52044 0.52979 0.10928 0.0
O345 O 0.50869 0.45199 0.11316 0.0
O346 O 0.60888 0.51319 0.12838 0.0
O347 O 0.6549 0.51902 0.10382 0.0
C348 C 0.65027 0.53051 0.12166 0.0
C349 C 0.59069 0.36249 0.09044 0.0
O350 O 0.69289 0.43389 0.11197 0.0
O351 O 0.6161 0.42521 0.12451 0.0
O352 O 0.71211 0.40876 0.07001 0.0
O353 O 0.69538 0.48458 0.06447 0.0
O354 O 0.6389 0.36326 0.09249 0.0
O355 O 0.57572 0.4065 0.08635 0.0
O356 O 0.56176 0.51572 0.07568 0.0
O357 O 0.60942 0.46213 0.06001 0.0
C358 C 0.66511 0.42186 0.1262 0.0
C359 C 0.57508 0.49631 0.05956 0.0
Dy360 Dy 0.82469 0.33079 0.34926 0.0
C361 C 0.84412 0.47247 0.3053 0.0
C362 C 0.8294 0.23539 0.3603 0.0
Dy363 Dy 0.84873 0.39997 0.33197 0.0
O364 O 0.78768 0.25908 0.35763 0.0
O365 O 0.86713 0.26494 0.35829 0.0
O366 O 0.78828 0.35469 0.37545 0.0
O367 O 0.7783 0.40068 0.35097 0.0
C368 C 0.76917 0.39571 0.36898 0.0
C369 C 0.93269 0.33984 0.33386 0.0
O370 O 0.86098 0.44523 0.35669 0.0
O371 O 0.87622 0.37008 0.36966 0.0
O372 O 0.88373 0.46169 0.315 0.0
O373 O 0.80721 0.44508 0.31076 0.0
O374 O 0.93223 0.38749 0.33715 0.0
O375 O 0.88835 0.32654 0.32999 0.0
O376 O 0.77919 0.30719 0.32407 0.0
O377 O 0.82434 0.3589 0.30635 0.0
C378 C 0.87708 0.41929 0.37081 0.0
C379 C 0.79271 0.32214 0.30728 0.0
Dy380 Dy 0.96924 0.578 0.60073 0.0
C381 C 0.82709 0.60509 0.55661 0.0
C382 C 0.06496 0.57348 0.612 0.0
Dy383 Dy 0.89928 0.60619 0.58357 0.0
O384 O 0.03754 0.53435 0.60907 0.0
O385 O 0.0389 0.61371 0.61013 0.0
O386 O 0.94279 0.54172 0.62657 0.0
O387 O 0.89798 0.53391 0.60166 0.0
C388 C 0.90178 0.52379 0.61966 0.0
C389 C 0.9609 0.6884 0.58669 0.0
O390 O 0.85509 0.61748 0.60843 0.0
O391 O 0.93083 0.62946 0.62158 0.0
O392 O 0.83863 0.64371 0.56672 0.0
O393 O 0.85306 0.56701 0.56201 0.0
O394 O 0.91279 0.68901 0.58893 0.0
O395 O 0.97413 0.64404 0.58272 0.0
O396 O 0.99013 0.53587 0.57415 0.0
O397 O 0.93867 0.58453 0.55758 0.0
C398 C 0.8815 0.63178 0.62269 0.0
C399 C 0.97408 0.55151 0.55769 0.0
Dy400 Dy 0.73079 0.32593 0.6928 0.0
C401 C 0.69628 0.47048 0.73511 0.0
C402 C 0.73731 0.22965 0.68233 0.0
Dy403 Dy 0.70033 0.39551 0.70934 0.0
O404 O 0.77575 0.25839 0.68473 0.0
O405 O 0.69653 0.25466 0.68456 0.0
O406 O 0.76738 0.35124 0.66692 0.0
O407 O 0.77178 0.39945 0.69096 0.0
C408 C 0.78263 0.39411 0.67308 0.0
C409 C 0.6194 0.33257 0.70643 0.0
O410 O 0.68759 0.43569 0.68337 0.0
O411 O 0.67736 0.35833 0.67165 0.0
O412 O 0.65908 0.45614 0.72478 0.0
O413 O 0.73585 0.44552 0.73066 0.0
O414 O 0.61805 0.3805 0.70393 0.0
O415 O 0.66398 0.32006 0.7106 0.0
O416 O 0.77464 0.30685 0.71878 0.0
O417 O 0.72436 0.35629 0.73547 0.0
C418 C 0.67401 0.40711 0.66955 0.0
C419 C 0.75819 0.32138 0.73521 0.0
Dy420 Dy 0.96492 0.47541 0.94204 0.0
C421 C 0.81731 0.44764 0.98663 0.0
C422 C 0.05972 0.4734 0.92997 0.0
Dy423 Dy 0.89114 0.44911 0.96023 0.0
O424 O 0.03466 0.51434 0.93253 0.0
O425 O 0.03205 0.43473 0.93297 0.0
O426 O 0.93624 0.51057 0.91623 0.0
O427 O 0.89282 0.51926 0.9413 0.0
C428 C 0.89509 0.5279 0.92319 0.0
C429 C 0.95541 0.36872 0.95876 0.0
O430 O 0.85148 0.43465 0.93411 0.0
O431 O 0.92888 0.42005 0.92265 0.0
O432 O 0.83199 0.40933 0.97701 0.0
O433 O 0.84088 0.48694 0.98097 0.0
O434 O 0.90768 0.36649 0.95572 0.0
O435 O 0.96661 0.41385 0.9623 0.0
O436 O 0.9881 0.51908 0.96748 0.0
O437 O 0.93248 0.47763 0.98527 0.0
C438 C 0.87995 0.4185 0.92061 0.0
C439 C 0.97111 0.50722 0.98418 0.0
Dy440 Dy 0.81698 0.73056 0.19573 0.0
C441 C 0.84422 0.57943 0.23516 0.0
C442 C 0.80769 0.82854 0.18701 0.0
Dy443 Dy 0.8484 0.65754 0.21085 0.0
O444 O 0.77138 0.79655 0.18642 0.0
O445 O 0.84814 0.80605 0.19207 0.0
O446 O 0.78241 0.70451 0.16918 0.0
O447 O 0.77647 0.65711 0.19324 0.0
C448 C 0.76695 0.66162 0.1753 0.0
C449 C 0.93139 0.71676 0.20793 0.0
O450 O 0.86301 0.62509 0.18336 0.0
O451 O 0.87114 0.70528 0.17411 0.0
O452 O 0.88391 0.59284 0.22603 0.0
O453 O 0.80704 0.60741 0.23039 0.0
O454 O 0.93069 0.6687 0.20552 0.0
O455 O 0.88736 0.73158 0.21234 0.0
O456 O 0.77402 0.74445 0.22212 0.0
O457 O 0.83056 0.69869 0.23739 0.0
C458 C 0.87617 0.65737 0.17062 0.0
C459 C 0.79453 0.73138 0.23805 0.0
Dy460 Dy 0.57956 0.57175 0.44371 0.0
C461 C 0.73215 0.60197 0.48391 0.0
C462 C 0.48215 0.5793 0.43529 0.0
Dy463 Dy 0.65509 0.59974 0.45889 0.0
O464 O 0.50542 0.53688 0.43691 0.0
O465 O 0.513 0.61609 0.43683 0.0
O466 O 0.60043 0.53081 0.41807 0.0
O467 O 0.6509 0.52704 0.44149 0.0
C468 C 0.64369 0.51511 0.42382 0.0
C469 C 0.59265 0.68153 0.45662 0.0
O470 O 0.69268 0.6076 0.43218 0.0
O471 O 0.61439 0.62052 0.42142 0.0
O472 O 0.71706 0.63986 0.47409 0.0
O473 O 0.70707 0.56278 0.47914 0.0
O474 O 0.63943 0.6815 0.45184 0.0
O475 O 0.58144 0.6377 0.46201 0.0
O476 O 0.56144 0.53011 0.47025 0.0
O477 O 0.61751 0.57711 0.48551 0.0
C478 C 0.66319 0.62105 0.4186 0.0
C479 C 0.58038 0.5457 0.4862 0.0
Dy480 Dy 0.34676 0.41398 0.21055 0.0
C481 C 0.34772 0.27389 0.17027 0.0
C482 C 0.35155 0.48225 0.23877 0.0
Dy483 Dy 0.32171 0.35089 0.19157 0.0
O484 O 0.38949 0.46744 0.22894 0.0
O485 O 0.3112 0.46152 0.23254 0.0
O486 O 0.42933 0.39625 0.20597 0.0
O487 O 0.38136 0.33777 0.21202 0.0
C488 C 0.42674 0.34859 0.20888 0.0
C489 C 0.24991 0.40983 0.17805 0.0
O490 O 0.29135 0.31102 0.21718 0.0
O491 O 0.30627 0.37863 0.23451 0.0
O492 O 0.30472 0.27707 0.17859 0.0
O493 O 0.37391 0.31375 0.17248 0.0
O494 O 0.24757 0.36145 0.17874 0.0
O495 O 0.28705 0.42691 0.1878 0.0
O496 O 0.36289 0.46551 0.18748 0.0
O497 O 0.36757 0.39449 0.17081 0.0
C498 C 0.2904 0.33279 0.23368 0.0
C499 C 0.37386 0.44305 0.17184 0.0
Dy500 Dy 0.40999 0.59046 0.95759 0.0
C501 C 0.58704 0.55115 0.93542 0.0
C502 C 0.32865 0.59294 0.98061 0.0
Dy503 Dy 0.4884 0.55714 0.94362 0.0
O504 O 0.34637 0.63112 0.97163 0.0
O505 O 0.35388 0.55357 0.97617 0.0
O506 O 0.42506 0.67151 0.95087 0.0
O507 O 0.48478 0.62721 0.96017 0.0
C508 C 0.47252 0.67108 0.95465 0.0
C509 C 0.41973 0.5056 0.92353 0.0
O510 O 0.50001 0.51776 0.9711 0.0
O511 O 0.4469 0.57123 0.98487 0.0
O512 O 0.55682 0.51325 0.9356 0.0
O513 O 0.56245 0.59114 0.93949 0.0
O514 O 0.46344 0.51918 0.91761 0.0
O515 O 0.41468 0.51693 0.94128 0.0
O516 O 0.38153 0.60079 0.92924 0.0
O517 O 0.4628 0.60913 0.92095 0.0
C518 C 0.48144 0.53707 0.98652 0.0
C519 C 0.41499 0.61302 0.91676 0.0
Dy520 Dy 0.20073 0.65066 0.71063 0.0
C521 C 0.22904 0.82003 0.68367 0.0
C522 C 0.20332 0.57585 0.73652 0.0
Dy523 Dy 0.22729 0.72368 0.69423 0.0
O524 O 0.16459 0.58756 0.72648 0.0
O525 O 0.24088 0.60318 0.73163 0.0
O526 O 0.11778 0.6616 0.70494 0.0
O527 O 0.16024 0.72414 0.71195 0.0
C528 C 0.11645 0.70948 0.70766 0.0
C529 C 0.28315 0.65762 0.67489 0.0
O530 O 0.2665 0.74518 0.72134 0.0
O531 O 0.22006 0.69002 0.73714 0.0
O532 O 0.26894 0.79348 0.68639 0.0
O533 O 0.18947 0.7929 0.68549 0.0
O534 O 0.26491 0.69888 0.66832 0.0
O535 O 0.27314 0.6533 0.69286 0.0
O536 O 0.18985 0.60989 0.68475 0.0
O537 O 0.1765 0.68699 0.67286 0.0
C538 C 0.25082 0.72755 0.73754 0.0
C539 C 0.17515 0.63791 0.67093 0.0
Dy540 Dy 0.15079 0.45147 0.46072 0.0
C541 C 0.9819 0.48368 0.43136 0.0
C542 C 0.22501 0.45694 0.48687 0.0
Dy543 Dy 0.07727 0.47846 0.44318 0.0
O544 O 0.21256 0.41667 0.47788 0.0
O545 O 0.19861 0.494 0.48083 0.0
O546 O 0.13687 0.36863 0.45598 0.0
O547 O 0.0759 0.41417 0.46226 0.0
C548 C 0.08885 0.36953 0.45855 0.0
C549 C 0.14658 0.53118 0.42429 0.0
O550 O 0.0562 0.52013 0.46958 0.0
O551 O 0.10954 0.47378 0.48651 0.0
O552 O 1.00987 0.52243 0.43423 0.0
O553 O 1.007 0.44308 0.43408 0.0
O554 O 0.10585 0.51306 0.41725 0.0
O555 O 0.14862 0.52265 0.44239 0.0
O556 O 0.19046 0.43657 0.43479 0.0
O557 O 0.11296 0.42443 0.42289 0.0
C558 C 0.07243 0.5052 0.48609 0.0
C559 C 0.16202 0.42159 0.42109 0.0
Dy560 Dy 0.35213 0.65427 0.33619 0.0
C561 C 0.31408 0.82396 0.36006 0.0
C562 C 0.35302 0.57749 0.31124 0.0
Dy563 Dy 0.32038 0.72648 0.35116 0.0
O564 O 0.3914 0.59194 0.32095 0.0
O565 O 0.31424 0.60326 0.31599 0.0
O566 O 0.43402 0.66924 0.34227 0.0
O567 O 0.38901 0.72939 0.33423 0.0
C568 C 0.43318 0.71694 0.33903 0.0
C569 C 0.26745 0.65955 0.37113 0.0
O570 O 0.27942 0.74196 0.32403 0.0
O571 O 0.33233 0.69104 0.30922 0.0
O572 O 0.27554 0.79511 0.358 0.0
O573 O 0.35474 0.79849 0.35832 0.0
O574 O 0.28239 0.70274 0.3771 0.0
O575 O 0.27889 0.65372 0.35337 0.0
O576 O 0.36321 0.61674 0.3627 0.0
O577 O 0.37166 0.6954 0.3735 0.0
C578 C 0.29784 0.72509 0.30819 0.0
C579 C 0.3752 0.64677 0.37627 0.0
Dy580 Dy 0.15485 0.60729 0.07906 0.0
C581 C 1.00541 0.59768 0.11464 0.0
C582 C 0.22584 0.60257 0.05174 0.0
Dy583 Dy 0.09007 0.57949 0.0966 0.0
O584 O 0.21237 0.64341 0.06023 0.0
O585 O 0.20233 0.56503 0.05893 0.0
O586 O 0.13633 0.68965 0.08307 0.0
O587 O 0.0783 0.64084 0.07669 0.0
C588 C 0.08864 0.68631 0.08002 0.0
C589 C 0.14953 0.5107 0.1119 0.0
O590 O 0.05678 0.54361 0.07079 0.0
O591 O 0.12024 0.5726 0.05383 0.0
O592 O 1.01597 0.55458 0.10742 0.0
O593 O 0.04208 0.62868 0.1132 0.0
O594 O 0.10125 0.50773 0.11096 0.0
O595 O 0.16668 0.54717 0.10177 0.0
O596 O 0.20195 0.62704 0.10296 0.0
O597 O 0.12919 0.62488 0.11881 0.0
C598 C 0.0779 0.5491 0.05436 0.0
C599 C 0.17742 0.63425 0.11849 0.0
Dy600 Dy 0.20748 0.39621 0.83323 0.0
C601 C 0.23511 0.2287 0.86261 0.0
C602 C 0.20685 0.47122 0.80735 0.0
Dy603 Dy 0.23374 0.32377 0.8504 0.0
O604 O 0.16904 0.4585 0.81764 0.0
O605 O 0.24528 0.4446 0.8119 0.0
O606 O 0.12433 0.38381 0.8382 0.0
O607 O 0.16832 0.32194 0.83188 0.0
C608 C 0.12404 0.33585 0.83572 0.0
C609 C 0.28869 0.39075 0.86948 0.0
O610 O 0.27479 0.30096 0.82408 0.0
O611 O 0.23124 0.35679 0.80727 0.0
O612 O 0.27497 0.25533 0.86004 0.0
O613 O 0.19568 0.25506 0.8594 0.0
O614 O 0.26998 0.35003 0.87627 0.0
O615 O 0.27927 0.39439 0.85144 0.0
O616 O 0.19696 0.43778 0.85898 0.0
O617 O 0.18105 0.36127 0.87073 0.0
C618 C 0.2611 0.31844 0.80762 0.0
C619 C 0.18039 0.41033 0.87263 0.0
Dy620 Dy 0.40102 0.45712 0.58419 0.0
C621 C 0.57364 0.47864 0.60932 0.0
C622 C 0.32477 0.46078 0.5588 0.0
Dy623 Dy 0.47635 0.48376 0.60023 0.0
O624 O 0.33775 0.42132 0.56819 0.0
O625 O 0.35167 0.49822 0.56413 0.0
O626 O 0.41492 0.37441 0.58967 0.0
O627 O 0.47474 0.41883 0.5813 0.0
C628 C 0.46229 0.37453 0.58577 0.0
C629 C 0.41007 0.53736 0.62055 0.0
O630 O 0.49542 0.52702 0.57426 0.0
O631 O 0.44188 0.47928 0.55808 0.0
O632 O 0.54869 0.52023 0.60851 0.0
O633 O 0.54445 0.44113 0.60638 0.0
O634 O 0.45263 0.52045 0.62652 0.0
O635 O 0.40487 0.52808 0.60256 0.0
O636 O 0.36449 0.44419 0.61097 0.0
O637 O 0.44323 0.43082 0.62125 0.0
C638 C 0.47884 0.51104 0.55802 0.0
C639 C 0.39463 0.42912 0.62415 0.0
C640 C 0.25401 0.36525 0.38762 0.0
C641 C 0.22609 0.36421 0.37098 0.0
C642 C 0.23357 0.38611 0.40382 0.0
C643 C 0.18511 0.40626 0.40354 0.0
H644 H 0.28845 0.34423 0.38882 0.0
H645 H 0.25418 0.38286 0.41688 0.0
S646 S 0.10578 0.42736 0.36165 0.0
N647 N 0.15479 0.39644 0.35373 0.0
N648 N 0.11531 0.43468 0.38441 0.0
C649 C 0.16041 0.41197 0.38633 0.0
C650 C 0.18175 0.39176 0.36983 0.0
C651 C 0.92297 0.99536 0.63356 0.0
C652 C 0.93486 0.96274 0.6189 0.0
C653 C 0.90038 0.97687 0.64973 0.0
C654 C 0.88918 0.92575 0.65128 0.0
H655 H 0.93735 0.03315 0.63373 0.0
H656 H 0.89578 1.00186 0.66157 0.0
S657 S 0.89631 0.83099 0.61351 0.0
N658 N 0.92087 0.882 0.60438 0.0
N659 N 0.87937 0.84637 0.63502 0.0
C660 C 0.89313 0.8952 0.6354 0.0
C661 C 0.91506 0.9144 0.61889 0.0
C662 C 0.41146 0.70957 0.88047 0.0
C663 C 0.35981 0.71256 0.87722 0.0
C664 C 0.43097 0.67178 0.89145 0.0
C665 C 0.39888 0.63702 0.89964 0.0
H666 H 0.43664 0.73855 0.87568 0.0
H667 H 0.47017 0.67339 0.89519 0.0
S668 S 0.26415 0.61905 0.88978 0.0
N669 N 0.27921 0.67103 0.87865 0.0
N670 N 0.31616 0.59899 0.89974 0.0
C671 C 0.34866 0.63477 0.89395 0.0
C672 C 0.3288 0.67327 0.88261 0.0
C673 C 0.64425 0.05896 0.15165 0.0
C674 C 0.65458 0.11048 0.15198 0.0
C675 C 0.63385 0.03473 0.13479 0.0
C676 C 0.63194 0.06208 0.11805 0.0
H677 H 0.64096 0.03778 0.16456 0.0
H678 H 0.61983 0.99684 0.13537 0.0
S679 S 0.67657 0.19118 0.11056 0.0
N680 N 0.67661 0.18384 0.13359 0.0
N681 N 0.65834 0.1372 0.10172 0.0
C682 C 0.65253 0.11023 0.11776 0.0
C683 C 0.66191 0.13545 0.1349 0.0
C684 C 0.26957 0.69331 0.15122 0.0
C685 C 0.24589 0.68575 0.16857 0.0
C686 C 0.24856 0.67392 0.13484 0.0
C687 C 0.20422 0.64615 0.1357 0.0
H688 H 0.29968 0.72009 0.14991 0.0
H689 H 0.26453 0.68439 0.12142 0.0
S690 S 0.14148 0.59978 0.17863 0.0
N691 N 0.18572 0.63751 0.18637 0.0
N692 N 0.14651 0.59973 0.15551 0.0
C693 C 0.18594 0.63107 0.15326 0.0
C694 C 0.20737 0.65077 0.16985 0.0
C695 C 0.66355 0.91782 0.40965 0.0
C696 C 0.6645 0.94636 0.39318 0.0
C697 C 0.63944 0.93594 0.42551 0.0
C698 C 0.61396 0.98166 0.4247 0.0
H699 H 0.67774 0.87995 0.40984 0.0
H700 H 0.6337 0.91069 0.43722 0.0
S701 S 0.62283 0.07764 0.38765 0.0
N702 N 0.6524 0.02861 0.37907 0.0
N703 N 0.60449 0.06135 0.40893 0.0
C704 C 0.62356 1.01442 0.40991 0.0
C705 C 0.64894 0.99652 0.39381 0.0
C706 C 0.32355 0.40094 0.6435 0.0
C707 C 0.37442 0.41347 0.64213 0.0
C708 C 0.30559 0.37664 0.65941 0.0
C709 C 0.33845 0.36464 0.67402 0.0
H710 H 0.29856 0.40573 0.63165 0.0
H711 H 0.26818 0.36127 0.65905 0.0
S712 S 0.46948 0.40538 0.67986 0.0
N713 N 0.45372 0.42349 0.6585 0.0
N714 N 0.41889 0.37936 0.68874 0.0
C715 C 0.38634 0.38554 0.67427 0.0
C716 C 0.40509 0.40895 0.65798 0.0
C717 C 0.9334 0.04623 0.90853 0.0
C718 C 0.93497 0.07617 0.92463 0.0
C719 C 0.91407 0.06552 0.89187 0.0
C720 C 0.89563 0.11462 0.89124 0.0
H721 H 0.95359 1.0112 0.908 0.0
H722 H 0.9175 0.04345 0.87918 0.0
S723 S 0.8736 0.19822 0.93179 0.0
N724 N 0.903 0.14941 0.94066 0.0
N725 N 0.86745 0.18674 0.90911 0.0
C726 C 0.88923 0.14102 0.90803 0.0
C727 C 0.90792 0.12084 0.92499 0.0
C728 C 0.85992 0.65791 0.67363 0.0
C729 C 0.81452 0.68403 0.67296 0.0
C730 C 0.88126 0.63974 0.6572 0.0
C731 C 0.85609 0.6448 0.64006 0.0
H732 H 0.88248 0.65845 0.68624 0.0
H733 H 0.9186 0.62424 0.65779 0.0
S734 S 0.72737 0.69245 0.6328 0.0
N735 N 0.73898 0.70178 0.65532 0.0
N736 N 0.77774 0.66516 0.62426 0.0
C737 C 0.80643 0.662 0.63999 0.0
C738 C 0.7853 0.68134 0.65672 0.0
C739 C 0.12488 0.05069 0.40705 0.0
C740 C 0.11902 0.08191 0.42267 0.0
C741 C 0.1451 0.06971 0.39049 0.0
C742 C 0.15963 0.12004 0.38942 0.0
H743 H 0.10768 1.0141 0.40672 0.0
H744 H 0.14538 0.04613 0.37813 0.0
S745 S 0.16737 0.21003 0.42879 0.0
N746 N 0.14232 0.15936 0.43799 0.0
N747 N 0.17763 0.19663 0.4065 0.0
C748 C 0.16102 0.14875 0.40585 0.0
C749 C 0.14219 0.12871 0.42278 0.0
C750 C 0.73745 0.38907 0.14372 0.0
C751 C 0.68879 0.40878 0.14388 0.0
C752 C 0.75699 0.3667 0.15978 0.0
C753 C 0.72745 0.36311 0.17593 0.0
H754 H 0.75854 0.38649 0.13076 0.0
H755 H 0.79114 0.34525 0.15851 0.0
S756 S 0.60826 0.42772 0.1855 0.0
N757 N 0.61891 0.43726 0.16293 0.0
N758 N 0.6565 0.39533 0.19331 0.0
C759 C 0.68422 0.3922 0.17736 0.0
C760 C 0.66382 0.41419 0.16102 0.0
C761 C 0.38237 0.93193 0.90803 0.0
C762 C 0.388 0.9557 0.89061 0.0
C763 C 0.40733 0.94988 0.92376 0.0
C764 C 0.43928 0.99101 0.92213 0.0
H765 H 0.36195 0.89718 0.90924 0.0
H766 H 0.40761 0.92717 0.93638 0.0
S767 S 0.45201 0.07584 0.88146 0.0
N768 N 0.41609 0.02997 0.8739 0.0
N769 N 0.46409 0.06313 0.90372 0.0
C770 C 0.43746 1.02037 0.90589 0.0
C771 C 0.41197 1.00225 0.88982 0.0
C772 C 0.79074 0.36373 0.88577 0.0
C773 C 0.82113 0.36147 0.86978 0.0
C774 C 0.80911 0.38516 0.90224 0.0
C775 C 0.85782 0.40452 0.90276 0.0
H776 H 0.75619 0.34277 0.88644 0.0
H777 H 0.78698 0.38246 0.91494 0.0
S778 S 0.94269 0.42351 0.86234 0.0
N779 N 0.89427 0.39314 0.85365 0.0
N780 N 0.93027 0.43167 0.88483 0.0
C781 C 0.88459 0.40977 0.88599 0.0
C782 C 0.86515 0.38944 0.86922 0.0
C783 C 0.41395 0.12173 0.61856 0.0
C784 C 0.43861 0.07556 0.61887 0.0
C785 C 0.39105 0.13955 0.63471 0.0
C786 C 0.3902 0.11023 0.65099 0.0
H787 H 0.41925 0.14729 0.60692 0.0
H788 H 0.3772 0.17754 0.63481 0.0
S789 S 0.43108 0.97845 0.65556 0.0
N790 N 0.44833 0.9953 0.63421 0.0
N791 N 0.40248 0.02745 0.66461 0.0
C792 C 0.40542 0.06002 0.65 0.0
C793 C 0.42969 0.04245 0.63362 0.0
C794 C 0.66804 0.67003 0.36986 0.0
C795 C 0.71673 0.68916 0.36939 0.0
C796 C 0.65149 0.64415 0.3855 0.0
C797 C 0.68405 0.63529 0.40053 0.0
H798 H 0.64051 0.68179 0.35966 0.0
H799 H 0.61217 0.63499 0.38645 0.0
S800 S 0.82077 0.65804 0.40143 0.0
N801 N 0.80108 0.68438 0.38178 0.0
N802 N 0.77084 0.63279 0.41116 0.0
C803 C 0.73542 0.64468 0.39821 0.0
C804 C 0.75191 0.672 0.38235 0.0
C805 C 0.14216 0.97598 0.15121 0.0
C806 C 0.15883 0.92622 0.15156 0.0
C807 C 0.11489 0.99371 0.13594 0.0
C808 C 0.10425 0.96179 0.12092 0.0
H809 H 0.14609 0.99985 0.16341 0.0
H810 H 0.09678 0.02975 0.13708 0.0
S811 S 0.15517 0.83552 0.11239 0.0
N812 N 0.17358 0.85001 0.13383 0.0
N813 N 0.12412 0.88465 0.10466 0.0
C814 C 0.12856 0.91566 0.11967 0.0
C815 C 0.15501 0.89707 0.13533 0.0
C816 C 0.65446 0.90445 0.88336 0.0
C817 C 0.68545 0.9059 0.89922 0.0
C818 C 0.67136 0.88285 0.86684 0.0
C819 C 0.71805 0.85927 0.8665 0.0
H820 H 0.61598 0.9168 0.88404 0.0
H821 H 0.64469 0.87693 0.85559 0.0
S822 S 0.81915 0.87004 0.90157 0.0
N823 N 0.77019 0.89667 0.91148 0.0
N824 N 0.80044 0.85241 0.88047 0.0
C825 C 0.75259 0.8693 0.88069 0.0
C826 C 0.73606 0.89262 0.89741 0.0
C827 C 0.37978 0.45053 0.13753 0.0
C828 C 0.38932 0.47093 0.15533 0.0
C829 C 0.40586 0.46752 0.12193 0.0
C830 C 0.44261 0.5042 0.12404 0.0
H831 H 0.35558 0.41841 0.13593 0.0
H832 H 0.40275 0.44679 0.1089 0.0
S833 S 0.46906 0.57978 0.16634 0.0
N834 N 0.42762 0.53805 0.17329 0.0
N835 N 0.47787 0.56935 0.1437 0.0
C836 C 0.44543 0.5311 0.14087 0.0
C837 C 0.41866 0.51403 0.15681 0.0
C838 C 0.90156 0.1465 0.3865 0.0
C839 C 0.86989 0.14036 0.40194 0.0
C840 C 0.88396 0.16891 0.37026 0.0
C841 C 0.83518 0.18781 0.3696 0.0
H842 H 0.94089 0.13724 0.38735 0.0
H843 H 0.91081 0.17839 0.3595 0.0
S844 S 0.73342 0.16439 0.40346 0.0
N845 N 0.78393 0.14094 0.41345 0.0
N846 N 0.75176 0.18623 0.38289 0.0
C847 C 0.80092 0.1737 0.38337 0.0
C848 C 0.81844 0.14976 0.39985 0.0
C849 C 0.11489 0.54629 0.63846 0.0
C850 C 0.11196 0.57445 0.62195 0.0
C851 C 0.1384 0.56622 0.65423 0.0
C852 C 0.15933 0.6143 0.65357 0.0
H853 H 0.09303 0.51254 0.64008 0.0
H854 H 0.13613 0.54586 0.66736 0.0
S855 S 0.17762 0.69234 0.61126 0.0
N856 N 0.14424 0.64428 0.60396 0.0
N857 N 0.18744 0.68295 0.6339 0.0
C858 C 0.16376 0.63858 0.63626 0.0
C859 C 0.14088 0.61768 0.62018 0.0
C860 C 0.67045 0.1385 0.65611 0.0
C861 C 0.69561 0.14376 0.63899 0.0
C862 C 0.69158 0.15687 0.67256 0.0
C863 C 0.73671 0.18339 0.67186 0.0
H864 H 0.63315 0.12294 0.65665 0.0
H865 H 0.66877 0.15761 0.68514 0.0
S866 S 0.82402 0.1919 0.63184 0.0
N867 N 0.77386 0.16425 0.62325 0.0
N868 N 0.81228 0.20133 0.65433 0.0
C869 C 0.76613 0.18058 0.6557 0.0
C870 C 0.74519 0.16102 0.63896 0.0
C871 C 0.15741 0.40432 0.90593 0.0
C872 C 0.16257 0.43366 0.88979 0.0
C873 C 0.13019 0.42193 0.9211 0.0
C874 C 0.10692 0.46875 0.92026 0.0
H875 H 0.17109 0.36627 0.90633 0.0
H876 H 0.12204 0.39627 0.93242 0.0
S877 S 0.12279 0.56533 0.88368 0.0
N878 N 0.1533 0.51619 0.87568 0.0
N879 N 0.10059 0.54874 0.90441 0.0
C880 C 0.11876 0.5015 0.90566 0.0
C881 C 0.14686 0.48377 0.89017 0.0
C882 C 0.87856 0.90828 0.15727 0.0
C883 C 0.85023 0.90414 0.14079 0.0
C884 C 0.85818 0.89513 0.17451 0.0
C885 C 0.81082 0.8728 0.17528 0.0
H886 H 0.91728 0.9199 0.15681 0.0
H887 H 0.8827 0.89454 0.18664 0.0
S888 S 0.71655 0.8692 0.1373 0.0
N889 N 0.7678 0.89028 0.12715 0.0
N890 N 0.73107 0.86079 0.15964 0.0
C891 C 0.77936 0.87633 0.15963 0.0
C892 C 0.79933 0.89183 0.14213 0.0
C893 C 0.42133 0.55483 0.4118 0.0
C894 C 0.4339 0.58673 0.42659 0.0
C895 C 0.39906 0.57434 0.39573 0.0
C896 C 0.38871 0.62575 0.39441 0.0
H897 H 0.43529 0.51689 0.4114 0.0
H898 H 0.39417 0.54981 0.38377 0.0
S899 S 0.39653 0.71862 0.43275 0.0
N900 N 0.42044 0.66693 0.44162 0.0
N901 N 0.37965 0.70448 0.41109 0.0
C902 C 0.39281 0.65551 0.41046 0.0
C903 C 0.41437 0.63526 0.4269 0.0
C904 C 0.33562 0.19071 0.15665 0.0
C905 C 0.36773 0.22946 0.16177 0.0
C906 C 0.35381 0.15063 0.14638 0.0
C907 C 0.40437 0.14877 0.14124 0.0
H908 H 0.29599 0.19276 0.15959 0.0
H909 H 0.32756 0.12295 0.14131 0.0
S910 S 0.50525 0.23556 0.15554 0.0
N911 N 0.45339 0.25997 0.16398 0.0
N912 N 0.48788 0.18354 0.14505 0.0
C913 C 0.43785 0.18417 0.14836 0.0
C914 C 0.41925 0.22531 0.15848 0.0
C915 C 0.65329 0.60255 0.9233 0.0
C916 C 0.63108 0.5551 0.92357 0.0
C917 C 0.66274 0.6261 0.90624 0.0
C918 C 0.65538 0.60066 0.88928 0.0
H919 H 0.65472 0.62486 0.93597 0.0
H920 H 0.67373 0.66497 0.90637 0.0
S921 S 0.621 0.46731 0.8837 0.0
N922 N 0.61706 0.47797 0.9065 0.0
N923 N 0.63949 0.5204 0.87421 0.0
C924 C 0.64382 0.54943 0.88979 0.0
C925 C 0.63218 0.52634 0.90719 0.0
C926 C 0.25644 0.87174 0.6577 0.0
C927 C 0.22677 0.86708 0.67378 0.0
C928 C 0.2369 0.89444 0.64168 0.0
C929 C 0.18769 0.9128 0.64166 0.0
H930 H 0.29144 0.85168 0.65654 0.0
H931 H 0.25868 0.89338 0.62886 0.0
S932 S 0.10423 0.92579 0.68277 0.0
N933 N 0.15349 0.89533 0.69075 0.0
N934 N 0.11552 0.93667 0.66033 0.0
C935 C 0.16151 0.91577 0.65862 0.0
C936 C 0.18199 0.89384 0.67497 0.0
C937 C 0.90877 0.43841 0.4213 0.0
C938 C 0.93621 0.48287 0.42048 0.0
C939 C 0.88749 0.41875 0.40512 0.0
C940 C 0.89144 0.44442 0.38807 0.0
H941 H 0.90996 0.41532 0.43374 0.0
H942 H 0.87077 0.38198 0.40576 0.0
S943 S 0.94307 0.57124 0.38069 0.0
N944 N 0.95496 0.55828 0.40294 0.0
N945 N 0.91265 0.52243 0.37235 0.0
C946 C 0.91043 0.4933 0.38796 0.0
C947 C 0.93287 0.51283 0.40445 0.0
C948 C 0.38199 0.914 0.38602 0.0
C949 C 0.35631 0.9095 0.40307 0.0
C950 C 0.3606 0.89647 0.36948 0.0
C951 C 0.31483 0.87101 0.37004 0.0
H952 H 0.41975 0.92843 0.38559 0.0
H953 H 0.38368 0.89507 0.35698 0.0
S954 S 0.22603 0.86576 0.40967 0.0
N955 N 0.27684 0.89168 0.41846 0.0
N956 N 0.23816 0.85582 0.38723 0.0
C957 C 0.28504 0.87496 0.38607 0.0
C958 C 0.30615 0.89383 0.40289 0.0
C959 C 0.9198 0.67658 0.14151 0.0
C960 C 0.89688 0.64095 0.15297 0.0
C961 C 0.95154 0.66151 0.12739 0.0
C962 C 0.96029 0.61066 0.1243 0.0
H963 H 0.91702 0.71615 0.14445 0.0
H964 H 0.97268 0.68991 0.12004 0.0
S965 S 0.89559 0.50377 0.14621 0.0
N966 N 0.87439 0.55345 0.15738 0.0
N967 N 0.93519 0.525 0.13033 0.0
C968 C 0.93156 0.57485 0.13354 0.0
C969 C 0.8993 0.59017 0.14814 0.0
C970 C 0.2563 0.18945 0.89208 0.0
C971 C 0.23178 0.18575 0.87475 0.0
C972 C 0.23343 0.17146 0.90827 0.0
C973 C 0.18628 0.14862 0.90729 0.0
H974 H 0.2896 0.21208 0.89355 0.0
H975 H 0.25133 0.17815 0.9217 0.0
S976 S 0.11653 0.1152 0.86417 0.0
N977 N 0.16518 0.14738 0.85668 0.0
N978 N 0.12215 0.11239 0.88727 0.0
C979 C 0.16536 0.13815 0.8897 0.0
C980 C 0.18881 0.15629 0.87326 0.0
C981 C 0.62994 0.50177 0.63458 0.0
C982 C 0.62063 0.47137 0.619 0.0
C983 C 0.64989 0.48089 0.65085 0.0
C984 C 0.66111 0.42962 0.65162 0.0
H985 H 0.61522 0.5394 0.63522 0.0
H986 H 0.65251 0.50412 0.66327 0.0
S987 S 0.66036 0.34055 0.61186 0.0
N988 N 0.63778 0.39302 0.60315 0.0
N989 N 0.67339 0.35264 0.63406 0.0
C990 C 0.65982 0.40146 0.63507 0.0
C991 C 0.641 0.42323 0.61844 0.0
C992 C 0.07207 0.29691 0.33568 0.0
C993 C 0.0707 0.24467 0.3328 0.0
C994 C 0.02798 0.32691 0.33591 0.0
C995 C 0.97967 0.30685 0.33287 0.0
H996 H 0.10758 0.31489 0.3381 0.0
H997 H 0.03185 0.36647 0.33854 0.0
S998 S 0.95502 0.17329 0.32205 0.0
N999 N 1.01598 0.17514 0.32548 0.0
N1000 N 0.9347 0.23091 0.32516 0.0
C1001 C 0.97801 0.25497 0.32919 0.0
C1002 C 1.02276 0.22429 0.32935 0.0
C1003 C 0.0432 0.73496 0.59298 0.0
C1004 C 0.99426 0.7348 0.58549 0.0
C1005 C 0.07397 0.7783 0.59289 0.0
C1006 C 0.05817 0.8242 0.58505 0.0
H1007 H 0.05771 0.70154 0.59943 0.0
H1008 H 0.11058 0.77593 0.59925 0.0
S1009 S 0.9359 0.84308 0.56123 0.0
N1010 N 0.93319 0.78472 0.56867 0.0
N1011 N 0.99069 0.86484 0.56811 0.0
C1012 C 1.00987 0.82422 0.57696 0.0
C1013 C 0.97824 0.78018 0.57727 0.0
C1014 C 0.51809 0.82589 0.83568 0.0
C1015 C 0.46862 0.80718 0.83504 0.0
C1016 C 0.56082 0.79417 0.83547 0.0
C1017 C 0.55701 0.74151 0.83508 0.0
H1018 H 0.52407 0.8658 0.83634 0.0
H1019 H 0.59737 0.81131 0.83589 0.0
S1020 S 0.43669 0.67226 0.83299 0.0
N1021 N 0.41923 0.73139 0.83335 0.0
N1022 N 0.49835 0.67247 0.83383 0.0
C1023 C 0.50777 0.72221 0.83445 0.0
C1024 C 0.46422 0.75461 0.8342 0.0
C1025 C 0.55332 0.22172 0.08555 0.0
C1026 C 0.50086 0.22092 0.08801 0.0
C1027 C 0.58165 0.26696 0.0863 0.0
C1028 C 0.55935 0.31442 0.08924 0.0
H1029 H 0.57292 0.18698 0.08319 0.0
H1030 H 0.62167 0.26469 0.0844 0.0
S1031 S 0.42349 0.33433 0.09663 0.0
N1032 N 0.42836 0.27337 0.09384 0.0
N1033 N 0.48067 0.35663 0.09461 0.0
C1034 C 0.50699 0.31414 0.09149 0.0
C1035 C 0.47827 0.2682 0.09106 0.0
C1036 C 0.98041 0.79975 0.20523 0.0
C1037 C 0.97981 0.7477 0.2086 0.0
C1038 C 0.02575 0.82781 0.20453 0.0
C1039 C 0.07344 0.8059 0.20746 0.0
H1040 H 0.94556 0.81903 0.20267 0.0
H1041 H 1.02325 0.86735 0.20155 0.0
S1042 S 0.09339 0.6718 0.2184 0.0
N1043 N 0.0323 0.67617 0.2157 0.0
N1044 N 0.11583 0.72839 0.21486 0.0
C1045 C 0.07321 0.75418 0.21131 0.0
C1046 C 0.02719 0.72547 0.21175 0.0
C1047 C 0.54336 0.81701 0.44897 0.0
C1048 C 0.4954 0.81797 0.45732 0.0
C1049 C 0.57399 0.77345 0.44891 0.0
C1050 C 0.55902 0.72802 0.4574 0.0
H1051 H 0.55722 0.84999 0.44199 0.0
H1052 H 0.60983 0.7754 0.44192 0.0
S1053 S 0.44022 0.71178 0.48375 0.0
N1054 N 0.43668 0.76961 0.47579 0.0
N1055 N 0.49381 0.68914 0.47602 0.0
C1056 C 0.51187 0.72896 0.46639 0.0
C1057 C 0.48043 0.77323 0.46626 0.0
C1058 C 0.57278 0.24989 0.70048 0.0
C1059 C 0.57305 0.29916 0.70764 0.0
C1060 C 0.52884 0.21984 0.70025 0.0
C1061 C 0.4825 0.23686 0.70742 0.0
H1062 H 0.60655 0.23456 0.69452 0.0
H1063 H 0.5312 0.18288 0.69417 0.0
S1064 S 0.46413 0.35999 0.73053 0.0
N1065 N 0.52299 0.3615 0.72363 0.0
N1066 N 0.44191 0.30545 0.72366 0.0
C1067 C 0.48279 0.28535 0.71529 0.0
C1068 C 0.52735 0.31615 0.71528 0.0
C1069 C 1.00232 0.23113 0.95888 0.0
C1070 C 0.0546 0.23424 0.96146 0.0
C1071 C 0.97119 0.27423 0.95813 0.0
C1072 C 0.99006 0.32326 0.96028 0.0
H1073 H 0.98515 0.19495 0.95718 0.0
H1074 H 0.9316 0.269 0.95587 0.0
S1075 S 0.12325 0.35274 0.97006 0.0
N1076 N 0.12299 0.29146 0.96759 0.0
N1077 N 0.06497 0.37115 0.96689 0.0
C1078 C 0.042 0.32683 0.96366 0.0
C1079 C 0.07389 0.28297 0.96407 0.0
C1080 C 0.06952 0.79338 0.70596 0.0
C1081 C 0.06857 0.74105 0.70847 0.0
C1082 C 0.02517 0.82286 0.70561 0.0
C1083 C 0.97693 0.80221 0.70818 0.0
H1084 H 0.10494 0.81185 0.70393 0.0
H1085 H 0.02881 0.86258 0.70331 0.0
S1086 S 0.95316 0.66783 0.71759 0.0
N1087 N 1.01429 0.6705 0.71473 0.0
N1088 N 0.93234 0.72541 0.71484 0.0
C1089 C 0.97559 0.75014 0.71143 0.0
C1090 C 1.02071 0.71994 0.71138 0.0
C1091 C 0.04611 0.23054 0.45841 0.0
C1092 C 0.99341 0.23234 0.4592 0.0
C1093 C 0.07611 0.27449 0.45838 0.0
C1094 C 0.05545 0.32306 0.45954 0.0
H1095 H 0.06449 0.19473 0.45759 0.0
H1096 H 0.1162 0.27031 0.45753 0.0
S1097 S 0.91992 0.34895 0.46531 0.0
N1098 N 0.92242 0.28769 0.46308 0.0
N1099 N 0.9781 0.36895 0.46376 0.0
C1100 C 1.00291 0.32524 0.46139 0.0
C1101 C 0.97231 0.28054 0.46103 0.0
C1102 C 0.56348 0.29839 0.20876 0.0
C1103 C 0.55888 0.24582 0.20793 0.0
C1104 C 0.52117 0.33075 0.20915 0.0
C1105 C 0.47145 0.31268 0.20916 0.0
H1106 H 0.60031 0.31494 0.20887 0.0
H1107 H 0.52762 0.3706 0.2095 0.0
S1108 S 0.43743 0.17829 0.20749 0.0
N1109 N 0.49911 0.17767 0.20712 0.0
N1110 N 0.42091 0.2376 0.20859 0.0
C1111 C 0.46627 0.26018 0.20872 0.0
C1112 C 0.50933 0.22724 0.2079 0.0
C1113 C 0.51186 0.81095 0.95123 0.0
C1114 C 0.56384 0.8115 0.95476 0.0
C1115 C 0.48341 0.76596 0.95128 0.0
C1116 C 0.50472 0.7186 0.95527 0.0
H1117 H 0.49294 0.8456 0.94798 0.0
H1118 H 0.44396 0.7685 0.94807 0.0
S1119 S 0.63863 0.699 0.967 0.0
N1120 N 0.63491 0.7596 0.96301 0.0
N1121 N 0.58174 0.67667 0.9639 0.0
C1122 C 0.55642 0.71885 0.95934 0.0
C1123 C 0.58565 0.76453 0.95887 0.0
C1124 C 0.07733 0.2526 0.84017 0.0
C1125 C 0.07687 0.30337 0.83473 0.0
C1126 C 0.03325 0.22282 0.84051 0.0
C1127 C 0.9859 0.24148 0.83504 0.0
H1128 H 0.11195 0.23562 0.84459 0.0
H1129 H 0.0364 0.18454 0.84521 0.0
S1130 S 0.96475 0.36946 0.81647 0.0
N1131 N 1.02464 0.36932 0.82205 0.0
N1132 N 0.94322 0.31365 0.82208 0.0
C1133 C 0.98525 0.29162 0.8288 0.0
C1134 C 0.03003 0.32223 0.82879 0.0
C1135 C 0.47838 0.28143 0.59207 0.0
C1136 C 0.49541 0.32769 0.58486 0.0
C1137 C 0.5083 0.2374 0.59186 0.0
C1138 C 0.55759 0.23678 0.58471 0.0
H1139 H 0.44138 0.27912 0.59813 0.0
H1140 H 0.49277 0.2037 0.59777 0.0
S1141 S 0.61852 0.34533 0.56163 0.0
N1142 N 0.5641 0.36786 0.56855 0.0
N1143 N 0.61997 0.28652 0.56861 0.0
C1144 C 0.57471 0.28241 0.57704 0.0
C1145 C 0.54396 0.32717 0.57701 0.0
C1146 C 0.52208 0.83194 0.34249 0.0
C1147 C 0.56993 0.81318 0.33773 0.0
C1148 C 0.47836 0.80153 0.34235 0.0
C1149 C 0.47981 0.75009 0.33787 0.0
H1150 H 0.51821 0.87074 0.34647 0.0
H1151 H 0.44325 0.81852 0.34621 0.0
S1152 S 0.59406 0.68259 0.3225 0.0
N1153 N 0.61432 0.73966 0.32683 0.0
N1154 N 0.53377 0.68292 0.32736 0.0
C1155 C 0.52724 0.73104 0.3328 0.0
C1156 C 0.57155 0.76223 0.33253 0.0
C1157 C 0.03695 0.8224 0.08052 0.0
C1158 C 0.98454 0.81742 0.08213 0.0
C1159 C 0.06963 0.78042 0.0796 0.0
C1160 C 0.05208 0.73058 0.07978 0.0
H1161 H 0.05307 0.85937 0.08013 0.0
H1162 H 0.10936 0.78721 0.07863 0.0
S1163 S 0.9177 0.6957 0.08115 0.0
N1164 N 0.91674 0.75724 0.08245 0.0
N1165 N 0.97716 0.67961 0.07986 0.0
C1166 C 0.99954 0.72503 0.0804 0.0
C1167 C 0.96629 0.76779 0.08179 0.0
C1168 C 0.28077 0.30329 0.28629 0.0
C1169 C 0.26651 0.2528 0.28683 0.0
C1170 C 0.2868 0.32883 0.26912 0.0
C1171 C 0.27926 0.3051 0.25158 0.0
H1172 H 0.28626 0.32371 0.29927 0.0
H1173 H 0.29791 0.36766 0.26967 0.0
S1174 S 0.24362 0.1723 0.24511 0.0
N1175 N 0.24612 0.17952 0.26813 0.0
N1176 N 0.25802 0.22717 0.23605 0.0
C1177 C 0.26562 0.25437 0.25192 0.0
C1178 C 0.25916 0.22841 0.26943 0.0
C1179 C 0.04995 1.01716 0.50552 0.0
C1180 C 1.00072 0.03533 0.50478 0.0
C1181 C 0.07455 1.00988 0.52279 0.0
C1182 C 0.05109 1.02058 0.54009 0.0
H1183 H 0.07009 1.00929 0.49266 0.0
H1184 H 0.1124 0.99563 0.52253 0.0
S1185 S 0.92111 0.06625 0.546 0.0
N1186 N 0.92856 0.062 0.52303 0.0
N1187 N 0.97476 0.04853 0.55528 0.0
C1188 C 1.00165 0.03831 0.53955 0.0
C1189 C 0.97651 0.04552 0.52199 0.0
C1190 C 0.28501 0.82675 0.7741 0.0
C1191 C 0.27557 0.80305 0.79152 0.0
C1192 C 0.27869 0.80183 0.7568 0.0
C1193 C 0.26241 0.75198 0.75603 0.0
H1194 H 0.29779 0.86507 0.77375 0.0
H1195 H 0.28575 0.8222 0.74393 0.0
S1196 S 0.2343 0.67171 0.79738 0.0
N1197 N 0.25033 0.72583 0.80667 0.0
N1198 N 0.23819 0.67925 0.7744 0.0
C1199 C 0.25312 0.72764 0.77331 0.0
C1200 C 0.25968 0.75301 0.79094 0.0
C1201 C 0.48583 0.03937 1.02148 0.0
C1202 C 0.508 1.02401 0.03854 0.0
C1203 C 0.5094 0.03125 1.00403 0.0
C1204 C 0.55625 1.00762 1.00293 0.0
H1205 H 0.44976 0.05768 1.02157 0.0
H1206 H 0.49032 0.04271 0.99131 0.0
S1207 S 0.63272 0.96461 0.04348 0.0
N1208 N 0.58125 0.98672 0.05313 0.0
N1209 N 0.62539 0.97186 1.02062 0.0
C1210 C 0.57935 0.9932 1.01992 0.0
C1211 C 0.5553 1.0012 0.03762 0.0
C1212 C 0.26211 0.79437 0.28833 0.0
C1213 C 0.28503 0.74726 0.28951 0.0
C1214 C 0.25434 0.81792 0.27088 0.0
C1215 C 0.26912 0.79548 0.2538 0.0
H1216 H 0.25092 0.81377 0.301 0.0
H1217 H 0.23654 0.85422 0.27084 0.0
S1218 S 0.32798 0.67066 0.24902 0.0
N1219 N 0.32059 0.67794 0.27188 0.0
N1220 N 0.30603 0.72213 0.23929 0.0
C1221 C 0.29149 0.74804 0.25477 0.0
C1222 C 0.29933 0.72398 0.27253 0.0
C1223 C 0.57007 0.05015 0.52141 0.0
C1224 C 0.54894 0.03694 0.53893 0.0
C1225 C 0.54548 0.04025 0.50428 0.0
C1226 C 0.49857 1.01675 0.50388 0.0
H1227 H 0.60616 0.06831 0.52088 0.0
H1228 H 0.56385 0.05024 0.49126 0.0
S1229 S 0.42497 0.97792 0.54576 0.0
N1230 N 0.47691 1.0012 0.55466 0.0
N1231 N 0.43075 0.98273 0.52274 0.0
C1232 C 0.4766 1.00413 0.52132 0.0
C1233 C 0.50172 1.01408 0.53873 0.0
C1234 C 0.27117 0.29351 0.75489 0.0
C1235 C 0.28843 0.24404 0.75392 0.0
C1236 C 0.26398 0.31745 0.77229 0.0
C1237 C 0.27379 0.2931 0.78952 0.0
H1238 H 0.26396 0.31432 0.74212 0.0
H1239 H 0.25046 0.35555 0.77218 0.0
S1240 S 0.31677 0.16216 0.79482 0.0
N1241 N 0.31329 0.17069 0.77188 0.0
N1242 N 0.29989 0.21571 0.80437 0.0
C1243 C 0.29064 0.24345 0.78876 0.0
C1244 C 0.29781 0.21895 0.77105 0.0
C1245 C 0.99632 1.01856 1.00727 0.0
C1246 C 0.04533 0.03729 1.00727 0.0
C1247 C 0.97069 1.00952 0.02419 0.0
C1248 C 0.99292 1.01878 0.04187 0.0
H1249 H 0.97718 1.01167 0.99411 0.0
H1250 H 0.93304 0.99493 0.02336 0.0
S1251 S 0.12206 0.06476 0.04963 0.0
N1252 N 0.11602 0.0628 0.02656 0.0
N1253 N 0.068 0.04582 0.05817 0.0
C1254 C 0.04215 0.03703 0.04206 0.0
C1255 C 0.06828 0.04616 0.02484 0.0
C1256 C 0.74228 0.73014 0.77161 0.0
C1257 C 0.75829 0.74881 0.78916 0.0
C1258 C 0.75218 0.75557 0.75471 0.0
C1259 C 0.77849 0.80099 0.75454 0.0
H1260 H 0.72172 0.6954 0.77085 0.0
H1261 H 0.73963 0.73901 0.74165 0.0
S1262 S 0.82681 0.86751 0.7967 0.0
N1263 N 0.80068 0.81658 0.80528 0.0
N1264 N 0.81925 0.86437 0.7737 0.0
C1265 C 0.79439 0.82039 0.77202 0.0
C1266 C 0.7844 0.79435 0.78924 0.0
C1267 C 0.79069 0.31645 0.27198 0.0
C1268 C 0.77754 0.29591 0.28959 0.0
C1269 C 0.78055 0.29147 0.255 0.0
C1270 C 0.75665 0.24479 0.2548 0.0
H1271 H 0.80917 0.35233 0.27123 0.0
H1272 H 0.79074 0.3094 0.24191 0.0
S1273 S 0.71666 0.17304 0.29695 0.0
N1274 N 0.74078 0.22483 0.30564 0.0
N1275 N 0.72156 0.17805 0.2739 0.0
C1276 C 0.74369 0.22349 0.2723 0.0
C1277 C 0.75407 0.24896 0.28961 0.0
C1278 C 0.75756 0.31617 0.77052 0.0
C1279 C 0.77235 0.29573 0.7531 0.0
C1280 C 0.7665 0.29118 0.7876 0.0
C1281 C 0.79053 0.24451 0.78805 0.0
H1282 H 0.7387 0.3519 0.77102 0.0
H1283 H 0.75507 0.30901 0.80056 0.0
S1284 S 0.83451 0.17316 0.74636 0.0
N1285 N 0.81093 0.22494 0.73745 0.0
N1286 N 0.82754 0.17799 0.76933 0.0
C1287 C 0.80508 0.22335 0.77071 0.0
C1288 C 0.79615 0.24892 0.75333 0.0
C1289 C 0.78928 0.76132 0.2905 0.0
C1290 C 0.76648 0.80864 0.29102 0.0
C1291 C 0.7973 0.73624 0.27337 0.0
C1292 C 0.7824 0.75715 0.25605 0.0
H1293 H 0.80037 0.74308 0.30344 0.0
H1294 H 0.81514 0.69997 0.27373 0.0
S1295 S 0.72407 0.88166 0.24945 0.0
N1296 N 0.73137 0.87649 0.27239 0.0
N1297 N 0.74578 0.82917 0.2405 0.0
C1298 C 0.76009 0.80466 0.25635 0.0
C1299 C 0.7524 0.83042 0.27372 0.0
C1300 C 0.57184 0.49165 0.02434 0.0
C1301 C 0.55053 0.5089 0.04128 0.0
C1302 C 0.54868 0.49968 1.00686 0.0
C1303 C 0.503 0.52534 1.00543 0.0
H1304 H 0.607 0.47165 0.02452 0.0
H1305 H 0.56729 0.48623 0.99433 0.0
S1306 S 0.42989 0.57613 0.04554 0.0
N1307 N 0.47994 0.55154 0.05547 0.0
N1308 N 0.43635 0.56671 0.02274 0.0
C1309 C 0.48089 0.54242 0.02227 0.0
C1310 C 0.50463 0.53428 0.04012 0.0
C1311 C 0.04566 0.51622 0.53876 0.0
C1312 C 0.99748 0.53697 0.5394 0.0
C1313 C 0.06984 0.50728 0.5215 0.0
C1314 C 0.047 0.51878 0.50409 0.0
H1315 H 0.06533 0.50771 0.55168 0.0
H1316 H 0.10696 0.49124 0.52184 0.0
S1317 S 0.91956 0.57075 0.49791 0.0
N1318 N 0.92678 0.56667 0.5209 0.0
N1319 N 0.97226 0.55014 0.48874 0.0
C1320 C 0.99857 0.53895 0.50454 0.0
C1321 C 0.97384 0.54785 0.52208 0.0
C1322 C 1.00127 0.52267 0.03632 0.0
C1323 C 0.0521 0.53593 0.03639 0.0
C1324 C 0.97516 0.51498 1.01938 0.0
C1325 C 0.99856 0.52061 1.00174 0.0
H1326 H 0.98116 0.51884 0.04944 0.0
H1327 H 0.93617 0.50444 1.02016 0.0
S1328 S 0.13196 0.55221 0.99405 0.0
N1329 N 0.12541 0.55243 1.01711 0.0
N1330 N 0.07634 0.53842 0.9855 0.0
C1331 C 0.04947 0.5335 1.0016 0.0
C1332 C 0.07619 0.54093 1.01883 0.0
C1333 C 0.48256 0.50908 0.52269 0.0
C1334 C 0.50496 0.52236 0.53995 0.0
C1335 C 0.50767 0.51505 0.50547 0.0
C1336 C 0.55644 0.53445 0.5047 0.0
H1337 H 0.44513 0.49379 0.52243 0.0
H1338 H 0.48825 0.50518 0.49264 0.0
S1339 S 0.63333 0.57236 0.54586 0.0
N1340 N 0.57984 0.55418 0.55512 0.0
N1341 N 0.62696 0.56528 0.52294 0.0
C1342 C 0.57959 0.5473 0.52188 0.0
C1343 C 0.55391 0.5414 0.53941 0.0
C1344 C 0.34115 0.08142 0.37653 0.0
C1345 C 0.31131 0.12238 0.38206 0.0
C1346 C 0.36895 0.05216 0.38984 0.0
C1347 C 0.3678 0.06045 0.40969 0.0
H1348 H 0.34413 0.07244 0.36174 0.0
H1349 H 0.39215 1.02249 0.38437 0.0
S1350 S 0.29589 0.16218 0.4322 0.0
N1351 N 0.28394 0.16935 0.40958 0.0
N1352 N 0.33309 0.11328 0.43381 0.0
C1353 C 0.33731 0.10027 0.41544 0.0
C1354 C 0.31019 0.1311 0.40194 0.0
C1355 C 0.24981 0.11745 0.64105 0.0
C1356 C 0.2383 0.12136 0.66056 0.0
C1357 C 0.22023 0.08949 0.62802 0.0
C1358 C 0.17603 0.06485 0.63352 0.0
H1359 H 0.28236 0.13656 0.63567 0.0
H1360 H 0.2318 0.08793 0.61345 0.0
S1361 S 0.1267 0.06521 0.68275 0.0
N1362 N 0.17868 0.09795 0.68438 0.0
N1363 N 0.12208 0.0484 0.66049 0.0
C1364 C 0.1639 0.06907 0.65305 0.0
C1365 C 0.19494 0.09631 0.66632 0.0
C1366 C 0.15785 0.94437 0.90798 0.0
C1367 C 0.17728 0.98954 0.91534 0.0
C1368 C 0.18079 0.91797 0.8928 0.0
C1369 C 0.22327 0.93619 0.88306 0.0
H1370 H 0.12367 0.92948 0.91384 0.0
H1371 H 0.16417 0.88306 0.88838 0.0
S1372 S 0.28874 0.05392 0.89577 0.0
N1373 N 0.24331 0.05041 0.91139 0.0
N1374 N 0.28283 1.00434 0.88218 0.0
C1375 C 0.24255 0.98187 0.89001 0.0
C1376 C 0.22054 1.00749 0.9061 0.0
C1377 C 0.35813 0.9563 0.16589 0.0
C1378 C 0.31866 0.92513 0.15991 0.0
C1379 C 0.38939 0.98246 0.1528 0.0
C1380 C 0.38291 0.98013 0.13288 0.0
H1381 H 0.36606 0.95947 0.18076 0.0
H1382 H 0.41946 1.00486 0.15848 0.0
S1383 S 0.28337 0.90685 0.10949 0.0
N1384 N 0.27476 0.89545 0.13206 0.0
N1385 N 0.33143 0.94523 0.10829 0.0
C1386 C 0.34265 0.95062 0.1268 0.0
C1387 C 0.31148 0.92323 0.14 0.0
C1388 C 0.7058 0.96843 0.66544 0.0
C1389 C 0.73857 0.93002 0.65975 0.0
C1390 C 0.67826 0.9979 0.65217 0.0
C1391 C 0.68231 0.99219 0.63225 0.0
H1392 H 0.70021 0.97505 0.6803 0.0
H1393 H 0.65294 0.02568 0.65774 0.0
S1394 S 0.76481 0.89917 0.60942 0.0
N1395 N 0.7736 0.88928 0.63209 0.0
N1396 N 0.72427 0.94544 0.60791 0.0
C1397 C 0.71614 0.9552 0.62638 0.0
C1398 C 0.74329 0.92428 0.63983 0.0
C1399 C 0.83893 0.95723 0.41667 0.0
C1400 C 0.87538 0.99168 0.41069 0.0
C1401 C 0.8098 0.929 0.4036 0.0
C1402 C 0.81418 0.93398 0.38369 0.0
H1403 H 0.83368 0.95091 0.43157 0.0
H1404 H 0.78335 0.90248 0.4093 0.0
S1405 S 0.90111 1.0216 0.36026 0.0
N1406 N 0.91236 0.02992 0.38287 0.0
N1407 N 0.8568 0.97892 0.35903 0.0
C1408 C 0.84896 0.96962 0.37755 0.0
C1409 C 0.87949 0.99759 0.39078 0.0
C1410 C 0.82361 0.0888 0.12867 0.0
C1411 C 0.86025 0.05448 0.13471 0.0
C1412 C 0.7954 0.11835 0.14166 0.0
C1413 C 0.8002 0.11457 0.16161 0.0
H1414 H 0.81749 0.09405 0.11376 0.0
H1415 H 0.76951 0.14509 0.13582 0.0
S1416 S 0.89018 0.03042 0.18533 0.0
N1417 N 0.89993 1.02001 0.16275 0.0
N1418 N 0.84508 0.07231 0.18639 0.0
C1419 C 0.8357 0.07964 0.16784 0.0
C1420 C 0.86579 0.05075 0.15469 0.0
C1421 C 0.72032 0.09056 0.91409 0.0
C1422 C 0.68377 0.05629 0.90803 0.0
C1423 C 0.74896 0.11953 0.9011 0.0
C1424 C 0.74432 0.11538 0.88117 0.0
H1425 H 0.72598 0.09626 0.929 0.0
H1426 H 0.77507 0.14612 0.90692 0.0
S1427 S 0.65589 0.02963 0.85748 0.0
N1428 N 0.64546 1.02005 0.88007 0.0
N1429 N 0.70051 0.072 0.85637 0.0
C1430 C 0.70916 0.08017 0.87492 0.0
C1431 C 0.67891 0.0516 0.88808 0.0
C1432 C 0.83071 0.57709 0.87731 0.0
C1433 C 0.8007 0.61767 0.88294 0.0
C1434 C 0.85967 0.54884 0.89047 0.0
C1435 C 0.85955 0.55777 0.91026 0.0
H1436 H 0.83294 0.56766 0.86254 0.0
H1437 H 0.883 0.51951 0.88489 0.0
S1438 S 0.78683 0.65871 0.93298 0.0
N1439 N 0.77381 0.66519 0.91042 0.0
N1440 N 0.82507 0.61055 0.93451 0.0
C1441 C 0.82872 0.5972 0.91615 0.0
C1442 C 0.80043 0.62718 0.90276 0.0
C1443 C 0.67537 0.56171 0.15451 0.0
C1444 C 0.68394 0.56233 0.13468 0.0
C1445 C 0.70278 0.59148 0.16762 0.0
C1446 C 0.7402 0.62505 0.16181 0.0
H1447 H 0.64639 0.53794 0.16014 0.0
H1448 H 0.6933 0.58921 0.18238 0.0
S1449 S 0.78119 0.64014 0.11194 0.0
N1450 N 0.73607 0.59828 0.11045 0.0
N1451 N 0.78586 0.65486 0.13442 0.0
C1452 C 0.74999 0.62542 0.14207 0.0
C1453 C 0.72266 0.59422 0.12878 0.0
C1454 C 0.7439 0.42431 0.40224 0.0
C1455 C 0.73852 0.42944 0.38235 0.0
C1456 C 0.71534 0.45236 0.41559 0.0
C1457 C 0.67835 0.48683 0.40998 0.0
H1458 H 0.77074 0.39781 0.40772 0.0
H1459 H 0.72148 0.44584 0.43043 0.0
S1460 S 0.64992 0.5174 0.3598 0.0
N1461 N 0.69424 0.47478 0.35814 0.0
N1462 N 0.63984 0.52534 0.3825 0.0
C1463 C 0.67316 0.49288 0.3901 0.0
C1464 C 0.70312 0.4651 0.37658 0.0
C1465 C 0.84164 0.46935 0.66548 0.0
C1466 C 0.81087 0.42964 0.65952 0.0
C1467 C 0.8694 0.49922 0.65246 0.0
C1468 C 0.86744 0.49257 0.63255 0.0
H1469 H 0.84548 0.47676 0.68037 0.0
H1470 H 0.89327 0.528 0.65821 0.0
S1471 S 0.79122 0.39564 0.60902 0.0
N1472 N 0.78034 0.38643 0.63159 0.0
N1473 N 0.83 0.44338 0.60786 0.0
C1474 C 0.83566 0.45424 0.62637 0.0
C1475 C 0.80835 0.42292 0.63958 0.0
C1476 C 0.24322 0.48146 0.15321 0.0
C1477 C 0.22317 0.43821 0.16199 0.0
C1478 C 0.22132 0.50351 0.13673 0.0
C1479 C 0.17771 0.48399 0.12802 0.0
H1480 H 0.27679 0.4981 0.15891 0.0
H1481 H 0.23837 0.53677 0.13097 0.0
S1482 S 0.10958 0.37179 0.14517 0.0
N1483 N 0.15635 0.37737 0.16014 0.0
N1484 N 0.11574 0.4182 0.13011 0.0
C1485 C 0.15741 0.44106 0.13679 0.0
C1486 C 0.17979 0.41854 0.15334 0.0
C1487 C 0.34684 0.44458 0.91569 0.0
C1488 C 0.38295 0.47962 0.90992 0.0
C1489 C 0.31696 0.41763 0.90248 0.0
C1490 C 0.32029 0.42424 0.88259 0.0
H1491 H 0.34258 0.43663 0.93052 0.0
H1492 H 0.29085 0.3906 0.90807 0.0
S1493 S 0.40482 0.51562 0.85985 0.0
N1494 N 0.41752 0.52155 0.88246 0.0
N1495 N 0.36105 0.47239 0.85829 0.0
C1496 C 0.35456 0.46081 0.87669 0.0
C1497 C 0.38569 0.48774 0.8901 0.0
C1498 C 0.33895 0.60104 0.62853 0.0
C1499 C 0.37534 0.56613 0.63429 0.0
C1500 C 0.31013 0.62925 0.64176 0.0
C1501 C 0.31432 0.62376 0.66169 0.0
H1502 H 0.33348 0.60781 0.61367 0.0
H1503 H 0.28417 0.6563 0.63613 0.0
S1504 S 0.40216 0.53586 0.68465 0.0
N1505 N 0.41295 0.52789 0.66199 0.0
N1506 N 0.35768 0.57836 0.68609 0.0
C1507 C 0.34939 0.58797 0.66761 0.0
C1508 C 0.3798 0.56016 0.65421 0.0
C1509 C 0.17824 0.55671 0.39154 0.0
C1510 C 0.18119 0.56231 0.41148 0.0
C1511 C 0.20654 0.5861 0.37858 0.0
C1512 C 0.23897 0.6243 0.38464 0.0
H1513 H 0.15311 0.52921 0.38571 0.0
H1514 H 0.20177 0.57964 0.36366 0.0
S1515 S 0.2625 0.6548 0.43519 0.0
N1516 N 0.22176 0.60868 0.43629 0.0
N1517 N 0.27262 0.66482 0.41261 0.0
C1518 C 0.24265 0.62998 0.40459 0.0
C1519 C 0.21469 0.5991 0.41774 0.0
C1520 C 0.24641 0.03705 0.27889 0.0
C1521 C 0.20118 0.04785 0.288 0.0
C1522 C 0.247 1.01469 0.26115 0.0
C1523 C 0.20238 1.00287 0.25178 0.0
H1524 H 0.28176 0.04614 0.28547 0.0
H1525 H 0.28278 1.00616 0.25482 0.0
S1526 S 0.0739 1.02467 0.26939 0.0
N1527 N 0.11051 0.04579 0.28629 0.0
N1528 N 0.1116 1.00397 0.25277 0.0
C1529 C 0.15679 1.01401 0.2606 0.0
C1530 C 0.15619 0.03631 0.27881 0.0
C1531 C 0.26561 0.90855 0.53101 0.0
C1532 C 0.26105 0.9527 0.54153 0.0
C1533 C 0.28677 0.90914 0.513 0.0
C1534 C 0.30418 0.95385 0.50504 0.0
H1535 H 0.25142 0.87359 0.53646 0.0
H1536 H 0.28982 0.87434 0.50534 0.0
S1537 S 0.3032 0.07895 0.52744 0.0
N1538 N 0.27724 0.04175 0.54311 0.0
N1539 N 0.31706 0.04304 0.50934 0.0
C1540 C 0.3006 0.99804 0.51561 0.0
C1541 C 0.27912 0.99739 0.53388 0.0
C1542 C 0.38941 0.02824 0.7606 0.0
C1543 C 0.34451 0.0428 0.75198 0.0
C1544 C 0.38981 1.01036 0.77907 0.0
C1545 C 0.3453 1.00653 0.7894 0.0
H1546 H 0.42456 0.03152 0.75318 0.0
H1547 H 0.42499 0.99851 0.78514 0.0
S1548 S 0.21813 0.04096 0.77334 0.0
N1549 N 0.25452 0.05263 0.75517 0.0
N1550 N 0.25548 1.01958 0.78994 0.0
C1551 C 0.30028 1.0213 0.78098 0.0
C1552 C 0.2998 0.03912 0.7622 0.0
C1553 C 0.26734 0.13888 1.01736 0.0
C1554 C 0.24797 0.0951 1.00931 0.0
C1555 C 0.29083 0.13785 0.03498 0.0
C1556 C 0.29593 0.09295 0.04504 0.0
H1557 H 0.26422 0.1742 1.01005 0.0
H1558 H 0.30649 0.17216 0.04046 0.0
S1559 S 0.24895 0.96865 0.03067 0.0
N1560 N 0.23345 1.00599 1.01315 0.0
N1561 N 0.27791 1.00423 0.04615 0.0
C1562 C 0.27579 0.0492 0.03734 0.0
C1563 C 0.2518 0.0502 1.01948 0.0
C1564 C 0.81098 1.01152 0.76267 0.0
C1565 C 0.85506 1.00185 0.75264 0.0
C1566 C 0.81252 0.03184 0.78071 0.0
C1567 C 0.8582 0.04303 0.78944 0.0
H1568 H 0.77486 1.00278 0.75664 0.0
H1569 H 0.7775 0.03931 0.78779 0.0
S1570 S 0.98439 0.02493 0.76915 0.0
N1571 N 0.94583 1.00495 0.75266 0.0
N1572 N 0.94872 0.04343 0.78674 0.0
C1573 C 0.90269 0.03353 0.77962 0.0
C1574 C 0.90111 1.01305 0.76113 0.0
C1575 C 0.76105 0.06054 0.5292 0.0
C1576 C 0.7508 0.10568 0.53843 0.0
C1577 C 0.78304 0.06012 0.51144 0.0
C1578 C 0.79506 0.10482 0.50222 0.0
H1579 H 0.75178 0.02517 0.53569 0.0
H1580 H 0.79117 1.02442 0.50499 0.0
S1581 S 0.77535 0.23305 0.52035 0.0
N1582 N 0.75398 0.1963 0.53714 0.0
N1583 N 0.79528 0.19554 0.50354 0.0
C1584 C 0.78473 0.15033 0.51121 0.0
C1585 C 0.76276 0.15074 0.52944 0.0
C1586 C 0.7349 1.01893 0.28138 0.0
C1587 C 0.69113 1.00975 0.29165 0.0
C1588 C 0.7328 0.03814 0.26318 0.0
C1589 C 0.68685 0.0487 0.25453 0.0
H1590 H 0.77121 1.01063 0.28735 0.0
H1591 H 0.76761 0.04526 0.25591 0.0
S1592 S 0.56129 0.03149 0.27543 0.0
N1593 N 0.60035 1.0126 0.29194 0.0
N1594 N 0.59642 0.04906 0.25755 0.0
C1595 C 0.64266 0.03969 0.26458 0.0
C1596 C 0.64481 1.02032 0.28324 0.0
C1597 C 0.78211 0.90551 0.02915 0.0
C1598 C 0.78751 0.94995 0.03943 0.0
C1599 C 0.76392 0.90619 1.01068 0.0
C1600 C 0.75035 0.95131 1.00201 0.0
H1601 H 0.79317 0.87011 0.03521 0.0
H1602 H 0.75972 0.87111 1.00329 0.0
S1603 S 0.75589 0.07762 0.02328 0.0
N1604 N 0.7769 0.03998 0.03986 0.0
N1605 N 0.7426 0.04139 1.0052 0.0
C1606 C 0.75516 0.99591 1.01224 0.0
C1607 C 0.77365 0.99518 0.03098 0.0
C1608 C 0.73492 0.53748 0.77917 0.0
C1609 C 0.68919 0.54739 0.78806 0.0
C1610 C 0.73654 0.51418 0.76166 0.0
C1611 C 0.69248 0.50042 0.75231 0.0
H1612 H 0.76986 0.54796 0.78576 0.0
H1613 H 0.77269 0.5065 0.75548 0.0
S1614 S 0.56305 0.51866 0.76949 0.0
N1615 N 0.59866 0.54212 0.78627 0.0
N1616 N 0.60168 0.49832 0.75311 0.0
C1617 C 0.64636 0.51045 0.76093 0.0
C1618 C 0.64473 0.53381 0.77893 0.0
C1619 C 0.77805 0.4903 1.01371 0.0
C1620 C 0.79015 0.44548 1.00457 0.0
C1621 C 0.7579 0.49022 0.03181 0.0
C1622 C 0.74955 0.44533 0.04151 0.0
H1623 H 0.78462 0.52587 1.00691 0.0
H1624 H 0.74846 0.52569 0.03819 0.0
S1625 S 0.7749 0.31771 0.0238 0.0
N1626 N 0.79234 0.35486 1.00649 0.0
N1627 N 0.75453 0.35476 0.04067 0.0
C1628 C 0.76158 0.40015 0.03259 0.0
C1629 C 0.78171 0.4002 1.01403 0.0
C1630 C 0.88863 0.51478 0.27913 0.0
C1631 C 0.84351 0.50139 0.28781 0.0
C1632 C 0.88882 0.5377 0.26145 0.0
C1633 C 0.84386 0.54819 0.25206 0.0
H1634 H 0.92403 0.50697 0.2859 0.0
H1635 H 0.92428 0.54847 0.25537 0.0
S1636 S 0.71586 0.51971 0.26872 0.0
N1637 N 0.75286 0.49949 0.28565 0.0
N1638 N 0.75325 0.54281 0.25248 0.0
C1639 C 0.79858 0.53456 0.26053 0.0
C1640 C 0.79838 0.51118 0.27844 0.0
C1641 C 0.77188 0.56036 0.51104 0.0
C1642 C 0.76036 0.60489 0.50158 0.0
C1643 C 0.7917 0.56105 0.52918 0.0
C1644 C 0.80047 0.60628 0.53857 0.0
H1645 H 0.76483 0.52454 0.50451 0.0
H1646 H 0.80053 0.52576 0.53583 0.0
S1647 S 0.77733 0.73334 0.51987 0.0
N1648 N 0.7595 0.69559 0.50279 0.0
N1649 N 0.79701 0.69686 0.53706 0.0
C1650 C 0.78937 0.6512 0.52929 0.0
C1651 C 0.76944 0.65051 0.51069 0.0
C1652 C 0.30979 0.53812 0.28452 0.0
C1653 C 0.35491 0.54875 0.29373 0.0
C1654 C 0.30941 0.51811 0.26645 0.0
C1655 C 0.35414 0.50803 0.25692 0.0
H1656 H 0.27431 0.54621 0.29116 0.0
H1657 H 0.27364 0.51031 0.25996 0.0
S1658 S 0.48243 0.52865 0.27495 0.0
N1659 N 0.44563 0.54758 0.29215 0.0
N1660 N 0.44492 0.5094 0.258 0.0
C1661 C 0.39967 0.51807 0.26597 0.0
C1662 C 0.40006 0.53839 0.28449 0.0
C1663 C 0.29055 0.64155 1.00679 0.0
C1664 C 0.29729 0.59571 0.99751 0.0
C1665 C 0.26856 0.64356 0.02465 0.0
C1666 C 0.25273 0.5998 0.03374 0.0
H1667 H 0.30375 0.67589 1.0005 0.0
H1668 H 0.26392 0.67955 0.03135 0.0
S1669 S 0.25943 0.47086 1.01477 0.0
N1670 N 0.28441 0.50604 0.99824 0.0
N1671 N 0.24357 0.50953 0.03179 0.0
C1672 C 0.25843 0.55389 0.0244 0.0
C1673 C 0.28047 0.55194 1.00624 0.0
C1674 C 0.24786 0.5357 0.76299 0.0
C1675 C 0.20247 0.54669 0.754 0.0
C1676 C 0.24872 0.51287 0.78063 0.0
C1677 C 0.20422 0.50083 0.79001 0.0
H1678 H 0.28309 0.54502 0.7564 0.0
H1679 H 0.28459 0.50424 0.7869 0.0
S1680 S 0.07545 0.52289 0.77265 0.0
N1681 N 0.11181 0.54448 0.75578 0.0
N1682 N 0.11342 0.50181 0.78915 0.0
C1683 C 0.15848 0.5121 0.78129 0.0
C1684 C 0.15761 0.53484 0.76318 0.0
C1685 C 0.26355 0.41393 0.51433 0.0
C1686 C 0.25322 0.45839 0.50459 0.0
C1687 C 0.28454 0.41496 0.53237 0.0
C1688 C 0.29608 0.46048 0.54117 0.0
H1689 H 0.25455 0.37814 0.50813 0.0
H1690 H 0.29269 0.37988 0.53929 0.0
S1691 S 0.27635 0.58722 0.52154 0.0
N1692 N 0.25606 0.54907 0.50501 0.0
N1693 N 0.2956 0.55102 0.53886 0.0
C1694 C 0.28586 0.50515 0.53158 0.0
C1695 C 0.26451 0.5041 0.51326 0.0
loop_
_geom_bond_atom_site_label_1
_geom_bond_atom_site_label_2
_geom_bond_distance
_geom_bond_site_symmetry_2
_ccdc_geom_bond_type
Dy0 O4 2.398 . S
Dy0 O5 2.491 . S
Dy0 O6 2.403 . S
Dy0 O7 2.664 . S
Dy0 O11 2.326 . S
Dy0 O15 2.310 . S
Dy0 O16 2.351 . S
C1 O12 1.185 . S
C1 O13 1.355 . S
C2 O4 1.185 . S
C2 O5 1.355 . S
Dy3 O7 2.310 . S
Dy3 O10 2.351 . S
Dy3 O12 2.398 . S
Dy3 O13 2.491 . S
Dy3 O14 2.403 . S
Dy3 O15 2.664 . S
Dy3 O17 2.326 . S
O4 Dy0 2.398 . S
O4 C2 1.185 . S
O5 Dy0 2.491 . S
O5 C2 1.355 . S
O6 Dy0 2.403 . S
O6 C8 1.254 . S
O7 Dy0 2.664 . S
O7 Dy3 2.310 . S
O7 C8 1.268 . S
C8 O6 1.254 . S
C8 O7 1.268 . S
C9 O14 1.254 . S
C9 O15 1.268 . S
O10 Dy3 2.351 . S
O10 C18 1.249 . S
O11 Dy0 2.326 . S
O11 C18 1.267 . S
O12 C1 1.185 . S
O12 Dy3 2.398 . S
O13 C1 1.355 . S
O13 Dy3 2.491 . S
O14 Dy3 2.403 . S
O14 C9 1.254 . S
O15 Dy0 2.310 . S
O15 Dy3 2.664 . S
O15 C9 1.268 . S
O16 Dy0 2.351 . S
O16 C19 1.249 . S
O17 Dy3 2.326 . S
O17 C19 1.267 . S
C18 O10 1.249 . S
C18 O11 1.267 . S
C19 O16 1.249 . S
C19 O17 1.267 . S
Dy20 O24 2.398 1_455 S
Dy20 O25 2.491 1_455 S
Dy20 O26 2.403 1_565 S
Dy20 O27 2.664 . S
Dy20 O31 2.326 . S
Dy20 O35 2.310 . S
Dy20 O36 2.351 . S
C21 O32 1.185 . S
C21 O33 1.355 . S
C22 O24 1.185 . S
C22 O25 1.355 . S
Dy23 O27 2.310 . S
Dy23 O30 2.351 . S
Dy23 O32 2.398 . S
Dy23 O33 2.491 . S
Dy23 O34 2.403 . S
Dy23 O35 2.664 . S
Dy23 O37 2.326 . S
O24 Dy20 2.398 1_655 S
O24 C22 1.185 . S
O25 Dy20 2.491 1_655 S
O25 C22 1.355 . S
O26 Dy20 2.403 1_545 S
O26 C28 1.254 . S
O27 Dy20 2.664 . S
O27 Dy23 2.310 . S
O27 C28 1.268 1_565 S
C28 O26 1.254 . S
C28 O27 1.268 1_545 S
C29 O34 1.254 . S
C29 O35 1.268 . S
O30 Dy23 2.351 . S
O30 C38 1.249 . S
O31 Dy20 2.326 . S
O31 C38 1.267 . S
O32 C21 1.185 . S
O32 Dy23 2.398 . S
O33 C21 1.355 . S
O33 Dy23 2.491 . S
O34 Dy23 2.403 . S
O34 C29 1.254 . S
O35 Dy20 2.310 . S
O35 Dy23 2.664 . S
O35 C29 1.268 . S
O36 Dy20 2.351 . S
O36 C39 1.249 . S
O37 Dy23 2.326 . S
O37 C39 1.267 . S
C38 O30 1.249 . S
C38 O31 1.267 . S
C39 O36 1.249 . S
C39 O37 1.267 . S
Dy40 O44 2.398 . S
Dy40 O45 2.491 . S
Dy40 O46 2.403 . S
Dy40 O47 2.664 . S
Dy40 O51 2.326 . S
Dy40 O55 2.310 . S
Dy40 O56 2.351 . S
C41 O52 1.185 . S
C41 O53 1.355 . S
C42 O44 1.185 . S
C42 O45 1.355 . S
Dy43 O47 2.310 . S
Dy43 O50 2.351 . S
Dy43 O52 2.398 . S
Dy43 O53 2.491 . S
Dy43 O54 2.403 . S
Dy43 O55 2.664 . S
Dy43 O57 2.326 . S
O44 Dy40 2.398 . S
O44 C42 1.185 . S
O45 Dy40 2.491 . S
O45 C42 1.355 . S
O46 Dy40 2.403 . S
O46 C48 1.254 . S
O47 Dy40 2.664 . S
O47 Dy43 2.310 . S
O47 C48 1.268 . S
C48 O46 1.254 . S
C48 O47 1.268 . S
C49 O54 1.254 . S
C49 O55 1.268 . S
O50 Dy43 2.351 . S
O50 C58 1.249 . S
O51 Dy40 2.326 . S
O51 C58 1.267 . S
O52 C41 1.185 . S
O52 Dy43 2.398 . S
O53 C41 1.355 . S
O53 Dy43 2.491 . S
O54 Dy43 2.403 . S
O54 C49 1.254 . S
O55 Dy40 2.310 . S
O55 Dy43 2.664 . S
O55 C49 1.268 . S
O56 Dy40 2.351 . S
O56 C59 1.249 . S
O57 Dy43 2.326 . S
O57 C59 1.267 . S
C58 O50 1.249 . S
C58 O51 1.267 . S
C59 O56 1.249 . S
C59 O57 1.267 . S
Dy60 O64 2.398 . S
Dy60 O65 2.491 . S
Dy60 O66 2.403 1_545 S
Dy60 O67 2.664 . S
Dy60 O71 2.326 . S
Dy60 O75 2.310 . S
Dy60 O76 2.351 . S
C61 O72 1.185 . S
C61 O73 1.355 . S
C62 O64 1.185 . S
C62 O65 1.355 . S
Dy63 O67 2.310 . S
Dy63 O70 2.351 . S
Dy63 O72 2.398 . S
Dy63 O73 2.491 . S
Dy63 O74 2.403 . S
Dy63 O75 2.664 . S
Dy63 O77 2.326 . S
O64 Dy60 2.398 . S
O64 C62 1.185 . S
O65 Dy60 2.491 . S
O65 C62 1.355 . S
O66 Dy60 2.403 1_565 S
O66 C68 1.254 . S
O67 Dy60 2.664 . S
O67 Dy63 2.310 . S
O67 C68 1.268 1_545 S
C68 O66 1.254 . S
C68 O67 1.268 1_565 S
C69 O74 1.254 . S
C69 O75 1.268 . S
O70 Dy63 2.351 . S
O70 C78 1.249 . S
O71 Dy60 2.326 . S
O71 C78 1.267 . S
O72 C61 1.185 . S
O72 Dy63 2.398 . S
O73 C61 1.355 . S
O73 Dy63 2.491 . S
O74 Dy63 2.403 . S
O74 C69 1.254 . S
O75 Dy60 2.310 . S
O75 Dy63 2.664 . S
O75 C69 1.268 . S
O76 Dy60 2.351 . S
O76 C79 1.249 . S
O77 Dy63 2.326 . S
O77 C79 1.267 . S
C78 O70 1.249 . S
C78 O71 1.267 . S
C79 O76 1.249 . S
C79 O77 1.267 . S
Dy80 O84 2.398 . S
Dy80 O85 2.491 . S
Dy80 O86 2.403 . S
Dy80 O87 2.664 . S
Dy80 O91 2.326 . S
Dy80 O95 2.310 . S
Dy80 O96 2.351 . S
C81 O92 1.185 . S
C81 O93 1.355 . S
C82 O84 1.185 . S
C82 O85 1.355 . S
Dy83 O87 2.310 . S
Dy83 O90 2.351 . S
Dy83 O92 2.398 . S
Dy83 O93 2.491 . S
Dy83 O94 2.403 . S
Dy83 O95 2.664 . S
Dy83 O97 2.326 . S
O84 Dy80 2.398 . S
O84 C82 1.185 . S
O85 Dy80 2.491 . S
O85 C82 1.355 . S
O86 Dy80 2.403 . S
O86 C88 1.254 . S
O87 Dy80 2.664 . S
O87 Dy83 2.310 . S
O87 C88 1.268 . S
C88 O86 1.254 . S
C88 O87 1.268 . S
C89 O94 1.254 . S
C89 O95 1.268 . S
O90 Dy83 2.351 . S
O90 C98 1.249 . S
O91 Dy80 2.326 . S
O91 C98 1.267 . S
O92 C81 1.185 . S
O92 Dy83 2.398 . S
O93 C81 1.355 . S
O93 Dy83 2.491 . S
O94 Dy83 2.403 . S
O94 C89 1.254 . S
O95 Dy80 2.310 . S
O95 Dy83 2.664 . S
O95 C89 1.268 . S
O96 Dy80 2.351 . S
O96 C99 1.249 . S
O97 Dy83 2.326 . S
O97 C99 1.267 . S
C98 O90 1.249 . S
C98 O91 1.267 . S
C99 O96 1.249 . S
C99 O97 1.267 . S
Dy100 O104 2.398 . S
Dy100 O105 2.491 . S
Dy100 O106 2.403 1_565 S
Dy100 O107 2.664 . S
Dy100 O111 2.326 . S
Dy100 O115 2.310 . S
Dy100 O116 2.351 . S
C101 O112 1.185 . S
C101 O113 1.355 . S
C102 O104 1.185 . S
C102 O105 1.355 . S
Dy103 O107 2.310 . S
Dy103 O110 2.351 . S
Dy103 O112 2.398 . S
Dy103 O113 2.491 . S
Dy103 O114 2.403 . S
Dy103 O115 2.664 . S
Dy103 O117 2.326 . S
O104 Dy100 2.398 . S
O104 C102 1.185 . S
O105 Dy100 2.491 . S
O105 C102 1.355 . S
O106 Dy100 2.403 1_545 S
O106 C108 1.254 . S
O107 Dy100 2.664 . S
O107 Dy103 2.310 . S
O107 C108 1.268 1_565 S
C108 O106 1.254 . S
C108 O107 1.268 1_545 S
C109 O114 1.254 . S
C109 O115 1.268 . S
O110 Dy103 2.351 . S
O110 C118 1.249 . S
O111 Dy100 2.326 . S
O111 C118 1.267 . S
O112 C101 1.185 . S
O112 Dy103 2.398 . S
O113 C101 1.355 . S
O113 Dy103 2.491 . S
O114 Dy103 2.403 . S
O114 C109 1.254 . S
O115 Dy100 2.310 . S
O115 Dy103 2.664 . S
O115 C109 1.268 . S
O116 Dy100 2.351 . S
O116 C119 1.249 . S
O117 Dy103 2.326 . S
O117 C119 1.267 . S
C118 O110 1.249 . S
C118 O111 1.267 . S
C119 O116 1.249 . S
C119 O117 1.267 . S
Dy120 O124 2.398 . S
Dy120 O125 2.491 . S
Dy120 O126 2.403 . S
Dy120 O127 2.664 . S
Dy120 O131 2.326 . S
Dy120 O135 2.310 . S
Dy120 O136 2.351 . S
C121 O132 1.185 . S
C121 O133 1.355 . S
C122 O124 1.185 . S
C122 O125 1.355 . S
Dy123 O127 2.310 . S
Dy123 O130 2.351 . S
Dy123 O132 2.398 . S
Dy123 O133 2.491 . S
Dy123 O134 2.403 . S
Dy123 O135 2.664 . S
Dy123 O137 2.326 . S
O124 Dy120 2.398 . S
O124 C122 1.185 . S
O125 Dy120 2.491 . S
O125 C122 1.355 . S
O126 Dy120 2.403 . S
O126 C128 1.254 . S
O127 Dy120 2.664 . S
O127 Dy123 2.310 . S
O127 C128 1.268 . S
C128 O126 1.254 . S
C128 O127 1.268 . S
C129 O134 1.254 . S
C129 O135 1.268 . S
O130 Dy123 2.351 . S
O130 C138 1.249 . S
O131 Dy120 2.326 . S
O131 C138 1.267 . S
O132 C121 1.185 . S
O132 Dy123 2.398 . S
O133 C121 1.355 . S
O133 Dy123 2.491 . S
O134 Dy123 2.403 . S
O134 C129 1.254 . S
O135 Dy120 2.310 . S
O135 Dy123 2.664 . S
O135 C129 1.268 . S
O136 Dy120 2.351 . S
O136 C139 1.249 . S
O137 Dy123 2.326 . S
O137 C139 1.267 . S
C138 O130 1.249 . S
C138 O131 1.267 . S
C139 O136 1.249 . S
C139 O137 1.267 . S
Dy140 O144 2.398 1_455 S
Dy140 O145 2.491 1_455 S
Dy140 O146 2.403 1_545 S
Dy140 O147 2.664 . S
Dy140 O151 2.326 . S
Dy140 O155 2.310 . S
Dy140 O156 2.351 . S
C141 O152 1.185 . S
C141 O153 1.355 . S
C142 O144 1.185 . S
C142 O145 1.355 . S
Dy143 O147 2.310 . S
Dy143 O150 2.351 . S
Dy143 O152 2.398 . S
Dy143 O153 2.491 . S
Dy143 O154 2.403 . S
Dy143 O155 2.664 . S
Dy143 O157 2.326 . S
O144 Dy140 2.398 1_655 S
O144 C142 1.185 . S
O145 Dy140 2.491 1_655 S
O145 C142 1.355 . S
O146 Dy140 2.403 1_565 S
O146 C148 1.254 . S
O147 Dy140 2.664 . S
O147 Dy143 2.310 . S
O147 C148 1.268 1_545 S
C148 O146 1.254 . S
C148 O147 1.268 1_565 S
C149 O154 1.254 . S
C149 O155 1.268 . S
O150 Dy143 2.351 . S
O150 C158 1.249 . S
O151 Dy140 2.326 . S
O151 C158 1.267 . S
O152 C141 1.185 . S
O152 Dy143 2.398 . S
O153 C141 1.355 . S
O153 Dy143 2.491 . S
O154 Dy143 2.403 . S
O154 C149 1.254 . S
O155 Dy140 2.310 . S
O155 Dy143 2.664 . S
O155 C149 1.268 . S
O156 Dy140 2.351 . S
O156 C159 1.249 . S
O157 Dy143 2.326 . S
O157 C159 1.267 . S
C158 O150 1.249 . S
C158 O151 1.267 . S
C159 O156 1.249 . S
C159 O157 1.267 . S
Dy160 O164 2.398 . S
Dy160 O165 2.491 . S
Dy160 O166 2.403 . S
Dy160 O167 2.664 . S
Dy160 O171 2.326 . S
Dy160 O175 2.310 . S
Dy160 O176 2.351 . S
C161 O172 1.185 . S
C161 O173 1.355 . S
C162 O164 1.185 . S
C162 O165 1.355 . S
Dy163 O167 2.310 . S
Dy163 O170 2.351 . S
Dy163 O172 2.398 . S
Dy163 O173 2.491 . S
Dy163 O174 2.403 . S
Dy163 O175 2.664 . S
Dy163 O177 2.326 . S
O164 Dy160 2.398 . S
O164 C162 1.185 . S
O165 Dy160 2.491 . S
O165 C162 1.355 . S
O166 Dy160 2.403 . S
O166 C168 1.254 . S
O167 Dy160 2.664 . S
O167 Dy163 2.310 . S
O167 C168 1.268 . S
C168 O166 1.254 . S
C168 O167 1.268 . S
C169 O174 1.254 . S
C169 O175 1.268 . S
O170 Dy163 2.351 . S
O170 C178 1.249 . S
O171 Dy160 2.326 . S
O171 C178 1.267 . S
O172 C161 1.185 . S
O172 Dy163 2.398 . S
O173 C161 1.355 . S
O173 Dy163 2.491 . S
O174 Dy163 2.403 . S
O174 C169 1.254 . S
O175 Dy160 2.310 . S
O175 Dy163 2.664 . S
O175 C169 1.268 . S
O176 Dy160 2.351 . S
O176 C179 1.249 . S
O177 Dy163 2.326 . S
O177 C179 1.267 . S
C178 O170 1.249 . S
C178 O171 1.267 . S
C179 O176 1.249 . S
C179 O177 1.267 . S
Dy180 O184 2.398 . S
Dy180 O185 2.491 . S
Dy180 O186 2.403 . S
Dy180 O187 2.664 . S
Dy180 O191 2.326 . S
Dy180 O195 2.310 . S
Dy180 O196 2.351 . S
C181 O192 1.185 . S
C181 O193 1.355 . S
C182 O184 1.185 . S
C182 O185 1.355 . S
Dy183 O187 2.310 . S
Dy183 O190 2.351 . S
Dy183 O192 2.398 1_655 S
Dy183 O193 2.491 1_655 S
Dy183 O194 2.403 1_545 S
Dy183 O195 2.664 . S
Dy183 O197 2.326 . S
O184 Dy180 2.398 . S
O184 C182 1.185 . S
O185 Dy180 2.491 . S
O185 C182 1.355 . S
O186 Dy180 2.403 . S
O186 C188 1.254 . S
O187 Dy180 2.664 . S
O187 Dy183 2.310 . S
O187 C188 1.268 . S
C188 O186 1.254 . S
C188 O187 1.268 . S
C189 O194 1.254 . S
C189 O195 1.268 1_565 S
O190 Dy183 2.351 . S
O190 C198 1.249 . S
O191 Dy180 2.326 . S
O191 C198 1.267 . S
O192 C181 1.185 . S
O192 Dy183 2.398 1_455 S
O193 C181 1.355 . S
O193 Dy183 2.491 1_455 S
O194 Dy183 2.403 1_565 S
O194 C189 1.254 . S
O195 Dy180 2.310 . S
O195 Dy183 2.664 . S
O195 C189 1.268 1_545 S
O196 Dy180 2.351 . S
O196 C199 1.249 . S
O197 Dy183 2.326 . S
O197 C199 1.267 . S
C198 O190 1.249 . S
C198 O191 1.267 . S
C199 O196 1.249 . S
C199 O197 1.267 . S
Dy200 O204 2.398 . S
Dy200 O205 2.491 . S
Dy200 O206 2.403 . S
Dy200 O207 2.664 . S
Dy200 O211 2.326 . S
Dy200 O215 2.310 . S
Dy200 O216 2.351 . S
C201 O212 1.185 . S
C201 O213 1.355 . S
C202 O204 1.185 . S
C202 O205 1.355 . S
Dy203 O207 2.310 . S
Dy203 O210 2.351 . S
Dy203 O212 2.398 . S
Dy203 O213 2.491 . S
Dy203 O214 2.403 . S
Dy203 O215 2.664 . S
Dy203 O217 2.326 . S
O204 Dy200 2.398 . S
O204 C202 1.185 . S
O205 Dy200 2.491 . S
O205 C202 1.355 . S
O206 Dy200 2.403 . S
O206 C208 1.254 . S
O207 Dy200 2.664 . S
O207 Dy203 2.310 . S
O207 C208 1.268 . S
C208 O206 1.254 . S
C208 O207 1.268 . S
C209 O214 1.254 . S
C209 O215 1.268 . S
O210 Dy203 2.351 . S
O210 C218 1.249 . S
O211 Dy200 2.326 . S
O211 C218 1.267 . S
O212 C201 1.185 . S
O212 Dy203 2.398 . S
O213 C201 1.355 . S
O213 Dy203 2.491 . S
O214 Dy203 2.403 . S
O214 C209 1.254 . S
O215 Dy200 2.310 . S
O215 Dy203 2.664 . S
O215 C209 1.268 . S
O216 Dy200 2.351 . S
O216 C219 1.249 . S
O217 Dy203 2.326 . S
O217 C219 1.267 . S
C218 O210 1.249 . S
C218 O211 1.267 . S
C219 O216 1.249 . S
C219 O217 1.267 . S
Dy220 O224 2.398 . S
Dy220 O225 2.491 . S
Dy220 O226 2.403 . S
Dy220 O227 2.664 . S
Dy220 O231 2.326 . S
Dy220 O235 2.310 . S
Dy220 O236 2.351 . S
C221 O232 1.185 . S
C221 O233 1.355 . S
C222 O224 1.185 . S
C222 O225 1.355 . S
Dy223 O227 2.310 . S
Dy223 O230 2.351 . S
Dy223 O232 2.398 . S
Dy223 O233 2.491 . S
Dy223 O234 2.403 1_565 S
Dy223 O235 2.664 . S
Dy223 O237 2.326 . S
O224 Dy220 2.398 . S
O224 C222 1.185 . S
O225 Dy220 2.491 . S
O225 C222 1.355 . S
O226 Dy220 2.403 . S
O226 C228 1.254 . S
O227 Dy220 2.664 . S
O227 Dy223 2.310 . S
O227 C228 1.268 . S
C228 O226 1.254 . S
C228 O227 1.268 . S
C229 O234 1.254 . S
C229 O235 1.268 1_545 S
O230 Dy223 2.351 . S
O230 C238 1.249 . S
O231 Dy220 2.326 . S
O231 C238 1.267 . S
O232 C221 1.185 . S
O232 Dy223 2.398 . S
O233 C221 1.355 . S
O233 Dy223 2.491 . S
O234 Dy223 2.403 1_545 S
O234 C229 1.254 . S
O235 Dy220 2.310 . S
O235 Dy223 2.664 . S
O235 C229 1.268 1_565 S
O236 Dy220 2.351 . S
O236 C239 1.249 . S
O237 Dy223 2.326 . S
O237 C239 1.267 . S
C238 O230 1.249 . S
C238 O231 1.267 . S
C239 O236 1.249 . S
C239 O237 1.267 . S
Dy240 O244 2.398 . S
Dy240 O245 2.491 . S
Dy240 O246 2.403 . S
Dy240 O247 2.664 . S
Dy240 O251 2.326 . S
Dy240 O255 2.310 . S
Dy240 O256 2.351 . S
C241 O252 1.185 . S
C241 O253 1.355 . S
C242 O244 1.185 . S
C242 O245 1.355 . S
Dy243 O247 2.310 . S
Dy243 O250 2.351 . S
Dy243 O252 2.398 . S
Dy243 O253 2.491 . S
Dy243 O254 2.403 . S
Dy243 O255 2.664 . S
Dy243 O257 2.326 . S
O244 Dy240 2.398 . S
O244 C242 1.185 . S
O245 Dy240 2.491 . S
O245 C242 1.355 . S
O246 Dy240 2.403 . S
O246 C248 1.254 . S
O247 Dy240 2.664 . S
O247 Dy243 2.310 . S
O247 C248 1.268 . S
C248 O246 1.254 . S
C248 O247 1.268 . S
C249 O254 1.254 . S
C249 O255 1.268 . S
O250 Dy243 2.351 . S
O250 C258 1.249 . S
O251 Dy240 2.326 . S
O251 C258 1.267 . S
O252 C241 1.185 . S
O252 Dy243 2.398 . S
O253 C241 1.355 . S
O253 Dy243 2.491 . S
O254 Dy243 2.403 . S
O254 C249 1.254 . S
O255 Dy240 2.310 . S
O255 Dy243 2.664 . S
O255 C249 1.268 . S
O256 Dy240 2.351 . S
O256 C259 1.249 . S
O257 Dy243 2.326 . S
O257 C259 1.267 . S
C258 O250 1.249 . S
C258 O251 1.267 . S
C259 O256 1.249 . S
C259 O257 1.267 . S
Dy260 O264 2.398 . S
Dy260 O265 2.491 . S
Dy260 O266 2.403 . S
Dy260 O267 2.664 . S
Dy260 O271 2.326 . S
Dy260 O275 2.310 . S
Dy260 O276 2.351 . S
C261 O272 1.185 . S
C261 O273 1.355 . S
C262 O264 1.185 . S
C262 O265 1.355 . S
Dy263 O267 2.310 . S
Dy263 O270 2.351 . S
Dy263 O272 2.398 . S
Dy263 O273 2.491 . S
Dy263 O274 2.403 1_545 S
Dy263 O275 2.664 . S
Dy263 O277 2.326 . S
O264 Dy260 2.398 . S
O264 C262 1.185 . S
O265 Dy260 2.491 . S
O265 C262 1.355 . S
O266 Dy260 2.403 . S
O266 C268 1.254 . S
O267 Dy260 2.664 . S
O267 Dy263 2.310 . S
O267 C268 1.268 . S
C268 O266 1.254 . S
C268 O267 1.268 . S
C269 O274 1.254 . S
C269 O275 1.268 1_565 S
O270 Dy263 2.351 . S
O270 C278 1.249 . S
O271 Dy260 2.326 . S
O271 C278 1.267 . S
O272 C261 1.185 . S
O272 Dy263 2.398 . S
O273 C261 1.355 . S
O273 Dy263 2.491 . S
O274 Dy263 2.403 1_565 S
O274 C269 1.254 . S
O275 Dy260 2.310 . S
O275 Dy263 2.664 . S
O275 C269 1.268 1_545 S
O276 Dy260 2.351 . S
O276 C279 1.249 . S
O277 Dy263 2.326 . S
O277 C279 1.267 . S
C278 O270 1.249 . S
C278 O271 1.267 . S
C279 O276 1.249 . S
C279 O277 1.267 . S
Dy280 O284 2.398 . S
Dy280 O285 2.491 . S
Dy280 O286 2.403 . S
Dy280 O287 2.664 . S
Dy280 O291 2.326 . S
Dy280 O295 2.310 . S
Dy280 O296 2.351 . S
C281 O292 1.185 . S
C281 O293 1.355 . S
C282 O284 1.185 . S
C282 O285 1.355 . S
Dy283 O287 2.310 . S
Dy283 O290 2.351 . S
Dy283 O292 2.398 . S
Dy283 O293 2.491 . S
Dy283 O294 2.403 . S
Dy283 O295 2.664 . S
Dy283 O297 2.326 . S
O284 Dy280 2.398 . S
O284 C282 1.185 . S
O285 Dy280 2.491 . S
O285 C282 1.355 . S
O286 Dy280 2.403 . S
O286 C288 1.254 . S
O287 Dy280 2.664 . S
O287 Dy283 2.310 . S
O287 C288 1.268 . S
C288 O286 1.254 . S
C288 O287 1.268 . S
C289 O294 1.254 . S
C289 O295 1.268 . S
O290 Dy283 2.351 . S
O290 C298 1.249 . S
O291 Dy280 2.326 . S
O291 C298 1.267 . S
O292 C281 1.185 . S
O292 Dy283 2.398 . S
O293 C281 1.355 . S
O293 Dy283 2.491 . S
O294 Dy283 2.403 . S
O294 C289 1.254 . S
O295 Dy280 2.310 . S
O295 Dy283 2.664 . S
O295 C289 1.268 . S
O296 Dy280 2.351 . S
O296 C299 1.249 . S
O297 Dy283 2.326 . S
O297 C299 1.267 . S
C298 O290 1.249 . S
C298 O291 1.267 . S
C299 O296 1.249 . S
C299 O297 1.267 . S
Dy300 O304 2.398 . S
Dy300 O305 2.491 . S
Dy300 O306 2.403 . S
Dy300 O307 2.664 . S
Dy300 O311 2.326 . S
Dy300 O315 2.310 . S
Dy300 O316 2.351 . S
C301 O312 1.185 . S
C301 O313 1.355 . S
C302 O304 1.185 . S
C302 O305 1.355 . S
Dy303 O307 2.310 . S
Dy303 O310 2.351 . S
Dy303 O312 2.398 1_655 S
Dy303 O313 2.491 1_655 S
Dy303 O314 2.403 1_565 S
Dy303 O315 2.664 . S
Dy303 O317 2.326 . S
O304 Dy300 2.398 . S
O304 C302 1.185 . S
O305 Dy300 2.491 . S
O305 C302 1.355 . S
O306 Dy300 2.403 . S
O306 C308 1.254 . S
O307 Dy300 2.664 . S
O307 Dy303 2.310 . S
O307 C308 1.268 . S
C308 O306 1.254 . S
C308 O307 1.268 . S
C309 O314 1.254 . S
C309 O315 1.268 1_545 S
O310 Dy303 2.351 . S
O310 C318 1.249 . S
O311 Dy300 2.326 . S
O311 C318 1.267 . S
O312 C301 1.185 . S
O312 Dy303 2.398 1_455 S
O313 C301 1.355 . S
O313 Dy303 2.491 1_455 S
O314 Dy303 2.403 1_545 S
O314 C309 1.254 . S
O315 Dy300 2.310 . S
O315 Dy303 2.664 . S
O315 C309 1.268 1_565 S
O316 Dy300 2.351 . S
O316 C319 1.249 . S
O317 Dy303 2.326 . S
O317 C319 1.267 . S
C318 O310 1.249 . S
C318 O311 1.267 . S
C319 O316 1.249 . S
C319 O317 1.267 . S
Dy320 O324 2.398 . S
Dy320 O325 2.491 . S
Dy320 O326 2.403 . S
Dy320 O327 2.664 . S
Dy320 O331 2.326 . S
Dy320 O335 2.310 . S
Dy320 O336 2.351 . S
C321 O332 1.185 . S
C321 O333 1.355 . S
C322 O324 1.185 . S
C322 O325 1.355 . S
Dy323 O327 2.310 . S
Dy323 O330 2.351 . S
Dy323 O332 2.398 . S
Dy323 O333 2.491 . S
Dy323 O334 2.403 . S
Dy323 O335 2.664 . S
Dy323 O337 2.326 . S
O324 Dy320 2.398 . S
O324 C322 1.185 . S
O325 Dy320 2.491 . S
O325 C322 1.355 . S
O326 Dy320 2.403 . S
O326 C328 1.254 . S
O327 Dy320 2.664 . S
O327 Dy323 2.310 . S
O327 C328 1.268 . S
C328 O326 1.254 . S
C328 O327 1.268 . S
C329 O334 1.254 . S
C329 O335 1.268 . S
O330 Dy323 2.351 . S
O330 C338 1.249 . S
O331 Dy320 2.326 . S
O331 C338 1.267 . S
O332 C321 1.185 . S
O332 Dy323 2.398 . S
O333 C321 1.355 . S
O333 Dy323 2.491 . S
O334 Dy323 2.403 . S
O334 C329 1.254 . S
O335 Dy320 2.310 . S
O335 Dy323 2.664 . S
O335 C329 1.268 . S
O336 Dy320 2.351 . S
O336 C339 1.249 . S
O337 Dy323 2.326 . S
O337 C339 1.267 . S
C338 O330 1.249 . S
C338 O331 1.267 . S
C339 O336 1.249 . S
C339 O337 1.267 . S
Dy340 O344 2.398 . S
Dy340 O345 2.491 . S
Dy340 O346 2.403 . S
Dy340 O347 2.664 . S
Dy340 O351 2.326 . S
Dy340 O355 2.310 . S
Dy340 O356 2.351 . S
C341 O352 1.185 . S
C341 O353 1.355 . S
C342 O344 1.185 . S
C342 O345 1.355 . S
Dy343 O347 2.310 . S
Dy343 O350 2.351 . S
Dy343 O352 2.398 . S
Dy343 O353 2.491 . S
Dy343 O354 2.403 . S
Dy343 O355 2.664 . S
Dy343 O357 2.326 . S
O344 Dy340 2.398 . S
O344 C342 1.185 . S
O345 Dy340 2.491 . S
O345 C342 1.355 . S
O346 Dy340 2.403 . S
O346 C348 1.254 . S
O347 Dy340 2.664 . S
O347 Dy343 2.310 . S
O347 C348 1.268 . S
C348 O346 1.254 . S
C348 O347 1.268 . S
C349 O354 1.254 . S
C349 O355 1.268 . S
O350 Dy343 2.351 . S
O350 C358 1.249 . S
O351 Dy340 2.326 . S
O351 C358 1.267 . S
O352 C341 1.185 . S
O352 Dy343 2.398 . S
O353 C341 1.355 . S
O353 Dy343 2.491 . S
O354 Dy343 2.403 . S
O354 C349 1.254 . S
O355 Dy340 2.310 . S
O355 Dy343 2.664 . S
O355 C349 1.268 . S
O356 Dy340 2.351 . S
O356 C359 1.249 . S
O357 Dy343 2.326 . S
O357 C359 1.267 . S
C358 O350 1.249 . S
C358 O351 1.267 . S
C359 O356 1.249 . S
C359 O357 1.267 . S
Dy360 O364 2.398 . S
Dy360 O365 2.491 . S
Dy360 O366 2.403 . S
Dy360 O367 2.664 . S
Dy360 O371 2.326 . S
Dy360 O375 2.310 . S
Dy360 O376 2.351 . S
C361 O372 1.185 . S
C361 O373 1.355 . S
C362 O364 1.185 . S
C362 O365 1.355 . S
Dy363 O367 2.310 . S
Dy363 O370 2.351 . S
Dy363 O372 2.398 . S
Dy363 O373 2.491 . S
Dy363 O374 2.403 . S
Dy363 O375 2.664 . S
Dy363 O377 2.326 . S
O364 Dy360 2.398 . S
O364 C362 1.185 . S
O365 Dy360 2.491 . S
O365 C362 1.355 . S
O366 Dy360 2.403 . S
O366 C368 1.254 . S
O367 Dy360 2.664 . S
O367 Dy363 2.310 . S
O367 C368 1.268 . S
C368 O366 1.254 . S
C368 O367 1.268 . S
C369 O374 1.254 . S
C369 O375 1.268 . S
O370 Dy363 2.351 . S
O370 C378 1.249 . S
O371 Dy360 2.326 . S
O371 C378 1.267 . S
O372 C361 1.185 . S
O372 Dy363 2.398 . S
O373 C361 1.355 . S
O373 Dy363 2.491 . S
O374 Dy363 2.403 . S
O374 C369 1.254 . S
O375 Dy360 2.310 . S
O375 Dy363 2.664 . S
O375 C369 1.268 . S
O376 Dy360 2.351 . S
O376 C379 1.249 . S
O377 Dy363 2.326 . S
O377 C379 1.267 . S
C378 O370 1.249 . S
C378 O371 1.267 . S
C379 O376 1.249 . S
C379 O377 1.267 . S
Dy380 O384 2.398 1_655 S
Dy380 O385 2.491 1_655 S
Dy380 O386 2.403 . S
Dy380 O387 2.664 . S
Dy380 O391 2.326 . S
Dy380 O395 2.310 . S
Dy380 O396 2.351 . S
C381 O392 1.185 . S
C381 O393 1.355 . S
C382 O384 1.185 . S
C382 O385 1.355 . S
Dy383 O387 2.310 . S
Dy383 O390 2.351 . S
Dy383 O392 2.398 . S
Dy383 O393 2.491 . S
Dy383 O394 2.403 . S
Dy383 O395 2.664 . S
Dy383 O397 2.326 . S
O384 Dy380 2.398 1_455 S
O384 C382 1.185 . S
O385 Dy380 2.491 1_455 S
O385 C382 1.355 . S
O386 Dy380 2.403 . S
O386 C388 1.254 . S
O387 Dy380 2.664 . S
O387 Dy383 2.310 . S
O387 C388 1.268 . S
C388 O386 1.254 . S
C388 O387 1.268 . S
C389 O394 1.254 . S
C389 O395 1.268 . S
O390 Dy383 2.351 . S
O390 C398 1.249 . S
O391 Dy380 2.326 . S
O391 C398 1.267 . S
O392 C381 1.185 . S
O392 Dy383 2.398 . S
O393 C381 1.355 . S
O393 Dy383 2.491 . S
O394 Dy383 2.403 . S
O394 C389 1.254 . S
O395 Dy380 2.310 . S
O395 Dy383 2.664 . S
O395 C389 1.268 . S
O396 Dy380 2.351 . S
O396 C399 1.249 . S
O397 Dy383 2.326 . S
O397 C399 1.267 . S
C398 O390 1.249 . S
C398 O391 1.267 . S
C399 O396 1.249 . S
C399 O397 1.267 . S
Dy400 O404 2.398 . S
Dy400 O405 2.491 . S
Dy400 O406 2.403 . S
Dy400 O407 2.664 . S
Dy400 O411 2.326 . S
Dy400 O415 2.310 . S
Dy400 O416 2.351 . S
C401 O412 1.185 . S
C401 O413 1.355 . S
C402 O404 1.185 . S
C402 O405 1.355 . S
Dy403 O407 2.310 . S
Dy403 O410 2.351 . S
Dy403 O412 2.398 . S
Dy403 O413 2.491 . S
Dy403 O414 2.403 . S
Dy403 O415 2.664 . S
Dy403 O417 2.326 . S
O404 Dy400 2.398 . S
O404 C402 1.185 . S
O405 Dy400 2.491 . S
O405 C402 1.355 . S
O406 Dy400 2.403 . S
O406 C408 1.254 . S
O407 Dy400 2.664 . S
O407 Dy403 2.310 . S
O407 C408 1.268 . S
C408 O406 1.254 . S
C408 O407 1.268 . S
C409 O414 1.254 . S
C409 O415 1.268 . S
O410 Dy403 2.351 . S
O410 C418 1.249 . S
O411 Dy400 2.326 . S
O411 C418 1.267 . S
O412 C401 1.185 . S
O412 Dy403 2.398 . S
O413 C401 1.355 . S
O413 Dy403 2.491 . S
O414 Dy403 2.403 . S
O414 C409 1.254 . S
O415 Dy400 2.310 . S
O415 Dy403 2.664 . S
O415 C409 1.268 . S
O416 Dy400 2.351 . S
O416 C419 1.249 . S
O417 Dy403 2.326 . S
O417 C419 1.267 . S
C418 O410 1.249 . S
C418 O411 1.267 . S
C419 O416 1.249 . S
C419 O417 1.267 . S
Dy420 O424 2.398 1_655 S
Dy420 O425 2.491 1_655 S
Dy420 O426 2.403 . S
Dy420 O427 2.664 . S
Dy420 O431 2.326 . S
Dy420 O435 2.310 . S
Dy420 O436 2.351 . S
C421 O432 1.185 . S
C421 O433 1.355 . S
C422 O424 1.185 . S
C422 O425 1.355 . S
Dy423 O427 2.310 . S
Dy423 O430 2.351 . S
Dy423 O432 2.398 . S
Dy423 O433 2.491 . S
Dy423 O434 2.403 . S
Dy423 O435 2.664 . S
Dy423 O437 2.326 . S
O424 Dy420 2.398 1_455 S
O424 C422 1.185 . S
O425 Dy420 2.491 1_455 S
O425 C422 1.355 . S
O426 Dy420 2.403 . S
O426 C428 1.254 . S
O427 Dy420 2.664 . S
O427 Dy423 2.310 . S
O427 C428 1.268 . S
C428 O426 1.254 . S
C428 O427 1.268 . S
C429 O434 1.254 . S
C429 O435 1.268 . S
O430 Dy423 2.351 . S
O430 C438 1.249 . S
O431 Dy420 2.326 . S
O431 C438 1.267 . S
O432 C421 1.185 . S
O432 Dy423 2.398 . S
O433 C421 1.355 . S
O433 Dy423 2.491 . S
O434 Dy423 2.403 . S
O434 C429 1.254 . S
O435 Dy420 2.310 . S
O435 Dy423 2.664 . S
O435 C429 1.268 . S
O436 Dy420 2.351 . S
O436 C439 1.249 . S
O437 Dy423 2.326 . S
O437 C439 1.267 . S
C438 O430 1.249 . S
C438 O431 1.267 . S
C439 O436 1.249 . S
C439 O437 1.267 . S
Dy440 O444 2.398 . S
Dy440 O445 2.491 . S
Dy440 O446 2.403 . S
Dy440 O447 2.664 . S
Dy440 O451 2.326 . S
Dy440 O455 2.310 . S
Dy440 O456 2.351 . S
C441 O452 1.185 . S
C441 O453 1.355 . S
C442 O444 1.185 . S
C442 O445 1.355 . S
Dy443 O447 2.310 . S
Dy443 O450 2.351 . S
Dy443 O452 2.398 . S
Dy443 O453 2.491 . S
Dy443 O454 2.403 . S
Dy443 O455 2.664 . S
Dy443 O457 2.326 . S
O444 Dy440 2.398 . S
O444 C442 1.185 . S
O445 Dy440 2.491 . S
O445 C442 1.355 . S
O446 Dy440 2.403 . S
O446 C448 1.254 . S
O447 Dy440 2.664 . S
O447 Dy443 2.310 . S
O447 C448 1.268 . S
C448 O446 1.254 . S
C448 O447 1.268 . S
C449 O454 1.254 . S
C449 O455 1.268 . S
O450 Dy443 2.351 . S
O450 C458 1.249 . S
O451 Dy440 2.326 . S
O451 C458 1.267 . S
O452 C441 1.185 . S
O452 Dy443 2.398 . S
O453 C441 1.355 . S
O453 Dy443 2.491 . S
O454 Dy443 2.403 . S
O454 C449 1.254 . S
O455 Dy440 2.310 . S
O455 Dy443 2.664 . S
O455 C449 1.268 . S
O456 Dy440 2.351 . S
O456 C459 1.249 . S
O457 Dy443 2.326 . S
O457 C459 1.267 . S
C458 O450 1.249 . S
C458 O451 1.267 . S
C459 O456 1.249 . S
C459 O457 1.267 . S
Dy460 O464 2.398 . S
Dy460 O465 2.491 . S
Dy460 O466 2.403 . S
Dy460 O467 2.664 . S
Dy460 O471 2.326 . S
Dy460 O475 2.310 . S
Dy460 O476 2.351 . S
C461 O472 1.185 . S
C461 O473 1.355 . S
C462 O464 1.185 . S
C462 O465 1.355 . S
Dy463 O467 2.310 . S
Dy463 O470 2.351 . S
Dy463 O472 2.398 . S
Dy463 O473 2.491 . S
Dy463 O474 2.403 . S
Dy463 O475 2.664 . S
Dy463 O477 2.326 . S
O464 Dy460 2.398 . S
O464 C462 1.185 . S
O465 Dy460 2.491 . S
O465 C462 1.355 . S
O466 Dy460 2.403 . S
O466 C468 1.254 . S
O467 Dy460 2.664 . S
O467 Dy463 2.310 . S
O467 C468 1.268 . S
C468 O466 1.254 . S
C468 O467 1.268 . S
C469 O474 1.254 . S
C469 O475 1.268 . S
O470 Dy463 2.351 . S
O470 C478 1.249 . S
O471 Dy460 2.326 . S
O471 C478 1.267 . S
O472 C461 1.185 . S
O472 Dy463 2.398 . S
O473 C461 1.355 . S
O473 Dy463 2.491 . S
O474 Dy463 2.403 . S
O474 C469 1.254 . S
O475 Dy460 2.310 . S
O475 Dy463 2.664 . S
O475 C469 1.268 . S
O476 Dy460 2.351 . S
O476 C479 1.249 . S
O477 Dy463 2.326 . S
O477 C479 1.267 . S
C478 O470 1.249 . S
C478 O471 1.267 . S
C479 O476 1.249 . S
C479 O477 1.267 . S
Dy480 O484 2.398 . S
Dy480 O485 2.491 . S
Dy480 O486 2.403 . S
Dy480 O487 2.664 . S
Dy480 O491 2.326 . S
Dy480 O495 2.310 . S
Dy480 O496 2.351 . S
C481 O492 1.185 . S
C481 O493 1.355 . S
C482 O484 1.185 . S
C482 O485 1.355 . S
Dy483 O487 2.310 . S
Dy483 O490 2.351 . S
Dy483 O492 2.398 . S
Dy483 O493 2.491 . S
Dy483 O494 2.403 . S
Dy483 O495 2.664 . S
Dy483 O497 2.326 . S
O484 Dy480 2.398 . S
O484 C482 1.185 . S
O485 Dy480 2.491 . S
O485 C482 1.355 . S
O486 Dy480 2.403 . S
O486 C488 1.254 . S
O487 Dy480 2.664 . S
O487 Dy483 2.310 . S
O487 C488 1.268 . S
C488 O486 1.254 . S
C488 O487 1.268 . S
C489 O494 1.254 . S
C489 O495 1.268 . S
O490 Dy483 2.351 . S
O490 C498 1.249 . S
O491 Dy480 2.326 . S
O491 C498 1.267 . S
O492 C481 1.185 . S
O492 Dy483 2.398 . S
O493 C481 1.355 . S
O493 Dy483 2.491 . S
O494 Dy483 2.403 . S
O494 C489 1.254 . S
O495 Dy480 2.310 . S
O495 Dy483 2.664 . S
O495 C489 1.268 . S
O496 Dy480 2.351 . S
O496 C499 1.249 . S
O497 Dy483 2.326 . S
O497 C499 1.267 . S
C498 O490 1.249 . S
C498 O491 1.267 . S
C499 O496 1.249 . S
C499 O497 1.267 . S
Dy500 O504 2.398 . S
Dy500 O505 2.491 . S
Dy500 O506 2.403 . S
Dy500 O507 2.664 . S
Dy500 O511 2.326 . S
Dy500 O515 2.310 . S
Dy500 O516 2.351 . S
C501 O512 1.185 . S
C501 O513 1.355 . S
C502 O504 1.185 . S
C502 O505 1.355 . S
Dy503 O507 2.310 . S
Dy503 O510 2.351 . S
Dy503 O512 2.398 . S
Dy503 O513 2.491 . S
Dy503 O514 2.403 . S
Dy503 O515 2.664 . S
Dy503 O517 2.326 . S
O504 Dy500 2.398 . S
O504 C502 1.185 . S
O505 Dy500 2.491 . S
O505 C502 1.355 . S
O506 Dy500 2.403 . S
O506 C508 1.254 . S
O507 Dy500 2.664 . S
O507 Dy503 2.310 . S
O507 C508 1.268 . S
C508 O506 1.254 . S
C508 O507 1.268 . S
C509 O514 1.254 . S
C509 O515 1.268 . S
O510 Dy503 2.351 . S
O510 C518 1.249 . S
O511 Dy500 2.326 . S
O511 C518 1.267 . S
O512 C501 1.185 . S
O512 Dy503 2.398 . S
O513 C501 1.355 . S
O513 Dy503 2.491 . S
O514 Dy503 2.403 . S
O514 C509 1.254 . S
O515 Dy500 2.310 . S
O515 Dy503 2.664 . S
O515 C509 1.268 . S
O516 Dy500 2.351 . S
O516 C519 1.249 . S
O517 Dy503 2.326 . S
O517 C519 1.267 . S
C518 O510 1.249 . S
C518 O511 1.267 . S
C519 O516 1.249 . S
C519 O517 1.267 . S
Dy520 O524 2.398 . S
Dy520 O525 2.491 . S
Dy520 O526 2.403 . S
Dy520 O527 2.664 . S
Dy520 O531 2.326 . S
Dy520 O535 2.310 . S
Dy520 O536 2.351 . S
C521 O532 1.185 . S
C521 O533 1.355 . S
C522 O524 1.185 . S
C522 O525 1.355 . S
Dy523 O527 2.310 . S
Dy523 O530 2.351 . S
Dy523 O532 2.398 . S
Dy523 O533 2.491 . S
Dy523 O534 2.403 . S
Dy523 O535 2.664 . S
Dy523 O537 2.326 . S
O524 Dy520 2.398 . S
O524 C522 1.185 . S
O525 Dy520 2.491 . S
O525 C522 1.355 . S
O526 Dy520 2.403 . S
O526 C528 1.254 . S
O527 Dy520 2.664 . S
O527 Dy523 2.310 . S
O527 C528 1.268 . S
C528 O526 1.254 . S
C528 O527 1.268 . S
C529 O534 1.254 . S
C529 O535 1.268 . S
O530 Dy523 2.351 . S
O530 C538 1.249 . S
O531 Dy520 2.326 . S
O531 C538 1.267 . S
O532 C521 1.185 . S
O532 Dy523 2.398 . S
O533 C521 1.355 . S
O533 Dy523 2.491 . S
O534 Dy523 2.403 . S
O534 C529 1.254 . S
O535 Dy520 2.310 . S
O535 Dy523 2.664 . S
O535 C529 1.268 . S
O536 Dy520 2.351 . S
O536 C539 1.249 . S
O537 Dy523 2.326 . S
O537 C539 1.267 . S
C538 O530 1.249 . S
C538 O531 1.267 . S
C539 O536 1.249 . S
C539 O537 1.267 . S
Dy540 O544 2.398 . S
Dy540 O545 2.491 . S
Dy540 O546 2.403 . S
Dy540 O547 2.664 . S
Dy540 O551 2.326 . S
Dy540 O555 2.310 . S
Dy540 O556 2.351 . S
C541 O552 1.185 . S
C541 O553 1.355 . S
C542 O544 1.185 . S
C542 O545 1.355 . S
Dy543 O547 2.310 . S
Dy543 O550 2.351 . S
Dy543 O552 2.398 1_455 S
Dy543 O553 2.491 1_455 S
Dy543 O554 2.403 . S
Dy543 O555 2.664 . S
Dy543 O557 2.326 . S
O544 Dy540 2.398 . S
O544 C542 1.185 . S
O545 Dy540 2.491 . S
O545 C542 1.355 . S
O546 Dy540 2.403 . S
O546 C548 1.254 . S
O547 Dy540 2.664 . S
O547 Dy543 2.310 . S
O547 C548 1.268 . S
C548 O546 1.254 . S
C548 O547 1.268 . S
C549 O554 1.254 . S
C549 O555 1.268 . S
O550 Dy543 2.351 . S
O550 C558 1.249 . S
O551 Dy540 2.326 . S
O551 C558 1.267 . S
O552 C541 1.185 . S
O552 Dy543 2.398 1_655 S
O553 C541 1.355 . S
O553 Dy543 2.491 1_655 S
O554 Dy543 2.403 . S
O554 C549 1.254 . S
O555 Dy540 2.310 . S
O555 Dy543 2.664 . S
O555 C549 1.268 . S
O556 Dy540 2.351 . S
O556 C559 1.249 . S
O557 Dy543 2.326 . S
O557 C559 1.267 . S
C558 O550 1.249 . S
C558 O551 1.267 . S
C559 O556 1.249 . S
C559 O557 1.267 . S
Dy560 O564 2.398 . S
Dy560 O565 2.491 . S
Dy560 O566 2.403 . S
Dy560 O567 2.664 . S
Dy560 O571 2.326 . S
Dy560 O575 2.310 . S
Dy560 O576 2.351 . S
C561 O572 1.185 . S
C561 O573 1.355 . S
C562 O564 1.185 . S
C562 O565 1.355 . S
Dy563 O567 2.310 . S
Dy563 O570 2.351 . S
Dy563 O572 2.398 . S
Dy563 O573 2.491 . S
Dy563 O574 2.403 . S
Dy563 O575 2.664 . S
Dy563 O577 2.326 . S
O564 Dy560 2.398 . S
O564 C562 1.185 . S
O565 Dy560 2.491 . S
O565 C562 1.355 . S
O566 Dy560 2.403 . S
O566 C568 1.254 . S
O567 Dy560 2.664 . S
O567 Dy563 2.310 . S
O567 C568 1.268 . S
C568 O566 1.254 . S
C568 O567 1.268 . S
C569 O574 1.254 . S
C569 O575 1.268 . S
O570 Dy563 2.351 . S
O570 C578 1.249 . S
O571 Dy560 2.326 . S
O571 C578 1.267 . S
O572 C561 1.185 . S
O572 Dy563 2.398 . S
O573 C561 1.355 . S
O573 Dy563 2.491 . S
O574 Dy563 2.403 . S
O574 C569 1.254 . S
O575 Dy560 2.310 . S
O575 Dy563 2.664 . S
O575 C569 1.268 . S
O576 Dy560 2.351 . S
O576 C579 1.249 . S
O577 Dy563 2.326 . S
O577 C579 1.267 . S
C578 O570 1.249 . S
C578 O571 1.267 . S
C579 O576 1.249 . S
C579 O577 1.267 . S
Dy580 O584 2.398 . S
Dy580 O585 2.491 . S
Dy580 O586 2.403 . S
Dy580 O587 2.664 . S
Dy580 O591 2.326 . S
Dy580 O595 2.310 . S
Dy580 O596 2.351 . S
C581 O592 1.185 . S
C581 O593 1.355 . S
C582 O584 1.185 . S
C582 O585 1.355 . S
Dy583 O587 2.310 . S
Dy583 O590 2.351 . S
Dy583 O592 2.398 1_455 S
Dy583 O593 2.491 1_455 S
Dy583 O594 2.403 . S
Dy583 O595 2.664 . S
Dy583 O597 2.326 . S
O584 Dy580 2.398 . S
O584 C582 1.185 . S
O585 Dy580 2.491 . S
O585 C582 1.355 . S
O586 Dy580 2.403 . S
O586 C588 1.254 . S
O587 Dy580 2.664 . S
O587 Dy583 2.310 . S
O587 C588 1.268 . S
C588 O586 1.254 . S
C588 O587 1.268 . S
C589 O594 1.254 . S
C589 O595 1.268 . S
O590 Dy583 2.351 . S
O590 C598 1.249 . S
O591 Dy580 2.326 . S
O591 C598 1.267 . S
O592 C581 1.185 . S
O592 Dy583 2.398 1_655 S
O593 C581 1.355 . S
O593 Dy583 2.491 1_655 S
O594 Dy583 2.403 . S
O594 C589 1.254 . S
O595 Dy580 2.310 . S
O595 Dy583 2.664 . S
O595 C589 1.268 . S
O596 Dy580 2.351 . S
O596 C599 1.249 . S
O597 Dy583 2.326 . S
O597 C599 1.267 . S
C598 O590 1.249 . S
C598 O591 1.267 . S
C599 O596 1.249 . S
C599 O597 1.267 . S
Dy600 O604 2.398 . S
Dy600 O605 2.491 . S
Dy600 O606 2.403 . S
Dy600 O607 2.664 . S
Dy600 O611 2.326 . S
Dy600 O615 2.310 . S
Dy600 O616 2.351 . S
C601 O612 1.185 . S
C601 O613 1.355 . S
C602 O604 1.185 . S
C602 O605 1.355 . S
Dy603 O607 2.310 . S
Dy603 O610 2.351 . S
Dy603 O612 2.398 . S
Dy603 O613 2.491 . S
Dy603 O614 2.403 . S
Dy603 O615 2.664 . S
Dy603 O617 2.326 . S
O604 Dy600 2.398 . S
O604 C602 1.185 . S
O605 Dy600 2.491 . S
O605 C602 1.355 . S
O606 Dy600 2.403 . S
O606 C608 1.254 . S
O607 Dy600 2.664 . S
O607 Dy603 2.310 . S
O607 C608 1.268 . S
C608 O606 1.254 . S
C608 O607 1.268 . S
C609 O614 1.254 . S
C609 O615 1.268 . S
O610 Dy603 2.351 . S
O610 C618 1.249 . S
O611 Dy600 2.326 . S
O611 C618 1.267 . S
O612 C601 1.185 . S
O612 Dy603 2.398 . S
O613 C601 1.355 . S
O613 Dy603 2.491 . S
O614 Dy603 2.403 . S
O614 C609 1.254 . S
O615 Dy600 2.310 . S
O615 Dy603 2.664 . S
O615 C609 1.268 . S
O616 Dy600 2.351 . S
O616 C619 1.249 . S
O617 Dy603 2.326 . S
O617 C619 1.267 . S
C618 O610 1.249 . S
C618 O611 1.267 . S
C619 O616 1.249 . S
C619 O617 1.267 . S
Dy620 O624 2.398 . S
Dy620 O625 2.491 . S
Dy620 O626 2.403 . S
Dy620 O627 2.664 . S
Dy620 O631 2.326 . S
Dy620 O635 2.310 . S
Dy620 O636 2.351 . S
C621 O632 1.185 . S
C621 O633 1.355 . S
C622 O624 1.185 . S
C622 O625 1.355 . S
Dy623 O627 2.310 . S
Dy623 O630 2.351 . S
Dy623 O632 2.398 . S
Dy623 O633 2.491 . S
Dy623 O634 2.403 . S
Dy623 O635 2.664 . S
Dy623 O637 2.326 . S
O624 Dy620 2.398 . S
O624 C622 1.185 . S
O625 Dy620 2.491 . S
O625 C622 1.355 . S
O626 Dy620 2.403 . S
O626 C628 1.254 . S
O627 Dy620 2.664 . S
O627 Dy623 2.310 . S
O627 C628 1.268 . S
C628 O626 1.254 . S
C628 O627 1.268 . S
C629 O634 1.254 . S
C629 O635 1.268 . S
O630 Dy623 2.351 . S
O630 C638 1.249 . S
O631 Dy620 2.326 . S
O631 C638 1.267 . S
O632 C621 1.185 . S
O632 Dy623 2.398 . S
O633 C621 1.355 . S
O633 Dy623 2.491 . S
O634 Dy623 2.403 . S
O634 C629 1.254 . S
O635 Dy620 2.310 . S
O635 Dy623 2.664 . S
O635 C629 1.268 . S
O636 Dy620 2.351 . S
O636 C639 1.249 . S
O637 Dy623 2.326 . S
O637 C639 1.267 . S
C638 O630 1.249 . S
C638 O631 1.267 . S
C639 O636 1.249 . S
C639 O637 1.267 . S
C640 C641 1.369 . S
C640 C642 1.419 . S
C640 H644 0.930 . S
C641 C640 1.369 . S
C641 C650 1.429 . S
C642 C640 1.419 . S
C642 C643 1.363 . S
C642 H645 0.929 . S
C643 C642 1.363 . S
C643 C649 1.428 . S
H644 C640 0.930 . S
H645 C642 0.929 . S
S646 N647 1.613 . S
S646 N648 1.610 . S
N647 S646 1.613 . S
N647 C650 1.350 . S
N648 S646 1.610 . S
N648 C649 1.351 . S
C649 C643 1.428 . S
C649 N648 1.351 . S
C649 C650 1.434 . S
C650 C641 1.429 . S
C650 N647 1.350 . S
C650 C649 1.434 . S
C651 C652 1.369 . S
C651 C653 1.419 . S
C651 H655 0.930 . S
C652 C651 1.369 . S
C652 C661 1.429 . S
C653 C651 1.419 . S
C653 C654 1.363 . S
C653 H656 0.929 . S
C654 C653 1.363 . S
C654 C660 1.428 . S
H655 C651 0.930 . S
H656 C653 0.929 . S
S657 N658 1.613 . S
S657 N659 1.610 1_455 S
N658 S657 1.613 . S
N658 C661 1.350 1_455 S
N659 S657 1.610 1_655 S
N659 C660 1.351 . S
C660 C654 1.428 . S
C660 N659 1.351 . S
C660 C661 1.434 . S
C661 C652 1.429 . S
C661 N658 1.350 1_655 S
C661 C660 1.434 . S
C662 C663 1.369 . S
C662 C664 1.419 . S
C662 H666 0.930 . S
C663 C662 1.369 . S
C663 C672 1.429 . S
C664 C662 1.419 . S
C664 C665 1.363 . S
C664 H667 0.929 . S
C665 C664 1.363 . S
C665 C671 1.428 . S
H666 C662 0.930 . S
H667 C664 0.929 . S
S668 N669 1.613 . S
S668 N670 1.610 . S
N669 S668 1.613 . S
N669 C672 1.350 . S
N670 S668 1.610 . S
N670 C671 1.351 . S
C671 C665 1.428 . S
C671 N670 1.351 . S
C671 C672 1.434 . S
C672 C663 1.429 . S
C672 N669 1.350 . S
C672 C671 1.434 . S
C673 C674 1.369 . S
C673 C675 1.419 . S
C673 H677 0.930 . S
C674 C673 1.369 . S
C674 C683 1.429 . S
C675 C673 1.419 . S
C675 C676 1.363 . S
C675 H678 0.929 . S
C676 C675 1.363 . S
C676 C682 1.428 . S
H677 C673 0.930 . S
H678 C675 0.929 . S
S679 N680 1.613 . S
S679 N681 1.610 . S
N680 S679 1.613 . S
N680 C683 1.350 . S
N681 S679 1.610 . S
N681 C682 1.351 . S
C682 C676 1.428 . S
C682 N681 1.351 . S
C682 C683 1.434 . S
C683 C674 1.429 . S
C683 N680 1.350 . S
C683 C682 1.434 . S
C684 C685 1.369 . S
C684 C686 1.419 . S
C684 H688 0.930 . S
C685 C684 1.369 . S
C685 C694 1.429 . S
C686 C684 1.419 . S
C686 C687 1.363 . S
C686 H689 0.929 . S
C687 C686 1.363 . S
C687 C693 1.428 . S
H688 C684 0.930 . S
H689 C686 0.929 . S
S690 N691 1.613 . S
S690 N692 1.610 . S
N691 S690 1.613 . S
N691 C694 1.350 . S
N692 S690 1.610 . S
N692 C693 1.351 . S
C693 C687 1.428 . S
C693 N692 1.351 . S
C693 C694 1.434 . S
C694 C685 1.429 . S
C694 N691 1.350 . S
C694 C693 1.434 . S
C695 C696 1.369 . S
C695 C697 1.419 . S
C695 H699 0.930 . S
C696 C695 1.369 . S
C696 C705 1.429 . S
C697 C695 1.419 . S
C697 C698 1.363 . S
C697 H700 0.929 . S
C698 C697 1.363 . S
C698 C704 1.428 . S
H699 C695 0.930 . S
H700 C697 0.929 . S
S701 N702 1.613 . S
S701 N703 1.610 . S
N702 S701 1.613 . S
N702 C705 1.350 . S
N703 S701 1.610 . S
N703 C704 1.351 . S
C704 C698 1.428 . S
C704 N703 1.351 . S
C704 C705 1.434 . S
C705 C696 1.429 . S
C705 N702 1.350 . S
C705 C704 1.434 . S
C706 C707 1.369 . S
C706 C708 1.419 . S
C706 H710 0.930 . S
C707 C706 1.369 . S
C707 C716 1.429 . S
C708 C706 1.419 . S
C708 C709 1.363 . S
C708 H711 0.929 . S
C709 C708 1.363 . S
C709 C715 1.428 . S
H710 C706 0.930 . S
H711 C708 0.929 . S
S712 N713 1.613 . S
S712 N714 1.610 . S
N713 S712 1.613 . S
N713 C716 1.350 . S
N714 S712 1.610 . S
N714 C715 1.351 . S
C715 C709 1.428 . S
C715 N714 1.351 . S
C715 C716 1.434 . S
C716 C707 1.429 . S
C716 N713 1.350 . S
C716 C715 1.434 . S
C717 C718 1.369 . S
C717 C719 1.419 . S
C717 H721 0.930 . S
C718 C717 1.369 . S
C718 C727 1.429 . S
C719 C717 1.419 . S
C719 C720 1.363 . S
C719 H722 0.929 . S
C720 C719 1.363 . S
C720 C726 1.428 . S
H721 C717 0.930 . S
H722 C719 0.929 . S
S723 N724 1.613 . S
S723 N725 1.610 . S
N724 S723 1.613 . S
N724 C727 1.350 . S
N725 S723 1.610 . S
N725 C726 1.351 . S
C726 C720 1.428 . S
C726 N725 1.351 . S
C726 C727 1.434 . S
C727 C718 1.429 . S
C727 N724 1.350 . S
C727 C726 1.434 . S
C728 C729 1.369 . S
C728 C730 1.419 . S
C728 H732 0.930 . S
C729 C728 1.369 . S
C729 C738 1.429 . S
C730 C728 1.419 . S
C730 C731 1.363 . S
C730 H733 0.929 . S
C731 C730 1.363 . S
C731 C737 1.428 . S
H732 C728 0.930 . S
H733 C730 0.929 . S
S734 N735 1.613 . S
S734 N736 1.610 . S
N735 S734 1.613 . S
N735 C738 1.350 . S
N736 S734 1.610 . S
N736 C737 1.351 . S
C737 C731 1.428 . S
C737 N736 1.351 . S
C737 C738 1.434 . S
C738 C729 1.429 . S
C738 N735 1.350 . S
C738 C737 1.434 . S
C739 C740 1.369 . S
C739 C741 1.419 . S
C739 H743 0.930 . S
C740 C739 1.369 . S
C740 C749 1.429 . S
C741 C739 1.419 . S
C741 C742 1.363 . S
C741 H744 0.929 . S
C742 C741 1.363 . S
C742 C748 1.428 . S
H743 C739 0.930 . S
H744 C741 0.929 . S
S745 N746 1.613 . S
S745 N747 1.610 . S
N746 S745 1.613 . S
N746 C749 1.350 . S
N747 S745 1.610 . S
N747 C748 1.351 . S
C748 C742 1.428 . S
C748 N747 1.351 . S
C748 C749 1.434 . S
C749 C740 1.429 . S
C749 N746 1.350 . S
C749 C748 1.434 . S
C750 C751 1.369 . S
C750 C752 1.419 . S
C750 H754 0.930 . S
C751 C750 1.369 . S
C751 C760 1.429 . S
C752 C750 1.419 . S
C752 C753 1.363 . S
C752 H755 0.929 . S
C753 C752 1.363 . S
C753 C759 1.428 . S
H754 C750 0.930 . S
H755 C752 0.929 . S
S756 N757 1.613 . S
S756 N758 1.610 . S
N757 S756 1.613 . S
N757 C760 1.350 . S
N758 S756 1.610 . S
N758 C759 1.351 . S
C759 C753 1.428 . S
C759 N758 1.351 . S
C759 C760 1.434 . S
C760 C751 1.429 . S
C760 N757 1.350 . S
C760 C759 1.434 . S
C761 C762 1.369 . S
C761 C763 1.419 . S
C761 H765 0.930 . S
C762 C761 1.369 . S
C762 C771 1.429 . S
C763 C761 1.419 . S
C763 C764 1.363 . S
C763 H766 0.929 . S
C764 C763 1.363 . S
C764 C770 1.428 . S
H765 C761 0.930 . S
H766 C763 0.929 . S
S767 N768 1.613 . S
S767 N769 1.610 . S
N768 S767 1.613 . S
N768 C771 1.350 . S
N769 S767 1.610 . S
N769 C770 1.351 . S
C770 C764 1.428 . S
C770 N769 1.351 . S
C770 C771 1.434 . S
C771 C762 1.429 . S
C771 N768 1.350 . S
C771 C770 1.434 . S
C772 C773 1.369 . S
C772 C774 1.419 . S
C772 H776 0.930 . S
C773 C772 1.369 . S
C773 C782 1.429 . S
C774 C772 1.419 . S
C774 C775 1.363 . S
C774 H777 0.929 . S
C775 C774 1.363 . S
C775 C781 1.428 . S
H776 C772 0.930 . S
H777 C774 0.929 . S
S778 N779 1.613 . S
S778 N780 1.610 . S
N779 S778 1.613 . S
N779 C782 1.350 . S
N780 S778 1.610 . S
N780 C781 1.351 . S
C781 C775 1.428 . S
C781 N780 1.351 . S
C781 C782 1.434 . S
C782 C773 1.429 . S
C782 N779 1.350 . S
C782 C781 1.434 . S
C783 C784 1.369 . S
C783 C785 1.419 . S
C783 H787 0.930 . S
C784 C783 1.369 . S
C784 C793 1.429 . S
C785 C783 1.419 . S
C785 C786 1.363 . S
C785 H788 0.929 . S
C786 C785 1.363 . S
C786 C792 1.428 . S
H787 C783 0.930 . S
H788 C785 0.929 . S
S789 N790 1.613 . S
S789 N791 1.610 . S
N790 S789 1.613 . S
N790 C793 1.350 . S
N791 S789 1.610 . S
N791 C792 1.351 . S
C792 C786 1.428 . S
C792 N791 1.351 . S
C792 C793 1.434 . S
C793 C784 1.429 . S
C793 N790 1.350 . S
C793 C792 1.434 . S
C794 C795 1.369 . S
C794 C796 1.419 . S
C794 H798 0.930 . S
C795 C794 1.369 . S
C795 C804 1.429 . S
C796 C794 1.419 . S
C796 C797 1.363 . S
C796 H799 0.929 . S
C797 C796 1.363 . S
C797 C803 1.428 . S
H798 C794 0.930 . S
H799 C796 0.929 . S
S800 N801 1.613 . S
S800 N802 1.610 . S
N801 S800 1.613 . S
N801 C804 1.350 . S
N802 S800 1.610 . S
N802 C803 1.351 . S
C803 C797 1.428 . S
C803 N802 1.351 . S
C803 C804 1.434 . S
C804 C795 1.429 . S
C804 N801 1.350 . S
C804 C803 1.434 . S
C805 C806 1.369 . S
C805 C807 1.419 . S
C805 H809 0.930 . S
C806 C805 1.369 . S
C806 C815 1.429 . S
C807 C805 1.419 . S
C807 C808 1.363 . S
C807 H810 0.929 . S
C808 C807 1.363 . S
C808 C814 1.428 . S
H809 C805 0.930 . S
H810 C807 0.929 . S
S811 N812 1.613 . S
S811 N813 1.610 . S
N812 S811 1.613 . S
N812 C815 1.350 . S
N813 S811 1.610 . S
N813 C814 1.351 . S
C814 C808 1.428 . S
C814 N813 1.351 . S
C814 C815 1.434 . S
C815 C806 1.429 . S
C815 N812 1.350 . S
C815 C814 1.434 . S
C816 C817 1.369 . S
C816 C818 1.419 . S
C816 H820 0.930 . S
C817 C816 1.369 . S
C817 C826 1.429 . S
C818 C816 1.419 . S
C818 C819 1.363 . S
C818 H821 0.929 . S
C819 C818 1.363 . S
C819 C825 1.428 . S
H820 C816 0.930 . S
H821 C818 0.929 . S
S822 N823 1.613 . S
S822 N824 1.610 . S
N823 S822 1.613 . S
N823 C826 1.350 . S
N824 S822 1.610 . S
N824 C825 1.351 . S
C825 C819 1.428 . S
C825 N824 1.351 . S
C825 C826 1.434 . S
C826 C817 1.429 . S
C826 N823 1.350 . S
C826 C825 1.434 . S
C827 C828 1.369 . S
C827 C829 1.419 . S
C827 H831 0.930 . S
C828 C827 1.369 . S
C828 C837 1.429 . S
C829 C827 1.419 . S
C829 C830 1.363 . S
C829 H832 0.929 . S
C830 C829 1.363 . S
C830 C836 1.428 . S
H831 C827 0.930 . S
H832 C829 0.929 . S
S833 N834 1.613 . S
S833 N835 1.610 . S
N834 S833 1.613 . S
N834 C837 1.350 . S
N835 S833 1.610 . S
N835 C836 1.351 . S
C836 C830 1.428 . S
C836 N835 1.351 . S
C836 C837 1.434 . S
C837 C828 1.429 . S
C837 N834 1.350 . S
C837 C836 1.434 . S
C838 C839 1.369 . S
C838 C840 1.419 . S
C838 H842 0.930 . S
C839 C838 1.369 . S
C839 C848 1.429 . S
C840 C838 1.419 . S
C840 C841 1.363 . S
C840 H843 0.929 . S
C841 C840 1.363 . S
C841 C847 1.428 . S
H842 C838 0.930 . S
H843 C840 0.929 . S
S844 N845 1.613 . S
S844 N846 1.610 . S
N845 S844 1.613 . S
N845 C848 1.350 . S
N846 S844 1.610 . S
N846 C847 1.351 . S
C847 C841 1.428 . S
C847 N846 1.351 . S
C847 C848 1.434 . S
C848 C839 1.429 . S
C848 N845 1.350 . S
C848 C847 1.434 . S
C849 C850 1.369 . S
C849 C851 1.419 . S
C849 H853 0.930 . S
C850 C849 1.369 . S
C850 C859 1.429 . S
C851 C849 1.419 . S
C851 C852 1.363 . S
C851 H854 0.929 . S
C852 C851 1.363 . S
C852 C858 1.428 . S
H853 C849 0.930 . S
H854 C851 0.929 . S
S855 N856 1.613 . S
S855 N857 1.610 . S
N856 S855 1.613 . S
N856 C859 1.350 . S
N857 S855 1.610 . S
N857 C858 1.351 . S
C858 C852 1.428 . S
C858 N857 1.351 . S
C858 C859 1.434 . S
C859 C850 1.429 . S
C859 N856 1.350 . S
C859 C858 1.434 . S
C860 C861 1.369 . S
C860 C862 1.419 . S
C860 H864 0.930 . S
C861 C860 1.369 . S
C861 C870 1.429 . S
C862 C860 1.419 . S
C862 C863 1.363 . S
C862 H865 0.929 . S
C863 C862 1.363 . S
C863 C869 1.428 . S
H864 C860 0.930 . S
H865 C862 0.929 . S
S866 N867 1.613 . S
S866 N868 1.610 . S
N867 S866 1.613 . S
N867 C870 1.350 . S
N868 S866 1.610 . S
N868 C869 1.351 . S
C869 C863 1.428 . S
C869 N868 1.351 . S
C869 C870 1.434 . S
C870 C861 1.429 . S
C870 N867 1.350 . S
C870 C869 1.434 . S
C871 C872 1.369 . S
C871 C873 1.419 . S
C871 H875 0.930 . S
C872 C871 1.369 . S
C872 C881 1.429 . S
C873 C871 1.419 . S
C873 C874 1.363 . S
C873 H876 0.929 . S
C874 C873 1.363 . S
C874 C880 1.428 . S
H875 C871 0.930 . S
H876 C873 0.929 . S
S877 N878 1.613 . S
S877 N879 1.610 . S
N878 S877 1.613 . S
N878 C881 1.350 . S
N879 S877 1.610 . S
N879 C880 1.351 . S
C880 C874 1.428 . S
C880 N879 1.351 . S
C880 C881 1.434 . S
C881 C872 1.429 . S
C881 N878 1.350 . S
C881 C880 1.434 . S
C882 C883 1.369 . S
C882 C884 1.419 . S
C882 H886 0.930 . S
C883 C882 1.369 . S
C883 C892 1.429 . S
C884 C882 1.419 . S
C884 C885 1.363 . S
C884 H887 0.929 . S
C885 C884 1.363 . S
C885 C891 1.428 . S
H886 C882 0.930 . S
H887 C884 0.929 . S
S888 N889 1.613 . S
S888 N890 1.610 . S
N889 S888 1.613 . S
N889 C892 1.350 . S
N890 S888 1.610 . S
N890 C891 1.351 . S
C891 C885 1.428 . S
C891 N890 1.351 . S
C891 C892 1.434 . S
C892 C883 1.429 . S
C892 N889 1.350 . S
C892 C891 1.434 . S
C893 C894 1.369 . S
C893 C895 1.419 . S
C893 H897 0.930 . S
C894 C893 1.369 . S
C894 C903 1.429 . S
C895 C893 1.419 . S
C895 C896 1.363 . S
C895 H898 0.929 . S
C896 C895 1.363 . S
C896 C902 1.428 . S
H897 C893 0.930 . S
H898 C895 0.929 . S
S899 N900 1.613 . S
S899 N901 1.610 . S
N900 S899 1.613 . S
N900 C903 1.350 . S
N901 S899 1.610 . S
N901 C902 1.351 . S
C902 C896 1.428 . S
C902 N901 1.351 . S
C902 C903 1.434 . S
C903 C894 1.429 . S
C903 N900 1.350 . S
C903 C902 1.434 . S
C904 C905 1.369 . S
C904 C906 1.419 . S
C904 H908 0.930 . S
C905 C904 1.369 . S
C905 C914 1.429 . S
C906 C904 1.419 . S
C906 C907 1.363 . S
C906 H909 0.929 . S
C907 C906 1.363 . S
C907 C913 1.428 . S
H908 C904 0.930 . S
H909 C906 0.929 . S
S910 N911 1.613 . S
S910 N912 1.610 . S
N911 S910 1.613 . S
N911 C914 1.350 . S
N912 S910 1.610 . S
N912 C913 1.351 . S
C913 C907 1.428 . S
C913 N912 1.351 . S
C913 C914 1.434 . S
C914 C905 1.429 . S
C914 N911 1.350 . S
C914 C913 1.434 . S
C915 C916 1.369 . S
C915 C917 1.419 . S
C915 H919 0.930 . S
C916 C915 1.369 . S
C916 C925 1.429 . S
C917 C915 1.419 . S
C917 C918 1.363 . S
C917 H920 0.929 . S
C918 C917 1.363 . S
C918 C924 1.428 . S
H919 C915 0.930 . S
H920 C917 0.929 . S
S921 N922 1.613 . S
S921 N923 1.610 . S
N922 S921 1.613 . S
N922 C925 1.350 . S
N923 S921 1.610 . S
N923 C924 1.351 . S
C924 C918 1.428 . S
C924 N923 1.351 . S
C924 C925 1.434 . S
C925 C916 1.429 . S
C925 N922 1.350 . S
C925 C924 1.434 . S
C926 C927 1.369 . S
C926 C928 1.419 . S
C926 H930 0.930 . S
C927 C926 1.369 . S
C927 C936 1.429 . S
C928 C926 1.419 . S
C928 C929 1.363 . S
C928 H931 0.929 . S
C929 C928 1.363 . S
C929 C935 1.428 . S
H930 C926 0.930 . S
H931 C928 0.929 . S
S932 N933 1.613 . S
S932 N934 1.610 . S
N933 S932 1.613 . S
N933 C936 1.350 . S
N934 S932 1.610 . S
N934 C935 1.351 . S
C935 C929 1.428 . S
C935 N934 1.351 . S
C935 C936 1.434 . S
C936 C927 1.429 . S
C936 N933 1.350 . S
C936 C935 1.434 . S
C937 C938 1.369 . S
C937 C939 1.419 . S
C937 H941 0.930 . S
C938 C937 1.369 . S
C938 C947 1.429 . S
C939 C937 1.419 . S
C939 C940 1.363 . S
C939 H942 0.929 . S
C940 C939 1.363 . S
C940 C946 1.428 . S
H941 C937 0.930 . S
H942 C939 0.929 . S
S943 N944 1.613 . S
S943 N945 1.610 . S
N944 S943 1.613 . S
N944 C947 1.350 . S
N945 S943 1.610 . S
N945 C946 1.351 . S
C946 C940 1.428 . S
C946 N945 1.351 . S
C946 C947 1.434 . S
C947 C938 1.429 . S
C947 N944 1.350 . S
C947 C946 1.434 . S
C948 C949 1.369 . S
C948 C950 1.419 . S
C948 H952 0.930 . S
C949 C948 1.369 . S
C949 C958 1.429 . S
C950 C948 1.419 . S
C950 C951 1.363 . S
C950 H953 0.929 . S
C951 C950 1.363 . S
C951 C957 1.428 . S
H952 C948 0.930 . S
H953 C950 0.929 . S
S954 N955 1.613 . S
S954 N956 1.610 . S
N955 S954 1.613 . S
N955 C958 1.350 . S
N956 S954 1.610 . S
N956 C957 1.351 . S
C957 C951 1.428 . S
C957 N956 1.351 . S
C957 C958 1.434 . S
C958 C949 1.429 . S
C958 N955 1.350 . S
C958 C957 1.434 . S
C959 C960 1.369 . S
C959 C961 1.419 . S
C959 H963 0.930 . S
C960 C959 1.369 . S
C960 C969 1.429 . S
C961 C959 1.419 . S
C961 C962 1.363 . S
C961 H964 0.929 . S
C962 C961 1.363 . S
C962 C968 1.428 . S
H963 C959 0.930 . S
H964 C961 0.929 . S
S965 N966 1.613 1_455 S
S965 N967 1.610 . S
N966 S965 1.613 1_655 S
N966 C969 1.350 . S
N967 S965 1.610 . S
N967 C968 1.351 1_455 S
C968 C962 1.428 . S
C968 N967 1.351 1_655 S
C968 C969 1.434 . S
C969 C960 1.429 . S
C969 N966 1.350 . S
C969 C968 1.434 . S
C970 C971 1.369 . S
C970 C972 1.419 . S
C970 H974 0.930 . S
C971 C970 1.369 . S
C971 C980 1.429 . S
C972 C970 1.419 . S
C972 C973 1.363 . S
C972 H975 0.929 . S
C973 C972 1.363 . S
C973 C979 1.428 . S
H974 C970 0.930 . S
H975 C972 0.929 . S
S976 N977 1.613 . S
S976 N978 1.610 . S
N977 S976 1.613 . S
N977 C980 1.350 . S
N978 S976 1.610 . S
N978 C979 1.351 . S
C979 C973 1.428 . S
C979 N978 1.351 . S
C979 C980 1.434 . S
C980 C971 1.429 . S
C980 N977 1.350 . S
C980 C979 1.434 . S
C981 C982 1.369 . S
C981 C983 1.419 . S
C981 H985 0.930 . S
C982 C981 1.369 . S
C982 C991 1.429 . S
C983 C981 1.419 . S
C983 C984 1.363 . S
C983 H986 0.929 . S
C984 C983 1.363 . S
C984 C990 1.428 . S
H985 C981 0.930 . S
H986 C983 0.929 . S
S987 N988 1.613 . S
S987 N989 1.610 . S
N988 S987 1.613 . S
N988 C991 1.350 . S
N989 S987 1.610 . S
N989 C990 1.351 . S
C990 C984 1.428 . S
C990 N989 1.351 . S
C990 C991 1.434 . S
C991 C982 1.429 . S
C991 N988 1.350 . S
C991 C990 1.434 . S
C992 C993 1.369 . S
C992 C994 1.419 1_455 S
C992 H996 0.930 . S
C993 C992 1.369 . S
C993 C1002 1.429 . S
C994 C992 1.419 1_655 S
C994 C995 1.363 . S
C994 H997 0.929 . S
C995 C994 1.363 . S
C995 C1001 1.428 . S
H996 C992 0.930 . S
H997 C994 0.929 . S
S998 N999 1.613 1_655 S
S998 N1000 1.610 . S
N999 S998 1.613 1_455 S
N999 C1002 1.350 . S
N1000 S998 1.610 . S
N1000 C1001 1.351 . S
C1001 C995 1.428 . S
C1001 N1000 1.351 . S
C1001 C1002 1.434 1_655 S
C1002 C993 1.429 . S
C1002 N999 1.350 . S
C1002 C1001 1.434 1_455 S
C1003 C1004 1.369 . S
C1003 C1005 1.419 1_655 S
C1003 H1007 0.930 . S
C1004 C1003 1.369 . S
C1004 C1013 1.429 . S
C1005 C1003 1.419 1_455 S
C1005 C1006 1.363 . S
C1005 H1008 0.929 . S
C1006 C1005 1.363 . S
C1006 C1012 1.428 . S
H1007 C1003 0.930 . S
H1008 C1005 0.929 . S
S1009 N1010 1.613 . S
S1009 N1011 1.610 1_655 S
N1010 S1009 1.613 . S
N1010 C1013 1.350 . S
N1011 S1009 1.610 1_455 S
N1011 C1012 1.351 . S
C1012 C1006 1.428 . S
C1012 N1011 1.351 . S
C1012 C1013 1.434 1_455 S
C1013 C1004 1.429 . S
C1013 N1010 1.350 . S
C1013 C1012 1.434 1_655 S
C1014 C1015 1.369 . S
C1014 C1016 1.419 . S
C1014 H1018 0.930 . S
C1015 C1014 1.369 . S
C1015 C1024 1.429 . S
C1016 C1014 1.419 . S
C1016 C1017 1.363 . S
C1016 H1019 0.929 . S
C1017 C1016 1.363 . S
C1017 C1023 1.428 . S
H1018 C1014 0.930 . S
H1019 C1016 0.929 . S
S1020 N1021 1.613 . S
S1020 N1022 1.610 . S
N1021 S1020 1.613 . S
N1021 C1024 1.350 . S
N1022 S1020 1.610 . S
N1022 C1023 1.351 . S
C1023 C1017 1.428 . S
C1023 N1022 1.351 . S
C1023 C1024 1.434 . S
C1024 C1015 1.429 . S
C1024 N1021 1.350 . S
C1024 C1023 1.434 . S
C1025 C1026 1.369 . S
C1025 C1027 1.419 . S
C1025 H1029 0.930 . S
C1026 C1025 1.369 . S
C1026 C1035 1.429 . S
C1027 C1025 1.419 . S
C1027 C1028 1.363 . S
C1027 H1030 0.929 . S
C1028 C1027 1.363 . S
C1028 C1034 1.428 . S
H1029 C1025 0.930 . S
H1030 C1027 0.929 . S
S1031 N1032 1.613 . S
S1031 N1033 1.610 . S
N1032 S1031 1.613 . S
N1032 C1035 1.350 . S
N1033 S1031 1.610 . S
N1033 C1034 1.351 . S
C1034 C1028 1.428 . S
C1034 N1033 1.351 . S
C1034 C1035 1.434 . S
C1035 C1026 1.429 . S
C1035 N1032 1.350 . S
C1035 C1034 1.434 . S
C1036 C1037 1.369 . S
C1036 C1038 1.419 1_655 S
C1036 H1040 0.930 . S
C1037 C1036 1.369 . S
C1037 C1046 1.429 . S
C1038 C1036 1.419 1_455 S
C1038 C1039 1.363 . S
C1038 H1041 0.929 . S
C1039 C1038 1.363 . S
C1039 C1045 1.428 . S
H1040 C1036 0.930 . S
H1041 C1038 0.929 . S
S1042 N1043 1.613 1_455 S
S1042 N1044 1.610 . S
N1043 S1042 1.613 1_655 S
N1043 C1046 1.350 . S
N1044 S1042 1.610 . S
N1044 C1045 1.351 . S
C1045 C1039 1.428 . S
C1045 N1044 1.351 . S
C1045 C1046 1.434 1_455 S
C1046 C1037 1.429 . S
C1046 N1043 1.350 . S
C1046 C1045 1.434 1_655 S
C1047 C1048 1.369 . S
C1047 C1049 1.419 . S
C1047 H1051 0.930 . S
C1048 C1047 1.369 . S
C1048 C1057 1.429 . S
C1049 C1047 1.419 . S
C1049 C1050 1.363 . S
C1049 H1052 0.929 . S
C1050 C1049 1.363 . S
C1050 C1056 1.428 . S
H1051 C1047 0.930 . S
H1052 C1049 0.929 . S
S1053 N1054 1.613 . S
S1053 N1055 1.610 . S
N1054 S1053 1.613 . S
N1054 C1057 1.350 . S
N1055 S1053 1.610 . S
N1055 C1056 1.351 . S
C1056 C1050 1.428 . S
C1056 N1055 1.351 . S
C1056 C1057 1.434 . S
C1057 C1048 1.429 . S
C1057 N1054 1.350 . S
C1057 C1056 1.434 . S
C1058 C1059 1.369 . S
C1058 C1060 1.419 . S
C1058 H1062 0.930 . S
C1059 C1058 1.369 . S
C1059 C1068 1.429 . S
C1060 C1058 1.419 . S
C1060 C1061 1.363 . S
C1060 H1063 0.929 . S
C1061 C1060 1.363 . S
C1061 C1067 1.428 . S
H1062 C1058 0.930 . S
H1063 C1060 0.929 . S
S1064 N1065 1.613 . S
S1064 N1066 1.610 . S
N1065 S1064 1.613 . S
N1065 C1068 1.350 . S
N1066 S1064 1.610 . S
N1066 C1067 1.351 . S
C1067 C1061 1.428 . S
C1067 N1066 1.351 . S
C1067 C1068 1.434 . S
C1068 C1059 1.429 . S
C1068 N1065 1.350 . S
C1068 C1067 1.434 . S
C1069 C1070 1.369 1_655 S
C1069 C1071 1.419 . S
C1069 H1073 0.930 . S
C1070 C1069 1.369 1_455 S
C1070 C1079 1.429 . S
C1071 C1069 1.419 . S
C1071 C1072 1.363 . S
C1071 H1074 0.929 . S
C1072 C1071 1.363 . S
C1072 C1078 1.428 1_655 S
H1073 C1069 0.930 . S
H1074 C1071 0.929 . S
S1075 N1076 1.613 . S
S1075 N1077 1.610 . S
N1076 S1075 1.613 . S
N1076 C1079 1.350 . S
N1077 S1075 1.610 . S
N1077 C1078 1.351 . S
C1078 C1072 1.428 1_455 S
C1078 N1077 1.351 . S
C1078 C1079 1.434 . S
C1079 C1070 1.429 . S
C1079 N1076 1.350 . S
C1079 C1078 1.434 . S
C1080 C1081 1.369 . S
C1080 C1082 1.419 1_455 S
C1080 H1084 0.930 . S
C1081 C1080 1.369 . S
C1081 C1090 1.429 . S
C1082 C1080 1.419 1_655 S
C1082 C1083 1.363 . S
C1082 H1085 0.929 . S
C1083 C1082 1.363 . S
C1083 C1089 1.428 . S
H1084 C1080 0.930 . S
H1085 C1082 0.929 . S
S1086 N1087 1.613 1_655 S
S1086 N1088 1.610 . S
N1087 S1086 1.613 1_455 S
N1087 C1090 1.350 . S
N1088 S1086 1.610 . S
N1088 C1089 1.351 . S
C1089 C1083 1.428 . S
C1089 N1088 1.351 . S
C1089 C1090 1.434 1_655 S
C1090 C1081 1.429 . S
C1090 N1087 1.350 . S
C1090 C1089 1.434 1_455 S
C1091 C1092 1.369 1_455 S
C1091 C1093 1.419 . S
C1091 H1095 0.930 . S
C1092 C1091 1.369 1_655 S
C1092 C1101 1.429 . S
C1093 C1091 1.419 . S
C1093 C1094 1.363 . S
C1093 H1096 0.929 . S
C1094 C1093 1.363 . S
C1094 C1100 1.428 1_455 S
H1095 C1091 0.930 . S
H1096 C1093 0.929 . S
S1097 N1098 1.613 . S
S1097 N1099 1.610 . S
N1098 S1097 1.613 . S
N1098 C1101 1.350 . S
N1099 S1097 1.610 . S
N1099 C1100 1.351 . S
C1100 C1094 1.428 1_655 S
C1100 N1099 1.351 . S
C1100 C1101 1.434 . S
C1101 C1092 1.429 . S
C1101 N1098 1.350 . S
C1101 C1100 1.434 . S
C1102 C1103 1.369 . S
C1102 C1104 1.419 . S
C1102 H1106 0.930 . S
C1103 C1102 1.369 . S
C1103 C1112 1.429 . S
C1104 C1102 1.419 . S
C1104 C1105 1.363 . S
C1104 H1107 0.929 . S
C1105 C1104 1.363 . S
C1105 C1111 1.428 . S
H1106 C1102 0.930 . S
H1107 C1104 0.929 . S
S1108 N1109 1.613 . S
S1108 N1110 1.610 . S
N1109 S1108 1.613 . S
N1109 C1112 1.350 . S
N1110 S1108 1.610 . S
N1110 C1111 1.351 . S
C1111 C1105 1.428 . S
C1111 N1110 1.351 . S
C1111 C1112 1.434 . S
C1112 C1103 1.429 . S
C1112 N1109 1.350 . S
C1112 C1111 1.434 . S
C1113 C1114 1.369 . S
C1113 C1115 1.419 . S
C1113 H1117 0.930 . S
C1114 C1113 1.369 . S
C1114 C1123 1.429 . S
C1115 C1113 1.419 . S
C1115 C1116 1.363 . S
C1115 H1118 0.929 . S
C1116 C1115 1.363 . S
C1116 C1122 1.428 . S
H1117 C1113 0.930 . S
H1118 C1115 0.929 . S
S1119 N1120 1.613 . S
S1119 N1121 1.610 . S
N1120 S1119 1.613 . S
N1120 C1123 1.350 . S
N1121 S1119 1.610 . S
N1121 C1122 1.351 . S
C1122 C1116 1.428 . S
C1122 N1121 1.351 . S
C1122 C1123 1.434 . S
C1123 C1114 1.429 . S
C1123 N1120 1.350 . S
C1123 C1122 1.434 . S
C1124 C1125 1.369 . S
C1124 C1126 1.419 1_455 S
C1124 H1128 0.930 . S
C1125 C1124 1.369 . S
C1125 C1134 1.429 . S
C1126 C1124 1.419 1_655 S
C1126 C1127 1.363 . S
C1126 H1129 0.929 . S
C1127 C1126 1.363 . S
C1127 C1133 1.428 . S
H1128 C1124 0.930 . S
H1129 C1126 0.929 . S
S1130 N1131 1.613 1_655 S
S1130 N1132 1.610 . S
N1131 S1130 1.613 1_455 S
N1131 C1134 1.350 . S
N1132 S1130 1.610 . S
N1132 C1133 1.351 . S
C1133 C1127 1.428 . S
C1133 N1132 1.351 . S
C1133 C1134 1.434 1_655 S
C1134 C1125 1.429 . S
C1134 N1131 1.350 . S
C1134 C1133 1.434 1_455 S
C1135 C1136 1.369 . S
C1135 C1137 1.419 . S
C1135 H1139 0.930 . S
C1136 C1135 1.369 . S
C1136 C1145 1.429 . S
C1137 C1135 1.419 . S
C1137 C1138 1.363 . S
C1137 H1140 0.929 . S
C1138 C1137 1.363 . S
C1138 C1144 1.428 . S
H1139 C1135 0.930 . S
H1140 C1137 0.929 . S
S1141 N1142 1.613 . S
S1141 N1143 1.610 . S
N1142 S1141 1.613 . S
N1142 C1145 1.350 . S
N1143 S1141 1.610 . S
N1143 C1144 1.351 . S
C1144 C1138 1.428 . S
C1144 N1143 1.351 . S
C1144 C1145 1.434 . S
C1145 C1136 1.429 . S
C1145 N1142 1.350 . S
C1145 C1144 1.434 . S
C1146 C1147 1.369 . S
C1146 C1148 1.419 . S
C1146 H1150 0.930 . S
C1147 C1146 1.369 . S
C1147 C1156 1.429 . S
C1148 C1146 1.419 . S
C1148 C1149 1.363 . S
C1148 H1151 0.929 . S
C1149 C1148 1.363 . S
C1149 C1155 1.428 . S
H1150 C1146 0.930 . S
H1151 C1148 0.929 . S
S1152 N1153 1.613 . S
S1152 N1154 1.610 . S
N1153 S1152 1.613 . S
N1153 C1156 1.350 . S
N1154 S1152 1.610 . S
N1154 C1155 1.351 . S
C1155 C1149 1.428 . S
C1155 N1154 1.351 . S
C1155 C1156 1.434 . S
C1156 C1147 1.429 . S
C1156 N1153 1.350 . S
C1156 C1155 1.434 . S
C1157 C1158 1.369 1_455 S
C1157 C1159 1.419 . S
C1157 H1161 0.930 . S
C1158 C1157 1.369 1_655 S
C1158 C1167 1.429 . S
C1159 C1157 1.419 . S
C1159 C1160 1.363 . S
C1159 H1162 0.929 . S
C1160 C1159 1.363 . S
C1160 C1166 1.428 1_455 S
H1161 C1157 0.930 . S
H1162 C1159 0.929 . S
S1163 N1164 1.613 . S
S1163 N1165 1.610 . S
N1164 S1163 1.613 . S
N1164 C1167 1.350 . S
N1165 S1163 1.610 . S
N1165 C1166 1.351 . S
C1166 C1160 1.428 1_655 S
C1166 N1165 1.351 . S
C1166 C1167 1.434 . S
C1167 C1158 1.429 . S
C1167 N1164 1.350 . S
C1167 C1166 1.434 . S
C1168 C1169 1.369 . S
C1168 C1170 1.419 . S
C1168 H1172 0.930 . S
C1169 C1168 1.369 . S
C1169 C1178 1.429 . S
C1170 C1168 1.419 . S
C1170 C1171 1.363 . S
C1170 H1173 0.929 . S
C1171 C1170 1.363 . S
C1171 C1177 1.428 . S
H1172 C1168 0.930 . S
H1173 C1170 0.929 . S
S1174 N1175 1.613 . S
S1174 N1176 1.610 . S
N1175 S1174 1.613 . S
N1175 C1178 1.350 . S
N1176 S1174 1.610 . S
N1176 C1177 1.351 . S
C1177 C1171 1.428 . S
C1177 N1176 1.351 . S
C1177 C1178 1.434 . S
C1178 C1169 1.429 . S
C1178 N1175 1.350 . S
C1178 C1177 1.434 . S
C1179 C1180 1.369 1_465 S
C1179 C1181 1.419 . S
C1179 H1183 0.930 . S
C1180 C1179 1.369 1_645 S
C1180 C1189 1.429 . S
C1181 C1179 1.419 . S
C1181 C1182 1.363 . S
C1181 H1184 0.929 . S
C1182 C1181 1.363 . S
C1182 C1188 1.428 1_465 S
H1183 C1179 0.930 . S
H1184 C1181 0.929 . S
S1185 N1186 1.613 . S
S1185 N1187 1.610 . S
N1186 S1185 1.613 . S
N1186 C1189 1.350 . S
N1187 S1185 1.610 . S
N1187 C1188 1.351 . S
C1188 C1182 1.428 1_645 S
C1188 N1187 1.351 . S
C1188 C1189 1.434 . S
C1189 C1180 1.429 . S
C1189 N1186 1.350 . S
C1189 C1188 1.434 . S
C1190 C1191 1.369 . S
C1190 C1192 1.419 . S
C1190 H1194 0.930 . S
C1191 C1190 1.369 . S
C1191 C1200 1.429 . S
C1192 C1190 1.419 . S
C1192 C1193 1.363 . S
C1192 H1195 0.929 . S
C1193 C1192 1.363 . S
C1193 C1199 1.428 . S
H1194 C1190 0.930 . S
H1195 C1192 0.929 . S
S1196 N1197 1.613 . S
S1196 N1198 1.610 . S
N1197 S1196 1.613 . S
N1197 C1200 1.350 . S
N1198 S1196 1.610 . S
N1198 C1199 1.351 . S
C1199 C1193 1.428 . S
C1199 N1198 1.351 . S
C1199 C1200 1.434 . S
C1200 C1191 1.429 . S
C1200 N1197 1.350 . S
C1200 C1199 1.434 . S
C1201 C1202 1.369 . S
C1201 C1203 1.419 1_554 S
C1201 H1205 0.930 . S
C1202 C1201 1.369 . S
C1202 C1211 1.429 1_545 S
C1203 C1201 1.419 1_556 S
C1203 C1204 1.363 1_545 S
C1203 H1206 0.929 . S
C1204 C1203 1.363 1_565 S
C1204 C1210 1.428 . S
H1205 C1201 0.930 . S
H1206 C1203 0.929 . S
S1207 N1208 1.613 . S
S1207 N1209 1.610 1_554 S
N1208 S1207 1.613 . S
N1208 C1211 1.350 . S
N1209 S1207 1.610 1_556 S
N1209 C1210 1.351 . S
C1210 C1204 1.428 . S
C1210 N1209 1.351 . S
C1210 C1211 1.434 1_556 S
C1211 C1202 1.429 1_565 S
C1211 N1208 1.350 . S
C1211 C1210 1.434 1_554 S
C1212 C1213 1.369 . S
C1212 C1214 1.419 . S
C1212 H1216 0.930 . S
C1213 C1212 1.369 . S
C1213 C1222 1.429 . S
C1214 C1212 1.419 . S
C1214 C1215 1.363 . S
C1214 H1217 0.929 . S
C1215 C1214 1.363 . S
C1215 C1221 1.428 . S
H1216 C1212 0.930 . S
H1217 C1214 0.929 . S
S1218 N1219 1.613 . S
S1218 N1220 1.610 . S
N1219 S1218 1.613 . S
N1219 C1222 1.350 . S
N1220 S1218 1.610 . S
N1220 C1221 1.351 . S
C1221 C1215 1.428 . S
C1221 N1220 1.351 . S
C1221 C1222 1.434 . S
C1222 C1213 1.429 . S
C1222 N1219 1.350 . S
C1222 C1221 1.434 . S
C1223 C1224 1.369 . S
C1223 C1225 1.419 . S
C1223 H1227 0.930 . S
C1224 C1223 1.369 . S
C1224 C1233 1.429 1_545 S
C1225 C1223 1.419 . S
C1225 C1226 1.363 1_545 S
C1225 H1228 0.929 . S
C1226 C1225 1.363 1_565 S
C1226 C1232 1.428 . S
H1227 C1223 0.930 . S
H1228 C1225 0.929 . S
S1229 N1230 1.613 . S
S1229 N1231 1.610 . S
N1230 S1229 1.613 . S
N1230 C1233 1.350 . S
N1231 S1229 1.610 . S
N1231 C1232 1.351 . S
C1232 C1226 1.428 . S
C1232 N1231 1.351 . S
C1232 C1233 1.434 . S
C1233 C1224 1.429 1_565 S
C1233 N1230 1.350 . S
C1233 C1232 1.434 . S
C1234 C1235 1.369 . S
C1234 C1236 1.419 . S
C1234 H1238 0.930 . S
C1235 C1234 1.369 . S
C1235 C1244 1.429 . S
C1236 C1234 1.419 . S
C1236 C1237 1.363 . S
C1236 H1239 0.929 . S
C1237 C1236 1.363 . S
C1237 C1243 1.428 . S
H1238 C1234 0.930 . S
H1239 C1236 0.929 . S
S1240 N1241 1.613 . S
S1240 N1242 1.610 . S
N1241 S1240 1.613 . S
N1241 C1244 1.350 . S
N1242 S1240 1.610 . S
N1242 C1243 1.351 . S
C1243 C1237 1.428 . S
C1243 N1242 1.351 . S
C1243 C1244 1.434 . S
C1244 C1235 1.429 . S
C1244 N1241 1.350 . S
C1244 C1243 1.434 . S
C1245 C1246 1.369 1_655 S
C1245 C1247 1.419 1_556 S
C1245 H1249 0.930 . S
C1246 C1245 1.369 1_455 S
C1246 C1255 1.429 1_545 S
C1247 C1245 1.419 1_554 S
C1247 C1248 1.363 1_545 S
C1247 H1250 0.929 . S
C1248 C1247 1.363 1_565 S
C1248 C1254 1.428 1_655 S
H1249 C1245 0.930 . S
H1250 C1247 0.929 . S
S1251 N1252 1.613 1_554 S
S1251 N1253 1.610 . S
N1252 S1251 1.613 1_556 S
N1252 C1255 1.350 . S
N1253 S1251 1.610 . S
N1253 C1254 1.351 . S
C1254 C1248 1.428 1_455 S
C1254 N1253 1.351 . S
C1254 C1255 1.434 1_554 S
C1255 C1246 1.429 1_565 S
C1255 N1252 1.350 . S
C1255 C1254 1.434 1_556 S
C1256 C1257 1.369 . S
C1256 C1258 1.419 . S
C1256 H1260 0.930 . S
C1257 C1256 1.369 . S
C1257 C1266 1.429 . S
C1258 C1256 1.419 . S
C1258 C1259 1.363 . S
C1258 H1261 0.929 . S
C1259 C1258 1.363 . S
C1259 C1265 1.428 . S
H1260 C1256 0.930 . S
H1261 C1258 0.929 . S
S1262 N1263 1.613 . S
S1262 N1264 1.610 . S
N1263 S1262 1.613 . S
N1263 C1266 1.350 . S
N1264 S1262 1.610 . S
N1264 C1265 1.351 . S
C1265 C1259 1.428 . S
C1265 N1264 1.351 . S
C1265 C1266 1.434 . S
C1266 C1257 1.429 . S
C1266 N1263 1.350 . S
C1266 C1265 1.434 . S
C1267 C1268 1.369 . S
C1267 C1269 1.419 . S
C1267 H1271 0.930 . S
C1268 C1267 1.369 . S
C1268 C1277 1.429 . S
C1269 C1267 1.419 . S
C1269 C1270 1.363 . S
C1269 H1272 0.929 . S
C1270 C1269 1.363 . S
C1270 C1276 1.428 . S
H1271 C1267 0.930 . S
H1272 C1269 0.929 . S
S1273 N1274 1.613 . S
S1273 N1275 1.610 . S
N1274 S1273 1.613 . S
N1274 C1277 1.350 . S
N1275 S1273 1.610 . S
N1275 C1276 1.351 . S
C1276 C1270 1.428 . S
C1276 N1275 1.351 . S
C1276 C1277 1.434 . S
C1277 C1268 1.429 . S
C1277 N1274 1.350 . S
C1277 C1276 1.434 . S
C1278 C1279 1.369 . S
C1278 C1280 1.419 . S
C1278 H1282 0.930 . S
C1279 C1278 1.369 . S
C1279 C1288 1.429 . S
C1280 C1278 1.419 . S
C1280 C1281 1.363 . S
C1280 H1283 0.929 . S
C1281 C1280 1.363 . S
C1281 C1287 1.428 . S
H1282 C1278 0.930 . S
H1283 C1280 0.929 . S
S1284 N1285 1.613 . S
S1284 N1286 1.610 . S
N1285 S1284 1.613 . S
N1285 C1288 1.350 . S
N1286 S1284 1.610 . S
N1286 C1287 1.351 . S
C1287 C1281 1.428 . S
C1287 N1286 1.351 . S
C1287 C1288 1.434 . S
C1288 C1279 1.429 . S
C1288 N1285 1.350 . S
C1288 C1287 1.434 . S
C1289 C1290 1.369 . S
C1289 C1291 1.419 . S
C1289 H1293 0.930 . S
C1290 C1289 1.369 . S
C1290 C1299 1.429 . S
C1291 C1289 1.419 . S
C1291 C1292 1.363 . S
C1291 H1294 0.929 . S
C1292 C1291 1.363 . S
C1292 C1298 1.428 . S
H1293 C1289 0.930 . S
H1294 C1291 0.929 . S
S1295 N1296 1.613 . S
S1295 N1297 1.610 . S
N1296 S1295 1.613 . S
N1296 C1299 1.350 . S
N1297 S1295 1.610 . S
N1297 C1298 1.351 . S
C1298 C1292 1.428 . S
C1298 N1297 1.351 . S
C1298 C1299 1.434 . S
C1299 C1290 1.429 . S
C1299 N1296 1.350 . S
C1299 C1298 1.434 . S
C1300 C1301 1.369 . S
C1300 C1302 1.419 1_554 S
C1300 H1304 0.930 . S
C1301 C1300 1.369 . S
C1301 C1310 1.429 . S
C1302 C1300 1.419 1_556 S
C1302 C1303 1.363 . S
C1302 H1305 0.929 . S
C1303 C1302 1.363 . S
C1303 C1309 1.428 . S
H1304 C1300 0.930 . S
H1305 C1302 0.929 . S
S1306 N1307 1.613 . S
S1306 N1308 1.610 1_554 S
N1307 S1306 1.613 . S
N1307 C1310 1.350 . S
N1308 S1306 1.610 1_556 S
N1308 C1309 1.351 . S
C1309 C1303 1.428 . S
C1309 N1308 1.351 . S
C1309 C1310 1.434 1_556 S
C1310 C1301 1.429 . S
C1310 N1307 1.350 . S
C1310 C1309 1.434 1_554 S
C1311 C1312 1.369 1_455 S
C1311 C1313 1.419 . S
C1311 H1315 0.930 . S
C1312 C1311 1.369 1_655 S
C1312 C1321 1.429 . S
C1313 C1311 1.419 . S
C1313 C1314 1.363 . S
C1313 H1316 0.929 . S
C1314 C1313 1.363 . S
C1314 C1320 1.428 1_455 S
H1315 C1311 0.930 . S
H1316 C1313 0.929 . S
S1317 N1318 1.613 . S
S1317 N1319 1.610 . S
N1318 S1317 1.613 . S
N1318 C1321 1.350 . S
N1319 S1317 1.610 . S
N1319 C1320 1.351 . S
C1320 C1314 1.428 1_655 S
C1320 N1319 1.351 . S
C1320 C1321 1.434 . S
C1321 C1312 1.429 . S
C1321 N1318 1.350 . S
C1321 C1320 1.434 . S
C1322 C1323 1.369 . S
C1322 C1324 1.419 1_554 S
C1322 H1326 0.930 . S
C1323 C1322 1.369 . S
C1323 C1332 1.429 1_455 S
C1324 C1322 1.419 1_556 S
C1324 C1325 1.363 1_455 S
C1324 H1327 0.929 . S
C1325 C1324 1.363 1_655 S
C1325 C1331 1.428 . S
H1326 C1322 0.930 . S
H1327 C1324 0.929 . S
S1328 N1329 1.613 . S
S1328 N1330 1.610 1_554 S
N1329 S1328 1.613 . S
N1329 C1332 1.350 . S
N1330 S1328 1.610 1_556 S
N1330 C1331 1.351 . S
C1331 C1325 1.428 . S
C1331 N1330 1.351 . S
C1331 C1332 1.434 1_556 S
C1332 C1323 1.429 1_655 S
C1332 N1329 1.350 . S
C1332 C1331 1.434 1_554 S
C1333 C1334 1.369 . S
C1333 C1335 1.419 . S
C1333 H1337 0.930 . S
C1334 C1333 1.369 . S
C1334 C1343 1.429 . S
C1335 C1333 1.419 . S
C1335 C1336 1.363 . S
C1335 H1338 0.929 . S
C1336 C1335 1.363 . S
C1336 C1342 1.428 . S
H1337 C1333 0.930 . S
H1338 C1335 0.929 . S
S1339 N1340 1.613 . S
S1339 N1341 1.610 . S
N1340 S1339 1.613 . S
N1340 C1343 1.350 . S
N1341 S1339 1.610 . S
N1341 C1342 1.351 . S
C1342 C1336 1.428 . S
C1342 N1341 1.351 . S
C1342 C1343 1.434 . S
C1343 C1334 1.429 . S
C1343 N1340 1.350 . S
C1343 C1342 1.434 . S
C1344 C1345 1.369 . S
C1344 C1346 1.419 . S
C1344 H1348 0.930 . S
C1345 C1344 1.369 . S
C1345 C1354 1.429 . S
C1346 C1344 1.419 . S
C1346 C1347 1.363 . S
C1346 H1349 0.929 . S
C1347 C1346 1.363 . S
C1347 C1353 1.428 . S
H1348 C1344 0.930 . S
H1349 C1346 0.929 . S
S1350 N1351 1.613 . S
S1350 N1352 1.610 . S
N1351 S1350 1.613 . S
N1351 C1354 1.350 . S
N1352 S1350 1.610 . S
N1352 C1353 1.351 . S
C1353 C1347 1.428 . S
C1353 N1352 1.351 . S
C1353 C1354 1.434 . S
C1354 C1345 1.429 . S
C1354 N1351 1.350 . S
C1354 C1353 1.434 . S
C1355 C1356 1.369 . S
C1355 C1357 1.419 . S
C1355 H1359 0.930 . S
C1356 C1355 1.369 . S
C1356 C1365 1.429 . S
C1357 C1355 1.419 . S
C1357 C1358 1.363 . S
C1357 H1360 0.929 . S
C1358 C1357 1.363 . S
C1358 C1364 1.428 . S
H1359 C1355 0.930 . S
H1360 C1357 0.929 . S
S1361 N1362 1.613 . S
S1361 N1363 1.610 . S
N1362 S1361 1.613 . S
N1362 C1365 1.350 . S
N1363 S1361 1.610 . S
N1363 C1364 1.351 . S
C1364 C1358 1.428 . S
C1364 N1363 1.351 . S
C1364 C1365 1.434 . S
C1365 C1356 1.429 . S
C1365 N1362 1.350 . S
C1365 C1364 1.434 . S
C1366 C1367 1.369 . S
C1366 C1368 1.419 . S
C1366 H1370 0.930 . S
C1367 C1366 1.369 . S
C1367 C1376 1.429 . S
C1368 C1366 1.419 . S
C1368 C1369 1.363 . S
C1368 H1371 0.929 . S
C1369 C1368 1.363 . S
C1369 C1375 1.428 . S
H1370 C1366 0.930 . S
H1371 C1368 0.929 . S
S1372 N1373 1.613 . S
S1372 N1374 1.610 . S
N1373 S1372 1.613 . S
N1373 C1376 1.350 . S
N1374 S1372 1.610 . S
N1374 C1375 1.351 . S
C1375 C1369 1.428 . S
C1375 N1374 1.351 . S
C1375 C1376 1.434 . S
C1376 C1367 1.429 . S
C1376 N1373 1.350 . S
C1376 C1375 1.434 . S
C1377 C1378 1.369 . S
C1377 C1379 1.419 . S
C1377 H1381 0.930 . S
C1378 C1377 1.369 . S
C1378 C1387 1.429 . S
C1379 C1377 1.419 . S
C1379 C1380 1.363 . S
C1379 H1382 0.929 . S
C1380 C1379 1.363 . S
C1380 C1386 1.428 . S
H1381 C1377 0.930 . S
H1382 C1379 0.929 . S
S1383 N1384 1.613 . S
S1383 N1385 1.610 . S
N1384 S1383 1.613 . S
N1384 C1387 1.350 . S
N1385 S1383 1.610 . S
N1385 C1386 1.351 . S
C1386 C1380 1.428 . S
C1386 N1385 1.351 . S
C1386 C1387 1.434 . S
C1387 C1378 1.429 . S
C1387 N1384 1.350 . S
C1387 C1386 1.434 . S
C1388 C1389 1.369 . S
C1388 C1390 1.419 . S
C1388 H1392 0.930 . S
C1389 C1388 1.369 . S
C1389 C1398 1.429 . S
C1390 C1388 1.419 . S
C1390 C1391 1.363 . S
C1390 H1393 0.929 . S
C1391 C1390 1.363 . S
C1391 C1397 1.428 . S
H1392 C1388 0.930 . S
H1393 C1390 0.929 . S
S1394 N1395 1.613 . S
S1394 N1396 1.610 . S
N1395 S1394 1.613 . S
N1395 C1398 1.350 . S
N1396 S1394 1.610 . S
N1396 C1397 1.351 . S
C1397 C1391 1.428 . S
C1397 N1396 1.351 . S
C1397 C1398 1.434 . S
C1398 C1389 1.429 . S
C1398 N1395 1.350 . S
C1398 C1397 1.434 . S
C1399 C1400 1.369 . S
C1399 C1401 1.419 . S
C1399 H1403 0.930 . S
C1400 C1399 1.369 . S
C1400 C1409 1.429 . S
C1401 C1399 1.419 . S
C1401 C1402 1.363 . S
C1401 H1404 0.929 . S
C1402 C1401 1.363 . S
C1402 C1408 1.428 . S
H1403 C1399 0.930 . S
H1404 C1401 0.929 . S
S1405 N1406 1.614 . S
S1405 N1407 1.615 . S
N1406 S1405 1.614 . S
N1406 C1409 1.350 . S
N1407 S1405 1.615 . S
N1407 C1408 1.351 . S
C1408 C1402 1.428 . S
C1408 N1407 1.351 . S
C1408 C1409 1.434 . S
C1409 C1400 1.429 . S
C1409 N1406 1.350 . S
C1409 C1408 1.434 . S
C1410 C1411 1.369 . S
C1410 C1412 1.419 . S
C1410 H1414 0.930 . S
C1411 C1410 1.369 . S
C1411 C1420 1.429 . S
C1412 C1410 1.419 . S
C1412 C1413 1.363 . S
C1412 H1415 0.929 . S
C1413 C1412 1.363 . S
C1413 C1419 1.428 . S
H1414 C1410 0.930 . S
H1415 C1412 0.929 . S
S1416 N1417 1.613 . S
S1416 N1418 1.610 . S
N1417 S1416 1.613 . S
N1417 C1420 1.350 . S
N1418 S1416 1.610 . S
N1418 C1419 1.351 . S
C1419 C1413 1.428 . S
C1419 N1418 1.351 . S
C1419 C1420 1.434 . S
C1420 C1411 1.429 . S
C1420 N1417 1.350 . S
C1420 C1419 1.434 . S
C1421 C1422 1.369 . S
C1421 C1423 1.419 . S
C1421 H1425 0.930 . S
C1422 C1421 1.369 . S
C1422 C1431 1.429 . S
C1423 C1421 1.419 . S
C1423 C1424 1.363 . S
C1423 H1426 0.929 . S
C1424 C1423 1.363 . S
C1424 C1430 1.428 . S
H1425 C1421 0.930 . S
H1426 C1423 0.929 . S
S1427 N1428 1.613 . S
S1427 N1429 1.610 . S
N1428 S1427 1.613 . S
N1428 C1431 1.350 . S
N1429 S1427 1.610 . S
N1429 C1430 1.351 . S
C1430 C1424 1.428 . S
C1430 N1429 1.351 . S
C1430 C1431 1.434 . S
C1431 C1422 1.429 . S
C1431 N1428 1.350 . S
C1431 C1430 1.434 . S
C1432 C1433 1.369 . S
C1432 C1434 1.419 . S
C1432 H1436 0.930 . S
C1433 C1432 1.369 . S
C1433 C1442 1.429 . S
C1434 C1432 1.419 . S
C1434 C1435 1.363 . S
C1434 H1437 0.929 . S
C1435 C1434 1.363 . S
C1435 C1441 1.428 . S
H1436 C1432 0.930 . S
H1437 C1434 0.929 . S
S1438 N1439 1.613 . S
S1438 N1440 1.610 . S
N1439 S1438 1.613 . S
N1439 C1442 1.350 . S
N1440 S1438 1.610 . S
N1440 C1441 1.351 . S
C1441 C1435 1.428 . S
C1441 N1440 1.351 . S
C1441 C1442 1.434 . S
C1442 C1433 1.429 . S
C1442 N1439 1.350 . S
C1442 C1441 1.434 . S
C1443 C1444 1.369 . S
C1443 C1445 1.419 . S
C1443 H1447 0.930 . S
C1444 C1443 1.369 . S
C1444 C1453 1.429 . S
C1445 C1443 1.419 . S
C1445 C1446 1.363 . S
C1445 H1448 0.929 . S
C1446 C1445 1.363 . S
C1446 C1452 1.428 . S
H1447 C1443 0.930 . S
H1448 C1445 0.929 . S
S1449 N1450 1.613 . S
S1449 N1451 1.610 . S
N1450 S1449 1.613 . S
N1450 C1453 1.350 . S
N1451 S1449 1.610 . S
N1451 C1452 1.351 . S
C1452 C1446 1.428 . S
C1452 N1451 1.351 . S
C1452 C1453 1.434 . S
C1453 C1444 1.429 . S
C1453 N1450 1.350 . S
C1453 C1452 1.434 . S
C1454 C1455 1.369 . S
C1454 C1456 1.419 . S
C1454 H1458 0.930 . S
C1455 C1454 1.369 . S
C1455 C1464 1.429 . S
C1456 C1454 1.419 . S
C1456 C1457 1.363 . S
C1456 H1459 0.929 . S
C1457 C1456 1.363 . S
C1457 C1463 1.428 . S
H1458 C1454 0.930 . S
H1459 C1456 0.929 . S
S1460 N1461 1.613 . S
S1460 N1462 1.610 . S
N1461 S1460 1.613 . S
N1461 C1464 1.350 . S
N1462 S1460 1.610 . S
N1462 C1463 1.351 . S
C1463 C1457 1.428 . S
C1463 N1462 1.351 . S
C1463 C1464 1.434 . S
C1464 C1455 1.429 . S
C1464 N1461 1.350 . S
C1464 C1463 1.434 . S
C1465 C1466 1.369 . S
C1465 C1467 1.419 . S
C1465 H1469 0.930 . S
C1466 C1465 1.369 . S
C1466 C1475 1.429 . S
C1467 C1465 1.419 . S
C1467 C1468 1.363 . S
C1467 H1470 0.929 . S
C1468 C1467 1.363 . S
C1468 C1474 1.428 . S
H1469 C1465 0.930 . S
H1470 C1467 0.929 . S
S1471 N1472 1.613 . S
S1471 N1473 1.610 . S
N1472 S1471 1.613 . S
N1472 C1475 1.350 . S
N1473 S1471 1.610 . S
N1473 C1474 1.351 . S
C1474 C1468 1.428 . S
C1474 N1473 1.351 . S
C1474 C1475 1.434 . S
C1475 C1466 1.429 . S
C1475 N1472 1.350 . S
C1475 C1474 1.434 . S
C1476 C1477 1.369 . S
C1476 C1478 1.419 . S
C1476 H1480 0.930 . S
C1477 C1476 1.369 . S
C1477 C1486 1.429 . S
C1478 C1476 1.419 . S
C1478 C1479 1.363 . S
C1478 H1481 0.929 . S
C1479 C1478 1.363 . S
C1479 C1485 1.428 . S
H1480 C1476 0.930 . S
H1481 C1478 0.929 . S
S1482 N1483 1.613 . S
S1482 N1484 1.610 . S
N1483 S1482 1.613 . S
N1483 C1486 1.350 . S
N1484 S1482 1.610 . S
N1484 C1485 1.351 . S
C1485 C1479 1.428 . S
C1485 N1484 1.351 . S
C1485 C1486 1.434 . S
C1486 C1477 1.429 . S
C1486 N1483 1.350 . S
C1486 C1485 1.434 . S
C1487 C1488 1.369 . S
C1487 C1489 1.419 . S
C1487 H1491 0.930 . S
C1488 C1487 1.369 . S
C1488 C1497 1.429 . S
C1489 C1487 1.419 . S
C1489 C1490 1.363 . S
C1489 H1492 0.929 . S
C1490 C1489 1.363 . S
C1490 C1496 1.428 . S
H1491 C1487 0.930 . S
H1492 C1489 0.929 . S
S1493 N1494 1.613 . S
S1493 N1495 1.610 . S
N1494 S1493 1.613 . S
N1494 C1497 1.350 . S
N1495 S1493 1.610 . S
N1495 C1496 1.351 . S
C1496 C1490 1.428 . S
C1496 N1495 1.351 . S
C1496 C1497 1.434 . S
C1497 C1488 1.429 . S
C1497 N1494 1.350 . S
C1497 C1496 1.434 . S
C1498 C1499 1.369 . S
C1498 C1500 1.419 . S
C1498 H1502 0.930 . S
C1499 C1498 1.369 . S
C1499 C1508 1.429 . S
C1500 C1498 1.419 . S
C1500 C1501 1.363 . S
C1500 H1503 0.929 . S
C1501 C1500 1.363 . S
C1501 C1507 1.428 . S
H1502 C1498 0.930 . S
H1503 C1500 0.929 . S
S1504 N1505 1.613 . S
S1504 N1506 1.610 . S
N1505 S1504 1.613 . S
N1505 C1508 1.350 . S
N1506 S1504 1.610 . S
N1506 C1507 1.351 . S
C1507 C1501 1.428 . S
C1507 N1506 1.351 . S
C1507 C1508 1.434 . S
C1508 C1499 1.429 . S
C1508 N1505 1.350 . S
C1508 C1507 1.434 . S
C1509 C1510 1.369 . S
C1509 C1511 1.419 . S
C1509 H1513 0.930 . S
C1510 C1509 1.369 . S
C1510 C1519 1.429 . S
C1511 C1509 1.419 . S
C1511 C1512 1.363 . S
C1511 H1514 0.929 . S
C1512 C1511 1.363 . S
C1512 C1518 1.428 . S
H1513 C1509 0.930 . S
H1514 C1511 0.929 . S
S1515 N1516 1.613 . S
S1515 N1517 1.610 . S
N1516 S1515 1.613 . S
N1516 C1519 1.350 . S
N1517 S1515 1.610 . S
N1517 C1518 1.351 . S
C1518 C1512 1.428 . S
C1518 N1517 1.351 . S
C1518 C1519 1.434 . S
C1519 C1510 1.429 . S
C1519 N1516 1.350 . S
C1519 C1518 1.434 . S
C1520 C1521 1.369 . S
C1520 C1522 1.419 . S
C1520 H1524 0.930 . S
C1521 C1520 1.369 . S
C1521 C1530 1.429 1_545 S
C1522 C1520 1.419 . S
C1522 C1523 1.363 1_545 S
C1522 H1525 0.929 . S
C1523 C1522 1.363 1_565 S
C1523 C1529 1.428 . S
H1524 C1520 0.930 . S
H1525 C1522 0.929 . S
S1526 N1527 1.613 . S
S1526 N1528 1.610 . S
N1527 S1526 1.613 . S
N1527 C1530 1.350 . S
N1528 S1526 1.610 . S
N1528 C1529 1.351 . S
C1529 C1523 1.428 . S
C1529 N1528 1.351 . S
C1529 C1530 1.434 . S
C1530 C1521 1.429 1_565 S
C1530 N1527 1.350 . S
C1530 C1529 1.434 . S
C1531 C1532 1.369 . S
C1531 C1533 1.419 . S
C1531 H1535 0.930 . S
C1532 C1531 1.369 . S
C1532 C1541 1.429 . S
C1533 C1531 1.419 . S
C1533 C1534 1.363 . S
C1533 H1536 0.929 . S
C1534 C1533 1.363 . S
C1534 C1540 1.428 . S
H1535 C1531 0.930 . S
H1536 C1533 0.929 . S
S1537 N1538 1.613 . S
S1537 N1539 1.610 . S
N1538 S1537 1.613 . S
N1538 C1541 1.350 1_545 S
N1539 S1537 1.610 . S
N1539 C1540 1.351 1_545 S
C1540 C1534 1.428 . S
C1540 N1539 1.351 1_565 S
C1540 C1541 1.434 . S
C1541 C1532 1.429 . S
C1541 N1538 1.350 1_565 S
C1541 C1540 1.434 . S
C1542 C1543 1.369 1_565 S
C1542 C1544 1.419 . S
C1542 H1546 0.930 . S
C1543 C1542 1.369 1_545 S
C1543 C1552 1.429 . S
C1544 C1542 1.419 . S
C1544 C1545 1.363 . S
C1544 H1547 0.929 . S
C1545 C1544 1.363 . S
C1545 C1551 1.428 1_565 S
H1546 C1542 0.930 . S
H1547 C1544 0.929 . S
S1548 N1549 1.613 . S
S1548 N1550 1.610 . S
N1549 S1548 1.613 . S
N1549 C1552 1.350 . S
N1550 S1548 1.610 . S
N1550 C1551 1.351 . S
C1551 C1545 1.428 1_545 S
C1551 N1550 1.351 . S
C1551 C1552 1.434 . S
C1552 C1543 1.429 . S
C1552 N1549 1.350 . S
C1552 C1551 1.434 . S
C1553 C1554 1.369 1_554 S
C1553 C1555 1.419 . S
C1553 H1557 0.930 . S
C1554 C1553 1.369 1_556 S
C1554 C1563 1.429 . S
C1555 C1553 1.419 . S
C1555 C1556 1.363 . S
C1555 H1558 0.929 . S
C1556 C1555 1.363 . S
C1556 C1562 1.428 1_554 S
H1557 C1553 0.930 . S
H1558 C1555 0.929 . S
S1559 N1560 1.613 . S
S1559 N1561 1.610 . S
N1560 S1559 1.613 . S
N1560 C1563 1.350 . S
N1561 S1559 1.610 . S
N1561 C1562 1.351 . S
C1562 C1556 1.428 1_556 S
C1562 N1561 1.351 . S
C1562 C1563 1.434 . S
C1563 C1554 1.429 . S
C1563 N1560 1.350 . S
C1563 C1562 1.434 . S
C1564 C1565 1.369 . S
C1564 C1566 1.419 1_565 S
C1564 H1568 0.930 . S
C1565 C1564 1.369 . S
C1565 C1574 1.429 . S
C1566 C1564 1.419 1_545 S
C1566 C1567 1.363 . S
C1566 H1569 0.929 . S
C1567 C1566 1.363 . S
C1567 C1573 1.428 . S
H1568 C1564 0.930 . S
H1569 C1566 0.929 . S
S1570 N1571 1.613 1_545 S
S1570 N1572 1.610 . S
N1571 S1570 1.613 1_565 S
N1571 C1574 1.350 . S
N1572 S1570 1.610 . S
N1572 C1573 1.351 . S
C1573 C1567 1.428 . S
C1573 N1572 1.351 . S
C1573 C1574 1.434 1_545 S
C1574 C1565 1.429 . S
C1574 N1571 1.350 . S
C1574 C1573 1.434 1_565 S
C1575 C1576 1.369 . S
C1575 C1577 1.419 . S
C1575 H1579 0.930 . S
C1576 C1575 1.369 . S
C1576 C1585 1.429 . S
C1577 C1575 1.419 . S
C1577 C1578 1.363 . S
C1577 H1580 0.929 . S
C1578 C1577 1.363 . S
C1578 C1584 1.428 . S
H1579 C1575 0.930 . S
H1580 C1577 0.929 . S
S1581 N1582 1.613 . S
S1581 N1583 1.610 . S
N1582 S1581 1.613 . S
N1582 C1585 1.350 . S
N1583 S1581 1.610 . S
N1583 C1584 1.351 . S
C1584 C1578 1.428 . S
C1584 N1583 1.351 . S
C1584 C1585 1.434 . S
C1585 C1576 1.429 . S
C1585 N1582 1.350 . S
C1585 C1584 1.434 . S
C1586 C1587 1.369 . S
C1586 C1588 1.403 1_565 S
C1586 H1590 0.930 . S
C1587 C1586 1.369 . S
C1587 C1596 1.416 1_565 S
C1588 C1586 1.403 1_545 S
C1588 C1589 1.380 . S
C1588 H1591 0.928 1_545 S
C1589 C1588 1.380 . S
C1589 C1595 1.428 . S
H1590 C1586 0.930 . S
H1591 C1588 0.928 1_565 S
S1592 N1593 1.613 . S
S1592 N1594 1.610 . S
N1593 S1592 1.613 . S
N1593 C1596 1.352 . S
N1594 S1592 1.610 . S
N1594 C1595 1.351 . S
C1595 C1589 1.428 . S
C1595 N1594 1.351 . S
C1595 C1596 1.446 . S
C1596 C1587 1.416 1_545 S
C1596 N1593 1.352 . S
C1596 C1595 1.446 . S
C1597 C1598 1.369 . S
C1597 C1599 1.419 . S
C1597 H1601 0.930 . S
C1598 C1597 1.369 . S
C1598 C1607 1.429 1_554 S
C1599 C1597 1.419 . S
C1599 C1600 1.363 1_554 S
C1599 H1602 0.929 . S
C1600 C1599 1.363 1_556 S
C1600 C1606 1.428 . S
H1601 C1597 0.930 . S
H1602 C1599 0.929 . S
S1603 N1604 1.613 1_545 S
S1603 N1605 1.610 1_545 S
N1604 S1603 1.613 1_565 S
N1604 C1607 1.350 . S
N1605 S1603 1.610 1_565 S
N1605 C1606 1.351 . S
C1606 C1600 1.428 . S
C1606 N1605 1.351 . S
C1606 C1607 1.434 . S
C1607 C1598 1.429 1_556 S
C1607 N1604 1.350 . S
C1607 C1606 1.434 . S
C1608 C1609 1.369 . S
C1608 C1610 1.419 . S
C1608 H1612 0.930 . S
C1609 C1608 1.369 . S
C1609 C1618 1.429 . S
C1610 C1608 1.419 . S
C1610 C1611 1.363 . S
C1610 H1613 0.929 . S
C1611 C1610 1.363 . S
C1611 C1617 1.428 . S
H1612 C1608 0.930 . S
H1613 C1610 0.929 . S
S1614 N1615 1.613 . S
S1614 N1616 1.610 . S
N1615 S1614 1.613 . S
N1615 C1618 1.350 . S
N1616 S1614 1.610 . S
N1616 C1617 1.351 . S
C1617 C1611 1.428 . S
C1617 N1616 1.351 . S
C1617 C1618 1.434 . S
C1618 C1609 1.429 . S
C1618 N1615 1.350 . S
C1618 C1617 1.434 . S
C1619 C1620 1.369 . S
C1619 C1621 1.419 . S
C1619 H1623 0.930 . S
C1620 C1619 1.369 . S
C1620 C1629 1.429 1_556 S
C1621 C1619 1.419 . S
C1621 C1622 1.363 1_556 S
C1621 H1624 0.929 . S
C1622 C1621 1.363 1_554 S
C1622 C1628 1.428 . S
H1623 C1619 0.930 . S
H1624 C1621 0.929 . S
S1625 N1626 1.613 . S
S1625 N1627 1.610 . S
N1626 S1625 1.613 . S
N1626 C1629 1.350 . S
N1627 S1625 1.610 . S
N1627 C1628 1.351 . S
C1628 C1622 1.428 . S
C1628 N1627 1.351 . S
C1628 C1629 1.434 . S
C1629 C1620 1.429 1_554 S
C1629 N1626 1.350 . S
C1629 C1628 1.434 . S
C1630 C1631 1.369 . S
C1630 C1632 1.419 . S
C1630 H1634 0.930 . S
C1631 C1630 1.369 . S
C1631 C1640 1.429 . S
C1632 C1630 1.419 . S
C1632 C1633 1.363 . S
C1632 H1635 0.929 . S
C1633 C1632 1.363 . S
C1633 C1639 1.428 . S
H1634 C1630 0.930 . S
H1635 C1632 0.929 . S
S1636 N1637 1.613 . S
S1636 N1638 1.610 . S
N1637 S1636 1.613 . S
N1637 C1640 1.350 . S
N1638 S1636 1.610 . S
N1638 C1639 1.351 . S
C1639 C1633 1.428 . S
C1639 N1638 1.351 . S
C1639 C1640 1.434 . S
C1640 C1631 1.429 . S
C1640 N1637 1.350 . S
C1640 C1639 1.434 . S
C1641 C1642 1.369 . S
C1641 C1643 1.419 . S
C1641 H1645 0.930 . S
C1642 C1641 1.369 . S
C1642 C1651 1.429 . S
C1643 C1641 1.419 . S
C1643 C1644 1.363 . S
C1643 H1646 0.929 . S
C1644 C1643 1.363 . S
C1644 C1650 1.428 . S
H1645 C1641 0.930 . S
H1646 C1643 0.929 . S
S1647 N1648 1.613 . S
S1647 N1649 1.610 . S
N1648 S1647 1.613 . S
N1648 C1651 1.350 . S
N1649 S1647 1.610 . S
N1649 C1650 1.351 . S
C1650 C1644 1.428 . S
C1650 N1649 1.351 . S
C1650 C1651 1.434 . S
C1651 C1642 1.429 . S
C1651 N1648 1.350 . S
C1651 C1650 1.434 . S
C1652 C1653 1.369 . S
C1652 C1654 1.419 . S
C1652 H1656 0.930 . S
C1653 C1652 1.369 . S
C1653 C1662 1.429 . S
C1654 C1652 1.419 . S
C1654 C1655 1.363 . S
C1654 H1657 0.929 . S
C1655 C1654 1.363 . S
C1655 C1661 1.428 . S
H1656 C1652 0.930 . S
H1657 C1654 0.929 . S
S1658 N1659 1.613 . S
S1658 N1660 1.610 . S
N1659 S1658 1.613 . S
N1659 C1662 1.350 . S
N1660 S1658 1.610 . S
N1660 C1661 1.351 . S
C1661 C1655 1.428 . S
C1661 N1660 1.351 . S
C1661 C1662 1.434 . S
C1662 C1653 1.429 . S
C1662 N1659 1.350 . S
C1662 C1661 1.434 . S
C1663 C1664 1.369 . S
C1663 C1665 1.419 . S
C1663 H1667 0.930 . S
C1664 C1663 1.369 . S
C1664 C1673 1.429 1_556 S
C1665 C1663 1.419 . S
C1665 C1666 1.363 1_556 S
C1665 H1668 0.929 . S
C1666 C1665 1.363 1_554 S
C1666 C1672 1.428 . S
H1667 C1663 0.930 . S
H1668 C1665 0.929 . S
S1669 N1670 1.613 . S
S1669 N1671 1.610 . S
N1670 S1669 1.613 . S
N1670 C1673 1.350 . S
N1671 S1669 1.610 . S
N1671 C1672 1.351 . S
C1672 C1666 1.428 . S
C1672 N1671 1.351 . S
C1672 C1673 1.434 . S
C1673 C1664 1.429 1_554 S
C1673 N1670 1.350 . S
C1673 C1672 1.434 . S
C1674 C1675 1.369 . S
C1674 C1676 1.419 . S
C1674 H1678 0.930 . S
C1675 C1674 1.369 . S
C1675 C1684 1.429 . S
C1676 C1674 1.419 . S
C1676 C1677 1.363 . S
C1676 H1679 0.929 . S
C1677 C1676 1.363 . S
C1677 C1683 1.428 . S
H1678 C1674 0.930 . S
H1679 C1676 0.929 . S
S1680 N1681 1.613 . S
S1680 N1682 1.610 . S
N1681 S1680 1.613 . S
N1681 C1684 1.350 . S
N1682 S1680 1.610 . S
N1682 C1683 1.351 . S
C1683 C1677 1.428 . S
C1683 N1682 1.351 . S
C1683 C1684 1.434 . S
C1684 C1675 1.429 . S
C1684 N1681 1.350 . S
C1684 C1683 1.434 . S
C1685 C1686 1.369 . S
C1685 C1687 1.419 . S
C1685 H1689 0.930 . S
C1686 C1685 1.369 . S
C1686 C1695 1.429 . S
C1687 C1685 1.419 . S
C1687 C1688 1.363 . S
C1687 H1690 0.929 . S
C1688 C1687 1.363 . S
C1688 C1694 1.428 . S
H1689 C1685 0.930 . S
H1690 C1687 0.929 . S
S1691 N1692 1.613 . S
S1691 N1693 1.610 . S
N1692 S1691 1.613 . S
N1692 C1695 1.350 . S
N1693 S1691 1.610 . S
N1693 C1694 1.351 . S
C1694 C1688 1.428 . S
C1694 N1693 1.351 . S
C1694 C1695 1.434 . S
C1695 C1686 1.429 . S
C1695 N1692 1.350 . S
C1695 C1694 1.434 . S
C641 C2 0.749 . S
C643 C559 0.765 . S
C652 C22 0.754 . S
C654 C179 0.763 . S
C663 C42 0.753 . S
C665 C519 0.759 . S
C674 C219 0.763 . S
C676 C62 0.756 . S
C685 C82 0.752 . S
C687 C599 0.765 . S
C696 C299 0.749 . S
C698 C102 0.760 . S
C707 C639 0.763 . S
C709 C122 0.752 . S
C718 C142 0.749 . S
C720 C259 0.764 . S
C729 C161 0.765 . S
C731 C398 0.750 . S
C740 C181 0.752 . S
C742 C18 0.765 . S
C751 C358 0.755 . S
C753 C201 0.755 . S
C762 C58 0.747 . S
C764 C221 0.763 . S
C773 C241 0.752 . S
C775 C438 0.758 . S
C784 C261 0.758 . S
C786 C138 0.752 . S
C795 C281 0.766 . S
C797 C478 0.750 . S
C806 C98 0.765 . S
C808 C301 0.751 . S
C817 C239 0.759 . S
C819 C322 0.754 . S
C828 C499 0.755 . S
C830 C342 0.755 . S
C839 C199 0.748 . S
C841 C362 0.765 . S
C850 C382 0.749 . S
C852 C539 0.762 . S
C861 C279 0.751 . S
C863 C402 0.759 . S
C872 C619 0.760 . S
C874 C422 0.753 . S
C883 C319 0.757 . S
C885 C442 0.755 . S
C894 C462 0.753 . S
C896 C579 0.757 . S
C905 C481 0.765 . S
C907 C78 0.755 . S
C916 C501 0.766 . S
C918 C338 0.751 . S
C927 C521 0.752 . S
C929 C38 0.758 . S
C938 C541 0.765 . S
C940 C378 0.750 . S
C949 C118 0.748 . S
C951 C561 0.762 . S
C960 C458 0.766 . S
C962 C581 0.754 . S
C971 C601 0.750 . S
C973 C158 0.762 . S
C982 C621 0.749 . S
C984 C418 0.762 . S
C993 C9 1.598 . S
C995 C369 1.600 . S
C1004 C389 1.601 . S
C1006 C29 1.599 . S
C1015 C49 1.600 . S
C1017 C329 1.595 . S
C1026 C69 1.596 . S
C1028 C349 1.602 . S
C1037 C449 1.598 . S
C1039 C89 1.600 . S
C1048 C109 1.595 . S
C1050 C469 1.599 . S
C1059 C409 1.595 . S
C1061 C129 1.602 . S
C1070 C149 1.594 . S
C1072 C429 1.603 . S
C1081 C528 1.595 . S
C1083 C168 1.600 . S
C1092 C188 1.595 . S
C1094 C548 1.602 . S
C1103 C208 1.594 . S
C1105 C488 1.600 . S
C1114 C228 1.594 . S
C1116 C508 1.600 . S
C1125 C608 1.598 . S
C1127 C248 1.596 . S
C1136 C628 1.600 . S
C1138 C268 1.598 . S
C1147 C288 1.601 . S
C1149 C568 1.597 . S
C1158 C308 1.594 . S
C1160 C588 1.603 . S
C1169 C19 1.886 . S
C1171 C498 1.887 . S
C1180 C198 1.882 . S
C1182 C39 1.889 . S
C1191 C59 1.887 . S
C1193 C538 1.885 . S
C1202 C79 1.886 . S
C1204 C238 1.886 . S
C1213 C578 1.882 . S
C1215 C99 1.890 . S
C1224 C278 1.890 . S
C1226 C119 1.883 . S
C1235 C139 1.884 . S
C1237 C618 1.888 . S
C1246 C159 1.890 . S
C1248 C318 1.883 . S
C1257 C339 1.888 . S
C1259 C178 1.884 . S
C1268 C379 1.884 . S
C1270 C218 1.887 . S
C1279 C419 1.882 . S
C1281 C258 1.889 . S
C1290 C298 1.886 . S
C1292 C459 1.885 . S
C1301 C359 1.884 . S
C1303 C518 1.887 . S
C1312 C399 1.890 . S
C1314 C558 1.883 . S
C1323 C598 1.882 . S
C1325 C439 1.889 . S
C1334 C638 1.888 . S
C1336 C479 1.885 . S
C1345 C8 2.780 . S
C1347 C108 2.786 . S
C1356 C128 2.784 . S
C1358 C28 2.783 . S
C1367 C148 2.784 . S
C1369 C48 2.784 . S
C1378 C88 2.780 . S
C1380 C68 2.786 . S
C1389 C169 2.783 . S
C1391 C269 2.783 . S
C1400 C189 2.781 . S
C1402 C289 2.786 . S
C1411 C309 2.781 . S
C1413 C209 2.785 . S
C1422 C229 2.780 . S
C1424 C249 2.786 . S
C1433 C328 2.780 . S
C1435 C428 2.786 . S
C1444 C348 2.786 . S
C1446 C448 2.782 . S
C1455 C368 2.787 . S
C1457 C468 2.781 . S
C1466 C408 2.786 . S
C1468 C388 2.781 . S
C1477 C489 2.780 . S
C1479 C589 2.786 . S
C1488 C509 2.780 . S
C1490 C609 2.786 . S
C1499 C629 2.782 . S
C1501 C529 2.784 . S
C1510 C549 2.786 . S
C1512 C569 2.781 . S
C1521 C1 1.422 . S
C1523 C81 1.429 . S
C1532 C21 1.430 . S
C1534 C101 1.423 . S
C1543 C121 1.429 . S
C1545 C41 1.422 . S
C1554 C141 1.422 . S
C1556 C61 1.429 . S
C1565 C162 1.421 . S
C1567 C242 1.425 . S
C1576 C262 1.420 . S
C1578 C182 1.426 . S
C1587 C282 1.421 . S
C1589 C202 1.426 . S
C1598 C302 1.429 . S
C1600 C222 1.425 . S
C1609 C321 1.428 . S
C1611 C401 1.422 . S
C1620 C421 1.427 . S
C1622 C341 1.421 . S
C1631 C361 1.430 . S
C1633 C441 1.427 . S
C1642 C461 1.420 . S
C1644 C381 1.427 . S
C1653 C562 1.430 . S
C1655 C482 1.423 . S
C1664 C502 1.429 . S
C1666 C582 1.426 . S
C1675 C522 1.422 . S
C1677 C602 1.425 . S
C1686 C542 1.430 . S
C1688 C622 1.424 . S
