# Generated by pormake.
# Topology bcg, (8)-cn, num edge types: 1
# Building blocks:
#     Node 0, Type 0, BuildingBlock: TAGTUT_clean_sbu_1, # of connection points: 8
#     Node 1, Type 0, BuildingBlock: TAGTUT_clean_sbu_1, # of connection points: 8
#     Node 2, Type 0, BuildingBlock: TAGTUT_clean_sbu_1, # of connection points: 8
#     Node 3, Type 0, BuildingBlock: TAGTUT_clean_sbu_1, # of connection points: 8
#     Edge 4, Type (0, 0), BuildingBlock: FUNLAD_clean_linker_1, # of connection points: 2
#     Edge 5, Type (0, 0), BuildingBlock: FUNLAD_clean_linker_1, # of connection points: 2
#     Edge 6, Type (0, 0), BuildingBlock: FUNLAD_clean_linker_1, # of connection points: 2
#     Edge 7, Type (0, 0), BuildingBlock: FUNLAD_clean_linker_1, # of connection points: 2
#     Edge 8, Type (0, 0), BuildingBlock: FUNLAD_clean_linker_1, # of connection points: 2
#     Edge 9, Type (0, 0), BuildingBlock: FUNLAD_clean_linker_1, # of connection points: 2
#     Edge 10, Type (0, 0), BuildingBlock: FUNLAD_clean_linker_1, # of connection points: 2
#     Edge 11, Type (0, 0), BuildingBlock: FUNLAD_clean_linker_1, # of connection points: 2
#     Edge 12, Type (0, 0), BuildingBlock: FUNLAD_clean_linker_1, # of connection points: 2
#     Edge 13, Type (0, 0), BuildingBlock: FUNLAD_clean_linker_1, # of connection points: 2
#     Edge 14, Type (0, 0), BuildingBlock: FUNLAD_clean_linker_1, # of connection points: 2
#     Edge 15, Type (0, 0), BuildingBlock: FUNLAD_clean_linker_1, # of connection points: 2
#     Edge 16, Type (0, 0), BuildingBlock: FUNLAD_clean_linker_1, # of connection points: 2
#     Edge 17, Type (0, 0), BuildingBlock: FUNLAD_clean_linker_1, # of connection points: 2
#     Edge 18, Type (0, 0), BuildingBlock: FUNLAD_clean_linker_1, # of connection points: 2
#     Edge 19, Type (0, 0), BuildingBlock: FUNLAD_clean_linker_1, # of connection points: 2
# Relax obj value: 0.095
# Max RMSD: 0.205
# Mean RMSD: 0.205
data_MOF--net-bcg--node1-TAGTUT_clean_sbu_1--edge1-FUNLAD_clean_linker_1
_symmetry_space_group_name_H-M    P1
_symmetry_Int_Tables_number       1
_symmetry_cell_setting            triclinic
loop_
_symmetry_equiv_pos_as_xyz
'x, y, z'
_cell_length_a     15.768255
_cell_length_b     28.159095
_cell_length_c     34.335172
_cell_angle_alpha  85.340414
_cell_angle_beta   90.026007
_cell_angle_gamma 89.761776
loop_
_atom_site_label
_atom_site_type_symbol
_atom_site_fract_x
_atom_site_fract_y
_atom_site_fract_z
_atom_type_partial_charge
C0 C 0.17909 0.22225 0.15774 0.0
C1 C 0.40858 0.2472 0.09627 0.0
C2 C 0.27026 0.34729 0.98813 0.0
Mg3 Mg 0.2685 0.17403 0.09009 0.0
O4 O 0.20523 0.22027 0.06011 0.0
Mg5 Mg 0.21106 0.28822 0.07291 0.0
Mg6 Mg 0.2375 0.23113 0.00374 0.0
O7 O 0.26998 0.24185 0.94746 0.0
Mg8 Mg 0.21186 0.29014 0.91763 0.0
Mg9 Mg 0.25892 0.17425 0.93452 0.0
C10 C 0.21217 0.11494 0.01997 0.0
C11 C 0.42422 0.18993 0.99011 0.0
O12 O 0.16909 0.26077 0.13544 0.0
O13 O 0.21461 0.18473 0.14642 0.0
O14 O 0.35048 0.27933 0.09382 0.0
O15 O 0.3939 0.20359 0.09106 0.0
O16 O 0.23124 0.11386 0.0565 0.0
O17 O 0.21566 0.15371 -0.00228 0.0
C18 C 0.04892 0.27063 0.01615 0.0
O19 O 0.10117 0.24942 -0.0049 0.0
O20 O 0.072 0.28904 0.04765 0.0
O21 O 0.29798 0.20093 0.8713 0.0
O22 O 0.26425 0.2789 0.86144 0.0
O23 O 0.11854 0.18621 0.91463 0.0
C24 C 0.29254 0.24001 0.84934 0.0
O25 O 0.08508 0.26372 0.91569 0.0
O26 O 0.25446 0.34893 0.95128 0.0
C27 C 0.06461 0.22057 0.91117 0.0
O28 O 0.25864 0.30894 0.01023 0.0
O29 O 0.37411 0.21204 0.01168 0.0
O30 O 0.39871 0.17167 0.95886 0.0
C31 C 0.73203 0.71688 0.14883 0.0
C32 C 0.94414 0.74183 0.07712 0.0
C33 C 0.78879 0.84381 0.97696 0.0
Mg34 Mg 0.80108 0.66958 0.0757 0.0
O35 O 0.73155 0.7168 0.05023 0.0
Mg36 Mg 0.74507 0.7844 0.06336 0.0
Mg37 Mg 0.74842 0.72811 0.9924 0.0
O38 O 0.76885 0.73866 0.93502 0.0
Mg39 Mg 0.72241 0.79045 0.90506 0.0
Mg40 Mg 0.75214 0.67182 0.92126 0.0
C41 C 0.72082 0.61223 0.00831 0.0
C42 C 0.92984 0.68345 0.96826 0.0
O43 O 0.71885 0.75625 0.12787 0.0
O44 O 0.76216 0.6795 0.13485 0.0
O45 O 0.88609 0.77373 0.07663 0.0
O46 O 0.92827 0.69831 0.07185 0.0
O47 O 0.75132 0.61061 0.04326 0.0
O48 O 0.71857 0.65126 0.98626 0.0
C49 C 0.5662 0.77062 0.0174 0.0
O50 O 0.608 0.74839 0.99237 0.0
O51 O 0.60273 0.78837 0.04638 0.0
O52 O 0.78683 0.69807 0.85704 0.0
O53 O 0.77733 0.77811 0.84892 0.0
O54 O 0.61222 0.68913 0.90521 0.0
C55 C 0.79391 0.73768 0.83592 0.0
O56 O 0.5923 0.76847 0.90343 0.0
O57 O 0.77194 0.84666 0.94016 0.0
C58 C 0.56446 0.72616 0.90064 0.0
O59 O 0.77583 0.80533 -0.00137 0.0
O60 O 0.88832 0.70764 0.99206 0.0
O61 O 0.89328 0.66421 0.94 0.0
C62 C 0.19071 0.7906 0.32923 0.0
C63 C 0.41861 0.75928 0.38814 0.0
C64 C 0.28137 0.66946 0.50017 0.0
Mg65 Mg 0.28715 0.83713 0.39578 0.0
O66 O 0.21631 0.79491 0.42584 0.0
Mg67 Mg 0.21948 0.72605 0.41481 0.0
Mg68 Mg 0.24749 0.78621 0.48236 0.0
O69 O 0.28089 0.77738 0.53838 0.0
Mg70 Mg 0.22554 0.72942 0.56948 0.0
Mg71 Mg 0.26953 0.84528 0.55028 0.0
C72 C 0.23162 0.90217 0.46328 0.0
C73 C 0.43332 0.82937 0.4939 0.0
O74 O 0.17748 0.75287 0.35208 0.0
O75 O 0.23018 0.82713 0.33991 0.0
O76 O 0.35688 0.73005 0.39243 0.0
O77 O 0.41006 0.80351 0.39318 0.0
O78 O 0.25952 0.89992 0.42823 0.0
O79 O 0.22183 0.86456 0.48675 0.0
C80 C 0.05909 0.74677 0.47171 0.0
O81 O 0.11161 0.76799 0.49244 0.0
O82 O 0.08166 0.7279 0.44038 0.0
O83 O 0.31392 0.81981 0.61344 0.0
O84 O 0.28316 0.74169 0.62419 0.0
O85 O 0.13099 0.83315 0.57276 0.0
C86 C 0.31174 0.78074 0.63561 0.0
O87 O 0.09817 0.75553 0.5736 0.0
O88 O 0.26647 0.66904 0.53702 0.0
C89 C 0.07782 0.79882 0.57803 0.0
O90 O 0.26982 0.70744 0.47747 0.0
O91 O 0.38407 0.80579 0.47312 0.0
O92 O 0.4073 0.84841 0.52469 0.0
C93 C 0.70722 0.2673 0.34718 0.0
C94 C 0.93138 0.2537 0.415 0.0
C95 C 0.77638 0.15425 0.52424 0.0
Mg96 Mg 0.78165 0.32288 0.41442 0.0
O97 O 0.72134 0.27561 0.44434 0.0
Mg98 Mg 0.73751 0.20688 0.43506 0.0
Mg99 Mg 0.74131 0.2698 0.50181 0.0
O100 O 0.76174 0.26436 0.55926 0.0
Mg101 Mg 0.70687 0.21654 0.59028 0.0
Mg102 Mg 0.74265 0.33293 0.56852 0.0
C103 C 0.70445 0.38504 0.47913 0.0
C104 C 0.92173 0.31623 0.52278 0.0
O105 O 0.70165 0.22936 0.3705 0.0
O106 O 0.73507 0.30695 0.35786 0.0
O107 O 0.87709 0.21989 0.41831 0.0
O108 O 0.91098 0.29733 0.41764 0.0
O109 O 0.73011 0.38425 0.44357 0.0
O110 O 0.70915 0.34777 0.50318 0.0
C111 C 0.56 0.22265 0.48167 0.0
O112 O 0.60147 0.24864 0.50401 0.0
O113 O 0.5966 0.20152 0.4544 0.0
O114 O 0.77499 0.3117 0.63383 0.0
O115 O 0.75814 0.23243 0.64619 0.0
O116 O 0.6014 0.31911 0.58415 0.0
C117 C 0.77786 0.27352 0.65699 0.0
O118 O 0.57788 0.2403 0.58793 0.0
O119 O 0.75135 0.15535 0.55978 0.0
C120 C 0.55159 0.28324 0.58887 0.0
O121 O 0.77455 0.19168 0.50021 0.0
O122 O 0.88008 0.29089 0.50002 0.0
O123 O 0.88512 0.33756 0.55005 0.0
H124 H 0.52712 0.20462 0.02957 0.0
C125 C 0.51421 0.19108 0.00136 0.0
H126 H 0.56819 0.17454 0.94805 0.0
H127 H 0.85111 0.33058 0.96748 0.0
H128 H 0.79085 0.35423 0.90383 0.0
H129 H 0.67246 0.30939 0.87784 0.0
H130 H 0.61269 0.24137 0.91549 0.0
C131 C 0.57962 0.18533 0.97724 0.0
C132 C 0.6648 0.20378 0.98793 0.0
C133 C 0.70019 0.24302 0.96505 0.0
C134 C 0.77078 0.26781 0.97935 0.0
C135 C 0.80065 0.30894 0.95712 0.0
C136 C 0.76583 0.32334 0.92078 0.0
C137 C 0.6991 0.29816 0.90618 0.0
C138 C 0.66546 0.25899 0.92818 0.0
H139 H 0.9494 0.25453 0.97546 0.0
C140 C 0.95972 0.26798 0.0039 0.0
H141 H 0.90144 0.28226 0.05681 0.0
H142 H 0.62275 0.1249 0.03554 0.0
H143 H 0.68691 0.09884 0.09794 0.0
H144 H 0.80769 0.14229 0.12335 0.0
H145 H 0.86571 0.21143 0.08651 0.0
C146 C 0.89252 0.27188 0.02731 0.0
C147 C 0.80937 0.25173 0.01552 0.0
C148 C 0.77519 0.21169 0.03794 0.0
C149 C 0.70399 0.18728 0.02381 0.0
C150 C 0.67417 0.14595 0.04579 0.0
C151 C 0.71102 0.13028 0.08142 0.0
C152 C 0.77917 0.15466 0.09566 0.0
C153 C 0.81173 0.19453 0.07415 0.0
H154 H 0.05861 0.65706 0.95458 0.0
C155 C 0.02353 0.682 0.97106 0.0
H156 H 0.0311 0.74144 0.0047 0.0
H157 H 0.41251 0.69067 0.05645 0.0
H158 H 0.3438 0.63847 0.10637 0.0
H159 H 0.19161 0.6199 0.10185 0.0
H160 H 0.10586 0.65573 0.04839 0.0
C161 C 0.06564 0.71453 0.99019 0.0
C162 C 0.1595 0.71917 0.98924 0.0
C163 C 0.20921 0.69693 0.01993 0.0
C164 C 0.29754 0.70673 0.02198 0.0
C165 C 0.34529 0.68451 0.05335 0.0
C166 C 0.30678 0.65414 0.08208 0.0
C167 C 0.22092 0.64397 0.07968 0.0
C168 C 0.17245 0.66483 0.04893 0.0
H169 H 0.43739 0.79227 0.03524 0.0
C170 C 0.4724 0.77162 0.01515 0.0
H171 H 0.46409 0.72206 0.97223 0.0
H172 H 0.08316 0.76618 0.92565 0.0
H173 H 0.15056 0.82068 0.87693 0.0
H174 H 0.30197 0.84101 0.88243 0.0
H175 H 0.38829 0.80427 0.93542 0.0
C176 C 0.42998 0.74362 0.9919 0.0
C177 C 0.33608 0.73845 0.99305 0.0
C178 C 0.28605 0.76111 0.96267 0.0
C179 C 0.19793 0.75102 0.96046 0.0
C180 C 0.15 0.77324 0.92915 0.0
C181 C 0.18781 0.80483 0.90112 0.0
C182 C 0.27318 0.81601 0.90407 0.0
C183 C 0.32209 0.79445 0.93441 0.0
H184 H 0.5378 0.81702 0.45422 0.0
C185 C 0.52341 0.8293 0.48275 0.0
H186 H 0.57423 0.84313 0.53739 0.0
H187 H 0.85737 0.68665 0.51512 0.0
H188 H 0.78829 0.65694 0.57522 0.0
H189 H 0.6662 0.69966 0.60089 0.0
H190 H 0.61121 0.77137 0.56616 0.0
C191 C 0.58738 0.83396 0.50787 0.0
C192 C 0.67318 0.81572 0.49796 0.0
C193 C 0.70558 0.7742 0.51913 0.0
C194 C 0.7781 0.75058 0.50515 0.0
C195 C 0.80538 0.70739 0.52547 0.0
C196 C 0.76566 0.6896 0.55978 0.0
C197 C 0.69675 0.71352 0.57414 0.0
C198 C 0.66593 0.75485 0.55388 0.0
H199 H 0.9592 0.76083 0.51311 0.0
C200 C 0.96999 0.74971 0.48388 0.0
H201 H 0.91397 0.74185 0.42916 0.0
H202 H 0.63627 0.89891 0.45469 0.0
H203 H 0.71244 0.93276 0.39765 0.0
H204 H 0.83896 0.89261 0.37356 0.0
H205 H 0.89026 0.81865 0.4062 0.0
C206 C 0.90392 0.74934 0.45936 0.0
C207 C 0.82114 0.76996 0.47116 0.0
C208 C 0.79083 0.81276 0.451 0.0
C209 C 0.71724 0.83576 0.46458 0.0
C210 C 0.6903 0.87933 0.44485 0.0
C211 C 0.73392 0.8994 0.41235 0.0
C212 C 0.80522 0.87682 0.39882 0.0
C213 C 0.83381 0.83415 0.41784 0.0
H214 H 0.05131 0.34202 0.53537 0.0
C215 C 0.01559 0.31636 0.52006 0.0
H216 H 0.02159 0.25444 0.48915 0.0
H217 H 0.40587 0.30785 0.43895 0.0
H218 H 0.33772 0.36087 0.38911 0.0
H219 H 0.1844 0.37808 0.39212 0.0
H220 H 0.09748 0.34064 0.44425 0.0
C221 C 0.05691 0.282 0.50236 0.0
C222 C 0.15084 0.2764 0.50324 0.0
C223 C 0.20119 0.29994 0.47351 0.0
C224 C 0.28999 0.29081 0.4722 0.0
C225 C 0.33837 0.31389 0.44158 0.0
C226 C 0.30009 0.34456 0.41285 0.0
C227 C 0.21366 0.35399 0.41442 0.0
C228 C 0.16452 0.33223 0.44445 0.0
H229 H 0.43207 0.19473 0.46934 0.0
C230 C 0.46626 0.22088 0.48478 0.0
H231 H 0.45617 0.28236 0.51593 0.0
H232 H 0.07246 0.22414 0.56341 0.0
H233 H 0.13943 0.16728 0.61086 0.0
H234 H 0.29271 0.15027 0.60762 0.0
H235 H 0.38058 0.19088 0.5573 0.0
C236 C 0.42267 0.25427 0.50254 0.0
C237 C 0.32846 0.25837 0.50074 0.0
C238 C 0.27767 0.23367 0.52968 0.0
C239 C 0.18889 0.24288 0.53109 0.0
C240 C 0.13998 0.21816 0.56073 0.0
C241 C 0.17754 0.18534 0.58808 0.0
C242 C 0.26395 0.17591 0.58636 0.0
C243 C 0.31372 0.19963 0.5575 0.0
H244 H 0.646 0.57446 0.96624 0.0
C245 C 0.67192 0.57131 -0.0043 0.0
H246 H 0.66691 0.53386 0.05134 0.0
H247 H 0.28778 0.46836 0.03586 0.0
H248 H 0.28167 0.51828 0.09003 0.0
H249 H 0.40821 0.56154 0.10975 0.0
H250 H 0.53975 0.55762 0.07413 0.0
C251 C 0.64466 0.53577 0.02131 0.0
C252 C 0.57164 0.50466 0.01201 0.0
C253 C 0.49473 0.50707 0.03344 0.0
C254 C 0.42244 0.48047 0.02308 0.0
C255 C 0.34546 0.48601 0.0435 0.0
C256 C 0.34081 0.51492 0.07445 0.0
C257 C 0.41183 0.53959 0.08538 0.0
C258 C 0.48748 0.53654 0.06484 0.0
H259 H 0.3391 0.38154 0.03431 0.0
C260 C 0.31877 0.38644 0.00399 0.0
H261 H 0.33528 0.42559 0.94963 0.0
H262 H 0.7118 0.48638 0.96868 0.0
H263 H 0.72 0.43382 0.91639 0.0
H264 H 0.59553 0.38743 0.89853 0.0
H265 H 0.46273 0.39296 0.933 0.0
C266 C 0.35273 0.42202 0.98035 0.0
C267 C 0.42775 0.45004 0.9922 0.0
C268 C 0.50566 0.44634 0.97171 0.0
C269 C 0.57747 0.47349 0.98169 0.0
C270 C 0.65469 0.46784 0.9615 0.0
C271 C 0.66057 0.43735 0.93167 0.0
C272 C 0.59059 0.41119 0.92167 0.0
C273 C 0.51426 0.41511 0.94155 0.0
H274 H 0.63582 0.42607 0.52153 0.0
C275 C 0.65718 0.42711 0.49137 0.0
H276 H 0.64616 0.46197 0.43491 0.0
H277 H 0.28101 0.54699 0.45635 0.0
H278 H 0.26001 0.49417 0.405 0.0
H279 H 0.37605 0.44271 0.3849 0.0
H280 H 0.51222 0.44161 0.41735 0.0
C281 C 0.62833 0.46215 0.46546 0.0
C282 C 0.56074 0.49681 0.47572 0.0
C283 C 0.48092 0.49717 0.45629 0.0
C284 C 0.41452 0.52828 0.46691 0.0
C285 C 0.33455 0.52574 0.44843 0.0
C286 C 0.32131 0.4952 0.41912 0.0
C287 C 0.38647 0.46594 0.408 0.0
C288 C 0.46487 0.46614 0.42665 0.0
H289 H 0.34445 0.63166 0.45402 0.0
C290 C 0.32665 0.62857 0.4847 0.0
H291 H 0.34448 0.59077 0.53961 0.0
H292 H 0.70883 0.51091 0.51467 0.0
H293 H 0.73134 0.56561 0.56455 0.0
H294 H 0.61606 0.61819 0.58386 0.0
H295 H 0.47877 0.61771 0.55262 0.0
C296 C 0.3592 0.59254 0.50861 0.0
C297 C 0.42837 0.56018 0.49619 0.0
C298 C 0.50892 0.56067 0.51489 0.0
C299 C 0.57511 0.52938 0.50444 0.0
C300 C 0.65549 0.53241 0.52248 0.0
C301 C 0.66961 0.56403 0.55091 0.0
C302 C 0.60485 0.59381 0.56166 0.0
C303 C 0.52581 0.59274 0.54368 0.0
H304 H 0.15235 0.07661 0.97382 0.0
C305 C 0.17028 0.07349 0.00452 0.0
H306 H 0.15293 0.03534 0.05934 0.0
H307 H 0.78548 0.96463 0.02359 0.0
H308 H 0.7618 0.01477 0.07667 0.0
H309 H 0.87871 0.06117 0.10219 0.0
H310 H 0.01936 0.05837 0.0745 0.0
C311 C 0.13888 0.03731 0.02826 0.0
C312 C 0.07066 1.00571 0.01475 0.0
C313 C 0.98867 0.00697 0.03192 0.0
C314 C 0.92133 0.9795 0.01767 0.0
C315 C 0.83948 0.98336 0.03413 0.0
C316 C 0.82476 0.01238 0.0644 0.0
C317 C 0.89051 0.03861 0.07869 0.0
C318 C 0.97133 0.03639 0.0626 0.0
H319 H 0.85179 0.87787 0.02481 0.0
C320 C 0.83432 0.883 0.99411 0.0
H321 H 0.85288 0.92416 0.94079 0.0
H322 H 0.22171 0.99036 0.97848 0.0
H323 H 0.24403 0.94304 0.92347 0.0
H324 H 0.1257 0.89954 0.89615 0.0
H325 H 0.98628 0.89985 0.92528 0.0
C326 C 0.86711 0.92005 0.97185 0.0
C327 C 0.93613 0.95019 0.98663 0.0
C328 C 0.01798 0.94919 0.96934 0.0
C329 C 0.08553 0.97619 0.9839 0.0
C330 C 0.16737 0.9724 0.96742 0.0
C331 C 0.18133 0.94495 0.9361 0.0
C332 C 0.11492 0.92003 0.92096 0.0
C333 C 0.03464 0.92115 0.93772 0.0
H334 H 0.80454 0.07723 0.53064 0.0
C335 C 0.81981 0.1104 0.51372 0.0
H336 H 0.90935 0.14561 0.47585 0.0
H337 H 0.15449 0.97821 0.55987 0.0
H338 H 0.1462 0.02597 0.61555 0.0
H339 H 0.04974 0.09518 0.6148 0.0
H340 H 0.96191 0.11764 0.55833 0.0
C341 C 0.89013 0.11225 0.49138 0.0
C342 C 0.95011 0.0709 0.4915 0.0
C343 C 0.00313 0.05906 0.52441 0.0
C344 C 0.05953 0.01932 0.52476 0.0
C345 C 0.11071 0.00802 0.55814 0.0
C346 C 0.10673 0.03517 0.59023 0.0
C347 C 0.0525 0.0742 0.58978 0.0
C348 C 0.00176 0.08643 0.55726 0.0
H349 H 0.21283 0.98018 0.45583 0.0
C350 C 0.19237 0.94778 0.47251 0.0
H351 H 0.09603 0.91617 0.50861 0.0
H352 H 0.86208 0.0856 0.42312 0.0
H353 H 0.86871 0.03707 0.36784 0.0
H354 H 0.96273 0.96674 0.36921 0.0
H355 H 0.05209 0.94498 0.42534 0.0
C356 C 0.12003 0.94867 0.49332 0.0
C357 C 0.06423 0.99187 0.49204 0.0
C358 C 0.0117 1.00393 0.459 0.0
C359 C 0.9557 0.04388 0.45855 0.0
C360 C 0.90499 0.0554 0.42505 0.0
C361 C 0.90809 0.02783 0.39318 0.0
C362 C 0.96112 0.98825 0.39393 0.0
C363 C 0.01244 0.97628 0.42633 0.0
H364 H 0.63419 0.23741 0.30051 0.0
C365 C 0.67959 0.26485 0.30652 0.0
H366 H 0.75586 0.3215 0.28293 0.0
H367 H 0.56204 0.18977 0.1521 0.0
H368 H 0.65183 0.12512 0.17748 0.0
H369 H 0.75812 0.13691 0.22852 0.0
H370 H 0.77224 0.21391 0.25534 0.0
C371 C 0.70969 0.29448 0.27703 0.0
C372 C 0.67557 0.29296 0.23668 0.0
C373 C 0.67327 0.24929 0.21889 0.0
C374 C 0.61648 0.24367 0.18745 0.0
C375 C 0.60761 0.19767 0.17399 0.0
C376 C 0.65849 0.15976 0.18869 0.0
C377 C 0.71805 0.16631 0.21753 0.0
C378 C 0.72519 0.21043 0.23278 0.0
H379 H 0.54891 0.24637 0.10004 0.0
C380 C 0.49079 0.25885 0.11288 0.0
H381 H 0.43172 0.2887 0.15997 0.0
H382 H 0.68328 0.38501 0.25745 0.0
H383 H 0.61283 0.45385 0.2248 0.0
H384 H 0.52393 0.44592 0.16651 0.0
H385 H 0.504 0.36868 0.14099 0.0
C386 C 0.49136 0.27734 0.14765 0.0
C387 C 0.56823 0.28352 0.1717 0.0
C388 C 0.58293 0.32911 0.18503 0.0
C389 C 0.63575 0.33383 0.21799 0.0
C390 C 0.64471 0.37935 0.23224 0.0
C391 C 0.60466 0.41925 0.21371 0.0
C392 C 0.55451 0.41479 0.18094 0.0
C393 C 0.5433 0.3703 0.16672 0.0
H394 H 0.76135 0.6915 0.20961 0.0
C395 C 0.72098 0.71562 0.19148 0.0
H396 H 0.62701 0.76871 0.18964 0.0
H397 H 0.63031 0.67677 0.37668 0.0
H398 H 0.62925 0.59663 0.35399 0.0
H399 H 0.63126 0.58559 0.28337 0.0
H400 H 0.64015 0.65336 0.23554 0.0
C401 C 0.6657 0.74407 0.20816 0.0
C402 C 0.66164 0.74773 0.25129 0.0
C403 C 0.64798 0.7072 0.27808 0.0
C404 C 0.63712 0.71349 0.31842 0.0
C405 C 0.63374 0.67304 0.34555 0.0
C406 C 0.63316 0.6273 0.33292 0.0
C407 C 0.63479 0.62111 0.29317 0.0
C408 C 0.64131 0.66047 0.26593 0.0
H409 H 0.48398 0.71213 0.35164 0.0
C410 C 0.49445 0.74259 0.36847 0.0
H411 H 0.5743 0.79818 0.38105 0.0
H412 H 0.71126 0.83097 0.21078 0.0
H413 H 0.72065 0.90875 0.23599 0.0
H414 H 0.68799 0.91924 0.30504 0.0
H415 H 0.64666 0.8521 0.34922 0.0
C416 C 0.56711 0.76743 0.36435 0.0
C417 C 0.6254 0.75982 0.33082 0.0
C418 C 0.65115 0.79948 0.30568 0.0
C419 C 0.66958 0.79338 0.26581 0.0
C420 C 0.69476 0.83363 0.24111 0.0
C421 C 0.70091 0.87847 0.25525 0.0
C422 C 0.68241 0.8844 0.2941 0.0
C423 C 0.65765 0.84553 0.31912 0.0
H424 H 0.36597 0.81455 0.68562 0.0
C425 C 0.33995 0.78155 0.67642 0.0
H426 H 0.30449 0.71063 0.69389 0.0
H427 H 0.57787 0.78684 0.82582 0.0
H428 H 0.67672 0.79877 0.7729 0.0
H429 H 0.63729 0.78181 0.70576 0.0
H430 H 0.49593 0.75482 0.6917 0.0
C431 C 0.33336 0.74321 0.70238 0.0
C432 C 0.36259 0.74448 0.74349 0.0
C433 C 0.44741 0.7573 0.75141 0.0
C434 C 0.47225 0.76388 0.79029 0.0
C435 C 0.55565 0.77986 0.7971 0.0
C436 C 0.61365 0.78685 0.76677 0.0
C437 C 0.59114 0.77757 0.7291 0.0
C438 C 0.50921 0.76273 0.72136 0.0
H439 H 0.46627 0.68481 0.87387 0.0
C440 C 0.48169 0.72042 0.88173 0.0
H441 H 0.46126 0.79387 0.86868 0.0
H442 H 0.19626 0.7163 0.73923 0.0
H443 H 0.10334 0.69459 0.7943 0.0
H444 H 0.15286 0.69737 0.86189 0.0
H445 H 0.29608 0.72269 0.87542 0.0
C446 C 0.44445 0.75802 0.86202 0.0
C447 C 0.41501 0.75309 0.82159 0.0
C448 C 0.33312 0.73594 0.81415 0.0
C449 C 0.30576 0.73285 0.77494 0.0
C450 C 0.22144 0.71834 0.76835 0.0
C451 C 0.16725 0.70588 0.79959 0.0
C452 C 0.19514 0.70747 0.83781 0.0
C453 C 0.27718 0.72225 0.84517 0.0
H454 H 0.34821 0.20712 0.79937 0.0
C455 C 0.31772 0.23925 0.80821 0.0
H456 H 0.27076 0.30792 0.78947 0.0
H457 H 0.55855 0.2295 0.66408 0.0
H458 H 0.65574 0.22556 0.71801 0.0
H459 H 0.6125 0.25029 0.78253 0.0
H460 H 0.46806 0.27574 0.79335 0.0
C461 C 0.30463 0.2764 0.78161 0.0
C462 C 0.336 0.27497 0.74087 0.0
C463 C 0.42276 0.26495 0.73428 0.0
C464 C 0.45012 0.25516 0.69649 0.0
C465 C 0.53487 0.23992 0.69162 0.0
C466 C 0.59186 0.23743 0.72257 0.0
C467 C 0.56711 0.25089 0.75883 0.0
C468 C 0.48365 0.26477 0.76475 0.0
H469 H 0.45248 0.32742 0.61235 0.0
C470 C 0.46716 0.29124 0.60551 0.0
H471 H 0.44215 0.21843 0.61931 0.0
H472 H 0.16632 0.29689 0.74247 0.0
H473 H 0.07262 0.30893 0.68601 0.0
H474 H 0.12525 0.30076 0.61957 0.0
H475 H 0.2725 0.27996 0.60855 0.0
C476 C 0.42609 0.25485 0.62479 0.0
C477 C 0.39347 0.26141 0.66439 0.0
C478 C 0.3088 0.27553 0.6702 0.0
C479 C 0.27917 0.28129 0.70869 0.0
C480 C 0.19274 0.29286 0.71387 0.0
C481 C 0.13824 0.29975 0.68184 0.0
C482 C 0.16791 0.29517 0.64426 0.0
C483 C 0.25229 0.28319 0.63832 0.0
H484 H 0.11559 0.76531 0.28123 0.0
C485 C 0.16594 0.78956 0.2881 0.0
H486 H 0.26252 0.83595 0.26543 0.0
H487 H 0.09333 0.69033 0.13925 0.0
H488 H 0.16302 0.62713 0.17857 0.0
H489 H 0.25218 0.64443 0.23471 0.0
H490 H 0.26878 0.72584 0.25242 0.0
C491 C 0.21079 0.81245 0.25898 0.0
C492 C 0.19126 0.80494 0.21754 0.0
C493 C 0.18872 0.75808 0.20537 0.0
C494 C 0.14216 0.74871 0.17143 0.0
C495 C 0.13137 0.7006 0.16314 0.0
C496 C 0.17092 0.66357 0.18578 0.0
C497 C 0.22083 0.67325 0.21747 0.0
C498 C 0.22944 0.71991 0.22743 0.0
H499 H 0.08439 0.73678 0.08251 0.0
C500 C 0.02761 0.75391 0.09244 0.0
H501 H 0.97149 0.79648 0.13294 0.0
H502 H 0.2084 0.90009 0.22692 0.0
H503 H 0.16043 0.96561 0.18162 0.0
H504 H 0.08953 0.95008 0.11978 0.0
H505 H 0.0652 0.86869 0.10323 0.0
C506 C 0.0297 0.78003 0.12343 0.0
C507 C 0.10487 0.78737 0.14815 0.0
C508 C 0.12317 0.83478 0.15632 0.0
C509 C 0.16537 0.84371 0.19148 0.0
C510 C 0.17729 0.89142 0.20035 0.0
C511 C 0.15019 0.9293 0.17457 0.0
C512 C 0.11019 0.92056 0.13977 0.0
C513 C 0.09632 0.87388 0.13069 0.0
H514 H 0.07027 0.26237 0.40735 0.0
C515 C 0.01463 0.24342 0.39853 0.0
H516 H 0.95925 0.20045 0.3583 0.0
H517 H 0.24342 0.28839 0.23713 0.0
H518 H 0.21393 0.3677 0.25719 0.0
H519 H 0.12153 0.3785 0.31378 0.0
H520 H 0.06143 0.31105 0.35121 0.0
C521 C 0.01641 0.21851 0.36685 0.0
C522 C 0.08956 0.21542 0.34001 0.0
C523 C 0.12003 0.2565 0.31752 0.0
C524 C 0.16782 0.25076 0.28314 0.0
C525 C 0.20288 0.29142 0.26225 0.0
C526 C 0.18695 0.33694 0.27359 0.0
C527 C 0.13527 0.34298 0.30553 0.0
C528 C 0.10149 0.30348 0.32713 0.0
H529 H 0.10193 0.24618 0.20576 0.0
C530 C 0.154 0.22287 0.19884 0.0
H531 H 0.25309 0.17768 0.22103 0.0
H532 H 0.06289 0.1308 0.38266 0.0
H533 H 0.10003 0.05196 0.36358 0.0
H534 H 0.17145 0.04234 0.30075 0.0
H535 H 0.20813 0.11135 0.25707 0.0
C536 C 0.19958 0.19998 0.22783 0.0
C537 C 0.17754 0.20488 0.26949 0.0
C538 C 0.15744 0.16405 0.29447 0.0
C539 C 0.11446 0.16949 0.33017 0.0
C540 C 0.09418 0.12833 0.35481 0.0
C541 C 0.11525 0.08303 0.34426 0.0
C542 C 0.15569 0.07764 0.30892 0.0
C543 C 0.17634 0.11755 0.28409 0.0
H544 H 0.97848 0.17976 0.87713 0.0
C545 C 0.98244 0.21177 0.89276 0.0
H546 H 0.93087 0.27934 0.89993 0.0
H547 H 0.94251 0.31071 0.71656 0.0
H548 H 0.03546 0.37167 0.73698 0.0
H549 H 0.06291 0.37934 0.80681 0.0
H550 H 0.99703 0.32621 0.85631 0.0
C551 C 0.92734 0.2476 0.88407 0.0
C552 C 0.88921 0.25215 0.84434 0.0
C553 C 0.92455 0.2855 0.81572 0.0
C554 C 0.90651 0.28201 0.77547 0.0
C555 C 0.94924 0.31313 0.74754 0.0
C556 C 0.00411 0.34808 0.75887 0.0
C557 C 0.0198 0.35229 0.79812 0.0
C558 C 0.9813 0.32131 0.8263 0.0
H559 H 0.79088 0.31283 0.70946 0.0
C560 C 0.79993 0.27818 0.69821 0.0
H561 H 0.8392 0.20701 0.71054 0.0
H562 H 0.79923 0.19012 0.8928 0.0
H563 H 0.70113 0.12989 0.87333 0.0
H564 H 0.6733 0.12085 0.80358 0.0
H565 H 0.7418 0.17203 0.75314 0.0
C566 C 0.83088 0.24169 0.72181 0.0
C567 C 0.85 0.24635 0.764 0.0
C568 C 0.81202 0.21433 0.79308 0.0
C569 C 0.83014 0.21818 0.83328 0.0
C570 C 0.78893 0.18745 0.86187 0.0
C571 C 0.73239 0.15301 0.8511 0.0
C572 C 0.71656 0.14804 0.81185 0.0
C573 C 0.75602 0.17801 0.7831 0.0
H574 H 0.99819 0.83956 0.61529 0.0
C575 C 0.99873 0.80792 0.59911 0.0
H576 H 0.94304 0.74156 0.59213 0.0
H577 H 0.95655 0.69908 0.77467 0.0
H578 H 0.03894 0.63515 0.75095 0.0
H579 H 0.0639 0.63121 0.68052 0.0
H580 H 0.00568 0.69071 0.63359 0.0
C581 C 0.94335 0.77273 0.60878 0.0
C582 C 0.90792 0.76822 0.64917 0.0
C583 C 0.9395 0.73164 0.67631 0.0
C584 C 0.92297 0.73317 0.71697 0.0
C585 C 0.96169 0.69831 0.74341 0.0
C586 C 0.01079 0.66168 0.73022 0.0
C587 C 0.02507 0.65953 0.69062 0.0
C588 C 0.99086 0.69418 0.66391 0.0
H589 H 0.80354 0.70274 0.78105 0.0
C590 C 0.8166 0.73565 0.7944 0.0
H591 H 0.86548 0.80516 0.78642 0.0
H592 H 0.82464 0.8373 0.60402 0.0
H593 H 0.73861 0.90126 0.62696 0.0
H594 H 0.71633 0.90737 0.6975 0.0
H595 H 0.77804 0.84952 0.7453 0.0
C596 C 0.85277 0.77229 0.77298 0.0
C597 C 0.872 0.7704 0.73038 0.0
C598 C 0.83893 0.80631 0.70288 0.0
C599 C 0.85474 0.80422 0.66224 0.0
C600 C 0.81687 0.8386 0.63524 0.0
C601 C 0.76706 0.8752 0.64799 0.0
C602 C 0.75431 0.87854 0.68769 0.0
C603 C 0.78983 0.84476 0.7149 0.0
loop_
_geom_bond_atom_site_label_1
_geom_bond_atom_site_label_2
_geom_bond_distance
_geom_bond_site_symmetry_2
_ccdc_geom_bond_type
C0 O12 1.241 . S
C0 O13 1.280 . S
C1 O14 1.277 . S
C1 O15 1.245 . S
C2 O26 1.247 . S
C2 O28 1.289 1_556 S
Mg3 O4 1.926 . S
Mg3 O13 1.984 . S
Mg3 O15 1.988 . S
Mg3 O16 2.061 . S
O4 Mg3 1.926 . S
O4 Mg5 1.986 . S
O4 Mg6 1.935 . S
Mg5 O4 1.986 . S
Mg5 O12 2.042 . S
Mg5 O14 2.041 . S
Mg5 O20 2.038 . S
Mg5 O28 2.238 . S
Mg6 O4 1.935 . S
Mg6 O7 1.898 1_554 S
Mg6 O17 2.100 1_554 S
Mg6 O19 2.075 1_554 S
Mg6 O28 2.113 . S
Mg6 O29 2.082 . S
O7 Mg6 1.898 1_556 S
O7 Mg8 1.926 . S
O7 Mg9 1.986 . S
Mg8 O7 1.926 . S
Mg8 O22 1.984 . S
Mg8 O25 1.988 . S
Mg8 O26 2.061 . S
Mg9 O7 1.986 . S
Mg9 O17 2.238 . S
Mg9 O21 2.042 . S
Mg9 O23 2.041 . S
Mg9 O30 2.038 . S
C10 O16 1.247 . S
C10 O17 1.289 1_554 S
C11 O29 1.245 1_556 S
C11 O30 1.274 . S
O12 C0 1.241 . S
O12 Mg5 2.042 . S
O13 C0 1.280 . S
O13 Mg3 1.984 . S
O14 C1 1.277 . S
O14 Mg5 2.041 . S
O15 C1 1.245 . S
O15 Mg3 1.988 . S
O16 Mg3 2.061 . S
O16 C10 1.247 . S
O17 Mg6 2.100 1_556 S
O17 Mg9 2.238 . S
O17 C10 1.289 1_556 S
C18 O19 1.245 1_554 S
C18 O20 1.274 . S
O19 Mg6 2.075 1_556 S
O19 C18 1.245 1_556 S
O20 Mg5 2.038 . S
O20 C18 1.274 . S
O21 Mg9 2.042 . S
O21 C24 1.241 . S
O22 Mg8 1.984 . S
O22 C24 1.280 . S
O23 Mg9 2.041 . S
O23 C27 1.277 . S
C24 O21 1.241 . S
C24 O22 1.280 . S
O25 Mg8 1.988 . S
O25 C27 1.245 . S
O26 C2 1.247 . S
O26 Mg8 2.061 . S
C27 O23 1.277 . S
C27 O25 1.245 . S
O28 C2 1.289 1_554 S
O28 Mg5 2.238 . S
O28 Mg6 2.113 . S
O29 Mg6 2.082 . S
O29 C11 1.245 1_554 S
O30 Mg9 2.038 . S
O30 C11 1.274 . S
C31 O43 1.241 . S
C31 O44 1.280 . S
C32 O45 1.277 . S
C32 O46 1.245 . S
C33 O57 1.247 . S
C33 O59 1.289 1_556 S
Mg34 O35 1.926 . S
Mg34 O44 1.984 . S
Mg34 O46 1.988 . S
Mg34 O47 2.061 . S
O35 Mg34 1.926 . S
O35 Mg36 1.986 . S
O35 Mg37 1.936 . S
Mg36 O35 1.986 . S
Mg36 O43 2.042 . S
Mg36 O45 2.041 . S
Mg36 O51 2.038 . S
Mg36 O59 2.238 . S
Mg37 O35 1.936 . S
Mg37 O38 1.898 1_554 S
Mg37 O48 2.100 1_554 S
Mg37 O50 2.075 1_554 S
Mg37 O59 2.113 . S
Mg37 O60 2.082 . S
O38 Mg37 1.898 1_556 S
O38 Mg39 1.926 . S
O38 Mg40 1.986 . S
Mg39 O38 1.926 . S
Mg39 O53 1.984 . S
Mg39 O56 1.988 . S
Mg39 O57 2.061 . S
Mg40 O38 1.986 . S
Mg40 O48 2.238 . S
Mg40 O52 2.042 . S
Mg40 O54 2.041 . S
Mg40 O61 2.038 . S
C41 O47 1.247 . S
C41 O48 1.289 1_554 S
C42 O60 1.245 1_556 S
C42 O61 1.274 . S
O43 C31 1.241 . S
O43 Mg36 2.042 . S
O44 C31 1.280 . S
O44 Mg34 1.984 . S
O45 C32 1.277 . S
O45 Mg36 2.041 . S
O46 C32 1.245 . S
O46 Mg34 1.988 . S
O47 Mg34 2.061 . S
O47 C41 1.247 . S
O48 Mg37 2.100 1_556 S
O48 Mg40 2.238 . S
O48 C41 1.289 1_556 S
C49 O50 1.245 1_554 S
C49 O51 1.274 . S
O50 Mg37 2.075 1_556 S
O50 C49 1.245 1_556 S
O51 Mg36 2.038 . S
O51 C49 1.274 . S
O52 Mg40 2.042 . S
O52 C55 1.241 . S
O53 Mg39 1.984 . S
O53 C55 1.280 . S
O54 Mg40 2.041 . S
O54 C58 1.277 . S
C55 O52 1.241 . S
C55 O53 1.280 . S
O56 Mg39 1.988 . S
O56 C58 1.245 . S
O57 C33 1.247 . S
O57 Mg39 2.061 . S
C58 O54 1.277 . S
C58 O56 1.245 . S
O59 C33 1.289 1_554 S
O59 Mg36 2.238 . S
O59 Mg37 2.113 . S
O60 Mg37 2.082 . S
O60 C42 1.245 1_554 S
O61 Mg40 2.038 . S
O61 C42 1.274 . S
C62 O74 1.241 . S
C62 O75 1.280 . S
C63 O76 1.277 . S
C63 O77 1.245 . S
C64 O88 1.247 . S
C64 O90 1.289 . S
Mg65 O66 1.926 . S
Mg65 O75 1.984 . S
Mg65 O77 1.988 . S
Mg65 O78 2.061 . S
O66 Mg65 1.926 . S
O66 Mg67 1.986 . S
O66 Mg68 1.917 . S
Mg67 O66 1.986 . S
Mg67 O74 2.042 . S
Mg67 O76 2.041 . S
Mg67 O82 2.038 . S
Mg67 O90 2.238 . S
Mg68 O66 1.917 . S
Mg68 O69 1.917 . S
Mg68 O79 2.106 . S
Mg68 O81 2.079 . S
Mg68 O90 2.106 . S
Mg68 O91 2.079 . S
O69 Mg68 1.917 . S
O69 Mg70 1.926 . S
O69 Mg71 1.986 . S
Mg70 O69 1.926 . S
Mg70 O84 1.984 . S
Mg70 O87 1.988 . S
Mg70 O88 2.061 . S
Mg71 O69 1.986 . S
Mg71 O79 2.238 . S
Mg71 O83 2.042 . S
Mg71 O85 2.041 . S
Mg71 O92 2.038 . S
C72 O78 1.247 . S
C72 O79 1.289 . S
C73 O91 1.245 . S
C73 O92 1.274 . S
O74 C62 1.241 . S
O74 Mg67 2.042 . S
O75 C62 1.280 . S
O75 Mg65 1.984 . S
O76 C63 1.277 . S
O76 Mg67 2.041 . S
O77 C63 1.245 . S
O77 Mg65 1.988 . S
O78 Mg65 2.061 . S
O78 C72 1.247 . S
O79 Mg68 2.106 . S
O79 Mg71 2.238 . S
O79 C72 1.289 . S
C80 O81 1.245 . S
C80 O82 1.274 . S
O81 Mg68 2.079 . S
O81 C80 1.245 . S
O82 Mg67 2.038 . S
O82 C80 1.274 . S
O83 Mg71 2.042 . S
O83 C86 1.241 . S
O84 Mg70 1.984 . S
O84 C86 1.280 . S
O85 Mg71 2.041 . S
O85 C89 1.277 . S
C86 O83 1.241 . S
C86 O84 1.280 . S
O87 Mg70 1.988 . S
O87 C89 1.245 . S
O88 C64 1.247 . S
O88 Mg70 2.061 . S
C89 O85 1.277 . S
C89 O87 1.245 . S
O90 C64 1.289 . S
O90 Mg67 2.238 . S
O90 Mg68 2.106 . S
O91 Mg68 2.079 . S
O91 C73 1.245 . S
O92 Mg71 2.038 . S
O92 C73 1.274 . S
C93 O105 1.241 . S
C93 O106 1.280 . S
C94 O107 1.277 . S
C94 O108 1.245 . S
C95 O119 1.247 . S
C95 O121 1.289 . S
Mg96 O97 1.926 . S
Mg96 O106 1.984 . S
Mg96 O108 1.988 . S
Mg96 O109 2.061 . S
O97 Mg96 1.926 . S
O97 Mg98 1.986 . S
O97 Mg99 1.917 . S
Mg98 O97 1.986 . S
Mg98 O105 2.042 . S
Mg98 O107 2.041 . S
Mg98 O113 2.038 . S
Mg98 O121 2.238 . S
Mg99 O97 1.917 . S
Mg99 O100 1.917 . S
Mg99 O110 2.106 . S
Mg99 O112 2.079 . S
Mg99 O121 2.106 . S
Mg99 O122 2.079 . S
O100 Mg99 1.917 . S
O100 Mg101 1.926 . S
O100 Mg102 1.986 . S
Mg101 O100 1.926 . S
Mg101 O115 1.984 . S
Mg101 O118 1.988 . S
Mg101 O119 2.061 . S
Mg102 O100 1.986 . S
Mg102 O110 2.238 . S
Mg102 O114 2.042 . S
Mg102 O116 2.041 . S
Mg102 O123 2.038 . S
C103 O109 1.247 . S
C103 O110 1.289 . S
C104 O122 1.245 . S
C104 O123 1.274 . S
O105 C93 1.241 . S
O105 Mg98 2.042 . S
O106 C93 1.280 . S
O106 Mg96 1.984 . S
O107 C94 1.277 . S
O107 Mg98 2.041 . S
O108 C94 1.245 . S
O108 Mg96 1.988 . S
O109 Mg96 2.061 . S
O109 C103 1.247 . S
O110 Mg99 2.106 . S
O110 Mg102 2.238 . S
O110 C103 1.289 . S
C111 O112 1.245 . S
C111 O113 1.274 . S
O112 Mg99 2.079 . S
O112 C111 1.245 . S
O113 Mg98 2.038 . S
O113 C111 1.274 . S
O114 Mg102 2.042 . S
O114 C117 1.241 . S
O115 Mg101 1.984 . S
O115 C117 1.280 . S
O116 Mg102 2.041 . S
O116 C120 1.277 . S
C117 O114 1.241 . S
C117 O115 1.280 . S
O118 Mg101 1.988 . S
O118 C120 1.245 . S
O119 C95 1.247 . S
O119 Mg101 2.061 . S
C120 O116 1.277 . S
C120 O118 1.245 . S
O121 C95 1.289 . S
O121 Mg98 2.238 . S
O121 Mg99 2.106 . S
O122 Mg99 2.079 . S
O122 C104 1.245 . S
O123 Mg102 2.038 . S
O123 C104 1.274 . S
H124 C125 0.945 1_554 S
C125 H124 0.945 1_556 S
C125 C131 1.269 . S
H126 C131 0.950 . S
H127 C135 0.949 . S
H128 C136 0.950 . S
H129 C137 0.951 . S
H130 C138 0.951 . S
C131 C125 1.269 . S
C131 H126 0.950 . S
C131 C132 1.478 . S
C132 C131 1.478 . S
C132 C133 1.397 . S
C132 C149 1.394 1_556 S
C133 C132 1.397 . S
C133 C134 1.438 . S
C133 C138 1.429 . S
C134 C133 1.438 . S
C134 C135 1.428 . S
C134 C147 1.394 1_556 S
C135 H127 0.949 . S
C135 C134 1.428 . S
C135 C136 1.345 . S
C136 H128 0.950 . S
C136 C135 1.345 . S
C136 C137 1.424 . S
C137 H129 0.951 . S
C137 C136 1.424 . S
C137 C138 1.347 . S
C138 H130 0.951 . S
C138 C133 1.429 . S
C138 C137 1.347 . S
H139 C140 0.951 1_556 S
C140 H139 0.951 1_554 S
C140 C146 1.265 . S
H141 C146 0.950 . S
H142 C150 0.949 . S
H143 C151 0.950 . S
H144 C152 0.951 . S
H145 C153 0.951 . S
C146 C140 1.265 . S
C146 H141 0.950 . S
C146 C147 1.478 . S
C147 C134 1.394 1_554 S
C147 C146 1.478 . S
C147 C148 1.397 . S
C148 C147 1.397 . S
C148 C149 1.438 . S
C148 C153 1.429 . S
C149 C132 1.394 1_554 S
C149 C148 1.438 . S
C149 C150 1.428 . S
C150 H142 0.949 . S
C150 C149 1.428 . S
C150 C151 1.345 . S
C151 H143 0.950 . S
C151 C150 1.345 . S
C151 C152 1.424 . S
C152 H144 0.951 . S
C152 C151 1.424 . S
C152 C153 1.347 . S
C153 H145 0.951 . S
C153 C148 1.429 . S
C153 C152 1.347 . S
H154 C155 0.951 . S
C155 H154 0.951 . S
C155 C161 1.263 1_556 S
H156 C161 0.953 . S
H157 C165 0.949 . S
H158 C166 0.950 . S
H159 C167 0.951 . S
H160 C168 0.951 . S
C161 C155 1.263 1_554 S
C161 H156 0.953 . S
C161 C162 1.478 . S
C162 C161 1.478 . S
C162 C163 1.408 . S
C162 C179 1.383 1_554 S
C163 C162 1.408 . S
C163 C164 1.438 . S
C163 C168 1.429 . S
C164 C163 1.438 . S
C164 C165 1.428 . S
C164 C177 1.414 . S
C165 H157 0.949 . S
C165 C164 1.428 . S
C165 C166 1.345 . S
C166 H158 0.950 . S
C166 C165 1.345 . S
C166 C167 1.424 . S
C167 H159 0.951 . S
C167 C166 1.424 . S
C167 C168 1.347 . S
C168 H160 0.951 . S
C168 C163 1.429 . S
C168 C167 1.347 . S
H169 C170 0.951 . S
C170 H169 0.951 . S
C170 C176 1.267 . S
H171 C176 0.947 1_556 S
H172 C180 0.949 . S
H173 C181 0.950 . S
H174 C182 0.951 . S
H175 C183 0.951 . S
C176 C170 1.267 . S
C176 H171 0.947 1_554 S
C176 C177 1.478 . S
C177 C164 1.414 . S
C177 C176 1.478 . S
C177 C178 1.376 1_554 S
C178 C177 1.376 1_556 S
C178 C179 1.438 . S
C178 C183 1.429 . S
C179 C162 1.383 1_556 S
C179 C178 1.438 . S
C179 C180 1.428 . S
C180 H172 0.949 . S
C180 C179 1.428 . S
C180 C181 1.345 . S
C181 H173 0.950 . S
C181 C180 1.345 . S
C181 C182 1.424 . S
C182 H174 0.951 . S
C182 C181 1.424 . S
C182 C183 1.347 . S
C183 H175 0.951 . S
C183 C178 1.429 . S
C183 C182 1.347 . S
H184 C185 0.951 . S
C185 H184 0.951 . S
C185 C191 1.265 . S
H186 C191 0.950 . S
H187 C195 0.949 . S
H188 C196 0.950 . S
H189 C197 0.951 . S
H190 C198 0.951 . S
C191 C185 1.265 . S
C191 H186 0.950 . S
C191 C192 1.478 . S
C192 C191 1.478 . S
C192 C193 1.397 . S
C192 C209 1.394 . S
C193 C192 1.397 . S
C193 C194 1.438 . S
C193 C198 1.429 . S
C194 C193 1.438 . S
C194 C195 1.428 . S
C194 C207 1.394 . S
C195 H187 0.949 . S
C195 C194 1.428 . S
C195 C196 1.345 . S
C196 H188 0.950 . S
C196 C195 1.345 . S
C196 C197 1.424 . S
C197 H189 0.951 . S
C197 C196 1.424 . S
C197 C198 1.347 . S
C198 H190 0.951 . S
C198 C193 1.429 . S
C198 C197 1.347 . S
H199 C200 0.951 . S
C200 H199 0.951 . S
C200 C206 1.265 . S
H201 C206 0.950 . S
H202 C210 0.949 . S
H203 C211 0.950 . S
H204 C212 0.951 . S
H205 C213 0.951 . S
C206 C200 1.265 . S
C206 H201 0.950 . S
C206 C207 1.478 . S
C207 C194 1.394 . S
C207 C206 1.478 . S
C207 C208 1.397 . S
C208 C207 1.397 . S
C208 C209 1.438 . S
C208 C213 1.429 . S
C209 C192 1.394 . S
C209 C208 1.438 . S
C209 C210 1.428 . S
C210 H202 0.949 . S
C210 C209 1.428 . S
C210 C211 1.345 . S
C211 H203 0.950 . S
C211 C210 1.345 . S
C211 C212 1.424 . S
C212 H204 0.951 . S
C212 C211 1.424 . S
C212 C213 1.347 . S
C213 H205 0.951 . S
C213 C208 1.429 . S
C213 C212 1.347 . S
H214 C215 0.951 . S
C215 H214 0.951 . S
C215 C221 1.265 . S
H216 C221 0.950 . S
H217 C225 0.949 . S
H218 C226 0.950 . S
H219 C227 0.951 . S
H220 C228 0.951 . S
C221 C215 1.265 . S
C221 H216 0.950 . S
C221 C222 1.478 . S
C222 C221 1.478 . S
C222 C223 1.397 . S
C222 C239 1.394 . S
C223 C222 1.397 . S
C223 C224 1.438 . S
C223 C228 1.429 . S
C224 C223 1.438 . S
C224 C225 1.428 . S
C224 C237 1.394 . S
C225 H217 0.949 . S
C225 C224 1.428 . S
C225 C226 1.345 . S
C226 H218 0.950 . S
C226 C225 1.345 . S
C226 C227 1.424 . S
C227 H219 0.951 . S
C227 C226 1.424 . S
C227 C228 1.347 . S
C228 H220 0.951 . S
C228 C223 1.429 . S
C228 C227 1.347 . S
H229 C230 0.951 . S
C230 H229 0.951 . S
C230 C236 1.265 . S
H231 C236 0.950 . S
H232 C240 0.949 . S
H233 C241 0.950 . S
H234 C242 0.951 . S
H235 C243 0.951 . S
C236 C230 1.265 . S
C236 H231 0.950 . S
C236 C237 1.478 . S
C237 C224 1.394 . S
C237 C236 1.478 . S
C237 C238 1.397 . S
C238 C237 1.397 . S
C238 C239 1.438 . S
C238 C243 1.429 . S
C239 C222 1.394 . S
C239 C238 1.438 . S
C239 C240 1.428 . S
C240 H232 0.949 . S
C240 C239 1.428 . S
C240 C241 1.345 . S
C241 H233 0.950 . S
C241 C240 1.345 . S
C241 C242 1.424 . S
C242 H234 0.951 . S
C242 C241 1.424 . S
C242 C243 1.347 . S
C243 H235 0.951 . S
C243 C238 1.429 . S
C243 C242 1.347 . S
H244 C245 0.952 . S
C245 H244 0.952 . S
C245 C251 1.264 1_556 S
H246 C251 0.950 . S
H247 C255 0.949 . S
H248 C256 0.950 . S
H249 C257 0.951 . S
H250 C258 0.951 . S
C251 C245 1.264 1_554 S
C251 H246 0.950 . S
C251 C252 1.478 . S
C252 C251 1.478 . S
C252 C253 1.397 . S
C252 C269 1.394 1_554 S
C253 C252 1.397 . S
C253 C254 1.438 . S
C253 C258 1.429 . S
C254 C253 1.438 . S
C254 C255 1.428 . S
C254 C267 1.394 1_554 S
C255 H247 0.949 . S
C255 C254 1.428 . S
C255 C256 1.345 . S
C256 H248 0.950 . S
C256 C255 1.345 . S
C256 C257 1.424 . S
C257 H249 0.951 . S
C257 C256 1.424 . S
C257 C258 1.347 . S
C258 H250 0.951 . S
C258 C253 1.429 . S
C258 C257 1.347 . S
H259 C260 0.951 . S
C260 H259 0.951 . S
C260 C266 1.265 1_554 S
H261 C266 0.950 . S
H262 C270 0.949 . S
H263 C271 0.950 . S
H264 C272 0.951 . S
H265 C273 0.951 . S
C266 C260 1.265 1_556 S
C266 H261 0.950 . S
C266 C267 1.478 . S
C267 C254 1.394 1_556 S
C267 C266 1.478 . S
C267 C268 1.397 . S
C268 C267 1.397 . S
C268 C269 1.438 . S
C268 C273 1.429 . S
C269 C252 1.394 1_556 S
C269 C268 1.438 . S
C269 C270 1.428 . S
C270 H262 0.949 . S
C270 C269 1.428 . S
C270 C271 1.345 . S
C271 H263 0.950 . S
C271 C270 1.345 . S
C271 C272 1.424 . S
C272 H264 0.951 . S
C272 C271 1.424 . S
C272 C273 1.347 . S
C273 H265 0.951 . S
C273 C268 1.429 . S
C273 C272 1.347 . S
H274 C275 0.951 . S
C275 H274 0.951 . S
C275 C281 1.265 . S
H276 C281 0.950 . S
H277 C285 0.949 . S
H278 C286 0.950 . S
H279 C287 0.951 . S
H280 C288 0.951 . S
C281 C275 1.265 . S
C281 H276 0.950 . S
C281 C282 1.478 . S
C282 C281 1.478 . S
C282 C283 1.397 . S
C282 C299 1.394 . S
C283 C282 1.397 . S
C283 C284 1.438 . S
C283 C288 1.429 . S
C284 C283 1.438 . S
C284 C285 1.428 . S
C284 C297 1.394 . S
C285 H277 0.949 . S
C285 C284 1.428 . S
C285 C286 1.345 . S
C286 H278 0.950 . S
C286 C285 1.345 . S
C286 C287 1.424 . S
C287 H279 0.951 . S
C287 C286 1.424 . S
C287 C288 1.347 . S
C288 H280 0.951 . S
C288 C283 1.429 . S
C288 C287 1.347 . S
H289 C290 0.951 . S
C290 H289 0.951 . S
C290 C296 1.265 . S
H291 C296 0.950 . S
H292 C300 0.949 . S
H293 C301 0.950 . S
H294 C302 0.951 . S
H295 C303 0.951 . S
C296 C290 1.265 . S
C296 H291 0.950 . S
C296 C297 1.478 . S
C297 C284 1.394 . S
C297 C296 1.478 . S
C297 C298 1.397 . S
C298 C297 1.397 . S
C298 C299 1.438 . S
C298 C303 1.429 . S
C299 C282 1.394 . S
C299 C298 1.438 . S
C299 C300 1.428 . S
C300 H292 0.949 . S
C300 C299 1.428 . S
C300 C301 1.345 . S
C301 H293 0.950 . S
C301 C300 1.345 . S
C301 C302 1.424 . S
C302 H294 0.951 . S
C302 C301 1.424 . S
C302 C303 1.347 . S
C303 H295 0.951 . S
C303 C298 1.429 . S
C303 C302 1.347 . S
H304 C305 0.951 . S
C305 H304 0.951 . S
C305 C311 1.267 . S
H306 C311 0.949 . S
H307 C315 0.949 . S
H308 C316 0.950 . S
H309 C317 0.951 . S
H310 C318 0.951 1_545 S
C311 C305 1.267 . S
C311 H306 0.949 . S
C311 C312 1.478 . S
C312 C311 1.478 . S
C312 C313 1.408 1_545 S
C312 C329 1.382 1_554 S
C313 C312 1.408 1_565 S
C313 C314 1.438 1_455 S
C313 C318 1.429 . S
C314 C313 1.438 1_655 S
C314 C315 1.428 . S
C314 C327 1.411 . S
C315 H307 0.949 . S
C315 C314 1.428 . S
C315 C316 1.345 1_655 S
C316 H308 0.950 . S
C316 C315 1.345 1_455 S
C316 C317 1.424 . S
C317 H309 0.951 . S
C317 C316 1.424 . S
C317 C318 1.347 . S
C318 H310 0.951 1_565 S
C318 C313 1.429 . S
C318 C317 1.347 . S
H319 C320 0.949 1_556 S
C320 H319 0.949 1_554 S
C320 C326 1.264 . S
H321 C326 0.949 . S
H322 C330 0.949 . S
H323 C331 0.950 . S
H324 C332 0.951 . S
H325 C333 0.951 1_565 S
C326 C320 1.264 . S
C326 H321 0.949 . S
C326 C327 1.478 . S
C327 C314 1.411 . S
C327 C326 1.478 . S
C327 C328 1.381 1_564 S
C328 C327 1.381 1_546 S
C328 C329 1.438 1_655 S
C328 C333 1.429 . S
C329 C312 1.382 1_556 S
C329 C328 1.438 1_455 S
C329 C330 1.428 . S
C330 H322 0.949 . S
C330 C329 1.428 . S
C330 C331 1.345 1_455 S
C331 H323 0.950 . S
C331 C330 1.345 1_655 S
C331 C332 1.424 . S
C332 H324 0.951 . S
C332 C331 1.424 . S
C332 C333 1.347 . S
C333 H325 0.951 1_545 S
C333 C328 1.429 . S
C333 C332 1.347 . S
H334 C335 0.951 . S
C335 H334 0.951 . S
C335 C341 1.265 . S
H336 C341 0.950 . S
H337 C345 0.949 . S
H338 C346 0.950 . S
H339 C347 0.951 . S
H340 C348 0.951 . S
C341 C335 1.265 . S
C341 H336 0.950 . S
C341 C342 1.478 . S
C342 C341 1.478 . S
C342 C343 1.397 . S
C342 C359 1.394 . S
C343 C342 1.397 . S
C343 C344 1.438 1_645 S
C343 C348 1.429 . S
C344 C343 1.438 1_465 S
C344 C345 1.428 . S
C344 C357 1.394 . S
C345 H337 0.949 . S
C345 C344 1.428 . S
C345 C346 1.345 . S
C346 H338 0.950 . S
C346 C345 1.345 . S
C346 C347 1.424 1_565 S
C347 H339 0.951 . S
C347 C346 1.424 1_545 S
C347 C348 1.347 1_455 S
C348 H340 0.951 . S
C348 C343 1.429 . S
C348 C347 1.347 1_655 S
H349 C350 0.951 . S
C350 H349 0.951 . S
C350 C356 1.265 . S
H351 C356 0.950 . S
H352 C360 0.949 . S
H353 C361 0.950 . S
H354 C362 0.951 . S
H355 C363 0.951 . S
C356 C350 1.265 . S
C356 H351 0.950 . S
C356 C357 1.478 . S
C357 C344 1.394 . S
C357 C356 1.478 . S
C357 C358 1.397 . S
C358 C357 1.397 . S
C358 C359 1.438 1_465 S
C358 C363 1.429 . S
C359 C342 1.394 . S
C359 C358 1.438 1_645 S
C359 C360 1.428 . S
C360 H352 0.949 . S
C360 C359 1.428 . S
C360 C361 1.345 . S
C361 H353 0.950 . S
C361 C360 1.345 . S
C361 C362 1.424 1_545 S
C362 H354 0.951 . S
C362 C361 1.424 1_565 S
C362 C363 1.347 1_655 S
C363 H355 0.951 . S
C363 C358 1.429 . S
C363 C362 1.347 1_455 S
H364 C365 0.951 . S
C365 H364 0.951 . S
C365 C371 1.265 . S
H366 C371 0.950 . S
H367 C375 0.949 . S
H368 C376 0.950 . S
H369 C377 0.951 . S
H370 C378 0.951 . S
C371 C365 1.265 . S
C371 H366 0.950 . S
C371 C372 1.478 . S
C372 C371 1.478 . S
C372 C373 1.397 . S
C372 C389 1.394 . S
C373 C372 1.397 . S
C373 C374 1.438 . S
C373 C378 1.429 . S
C374 C373 1.438 . S
C374 C375 1.428 . S
C374 C387 1.394 . S
C375 H367 0.949 . S
C375 C374 1.428 . S
C375 C376 1.345 . S
C376 H368 0.950 . S
C376 C375 1.345 . S
C376 C377 1.424 . S
C377 H369 0.951 . S
C377 C376 1.424 . S
C377 C378 1.347 . S
C378 H370 0.951 . S
C378 C373 1.429 . S
C378 C377 1.347 . S
H379 C380 0.951 . S
C380 H379 0.951 . S
C380 C386 1.265 . S
H381 C386 0.950 . S
H382 C390 0.949 . S
H383 C391 0.950 . S
H384 C392 0.951 . S
H385 C393 0.951 . S
C386 C380 1.265 . S
C386 H381 0.950 . S
C386 C387 1.478 . S
C387 C374 1.394 . S
C387 C386 1.478 . S
C387 C388 1.397 . S
C388 C387 1.397 . S
C388 C389 1.438 . S
C388 C393 1.429 . S
C389 C372 1.394 . S
C389 C388 1.438 . S
C389 C390 1.428 . S
C390 H382 0.949 . S
C390 C389 1.428 . S
C390 C391 1.345 . S
C391 H383 0.950 . S
C391 C390 1.345 . S
C391 C392 1.424 . S
C392 H384 0.951 . S
C392 C391 1.424 . S
C392 C393 1.347 . S
C393 H385 0.951 . S
C393 C388 1.429 . S
C393 C392 1.347 . S
H394 C395 0.951 . S
C395 H394 0.951 . S
C395 C401 1.265 . S
H396 C401 0.950 . S
H397 C405 0.949 . S
H398 C406 0.950 . S
H399 C407 0.951 . S
H400 C408 0.951 . S
C401 C395 1.265 . S
C401 H396 0.950 . S
C401 C402 1.478 . S
C402 C401 1.478 . S
C402 C403 1.397 . S
C402 C419 1.394 . S
C403 C402 1.397 . S
C403 C404 1.438 . S
C403 C408 1.429 . S
C404 C403 1.438 . S
C404 C405 1.428 . S
C404 C417 1.394 . S
C405 H397 0.949 . S
C405 C404 1.428 . S
C405 C406 1.345 . S
C406 H398 0.950 . S
C406 C405 1.345 . S
C406 C407 1.424 . S
C407 H399 0.951 . S
C407 C406 1.424 . S
C407 C408 1.347 . S
C408 H400 0.951 . S
C408 C403 1.429 . S
C408 C407 1.347 . S
H409 C410 0.951 . S
C410 H409 0.951 . S
C410 C416 1.265 . S
H411 C416 0.950 . S
H412 C420 0.949 . S
H413 C421 0.950 . S
H414 C422 0.951 . S
H415 C423 0.951 . S
C416 C410 1.265 . S
C416 H411 0.950 . S
C416 C417 1.478 . S
C417 C404 1.394 . S
C417 C416 1.478 . S
C417 C418 1.397 . S
C418 C417 1.397 . S
C418 C419 1.438 . S
C418 C423 1.429 . S
C419 C402 1.394 . S
C419 C418 1.438 . S
C419 C420 1.428 . S
C420 H412 0.949 . S
C420 C419 1.428 . S
C420 C421 1.345 . S
C421 H413 0.950 . S
C421 C420 1.345 . S
C421 C422 1.424 . S
C422 H414 0.951 . S
C422 C421 1.424 . S
C422 C423 1.347 . S
C423 H415 0.951 . S
C423 C418 1.429 . S
C423 C422 1.347 . S
H424 C425 0.951 . S
C425 H424 0.951 . S
C425 C431 1.265 . S
H426 C431 0.950 . S
H427 C435 0.949 . S
H428 C436 0.950 . S
H429 C437 0.951 . S
H430 C438 0.951 . S
C431 C425 1.265 . S
C431 H426 0.950 . S
C431 C432 1.478 . S
C432 C431 1.478 . S
C432 C433 1.397 . S
C432 C449 1.394 . S
C433 C432 1.397 . S
C433 C434 1.438 . S
C433 C438 1.429 . S
C434 C433 1.438 . S
C434 C435 1.428 . S
C434 C447 1.394 . S
C435 H427 0.949 . S
C435 C434 1.428 . S
C435 C436 1.345 . S
C436 H428 0.950 . S
C436 C435 1.345 . S
C436 C437 1.424 . S
C437 H429 0.951 . S
C437 C436 1.424 . S
C437 C438 1.347 . S
C438 H430 0.951 . S
C438 C433 1.429 . S
C438 C437 1.347 . S
H439 C440 0.951 . S
C440 H439 0.951 . S
C440 C446 1.265 . S
H441 C446 0.950 . S
H442 C450 0.949 . S
H443 C451 0.950 . S
H444 C452 0.951 . S
H445 C453 0.951 . S
C446 C440 1.265 . S
C446 H441 0.950 . S
C446 C447 1.478 . S
C447 C434 1.394 . S
C447 C446 1.478 . S
C447 C448 1.397 . S
C448 C447 1.397 . S
C448 C449 1.438 . S
C448 C453 1.429 . S
C449 C432 1.394 . S
C449 C448 1.438 . S
C449 C450 1.428 . S
C450 H442 0.949 . S
C450 C449 1.428 . S
C450 C451 1.345 . S
C451 H443 0.950 . S
C451 C450 1.345 . S
C451 C452 1.424 . S
C452 H444 0.951 . S
C452 C451 1.424 . S
C452 C453 1.347 . S
C453 H445 0.951 . S
C453 C448 1.429 . S
C453 C452 1.347 . S
H454 C455 0.951 . S
C455 H454 0.951 . S
C455 C461 1.265 . S
H456 C461 0.950 . S
H457 C465 0.949 . S
H458 C466 0.950 . S
H459 C467 0.951 . S
H460 C468 0.951 . S
C461 C455 1.265 . S
C461 H456 0.950 . S
C461 C462 1.478 . S
C462 C461 1.478 . S
C462 C463 1.397 . S
C462 C479 1.394 . S
C463 C462 1.397 . S
C463 C464 1.438 . S
C463 C468 1.429 . S
C464 C463 1.438 . S
C464 C465 1.428 . S
C464 C477 1.394 . S
C465 H457 0.949 . S
C465 C464 1.428 . S
C465 C466 1.345 . S
C466 H458 0.950 . S
C466 C465 1.345 . S
C466 C467 1.424 . S
C467 H459 0.951 . S
C467 C466 1.424 . S
C467 C468 1.347 . S
C468 H460 0.951 . S
C468 C463 1.429 . S
C468 C467 1.347 . S
H469 C470 0.951 . S
C470 H469 0.951 . S
C470 C476 1.265 . S
H471 C476 0.950 . S
H472 C480 0.949 . S
H473 C481 0.950 . S
H474 C482 0.951 . S
H475 C483 0.951 . S
C476 C470 1.265 . S
C476 H471 0.950 . S
C476 C477 1.478 . S
C477 C464 1.394 . S
C477 C476 1.478 . S
C477 C478 1.397 . S
C478 C477 1.397 . S
C478 C479 1.438 . S
C478 C483 1.429 . S
C479 C462 1.394 . S
C479 C478 1.438 . S
C479 C480 1.428 . S
C480 H472 0.949 . S
C480 C479 1.428 . S
C480 C481 1.345 . S
C481 H473 0.950 . S
C481 C480 1.345 . S
C481 C482 1.424 . S
C482 H474 0.951 . S
C482 C481 1.424 . S
C482 C483 1.347 . S
C483 H475 0.951 . S
C483 C478 1.429 . S
C483 C482 1.347 . S
H484 C485 0.951 1_655 S
C485 H484 0.951 1_455 S
C485 C491 1.265 . S
H486 C491 0.950 . S
H487 C495 0.949 . S
H488 C496 0.950 . S
H489 C497 0.951 . S
H490 C498 0.951 . S
C491 C485 1.265 . S
C491 H486 0.950 . S
C491 C492 1.478 . S
C492 C491 1.478 . S
C492 C493 1.397 . S
C492 C509 1.395 . S
C493 C492 1.397 . S
C493 C494 1.438 1_455 S
C493 C498 1.429 . S
C494 C493 1.438 1_655 S
C494 C495 1.428 . S
C494 C507 1.394 . S
C495 H487 0.949 . S
C495 C494 1.428 . S
C495 C496 1.345 . S
C496 H488 0.950 . S
C496 C495 1.345 . S
C496 C497 1.424 1_655 S
C497 H489 0.951 . S
C497 C496 1.424 1_455 S
C497 C498 1.347 . S
C498 H490 0.951 . S
C498 C493 1.429 . S
C498 C497 1.347 . S
H499 C500 0.951 . S
C500 H499 0.951 . S
C500 C506 1.265 . S
H501 C506 0.950 . S
H502 C510 0.949 . S
H503 C511 0.950 . S
H504 C512 0.951 . S
H505 C513 0.951 . S
C506 C500 1.265 . S
C506 H501 0.950 . S
C506 C507 1.478 . S
C507 C494 1.394 . S
C507 C506 1.478 . S
C507 C508 1.397 . S
C508 C507 1.397 . S
C508 C509 1.436 1_655 S
C508 C513 1.429 . S
C509 C492 1.395 . S
C509 C508 1.436 1_455 S
C509 C510 1.428 . S
C510 H502 0.949 . S
C510 C509 1.428 . S
C510 C511 1.345 1_455 S
C511 H503 0.950 . S
C511 C510 1.345 1_655 S
C511 C512 1.424 . S
C512 H504 0.951 . S
C512 C511 1.424 . S
C512 C513 1.347 . S
C513 H505 0.951 . S
C513 C508 1.429 . S
C513 C512 1.347 . S
H514 C515 0.951 . S
C515 H514 0.951 . S
C515 C521 1.265 . S
H516 C521 0.950 . S
H517 C525 0.949 1_455 S
H518 C526 0.950 . S
H519 C527 0.951 . S
H520 C528 0.951 . S
C521 C515 1.265 . S
C521 H516 0.950 . S
C521 C522 1.478 . S
C522 C521 1.478 . S
C522 C523 1.397 . S
C522 C539 1.394 . S
C523 C522 1.397 . S
C523 C524 1.438 . S
C523 C528 1.429 . S
C524 C523 1.438 . S
C524 C525 1.428 . S
C524 C537 1.394 1_655 S
C525 H517 0.949 1_655 S
C525 C524 1.428 . S
C525 C526 1.345 . S
C526 H518 0.950 . S
C526 C525 1.345 . S
C526 C527 1.424 . S
C527 H519 0.951 . S
C527 C526 1.424 . S
C527 C528 1.347 . S
C528 H520 0.951 . S
C528 C523 1.429 . S
C528 C527 1.347 . S
H529 C530 0.951 1_655 S
C530 H529 0.951 1_455 S
C530 C536 1.265 . S
H531 C536 0.950 . S
H532 C540 0.949 . S
H533 C541 0.950 . S
H534 C542 0.951 . S
H535 C543 0.951 . S
C536 C530 1.265 . S
C536 H531 0.950 . S
C536 C537 1.478 . S
C537 C524 1.394 1_455 S
C537 C536 1.478 . S
C537 C538 1.397 . S
C538 C537 1.397 . S
C538 C539 1.438 1_455 S
C538 C543 1.429 . S
C539 C522 1.394 . S
C539 C538 1.438 1_655 S
C539 C540 1.428 . S
C540 H532 0.949 . S
C540 C539 1.428 . S
C540 C541 1.345 1_655 S
C541 H533 0.950 . S
C541 C540 1.345 1_455 S
C541 C542 1.424 . S
C542 H534 0.951 . S
C542 C541 1.424 . S
C542 C543 1.347 . S
C543 H535 0.951 . S
C543 C538 1.429 . S
C543 C542 1.347 . S
H544 C545 0.951 . S
C545 H544 0.951 . S
C545 C551 1.265 . S
H546 C551 0.950 1_655 S
H547 C555 0.949 . S
H548 C556 0.950 . S
H549 C557 0.951 . S
H550 C558 0.951 . S
C551 C545 1.265 . S
C551 H546 0.950 1_455 S
C551 C552 1.478 . S
C552 C551 1.478 . S
C552 C553 1.397 1_455 S
C552 C569 1.394 . S
C553 C552 1.397 1_655 S
C553 C554 1.438 . S
C553 C558 1.429 . S
C554 C553 1.438 . S
C554 C555 1.428 . S
C554 C567 1.394 1_655 S
C555 H547 0.949 . S
C555 C554 1.428 . S
C555 C556 1.345 . S
C556 H548 0.950 . S
C556 C555 1.345 . S
C556 C557 1.424 . S
C557 H549 0.951 . S
C557 C556 1.424 . S
C557 C558 1.347 . S
C558 H550 0.951 . S
C558 C553 1.429 . S
C558 C557 1.347 . S
H559 C560 0.951 . S
C560 H559 0.951 . S
C560 C566 1.265 . S
H561 C566 0.950 1_455 S
H562 C570 0.949 . S
H563 C571 0.950 . S
H564 C572 0.951 . S
H565 C573 0.951 . S
C566 C560 1.265 . S
C566 H561 0.950 1_655 S
C566 C567 1.478 1_655 S
C567 C554 1.394 1_455 S
C567 C566 1.478 1_455 S
C567 C568 1.397 . S
C568 C567 1.397 . S
C568 C569 1.438 . S
C568 C573 1.429 . S
C569 C552 1.394 . S
C569 C568 1.438 . S
C569 C570 1.428 . S
C570 H562 0.949 . S
C570 C569 1.428 . S
C570 C571 1.345 . S
C571 H563 0.950 . S
C571 C570 1.345 . S
C571 C572 1.424 . S
C572 H564 0.951 . S
C572 C571 1.424 . S
C572 C573 1.347 . S
C573 H565 0.951 . S
C573 C568 1.429 . S
C573 C572 1.347 . S
H574 C575 0.951 . S
C575 H574 0.951 . S
C575 C581 1.265 . S
H576 C581 0.950 1_655 S
H577 C585 0.949 . S
H578 C586 0.950 . S
H579 C587 0.951 . S
H580 C588 0.951 . S
C581 C575 1.265 . S
C581 H576 0.950 1_455 S
C581 C582 1.478 . S
C582 C581 1.478 . S
C582 C583 1.397 . S
C582 C599 1.394 . S
C583 C582 1.397 . S
C583 C584 1.438 1_455 S
C583 C588 1.429 . S
C584 C583 1.438 1_655 S
C584 C585 1.428 . S
C584 C597 1.394 1_655 S
C585 H577 0.949 . S
C585 C584 1.428 . S
C585 C586 1.345 . S
C586 H578 0.950 . S
C586 C585 1.345 . S
C586 C587 1.424 . S
C587 H579 0.951 . S
C587 C586 1.424 . S
C587 C588 1.347 1_655 S
C588 H580 0.951 . S
C588 C583 1.429 . S
C588 C587 1.347 1_455 S
H589 C590 0.951 . S
C590 H589 0.951 . S
C590 C596 1.265 . S
H591 C596 0.950 1_455 S
H592 C600 0.949 . S
H593 C601 0.950 . S
H594 C602 0.951 . S
H595 C603 0.951 . S
C596 C590 1.265 . S
C596 H591 0.950 1_655 S
C596 C597 1.478 1_655 S
C597 C584 1.394 1_455 S
C597 C596 1.478 1_455 S
C597 C598 1.397 . S
C598 C597 1.397 . S
C598 C599 1.438 . S
C598 C603 1.429 . S
C599 C582 1.394 . S
C599 C598 1.438 . S
C599 C600 1.428 . S
C600 H592 0.949 . S
C600 C599 1.428 . S
C600 C601 1.345 . S
C601 H593 0.950 . S
C601 C600 1.345 . S
C601 C602 1.424 . S
C602 H594 0.951 . S
C602 C601 1.424 . S
C602 C603 1.347 . S
C603 H595 0.951 . S
C603 C598 1.429 . S
C603 C602 1.347 . S
C125 C11 1.490 . S
C140 C18 1.485 1_655 S
C155 C42 1.518 1_455 S
C170 C49 1.518 . S
C185 C73 1.493 . S
C200 C80 1.493 1_655 S
C215 C104 1.518 1_455 S
C230 C111 1.518 . S
C245 C41 1.585 1_556 S
C260 C2 1.587 1_554 S
C275 C103 1.584 . S
C290 C64 1.584 . S
C305 C10 1.579 . S
C320 C33 1.578 1_554 S
C335 C95 1.587 . S
C350 C72 1.587 . S
C365 C93 1.193 . S
C380 C1 1.191 . S
C395 C31 1.026 . S
C410 C63 1.053 . S
C425 C86 1.033 . S
C440 C58 1.043 . S
C455 C24 1.030 . S
C470 C120 1.045 . S
C485 C62 1.195 . S
C500 C32 1.182 . S
C515 C94 1.194 . S
C530 C0 1.191 . S
C545 C27 1.054 . S
C560 C117 1.026 . S
C575 C89 1.062 . S
C590 C55 1.025 . S
