# Generated by pormake.
# Topology whw, (6)-cn, num edge types: 1
# Building blocks:
#     Node 0, Type 0, BuildingBlock: BETDAH_clean_sbu_0, # of connection points: 6
#     Node 1, Type 0, BuildingBlock: BETDAH_clean_sbu_0, # of connection points: 6
#     Node 2, Type 0, BuildingBlock: BETDAH_clean_sbu_0, # of connection points: 6
#     Node 3, Type 0, BuildingBlock: BETDAH_clean_sbu_0, # of connection points: 6
#     Node 4, Type 0, BuildingBlock: BETDAH_clean_sbu_0, # of connection points: 6
#     Node 5, Type 0, BuildingBlock: BETDAH_clean_sbu_0, # of connection points: 6
#     Node 6, Type 0, BuildingBlock: BETDAH_clean_sbu_0, # of connection points: 6
#     Node 7, Type 0, BuildingBlock: BETDAH_clean_sbu_0, # of connection points: 6
#     Node 8, Type 0, BuildingBlock: BETDAH_clean_sbu_0, # of connection points: 6
#     Node 9, Type 0, BuildingBlock: BETDAH_clean_sbu_0, # of connection points: 6
#     Node 10, Type 0, BuildingBlock: BETDAH_clean_sbu_0, # of connection points: 6
#     Node 11, Type 0, BuildingBlock: BETDAH_clean_sbu_0, # of connection points: 6
#     Node 12, Type 0, BuildingBlock: BETDAH_clean_sbu_0, # of connection points: 6
#     Node 13, Type 0, BuildingBlock: BETDAH_clean_sbu_0, # of connection points: 6
#     Node 14, Type 0, BuildingBlock: BETDAH_clean_sbu_0, # of connection points: 6
#     Node 15, Type 0, BuildingBlock: BETDAH_clean_sbu_0, # of connection points: 6
#     Edge 16, Type (0, 0), BuildingBlock: OJICUG_clean_linker_0, # of connection points: 2
#     Edge 17, Type (0, 0), BuildingBlock: OJICUG_clean_linker_0, # of connection points: 2
#     Edge 18, Type (0, 0), BuildingBlock: OJICUG_clean_linker_0, # of connection points: 2
#     Edge 19, Type (0, 0), BuildingBlock: OJICUG_clean_linker_0, # of connection points: 2
#     Edge 20, Type (0, 0), BuildingBlock: OJICUG_clean_linker_0, # of connection points: 2
#     Edge 21, Type (0, 0), BuildingBlock: OJICUG_clean_linker_0, # of connection points: 2
#     Edge 22, Type (0, 0), BuildingBlock: OJICUG_clean_linker_0, # of connection points: 2
#     Edge 23, Type (0, 0), BuildingBlock: OJICUG_clean_linker_0, # of connection points: 2
#     Edge 24, Type (0, 0), BuildingBlock: OJICUG_clean_linker_0, # of connection points: 2
#     Edge 25, Type (0, 0), BuildingBlock: OJICUG_clean_linker_0, # of connection points: 2
#     Edge 26, Type (0, 0), BuildingBlock: OJICUG_clean_linker_0, # of connection points: 2
#     Edge 27, Type (0, 0), BuildingBlock: OJICUG_clean_linker_0, # of connection points: 2
#     Edge 28, Type (0, 0), BuildingBlock: OJICUG_clean_linker_0, # of connection points: 2
#     Edge 29, Type (0, 0), BuildingBlock: OJICUG_clean_linker_0, # of connection points: 2
#     Edge 30, Type (0, 0), BuildingBlock: OJICUG_clean_linker_0, # of connection points: 2
#     Edge 31, Type (0, 0), BuildingBlock: OJICUG_clean_linker_0, # of connection points: 2
#     Edge 32, Type (0, 0), BuildingBlock: OJICUG_clean_linker_0, # of connection points: 2
#     Edge 33, Type (0, 0), BuildingBlock: OJICUG_clean_linker_0, # of connection points: 2
#     Edge 34, Type (0, 0), BuildingBlock: OJICUG_clean_linker_0, # of connection points: 2
#     Edge 35, Type (0, 0), BuildingBlock: OJICUG_clean_linker_0, # of connection points: 2
#     Edge 36, Type (0, 0), BuildingBlock: OJICUG_clean_linker_0, # of connection points: 2
#     Edge 37, Type (0, 0), BuildingBlock: OJICUG_clean_linker_0, # of connection points: 2
#     Edge 38, Type (0, 0), BuildingBlock: OJICUG_clean_linker_0, # of connection points: 2
#     Edge 39, Type (0, 0), BuildingBlock: OJICUG_clean_linker_0, # of connection points: 2
#     Edge 40, Type (0, 0), BuildingBlock: OJICUG_clean_linker_0, # of connection points: 2
#     Edge 41, Type (0, 0), BuildingBlock: OJICUG_clean_linker_0, # of connection points: 2
#     Edge 42, Type (0, 0), BuildingBlock: OJICUG_clean_linker_0, # of connection points: 2
#     Edge 43, Type (0, 0), BuildingBlock: OJICUG_clean_linker_0, # of connection points: 2
#     Edge 44, Type (0, 0), BuildingBlock: OJICUG_clean_linker_0, # of connection points: 2
#     Edge 45, Type (0, 0), BuildingBlock: OJICUG_clean_linker_0, # of connection points: 2
#     Edge 46, Type (0, 0), BuildingBlock: OJICUG_clean_linker_0, # of connection points: 2
#     Edge 47, Type (0, 0), BuildingBlock: OJICUG_clean_linker_0, # of connection points: 2
#     Edge 48, Type (0, 0), BuildingBlock: OJICUG_clean_linker_0, # of connection points: 2
#     Edge 49, Type (0, 0), BuildingBlock: OJICUG_clean_linker_0, # of connection points: 2
#     Edge 50, Type (0, 0), BuildingBlock: OJICUG_clean_linker_0, # of connection points: 2
#     Edge 51, Type (0, 0), BuildingBlock: OJICUG_clean_linker_0, # of connection points: 2
#     Edge 52, Type (0, 0), BuildingBlock: OJICUG_clean_linker_0, # of connection points: 2
#     Edge 53, Type (0, 0), BuildingBlock: OJICUG_clean_linker_0, # of connection points: 2
#     Edge 54, Type (0, 0), BuildingBlock: OJICUG_clean_linker_0, # of connection points: 2
#     Edge 55, Type (0, 0), BuildingBlock: OJICUG_clean_linker_0, # of connection points: 2
#     Edge 56, Type (0, 0), BuildingBlock: OJICUG_clean_linker_0, # of connection points: 2
#     Edge 57, Type (0, 0), BuildingBlock: OJICUG_clean_linker_0, # of connection points: 2
#     Edge 58, Type (0, 0), BuildingBlock: OJICUG_clean_linker_0, # of connection points: 2
#     Edge 59, Type (0, 0), BuildingBlock: OJICUG_clean_linker_0, # of connection points: 2
#     Edge 60, Type (0, 0), BuildingBlock: OJICUG_clean_linker_0, # of connection points: 2
#     Edge 61, Type (0, 0), BuildingBlock: OJICUG_clean_linker_0, # of connection points: 2
#     Edge 62, Type (0, 0), BuildingBlock: OJICUG_clean_linker_0, # of connection points: 2
#     Edge 63, Type (0, 0), BuildingBlock: OJICUG_clean_linker_0, # of connection points: 2
# Relax obj value: 0.398
# Max RMSD: 0.268
# Mean RMSD: 0.225
data_MOF--net-whw--node1-BETDAH_clean_sbu_0--edge1-OJICUG_clean_linker_0
_symmetry_space_group_name_H-M    P1
_symmetry_Int_Tables_number       1
_symmetry_cell_setting            triclinic
loop_
_symmetry_equiv_pos_as_xyz
'x, y, z'
_cell_length_a     33.632292
_cell_length_b     33.443683
_cell_length_c     26.776343
_cell_angle_alpha  89.50242
_cell_angle_beta   98.998558
_cell_angle_gamma 95.959844
loop_
_atom_site_label
_atom_site_type_symbol
_atom_site_fract_x
_atom_site_fract_y
_atom_site_fract_z
_atom_type_partial_charge
Ho0 Ho 0.07402 0.16023 0.17042 0.0
Ho1 Ho 0.99095 0.11942 0.17866 0.0
C2 C -0.00017 0.1693 0.07543 0.0
C3 C 0.14584 0.17365 0.14726 0.0
C4 C 0.16391 0.15575 0.10742 0.0
C5 C 0.14749 0.11785 0.08801 0.0
C6 C 0.1608 0.10188 1.0466 0.0
C7 C 0.19145 0.12324 1.02385 0.0
C8 C 0.20994 0.16015 1.0458 0.0
C9 C 0.19596 0.17645 0.08706 0.0
C10 C 0.02463 0.20486 0.21069 0.0
C11 C 0.05831 0.14181 0.28476 0.0
C12 C 0.92459 0.08692 0.20508 0.0
C13 C 0.90798 0.08958 0.25223 0.0
C14 C 0.91729 0.1246 0.28196 0.0
C15 C 0.90522 0.12593 0.32922 0.0
C16 C 0.88401 0.0921 0.34794 0.0
C17 C 0.87432 0.05712 0.31796 0.0
C18 C 0.88615 0.05594 0.27021 0.0
C19 C 0.03055 0.07992 0.11812 0.0
O20 O 0.0397 0.16866 0.08978 0.0
O21 O 0.97409 0.15642 0.10695 0.0
O22 O 0.11697 0.19645 0.13171 0.0
O23 O 0.13648 0.14838 0.18222 0.0
O24 O 0.06378 0.21213 0.22114 0.0
O25 O 0.01603 0.18012 0.17559 0.0
O26 O 0.02015 0.13 0.26358 0.0
O27 O 0.08626 0.1508 0.25544 0.0
O28 O 0.95757 0.0687 0.2091 0.0
O29 O 0.92678 0.11997 0.17866 0.0
O30 O 0.9921 0.0818 0.11188 0.0
O31 O 0.04731 0.09612 0.16038 0.0
H32 H 0.12321 0.10115 0.10391 0.0
H33 H 0.14513 0.07383 1.03085 0.0
H34 H 0.23422 0.17712 1.03011 0.0
H35 H 0.2094 0.20557 0.10213 0.0
H36 H 0.93498 0.15057 0.26937 0.0
H37 H 0.9139 0.15298 0.35198 0.0
H38 H 0.85808 0.03066 0.33168 0.0
H39 H 0.87923 0.0285 0.24794 0.0
Ho40 Ho 0.17859 0.80623 0.47937 0.0
Ho41 Ho 0.17618 0.72092 0.44405 0.0
C42 C 0.19226 0.7348 0.56057 0.0
C43 C 0.17449 0.874 0.52315 0.0
C44 C 0.16406 0.8886 0.57059 0.0
C45 C 0.17641 0.87038 0.61709 0.0
C46 C 0.16428 0.88366 0.66116 0.0
C47 C 0.13936 0.91507 0.65929 0.0
C48 C 0.12786 0.9338 0.61288 0.0
C49 C 0.14025 0.92073 0.56894 0.0
C50 C 0.24391 0.78946 0.43878 0.0
C51 C 0.15387 0.7918 0.36293 0.0
C52 C 0.18386 0.65661 0.39543 0.0
C53 C 0.17335 0.64703 0.34117 0.0
C54 C 0.18519 0.67449 0.30492 0.0
C55 C 0.16807 0.66957 0.2542 0.0
C56 C 0.13876 0.63718 0.23875 0.0
C57 C 0.12889 0.60836 0.2746 0.0
C58 C 0.14606 0.61328 0.32541 0.0
C59 C 0.10617 0.7378 0.47411 0.0
O60 O 0.1773 0.76946 0.55006 0.0
O61 O 0.20205 0.71261 0.5248 0.0
O62 O 0.20777 0.85638 0.52632 0.0
O63 O 0.14452 0.85561 0.49192 0.0
O64 O 0.22799 0.82305 0.43293 0.0
O65 O 0.22595 0.76725 0.46859 0.0
O66 O 0.16598 0.75554 0.37091 0.0
O67 O 0.15034 0.8157 0.40043 0.0
O68 O 0.15286 0.66081 0.41802 0.0
O69 O 0.21377 0.68455 0.4087 0.0
O70 O 0.12166 0.70395 0.48151 0.0
O71 O 0.12813 0.76082 0.44939 0.0
H72 H 0.19468 0.84541 0.61924 0.0
H73 H 0.17306 0.8683 0.69632 0.0
H74 H 0.10876 0.95813 0.61049 0.0
H75 H 0.13055 0.93522 0.5334 0.0
H76 H 0.20602 0.70097 0.31598 0.0
H77 H 0.17625 0.69238 0.22761 0.0
H78 H 0.10711 0.58256 0.26362 0.0
H79 H 0.13652 0.59177 0.35278 0.0
Ho80 Ho 0.46672 0.88851 0.72016 0.0
Ho81 Ho 0.50443 0.85344 0.62344 0.0
C82 C 0.56519 0.88788 0.72108 0.0
C83 C 0.44115 0.88401 0.80825 0.0
C84 C 0.44286 0.87055 0.86309 0.0
C85 C 0.45017 0.83116 0.87891 0.0
C86 C 0.44507 0.81735 0.92816 0.0
C87 C 0.43192 0.84209 0.96388 0.0
C88 C 0.42529 0.88172 0.94781 0.0
C89 C 0.43068 0.89551 0.89883 0.0
C90 C 0.48151 0.9395 0.64407 0.0
C91 C 0.40656 0.86483 0.61882 0.0
C92 C 0.52513 0.83364 0.53741 0.0
C93 C 0.53806 0.8203 0.48873 0.0
C94 C 0.53157 0.84234 0.44355 0.0
C95 C 0.54331 0.82915 0.39825 0.0
C96 C 0.56249 0.7935 0.3962 0.0
C97 C 0.5691 0.77178 0.44187 0.0
C98 C 0.55696 0.78473 0.48685 0.0
C99 C 0.49532 0.80708 0.70372 0.0
O100 O 0.53387 0.88894 0.74593 0.0
O101 O 0.56189 0.87922 0.67205 0.0
O102 O 0.46409 0.91537 0.79473 0.0
O103 O 0.43252 0.85639 0.77273 0.0
O104 O 0.4551 0.94537 0.67391 0.0
O105 O 0.50081 0.9107 0.66025 0.0
O106 O 0.43748 0.85631 0.5964 0.0
O107 O 0.4096 0.87662 0.66632 0.0
O108 O 0.51675 0.80775 0.57226 0.0
O109 O 0.52196 0.87112 0.54948 0.0
O110 O 0.52271 0.80338 0.6752 0.0
O111 O 0.47189 0.83173 0.68485 0.0
H112 H 0.45906 0.81052 0.85275 0.0
H113 H 0.45139 0.78696 0.93795 0.0
H114 H 0.41447 0.90217 0.97241 0.0
H115 H 0.42373 0.92563 0.88821 0.0
H116 H 0.51689 0.86971 0.44298 0.0
H117 H 0.5367 0.8469 0.36459 0.0
H118 H 0.58422 0.74469 0.44347 0.0
H119 H 0.56276 0.7668 0.52058 0.0
Ho120 Ho 0.35209 0.17663 0.91931 0.0
Ho121 Ho 0.35176 0.26088 0.87898 0.0
C122 C 0.33471 0.25003 0.98902 0.0
C123 C 0.35925 0.11132 0.97076 0.0
C124 C 0.37283 0.0995 1.02323 0.0
C125 C 0.40157 0.0717 1.03238 0.0
C126 C 0.41696 0.06159 0.0818 0.0
C127 C 0.4036 0.07887 0.12297 0.0
C128 C 0.3739 0.10584 0.11376 0.0
C129 C 0.35873 0.11623 0.06426 0.0
C130 C 0.28798 0.18752 0.84755 0.0
C131 C 0.37971 0.19019 0.81353 0.0
C132 C 0.34332 0.32261 0.82124 0.0
C133 C 0.35739 0.33192 0.77256 0.0
C134 C 0.34863 0.3042 0.7322 0.0
C135 C 0.36742 0.31027 0.68942 0.0
C136 C 0.39534 0.34414 0.68607 0.0
C137 C 0.4028 0.37265 0.72561 0.0
C138 C 0.38396 0.36659 0.76842 0.0
C139 C 0.4224 0.24733 0.93877 0.0
O140 O 0.35093 0.21577 0.98737 0.0
O141 O 0.3242 0.27044 0.94758 0.0
O142 O 0.32548 0.12829 0.96151 0.0
O143 O 0.38756 0.12855 0.94703 0.0
O144 O 0.30526 0.15473 0.85349 0.0
O145 O 0.30329 0.21208 0.88305 0.0
O146 O 0.36662 0.22603 0.81426 0.0
O147 O 0.38219 0.16645 0.85317 0.0
O148 O 0.37212 0.32175 0.85988 0.0
O149 O 0.31493 0.29278 0.8215 0.0
O150 O 0.40607 0.28085 0.93708 0.0
O151 O 0.40099 0.22315 0.90704 0.0
H152 H 0.41269 0.05834 1.00121 0.0
H153 H 0.43962 0.04053 0.08786 0.0
H154 H 0.36344 0.11997 0.14486 0.0
H155 H 0.33663 0.13784 0.05822 0.0
H156 H 0.32853 0.27696 0.73437 0.0
H157 H 0.3612 0.28756 0.65985 0.0
H158 H 0.42349 0.39949 0.72369 0.0
H159 H 0.3912 0.38833 0.79911 0.0
Ho160 Ho 0.07321 0.90819 0.95193 0.0
Ho161 Ho 0.98962 0.90925 0.89284 0.0
C162 C 0.99358 0.87922 1.00512 0.0
C163 C 0.13591 0.91717 1.02097 0.0
C164 C 0.14306 0.8959 0.06887 0.0
C165 C 0.16762 0.91473 0.11084 0.0
C166 C 0.16984 0.89646 0.15814 0.0
C167 C 0.14741 0.85923 0.16385 0.0
C168 C 0.12371 0.84001 0.12133 0.0
C169 C 0.12142 0.8583 0.07423 0.0
C170 C 0.04601 0.83854 0.90015 0.0
C171 C 0.06806 0.92906 0.83839 0.0
C172 C 0.92421 0.90069 0.82647 0.0
C173 C 0.91001 0.88269 0.77552 0.0
C174 C 0.87804 0.8517 0.76956 0.0
C175 C 0.86429 0.8333 0.72243 0.0
C176 C 0.88196 0.84567 0.67986 0.0
C177 C 0.91348 0.8773 0.68557 0.0
C178 C 0.92746 0.89556 0.73293 0.0
C179 C 0.01651 0.97446 0.95415 0.0
O180 O 0.03309 0.88994 1.01061 0.0
O181 O 0.97012 0.8801 0.96095 0.0
O182 O 0.13416 0.89517 0.98042 0.0
O183 O 0.10657 0.94026 1.01763 0.0
O184 O 0.08335 0.85426 0.90791 0.0
O185 O 0.02521 0.85987 0.92243 0.0
O186 O 0.0311 0.91045 0.8345 0.0
O187 O 0.08939 0.93906 0.88284 0.0
O188 O 0.94988 0.93319 0.83049 0.0
O189 O 0.93284 0.87526 0.86289 0.0
O190 O 0.97943 0.95814 0.94583 0.0
O191 O 0.03673 0.95689 0.92675 0.0
H192 H 0.18407 0.94398 0.10731 0.0
H193 H 0.18864 0.91167 0.19038 0.0
H194 H 0.10572 0.81161 0.12483 0.0
H195 H 0.10165 0.84368 1.04228 0.0
H196 H 0.86379 0.84144 0.80163 0.0
H197 H 0.8397 0.80938 0.7193 0.0
H198 H 0.92805 0.88726 0.65366 0.0
H199 H 0.95211 0.9194 0.73622 0.0
Ho200 Ho 0.4275 0.80227 0.29131 0.0
Ho201 Ho 0.41078 0.7141 0.25993 0.0
C202 C 0.45365 0.7322 0.37505 0.0
C203 C 0.41862 0.87269 0.32385 0.0
C204 C 0.39629 0.88811 0.36144 0.0
C205 C 0.35357 0.88418 0.35397 0.0
C206 C 0.33293 0.8901 0.39424 0.0
C207 C 0.35478 0.9008 0.44179 0.0
C208 C 0.39704 0.90965 0.44728 0.0
C209 C 0.41766 0.90349 0.40739 0.0
C210 C 0.48625 0.77433 0.24705 0.0
C211 C 0.40789 0.78493 0.171 0.0
C212 C 0.39689 0.64404 0.21683 0.0
C213 C 0.39538 0.63159 0.16416 0.0
C214 C 0.41157 0.65851 0.13047 0.0
C215 C 0.4051 0.65014 0.07899 0.0
C216 C 0.38211 0.61462 0.06013 0.0
C217 C 0.36732 0.58655 0.09384 0.0
C218 C 0.37368 0.5952 0.14579 0.0
C219 C 0.3572 0.74079 0.31398 0.0
O220 O 0.44245 0.76939 0.36751 0.0
O221 O 0.44952 0.70634 0.33649 0.0
O222 O 0.4498 0.85315 0.34122 0.0
O223 O 0.39609 0.85514 0.2843 0.0
O224 O 0.4799 0.81193 0.24728 0.0
O225 O 0.46518 0.7558 0.27633 0.0
O226 O 0.40817 0.74616 0.18269 0.0
O227 O 0.41022 0.81217 0.20717 0.0
O228 O 0.3684 0.66622 0.22374 0.0
O229 O 0.43243 0.65825 0.24082 0.0
O230 O 0.36996 0.70566 0.31844 0.0
O231 O 0.37203 0.76 0.27895 0.0
H232 H 0.33609 0.87385 0.31817 0.0
H233 H 0.30039 0.8832 0.38946 0.0
H234 H 0.41461 0.91658 0.48406 0.0
H235 H 0.45046 0.90757 0.41383 0.0
H236 H 0.42811 0.6867 0.14365 0.0
H237 H 0.41747 0.67181 1.05368 0.0
H238 H 0.3497 0.55883 0.07985 0.0
H239 H 0.36062 0.57421 0.17129 0.0
Ho240 Ho 0.47069 0.08841 0.44027 0.0
Ho241 Ho 0.55519 0.08987 0.41689 0.0
C242 C 0.54751 0.11538 0.52773 0.0
C243 C 0.40424 0.07991 0.47759 0.0
C244 C 0.39561 0.09966 0.52215 0.0
C245 C 0.36801 0.08071 0.55099 0.0
C246 C 0.36555 0.09624 0.59844 0.0
C247 C 0.39101 0.13059 0.61735 0.0
C248 C 0.41785 0.14996 0.58755 0.0
C249 C 0.42009 0.13461 0.54026 0.0
C250 C 0.49794 0.15905 0.39949 0.0
C251 C 0.47884 0.0679 0.33013 0.0
C252 C 0.62202 0.1011 0.37997 0.0
C253 C 0.63546 0.118 0.33362 0.0
C254 C 0.66555 0.15072 0.33777 0.0
C255 C 0.67744 0.16882 0.29452 0.0
C256 C 0.65977 0.15418 0.2463 0.0
C257 C 0.63035 0.12078 0.24213 0.0
C258 C 0.61814 0.10293 0.28541 0.0
C259 C 0.53104 0.02463 0.47027 0.0
O260 O 0.50845 0.10278 0.51691 0.0
O261 O 0.5713 0.1182 0.49288 0.0
O262 O 0.40958 0.10348 0.4396 0.0
O263 O 0.43245 0.0559 0.48763 0.0
O264 O 0.46128 0.14191 0.39004 0.0
O265 O 0.51829 0.13815 0.43138 0.0
O266 O 0.51526 0.08752 0.34108 0.0
O267 O 0.45762 0.05658 0.36605 0.0
O268 O 0.59874 0.06699 0.37594 0.0
O269 O 0.61039 0.12698 0.40955 0.0
O270 O 0.56792 0.04105 0.47339 0.0
O271 O 0.50956 0.04092 0.43414 0.0
H272 H 0.34953 0.05325 0.53766 0.0
H273 H 0.34429 0.0811 0.62063 0.0
H274 H 0.43822 0.17607 0.60154 0.0
H275 H 0.44228 0.14904 0.51878 0.0
H276 H 0.67943 0.16271 0.37458 0.0
H277 H 0.70035 0.19435 0.29875 0.0
H278 H 0.61591 0.10922 0.20535 0.0
H279 H 0.59476 0.07782 0.28101 0.0
Ho280 Ho 0.10493 0.1676 0.62781 0.0
Ho281 Ho 0.12514 0.25444 0.59661 0.0
C282 C 0.09858 0.2412 0.70828 0.0
C283 C 0.11202 0.09829 0.66979 0.0
C284 C 0.13359 0.08502 0.71844 0.0
C285 C 0.17601 0.09169 0.73021 0.0
C286 C 0.19518 0.08819 0.77996 0.0
C287 C 0.17231 0.07712 0.81822 0.0
C288 C 0.13062 0.06562 0.80543 0.0
C289 C 0.11135 0.06964 0.75581 0.0
C290 C 0.03855 0.206 0.59289 0.0
C291 C 0.1017 0.18261 0.50682 0.0
C292 C 0.13581 0.32256 0.55307 0.0
C293 C 0.13596 0.33205 0.4996 0.0
C294 C 0.11005 0.3089 0.46217 0.0
C295 C 0.11257 0.31544 0.41138 0.0
C296 C 0.14104 0.34536 0.39688 0.0
C297 C 0.16755 0.36803 0.4345 0.0
C298 C 0.16512 0.36125 0.48559 0.0
C299 C 0.18413 0.22624 0.66259 0.0
O300 O 0.10374 0.20235 0.70218 0.0
O301 O 0.1008 0.26689 0.66986 0.0
O302 O 0.08174 0.11932 0.67297 0.0
O303 O 0.13451 0.11313 0.63688 0.0
O304 O 0.04051 0.1676 0.58719 0.0
O305 O 0.07241 0.2198 0.61548 0.0
O306 O 0.11276 0.22106 0.51952 0.0
O307 O 0.0985 0.15521 0.54267 0.0
O308 O 0.16564 0.30242 0.57285 0.0
O309 O 0.10089 0.30845 0.56588 0.0
O310 O 0.17643 0.26324 0.65935 0.0
O311 O 0.16259 0.20573 0.62596 0.0
H312 H 0.19417 0.10198 0.70176 0.0
H313 H 0.22747 0.09652 0.78921 0.0
H314 H 0.1124 0.05703 0.83454 0.0
H315 H 0.07872 0.06345 0.74745 0.0
H316 H 0.0876 0.28584 0.47206 0.0
H317 H 0.09089 0.29818 0.38345 0.0
H318 H 0.18957 0.39142 0.42436 0.0
H319 H 0.18598 0.37875 0.51414 0.0
Ho320 Ho 0.91306 0.30338 0.78975 0.0
Ho321 Ho 0.89603 0.21552 0.75602 0.0
C322 C 0.93825 0.23187 0.87191 0.0
C323 C 0.90483 0.37379 0.82316 0.0
C324 C 0.88456 0.39152 0.8613 0.0
C325 C 0.84204 0.38741 0.85764 0.0
C326 C 0.82375 0.39948 0.89761 0.0
C327 C 0.84766 0.41712 0.94086 0.0
C328 C 0.88973 0.42499 0.94196 0.0
C329 C 0.90802 0.41221 0.90264 0.0
C330 C 0.97201 0.27575 0.7454 0.0
C331 C 0.89507 0.28762 0.66861 0.0
C332 C 0.88253 0.1456 0.71247 0.0
C333 C 0.88339 0.1323 0.66071 0.0
C334 C 0.8995 0.15919 0.62698 0.0
C335 C 0.8964 0.14904 0.57626 0.0
C336 C 0.87678 0.11173 0.5581 0.0
C337 C 0.86186 0.08398 0.59215 0.0
C338 C 0.86495 0.09437 0.64331 0.0
C339 C 0.84229 0.24163 0.81049 0.0
O340 O 0.92736 0.26926 0.86528 0.0
O341 O 0.93428 0.20671 0.83265 0.0
O342 O 0.93607 0.35411 0.83973 0.0
O343 O 0.8809 0.35574 0.785 0.0
O344 O 0.96585 0.31338 0.74636 0.0
O345 O 0.95051 0.25688 0.77396 0.0
O346 O 0.89517 0.24867 0.67958 0.0
O347 O 0.89676 0.31435 0.70534 0.0
O348 O 0.85414 0.16874 0.71654 0.0
O349 O 0.91744 0.15914 0.73868 0.0
O350 O 0.85444 0.20622 0.81368 0.0
O351 O 0.85759 0.26131 0.77617 0.0
H352 H 0.82295 0.37336 0.82496 0.0
H353 H 0.79136 0.39294 0.89611 0.0
H354 H 0.909 0.43768 0.97532 0.0
H355 H 0.9407 0.41668 0.90581 0.0
H356 H 0.91366 0.18848 0.63958 0.0
H357 H 0.90899 0.17064 0.55103 0.0
H358 H 0.84673 0.05496 0.57894 0.0
H359 H 0.85206 0.07333 0.6689 0.0
Ho360 Ho 0.61572 0.66252 0.12684 0.0
Ho361 Ho 0.63606 0.74951 0.0924 0.0
C362 C 0.61279 0.73728 0.20658 0.0
C363 C 0.62214 0.59242 0.16729 0.0
C364 C 0.64119 0.57527 0.21505 0.0
C365 C 0.6834 0.57971 0.23015 0.0
C366 C 0.70013 0.56867 0.27876 0.0
C367 C 0.67501 0.55246 0.31279 0.0
C368 C 0.63323 0.54429 0.2957 0.0
C369 C 0.61652 0.55563 0.2473 0.0
C370 C 0.54982 0.702 0.0936 0.0
C371 C 0.61134 0.67597 1.0054 0.0
C372 C 0.64388 0.8187 1.04964 0.0
C373 C 0.64659 0.83203 0.99786 0.0
C374 C 0.62945 0.80727 0.95648 0.0
C375 C 0.63273 0.81991 0.90743 0.0
C376 C 0.6532 0.85762 0.89881 0.0
C377 C 0.67155 0.88176 0.94053 0.0
C378 C 0.66836 0.86895 0.98973 0.0
C379 C 0.69716 0.72033 0.15376 0.0
O380 O 0.61667 0.69816 0.20074 0.0
O381 O 0.61463 0.76258 0.16765 0.0
O382 O 0.59194 0.61356 0.17053 0.0
O383 O 0.64634 0.60869 0.13709 0.0
O384 O 0.55097 0.66344 0.08801 0.0
O385 O 0.58424 0.71547 0.11488 0.0
O386 O 0.62365 0.71453 1.0165 0.0
O387 O 0.60745 0.64944 1.04203 0.0
O388 O 0.67448 0.80027 0.07091 0.0
O389 O 0.60885 0.80096 0.05795 0.0
O390 O 0.69145 0.75784 0.14986 0.0
O391 O 0.67262 0.69983 0.11982 0.0
H392 H 0.70341 0.59367 0.20554 0.0
H393 H 0.73248 0.5748 0.29063 0.0
H394 H 0.61293 0.53196 0.32093 0.0
H395 H 0.58399 0.55093 0.23605 0.0
H396 H 0.61275 0.77854 0.96191 0.0
H397 H 0.61733 0.80098 0.87622 0.0
H398 H 0.68734 0.91098 0.93502 0.0
H399 H 0.68239 0.8881 1.02141 0.0
Ho400 Ho 0.669 0.30719 0.98287 0.0
Ho401 Ho 0.66599 0.22327 0.94254 0.0
C402 C 0.68274 0.23279 0.05932 0.0
C403 C 0.66305 0.37303 1.02992 0.0
C404 C 0.64985 0.38588 0.07662 0.0
C405 C 0.62261 0.41518 0.07362 0.0
C406 C 0.60784 0.42663 0.11669 0.0
C407 C 0.62038 0.4092 0.16365 0.0
C408 C 0.64859 0.38067 0.16693 0.0
C409 C 0.66308 0.36893 0.12371 0.0
C410 C 0.73526 0.29153 0.9433 0.0
C411 C 0.64703 0.29706 0.86519 0.0
C412 C 0.67237 0.15994 0.89115 0.0
C413 C 0.65978 0.15039 0.8371 0.0
C414 C 0.67089 0.17735 0.79994 0.0
C415 C 0.65333 0.17151 0.74949 0.0
C416 C 0.62444 0.13854 0.73515 0.0
C417 C 0.61471 0.11063 0.77205 0.0
C418 C 0.63226 0.11653 0.82261 0.0
C419 C 0.59565 0.23976 0.97243 0.0
O420 O 0.66733 0.26751 1.05127 0.0
O421 O 0.69273 0.21247 1.02206 0.0
O422 O 0.69631 0.35524 1.03455 0.0
O423 O 0.63445 0.35609 0.99561 0.0
O424 O 0.7202 0.32565 0.93964 0.0
O425 O 0.71607 0.26829 0.97086 0.0
O426 O 0.65761 0.26013 0.87146 0.0
O427 O 0.64371 0.32007 0.90365 0.0
O428 O 0.64263 0.16318 0.91634 0.0
O429 O 0.70205 0.18839 0.9028 0.0
O430 O 0.61089 0.20573 0.97869 0.0
O431 O 0.61823 0.26338 0.94925 0.0
H432 H 0.61218 0.42872 1.03768 0.0
H433 H 0.58627 0.44878 0.11321 0.0
H434 H 0.65831 0.36636 0.20257 0.0
H435 H 0.68398 0.34615 0.12701 0.0
H436 H 0.69197 0.20383 0.81 0.0
H437 H 0.66129 0.19369 0.72203 0.0
H438 H 0.59316 0.0845 0.76196 0.0
H439 H 0.62325 0.0954 0.85069 0.0
Ho440 Ho 0.85706 0.6832 0.42232 0.0
Ho441 Ho 0.86687 0.76503 0.37794 0.0
C442 C 0.84652 0.76173 0.48718 0.0
C443 C 0.85702 0.61968 0.47795 0.0
C444 C 0.87252 0.60894 0.53034 0.0
C445 C 0.90229 0.58211 0.53887 0.0
C446 C 0.91938 0.57311 0.58802 0.0
C447 C 0.90661 0.5904 0.62956 0.0
C448 C 0.87589 0.61628 0.62111 0.0
C449 C 0.85904 0.62561 0.57188 0.0
C450 C 0.79614 0.69551 0.34628 0.0
C451 C 0.88929 0.68751 0.3191 0.0
C452 C 0.86941 0.82716 0.31998 0.0
C453 C 0.88552 0.83269 0.27227 0.0
C454 C 0.87133 0.86119 0.23714 0.0
C455 C 0.888 0.86712 0.19261 0.0
C456 C 0.91917 0.84469 0.1829 0.0
C457 C 0.9327 0.81565 0.21782 0.0
C458 C 0.91597 0.80964 0.26203 0.0
C459 C 0.93347 0.74749 0.44293 0.0
O460 O 0.85917 0.72559 0.48806 0.0
O461 O 0.83873 0.78105 0.44421 0.0
O462 O 0.82696 0.64212 0.47073 0.0
O463 O 0.88467 0.63023 0.44971 0.0
O464 O 0.80894 0.66112 0.35787 0.0
O465 O 0.81319 0.72157 0.37942 0.0
O466 O 0.87982 0.72492 0.31657 0.0
O467 O 0.88888 0.66619 0.36053 0.0
O468 O 0.89644 0.82235 0.35945 0.0
O469 O 0.83715 0.80172 0.31895 0.0
O470 O 0.9191 0.78199 0.43961 0.0
O471 O 0.9114 0.72366 0.41122 0.0
H472 H 0.91287 0.56862 0.50739 0.0
H473 H 0.94274 0.55279 0.59357 0.0
H474 H 0.86578 0.63029 0.65256 0.0
H475 H 0.83608 0.64636 0.56649 0.0
H476 H 0.8478 0.87915 0.24444 0.0
H477 H 0.87719 0.88987 0.16635 0.0
H478 H 0.95625 0.79756 0.21095 0.0
H479 H 0.92729 0.78733 0.2886 0.0
Ho480 Ho 0.58236 0.6417 0.67162 0.0
Ho481 Ho 0.49379 0.62758 0.68215 0.0
C482 C 0.51312 0.67254 0.58074 0.0
C483 C 0.65262 0.6319 0.64884 0.0
C484 C 0.66689 0.61087 0.6083 0.0
C485 C 0.6419 0.57943 0.58194 0.0
C486 C 0.6531 0.56206 0.53989 0.0
C487 C 0.69028 0.57513 0.52398 0.0
C488 C 0.7169 0.60434 0.55355 0.0
C489 C 0.70502 0.62244 0.595 0.0
C490 C 0.5568 0.70078 0.72084 0.0
C491 C 0.56286 0.62993 0.78665 0.0
C492 C 0.42207 0.61075 0.70483 0.0
C493 C 0.40333 0.6111 0.75095 0.0
C494 C 0.40514 0.6463 0.77969 0.0
C495 C 0.39291 0.64453 0.82712 0.0
C496 C 0.37822 0.6076 0.8465 0.0
C497 C 0.37389 0.57289 0.81619 0.0
C498 C 0.38632 0.57467 0.7688 0.0
C499 C 0.51807 0.57628 0.61824 0.0
O500 O 0.55003 0.66 0.5928 0.0
O501 O 0.48715 0.66879 0.61379 0.0
O502 O 0.63365 0.66358 0.63535 0.0
O503 O 0.63433 0.60842 0.67947 0.0
O504 O 0.59464 0.69456 0.72632 0.0
O505 O 0.53703 0.68041 0.68441 0.0
O506 O 0.52395 0.62956 0.7664 0.0
O507 O 0.59088 0.62933 0.75672 0.0
O508 O 0.4482 0.58433 0.70485 0.0
O509 O 0.43409 0.64542 0.68594 0.0
O510 O 0.48385 0.59097 0.61169 0.0
O511 O 0.5381 0.5873 0.66117 0.0
H512 H 0.61308 0.56923 0.59312 0.0
H513 H 0.63133 0.54005 0.51848 0.0
H514 H 0.74632 0.61437 0.54371 0.0
H515 H 0.72517 0.64607 0.61587 0.0
H516 H 0.41735 0.67496 0.7666 0.0
H517 H 0.39699 0.67183 0.84961 0.0
H518 H 0.36205 0.54415 0.82971 0.0
H519 H 0.38416 0.5472 0.74691 0.0
Ho520 Ho 0.96245 0.40288 0.22377 0.0
Ho521 Ho 0.9871 0.36412 0.11888 0.0
C522 C 0.05417 0.38132 0.22109 0.0
C523 C 0.93823 0.39863 0.31278 0.0
C524 C 0.93772 0.37929 0.3649 0.0
C525 C 0.91812 0.34033 0.37063 0.0
C526 C 0.91163 0.32498 0.41873 0.0
C527 C 0.92422 0.34778 0.4639 0.0
C528 C 0.94484 0.38639 0.45807 0.0
C529 C 0.95121 0.40176 0.4099 0.0
C530 C 0.98305 0.45423 0.1506 0.0
C531 C 0.89894 0.39428 0.11948 0.0
C532 C 0.01957 0.34475 1.0405 0.0
C533 C 0.02384 0.32617 0.99 0.0
C534 C 0.01601 0.34689 0.94391 0.0
C535 C 0.02635 0.33239 0.89842 0.0
C536 C 0.04546 0.29665 0.89682 0.0
C537 C 0.05231 0.27553 0.94294 0.0
C538 C 0.04176 0.28992 0.98827 0.0
C539 C 0.9468 0.31741 0.18262 0.0
O540 O 0.02694 0.39223 0.24783 0.0
O541 O 0.04656 0.37093 0.17243 0.0
O542 O 0.96861 0.42414 0.30285 0.0
O543 O 0.92084 0.37756 0.27266 0.0
O544 O 0.96162 0.46411 0.18477 0.0
O545 O -0.00412 0.42083 0.16151 0.0
O546 O 0.92769 0.3876 0.09249 0.0
O547 O 0.90377 0.39631 0.16956 0.0
O548 O 0.01824 0.32225 0.08077 0.0
O549 O 0.00216 0.378 1.04329 0.0
O550 O 0.94383 0.31011 0.13424 0.0
O551 O 0.97291 0.34646 0.19272 0.0
H552 H 0.90645 0.32185 0.33751 0.0
H553 H 0.89531 0.29546 0.41995 0.0
H554 H 0.95611 0.40529 0.49085 0.0
H555 H 0.96589 0.43199 0.40784 0.0
H556 H 0.00276 0.37509 0.9431 0.0
H557 H 0.01953 0.34972 0.86445 0.0
H558 H 0.06723 0.24831 0.94486 0.0
H559 H 0.0491 0.27311 1.02265 0.0
Ho560 Ho 0.55298 0.40465 0.456 0.0
Ho561 Ho 0.4686 0.39666 0.39672 0.0
C562 C 0.47563 0.37156 0.51123 0.0
C563 C 0.6159 0.4219 0.52308 0.0
C564 C 0.62623 0.40213 0.57137 0.0
C565 C 0.65066 0.42291 0.61199 0.0
C566 C 0.65585 0.40525 0.65972 0.0
C567 C 0.63648 0.36677 0.66706 0.0
C568 C 0.61273 0.34586 0.62585 0.0
C569 C 0.60756 0.36345 0.57842 0.0
C570 C 0.53179 0.33199 0.40904 0.0
C571 C 0.54544 0.42076 0.34078 0.0
C572 C 0.40283 0.38194 0.33219 0.0
C573 C 0.38974 0.36411 0.28113 0.0
C574 C 0.36043 0.33068 0.27495 0.0
C575 C 0.34776 0.31258 0.22747 0.0
C576 C 0.36385 0.3278 0.18495 0.0
C577 C 0.39278 0.36169 0.19097 0.0
C578 C 0.40572 0.37961 0.23863 0.0
C579 C 0.48997 0.46442 0.45467 0.0
O580 O 0.51412 0.38673 0.51643 0.0
O581 O 0.45259 0.36759 0.46662 0.0
O582 O 0.61618 0.39974 0.4832 0.0
O583 O 0.58354 0.44084 0.51982 0.0
O584 O 0.56817 0.35013 0.41702 0.0
O585 O 0.50899 0.35212 0.42968 0.0
O586 O 0.50983 0.39944 0.33796 0.0
O587 O 0.56576 0.43411 0.38454 0.0
O588 O 0.4248 0.41682 0.33611 0.0
O589 O 0.41526 0.35703 0.36772 0.0
O590 O 0.45422 0.4449 0.44758 0.0
O591 O 0.51162 0.44844 0.42763 0.0
H592 H 0.66473 0.45303 0.60708 0.0
H593 H 0.67453 0.42182 0.69097 0.0
H594 H 0.59691 0.3165 0.63062 0.0
H595 H 0.58787 0.34733 0.54753 0.0
H596 H 0.34745 0.31834 0.30707 0.0
H597 H 0.32522 0.28675 0.22399 0.0
H598 H 0.40611 0.3738 0.15902 0.0
H599 H 0.42841 0.40531 0.24218 0.0
Ho600 Ho 0.97784 0.59893 0.94752 0.0
Ho601 Ho 0.06292 0.59887 0.9221 0.0
C602 C 0.05615 0.6245 1.0328 0.0
C603 C 0.91099 0.58718 0.98386 0.0
C604 C 0.90194 0.58508 1.03527 0.0
C605 C 0.93223 0.57753 0.07555 0.0
C606 C 0.92823 0.58748 0.12479 0.0
C607 C 0.89409 0.60538 0.13376 0.0
C608 C 0.86202 0.60886 0.09404 0.0
C609 C 0.86598 0.59877 1.0449 0.0
C610 C 0.00465 0.66701 0.90118 0.0
C611 C 0.98479 0.57982 0.83553 0.0
C612 C 0.12915 0.60789 0.88366 0.0
C613 C 0.14066 0.62563 0.83701 0.0
C614 C 0.11543 0.65069 0.80771 0.0
C615 C 0.1272 0.66891 0.7645 0.0
C616 C 0.16433 0.66226 0.74969 0.0
C617 C 0.18918 0.63651 0.77868 0.0
C618 C 0.17745 0.61844 0.82218 0.0
C619 C 0.03818 0.53535 0.97794 0.0
O620 O 0.01756 0.60975 1.0235 0.0
O621 O 0.07863 0.62977 0.99661 0.0
O622 O 0.92671 0.62258 0.97163 0.0
O623 O 0.92964 0.55799 0.9695 0.0
O624 O 0.96755 0.65057 0.89419 0.0
O625 O 0.02541 0.64716 0.93398 0.0
O626 O 0.02261 0.59624 0.84631 0.0
O627 O 0.96256 0.57102 0.87117 0.0
O628 O 0.10409 0.57499 0.87818 0.0
O629 O 0.1196 0.6334 0.91545 0.0
O630 O 0.07537 0.55069 0.98026 0.0
O631 O 0.01711 0.55175 0.94178 0.0
H632 H 0.96028 0.56711 0.0686 0.0
H633 H 0.95327 0.58453 0.15494 0.0
H634 H 0.83517 0.62208 0.10051 0.0
H635 H 0.84243 0.60475 1.01406 0.0
H636 H 0.08678 0.65641 0.81851 0.0
H637 H 0.10705 0.68799 0.74242 0.0
H638 H 0.21798 0.63094 0.76826 0.0
H639 H 0.19726 0.59916 0.84448 0.0
C640 C 0.1923 0.06867 0.95973 0.0
C641 C 0.19905 0.10973 0.97361 0.0
H642 H 0.17768 0.02585 0.8986 0.0
C643 C 0.20567 0.13829 0.9361 0.0
H644 H 0.18853 0.04561 0.98771 0.0
C645 C 0.20098 0.1266 0.88553 0.0
C646 C 0.18925 0.08631 0.8714 0.0
H647 H 0.21067 0.17014 0.94473 0.0
H648 H 0.20258 0.14964 0.85703 0.0
C649 C 0.18655 0.05714 0.90886 0.0
C650 C 0.1434 0.84877 0.30337 0.0
C651 C 0.14832 0.80785 0.31119 0.0
H652 H 0.13933 0.897 0.25053 0.0
C653 C 0.15144 0.78356 0.26978 0.0
H654 H 0.14091 0.86839 0.33446 0.0
C655 C 0.15084 0.80011 0.2217 0.0
C656 C 0.14727 0.84129 0.21434 0.0
H657 H 0.15511 0.75198 0.27465 0.0
H658 H 0.15413 0.7809 0.19054 0.0
C659 C 0.14299 0.86533 0.25544 0.0
C660 C 0.34317 0.91926 0.52659 0.0
C661 C 0.33768 0.89029 0.48791 0.0
H662 H 0.36943 0.93231 0.60334 0.0
C663 C 0.33704 0.84947 0.50087 0.0
H664 H 0.34333 0.95089 0.51738 0.0
C665 C 0.3538 0.83896 0.54946 0.0
C666 C 0.36873 0.86926 0.58523 0.0
H667 H 0.33259 0.8266 0.47159 0.0
H668 H 0.36104 0.80836 0.55635 0.0
C669 C 0.35849 0.90855 0.57581 0.0
C670 C 0.39101 0.20185 0.72518 0.0
C671 C 0.38772 0.17515 0.76533 0.0
H672 H 0.39335 0.20856 0.64641 0.0
C673 C 0.38757 0.13374 0.75726 0.0
H674 H 0.39174 0.23393 0.73063 0.0
C675 C 0.38893 0.11917 0.70908 0.0
C676 C 0.39049 0.14585 0.66849 0.0
H677 H 0.38495 0.11249 0.78763 0.0
H678 H 0.38852 0.08708 0.70352 0.0
C679 C 0.39215 0.18734 0.67708 0.0
C680 C 0.98058 0.85562 0.14039 0.0
C681 C 0.93822 0.85201 0.13703 0.0
H682 H 0.0314 0.86701 0.10133 0.0
C683 C 0.91427 0.85576 0.08975 0.0
H684 H -0.00022 0.85316 0.17652 0.0
C685 C 0.93231 0.86342 1.04667 0.0
C686 C 0.9747 0.86784 1.0501 0.0
H687 H 0.88155 0.85268 0.08606 0.0
H688 H 0.91294 0.86664 1.01085 0.0
C689 C -0.00133 0.86362 0.09737 0.0
C690 C 0.94106 0.22957 0.96864 0.0
C691 C 0.95475 0.21708 0.92452 0.0
H692 H 0.94306 0.22377 1.04955 0.0
C693 C 0.98366 0.18887 0.93117 0.0
H694 H 0.91879 0.251 0.96566 0.0
C695 C -0.00133 0.17428 0.97968 0.0
C696 C 0.98413 0.1858 1.02355 0.0
H697 H -0.00482 0.1783 0.89866 0.0
H698 H 0.0212 0.15311 0.98268 0.0
C699 C 0.95488 0.21367 1.01699 0.0
C700 C 0.62644 0.14166 0.64225 0.0
C701 C 0.60414 0.13375 0.68201 0.0
H702 H 0.626 0.14265 0.56259 0.0
C703 C 0.56238 0.12165 0.67059 0.0
H704 H 0.6587 0.15067 0.64979 0.0
C705 C 0.54349 0.11686 0.62036 0.0
C706 C 0.56606 0.12409 0.58068 0.0
H707 H 0.54427 0.116 0.70047 0.0
H708 H 0.51143 0.10685 0.61274 0.0
C709 C 0.60762 0.13695 0.5922 0.0
C710 C 0.57865 0.73802 0.33816 0.0
C711 C 0.57567 0.77917 0.3474 0.0
H712 H 0.59263 0.69289 0.28858 0.0
C713 C 0.58579 0.8063 0.30929 0.0
H714 H 0.57052 0.71547 0.36501 0.0
C715 C 0.5981 0.79298 0.26448 0.0
C716 C 0.60129 0.75193 0.25568 0.0
H717 H 0.5847 0.83822 0.31404 0.0
H718 H 0.60512 0.8151 0.23654 0.0
C719 C 0.59135 0.72479 0.29362 0.0
C720 C 0.67524 0.52081 0.39823 0.0
C721 C 0.69035 0.5513 0.36777 0.0
H722 H 0.66571 0.50303 0.47258 0.0
C723 C 0.71407 0.58502 0.39124 0.0
H724 H 0.65779 0.49395 0.38132 0.0
C725 C 0.7174 0.59106 0.44319 0.0
C726 C 0.69782 0.56298 0.47309 0.0
H727 H 0.72671 0.60883 0.36914 0.0
H728 H 0.73208 0.61962 0.45853 0.0
C729 C 0.67946 0.52632 0.45054 0.0
C730 C 0.63614 0.35504 0.80724 0.0
C731 C 0.64215 0.31428 0.81413 0.0
H732 H 0.62971 0.40361 0.75511 0.0
C733 C 0.64629 0.29094 0.7723 0.0
H734 H 0.63296 0.37391 0.83876 0.0
C735 C 0.64492 0.3081 0.72459 0.0
C736 C 0.63933 0.34893 0.71785 0.0
H737 H 0.65107 0.25954 0.7764 0.0
H738 H 0.64867 0.28951 0.69306 0.0
C739 C 0.63479 0.37222 0.75951 0.0
C740 C 0.85888 0.44303 0.07326 0.0
C741 C 0.86068 0.40334 0.09008 0.0
H742 H 0.85129 0.47977 1.00744 0.0
C743 C 0.8381 0.37202 0.06053 0.0
H744 H 0.87559 0.46772 0.09607 0.0
C745 C 0.82314 0.37906 1.01002 0.0
C746 C 0.83227 0.41707 0.98943 0.0
H747 H 0.83861 0.34119 0.07327 0.0
H748 H 0.81249 0.35327 0.98551 0.0
C749 C 0.84484 0.44999 1.02239 0.0
C750 C 0.90493 0.62767 0.27344 0.0
C751 C 0.89541 0.66767 0.27264 0.0
H752 H 0.91163 0.57615 0.22946 0.0
C753 C 0.88714 0.68719 0.22614 0.0
H754 H 0.91143 0.6119 0.3088 0.0
C755 C 0.88664 0.6666 0.18123 0.0
C756 C 0.89468 0.62625 0.18192 0.0
H757 H 0.87973 0.71798 0.22418 0.0
H758 H 0.87988 0.68227 0.14581 0.0
C759 C 0.90481 0.60714 0.22826 0.0
C760 C 0.47782 0.36981 0.60538 0.0
C761 C 0.45661 0.36129 0.55651 0.0
H762 H 0.47514 0.37084 0.68474 0.0
C763 C 0.41565 0.34578 0.55086 0.0
H764 H 0.50939 0.38183 0.61104 0.0
C765 C 0.39598 0.34 0.59287 0.0
C766 C 0.41678 0.34945 0.64164 0.0
H767 H 0.39829 0.33894 0.5138 0.0
H768 H 0.36412 0.32909 0.58691 0.0
C769 C 0.45807 0.36396 0.64754 0.0
C770 C 0.51293 0.67551 0.48482 0.0
C771 C 0.49961 0.6895 0.52837 0.0
H772 H 0.5086 0.67677 0.40353 0.0
C773 C 0.47167 0.71866 0.52072 0.0
H774 H 0.53411 0.65299 0.48848 0.0
C775 C 0.45793 0.73339 0.47178 0.0
C776 C 0.47033 0.71849 0.42809 0.0
H777 H 0.4605 0.7304 0.55284 0.0
H778 H 0.43663 0.7558 0.46808 0.0
C779 C 0.49804 0.68913 0.43573 0.0
C780 C 0.13825 0.64496 0.14557 0.0
C781 C 0.11726 0.63467 0.18598 0.0
H782 H 0.13536 0.65061 0.06575 0.0
C783 C 0.07535 0.62308 0.17573 0.0
H784 H 0.17058 0.65368 0.15212 0.0
C785 C 0.05505 0.62112 0.12602 0.0
C786 C 0.07625 0.63083 0.08561 0.0
H787 H 0.05813 0.61574 0.20613 0.0
H788 H 0.02295 0.61135 0.11933 0.0
C789 C 0.11798 0.64318 0.09598 0.0
C790 C 0.0763 0.22813 0.79505 0.0
C791 C 0.08615 0.25536 0.75714 0.0
H792 H 0.05518 0.21863 0.86634 0.0
C793 C 0.08222 0.29627 0.76574 0.0
H794 H 0.07825 0.19632 0.79022 0.0
C795 C 0.06922 0.3094 0.81018 0.0
C796 C 0.05911 0.28223 0.84826 0.0
H797 H 0.08922 0.3185 0.73791 0.0
H798 H 0.06767 0.34127 0.81469 0.0
C799 C 0.06298 0.24119 0.83936 0.0
C800 C 0.92747 0.24793 0.20035 0.0
C801 C 0.94342 0.28555 0.22015 0.0
H802 H 0.94433 0.19247 0.17837 0.0
C803 C 0.97602 0.2873 0.26065 0.0
H804 H 0.90024 0.24482 0.17245 0.0
C805 C 0.00331 0.25839 0.26206 0.0
C806 C 0.99354 0.22594 0.22835 0.0
H807 H 0.98633 0.31528 0.281 0.0
H808 H 0.03317 0.2639 0.28432 0.0
C809 C 0.95348 0.21817 0.20298 0.0
C810 C 0.00482 0.78013 0.46221 0.0
C811 C 0.97753 0.74491 0.45773 0.0
H812 H 0.06689 0.80546 0.47006 0.0
C813 C 0.99311 0.70751 0.46278 0.0
H814 H 0.99382 0.80949 0.45829 0.0
C815 C 0.03505 0.70535 0.47077 0.0
C816 C 0.06224 0.74052 0.47248 0.0
H817 H 0.97285 0.67994 0.4594 0.0
H818 H 0.0461 0.676 0.47334 0.0
C819 C 0.0467 0.77793 0.46882 0.0
C820 C 0.5601 0.76108 0.77521 0.0
C821 C 0.53854 0.7259 0.75321 0.0
H822 H 0.55499 0.82265 0.79104 0.0
C823 C 0.49638 0.7206 0.75116 0.0
H824 H 0.59287 0.76511 0.78117 0.0
C825 C 0.47576 0.75411 0.75558 0.0
C826 C 0.4982 0.79156 0.75543 0.0
H827 H 0.47955 0.69245 0.73897 0.0
H828 H 0.44323 0.75123 0.74407 0.0
C829 C 0.53837 0.79382 0.78059 0.0
C830 C 0.53549 0.27954 0.96493 0.0
C831 C 0.55154 0.24234 0.96988 0.0
H832 H 0.48199 0.31037 0.95269 0.0
C833 C 0.52467 0.20698 0.96868 0.0
H834 H 0.55541 0.30722 0.96572 0.0
C835 C 0.48269 0.20867 0.96003 0.0
C836 C 0.46661 0.24577 0.95378 0.0
H837 H 0.53602 0.17778 0.97228 0.0
H838 H 0.46278 0.18089 0.95721 0.0
C839 C 0.49345 0.28127 0.95761 0.0
C840 C 0.99464 0.77834 0.88405 0.0
C841 C 0.03531 0.79469 0.89199 0.0
H842 H 0.95301 0.72494 0.87929 0.0
C843 C 0.06578 0.76839 0.89743 0.0
H844 H 0.97058 0.79786 0.8797 0.0
C845 C 0.0558 0.72669 0.89834 0.0
C846 C 0.01516 0.71041 0.89263 0.0
H847 H 0.09745 0.78004 0.90368 0.0
H848 H 0.07988 0.70723 0.90507 0.0
C849 C 0.98465 0.73658 0.88377 0.0
C850 C 0.51091 0.69392 0.16297 0.0
C851 C 0.51862 0.71572 0.11971 0.0
H852 H 0.4994 0.69664 0.23908 0.0
C853 C 0.51363 0.75691 0.11776 0.0
H854 H 0.51632 0.66258 0.16678 0.0
C855 C 0.50402 0.77639 0.15963 0.0
C856 C 0.49869 0.75484 0.20378 0.0
H857 H 0.52111 0.77474 0.08588 0.0
H858 H 0.50155 0.80841 0.15778 0.0
C859 C 0.502 0.71351 0.20491 0.0
C860 C 0.47551 0.22803 0.38537 0.0
C861 C 0.50715 0.2032 0.39524 0.0
H862 H 0.45854 0.28827 0.38268 0.0
C863 C 0.54719 0.22125 0.40543 0.0
H864 H 0.44428 0.21507 0.37752 0.0
C865 C 0.55532 0.26325 0.40725 0.0
C866 C 0.52351 0.288 0.40015 0.0
H867 H 0.57212 0.20289 0.41318 0.0
H868 H 0.58646 0.27626 0.41647 0.0
C869 C 0.48359 0.26997 0.38841 0.0
C870 C -0.00277 0.19651 0.65984 0.0
C871 C 0.00635 0.21912 0.61776 0.0
H872 H 0.98397 0.19784 0.7353 0.0
C873 C 0.00181 0.26041 0.6169 0.0
H874 H 0.00217 0.16501 0.66285 0.0
C875 C 0.99154 0.2792 0.65887 0.0
C876 C 0.98497 0.25684 0.70201 0.0
H877 H 0.01026 0.27884 0.58597 0.0
H878 H 0.98951 0.31131 0.6579 0.0
C879 C 0.98761 0.21539 0.70191 0.0
C880 C 0.03409 0.01062 0.09032 0.0
C881 C 0.04622 0.05175 0.08546 0.0
H882 H 0.01378 0.95451 1.05244 0.0
C883 C 0.05496 0.06553 1.03806 0.0
H884 H 0.02522 -0.00068 0.12545 0.0
C885 C 0.04937 0.03937 0.99601 0.0
C886 C 0.03329 -0.00077 1.00007 0.0
H887 H 0.06224 0.09738 1.03221 0.0
H888 H 0.05389 0.05148 0.95943 0.0
C889 C 0.02698 0.98492 1.04804 0.0
C890 C 0.27851 0.79793 0.36223 0.0
C891 C 0.27288 0.77692 0.40689 0.0
H892 H 0.30962 0.80321 0.29766 0.0
C893 C 0.29526 0.74437 0.42051 0.0
H894 H 0.26106 0.82272 0.35021 0.0
C895 C 0.32284 0.73323 0.39032 0.0
C896 C 0.32877 0.75443 0.34588 0.0
H897 H 0.29164 0.72768 0.45464 0.0
H898 H 0.3397 0.70794 0.40195 0.0
C899 C 0.30629 0.78689 0.33211 0.0
C900 C 0.47615 0.98689 0.51362 0.0
C901 C 0.51672 0.00238 0.51385 0.0
H902 H 0.43227 0.95768 0.55656 0.0
C903 C 0.5447 -0.00224 0.55795 0.0
H904 H 0.45425 0.98822 0.47961 0.0
C905 C 0.5326 0.97851 0.60046 0.0
C906 C 0.49193 0.96442 0.60097 0.0
H907 H 0.5763 0.0089 0.55971 0.0
H908 H 0.55524 0.97448 0.63315 0.0
C909 C 0.46363 0.96916 0.55739 0.0
C910 C 0.25878 0.17326 0.75607 0.0
C911 C 0.26016 0.19615 0.8006 0.0
H912 H 0.23359 0.16425 0.67718 0.0
C913 C 0.23477 0.22679 0.79948 0.0
H914 H 0.27837 0.14957 0.75559 0.0
C915 C 0.20892 0.23462 0.75497 0.0
C916 C 0.20774 0.21218 0.71014 0.0
H917 H 0.23492 0.24478 0.83297 0.0
H918 H 0.19015 0.259 0.75552 0.0
C919 C 0.23289 0.18125 0.71121 0.0
C920 C 0.78412 0.24528 0.92073 0.0
C921 C 0.76344 0.27939 0.91 0.0
H922 H 0.82548 0.20712 0.89791 0.0
C923 C 0.76918 0.30158 0.86621 0.0
H924 H 0.78032 0.22761 0.95407 0.0
C925 C 0.79493 0.28975 0.83373 0.0
C926 C 0.81569 0.25573 0.84461 0.0
H927 H 0.7531 0.32768 0.85645 0.0
H928 H 0.79799 0.30667 0.79965 0.0
C929 C 0.80995 0.23363 0.88845 0.0
C930 C 0.733 0.67839 0.28307 0.0
C931 C 0.77031 0.702 0.29684 0.0
H932 H 0.68072 0.66425 0.22622 0.0
C933 C 0.78528 0.7264 0.25969 0.0
H934 H 0.72091 0.65852 0.31027 0.0
C935 C 0.76255 0.72926 0.21149 0.0
C936 C 0.72459 0.70688 0.19825 0.0
H937 H 0.81486 0.74273 0.26708 0.0
H938 H 0.77427 0.75003 0.18472 0.0
C939 C 0.71026 0.68096 0.23446 0.0
C940 C 0.53841 0.55303 0.53869 0.0
C941 C 0.52426 0.54335 0.5846 0.0
H942 H 0.54036 0.53488 0.46214 0.0
C943 C 0.50201 0.50584 0.58834 0.0
H944 H 0.55343 0.58269 0.53348 0.0
C945 C 0.49222 0.47971 0.54655 0.0
C946 C 0.50542 0.48987 0.50029 0.0
H947 H 0.48892 0.49829 0.62216 0.0
H948 H 0.47273 0.45228 0.54985 0.0
C949 C 0.53016 0.52604 0.49743 0.0
C950 C 0.04791 0.51651 0.06958 0.0
C951 C 0.02282 0.51535 1.02214 0.0
H952 H 0.05451 0.49873 0.1475 0.0
C953 C 0.98346 0.49571 1.01827 0.0
H954 H 0.07845 0.53139 0.07406 0.0
C955 C 0.96946 0.47796 0.06095 0.0
C956 C -0.00529 0.479 0.10808 0.0
H957 H 0.96389 0.49338 0.98208 0.0
H958 H 0.93941 0.46233 0.05678 0.0
C959 C 0.03409 0.49834 0.1119 0.0
C960 C 0.09919 0.18265 0.3604 0.0
C961 C 0.06959 0.15064 0.34212 0.0
H962 H 0.13152 0.21816 0.42391 0.0
C963 C 0.05094 0.1289 0.37942 0.0
H964 H 0.11416 0.20087 0.3338 0.0
C965 C 0.0621 0.13816 0.43219 0.0
C966 C 0.09138 0.17059 0.45025 0.0
H967 H 0.02783 0.1043 0.36789 0.0
H968 H 0.04688 0.12038 0.45891 0.0
C969 C 0.10925 0.19278 0.41275 0.0
C970 C 0.14687 0.9303 0.75214 0.0
C971 C 0.12231 0.92549 0.70462 0.0
H972 H 0.14895 0.93637 0.83215 0.0
C973 C 0.08042 0.92708 0.70114 0.0
H974 H 0.17932 0.92957 0.75568 0.0
C975 C 0.06306 0.93063 0.74468 0.0
C976 C 0.0873 0.9331 0.7925 0.0
H977 H 0.06074 0.92327 0.66503 0.0
H978 H 0.03045 0.92978 0.74101 0.0
C979 C 0.12953 0.93446 0.79576 0.0
C980 C 0.40836 0.77218 0.076 0.0
C981 C 0.41096 0.79915 0.11702 0.0
H982 H 0.41192 0.76346 0.99733 0.0
C983 C 0.42035 0.84027 0.1067 0.0
H984 H 0.40141 0.74033 0.08165 0.0
C985 C 0.42719 0.85378 0.05814 0.0
C986 C 0.42473 0.82697 1.0168 0.0
H987 H 0.42352 0.86238 0.13675 0.0
H988 H 0.43538 0.88559 1.05367 0.0
C989 C 0.41494 0.78571 1.02714 0.0
C990 C 0.41714 0.05939 0.26392 0.0
C991 C 0.45953 0.06451 0.27668 0.0
H992 H 0.36608 0.06016 0.20497 0.0
C993 C 0.48322 0.07094 0.23799 0.0
H994 H 0.39806 0.05457 0.29293 0.0
C995 C 0.46492 0.07393 0.1878 0.0
C996 C 0.42257 0.07099 0.17535 0.0
H997 H 0.51595 0.07498 0.24664 0.0
H998 H 0.48397 0.0804 0.15902 0.0
C999 C 0.39881 0.06292 0.2137 0.0
C1000 C 0.85296 0.76197 0.58168 0.0
C1001 C 0.84925 0.78338 0.53603 0.0
H1002 H 0.8663 0.76472 0.66249 0.0
C1003 C 0.85368 0.82567 0.53813 0.0
H1004 H 0.84991 0.7294 0.58151 0.0
C1005 C 0.86354 0.84598 0.58475 0.0
C1006 C 0.86867 0.82449 0.63032 0.0
H1007 H 0.85138 0.84312 0.50373 0.0
H1008 H 0.86772 0.87853 0.5851 0.0
C1009 C 0.86235 0.78225 0.62819 0.0
C1010 C 0.85853 0.13215 0.4686 0.0
C1011 C 0.87177 0.10288 0.50344 0.0
H1012 H 0.85116 0.15113 0.39159 0.0
C1013 C 0.88364 0.06727 0.48577 0.0
H1014 H 0.84848 0.15955 0.48128 0.0
C1015 C 0.8852 0.06245 0.4343 0.0
C1016 C 0.8748 0.09317 0.40005 0.0
H1017 H 0.89401 0.04433 0.51201 0.0
H1018 H 0.89691 0.0359 0.42185 0.0
C1019 C 0.86001 0.12734 0.41739 0.0
C1020 C 0.68461 0.17192 0.11427 0.0
C1021 C 0.68274 0.21361 0.10925 0.0
H1022 H 0.67859 0.12038 0.1617 0.0
C1023 C 0.67651 0.23595 0.15103 0.0
H1024 H 0.68922 0.1538 0.08275 0.0
C1025 C 0.67065 0.21678 0.19625 0.0
C1026 C 0.67042 0.17485 0.20035 0.0
H1027 H 0.67493 0.2681 0.14836 0.0
H1028 H 0.66452 0.23455 0.22728 0.0
C1029 C 0.67821 0.1527 0.15929 0.0
C1030 C 0.61199 0.92032 0.79185 0.0
C1031 C 0.60489 0.89137 0.75304 0.0
H1032 H 0.63381 0.93215 0.86988 0.0
C1033 C 0.62655 0.85756 0.75796 0.0
H1034 H 0.59572 0.9468 0.78849 0.0
C1035 C 0.64808 0.84872 0.80507 0.0
C1036 C 0.6484 0.87403 0.84689 0.0
H1037 H 0.62148 0.83485 0.72839 0.0
H1038 H 0.66006 0.81986 0.81019 0.0
C1039 C 0.63372 0.91173 0.83867 0.0
C1040 C 0.55506 0.62233 0.88131 0.0
C1041 C 0.57628 0.63931 0.84329 0.0
H1042 H 0.54993 0.61891 0.96088 0.0
C1043 C 0.60954 0.66819 0.85983 0.0
H1044 H 0.52902 0.6005 0.87086 0.0
C1045 C 0.62062 0.68006 0.91149 0.0
C1046 C 0.60003 0.66249 0.94972 0.0
H1047 H 0.62647 0.68283 0.83234 0.0
H1048 H 0.64569 0.70305 0.92155 0.0
C1049 C 0.56721 0.633 0.93339 0.0
C1050 C 0.60722 0.4291 0.29884 0.0
C1051 C 0.56483 0.42459 0.29497 0.0
H1052 H 0.65821 0.42774 0.25997 0.0
C1053 C 0.54112 0.41905 0.24702 0.0
H1054 H 0.62625 0.43299 0.33536 0.0
C1055 C 0.55937 0.41612 0.20404 0.0
C1056 C 0.60168 0.41818 0.20824 0.0
H1057 H 0.50838 0.41555 0.24289 0.0
H1058 H 0.54027 0.41014 0.16784 0.0
C1059 C 0.6255 0.42568 0.25584 0.0
C1060 C 0.91159 0.35832 0.55585 0.0
C1061 C 0.91528 0.33196 0.51601 0.0
H1062 H 0.90212 0.3659 0.63283 0.0
C1063 C 0.90998 0.29031 0.527 0.0
H1064 H 0.91442 0.39048 0.55015 0.0
C1065 C 0.90201 0.27602 0.57506 0.0
C1066 C 0.89905 0.30251 0.61493 0.0
H1067 H 0.91289 0.26829 0.4988 0.0
H1068 H 0.89913 0.24394 0.58124 0.0
C1069 C 0.90382 0.34401 0.60388 0.0
C1070 C 0.98817 0.58444 0.743 0.0
C1071 C 0.96512 0.57701 0.78219 0.0
H1072 H 0.98754 0.59443 0.66382 0.0
C1073 C 0.92269 0.57087 0.77019 0.0
H1074 H 0.0209 0.58931 0.75101 0.0
C1075 C 0.90365 0.57418 0.72035 0.0
C1076 C 0.92667 0.58314 0.68153 0.0
H1077 H 0.90401 0.56512 0.79948 0.0
H1078 H 0.87088 0.57043 0.71227 0.0
C1079 C 0.9691 0.58729 0.69308 0.0
C1080 C 0.34993 0.26542 0.13087 0.0
C1081 C 0.35169 0.30748 0.13488 0.0
H1082 H 0.34274 0.2142 0.08164 0.0
C1083 C 0.34345 0.32997 0.09056 0.0
H1084 H 0.35628 0.24725 0.16429 0.0
C1085 C 0.33523 0.31098 1.04314 0.0
C1086 C 0.33562 0.26912 1.03901 0.0
H1087 H 0.34407 0.36238 0.09251 0.0
H1088 H 0.3305 0.32938 1.00968 0.0
C1089 C 0.3422 0.24648 0.08347 0.0
C1090 C 0.35656 0.63809 0.97403 0.0
C1091 C 0.37346 0.60819 1.00505 0.0
H1092 H 0.34338 0.66059 0.89898 0.0
C1093 C 0.38658 0.57509 0.98303 0.0
H1094 H 0.34591 0.6637 0.99044 0.0
C1095 C 0.38579 0.57359 0.93076 0.0
C1096 C 0.37154 0.60503 0.89988 0.0
H1097 H 0.3999 0.55187 1.00647 0.0
H1098 H 0.39881 0.54917 0.91508 0.0
C1099 C 0.35535 0.6364 0.92186 0.0
C1100 C 0.19949 0.67802 0.62233 0.0
C1101 C 0.19149 0.71794 0.61179 0.0
H1102 H 0.19691 0.62896 0.67421 0.0
C1103 C 0.17818 0.74034 0.64902 0.0
H1104 H 0.20973 0.6599 0.5945 0.0
C1105 C 0.17076 0.72259 0.69445 0.0
C1106 C 0.17659 0.68207 0.70386 0.0
H1107 H 0.17196 0.77124 0.64244 0.0
H1108 H 0.15957 0.74039 0.72183 0.0
C1109 C 0.19216 0.66027 0.668 0.0
C1110 C 0.10447 0.33718 0.25848 0.0
C1111 C 0.09366 0.37632 0.25041 0.0
H1112 H 0.13002 0.29622 0.31317 0.0
C1113 C 0.11138 0.40705 0.28451 0.0
H1114 H 0.09095 0.31306 0.23252 0.0
C1115 C 0.13332 0.39749 0.33077 0.0
C1116 C 0.13731 0.35706 0.34311 0.0
H1117 H 0.10334 0.43748 0.27862 0.0
H1118 H 0.14172 0.42101 0.35915 0.0
C1119 C 0.12638 0.32753 0.3049 0.0
loop_
_geom_bond_atom_site_label_1
_geom_bond_atom_site_label_2
_geom_bond_distance
_geom_bond_site_symmetry_2
_ccdc_geom_bond_type
Ho0 C3 2.794 1_554 S
Ho0 O20 2.322 1_455 S
Ho0 O22 2.378 . S
Ho0 O23 2.524 . S
Ho0 O24 2.381 . S
Ho0 O25 2.669 1_455 S
Ho0 O27 2.346 . S
Ho0 O31 2.305 . S
Ho1 C12 2.811 . S
Ho1 O21 2.346 . S
Ho1 O25 2.305 . S
Ho1 O26 2.322 1_655 S
Ho1 O28 2.378 . S
Ho1 O29 2.524 . S
Ho1 O30 2.381 . S
Ho1 O31 2.669 1_655 S
C2 O20 1.259 . S
C2 O21 1.268 . S
C3 Ho0 2.794 1_556 S
C3 C4 1.505 . S
C3 O22 1.205 1_556 S
C3 O23 1.283 1_556 S
C4 C3 1.505 . S
C4 C5 1.348 . S
C4 C9 1.413 . S
C5 C4 1.348 . S
C5 C6 1.442 . S
C5 H32 0.930 . S
C6 C5 1.442 . S
C6 C7 1.381 . S
C6 H33 0.931 . S
C7 C6 1.381 . S
C7 C8 1.321 . S
C8 C7 1.321 . S
C8 C9 1.403 . S
C8 H34 0.934 . S
C9 C4 1.413 . S
C9 C8 1.403 . S
C9 H35 0.930 . S
C10 O24 1.275 . S
C10 O25 1.256 1_455 S
C11 O26 1.259 . S
C11 O27 1.268 . S
C12 Ho1 2.811 . S
C12 C13 1.488 . S
C12 O28 1.215 . S
C12 O29 1.289 . S
C13 C12 1.488 . S
C13 C14 1.348 . S
C13 C18 1.413 . S
C14 C13 1.348 . S
C14 C15 1.442 . S
C14 H36 0.930 . S
C15 C14 1.442 . S
C15 C16 1.381 . S
C15 H37 0.931 . S
C16 C15 1.381 . S
C16 C17 1.321 . S
C17 C16 1.321 . S
C17 C18 1.403 . S
C17 H38 0.934 . S
C18 C13 1.413 . S
C18 C17 1.403 . S
C18 H39 0.930 . S
C19 O30 1.275 . S
C19 O31 1.256 1_655 S
O20 Ho0 2.322 1_655 S
O20 C2 1.259 . S
O21 Ho1 2.346 . S
O21 C2 1.268 . S
O22 Ho0 2.378 . S
O22 C3 1.205 1_554 S
O23 Ho0 2.524 . S
O23 C3 1.283 1_554 S
O24 Ho0 2.381 . S
O24 C10 1.275 . S
O25 Ho0 2.669 1_655 S
O25 Ho1 2.305 . S
O25 C10 1.256 1_655 S
O26 Ho1 2.322 1_455 S
O26 C11 1.259 . S
O27 Ho0 2.346 . S
O27 C11 1.268 . S
O28 Ho1 2.378 . S
O28 C12 1.215 . S
O29 Ho1 2.524 . S
O29 C12 1.289 . S
O30 Ho1 2.381 . S
O30 C19 1.275 . S
O31 Ho0 2.305 . S
O31 Ho1 2.669 1_455 S
O31 C19 1.256 1_455 S
H32 C5 0.930 . S
H33 C6 0.931 . S
H34 C8 0.934 . S
H35 C9 0.930 . S
H36 C14 0.930 . S
H37 C15 0.931 . S
H38 C17 0.934 . S
H39 C18 0.930 . S
Ho40 C43 2.811 . S
Ho40 O60 2.322 . S
Ho40 O62 2.378 . S
Ho40 O63 2.524 . S
Ho40 O64 2.381 . S
Ho40 O65 2.669 . S
Ho40 O67 2.346 . S
Ho40 O71 2.305 . S
Ho41 C52 2.811 . S
Ho41 O61 2.346 . S
Ho41 O65 2.305 . S
Ho41 O66 2.322 . S
Ho41 O68 2.378 . S
Ho41 O69 2.524 . S
Ho41 O70 2.381 . S
Ho41 O71 2.669 . S
C42 O60 1.259 . S
C42 O61 1.268 . S
C43 Ho40 2.811 . S
C43 C44 1.488 . S
C43 O62 1.215 . S
C43 O63 1.289 . S
C44 C43 1.488 . S
C44 C45 1.348 . S
C44 C49 1.413 . S
C45 C44 1.348 . S
C45 C46 1.442 . S
C45 H72 0.930 . S
C46 C45 1.442 . S
C46 C47 1.381 . S
C46 H73 0.931 . S
C47 C46 1.381 . S
C47 C48 1.321 . S
C48 C47 1.321 . S
C48 C49 1.403 . S
C48 H74 0.934 . S
C49 C44 1.413 . S
C49 C48 1.403 . S
C49 H75 0.930 . S
C50 O64 1.275 . S
C50 O65 1.256 . S
C51 O66 1.259 . S
C51 O67 1.268 . S
C52 Ho41 2.811 . S
C52 C53 1.488 . S
C52 O68 1.215 . S
C52 O69 1.289 . S
C53 C52 1.488 . S
C53 C54 1.348 . S
C53 C58 1.413 . S
C54 C53 1.348 . S
C54 C55 1.442 . S
C54 H76 0.930 . S
C55 C54 1.442 . S
C55 C56 1.381 . S
C55 H77 0.931 . S
C56 C55 1.381 . S
C56 C57 1.321 . S
C57 C56 1.321 . S
C57 C58 1.403 . S
C57 H78 0.934 . S
C58 C53 1.413 . S
C58 C57 1.403 . S
C58 H79 0.930 . S
C59 O70 1.275 . S
C59 O71 1.256 . S
O60 Ho40 2.322 . S
O60 C42 1.259 . S
O61 Ho41 2.346 . S
O61 C42 1.268 . S
O62 Ho40 2.378 . S
O62 C43 1.215 . S
O63 Ho40 2.524 . S
O63 C43 1.289 . S
O64 Ho40 2.381 . S
O64 C50 1.275 . S
O65 Ho40 2.669 . S
O65 Ho41 2.305 . S
O65 C50 1.256 . S
O66 Ho41 2.322 . S
O66 C51 1.259 . S
O67 Ho40 2.346 . S
O67 C51 1.268 . S
O68 Ho41 2.378 . S
O68 C52 1.215 . S
O69 Ho41 2.524 . S
O69 C52 1.289 . S
O70 Ho41 2.381 . S
O70 C59 1.275 . S
O71 Ho40 2.305 . S
O71 Ho41 2.669 . S
O71 C59 1.256 . S
H72 C45 0.930 . S
H73 C46 0.931 . S
H74 C48 0.934 . S
H75 C49 0.930 . S
H76 C54 0.930 . S
H77 C55 0.931 . S
H78 C57 0.934 . S
H79 C58 0.930 . S
Ho80 C83 2.811 . S
Ho80 O100 2.322 . S
Ho80 O102 2.378 . S
Ho80 O103 2.524 . S
Ho80 O104 2.381 . S
Ho80 O105 2.669 . S
Ho80 O107 2.346 . S
Ho80 O111 2.305 . S
Ho81 C92 2.811 . S
Ho81 O101 2.346 . S
Ho81 O105 2.305 . S
Ho81 O106 2.322 . S
Ho81 O108 2.378 . S
Ho81 O109 2.524 . S
Ho81 O110 2.381 . S
Ho81 O111 2.669 . S
C82 O100 1.259 . S
C82 O101 1.268 . S
C83 Ho80 2.811 . S
C83 C84 1.488 . S
C83 O102 1.215 . S
C83 O103 1.289 . S
C84 C83 1.488 . S
C84 C85 1.348 . S
C84 C89 1.413 . S
C85 C84 1.348 . S
C85 C86 1.442 . S
C85 H112 0.930 . S
C86 C85 1.442 . S
C86 C87 1.381 . S
C86 H113 0.931 . S
C87 C86 1.381 . S
C87 C88 1.321 . S
C88 C87 1.321 . S
C88 C89 1.403 . S
C88 H114 0.934 . S
C89 C84 1.413 . S
C89 C88 1.403 . S
C89 H115 0.930 . S
C90 O104 1.275 . S
C90 O105 1.256 . S
C91 O106 1.259 . S
C91 O107 1.268 . S
C92 Ho81 2.811 . S
C92 C93 1.488 . S
C92 O108 1.215 . S
C92 O109 1.289 . S
C93 C92 1.488 . S
C93 C94 1.348 . S
C93 C98 1.413 . S
C94 C93 1.348 . S
C94 C95 1.442 . S
C94 H116 0.930 . S
C95 C94 1.442 . S
C95 C96 1.381 . S
C95 H117 0.931 . S
C96 C95 1.381 . S
C96 C97 1.321 . S
C97 C96 1.321 . S
C97 C98 1.403 . S
C97 H118 0.934 . S
C98 C93 1.413 . S
C98 C97 1.403 . S
C98 H119 0.930 . S
C99 O110 1.275 . S
C99 O111 1.256 . S
O100 Ho80 2.322 . S
O100 C82 1.259 . S
O101 Ho81 2.346 . S
O101 C82 1.268 . S
O102 Ho80 2.378 . S
O102 C83 1.215 . S
O103 Ho80 2.524 . S
O103 C83 1.289 . S
O104 Ho80 2.381 . S
O104 C90 1.275 . S
O105 Ho80 2.669 . S
O105 Ho81 2.305 . S
O105 C90 1.256 . S
O106 Ho81 2.322 . S
O106 C91 1.259 . S
O107 Ho80 2.346 . S
O107 C91 1.268 . S
O108 Ho81 2.378 . S
O108 C92 1.215 . S
O109 Ho81 2.524 . S
O109 C92 1.289 . S
O110 Ho81 2.381 . S
O110 C99 1.275 . S
O111 Ho80 2.305 . S
O111 Ho81 2.669 . S
O111 C99 1.256 . S
H112 C85 0.930 . S
H113 C86 0.931 . S
H114 C88 0.934 . S
H115 C89 0.930 . S
H116 C94 0.930 . S
H117 C95 0.931 . S
H118 C97 0.934 . S
H119 C98 0.930 . S
Ho120 C123 2.811 . S
Ho120 O140 2.322 . S
Ho120 O142 2.378 . S
Ho120 O143 2.524 . S
Ho120 O144 2.381 . S
Ho120 O145 2.669 . S
Ho120 O147 2.346 . S
Ho120 O151 2.305 . S
Ho121 C132 2.811 . S
Ho121 O141 2.346 . S
Ho121 O145 2.305 . S
Ho121 O146 2.322 . S
Ho121 O148 2.378 . S
Ho121 O149 2.524 . S
Ho121 O150 2.381 . S
Ho121 O151 2.669 . S
C122 O140 1.259 . S
C122 O141 1.268 . S
C123 Ho120 2.811 . S
C123 C124 1.488 1_556 S
C123 O142 1.215 . S
C123 O143 1.289 . S
C124 C123 1.488 1_554 S
C124 C125 1.348 . S
C124 C129 1.413 . S
C125 C124 1.348 . S
C125 C126 1.442 . S
C125 H152 0.930 . S
C126 C125 1.442 . S
C126 C127 1.381 . S
C126 H153 0.931 . S
C127 C126 1.381 . S
C127 C128 1.321 . S
C128 C127 1.321 . S
C128 C129 1.403 . S
C128 H154 0.934 . S
C129 C124 1.413 . S
C129 C128 1.403 . S
C129 H155 0.930 1_554 S
C130 O144 1.275 . S
C130 O145 1.256 . S
C131 O146 1.259 . S
C131 O147 1.268 . S
C132 Ho121 2.811 . S
C132 C133 1.488 . S
C132 O148 1.215 . S
C132 O149 1.289 . S
C133 C132 1.488 . S
C133 C134 1.348 . S
C133 C138 1.413 . S
C134 C133 1.348 . S
C134 C135 1.442 . S
C134 H156 0.930 . S
C135 C134 1.442 . S
C135 C136 1.381 . S
C135 H157 0.931 . S
C136 C135 1.381 . S
C136 C137 1.321 . S
C137 C136 1.321 . S
C137 C138 1.403 . S
C137 H158 0.934 . S
C138 C133 1.413 . S
C138 C137 1.403 . S
C138 H159 0.930 . S
C139 O150 1.275 . S
C139 O151 1.256 . S
O140 Ho120 2.322 . S
O140 C122 1.259 . S
O141 Ho121 2.346 . S
O141 C122 1.268 . S
O142 Ho120 2.378 . S
O142 C123 1.215 . S
O143 Ho120 2.524 . S
O143 C123 1.289 . S
O144 Ho120 2.381 . S
O144 C130 1.275 . S
O145 Ho120 2.669 . S
O145 Ho121 2.305 . S
O145 C130 1.256 . S
O146 Ho121 2.322 . S
O146 C131 1.259 . S
O147 Ho120 2.346 . S
O147 C131 1.268 . S
O148 Ho121 2.378 . S
O148 C132 1.215 . S
O149 Ho121 2.524 . S
O149 C132 1.289 . S
O150 Ho121 2.381 . S
O150 C139 1.275 . S
O151 Ho120 2.305 . S
O151 Ho121 2.669 . S
O151 C139 1.256 . S
H152 C125 0.930 . S
H153 C126 0.931 . S
H154 C128 0.934 . S
H155 C129 0.930 1_556 S
H156 C134 0.930 . S
H157 C135 0.931 . S
H158 C137 0.934 . S
H159 C138 0.930 . S
Ho160 C163 2.811 1_556 S
Ho160 O180 2.322 . S
Ho160 O182 2.378 . S
Ho160 O183 2.524 1_556 S
Ho160 O184 2.381 . S
Ho160 O185 2.669 . S
Ho160 O187 2.346 . S
Ho160 O191 2.305 . S
Ho161 C172 2.811 . S
Ho161 O181 2.346 . S
Ho161 O185 2.305 1_655 S
Ho161 O186 2.322 1_655 S
Ho161 O188 2.378 . S
Ho161 O189 2.524 . S
Ho161 O190 2.381 . S
Ho161 O191 2.669 1_655 S
C162 O180 1.259 1_655 S
C162 O181 1.268 . S
C163 Ho160 2.811 1_554 S
C163 C164 1.488 . S
C163 O182 1.215 1_554 S
C163 O183 1.289 . S
C164 C163 1.488 . S
C164 C165 1.348 . S
C164 C169 1.413 . S
C165 C164 1.348 . S
C165 C166 1.442 . S
C165 H192 0.930 . S
C166 C165 1.442 . S
C166 C167 1.381 . S
C166 H193 0.931 . S
C167 C166 1.381 . S
C167 C168 1.321 . S
C168 C167 1.321 . S
C168 C169 1.403 . S
C168 H194 0.934 . S
C169 C164 1.413 . S
C169 C168 1.403 . S
C169 H195 0.930 . S
C170 O184 1.275 . S
C170 O185 1.256 . S
C171 O186 1.259 . S
C171 O187 1.268 . S
C172 Ho161 2.811 . S
C172 C173 1.488 . S
C172 O188 1.215 . S
C172 O189 1.289 . S
C173 C172 1.488 . S
C173 C174 1.348 . S
C173 C178 1.413 . S
C174 C173 1.348 . S
C174 C175 1.442 . S
C174 H196 0.930 . S
C175 C174 1.442 . S
C175 C176 1.381 . S
C175 H197 0.931 . S
C176 C175 1.381 . S
C176 C177 1.321 . S
C177 C176 1.321 . S
C177 C178 1.403 . S
C177 H198 0.934 . S
C178 C173 1.413 . S
C178 C177 1.403 . S
C178 H199 0.930 . S
C179 O190 1.275 1_455 S
C179 O191 1.256 . S
O180 Ho160 2.322 . S
O180 C162 1.259 1_455 S
O181 Ho161 2.346 . S
O181 C162 1.268 . S
O182 Ho160 2.378 . S
O182 C163 1.215 1_556 S
O183 Ho160 2.524 1_554 S
O183 C163 1.289 . S
O184 Ho160 2.381 . S
O184 C170 1.275 . S
O185 Ho160 2.669 . S
O185 Ho161 2.305 1_455 S
O185 C170 1.256 . S
O186 Ho161 2.322 1_455 S
O186 C171 1.259 . S
O187 Ho160 2.346 . S
O187 C171 1.268 . S
O188 Ho161 2.378 . S
O188 C172 1.215 . S
O189 Ho161 2.524 . S
O189 C172 1.289 . S
O190 Ho161 2.381 . S
O190 C179 1.275 1_655 S
O191 Ho160 2.305 . S
O191 Ho161 2.669 1_455 S
O191 C179 1.256 . S
H192 C165 0.930 . S
H193 C166 0.931 . S
H194 C168 0.934 . S
H195 C169 0.930 . S
H196 C174 0.930 . S
H197 C175 0.931 . S
H198 C177 0.934 . S
H199 C178 0.930 . S
Ho200 C203 2.811 . S
Ho200 O220 2.322 . S
Ho200 O222 2.378 . S
Ho200 O223 2.524 . S
Ho200 O224 2.381 . S
Ho200 O225 2.669 . S
Ho200 O227 2.346 . S
Ho200 O231 2.305 . S
Ho201 C212 2.811 . S
Ho201 O221 2.346 . S
Ho201 O225 2.305 . S
Ho201 O226 2.322 . S
Ho201 O228 2.378 . S
Ho201 O229 2.524 . S
Ho201 O230 2.381 . S
Ho201 O231 2.669 . S
C202 O220 1.259 . S
C202 O221 1.268 . S
C203 Ho200 2.811 . S
C203 C204 1.488 . S
C203 O222 1.215 . S
C203 O223 1.289 . S
C204 C203 1.488 . S
C204 C205 1.348 . S
C204 C209 1.413 . S
C205 C204 1.348 . S
C205 C206 1.442 . S
C205 H232 0.930 . S
C206 C205 1.442 . S
C206 C207 1.381 . S
C206 H233 0.931 . S
C207 C206 1.381 . S
C207 C208 1.321 . S
C208 C207 1.321 . S
C208 C209 1.403 . S
C208 H234 0.934 . S
C209 C204 1.413 . S
C209 C208 1.403 . S
C209 H235 0.930 . S
C210 O224 1.275 . S
C210 O225 1.256 . S
C211 O226 1.259 . S
C211 O227 1.268 . S
C212 Ho201 2.811 . S
C212 C213 1.488 . S
C212 O228 1.215 . S
C212 O229 1.289 . S
C213 C212 1.488 . S
C213 C214 1.348 1_554 S
C213 C218 1.413 . S
C214 C213 1.348 1_556 S
C214 C215 1.442 . S
C214 H236 0.930 1_556 S
C215 C214 1.442 . S
C215 C216 1.381 . S
C215 H237 0.931 . S
C216 C215 1.381 . S
C216 C217 1.321 . S
C217 C216 1.321 . S
C217 C218 1.403 1_556 S
C217 H238 0.934 . S
C218 C213 1.413 . S
C218 C217 1.403 1_554 S
C218 H239 0.930 . S
C219 O230 1.275 . S
C219 O231 1.256 . S
O220 Ho200 2.322 . S
O220 C202 1.259 . S
O221 Ho201 2.346 . S
O221 C202 1.268 . S
O222 Ho200 2.378 . S
O222 C203 1.215 . S
O223 Ho200 2.524 . S
O223 C203 1.289 . S
O224 Ho200 2.381 . S
O224 C210 1.275 . S
O225 Ho200 2.669 . S
O225 Ho201 2.305 . S
O225 C210 1.256 . S
O226 Ho201 2.322 . S
O226 C211 1.259 . S
O227 Ho200 2.346 . S
O227 C211 1.268 . S
O228 Ho201 2.378 . S
O228 C212 1.215 . S
O229 Ho201 2.524 . S
O229 C212 1.289 . S
O230 Ho201 2.381 . S
O230 C219 1.275 . S
O231 Ho200 2.305 . S
O231 Ho201 2.669 . S
O231 C219 1.256 . S
H232 C205 0.930 . S
H233 C206 0.931 . S
H234 C208 0.934 . S
H235 C209 0.930 . S
H236 C214 0.930 1_554 S
H237 C215 0.931 . S
H238 C217 0.934 . S
H239 C218 0.930 . S
Ho240 C243 2.811 . S
Ho240 O260 2.322 . S
Ho240 O262 2.378 . S
Ho240 O263 2.524 . S
Ho240 O264 2.381 . S
Ho240 O265 2.669 . S
Ho240 O267 2.346 . S
Ho240 O271 2.305 . S
Ho241 C252 2.811 . S
Ho241 O261 2.346 . S
Ho241 O265 2.305 . S
Ho241 O266 2.322 . S
Ho241 O268 2.378 . S
Ho241 O269 2.524 . S
Ho241 O270 2.381 . S
Ho241 O271 2.669 . S
C242 O260 1.259 . S
C242 O261 1.268 . S
C243 Ho240 2.811 . S
C243 C244 1.488 . S
C243 O262 1.215 . S
C243 O263 1.289 . S
C244 C243 1.488 . S
C244 C245 1.348 . S
C244 C249 1.413 . S
C245 C244 1.348 . S
C245 C246 1.442 . S
C245 H272 0.930 . S
C246 C245 1.442 . S
C246 C247 1.381 . S
C246 H273 0.931 . S
C247 C246 1.381 . S
C247 C248 1.321 . S
C248 C247 1.321 . S
C248 C249 1.403 . S
C248 H274 0.934 . S
C249 C244 1.413 . S
C249 C248 1.403 . S
C249 H275 0.930 . S
C250 O264 1.275 . S
C250 O265 1.256 . S
C251 O266 1.259 . S
C251 O267 1.268 . S
C252 Ho241 2.811 . S
C252 C253 1.488 . S
C252 O268 1.215 . S
C252 O269 1.289 . S
C253 C252 1.488 . S
C253 C254 1.348 . S
C253 C258 1.413 . S
C254 C253 1.348 . S
C254 C255 1.442 . S
C254 H276 0.930 . S
C255 C254 1.442 . S
C255 C256 1.381 . S
C255 H277 0.931 . S
C256 C255 1.381 . S
C256 C257 1.321 . S
C257 C256 1.321 . S
C257 C258 1.403 . S
C257 H278 0.934 . S
C258 C253 1.413 . S
C258 C257 1.403 . S
C258 H279 0.930 . S
C259 O270 1.275 . S
C259 O271 1.256 . S
O260 Ho240 2.322 . S
O260 C242 1.259 . S
O261 Ho241 2.346 . S
O261 C242 1.268 . S
O262 Ho240 2.378 . S
O262 C243 1.215 . S
O263 Ho240 2.524 . S
O263 C243 1.289 . S
O264 Ho240 2.381 . S
O264 C250 1.275 . S
O265 Ho240 2.669 . S
O265 Ho241 2.305 . S
O265 C250 1.256 . S
O266 Ho241 2.322 . S
O266 C251 1.259 . S
O267 Ho240 2.346 . S
O267 C251 1.268 . S
O268 Ho241 2.378 . S
O268 C252 1.215 . S
O269 Ho241 2.524 . S
O269 C252 1.289 . S
O270 Ho241 2.381 . S
O270 C259 1.275 . S
O271 Ho240 2.305 . S
O271 Ho241 2.669 . S
O271 C259 1.256 . S
H272 C245 0.930 . S
H273 C246 0.931 . S
H274 C248 0.934 . S
H275 C249 0.930 . S
H276 C254 0.930 . S
H277 C255 0.931 . S
H278 C257 0.934 . S
H279 C258 0.930 . S
Ho280 C283 2.811 . S
Ho280 O300 2.322 . S
Ho280 O302 2.378 . S
Ho280 O303 2.524 . S
Ho280 O304 2.381 . S
Ho280 O305 2.669 . S
Ho280 O307 2.346 . S
Ho280 O311 2.305 . S
Ho281 C292 2.811 . S
Ho281 O301 2.346 . S
Ho281 O305 2.305 . S
Ho281 O306 2.322 . S
Ho281 O308 2.378 . S
Ho281 O309 2.524 . S
Ho281 O310 2.381 . S
Ho281 O311 2.669 . S
C282 O300 1.259 . S
C282 O301 1.268 . S
C283 Ho280 2.811 . S
C283 C284 1.488 . S
C283 O302 1.215 . S
C283 O303 1.289 . S
C284 C283 1.488 . S
C284 C285 1.348 . S
C284 C289 1.413 . S
C285 C284 1.348 . S
C285 C286 1.442 . S
C285 H312 0.930 . S
C286 C285 1.442 . S
C286 C287 1.381 . S
C286 H313 0.931 . S
C287 C286 1.381 . S
C287 C288 1.321 . S
C288 C287 1.321 . S
C288 C289 1.403 . S
C288 H314 0.934 . S
C289 C284 1.413 . S
C289 C288 1.403 . S
C289 H315 0.930 . S
C290 O304 1.275 . S
C290 O305 1.256 . S
C291 O306 1.259 . S
C291 O307 1.268 . S
C292 Ho281 2.811 . S
C292 C293 1.488 . S
C292 O308 1.215 . S
C292 O309 1.289 . S
C293 C292 1.488 . S
C293 C294 1.348 . S
C293 C298 1.413 . S
C294 C293 1.348 . S
C294 C295 1.442 . S
C294 H316 0.930 . S
C295 C294 1.442 . S
C295 C296 1.381 . S
C295 H317 0.931 . S
C296 C295 1.381 . S
C296 C297 1.321 . S
C297 C296 1.321 . S
C297 C298 1.403 . S
C297 H318 0.934 . S
C298 C293 1.413 . S
C298 C297 1.403 . S
C298 H319 0.930 . S
C299 O310 1.275 . S
C299 O311 1.256 . S
O300 Ho280 2.322 . S
O300 C282 1.259 . S
O301 Ho281 2.346 . S
O301 C282 1.268 . S
O302 Ho280 2.378 . S
O302 C283 1.215 . S
O303 Ho280 2.524 . S
O303 C283 1.289 . S
O304 Ho280 2.381 . S
O304 C290 1.275 . S
O305 Ho280 2.669 . S
O305 Ho281 2.305 . S
O305 C290 1.256 . S
O306 Ho281 2.322 . S
O306 C291 1.259 . S
O307 Ho280 2.346 . S
O307 C291 1.268 . S
O308 Ho281 2.378 . S
O308 C292 1.215 . S
O309 Ho281 2.524 . S
O309 C292 1.289 . S
O310 Ho281 2.381 . S
O310 C299 1.275 . S
O311 Ho280 2.305 . S
O311 Ho281 2.669 . S
O311 C299 1.256 . S
H312 C285 0.930 . S
H313 C286 0.931 . S
H314 C288 0.934 . S
H315 C289 0.930 . S
H316 C294 0.930 . S
H317 C295 0.931 . S
H318 C297 0.934 . S
H319 C298 0.930 . S
Ho320 C323 2.811 . S
Ho320 O340 2.322 . S
Ho320 O342 2.378 . S
Ho320 O343 2.524 . S
Ho320 O344 2.381 . S
Ho320 O345 2.669 . S
Ho320 O347 2.346 . S
Ho320 O351 2.305 . S
Ho321 C332 2.811 . S
Ho321 O341 2.346 . S
Ho321 O345 2.305 . S
Ho321 O346 2.322 . S
Ho321 O348 2.378 . S
Ho321 O349 2.524 . S
Ho321 O350 2.381 . S
Ho321 O351 2.669 . S
C322 O340 1.259 . S
C322 O341 1.268 . S
C323 Ho320 2.811 . S
C323 C324 1.488 . S
C323 O342 1.215 . S
C323 O343 1.289 . S
C324 C323 1.488 . S
C324 C325 1.348 . S
C324 C329 1.413 . S
C325 C324 1.348 . S
C325 C326 1.442 . S
C325 H352 0.930 . S
C326 C325 1.442 . S
C326 C327 1.381 . S
C326 H353 0.931 . S
C327 C326 1.381 . S
C327 C328 1.321 . S
C328 C327 1.321 . S
C328 C329 1.403 . S
C328 H354 0.934 . S
C329 C324 1.413 . S
C329 C328 1.403 . S
C329 H355 0.930 . S
C330 O344 1.275 . S
C330 O345 1.256 . S
C331 O346 1.259 . S
C331 O347 1.268 . S
C332 Ho321 2.811 . S
C332 C333 1.488 . S
C332 O348 1.215 . S
C332 O349 1.289 . S
C333 C332 1.488 . S
C333 C334 1.348 . S
C333 C338 1.413 . S
C334 C333 1.348 . S
C334 C335 1.442 . S
C334 H356 0.930 . S
C335 C334 1.442 . S
C335 C336 1.381 . S
C335 H357 0.931 . S
C336 C335 1.381 . S
C336 C337 1.321 . S
C337 C336 1.321 . S
C337 C338 1.403 . S
C337 H358 0.934 . S
C338 C333 1.413 . S
C338 C337 1.403 . S
C338 H359 0.930 . S
C339 O350 1.275 . S
C339 O351 1.256 . S
O340 Ho320 2.322 . S
O340 C322 1.259 . S
O341 Ho321 2.346 . S
O341 C322 1.268 . S
O342 Ho320 2.378 . S
O342 C323 1.215 . S
O343 Ho320 2.524 . S
O343 C323 1.289 . S
O344 Ho320 2.381 . S
O344 C330 1.275 . S
O345 Ho320 2.669 . S
O345 Ho321 2.305 . S
O345 C330 1.256 . S
O346 Ho321 2.322 . S
O346 C331 1.259 . S
O347 Ho320 2.346 . S
O347 C331 1.268 . S
O348 Ho321 2.378 . S
O348 C332 1.215 . S
O349 Ho321 2.524 . S
O349 C332 1.289 . S
O350 Ho321 2.381 . S
O350 C339 1.275 . S
O351 Ho320 2.305 . S
O351 Ho321 2.669 . S
O351 C339 1.256 . S
H352 C325 0.930 . S
H353 C326 0.931 . S
H354 C328 0.934 . S
H355 C329 0.930 . S
H356 C334 0.930 . S
H357 C335 0.931 . S
H358 C337 0.934 . S
H359 C338 0.930 . S
Ho360 C363 2.811 . S
Ho360 O380 2.322 . S
Ho360 O382 2.378 . S
Ho360 O383 2.524 . S
Ho360 O384 2.381 . S
Ho360 O385 2.669 . S
Ho360 O387 2.346 . S
Ho360 O391 2.305 . S
Ho361 C372 2.811 1_554 S
Ho361 O381 2.346 . S
Ho361 O385 2.305 . S
Ho361 O386 2.322 . S
Ho361 O388 2.378 1_554 S
Ho361 O389 2.524 1_554 S
Ho361 O390 2.381 . S
Ho361 O391 2.669 . S
C362 O380 1.259 . S
C362 O381 1.268 . S
C363 Ho360 2.811 . S
C363 C364 1.488 . S
C363 O382 1.215 . S
C363 O383 1.289 . S
C364 C363 1.488 . S
C364 C365 1.348 . S
C364 C369 1.413 . S
C365 C364 1.348 . S
C365 C366 1.442 . S
C365 H392 0.930 . S
C366 C365 1.442 . S
C366 C367 1.381 . S
C366 H393 0.931 . S
C367 C366 1.381 . S
C367 C368 1.321 . S
C368 C367 1.321 . S
C368 C369 1.403 . S
C368 H394 0.934 . S
C369 C364 1.413 . S
C369 C368 1.403 . S
C369 H395 0.930 . S
C370 O384 1.275 . S
C370 O385 1.256 . S
C371 O386 1.259 . S
C371 O387 1.268 . S
C372 Ho361 2.811 1_556 S
C372 C373 1.488 . S
C372 O388 1.215 . S
C372 O389 1.289 . S
C373 C372 1.488 . S
C373 C374 1.348 . S
C373 C378 1.413 . S
C374 C373 1.348 . S
C374 C375 1.442 . S
C374 H396 0.930 . S
C375 C374 1.442 . S
C375 C376 1.381 . S
C375 H397 0.931 . S
C376 C375 1.381 . S
C376 C377 1.321 . S
C377 C376 1.321 . S
C377 C378 1.403 . S
C377 H398 0.934 . S
C378 C373 1.413 . S
C378 C377 1.403 . S
C378 H399 0.930 . S
C379 O390 1.275 . S
C379 O391 1.256 . S
O380 Ho360 2.322 . S
O380 C362 1.259 . S
O381 Ho361 2.346 . S
O381 C362 1.268 . S
O382 Ho360 2.378 . S
O382 C363 1.215 . S
O383 Ho360 2.524 . S
O383 C363 1.289 . S
O384 Ho360 2.381 . S
O384 C370 1.275 . S
O385 Ho360 2.669 . S
O385 Ho361 2.305 . S
O385 C370 1.256 . S
O386 Ho361 2.322 . S
O386 C371 1.259 . S
O387 Ho360 2.346 . S
O387 C371 1.268 . S
O388 Ho361 2.378 1_556 S
O388 C372 1.215 . S
O389 Ho361 2.524 1_556 S
O389 C372 1.289 . S
O390 Ho361 2.381 . S
O390 C379 1.275 . S
O391 Ho360 2.305 . S
O391 Ho361 2.669 . S
O391 C379 1.256 . S
H392 C365 0.930 . S
H393 C366 0.931 . S
H394 C368 0.934 . S
H395 C369 0.930 . S
H396 C374 0.930 . S
H397 C375 0.931 . S
H398 C377 0.934 . S
H399 C378 0.930 . S
Ho400 C403 2.811 1_556 S
Ho400 O420 2.322 . S
Ho400 O422 2.378 . S
Ho400 O423 2.524 . S
Ho400 O424 2.381 . S
Ho400 O425 2.669 . S
Ho400 O427 2.346 . S
Ho400 O431 2.305 . S
Ho401 C412 2.811 . S
Ho401 O421 2.346 . S
Ho401 O425 2.305 . S
Ho401 O426 2.322 . S
Ho401 O428 2.378 . S
Ho401 O429 2.524 . S
Ho401 O430 2.381 . S
Ho401 O431 2.669 . S
C402 O420 1.259 . S
C402 O421 1.268 . S
C403 Ho400 2.811 1_554 S
C403 C404 1.488 . S
C403 O422 1.215 1_554 S
C403 O423 1.289 1_554 S
C404 C403 1.488 . S
C404 C405 1.348 . S
C404 C409 1.413 . S
C405 C404 1.348 . S
C405 C406 1.442 . S
C405 H432 0.930 . S
C406 C405 1.442 . S
C406 C407 1.381 . S
C406 H433 0.931 . S
C407 C406 1.381 . S
C407 C408 1.321 . S
C408 C407 1.321 . S
C408 C409 1.403 . S
C408 H434 0.934 . S
C409 C404 1.413 . S
C409 C408 1.403 . S
C409 H435 0.930 . S
C410 O424 1.275 . S
C410 O425 1.256 . S
C411 O426 1.259 . S
C411 O427 1.268 . S
C412 Ho401 2.811 . S
C412 C413 1.488 . S
C412 O428 1.215 . S
C412 O429 1.289 . S
C413 C412 1.488 . S
C413 C414 1.348 . S
C413 C418 1.413 . S
C414 C413 1.348 . S
C414 C415 1.442 . S
C414 H436 0.930 . S
C415 C414 1.442 . S
C415 C416 1.381 . S
C415 H437 0.931 . S
C416 C415 1.381 . S
C416 C417 1.321 . S
C417 C416 1.321 . S
C417 C418 1.403 . S
C417 H438 0.934 . S
C418 C413 1.413 . S
C418 C417 1.403 . S
C418 H439 0.930 . S
C419 O430 1.275 . S
C419 O431 1.256 . S
O420 Ho400 2.322 . S
O420 C402 1.259 . S
O421 Ho401 2.346 . S
O421 C402 1.268 . S
O422 Ho400 2.378 . S
O422 C403 1.215 1_556 S
O423 Ho400 2.524 . S
O423 C403 1.289 1_556 S
O424 Ho400 2.381 . S
O424 C410 1.275 . S
O425 Ho400 2.669 . S
O425 Ho401 2.305 . S
O425 C410 1.256 . S
O426 Ho401 2.322 . S
O426 C411 1.259 . S
O427 Ho400 2.346 . S
O427 C411 1.268 . S
O428 Ho401 2.378 . S
O428 C412 1.215 . S
O429 Ho401 2.524 . S
O429 C412 1.289 . S
O430 Ho401 2.381 . S
O430 C419 1.275 . S
O431 Ho400 2.305 . S
O431 Ho401 2.669 . S
O431 C419 1.256 . S
H432 C405 0.930 . S
H433 C406 0.931 . S
H434 C408 0.934 . S
H435 C409 0.930 . S
H436 C414 0.930 . S
H437 C415 0.931 . S
H438 C417 0.934 . S
H439 C418 0.930 . S
Ho440 C443 2.811 . S
Ho440 O460 2.322 . S
Ho440 O462 2.378 . S
Ho440 O463 2.524 . S
Ho440 O464 2.381 . S
Ho440 O465 2.669 . S
Ho440 O467 2.346 . S
Ho440 O471 2.305 . S
Ho441 C452 2.811 . S
Ho441 O461 2.346 . S
Ho441 O465 2.305 . S
Ho441 O466 2.322 . S
Ho441 O468 2.378 . S
Ho441 O469 2.524 . S
Ho441 O470 2.381 . S
Ho441 O471 2.669 . S
C442 O460 1.259 . S
C442 O461 1.268 . S
C443 Ho440 2.811 . S
C443 C444 1.488 . S
C443 O462 1.215 . S
C443 O463 1.289 . S
C444 C443 1.488 . S
C444 C445 1.348 . S
C444 C449 1.413 . S
C445 C444 1.348 . S
C445 C446 1.442 . S
C445 H472 0.930 . S
C446 C445 1.442 . S
C446 C447 1.381 . S
C446 H473 0.931 . S
C447 C446 1.381 . S
C447 C448 1.321 . S
C448 C447 1.321 . S
C448 C449 1.403 . S
C448 H474 0.934 . S
C449 C444 1.413 . S
C449 C448 1.403 . S
C449 H475 0.930 . S
C450 O464 1.275 . S
C450 O465 1.256 . S
C451 O466 1.259 . S
C451 O467 1.268 . S
C452 Ho441 2.811 . S
C452 C453 1.488 . S
C452 O468 1.215 . S
C452 O469 1.289 . S
C453 C452 1.488 . S
C453 C454 1.348 . S
C453 C458 1.413 . S
C454 C453 1.348 . S
C454 C455 1.442 . S
C454 H476 0.930 . S
C455 C454 1.442 . S
C455 C456 1.381 . S
C455 H477 0.931 . S
C456 C455 1.381 . S
C456 C457 1.321 . S
C457 C456 1.321 . S
C457 C458 1.403 . S
C457 H478 0.934 . S
C458 C453 1.413 . S
C458 C457 1.403 . S
C458 H479 0.930 . S
C459 O470 1.275 . S
C459 O471 1.256 . S
O460 Ho440 2.322 . S
O460 C442 1.259 . S
O461 Ho441 2.346 . S
O461 C442 1.268 . S
O462 Ho440 2.378 . S
O462 C443 1.215 . S
O463 Ho440 2.524 . S
O463 C443 1.289 . S
O464 Ho440 2.381 . S
O464 C450 1.275 . S
O465 Ho440 2.669 . S
O465 Ho441 2.305 . S
O465 C450 1.256 . S
O466 Ho441 2.322 . S
O466 C451 1.259 . S
O467 Ho440 2.346 . S
O467 C451 1.268 . S
O468 Ho441 2.378 . S
O468 C452 1.215 . S
O469 Ho441 2.524 . S
O469 C452 1.289 . S
O470 Ho441 2.381 . S
O470 C459 1.275 . S
O471 Ho440 2.305 . S
O471 Ho441 2.669 . S
O471 C459 1.256 . S
H472 C445 0.930 . S
H473 C446 0.931 . S
H474 C448 0.934 . S
H475 C449 0.930 . S
H476 C454 0.930 . S
H477 C455 0.931 . S
H478 C457 0.934 . S
H479 C458 0.930 . S
Ho480 C483 2.811 . S
Ho480 O500 2.322 . S
Ho480 O502 2.378 . S
Ho480 O503 2.524 . S
Ho480 O504 2.381 . S
Ho480 O505 2.669 . S
Ho480 O507 2.346 . S
Ho480 O511 2.305 . S
Ho481 C492 2.811 . S
Ho481 O501 2.346 . S
Ho481 O505 2.305 . S
Ho481 O506 2.322 . S
Ho481 O508 2.378 . S
Ho481 O509 2.524 . S
Ho481 O510 2.381 . S
Ho481 O511 2.669 . S
C482 O500 1.259 . S
C482 O501 1.268 . S
C483 Ho480 2.811 . S
C483 C484 1.488 . S
C483 O502 1.215 . S
C483 O503 1.289 . S
C484 C483 1.488 . S
C484 C485 1.348 . S
C484 C489 1.413 . S
C485 C484 1.348 . S
C485 C486 1.442 . S
C485 H512 0.930 . S
C486 C485 1.442 . S
C486 C487 1.381 . S
C486 H513 0.931 . S
C487 C486 1.381 . S
C487 C488 1.321 . S
C488 C487 1.321 . S
C488 C489 1.403 . S
C488 H514 0.934 . S
C489 C484 1.413 . S
C489 C488 1.403 . S
C489 H515 0.930 . S
C490 O504 1.275 . S
C490 O505 1.256 . S
C491 O506 1.259 . S
C491 O507 1.268 . S
C492 Ho481 2.811 . S
C492 C493 1.488 . S
C492 O508 1.215 . S
C492 O509 1.289 . S
C493 C492 1.488 . S
C493 C494 1.348 . S
C493 C498 1.413 . S
C494 C493 1.348 . S
C494 C495 1.442 . S
C494 H516 0.930 . S
C495 C494 1.442 . S
C495 C496 1.381 . S
C495 H517 0.931 . S
C496 C495 1.381 . S
C496 C497 1.321 . S
C497 C496 1.321 . S
C497 C498 1.403 . S
C497 H518 0.934 . S
C498 C493 1.413 . S
C498 C497 1.403 . S
C498 H519 0.930 . S
C499 O510 1.275 . S
C499 O511 1.256 . S
O500 Ho480 2.322 . S
O500 C482 1.259 . S
O501 Ho481 2.346 . S
O501 C482 1.268 . S
O502 Ho480 2.378 . S
O502 C483 1.215 . S
O503 Ho480 2.524 . S
O503 C483 1.289 . S
O504 Ho480 2.381 . S
O504 C490 1.275 . S
O505 Ho480 2.669 . S
O505 Ho481 2.305 . S
O505 C490 1.256 . S
O506 Ho481 2.322 . S
O506 C491 1.259 . S
O507 Ho480 2.346 . S
O507 C491 1.268 . S
O508 Ho481 2.378 . S
O508 C492 1.215 . S
O509 Ho481 2.524 . S
O509 C492 1.289 . S
O510 Ho481 2.381 . S
O510 C499 1.275 . S
O511 Ho480 2.305 . S
O511 Ho481 2.669 . S
O511 C499 1.256 . S
H512 C485 0.930 . S
H513 C486 0.931 . S
H514 C488 0.934 . S
H515 C489 0.930 . S
H516 C494 0.930 . S
H517 C495 0.931 . S
H518 C497 0.934 . S
H519 C498 0.930 . S
Ho520 C523 2.811 . S
Ho520 O540 2.322 1_655 S
Ho520 O542 2.378 . S
Ho520 O543 2.524 . S
Ho520 O544 2.381 . S
Ho520 O545 2.669 1_655 S
Ho520 O547 2.346 . S
Ho520 O551 2.305 1_655 S
Ho521 C532 2.821 . S
Ho521 O541 2.346 . S
Ho521 O545 2.305 . S
Ho521 O546 2.322 . S
Ho521 O548 2.378 . S
Ho521 O549 2.524 . S
Ho521 O550 2.381 . S
Ho521 O551 2.669 . S
C522 O540 1.259 . S
C522 O541 1.268 . S
C523 Ho520 2.811 . S
C523 C524 1.488 . S
C523 O542 1.215 . S
C523 O543 1.289 . S
C524 C523 1.488 . S
C524 C525 1.348 . S
C524 C529 1.413 . S
C525 C524 1.348 . S
C525 C526 1.442 . S
C525 H552 0.930 . S
C526 C525 1.442 . S
C526 C527 1.381 . S
C526 H553 0.931 . S
C527 C526 1.381 . S
C527 C528 1.321 . S
C528 C527 1.321 . S
C528 C529 1.403 . S
C528 H554 0.934 . S
C529 C524 1.413 . S
C529 C528 1.403 . S
C529 H555 0.930 . S
C530 O544 1.275 1_455 S
C530 O545 1.256 . S
C531 O546 1.259 1_655 S
C531 O547 1.268 . S
C532 Ho521 2.821 . S
C532 C533 1.478 1_554 S
C532 O548 1.222 . S
C532 O549 1.293 . S
C533 C532 1.478 1_556 S
C533 C534 1.348 . S
C533 C538 1.413 . S
C534 C533 1.348 . S
C534 C535 1.442 . S
C534 H556 0.930 . S
C535 C534 1.442 . S
C535 C536 1.381 . S
C535 H557 0.931 . S
C536 C535 1.381 . S
C536 C537 1.321 . S
C537 C536 1.321 . S
C537 C538 1.403 . S
C537 H558 0.934 . S
C538 C533 1.413 . S
C538 C537 1.403 . S
C538 H559 0.930 . S
C539 O550 1.275 . S
C539 O551 1.256 . S
O540 Ho520 2.322 1_455 S
O540 C522 1.259 . S
O541 Ho521 2.346 . S
O541 C522 1.268 . S
O542 Ho520 2.378 . S
O542 C523 1.215 . S
O543 Ho520 2.524 . S
O543 C523 1.289 . S
O544 Ho520 2.381 . S
O544 C530 1.275 1_655 S
O545 Ho520 2.669 1_455 S
O545 Ho521 2.305 . S
O545 C530 1.256 . S
O546 Ho521 2.322 . S
O546 C531 1.259 1_455 S
O547 Ho520 2.346 . S
O547 C531 1.268 . S
O548 Ho521 2.378 . S
O548 C532 1.222 . S
O549 Ho521 2.524 . S
O549 C532 1.293 . S
O550 Ho521 2.381 . S
O550 C539 1.275 . S
O551 Ho520 2.305 1_455 S
O551 Ho521 2.669 . S
O551 C539 1.256 . S
H552 C525 0.930 . S
H553 C526 0.931 . S
H554 C528 0.934 . S
H555 C529 0.930 . S
H556 C534 0.930 . S
H557 C535 0.931 . S
H558 C537 0.934 . S
H559 C538 0.930 . S
Ho560 C563 2.811 . S
Ho560 O580 2.322 . S
Ho560 O582 2.378 . S
Ho560 O583 2.524 . S
Ho560 O584 2.381 . S
Ho560 O585 2.669 . S
Ho560 O587 2.346 . S
Ho560 O591 2.305 . S
Ho561 C572 2.811 . S
Ho561 O581 2.346 . S
Ho561 O585 2.305 . S
Ho561 O586 2.322 . S
Ho561 O588 2.378 . S
Ho561 O589 2.524 . S
Ho561 O590 2.381 . S
Ho561 O591 2.669 . S
C562 O580 1.259 . S
C562 O581 1.268 . S
C563 Ho560 2.811 . S
C563 C564 1.488 . S
C563 O582 1.215 . S
C563 O583 1.289 . S
C564 C563 1.488 . S
C564 C565 1.348 . S
C564 C569 1.413 . S
C565 C564 1.348 . S
C565 C566 1.442 . S
C565 H592 0.930 . S
C566 C565 1.442 . S
C566 C567 1.381 . S
C566 H593 0.931 . S
C567 C566 1.381 . S
C567 C568 1.321 . S
C568 C567 1.321 . S
C568 C569 1.403 . S
C568 H594 0.934 . S
C569 C564 1.413 . S
C569 C568 1.403 . S
C569 H595 0.930 . S
C570 O584 1.275 . S
C570 O585 1.256 . S
C571 O586 1.259 . S
C571 O587 1.268 . S
C572 Ho561 2.811 . S
C572 C573 1.488 . S
C572 O588 1.215 . S
C572 O589 1.289 . S
C573 C572 1.488 . S
C573 C574 1.348 . S
C573 C578 1.413 . S
C574 C573 1.348 . S
C574 C575 1.442 . S
C574 H596 0.930 . S
C575 C574 1.442 . S
C575 C576 1.381 . S
C575 H597 0.931 . S
C576 C575 1.381 . S
C576 C577 1.321 . S
C577 C576 1.321 . S
C577 C578 1.403 . S
C577 H598 0.934 . S
C578 C573 1.413 . S
C578 C577 1.403 . S
C578 H599 0.930 . S
C579 O590 1.275 . S
C579 O591 1.256 . S
O580 Ho560 2.322 . S
O580 C562 1.259 . S
O581 Ho561 2.346 . S
O581 C562 1.268 . S
O582 Ho560 2.378 . S
O582 C563 1.215 . S
O583 Ho560 2.524 . S
O583 C563 1.289 . S
O584 Ho560 2.381 . S
O584 C570 1.275 . S
O585 Ho560 2.669 . S
O585 Ho561 2.305 . S
O585 C570 1.256 . S
O586 Ho561 2.322 . S
O586 C571 1.259 . S
O587 Ho560 2.346 . S
O587 C571 1.268 . S
O588 Ho561 2.378 . S
O588 C572 1.215 . S
O589 Ho561 2.524 . S
O589 C572 1.289 . S
O590 Ho561 2.381 . S
O590 C579 1.275 . S
O591 Ho560 2.305 . S
O591 Ho561 2.669 . S
O591 C579 1.256 . S
H592 C565 0.930 . S
H593 C566 0.931 . S
H594 C568 0.934 . S
H595 C569 0.930 . S
H596 C574 0.930 . S
H597 C575 0.931 . S
H598 C577 0.934 . S
H599 C578 0.930 . S
Ho600 C603 2.811 . S
Ho600 O620 2.322 1_655 S
Ho600 O622 2.378 . S
Ho600 O623 2.524 . S
Ho600 O624 2.381 . S
Ho600 O625 2.669 1_655 S
Ho600 O627 2.346 . S
Ho600 O631 2.305 1_655 S
Ho601 C612 2.811 . S
Ho601 O621 2.346 . S
Ho601 O625 2.305 . S
Ho601 O626 2.322 . S
Ho601 O628 2.378 . S
Ho601 O629 2.524 . S
Ho601 O630 2.381 . S
Ho601 O631 2.669 . S
C602 O620 1.259 . S
C602 O621 1.268 . S
C603 Ho600 2.811 . S
C603 C604 1.488 1_556 S
C603 O622 1.215 . S
C603 O623 1.289 . S
C604 C603 1.488 1_554 S
C604 C605 1.348 . S
C604 C609 1.413 . S
C605 C604 1.348 . S
C605 C606 1.442 . S
C605 H632 0.930 . S
C606 C605 1.442 . S
C606 C607 1.381 . S
C606 H633 0.931 . S
C607 C606 1.381 . S
C607 C608 1.321 . S
C608 C607 1.321 . S
C608 C609 1.403 . S
C608 H634 0.934 . S
C609 C604 1.413 . S
C609 C608 1.403 . S
C609 H635 0.930 . S
C610 O624 1.275 1_455 S
C610 O625 1.256 . S
C611 O626 1.259 1_655 S
C611 O627 1.268 . S
C612 Ho601 2.811 . S
C612 C613 1.488 . S
C612 O628 1.215 . S
C612 O629 1.289 . S
C613 C612 1.488 . S
C613 C614 1.348 . S
C613 C618 1.413 . S
C614 C613 1.348 . S
C614 C615 1.442 . S
C614 H636 0.930 . S
C615 C614 1.442 . S
C615 C616 1.381 . S
C615 H637 0.931 . S
C616 C615 1.381 . S
C616 C617 1.321 . S
C617 C616 1.321 . S
C617 C618 1.403 . S
C617 H638 0.934 . S
C618 C613 1.413 . S
C618 C617 1.403 . S
C618 H639 0.930 . S
C619 O630 1.275 . S
C619 O631 1.256 . S
O620 Ho600 2.322 1_455 S
O620 C602 1.259 . S
O621 Ho601 2.346 . S
O621 C602 1.268 . S
O622 Ho600 2.378 . S
O622 C603 1.215 . S
O623 Ho600 2.524 . S
O623 C603 1.289 . S
O624 Ho600 2.381 . S
O624 C610 1.275 1_655 S
O625 Ho600 2.669 1_455 S
O625 Ho601 2.305 . S
O625 C610 1.256 . S
O626 Ho601 2.322 . S
O626 C611 1.259 1_455 S
O627 Ho600 2.346 . S
O627 C611 1.268 . S
O628 Ho601 2.378 . S
O628 C612 1.215 . S
O629 Ho601 2.524 . S
O629 C612 1.289 . S
O630 Ho601 2.381 . S
O630 C619 1.275 . S
O631 Ho600 2.305 1_455 S
O631 Ho601 2.669 . S
O631 C619 1.256 . S
H632 C605 0.930 . S
H633 C606 0.931 . S
H634 C608 0.934 . S
H635 C609 0.930 . S
H636 C614 0.930 . S
H637 C615 0.931 . S
H638 C617 0.934 . S
H639 C618 0.930 . S
C640 C641 1.387 . S
C640 H644 0.950 . S
C640 C649 1.390 . S
C641 C640 1.387 . S
C641 C643 1.387 . S
H642 C649 0.950 . S
C643 C641 1.387 . S
C643 C645 1.390 . S
C643 H647 0.950 . S
H644 C640 0.950 . S
C645 C643 1.390 . S
C645 C646 1.387 . S
C645 H648 0.950 . S
C646 C645 1.387 . S
C646 C649 1.387 . S
H647 C643 0.950 . S
H648 C645 0.950 . S
C649 C640 1.390 . S
C649 H642 0.950 . S
C649 C646 1.387 . S
C650 C651 1.387 . S
C650 H654 0.950 . S
C650 C659 1.390 . S
C651 C650 1.387 . S
C651 C653 1.387 . S
H652 C659 0.950 . S
C653 C651 1.387 . S
C653 C655 1.390 . S
C653 H657 0.950 . S
H654 C650 0.950 . S
C655 C653 1.390 . S
C655 C656 1.387 . S
C655 H658 0.950 . S
C656 C655 1.387 . S
C656 C659 1.387 . S
H657 C653 0.950 . S
H658 C655 0.950 . S
C659 C650 1.390 . S
C659 H652 0.950 . S
C659 C656 1.387 . S
C660 C661 1.387 . S
C660 H664 0.950 . S
C660 C669 1.390 . S
C661 C660 1.387 . S
C661 C663 1.387 . S
H662 C669 0.950 . S
C663 C661 1.387 . S
C663 C665 1.390 . S
C663 H667 0.950 . S
H664 C660 0.950 . S
C665 C663 1.390 . S
C665 C666 1.387 . S
C665 H668 0.950 . S
C666 C665 1.387 . S
C666 C669 1.387 . S
H667 C663 0.950 . S
H668 C665 0.950 . S
C669 C660 1.390 . S
C669 H662 0.950 . S
C669 C666 1.387 . S
C670 C671 1.387 . S
C670 H674 0.950 . S
C670 C679 1.390 . S
C671 C670 1.387 . S
C671 C673 1.387 . S
H672 C679 0.950 . S
C673 C671 1.387 . S
C673 C675 1.390 . S
C673 H677 0.950 . S
H674 C670 0.950 . S
C675 C673 1.390 . S
C675 C676 1.387 . S
C675 H678 0.950 . S
C676 C675 1.387 . S
C676 C679 1.387 . S
H677 C673 0.950 . S
H678 C675 0.950 . S
C679 C670 1.390 . S
C679 H672 0.950 . S
C679 C676 1.387 . S
C680 C681 1.387 . S
C680 H684 0.950 . S
C680 C689 1.390 . S
C681 C680 1.387 . S
C681 C683 1.387 . S
H682 C689 0.950 . S
C683 C681 1.387 . S
C683 C685 1.390 1_554 S
C683 H687 0.950 . S
H684 C680 0.950 . S
C685 C683 1.390 1_556 S
C685 C686 1.387 . S
C685 H688 0.950 . S
C686 C685 1.387 . S
C686 C689 1.387 1_556 S
H687 C683 0.950 . S
H688 C685 0.950 . S
C689 C680 1.390 . S
C689 H682 0.950 . S
C689 C686 1.387 1_554 S
C690 C691 1.387 . S
C690 H694 0.950 . S
C690 C699 1.390 . S
C691 C690 1.387 . S
C691 C693 1.387 . S
H692 C699 0.950 . S
C693 C691 1.387 . S
C693 C695 1.390 . S
C693 H697 0.950 . S
H694 C690 0.950 . S
C695 C693 1.390 . S
C695 C696 1.387 . S
C695 H698 0.950 . S
C696 C695 1.387 . S
C696 C699 1.387 . S
H697 C693 0.950 . S
H698 C695 0.950 . S
C699 C690 1.390 . S
C699 H692 0.950 . S
C699 C696 1.387 . S
C700 C701 1.387 . S
C700 H704 0.950 . S
C700 C709 1.390 . S
C701 C700 1.387 . S
C701 C703 1.387 . S
H702 C709 0.950 . S
C703 C701 1.387 . S
C703 C705 1.390 . S
C703 H707 0.950 . S
H704 C700 0.950 . S
C705 C703 1.390 . S
C705 C706 1.387 . S
C705 H708 0.950 . S
C706 C705 1.387 . S
C706 C709 1.387 . S
H707 C703 0.950 . S
H708 C705 0.950 . S
C709 C700 1.390 . S
C709 H702 0.950 . S
C709 C706 1.387 . S
C710 C711 1.387 . S
C710 H714 0.950 . S
C710 C719 1.390 . S
C711 C710 1.387 . S
C711 C713 1.387 . S
H712 C719 0.950 . S
C713 C711 1.387 . S
C713 C715 1.390 . S
C713 H717 0.950 . S
H714 C710 0.950 . S
C715 C713 1.390 . S
C715 C716 1.387 . S
C715 H718 0.950 . S
C716 C715 1.387 . S
C716 C719 1.387 . S
H717 C713 0.950 . S
H718 C715 0.950 . S
C719 C710 1.390 . S
C719 H712 0.950 . S
C719 C716 1.387 . S
C720 C721 1.387 . S
C720 H724 0.950 . S
C720 C729 1.390 . S
C721 C720 1.387 . S
C721 C723 1.387 . S
H722 C729 0.950 . S
C723 C721 1.387 . S
C723 C725 1.390 . S
C723 H727 0.950 . S
H724 C720 0.950 . S
C725 C723 1.390 . S
C725 C726 1.387 . S
C725 H728 0.950 . S
C726 C725 1.387 . S
C726 C729 1.387 . S
H727 C723 0.950 . S
H728 C725 0.950 . S
C729 C720 1.390 . S
C729 H722 0.950 . S
C729 C726 1.387 . S
C730 C731 1.387 . S
C730 H734 0.950 . S
C730 C739 1.390 . S
C731 C730 1.387 . S
C731 C733 1.387 . S
H732 C739 0.950 . S
C733 C731 1.387 . S
C733 C735 1.390 . S
C733 H737 0.950 . S
H734 C730 0.950 . S
C735 C733 1.390 . S
C735 C736 1.387 . S
C735 H738 0.950 . S
C736 C735 1.387 . S
C736 C739 1.387 . S
H737 C733 0.950 . S
H738 C735 0.950 . S
C739 C730 1.390 . S
C739 H732 0.950 . S
C739 C736 1.387 . S
C740 C741 1.387 . S
C740 H744 0.950 . S
C740 C749 1.390 . S
C741 C740 1.387 . S
C741 C743 1.387 1_554 S
H742 C749 0.950 . S
C743 C741 1.387 1_556 S
C743 C745 1.390 . S
C743 H747 0.950 . S
H744 C740 0.950 . S
C745 C743 1.390 . S
C745 C746 1.387 . S
C745 H748 0.950 . S
C746 C745 1.387 . S
C746 C749 1.387 1_556 S
H747 C743 0.950 . S
H748 C745 0.950 . S
C749 C740 1.390 . S
C749 H742 0.950 . S
C749 C746 1.387 1_554 S
C750 C751 1.387 . S
C750 H754 0.950 . S
C750 C759 1.390 . S
C751 C750 1.387 . S
C751 C753 1.387 . S
H752 C759 0.950 . S
C753 C751 1.387 . S
C753 C755 1.390 . S
C753 H757 0.950 . S
H754 C750 0.950 . S
C755 C753 1.390 . S
C755 C756 1.387 . S
C755 H758 0.950 . S
C756 C755 1.387 . S
C756 C759 1.387 . S
H757 C753 0.950 . S
H758 C755 0.950 . S
C759 C750 1.390 . S
C759 H752 0.950 . S
C759 C756 1.387 . S
C760 C761 1.387 . S
C760 H764 0.950 . S
C760 C769 1.390 . S
C761 C760 1.387 . S
C761 C763 1.387 . S
H762 C769 0.950 . S
C763 C761 1.387 . S
C763 C765 1.390 . S
C763 H767 0.950 . S
H764 C760 0.950 . S
C765 C763 1.390 . S
C765 C766 1.387 . S
C765 H768 0.950 . S
C766 C765 1.387 . S
C766 C769 1.387 . S
H767 C763 0.950 . S
H768 C765 0.950 . S
C769 C760 1.390 . S
C769 H762 0.950 . S
C769 C766 1.387 . S
C770 C771 1.387 . S
C770 H774 0.950 . S
C770 C779 1.390 . S
C771 C770 1.387 . S
C771 C773 1.387 . S
H772 C779 0.950 . S
C773 C771 1.387 . S
C773 C775 1.390 . S
C773 H777 0.950 . S
H774 C770 0.950 . S
C775 C773 1.390 . S
C775 C776 1.387 . S
C775 H778 0.950 . S
C776 C775 1.387 . S
C776 C779 1.387 . S
H777 C773 0.950 . S
H778 C775 0.950 . S
C779 C770 1.390 . S
C779 H772 0.950 . S
C779 C776 1.387 . S
C780 C781 1.387 . S
C780 H784 0.950 . S
C780 C789 1.390 . S
C781 C780 1.387 . S
C781 C783 1.387 . S
H782 C789 0.950 . S
C783 C781 1.387 . S
C783 C785 1.390 . S
C783 H787 0.950 . S
H784 C780 0.950 . S
C785 C783 1.390 . S
C785 C786 1.387 . S
C785 H788 0.950 1_554 S
C786 C785 1.387 . S
C786 C789 1.387 . S
H787 C783 0.950 . S
H788 C785 0.950 1_556 S
C789 C780 1.390 . S
C789 H782 0.950 . S
C789 C786 1.387 . S
C790 C791 1.387 . S
C790 H794 0.950 . S
C790 C799 1.390 . S
C791 C790 1.387 . S
C791 C793 1.387 . S
H792 C799 0.950 . S
C793 C791 1.387 . S
C793 C795 1.390 . S
C793 H797 0.950 . S
H794 C790 0.950 . S
C795 C793 1.390 . S
C795 C796 1.387 . S
C795 H798 0.950 . S
C796 C795 1.387 . S
C796 C799 1.387 . S
H797 C793 0.950 . S
H798 C795 0.950 . S
C799 C790 1.390 . S
C799 H792 0.950 . S
C799 C796 1.387 . S
C800 C801 1.387 . S
C800 H804 0.950 1_455 S
C800 C809 1.390 1_455 S
C801 C800 1.387 . S
C801 C803 1.387 . S
H802 C809 0.950 . S
C803 C801 1.387 . S
C803 C805 1.390 . S
C803 H807 0.950 . S
H804 C800 0.950 1_655 S
C805 C803 1.390 . S
C805 C806 1.386 . S
C805 H808 0.950 . S
C806 C805 1.386 . S
C806 C809 1.389 1_455 S
H807 C803 0.950 . S
H808 C805 0.950 . S
C809 C800 1.390 1_655 S
C809 H802 0.950 . S
C809 C806 1.389 1_655 S
C810 C811 1.387 1_455 S
C810 H814 0.950 1_455 S
C810 C819 1.390 . S
C811 C810 1.387 1_655 S
C811 C813 1.387 1_655 S
H812 C819 0.950 . S
C813 C811 1.387 1_455 S
C813 C815 1.390 . S
C813 H817 0.950 1_455 S
H814 C810 0.950 1_655 S
C815 C813 1.390 . S
C815 C816 1.387 . S
C815 H818 0.950 . S
C816 C815 1.387 . S
C816 C819 1.387 . S
H817 C813 0.950 1_655 S
H818 C815 0.950 . S
C819 C810 1.390 . S
C819 H812 0.950 . S
C819 C816 1.387 . S
C820 C821 1.387 . S
C820 H824 0.950 . S
C820 C829 1.390 . S
C821 C820 1.387 . S
C821 C823 1.387 . S
H822 C829 0.950 . S
C823 C821 1.387 . S
C823 C825 1.390 . S
C823 H827 0.950 . S
H824 C820 0.950 . S
C825 C823 1.390 . S
C825 C826 1.387 . S
C825 H828 0.950 . S
C826 C825 1.387 . S
C826 C829 1.387 . S
H827 C823 0.950 . S
H828 C825 0.950 . S
C829 C820 1.390 . S
C829 H822 0.950 . S
C829 C826 1.387 . S
C830 C831 1.387 . S
C830 H834 0.950 . S
C830 C839 1.390 . S
C831 C830 1.387 . S
C831 C833 1.387 . S
H832 C839 0.950 . S
C833 C831 1.387 . S
C833 C835 1.390 . S
C833 H837 0.950 . S
H834 C830 0.950 . S
C835 C833 1.390 . S
C835 C836 1.387 . S
C835 H838 0.950 . S
C836 C835 1.387 . S
C836 C839 1.387 . S
H837 C833 0.950 . S
H838 C835 0.950 . S
C839 C830 1.390 . S
C839 H832 0.950 . S
C839 C836 1.387 . S
C840 C841 1.387 . S
C840 H844 0.950 . S
C840 C849 1.390 . S
C841 C840 1.387 . S
C841 C843 1.387 . S
H842 C849 0.950 . S
C843 C841 1.387 . S
C843 C845 1.390 . S
C843 H847 0.950 . S
H844 C840 0.950 . S
C845 C843 1.390 . S
C845 C846 1.387 . S
C845 H848 0.950 . S
C846 C845 1.387 . S
C846 C849 1.387 . S
H847 C843 0.950 . S
H848 C845 0.950 . S
C849 C840 1.390 . S
C849 H842 0.950 . S
C849 C846 1.387 . S
C850 C851 1.387 . S
C850 H854 0.950 . S
C850 C859 1.390 . S
C851 C850 1.387 . S
C851 C853 1.387 . S
H852 C859 0.950 . S
C853 C851 1.387 . S
C853 C855 1.390 . S
C853 H857 0.950 . S
H854 C850 0.950 . S
C855 C853 1.390 . S
C855 C856 1.387 . S
C855 H858 0.950 . S
C856 C855 1.387 . S
C856 C859 1.387 . S
H857 C853 0.950 . S
H858 C855 0.950 . S
C859 C850 1.390 . S
C859 H852 0.950 . S
C859 C856 1.387 . S
C860 C861 1.387 . S
C860 H864 0.950 . S
C860 C869 1.390 . S
C861 C860 1.387 . S
C861 C863 1.387 . S
H862 C869 0.950 . S
C863 C861 1.387 . S
C863 C865 1.390 . S
C863 H867 0.950 . S
H864 C860 0.950 . S
C865 C863 1.390 . S
C865 C866 1.387 . S
C865 H868 0.950 . S
C866 C865 1.387 . S
C866 C869 1.387 . S
H867 C863 0.950 . S
H868 C865 0.950 . S
C869 C860 1.390 . S
C869 H862 0.950 . S
C869 C866 1.387 . S
C870 C871 1.387 . S
C870 H874 0.950 . S
C870 C879 1.390 . S
C871 C870 1.387 . S
C871 C873 1.387 . S
H872 C879 0.950 1_655 S
C873 C871 1.387 . S
C873 C875 1.390 . S
C873 H877 0.950 . S
H874 C870 0.950 . S
C875 C873 1.390 . S
C875 C876 1.387 1_455 S
C875 H878 0.941 1_455 S
C876 C875 1.387 1_655 S
C876 C879 1.387 1_655 S
H877 C873 0.950 . S
H878 C875 0.941 1_655 S
C879 C870 1.390 . S
C879 H872 0.950 1_455 S
C879 C876 1.387 1_455 S
C880 C881 1.387 . S
C880 H884 0.950 . S
C880 C889 1.390 1_554 S
C881 C880 1.387 . S
C881 C883 1.387 1_465 S
H882 C889 0.950 . S
C883 C881 1.387 1_645 S
C883 C885 1.390 1_554 S
C883 H887 0.950 . S
H884 C880 0.950 . S
C885 C883 1.390 1_556 S
C885 C886 1.387 1_645 S
C885 H888 0.950 . S
C886 C885 1.387 1_465 S
C886 C889 1.387 . S
H887 C883 0.950 . S
H888 C885 0.950 . S
C889 C880 1.390 1_556 S
C889 H882 0.950 . S
C889 C886 1.387 . S
C890 C891 1.387 . S
C890 H894 0.950 . S
C890 C899 1.390 . S
C891 C890 1.387 . S
C891 C893 1.387 . S
H892 C899 0.950 . S
C893 C891 1.387 . S
C893 C895 1.390 . S
C893 H897 0.950 . S
H894 C890 0.950 . S
C895 C893 1.390 . S
C895 C896 1.387 . S
C895 H898 0.950 . S
C896 C895 1.387 . S
C896 C899 1.387 . S
H897 C893 0.950 . S
H898 C895 0.950 . S
C899 C890 1.390 . S
C899 H892 0.950 . S
C899 C896 1.387 . S
C900 C901 1.387 1_565 S
C900 H904 0.950 . S
C900 C909 1.390 . S
C901 C900 1.387 1_545 S
C901 C903 1.387 . S
H902 C909 0.950 . S
C903 C901 1.387 . S
C903 C905 1.390 . S
C903 H907 0.950 . S
H904 C900 0.950 . S
C905 C903 1.390 . S
C905 C906 1.387 1_545 S
C905 H908 0.950 . S
C906 C905 1.387 1_565 S
C906 C909 1.387 . S
H907 C903 0.950 . S
H908 C905 0.950 . S
C909 C900 1.390 . S
C909 H902 0.950 . S
C909 C906 1.387 . S
C910 C911 1.387 . S
C910 H914 0.950 . S
C910 C919 1.390 . S
C911 C910 1.387 . S
C911 C913 1.387 . S
H912 C919 0.950 . S
C913 C911 1.387 . S
C913 C915 1.390 . S
C913 H917 0.950 . S
H914 C910 0.950 . S
C915 C913 1.390 . S
C915 C916 1.387 . S
C915 H918 0.950 . S
C916 C915 1.387 . S
C916 C919 1.387 . S
H917 C913 0.950 . S
H918 C915 0.950 . S
C919 C910 1.390 . S
C919 H912 0.950 . S
C919 C916 1.387 . S
C920 C921 1.387 . S
C920 H924 0.950 . S
C920 C929 1.390 . S
C921 C920 1.387 . S
C921 C923 1.387 . S
H922 C929 0.950 . S
C923 C921 1.387 . S
C923 C925 1.390 . S
C923 H927 0.950 . S
H924 C920 0.950 . S
C925 C923 1.390 . S
C925 C926 1.387 . S
C925 H928 0.950 . S
C926 C925 1.387 . S
C926 C929 1.387 . S
H927 C923 0.950 . S
H928 C925 0.950 . S
C929 C920 1.390 . S
C929 H922 0.950 . S
C929 C926 1.387 . S
C930 C931 1.387 . S
C930 H934 0.950 . S
C930 C939 1.390 . S
C931 C930 1.387 . S
C931 C933 1.387 . S
H932 C939 0.950 . S
C933 C931 1.387 . S
C933 C935 1.390 . S
C933 H937 0.950 . S
H934 C930 0.950 . S
C935 C933 1.390 . S
C935 C936 1.387 . S
C935 H938 0.950 . S
C936 C935 1.387 . S
C936 C939 1.387 . S
H937 C933 0.950 . S
H938 C935 0.950 . S
C939 C930 1.390 . S
C939 H932 0.950 . S
C939 C936 1.387 . S
C940 C941 1.387 . S
C940 H944 0.950 . S
C940 C949 1.390 . S
C941 C940 1.387 . S
C941 C943 1.387 . S
H942 C949 0.950 . S
C943 C941 1.387 . S
C943 C945 1.390 . S
C943 H947 0.950 . S
H944 C940 0.950 . S
C945 C943 1.390 . S
C945 C946 1.387 . S
C945 H948 0.950 . S
C946 C945 1.387 . S
C946 C949 1.387 . S
H947 C943 0.950 . S
H948 C945 0.950 . S
C949 C940 1.390 . S
C949 H942 0.950 . S
C949 C946 1.387 . S
C950 C951 1.387 . S
C950 H954 0.950 . S
C950 C959 1.390 1_556 S
C951 C950 1.387 . S
C951 C953 1.387 . S
H952 C959 0.950 . S
C953 C951 1.387 . S
C953 C955 1.390 1_556 S
C953 H957 0.950 . S
H954 C950 0.950 . S
C955 C953 1.390 1_554 S
C955 C956 1.387 . S
C955 H958 0.950 . S
C956 C955 1.387 . S
C956 C959 1.387 . S
H957 C953 0.950 . S
H958 C955 0.950 . S
C959 C950 1.390 1_554 S
C959 H952 0.950 . S
C959 C956 1.387 . S
C960 C961 1.387 . S
C960 H964 0.950 . S
C960 C969 1.390 . S
C961 C960 1.387 . S
C961 C963 1.387 . S
H962 C969 0.950 . S
C963 C961 1.387 . S
C963 C965 1.390 . S
C963 H967 0.950 . S
H964 C960 0.950 . S
C965 C963 1.390 . S
C965 C966 1.387 . S
C965 H968 0.950 . S
C966 C965 1.387 . S
C966 C969 1.387 . S
H967 C963 0.950 . S
H968 C965 0.950 . S
C969 C960 1.390 . S
C969 H962 0.950 . S
C969 C966 1.387 . S
C970 C971 1.387 . S
C970 H974 0.950 . S
C970 C979 1.390 . S
C971 C970 1.387 . S
C971 C973 1.387 . S
H972 C979 0.950 . S
C973 C971 1.387 . S
C973 C975 1.390 . S
C973 H977 0.950 . S
H974 C970 0.950 . S
C975 C973 1.390 . S
C975 C976 1.387 . S
C975 H978 0.950 . S
C976 C975 1.387 . S
C976 C979 1.387 . S
H977 C973 0.950 . S
H978 C975 0.950 . S
C979 C970 1.390 . S
C979 H972 0.950 . S
C979 C976 1.387 . S
C980 C981 1.387 1_556 S
C980 H984 0.950 1_556 S
C980 C989 1.390 . S
C981 C980 1.387 1_554 S
C981 C983 1.387 . S
H982 C989 0.950 . S
C983 C981 1.387 . S
C983 C985 1.390 1_554 S
C983 H987 0.950 . S
H984 C980 0.950 1_554 S
C985 C983 1.390 1_556 S
C985 C986 1.387 . S
C985 H988 0.950 . S
C986 C985 1.387 . S
C986 C989 1.387 . S
H987 C983 0.950 . S
H988 C985 0.950 . S
C989 C980 1.390 . S
C989 H982 0.950 . S
C989 C986 1.387 . S
C990 C991 1.387 . S
C990 H994 0.950 . S
C990 C999 1.390 . S
C991 C990 1.387 . S
C991 C993 1.387 . S
H992 C999 0.950 . S
C993 C991 1.387 . S
C993 C995 1.390 . S
C993 H997 0.950 . S
H994 C990 0.950 . S
C995 C993 1.390 . S
C995 C996 1.387 . S
C995 H998 0.950 . S
C996 C995 1.387 . S
C996 C999 1.387 . S
H997 C993 0.950 . S
H998 C995 0.950 . S
C999 C990 1.390 . S
C999 H992 0.950 . S
C999 C996 1.387 . S
C1000 C1001 1.387 . S
C1000 H1004 0.950 . S
C1000 C1009 1.390 . S
C1001 C1000 1.387 . S
C1001 C1003 1.387 . S
H1002 C1009 0.950 . S
C1003 C1001 1.387 . S
C1003 C1005 1.390 . S
C1003 H1007 0.950 . S
H1004 C1000 0.950 . S
C1005 C1003 1.390 . S
C1005 C1006 1.387 . S
C1005 H1008 0.950 . S
C1006 C1005 1.387 . S
C1006 C1009 1.387 . S
H1007 C1003 0.950 . S
H1008 C1005 0.950 . S
C1009 C1000 1.390 . S
C1009 H1002 0.950 . S
C1009 C1006 1.387 . S
C1010 C1011 1.387 . S
C1010 H1014 0.950 . S
C1010 C1019 1.390 . S
C1011 C1010 1.387 . S
C1011 C1013 1.387 . S
H1012 C1019 0.950 . S
C1013 C1011 1.387 . S
C1013 C1015 1.390 . S
C1013 H1017 0.950 . S
H1014 C1010 0.950 . S
C1015 C1013 1.390 . S
C1015 C1016 1.387 . S
C1015 H1018 0.950 . S
C1016 C1015 1.387 . S
C1016 C1019 1.387 . S
H1017 C1013 0.950 . S
H1018 C1015 0.950 . S
C1019 C1010 1.390 . S
C1019 H1012 0.950 . S
C1019 C1016 1.387 . S
C1020 C1021 1.387 . S
C1020 H1024 0.950 . S
C1020 C1029 1.390 . S
C1021 C1020 1.387 . S
C1021 C1023 1.387 . S
H1022 C1029 0.950 . S
C1023 C1021 1.387 . S
C1023 C1025 1.390 . S
C1023 H1027 0.950 . S
H1024 C1020 0.950 . S
C1025 C1023 1.390 . S
C1025 C1026 1.387 . S
C1025 H1028 0.950 . S
C1026 C1025 1.387 . S
C1026 C1029 1.387 . S
H1027 C1023 0.950 . S
H1028 C1025 0.950 . S
C1029 C1020 1.390 . S
C1029 H1022 0.950 . S
C1029 C1026 1.387 . S
C1030 C1031 1.387 . S
C1030 H1034 0.950 . S
C1030 C1039 1.390 . S
C1031 C1030 1.387 . S
C1031 C1033 1.387 . S
H1032 C1039 0.950 . S
C1033 C1031 1.387 . S
C1033 C1035 1.390 . S
C1033 H1037 0.950 . S
H1034 C1030 0.950 . S
C1035 C1033 1.390 . S
C1035 C1036 1.387 . S
C1035 H1038 0.950 . S
C1036 C1035 1.387 . S
C1036 C1039 1.387 . S
H1037 C1033 0.950 . S
H1038 C1035 0.950 . S
C1039 C1030 1.390 . S
C1039 H1032 0.950 . S
C1039 C1036 1.387 . S
C1040 C1041 1.387 . S
C1040 H1044 0.950 . S
C1040 C1049 1.390 . S
C1041 C1040 1.387 . S
C1041 C1043 1.387 . S
H1042 C1049 0.950 . S
C1043 C1041 1.387 . S
C1043 C1045 1.390 . S
C1043 H1047 0.950 . S
H1044 C1040 0.950 . S
C1045 C1043 1.390 . S
C1045 C1046 1.387 . S
C1045 H1048 0.950 . S
C1046 C1045 1.387 . S
C1046 C1049 1.387 . S
H1047 C1043 0.950 . S
H1048 C1045 0.950 . S
C1049 C1040 1.390 . S
C1049 H1042 0.950 . S
C1049 C1046 1.387 . S
C1050 C1051 1.387 . S
C1050 H1054 0.950 . S
C1050 C1059 1.390 . S
C1051 C1050 1.387 . S
C1051 C1053 1.387 . S
H1052 C1059 0.950 . S
C1053 C1051 1.387 . S
C1053 C1055 1.390 . S
C1053 H1057 0.950 . S
H1054 C1050 0.950 . S
C1055 C1053 1.390 . S
C1055 C1056 1.387 . S
C1055 H1058 0.950 . S
C1056 C1055 1.387 . S
C1056 C1059 1.387 . S
H1057 C1053 0.950 . S
H1058 C1055 0.950 . S
C1059 C1050 1.390 . S
C1059 H1052 0.950 . S
C1059 C1056 1.387 . S
C1060 C1061 1.387 . S
C1060 H1064 0.950 . S
C1060 C1069 1.390 . S
C1061 C1060 1.387 . S
C1061 C1063 1.387 . S
H1062 C1069 0.950 . S
C1063 C1061 1.387 . S
C1063 C1065 1.390 . S
C1063 H1067 0.950 . S
H1064 C1060 0.950 . S
C1065 C1063 1.390 . S
C1065 C1066 1.387 . S
C1065 H1068 0.950 . S
C1066 C1065 1.387 . S
C1066 C1069 1.387 . S
H1067 C1063 0.950 . S
H1068 C1065 0.950 . S
C1069 C1060 1.390 . S
C1069 H1062 0.950 . S
C1069 C1066 1.387 . S
C1070 C1071 1.387 . S
C1070 H1074 0.950 . S
C1070 C1079 1.390 . S
C1071 C1070 1.387 . S
C1071 C1073 1.387 . S
H1072 C1079 0.950 . S
C1073 C1071 1.387 . S
C1073 C1075 1.390 . S
C1073 H1077 0.950 . S
H1074 C1070 0.950 . S
C1075 C1073 1.390 . S
C1075 C1076 1.387 . S
C1075 H1078 0.950 . S
C1076 C1075 1.387 . S
C1076 C1079 1.387 . S
H1077 C1073 0.950 . S
H1078 C1075 0.950 . S
C1079 C1070 1.390 . S
C1079 H1072 0.950 . S
C1079 C1076 1.387 . S
C1080 C1081 1.387 . S
C1080 H1084 0.950 . S
C1080 C1089 1.390 . S
C1081 C1080 1.387 . S
C1081 C1083 1.387 . S
H1082 C1089 0.950 . S
C1083 C1081 1.387 . S
C1083 C1085 1.390 1_554 S
C1083 H1087 0.950 . S
H1084 C1080 0.950 . S
C1085 C1083 1.390 1_556 S
C1085 C1086 1.387 . S
C1085 H1088 0.950 . S
C1086 C1085 1.387 . S
C1086 C1089 1.387 1_556 S
H1087 C1083 0.950 . S
H1088 C1085 0.950 . S
C1089 C1080 1.390 . S
C1089 H1082 0.950 . S
C1089 C1086 1.387 1_554 S
C1090 C1091 1.387 . S
C1090 H1094 0.950 . S
C1090 C1099 1.390 . S
C1091 C1090 1.387 . S
C1091 C1093 1.387 . S
H1092 C1099 0.950 . S
C1093 C1091 1.387 . S
C1093 C1095 1.390 . S
C1093 H1097 0.950 . S
H1094 C1090 0.950 . S
C1095 C1093 1.390 . S
C1095 C1096 1.387 . S
C1095 H1098 0.950 . S
C1096 C1095 1.387 . S
C1096 C1099 1.387 . S
H1097 C1093 0.950 . S
H1098 C1095 0.950 . S
C1099 C1090 1.390 . S
C1099 H1092 0.950 . S
C1099 C1096 1.387 . S
C1100 C1101 1.387 . S
C1100 H1104 0.950 . S
C1100 C1109 1.390 . S
C1101 C1100 1.387 . S
C1101 C1103 1.387 . S
H1102 C1109 0.950 . S
C1103 C1101 1.387 . S
C1103 C1105 1.390 . S
C1103 H1107 0.950 . S
H1104 C1100 0.950 . S
C1105 C1103 1.390 . S
C1105 C1106 1.387 . S
C1105 H1108 0.950 . S
C1106 C1105 1.387 . S
C1106 C1109 1.387 . S
H1107 C1103 0.950 . S
H1108 C1105 0.950 . S
C1109 C1100 1.390 . S
C1109 H1102 0.950 . S
C1109 C1106 1.387 . S
C1110 C1111 1.387 . S
C1110 H1114 0.950 . S
C1110 C1119 1.390 . S
C1111 C1110 1.387 . S
C1111 C1113 1.387 . S
H1112 C1119 0.950 . S
C1113 C1111 1.387 . S
C1113 C1115 1.390 . S
C1113 H1117 0.950 . S
H1114 C1110 0.950 . S
C1115 C1113 1.390 . S
C1115 C1116 1.387 . S
C1115 H1118 0.950 . S
C1116 C1115 1.387 . S
C1116 C1119 1.387 . S
H1117 C1113 0.950 . S
H1118 C1115 0.950 . S
C1119 C1110 1.390 . S
C1119 H1112 0.950 . S
C1119 C1116 1.387 . S
C641 C7 1.155 . S
C646 C287 1.325 . S
C651 C51 1.199 . S
C656 C167 1.142 . S
C661 C207 0.804 . S
C666 C91 0.451 . S
C671 C131 1.101 . S
C676 C247 1.055 . S
C681 C456 1.052 . S
C686 C162 1.089 . S
C691 C322 2.926 . S
C696 C2 2.834 1_556 S
C701 C416 1.116 . S
C706 C242 1.169 . S
C711 C96 2.063 . S
C716 C362 2.049 . S
C721 C367 1.322 . S
C726 C487 1.153 . S
C731 C411 1.201 . S
C736 C567 1.143 . S
C741 C531 0.449 . S
C746 C327 0.802 . S
C751 C451 1.102 . S
C756 C607 1.060 . S
C761 C562 1.087 . S
C766 C136 1.048 . S
C771 C482 2.835 . S
C776 C202 2.928 . S
C781 C56 1.117 . S
C786 C602 1.169 1_554 S
C791 C282 2.049 . S
C796 C536 2.063 . S
C801 C539 0.950 . S
C806 C10 0.954 . S
C811 C459 0.776 . S
C816 C59 0.777 . S
C821 C490 0.946 . S
C826 C99 0.946 . S
C831 C419 0.772 . S
C836 C139 0.769 . S
C841 C170 0.764 . S
C846 C610 0.765 . S
C851 C370 1.372 . S
C856 C210 1.665 . S
C861 C250 0.765 . S
C866 C570 0.764 . S
C871 C290 1.372 . S
C876 C330 1.665 . S
C881 C19 1.937 1_465 S
C886 C179 1.895 . S
C891 C50 1.754 . S
C896 C219 1.793 . S
C901 C259 1.954 . S
C906 C90 1.961 . S
C911 C130 2.175 . S
C916 C299 2.131 . S
C921 C410 1.759 . S
C926 C339 1.797 . S
C931 C450 2.175 . S
C936 C379 2.131 . S
C941 C499 1.938 . S
C946 C579 1.898 . S
C951 C619 1.951 . S
C956 C530 1.958 . S
C961 C11 3.675 . S
C966 C291 3.699 . S
C971 C47 2.062 . S
C976 C171 2.191 . S
C981 C211 2.946 . S
C986 C87 2.866 . S
C991 C251 2.164 . S
C996 C127 2.029 . S
C1001 C442 2.146 . S
C1006 C176 2.021 . S
C1011 C336 0.828 . S
C1016 C16 0.824 . S
C1021 C402 2.148 1_554 S
C1026 C256 2.024 . S
C1031 C82 1.140 . S
C1036 C376 1.055 . S
C1041 C491 3.674 . S
C1046 C371 3.700 1_556 S
C1051 C571 2.192 . S
C1056 C407 2.065 . S
C1061 C527 2.866 . S
C1066 C331 2.946 . S
C1071 C611 2.162 . S
C1076 C447 2.025 . S
C1081 C576 2.019 . S
C1086 C122 2.144 . S
C1091 C216 0.829 . S
C1096 C496 0.822 . S
C1101 C42 2.148 . S
C1106 C616 2.025 . S
C1111 C522 1.144 . S
C1116 C296 1.062 . S
