# Generated by pormake.
# Topology uow, (4)-cn, num edge types: 1
# Building blocks:
#     Node 0, Type 0, BuildingBlock: GALJAG_clean_sbu_0, # of connection points: 4
#     Node 1, Type 0, BuildingBlock: GALJAG_clean_sbu_0, # of connection points: 4
#     Node 2, Type 0, BuildingBlock: GALJAG_clean_sbu_0, # of connection points: 4
#     Node 3, Type 0, BuildingBlock: GALJAG_clean_sbu_0, # of connection points: 4
#     Node 4, Type 0, BuildingBlock: GALJAG_clean_sbu_0, # of connection points: 4
#     Node 5, Type 0, BuildingBlock: GALJAG_clean_sbu_0, # of connection points: 4
#     Node 6, Type 0, BuildingBlock: GALJAG_clean_sbu_0, # of connection points: 4
#     Node 7, Type 0, BuildingBlock: GALJAG_clean_sbu_0, # of connection points: 4
#     Node 8, Type 0, BuildingBlock: GALJAG_clean_sbu_0, # of connection points: 4
#     Node 9, Type 0, BuildingBlock: GALJAG_clean_sbu_0, # of connection points: 4
#     Node 10, Type 0, BuildingBlock: GALJAG_clean_sbu_0, # of connection points: 4
#     Node 11, Type 0, BuildingBlock: GALJAG_clean_sbu_0, # of connection points: 4
#     Node 12, Type 0, BuildingBlock: GALJAG_clean_sbu_0, # of connection points: 4
#     Node 13, Type 0, BuildingBlock: GALJAG_clean_sbu_0, # of connection points: 4
#     Node 14, Type 0, BuildingBlock: GALJAG_clean_sbu_0, # of connection points: 4
#     Node 15, Type 0, BuildingBlock: GALJAG_clean_sbu_0, # of connection points: 4
#     Node 16, Type 0, BuildingBlock: GALJAG_clean_sbu_0, # of connection points: 4
#     Node 17, Type 0, BuildingBlock: GALJAG_clean_sbu_0, # of connection points: 4
#     Node 18, Type 0, BuildingBlock: GALJAG_clean_sbu_0, # of connection points: 4
#     Node 19, Type 0, BuildingBlock: GALJAG_clean_sbu_0, # of connection points: 4
#     Node 20, Type 0, BuildingBlock: GALJAG_clean_sbu_0, # of connection points: 4
#     Node 21, Type 0, BuildingBlock: GALJAG_clean_sbu_0, # of connection points: 4
#     Node 22, Type 0, BuildingBlock: GALJAG_clean_sbu_0, # of connection points: 4
#     Node 23, Type 0, BuildingBlock: GALJAG_clean_sbu_0, # of connection points: 4
#     Node 24, Type 0, BuildingBlock: GALJAG_clean_sbu_0, # of connection points: 4
#     Node 25, Type 0, BuildingBlock: GALJAG_clean_sbu_0, # of connection points: 4
#     Node 26, Type 0, BuildingBlock: GALJAG_clean_sbu_0, # of connection points: 4
#     Node 27, Type 0, BuildingBlock: GALJAG_clean_sbu_0, # of connection points: 4
#     Node 28, Type 0, BuildingBlock: GALJAG_clean_sbu_0, # of connection points: 4
#     Node 29, Type 0, BuildingBlock: GALJAG_clean_sbu_0, # of connection points: 4
#     Node 30, Type 0, BuildingBlock: GALJAG_clean_sbu_0, # of connection points: 4
#     Node 31, Type 0, BuildingBlock: GALJAG_clean_sbu_0, # of connection points: 4
#     Edge 32, Type (0, 0), BuildingBlock: MIFKUJ_clean_linker_0, # of connection points: 2
#     Edge 33, Type (0, 0), BuildingBlock: MIFKUJ_clean_linker_0, # of connection points: 2
#     Edge 34, Type (0, 0), BuildingBlock: MIFKUJ_clean_linker_0, # of connection points: 2
#     Edge 35, Type (0, 0), BuildingBlock: MIFKUJ_clean_linker_0, # of connection points: 2
#     Edge 36, Type (0, 0), BuildingBlock: MIFKUJ_clean_linker_0, # of connection points: 2
#     Edge 37, Type (0, 0), BuildingBlock: MIFKUJ_clean_linker_0, # of connection points: 2
#     Edge 38, Type (0, 0), BuildingBlock: MIFKUJ_clean_linker_0, # of connection points: 2
#     Edge 39, Type (0, 0), BuildingBlock: MIFKUJ_clean_linker_0, # of connection points: 2
#     Edge 40, Type (0, 0), BuildingBlock: MIFKUJ_clean_linker_0, # of connection points: 2
#     Edge 41, Type (0, 0), BuildingBlock: MIFKUJ_clean_linker_0, # of connection points: 2
#     Edge 42, Type (0, 0), BuildingBlock: MIFKUJ_clean_linker_0, # of connection points: 2
#     Edge 43, Type (0, 0), BuildingBlock: MIFKUJ_clean_linker_0, # of connection points: 2
#     Edge 44, Type (0, 0), BuildingBlock: MIFKUJ_clean_linker_0, # of connection points: 2
#     Edge 45, Type (0, 0), BuildingBlock: MIFKUJ_clean_linker_0, # of connection points: 2
#     Edge 46, Type (0, 0), BuildingBlock: MIFKUJ_clean_linker_0, # of connection points: 2
#     Edge 47, Type (0, 0), BuildingBlock: MIFKUJ_clean_linker_0, # of connection points: 2
#     Edge 48, Type (0, 0), BuildingBlock: MIFKUJ_clean_linker_0, # of connection points: 2
#     Edge 49, Type (0, 0), BuildingBlock: MIFKUJ_clean_linker_0, # of connection points: 2
#     Edge 50, Type (0, 0), BuildingBlock: MIFKUJ_clean_linker_0, # of connection points: 2
#     Edge 51, Type (0, 0), BuildingBlock: MIFKUJ_clean_linker_0, # of connection points: 2
#     Edge 52, Type (0, 0), BuildingBlock: MIFKUJ_clean_linker_0, # of connection points: 2
#     Edge 53, Type (0, 0), BuildingBlock: MIFKUJ_clean_linker_0, # of connection points: 2
#     Edge 54, Type (0, 0), BuildingBlock: MIFKUJ_clean_linker_0, # of connection points: 2
#     Edge 55, Type (0, 0), BuildingBlock: MIFKUJ_clean_linker_0, # of connection points: 2
#     Edge 56, Type (0, 0), BuildingBlock: MIFKUJ_clean_linker_0, # of connection points: 2
#     Edge 57, Type (0, 0), BuildingBlock: MIFKUJ_clean_linker_0, # of connection points: 2
#     Edge 58, Type (0, 0), BuildingBlock: MIFKUJ_clean_linker_0, # of connection points: 2
#     Edge 59, Type (0, 0), BuildingBlock: MIFKUJ_clean_linker_0, # of connection points: 2
#     Edge 60, Type (0, 0), BuildingBlock: MIFKUJ_clean_linker_0, # of connection points: 2
#     Edge 61, Type (0, 0), BuildingBlock: MIFKUJ_clean_linker_0, # of connection points: 2
#     Edge 62, Type (0, 0), BuildingBlock: MIFKUJ_clean_linker_0, # of connection points: 2
#     Edge 63, Type (0, 0), BuildingBlock: MIFKUJ_clean_linker_0, # of connection points: 2
#     Edge 64, Type (0, 0), BuildingBlock: MIFKUJ_clean_linker_0, # of connection points: 2
#     Edge 65, Type (0, 0), BuildingBlock: MIFKUJ_clean_linker_0, # of connection points: 2
#     Edge 66, Type (0, 0), BuildingBlock: MIFKUJ_clean_linker_0, # of connection points: 2
#     Edge 67, Type (0, 0), BuildingBlock: MIFKUJ_clean_linker_0, # of connection points: 2
#     Edge 68, Type (0, 0), BuildingBlock: MIFKUJ_clean_linker_0, # of connection points: 2
#     Edge 69, Type (0, 0), BuildingBlock: MIFKUJ_clean_linker_0, # of connection points: 2
#     Edge 70, Type (0, 0), BuildingBlock: MIFKUJ_clean_linker_0, # of connection points: 2
#     Edge 71, Type (0, 0), BuildingBlock: MIFKUJ_clean_linker_0, # of connection points: 2
#     Edge 72, Type (0, 0), BuildingBlock: MIFKUJ_clean_linker_0, # of connection points: 2
#     Edge 73, Type (0, 0), BuildingBlock: MIFKUJ_clean_linker_0, # of connection points: 2
#     Edge 74, Type (0, 0), BuildingBlock: MIFKUJ_clean_linker_0, # of connection points: 2
#     Edge 75, Type (0, 0), BuildingBlock: MIFKUJ_clean_linker_0, # of connection points: 2
#     Edge 76, Type (0, 0), BuildingBlock: MIFKUJ_clean_linker_0, # of connection points: 2
#     Edge 77, Type (0, 0), BuildingBlock: MIFKUJ_clean_linker_0, # of connection points: 2
#     Edge 78, Type (0, 0), BuildingBlock: MIFKUJ_clean_linker_0, # of connection points: 2
#     Edge 79, Type (0, 0), BuildingBlock: MIFKUJ_clean_linker_0, # of connection points: 2
#     Edge 80, Type (0, 0), BuildingBlock: MIFKUJ_clean_linker_0, # of connection points: 2
#     Edge 81, Type (0, 0), BuildingBlock: MIFKUJ_clean_linker_0, # of connection points: 2
#     Edge 82, Type (0, 0), BuildingBlock: MIFKUJ_clean_linker_0, # of connection points: 2
#     Edge 83, Type (0, 0), BuildingBlock: MIFKUJ_clean_linker_0, # of connection points: 2
#     Edge 84, Type (0, 0), BuildingBlock: MIFKUJ_clean_linker_0, # of connection points: 2
#     Edge 85, Type (0, 0), BuildingBlock: MIFKUJ_clean_linker_0, # of connection points: 2
#     Edge 86, Type (0, 0), BuildingBlock: MIFKUJ_clean_linker_0, # of connection points: 2
#     Edge 87, Type (0, 0), BuildingBlock: MIFKUJ_clean_linker_0, # of connection points: 2
#     Edge 88, Type (0, 0), BuildingBlock: MIFKUJ_clean_linker_0, # of connection points: 2
#     Edge 89, Type (0, 0), BuildingBlock: MIFKUJ_clean_linker_0, # of connection points: 2
#     Edge 90, Type (0, 0), BuildingBlock: MIFKUJ_clean_linker_0, # of connection points: 2
#     Edge 91, Type (0, 0), BuildingBlock: MIFKUJ_clean_linker_0, # of connection points: 2
#     Edge 92, Type (0, 0), BuildingBlock: MIFKUJ_clean_linker_0, # of connection points: 2
#     Edge 93, Type (0, 0), BuildingBlock: MIFKUJ_clean_linker_0, # of connection points: 2
#     Edge 94, Type (0, 0), BuildingBlock: MIFKUJ_clean_linker_0, # of connection points: 2
#     Edge 95, Type (0, 0), BuildingBlock: MIFKUJ_clean_linker_0, # of connection points: 2
# Relax obj value: 0.043
# Max RMSD: 0.080
# Mean RMSD: 0.080
data_MOF--net-uow--node1-GALJAG_clean_sbu_0--edge1-MIFKUJ_clean_linker_0
_symmetry_space_group_name_H-M    P1
_symmetry_Int_Tables_number       1
_symmetry_cell_setting            triclinic
loop_
_symmetry_equiv_pos_as_xyz
'x, y, z'
_cell_length_a     77.15121
_cell_length_b     77.193772
_cell_length_c     58.04769
_cell_angle_alpha  90.001996
_cell_angle_beta   89.983908
_cell_angle_gamma 89.977385
loop_
_atom_site_label
_atom_site_type_symbol
_atom_site_fract_x
_atom_site_fract_y
_atom_site_fract_z
_atom_type_partial_charge
In0 In 0.07418 0.38001 0.28798 0.0
O1 O 0.09591 0.4005 0.2874 0.0
O2 O 0.06981 0.40884 0.28467 0.0
C3 C 0.08819 0.35453 0.31352 0.0
C4 C 0.07761 0.37012 0.24368 0.0
C5 C 0.04306 0.38001 0.30896 0.0
O6 O 0.0913 0.37033 0.31763 0.0
O7 O 0.07832 0.35182 0.29659 0.0
O8 O 0.04494 0.37561 0.28815 0.0
O9 O 0.05685 0.38445 0.31907 0.0
C10 C 0.08556 0.41303 0.2849 0.0
O11 O 0.0639 0.377 0.25126 0.0
O12 O 0.08949 0.36828 0.25838 0.0
In13 In 0.87154 0.82287 0.53669 0.0
O14 O 0.88083 0.81307 0.50178 0.0
O15 O 0.87315 0.8395 0.50447 0.0
C16 C 0.87513 0.79129 0.55579 0.0
C17 C 0.83733 0.82926 0.53328 0.0
C18 C 0.89494 0.84052 0.56229 0.0
O19 O 0.8835 0.7959 0.53815 0.0
O20 O 0.86487 0.80255 0.56368 0.0
O21 O 0.87969 0.83784 0.56929 0.0
O22 O 0.89797 0.83497 0.54232 0.0
C23 C 0.87875 0.82745 0.49177 0.0
O24 O 0.8479 0.8408 0.53976 0.0
O25 O 0.84404 0.81468 0.52917 0.0
In26 In 0.43119 0.6209 0.77629 0.0
O27 O 0.41388 0.59694 0.78102 0.0
O28 O 0.43366 0.5962 0.75557 0.0
C29 C 0.41494 0.64403 0.80343 0.0
C30 C 0.42585 0.63521 0.73482 0.0
C31 C 0.46181 0.61846 0.79863 0.0
O32 O 0.41219 0.62795 0.80513 0.0
O33 O 0.4257 0.64831 0.7881 0.0
O34 O 0.46033 0.62591 0.7794 0.0
O35 O 0.44798 0.61201 0.8063 0.0
C36 C 0.42127 0.58847 0.76523 0.0
O37 O 0.4408 0.63107 0.74185 0.0
O38 O 0.41365 0.63226 0.7488 0.0
In39 In 0.6295 0.18463 0.03244 0.0
O40 O 0.65252 0.1661 0.03824 0.0
O41 O 0.6526 0.18235 0.00876 0.0
C42 C 0.60621 0.17175 0.06241 0.0
C43 C 0.61205 0.18319 0.9923 0.0
C44 C 0.63824 0.21438 0.05376 0.0
O45 O 0.61803 0.16244 0.05375 0.0
O46 O 0.60617 0.1873 0.05578 0.0
O47 O 0.6287 0.21397 0.0361 0.0
O48 O 0.64363 0.19978 0.06043 0.0
C49 C 0.66032 0.17085 0.02019 0.0
O50 O 0.62019 0.1965 0.99876 0.0
O51 O 0.61236 0.17071 0.00635 0.0
In52 In 0.08214 0.61928 0.20971 0.0
O53 O 0.10152 0.5968 0.20778 0.0
O54 O 0.07475 0.59088 0.21083 0.0
C55 C 0.10096 0.64347 0.18729 0.0
C56 C 0.08451 0.62724 0.25476 0.0
C57 C 0.05091 0.62226 0.18924 0.0
O58 O 0.09914 0.62828 0.1796 0.0
O59 O 0.09381 0.64616 0.20647 0.0
O60 O 0.05259 0.62103 0.2108 0.0
O61 O 0.06494 0.62178 0.17809 0.0
C62 C 0.09005 0.58524 0.20966 0.0
O63 O 0.07241 0.63283 0.24214 0.0
O64 O 0.09544 0.61778 0.2446 0.0
In65 In 0.6246 0.82662 0.46727 0.0
O66 O 0.61287 0.81786 0.50142 0.0
O67 O 0.62065 0.84421 0.49813 0.0
C68 C 0.62284 0.79534 0.44679 0.0
C69 C 0.65879 0.83245 0.47322 0.0
C70 C 0.6024 0.84444 0.44018 0.0
O71 O 0.61676 0.79807 0.46667 0.0
O72 O 0.62971 0.80836 0.43737 0.0
O73 O 0.61838 0.8434 0.43573 0.0
O74 O 0.59778 0.83678 0.45833 0.0
C75 C 0.61421 0.83257 0.51078 0.0
O76 O 0.64864 0.84413 0.46611 0.0
O77 O 0.6517 0.81803 0.47697 0.0
In78 In 0.42385 0.37596 0.71424 0.0
O79 O 0.41129 0.40067 0.69996 0.0
O80 O 0.42094 0.40098 0.73425 0.0
C81 C 0.40867 0.35098 0.68882 0.0
C82 C 0.41785 0.36255 0.75616 0.0
C83 C 0.45577 0.38036 0.69617 0.0
O84 O 0.4013 0.36529 0.69275 0.0
O85 O 0.4235 0.34942 0.69767 0.0
O86 O 0.45342 0.37694 0.7172 0.0
O87 O 0.44207 0.3818 0.6845 0.0
C88 C 0.4135 0.40916 0.71831 0.0
O89 O 0.43274 0.3624 0.74707 0.0
O90 O 0.40607 0.36922 0.74394 0.0
In91 In 0.86931 0.17011 0.95875 0.0
O92 O 0.86609 0.17834 0.99631 0.0
O93 O 0.88856 0.16397 0.98726 0.0
C94 C 0.87576 0.20315 0.94572 0.0
C95 C 0.83677 0.15723 0.95912 0.0
C96 C 0.88607 0.14944 0.92856 0.0
O97 O 0.86092 0.19809 0.95181 0.0
O98 O 0.88733 0.19165 0.94654 0.0
O99 O 0.8753 0.16078 0.92225 0.0
O100 O 0.88781 0.14808 0.95007 0.0
C101 C 0.88 0.17135 0.00295 0.0
O102 O 0.8486 0.15134 0.97188 0.0
O103 O 0.84154 0.16911 0.94565 0.0
In104 In 0.92838 0.61887 0.72177 0.0
O105 O 0.93709 0.628 0.75719 0.0
O106 O 0.91174 0.63494 0.74603 0.0
C107 C 0.96033 0.61215 0.70538 0.0
C108 C 0.91505 0.587 0.72916 0.0
C109 C 0.91711 0.6423 0.69084 0.0
O110 O 0.95786 0.62135 0.72308 0.0
O111 O 0.94675 0.60596 0.6965 0.0
O112 O 0.90703 0.63124 0.6997 0.0
O113 O 0.93258 0.6415 0.69767 0.0
C114 C 0.92298 0.63554 0.7618 0.0
O115 O 0.91332 0.59475 0.71015 0.0
O116 O 0.92323 0.59538 0.74423 0.0
In117 In 0.12866 0.16882 0.45984 0.0
O118 O 0.11313 0.17654 0.49179 0.0
O119 O 0.13319 0.15788 0.49569 0.0
C120 C 0.12526 0.20034 0.44015 0.0
C121 C 0.16257 0.1606 0.45816 0.0
C122 C 0.10525 0.14876 0.43784 0.0
O123 O 0.12774 0.19847 0.46149 0.0
O124 O 0.1246 0.1864 0.4289 0.0
O125 O 0.12011 0.15173 0.42967 0.0
O126 O 0.1025 0.15541 0.45732 0.0
C127 C 0.12142 0.16667 0.50518 0.0
O128 O 0.15085 0.1492 0.45722 0.0
O129 O 0.1571 0.17597 0.45916 0.0
In130 In 0.57619 0.37689 0.21423 0.0
O131 O 0.59465 0.4001 0.21577 0.0
O132 O 0.56756 0.40497 0.21489 0.0
C133 C 0.59978 0.35785 0.19084 0.0
C134 C 0.57716 0.36675 0.2586 0.0
C135 C 0.54488 0.37177 0.19427 0.0
O136 O 0.59256 0.37101 0.18226 0.0
O137 O 0.59542 0.35458 0.21128 0.0
O138 O 0.54683 0.3722 0.21583 0.0
O139 O 0.55866 0.3737 0.18293 0.0
C140 C 0.58263 0.4112 0.21619 0.0
O141 O 0.57176 0.3569 0.24276 0.0
O142 O 0.58189 0.38158 0.25201 0.0
In143 In 0.37381 0.82351 0.95808 0.0
O144 O 0.38916 0.81483 0.98969 0.0
O145 O 0.37213 0.83636 0.99321 0.0
C146 C 0.37547 0.79242 0.93695 0.0
C147 C 0.33974 0.83078 0.96096 0.0
C148 C 0.39697 0.84306 0.93477 0.0
O149 O 0.37672 0.79406 0.95851 0.0
O150 O 0.37337 0.80642 0.92612 0.0
O151 O 0.38139 0.84165 0.92842 0.0
O152 O 0.40063 0.835 0.95299 0.0
C153 C 0.38276 0.82624 0.00277 0.0
O154 O 0.35085 0.84231 0.9565 0.0
O155 O 0.34582 0.81571 0.96317 0.0
In156 In 0.93262 0.37486 0.78384 0.0
O157 O 0.91918 0.4001 0.7947 0.0
O158 O 0.92991 0.39848 0.76102 0.0
C159 C 0.9205 0.35176 0.81484 0.0
C160 C 0.9237 0.35904 0.74431 0.0
C161 C 0.96541 0.38088 0.79791 0.0
O162 O 0.9124 0.36554 0.81017 0.0
O163 O 0.93444 0.34976 0.80386 0.0
O164 O 0.96199 0.3733 0.77919 0.0
O165 O 0.95232 0.38567 0.80925 0.0
C166 C 0.92179 0.40747 0.77558 0.0
O167 O 0.93924 0.36011 0.75101 0.0
O168 O 0.91268 0.36564 0.75779 0.0
In169 In 0.37019 0.17497 0.5304 0.0
O170 O 0.3794 0.18491 0.49535 0.0
O171 O 0.37905 0.15773 0.50094 0.0
C172 C 0.36653 0.20527 0.55267 0.0
C173 C 0.337 0.16527 0.52453 0.0
C174 C 0.39474 0.16182 0.55835 0.0
O175 O 0.37404 0.2041 0.53337 0.0
O176 O 0.36069 0.19117 0.56055 0.0
O177 O 0.37973 0.15531 0.55722 0.0
O178 O 0.39728 0.17451 0.54514 0.0
C179 C 0.38216 0.17 0.48724 0.0
O180 O 0.34823 0.15502 0.53261 0.0
O181 O 0.34254 0.18018 0.51968 0.0
In182 In 0.57259 0.62161 0.28821 0.0
O183 O 0.56437 0.63579 0.25535 0.0
O184 O 0.58802 0.62158 0.255 0.0
C185 C 0.53997 0.62434 0.30454 0.0
C186 C 0.57925 0.58759 0.28363 0.0
C187 C 0.59135 0.64221 0.31666 0.0
O188 O 0.54624 0.63512 0.29046 0.0
O189 O 0.55012 0.6123 0.31026 0.0
O190 O 0.58318 0.62917 0.32386 0.0
O191 O 0.59055 0.64441 0.29523 0.0
C192 C 0.57751 0.63098 0.24403 0.0
O193 O 0.58997 0.59775 0.29306 0.0
O194 O 0.56538 0.59461 0.27692 0.0
In195 In 0.13152 0.8296 0.03816 0.0
O196 O 0.11771 0.82066 0.0054 0.0
O197 O 0.13154 0.84449 0.00446 0.0
C198 C 0.12853 0.79855 0.05904 0.0
C199 C 0.16587 0.83599 0.03635 0.0
C200 C 0.10884 0.84865 0.06288 0.0
O201 O 0.12841 0.80012 0.03738 0.0
O202 O 0.13019 0.81257 0.06997 0.0
O203 O 0.12449 0.84689 0.06876 0.0
O204 O 0.10482 0.84124 0.04429 0.0
C205 C 0.12244 0.83361 0.99366 0.0
O206 O 0.15488 0.84791 0.03912 0.0
O207 O 0.15955 0.82098 0.03505 0.0
In208 In 0.58299 0.88006 0.7937 0.0
O209 O 0.60344 0.90141 0.79031 0.0
O210 O 0.57785 0.9086 0.7999 0.0
C211 C 0.60325 0.85741 0.81695 0.0
C212 C 0.58349 0.87189 0.74854 0.0
C213 C 0.55081 0.87846 0.81199 0.0
O214 O 0.6003 0.87252 0.82417 0.0
O215 O 0.59644 0.85396 0.79778 0.0
O216 O 0.55338 0.88129 0.79085 0.0
O217 O 0.5644 0.87633 0.8237 0.0
C218 C 0.59302 0.91349 0.79517 0.0
O219 O 0.57543 0.86286 0.76317 0.0
O220 O 0.59115 0.88493 0.75671 0.0
In221 In 0.36972 0.32107 0.0358 0.0
O222 O 0.38445 0.31357 0.00343 0.0
O223 O 0.37187 0.33818 0.00405 0.0
C224 C 0.36904 0.28847 0.05281 0.0
C225 C 0.33625 0.32982 0.02938 0.0
C226 C 0.39306 0.33765 0.06283 0.0
O227 O 0.3755 0.29213 0.03349 0.0
O228 O 0.36286 0.30123 0.06356 0.0
O229 O 0.37739 0.33601 0.0686 0.0
O230 O 0.39672 0.33131 0.04348 0.0
C231 C 0.38085 0.32739 0.99281 0.0
O232 O 0.3462 0.33865 0.04206 0.0
O233 O 0.34311 0.3166 0.02047 0.0
In234 In 0.92358 0.12182 0.28058 0.0
O235 O 0.9087 0.09698 0.28965 0.0
O236 O 0.92427 0.09707 0.2595 0.0
C237 C 0.90679 0.14568 0.30586 0.0
C238 C 0.91816 0.13552 0.23876 0.0
C239 C 0.95434 0.11975 0.30283 0.0
O240 O 0.90283 0.12982 0.30665 0.0
O241 O 0.91903 0.1494 0.29234 0.0
O242 O 0.95315 0.12495 0.28231 0.0
O243 O 0.94017 0.1154 0.31186 0.0
C244 C 0.91413 0.08873 0.27234 0.0
O245 O 0.93318 0.13224 0.24633 0.0
O246 O 0.90588 0.13197 0.25239 0.0
In247 In 0.12321 0.67498 0.53498 0.0
O248 O 0.10793 0.68052 0.50224 0.0
O249 O 0.12001 0.65578 0.50579 0.0
C250 C 0.12317 0.70702 0.55389 0.0
C251 C 0.15686 0.669 0.52565 0.0
C252 C 0.10151 0.65694 0.56239 0.0
O253 O 0.1176 0.70418 0.53382 0.0
O254 O 0.12867 0.69378 0.56426 0.0
O255 O 0.11767 0.65722 0.56582 0.0
O256 O 0.09646 0.66561 0.54528 0.0
C257 C 0.11108 0.66586 0.4934 0.0
O258 O 0.14888 0.66066 0.5411 0.0
O259 O 0.14802 0.68046 0.51561 0.0
In260 In 0.57241 0.12223 0.71888 0.0
O261 O 0.56016 0.13119 0.75267 0.0
O262 O 0.58679 0.13684 0.74702 0.0
C263 C 0.5407 0.12556 0.6999 0.0
C264 C 0.5823 0.08956 0.72948 0.0
C265 C 0.59128 0.13891 0.68668 0.0
O266 O 0.54889 0.13822 0.70829 0.0
O267 O 0.54843 0.1112 0.70122 0.0
O268 O 0.5813 0.12651 0.68169 0.0
O269 O 0.59222 0.14233 0.70789 0.0
C270 C 0.57391 0.13788 0.76032 0.0
O271 O 0.59096 0.09885 0.71582 0.0
O272 O 0.56891 0.09671 0.73735 0.0
In273 In 0.12617 0.33064 0.9651 0.0
O274 O 0.12357 0.31934 0.00132 0.0
O275 O 0.10758 0.34073 0.99233 0.0
C276 C 0.11991 0.29801 0.95026 0.0
C277 C 0.15889 0.34257 0.97115 0.0
C278 C 0.11158 0.35148 0.93306 0.0
O279 O 0.10851 0.30971 0.95026 0.0
O280 O 0.13438 0.30263 0.95825 0.0
O281 O 0.12367 0.34107 0.9283 0.0
O282 O 0.10738 0.35178 0.95402 0.0
C283 C 0.11213 0.33004 0.00761 0.0
O284 O 0.1548 0.33237 0.95512 0.0
O285 O 0.1464 0.34724 0.98364 0.0
In286 In 0.92495 0.8751 0.21314 0.0
O287 O 0.91084 0.90066 0.20596 0.0
O288 O 0.92951 0.89993 0.23294 0.0
C289 C 0.90717 0.85321 0.18577 0.0
C290 C 0.91595 0.86239 0.25446 0.0
C291 C 0.95698 0.87577 0.19423 0.0
O292 O 0.90642 0.86943 0.18318 0.0
O293 O 0.91669 0.84819 0.20208 0.0
O294 O 0.9544 0.87103 0.21474 0.0
O295 O 0.94351 0.88013 0.18347 0.0
C296 C 0.91851 0.90871 0.22194 0.0
O297 O 0.93044 0.85908 0.24525 0.0
O298 O 0.90596 0.87181 0.24259 0.0
In299 In 0.36668 0.67994 0.46167 0.0
O300 O 0.36847 0.6888 0.49887 0.0
O301 O 0.38715 0.67052 0.4871 0.0
C302 C 0.36354 0.71357 0.44981 0.0
C303 C 0.33518 0.66491 0.4659 0.0
C304 C 0.38733 0.66487 0.42972 0.0
O305 O 0.3763 0.70774 0.46094 0.0
O306 O 0.35202 0.7025 0.44519 0.0
O307 O 0.37936 0.65611 0.4447 0.0
O308 O 0.38462 0.68091 0.43075 0.0
C309 C 0.38142 0.67947 0.50365 0.0
O310 O 0.34058 0.671 0.44706 0.0
O311 O 0.34585 0.6659 0.48222 0.0
In312 In 0.4248 0.11969 0.2085 0.0
O313 O 0.4235 0.14059 0.23642 0.0
O314 O 0.4257 0.11444 0.24713 0.0
C315 C 0.45758 0.12479 0.19352 0.0
C316 C 0.41456 0.08642 0.2103 0.0
C317 C 0.40424 0.13607 0.17769 0.0
O318 O 0.4495 0.13599 0.20515 0.0
O319 O 0.44923 0.11108 0.18975 0.0
O320 O 0.40141 0.13643 0.19905 0.0
O321 O 0.41702 0.12693 0.17182 0.0
C322 C 0.42427 0.13008 0.25299 0.0
O323 O 0.40377 0.09874 0.21054 0.0
O324 O 0.43022 0.09098 0.20897 0.0
In325 In 0.63153 0.67332 0.96587 0.0
O326 O 0.61722 0.68235 0.99813 0.0
O327 O 0.62864 0.65721 0.99828 0.0
C328 C 0.63315 0.70469 0.94541 0.0
C329 C 0.66478 0.66362 0.97186 0.0
C330 C 0.60742 0.65664 0.94056 0.0
O331 O 0.62997 0.7029 0.96659 0.0
O332 O 0.6355 0.69071 0.93464 0.0
O333 O 0.62322 0.65684 0.93494 0.0
O334 O 0.60391 0.66462 0.95891 0.0
C335 C 0.6202 0.66856 0.0092 0.0
O336 O 0.65384 0.65384 0.96225 0.0
O337 O 0.65902 0.67827 0.97765 0.0
In338 In 0.07952 0.87928 0.71263 0.0
O339 O 0.07268 0.86349 0.7447 0.0
O340 O 0.09497 0.87971 0.74587 0.0
C341 C 0.04827 0.87476 0.69261 0.0
C342 C 0.084 0.91383 0.71645 0.0
C343 C 0.09947 0.85828 0.68655 0.0
O344 O 0.0503 0.87406 0.71417 0.0
O345 O 0.06188 0.87789 0.68135 0.0
O346 O 0.09629 0.87375 0.68091 0.0
O347 O 0.09309 0.85369 0.70557 0.0
C348 C 0.0853 0.86915 0.75635 0.0
O349 O 0.09622 0.9038 0.71084 0.0
O350 O 0.06959 0.90647 0.7194 0.0
In351 In 0.87055 0.32407 0.46485 0.0
O352 O 0.88647 0.31544 0.49592 0.0
O353 O 0.86913 0.33666 0.50017 0.0
C354 C 0.87305 0.29326 0.44317 0.0
C355 C 0.83623 0.33026 0.46761 0.0
C356 C 0.89273 0.34437 0.44104 0.0
O357 O 0.87352 0.29457 0.46482 0.0
O358 O 0.87141 0.30742 0.4326 0.0
O359 O 0.8773 0.34191 0.43465 0.0
O360 O 0.89674 0.33706 0.4597 0.0
C361 C 0.88007 0.32664 0.50932 0.0
O362 O 0.84698 0.34218 0.46339 0.0
O363 O 0.8428 0.31541 0.46985 0.0
In364 In 0.42516 0.87729 0.28029 0.0
O365 O 0.43361 0.86204 0.24837 0.0
O366 O 0.40736 0.87011 0.25059 0.0
C367 C 0.45601 0.88091 0.30138 0.0
C368 C 0.41749 0.91068 0.27165 0.0
C369 C 0.40977 0.85483 0.30924 0.0
O370 O 0.45461 0.87545 0.28095 0.0
O371 O 0.44185 0.88482 0.31102 0.0
O372 O 0.40307 0.86933 0.30452 0.0
O373 O 0.42393 0.85174 0.29923 0.0
C374 C 0.41886 0.86247 0.23901 0.0
O375 O 0.40813 0.90141 0.28457 0.0
O376 O 0.43069 0.90317 0.26364 0.0
In377 In 0.86816 0.67131 0.04059 0.0
O378 O 0.86589 0.68044 0.00319 0.0
O379 O 0.88203 0.65879 0.0105 0.0
C380 C 0.86808 0.70364 0.0581 0.0
C381 C 0.83629 0.65672 0.04207 0.0
C382 C 0.89471 0.65807 0.06501 0.0
O383 O 0.87016 0.70075 0.03687 0.0
O384 O 0.86604 0.69027 0.07031 0.0
O385 O 0.87914 0.65441 0.06972 0.0
O386 O 0.89669 0.66815 0.04815 0.0
C387 C 0.87604 0.66897 0.99551 0.0
O388 O 0.84956 0.64826 0.03622 0.0
O389 O 0.83926 0.67215 0.0478 0.0
In390 In 0.07066 0.12468 0.78479 0.0
O391 O 0.06411 0.13651 0.74978 0.0
O392 O 0.09033 0.12976 0.75636 0.0
C393 C 0.03848 0.12184 0.80204 0.0
C394 C 0.07861 0.09081 0.78105 0.0
C395 C 0.08274 0.14937 0.8135 0.0
O396 O 0.04136 0.12699 0.78172 0.0
O397 O 0.05185 0.11812 0.81359 0.0
O398 O 0.0885 0.13405 0.81396 0.0
O399 O 0.07134 0.15213 0.79841 0.0
C400 C 0.07945 0.13583 0.74232 0.0
O401 O 0.08908 0.10155 0.78979 0.0
O402 O 0.0644 0.09718 0.77455 0.0
In403 In 0.62535 0.32162 0.53753 0.0
O404 O 0.64828 0.34053 0.53666 0.0
O405 O 0.65332 0.31382 0.53125 0.0
C406 C 0.60338 0.33903 0.56543 0.0
C407 C 0.61516 0.32682 0.4937 0.0
C408 C 0.62291 0.28978 0.55623 0.0
O409 O 0.61936 0.33776 0.56973 0.0
O410 O 0.59861 0.33162 0.54717 0.0
O411 O 0.61658 0.29343 0.53676 0.0
O412 O 0.63032 0.30223 0.56631 0.0
C413 C 0.65936 0.32893 0.5325 0.0
O414 O 0.6163 0.31189 0.50244 0.0
O415 O 0.61912 0.33907 0.50708 0.0
H416 H 0.05895 0.38069 0.2063 0.0
H417 H 0.06321 0.37211 0.1661 0.0
H418 H 0.1047 0.33791 0.18678 0.0
H419 H 0.10103 0.34714 0.22673 0.0
H420 H 0.11432 0.3544 0.151 0.0
H421 H 0.06237 0.3234 0.1705 0.0
H422 H 0.0325 0.32004 0.18498 0.0
H423 H 0.01387 0.3544 0.13235 0.0
H424 H 0.04366 0.35814 0.11773 0.0
H425 H 0.12269 0.31103 0.04472 0.0
H426 H 0.11468 0.31554 0.08509 0.0
H427 H 0.0794 0.35615 0.06489 0.0
H428 H 0.08726 0.35166 0.02451 0.0
H429 H 0.06626 0.3354 0.10015 0.0
H430 H 0.11868 0.36681 0.08193 0.0
H431 H 0.14856 0.36945 0.06722 0.0
H432 H 0.16624 0.3331 0.11804 0.0
H433 H 0.1364 0.33004 0.13282 0.0
C434 C 0.06892 0.3713 0.20221 0.0
C435 C 0.07966 0.36456 0.21956 0.0
C436 C 0.07128 0.3663 0.17927 0.0
C437 C 0.0841 0.35412 0.1734 0.0
C438 C 0.09473 0.34732 0.19083 0.0
C439 C 0.09261 0.35257 0.21366 0.0
C440 C 0.08694 0.34892 0.14904 0.0
C441 C 0.10382 0.34996 0.14006 0.0
C442 C 0.07322 0.3435 0.13449 0.0
C443 C 0.05527 0.34116 0.14315 0.0
C444 C 0.05192 0.33032 0.1621 0.0
C445 C 0.035 0.32834 0.17032 0.0
C446 C 0.0213 0.33703 0.15962 0.0
C447 C 0.02449 0.34769 0.14063 0.0
C448 C 0.04139 0.34973 0.13236 0.0
C449 C 0.11302 0.32072 0.04885 0.0
C450 C 0.10572 0.33111 0.03152 0.0
C451 C 0.10849 0.3233 0.0719 0.0
C452 C 0.09663 0.33634 0.07795 0.0
C453 C 0.0886 0.34606 0.06056 0.0
C454 C 0.09316 0.34351 0.03752 0.0
C455 C 0.09357 0.34074 0.10243 0.0
C456 C 0.0767 0.33968 0.11129 0.0
C457 C 0.1073 0.34603 0.11696 0.0
C458 C 0.12528 0.34807 0.10833 0.0
C459 C 0.12892 0.3593 0.08986 0.0
C460 C 0.14585 0.36088 0.08153 0.0
C461 C 0.15928 0.35142 0.09165 0.0
C462 C 0.15582 0.3404 0.11019 0.0
C463 C 0.1389 0.33875 0.11857 0.0
H464 H 0.17238 0.35265 0.08516 0.0
H465 H 0.00822 0.33549 0.16602 0.0
H466 H 0.88987 0.87453 0.28148 0.0
H467 H 0.88372 0.86684 0.32154 0.0
H468 H 0.92537 0.82959 0.32043 0.0
H469 H 0.93188 0.83748 0.28036 0.0
H470 H 0.89103 0.81879 0.34197 0.0
H471 H 0.93566 0.86297 0.344 0.0
H472 H 0.94815 0.89123 0.3332 0.0
H473 H 0.90424 0.9173 0.36264 0.0
H474 H 0.89135 0.88916 0.37329 0.0
H475 H 0.89652 0.8059 0.46294 0.0
H476 H 0.90294 0.81047 0.42212 0.0
H477 H 0.87523 0.85906 0.42405 0.0
H478 H 0.86939 0.85484 0.46503 0.0
H479 H 0.90344 0.86337 0.40134 0.0
H480 H 0.85807 0.82122 0.39916 0.0
H481 H 0.84319 0.79386 0.40858 0.0
H482 H 0.88503 0.76494 0.37855 0.0
H483 H 0.90029 0.79214 0.36922 0.0
C484 C 0.89761 0.86458 0.28967 0.0
C485 C 0.9114 0.85664 0.27789 0.0
C486 C 0.89409 0.86023 0.31252 0.0
C487 C 0.90415 0.84772 0.32382 0.0
C488 C 0.91749 0.83926 0.31187 0.0
C489 C 0.92121 0.84382 0.28909 0.0
C490 C 0.90125 0.84424 0.34851 0.0
C491 C 0.89396 0.82837 0.35508 0.0
C492 C 0.90462 0.85702 0.36533 0.0
C493 C 0.91247 0.87395 0.35923 0.0
C494 C 0.9286 0.87472 0.34799 0.0
C495 C 0.93576 0.89072 0.34193 0.0
C496 C 0.92697 0.90605 0.34717 0.0
C497 C 0.91102 0.90541 0.35856 0.0
C498 C 0.90379 0.88945 0.36463 0.0
C499 C 0.8918 0.81754 0.45461 0.0
C500 C 0.88246 0.83002 0.4671 0.0
C501 C 0.89539 0.8201 0.43126 0.0
C502 C 0.88936 0.835 0.4199 0.0
C503 C 0.88003 0.84747 0.43243 0.0
C504 C 0.87667 0.84503 0.45583 0.0
C505 C 0.89306 0.83784 0.39509 0.0
C506 C 0.90053 0.85365 0.3884 0.0
C507 C 0.88953 0.8251 0.37814 0.0
C508 C 0.88041 0.80872 0.38372 0.0
C509 C 0.86417 0.80902 0.39474 0.0
C510 C 0.85565 0.79354 0.40003 0.0
C511 C 0.86319 0.77767 0.39423 0.0
C512 C 0.87923 0.77724 0.38306 0.0
C513 C 0.88781 0.79269 0.37775 0.0
H514 H 0.85657 0.7657 0.39833 0.0
H515 H 0.93253 0.91842 0.34246 0.0
H516 H 0.44755 0.63423 0.69782 0.0
H517 H 0.44149 0.64419 0.65868 0.0
H518 H 0.39135 0.66276 0.68073 0.0
H519 H 0.39707 0.65206 0.71962 0.0
H520 H 0.38761 0.64603 0.64321 0.0
H521 H 0.4268 0.69047 0.66737 0.0
H522 H 0.45378 0.70257 0.68348 0.0
H523 H 0.48316 0.67886 0.62913 0.0
H524 H 0.45638 0.66642 0.61286 0.0
H525 H 0.36778 0.69328 0.54277 0.0
H526 H 0.3773 0.68824 0.58238 0.0
H527 H 0.42014 0.65757 0.55753 0.0
H528 H 0.41059 0.6624 0.51774 0.0
H529 H 0.42793 0.68129 0.59591 0.0
H530 H 0.38768 0.63632 0.57313 0.0
H531 H 0.36008 0.62566 0.55708 0.0
H532 H 0.33194 0.65252 0.61 0.0
H533 H 0.35939 0.66357 0.62615 0.0
C534 C 0.43531 0.64058 0.69432 0.0
C535 C 0.42276 0.64237 0.71167 0.0
C536 C 0.43189 0.64636 0.67198 0.0
C537 C 0.41605 0.65444 0.66678 0.0
C538 C 0.40366 0.65655 0.6843 0.0
C539 C 0.40694 0.65047 0.70651 0.0
C540 C 0.41194 0.6598 0.64284 0.0
C541 C 0.39634 0.65399 0.63308 0.0
C542 C 0.42347 0.66987 0.62933 0.0
C543 C 0.4396 0.67739 0.63902 0.0
C544 C 0.43903 0.68773 0.65895 0.0
C545 C 0.45428 0.69467 0.6681 0.0
C546 C 0.47018 0.69145 0.65737 0.0
C547 C 0.47084 0.68133 0.63744 0.0
C548 C 0.45563 0.67435 0.62823 0.0
C549 C 0.37937 0.68567 0.5457 0.0
C550 C 0.38838 0.6781 0.52722 0.0
C551 C 0.38478 0.68281 0.56831 0.0
C552 C 0.39932 0.67245 0.57277 0.0
C553 C 0.40888 0.66562 0.55434 0.0
C554 C 0.40338 0.66833 0.53169 0.0
C555 C 0.40365 0.66762 0.59668 0.0
C556 C 0.41926 0.67344 0.60627 0.0
C557 C 0.39206 0.65775 0.61019 0.0
C558 C 0.37557 0.65091 0.6007 0.0
C559 C 0.3756 0.64007 0.58123 0.0
C560 C 0.35999 0.63394 0.57213 0.0
C561 C 0.34426 0.63845 0.58247 0.0
C562 C 0.34413 0.64906 0.60199 0.0
C563 C 0.35971 0.65525 0.61112 0.0
H564 H 0.33219 0.6337 0.5754 0.0
H565 H 0.48197 0.69683 0.66448 0.0
H566 H 0.59775 0.16106 0.77568 0.0
H567 H 0.60141 0.17175 0.815 0.0
H568 H 0.55726 0.14157 0.83686 0.0
H569 H 0.55301 0.13162 0.79722 0.0
H570 H 0.55715 0.17011 0.85956 0.0
H571 H 0.60026 0.12739 0.84416 0.0
H572 H 0.62416 0.11322 0.82315 0.0
H573 H 0.65633 0.1579 0.83379 0.0
H574 H 0.63251 0.17243 0.85461 0.0
H575 H 0.58898 0.15896 0.97711 0.0
H576 H 0.5793 0.15436 0.9373 0.0
H577 H 0.60894 0.19873 0.91538 0.0
H578 H 0.61831 0.20369 0.95514 0.0
H579 H 0.61584 0.1636 0.89344 0.0
H580 H 0.57056 0.20488 0.91179 0.0
H581 H 0.54611 0.21588 0.93492 0.0
H582 H 0.5175 0.16928 0.9214 0.0
H583 H 0.5419 0.15788 0.89846 0.0
C584 C 0.58873 0.15689 0.78885 0.0
C585 C 0.57521 0.14541 0.78354 0.0
C586 C 0.59087 0.16292 0.81133 0.0
C587 C 0.57989 0.15711 0.82904 0.0
C588 C 0.56594 0.14618 0.82354 0.0
C589 C 0.56354 0.14047 0.80091 0.0
C590 C 0.58345 0.16181 0.85339 0.0
C591 C 0.56995 0.16853 0.86698 0.0
C592 C 0.60016 0.15977 0.86319 0.0
C593 C 0.61454 0.15106 0.85073 0.0
C594 C 0.61239 0.13424 0.84187 0.0
C595 C 0.62592 0.12614 0.83002 0.0
C596 C 0.64174 0.13467 0.82709 0.0
C597 C 0.64406 0.15131 0.83605 0.0
C598 C 0.63055 0.15948 0.84789 0.0
C599 C 0.59313 0.16792 0.96386 0.0
C600 C 0.60441 0.18165 0.96913 0.0
C601 C 0.58758 0.1653 0.94121 0.0
C602 C 0.59344 0.17623 0.92356 0.0
C603 C 0.60427 0.19023 0.92888 0.0
C604 C 0.60956 0.19306 0.95156 0.0
C605 C 0.58963 0.17205 0.89929 0.0
C606 C 0.60309 0.16528 0.88584 0.0
C607 C 0.57282 0.17358 0.88991 0.0
C608 C 0.55813 0.18045 0.90362 0.0
C609 C 0.55913 0.1969 0.91394 0.0
C610 C 0.54526 0.20323 0.92697 0.0
C611 C 0.53028 0.19327 0.92969 0.0
C612 C 0.52912 0.17697 0.91931 0.0
C613 C 0.54296 0.17058 0.90628 0.0
H614 H 0.51956 0.19819 0.93978 0.0
H615 H 0.6522 0.12838 0.81791 0.0
H616 H 0.10664 0.61314 0.28611 0.0
H617 H 0.10865 0.61972 0.32723 0.0
H618 H 0.06737 0.65708 0.32046 0.0
H619 H 0.06523 0.65052 0.27922 0.0
H620 H 0.09642 0.66915 0.34548 0.0
H621 H 0.05811 0.61981 0.34427 0.0
H622 H 0.04972 0.59017 0.33305 0.0
H623 H 0.09445 0.56977 0.36771 0.0
H624 H 0.10322 0.59933 0.37891 0.0
H625 H 0.08845 0.68311 0.4654 0.0
H626 H 0.08122 0.67626 0.42535 0.0
H627 H 0.11504 0.63174 0.428 0.0
H628 H 0.12177 0.63815 0.46819 0.0
H629 H 0.08753 0.62371 0.4048 0.0
H630 H 0.12767 0.67111 0.4036 0.0
H631 H 0.13877 0.70015 0.41337 0.0
H632 H 0.09406 0.7235 0.38209 0.0
H633 H 0.08258 0.69457 0.3724 0.0
C634 C 0.09799 0.62276 0.29337 0.0
C635 C 0.08576 0.63131 0.27951 0.0
C636 C 0.09911 0.62645 0.31685 0.0
C637 C 0.08805 0.63877 0.32684 0.0
C638 C 0.07597 0.6475 0.31301 0.0
C639 C 0.07475 0.64371 0.28953 0.0
C640 C 0.08927 0.64262 0.35173 0.0
C641 C 0.09418 0.65933 0.35853 0.0
C642 C 0.08684 0.62962 0.36858 0.0
C643 C 0.08138 0.6118 0.3623 0.0
C644 C 0.0662 0.60901 0.3494 0.0
C645 C 0.06137 0.59222 0.34306 0.0
C646 C 0.07156 0.5781 0.34963 0.0
C647 C 0.08657 0.58073 0.36264 0.0
C648 C 0.09146 0.59749 0.36902 0.0
C649 C 0.09419 0.67178 0.45746 0.0
C650 C 0.10573 0.66121 0.46982 0.0
C651 C 0.09013 0.66792 0.43457 0.0
C652 C 0.09784 0.65366 0.42353 0.0
C653 C 0.10895 0.64282 0.43612 0.0
C654 C 0.11282 0.64652 0.45908 0.0
C655 C 0.09482 0.65028 0.39868 0.0
C656 C 0.0896 0.63363 0.39185 0.0
C657 C 0.0973 0.66326 0.38174 0.0
C658 C 0.10418 0.68068 0.38752 0.0
C659 C 0.12014 0.68244 0.39896 0.0
C660 C 0.12651 0.69888 0.40446 0.0
C661 C 0.1171 0.71366 0.39842 0.0
C662 C 0.10132 0.71204 0.3868 0.0
C663 C 0.09488 0.69562 0.38129 0.0
H664 H 0.12206 0.72638 0.40268 0.0
H665 H 0.06782 0.56511 0.34466 0.0
H666 H 0.61691 0.86289 0.53437 0.0
H667 H 0.60995 0.86819 0.57479 0.0
H668 H 0.59319 0.81518 0.58222 0.0
H669 H 0.60003 0.80978 0.54157 0.0
H670 H 0.57116 0.83876 0.60401 0.0
H671 H 0.63189 0.82568 0.60128 0.0
H672 H 0.66189 0.82858 0.58712 0.0
H673 H 0.66274 0.88183 0.60847 0.0
H674 H 0.63264 0.87933 0.62246 0.0
H675 H 0.57303 0.84189 0.72762 0.0
H676 H 0.57659 0.83398 0.68701 0.0
H677 H 0.59945 0.88397 0.67335 0.0
H678 H 0.59636 0.89172 0.71389 0.0
H679 H 0.61841 0.85946 0.65503 0.0
H680 H 0.55749 0.87319 0.65626 0.0
H681 H 0.52727 0.87078 0.66976 0.0
H682 H 0.52654 0.81697 0.65108 0.0
H683 H 0.55684 0.81899 0.63773 0.0
C684 C 0.61166 0.85238 0.54455 0.0
C685 C 0.60913 0.83589 0.53488 0.0
C686 C 0.60772 0.85541 0.56764 0.0
C687 C 0.60126 0.84201 0.58152 0.0
C688 C 0.5982 0.82566 0.57177 0.0
C689 C 0.60217 0.8226 0.54861 0.0
C690 C 0.59829 0.84502 0.60638 0.0
C691 C 0.58151 0.84305 0.6153 0.0
C692 C 0.61178 0.85086 0.62093 0.0
C693 C 0.62996 0.85235 0.61275 0.0
C694 C 0.63843 0.83805 0.60281 0.0
C695 C 0.65546 0.83961 0.59484 0.0
C696 C 0.6642 0.85538 0.59685 0.0
C697 C 0.65595 0.86962 0.60691 0.0
C698 C 0.63891 0.86813 0.61488 0.0
C699 C 0.57869 0.85121 0.71588 0.0
C700 C 0.58447 0.86739 0.72388 0.0
C701 C 0.58066 0.84671 0.69268 0.0
C702 C 0.5882 0.85843 0.6771 0.0
C703 C 0.59366 0.8747 0.68506 0.0
C704 C 0.59184 0.87912 0.70822 0.0
C705 C 0.59115 0.8536 0.65268 0.0
C706 C 0.60802 0.85513 0.64383 0.0
C707 C 0.57771 0.84743 0.63824 0.0
C708 C 0.55949 0.8462 0.64623 0.0
C709 C 0.55093 0.8608 0.65521 0.0
C710 C 0.53378 0.85952 0.66279 0.0
C711 C 0.52501 0.84372 0.66134 0.0
C712 C 0.53336 0.82919 0.65223 0.0
C713 C 0.55052 0.8304 0.64463 0.0
H714 H 0.51173 0.84275 0.66722 0.0
H715 H 0.67738 0.85657 0.59066 0.0
H716 H 0.40609 0.31062 0.96863 0.0
H717 H 0.41383 0.31481 0.92799 0.0
H718 H 0.37473 0.35448 0.922 0.0
H719 H 0.3672 0.35069 0.9627 0.0
H720 H 0.37473 0.3259 0.88697 0.0
H721 H 0.41189 0.36851 0.92408 0.0
H722 H 0.43432 0.37761 0.95181 0.0
H723 H 0.47062 0.34238 0.92096 0.0
H724 H 0.4483 0.33288 0.89325 0.0
H725 H 0.38897 0.36789 0.78192 0.0
H726 H 0.38402 0.35944 0.8218 0.0
H727 H 0.43411 0.33454 0.82365 0.0
H728 H 0.43943 0.34364 0.7838 0.0
H729 H 0.43003 0.35224 0.86095 0.0
H730 H 0.39536 0.31091 0.82203 0.0
H731 H 0.37376 0.29992 0.79437 0.0
H732 H 0.33386 0.32919 0.82823 0.0
H733 H 0.35527 0.34057 0.85591 0.0
C734 C 0.39924 0.32031 0.95866 0.0
C735 C 0.38608 0.33036 0.96874 0.0
C736 C 0.40367 0.32268 0.93553 0.0
C737 C 0.3948 0.33491 0.92214 0.0
C738 C 0.38167 0.34496 0.93216 0.0
C739 C 0.37746 0.34284 0.95537 0.0
C740 C 0.39898 0.3371 0.89752 0.0
C741 C 0.38673 0.33178 0.88117 0.0
C742 C 0.41496 0.34409 0.89017 0.0
C743 C 0.42837 0.34983 0.90679 0.0
C744 C 0.4246 0.36257 0.92337 0.0
C745 C 0.4373 0.36783 0.93904 0.0
C746 C 0.45387 0.36053 0.9382 0.0
C747 C 0.45778 0.34799 0.92163 0.0
C748 C 0.44511 0.34268 0.90592 0.0
C749 C 0.39887 0.36048 0.79074 0.0
C750 C 0.41456 0.35636 0.77977 0.0
C751 C 0.39599 0.35557 0.81352 0.0
C752 C 0.40856 0.34608 0.82564 0.0
C753 C 0.42421 0.3418 0.81462 0.0
C754 C 0.4272 0.34695 0.79187 0.0
C755 C 0.40558 0.34139 0.85011 0.0
C756 C 0.41807 0.34616 0.86653 0.0
C757 C 0.38994 0.33356 0.85751 0.0
C758 C 0.37696 0.3267 0.84095 0.0
C759 C 0.382 0.31511 0.82349 0.0
C760 C 0.36979 0.30879 0.80781 0.0
C761 C 0.35245 0.31388 0.80952 0.0
C762 C 0.34729 0.32527 0.82693 0.0
C763 C 0.35946 0.33164 0.84263 0.0
H764 H 0.34302 0.30897 0.79737 0.0
H765 H 0.46369 0.36463 0.95035 0.0
H766 H 0.86185 0.1828 0.04035 0.0
H767 H 0.86965 0.17946 0.08094 0.0
H768 H 0.91796 0.1555 0.06113 0.0
H769 H 0.91006 0.15846 0.02056 0.0
H770 H 0.90234 0.13679 0.09269 0.0
H771 H 0.91645 0.19671 0.08407 0.0
H772 H 0.91158 0.22727 0.07354 0.0
H773 H 0.86975 0.23041 0.12218 0.0
H774 H 0.87421 0.19978 0.13278 0.0
H775 H 0.94116 0.13667 0.20322 0.0
H776 H 0.93545 0.14552 0.16344 0.0
H777 H 0.88282 0.15844 0.18165 0.0
H778 H 0.88833 0.14932 0.22146 0.0
H779 H 0.90114 0.18345 0.1515 0.0
H780 H 0.88676 0.12281 0.15842 0.0
H781 H 0.89254 0.09247 0.16926 0.0
H782 H 0.9362 0.09122 0.12339 0.0
H783 H 0.93084 0.12168 0.11257 0.0
C784 C 0.87422 0.17701 0.04467 0.0
C785 C 0.88533 0.17084 0.02733 0.0
C786 C 0.8787 0.17517 0.06786 0.0
C787 C 0.89445 0.16733 0.07407 0.0
C788 C 0.90574 0.16156 0.05673 0.0
C789 C 0.90123 0.1633 0.03356 0.0
C790 C 0.89868 0.16413 0.09862 0.0
C791 C 0.90235 0.14707 0.10543 0.0
C792 C 0.89829 0.17746 0.11538 0.0
C793 C 0.89556 0.19589 0.10905 0.0
C794 C 0.90611 0.20387 0.09238 0.0
C795 C 0.90345 0.22121 0.08643 0.0
C796 C 0.89033 0.23076 0.09714 0.0
C797 C 0.87989 0.22299 0.11387 0.0
C798 C 0.88249 0.20564 0.11988 0.0
C799 C 0.92843 0.14157 0.19881 0.0
C800 C 0.91514 0.14221 0.21534 0.0
C801 C 0.9252 0.14661 0.17612 0.0
C802 C 0.90872 0.15256 0.16972 0.0
C803 C 0.89563 0.15391 0.18637 0.0
C804 C 0.89877 0.14862 0.20901 0.0
C805 C 0.90486 0.15622 0.1453 0.0
C806 C 0.9012 0.17328 0.1386 0.0
C807 C 0.90536 0.14294 0.12857 0.0
C808 C 0.90852 0.12458 0.13489 0.0
C809 C 0.89769 0.11612 0.15081 0.0
C810 C 0.90087 0.09889 0.15692 0.0
C811 C 0.91476 0.08994 0.14707 0.0
C812 C 0.92547 0.09818 0.13104 0.0
C813 C 0.92236 0.11543 0.1249 0.0
H814 H 0.91721 0.0766 0.15182 0.0
H815 H 0.88829 0.24419 0.09251 0.0
H816 H 0.94218 0.6322 0.80088 0.0
H817 H 0.93388 0.64083 0.8399 0.0
H818 H 0.88705 0.66402 0.81354 0.0
H819 H 0.89516 0.65524 0.77439 0.0
H820 H 0.90526 0.68351 0.85034 0.0
H821 H 0.88193 0.62708 0.83251 0.0
H822 H 0.88387 0.59702 0.81836 0.0
H823 H 0.92122 0.58514 0.87087 0.0
H824 H 0.91972 0.61524 0.88509 0.0
H825 H 0.86083 0.68503 0.95866 0.0
H826 H 0.86846 0.68172 0.9179 0.0
H827 H 0.90974 0.64666 0.9366 0.0
H828 H 0.90181 0.64947 0.97709 0.0
H829 H 0.89269 0.63393 0.90216 0.0
H830 H 0.91698 0.68977 0.91995 0.0
H831 H 0.91654 0.71997 0.93381 0.0
H832 H 0.87906 0.73319 0.88203 0.0
H833 H 0.87911 0.70299 0.86806 0.0
C834 C 0.93027 0.63941 0.80332 0.0
C835 C 0.91923 0.64293 0.78467 0.0
C836 C 0.92555 0.64431 0.82559 0.0
C837 C 0.90981 0.65291 0.8295 0.0
C838 C 0.89925 0.65738 0.81077 0.0
C839 C 0.90387 0.65231 0.7885 0.0
C840 C 0.90372 0.65577 0.8533 0.0
C841 C 0.90228 0.67274 0.86167 0.0
C842 C 0.90012 0.64164 0.868 0.0
C843 C 0.90084 0.62346 0.85972 0.0
C844 C 0.89066 0.6181 0.84092 0.0
C845 C 0.89167 0.60105 0.83291 0.0
C846 C 0.90269 0.58919 0.84368 0.0
C847 C 0.9127 0.59435 0.86253 0.0
C848 C 0.91177 0.6114 0.87058 0.0
C849 C 0.87155 0.67667 0.95401 0.0
C850 C 0.88073 0.6675 0.97098 0.0
C851 C 0.87595 0.67485 0.93076 0.0
C852 C 0.88979 0.66407 0.9242 0.0
C853 C 0.89899 0.65501 0.94122 0.0
C854 C 0.89447 0.65665 0.96436 0.0
C855 C 0.89451 0.66175 0.89962 0.0
C856 C 0.89561 0.6448 0.89097 0.0
C857 C 0.89793 0.67593 0.88478 0.0
C858 C 0.89791 0.69408 0.89313 0.0
C859 C 0.90854 0.69909 0.91164 0.0
C860 C 0.90838 0.71621 0.91949 0.0
C861 C 0.89774 0.72848 0.90885 0.0
C862 C 0.88727 0.72366 0.89029 0.0
C863 C 0.88737 0.70655 0.88238 0.0
H864 H 0.89764 0.74173 0.91496 0.0
H865 H 0.90346 0.576 0.83744 0.0
H866 H 0.1415 0.15192 0.53831 0.0
H867 H 0.13471 0.14845 0.57914 0.0
H868 H 0.08561 0.17412 0.56874 0.0
H869 H 0.09265 0.17819 0.52793 0.0
H870 H 0.09936 0.18442 0.60778 0.0
H871 H 0.08893 0.12928 0.57259 0.0
H872 H 0.09587 0.1035 0.54925 0.0
H873 H 0.13779 0.09098 0.59497 0.0
H874 H 0.13125 0.11683 0.61842 0.0
H875 H 0.05894 0.15142 0.71004 0.0
H876 H 0.06659 0.15847 0.67016 0.0
H877 H 0.11822 0.13874 0.68136 0.0
H878 H 0.1107 0.13169 0.7212 0.0
H879 H 0.10277 0.12565 0.64211 0.0
H880 H 0.11219 0.18116 0.67769 0.0
H881 H 0.10413 0.20665 0.70095 0.0
H882 H 0.06242 0.21792 0.65433 0.0
H883 H 0.07009 0.19235 0.63095 0.0
C884 C 0.12928 0.15687 0.54475 0.0
C885 C 0.11751 0.16518 0.52996 0.0
C886 C 0.12538 0.15483 0.56806 0.0
C887 C 0.10949 0.1607 0.57691 0.0
C888 C 0.09792 0.16942 0.56227 0.0
C889 C 0.10193 0.1717 0.53897 0.0
C890 C 0.10484 0.15747 0.60134 0.0
C891 C 0.09988 0.17153 0.61521 0.0
C892 C 0.10578 0.14069 0.61114 0.0
C893 C 0.1097 0.12508 0.59714 0.0
C894 C 0.09971 0.12109 0.57758 0.0
C895 C 0.10356 0.10646 0.56434 0.0
C896 C 0.11729 0.09563 0.57059 0.0
C897 C 0.12717 0.09939 0.59013 0.0
C898 C 0.12339 0.11403 0.60341 0.0
C899 C 0.07196 0.14872 0.70404 0.0
C900 C 0.08423 0.141 0.71869 0.0
C901 C 0.07632 0.1528 0.68131 0.0
C902 C 0.09299 0.14919 0.67289 0.0
C903 C 0.10529 0.14163 0.68757 0.0
C904 C 0.10099 0.13766 0.71031 0.0
C905 C 0.09741 0.15259 0.64851 0.0
C906 C 0.10227 0.13853 0.63466 0.0
C907 C 0.0962 0.16932 0.63871 0.0
C908 C 0.09161 0.18474 0.6527 0.0
C909 C 0.10121 0.18899 0.6725 0.0
C910 C 0.09673 0.20347 0.68569 0.0
C911 C 0.08274 0.21387 0.67916 0.0
C912 C 0.07324 0.20984 0.65939 0.0
C913 C 0.07765 0.19536 0.64615 0.0
H914 H 0.0793 0.22508 0.68939 0.0
H915 H 0.12025 0.08431 0.56032 0.0
H916 H 0.60711 0.30252 0.46121 0.0
H917 H 0.59851 0.3076 0.42117 0.0
H918 H 0.60248 0.36276 0.43193 0.0
H919 H 0.61092 0.3578 0.47197 0.0
H920 H 0.57339 0.35447 0.40841 0.0
H921 H 0.63414 0.34154 0.40427 0.0
H922 H 0.66058 0.32433 0.4111 0.0
H923 H 0.63893 0.28196 0.37278 0.0
H924 H 0.61225 0.29885 0.36597 0.0
H925 H 0.58372 0.38723 0.29562 0.0
H926 H 0.58755 0.37831 0.33565 0.0
H927 H 0.57792 0.32516 0.31659 0.0
H928 H 0.57395 0.33405 0.27631 0.0
H929 H 0.60782 0.32997 0.34394 0.0
H930 H 0.54769 0.34537 0.34523 0.0
H931 H 0.52235 0.36407 0.33804 0.0
H932 H 0.54408 0.40347 0.38152 0.0
H933 H 0.56968 0.38511 0.38871 0.0
C934 C 0.60611 0.31573 0.45503 0.0
C935 C 0.60973 0.32977 0.46966 0.0
C936 C 0.60125 0.3186 0.43216 0.0
C937 C 0.59999 0.33555 0.42356 0.0
C938 C 0.60335 0.34958 0.43825 0.0
C939 C 0.60824 0.34672 0.46108 0.0
C940 C 0.59538 0.33873 0.39917 0.0
C941 C 0.58098 0.34921 0.39431 0.0
C942 C 0.60509 0.33156 0.38081 0.0
C943 C 0.62112 0.32138 0.38485 0.0
C944 C 0.63495 0.32849 0.39747 0.0
C945 C 0.65 0.31881 0.40131 0.0
C946 C 0.65141 0.30204 0.39245 0.0
C947 C 0.6378 0.29494 0.37967 0.0
C948 C 0.62272 0.30457 0.37581 0.0
C949 C 0.58228 0.37365 0.29996 0.0
C950 C 0.57852 0.36132 0.28289 0.0
C951 C 0.58442 0.36859 0.32283 0.0
C952 C 0.5829 0.35111 0.32905 0.0
C953 C 0.57909 0.33873 0.31208 0.0
C954 C 0.57677 0.34382 0.28916 0.0
C955 C 0.58594 0.34584 0.35321 0.0
C956 C 0.60008 0.335 0.35804 0.0
C957 C 0.57611 0.35285 0.37154 0.0
C958 C 0.56067 0.3639 0.36737 0.0
C959 C 0.54713 0.35807 0.35312 0.0
C960 C 0.53271 0.36861 0.34907 0.0
C961 C 0.53162 0.38496 0.35928 0.0
C962 C 0.54494 0.3908 0.37361 0.0
C963 C 0.5594 0.38033 0.3777 0.0
H964 H 0.52044 0.3931 0.35613 0.0
H965 H 0.66306 0.29456 0.39543 0.0
H966 H 0.4407 0.84349 0.21177 0.0
H967 H 0.43542 0.83359 0.1723 0.0
H968 H 0.38432 0.85634 0.17429 0.0
H969 H 0.38932 0.86577 0.21385 0.0
H970 H 0.38293 0.82643 0.15314 0.0
H971 H 0.41931 0.87698 0.14859 0.0
H972 H 0.44514 0.89473 0.15689 0.0
H973 H 0.47776 0.85591 0.12639 0.0
H974 H 0.45212 0.83782 0.11818 0.0
H975 H 0.36531 0.84418 0.03572 0.0
H976 H 0.3724 0.84648 0.07667 0.0
H977 H 0.41713 0.81384 0.06644 0.0
H978 H 0.40997 0.81126 0.02537 0.0
H979 H 0.42346 0.84524 0.09164 0.0
H980 H 0.38503 0.79652 0.09217 0.0
H981 H 0.35823 0.78053 0.08311 0.0
H982 H 0.32827 0.81811 0.12039 0.0
H983 H 0.35487 0.8345 0.12937 0.0
C984 C 0.42829 0.84622 0.20382 0.0
C985 C 0.41546 0.85548 0.2158 0.0
C986 C 0.42532 0.84063 0.18126 0.0
C987 C 0.40957 0.84445 0.17021 0.0
C988 C 0.39657 0.85324 0.18245 0.0
C989 C 0.39947 0.85867 0.20503 0.0
C990 C 0.40674 0.83991 0.14567 0.0
C991 C 0.39175 0.83063 0.13969 0.0
C992 C 0.41841 0.8451 0.12814 0.0
C993 C 0.43383 0.85596 0.13303 0.0
C994 C 0.43201 0.87217 0.14382 0.0
C995 C 0.44661 0.8823 0.14848 0.0
C996 C 0.46308 0.87643 0.14224 0.0
C997 C 0.46499 0.86043 0.13127 0.0
C998 C 0.45043 0.85023 0.1266 0.0
C999 C 0.37665 0.83748 0.04219 0.0
C1000 C 0.38712 0.82757 0.02741 0.0
C1001 C 0.38062 0.83873 0.06557 0.0
C1002 C 0.39521 0.83023 0.07452 0.0
C1003 C 0.40579 0.82043 0.0598 0.0
C1004 C 0.40167 0.81896 0.03642 0.0
C1005 C 0.39956 0.83204 0.09919 0.0
C1006 C 0.4148 0.84083 0.10515 0.0
C1007 C 0.38799 0.82664 0.11666 0.0
C1008 C 0.37195 0.81681 0.1113 0.0
C1009 C 0.37272 0.80146 0.09828 0.0
C1010 C 0.35756 0.7923 0.09319 0.0
C1011 C 0.34156 0.79829 0.10118 0.0
C1012 C 0.34068 0.81346 0.11426 0.0
C1013 C 0.3558 0.82269 0.11935 0.0
H1014 H 0.32984 0.7912 0.0972 0.0
H1015 H 0.47437 0.88429 0.14586 0.0
H1016 H 0.89288 0.36251 0.72206 0.0
H1017 H 0.88588 0.3535 0.6829 0.0
H1018 H 0.93655 0.33027 0.67618 0.0
H1019 H 0.94387 0.33996 0.71515 0.0
H1020 H 0.93033 0.34837 0.64011 0.0
H1021 H 0.89795 0.30566 0.68067 0.0
H1022 H 0.87741 0.29416 0.70939 0.0
H1023 H 0.836 0.32288 0.67802 0.0
H1024 H 0.85634 0.33475 0.64929 0.0
H1025 H 0.90713 0.3109 0.53129 0.0
H1026 H 0.91494 0.31327 0.57213 0.0
H1027 H 0.8713 0.34715 0.5835 0.0
H1028 H 0.86353 0.34501 0.54274 0.0
H1029 H 0.87511 0.32039 0.61707 0.0
H1030 H 0.909 0.36475 0.57883 0.0
H1031 H 0.92989 0.37547 0.55002 0.0
H1032 H 0.96905 0.34172 0.57741 0.0
H1033 H 0.94829 0.33062 0.6062 0.0
C1034 C 0.90244 0.35527 0.71235 0.0
C1035 C 0.91891 0.35192 0.72162 0.0
C1036 C 0.89839 0.35003 0.68999 0.0
C1037 C 0.91059 0.34097 0.67664 0.0
C1038 C 0.92692 0.33722 0.68614 0.0
C1039 C 0.93107 0.34271 0.7084 0.0
C1040 C 0.90671 0.33653 0.65229 0.0
C1041 C 0.91841 0.34191 0.63517 0.0
C1042 C 0.89103 0.32836 0.6457 0.0
C1043 C 0.87872 0.3212 0.66291 0.0
C1044 C 0.88449 0.30962 0.67998 0.0
C1045 C 0.87288 0.30302 0.69626 0.0
C1046 C 0.85542 0.30782 0.69556 0.0
C1047 C 0.84953 0.31919 0.67855 0.0
C1048 C 0.86109 0.32584 0.66224 0.0
C1049 C 0.89921 0.31884 0.54253 0.0
C1050 C 0.88479 0.32785 0.53387 0.0
C1051 C 0.90368 0.32017 0.56579 0.0
C1052 C 0.8937 0.33041 0.58073 0.0
C1053 C 0.87912 0.33917 0.57221 0.0
C1054 C 0.87478 0.33801 0.54892 0.0
C1055 C 0.89863 0.3324 0.60519 0.0
C1056 C 0.88711 0.3266 0.62221 0.0
C1057 C 0.91455 0.34 0.61172 0.0
C1058 C 0.92704 0.34671 0.59448 0.0
C1059 C 0.92202 0.3595 0.57857 0.0
C1060 C 0.93384 0.36567 0.56227 0.0
C1061 C 0.95077 0.35924 0.56183 0.0
C1062 C 0.95592 0.34667 0.57774 0.0
C1063 C 0.94414 0.34044 0.59406 0.0
H1064 H 0.95991 0.36404 0.5492 0.0
H1065 H 0.84645 0.3027 0.70818 0.0
H1066 H 0.4211 0.10921 0.2905 0.0
H1067 H 0.41516 0.11792 0.33019 0.0
H1068 H 0.41699 0.17168 0.31009 0.0
H1069 H 0.42288 0.16304 0.27016 0.0
H1070 H 0.43407 0.16443 0.35252 0.0
H1071 H 0.37932 0.15509 0.31603 0.0
H1072 H 0.35768 0.13917 0.29306 0.0
H1073 H 0.35797 0.09783 0.34255 0.0
H1074 H 0.37984 0.11339 0.36564 0.0
H1075 H 0.3907 0.19423 0.45477 0.0
H1076 H 0.3993 0.18899 0.41471 0.0
H1077 H 0.39536 0.13387 0.42591 0.0
H1078 H 0.3867 0.139 0.46581 0.0
H1079 H 0.37881 0.14401 0.38688 0.0
H1080 H 0.43439 0.15296 0.42265 0.0
H1081 H 0.45608 0.1689 0.44552 0.0
H1082 H 0.45407 0.21116 0.3975 0.0
H1083 H 0.43217 0.19556 0.3745 0.0
C1084 C 0.42043 0.12289 0.29455 0.0
C1085 C 0.42235 0.13546 0.27724 0.0
C1086 C 0.41698 0.12784 0.3172 0.0
C1087 C 0.41546 0.14542 0.32295 0.0
C1088 C 0.41809 0.15804 0.30593 0.0
C1089 C 0.42141 0.15309 0.28317 0.0
C1090 C 0.41033 0.15046 0.34656 0.0
C1091 C 0.42188 0.16021 0.35997 0.0
C1092 C 0.39453 0.14474 0.35627 0.0
C1093 C 0.38135 0.13534 0.34245 0.0
C1094 C 0.37489 0.14253 0.32191 0.0
C1095 C 0.36256 0.13359 0.30888 0.0
C1096 C 0.35649 0.11748 0.31631 0.0
C1097 C 0.36271 0.1103 0.3368 0.0
C1098 C 0.37506 0.11918 0.34988 0.0
C1099 C 0.39177 0.181 0.4487 0.0
C1100 C 0.38803 0.16701 0.46338 0.0
C1101 C 0.39673 0.17803 0.42586 0.0
C1102 C 0.39804 0.16104 0.41741 0.0
C1103 C 0.3944 0.14708 0.43211 0.0
C1104 C 0.38951 0.15003 0.4549 0.0
C1105 C 0.40268 0.1577 0.39307 0.0
C1106 C 0.39098 0.14831 0.37945 0.0
C1107 C 0.41832 0.16379 0.38322 0.0
C1108 C 0.43149 0.17318 0.397 0.0
C1109 C 0.43845 0.16572 0.41708 0.0
C1110 C 0.45081 0.17468 0.43004 0.0
C1111 C 0.45641 0.19106 0.423 0.0
C1112 C 0.4497 0.19849 0.40295 0.0
C1113 C 0.43732 0.18959 0.38994 0.0
H1114 H 0.46599 0.19797 0.43306 0.0
H1115 H 0.34694 0.11057 0.3062 0.0
H1116 H 0.60082 0.61691 0.21444 0.0
H1117 H 0.60672 0.62547 0.17479 0.0
H1118 H 0.56762 0.66533 0.17953 0.0
H1119 H 0.56119 0.65631 0.21916 0.0
H1120 H 0.56561 0.65007 0.13929 0.0
H1121 H 0.61157 0.67499 0.18271 0.0
H1122 H 0.63553 0.67589 0.21077 0.0
H1123 H 0.66398 0.63882 0.17059 0.0
H1124 H 0.64007 0.6375 0.14245 0.0
H1125 H 0.59856 0.68899 0.03487 0.0
H1126 H 0.58996 0.68465 0.07517 0.0
H1127 H 0.62087 0.63812 0.07799 0.0
H1128 H 0.62942 0.64229 0.03785 0.0
H1129 H 0.62638 0.66064 0.11505 0.0
H1130 H 0.57849 0.63475 0.07328 0.0
H1131 H 0.55444 0.63498 0.04531 0.0
H1132 H 0.52976 0.67612 0.0828 0.0
H1133 H 0.55381 0.67629 0.11083 0.0
C1134 C 0.59346 0.62749 0.20704 0.0
C1135 C 0.58063 0.63604 0.21989 0.0
C1136 C 0.59691 0.63245 0.18441 0.0
C1137 C 0.5879 0.64632 0.17435 0.0
C1138 C 0.57481 0.65466 0.187 0.0
C1139 C 0.57116 0.64953 0.20961 0.0
C1140 C 0.59217 0.65191 0.15056 0.0
C1141 C 0.57886 0.6527 0.1341 0.0
C1142 C 0.60948 0.65524 0.14371 0.0
C1143 C 0.62395 0.65605 0.16055 0.0
C1144 C 0.62288 0.66694 0.17993 0.0
C1145 C 0.63646 0.66753 0.19585 0.0
C1146 C 0.65125 0.65739 0.19249 0.0
C1147 C 0.65251 0.64666 0.17318 0.0
C1148 C 0.63895 0.646 0.15722 0.0
C1149 C 0.60346 0.67782 0.0441 0.0
C1150 C 0.61463 0.66595 0.03325 0.0
C1151 C 0.59851 0.67534 0.06704 0.0
C1152 C 0.60476 0.66104 0.07946 0.0
C1153 C 0.61594 0.64924 0.06866 0.0
C1154 C 0.62075 0.65161 0.04573 0.0
C1155 C 0.5999 0.65835 0.10384 0.0
C1156 C 0.61312 0.65819 0.12038 0.0
C1157 C 0.58252 0.65583 0.11078 0.0
C1158 C 0.56804 0.65567 0.09399 0.0
C1159 C 0.56801 0.64395 0.07545 0.0
C1160 C 0.55436 0.64399 0.0596 0.0
C1161 C 0.54061 0.6556 0.06224 0.0
C1162 C 0.54044 0.66716 0.08076 0.0
C1163 C 0.55407 0.66719 0.09663 0.0
H1164 H 0.53005 0.6556 0.04996 0.0
H1165 H 0.66175 0.65787 0.20483 0.0
H1166 H 0.10821 0.88358 0.78628 0.0
H1167 H 0.11374 0.87527 0.82613 0.0
H1168 H 0.07568 0.83451 0.82065 0.0
H1169 H 0.06967 0.84318 0.7808 0.0
H1170 H 0.07225 0.85063 0.86034 0.0
H1171 H 0.11979 0.82573 0.81961 0.0
H1172 H 0.14453 0.825 0.79274 0.0
H1173 H 0.17113 0.86298 0.8336 0.0
H1174 H 0.14643 0.86412 0.86055 0.0
H1175 H 0.10112 0.81341 0.96724 0.0
H1176 H 0.09407 0.81729 0.92636 0.0
H1177 H 0.12662 0.86269 0.92402 0.0
H1178 H 0.13374 0.85888 0.9647 0.0
H1179 H 0.13239 0.84076 0.88764 0.0
H1180 H 0.08338 0.86681 0.92661 0.0
H1181 H 0.05855 0.86698 0.95337 0.0
H1182 H 0.03481 0.82551 0.91551 0.0
H1183 H 0.05964 0.82493 0.8887 0.0
C1184 C 0.10104 0.87282 0.79353 0.0
C1185 C 0.08858 0.86395 0.78042 0.0
C1186 C 0.10428 0.86802 0.81628 0.0
C1187 C 0.09538 0.85403 0.82626 0.0
C1188 C 0.08276 0.84528 0.81327 0.0
C1189 C 0.07937 0.85021 0.79052 0.0
C1190 C 0.09911 0.84885 0.85037 0.0
C1191 C 0.08537 0.84815 0.86621 0.0
C1192 C 0.11625 0.84581 0.85812 0.0
C1193 C 0.13119 0.8451 0.84201 0.0
C1194 C 0.13086 0.83401 0.82278 0.0
C1195 C 0.14489 0.83352 0.80755 0.0
C1196 C 0.15938 0.84396 0.81144 0.0
C1197 C 0.15989 0.8549 0.8306 0.0
C1198 C 0.14589 0.85546 0.84588 0.0
C1199 C 0.10673 0.82422 0.95799 0.0
C1200 C 0.11794 0.83587 0.96914 0.0
C1201 C 0.10267 0.82644 0.93469 0.0
C1202 C 0.10976 0.84033 0.92224 0.0
C1203 C 0.12103 0.85188 0.93333 0.0
C1204 C 0.12503 0.84972 0.95659 0.0
C1205 C 0.10559 0.8429 0.89758 0.0
C1206 C 0.11926 0.84306 0.88166 0.0
C1207 C 0.0884 0.84531 0.88975 0.0
C1208 C 0.07345 0.84569 0.90581 0.0
C1209 C 0.07294 0.85762 0.92411 0.0
C1210 C 0.05885 0.85782 0.93926 0.0
C1211 C 0.04514 0.84623 0.93619 0.0
C1212 C 0.04546 0.83446 0.9179 0.0
C1213 C 0.05953 0.8342 0.90272 0.0
H1214 H 0.03424 0.8464 0.94793 0.0
H1215 H 0.17022 0.84356 0.79962 0.0
H1216 H 0.08724 0.32029 0.30342 0.0
H1217 H 0.09514 0.29612 0.32824 0.0
H1218 H 0.11119 0.33185 0.38126 0.0
H1219 H 0.1036 0.35632 0.35608 0.0
H1220 H 0.1331 0.30404 0.37826 0.0
H1221 H 0.07233 0.31293 0.38537 0.0
H1222 H 0.04231 0.31755 0.37215 0.0
H1223 H 0.04284 0.26809 0.33831 0.0
H1224 H 0.07297 0.26329 0.35099 0.0
H1225 H 0.12956 0.23244 0.45945 0.0
H1226 H 0.12483 0.26066 0.44092 0.0
H1227 H 0.11084 0.23483 0.37772 0.0
H1228 H 0.11561 0.20673 0.39597 0.0
H1229 H 0.08716 0.26016 0.39155 0.0
H1230 H 0.14925 0.25311 0.38204 0.0
H1231 H 0.17912 0.24879 0.39604 0.0
H1232 H 0.17543 0.29529 0.43636 0.0
H1233 H 0.14544 0.29976 0.42283 0.0
C1234 C 0.09259 0.32304 0.32028 0.0
C1235 C 0.09464 0.34018 0.32793 0.0
C1236 C 0.09705 0.30921 0.33448 0.0
C1237 C 0.10337 0.31219 0.35679 0.0
C1238 C 0.1062 0.32929 0.36415 0.0
C1239 C 0.10186 0.34322 0.34979 0.0
C1240 C 0.10635 0.29732 0.37243 0.0
C1241 C 0.12298 0.2946 0.38155 0.0
C1242 C 0.09314 0.28499 0.37665 0.0
C1243 C 0.07497 0.28779 0.36903 0.0
C1244 C 0.06609 0.30309 0.37497 0.0
C1245 C 0.04905 0.30573 0.36758 0.0
C1246 C 0.04068 0.29312 0.35439 0.0
C1247 C 0.04934 0.27784 0.34854 0.0
C1248 C 0.0664 0.27514 0.35584 0.0
C1249 C 0.12555 0.23282 0.44158 0.0
C1250 C 0.12293 0.21741 0.42914 0.0
C1251 C 0.12291 0.24891 0.43103 0.0
C1252 C 0.11752 0.24978 0.40796 0.0
C1253 C 0.11497 0.23441 0.39555 0.0
C1254 C 0.11774 0.21838 0.40598 0.0
C1255 C 0.11401 0.26661 0.39669 0.0
C1256 C 0.09721 0.26972 0.38851 0.0
C1257 C 0.12701 0.27932 0.39357 0.0
C1258 C 0.14503 0.27665 0.40165 0.0
C1259 C 0.15475 0.26232 0.39407 0.0
C1260 C 0.17172 0.25987 0.40188 0.0
C1261 C 0.17915 0.27173 0.41714 0.0
C1262 C 0.16965 0.2861 0.42457 0.0
C1263 C 0.15267 0.2886 0.41683 0.0
H1264 H 0.19229 0.26981 0.42316 0.0
H1265 H 0.02748 0.29516 0.34874 0.0
H1266 H 0.89371 0.84827 0.60841 0.0
H1267 H 0.91836 0.85556 0.63335 0.0
H1268 H 0.95223 0.85551 0.57421 0.0
H1269 H 0.92785 0.84819 0.54937 0.0
H1270 H 0.96411 0.83474 0.60854 0.0
H1271 H 0.94163 0.89285 0.60071 0.0
H1272 H 0.91931 0.91563 0.60344 0.0
H1273 H 0.91503 0.90694 0.67628 0.0
H1274 H 0.93718 0.88393 0.67393 0.0
H1275 H 0.04224 0.87112 0.64673 0.0
H1276 H 0.01455 0.86595 0.62759 0.0
H1277 H 0.98847 0.86666 0.69333 0.0
H1278 H 0.01628 0.87186 0.7127 0.0
H1279 H 0.97103 0.88564 0.6599 0.0
H1280 H 0.99521 0.82932 0.6684 0.0
H1281 H 0.01722 0.80624 0.66593 0.0
H1282 H 0.01778 0.8108 0.59223 0.0
H1283 H 0.99607 0.8342 0.59426 0.0
C1284 C 0.90636 0.85017 0.60072 0.0
C1285 C 0.90888 0.84758 0.57697 0.0
C1286 C 0.92042 0.85431 0.61497 0.0
C1287 C 0.93713 0.85598 0.60562 0.0
C1288 C 0.93947 0.85416 0.58179 0.0
C1289 C 0.92549 0.85004 0.5676 0.0
C1290 C 0.95249 0.85844 0.62061 0.0
C1291 C 0.96571 0.84597 0.61959 0.0
C1292 C 0.95424 0.87273 0.63568 0.0
C1293 C 0.94091 0.88653 0.6371 0.0
C1294 C 0.93581 0.89568 0.61727 0.0
C1295 C 0.92322 0.90866 0.61876 0.0
C1296 C 0.91572 0.91269 0.64001 0.0
C1297 C 0.92083 0.90378 0.65983 0.0
C1298 C 0.93341 0.89078 0.65843 0.0
C1299 C 0.03062 0.87022 0.65713 0.0
C1300 C 0.03141 0.87187 0.68121 0.0
C1301 C 0.01482 0.8672 0.64618 0.0
C1302 C 0.99949 0.86577 0.65907 0.0
C1303 C 0.00017 0.86769 0.6831 0.0
C1304 C 0.01604 0.8706 0.69412 0.0
C1305 C 0.98286 0.8622 0.64724 0.0
C1306 C 0.96938 0.87436 0.64896 0.0
C1307 C 0.98082 0.84758 0.63281 0.0
C1308 C 0.99409 0.83364 0.63151 0.0
C1309 C 0.00015 0.82555 0.65167 0.0
C1310 C 0.01255 0.81237 0.65035 0.0
C1311 C 0.01887 0.80704 0.62893 0.0
C1312 C 0.01283 0.81491 0.6088 0.0
C1313 C 0.0005 0.82815 0.61003 0.0
H1314 H 0.02846 0.79683 0.62794 0.0
H1315 H 0.90597 0.92275 0.64112 0.0
H1316 H 0.37771 0.76034 0.95667 0.0
H1317 H 0.3804 0.73242 0.93696 0.0
H1318 H 0.37883 0.75849 0.87122 0.0
H1319 H 0.37573 0.78632 0.89078 0.0
H1320 H 0.35995 0.73 0.86959 0.0
H1321 H 0.41722 0.74516 0.89603 0.0
H1322 H 0.43943 0.75302 0.92474 0.0
H1323 H 0.43018 0.70543 0.961 0.0
H1324 H 0.40773 0.69739 0.93265 0.0
H1325 H 0.41021 0.67812 0.79438 0.0
H1326 H 0.39876 0.70032 0.8203 0.0
H1327 H 0.39049 0.66166 0.87279 0.0
H1328 H 0.40156 0.63918 0.84657 0.0
H1329 H 0.41109 0.69288 0.88546 0.0
H1330 H 0.35654 0.67636 0.85353 0.0
H1331 H 0.33594 0.66915 0.82252 0.0
H1332 H 0.34177 0.72019 0.79415 0.0
H1333 H 0.36262 0.72763 0.82479 0.0
C1334 C 0.37786 0.76008 0.93801 0.0
C1335 C 0.37661 0.7755 0.92524 0.0
C1336 C 0.37943 0.74414 0.92679 0.0
C1337 C 0.38 0.74338 0.90262 0.0
C1338 C 0.37839 0.75875 0.88988 0.0
C1339 C 0.37669 0.77466 0.90107 0.0
C1340 C 0.38282 0.72673 0.89045 0.0
C1341 C 0.37115 0.72191 0.87303 0.0
C1342 C 0.39722 0.71594 0.89531 0.0
C1343 C 0.41064 0.72079 0.91242 0.0
C1344 C 0.41981 0.73644 0.91025 0.0
C1345 C 0.43246 0.74092 0.92643 0.0
C1346 C 0.43616 0.72976 0.94473 0.0
C1347 C 0.42726 0.71408 0.94685 0.0
C1348 C 0.41458 0.70956 0.93074 0.0
C1349 C 0.40574 0.67432 0.81133 0.0
C1350 C 0.40676 0.65699 0.81854 0.0
C1351 C 0.39917 0.68697 0.82606 0.0
C1352 C 0.39376 0.68256 0.84836 0.0
C1353 C 0.39455 0.66524 0.85557 0.0
C1354 C 0.4008 0.65246 0.84061 0.0
C1355 C 0.38842 0.69643 0.86437 0.0
C1356 C 0.39966 0.70076 0.88243 0.0
C1357 C 0.3738 0.7069 0.85987 0.0
C1358 C 0.36125 0.70251 0.84139 0.0
C1359 C 0.35355 0.686 0.84057 0.0
C1360 C 0.3418 0.68188 0.82308 0.0
C1361 C 0.33757 0.69419 0.80635 0.0
C1362 C 0.34506 0.71066 0.80711 0.0
C1363 C 0.35683 0.71484 0.82456 0.0
H1364 H 0.32847 0.69098 0.79283 0.0
H1365 H 0.44597 0.73324 0.95723 0.0
H1366 H 0.59911 0.13796 0.07327 0.0
H1367 H 0.57619 0.12731 0.09899 0.0
H1368 H 0.56124 0.17994 0.11412 0.0
H1369 H 0.58391 0.19063 0.08845 0.0
H1370 H 0.56238 0.15844 0.15331 0.0
H1371 H 0.53914 0.15861 0.07554 0.0
H1372 H 0.53899 0.15037 0.0345 0.0
H1373 H 0.53665 0.0966 0.05323 0.0
H1374 H 0.53704 0.10454 0.09442 0.0
H1375 H 0.47566 0.15515 0.19212 0.0
H1376 H 0.50345 0.16046 0.17318 0.0
H1377 H 0.50676 0.10641 0.1546 0.0
H1378 H 0.47871 0.10116 0.17291 0.0
H1379 H 0.51375 0.1253 0.11891 0.0
H1380 H 0.5335 0.12467 0.19649 0.0
H1381 H 0.53394 0.13235 0.23771 0.0
H1382 H 0.5435 0.18558 0.2204 0.0
H1383 H 0.54288 0.17826 0.17905 0.0
C1384 C 0.591 0.14722 0.08223 0.0
C1385 C 0.59319 0.16511 0.07877 0.0
C1386 C 0.57794 0.14114 0.09687 0.0
C1387 C 0.56702 0.15286 0.10835 0.0
C1388 C 0.56957 0.17071 0.10546 0.0
C1389 C 0.58246 0.17678 0.09069 0.0
C1390 C 0.5523 0.1467 0.12247 0.0
C1391 C 0.55168 0.15125 0.14585 0.0
C1392 C 0.53864 0.13692 0.11278 0.0
C1393 C 0.53834 0.13216 0.08804 0.0
C1394 C 0.53875 0.14503 0.0709 0.0
C1395 C 0.53859 0.14041 0.04762 0.0
C1396 C 0.53787 0.12297 0.04126 0.0
C1397 C 0.53725 0.11011 0.05818 0.0
C1398 C 0.53744 0.11466 0.0815 0.0
C1399 C 0.48242 0.14438 0.18424 0.0
C1400 C 0.47504 0.12776 0.18395 0.0
C1401 C 0.49835 0.14739 0.17352 0.0
C1402 C 0.50732 0.13379 0.16268 0.0
C1403 C 0.5001 0.1171 0.16285 0.0
C1404 C 0.48409 0.11412 0.17336 0.0
C1405 C 0.52361 0.13722 0.14986 0.0
C1406 C 0.52453 0.13222 0.12663 0.0
C1407 C 0.5376 0.14646 0.15977 0.0
C1408 C 0.53801 0.15093 0.18465 0.0
C1409 C 0.53557 0.13804 0.20146 0.0
C1410 C 0.53587 0.14232 0.22486 0.0
C1411 C 0.53871 0.15945 0.23167 0.0
C1412 C 0.5413 0.17232 0.2151 0.0
C1413 C 0.54099 0.16811 0.19168 0.0
H1414 H 0.53894 0.16274 0.24979 0.0
H1415 H 0.53774 0.11942 0.02322 0.0
H1416 H 0.10825 0.67607 0.20197 0.0
H1417 H 0.11568 0.70105 0.17818 0.0
H1418 H 0.11788 0.66828 0.11806 0.0
H1419 H 0.11064 0.64306 0.14192 0.0
H1420 H 0.14288 0.69478 0.11748 0.0
H1421 H 0.08191 0.6882 0.12861 0.0
H1422 H 0.05544 0.68369 0.15159 0.0
H1423 H 0.06429 0.7317 0.18703 0.0
H1424 H 0.09112 0.73626 0.16471 0.0
H1425 H 0.12859 0.76616 0.03983 0.0
H1426 H 0.12595 0.73833 0.05996 0.0
H1427 H 0.12215 0.76523 0.12491 0.0
H1428 H 0.12474 0.79298 0.105 0.0
H1429 H 0.09733 0.74019 0.12004 0.0
H1430 H 0.15925 0.74574 0.10983 0.0
H1431 H 0.18604 0.74958 0.08724 0.0
H1432 H 0.17476 0.70336 0.04892 0.0
H1433 H 0.14775 0.69937 0.07109 0.0
C1434 C 0.11068 0.6741 0.18378 0.0
C1435 C 0.10866 0.65767 0.17372 0.0
C1436 C 0.1149 0.68838 0.17021 0.0
C1437 C 0.11697 0.68654 0.14632 0.0
C1438 C 0.11625 0.66995 0.13647 0.0
C1439 C 0.1121 0.65558 0.1501 0.0
C1440 C 0.11813 0.70214 0.13158 0.0
C1441 C 0.13283 0.70461 0.11775 0.0
C1442 C 0.10501 0.71496 0.13206 0.0
C1443 C 0.08863 0.71249 0.14512 0.0
C1444 C 0.0783 0.69773 0.14143 0.0
C1445 C 0.06323 0.69516 0.15435 0.0
C1446 C 0.0582 0.70739 0.17079 0.0
C1447 C 0.06822 0.72223 0.17431 0.0
C1448 C 0.08337 0.72481 0.16154 0.0
C1449 C 0.1272 0.7661 0.0584 0.0
C1450 C 0.12691 0.78171 0.07087 0.0
C1451 C 0.12577 0.75022 0.06986 0.0
C1452 C 0.12398 0.74975 0.09393 0.0
C1453 C 0.12354 0.76533 0.10634 0.0
C1454 C 0.12507 0.78116 0.09494 0.0
C1455 C 0.12228 0.73307 0.10634 0.0
C1456 C 0.10736 0.73034 0.11964 0.0
C1457 C 0.13514 0.72001 0.10521 0.0
C1458 C 0.15138 0.72237 0.09193 0.0
C1459 C 0.1624 0.73648 0.09645 0.0
C1460 C 0.17764 0.73867 0.08375 0.0
C1461 C 0.18207 0.72675 0.0666 0.0
C1462 C 0.1713 0.7126 0.06217 0.0
C1463 C 0.15603 0.71036 0.07481 0.0
H1464 H 0.19388 0.72847 0.05679 0.0
H1465 H 0.04652 0.70538 0.18076 0.0
H1466 H 0.48838 0.87675 0.28319 0.0
H1467 H 0.51587 0.87512 0.3041 0.0
H1468 H 0.48882 0.88399 0.36813 0.0
H1469 H 0.46144 0.88622 0.34722 0.0
H1470 H 0.51854 0.90034 0.36901 0.0
H1471 H 0.50001 0.84271 0.34919 0.0
H1472 H 0.49091 0.81914 0.32318 0.0
H1473 H 0.53936 0.82261 0.28704 0.0
H1474 H 0.54865 0.84637 0.31266 0.0
H1475 H 0.56952 0.85435 0.45055 0.0
H1476 H 0.54748 0.86543 0.42412 0.0
H1477 H 0.58442 0.86399 0.36836 0.0
H1478 H 0.6067 0.85312 0.39489 0.0
H1479 H 0.55267 0.84627 0.35983 0.0
H1480 H 0.57216 0.9018 0.3854 0.0
H1481 H 0.58038 0.92392 0.41402 0.0
H1482 H 0.52899 0.92273 0.44237 0.0
H1483 H 0.52052 0.9004 0.41414 0.0
C1484 C 0.48835 0.87856 0.30169 0.0
C1485 C 0.47277 0.88147 0.31361 0.0
C1486 C 0.50405 0.87756 0.31363 0.0
C1487 C 0.50438 0.87911 0.33775 0.0
C1488 C 0.4889 0.88273 0.34954 0.0
C1489 C 0.47324 0.88395 0.33758 0.0
C1490 C 0.52061 0.87605 0.35089 0.0
C1491 C 0.52596 0.88848 0.36707 0.0
C1492 C 0.5305 0.86072 0.34808 0.0
C1493 C 0.52493 0.84646 0.33264 0.0
C1494 C 0.50866 0.83854 0.33557 0.0
C1495 C 0.50348 0.82513 0.32092 0.0
C1496 C 0.51452 0.81942 0.30342 0.0
C1497 C 0.5308 0.82707 0.30057 0.0
C1498 C 0.53603 0.84051 0.31514 0.0
C1499 C 0.57303 0.85665 0.43274 0.0
C1500 C 0.58979 0.85286 0.42473 0.0
C1501 C 0.56046 0.86304 0.4177 0.0
C1502 C 0.56437 0.86559 0.39434 0.0
C1503 C 0.5812 0.86217 0.38637 0.0
C1504 C 0.59389 0.85602 0.40152 0.0
C1505 C 0.55041 0.87043 0.3781 0.0
C1506 C 0.54544 0.85828 0.36142 0.0
C1507 C 0.54072 0.88585 0.38077 0.0
C1508 C 0.54574 0.89933 0.39773 0.0
C1509 C 0.56265 0.90615 0.39785 0.0
C1510 C 0.56734 0.91875 0.41399 0.0
C1511 C 0.55522 0.9247 0.43003 0.0
C1512 C 0.53836 0.9181 0.42994 0.0
C1513 C 0.5336 0.90549 0.41385 0.0
H1514 H 0.55888 0.93446 0.4425 0.0
H1515 H 0.51049 0.80903 0.2921 0.0
H1516 H 0.34887 0.21144 0.59256 0.0
H1517 H 0.34948 0.23777 0.61599 0.0
H1518 H 0.3833 0.26197 0.56625 0.0
H1519 H 0.38231 0.23591 0.54249 0.0
H1520 H 0.3755 0.25091 0.63712 0.0
H1521 H 0.37988 0.30504 0.56687 0.0
H1522 H 0.36734 0.31143 0.52874 0.0
H1523 H 0.32363 0.27901 0.5441 0.0
H1524 H 0.33577 0.27262 0.58245 0.0
H1525 H 0.42379 0.32089 0.67543 0.0
H1526 H 0.41096 0.29743 0.65318 0.0
H1527 H 0.36278 0.32567 0.64907 0.0
H1528 H 0.37577 0.34956 0.67106 0.0
H1529 H 0.37038 0.31128 0.60855 0.0
H1530 H 0.36625 0.29146 0.6855 0.0
H1531 H 0.37615 0.28525 0.72503 0.0
H1532 H 0.41369 0.2492 0.69884 0.0
H1533 H 0.40421 0.25538 0.65911 0.0
C1534 C 0.3562 0.2225 0.58646 0.0
C1535 C 0.36558 0.22163 0.56574 0.0
C1536 C 0.35655 0.23752 0.59987 0.0
C1537 C 0.36633 0.25192 0.59283 0.0
C1538 C 0.37536 0.25119 0.57184 0.0
C1539 C 0.37489 0.23623 0.55832 0.0
C1540 C 0.36844 0.26707 0.60832 0.0
C1541 C 0.3742 0.2641 0.63091 0.0
C1542 C 0.36631 0.28431 0.60048 0.0
C1543 C 0.35882 0.28826 0.57751 0.0
C1544 C 0.36755 0.29935 0.56218 0.0
C1545 C 0.36051 0.30296 0.54051 0.0
C1546 C 0.34472 0.2956 0.53398 0.0
C1547 C 0.33589 0.28466 0.54914 0.0
C1548 C 0.34286 0.28102 0.57084 0.0
C1549 C 0.41045 0.32214 0.66982 0.0
C1550 C 0.40074 0.337 0.67508 0.0
C1551 C 0.40311 0.30867 0.65719 0.0
C1552 C 0.38581 0.30966 0.64984 0.0
C1553 C 0.37612 0.32462 0.65471 0.0
C1554 C 0.38353 0.33821 0.66727 0.0
C1555 C 0.37813 0.29501 0.63687 0.0
C1556 C 0.37135 0.29808 0.61482 0.0
C1557 C 0.37887 0.27785 0.64539 0.0
C1558 C 0.38456 0.27395 0.66929 0.0
C1559 C 0.37669 0.28228 0.68815 0.0
C1560 C 0.38222 0.27876 0.7106 0.0
C1561 C 0.39555 0.26686 0.71444 0.0
C1562 C 0.40336 0.25842 0.69584 0.0
C1563 C 0.39789 0.26191 0.67335 0.0
H1564 H 0.39982 0.26415 0.73183 0.0
H1565 H 0.3393 0.2984 0.51719 0.0
H1566 H 0.00778 0.12849 0.78037 0.0
H1567 H 0.97873 0.12824 0.79733 0.0
H1568 H 0.00037 0.11253 0.8626 0.0
H1569 H 0.02939 0.11247 0.84567 0.0
H1570 H 0.97003 0.09577 0.85374 0.0
H1571 H 0.99158 0.15471 0.85192 0.0
H1572 H 0.00336 0.18079 0.83302 0.0
H1573 H 0.95837 0.18366 0.78964 0.0
H1574 H 0.94643 0.15744 0.8081 0.0
H1575 H 0.91366 0.12884 0.93873 0.0
H1576 H 0.93616 0.11904 0.91234 0.0
H1577 H 0.90734 0.13993 0.85498 0.0
H1578 H 0.88496 0.15028 0.88153 0.0
H1579 H 0.93872 0.1519 0.85452 0.0
H1580 H 0.91497 0.09526 0.86149 0.0
H1581 H 0.9034 0.06953 0.8814 0.0
H1582 H 0.95211 0.06229 0.91582 0.0
H1583 H 0.96392 0.08812 0.89638 0.0
C1584 C 0.00631 0.12484 0.79827 0.0
C1585 C 0.02085 0.12067 0.81177 0.0
C1586 C 0.98973 0.1247 0.80794 0.0
C1587 C 0.98743 0.12055 0.83129 0.0
C1588 C 0.00186 0.11575 0.84455 0.0
C1589 C 0.01843 0.11582 0.83488 0.0
C1590 C 0.97023 0.12232 0.8424 0.0
C1591 C 0.96316 0.10803 0.85402 0.0
C1592 C 0.96109 0.1382 0.8422 0.0
C1593 C 0.96822 0.15401 0.83119 0.0
C1594 C 0.98427 0.16083 0.83823 0.0
C1595 C 0.99096 0.17564 0.82762 0.0
C1596 C 0.98164 0.18384 0.81008 0.0
C1597 C 0.96559 0.17727 0.80318 0.0
C1598 C 0.95885 0.16244 0.81372 0.0
C1599 C 0.91189 0.13097 0.92045 0.0
C1600 C 0.89763 0.14044 0.9122 0.0
C1601 C 0.92474 0.12526 0.90532 0.0
C1602 C 0.92343 0.12866 0.88161 0.0
C1603 C 0.90863 0.13718 0.8732 0.0
C1604 C 0.89584 0.14303 0.88837 0.0
C1605 C 0.93848 0.12539 0.86626 0.0
C1606 C 0.94527 0.13947 0.85389 0.0
C1607 C 0.94733 0.10932 0.86588 0.0
C1608 C 0.9403 0.09371 0.87755 0.0
C1609 C 0.92319 0.08825 0.87342 0.0
C1610 C 0.91659 0.07364 0.88461 0.0
C1611 C 0.927 0.0643 0.89989 0.0
C1612 C 0.94406 0.06954 0.90398 0.0
C1613 C 0.95072 0.08415 0.89285 0.0
H1614 H 0.92187 0.05299 0.90854 0.0
H1615 H 0.98685 0.19531 0.80189 0.0
H1616 H 0.88436 0.65481 0.68402 0.0
H1617 H 0.87582 0.67881 0.65882 0.0
H1618 H 0.92857 0.68305 0.63451 0.0
H1619 H 0.93722 0.65977 0.66051 0.0
H1620 H 0.91788 0.71313 0.64382 0.0
H1621 H 0.89357 0.66606 0.60099 0.0
H1622 H 0.87591 0.6399 0.59446 0.0
H1623 H 0.82987 0.66803 0.61267 0.0
H1624 H 0.8473 0.69431 0.6196 0.0
H1625 H 0.90152 0.76845 0.54871 0.0
H1626 H 0.90709 0.74148 0.56967 0.0
H1627 H 0.86019 0.74885 0.60888 0.0
H1628 H 0.85466 0.77603 0.58827 0.0
H1629 H 0.86714 0.71309 0.59132 0.0
H1630 H 0.8932 0.76019 0.63438 0.0
H1631 H 0.91176 0.78603 0.63833 0.0
H1632 H 0.95599 0.75653 0.61642 0.0
H1633 H 0.93762 0.73058 0.61197 0.0
C1634 C 0.89404 0.66079 0.67309 0.0
C1635 C 0.91144 0.65553 0.67421 0.0
C1636 C 0.88916 0.67444 0.65861 0.0
C1637 C 0.90152 0.68268 0.64456 0.0
C1638 C 0.9188 0.67699 0.64523 0.0
C1639 C 0.92373 0.66365 0.66004 0.0
C1640 C 0.89679 0.69789 0.63017 0.0
C1641 C 0.90693 0.71294 0.6321 0.0
C1642 C 0.88228 0.69789 0.61518 0.0
C1643 C 0.87177 0.68211 0.61104 0.0
C1644 C 0.8797 0.66663 0.60378 0.0
C1645 C 0.86973 0.65179 0.59997 0.0
C1646 C 0.85179 0.65229 0.60321 0.0
C1647 C 0.84378 0.66765 0.6102 0.0
C1648 C 0.85369 0.68253 0.61405 0.0
C1649 C 0.8923 0.76423 0.56162 0.0
C1650 C 0.87772 0.77435 0.567 0.0
C1651 C 0.8955 0.74885 0.57355 0.0
C1652 C 0.88406 0.74328 0.5908 0.0
C1653 C 0.86911 0.75298 0.59555 0.0
C1654 C 0.86604 0.7685 0.58387 0.0
C1655 C 0.88835 0.72798 0.60494 0.0
C1656 C 0.8781 0.71306 0.60302 0.0
C1657 C 0.90291 0.72795 0.61967 0.0
C1658 C 0.914 0.7435 0.62261 0.0
C1659 C 0.90685 0.75926 0.63021 0.0
C1660 C 0.91734 0.77391 0.63258 0.0
C1661 C 0.93503 0.77294 0.62757 0.0
C1662 C 0.94228 0.75728 0.62026 0.0
C1663 C 0.93184 0.74259 0.61783 0.0
H1664 H 0.94313 0.7843 0.62941 0.0
H1665 H 0.84409 0.64078 0.60025 0.0
H1666 H 0.95849 0.11546 0.34896 0.0
H1667 H 0.98537 0.11732 0.37107 0.0
H1668 H 0.01422 0.12557 0.30838 0.0
H1669 H 0.98723 0.12397 0.28605 0.0
H1670 H 0.02989 0.10138 0.34099 0.0
H1671 H 0.00712 0.1591 0.33698 0.0
H1672 H 0.98561 0.18257 0.34062 0.0
H1673 H 0.98005 0.17159 0.41275 0.0
H1674 H 0.00139 0.14788 0.40948 0.0
H1675 H 0.10575 0.13925 0.39248 0.0
H1676 H 0.08094 0.1302 0.36914 0.0
H1677 H 0.0486 0.1302 0.4298 0.0
H1678 H 0.07323 0.13954 0.45309 0.0
H1679 H 0.03503 0.14967 0.39696 0.0
H1680 H 0.05896 0.0925 0.40131 0.0
H1681 H 0.08159 0.0701 0.39773 0.0
H1682 H 0.08556 0.08022 0.32519 0.0
H1683 H 0.06312 0.10287 0.32838 0.0
C1684 C 0.97057 0.11752 0.33984 0.0
C1685 C 0.97078 0.11965 0.3158 0.0
C1686 C 0.98589 0.1186 0.35249 0.0
C1687 C 0.00171 0.12166 0.34133 0.0
C1688 C 0.0021 0.12318 0.31725 0.0
C1689 C 0.9867 0.12233 0.30457 0.0
C1690 C 0.01765 0.1241 0.35507 0.0
C1691 C 0.03117 0.11203 0.35306 0.0
C1692 C 0.01907 0.13782 0.37107 0.0
C1693 C 0.00573 0.15161 0.37293 0.0
C1694 C 0.00115 0.16154 0.35355 0.0
C1695 C 0.98904 0.17493 0.35557 0.0
C1696 C 0.98152 0.1786 0.37691 0.0
C1697 C 0.98594 0.16876 0.39624 0.0
C1698 C 0.99804 0.15535 0.39432 0.0
C1699 C 0.09344 0.13693 0.4009 0.0
C1700 C 0.09137 0.14023 0.42455 0.0
C1701 C 0.07929 0.13171 0.38756 0.0
C1702 C 0.0629 0.12955 0.39772 0.0
C1703 C 0.0611 0.13187 0.42159 0.0
C1704 C 0.07519 0.13716 0.43488 0.0
C1705 C 0.0473 0.12678 0.38329 0.0
C1706 C 0.0338 0.13891 0.38505 0.0
C1707 C 0.04597 0.11312 0.36712 0.0
C1708 C 0.05948 0.09951 0.36514 0.0
C1709 C 0.06477 0.09006 0.38463 0.0
C1710 C 0.07754 0.07729 0.38266 0.0
C1711 C 0.08504 0.07377 0.36126 0.0
C1712 C 0.07975 0.08298 0.34176 0.0
C1713 C 0.067 0.09577 0.34364 0.0
H1714 H 0.09492 0.06387 0.35977 0.0
H1715 H 0.9723 0.1891 0.37849 0.0
H1716 H 0.63013 0.24741 0.04109 0.0
H1717 H 0.63123 0.27336 0.06519 0.0
H1718 H 0.65386 0.24355 0.12038 0.0
H1719 H 0.65288 0.21753 0.09631 0.0
H1720 H 0.62401 0.26074 0.13283 0.0
H1721 H 0.67752 0.27419 0.09576 0.0
H1722 H 0.69725 0.27855 0.06287 0.0
H1723 H 0.66513 0.31996 0.03803 0.0
H1724 H 0.64504 0.31568 0.07059 0.0
H1725 H 0.62014 0.3317 0.20696 0.0
H1726 H 0.63419 0.30899 0.1843 0.0
H1727 H 0.61754 0.33399 0.1216 0.0
H1728 H 0.60397 0.35706 0.14419 0.0
H1729 H 0.64839 0.31874 0.11525 0.0
H1730 H 0.59294 0.30253 0.14682 0.0
H1731 H 0.57148 0.29804 0.17775 0.0
H1732 H 0.60547 0.26151 0.21051 0.0
H1733 H 0.62725 0.26598 0.17991 0.0
C1734 C 0.63567 0.24646 0.05818 0.0
C1735 C 0.6413 0.23044 0.0669 0.0
C1736 C 0.63638 0.26131 0.07188 0.0
C1737 C 0.64267 0.26037 0.09453 0.0
C1738 C 0.64901 0.24454 0.10291 0.0
C1739 C 0.64845 0.2297 0.08915 0.0
C1740 C 0.64063 0.27534 0.11021 0.0
C1741 C 0.6297 0.27333 0.12932 0.0
C1742 C 0.6476 0.29185 0.10513 0.0
C1743 C 0.6597 0.29452 0.08556 0.0
C1744 C 0.67458 0.28413 0.08319 0.0
C1745 C 0.68585 0.28661 0.06462 0.0
C1746 C 0.68243 0.2995 0.04835 0.0
C1747 C 0.66776 0.30997 0.05065 0.0
C1748 C 0.65644 0.30754 0.06918 0.0
C1749 C 0.61982 0.33255 0.18833 0.0
C1750 C 0.61077 0.34599 0.1773 0.0
C1751 C 0.62782 0.31956 0.17541 0.0
C1752 C 0.62656 0.31959 0.15128 0.0
C1753 C 0.61862 0.33368 0.1402 0.0
C1754 C 0.61082 0.34682 0.15313 0.0
C1755 C 0.63171 0.30411 0.13777 0.0
C1756 C 0.64304 0.30606 0.11902 0.0
C1757 C 0.6249 0.28752 0.1429 0.0
C1758 C 0.6118 0.28475 0.16125 0.0
C1759 C 0.59589 0.29364 0.16072 0.0
C1760 C 0.58366 0.29109 0.17817 0.0
C1761 C 0.58714 0.27954 0.19613 0.0
C1762 C 0.60282 0.27048 0.19662 0.0
C1763 C 0.61511 0.27302 0.17923 0.0
H1764 H 0.57766 0.27758 0.20962 0.0
H1765 H 0.69118 0.3014 0.03398 0.0
H1766 H 0.43029 0.84946 0.94717 0.0
H1767 H 0.45347 0.86101 0.92318 0.0
H1768 H 0.41734 0.86836 0.86729 0.0
H1769 H 0.39395 0.85659 0.89133 0.0
H1770 H 0.44587 0.85112 0.85346 0.0
H1771 H 0.43487 0.90338 0.89368 0.0
H1772 H 0.42934 0.92221 0.92718 0.0
H1773 H 0.47934 0.90949 0.95489 0.0
H1774 H 0.48509 0.89037 0.92172 0.0
H1775 H 0.51948 0.8831 0.79068 0.0
H1776 H 0.49065 0.88213 0.80847 0.0
H1777 H 0.51409 0.87164 0.8745 0.0
H1778 H 0.54281 0.87281 0.85697 0.0
H1779 H 0.48854 0.89545 0.87816 0.0
H1780 H 0.49662 0.83929 0.84164 0.0
H1781 H 0.50203 0.81993 0.80861 0.0
H1782 H 0.45713 0.84019 0.77418 0.0
H1783 H 0.45159 0.85984 0.80692 0.0
C1784 C 0.42719 0.8538 0.92991 0.0
C1785 C 0.41033 0.8521 0.9211 0.0
C1786 C 0.44045 0.86049 0.91624 0.0
C1787 C 0.43711 0.8657 0.8935 0.0
C1788 C 0.42016 0.86448 0.88483 0.0
C1789 C 0.40683 0.85782 0.89858 0.0
C1790 C 0.45173 0.87093 0.87844 0.0
C1791 C 0.45498 0.86113 0.85853 0.0
C1792 C 0.46372 0.88382 0.88523 0.0
C1793 C 0.46037 0.89536 0.90523 0.0
C1794 C 0.44464 0.9045 0.90698 0.0
C1795 C 0.44148 0.91524 0.92591 0.0
C1796 C 0.45397 0.91703 0.94316 0.0
C1797 C 0.46967 0.9081 0.9415 0.0
C1798 C 0.47291 0.89733 0.92262 0.0
C1799 C 0.51845 0.88062 0.80899 0.0
C1800 C 0.53337 0.87795 0.82243 0.0
C1801 C 0.502 0.88005 0.81911 0.0
C1802 C 0.50024 0.87672 0.84279 0.0
C1803 C 0.51515 0.8743 0.85623 0.0
C1804 C 0.53155 0.87487 0.84615 0.0
C1805 C 0.48294 0.87523 0.85372 0.0
C1806 C 0.47921 0.88574 0.87283 0.0
C1807 C 0.47051 0.863 0.84621 0.0
C1808 C 0.47382 0.85117 0.82658 0.0
C1809 C 0.48799 0.83971 0.82694 0.0
C1810 C 0.49106 0.82867 0.80829 0.0
C1811 C 0.47997 0.82887 0.78927 0.0
C1812 C 0.46574 0.84008 0.78889 0.0
C1813 C 0.46262 0.85116 0.80749 0.0
H1814 H 0.48237 0.82031 0.77485 0.0
H1815 H 0.45149 0.92536 0.9578 0.0
H1816 H 0.90609 0.21574 0.92869 0.0
H1817 H 0.91132 0.24413 0.91169 0.0
H1818 H 0.85849 0.25897 0.92617 0.0
H1819 H 0.85304 0.23029 0.9428 0.0
H1820 H 0.86678 0.26726 0.88342 0.0
H1821 H 0.89251 0.27675 0.95661 0.0
H1822 H 0.9109 0.27044 0.99031 0.0
H1823 H 0.95626 0.27162 0.94748 0.0
H1824 H 0.93813 0.2777 0.91345 0.0
H1825 H 0.88963 0.35121 0.83835 0.0
H1826 H 0.87965 0.32904 0.86566 0.0
H1827 H 0.92763 0.30114 0.8565 0.0
H1828 H 0.93764 0.32312 0.82946 0.0
H1829 H 0.91823 0.30321 0.90185 0.0
H1830 H 0.89143 0.28892 0.82832 0.0
H1831 H 0.87292 0.29495 0.79462 0.0
H1832 H 0.82921 0.30312 0.83915 0.0
H1833 H 0.84755 0.29735 0.87314 0.0
C1834 C 0.89563 0.2251 0.92849 0.0
C1835 C 0.87917 0.22081 0.93709 0.0
C1836 C 0.89866 0.24138 0.91888 0.0
C1837 C 0.88536 0.25379 0.91794 0.0
C1838 C 0.86895 0.24962 0.9268 0.0
C1839 C 0.86588 0.23326 0.93633 0.0
C1840 C 0.88846 0.27067 0.90641 0.0
C1841 C 0.8778 0.27535 0.88782 0.0
C1842 C 0.90292 0.28114 0.91198 0.0
C1843 C 0.91393 0.2776 0.93244 0.0
C1844 C 0.90639 0.27556 0.95434 0.0
C1845 C 0.91678 0.27204 0.97351 0.0
C1846 C 0.93473 0.27061 0.97103 0.0
C1847 C 0.94235 0.27274 0.94938 0.0
C1848 C 0.93203 0.27625 0.93014 0.0
C1849 C 0.89804 0.34037 0.84227 0.0
C1850 C 0.91437 0.33884 0.83172 0.0
C1851 C 0.89233 0.32773 0.85782 0.0
C1852 C 0.90289 0.31342 0.86302 0.0
C1853 C 0.9193 0.3121 0.8528 0.0
C1854 C 0.92496 0.32463 0.83725 0.0
C1855 C 0.89688 0.29942 0.87852 0.0
C1856 C 0.907 0.29531 0.89784 0.0
C1857 C 0.8819 0.28951 0.87369 0.0
C1858 C 0.8709 0.29293 0.85326 0.0
C1859 C 0.87791 0.29215 0.83092 0.0
C1860 C 0.86744 0.29549 0.81177 0.0
C1861 C 0.84991 0.29948 0.81474 0.0
C1862 C 0.8428 0.30007 0.83687 0.0
C1863 C 0.85322 0.29677 0.85609 0.0
H1864 H 0.84183 0.30205 0.79989 0.0
H1865 H 0.94275 0.26788 0.9859 0.0
H1866 H 0.52561 0.15542 0.68525 0.0
H1867 H 0.49831 0.15863 0.66457 0.0
H1868 H 0.48981 0.10344 0.66889 0.0
H1869 H 0.51765 0.1001 0.68871 0.0
H1870 H 0.48226 0.1133 0.62814 0.0
H1871 H 0.46581 0.13363 0.70193 0.0
H1872 H 0.46778 0.1504 0.73798 0.0
H1873 H 0.464 0.19787 0.69977 0.0
H1874 H 0.46226 0.18141 0.66344 0.0
H1875 H 0.39589 0.13122 0.58237 0.0
H1876 H 0.41843 0.12193 0.60974 0.0
H1877 H 0.44581 0.1699 0.59864 0.0
H1878 H 0.42374 0.17905 0.57111 0.0
H1879 H 0.44007 0.15974 0.64685 0.0
H1880 H 0.4607 0.13745 0.57282 0.0
H1881 H 0.45778 0.11963 0.53777 0.0
H1882 H 0.45169 0.07399 0.57927 0.0
H1883 H 0.45433 0.09161 0.61459 0.0
C1884 C 0.51786 0.14399 0.68196 0.0
C1885 C 0.5237 0.12752 0.68862 0.0
C1886 C 0.50217 0.14584 0.67027 0.0
C1887 C 0.49178 0.13131 0.66555 0.0
C1888 C 0.49755 0.11484 0.6724 0.0
C1889 C 0.51342 0.11295 0.68375 0.0
C1890 C 0.47538 0.13335 0.65241 0.0
C1891 C 0.47285 0.1232 0.63259 0.0
C1892 C 0.46304 0.14626 0.6581 0.0
C1893 C 0.464 0.15626 0.67993 0.0
C1894 C 0.46551 0.14765 0.70119 0.0
C1895 C 0.46657 0.1571 0.72168 0.0
C1896 C 0.46604 0.17519 0.72116 0.0
C1897 C 0.46441 0.18386 0.70015 0.0
C1898 C 0.46336 0.17447 0.6796 0.0
C1899 C 0.40676 0.13972 0.58577 0.0
C1900 C 0.40813 0.15581 0.5746 0.0
C1901 C 0.41957 0.13442 0.60135 0.0
C1902 C 0.43368 0.14529 0.60617 0.0
C1903 C 0.43495 0.16139 0.59517 0.0
C1904 C 0.42239 0.16654 0.57937 0.0
C1905 C 0.44739 0.14006 0.62248 0.0
C1906 C 0.44935 0.14961 0.64285 0.0
C1907 C 0.45901 0.12642 0.61754 0.0
C1908 C 0.45747 0.11587 0.59632 0.0
C1909 C 0.45856 0.12364 0.57446 0.0
C1910 C 0.457 0.11358 0.55455 0.0
C1911 C 0.45449 0.0957 0.55629 0.0
C1912 C 0.45359 0.08784 0.57795 0.0
C1913 C 0.45512 0.09786 0.59791 0.0
H1914 H 0.45329 0.08792 0.54085 0.0
H1915 H 0.46687 0.18248 0.73705 0.0
H1916 H 0.63498 0.78696 0.40421 0.0
H1917 H 0.63236 0.75926 0.3842 0.0
H1918 H 0.60586 0.73759 0.44295 0.0
H1919 H 0.60859 0.76533 0.46326 0.0
H1920 H 0.62973 0.71472 0.42375 0.0
H1921 H 0.58265 0.7507 0.39853 0.0
H1922 H 0.56919 0.77722 0.383 0.0
H1923 H 0.59841 0.77164 0.32046 0.0
H1924 H 0.61223 0.74521 0.33577 0.0
H1925 H 0.58847 0.64455 0.36351 0.0
H1926 H 0.59714 0.66904 0.38769 0.0
H1927 H 0.62056 0.69371 0.32868 0.0
H1928 H 0.61164 0.66947 0.30441 0.0
H1929 H 0.59841 0.71477 0.34912 0.0
H1930 H 0.64504 0.67818 0.37391 0.0
H1931 H 0.65846 0.65168 0.38955 0.0
H1932 H 0.6301 0.65806 0.45264 0.0
H1933 H 0.61632 0.68449 0.43725 0.0
C1934 C 0.62868 0.77629 0.41294 0.0
C1935 C 0.62185 0.77834 0.43522 0.0
C1936 C 0.62718 0.76048 0.40148 0.0
C1937 C 0.61874 0.74646 0.41201 0.0
C1938 C 0.6124 0.74828 0.43454 0.0
C1939 C 0.61389 0.76413 0.44605 0.0
C1940 C 0.61587 0.73021 0.399 0.0
C1941 C 0.62272 0.71464 0.40755 0.0
C1942 C 0.60698 0.73023 0.3777 0.0
C1943 C 0.5986 0.74607 0.36839 0.0
C1944 C 0.5863 0.7552 0.38154 0.0
C1945 C 0.57859 0.77021 0.37277 0.0
C1946 C 0.58298 0.77614 0.35078 0.0
C1947 C 0.59504 0.76705 0.3375 0.0
C1948 C 0.60281 0.75205 0.34621 0.0
C1949 C 0.59582 0.65501 0.35584 0.0
C1950 C 0.59928 0.65518 0.33207 0.0
C1951 C 0.6008 0.66899 0.36967 0.0
C1952 C 0.60948 0.68323 0.35998 0.0
C1953 C 0.6138 0.6829 0.33649 0.0
C1954 C 0.60873 0.66902 0.32267 0.0
C1955 C 0.6125 0.6992 0.37361 0.0
C1956 C 0.60553 0.71477 0.36524 0.0
C1957 C 0.62126 0.69911 0.39503 0.0
C1958 C 0.62952 0.68322 0.40433 0.0
C1959 C 0.64155 0.67385 0.39104 0.0
C1960 C 0.64924 0.65886 0.39988 0.0
C1961 C 0.6451 0.65317 0.42205 0.0
C1962 C 0.63328 0.66248 0.43545 0.0
C1963 C 0.62554 0.67747 0.42669 0.0
H1964 H 0.65107 0.64156 0.42886 0.0
H1965 H 0.57699 0.78776 0.34402 0.0
H1966 H 0.11169 0.85649 0.10856 0.0
H1967 H 0.08828 0.86556 0.13448 0.0
H1968 H 0.0531 0.86818 0.07685 0.0
H1969 H 0.07633 0.85889 0.05093 0.0
H1970 H 0.04925 0.89576 0.1103 0.0
H1971 H 0.05364 0.83289 0.1052 0.0
H1972 H 0.06954 0.80527 0.10832 0.0
H1973 H 0.07999 0.81555 0.17968 0.0
H1974 H 0.06438 0.8434 0.17685 0.0
H1975 H 0.96456 0.88229 0.14935 0.0
H1976 H 0.99289 0.88175 0.13081 0.0
H1977 H 0.01696 0.86952 0.19593 0.0
H1978 H 0.98841 0.86957 0.21454 0.0
H1979 H 0.02954 0.84951 0.16363 0.0
H1980 H 0.0214 0.91015 0.17088 0.0
H1981 H 0.0061 0.93813 0.16826 0.0
H1982 H 0.00352 0.93315 0.09467 0.0
H1983 H 0.01857 0.90502 0.09686 0.0
C1984 C 0.09905 0.85937 0.10137 0.0
C1985 C 0.09575 0.85688 0.07779 0.0
C1986 C 0.08572 0.8645 0.11618 0.0
C1987 C 0.06898 0.8674 0.10754 0.0
C1988 C 0.06595 0.86602 0.0838 0.0
C1989 C 0.0792 0.86066 0.06905 0.0
C1990 C 0.0542 0.87015 0.12332 0.0
C1991 C 0.04486 0.88569 0.12196 0.0
C1992 C 0.04888 0.85715 0.13896 0.0
C1993 C 0.05804 0.84031 0.14074 0.0
C1994 C 0.05946 0.82933 0.1215 0.0
C1995 C 0.0684 0.81362 0.12322 0.0
C1996 C 0.07582 0.80868 0.14417 0.0
C1997 C 0.07427 0.81941 0.16345 0.0
C1998 C 0.06538 0.83515 0.1618 0.0
C1999 C 0.97589 0.87959 0.15978 0.0
C2000 C 0.97429 0.87599 0.1834 0.0
C2001 C 0.99211 0.87941 0.14918 0.0
C2002 C 0.00712 0.87591 0.16205 0.0
C2003 C 0.00557 0.87235 0.18569 0.0
C2004 C 0.98928 0.87239 0.1963 0.0
C2005 C 0.02422 0.87507 0.15037 0.0
C2006 C 0.03403 0.85982 0.15242 0.0
C2007 C 0.03004 0.88843 0.13551 0.0
C2008 C 0.02103 0.9054 0.13406 0.0
C2009 C 0.01747 0.91496 0.15415 0.0
C2010 C 0.00885 0.93086 0.15274 0.0
C2011 C 0.00382 0.9374 0.13132 0.0
C2012 C 0.00742 0.92807 0.11125 0.0
C2013 C 0.01602 0.91215 0.11257 0.0
H2014 H 0.99715 0.94971 0.13026 0.0
H2015 H 0.08275 0.79652 0.14547 0.0
H2016 H 0.63197 0.7367 0.96547 0.0
H2017 H 0.63177 0.76487 0.94608 0.0
H2018 H 0.63492 0.73924 0.88012 0.0
H2019 H 0.63564 0.71114 0.89942 0.0
H2020 H 0.6548 0.76704 0.87999 0.0
H2021 H 0.596 0.75414 0.90256 0.0
H2022 H 0.5726 0.74683 0.92984 0.0
H2023 H 0.58288 0.79333 0.96806 0.0
H2024 H 0.6065 0.8008 0.94116 0.0
H2025 H 0.61303 0.82509 0.80342 0.0
H2026 H 0.62345 0.80156 0.82789 0.0
H2027 H 0.62345 0.83587 0.88655 0.0
H2028 H 0.61299 0.85955 0.86209 0.0
H2029 H 0.60493 0.80622 0.89408 0.0
H2030 H 0.66127 0.82082 0.86641 0.0
H2031 H 0.68346 0.82771 0.83725 0.0
H2032 H 0.67664 0.77759 0.80651 0.0
H2033 H 0.65421 0.77048 0.83528 0.0
C2034 C 0.63272 0.7371 0.94685 0.0
C2035 C 0.63369 0.72174 0.93393 0.0
C2036 C 0.63257 0.75319 0.93579 0.0
C2037 C 0.63309 0.75416 0.91163 0.0
C2038 C 0.63453 0.73882 0.89877 0.0
C2039 C 0.63485 0.72277 0.90982 0.0
C2040 C 0.6314 0.77103 0.89957 0.0
C2041 C 0.64386 0.77557 0.88298 0.0
C2042 C 0.61734 0.78238 0.90385 0.0
C2043 C 0.60315 0.77791 0.92003 0.0
C2044 C 0.59336 0.76273 0.91689 0.0
C2045 C 0.58004 0.75857 0.93226 0.0
C2046 C 0.57629 0.76958 0.95072 0.0
C2047 C 0.58582 0.7848 0.9538 0.0
C2048 C 0.59917 0.789 0.93849 0.0
C2049 C 0.61559 0.82772 0.82143 0.0
C2050 C 0.61213 0.84412 0.83089 0.0
C2051 C 0.62162 0.81428 0.83537 0.0
C2052 C 0.62428 0.81699 0.85902 0.0
C2053 C 0.62151 0.83355 0.86833 0.0
C2054 C 0.61559 0.84705 0.85433 0.0
C2055 C 0.62817 0.80209 0.87424 0.0
C2056 C 0.61607 0.79787 0.89139 0.0
C2057 C 0.64242 0.79097 0.87024 0.0
C2058 C 0.65597 0.79516 0.85294 0.0
C2059 C 0.6644 0.81131 0.85333 0.0
C2060 C 0.67705 0.81525 0.83689 0.0
C2061 C 0.68144 0.80311 0.82002 0.0
C2062 C 0.67322 0.78698 0.81958 0.0
C2063 C 0.66056 0.78298 0.83598 0.0
H2064 H 0.69123 0.80618 0.8073 0.0
H2065 H 0.56597 0.76634 0.9626 0.0
H2066 H 0.53824 0.36968 0.14834 0.0
H2067 H 0.51012 0.36707 0.12946 0.0
H2068 H 0.48474 0.36695 0.19571 0.0
H2069 H 0.51302 0.36929 0.21481 0.0
H2070 H 0.47136 0.3426 0.16792 0.0
H2071 H 0.48322 0.40287 0.16187 0.0
H2072 H 0.50049 0.42895 0.15328 0.0
H2073 H 0.50324 0.41425 0.08204 0.0
H2074 H 0.48621 0.38794 0.09024 0.0
H2075 H 0.39023 0.34643 0.10843 0.0
H2076 H 0.4137 0.35574 0.13418 0.0
H2077 H 0.44953 0.35472 0.07712 0.0
H2078 H 0.42626 0.34552 0.05144 0.0
H2079 H 0.45472 0.38288 0.10506 0.0
H2080 H 0.44661 0.32072 0.11292 0.0
H2081 H 0.42954 0.29449 0.12151 0.0
H2082 H 0.41961 0.31327 0.18989 0.0
H2083 H 0.43644 0.33974 0.18157 0.0
C2084 C 0.52669 0.3691 0.15891 0.0
C2085 C 0.52782 0.36975 0.18305 0.0
C2086 C 0.51061 0.36771 0.1481 0.0
C2087 C 0.4953 0.36714 0.16116 0.0
C2088 C 0.49639 0.36749 0.1853 0.0
C2089 C 0.51253 0.36883 0.19617 0.0
C2090 C 0.47827 0.36579 0.14942 0.0
C2091 C 0.46753 0.35163 0.15453 0.0
C2092 C 0.47335 0.37748 0.13179 0.0
C2093 C 0.48352 0.39336 0.12671 0.0
C2094 C 0.48761 0.40513 0.14439 0.0
C2095 C 0.49734 0.41997 0.13959 0.0
C2096 C 0.50298 0.42325 0.11714 0.0
C2097 C 0.49887 0.4117 0.09942 0.0
C2098 C 0.48915 0.39683 0.10414 0.0
C2099 C 0.40307 0.34846 0.10137 0.0
C2100 C 0.40647 0.34515 0.07798 0.0
C2101 C 0.41645 0.3537 0.11608 0.0
C2102 C 0.43338 0.35575 0.10757 0.0
C2103 C 0.43657 0.35323 0.08403 0.0
C2104 C 0.42327 0.3479 0.06939 0.0
C2105 C 0.44811 0.35948 0.12319 0.0
C2106 C 0.4584 0.37408 0.11879 0.0
C2107 C 0.4526 0.34823 0.1415 0.0
C2108 C 0.44259 0.33229 0.14653 0.0
C2109 C 0.44067 0.31932 0.12972 0.0
C2110 C 0.43106 0.3044 0.13455 0.0
C2111 C 0.42345 0.30225 0.1562 0.0
C2112 C 0.42548 0.31498 0.1731 0.0
C2113 C 0.43505 0.32994 0.16835 0.0
H2114 H 0.41601 0.29069 0.15991 0.0
H2115 H 0.51052 0.43474 0.11345 0.0
H2116 H 0.8757 0.28808 0.39701 0.0
H2117 H 0.87723 0.26056 0.37655 0.0
H2118 H 0.87384 0.23302 0.44109 0.0
H2119 H 0.87278 0.26069 0.46182 0.0
H2120 H 0.8977 0.21881 0.41469 0.0
H2121 H 0.83895 0.23471 0.40419 0.0
H2122 H 0.8142 0.25366 0.3949 0.0
H2123 H 0.83233 0.2585 0.32526 0.0
H2124 H 0.85735 0.23978 0.3342 0.0
H2125 H 0.89036 0.14108 0.34709 0.0
H2126 H 0.87987 0.16389 0.37318 0.0
H2127 H 0.89383 0.2027 0.32305 0.0
H2128 H 0.90471 0.18011 0.29728 0.0
H2129 H 0.8604 0.20774 0.3466 0.0
H2130 H 0.92109 0.19391 0.36022 0.0
H2131 H 0.94441 0.17338 0.36974 0.0
H2132 H 0.92121 0.16389 0.43578 0.0
H2133 H 0.89718 0.18373 0.42613 0.0
C2134 C 0.87525 0.27618 0.40687 0.0
C2135 C 0.87406 0.27651 0.431 0.0
C2136 C 0.876 0.26044 0.39514 0.0
C2137 C 0.87528 0.24471 0.40725 0.0
C2138 C 0.8743 0.245 0.4314 0.0
C2139 C 0.87368 0.26079 0.4432 0.0
C2140 C 0.87613 0.22808 0.39451 0.0
C2141 C 0.88927 0.21621 0.40014 0.0
C2142 C 0.86517 0.22467 0.37547 0.0
C2143 C 0.8501 0.2359 0.36992 0.0
C2144 C 0.83773 0.2399 0.38693 0.0
C2145 C 0.82364 0.2506 0.38172 0.0
C2146 C 0.82171 0.2573 0.35952 0.0
C2147 C 0.83385 0.2533 0.34246 0.0
C2148 C 0.84797 0.24262 0.34758 0.0
C2149 C 0.8909 0.15447 0.34155 0.0
C2150 C 0.89843 0.15892 0.32032 0.0
C2151 C 0.88493 0.16743 0.35641 0.0
C2152 C 0.88615 0.18491 0.34997 0.0
C2153 C 0.89274 0.18926 0.32823 0.0
C2154 C 0.89904 0.17638 0.31363 0.0
C2155 C 0.88217 0.19889 0.36649 0.0
C2156 C 0.8685 0.21022 0.36151 0.0
C2157 C 0.89249 0.20168 0.38628 0.0
C2158 C 0.90717 0.1901 0.39229 0.0
C2159 C 0.92081 0.18728 0.37665 0.0
C2160 C 0.93419 0.17579 0.38209 0.0
C2161 C 0.93435 0.16737 0.4034 0.0
C2162 C 0.92107 0.1704 0.41927 0.0
C2163 C 0.90751 0.1817 0.41377 0.0
H2164 H 0.94477 0.15852 0.4076 0.0
H2165 H 0.81079 0.26558 0.35552 0.0
H2166 H 0.10582 0.64831 0.60768 0.0
H2167 H 0.08379 0.63664 0.63383 0.0
H2168 H 0.04772 0.63307 0.57714 0.0
H2169 H 0.06936 0.64556 0.5514 0.0
H2170 H 0.03247 0.64766 0.61012 0.0
H2171 H 0.06731 0.59654 0.60488 0.0
H2172 H 0.09397 0.57898 0.60678 0.0
H2173 H 0.09935 0.59103 0.67864 0.0
H2174 H 0.07283 0.60887 0.6771 0.0
H2175 H 0.96713 0.59903 0.66286 0.0
H2176 H 0.99385 0.60236 0.64072 0.0
H2177 H 0.0187 0.62584 0.69942 0.0
H2178 H 0.99182 0.62287 0.72169 0.0
H2179 H 0.03999 0.6005 0.66735 0.0
H2180 H 0.00437 0.65297 0.66973 0.0
H2181 H 0.9765 0.66839 0.66599 0.0
H2182 H 0.97186 0.65093 0.59604 0.0
H2183 H 0.99955 0.63511 0.59953 0.0
C2184 C 0.09325 0.6448 0.60083 0.0
C2185 C 0.08921 0.64791 0.57761 0.0
C2186 C 0.08069 0.63804 0.61574 0.0
C2187 C 0.06407 0.63387 0.60748 0.0
C2188 C 0.06037 0.63629 0.584 0.0
C2189 C 0.07276 0.64339 0.56928 0.0
C2190 C 0.05004 0.62831 0.62341 0.0
C2191 C 0.03415 0.63718 0.62236 0.0
C2192 C 0.05221 0.61487 0.63983 0.0
C2193 C 0.06818 0.60419 0.64081 0.0
C2194 C 0.07425 0.59557 0.62104 0.0
C2195 C 0.08933 0.58554 0.62206 0.0
C2196 C 0.09838 0.58393 0.6428 0.0
C2197 C 0.09234 0.59231 0.66258 0.0
C2198 C 0.07728 0.60237 0.66164 0.0
C2199 C 0.97839 0.6045 0.67129 0.0
C2200 C 0.97735 0.61088 0.69392 0.0
C2201 C 0.99364 0.60635 0.65862 0.0
C2202 C 0.00813 0.6144 0.66847 0.0
C2203 C 0.00762 0.61952 0.69163 0.0
C2204 C 0.99226 0.61789 0.70426 0.0
C2205 C 0.02268 0.61973 0.65359 0.0
C2206 C 0.03854 0.61093 0.65498 0.0
C2207 C 0.02046 0.63302 0.63715 0.0
C2208 C 0.00393 0.64271 0.63497 0.0
C2209 C 0.99732 0.65228 0.65363 0.0
C2210 C 0.98157 0.66111 0.65155 0.0
C2211 C 0.9724 0.66061 0.6308 0.0
C2212 C 0.97897 0.65129 0.6121 0.0
C2213 C 0.99468 0.64239 0.61412 0.0
H2214 H 0.96024 0.6675 0.62918 0.0
H2215 H 0.11004 0.57616 0.64356 0.0
H2216 H 0.60836 0.26082 0.53734 0.0
H2217 H 0.60607 0.232 0.5547 0.0
H2218 H 0.63252 0.2505 0.61539 0.0
H2219 H 0.63509 0.27923 0.598 0.0
H2220 H 0.64393 0.21864 0.60317 0.0
H2221 H 0.5887 0.24693 0.61433 0.0
H2222 H 0.56214 0.26204 0.60185 0.0
H2223 H 0.54822 0.21847 0.55975 0.0
H2224 H 0.57484 0.2032 0.57176 0.0
H2225 H 0.61413 0.16522 0.69373 0.0
H2226 H 0.62299 0.18726 0.66603 0.0
H2227 H 0.59507 0.16054 0.61234 0.0
H2228 H 0.58601 0.13843 0.64012 0.0
H2229 H 0.58537 0.19383 0.61567 0.0
H2230 H 0.63903 0.16382 0.60985 0.0
H2231 H 0.66533 0.14897 0.6237 0.0
H2232 H 0.68214 0.19569 0.65702 0.0
H2233 H 0.65581 0.21077 0.64365 0.0
C2234 C 0.61373 0.25871 0.55436 0.0
C2235 C 0.62179 0.27229 0.56641 0.0
C2236 C 0.61241 0.24226 0.56424 0.0
C2237 C 0.61899 0.23916 0.58641 0.0
C2238 C 0.62738 0.2526 0.59824 0.0
C2239 C 0.62875 0.26904 0.58835 0.0
C2240 C 0.61653 0.22213 0.59777 0.0
C2241 C 0.63113 0.21323 0.60603 0.0
C2242 C 0.59987 0.21486 0.60091 0.0
C2243 C 0.58386 0.22402 0.59371 0.0
C2244 C 0.58005 0.24064 0.60226 0.0
C2245 C 0.56497 0.24922 0.5953 0.0
C2246 C 0.55353 0.24125 0.57996 0.0
C2247 C 0.55711 0.22465 0.5716 0.0
C2248 C 0.57219 0.21602 0.57847 0.0
C2249 C 0.61022 0.1638 0.67591 0.0
C2250 C 0.5993 0.15017 0.66911 0.0
C2251 C 0.61536 0.17638 0.66006 0.0
C2252 C 0.60973 0.17553 0.63709 0.0
C2253 C 0.59957 0.16142 0.62998 0.0
C2254 C 0.59446 0.14877 0.64584 0.0
C2255 C 0.61275 0.19041 0.62145 0.0
C2256 C 0.59822 0.199 0.61244 0.0
C2257 C 0.62948 0.1974 0.61777 0.0
C2258 C 0.64536 0.1884 0.62585 0.0
C2259 C 0.64826 0.1709 0.62028 0.0
C2260 C 0.66319 0.16245 0.62802 0.0
C2261 C 0.67538 0.17138 0.64126 0.0
C2262 C 0.67268 0.18879 0.64676 0.0
C2263 C 0.65777 0.19731 0.63907 0.0
H2264 H 0.68693 0.16481 0.64724 0.0
H2265 H 0.54186 0.24791 0.5746 0.0
H2266 H 0.97545 0.39519 0.83866 0.0
H2267 H 0.00439 0.39507 0.85556 0.0
H2268 H 0.02468 0.37059 0.7944 0.0
H2269 H 0.99558 0.37038 0.77751 0.0
H2270 H 0.03422 0.35352 0.83182 0.0
H2271 H 0.03575 0.41262 0.80848 0.0
H2272 H 0.02496 0.44252 0.80425 0.0
H2273 H 0.02426 0.44849 0.87778 0.0
H2274 H 0.03481 0.41854 0.88249 0.0
H2275 H 0.11538 0.34964 0.88629 0.0
H2276 H 0.0948 0.35996 0.85725 0.0
H2277 H 0.06391 0.38356 0.91068 0.0
H2278 H 0.0845 0.37354 0.93968 0.0
H2279 H 0.06319 0.40274 0.87104 0.0
H2280 H 0.05582 0.34278 0.89408 0.0
H2281 H 0.06577 0.31269 0.89961 0.0
H2282 H 0.07641 0.30839 0.82722 0.0
H2283 H 0.06678 0.33858 0.82133 0.0
C2284 C 0.98611 0.39004 0.82865 0.0
C2285 C 0.98325 0.38272 0.80681 0.0
C2286 C 0.00269 0.39008 0.83826 0.0
C2287 C 0.01676 0.38297 0.82616 0.0
C2288 C 0.01402 0.37618 0.80401 0.0
C2289 C 0.99741 0.3761 0.79439 0.0
C2290 C 0.03385 0.3811 0.83762 0.0
C2291 C 0.04079 0.36438 0.83985 0.0
C2292 C 0.04223 0.39519 0.84857 0.0
C2293 C 0.036 0.41328 0.84583 0.0
C2294 C 0.03319 0.42027 0.82376 0.0
C2295 C 0.02713 0.43723 0.82127 0.0
C2296 C 0.02391 0.44739 0.84073 0.0
C2297 C 0.02677 0.44061 0.86272 0.0
C2298 C 0.03282 0.42365 0.86531 0.0
C2299 C 0.10445 0.35742 0.89176 0.0
C2300 C 0.1014 0.36058 0.91526 0.0
C2301 C 0.09269 0.36328 0.87517 0.0
C2302 C 0.07768 0.37225 0.88188 0.0
C2303 C 0.07538 0.37663 0.90514 0.0
C2304 C 0.08714 0.37082 0.9217 0.0
C2305 C 0.0633 0.37518 0.8654 0.0
C2306 C 0.05683 0.39202 0.86241 0.0
C2307 C 0.05523 0.3612 0.85384 0.0
C2308 C 0.06079 0.34298 0.85731 0.0
C2309 C 0.0604 0.33545 0.87937 0.0
C2310 C 0.06597 0.31838 0.88257 0.0
C2311 C 0.07177 0.30865 0.86379 0.0
C2312 C 0.07196 0.31596 0.84176 0.0
C2313 C 0.06645 0.33304 0.83848 0.0
H2314 H 0.07608 0.29544 0.8663 0.0
H2315 H 0.01921 0.46052 0.83877 0.0
H2316 H 0.87027 0.73469 0.03547 0.0
H2317 H 0.87194 0.76364 0.05271 0.0
H2318 H 0.86871 0.74094 0.12054 0.0
H2319 H 0.8666 0.71217 0.10346 0.0
H2320 H 0.84973 0.76931 0.11887 0.0
H2321 H 0.90786 0.75294 0.09567 0.0
H2322 H 0.93038 0.74403 0.06793 0.0
H2323 H 0.92141 0.79015 0.02832 0.0
H2324 H 0.89867 0.79923 0.05571 0.0
H2325 H 0.8991 0.81981 0.19518 0.0
H2326 H 0.88697 0.79828 0.16892 0.0
H2327 H 0.88378 0.83679 0.11526 0.0
H2328 H 0.89565 0.85864 0.14178 0.0
H2329 H 0.90194 0.80501 0.10355 0.0
H2330 H 0.84762 0.82355 0.13351 0.0
H2331 H 0.82664 0.83182 0.1636 0.0
H2332 H 0.82987 0.78085 0.1929 0.0
H2333 H 0.85108 0.77234 0.16319 0.0
C2334 C 0.8698 0.73593 0.05405 0.0
C2335 C 0.86842 0.72119 0.06815 0.0
C2336 C 0.87079 0.75245 0.06387 0.0
C2337 C 0.87062 0.75444 0.08793 0.0
C2338 C 0.86881 0.73974 0.10194 0.0
C2339 C 0.86769 0.72328 0.09216 0.0
C2340 C 0.87313 0.77164 0.09883 0.0
C2341 C 0.86114 0.77712 0.11552 0.0
C2342 C 0.88777 0.78209 0.094 0.0
C2343 C 0.90142 0.77664 0.07754 0.0
C2344 C 0.9106 0.76111 0.08094 0.0
C2345 C 0.92341 0.75604 0.0653 0.0
C2346 C 0.92728 0.76649 0.04632 0.0
C2347 C 0.91837 0.78205 0.04299 0.0
C2348 C 0.90552 0.78717 0.05856 0.0
C2349 C 0.89558 0.82376 0.1779 0.0
C2350 C 0.89832 0.84084 0.17045 0.0
C2351 C 0.8886 0.81148 0.16296 0.0
C2352 C 0.88442 0.816 0.14023 0.0
C2353 C 0.88685 0.83313 0.1328 0.0
C2354 C 0.89357 0.84555 0.14793 0.0
C2355 C 0.87884 0.80232 0.12406 0.0
C2356 C 0.89027 0.79746 0.10643 0.0
C2357 C 0.86384 0.79232 0.12826 0.0
C2358 C 0.85102 0.79734 0.14616 0.0
C2359 C 0.84396 0.81414 0.14647 0.0
C2360 C 0.832 0.81887 0.16344 0.0
C2361 C 0.82694 0.80688 0.18017 0.0
C2362 C 0.8338 0.79013 0.17993 0.0
C2363 C 0.84577 0.78534 0.163 0.0
H2364 H 0.81768 0.81056 0.1933 0.0
H2365 H 0.93721 0.76254 0.03424 0.0
H2366 H 0.40379 0.68155 0.39487 0.0
H2367 H 0.42694 0.6705 0.3704 0.0
H2368 H 0.42269 0.6204 0.40289 0.0
H2369 H 0.39948 0.63152 0.42779 0.0
H2370 H 0.45571 0.6319 0.40211 0.0
H2371 H 0.41037 0.62574 0.34691 0.0
H2372 H 0.38498 0.63481 0.32413 0.0
H2373 H 0.41494 0.67538 0.29291 0.0
H2374 H 0.44046 0.66672 0.31574 0.0
H2375 H 0.52248 0.60038 0.32991 0.0
H2376 H 0.49399 0.60346 0.34786 0.0
H2377 H 0.4894 0.65495 0.31954 0.0
H2378 H 0.5177 0.65172 0.30094 0.0
H2379 H 0.45914 0.63858 0.31722 0.0
H2380 H 0.50264 0.64775 0.37576 0.0
H2381 H 0.52817 0.63997 0.39915 0.0
H2382 H 0.50159 0.59501 0.42463 0.0
H2383 H 0.47598 0.60242 0.40113 0.0
C2384 C 0.40758 0.6681 0.3966 0.0
C2385 C 0.39987 0.65739 0.41328 0.0
C2386 C 0.42076 0.66177 0.38249 0.0
C2387 C 0.42643 0.64458 0.38465 0.0
C2388 C 0.41844 0.63369 0.40088 0.0
C2389 C 0.40517 0.64003 0.41503 0.0
C2390 C 0.44168 0.63861 0.37129 0.0
C2391 C 0.45632 0.63295 0.38349 0.0
C2392 C 0.44262 0.64044 0.34706 0.0
C2393 C 0.42732 0.64563 0.33316 0.0
C2394 C 0.41152 0.63667 0.3353 0.0
C2395 C 0.39711 0.64173 0.32236 0.0
C2396 C 0.39834 0.65568 0.30711 0.0
C2397 C 0.414 0.66457 0.30473 0.0
C2398 C 0.42846 0.65958 0.31764 0.0
C2399 C 0.51533 0.61231 0.32737 0.0
C2400 C 0.52235 0.62588 0.31421 0.0
C2401 C 0.49908 0.61407 0.33769 0.0
C2402 C 0.48969 0.62955 0.33538 0.0
C2403 C 0.49643 0.6429 0.32159 0.0
C2404 C 0.51262 0.64107 0.31104 0.0
C2405 C 0.47322 0.63217 0.3481 0.0
C2406 C 0.4584 0.63723 0.33579 0.0
C2407 C 0.47213 0.62993 0.37227 0.0
C2408 C 0.48748 0.62553 0.3865 0.0
C2409 C 0.5023 0.63614 0.38622 0.0
C2410 C 0.51677 0.63181 0.39952 0.0
C2411 C 0.51652 0.61698 0.41331 0.0
C2412 C 0.50178 0.60647 0.4139 0.0
C2413 C 0.48728 0.61074 0.40061 0.0
H2414 H 0.52774 0.61364 0.42359 0.0
H2415 H 0.38716 0.65958 0.29711 0.0
H2416 H 0.40873 0.13794 0.13118 0.0
H2417 H 0.39831 0.16084 0.10561 0.0
H2418 H 0.36933 0.18328 0.16174 0.0
H2419 H 0.37947 0.16025 0.18734 0.0
H2420 H 0.35256 0.18733 0.11995 0.0
H2421 H 0.4093 0.19675 0.15238 0.0
H2422 H 0.43957 0.18887 0.16111 0.0
H2423 H 0.45091 0.18591 0.08879 0.0
H2424 H 0.4206 0.1935 0.07964 0.0
H2425 H 0.35492 0.27741 0.09331 0.0
H2426 H 0.357 0.24849 0.11032 0.0
H2427 H 0.3858 0.23075 0.05112 0.0
H2428 H 0.38384 0.25966 0.03405 0.0
H2429 H 0.40174 0.22276 0.09134 0.0
H2430 H 0.34491 0.21704 0.05943 0.0
H2431 H 0.31462 0.22553 0.05197 0.0
H2432 H 0.30339 0.22264 0.12432 0.0
H2433 H 0.33369 0.21437 0.13227 0.0
C2434 C 0.39977 0.14748 0.13792 0.0
C2435 C 0.39511 0.14748 0.16132 0.0
C2436 C 0.39386 0.16057 0.12331 0.0
C2437 C 0.38335 0.17393 0.13193 0.0
C2438 C 0.37749 0.17312 0.15478 0.0
C2439 C 0.38334 0.15998 0.1694 0.0
C2440 C 0.38032 0.18977 0.11814 0.0
C2441 C 0.36327 0.19514 0.11375 0.0
C2442 C 0.39435 0.19982 0.10987 0.0
C2443 C 0.41264 0.19549 0.11533 0.0
C2444 C 0.41822 0.19429 0.13834 0.0
C2445 C 0.43538 0.18989 0.14337 0.0
C2446 C 0.44715 0.18684 0.12552 0.0
C2447 C 0.44178 0.18824 0.1026 0.0
C2448 C 0.42461 0.19259 0.09748 0.0
C2449 C 0.36154 0.26729 0.08382 0.0
C2450 C 0.36927 0.27078 0.06241 0.0
C2451 C 0.36263 0.25076 0.09349 0.0
C2452 C 0.37143 0.23745 0.08188 0.0
C2453 C 0.3789 0.24084 0.06031 0.0
C2454 C 0.37776 0.25735 0.05059 0.0
C2455 C 0.37395 0.22039 0.09304 0.0
C2456 C 0.39098 0.21484 0.09715 0.0
C2457 C 0.35989 0.21032 0.10117 0.0
C2458 C 0.34162 0.21522 0.09646 0.0
C2459 C 0.33602 0.21835 0.07378 0.0
C2460 C 0.31884 0.22309 0.06946 0.0
C2461 C 0.3071 0.22466 0.08767 0.0
C2462 C 0.3125 0.22143 0.11024 0.0
C2463 C 0.32968 0.2167 0.11465 0.0
H2464 H 0.2938 0.22834 0.08429 0.0
H2465 H 0.46043 0.18343 0.12944 0.0
H2466 H 0.46595 0.60974 0.84368 0.0
H2467 H 0.49209 0.61299 0.86713 0.0
H2468 H 0.52043 0.63046 0.80747 0.0
H2469 H 0.4942 0.62753 0.78388 0.0
H2470 H 0.53855 0.60545 0.83952 0.0
H2471 H 0.50734 0.6601 0.83762 0.0
H2472 H 0.48115 0.67814 0.84181 0.0
H2473 H 0.47643 0.66255 0.91254 0.0
H2474 H 0.50246 0.64417 0.90865 0.0
H2475 H 0.60917 0.64809 0.89498 0.0
H2476 H 0.58536 0.63828 0.8704 0.0
H2477 H 0.55131 0.6372 0.92945 0.0
H2478 H 0.57486 0.64775 0.95377 0.0
H2479 H 0.53595 0.65297 0.89699 0.0
H2480 H 0.56672 0.5994 0.90117 0.0
H2481 H 0.59183 0.57974 0.89841 0.0
H2482 H 0.59655 0.59097 0.82624 0.0
H2483 H 0.57159 0.61089 0.82862 0.0
C2484 C 0.47781 0.61403 0.83546 0.0
C2485 C 0.47805 0.61851 0.812 0.0
C2486 C 0.4927 0.61587 0.84887 0.0
C2487 C 0.50809 0.62201 0.83898 0.0
C2488 C 0.50864 0.62565 0.81533 0.0
C2489 C 0.49366 0.62405 0.80194 0.0
C2490 C 0.52311 0.62603 0.85378 0.0
C2491 C 0.53815 0.61594 0.85195 0.0
C2492 C 0.52226 0.63941 0.87034 0.0
C2493 C 0.50673 0.65062 0.87277 0.0
C2494 C 0.50063 0.6604 0.85401 0.0
C2495 C 0.48583 0.67071 0.85634 0.0
C2496 C 0.4771 0.67145 0.87741 0.0
C2497 C 0.48319 0.66193 0.89621 0.0
C2498 C 0.49797 0.65158 0.89396 0.0
C2499 C 0.59666 0.64552 0.90271 0.0
C2500 C 0.5938 0.64873 0.92622 0.0
C2501 C 0.58307 0.63983 0.88869 0.0
C2502 C 0.56653 0.63686 0.89807 0.0
C2503 C 0.56391 0.63946 0.92176 0.0
C2504 C 0.57738 0.64544 0.93567 0.0
C2505 C 0.55162 0.6323 0.88304 0.0
C2506 C 0.53651 0.64238 0.88472 0.0
C2507 C 0.55236 0.61872 0.86663 0.0
C2508 C 0.56739 0.60677 0.86513 0.0
C2509 C 0.5732 0.59779 0.88475 0.0
C2510 C 0.58739 0.58658 0.88325 0.0
C2511 C 0.59581 0.58415 0.86218 0.0
C2512 C 0.59002 0.59289 0.84255 0.0
C2513 C 0.57585 0.60413 0.84396 0.0
H2514 H 0.60679 0.57546 0.86105 0.0
H2515 H 0.46564 0.67944 0.87918 0.0
H2516 H 0.10526 0.86173 0.64037 0.0
H2517 H 0.11389 0.83874 0.61355 0.0
H2518 H 0.12089 0.80364 0.6706 0.0
H2519 H 0.11214 0.82645 0.69743 0.0
H2520 H 0.14616 0.80004 0.63427 0.0
H2521 H 0.08353 0.8041 0.64614 0.0
H2522 H 0.05636 0.82097 0.646 0.0
H2523 H 0.06269 0.83129 0.5738 0.0
H2524 H 0.0901 0.81476 0.57364 0.0
H2525 H 0.13156 0.71503 0.5981 0.0
H2526 H 0.13128 0.74345 0.61637 0.0
H2527 H 0.11496 0.76676 0.55237 0.0
H2528 H 0.11476 0.73811 0.53407 0.0
H2529 H 0.09679 0.7796 0.58663 0.0
H2530 H 0.15682 0.77185 0.57263 0.0
H2531 H 0.18501 0.75681 0.57222 0.0
H2532 H 0.18486 0.75476 0.64613 0.0
H2533 H 0.15653 0.76956 0.647 0.0
C2534 C 0.10908 0.84924 0.64721 0.0
C2535 C 0.10789 0.84578 0.67093 0.0
C2536 C 0.11396 0.83614 0.63189 0.0
C2537 C 0.11785 0.81949 0.64013 0.0
C2538 C 0.11794 0.81642 0.66394 0.0
C2539 C 0.11288 0.82943 0.67922 0.0
C2540 C 0.11977 0.80472 0.62411 0.0
C2541 C 0.13541 0.7955 0.62384 0.0
C2542 C 0.10584 0.79919 0.61007 0.0
C2543 C 0.08896 0.80838 0.60994 0.0
C2544 C 0.07916 0.81004 0.63026 0.0
C2545 C 0.06374 0.81955 0.63025 0.0
C2546 C 0.05786 0.82728 0.60994 0.0
C2547 C 0.0673 0.82535 0.58954 0.0
C2548 C 0.08278 0.81591 0.58949 0.0
C2549 C 0.12797 0.7262 0.58786 0.0
C2550 C 0.12323 0.72436 0.56463 0.0
C2551 C 0.12793 0.74248 0.59829 0.0
C2552 C 0.12342 0.75732 0.58564 0.0
C2553 C 0.11859 0.75551 0.56243 0.0
C2554 C 0.11849 0.73916 0.552 0.0
C2555 C 0.12314 0.77452 0.59709 0.0
C2556 C 0.10774 0.78422 0.5966 0.0
C2557 C 0.13738 0.78059 0.61025 0.0
C2558 C 0.15448 0.77173 0.60986 0.0
C2559 C 0.16274 0.76809 0.5888 0.0
C2560 C 0.17875 0.75962 0.58848 0.0
C2561 C 0.18671 0.75481 0.60913 0.0
C2562 C 0.17868 0.75849 0.63015 0.0
C2563 C 0.16265 0.76695 0.63056 0.0
H2564 H 0.19911 0.74825 0.60885 0.0
H2565 H 0.046 0.83476 0.60999 0.0
H2566 H 0.92479 0.35542 0.45393 0.0
H2567 H 0.94786 0.36621 0.42886 0.0
H2568 H 0.91339 0.36358 0.37048 0.0
H2569 H 0.89013 0.35294 0.39556 0.0
H2570 H 0.94477 0.34554 0.36467 0.0
H2571 H 0.9257 0.40191 0.38761 0.0
H2572 H 0.9171 0.42471 0.41507 0.0
H2573 H 0.96752 0.42285 0.44627 0.0
H2574 H 0.97635 0.39985 0.41921 0.0
H2575 H 0.0111 0.37493 0.2899 0.0
H2576 H 0.98326 0.37314 0.31001 0.0
H2577 H 0.00916 0.38192 0.37486 0.0
H2578 H 0.03689 0.38425 0.35479 0.0
H2579 H 0.97968 0.39903 0.37418 0.0
H2580 H 0.99779 0.34098 0.35628 0.0
H2581 H 0.00725 0.31717 0.33091 0.0
H2582 H 0.95958 0.32068 0.29304 0.0
H2583 H 0.94997 0.34476 0.31794 0.0
C2584 C 0.92202 0.35748 0.43584 0.0
C2585 C 0.9057 0.35331 0.42665 0.0
C2586 C 0.93519 0.36369 0.42156 0.0
C2587 C 0.9323 0.36571 0.39785 0.0
C2588 C 0.91583 0.36214 0.38876 0.0
C2589 C 0.90257 0.35614 0.4031 0.0
C2590 C 0.94696 0.36994 0.38241 0.0
C2591 C 0.95219 0.35741 0.36635 0.0
C2592 C 0.95689 0.38518 0.38519 0.0
C2593 C 0.95164 0.39905 0.40147 0.0
C2594 C 0.93491 0.40626 0.40045 0.0
C2595 C 0.93 0.41924 0.41592 0.0
C2596 C 0.94174 0.4252 0.43244 0.0
C2597 C 0.95843 0.41822 0.43348 0.0
C2598 C 0.96341 0.40522 0.41805 0.0
C2599 C 0.01081 0.37658 0.30843 0.0
C2600 C 0.02615 0.3796 0.32082 0.0
C2601 C 0.99492 0.37552 0.3199 0.0
C2602 C 0.99415 0.37715 0.34399 0.0
C2603 C 0.00943 0.38063 0.35628 0.0
C2604 C 0.02528 0.38188 0.3448 0.0
C2605 C 0.97763 0.37452 0.35659 0.0
C2606 C 0.97209 0.38729 0.37219 0.0
C2607 C 0.96754 0.35935 0.35369 0.0
C2608 C 0.97325 0.34481 0.33879 0.0
C2609 C 0.98939 0.33676 0.34243 0.0
C2610 C 0.99477 0.32321 0.32816 0.0
C2611 C 0.98404 0.31743 0.31035 0.0
C2612 C 0.96789 0.32519 0.30682 0.0
C2613 C 0.96247 0.3388 0.321 0.0
H2614 H 0.98823 0.30693 0.29933 0.0
H2615 H 0.93792 0.43526 0.4444 0.0
H2616 H 0.42622 0.82917 0.33213 0.0
H2617 H 0.4136 0.80749 0.35754 0.0
H2618 H 0.36294 0.83005 0.34755 0.0
H2619 H 0.3758 0.85246 0.32276 0.0
H2620 H 0.36611 0.82 0.39069 0.0
H2621 H 0.37511 0.7928 0.31851 0.0
H2622 H 0.39079 0.78433 0.28325 0.0
H2623 H 0.42821 0.75671 0.32385 0.0
H2624 H 0.41291 0.76522 0.3594 0.0
H2625 H 0.33833 0.72881 0.4235 0.0
H2626 H 0.34093 0.75595 0.40168 0.0
H2627 H 0.39122 0.76482 0.4317 0.0
H2628 H 0.38869 0.73802 0.45377 0.0
H2629 H 0.38227 0.75882 0.3755 0.0
H2630 H 0.37324 0.79165 0.44822 0.0
H2631 H 0.35509 0.79941 0.48166 0.0
H2632 H 0.31391 0.81483 0.43629 0.0
H2633 H 0.33177 0.8069 0.4026 0.0
C2634 C 0.4124 0.82956 0.3354 0.0
C2635 C 0.40193 0.84232 0.3253 0.0
C2636 C 0.40517 0.81712 0.34984 0.0
C2637 C 0.38724 0.81684 0.35393 0.0
C2638 C 0.37679 0.82994 0.34447 0.0
C2639 C 0.38411 0.84268 0.33031 0.0
C2640 C 0.37964 0.80259 0.36779 0.0
C2641 C 0.36944 0.80661 0.38714 0.0
C2642 C 0.38371 0.78505 0.36302 0.0
C2643 C 0.3929 0.77974 0.34165 0.0
C2644 C 0.38674 0.785 0.31994 0.0
C2645 C 0.39556 0.78019 0.29989 0.0
C2646 C 0.4105 0.77001 0.30131 0.0
C2647 C 0.41663 0.76459 0.32278 0.0
C2648 C 0.40788 0.76939 0.34288 0.0
C2649 C 0.34971 0.73682 0.42595 0.0
C2650 C 0.36338 0.73126 0.44019 0.0
C2651 C 0.35114 0.75229 0.41354 0.0
C2652 C 0.36621 0.76233 0.41528 0.0
C2653 C 0.37942 0.75729 0.43041 0.0
C2654 C 0.37796 0.74196 0.44294 0.0
C2655 C 0.36958 0.7764 0.39876 0.0
C2656 C 0.37883 0.77223 0.37878 0.0
C2657 C 0.36435 0.79365 0.40271 0.0
C2658 C 0.35372 0.79845 0.42295 0.0
C2659 C 0.36024 0.79649 0.4454 0.0
C2660 C 0.35003 0.80098 0.46439 0.0
C2661 C 0.33333 0.80754 0.46111 0.0
C2662 C 0.32683 0.8097 0.43882 0.0
C2663 C 0.33699 0.80522 0.41978 0.0
H2664 H 0.32544 0.81101 0.47583 0.0
H2665 H 0.41731 0.7663 0.28577 0.0
H2666 H 0.0449 0.62906 0.14396 0.0
H2667 H 0.01698 0.63403 0.12524 0.0
H2668 H 0.99072 0.62571 0.1899 0.0
H2669 H 0.01871 0.62074 0.20886 0.0
H2670 H 0.97486 0.60883 0.15226 0.0
H2671 H 0.9953 0.66548 0.17246 0.0
H2672 H 0.01584 0.6899 0.17439 0.0
H2673 H 0.01718 0.69248 0.10052 0.0
H2674 H 0.99684 0.6679 0.09814 0.0
H2675 H 0.89467 0.64374 0.10823 0.0
H2676 H 0.92008 0.63616 0.13159 0.0
H2677 H 0.95362 0.65039 0.07514 0.0
H2678 H 0.92845 0.65846 0.0522 0.0
H2679 H 0.9645 0.66484 0.11271 0.0
H2680 H 0.94599 0.60727 0.09181 0.0
H2681 H 0.92541 0.58293 0.08902 0.0
H2682 H 0.92071 0.58173 0.16272 0.0
H2683 H 0.94112 0.60623 0.16593 0.0
C2684 C 0.03318 0.62821 0.15419 0.0
C2685 C 0.03397 0.62458 0.17788 0.0
C2686 C 0.01726 0.6311 0.14349 0.0
C2687 C 0.00183 0.63039 0.15626 0.0
C2688 C 0.00251 0.62634 0.1798 0.0
C2689 C 0.01848 0.62357 0.19058 0.0
C2690 C 0.98509 0.63419 0.14492 0.0
C2691 C 0.97243 0.62116 0.14388 0.0
C2692 C 0.98212 0.65018 0.13373 0.0
C2693 C 0.99463 0.66476 0.13513 0.0
C2694 C 0.00011 0.67113 0.15663 0.0
C2695 C 0.01169 0.68504 0.1578 0.0
C2696 C 0.01779 0.69275 0.13759 0.0
C2697 C 0.01241 0.68651 0.11616 0.0
C2698 C 0.00085 0.6726 0.11489 0.0
C2699 C 0.90748 0.64504 0.1008 0.0
C2700 C 0.90963 0.65177 0.07849 0.0
C2701 C 0.92198 0.64067 0.1141 0.0
C2702 C 0.93878 0.64267 0.1051 0.0
C2703 C 0.94082 0.64885 0.08252 0.0
C2704 C 0.92641 0.65342 0.0694 0.0
C2705 C 0.95439 0.6393 0.11935 0.0
C2706 C 0.96683 0.6525 0.12111 0.0
C2707 C 0.95718 0.62342 0.131 0.0
C2708 C 0.94492 0.6087 0.12909 0.0
C2709 C 0.94046 0.60191 0.10741 0.0
C2710 C 0.92885 0.58807 0.10576 0.0
C2711 C 0.92171 0.58082 0.12568 0.0
C2712 C 0.92622 0.58738 0.1473 0.0
C2713 C 0.93782 0.60123 0.14905 0.0
H2714 H 0.91273 0.5701 0.12436 0.0
H2715 H 0.02664 0.70359 0.13851 0.0
H2716 H 0.09073 0.28641 0.92885 0.0
H2717 H 0.08633 0.25851 0.91001 0.0
H2718 H 0.13769 0.24243 0.93028 0.0
H2719 H 0.1423 0.27057 0.94886 0.0
H2720 H 0.13228 0.23504 0.88635 0.0
H2721 H 0.10186 0.22472 0.9559 0.0
H2722 H 0.08151 0.23049 0.98772 0.0
H2723 H 0.03891 0.23053 0.94014 0.0
H2724 H 0.05904 0.225 0.90795 0.0
H2725 H 0.11094 0.1495 0.84234 0.0
H2726 H 0.1193 0.17245 0.86959 0.0
H2727 H 0.07477 0.20248 0.84902 0.0
H2728 H 0.06655 0.17992 0.82169 0.0
H2729 H 0.07947 0.1994 0.89783 0.0
H2730 H 0.11156 0.21349 0.82814 0.0
H2731 H 0.1324 0.20731 0.79699 0.0
H2732 H 0.17264 0.19906 0.8469 0.0
H2733 H 0.15194 0.20496 0.87839 0.0
C2734 C 0.10102 0.27687 0.92954 0.0
C2735 C 0.11684 0.28064 0.94039 0.0
C2736 C 0.09847 0.26088 0.91883 0.0
C2737 C 0.1116 0.24827 0.91897 0.0
C2738 C 0.12736 0.25194 0.93002 0.0
C2739 C 0.12995 0.26799 0.94068 0.0
C2740 C 0.10906 0.23165 0.90655 0.0
C2741 C 0.12092 0.22704 0.88924 0.0
C2742 C 0.09419 0.22125 0.91017 0.0
C2743 C 0.08199 0.22456 0.92947 0.0
C2744 C 0.08817 0.22608 0.95218 0.0
C2745 C 0.07667 0.22929 0.9703 0.0
C2746 C 0.05893 0.23091 0.96595 0.0
C2747 C 0.05265 0.22928 0.94348 0.0
C2748 C 0.0641 0.22609 0.92529 0.0
C2749 C 0.10299 0.16103 0.84366 0.0
C2750 C 0.08815 0.16298 0.82986 0.0
C2751 C 0.10777 0.17408 0.85918 0.0
C2752 C 0.09761 0.18911 0.86128 0.0
C2753 C 0.08272 0.19095 0.84769 0.0
C2754 C 0.07811 0.17809 0.832 0.0
C2755 C 0.10243 0.20317 0.87738 0.0
C2756 C 0.09098 0.20726 0.89534 0.0
C2757 C 0.11774 0.21297 0.87452 0.0
C2758 C 0.13016 0.20942 0.85561 0.0
C2759 C 0.12481 0.21018 0.83248 0.0
C2760 C 0.1366 0.20677 0.81476 0.0
C2761 C 0.15382 0.20273 0.81996 0.0
C2762 C 0.15929 0.20215 0.8429 0.0
C2763 C 0.14753 0.20552 0.86069 0.0
H2764 H 0.16293 0.20011 0.80622 0.0
H2765 H 0.05004 0.23339 0.98 0.0
H2766 H 0.57025 0.34832 0.55564 0.0
H2767 H 0.54891 0.36103 0.58171 0.0
H2768 H 0.58693 0.36211 0.63616 0.0
H2769 H 0.60852 0.34947 0.60996 0.0
H2770 H 0.55549 0.34634 0.64847 0.0
H2771 H 0.57451 0.39937 0.61513 0.0
H2772 H 0.58257 0.41928 0.58371 0.0
H2773 H 0.53097 0.41625 0.55635 0.0
H2774 H 0.52264 0.39611 0.58741 0.0
H2775 H 0.48734 0.37971 0.7177 0.0
H2776 H 0.51594 0.37835 0.69938 0.0
H2777 H 0.49176 0.38101 0.63243 0.0
H2778 H 0.46334 0.38296 0.65058 0.0
H2779 H 0.52059 0.39886 0.6318 0.0
H2780 H 0.50355 0.34179 0.65859 0.0
H2781 H 0.49479 0.32035 0.68788 0.0
H2782 H 0.54191 0.32959 0.72528 0.0
H2783 H 0.55084 0.35125 0.69633 0.0
C2784 C 0.57414 0.35145 0.57308 0.0
C2785 C 0.59101 0.34788 0.58082 0.0
C2786 C 0.56197 0.3588 0.58791 0.0
C2787 C 0.5664 0.36264 0.61078 0.0
C2788 C 0.58332 0.35932 0.61851 0.0
C2789 C 0.59561 0.35214 0.60355 0.0
C2790 C 0.55286 0.36884 0.62684 0.0
C2791 C 0.54812 0.35807 0.64524 0.0
C2792 C 0.54307 0.38394 0.62224 0.0
C2793 C 0.54798 0.39614 0.60357 0.0
C2794 C 0.56491 0.40285 0.60233 0.0
C2795 C 0.56952 0.41419 0.58459 0.0
C2796 C 0.5573 0.41901 0.56803 0.0
C2797 C 0.54042 0.41251 0.56919 0.0
C2798 C 0.53574 0.40115 0.58689 0.0
C2799 C 0.48819 0.38025 0.69908 0.0
C2800 C 0.47313 0.38127 0.68554 0.0
C2801 C 0.50451 0.37942 0.68864 0.0
C2802 C 0.50599 0.37928 0.66451 0.0
C2803 C 0.49098 0.38109 0.65106 0.0
C2804 C 0.47472 0.38213 0.66147 0.0
C2805 C 0.52287 0.37606 0.653 0.0
C2806 C 0.52822 0.38738 0.63544 0.0
C2807 C 0.53309 0.36131 0.65813 0.0
C2808 C 0.52775 0.34828 0.67548 0.0
C2809 C 0.51198 0.33933 0.67316 0.0
C2810 C 0.50699 0.32713 0.68967 0.0
C2811 C 0.51776 0.32365 0.70847 0.0
C2812 C 0.53356 0.33233 0.71075 0.0
C2813 C 0.53859 0.34457 0.69429 0.0
H2814 H 0.51388 0.3142 0.72124 0.0
H2815 H 0.5609 0.4278 0.55431 0.0
H2816 H 0.06494 0.44125 0.28116 0.0
H2817 H 0.07286 0.46981 0.26683 0.0
H2818 H 0.12643 0.45419 0.26283 0.0
H2819 H 0.11855 0.4252 0.27713 0.0
H2820 H 0.1164 0.49165 0.28119 0.0
H2821 H 0.11178 0.45264 0.21652 0.0
H2822 H 0.09789 0.42884 0.19501 0.0
H2823 H 0.05106 0.45864 0.18945 0.0
H2824 H 0.06458 0.48249 0.21128 0.0
H2825 H 0.12193 0.57015 0.21536 0.0
H2826 H 0.12784 0.53984 0.22551 0.0
H2827 H 0.07313 0.52857 0.22174 0.0
H2828 H 0.06721 0.55857 0.2114 0.0
H2829 H 0.0917 0.50272 0.20359 0.0
H2830 H 0.09272 0.53796 0.27309 0.0
H2831 H 0.1036 0.56165 0.29769 0.0
H2832 H 0.15463 0.53942 0.29618 0.0
H2833 H 0.14405 0.51569 0.27137 0.0
C2834 C 0.07847 0.44392 0.27764 0.0
C2835 C 0.09111 0.43094 0.28003 0.0
C2836 C 0.08296 0.46025 0.26948 0.0
C2837 C 0.10017 0.46397 0.2636 0.0
C2838 C 0.11308 0.45148 0.26732 0.0
C2839 C 0.10856 0.43498 0.27545 0.0
C2840 C 0.10393 0.4804 0.25161 0.0
C2841 C 0.11153 0.49402 0.26395 0.0
C2842 C 0.09721 0.48344 0.22933 0.0
C2843 C 0.08918 0.46932 0.21563 0.0
C2844 C 0.09849 0.45407 0.21082 0.0
C2845 C 0.09068 0.44058 0.19857 0.0
C2846 C 0.0736 0.44222 0.19089 0.0
C2847 C 0.0643 0.45739 0.1954 0.0
C2848 C 0.07204 0.47091 0.20768 0.0
C2849 C 0.11123 0.5611 0.21631 0.0
C2850 C 0.0941 0.56671 0.21273 0.0
C2851 C 0.11461 0.54384 0.22221 0.0
C2852 C 0.1009 0.53201 0.22463 0.0
C2853 C 0.08391 0.53746 0.21995 0.0
C2854 C 0.08054 0.55463 0.21411 0.0
C2855 C 0.10379 0.51421 0.23336 0.0
C2856 C 0.09728 0.5003 0.22045 0.0
C2857 C 0.11132 0.51099 0.25521 0.0
C2858 C 0.11766 0.5252 0.27015 0.0
C2859 C 0.10629 0.53821 0.27787 0.0
C2860 C 0.11239 0.55162 0.29187 0.0
C2861 C 0.12981 0.55207 0.29842 0.0
C2862 C 0.14115 0.53908 0.29105 0.0
C2863 C 0.13511 0.52564 0.27703 0.0
H2864 H 0.13452 0.56246 0.30926 0.0
H2865 H 0.06757 0.43175 0.18144 0.0
H2866 H 0.82039 0.86053 0.53191 0.0
H2867 H 0.79014 0.86562 0.52054 0.0
H2868 H 0.78239 0.81049 0.51378 0.0
H2869 H 0.81244 0.80539 0.52464 0.0
H2870 H 0.7712 0.82712 0.4765 0.0
H2871 H 0.7659 0.83407 0.55938 0.0
H2872 H 0.77258 0.84749 0.5969 0.0
H2873 H 0.756 0.89697 0.57123 0.0
H2874 H 0.74943 0.88386 0.53345 0.0
H2875 H 0.68315 0.808 0.48186 0.0
H2876 H 0.71381 0.81233 0.49017 0.0
H2877 H 0.70736 0.86757 0.483 0.0
H2878 H 0.67641 0.8633 0.47446 0.0
H2879 H 0.72638 0.85707 0.52312 0.0
H2880 H 0.72759 0.84865 0.4419 0.0
H2881 H 0.72025 0.83459 0.40504 0.0
H2882 H 0.74433 0.78747 0.42789 0.0
H2883 H 0.75159 0.80116 0.46504 0.0
C2884 C 0.81213 0.84953 0.52827 0.0
C2885 C 0.81876 0.83257 0.52906 0.0
C2886 C 0.79487 0.85245 0.52178 0.0
C2887 C 0.78403 0.83843 0.51624 0.0
C2888 C 0.79056 0.82151 0.51778 0.0
C2889 C 0.80773 0.81861 0.52409 0.0
C2890 C 0.76606 0.84109 0.50791 0.0
C2891 C 0.76139 0.83362 0.48676 0.0
C2892 C 0.75341 0.85017 0.52084 0.0
C2893 C 0.75739 0.85803 0.54351 0.0
C2894 C 0.76383 0.84784 0.56168 0.0
C2895 C 0.76756 0.85538 0.583 0.0
C2896 C 0.76477 0.87308 0.58642 0.0
C2897 C 0.75819 0.88327 0.56854 0.0
C2898 C 0.75446 0.87579 0.54718 0.0
C2899 C 0.68823 0.82108 0.48193 0.0
C2900 C 0.67742 0.83532 0.47743 0.0
C2901 C 0.70576 0.82352 0.48664 0.0
C2902 C 0.71284 0.84025 0.48702 0.0
C2903 C 0.7021 0.85456 0.4827 0.0
C2904 C 0.6845 0.8521 0.47774 0.0
C2905 C 0.73148 0.84245 0.49225 0.0
C2906 C 0.73628 0.85088 0.51269 0.0
C2907 C 0.74429 0.83421 0.47873 0.0
C2908 C 0.74005 0.82592 0.45633 0.0
C2909 C 0.73122 0.83525 0.43914 0.0
C2910 C 0.72709 0.82735 0.41818 0.0
C2911 C 0.7318 0.81014 0.41414 0.0
C2912 C 0.74069 0.8008 0.43104 0.0
C2913 C 0.74484 0.80864 0.45204 0.0
H2914 H 0.72859 0.80405 0.3979 0.0
H2915 H 0.76766 0.8789 0.60295 0.0
H2916 H 0.40903 0.4332 0.68433 0.0
H2917 H 0.40514 0.46455 0.68943 0.0
H2918 H 0.403 0.4576 0.76309 0.0
H2919 H 0.40733 0.42641 0.75816 0.0
H2920 H 0.37827 0.48371 0.74215 0.0
H2921 H 0.43924 0.46623 0.74611 0.0
H2922 H 0.46508 0.45155 0.73045 0.0
H2923 H 0.4623 0.48289 0.66944 0.0
H2924 H 0.43624 0.49756 0.68462 0.0
H2925 H 0.40441 0.56408 0.79099 0.0
H2926 H 0.39836 0.53403 0.78004 0.0
H2927 H 0.41955 0.54375 0.71238 0.0
H2928 H 0.42647 0.57336 0.72375 0.0
H2929 H 0.43257 0.51617 0.7269 0.0
H2930 H 0.37443 0.53676 0.72368 0.0
H2931 H 0.34785 0.55131 0.73718 0.0
H2932 H 0.34369 0.5151 0.79305 0.0
H2933 H 0.3704 0.50046 0.78008 0.0
C2934 C 0.40739 0.43835 0.70155 0.0
C2935 C 0.40865 0.4275 0.72088 0.0
C2936 C 0.40513 0.45619 0.70442 0.0
C2937 C 0.4038 0.46328 0.72663 0.0
C2938 C 0.40391 0.4523 0.74584 0.0
C2939 C 0.40651 0.43455 0.743 0.0
C2940 C 0.40458 0.48219 0.7301 0.0
C2941 C 0.39009 0.49091 0.73892 0.0
C2942 C 0.41992 0.49148 0.72533 0.0
C2943 C 0.43569 0.48283 0.71636 0.0
C2944 C 0.44405 0.46988 0.72927 0.0
C2945 C 0.45875 0.46158 0.7205 0.0
C2946 C 0.4653 0.46625 0.69893 0.0
C2947 C 0.45719 0.47926 0.68612 0.0
C2948 C 0.44246 0.48757 0.6948 0.0
C2949 C 0.4076 0.55978 0.77374 0.0
C2950 C 0.41602 0.57091 0.75826 0.0
C2951 C 0.40402 0.54266 0.7674 0.0
C2952 C 0.40835 0.53661 0.74526 0.0
C2953 C 0.41616 0.54803 0.72957 0.0
C2954 C 0.4201 0.56496 0.73607 0.0
C2955 C 0.40616 0.51807 0.73902 0.0
C2956 C 0.42052 0.50926 0.72982 0.0
C2957 C 0.39057 0.50883 0.74312 0.0
C2958 C 0.37451 0.5176 0.75101 0.0
C2959 C 0.36793 0.53198 0.73895 0.0
C2960 C 0.35282 0.54023 0.74649 0.0
C2961 C 0.34411 0.53416 0.76599 0.0
C2962 C 0.35047 0.5198 0.77796 0.0
C2963 C 0.36558 0.51151 0.7705 0.0
H2964 H 0.33241 0.54056 0.77179 0.0
H2965 H 0.47668 0.45981 0.69217 0.0
H2966 H 0.82262 0.13535 0.99107 0.0
H2967 H 0.7918 0.13231 0.00046 0.0
H2968 H 0.77867 0.16566 0.94345 0.0
H2969 H 0.80935 0.16884 0.93407 0.0
H2970 H 0.76641 0.17747 0.98461 0.0
H2971 H 0.76754 0.12371 0.94257 0.0
H2972 H 0.77805 0.09438 0.93319 0.0
H2973 H 0.76505 0.07708 0.00133 0.0
H2974 H 0.75468 0.10639 0.01124 0.0
H2975 H 0.67719 0.17777 0.98035 0.0
H2976 H 0.7068 0.17009 0.97006 0.0
H2977 H 0.71223 0.14168 0.03362 0.0
H2978 H 0.68227 0.14931 0.04413 0.0
H2979 H 0.72876 0.12573 0.99302 0.0
H2980 H 0.72747 0.17908 0.03505 0.0
H2981 H 0.71675 0.20829 0.04467 0.0
H2982 H 0.73067 0.22626 0.97715 0.0
H2983 H 0.74121 0.19706 0.96699 0.0
C2984 C 0.81312 0.14167 0.98019 0.0
C2985 C 0.81837 0.15249 0.96199 0.0
C2986 C 0.79553 0.13989 0.98555 0.0
C2987 C 0.78299 0.14884 0.97271 0.0
C2988 C 0.78817 0.15871 0.95362 0.0
C2989 C 0.8057 0.16049 0.94826 0.0
C2990 C 0.76479 0.14976 0.98069 0.0
C2991 C 0.75814 0.16616 0.98617 0.0
C2992 C 0.75426 0.13491 0.98365 0.0
C2993 C 0.76052 0.1173 0.97773 0.0
C2994 C 0.76708 0.1137 0.95564 0.0
C2995 C 0.77298 0.09707 0.9502 0.0
C2996 C 0.77227 0.08389 0.96667 0.0
C2997 C 0.76562 0.08731 0.9886 0.0
C2998 C 0.75972 0.10393 0.99413 0.0
C2999 C 0.68456 0.1697 0.99206 0.0
C3000 C 0.67752 0.16434 0.01321 0.0
C3001 C 0.70146 0.16528 0.98611 0.0
C3002 C 0.71171 0.1555 0.00121 0.0
C3003 C 0.70446 0.14925 0.02177 0.0
C3004 C 0.68743 0.15368 0.02778 0.0
C3005 C 0.73039 0.15347 0.99624 0.0
C3006 C 0.73713 0.13696 0.99153 0.0
C3007 C 0.74116 0.16819 0.99409 0.0
C3008 C 0.73499 0.18584 0.0002 0.0
C3009 C 0.72812 0.18922 0.02219 0.0
C3010 C 0.72209 0.20578 0.02775 0.0
C3011 C 0.723 0.21912 0.01152 0.0
C3012 C 0.72997 0.21592 0.9897 0.0
C3013 C 0.73598 0.19937 0.98404 0.0
H3014 H 0.71833 0.23193 0.01585 0.0
H3015 H 0.77684 0.07102 0.96243 0.0
H3016 H 0.91727 0.42188 0.73344 0.0
H3017 H 0.91057 0.45203 0.72448 0.0
H3018 H 0.90781 0.46372 0.7971 0.0
H3019 H 0.91379 0.43324 0.80614 0.0
H3020 H 0.88426 0.48204 0.77465 0.0
H3021 H 0.94501 0.4713 0.76546 0.0
H3022 H 0.971 0.4563 0.75081 0.0
H3023 H 0.95648 0.46888 0.68139 0.0
H3024 H 0.93026 0.48376 0.69562 0.0
H3025 H 0.91181 0.57048 0.77027 0.0
H3026 H 0.90698 0.53956 0.77665 0.0
H3027 H 0.90146 0.53178 0.70343 0.0
H3028 H 0.90614 0.56283 0.69691 0.0
H3029 H 0.92713 0.5114 0.72428 0.0
H3030 H 0.86731 0.52551 0.73616 0.0
H3031 H 0.84285 0.54157 0.75323 0.0
H3032 H 0.85762 0.52412 0.82066 0.0
H3033 H 0.88233 0.50813 0.80404 0.0
C3034 C 0.91506 0.43085 0.74749 0.0
C3035 C 0.91627 0.42533 0.77048 0.0
C3036 C 0.91126 0.44807 0.74236 0.0
C3037 C 0.90911 0.46023 0.76011 0.0
C3038 C 0.9095 0.45458 0.78312 0.0
C3039 C 0.91298 0.43721 0.78828 0.0
C3040 C 0.90758 0.47895 0.75462 0.0
C3041 C 0.8937 0.4885 0.76378 0.0
C3042 C 0.91979 0.48735 0.7402 0.0
C3043 C 0.93558 0.47848 0.73159 0.0
C3044 C 0.9473 0.47076 0.74706 0.0
C3045 C 0.96208 0.4623 0.73884 0.0
C3046 C 0.96537 0.4616 0.71518 0.0
C3047 C 0.9539 0.46941 0.6997 0.0
C3048 C 0.93909 0.47787 0.70784 0.0
C3049 C 0.90921 0.56224 0.75556 0.0
C3050 C 0.90946 0.56899 0.73308 0.0
C3051 C 0.90636 0.5446 0.75925 0.0
C3052 C 0.90383 0.53342 0.74051 0.0
C3053 C 0.90334 0.54025 0.7181 0.0
C3054 C 0.90597 0.55795 0.71441 0.0
C3055 C 0.9038 0.51447 0.74422 0.0
C3056 C 0.91753 0.50489 0.73485 0.0
C3057 C 0.89167 0.5062 0.7588 0.0
C3058 C 0.87676 0.51572 0.76885 0.0
C3059 C 0.86543 0.5252 0.75465 0.0
C3060 C 0.8515 0.53427 0.76424 0.0
C3061 C 0.84871 0.5339 0.78802 0.0
C3062 C 0.85981 0.52441 0.80225 0.0
C3063 C 0.87376 0.51532 0.79274 0.0
H3064 H 0.83792 0.54093 0.79542 0.0
H3065 H 0.97682 0.45504 0.70885 0.0
H3066 H 0.32325 0.13262 0.52108 0.0
H3067 H 0.29315 0.12507 0.5112 0.0
H3068 H 0.27999 0.17937 0.50906 0.0
H3069 H 0.30983 0.18693 0.51851 0.0
H3070 H 0.25558 0.15871 0.53272 0.0
H3071 H 0.28879 0.1597 0.46089 0.0
H3072 H 0.31221 0.14957 0.43527 0.0
H3073 H 0.29184 0.09785 0.43795 0.0
H3074 H 0.26843 0.10765 0.46388 0.0
H3075 H 0.18921 0.1833 0.46198 0.0
H3076 H 0.21881 0.17699 0.47395 0.0
H3077 H 0.2076 0.12228 0.47361 0.0
H3078 H 0.17764 0.1285 0.46172 0.0
H3079 H 0.2431 0.13458 0.45518 0.0
H3080 H 0.2063 0.13537 0.52132 0.0
H3081 H 0.18246 0.14657 0.54539 0.0
H3082 H 0.20942 0.19484 0.55348 0.0
H3083 H 0.23327 0.18405 0.52906 0.0
C3084 C 0.31384 0.14288 0.51871 0.0
C3085 C 0.31882 0.16035 0.52044 0.0
C3086 C 0.29673 0.13857 0.51304 0.0
C3087 C 0.28443 0.15168 0.50939 0.0
C3088 C 0.2893 0.16907 0.51189 0.0
C3089 C 0.30636 0.17337 0.51719 0.0
C3090 C 0.26657 0.14771 0.5019 0.0
C3091 C 0.25283 0.15327 0.51588 0.0
C3092 C 0.26301 0.1402 0.48017 0.0
C3093 C 0.27703 0.13435 0.46456 0.0
C3094 C 0.28941 0.14614 0.45619 0.0
C3095 C 0.30266 0.14047 0.44158 0.0
C3096 C 0.30355 0.12306 0.43506 0.0
C3097 C 0.29116 0.11131 0.44307 0.0
C3098 C 0.2779 0.11692 0.45772 0.0
C3099 C 0.19308 0.16989 0.46399 0.0
C3100 C 0.18108 0.15639 0.46116 0.0
C3101 C 0.20999 0.16632 0.47083 0.0
C3102 C 0.21523 0.1492 0.47489 0.0
C3103 C 0.2037 0.13556 0.47056 0.0
C3104 C 0.18664 0.13914 0.46381 0.0
C3105 C 0.23225 0.14612 0.48572 0.0
C3106 C 0.2458 0.13936 0.47238 0.0
C3107 C 0.23567 0.15246 0.50811 0.0
C3108 C 0.22154 0.15892 0.52323 0.0
C3109 C 0.20709 0.14842 0.52809 0.0
C3110 C 0.19358 0.15469 0.54181 0.0
C3111 C 0.19442 0.17141 0.55094 0.0
C3112 C 0.20879 0.18188 0.5464 0.0
C3113 C 0.22232 0.17569 0.53264 0.0
H3114 H 0.18394 0.17625 0.56154 0.0
H3115 H 0.31381 0.1187 0.42374 0.0
H3116 H 0.55612 0.56336 0.26988 0.0
H3117 H 0.56149 0.53296 0.26134 0.0
H3118 H 0.61532 0.53924 0.27957 0.0
H3119 H 0.61 0.57 0.28827 0.0
H3120 H 0.60997 0.52146 0.23741 0.0
H3121 H 0.59169 0.51734 0.31525 0.0
H3122 H 0.57352 0.52338 0.34926 0.0
H3123 H 0.52956 0.50074 0.31538 0.0
H3124 H 0.5474 0.4948 0.28101 0.0
H3125 H 0.61338 0.42735 0.22597 0.0
H3126 H 0.61728 0.45731 0.23913 0.0
H3127 H 0.56253 0.46658 0.23034 0.0
H3128 H 0.55854 0.43681 0.21737 0.0
H3129 H 0.57409 0.47546 0.2733 0.0
H3130 H 0.59166 0.48373 0.1937 0.0
H3131 H 0.60973 0.47812 0.15944 0.0
H3132 H 0.65528 0.49285 0.19713 0.0
H3133 H 0.63749 0.49833 0.23172 0.0
C3134 C 0.5691 0.55829 0.27224 0.0
C3135 C 0.58264 0.56902 0.27979 0.0
C3136 C 0.57213 0.5409 0.26741 0.0
C3137 C 0.58876 0.53385 0.27002 0.0
C3138 C 0.60239 0.54448 0.27755 0.0
C3139 C 0.59931 0.56196 0.2826 0.0
C3140 C 0.59162 0.51541 0.26422 0.0
C3141 C 0.60247 0.51129 0.24559 0.0
C3142 C 0.58169 0.50224 0.2748 0.0
C3143 C 0.57089 0.5057 0.29549 0.0
C3144 C 0.57812 0.51376 0.31498 0.0
C3145 C 0.56789 0.51715 0.33434 0.0
C3146 C 0.5504 0.51246 0.33447 0.0
C3147 C 0.54312 0.50435 0.31525 0.0
C3148 C 0.55329 0.50094 0.29584 0.0
C3149 C 0.60226 0.43589 0.22647 0.0
C3150 C 0.58564 0.42975 0.22077 0.0
C3151 C 0.6045 0.45298 0.234 0.0
C3152 C 0.59016 0.46409 0.23584 0.0
C3153 C 0.57373 0.45815 0.22921 0.0
C3154 C 0.57149 0.44116 0.22171 0.0
C3155 C 0.59184 0.48163 0.24587 0.0
C3156 C 0.58188 0.48554 0.26541 0.0
C3157 C 0.60261 0.49453 0.23615 0.0
C3158 C 0.61328 0.49122 0.21537 0.0
C3159 C 0.60555 0.48561 0.19474 0.0
C3160 C 0.61573 0.48249 0.17525 0.0
C3161 C 0.63365 0.48506 0.17613 0.0
C3162 C 0.64141 0.49082 0.19649 0.0
C3163 C 0.63129 0.49394 0.21604 0.0
H3164 H 0.64151 0.48265 0.16102 0.0
H3165 H 0.54249 0.5151 0.34947 0.0
H3166 H 0.1818 0.86698 0.02771 0.0
H3167 H 0.21223 0.8715 0.01689 0.0
H3168 H 0.22213 0.8169 0.02581 0.0
H3169 H 0.19189 0.81231 0.03653 0.0
H3170 H 0.24869 0.83749 0.04282 0.0
H3171 H 0.21308 0.83223 0.97382 0.0
H3172 H 0.18922 0.84106 0.94811 0.0
H3173 H 0.21178 0.89165 0.94123 0.0
H3174 H 0.23566 0.88317 0.9672 0.0
H3175 H 0.31467 0.80791 0.97309 0.0
H3176 H 0.2856 0.81442 0.98703 0.0
H3177 H 0.29411 0.86885 0.97476 0.0
H3178 H 0.32353 0.86244 0.96081 0.0
H3179 H 0.25962 0.8553 0.96189 0.0
H3180 H 0.29802 0.85867 0.02578 0.0
H3181 H 0.32234 0.84906 0.0502 0.0
H3182 H 0.29488 0.80231 0.06666 0.0
H3183 H 0.27051 0.81148 0.04196 0.0
C3184 C 0.19057 0.85602 0.02773 0.0
C3185 C 0.1845 0.83928 0.0328 0.0
C3186 C 0.20789 0.85861 0.02149 0.0
C3187 C 0.21935 0.8445 0.02038 0.0
C3188 C 0.21349 0.82795 0.02659 0.0
C3189 C 0.1962 0.82534 0.03262 0.0
C3190 C 0.23714 0.8465 0.01124 0.0
C3191 C 0.2511 0.84144 0.02517 0.0
C3192 C 0.24029 0.85211 0.98839 0.0
C3193 C 0.22602 0.85715 0.97267 0.0
C3194 C 0.21287 0.84528 0.96697 0.0
C3195 C 0.19936 0.85021 0.95233 0.0
C3196 C 0.19895 0.86693 0.9431 0.0
C3197 C 0.21209 0.87872 0.94844 0.0
C3198 C 0.22561 0.87386 0.96311 0.0
C3199 C 0.31032 0.82126 0.97301 0.0
C3200 C 0.32141 0.83469 0.96604 0.0
C3201 C 0.29372 0.82495 0.98104 0.0
C3202 C 0.28787 0.84212 0.98221 0.0
C3203 C 0.29849 0.85553 0.97404 0.0
C3204 C 0.31524 0.85184 0.9661 0.0
C3205 C 0.27103 0.8458 0.99329 0.0
C3206 C 0.25728 0.85185 0.97975 0.0
C3207 C 0.26806 0.84116 0.01653 0.0
C3208 C 0.28247 0.83573 0.03189 0.0
C3209 C 0.2972 0.84629 0.03449 0.0
C3210 C 0.31099 0.84093 0.04838 0.0
C3211 C 0.31016 0.82508 0.05992 0.0
C3212 C 0.2955 0.81458 0.05768 0.0
C3213 C 0.28168 0.81987 0.04376 0.0
H3214 H 0.32087 0.82095 0.0706 0.0
H3215 H 0.18848 0.87072 0.93177 0.0
H3216 H 0.5747 0.94103 0.81093 0.0
H3217 H 0.57818 0.97125 0.79957 0.0
H3218 H 0.624 0.95798 0.7608 0.0
H3219 H 0.62076 0.92758 0.77252 0.0
H3220 H 0.62562 0.99149 0.78196 0.0
H3221 H 0.58856 0.95885 0.73232 0.0
H3222 H 0.56491 0.93848 0.72327 0.0
H3223 H 0.52813 0.97269 0.75514 0.0
H3224 H 0.55161 0.99313 0.76474 0.0
H3225 H 0.61039 0.0704 0.71516 0.0
H3226 H 0.61712 0.04022 0.72555 0.0
H3227 H 0.57159 0.03858 0.76866 0.0
H3228 H 0.5648 0.06836 0.75839 0.0
H3229 H 0.57349 0.01114 0.73916 0.0
H3230 H 0.61148 0.04238 0.79177 0.0
H3231 H 0.63539 0.06241 0.80099 0.0
H3232 H 0.67072 0.03086 0.76214 0.0
H3233 H 0.64694 0.01075 0.75243 0.0
C3234 C 0.58576 0.9446 0.80046 0.0
C3235 C 0.59733 0.93196 0.79233 0.0
C3236 C 0.58773 0.96186 0.79398 0.0
C3237 C 0.60113 0.96673 0.77897 0.0
C3238 C 0.61354 0.95442 0.77233 0.0
C3239 C 0.61166 0.93709 0.77901 0.0
C3240 C 0.60074 0.98412 0.76827 0.0
C3241 C 0.61438 0.99575 0.77226 0.0
C3242 C 0.58611 0.98958 0.75551 0.0
C3243 C 0.57187 0.97747 0.74937 0.0
C3244 C 0.57545 0.96198 0.73752 0.0
C3245 C 0.56207 0.95042 0.73228 0.0
C3246 C 0.54503 0.95428 0.73866 0.0
C3247 C 0.54133 0.96972 0.75022 0.0
C3248 C 0.55467 0.98131 0.75554 0.0
C3249 C 0.6019 0.06356 0.72691 0.0
C3250 C 0.58703 0.07168 0.73587 0.0
C3251 C 0.60578 0.0464 0.73288 0.0
C3252 C 0.59483 0.03721 0.74787 0.0
C3253 C 0.58016 0.04542 0.75699 0.0
C3254 C 0.57631 0.06246 0.7511 0.0
C3255 C 0.598 0.01882 0.7537 0.0
C3256 C 0.58487 0.00687 0.74857 0.0
C3257 C 0.61314 0.01314 0.76522 0.0
C3258 C 0.6274 0.02519 0.77114 0.0
C3259 C 0.62431 0.0398 0.78502 0.0
C3260 C 0.63784 0.05115 0.79037 0.0
C3261 C 0.65455 0.04794 0.78209 0.0
C3262 C 0.65777 0.03335 0.7685 0.0
C3263 C 0.64427 0.02197 0.76308 0.0
H3264 H 0.66501 0.05674 0.78625 0.0
H3265 H 0.53469 0.94531 0.7346 0.0
H3266 H 0.31527 0.35174 0.05392 0.0
H3267 H 0.28494 0.35924 0.04542 0.0
H3268 H 0.28659 0.327 0.98479 0.0
H3269 H 0.31658 0.31915 0.99342 0.0
H3270 H 0.27127 0.36137 0.97855 0.0
H3271 H 0.26888 0.31043 0.02772 0.0
H3272 H 0.27515 0.29402 0.0632 0.0
H3273 H 0.24891 0.33267 0.10342 0.0
H3274 H 0.24271 0.34945 0.06815 0.0
H3275 H 0.18763 0.33486 0.94587 0.0
H3276 H 0.21786 0.33881 0.95713 0.0
H3277 H 0.20151 0.36406 0.0198 0.0
H3278 H 0.17115 0.36004 0.00867 0.0
H3279 H 0.22427 0.33868 0.02851 0.0
H3280 H 0.22219 0.38717 0.97879 0.0
H3281 H 0.21574 0.40374 0.94352 0.0
H3282 H 0.25009 0.37105 0.9048 0.0
H3283 H 0.25655 0.3541 0.93977 0.0
C3284 C 0.30913 0.34631 0.03878 0.0
C3285 C 0.31818 0.33479 0.0244 0.0
C3286 C 0.29187 0.35061 0.03394 0.0
C3287 C 0.28362 0.34369 0.01446 0.0
C3288 C 0.29279 0.33252 -0.00016 0.0
C3289 C 0.30986 0.32796 0.00488 0.0
C3290 C 0.26519 0.34739 0.00959 0.0
C3291 C 0.26095 0.35642 0.9894 0.0
C3292 C 0.25183 0.34136 0.02418 0.0
C3293 C 0.25557 0.33131 0.04536 0.0
C3294 C 0.26462 0.31552 0.04416 0.0
C3295 C 0.26812 0.30613 0.06422 0.0
C3296 C 0.26249 0.31233 0.08556 0.0
C3297 C 0.2533 0.32791 0.08688 0.0
C3298 C 0.24979 0.33736 0.06686 0.0
C3299 C 0.19047 0.34154 0.96185 0.0
C3300 C 0.17705 0.34711 0.97641 0.0
C3301 C 0.20776 0.34385 0.96823 0.0
C3302 C 0.21194 0.35183 0.98925 0.0
C3303 C 0.19856 0.35791 0.00348 0.0
C3304 C 0.18124 0.35566 0.99706 0.0
C3305 C 0.23023 0.35236 0.99709 0.0
C3306 C 0.2345 0.34405 0.01785 0.0
C3307 C 0.2436 0.35915 0.98306 0.0
C3308 C 0.23977 0.36928 0.96191 0.0
C3309 C 0.22826 0.38342 0.96272 0.0
C3310 C 0.22462 0.3929 0.94279 0.0
C3311 C 0.23248 0.38843 0.92193 0.0
C3312 C 0.24401 0.37449 0.92097 0.0
C3313 C 0.24769 0.36496 0.94086 0.0
H3314 H 0.22965 0.39579 0.90651 0.0
H3315 H 0.2652 0.30504 0.10108 0.0
H3316 H 0.90458 0.06399 0.30341 0.0
H3317 H 0.90106 0.03285 0.29599 0.0
H3318 H 0.90999 0.0415 0.22357 0.0
H3319 H 0.91407 0.07248 0.23094 0.0
H3320 H 0.88065 0.01583 0.23915 0.0
H3321 H 0.94249 0.03077 0.24557 0.0
H3322 H 0.96704 0.04421 0.2661 0.0
H3323 H 0.95666 0.01256 0.32537 0.0
H3324 H 0.93185 0.99915 0.30527 0.0
H3325 H 0.90594 0.9342 0.19391 0.0
H3326 H 0.90142 0.96471 0.20385 0.0
H3327 H 0.91701 0.95404 0.27391 0.0
H3328 H 0.92256 0.92391 0.26359 0.0
H3329 H 0.93197 0.98107 0.26198 0.0
H3330 H 0.87312 0.96306 0.2563 0.0
H3331 H 0.84724 0.94969 0.23885 0.0
H3332 H 0.8494 0.98606 0.18295 0.0
H3333 H 0.87544 0.9995 0.19991 0.0
C3334 C 0.90548 0.05925 0.28589 0.0
C3335 C 0.90972 0.07052 0.26775 0.0
C3336 C 0.90345 0.04154 0.28169 0.0
C3337 C 0.90525 0.03501 0.25925 0.0
C3338 C 0.90846 0.04639 0.24096 0.0
C3339 C 0.9109 0.064 0.24521 0.0
C3340 C 0.90578 0.01617 0.25516 0.0
C3341 C 0.89185 0.00813 0.24398 0.0
C3342 C 0.9202 0.00623 0.26211 0.0
C3343 C 0.93522 0.01413 0.27405 0.0
C3344 C 0.94535 0.02681 0.26306 0.0
C3345 C 0.95932 0.03439 0.2746 0.0
C3346 C 0.96337 0.02928 0.29706 0.0
C3347 C 0.95348 0.01654 0.30799 0.0
C3348 C 0.93947 0.00894 0.29654 0.0
C3349 C 0.9083 0.93843 0.21142 0.0
C3350 C 0.91469 0.92682 0.22796 0.0
C3351 C 0.90557 0.95581 0.21717 0.0
C3352 C 0.90865 0.96171 0.23975 0.0
C3353 C 0.91461 0.9499 0.25637 0.0
C3354 C 0.91777 0.93268 0.25047 0.0
C3355 C 0.90677 0.98033 0.24578 0.0
C3356 C 0.92056 0.98848 0.2573 0.0
C3357 C 0.892 0.99023 0.23955 0.0
C3358 C 0.87633 0.98219 0.22928 0.0
C3359 C 0.86816 0.96812 0.2402 0.0
C3360 C 0.85344 0.96054 0.23041 0.0
C3361 C 0.84671 0.96699 0.20978 0.0
C3362 C 0.85465 0.98106 0.19892 0.0
C3363 C 0.86937 0.98868 0.20863 0.0
H3364 H 0.83531 0.96111 0.20223 0.0
H3365 H 0.9742 0.03517 0.30596 0.0
H3366 H 0.32101 0.65168 0.50513 0.0
H3367 H 0.29023 0.64773 0.51346 0.0
H3368 H 0.27764 0.66198 0.44357 0.0
H3369 H 0.30845 0.66608 0.43515 0.0
H3370 H 0.2613 0.68202 0.47549 0.0
H3371 H 0.2704 0.62108 0.46278 0.0
H3372 H 0.28485 0.59292 0.46858 0.0
H3373 H 0.27143 0.59407 0.54036 0.0
H3374 H 0.2571 0.62236 0.53506 0.0
H3375 H 0.1716 0.67528 0.48426 0.0
H3376 H 0.20155 0.67019 0.47273 0.0
H3377 H 0.21296 0.64995 0.54039 0.0
H3378 H 0.18253 0.65417 0.5516 0.0
H3379 H 0.23004 0.63204 0.50956 0.0
H3380 H 0.22311 0.69258 0.52447 0.0
H3381 H 0.20964 0.72146 0.52117 0.0
H3382 H 0.22051 0.72214 0.44862 0.0
H3383 H 0.23384 0.69316 0.45143 0.0
C3384 C 0.31172 0.65357 0.49138 0.0
C3385 C 0.3171 0.65933 0.46954 0.0
C3386 C 0.29413 0.65124 0.49614 0.0
C3387 C 0.28166 0.65457 0.47913 0.0
C3388 C 0.28708 0.65935 0.45693 0.0
C3389 C 0.30468 0.66164 0.45213 0.0
C3390 C 0.26304 0.65516 0.48524 0.0
C3391 C 0.25436 0.67099 0.48251 0.0
C3392 C 0.25428 0.64099 0.49538 0.0
C3393 C 0.26279 0.62392 0.49855 0.0
C3394 C 0.27064 0.6154 0.47984 0.0
C3395 C 0.27879 0.5994 0.48303 0.0
C3396 C 0.27909 0.59173 0.50483 0.0
C3397 C 0.2712 0.60003 0.52348 0.0
C3398 C 0.26304 0.61604 0.52039 0.0
C3399 C 0.18049 0.66969 0.49666 0.0
C3400 C 0.17488 0.66535 0.51892 0.0
C3401 C 0.19761 0.66683 0.49008 0.0
C3402 C 0.20964 0.66012 0.50588 0.0
C3403 C 0.20393 0.65524 0.52795 0.0
C3404 C 0.18661 0.65772 0.53438 0.0
C3405 C 0.22823 0.65886 0.49949 0.0
C3406 C 0.23694 0.64302 0.50235 0.0
C3407 C 0.23721 0.67313 0.48984 0.0
C3408 C 0.22933 0.69063 0.48813 0.0
C3409 C 0.22253 0.69885 0.50779 0.0
C3410 C 0.21493 0.71524 0.50601 0.0
C3411 C 0.21418 0.72361 0.48469 0.0
C3412 C 0.22108 0.71563 0.46512 0.0
C3413 C 0.22867 0.69923 0.46679 0.0
H3414 H 0.20829 0.7363 0.48335 0.0
H3415 H 0.28541 0.57934 0.50727 0.0
H3416 H 0.43522 0.0585 0.20383 0.0
H3417 H 0.42842 0.02824 0.21127 0.0
H3418 H 0.3762 0.04233 0.2302 0.0
H3419 H 0.38301 0.07296 0.22277 0.0
H3420 H 0.39214 0.02116 0.26233 0.0
H3421 H 0.38179 0.01988 0.18185 0.0
H3422 H 0.3874 0.02595 0.14083 0.0
H3423 H 0.43443 0.9963 0.14398 0.0
H3424 H 0.42926 0.99026 0.18511 0.0
H3425 H 0.38736 0.92842 0.28029 0.0
H3426 H 0.37998 0.95784 0.26751 0.0
H3427 H 0.43054 0.96272 0.23632 0.0
H3428 H 0.43776 0.93342 0.24849 0.0
H3429 H 0.40615 0.97377 0.20769 0.0
H3430 H 0.4198 0.98138 0.28929 0.0
H3431 H 0.41541 0.97613 0.33081 0.0
H3432 H 0.36294 0.99427 0.32547 0.0
H3433 H 0.36698 0.99944 0.28384 0.0
C3434 C 0.42221 0.05518 0.20928 0.0
C3435 C 0.40964 0.06806 0.21274 0.0
C3436 C 0.41831 0.03786 0.21341 0.0
C3437 C 0.40175 0.03303 0.22104 0.0
C3438 C 0.38902 0.04582 0.22418 0.0
C3439 C 0.3929 0.06325 0.21987 0.0
C3440 C 0.39849 0.01472 0.22721 0.0
C3441 C 0.39472 0.01074 0.25025 0.0
C3442 C 0.40202 0.00119 0.21147 0.0
C3443 C 0.40514 0.00465 0.18663 0.0
C3444 C 0.39338 0.01473 0.17384 0.0
C3445 C 0.39648 0.01816 0.15055 0.0
C3446 C 0.41126 0.01152 0.13981 0.0
C3447 C 0.42297 0.00142 0.15232 0.0
C3448 C 0.41994 0.99795 0.17562 0.0
C3449 C 0.39689 0.93585 0.2708 0.0
C3450 C 0.41313 0.92867 0.26537 0.0
C3451 C 0.39266 0.95262 0.26352 0.0
C3452 C 0.40471 0.96247 0.25096 0.0
C3453 C 0.42098 0.95531 0.24581 0.0
C3454 C 0.42513 0.93859 0.25289 0.0
C3455 C 0.40075 0.98029 0.24305 0.0
C3456 C 0.40308 0.98414 0.21962 0.0
C3457 C 0.396 0.99368 0.25846 0.0
C3458 C 0.39361 0.99057 0.28344 0.0
C3459 C 0.40729 0.98411 0.29695 0.0
C3460 C 0.40487 0.98118 0.3205 0.0
C3461 C 0.38889 0.9848 0.33076 0.0
C3462 C 0.3753 0.99142 0.3175 0.0
C3463 C 0.37764 0.99437 0.29393 0.0
H3464 H 0.38705 0.98252 0.34899 0.0
H3465 H 0.41364 0.0142 0.12178 0.0
H3466 H 0.82564 0.62689 0.02075 0.0
H3467 H 0.79575 0.61918 0.01052 0.0
H3468 H 0.77712 0.66425 0.04689 0.0
H3469 H 0.80672 0.67184 0.05733 0.0
H3470 H 0.75499 0.63759 0.05176 0.0
H3471 H 0.78691 0.66581 0.98942 0.0
H3472 H 0.81081 0.66774 0.96129 0.0
H3473 H 0.79552 0.61904 0.93187 0.0
H3474 H 0.77165 0.61673 0.96008 0.0
H3475 H 0.68807 0.68109 0.99794 0.0
H3476 H 0.71651 0.67131 0.0107 0.0
H3477 H 0.71026 0.62383 0.97244 0.0
H3478 H 0.6814 0.6335 0.95968 0.0
H3479 H 0.74391 0.64175 0.9677 0.0
H3480 H 0.7065 0.61897 0.02539 0.0
H3481 H 0.68222 0.61969 0.05299 0.0
H3482 H 0.70748 0.66015 0.09102 0.0
H3483 H 0.73179 0.65989 0.06344 0.0
C3484 C 0.8151 0.63487 0.02704 0.0
C3485 C 0.81848 0.65007 0.0396 0.0
C3486 C 0.79807 0.63049 0.02112 0.0
C3487 C 0.78426 0.64129 0.02766 0.0
C3488 C 0.78757 0.65573 0.04165 0.0
C3489 C 0.80452 0.66011 0.04752 0.0
C3490 C 0.76661 0.63897 0.01808 0.0
C3491 C 0.75255 0.63833 0.03338 0.0
C3492 C 0.76344 0.63953 0.99405 0.0
C3493 C 0.77767 0.64098 0.97702 0.0
C3494 C 0.78873 0.65546 0.97705 0.0
C3495 C 0.80226 0.65663 0.96109 0.0
C3496 C 0.80472 0.64349 0.94486 0.0
C3497 C 0.79362 0.62919 0.9445 0.0
C3498 C 0.7801 0.62794 0.96047 0.0
C3499 C 0.69273 0.6686 0.99208 0.0
C3500 C 0.6825 0.65803 0.97785 0.0
C3501 C 0.70895 0.663 -0.00051 0.0
C3502 C 0.71532 0.64677 0.99275 0.0
C3503 C 0.70545 0.63636 0.97791 0.0
C3504 C 0.68903 0.6419 0.97065 0.0
C3505 C 0.73238 0.64106 0.00145 0.0
C3506 C 0.74632 0.64028 0.98601 0.0
C3507 C 0.73544 0.63939 0.02537 0.0
C3508 C 0.72096 0.63944 0.04227 0.0
C3509 C 0.70684 0.62809 0.03956 0.0
C3510 C 0.69307 0.62842 0.05521 0.0
C3511 C 0.6933 0.63997 0.07374 0.0
C3512 C 0.70732 0.6512 0.07667 0.0
C3513 C 0.72112 0.65095 0.06105 0.0
H3514 H 0.68262 0.6402 0.08583 0.0
H3515 H 0.8152 0.64442 0.93251 0.0
H3516 H 0.11046 0.07496 0.78002 0.0
H3517 H 0.11641 0.04432 0.7712 0.0
H3518 H 0.0615 0.03457 0.76617 0.0
H3519 H 0.05552 0.06494 0.77455 0.0
H3520 H 0.08009 0.00927 0.79168 0.0
H3521 H 0.08306 0.04114 0.71901 0.0
H3522 H 0.09519 0.06351 0.69332 0.0
H3523 H 0.14566 0.04047 0.69932 0.0
H3524 H 0.13385 0.0181 0.72535 0.0
H3525 H 0.05915 0.93753 0.72666 0.0
H3526 H 0.06325 0.96733 0.73939 0.0
H3527 H 0.11856 0.962 0.73099 0.0
H3528 H 0.11451 0.93201 0.71788 0.0
H3529 H 0.10652 0.99402 0.71637 0.0
H3530 H 0.10281 0.95923 0.78346 0.0
H3531 H 0.09099 0.93662 0.80901 0.0
H3532 H 0.04321 0.96483 0.81474 0.0
H3533 H 0.05463 0.98748 0.78891 0.0
C3534 C 0.0997 0.06619 0.77727 0.0
C3535 C 0.08254 0.07228 0.77787 0.0
C3536 C 0.10311 0.04877 0.77218 0.0
C3537 C 0.08938 0.03726 0.76798 0.0
C3538 C 0.07226 0.04325 0.76941 0.0
C3539 C 0.06887 0.06061 0.77411 0.0
C3540 C 0.09249 0.01907 0.76114 0.0
C3541 C 0.0859 0.0059 0.77525 0.0
C3542 C 0.10058 0.01471 0.74005 0.0
C3543 C 0.10763 0.0281 0.72435 0.0
C3544 C 0.09678 0.04095 0.71502 0.0
C3545 C 0.10358 0.05361 0.70037 0.0
C3546 C 0.1212 0.05345 0.69476 0.0
C3547 C 0.13203 0.0406 0.70373 0.0
C3548 C 0.12529 0.02793 0.71843 0.0
C3549 C 0.07218 0.94273 0.72726 0.0
C3550 C 0.08652 0.93241 0.72145 0.0
C3551 C 0.07452 0.95974 0.73464 0.0
C3552 C 0.09123 0.96673 0.7366 0.0
C3553 C 0.10556 0.95678 0.72975 0.0
C3554 C 0.10322 0.93968 0.72227 0.0
C3555 C 0.09349 0.98427 0.74653 0.0
C3556 C 0.10111 0.9973 0.73306 0.0
C3557 C 0.08647 0.98851 0.76835 0.0
C3558 C 0.07956 0.97502 0.78413 0.0
C3559 C 0.08974 0.96056 0.79005 0.0
C3560 C 0.08312 0.94774 0.8046 0.0
C3561 C 0.06635 0.94928 0.81347 0.0
C3562 C 0.05619 0.96366 0.80785 0.0
C3563 C 0.06275 0.97651 0.79328 0.0
H3564 H 0.06124 0.93934 0.82473 0.0
H3565 H 0.12644 0.06326 0.6834 0.0
H3566 H 0.67437 0.36024 0.52293 0.0
H3567 H 0.70482 0.36558 0.51271 0.0
H3568 H 0.71616 0.31133 0.52225 0.0
H3569 H 0.68589 0.30589 0.53217 0.0
H3570 H 0.74094 0.33345 0.54189 0.0
H3571 H 0.7095 0.32535 0.47022 0.0
H3572 H 0.6867 0.33234 0.44194 0.0
H3573 H 0.707 0.38387 0.435 0.0
H3574 H 0.72979 0.37723 0.46352 0.0
H3575 H 0.81189 0.30643 0.47899 0.0
H3576 H 0.78197 0.31166 0.49047 0.0
H3577 H 0.78837 0.3663 0.47757 0.0
H3578 H 0.81865 0.36118 0.46608 0.0
H3579 H 0.75541 0.35078 0.46178 0.0
H3580 H 0.79012 0.35658 0.52933 0.0
H3581 H 0.81318 0.34832 0.55658 0.0
H3582 H 0.7868 0.30059 0.57108 0.0
H3583 H 0.76371 0.30842 0.54358 0.0
C3584 C 0.68343 0.34952 0.52307 0.0
C3585 C 0.67781 0.33264 0.52825 0.0
C3586 C 0.70076 0.35258 0.51717 0.0
C3587 C 0.71265 0.33883 0.51666 0.0
C3588 C 0.70715 0.32211 0.52261 0.0
C3589 C 0.68986 0.31901 0.52819 0.0
C3590 C 0.73074 0.34146 0.50905 0.0
C3591 C 0.74412 0.3373 0.52441 0.0
C3592 C 0.73484 0.3469 0.48641 0.0
C3593 C 0.72119 0.35087 0.46923 0.0
C3594 C 0.709 0.33822 0.46283 0.0
C3595 C 0.6961 0.3421 0.44672 0.0
C3596 C 0.69536 0.35856 0.43674 0.0
C3597 C 0.70756 0.37114 0.44279 0.0
C3598 C 0.72047 0.36733 0.45892 0.0
C3599 C 0.80693 0.31956 0.47831 0.0
C3600 C 0.81764 0.33343 0.47182 0.0
C3601 C 0.78984 0.32251 0.48492 0.0
C3602 C 0.7831 0.33937 0.48513 0.0
C3603 C 0.79343 0.3532 0.47757 0.0
C3604 C 0.81067 0.35026 0.47105 0.0
C3605 C 0.76553 0.3423 0.49445 0.0
C3606 C 0.75226 0.34745 0.47944 0.0
C3607 C 0.7615 0.33774 0.51744 0.0
C3608 C 0.77522 0.33306 0.53427 0.0
C3609 C 0.78929 0.34427 0.5382 0.0
C3610 C 0.80236 0.33967 0.55371 0.0
C3611 C 0.80147 0.32393 0.56553 0.0
C3612 C 0.78747 0.31278 0.56191 0.0
C3613 C 0.77437 0.3173 0.54638 0.0
H3614 H 0.81161 0.32039 0.57753 0.0
H3615 H 0.68537 0.36154 0.42427 0.0
loop_
_geom_bond_atom_site_label_1
_geom_bond_atom_site_label_2
_geom_bond_distance
_geom_bond_site_symmetry_2
_ccdc_geom_bond_type
In0 O1 2.294 . S
In0 O2 2.326 . S
In0 O6 2.266 . S
In0 O7 2.326 . S
In0 O8 2.266 . S
In0 O9 2.326 . S
In0 O11 2.294 . S
In0 O12 2.326 . S
O1 In0 2.294 . S
O1 C10 1.240 . S
O2 In0 2.326 . S
O2 C10 1.252 . S
C3 O6 1.252 . S
C3 O7 1.260 . S
C4 O11 1.240 . S
C4 O12 1.252 . S
C5 O8 1.252 . S
C5 O9 1.260 . S
O6 In0 2.266 . S
O6 C3 1.252 . S
O7 In0 2.326 . S
O7 C3 1.260 . S
O8 In0 2.266 . S
O8 C5 1.252 . S
O9 In0 2.326 . S
O9 C5 1.260 . S
C10 O1 1.240 . S
C10 O2 1.252 . S
O11 In0 2.294 . S
O11 C4 1.240 . S
O12 In0 2.326 . S
O12 C4 1.252 . S
In13 O14 2.294 . S
In13 O15 2.326 . S
In13 O19 2.266 . S
In13 O20 2.326 . S
In13 O21 2.266 . S
In13 O22 2.326 . S
In13 O24 2.294 . S
In13 O25 2.326 . S
O14 In13 2.294 . S
O14 C23 1.240 . S
O15 In13 2.326 . S
O15 C23 1.252 . S
C16 O19 1.252 . S
C16 O20 1.260 . S
C17 O24 1.240 . S
C17 O25 1.252 . S
C18 O21 1.252 . S
C18 O22 1.260 . S
O19 In13 2.266 . S
O19 C16 1.252 . S
O20 In13 2.326 . S
O20 C16 1.260 . S
O21 In13 2.266 . S
O21 C18 1.252 . S
O22 In13 2.326 . S
O22 C18 1.260 . S
C23 O14 1.240 . S
C23 O15 1.252 . S
O24 In13 2.294 . S
O24 C17 1.240 . S
O25 In13 2.326 . S
O25 C17 1.252 . S
In26 O27 2.294 . S
In26 O28 2.326 . S
In26 O32 2.266 . S
In26 O33 2.326 . S
In26 O34 2.266 . S
In26 O35 2.326 . S
In26 O37 2.294 . S
In26 O38 2.326 . S
O27 In26 2.294 . S
O27 C36 1.240 . S
O28 In26 2.326 . S
O28 C36 1.252 . S
C29 O32 1.252 . S
C29 O33 1.260 . S
C30 O37 1.240 . S
C30 O38 1.252 . S
C31 O34 1.252 . S
C31 O35 1.260 . S
O32 In26 2.266 . S
O32 C29 1.252 . S
O33 In26 2.326 . S
O33 C29 1.260 . S
O34 In26 2.266 . S
O34 C31 1.252 . S
O35 In26 2.326 . S
O35 C31 1.260 . S
C36 O27 1.240 . S
C36 O28 1.252 . S
O37 In26 2.294 . S
O37 C30 1.240 . S
O38 In26 2.326 . S
O38 C30 1.252 . S
In39 O40 2.294 . S
In39 O41 2.326 . S
In39 O45 2.266 . S
In39 O46 2.326 . S
In39 O47 2.266 . S
In39 O48 2.326 . S
In39 O50 2.294 . S
In39 O51 2.326 . S
O40 In39 2.294 . S
O40 C49 1.240 . S
O41 In39 2.326 . S
O41 C49 1.252 . S
C42 O45 1.252 . S
C42 O46 1.260 . S
C43 O50 1.240 1_556 S
C43 O51 1.252 1_556 S
C44 O47 1.252 . S
C44 O48 1.260 . S
O45 In39 2.266 . S
O45 C42 1.252 . S
O46 In39 2.326 . S
O46 C42 1.260 . S
O47 In39 2.266 . S
O47 C44 1.252 . S
O48 In39 2.326 . S
O48 C44 1.260 . S
C49 O40 1.240 . S
C49 O41 1.252 . S
O50 In39 2.294 . S
O50 C43 1.240 1_554 S
O51 In39 2.326 . S
O51 C43 1.252 1_554 S
In52 O53 2.294 . S
In52 O54 2.326 . S
In52 O58 2.266 . S
In52 O59 2.326 . S
In52 O60 2.266 . S
In52 O61 2.326 . S
In52 O63 2.294 . S
In52 O64 2.326 . S
O53 In52 2.294 . S
O53 C62 1.240 . S
O54 In52 2.326 . S
O54 C62 1.252 . S
C55 O58 1.252 . S
C55 O59 1.260 . S
C56 O63 1.240 . S
C56 O64 1.252 . S
C57 O60 1.252 . S
C57 O61 1.260 . S
O58 In52 2.266 . S
O58 C55 1.252 . S
O59 In52 2.326 . S
O59 C55 1.260 . S
O60 In52 2.266 . S
O60 C57 1.252 . S
O61 In52 2.326 . S
O61 C57 1.260 . S
C62 O53 1.240 . S
C62 O54 1.252 . S
O63 In52 2.294 . S
O63 C56 1.240 . S
O64 In52 2.326 . S
O64 C56 1.252 . S
In65 O66 2.294 . S
In65 O67 2.326 . S
In65 O71 2.266 . S
In65 O72 2.326 . S
In65 O73 2.266 . S
In65 O74 2.326 . S
In65 O76 2.294 . S
In65 O77 2.326 . S
O66 In65 2.294 . S
O66 C75 1.240 . S
O67 In65 2.326 . S
O67 C75 1.252 . S
C68 O71 1.252 . S
C68 O72 1.260 . S
C69 O76 1.240 . S
C69 O77 1.252 . S
C70 O73 1.252 . S
C70 O74 1.260 . S
O71 In65 2.266 . S
O71 C68 1.252 . S
O72 In65 2.326 . S
O72 C68 1.260 . S
O73 In65 2.266 . S
O73 C70 1.252 . S
O74 In65 2.326 . S
O74 C70 1.260 . S
C75 O66 1.240 . S
C75 O67 1.252 . S
O76 In65 2.294 . S
O76 C69 1.240 . S
O77 In65 2.326 . S
O77 C69 1.252 . S
In78 O79 2.294 . S
In78 O80 2.326 . S
In78 O84 2.266 . S
In78 O85 2.326 . S
In78 O86 2.266 . S
In78 O87 2.326 . S
In78 O89 2.294 . S
In78 O90 2.326 . S
O79 In78 2.294 . S
O79 C88 1.240 . S
O80 In78 2.326 . S
O80 C88 1.252 . S
C81 O84 1.252 . S
C81 O85 1.260 . S
C82 O89 1.240 . S
C82 O90 1.252 . S
C83 O86 1.252 . S
C83 O87 1.260 . S
O84 In78 2.266 . S
O84 C81 1.252 . S
O85 In78 2.326 . S
O85 C81 1.260 . S
O86 In78 2.266 . S
O86 C83 1.252 . S
O87 In78 2.326 . S
O87 C83 1.260 . S
C88 O79 1.240 . S
C88 O80 1.252 . S
O89 In78 2.294 . S
O89 C82 1.240 . S
O90 In78 2.326 . S
O90 C82 1.252 . S
In91 O92 2.294 . S
In91 O93 2.326 . S
In91 O97 2.266 . S
In91 O98 2.326 . S
In91 O99 2.266 . S
In91 O100 2.326 . S
In91 O102 2.294 . S
In91 O103 2.326 . S
O92 In91 2.294 . S
O92 C101 1.240 1_556 S
O93 In91 2.326 . S
O93 C101 1.252 1_556 S
C94 O97 1.252 . S
C94 O98 1.260 . S
C95 O102 1.240 . S
C95 O103 1.252 . S
C96 O99 1.252 . S
C96 O100 1.260 . S
O97 In91 2.266 . S
O97 C94 1.252 . S
O98 In91 2.326 . S
O98 C94 1.260 . S
O99 In91 2.266 . S
O99 C96 1.252 . S
O100 In91 2.326 . S
O100 C96 1.260 . S
C101 O92 1.240 1_554 S
C101 O93 1.252 1_554 S
O102 In91 2.294 . S
O102 C95 1.240 . S
O103 In91 2.326 . S
O103 C95 1.252 . S
In104 O105 2.294 . S
In104 O106 2.326 . S
In104 O110 2.266 . S
In104 O111 2.326 . S
In104 O112 2.266 . S
In104 O113 2.326 . S
In104 O115 2.294 . S
In104 O116 2.326 . S
O105 In104 2.294 . S
O105 C114 1.240 . S
O106 In104 2.326 . S
O106 C114 1.252 . S
C107 O110 1.252 . S
C107 O111 1.260 . S
C108 O115 1.240 . S
C108 O116 1.252 . S
C109 O112 1.252 . S
C109 O113 1.260 . S
O110 In104 2.266 . S
O110 C107 1.252 . S
O111 In104 2.326 . S
O111 C107 1.260 . S
O112 In104 2.266 . S
O112 C109 1.252 . S
O113 In104 2.326 . S
O113 C109 1.260 . S
C114 O105 1.240 . S
C114 O106 1.252 . S
O115 In104 2.294 . S
O115 C108 1.240 . S
O116 In104 2.326 . S
O116 C108 1.252 . S
In117 O118 2.294 . S
In117 O119 2.326 . S
In117 O123 2.266 . S
In117 O124 2.326 . S
In117 O125 2.266 . S
In117 O126 2.326 . S
In117 O128 2.294 . S
In117 O129 2.326 . S
O118 In117 2.294 . S
O118 C127 1.240 . S
O119 In117 2.326 . S
O119 C127 1.252 . S
C120 O123 1.252 . S
C120 O124 1.260 . S
C121 O128 1.240 . S
C121 O129 1.252 . S
C122 O125 1.252 . S
C122 O126 1.260 . S
O123 In117 2.266 . S
O123 C120 1.252 . S
O124 In117 2.326 . S
O124 C120 1.260 . S
O125 In117 2.266 . S
O125 C122 1.252 . S
O126 In117 2.326 . S
O126 C122 1.260 . S
C127 O118 1.240 . S
C127 O119 1.252 . S
O128 In117 2.294 . S
O128 C121 1.240 . S
O129 In117 2.326 . S
O129 C121 1.252 . S
In130 O131 2.294 . S
In130 O132 2.326 . S
In130 O136 2.266 . S
In130 O137 2.326 . S
In130 O138 2.266 . S
In130 O139 2.326 . S
In130 O141 2.294 . S
In130 O142 2.326 . S
O131 In130 2.294 . S
O131 C140 1.240 . S
O132 In130 2.326 . S
O132 C140 1.252 . S
C133 O136 1.252 . S
C133 O137 1.260 . S
C134 O141 1.240 . S
C134 O142 1.252 . S
C135 O138 1.252 . S
C135 O139 1.260 . S
O136 In130 2.266 . S
O136 C133 1.252 . S
O137 In130 2.326 . S
O137 C133 1.260 . S
O138 In130 2.266 . S
O138 C135 1.252 . S
O139 In130 2.326 . S
O139 C135 1.260 . S
C140 O131 1.240 . S
C140 O132 1.252 . S
O141 In130 2.294 . S
O141 C134 1.240 . S
O142 In130 2.326 . S
O142 C134 1.252 . S
In143 O144 2.294 . S
In143 O145 2.326 . S
In143 O149 2.266 . S
In143 O150 2.326 . S
In143 O151 2.266 . S
In143 O152 2.326 . S
In143 O154 2.294 . S
In143 O155 2.326 . S
O144 In143 2.294 . S
O144 C153 1.240 1_556 S
O145 In143 2.326 . S
O145 C153 1.252 1_556 S
C146 O149 1.252 . S
C146 O150 1.260 . S
C147 O154 1.240 . S
C147 O155 1.252 . S
C148 O151 1.252 . S
C148 O152 1.260 . S
O149 In143 2.266 . S
O149 C146 1.252 . S
O150 In143 2.326 . S
O150 C146 1.260 . S
O151 In143 2.266 . S
O151 C148 1.252 . S
O152 In143 2.326 . S
O152 C148 1.260 . S
C153 O144 1.240 1_554 S
C153 O145 1.252 1_554 S
O154 In143 2.294 . S
O154 C147 1.240 . S
O155 In143 2.326 . S
O155 C147 1.252 . S
In156 O157 2.294 . S
In156 O158 2.326 . S
In156 O162 2.266 . S
In156 O163 2.326 . S
In156 O164 2.266 . S
In156 O165 2.326 . S
In156 O167 2.294 . S
In156 O168 2.326 . S
O157 In156 2.294 . S
O157 C166 1.240 . S
O158 In156 2.326 . S
O158 C166 1.252 . S
C159 O162 1.252 . S
C159 O163 1.260 . S
C160 O167 1.240 . S
C160 O168 1.252 . S
C161 O164 1.252 . S
C161 O165 1.260 . S
O162 In156 2.266 . S
O162 C159 1.252 . S
O163 In156 2.326 . S
O163 C159 1.260 . S
O164 In156 2.266 . S
O164 C161 1.252 . S
O165 In156 2.326 . S
O165 C161 1.260 . S
C166 O157 1.240 . S
C166 O158 1.252 . S
O167 In156 2.294 . S
O167 C160 1.240 . S
O168 In156 2.326 . S
O168 C160 1.252 . S
In169 O170 2.294 . S
In169 O171 2.326 . S
In169 O175 2.266 . S
In169 O176 2.326 . S
In169 O177 2.266 . S
In169 O178 2.326 . S
In169 O180 2.294 . S
In169 O181 2.326 . S
O170 In169 2.294 . S
O170 C179 1.240 . S
O171 In169 2.326 . S
O171 C179 1.252 . S
C172 O175 1.252 . S
C172 O176 1.260 . S
C173 O180 1.240 . S
C173 O181 1.252 . S
C174 O177 1.252 . S
C174 O178 1.260 . S
O175 In169 2.266 . S
O175 C172 1.252 . S
O176 In169 2.326 . S
O176 C172 1.260 . S
O177 In169 2.266 . S
O177 C174 1.252 . S
O178 In169 2.326 . S
O178 C174 1.260 . S
C179 O170 1.240 . S
C179 O171 1.252 . S
O180 In169 2.294 . S
O180 C173 1.240 . S
O181 In169 2.326 . S
O181 C173 1.252 . S
In182 O183 2.294 . S
In182 O184 2.326 . S
In182 O188 2.266 . S
In182 O189 2.326 . S
In182 O190 2.266 . S
In182 O191 2.326 . S
In182 O193 2.294 . S
In182 O194 2.326 . S
O183 In182 2.294 . S
O183 C192 1.240 . S
O184 In182 2.326 . S
O184 C192 1.252 . S
C185 O188 1.252 . S
C185 O189 1.260 . S
C186 O193 1.240 . S
C186 O194 1.252 . S
C187 O190 1.252 . S
C187 O191 1.260 . S
O188 In182 2.266 . S
O188 C185 1.252 . S
O189 In182 2.326 . S
O189 C185 1.260 . S
O190 In182 2.266 . S
O190 C187 1.252 . S
O191 In182 2.326 . S
O191 C187 1.260 . S
C192 O183 1.240 . S
C192 O184 1.252 . S
O193 In182 2.294 . S
O193 C186 1.240 . S
O194 In182 2.326 . S
O194 C186 1.252 . S
In195 O196 2.294 . S
In195 O197 2.326 . S
In195 O201 2.266 . S
In195 O202 2.326 . S
In195 O203 2.266 . S
In195 O204 2.326 . S
In195 O206 2.294 . S
In195 O207 2.326 . S
O196 In195 2.294 . S
O196 C205 1.240 1_554 S
O197 In195 2.326 . S
O197 C205 1.252 1_554 S
C198 O201 1.252 . S
C198 O202 1.260 . S
C199 O206 1.240 . S
C199 O207 1.252 . S
C200 O203 1.252 . S
C200 O204 1.260 . S
O201 In195 2.266 . S
O201 C198 1.252 . S
O202 In195 2.326 . S
O202 C198 1.260 . S
O203 In195 2.266 . S
O203 C200 1.252 . S
O204 In195 2.326 . S
O204 C200 1.260 . S
C205 O196 1.240 1_556 S
C205 O197 1.252 1_556 S
O206 In195 2.294 . S
O206 C199 1.240 . S
O207 In195 2.326 . S
O207 C199 1.252 . S
In208 O209 2.294 . S
In208 O210 2.326 . S
In208 O214 2.266 . S
In208 O215 2.326 . S
In208 O216 2.266 . S
In208 O217 2.326 . S
In208 O219 2.294 . S
In208 O220 2.326 . S
O209 In208 2.294 . S
O209 C218 1.240 . S
O210 In208 2.326 . S
O210 C218 1.252 . S
C211 O214 1.252 . S
C211 O215 1.260 . S
C212 O219 1.240 . S
C212 O220 1.252 . S
C213 O216 1.252 . S
C213 O217 1.260 . S
O214 In208 2.266 . S
O214 C211 1.252 . S
O215 In208 2.326 . S
O215 C211 1.260 . S
O216 In208 2.266 . S
O216 C213 1.252 . S
O217 In208 2.326 . S
O217 C213 1.260 . S
C218 O209 1.240 . S
C218 O210 1.252 . S
O219 In208 2.294 . S
O219 C212 1.240 . S
O220 In208 2.326 . S
O220 C212 1.252 . S
In221 O222 2.294 . S
In221 O223 2.326 . S
In221 O227 2.266 . S
In221 O228 2.326 . S
In221 O229 2.266 . S
In221 O230 2.326 . S
In221 O232 2.294 . S
In221 O233 2.326 . S
O222 In221 2.294 . S
O222 C231 1.240 1_554 S
O223 In221 2.326 . S
O223 C231 1.252 1_554 S
C224 O227 1.252 . S
C224 O228 1.260 . S
C225 O232 1.240 . S
C225 O233 1.252 . S
C226 O229 1.252 . S
C226 O230 1.260 . S
O227 In221 2.266 . S
O227 C224 1.252 . S
O228 In221 2.326 . S
O228 C224 1.260 . S
O229 In221 2.266 . S
O229 C226 1.252 . S
O230 In221 2.326 . S
O230 C226 1.260 . S
C231 O222 1.240 1_556 S
C231 O223 1.252 1_556 S
O232 In221 2.294 . S
O232 C225 1.240 . S
O233 In221 2.326 . S
O233 C225 1.252 . S
In234 O235 2.294 . S
In234 O236 2.326 . S
In234 O240 2.266 . S
In234 O241 2.326 . S
In234 O242 2.266 . S
In234 O243 2.326 . S
In234 O245 2.294 . S
In234 O246 2.326 . S
O235 In234 2.294 . S
O235 C244 1.240 . S
O236 In234 2.326 . S
O236 C244 1.252 . S
C237 O240 1.252 . S
C237 O241 1.260 . S
C238 O245 1.240 . S
C238 O246 1.252 . S
C239 O242 1.252 . S
C239 O243 1.260 . S
O240 In234 2.266 . S
O240 C237 1.252 . S
O241 In234 2.326 . S
O241 C237 1.260 . S
O242 In234 2.266 . S
O242 C239 1.252 . S
O243 In234 2.326 . S
O243 C239 1.260 . S
C244 O235 1.240 . S
C244 O236 1.252 . S
O245 In234 2.294 . S
O245 C238 1.240 . S
O246 In234 2.326 . S
O246 C238 1.252 . S
In247 O248 2.294 . S
In247 O249 2.326 . S
In247 O253 2.266 . S
In247 O254 2.326 . S
In247 O255 2.266 . S
In247 O256 2.326 . S
In247 O258 2.294 . S
In247 O259 2.326 . S
O248 In247 2.294 . S
O248 C257 1.240 . S
O249 In247 2.326 . S
O249 C257 1.252 . S
C250 O253 1.252 . S
C250 O254 1.260 . S
C251 O258 1.240 . S
C251 O259 1.252 . S
C252 O255 1.252 . S
C252 O256 1.260 . S
O253 In247 2.266 . S
O253 C250 1.252 . S
O254 In247 2.326 . S
O254 C250 1.260 . S
O255 In247 2.266 . S
O255 C252 1.252 . S
O256 In247 2.326 . S
O256 C252 1.260 . S
C257 O248 1.240 . S
C257 O249 1.252 . S
O258 In247 2.294 . S
O258 C251 1.240 . S
O259 In247 2.326 . S
O259 C251 1.252 . S
In260 O261 2.294 . S
In260 O262 2.326 . S
In260 O266 2.266 . S
In260 O267 2.326 . S
In260 O268 2.266 . S
In260 O269 2.326 . S
In260 O271 2.294 . S
In260 O272 2.326 . S
O261 In260 2.294 . S
O261 C270 1.240 . S
O262 In260 2.326 . S
O262 C270 1.252 . S
C263 O266 1.252 . S
C263 O267 1.260 . S
C264 O271 1.240 . S
C264 O272 1.252 . S
C265 O268 1.252 . S
C265 O269 1.260 . S
O266 In260 2.266 . S
O266 C263 1.252 . S
O267 In260 2.326 . S
O267 C263 1.260 . S
O268 In260 2.266 . S
O268 C265 1.252 . S
O269 In260 2.326 . S
O269 C265 1.260 . S
C270 O261 1.240 . S
C270 O262 1.252 . S
O271 In260 2.294 . S
O271 C264 1.240 . S
O272 In260 2.326 . S
O272 C264 1.252 . S
In273 O274 2.294 . S
In273 O275 2.326 . S
In273 O279 2.266 . S
In273 O280 2.326 . S
In273 O281 2.266 . S
In273 O282 2.326 . S
In273 O284 2.294 . S
In273 O285 2.326 . S
O274 In273 2.294 . S
O274 C283 1.240 1_556 S
O275 In273 2.326 . S
O275 C283 1.252 1_556 S
C276 O279 1.252 . S
C276 O280 1.260 . S
C277 O284 1.240 . S
C277 O285 1.252 . S
C278 O281 1.252 . S
C278 O282 1.260 . S
O279 In273 2.266 . S
O279 C276 1.252 . S
O280 In273 2.326 . S
O280 C276 1.260 . S
O281 In273 2.266 . S
O281 C278 1.252 . S
O282 In273 2.326 . S
O282 C278 1.260 . S
C283 O274 1.240 1_554 S
C283 O275 1.252 1_554 S
O284 In273 2.294 . S
O284 C277 1.240 . S
O285 In273 2.326 . S
O285 C277 1.252 . S
In286 O287 2.294 . S
In286 O288 2.326 . S
In286 O292 2.266 . S
In286 O293 2.326 . S
In286 O294 2.266 . S
In286 O295 2.326 . S
In286 O297 2.294 . S
In286 O298 2.326 . S
O287 In286 2.294 . S
O287 C296 1.240 . S
O288 In286 2.326 . S
O288 C296 1.252 . S
C289 O292 1.252 . S
C289 O293 1.260 . S
C290 O297 1.240 . S
C290 O298 1.252 . S
C291 O294 1.252 . S
C291 O295 1.260 . S
O292 In286 2.266 . S
O292 C289 1.252 . S
O293 In286 2.326 . S
O293 C289 1.260 . S
O294 In286 2.266 . S
O294 C291 1.252 . S
O295 In286 2.326 . S
O295 C291 1.260 . S
C296 O287 1.240 . S
C296 O288 1.252 . S
O297 In286 2.294 . S
O297 C290 1.240 . S
O298 In286 2.326 . S
O298 C290 1.252 . S
In299 O300 2.294 . S
In299 O301 2.326 . S
In299 O305 2.266 . S
In299 O306 2.326 . S
In299 O307 2.266 . S
In299 O308 2.326 . S
In299 O310 2.294 . S
In299 O311 2.326 . S
O300 In299 2.294 . S
O300 C309 1.240 . S
O301 In299 2.326 . S
O301 C309 1.252 . S
C302 O305 1.252 . S
C302 O306 1.260 . S
C303 O310 1.240 . S
C303 O311 1.252 . S
C304 O307 1.252 . S
C304 O308 1.260 . S
O305 In299 2.266 . S
O305 C302 1.252 . S
O306 In299 2.326 . S
O306 C302 1.260 . S
O307 In299 2.266 . S
O307 C304 1.252 . S
O308 In299 2.326 . S
O308 C304 1.260 . S
C309 O300 1.240 . S
C309 O301 1.252 . S
O310 In299 2.294 . S
O310 C303 1.240 . S
O311 In299 2.326 . S
O311 C303 1.252 . S
In312 O313 2.294 . S
In312 O314 2.326 . S
In312 O318 2.266 . S
In312 O319 2.326 . S
In312 O320 2.266 . S
In312 O321 2.326 . S
In312 O323 2.294 . S
In312 O324 2.326 . S
O313 In312 2.294 . S
O313 C322 1.240 . S
O314 In312 2.326 . S
O314 C322 1.252 . S
C315 O318 1.252 . S
C315 O319 1.260 . S
C316 O323 1.240 . S
C316 O324 1.252 . S
C317 O320 1.252 . S
C317 O321 1.260 . S
O318 In312 2.266 . S
O318 C315 1.252 . S
O319 In312 2.326 . S
O319 C315 1.260 . S
O320 In312 2.266 . S
O320 C317 1.252 . S
O321 In312 2.326 . S
O321 C317 1.260 . S
C322 O313 1.240 . S
C322 O314 1.252 . S
O323 In312 2.294 . S
O323 C316 1.240 . S
O324 In312 2.326 . S
O324 C316 1.252 . S
In325 O326 2.294 . S
In325 O327 2.326 . S
In325 O331 2.266 . S
In325 O332 2.326 . S
In325 O333 2.266 . S
In325 O334 2.326 . S
In325 O336 2.294 . S
In325 O337 2.326 . S
O326 In325 2.294 . S
O326 C335 1.240 1_556 S
O327 In325 2.326 . S
O327 C335 1.252 1_556 S
C328 O331 1.252 . S
C328 O332 1.260 . S
C329 O336 1.240 . S
C329 O337 1.252 . S
C330 O333 1.252 . S
C330 O334 1.260 . S
O331 In325 2.266 . S
O331 C328 1.252 . S
O332 In325 2.326 . S
O332 C328 1.260 . S
O333 In325 2.266 . S
O333 C330 1.252 . S
O334 In325 2.326 . S
O334 C330 1.260 . S
C335 O326 1.240 1_554 S
C335 O327 1.252 1_554 S
O336 In325 2.294 . S
O336 C329 1.240 . S
O337 In325 2.326 . S
O337 C329 1.252 . S
In338 O339 2.294 . S
In338 O340 2.326 . S
In338 O344 2.266 . S
In338 O345 2.326 . S
In338 O346 2.266 . S
In338 O347 2.326 . S
In338 O349 2.294 . S
In338 O350 2.326 . S
O339 In338 2.294 . S
O339 C348 1.240 . S
O340 In338 2.326 . S
O340 C348 1.252 . S
C341 O344 1.252 . S
C341 O345 1.260 . S
C342 O349 1.240 . S
C342 O350 1.252 . S
C343 O346 1.252 . S
C343 O347 1.260 . S
O344 In338 2.266 . S
O344 C341 1.252 . S
O345 In338 2.326 . S
O345 C341 1.260 . S
O346 In338 2.266 . S
O346 C343 1.252 . S
O347 In338 2.326 . S
O347 C343 1.260 . S
C348 O339 1.240 . S
C348 O340 1.252 . S
O349 In338 2.294 . S
O349 C342 1.240 . S
O350 In338 2.326 . S
O350 C342 1.252 . S
In351 O352 2.294 . S
In351 O353 2.326 . S
In351 O357 2.266 . S
In351 O358 2.326 . S
In351 O359 2.266 . S
In351 O360 2.326 . S
In351 O362 2.294 . S
In351 O363 2.326 . S
O352 In351 2.294 . S
O352 C361 1.240 . S
O353 In351 2.326 . S
O353 C361 1.252 . S
C354 O357 1.252 . S
C354 O358 1.260 . S
C355 O362 1.240 . S
C355 O363 1.252 . S
C356 O359 1.252 . S
C356 O360 1.260 . S
O357 In351 2.266 . S
O357 C354 1.252 . S
O358 In351 2.326 . S
O358 C354 1.260 . S
O359 In351 2.266 . S
O359 C356 1.252 . S
O360 In351 2.326 . S
O360 C356 1.260 . S
C361 O352 1.240 . S
C361 O353 1.252 . S
O362 In351 2.294 . S
O362 C355 1.240 . S
O363 In351 2.326 . S
O363 C355 1.252 . S
In364 O365 2.294 . S
In364 O366 2.326 . S
In364 O370 2.266 . S
In364 O371 2.326 . S
In364 O372 2.266 . S
In364 O373 2.326 . S
In364 O375 2.294 . S
In364 O376 2.326 . S
O365 In364 2.294 . S
O365 C374 1.240 . S
O366 In364 2.326 . S
O366 C374 1.252 . S
C367 O370 1.252 . S
C367 O371 1.260 . S
C368 O375 1.240 . S
C368 O376 1.252 . S
C369 O372 1.252 . S
C369 O373 1.260 . S
O370 In364 2.266 . S
O370 C367 1.252 . S
O371 In364 2.326 . S
O371 C367 1.260 . S
O372 In364 2.266 . S
O372 C369 1.252 . S
O373 In364 2.326 . S
O373 C369 1.260 . S
C374 O365 1.240 . S
C374 O366 1.252 . S
O375 In364 2.294 . S
O375 C368 1.240 . S
O376 In364 2.326 . S
O376 C368 1.252 . S
In377 O378 2.294 . S
In377 O379 2.326 . S
In377 O383 2.266 . S
In377 O384 2.326 . S
In377 O385 2.266 . S
In377 O386 2.326 . S
In377 O388 2.294 . S
In377 O389 2.326 . S
O378 In377 2.294 . S
O378 C387 1.240 1_554 S
O379 In377 2.326 . S
O379 C387 1.252 1_554 S
C380 O383 1.252 . S
C380 O384 1.260 . S
C381 O388 1.240 . S
C381 O389 1.252 . S
C382 O385 1.252 . S
C382 O386 1.260 . S
O383 In377 2.266 . S
O383 C380 1.252 . S
O384 In377 2.326 . S
O384 C380 1.260 . S
O385 In377 2.266 . S
O385 C382 1.252 . S
O386 In377 2.326 . S
O386 C382 1.260 . S
C387 O378 1.240 1_556 S
C387 O379 1.252 1_556 S
O388 In377 2.294 . S
O388 C381 1.240 . S
O389 In377 2.326 . S
O389 C381 1.252 . S
In390 O391 2.294 . S
In390 O392 2.326 . S
In390 O396 2.266 . S
In390 O397 2.326 . S
In390 O398 2.266 . S
In390 O399 2.326 . S
In390 O401 2.294 . S
In390 O402 2.326 . S
O391 In390 2.294 . S
O391 C400 1.240 . S
O392 In390 2.326 . S
O392 C400 1.252 . S
C393 O396 1.252 . S
C393 O397 1.260 . S
C394 O401 1.240 . S
C394 O402 1.252 . S
C395 O398 1.252 . S
C395 O399 1.260 . S
O396 In390 2.266 . S
O396 C393 1.252 . S
O397 In390 2.326 . S
O397 C393 1.260 . S
O398 In390 2.266 . S
O398 C395 1.252 . S
O399 In390 2.326 . S
O399 C395 1.260 . S
C400 O391 1.240 . S
C400 O392 1.252 . S
O401 In390 2.294 . S
O401 C394 1.240 . S
O402 In390 2.326 . S
O402 C394 1.252 . S
In403 O404 2.294 . S
In403 O405 2.326 . S
In403 O409 2.266 . S
In403 O410 2.326 . S
In403 O411 2.266 . S
In403 O412 2.326 . S
In403 O414 2.294 . S
In403 O415 2.326 . S
O404 In403 2.294 . S
O404 C413 1.240 . S
O405 In403 2.326 . S
O405 C413 1.252 . S
C406 O409 1.252 . S
C406 O410 1.260 . S
C407 O414 1.240 . S
C407 O415 1.252 . S
C408 O411 1.252 . S
C408 O412 1.260 . S
O409 In403 2.266 . S
O409 C406 1.252 . S
O410 In403 2.326 . S
O410 C406 1.260 . S
O411 In403 2.266 . S
O411 C408 1.252 . S
O412 In403 2.326 . S
O412 C408 1.260 . S
C413 O404 1.240 . S
C413 O405 1.252 . S
O414 In403 2.294 . S
O414 C407 1.240 . S
O415 In403 2.326 . S
O415 C407 1.252 . S
H416 C434 0.951 . S
H417 C436 0.951 . S
H418 C438 0.950 . S
H419 C439 0.950 . S
H420 C441 0.950 . S
H421 C444 0.950 . S
H422 C445 0.950 . S
H423 C447 0.950 . S
H424 C448 0.950 . S
H425 C449 0.951 . S
H426 C451 0.951 . S
H427 C453 0.950 . S
H428 C454 0.950 . S
H429 C456 0.950 . S
H430 C459 0.950 . S
H431 C460 0.950 . S
H432 C462 0.950 . S
H433 C463 0.950 . S
C434 H416 0.951 . S
C434 C435 1.366 . S
C434 C436 1.388 . S
C435 C434 1.366 . S
C435 C439 1.385 . S
C436 H417 0.951 . S
C436 C434 1.388 . S
C436 C437 1.366 . S
C437 C436 1.366 . S
C437 C438 1.414 . S
C437 C440 1.499 . S
C438 H418 0.950 . S
C438 C437 1.414 . S
C438 C439 1.374 . S
C439 H419 0.950 . S
C439 C435 1.385 . S
C439 C438 1.374 . S
C440 C437 1.499 . S
C440 C441 1.373 . S
C440 C442 1.389 . S
C441 H420 0.950 . S
C441 C440 1.373 . S
C441 C457 1.377 . S
C442 C440 1.389 . S
C442 C443 1.524 . S
C442 C456 1.377 . S
C443 C442 1.524 . S
C443 C444 1.397 . S
C443 C448 1.363 . S
C444 H421 0.950 . S
C444 C443 1.397 . S
C444 C445 1.334 . S
C445 H422 0.950 . S
C445 C444 1.334 . S
C445 C446 1.287 . S
C446 C445 1.287 . S
C446 C447 1.524 . S
C446 H465 0.913 . S
C447 H423 0.950 . S
C447 C446 1.524 . S
C447 C448 1.415 . S
C448 H424 0.950 . S
C448 C443 1.363 . S
C448 C447 1.415 . S
C449 H425 0.951 . S
C449 C450 1.366 . S
C449 C451 1.388 . S
C450 C449 1.366 . S
C450 C454 1.385 . S
C451 H426 0.951 . S
C451 C449 1.388 . S
C451 C452 1.366 . S
C452 C451 1.366 . S
C452 C453 1.414 . S
C452 C455 1.499 . S
C453 H427 0.950 . S
C453 C452 1.414 . S
C453 C454 1.374 . S
C454 H428 0.950 . S
C454 C450 1.385 . S
C454 C453 1.374 . S
C455 C452 1.499 . S
C455 C456 1.373 . S
C455 C457 1.389 . S
C456 H429 0.950 . S
C456 C442 1.377 . S
C456 C455 1.373 . S
C457 C441 1.377 . S
C457 C455 1.389 . S
C457 C458 1.524 . S
C458 C457 1.524 . S
C458 C459 1.397 . S
C458 C463 1.363 . S
C459 H430 0.950 . S
C459 C458 1.397 . S
C459 C460 1.334 . S
C460 H431 0.950 . S
C460 C459 1.334 . S
C460 C461 1.287 . S
C461 C460 1.287 . S
C461 C462 1.524 . S
C461 H464 0.999 . S
C462 H432 0.950 . S
C462 C461 1.524 . S
C462 C463 1.415 . S
C463 H433 0.950 . S
C463 C458 1.363 . S
C463 C462 1.415 . S
H464 C461 0.999 . S
H465 C446 0.913 . S
H466 C484 0.951 . S
H467 C486 0.951 . S
H468 C488 0.950 . S
H469 C489 0.950 . S
H470 C491 0.950 . S
H471 C494 0.950 . S
H472 C495 0.950 . S
H473 C497 0.950 . S
H474 C498 0.950 . S
H475 C499 0.951 . S
H476 C501 0.951 . S
H477 C503 0.950 . S
H478 C504 0.950 . S
H479 C506 0.950 . S
H480 C509 0.950 . S
H481 C510 0.950 . S
H482 C512 0.950 . S
H483 C513 0.950 . S
C484 H466 0.951 . S
C484 C485 1.366 . S
C484 C486 1.388 . S
C485 C484 1.366 . S
C485 C489 1.385 . S
C486 H467 0.951 . S
C486 C484 1.388 . S
C486 C487 1.366 . S
C487 C486 1.366 . S
C487 C488 1.414 . S
C487 C490 1.499 . S
C488 H468 0.950 . S
C488 C487 1.414 . S
C488 C489 1.374 . S
C489 H469 0.950 . S
C489 C485 1.385 . S
C489 C488 1.374 . S
C490 C487 1.499 . S
C490 C491 1.373 . S
C490 C492 1.389 . S
C491 H470 0.950 . S
C491 C490 1.373 . S
C491 C507 1.377 . S
C492 C490 1.389 . S
C492 C493 1.524 . S
C492 C506 1.377 . S
C493 C492 1.524 . S
C493 C494 1.397 . S
C493 C498 1.363 . S
C494 H471 0.950 . S
C494 C493 1.397 . S
C494 C495 1.334 . S
C495 H472 0.950 . S
C495 C494 1.334 . S
C495 C496 1.287 . S
C496 C495 1.287 . S
C496 C497 1.524 . S
C496 H515 0.913 . S
C497 H473 0.950 . S
C497 C496 1.524 . S
C497 C498 1.415 . S
C498 H474 0.950 . S
C498 C493 1.363 . S
C498 C497 1.415 . S
C499 H475 0.951 . S
C499 C500 1.366 . S
C499 C501 1.388 . S
C500 C499 1.366 . S
C500 C504 1.385 . S
C501 H476 0.951 . S
C501 C499 1.388 . S
C501 C502 1.366 . S
C502 C501 1.366 . S
C502 C503 1.414 . S
C502 C505 1.499 . S
C503 H477 0.950 . S
C503 C502 1.414 . S
C503 C504 1.374 . S
C504 H478 0.950 . S
C504 C500 1.385 . S
C504 C503 1.374 . S
C505 C502 1.499 . S
C505 C506 1.373 . S
C505 C507 1.389 . S
C506 H479 0.950 . S
C506 C492 1.377 . S
C506 C505 1.373 . S
C507 C491 1.377 . S
C507 C505 1.389 . S
C507 C508 1.524 . S
C508 C507 1.524 . S
C508 C509 1.397 . S
C508 C513 1.363 . S
C509 H480 0.950 . S
C509 C508 1.397 . S
C509 C510 1.334 . S
C510 H481 0.950 . S
C510 C509 1.334 . S
C510 C511 1.287 . S
C511 C510 1.287 . S
C511 C512 1.524 . S
C511 H514 0.999 . S
C512 H482 0.950 . S
C512 C511 1.524 . S
C512 C513 1.415 . S
C513 H483 0.950 . S
C513 C508 1.363 . S
C513 C512 1.415 . S
H514 C511 0.999 . S
H515 C496 0.913 . S
H516 C534 0.951 . S
H517 C536 0.951 . S
H518 C538 0.950 . S
H519 C539 0.950 . S
H520 C541 0.950 . S
H521 C544 0.950 . S
H522 C545 0.950 . S
H523 C547 0.950 . S
H524 C548 0.950 . S
H525 C549 0.951 . S
H526 C551 0.951 . S
H527 C553 0.950 . S
H528 C554 0.950 . S
H529 C556 0.950 . S
H530 C559 0.950 . S
H531 C560 0.950 . S
H532 C562 0.950 . S
H533 C563 0.950 . S
C534 H516 0.951 . S
C534 C535 1.366 . S
C534 C536 1.388 . S
C535 C534 1.366 . S
C535 C539 1.385 . S
C536 H517 0.951 . S
C536 C534 1.388 . S
C536 C537 1.366 . S
C537 C536 1.366 . S
C537 C538 1.414 . S
C537 C540 1.499 . S
C538 H518 0.950 . S
C538 C537 1.414 . S
C538 C539 1.374 . S
C539 H519 0.950 . S
C539 C535 1.385 . S
C539 C538 1.374 . S
C540 C537 1.499 . S
C540 C541 1.373 . S
C540 C542 1.389 . S
C541 H520 0.950 . S
C541 C540 1.373 . S
C541 C557 1.377 . S
C542 C540 1.389 . S
C542 C543 1.524 . S
C542 C556 1.377 . S
C543 C542 1.524 . S
C543 C544 1.397 . S
C543 C548 1.363 . S
C544 H521 0.950 . S
C544 C543 1.397 . S
C544 C545 1.334 . S
C545 H522 0.950 . S
C545 C544 1.334 . S
C545 C546 1.287 . S
C546 C545 1.287 . S
C546 C547 1.524 . S
C546 H565 0.913 . S
C547 H523 0.950 . S
C547 C546 1.524 . S
C547 C548 1.415 . S
C548 H524 0.950 . S
C548 C543 1.363 . S
C548 C547 1.415 . S
C549 H525 0.951 . S
C549 C550 1.366 . S
C549 C551 1.388 . S
C550 C549 1.366 . S
C550 C554 1.385 . S
C551 H526 0.951 . S
C551 C549 1.388 . S
C551 C552 1.366 . S
C552 C551 1.366 . S
C552 C553 1.414 . S
C552 C555 1.499 . S
C553 H527 0.950 . S
C553 C552 1.414 . S
C553 C554 1.374 . S
C554 H528 0.950 . S
C554 C550 1.385 . S
C554 C553 1.374 . S
C555 C552 1.499 . S
C555 C556 1.373 . S
C555 C557 1.389 . S
C556 H529 0.950 . S
C556 C542 1.377 . S
C556 C555 1.373 . S
C557 C541 1.377 . S
C557 C555 1.389 . S
C557 C558 1.524 . S
C558 C557 1.524 . S
C558 C559 1.397 . S
C558 C563 1.363 . S
C559 H530 0.950 . S
C559 C558 1.397 . S
C559 C560 1.334 . S
C560 H531 0.950 . S
C560 C559 1.334 . S
C560 C561 1.287 . S
C561 C560 1.287 . S
C561 C562 1.524 . S
C561 H564 0.999 . S
C562 H532 0.950 . S
C562 C561 1.524 . S
C562 C563 1.415 . S
C563 H533 0.950 . S
C563 C558 1.363 . S
C563 C562 1.415 . S
H564 C561 0.999 . S
H565 C546 0.913 . S
H566 C584 0.951 . S
H567 C586 0.951 . S
H568 C588 0.950 . S
H569 C589 0.950 . S
H570 C591 0.950 . S
H571 C594 0.950 . S
H572 C595 0.950 . S
H573 C597 0.950 . S
H574 C598 0.950 . S
H575 C599 0.951 . S
H576 C601 0.951 . S
H577 C603 0.950 . S
H578 C604 0.950 . S
H579 C606 0.950 . S
H580 C609 0.950 . S
H581 C610 0.950 . S
H582 C612 0.950 . S
H583 C613 0.950 . S
C584 H566 0.951 . S
C584 C585 1.366 . S
C584 C586 1.388 . S
C585 C584 1.366 . S
C585 C589 1.385 . S
C586 H567 0.951 . S
C586 C584 1.388 . S
C586 C587 1.366 . S
C587 C586 1.366 . S
C587 C588 1.414 . S
C587 C590 1.499 . S
C588 H568 0.950 . S
C588 C587 1.414 . S
C588 C589 1.374 . S
C589 H569 0.950 . S
C589 C585 1.385 . S
C589 C588 1.374 . S
C590 C587 1.499 . S
C590 C591 1.373 . S
C590 C592 1.389 . S
C591 H570 0.950 . S
C591 C590 1.373 . S
C591 C607 1.377 . S
C592 C590 1.389 . S
C592 C593 1.524 . S
C592 C606 1.377 . S
C593 C592 1.524 . S
C593 C594 1.397 . S
C593 C598 1.363 . S
C594 H571 0.950 . S
C594 C593 1.397 . S
C594 C595 1.334 . S
C595 H572 0.950 . S
C595 C594 1.334 . S
C595 C596 1.287 . S
C596 C595 1.287 . S
C596 C597 1.524 . S
C596 H615 0.913 . S
C597 H573 0.950 . S
C597 C596 1.524 . S
C597 C598 1.415 . S
C598 H574 0.950 . S
C598 C593 1.363 . S
C598 C597 1.415 . S
C599 H575 0.951 . S
C599 C600 1.366 . S
C599 C601 1.388 . S
C600 C599 1.366 . S
C600 C604 1.385 . S
C601 H576 0.951 . S
C601 C599 1.388 . S
C601 C602 1.366 . S
C602 C601 1.366 . S
C602 C603 1.414 . S
C602 C605 1.499 . S
C603 H577 0.950 . S
C603 C602 1.414 . S
C603 C604 1.374 . S
C604 H578 0.950 . S
C604 C600 1.385 . S
C604 C603 1.374 . S
C605 C602 1.499 . S
C605 C606 1.373 . S
C605 C607 1.389 . S
C606 H579 0.950 . S
C606 C592 1.377 . S
C606 C605 1.373 . S
C607 C591 1.377 . S
C607 C605 1.389 . S
C607 C608 1.524 . S
C608 C607 1.524 . S
C608 C609 1.397 . S
C608 C613 1.363 . S
C609 H580 0.950 . S
C609 C608 1.397 . S
C609 C610 1.334 . S
C610 H581 0.950 . S
C610 C609 1.334 . S
C610 C611 1.287 . S
C611 C610 1.287 . S
C611 C612 1.524 . S
C611 H614 0.999 . S
C612 H582 0.950 . S
C612 C611 1.524 . S
C612 C613 1.415 . S
C613 H583 0.950 . S
C613 C608 1.363 . S
C613 C612 1.415 . S
H614 C611 0.999 . S
H615 C596 0.913 . S
H616 C634 0.951 . S
H617 C636 0.951 . S
H618 C638 0.950 . S
H619 C639 0.950 . S
H620 C641 0.950 . S
H621 C644 0.950 . S
H622 C645 0.950 . S
H623 C647 0.950 . S
H624 C648 0.950 . S
H625 C649 0.951 . S
H626 C651 0.951 . S
H627 C653 0.950 . S
H628 C654 0.950 . S
H629 C656 0.950 . S
H630 C659 0.950 . S
H631 C660 0.950 . S
H632 C662 0.950 . S
H633 C663 0.950 . S
C634 H616 0.951 . S
C634 C635 1.366 . S
C634 C636 1.388 . S
C635 C634 1.366 . S
C635 C639 1.385 . S
C636 H617 0.951 . S
C636 C634 1.388 . S
C636 C637 1.366 . S
C637 C636 1.366 . S
C637 C638 1.414 . S
C637 C640 1.499 . S
C638 H618 0.950 . S
C638 C637 1.414 . S
C638 C639 1.374 . S
C639 H619 0.950 . S
C639 C635 1.385 . S
C639 C638 1.374 . S
C640 C637 1.499 . S
C640 C641 1.373 . S
C640 C642 1.389 . S
C641 H620 0.950 . S
C641 C640 1.373 . S
C641 C657 1.377 . S
C642 C640 1.389 . S
C642 C643 1.524 . S
C642 C656 1.377 . S
C643 C642 1.524 . S
C643 C644 1.397 . S
C643 C648 1.363 . S
C644 H621 0.950 . S
C644 C643 1.397 . S
C644 C645 1.334 . S
C645 H622 0.950 . S
C645 C644 1.334 . S
C645 C646 1.287 . S
C646 C645 1.287 . S
C646 C647 1.524 . S
C646 H665 0.913 . S
C647 H623 0.950 . S
C647 C646 1.524 . S
C647 C648 1.415 . S
C648 H624 0.950 . S
C648 C643 1.363 . S
C648 C647 1.415 . S
C649 H625 0.951 . S
C649 C650 1.366 . S
C649 C651 1.388 . S
C650 C649 1.366 . S
C650 C654 1.385 . S
C651 H626 0.951 . S
C651 C649 1.388 . S
C651 C652 1.366 . S
C652 C651 1.366 . S
C652 C653 1.414 . S
C652 C655 1.499 . S
C653 H627 0.950 . S
C653 C652 1.414 . S
C653 C654 1.374 . S
C654 H628 0.950 . S
C654 C650 1.385 . S
C654 C653 1.374 . S
C655 C652 1.499 . S
C655 C656 1.373 . S
C655 C657 1.389 . S
C656 H629 0.950 . S
C656 C642 1.377 . S
C656 C655 1.373 . S
C657 C641 1.377 . S
C657 C655 1.389 . S
C657 C658 1.524 . S
C658 C657 1.524 . S
C658 C659 1.397 . S
C658 C663 1.363 . S
C659 H630 0.950 . S
C659 C658 1.397 . S
C659 C660 1.334 . S
C660 H631 0.950 . S
C660 C659 1.334 . S
C660 C661 1.287 . S
C661 C660 1.287 . S
C661 C662 1.524 . S
C661 H664 0.999 . S
C662 H632 0.950 . S
C662 C661 1.524 . S
C662 C663 1.415 . S
C663 H633 0.950 . S
C663 C658 1.363 . S
C663 C662 1.415 . S
H664 C661 0.999 . S
H665 C646 0.913 . S
H666 C684 0.951 . S
H667 C686 0.951 . S
H668 C688 0.950 . S
H669 C689 0.950 . S
H670 C691 0.950 . S
H671 C694 0.950 . S
H672 C695 0.950 . S
H673 C697 0.950 . S
H674 C698 0.950 . S
H675 C699 0.951 . S
H676 C701 0.951 . S
H677 C703 0.950 . S
H678 C704 0.950 . S
H679 C706 0.950 . S
H680 C709 0.950 . S
H681 C710 0.950 . S
H682 C712 0.950 . S
H683 C713 0.950 . S
C684 H666 0.951 . S
C684 C685 1.366 . S
C684 C686 1.388 . S
C685 C684 1.366 . S
C685 C689 1.385 . S
C686 H667 0.951 . S
C686 C684 1.388 . S
C686 C687 1.366 . S
C687 C686 1.366 . S
C687 C688 1.414 . S
C687 C690 1.499 . S
C688 H668 0.950 . S
C688 C687 1.414 . S
C688 C689 1.374 . S
C689 H669 0.950 . S
C689 C685 1.385 . S
C689 C688 1.374 . S
C690 C687 1.499 . S
C690 C691 1.373 . S
C690 C692 1.389 . S
C691 H670 0.950 . S
C691 C690 1.373 . S
C691 C707 1.377 . S
C692 C690 1.389 . S
C692 C693 1.524 . S
C692 C706 1.377 . S
C693 C692 1.524 . S
C693 C694 1.397 . S
C693 C698 1.363 . S
C694 H671 0.950 . S
C694 C693 1.397 . S
C694 C695 1.334 . S
C695 H672 0.950 . S
C695 C694 1.334 . S
C695 C696 1.287 . S
C696 C695 1.287 . S
C696 C697 1.524 . S
C696 H715 0.913 . S
C697 H673 0.950 . S
C697 C696 1.524 . S
C697 C698 1.415 . S
C698 H674 0.950 . S
C698 C693 1.363 . S
C698 C697 1.415 . S
C699 H675 0.951 . S
C699 C700 1.366 . S
C699 C701 1.388 . S
C700 C699 1.366 . S
C700 C704 1.385 . S
C701 H676 0.951 . S
C701 C699 1.388 . S
C701 C702 1.366 . S
C702 C701 1.366 . S
C702 C703 1.414 . S
C702 C705 1.499 . S
C703 H677 0.950 . S
C703 C702 1.414 . S
C703 C704 1.374 . S
C704 H678 0.950 . S
C704 C700 1.385 . S
C704 C703 1.374 . S
C705 C702 1.499 . S
C705 C706 1.373 . S
C705 C707 1.389 . S
C706 H679 0.950 . S
C706 C692 1.377 . S
C706 C705 1.373 . S
C707 C691 1.377 . S
C707 C705 1.389 . S
C707 C708 1.524 . S
C708 C707 1.524 . S
C708 C709 1.397 . S
C708 C713 1.363 . S
C709 H680 0.950 . S
C709 C708 1.397 . S
C709 C710 1.334 . S
C710 H681 0.950 . S
C710 C709 1.334 . S
C710 C711 1.287 . S
C711 C710 1.287 . S
C711 C712 1.524 . S
C711 H714 0.999 . S
C712 H682 0.950 . S
C712 C711 1.524 . S
C712 C713 1.415 . S
C713 H683 0.950 . S
C713 C708 1.363 . S
C713 C712 1.415 . S
H714 C711 0.999 . S
H715 C696 0.913 . S
H716 C734 0.951 . S
H717 C736 0.951 . S
H718 C738 0.950 . S
H719 C739 0.950 . S
H720 C741 0.950 . S
H721 C744 0.950 . S
H722 C745 0.950 . S
H723 C747 0.950 . S
H724 C748 0.950 . S
H725 C749 0.951 . S
H726 C751 0.951 . S
H727 C753 0.950 . S
H728 C754 0.950 . S
H729 C756 0.950 . S
H730 C759 0.950 . S
H731 C760 0.950 . S
H732 C762 0.950 . S
H733 C763 0.950 . S
C734 H716 0.951 . S
C734 C735 1.366 . S
C734 C736 1.388 . S
C735 C734 1.366 . S
C735 C739 1.385 . S
C736 H717 0.951 . S
C736 C734 1.388 . S
C736 C737 1.366 . S
C737 C736 1.366 . S
C737 C738 1.414 . S
C737 C740 1.499 . S
C738 H718 0.950 . S
C738 C737 1.414 . S
C738 C739 1.374 . S
C739 H719 0.950 . S
C739 C735 1.385 . S
C739 C738 1.374 . S
C740 C737 1.499 . S
C740 C741 1.373 . S
C740 C742 1.389 . S
C741 H720 0.950 . S
C741 C740 1.373 . S
C741 C757 1.377 . S
C742 C740 1.389 . S
C742 C743 1.524 . S
C742 C756 1.377 . S
C743 C742 1.524 . S
C743 C744 1.397 . S
C743 C748 1.363 . S
C744 H721 0.950 . S
C744 C743 1.397 . S
C744 C745 1.334 . S
C745 H722 0.950 . S
C745 C744 1.334 . S
C745 C746 1.287 . S
C746 C745 1.287 . S
C746 C747 1.524 . S
C746 H765 0.913 . S
C747 H723 0.950 . S
C747 C746 1.524 . S
C747 C748 1.415 . S
C748 H724 0.950 . S
C748 C743 1.363 . S
C748 C747 1.415 . S
C749 H725 0.951 . S
C749 C750 1.366 . S
C749 C751 1.388 . S
C750 C749 1.366 . S
C750 C754 1.385 . S
C751 H726 0.951 . S
C751 C749 1.388 . S
C751 C752 1.366 . S
C752 C751 1.366 . S
C752 C753 1.414 . S
C752 C755 1.499 . S
C753 H727 0.950 . S
C753 C752 1.414 . S
C753 C754 1.374 . S
C754 H728 0.950 . S
C754 C750 1.385 . S
C754 C753 1.374 . S
C755 C752 1.499 . S
C755 C756 1.373 . S
C755 C757 1.389 . S
C756 H729 0.950 . S
C756 C742 1.377 . S
C756 C755 1.373 . S
C757 C741 1.377 . S
C757 C755 1.389 . S
C757 C758 1.524 . S
C758 C757 1.524 . S
C758 C759 1.397 . S
C758 C763 1.363 . S
C759 H730 0.950 . S
C759 C758 1.397 . S
C759 C760 1.334 . S
C760 H731 0.950 . S
C760 C759 1.334 . S
C760 C761 1.287 . S
C761 C760 1.287 . S
C761 C762 1.524 . S
C761 H764 0.999 . S
C762 H732 0.950 . S
C762 C761 1.524 . S
C762 C763 1.415 . S
C763 H733 0.950 . S
C763 C758 1.363 . S
C763 C762 1.415 . S
H764 C761 0.999 . S
H765 C746 0.913 . S
H766 C784 0.951 . S
H767 C786 0.951 . S
H768 C788 0.950 . S
H769 C789 0.950 . S
H770 C791 0.950 . S
H771 C794 0.950 . S
H772 C795 0.950 . S
H773 C797 0.950 . S
H774 C798 0.950 . S
H775 C799 0.951 . S
H776 C801 0.951 . S
H777 C803 0.950 . S
H778 C804 0.950 . S
H779 C806 0.950 . S
H780 C809 0.950 . S
H781 C810 0.950 . S
H782 C812 0.950 . S
H783 C813 0.950 . S
C784 H766 0.951 . S
C784 C785 1.366 . S
C784 C786 1.388 . S
C785 C784 1.366 . S
C785 C789 1.385 . S
C786 H767 0.951 . S
C786 C784 1.388 . S
C786 C787 1.366 . S
C787 C786 1.366 . S
C787 C788 1.414 . S
C787 C790 1.499 . S
C788 H768 0.950 . S
C788 C787 1.414 . S
C788 C789 1.374 . S
C789 H769 0.950 . S
C789 C785 1.385 . S
C789 C788 1.374 . S
C790 C787 1.499 . S
C790 C791 1.373 . S
C790 C792 1.389 . S
C791 H770 0.950 . S
C791 C790 1.373 . S
C791 C807 1.377 . S
C792 C790 1.389 . S
C792 C793 1.524 . S
C792 C806 1.377 . S
C793 C792 1.524 . S
C793 C794 1.397 . S
C793 C798 1.363 . S
C794 H771 0.950 . S
C794 C793 1.397 . S
C794 C795 1.334 . S
C795 H772 0.950 . S
C795 C794 1.334 . S
C795 C796 1.287 . S
C796 C795 1.287 . S
C796 C797 1.524 . S
C796 H815 0.913 . S
C797 H773 0.950 . S
C797 C796 1.524 . S
C797 C798 1.415 . S
C798 H774 0.950 . S
C798 C793 1.363 . S
C798 C797 1.415 . S
C799 H775 0.951 . S
C799 C800 1.366 . S
C799 C801 1.388 . S
C800 C799 1.366 . S
C800 C804 1.385 . S
C801 H776 0.951 . S
C801 C799 1.388 . S
C801 C802 1.366 . S
C802 C801 1.366 . S
C802 C803 1.414 . S
C802 C805 1.499 . S
C803 H777 0.950 . S
C803 C802 1.414 . S
C803 C804 1.374 . S
C804 H778 0.950 . S
C804 C800 1.385 . S
C804 C803 1.374 . S
C805 C802 1.499 . S
C805 C806 1.373 . S
C805 C807 1.389 . S
C806 H779 0.950 . S
C806 C792 1.377 . S
C806 C805 1.373 . S
C807 C791 1.377 . S
C807 C805 1.389 . S
C807 C808 1.524 . S
C808 C807 1.524 . S
C808 C809 1.397 . S
C808 C813 1.363 . S
C809 H780 0.950 . S
C809 C808 1.397 . S
C809 C810 1.334 . S
C810 H781 0.950 . S
C810 C809 1.334 . S
C810 C811 1.287 . S
C811 C810 1.287 . S
C811 C812 1.524 . S
C811 H814 0.999 . S
C812 H782 0.950 . S
C812 C811 1.524 . S
C812 C813 1.415 . S
C813 H783 0.950 . S
C813 C808 1.363 . S
C813 C812 1.415 . S
H814 C811 0.999 . S
H815 C796 0.913 . S
H816 C834 0.951 . S
H817 C836 0.951 . S
H818 C838 0.950 . S
H819 C839 0.950 . S
H820 C841 0.950 . S
H821 C844 0.950 . S
H822 C845 0.950 . S
H823 C847 0.950 . S
H824 C848 0.950 . S
H825 C849 0.951 . S
H826 C851 0.951 . S
H827 C853 0.950 . S
H828 C854 0.950 . S
H829 C856 0.950 . S
H830 C859 0.950 . S
H831 C860 0.950 . S
H832 C862 0.950 . S
H833 C863 0.950 . S
C834 H816 0.951 . S
C834 C835 1.366 . S
C834 C836 1.388 . S
C835 C834 1.366 . S
C835 C839 1.385 . S
C836 H817 0.951 . S
C836 C834 1.388 . S
C836 C837 1.366 . S
C837 C836 1.366 . S
C837 C838 1.414 . S
C837 C840 1.499 . S
C838 H818 0.950 . S
C838 C837 1.414 . S
C838 C839 1.374 . S
C839 H819 0.950 . S
C839 C835 1.385 . S
C839 C838 1.374 . S
C840 C837 1.499 . S
C840 C841 1.373 . S
C840 C842 1.389 . S
C841 H820 0.950 . S
C841 C840 1.373 . S
C841 C857 1.377 . S
C842 C840 1.389 . S
C842 C843 1.524 . S
C842 C856 1.377 . S
C843 C842 1.524 . S
C843 C844 1.397 . S
C843 C848 1.363 . S
C844 H821 0.950 . S
C844 C843 1.397 . S
C844 C845 1.334 . S
C845 H822 0.950 . S
C845 C844 1.334 . S
C845 C846 1.287 . S
C846 C845 1.287 . S
C846 C847 1.524 . S
C846 H865 0.913 . S
C847 H823 0.950 . S
C847 C846 1.524 . S
C847 C848 1.415 . S
C848 H824 0.950 . S
C848 C843 1.363 . S
C848 C847 1.415 . S
C849 H825 0.951 . S
C849 C850 1.366 . S
C849 C851 1.388 . S
C850 C849 1.366 . S
C850 C854 1.385 . S
C851 H826 0.951 . S
C851 C849 1.388 . S
C851 C852 1.366 . S
C852 C851 1.366 . S
C852 C853 1.414 . S
C852 C855 1.499 . S
C853 H827 0.950 . S
C853 C852 1.414 . S
C853 C854 1.374 . S
C854 H828 0.950 . S
C854 C850 1.385 . S
C854 C853 1.374 . S
C855 C852 1.499 . S
C855 C856 1.373 . S
C855 C857 1.389 . S
C856 H829 0.950 . S
C856 C842 1.377 . S
C856 C855 1.373 . S
C857 C841 1.377 . S
C857 C855 1.389 . S
C857 C858 1.524 . S
C858 C857 1.524 . S
C858 C859 1.397 . S
C858 C863 1.363 . S
C859 H830 0.950 . S
C859 C858 1.397 . S
C859 C860 1.334 . S
C860 H831 0.950 . S
C860 C859 1.334 . S
C860 C861 1.287 . S
C861 C860 1.287 . S
C861 C862 1.524 . S
C861 H864 0.999 . S
C862 H832 0.950 . S
C862 C861 1.524 . S
C862 C863 1.415 . S
C863 H833 0.950 . S
C863 C858 1.363 . S
C863 C862 1.415 . S
H864 C861 0.999 . S
H865 C846 0.913 . S
H866 C884 0.951 . S
H867 C886 0.951 . S
H868 C888 0.950 . S
H869 C889 0.950 . S
H870 C891 0.950 . S
H871 C894 0.950 . S
H872 C895 0.950 . S
H873 C897 0.950 . S
H874 C898 0.950 . S
H875 C899 0.951 . S
H876 C901 0.951 . S
H877 C903 0.950 . S
H878 C904 0.950 . S
H879 C906 0.950 . S
H880 C909 0.950 . S
H881 C910 0.950 . S
H882 C912 0.950 . S
H883 C913 0.950 . S
C884 H866 0.951 . S
C884 C885 1.366 . S
C884 C886 1.388 . S
C885 C884 1.366 . S
C885 C889 1.385 . S
C886 H867 0.951 . S
C886 C884 1.388 . S
C886 C887 1.366 . S
C887 C886 1.366 . S
C887 C888 1.414 . S
C887 C890 1.499 . S
C888 H868 0.950 . S
C888 C887 1.414 . S
C888 C889 1.374 . S
C889 H869 0.950 . S
C889 C885 1.385 . S
C889 C888 1.374 . S
C890 C887 1.499 . S
C890 C891 1.373 . S
C890 C892 1.389 . S
C891 H870 0.950 . S
C891 C890 1.373 . S
C891 C907 1.377 . S
C892 C890 1.389 . S
C892 C893 1.524 . S
C892 C906 1.377 . S
C893 C892 1.524 . S
C893 C894 1.397 . S
C893 C898 1.363 . S
C894 H871 0.950 . S
C894 C893 1.397 . S
C894 C895 1.334 . S
C895 H872 0.950 . S
C895 C894 1.334 . S
C895 C896 1.287 . S
C896 C895 1.287 . S
C896 C897 1.524 . S
C896 H915 0.913 . S
C897 H873 0.950 . S
C897 C896 1.524 . S
C897 C898 1.415 . S
C898 H874 0.950 . S
C898 C893 1.363 . S
C898 C897 1.415 . S
C899 H875 0.951 . S
C899 C900 1.366 . S
C899 C901 1.388 . S
C900 C899 1.366 . S
C900 C904 1.385 . S
C901 H876 0.951 . S
C901 C899 1.388 . S
C901 C902 1.366 . S
C902 C901 1.366 . S
C902 C903 1.414 . S
C902 C905 1.499 . S
C903 H877 0.950 . S
C903 C902 1.414 . S
C903 C904 1.374 . S
C904 H878 0.950 . S
C904 C900 1.385 . S
C904 C903 1.374 . S
C905 C902 1.499 . S
C905 C906 1.373 . S
C905 C907 1.389 . S
C906 H879 0.950 . S
C906 C892 1.377 . S
C906 C905 1.373 . S
C907 C891 1.377 . S
C907 C905 1.389 . S
C907 C908 1.524 . S
C908 C907 1.524 . S
C908 C909 1.397 . S
C908 C913 1.363 . S
C909 H880 0.950 . S
C909 C908 1.397 . S
C909 C910 1.334 . S
C910 H881 0.950 . S
C910 C909 1.334 . S
C910 C911 1.287 . S
C911 C910 1.287 . S
C911 C912 1.524 . S
C911 H914 0.999 . S
C912 H882 0.950 . S
C912 C911 1.524 . S
C912 C913 1.415 . S
C913 H883 0.950 . S
C913 C908 1.363 . S
C913 C912 1.415 . S
H914 C911 0.999 . S
H915 C896 0.913 . S
H916 C934 0.951 . S
H917 C936 0.951 . S
H918 C938 0.950 . S
H919 C939 0.950 . S
H920 C941 0.950 . S
H921 C944 0.950 . S
H922 C945 0.950 . S
H923 C947 0.950 . S
H924 C948 0.950 . S
H925 C949 0.951 . S
H926 C951 0.951 . S
H927 C953 0.950 . S
H928 C954 0.950 . S
H929 C956 0.950 . S
H930 C959 0.950 . S
H931 C960 0.950 . S
H932 C962 0.950 . S
H933 C963 0.950 . S
C934 H916 0.951 . S
C934 C935 1.366 . S
C934 C936 1.388 . S
C935 C934 1.366 . S
C935 C939 1.385 . S
C936 H917 0.951 . S
C936 C934 1.388 . S
C936 C937 1.366 . S
C937 C936 1.366 . S
C937 C938 1.414 . S
C937 C940 1.499 . S
C938 H918 0.950 . S
C938 C937 1.414 . S
C938 C939 1.374 . S
C939 H919 0.950 . S
C939 C935 1.385 . S
C939 C938 1.374 . S
C940 C937 1.499 . S
C940 C941 1.373 . S
C940 C942 1.389 . S
C941 H920 0.950 . S
C941 C940 1.373 . S
C941 C957 1.377 . S
C942 C940 1.389 . S
C942 C943 1.524 . S
C942 C956 1.377 . S
C943 C942 1.524 . S
C943 C944 1.397 . S
C943 C948 1.363 . S
C944 H921 0.950 . S
C944 C943 1.397 . S
C944 C945 1.334 . S
C945 H922 0.950 . S
C945 C944 1.334 . S
C945 C946 1.287 . S
C946 C945 1.287 . S
C946 C947 1.524 . S
C946 H965 0.913 . S
C947 H923 0.950 . S
C947 C946 1.524 . S
C947 C948 1.415 . S
C948 H924 0.950 . S
C948 C943 1.363 . S
C948 C947 1.415 . S
C949 H925 0.951 . S
C949 C950 1.366 . S
C949 C951 1.388 . S
C950 C949 1.366 . S
C950 C954 1.385 . S
C951 H926 0.951 . S
C951 C949 1.388 . S
C951 C952 1.366 . S
C952 C951 1.366 . S
C952 C953 1.414 . S
C952 C955 1.499 . S
C953 H927 0.950 . S
C953 C952 1.414 . S
C953 C954 1.374 . S
C954 H928 0.950 . S
C954 C950 1.385 . S
C954 C953 1.374 . S
C955 C952 1.499 . S
C955 C956 1.373 . S
C955 C957 1.389 . S
C956 H929 0.950 . S
C956 C942 1.377 . S
C956 C955 1.373 . S
C957 C941 1.377 . S
C957 C955 1.389 . S
C957 C958 1.524 . S
C958 C957 1.524 . S
C958 C959 1.397 . S
C958 C963 1.363 . S
C959 H930 0.950 . S
C959 C958 1.397 . S
C959 C960 1.334 . S
C960 H931 0.950 . S
C960 C959 1.334 . S
C960 C961 1.287 . S
C961 C960 1.287 . S
C961 C962 1.524 . S
C961 H964 0.999 . S
C962 H932 0.950 . S
C962 C961 1.524 . S
C962 C963 1.415 . S
C963 H933 0.950 . S
C963 C958 1.363 . S
C963 C962 1.415 . S
H964 C961 0.999 . S
H965 C946 0.913 . S
H966 C984 0.951 . S
H967 C986 0.951 . S
H968 C988 0.950 . S
H969 C989 0.950 . S
H970 C991 0.950 . S
H971 C994 0.950 . S
H972 C995 0.950 . S
H973 C997 0.950 . S
H974 C998 0.950 . S
H975 C999 0.951 . S
H976 C1001 0.951 . S
H977 C1003 0.950 . S
H978 C1004 0.950 . S
H979 C1006 0.950 . S
H980 C1009 0.950 . S
H981 C1010 0.950 . S
H982 C1012 0.950 . S
H983 C1013 0.950 . S
C984 H966 0.951 . S
C984 C985 1.366 . S
C984 C986 1.388 . S
C985 C984 1.366 . S
C985 C989 1.385 . S
C986 H967 0.951 . S
C986 C984 1.388 . S
C986 C987 1.366 . S
C987 C986 1.366 . S
C987 C988 1.414 . S
C987 C990 1.499 . S
C988 H968 0.950 . S
C988 C987 1.414 . S
C988 C989 1.374 . S
C989 H969 0.950 . S
C989 C985 1.385 . S
C989 C988 1.374 . S
C990 C987 1.499 . S
C990 C991 1.373 . S
C990 C992 1.389 . S
C991 H970 0.950 . S
C991 C990 1.373 . S
C991 C1007 1.377 . S
C992 C990 1.389 . S
C992 C993 1.524 . S
C992 C1006 1.377 . S
C993 C992 1.524 . S
C993 C994 1.397 . S
C993 C998 1.363 . S
C994 H971 0.950 . S
C994 C993 1.397 . S
C994 C995 1.334 . S
C995 H972 0.950 . S
C995 C994 1.334 . S
C995 C996 1.287 . S
C996 C995 1.287 . S
C996 C997 1.524 . S
C996 H1015 0.913 . S
C997 H973 0.950 . S
C997 C996 1.524 . S
C997 C998 1.415 . S
C998 H974 0.950 . S
C998 C993 1.363 . S
C998 C997 1.415 . S
C999 H975 0.951 . S
C999 C1000 1.366 . S
C999 C1001 1.388 . S
C1000 C999 1.366 . S
C1000 C1004 1.385 . S
C1001 H976 0.951 . S
C1001 C999 1.388 . S
C1001 C1002 1.366 . S
C1002 C1001 1.366 . S
C1002 C1003 1.414 . S
C1002 C1005 1.499 . S
C1003 H977 0.950 . S
C1003 C1002 1.414 . S
C1003 C1004 1.374 . S
C1004 H978 0.950 . S
C1004 C1000 1.385 . S
C1004 C1003 1.374 . S
C1005 C1002 1.499 . S
C1005 C1006 1.373 . S
C1005 C1007 1.389 . S
C1006 H979 0.950 . S
C1006 C992 1.377 . S
C1006 C1005 1.373 . S
C1007 C991 1.377 . S
C1007 C1005 1.389 . S
C1007 C1008 1.524 . S
C1008 C1007 1.524 . S
C1008 C1009 1.397 . S
C1008 C1013 1.363 . S
C1009 H980 0.950 . S
C1009 C1008 1.397 . S
C1009 C1010 1.334 . S
C1010 H981 0.950 . S
C1010 C1009 1.334 . S
C1010 C1011 1.287 . S
C1011 C1010 1.287 . S
C1011 C1012 1.524 . S
C1011 H1014 0.999 . S
C1012 H982 0.950 . S
C1012 C1011 1.524 . S
C1012 C1013 1.415 . S
C1013 H983 0.950 . S
C1013 C1008 1.363 . S
C1013 C1012 1.415 . S
H1014 C1011 0.999 . S
H1015 C996 0.913 . S
H1016 C1034 0.951 . S
H1017 C1036 0.951 . S
H1018 C1038 0.950 . S
H1019 C1039 0.950 . S
H1020 C1041 0.950 . S
H1021 C1044 0.950 . S
H1022 C1045 0.950 . S
H1023 C1047 0.950 . S
H1024 C1048 0.950 . S
H1025 C1049 0.951 . S
H1026 C1051 0.951 . S
H1027 C1053 0.950 . S
H1028 C1054 0.950 . S
H1029 C1056 0.950 . S
H1030 C1059 0.950 . S
H1031 C1060 0.950 . S
H1032 C1062 0.950 . S
H1033 C1063 0.950 . S
C1034 H1016 0.951 . S
C1034 C1035 1.366 . S
C1034 C1036 1.388 . S
C1035 C1034 1.366 . S
C1035 C1039 1.385 . S
C1036 H1017 0.951 . S
C1036 C1034 1.388 . S
C1036 C1037 1.366 . S
C1037 C1036 1.366 . S
C1037 C1038 1.414 . S
C1037 C1040 1.499 . S
C1038 H1018 0.950 . S
C1038 C1037 1.414 . S
C1038 C1039 1.374 . S
C1039 H1019 0.950 . S
C1039 C1035 1.385 . S
C1039 C1038 1.374 . S
C1040 C1037 1.499 . S
C1040 C1041 1.373 . S
C1040 C1042 1.389 . S
C1041 H1020 0.950 . S
C1041 C1040 1.373 . S
C1041 C1057 1.377 . S
C1042 C1040 1.389 . S
C1042 C1043 1.524 . S
C1042 C1056 1.377 . S
C1043 C1042 1.524 . S
C1043 C1044 1.397 . S
C1043 C1048 1.363 . S
C1044 H1021 0.950 . S
C1044 C1043 1.397 . S
C1044 C1045 1.334 . S
C1045 H1022 0.950 . S
C1045 C1044 1.334 . S
C1045 C1046 1.287 . S
C1046 C1045 1.287 . S
C1046 C1047 1.524 . S
C1046 H1065 0.913 . S
C1047 H1023 0.950 . S
C1047 C1046 1.524 . S
C1047 C1048 1.415 . S
C1048 H1024 0.950 . S
C1048 C1043 1.363 . S
C1048 C1047 1.415 . S
C1049 H1025 0.951 . S
C1049 C1050 1.366 . S
C1049 C1051 1.388 . S
C1050 C1049 1.366 . S
C1050 C1054 1.385 . S
C1051 H1026 0.951 . S
C1051 C1049 1.388 . S
C1051 C1052 1.366 . S
C1052 C1051 1.366 . S
C1052 C1053 1.414 . S
C1052 C1055 1.499 . S
C1053 H1027 0.950 . S
C1053 C1052 1.414 . S
C1053 C1054 1.374 . S
C1054 H1028 0.950 . S
C1054 C1050 1.385 . S
C1054 C1053 1.374 . S
C1055 C1052 1.499 . S
C1055 C1056 1.373 . S
C1055 C1057 1.389 . S
C1056 H1029 0.950 . S
C1056 C1042 1.377 . S
C1056 C1055 1.373 . S
C1057 C1041 1.377 . S
C1057 C1055 1.389 . S
C1057 C1058 1.524 . S
C1058 C1057 1.524 . S
C1058 C1059 1.397 . S
C1058 C1063 1.363 . S
C1059 H1030 0.950 . S
C1059 C1058 1.397 . S
C1059 C1060 1.334 . S
C1060 H1031 0.950 . S
C1060 C1059 1.334 . S
C1060 C1061 1.287 . S
C1061 C1060 1.287 . S
C1061 C1062 1.524 . S
C1061 H1064 0.999 . S
C1062 H1032 0.950 . S
C1062 C1061 1.524 . S
C1062 C1063 1.415 . S
C1063 H1033 0.950 . S
C1063 C1058 1.363 . S
C1063 C1062 1.415 . S
H1064 C1061 0.999 . S
H1065 C1046 0.913 . S
H1066 C1084 0.951 . S
H1067 C1086 0.951 . S
H1068 C1088 0.950 . S
H1069 C1089 0.950 . S
H1070 C1091 0.950 . S
H1071 C1094 0.950 . S
H1072 C1095 0.950 . S
H1073 C1097 0.950 . S
H1074 C1098 0.950 . S
H1075 C1099 0.951 . S
H1076 C1101 0.951 . S
H1077 C1103 0.950 . S
H1078 C1104 0.950 . S
H1079 C1106 0.950 . S
H1080 C1109 0.950 . S
H1081 C1110 0.950 . S
H1082 C1112 0.950 . S
H1083 C1113 0.950 . S
C1084 H1066 0.951 . S
C1084 C1085 1.366 . S
C1084 C1086 1.388 . S
C1085 C1084 1.366 . S
C1085 C1089 1.385 . S
C1086 H1067 0.951 . S
C1086 C1084 1.388 . S
C1086 C1087 1.366 . S
C1087 C1086 1.366 . S
C1087 C1088 1.414 . S
C1087 C1090 1.499 . S
C1088 H1068 0.950 . S
C1088 C1087 1.414 . S
C1088 C1089 1.374 . S
C1089 H1069 0.950 . S
C1089 C1085 1.385 . S
C1089 C1088 1.374 . S
C1090 C1087 1.499 . S
C1090 C1091 1.373 . S
C1090 C1092 1.389 . S
C1091 H1070 0.950 . S
C1091 C1090 1.373 . S
C1091 C1107 1.377 . S
C1092 C1090 1.389 . S
C1092 C1093 1.524 . S
C1092 C1106 1.377 . S
C1093 C1092 1.524 . S
C1093 C1094 1.397 . S
C1093 C1098 1.363 . S
C1094 H1071 0.950 . S
C1094 C1093 1.397 . S
C1094 C1095 1.334 . S
C1095 H1072 0.950 . S
C1095 C1094 1.334 . S
C1095 C1096 1.287 . S
C1096 C1095 1.287 . S
C1096 C1097 1.524 . S
C1096 H1115 0.913 . S
C1097 H1073 0.950 . S
C1097 C1096 1.524 . S
C1097 C1098 1.415 . S
C1098 H1074 0.950 . S
C1098 C1093 1.363 . S
C1098 C1097 1.415 . S
C1099 H1075 0.951 . S
C1099 C1100 1.366 . S
C1099 C1101 1.388 . S
C1100 C1099 1.366 . S
C1100 C1104 1.385 . S
C1101 H1076 0.951 . S
C1101 C1099 1.388 . S
C1101 C1102 1.366 . S
C1102 C1101 1.366 . S
C1102 C1103 1.414 . S
C1102 C1105 1.499 . S
C1103 H1077 0.950 . S
C1103 C1102 1.414 . S
C1103 C1104 1.374 . S
C1104 H1078 0.950 . S
C1104 C1100 1.385 . S
C1104 C1103 1.374 . S
C1105 C1102 1.499 . S
C1105 C1106 1.373 . S
C1105 C1107 1.389 . S
C1106 H1079 0.950 . S
C1106 C1092 1.377 . S
C1106 C1105 1.373 . S
C1107 C1091 1.377 . S
C1107 C1105 1.389 . S
C1107 C1108 1.524 . S
C1108 C1107 1.524 . S
C1108 C1109 1.397 . S
C1108 C1113 1.363 . S
C1109 H1080 0.950 . S
C1109 C1108 1.397 . S
C1109 C1110 1.334 . S
C1110 H1081 0.950 . S
C1110 C1109 1.334 . S
C1110 C1111 1.287 . S
C1111 C1110 1.287 . S
C1111 C1112 1.524 . S
C1111 H1114 0.999 . S
C1112 H1082 0.950 . S
C1112 C1111 1.524 . S
C1112 C1113 1.415 . S
C1113 H1083 0.950 . S
C1113 C1108 1.363 . S
C1113 C1112 1.415 . S
H1114 C1111 0.999 . S
H1115 C1096 0.913 . S
H1116 C1134 0.951 . S
H1117 C1136 0.951 . S
H1118 C1138 0.950 . S
H1119 C1139 0.950 . S
H1120 C1141 0.950 . S
H1121 C1144 0.950 . S
H1122 C1145 0.950 . S
H1123 C1147 0.950 . S
H1124 C1148 0.950 . S
H1125 C1149 0.951 . S
H1126 C1151 0.951 . S
H1127 C1153 0.950 . S
H1128 C1154 0.950 . S
H1129 C1156 0.950 . S
H1130 C1159 0.950 . S
H1131 C1160 0.950 . S
H1132 C1162 0.950 . S
H1133 C1163 0.950 . S
C1134 H1116 0.951 . S
C1134 C1135 1.366 . S
C1134 C1136 1.388 . S
C1135 C1134 1.366 . S
C1135 C1139 1.385 . S
C1136 H1117 0.951 . S
C1136 C1134 1.388 . S
C1136 C1137 1.366 . S
C1137 C1136 1.366 . S
C1137 C1138 1.414 . S
C1137 C1140 1.499 . S
C1138 H1118 0.950 . S
C1138 C1137 1.414 . S
C1138 C1139 1.374 . S
C1139 H1119 0.950 . S
C1139 C1135 1.385 . S
C1139 C1138 1.374 . S
C1140 C1137 1.499 . S
C1140 C1141 1.373 . S
C1140 C1142 1.389 . S
C1141 H1120 0.950 . S
C1141 C1140 1.373 . S
C1141 C1157 1.377 . S
C1142 C1140 1.389 . S
C1142 C1143 1.524 . S
C1142 C1156 1.377 . S
C1143 C1142 1.524 . S
C1143 C1144 1.397 . S
C1143 C1148 1.363 . S
C1144 H1121 0.950 . S
C1144 C1143 1.397 . S
C1144 C1145 1.334 . S
C1145 H1122 0.950 . S
C1145 C1144 1.334 . S
C1145 C1146 1.287 . S
C1146 C1145 1.287 . S
C1146 C1147 1.524 . S
C1146 H1165 0.913 . S
C1147 H1123 0.950 . S
C1147 C1146 1.524 . S
C1147 C1148 1.415 . S
C1148 H1124 0.950 . S
C1148 C1143 1.363 . S
C1148 C1147 1.415 . S
C1149 H1125 0.951 . S
C1149 C1150 1.366 . S
C1149 C1151 1.388 . S
C1150 C1149 1.366 . S
C1150 C1154 1.385 . S
C1151 H1126 0.951 . S
C1151 C1149 1.388 . S
C1151 C1152 1.366 . S
C1152 C1151 1.366 . S
C1152 C1153 1.414 . S
C1152 C1155 1.499 . S
C1153 H1127 0.950 . S
C1153 C1152 1.414 . S
C1153 C1154 1.374 . S
C1154 H1128 0.950 . S
C1154 C1150 1.385 . S
C1154 C1153 1.374 . S
C1155 C1152 1.499 . S
C1155 C1156 1.373 . S
C1155 C1157 1.389 . S
C1156 H1129 0.950 . S
C1156 C1142 1.377 . S
C1156 C1155 1.373 . S
C1157 C1141 1.377 . S
C1157 C1155 1.389 . S
C1157 C1158 1.524 . S
C1158 C1157 1.524 . S
C1158 C1159 1.397 . S
C1158 C1163 1.363 . S
C1159 H1130 0.950 . S
C1159 C1158 1.397 . S
C1159 C1160 1.334 . S
C1160 H1131 0.950 . S
C1160 C1159 1.334 . S
C1160 C1161 1.287 . S
C1161 C1160 1.287 . S
C1161 C1162 1.524 . S
C1161 H1164 0.999 . S
C1162 H1132 0.950 . S
C1162 C1161 1.524 . S
C1162 C1163 1.415 . S
C1163 H1133 0.950 . S
C1163 C1158 1.363 . S
C1163 C1162 1.415 . S
H1164 C1161 0.999 . S
H1165 C1146 0.913 . S
H1166 C1184 0.951 . S
H1167 C1186 0.951 . S
H1168 C1188 0.950 . S
H1169 C1189 0.950 . S
H1170 C1191 0.950 . S
H1171 C1194 0.950 . S
H1172 C1195 0.950 . S
H1173 C1197 0.950 . S
H1174 C1198 0.950 . S
H1175 C1199 0.951 . S
H1176 C1201 0.951 . S
H1177 C1203 0.950 . S
H1178 C1204 0.950 . S
H1179 C1206 0.950 . S
H1180 C1209 0.950 . S
H1181 C1210 0.950 . S
H1182 C1212 0.950 . S
H1183 C1213 0.950 . S
C1184 H1166 0.951 . S
C1184 C1185 1.366 . S
C1184 C1186 1.388 . S
C1185 C1184 1.366 . S
C1185 C1189 1.385 . S
C1186 H1167 0.951 . S
C1186 C1184 1.388 . S
C1186 C1187 1.366 . S
C1187 C1186 1.366 . S
C1187 C1188 1.414 . S
C1187 C1190 1.499 . S
C1188 H1168 0.950 . S
C1188 C1187 1.414 . S
C1188 C1189 1.374 . S
C1189 H1169 0.950 . S
C1189 C1185 1.385 . S
C1189 C1188 1.374 . S
C1190 C1187 1.499 . S
C1190 C1191 1.373 . S
C1190 C1192 1.389 . S
C1191 H1170 0.950 . S
C1191 C1190 1.373 . S
C1191 C1207 1.377 . S
C1192 C1190 1.389 . S
C1192 C1193 1.524 . S
C1192 C1206 1.377 . S
C1193 C1192 1.524 . S
C1193 C1194 1.397 . S
C1193 C1198 1.363 . S
C1194 H1171 0.950 . S
C1194 C1193 1.397 . S
C1194 C1195 1.334 . S
C1195 H1172 0.950 . S
C1195 C1194 1.334 . S
C1195 C1196 1.287 . S
C1196 C1195 1.287 . S
C1196 C1197 1.524 . S
C1196 H1215 0.913 . S
C1197 H1173 0.950 . S
C1197 C1196 1.524 . S
C1197 C1198 1.415 . S
C1198 H1174 0.950 . S
C1198 C1193 1.363 . S
C1198 C1197 1.415 . S
C1199 H1175 0.951 . S
C1199 C1200 1.366 . S
C1199 C1201 1.388 . S
C1200 C1199 1.366 . S
C1200 C1204 1.385 . S
C1201 H1176 0.951 . S
C1201 C1199 1.388 . S
C1201 C1202 1.366 . S
C1202 C1201 1.366 . S
C1202 C1203 1.414 . S
C1202 C1205 1.499 . S
C1203 H1177 0.950 . S
C1203 C1202 1.414 . S
C1203 C1204 1.374 . S
C1204 H1178 0.950 . S
C1204 C1200 1.385 . S
C1204 C1203 1.374 . S
C1205 C1202 1.499 . S
C1205 C1206 1.373 . S
C1205 C1207 1.389 . S
C1206 H1179 0.950 . S
C1206 C1192 1.377 . S
C1206 C1205 1.373 . S
C1207 C1191 1.377 . S
C1207 C1205 1.389 . S
C1207 C1208 1.524 . S
C1208 C1207 1.524 . S
C1208 C1209 1.397 . S
C1208 C1213 1.363 . S
C1209 H1180 0.950 . S
C1209 C1208 1.397 . S
C1209 C1210 1.334 . S
C1210 H1181 0.950 . S
C1210 C1209 1.334 . S
C1210 C1211 1.287 . S
C1211 C1210 1.287 . S
C1211 C1212 1.524 . S
C1211 H1214 0.999 . S
C1212 H1182 0.950 . S
C1212 C1211 1.524 . S
C1212 C1213 1.415 . S
C1213 H1183 0.950 . S
C1213 C1208 1.363 . S
C1213 C1212 1.415 . S
H1214 C1211 0.999 . S
H1215 C1196 0.913 . S
H1216 C1234 0.951 . S
H1217 C1236 0.951 . S
H1218 C1238 0.950 . S
H1219 C1239 0.950 . S
H1220 C1241 0.950 . S
H1221 C1244 0.950 . S
H1222 C1245 0.950 . S
H1223 C1247 0.950 . S
H1224 C1248 0.950 . S
H1225 C1249 0.951 . S
H1226 C1251 0.951 . S
H1227 C1253 0.950 . S
H1228 C1254 0.950 . S
H1229 C1256 0.950 . S
H1230 C1259 0.950 . S
H1231 C1260 0.950 . S
H1232 C1262 0.950 . S
H1233 C1263 0.950 . S
C1234 H1216 0.951 . S
C1234 C1235 1.366 . S
C1234 C1236 1.388 . S
C1235 C1234 1.366 . S
C1235 C1239 1.385 . S
C1236 H1217 0.951 . S
C1236 C1234 1.388 . S
C1236 C1237 1.366 . S
C1237 C1236 1.366 . S
C1237 C1238 1.414 . S
C1237 C1240 1.499 . S
C1238 H1218 0.950 . S
C1238 C1237 1.414 . S
C1238 C1239 1.374 . S
C1239 H1219 0.950 . S
C1239 C1235 1.385 . S
C1239 C1238 1.374 . S
C1240 C1237 1.499 . S
C1240 C1241 1.373 . S
C1240 C1242 1.389 . S
C1241 H1220 0.950 . S
C1241 C1240 1.373 . S
C1241 C1257 1.377 . S
C1242 C1240 1.389 . S
C1242 C1243 1.524 . S
C1242 C1256 1.377 . S
C1243 C1242 1.524 . S
C1243 C1244 1.397 . S
C1243 C1248 1.363 . S
C1244 H1221 0.950 . S
C1244 C1243 1.397 . S
C1244 C1245 1.334 . S
C1245 H1222 0.950 . S
C1245 C1244 1.334 . S
C1245 C1246 1.287 . S
C1246 C1245 1.287 . S
C1246 C1247 1.524 . S
C1246 H1265 0.913 . S
C1247 H1223 0.950 . S
C1247 C1246 1.524 . S
C1247 C1248 1.415 . S
C1248 H1224 0.950 . S
C1248 C1243 1.363 . S
C1248 C1247 1.415 . S
C1249 H1225 0.951 . S
C1249 C1250 1.366 . S
C1249 C1251 1.388 . S
C1250 C1249 1.366 . S
C1250 C1254 1.385 . S
C1251 H1226 0.951 . S
C1251 C1249 1.388 . S
C1251 C1252 1.366 . S
C1252 C1251 1.366 . S
C1252 C1253 1.414 . S
C1252 C1255 1.499 . S
C1253 H1227 0.950 . S
C1253 C1252 1.414 . S
C1253 C1254 1.374 . S
C1254 H1228 0.950 . S
C1254 C1250 1.385 . S
C1254 C1253 1.374 . S
C1255 C1252 1.499 . S
C1255 C1256 1.373 . S
C1255 C1257 1.389 . S
C1256 H1229 0.950 . S
C1256 C1242 1.377 . S
C1256 C1255 1.373 . S
C1257 C1241 1.377 . S
C1257 C1255 1.389 . S
C1257 C1258 1.524 . S
C1258 C1257 1.524 . S
C1258 C1259 1.397 . S
C1258 C1263 1.363 . S
C1259 H1230 0.950 . S
C1259 C1258 1.397 . S
C1259 C1260 1.334 . S
C1260 H1231 0.950 . S
C1260 C1259 1.334 . S
C1260 C1261 1.287 . S
C1261 C1260 1.287 . S
C1261 C1262 1.524 . S
C1261 H1264 0.999 . S
C1262 H1232 0.950 . S
C1262 C1261 1.524 . S
C1262 C1263 1.415 . S
C1263 H1233 0.950 . S
C1263 C1258 1.363 . S
C1263 C1262 1.415 . S
H1264 C1261 0.999 . S
H1265 C1246 0.913 . S
H1266 C1284 0.951 . S
H1267 C1286 0.951 . S
H1268 C1288 0.950 . S
H1269 C1289 0.950 . S
H1270 C1291 0.950 . S
H1271 C1294 0.950 . S
H1272 C1295 0.950 . S
H1273 C1297 0.950 . S
H1274 C1298 0.950 . S
H1275 C1299 0.951 . S
H1276 C1301 0.951 . S
H1277 C1303 0.950 1_655 S
H1278 C1304 0.950 . S
H1279 C1306 0.950 . S
H1280 C1309 0.950 . S
H1281 C1310 0.950 . S
H1282 C1312 0.950 . S
H1283 C1313 0.950 . S
C1284 H1266 0.951 . S
C1284 C1285 1.366 . S
C1284 C1286 1.388 . S
C1285 C1284 1.366 . S
C1285 C1289 1.385 . S
C1286 H1267 0.951 . S
C1286 C1284 1.388 . S
C1286 C1287 1.366 . S
C1287 C1286 1.366 . S
C1287 C1288 1.414 . S
C1287 C1290 1.499 . S
C1288 H1268 0.950 . S
C1288 C1287 1.414 . S
C1288 C1289 1.374 . S
C1289 H1269 0.950 . S
C1289 C1285 1.385 . S
C1289 C1288 1.374 . S
C1290 C1287 1.499 . S
C1290 C1291 1.373 . S
C1290 C1292 1.389 . S
C1291 H1270 0.950 . S
C1291 C1290 1.373 . S
C1291 C1307 1.377 . S
C1292 C1290 1.389 . S
C1292 C1293 1.524 . S
C1292 C1306 1.377 . S
C1293 C1292 1.524 . S
C1293 C1294 1.397 . S
C1293 C1298 1.363 . S
C1294 H1271 0.950 . S
C1294 C1293 1.397 . S
C1294 C1295 1.334 . S
C1295 H1272 0.950 . S
C1295 C1294 1.334 . S
C1295 C1296 1.287 . S
C1296 C1295 1.287 . S
C1296 C1297 1.524 . S
C1296 H1315 0.913 . S
C1297 H1273 0.950 . S
C1297 C1296 1.524 . S
C1297 C1298 1.415 . S
C1298 H1274 0.950 . S
C1298 C1293 1.363 . S
C1298 C1297 1.415 . S
C1299 H1275 0.951 . S
C1299 C1300 1.366 . S
C1299 C1301 1.388 . S
C1300 C1299 1.366 . S
C1300 C1304 1.385 . S
C1301 H1276 0.951 . S
C1301 C1299 1.388 . S
C1301 C1302 1.366 . S
C1302 C1301 1.366 . S
C1302 C1303 1.414 . S
C1302 C1305 1.499 1_455 S
C1303 H1277 0.950 1_455 S
C1303 C1302 1.414 . S
C1303 C1304 1.374 . S
C1304 H1278 0.950 . S
C1304 C1300 1.385 . S
C1304 C1303 1.374 . S
C1305 C1302 1.499 1_655 S
C1305 C1306 1.373 . S
C1305 C1307 1.389 . S
C1306 H1279 0.950 . S
C1306 C1292 1.377 . S
C1306 C1305 1.373 . S
C1307 C1291 1.377 . S
C1307 C1305 1.389 . S
C1307 C1308 1.524 . S
C1308 C1307 1.524 . S
C1308 C1309 1.397 . S
C1308 C1313 1.363 . S
C1309 H1280 0.950 . S
C1309 C1308 1.397 . S
C1309 C1310 1.334 1_655 S
C1310 H1281 0.950 . S
C1310 C1309 1.334 1_455 S
C1310 C1311 1.287 . S
C1311 C1310 1.287 . S
C1311 C1312 1.524 . S
C1311 H1314 0.999 . S
C1312 H1282 0.950 . S
C1312 C1311 1.524 . S
C1312 C1313 1.415 1_455 S
C1313 H1283 0.950 . S
C1313 C1308 1.363 . S
C1313 C1312 1.415 1_655 S
H1314 C1311 0.999 . S
H1315 C1296 0.913 . S
H1316 C1334 0.951 . S
H1317 C1336 0.951 . S
H1318 C1338 0.950 . S
H1319 C1339 0.950 . S
H1320 C1341 0.950 . S
H1321 C1344 0.950 . S
H1322 C1345 0.950 . S
H1323 C1347 0.950 . S
H1324 C1348 0.950 . S
H1325 C1349 0.951 . S
H1326 C1351 0.951 . S
H1327 C1353 0.950 . S
H1328 C1354 0.950 . S
H1329 C1356 0.950 . S
H1330 C1359 0.950 . S
H1331 C1360 0.950 . S
H1332 C1362 0.950 . S
H1333 C1363 0.950 . S
C1334 H1316 0.951 . S
C1334 C1335 1.366 . S
C1334 C1336 1.388 . S
C1335 C1334 1.366 . S
C1335 C1339 1.385 . S
C1336 H1317 0.951 . S
C1336 C1334 1.388 . S
C1336 C1337 1.366 . S
C1337 C1336 1.366 . S
C1337 C1338 1.414 . S
C1337 C1340 1.499 . S
C1338 H1318 0.950 . S
C1338 C1337 1.414 . S
C1338 C1339 1.374 . S
C1339 H1319 0.950 . S
C1339 C1335 1.385 . S
C1339 C1338 1.374 . S
C1340 C1337 1.499 . S
C1340 C1341 1.373 . S
C1340 C1342 1.389 . S
C1341 H1320 0.950 . S
C1341 C1340 1.373 . S
C1341 C1357 1.377 . S
C1342 C1340 1.389 . S
C1342 C1343 1.524 . S
C1342 C1356 1.377 . S
C1343 C1342 1.524 . S
C1343 C1344 1.397 . S
C1343 C1348 1.363 . S
C1344 H1321 0.950 . S
C1344 C1343 1.397 . S
C1344 C1345 1.334 . S
C1345 H1322 0.950 . S
C1345 C1344 1.334 . S
C1345 C1346 1.287 . S
C1346 C1345 1.287 . S
C1346 C1347 1.524 . S
C1346 H1365 0.913 . S
C1347 H1323 0.950 . S
C1347 C1346 1.524 . S
C1347 C1348 1.415 . S
C1348 H1324 0.950 . S
C1348 C1343 1.363 . S
C1348 C1347 1.415 . S
C1349 H1325 0.951 . S
C1349 C1350 1.366 . S
C1349 C1351 1.388 . S
C1350 C1349 1.366 . S
C1350 C1354 1.385 . S
C1351 H1326 0.951 . S
C1351 C1349 1.388 . S
C1351 C1352 1.366 . S
C1352 C1351 1.366 . S
C1352 C1353 1.414 . S
C1352 C1355 1.499 . S
C1353 H1327 0.950 . S
C1353 C1352 1.414 . S
C1353 C1354 1.374 . S
C1354 H1328 0.950 . S
C1354 C1350 1.385 . S
C1354 C1353 1.374 . S
C1355 C1352 1.499 . S
C1355 C1356 1.373 . S
C1355 C1357 1.389 . S
C1356 H1329 0.950 . S
C1356 C1342 1.377 . S
C1356 C1355 1.373 . S
C1357 C1341 1.377 . S
C1357 C1355 1.389 . S
C1357 C1358 1.524 . S
C1358 C1357 1.524 . S
C1358 C1359 1.397 . S
C1358 C1363 1.363 . S
C1359 H1330 0.950 . S
C1359 C1358 1.397 . S
C1359 C1360 1.334 . S
C1360 H1331 0.950 . S
C1360 C1359 1.334 . S
C1360 C1361 1.287 . S
C1361 C1360 1.287 . S
C1361 C1362 1.524 . S
C1361 H1364 0.999 . S
C1362 H1332 0.950 . S
C1362 C1361 1.524 . S
C1362 C1363 1.415 . S
C1363 H1333 0.950 . S
C1363 C1358 1.363 . S
C1363 C1362 1.415 . S
H1364 C1361 0.999 . S
H1365 C1346 0.913 . S
H1366 C1384 0.951 . S
H1367 C1386 0.951 . S
H1368 C1388 0.950 . S
H1369 C1389 0.950 . S
H1370 C1391 0.950 . S
H1371 C1394 0.950 . S
H1372 C1395 0.950 . S
H1373 C1397 0.950 . S
H1374 C1398 0.950 . S
H1375 C1399 0.951 . S
H1376 C1401 0.951 . S
H1377 C1403 0.950 . S
H1378 C1404 0.950 . S
H1379 C1406 0.950 . S
H1380 C1409 0.950 . S
H1381 C1410 0.950 . S
H1382 C1412 0.950 . S
H1383 C1413 0.950 . S
C1384 H1366 0.951 . S
C1384 C1385 1.366 . S
C1384 C1386 1.388 . S
C1385 C1384 1.366 . S
C1385 C1389 1.385 . S
C1386 H1367 0.951 . S
C1386 C1384 1.388 . S
C1386 C1387 1.366 . S
C1387 C1386 1.366 . S
C1387 C1388 1.414 . S
C1387 C1390 1.499 . S
C1388 H1368 0.950 . S
C1388 C1387 1.414 . S
C1388 C1389 1.374 . S
C1389 H1369 0.950 . S
C1389 C1385 1.385 . S
C1389 C1388 1.374 . S
C1390 C1387 1.499 . S
C1390 C1391 1.373 . S
C1390 C1392 1.389 . S
C1391 H1370 0.950 . S
C1391 C1390 1.373 . S
C1391 C1407 1.377 . S
C1392 C1390 1.389 . S
C1392 C1393 1.524 . S
C1392 C1406 1.377 . S
C1393 C1392 1.524 . S
C1393 C1394 1.397 . S
C1393 C1398 1.363 . S
C1394 H1371 0.950 . S
C1394 C1393 1.397 . S
C1394 C1395 1.334 . S
C1395 H1372 0.950 . S
C1395 C1394 1.334 . S
C1395 C1396 1.287 . S
C1396 C1395 1.287 . S
C1396 C1397 1.524 . S
C1396 H1415 0.913 . S
C1397 H1373 0.950 . S
C1397 C1396 1.524 . S
C1397 C1398 1.415 . S
C1398 H1374 0.950 . S
C1398 C1393 1.363 . S
C1398 C1397 1.415 . S
C1399 H1375 0.951 . S
C1399 C1400 1.366 . S
C1399 C1401 1.388 . S
C1400 C1399 1.366 . S
C1400 C1404 1.385 . S
C1401 H1376 0.951 . S
C1401 C1399 1.388 . S
C1401 C1402 1.366 . S
C1402 C1401 1.366 . S
C1402 C1403 1.414 . S
C1402 C1405 1.499 . S
C1403 H1377 0.950 . S
C1403 C1402 1.414 . S
C1403 C1404 1.374 . S
C1404 H1378 0.950 . S
C1404 C1400 1.385 . S
C1404 C1403 1.374 . S
C1405 C1402 1.499 . S
C1405 C1406 1.373 . S
C1405 C1407 1.389 . S
C1406 H1379 0.950 . S
C1406 C1392 1.377 . S
C1406 C1405 1.373 . S
C1407 C1391 1.377 . S
C1407 C1405 1.389 . S
C1407 C1408 1.524 . S
C1408 C1407 1.524 . S
C1408 C1409 1.397 . S
C1408 C1413 1.363 . S
C1409 H1380 0.950 . S
C1409 C1408 1.397 . S
C1409 C1410 1.334 . S
C1410 H1381 0.950 . S
C1410 C1409 1.334 . S
C1410 C1411 1.287 . S
C1411 C1410 1.287 . S
C1411 C1412 1.524 . S
C1411 H1414 0.999 . S
C1412 H1382 0.950 . S
C1412 C1411 1.524 . S
C1412 C1413 1.415 . S
C1413 H1383 0.950 . S
C1413 C1408 1.363 . S
C1413 C1412 1.415 . S
H1414 C1411 0.999 . S
H1415 C1396 0.913 . S
H1416 C1434 0.951 . S
H1417 C1436 0.951 . S
H1418 C1438 0.950 . S
H1419 C1439 0.950 . S
H1420 C1441 0.950 . S
H1421 C1444 0.950 . S
H1422 C1445 0.950 . S
H1423 C1447 0.950 . S
H1424 C1448 0.950 . S
H1425 C1449 0.951 . S
H1426 C1451 0.951 . S
H1427 C1453 0.950 . S
H1428 C1454 0.950 . S
H1429 C1456 0.950 . S
H1430 C1459 0.950 . S
H1431 C1460 0.950 . S
H1432 C1462 0.950 . S
H1433 C1463 0.950 . S
C1434 H1416 0.951 . S
C1434 C1435 1.366 . S
C1434 C1436 1.388 . S
C1435 C1434 1.366 . S
C1435 C1439 1.385 . S
C1436 H1417 0.951 . S
C1436 C1434 1.388 . S
C1436 C1437 1.366 . S
C1437 C1436 1.366 . S
C1437 C1438 1.414 . S
C1437 C1440 1.499 . S
C1438 H1418 0.950 . S
C1438 C1437 1.414 . S
C1438 C1439 1.374 . S
C1439 H1419 0.950 . S
C1439 C1435 1.385 . S
C1439 C1438 1.374 . S
C1440 C1437 1.499 . S
C1440 C1441 1.373 . S
C1440 C1442 1.389 . S
C1441 H1420 0.950 . S
C1441 C1440 1.373 . S
C1441 C1457 1.377 . S
C1442 C1440 1.389 . S
C1442 C1443 1.524 . S
C1442 C1456 1.377 . S
C1443 C1442 1.524 . S
C1443 C1444 1.397 . S
C1443 C1448 1.363 . S
C1444 H1421 0.950 . S
C1444 C1443 1.397 . S
C1444 C1445 1.334 . S
C1445 H1422 0.950 . S
C1445 C1444 1.334 . S
C1445 C1446 1.287 . S
C1446 C1445 1.287 . S
C1446 C1447 1.524 . S
C1446 H1465 0.913 . S
C1447 H1423 0.950 . S
C1447 C1446 1.524 . S
C1447 C1448 1.415 . S
C1448 H1424 0.950 . S
C1448 C1443 1.363 . S
C1448 C1447 1.415 . S
C1449 H1425 0.951 . S
C1449 C1450 1.366 . S
C1449 C1451 1.388 . S
C1450 C1449 1.366 . S
C1450 C1454 1.385 . S
C1451 H1426 0.951 . S
C1451 C1449 1.388 . S
C1451 C1452 1.366 . S
C1452 C1451 1.366 . S
C1452 C1453 1.414 . S
C1452 C1455 1.499 . S
C1453 H1427 0.950 . S
C1453 C1452 1.414 . S
C1453 C1454 1.374 . S
C1454 H1428 0.950 . S
C1454 C1450 1.385 . S
C1454 C1453 1.374 . S
C1455 C1452 1.499 . S
C1455 C1456 1.373 . S
C1455 C1457 1.389 . S
C1456 H1429 0.950 . S
C1456 C1442 1.377 . S
C1456 C1455 1.373 . S
C1457 C1441 1.377 . S
C1457 C1455 1.389 . S
C1457 C1458 1.524 . S
C1458 C1457 1.524 . S
C1458 C1459 1.397 . S
C1458 C1463 1.363 . S
C1459 H1430 0.950 . S
C1459 C1458 1.397 . S
C1459 C1460 1.334 . S
C1460 H1431 0.950 . S
C1460 C1459 1.334 . S
C1460 C1461 1.287 . S
C1461 C1460 1.287 . S
C1461 C1462 1.524 . S
C1461 H1464 0.999 . S
C1462 H1432 0.950 . S
C1462 C1461 1.524 . S
C1462 C1463 1.415 . S
C1463 H1433 0.950 . S
C1463 C1458 1.363 . S
C1463 C1462 1.415 . S
H1464 C1461 0.999 . S
H1465 C1446 0.913 . S
H1466 C1484 0.951 . S
H1467 C1486 0.951 . S
H1468 C1488 0.950 . S
H1469 C1489 0.950 . S
H1470 C1491 0.950 . S
H1471 C1494 0.950 . S
H1472 C1495 0.950 . S
H1473 C1497 0.950 . S
H1474 C1498 0.950 . S
H1475 C1499 0.951 . S
H1476 C1501 0.951 . S
H1477 C1503 0.950 . S
H1478 C1504 0.950 . S
H1479 C1506 0.950 . S
H1480 C1509 0.950 . S
H1481 C1510 0.950 . S
H1482 C1512 0.950 . S
H1483 C1513 0.950 . S
C1484 H1466 0.951 . S
C1484 C1485 1.366 . S
C1484 C1486 1.388 . S
C1485 C1484 1.366 . S
C1485 C1489 1.385 . S
C1486 H1467 0.951 . S
C1486 C1484 1.388 . S
C1486 C1487 1.366 . S
C1487 C1486 1.366 . S
C1487 C1488 1.414 . S
C1487 C1490 1.499 . S
C1488 H1468 0.950 . S
C1488 C1487 1.414 . S
C1488 C1489 1.374 . S
C1489 H1469 0.950 . S
C1489 C1485 1.385 . S
C1489 C1488 1.374 . S
C1490 C1487 1.499 . S
C1490 C1491 1.373 . S
C1490 C1492 1.389 . S
C1491 H1470 0.950 . S
C1491 C1490 1.373 . S
C1491 C1507 1.377 . S
C1492 C1490 1.389 . S
C1492 C1493 1.524 . S
C1492 C1506 1.377 . S
C1493 C1492 1.524 . S
C1493 C1494 1.397 . S
C1493 C1498 1.363 . S
C1494 H1471 0.950 . S
C1494 C1493 1.397 . S
C1494 C1495 1.334 . S
C1495 H1472 0.950 . S
C1495 C1494 1.334 . S
C1495 C1496 1.287 . S
C1496 C1495 1.287 . S
C1496 C1497 1.524 . S
C1496 H1515 0.913 . S
C1497 H1473 0.950 . S
C1497 C1496 1.524 . S
C1497 C1498 1.415 . S
C1498 H1474 0.950 . S
C1498 C1493 1.363 . S
C1498 C1497 1.415 . S
C1499 H1475 0.951 . S
C1499 C1500 1.366 . S
C1499 C1501 1.388 . S
C1500 C1499 1.366 . S
C1500 C1504 1.385 . S
C1501 H1476 0.951 . S
C1501 C1499 1.388 . S
C1501 C1502 1.366 . S
C1502 C1501 1.366 . S
C1502 C1503 1.414 . S
C1502 C1505 1.499 . S
C1503 H1477 0.950 . S
C1503 C1502 1.414 . S
C1503 C1504 1.374 . S
C1504 H1478 0.950 . S
C1504 C1500 1.385 . S
C1504 C1503 1.374 . S
C1505 C1502 1.499 . S
C1505 C1506 1.373 . S
C1505 C1507 1.389 . S
C1506 H1479 0.950 . S
C1506 C1492 1.377 . S
C1506 C1505 1.373 . S
C1507 C1491 1.377 . S
C1507 C1505 1.389 . S
C1507 C1508 1.524 . S
C1508 C1507 1.524 . S
C1508 C1509 1.397 . S
C1508 C1513 1.363 . S
C1509 H1480 0.950 . S
C1509 C1508 1.397 . S
C1509 C1510 1.334 . S
C1510 H1481 0.950 . S
C1510 C1509 1.334 . S
C1510 C1511 1.287 . S
C1511 C1510 1.287 . S
C1511 C1512 1.524 . S
C1511 H1514 0.999 . S
C1512 H1482 0.950 . S
C1512 C1511 1.524 . S
C1512 C1513 1.415 . S
C1513 H1483 0.950 . S
C1513 C1508 1.363 . S
C1513 C1512 1.415 . S
H1514 C1511 0.999 . S
H1515 C1496 0.913 . S
H1516 C1534 0.951 . S
H1517 C1536 0.951 . S
H1518 C1538 0.950 . S
H1519 C1539 0.950 . S
H1520 C1541 0.950 . S
H1521 C1544 0.950 . S
H1522 C1545 0.950 . S
H1523 C1547 0.950 . S
H1524 C1548 0.950 . S
H1525 C1549 0.951 . S
H1526 C1551 0.951 . S
H1527 C1553 0.950 . S
H1528 C1554 0.950 . S
H1529 C1556 0.950 . S
H1530 C1559 0.950 . S
H1531 C1560 0.950 . S
H1532 C1562 0.950 . S
H1533 C1563 0.950 . S
C1534 H1516 0.951 . S
C1534 C1535 1.366 . S
C1534 C1536 1.388 . S
C1535 C1534 1.366 . S
C1535 C1539 1.385 . S
C1536 H1517 0.951 . S
C1536 C1534 1.388 . S
C1536 C1537 1.366 . S
C1537 C1536 1.366 . S
C1537 C1538 1.414 . S
C1537 C1540 1.499 . S
C1538 H1518 0.950 . S
C1538 C1537 1.414 . S
C1538 C1539 1.374 . S
C1539 H1519 0.950 . S
C1539 C1535 1.385 . S
C1539 C1538 1.374 . S
C1540 C1537 1.499 . S
C1540 C1541 1.373 . S
C1540 C1542 1.389 . S
C1541 H1520 0.950 . S
C1541 C1540 1.373 . S
C1541 C1557 1.377 . S
C1542 C1540 1.389 . S
C1542 C1543 1.524 . S
C1542 C1556 1.377 . S
C1543 C1542 1.524 . S
C1543 C1544 1.397 . S
C1543 C1548 1.363 . S
C1544 H1521 0.950 . S
C1544 C1543 1.397 . S
C1544 C1545 1.334 . S
C1545 H1522 0.950 . S
C1545 C1544 1.334 . S
C1545 C1546 1.287 . S
C1546 C1545 1.287 . S
C1546 C1547 1.524 . S
C1546 H1565 0.913 . S
C1547 H1523 0.950 . S
C1547 C1546 1.524 . S
C1547 C1548 1.415 . S
C1548 H1524 0.950 . S
C1548 C1543 1.363 . S
C1548 C1547 1.415 . S
C1549 H1525 0.951 . S
C1549 C1550 1.366 . S
C1549 C1551 1.388 . S
C1550 C1549 1.366 . S
C1550 C1554 1.385 . S
C1551 H1526 0.951 . S
C1551 C1549 1.388 . S
C1551 C1552 1.366 . S
C1552 C1551 1.366 . S
C1552 C1553 1.414 . S
C1552 C1555 1.499 . S
C1553 H1527 0.950 . S
C1553 C1552 1.414 . S
C1553 C1554 1.374 . S
C1554 H1528 0.950 . S
C1554 C1550 1.385 . S
C1554 C1553 1.374 . S
C1555 C1552 1.499 . S
C1555 C1556 1.373 . S
C1555 C1557 1.389 . S
C1556 H1529 0.950 . S
C1556 C1542 1.377 . S
C1556 C1555 1.373 . S
C1557 C1541 1.377 . S
C1557 C1555 1.389 . S
C1557 C1558 1.524 . S
C1558 C1557 1.524 . S
C1558 C1559 1.397 . S
C1558 C1563 1.363 . S
C1559 H1530 0.950 . S
C1559 C1558 1.397 . S
C1559 C1560 1.334 . S
C1560 H1531 0.950 . S
C1560 C1559 1.334 . S
C1560 C1561 1.287 . S
C1561 C1560 1.287 . S
C1561 C1562 1.524 . S
C1561 H1564 0.999 . S
C1562 H1532 0.950 . S
C1562 C1561 1.524 . S
C1562 C1563 1.415 . S
C1563 H1533 0.950 . S
C1563 C1558 1.363 . S
C1563 C1562 1.415 . S
H1564 C1561 0.999 . S
H1565 C1546 0.913 . S
H1566 C1584 0.951 . S
H1567 C1586 0.951 1_655 S
H1568 C1588 0.950 . S
H1569 C1589 0.950 . S
H1570 C1591 0.950 . S
H1571 C1594 0.983 . S
H1572 C1595 0.950 1_455 S
H1573 C1597 0.950 . S
H1574 C1598 0.950 . S
H1575 C1599 0.951 . S
H1576 C1601 0.951 . S
H1577 C1603 0.950 . S
H1578 C1604 0.950 . S
H1579 C1606 0.950 . S
H1580 C1609 0.950 . S
H1581 C1610 0.950 . S
H1582 C1612 0.950 . S
H1583 C1613 0.950 . S
C1584 H1566 0.951 . S
C1584 C1585 1.366 . S
C1584 C1586 1.388 . S
C1585 C1584 1.366 . S
C1585 C1589 1.385 . S
C1586 H1567 0.951 1_455 S
C1586 C1584 1.388 . S
C1586 C1587 1.366 . S
C1587 C1586 1.366 . S
C1587 C1588 1.414 . S
C1587 C1590 1.499 1_455 S
C1588 H1568 0.950 . S
C1588 C1587 1.414 . S
C1588 C1589 1.374 . S
C1589 H1569 0.950 . S
C1589 C1585 1.385 . S
C1589 C1588 1.374 . S
C1590 C1587 1.499 1_655 S
C1590 C1591 1.373 . S
C1590 C1592 1.389 . S
C1591 H1570 0.950 . S
C1591 C1590 1.373 . S
C1591 C1607 1.377 . S
C1592 C1590 1.389 . S
C1592 C1593 1.524 . S
C1592 C1606 1.377 . S
C1593 C1592 1.524 . S
C1593 C1594 1.397 . S
C1593 C1598 1.363 . S
C1594 H1571 0.983 . S
C1594 C1593 1.397 . S
C1594 C1595 1.334 . S
C1595 H1572 0.950 1_655 S
C1595 C1594 1.334 . S
C1595 C1596 1.287 . S
C1596 C1595 1.287 . S
C1596 C1597 1.524 . S
C1596 H1615 0.913 . S
C1597 H1573 0.950 . S
C1597 C1596 1.524 . S
C1597 C1598 1.415 . S
C1598 H1574 0.950 . S
C1598 C1593 1.363 . S
C1598 C1597 1.415 . S
C1599 H1575 0.951 . S
C1599 C1600 1.366 . S
C1599 C1601 1.388 . S
C1600 C1599 1.366 . S
C1600 C1604 1.385 . S
C1601 H1576 0.951 . S
C1601 C1599 1.388 . S
C1601 C1602 1.366 . S
C1602 C1601 1.366 . S
C1602 C1603 1.414 . S
C1602 C1605 1.499 . S
C1603 H1577 0.950 . S
C1603 C1602 1.414 . S
C1603 C1604 1.374 . S
C1604 H1578 0.950 . S
C1604 C1600 1.385 . S
C1604 C1603 1.374 . S
C1605 C1602 1.499 . S
C1605 C1606 1.373 . S
C1605 C1607 1.389 . S
C1606 H1579 0.950 . S
C1606 C1592 1.377 . S
C1606 C1605 1.373 . S
C1607 C1591 1.377 . S
C1607 C1605 1.389 . S
C1607 C1608 1.524 . S
C1608 C1607 1.524 . S
C1608 C1609 1.397 . S
C1608 C1613 1.363 . S
C1609 H1580 0.950 . S
C1609 C1608 1.397 . S
C1609 C1610 1.334 . S
C1610 H1581 0.950 . S
C1610 C1609 1.334 . S
C1610 C1611 1.287 . S
C1611 C1610 1.287 . S
C1611 C1612 1.524 . S
C1611 H1614 0.999 . S
C1612 H1582 0.950 . S
C1612 C1611 1.524 . S
C1612 C1613 1.415 . S
C1613 H1583 0.950 . S
C1613 C1608 1.363 . S
C1613 C1612 1.415 . S
H1614 C1611 0.999 . S
H1615 C1596 0.913 . S
H1616 C1634 0.951 . S
H1617 C1636 0.951 . S
H1618 C1638 0.950 . S
H1619 C1639 0.950 . S
H1620 C1641 0.950 . S
H1621 C1644 0.950 . S
H1622 C1645 0.950 . S
H1623 C1647 0.950 . S
H1624 C1648 0.950 . S
H1625 C1649 0.951 . S
H1626 C1651 0.951 . S
H1627 C1653 0.950 . S
H1628 C1654 0.950 . S
H1629 C1656 0.950 . S
H1630 C1659 0.950 . S
H1631 C1660 0.950 . S
H1632 C1662 0.950 . S
H1633 C1663 0.950 . S
C1634 H1616 0.951 . S
C1634 C1635 1.366 . S
C1634 C1636 1.388 . S
C1635 C1634 1.366 . S
C1635 C1639 1.385 . S
C1636 H1617 0.951 . S
C1636 C1634 1.388 . S
C1636 C1637 1.366 . S
C1637 C1636 1.366 . S
C1637 C1638 1.414 . S
C1637 C1640 1.499 . S
C1638 H1618 0.950 . S
C1638 C1637 1.414 . S
C1638 C1639 1.374 . S
C1639 H1619 0.950 . S
C1639 C1635 1.385 . S
C1639 C1638 1.374 . S
C1640 C1637 1.499 . S
C1640 C1641 1.373 . S
C1640 C1642 1.389 . S
C1641 H1620 0.950 . S
C1641 C1640 1.373 . S
C1641 C1657 1.377 . S
C1642 C1640 1.389 . S
C1642 C1643 1.524 . S
C1642 C1656 1.377 . S
C1643 C1642 1.524 . S
C1643 C1644 1.397 . S
C1643 C1648 1.363 . S
C1644 H1621 0.950 . S
C1644 C1643 1.397 . S
C1644 C1645 1.334 . S
C1645 H1622 0.950 . S
C1645 C1644 1.334 . S
C1645 C1646 1.287 . S
C1646 C1645 1.287 . S
C1646 C1647 1.524 . S
C1646 H1665 0.913 . S
C1647 H1623 0.950 . S
C1647 C1646 1.524 . S
C1647 C1648 1.415 . S
C1648 H1624 0.950 . S
C1648 C1643 1.363 . S
C1648 C1647 1.415 . S
C1649 H1625 0.951 . S
C1649 C1650 1.366 . S
C1649 C1651 1.388 . S
C1650 C1649 1.366 . S
C1650 C1654 1.385 . S
C1651 H1626 0.951 . S
C1651 C1649 1.388 . S
C1651 C1652 1.366 . S
C1652 C1651 1.366 . S
C1652 C1653 1.414 . S
C1652 C1655 1.499 . S
C1653 H1627 0.950 . S
C1653 C1652 1.414 . S
C1653 C1654 1.374 . S
C1654 H1628 0.950 . S
C1654 C1650 1.385 . S
C1654 C1653 1.374 . S
C1655 C1652 1.499 . S
C1655 C1656 1.373 . S
C1655 C1657 1.389 . S
C1656 H1629 0.950 . S
C1656 C1642 1.377 . S
C1656 C1655 1.373 . S
C1657 C1641 1.377 . S
C1657 C1655 1.389 . S
C1657 C1658 1.524 . S
C1658 C1657 1.524 . S
C1658 C1659 1.397 . S
C1658 C1663 1.363 . S
C1659 H1630 0.950 . S
C1659 C1658 1.397 . S
C1659 C1660 1.334 . S
C1660 H1631 0.950 . S
C1660 C1659 1.334 . S
C1660 C1661 1.287 . S
C1661 C1660 1.287 . S
C1661 C1662 1.524 . S
C1661 H1664 0.999 . S
C1662 H1632 0.950 . S
C1662 C1661 1.524 . S
C1662 C1663 1.415 . S
C1663 H1633 0.950 . S
C1663 C1658 1.363 . S
C1663 C1662 1.415 . S
H1664 C1661 0.999 . S
H1665 C1646 0.913 . S
H1666 C1684 0.951 . S
H1667 C1686 0.951 . S
H1668 C1688 0.950 1_455 S
H1669 C1689 0.950 . S
H1670 C1691 0.950 . S
H1671 C1694 0.950 . S
H1672 C1695 0.950 . S
H1673 C1697 0.950 . S
H1674 C1698 0.950 . S
H1675 C1699 0.951 . S
H1676 C1701 0.951 . S
H1677 C1703 0.950 . S
H1678 C1704 0.950 . S
H1679 C1706 0.950 . S
H1680 C1709 0.950 . S
H1681 C1710 0.950 . S
H1682 C1712 0.950 . S
H1683 C1713 0.950 . S
C1684 H1666 0.951 . S
C1684 C1685 1.366 . S
C1684 C1686 1.388 . S
C1685 C1684 1.366 . S
C1685 C1689 1.385 . S
C1686 H1667 0.951 . S
C1686 C1684 1.388 . S
C1686 C1687 1.366 . S
C1687 C1686 1.366 . S
C1687 C1688 1.414 . S
C1687 C1690 1.499 1_655 S
C1688 H1668 0.950 1_655 S
C1688 C1687 1.414 . S
C1688 C1689 1.374 . S
C1689 H1669 0.950 . S
C1689 C1685 1.385 . S
C1689 C1688 1.374 . S
C1690 C1687 1.499 1_455 S
C1690 C1691 1.373 . S
C1690 C1692 1.389 . S
C1691 H1670 0.950 . S
C1691 C1690 1.373 . S
C1691 C1707 1.377 . S
C1692 C1690 1.389 . S
C1692 C1693 1.524 . S
C1692 C1706 1.377 . S
C1693 C1692 1.524 . S
C1693 C1694 1.397 . S
C1693 C1698 1.363 . S
C1694 H1671 0.950 . S
C1694 C1693 1.397 . S
C1694 C1695 1.334 . S
C1695 H1672 0.950 . S
C1695 C1694 1.334 . S
C1695 C1696 1.287 . S
C1696 C1695 1.287 . S
C1696 C1697 1.524 . S
C1696 H1715 0.913 1_455 S
C1697 H1673 0.950 . S
C1697 C1696 1.524 . S
C1697 C1698 1.415 . S
C1698 H1674 0.950 . S
C1698 C1693 1.363 . S
C1698 C1697 1.415 . S
C1699 H1675 0.951 . S
C1699 C1700 1.366 . S
C1699 C1701 1.388 . S
C1700 C1699 1.366 . S
C1700 C1704 1.385 . S
C1701 H1676 0.951 . S
C1701 C1699 1.388 . S
C1701 C1702 1.366 . S
C1702 C1701 1.366 . S
C1702 C1703 1.414 . S
C1702 C1705 1.499 . S
C1703 H1677 0.950 . S
C1703 C1702 1.414 . S
C1703 C1704 1.374 . S
C1704 H1678 0.950 . S
C1704 C1700 1.385 . S
C1704 C1703 1.374 . S
C1705 C1702 1.499 . S
C1705 C1706 1.373 . S
C1705 C1707 1.389 . S
C1706 H1679 0.950 . S
C1706 C1692 1.377 . S
C1706 C1705 1.373 . S
C1707 C1691 1.377 . S
C1707 C1705 1.389 . S
C1707 C1708 1.524 . S
C1708 C1707 1.524 . S
C1708 C1709 1.397 . S
C1708 C1713 1.363 . S
C1709 H1680 0.950 . S
C1709 C1708 1.397 . S
C1709 C1710 1.334 . S
C1710 H1681 0.950 . S
C1710 C1709 1.334 . S
C1710 C1711 1.287 . S
C1711 C1710 1.287 . S
C1711 C1712 1.524 . S
C1711 H1714 0.999 . S
C1712 H1682 0.950 . S
C1712 C1711 1.524 . S
C1712 C1713 1.415 . S
C1713 H1683 0.950 . S
C1713 C1708 1.363 . S
C1713 C1712 1.415 . S
H1714 C1711 0.999 . S
H1715 C1696 0.913 1_655 S
H1716 C1734 0.951 . S
H1717 C1736 0.951 . S
H1718 C1738 0.950 . S
H1719 C1739 0.950 . S
H1720 C1741 0.950 . S
H1721 C1744 0.950 . S
H1722 C1745 0.950 . S
H1723 C1747 0.950 . S
H1724 C1748 0.950 . S
H1725 C1749 0.951 . S
H1726 C1751 0.951 . S
H1727 C1753 0.950 . S
H1728 C1754 0.950 . S
H1729 C1756 0.950 . S
H1730 C1759 0.950 . S
H1731 C1760 0.950 . S
H1732 C1762 0.950 . S
H1733 C1763 0.950 . S
C1734 H1716 0.951 . S
C1734 C1735 1.366 . S
C1734 C1736 1.388 . S
C1735 C1734 1.366 . S
C1735 C1739 1.385 . S
C1736 H1717 0.951 . S
C1736 C1734 1.388 . S
C1736 C1737 1.366 . S
C1737 C1736 1.366 . S
C1737 C1738 1.414 . S
C1737 C1740 1.499 . S
C1738 H1718 0.950 . S
C1738 C1737 1.414 . S
C1738 C1739 1.374 . S
C1739 H1719 0.950 . S
C1739 C1735 1.385 . S
C1739 C1738 1.374 . S
C1740 C1737 1.499 . S
C1740 C1741 1.373 . S
C1740 C1742 1.389 . S
C1741 H1720 0.950 . S
C1741 C1740 1.373 . S
C1741 C1757 1.377 . S
C1742 C1740 1.389 . S
C1742 C1743 1.524 . S
C1742 C1756 1.377 . S
C1743 C1742 1.524 . S
C1743 C1744 1.397 . S
C1743 C1748 1.363 . S
C1744 H1721 0.950 . S
C1744 C1743 1.397 . S
C1744 C1745 1.334 . S
C1745 H1722 0.950 . S
C1745 C1744 1.334 . S
C1745 C1746 1.287 . S
C1746 C1745 1.287 . S
C1746 C1747 1.524 . S
C1746 H1765 0.913 . S
C1747 H1723 0.950 . S
C1747 C1746 1.524 . S
C1747 C1748 1.415 . S
C1748 H1724 0.950 . S
C1748 C1743 1.363 . S
C1748 C1747 1.415 . S
C1749 H1725 0.951 . S
C1749 C1750 1.366 . S
C1749 C1751 1.388 . S
C1750 C1749 1.366 . S
C1750 C1754 1.385 . S
C1751 H1726 0.951 . S
C1751 C1749 1.388 . S
C1751 C1752 1.366 . S
C1752 C1751 1.366 . S
C1752 C1753 1.414 . S
C1752 C1755 1.499 . S
C1753 H1727 0.950 . S
C1753 C1752 1.414 . S
C1753 C1754 1.374 . S
C1754 H1728 0.950 . S
C1754 C1750 1.385 . S
C1754 C1753 1.374 . S
C1755 C1752 1.499 . S
C1755 C1756 1.373 . S
C1755 C1757 1.389 . S
C1756 H1729 0.950 . S
C1756 C1742 1.377 . S
C1756 C1755 1.373 . S
C1757 C1741 1.377 . S
C1757 C1755 1.389 . S
C1757 C1758 1.524 . S
C1758 C1757 1.524 . S
C1758 C1759 1.397 . S
C1758 C1763 1.363 . S
C1759 H1730 0.950 . S
C1759 C1758 1.397 . S
C1759 C1760 1.334 . S
C1760 H1731 0.950 . S
C1760 C1759 1.334 . S
C1760 C1761 1.287 . S
C1761 C1760 1.287 . S
C1761 C1762 1.524 . S
C1761 H1764 0.999 . S
C1762 H1732 0.950 . S
C1762 C1761 1.524 . S
C1762 C1763 1.415 . S
C1763 H1733 0.950 . S
C1763 C1758 1.363 . S
C1763 C1762 1.415 . S
H1764 C1761 0.999 . S
H1765 C1746 0.913 . S
H1766 C1784 0.951 . S
H1767 C1786 0.951 . S
H1768 C1788 0.950 . S
H1769 C1789 0.950 . S
H1770 C1791 0.950 . S
H1771 C1794 0.950 . S
H1772 C1795 0.950 . S
H1773 C1797 0.950 . S
H1774 C1798 0.950 . S
H1775 C1799 0.951 . S
H1776 C1801 0.951 . S
H1777 C1803 0.950 . S
H1778 C1804 0.950 . S
H1779 C1806 0.950 . S
H1780 C1809 0.950 . S
H1781 C1810 0.950 . S
H1782 C1812 0.950 . S
H1783 C1813 0.950 . S
C1784 H1766 0.951 . S
C1784 C1785 1.366 . S
C1784 C1786 1.388 . S
C1785 C1784 1.366 . S
C1785 C1789 1.385 . S
C1786 H1767 0.951 . S
C1786 C1784 1.388 . S
C1786 C1787 1.366 . S
C1787 C1786 1.366 . S
C1787 C1788 1.414 . S
C1787 C1790 1.499 . S
C1788 H1768 0.950 . S
C1788 C1787 1.414 . S
C1788 C1789 1.374 . S
C1789 H1769 0.950 . S
C1789 C1785 1.385 . S
C1789 C1788 1.374 . S
C1790 C1787 1.499 . S
C1790 C1791 1.373 . S
C1790 C1792 1.389 . S
C1791 H1770 0.950 . S
C1791 C1790 1.373 . S
C1791 C1807 1.377 . S
C1792 C1790 1.389 . S
C1792 C1793 1.524 . S
C1792 C1806 1.377 . S
C1793 C1792 1.524 . S
C1793 C1794 1.397 . S
C1793 C1798 1.363 . S
C1794 H1771 0.950 . S
C1794 C1793 1.397 . S
C1794 C1795 1.334 . S
C1795 H1772 0.950 . S
C1795 C1794 1.334 . S
C1795 C1796 1.287 . S
C1796 C1795 1.287 . S
C1796 C1797 1.524 . S
C1796 H1815 0.913 . S
C1797 H1773 0.950 . S
C1797 C1796 1.524 . S
C1797 C1798 1.415 . S
C1798 H1774 0.950 . S
C1798 C1793 1.363 . S
C1798 C1797 1.415 . S
C1799 H1775 0.951 . S
C1799 C1800 1.366 . S
C1799 C1801 1.388 . S
C1800 C1799 1.366 . S
C1800 C1804 1.385 . S
C1801 H1776 0.951 . S
C1801 C1799 1.388 . S
C1801 C1802 1.366 . S
C1802 C1801 1.366 . S
C1802 C1803 1.414 . S
C1802 C1805 1.499 . S
C1803 H1777 0.950 . S
C1803 C1802 1.414 . S
C1803 C1804 1.374 . S
C1804 H1778 0.950 . S
C1804 C1800 1.385 . S
C1804 C1803 1.374 . S
C1805 C1802 1.499 . S
C1805 C1806 1.373 . S
C1805 C1807 1.389 . S
C1806 H1779 0.950 . S
C1806 C1792 1.377 . S
C1806 C1805 1.373 . S
C1807 C1791 1.377 . S
C1807 C1805 1.389 . S
C1807 C1808 1.524 . S
C1808 C1807 1.524 . S
C1808 C1809 1.397 . S
C1808 C1813 1.363 . S
C1809 H1780 0.950 . S
C1809 C1808 1.397 . S
C1809 C1810 1.334 . S
C1810 H1781 0.950 . S
C1810 C1809 1.334 . S
C1810 C1811 1.287 . S
C1811 C1810 1.287 . S
C1811 C1812 1.524 . S
C1811 H1814 0.999 . S
C1812 H1782 0.950 . S
C1812 C1811 1.524 . S
C1812 C1813 1.415 . S
C1813 H1783 0.950 . S
C1813 C1808 1.363 . S
C1813 C1812 1.415 . S
H1814 C1811 0.999 . S
H1815 C1796 0.913 . S
H1816 C1834 0.951 . S
H1817 C1836 0.951 . S
H1818 C1838 0.950 . S
H1819 C1839 0.950 . S
H1820 C1841 0.950 . S
H1821 C1844 0.950 . S
H1822 C1845 0.950 . S
H1823 C1847 0.950 . S
H1824 C1848 0.950 . S
H1825 C1849 0.951 . S
H1826 C1851 0.951 . S
H1827 C1853 0.950 . S
H1828 C1854 0.950 . S
H1829 C1856 0.950 . S
H1830 C1859 0.950 . S
H1831 C1860 0.950 . S
H1832 C1862 0.950 . S
H1833 C1863 0.950 . S
C1834 H1816 0.951 . S
C1834 C1835 1.366 . S
C1834 C1836 1.388 . S
C1835 C1834 1.366 . S
C1835 C1839 1.385 . S
C1836 H1817 0.951 . S
C1836 C1834 1.388 . S
C1836 C1837 1.366 . S
C1837 C1836 1.366 . S
C1837 C1838 1.414 . S
C1837 C1840 1.499 . S
C1838 H1818 0.950 . S
C1838 C1837 1.414 . S
C1838 C1839 1.374 . S
C1839 H1819 0.950 . S
C1839 C1835 1.385 . S
C1839 C1838 1.374 . S
C1840 C1837 1.499 . S
C1840 C1841 1.373 . S
C1840 C1842 1.389 . S
C1841 H1820 0.950 . S
C1841 C1840 1.373 . S
C1841 C1857 1.377 . S
C1842 C1840 1.389 . S
C1842 C1843 1.524 . S
C1842 C1856 1.377 . S
C1843 C1842 1.524 . S
C1843 C1844 1.397 . S
C1843 C1848 1.363 . S
C1844 H1821 0.950 . S
C1844 C1843 1.397 . S
C1844 C1845 1.334 . S
C1845 H1822 0.950 . S
C1845 C1844 1.334 . S
C1845 C1846 1.287 . S
C1846 C1845 1.287 . S
C1846 C1847 1.524 . S
C1846 H1865 0.913 . S
C1847 H1823 0.950 . S
C1847 C1846 1.524 . S
C1847 C1848 1.415 . S
C1848 H1824 0.950 . S
C1848 C1843 1.363 . S
C1848 C1847 1.415 . S
C1849 H1825 0.951 . S
C1849 C1850 1.366 . S
C1849 C1851 1.388 . S
C1850 C1849 1.366 . S
C1850 C1854 1.385 . S
C1851 H1826 0.951 . S
C1851 C1849 1.388 . S
C1851 C1852 1.366 . S
C1852 C1851 1.366 . S
C1852 C1853 1.414 . S
C1852 C1855 1.499 . S
C1853 H1827 0.950 . S
C1853 C1852 1.414 . S
C1853 C1854 1.374 . S
C1854 H1828 0.950 . S
C1854 C1850 1.385 . S
C1854 C1853 1.374 . S
C1855 C1852 1.499 . S
C1855 C1856 1.373 . S
C1855 C1857 1.389 . S
C1856 H1829 0.950 . S
C1856 C1842 1.377 . S
C1856 C1855 1.373 . S
C1857 C1841 1.377 . S
C1857 C1855 1.389 . S
C1857 C1858 1.524 . S
C1858 C1857 1.524 . S
C1858 C1859 1.397 . S
C1858 C1863 1.363 . S
C1859 H1830 0.950 . S
C1859 C1858 1.397 . S
C1859 C1860 1.334 . S
C1860 H1831 0.950 . S
C1860 C1859 1.334 . S
C1860 C1861 1.287 . S
C1861 C1860 1.287 . S
C1861 C1862 1.524 . S
C1861 H1864 0.999 . S
C1862 H1832 0.950 . S
C1862 C1861 1.524 . S
C1862 C1863 1.415 . S
C1863 H1833 0.950 . S
C1863 C1858 1.363 . S
C1863 C1862 1.415 . S
H1864 C1861 0.999 . S
H1865 C1846 0.913 . S
H1866 C1884 0.951 . S
H1867 C1886 0.951 . S
H1868 C1888 0.950 . S
H1869 C1889 0.950 . S
H1870 C1891 0.950 . S
H1871 C1894 0.950 . S
H1872 C1895 0.950 . S
H1873 C1897 0.950 . S
H1874 C1898 0.950 . S
H1875 C1899 0.951 . S
H1876 C1901 0.951 . S
H1877 C1903 0.950 . S
H1878 C1904 0.950 . S
H1879 C1906 0.950 . S
H1880 C1909 0.950 . S
H1881 C1910 0.950 . S
H1882 C1912 0.950 . S
H1883 C1913 0.950 . S
C1884 H1866 0.951 . S
C1884 C1885 1.366 . S
C1884 C1886 1.388 . S
C1885 C1884 1.366 . S
C1885 C1889 1.385 . S
C1886 H1867 0.951 . S
C1886 C1884 1.388 . S
C1886 C1887 1.366 . S
C1887 C1886 1.366 . S
C1887 C1888 1.414 . S
C1887 C1890 1.499 . S
C1888 H1868 0.950 . S
C1888 C1887 1.414 . S
C1888 C1889 1.374 . S
C1889 H1869 0.950 . S
C1889 C1885 1.385 . S
C1889 C1888 1.374 . S
C1890 C1887 1.499 . S
C1890 C1891 1.373 . S
C1890 C1892 1.389 . S
C1891 H1870 0.950 . S
C1891 C1890 1.373 . S
C1891 C1907 1.377 . S
C1892 C1890 1.389 . S
C1892 C1893 1.524 . S
C1892 C1906 1.377 . S
C1893 C1892 1.524 . S
C1893 C1894 1.397 . S
C1893 C1898 1.363 . S
C1894 H1871 0.950 . S
C1894 C1893 1.397 . S
C1894 C1895 1.334 . S
C1895 H1872 0.950 . S
C1895 C1894 1.334 . S
C1895 C1896 1.287 . S
C1896 C1895 1.287 . S
C1896 C1897 1.524 . S
C1896 H1915 0.913 . S
C1897 H1873 0.950 . S
C1897 C1896 1.524 . S
C1897 C1898 1.415 . S
C1898 H1874 0.950 . S
C1898 C1893 1.363 . S
C1898 C1897 1.415 . S
C1899 H1875 0.951 . S
C1899 C1900 1.366 . S
C1899 C1901 1.388 . S
C1900 C1899 1.366 . S
C1900 C1904 1.385 . S
C1901 H1876 0.951 . S
C1901 C1899 1.388 . S
C1901 C1902 1.366 . S
C1902 C1901 1.366 . S
C1902 C1903 1.414 . S
C1902 C1905 1.499 . S
C1903 H1877 0.950 . S
C1903 C1902 1.414 . S
C1903 C1904 1.374 . S
C1904 H1878 0.950 . S
C1904 C1900 1.385 . S
C1904 C1903 1.374 . S
C1905 C1902 1.499 . S
C1905 C1906 1.373 . S
C1905 C1907 1.389 . S
C1906 H1879 0.950 . S
C1906 C1892 1.377 . S
C1906 C1905 1.373 . S
C1907 C1891 1.377 . S
C1907 C1905 1.389 . S
C1907 C1908 1.524 . S
C1908 C1907 1.524 . S
C1908 C1909 1.397 . S
C1908 C1913 1.363 . S
C1909 H1880 0.950 . S
C1909 C1908 1.397 . S
C1909 C1910 1.334 . S
C1910 H1881 0.950 . S
C1910 C1909 1.334 . S
C1910 C1911 1.287 . S
C1911 C1910 1.287 . S
C1911 C1912 1.524 . S
C1911 H1914 0.999 . S
C1912 H1882 0.950 . S
C1912 C1911 1.524 . S
C1912 C1913 1.415 . S
C1913 H1883 0.950 . S
C1913 C1908 1.363 . S
C1913 C1912 1.415 . S
H1914 C1911 0.999 . S
H1915 C1896 0.913 . S
H1916 C1934 0.951 . S
H1917 C1936 0.951 . S
H1918 C1938 0.950 . S
H1919 C1939 0.950 . S
H1920 C1941 0.950 . S
H1921 C1944 0.950 . S
H1922 C1945 0.950 . S
H1923 C1947 0.950 . S
H1924 C1948 0.950 . S
H1925 C1949 0.951 . S
H1926 C1951 0.951 . S
H1927 C1953 0.950 . S
H1928 C1954 0.950 . S
H1929 C1956 0.950 . S
H1930 C1959 0.950 . S
H1931 C1960 0.950 . S
H1932 C1962 0.950 . S
H1933 C1963 0.950 . S
C1934 H1916 0.951 . S
C1934 C1935 1.366 . S
C1934 C1936 1.388 . S
C1935 C1934 1.366 . S
C1935 C1939 1.385 . S
C1936 H1917 0.951 . S
C1936 C1934 1.388 . S
C1936 C1937 1.366 . S
C1937 C1936 1.366 . S
C1937 C1938 1.414 . S
C1937 C1940 1.499 . S
C1938 H1918 0.950 . S
C1938 C1937 1.414 . S
C1938 C1939 1.374 . S
C1939 H1919 0.950 . S
C1939 C1935 1.385 . S
C1939 C1938 1.374 . S
C1940 C1937 1.499 . S
C1940 C1941 1.373 . S
C1940 C1942 1.389 . S
C1941 H1920 0.950 . S
C1941 C1940 1.373 . S
C1941 C1957 1.377 . S
C1942 C1940 1.389 . S
C1942 C1943 1.524 . S
C1942 C1956 1.377 . S
C1943 C1942 1.524 . S
C1943 C1944 1.397 . S
C1943 C1948 1.363 . S
C1944 H1921 0.950 . S
C1944 C1943 1.397 . S
C1944 C1945 1.334 . S
C1945 H1922 0.950 . S
C1945 C1944 1.334 . S
C1945 C1946 1.287 . S
C1946 C1945 1.287 . S
C1946 C1947 1.524 . S
C1946 H1965 0.913 . S
C1947 H1923 0.950 . S
C1947 C1946 1.524 . S
C1947 C1948 1.415 . S
C1948 H1924 0.950 . S
C1948 C1943 1.363 . S
C1948 C1947 1.415 . S
C1949 H1925 0.951 . S
C1949 C1950 1.366 . S
C1949 C1951 1.388 . S
C1950 C1949 1.366 . S
C1950 C1954 1.385 . S
C1951 H1926 0.951 . S
C1951 C1949 1.388 . S
C1951 C1952 1.366 . S
C1952 C1951 1.366 . S
C1952 C1953 1.414 . S
C1952 C1955 1.499 . S
C1953 H1927 0.950 . S
C1953 C1952 1.414 . S
C1953 C1954 1.374 . S
C1954 H1928 0.950 . S
C1954 C1950 1.385 . S
C1954 C1953 1.374 . S
C1955 C1952 1.499 . S
C1955 C1956 1.373 . S
C1955 C1957 1.389 . S
C1956 H1929 0.950 . S
C1956 C1942 1.377 . S
C1956 C1955 1.373 . S
C1957 C1941 1.377 . S
C1957 C1955 1.389 . S
C1957 C1958 1.524 . S
C1958 C1957 1.524 . S
C1958 C1959 1.397 . S
C1958 C1963 1.363 . S
C1959 H1930 0.950 . S
C1959 C1958 1.397 . S
C1959 C1960 1.334 . S
C1960 H1931 0.950 . S
C1960 C1959 1.334 . S
C1960 C1961 1.287 . S
C1961 C1960 1.287 . S
C1961 C1962 1.524 . S
C1961 H1964 0.999 . S
C1962 H1932 0.950 . S
C1962 C1961 1.524 . S
C1962 C1963 1.415 . S
C1963 H1933 0.950 . S
C1963 C1958 1.363 . S
C1963 C1962 1.415 . S
H1964 C1961 0.999 . S
H1965 C1946 0.913 . S
H1966 C1984 0.951 . S
H1967 C1986 0.951 . S
H1968 C1988 0.950 . S
H1969 C1989 0.950 . S
H1970 C1991 0.950 . S
H1971 C1994 0.950 . S
H1972 C1995 0.950 . S
H1973 C1997 0.950 . S
H1974 C1998 0.950 . S
H1975 C1999 0.951 . S
H1976 C2001 0.951 . S
H1977 C2003 0.950 1_455 S
H1978 C2004 0.950 . S
H1979 C2006 0.950 . S
H1980 C2009 0.950 . S
H1981 C2010 0.950 . S
H1982 C2012 0.950 . S
H1983 C2013 0.950 . S
C1984 H1966 0.951 . S
C1984 C1985 1.366 . S
C1984 C1986 1.388 . S
C1985 C1984 1.366 . S
C1985 C1989 1.385 . S
C1986 H1967 0.951 . S
C1986 C1984 1.388 . S
C1986 C1987 1.366 . S
C1987 C1986 1.366 . S
C1987 C1988 1.414 . S
C1987 C1990 1.499 . S
C1988 H1968 0.950 . S
C1988 C1987 1.414 . S
C1988 C1989 1.374 . S
C1989 H1969 0.950 . S
C1989 C1985 1.385 . S
C1989 C1988 1.374 . S
C1990 C1987 1.499 . S
C1990 C1991 1.373 . S
C1990 C1992 1.389 . S
C1991 H1970 0.950 . S
C1991 C1990 1.373 . S
C1991 C2007 1.377 . S
C1992 C1990 1.389 . S
C1992 C1993 1.524 . S
C1992 C2006 1.377 . S
C1993 C1992 1.524 . S
C1993 C1994 1.397 . S
C1993 C1998 1.363 . S
C1994 H1971 0.950 . S
C1994 C1993 1.397 . S
C1994 C1995 1.334 . S
C1995 H1972 0.950 . S
C1995 C1994 1.334 . S
C1995 C1996 1.287 . S
C1996 C1995 1.287 . S
C1996 C1997 1.524 . S
C1996 H2015 0.913 . S
C1997 H1973 0.950 . S
C1997 C1996 1.524 . S
C1997 C1998 1.415 . S
C1998 H1974 0.950 . S
C1998 C1993 1.363 . S
C1998 C1997 1.415 . S
C1999 H1975 0.951 . S
C1999 C2000 1.366 . S
C1999 C2001 1.388 . S
C2000 C1999 1.366 . S
C2000 C2004 1.385 . S
C2001 H1976 0.951 . S
C2001 C1999 1.388 . S
C2001 C2002 1.366 . S
C2002 C2001 1.366 . S
C2002 C2003 1.414 . S
C2002 C2005 1.499 1_655 S
C2003 H1977 0.950 1_655 S
C2003 C2002 1.414 . S
C2003 C2004 1.374 . S
C2004 H1978 0.950 . S
C2004 C2000 1.385 . S
C2004 C2003 1.374 . S
C2005 C2002 1.499 1_455 S
C2005 C2006 1.373 . S
C2005 C2007 1.389 . S
C2006 H1979 0.950 . S
C2006 C1992 1.377 . S
C2006 C2005 1.373 . S
C2007 C1991 1.377 . S
C2007 C2005 1.389 . S
C2007 C2008 1.524 . S
C2008 C2007 1.524 . S
C2008 C2009 1.397 . S
C2008 C2013 1.363 . S
C2009 H1980 0.950 . S
C2009 C2008 1.397 . S
C2009 C2010 1.334 . S
C2010 H1981 0.950 . S
C2010 C2009 1.334 . S
C2010 C2011 1.287 . S
C2011 C2010 1.287 . S
C2011 C2012 1.524 . S
C2011 H2014 0.999 . S
C2012 H1982 0.950 . S
C2012 C2011 1.524 . S
C2012 C2013 1.415 . S
C2013 H1983 0.950 . S
C2013 C2008 1.363 . S
C2013 C2012 1.415 . S
H2014 C2011 0.999 . S
H2015 C1996 0.913 . S
H2016 C2034 0.951 . S
H2017 C2036 0.951 . S
H2018 C2038 0.950 . S
H2019 C2039 0.950 . S
H2020 C2041 0.950 . S
H2021 C2044 0.950 . S
H2022 C2045 0.950 . S
H2023 C2047 0.950 . S
H2024 C2048 0.950 . S
H2025 C2049 0.951 . S
H2026 C2051 0.951 . S
H2027 C2053 0.950 . S
H2028 C2054 0.950 . S
H2029 C2056 0.950 . S
H2030 C2059 0.950 . S
H2031 C2060 0.950 . S
H2032 C2062 0.950 . S
H2033 C2063 0.950 . S
C2034 H2016 0.951 . S
C2034 C2035 1.366 . S
C2034 C2036 1.388 . S
C2035 C2034 1.366 . S
C2035 C2039 1.385 . S
C2036 H2017 0.951 . S
C2036 C2034 1.388 . S
C2036 C2037 1.366 . S
C2037 C2036 1.366 . S
C2037 C2038 1.414 . S
C2037 C2040 1.499 . S
C2038 H2018 0.950 . S
C2038 C2037 1.414 . S
C2038 C2039 1.374 . S
C2039 H2019 0.950 . S
C2039 C2035 1.385 . S
C2039 C2038 1.374 . S
C2040 C2037 1.499 . S
C2040 C2041 1.373 . S
C2040 C2042 1.389 . S
C2041 H2020 0.950 . S
C2041 C2040 1.373 . S
C2041 C2057 1.377 . S
C2042 C2040 1.389 . S
C2042 C2043 1.524 . S
C2042 C2056 1.377 . S
C2043 C2042 1.524 . S
C2043 C2044 1.397 . S
C2043 C2048 1.363 . S
C2044 H2021 0.950 . S
C2044 C2043 1.397 . S
C2044 C2045 1.334 . S
C2045 H2022 0.950 . S
C2045 C2044 1.334 . S
C2045 C2046 1.287 . S
C2046 C2045 1.287 . S
C2046 C2047 1.524 . S
C2046 H2065 0.913 . S
C2047 H2023 0.950 . S
C2047 C2046 1.524 . S
C2047 C2048 1.415 . S
C2048 H2024 0.950 . S
C2048 C2043 1.363 . S
C2048 C2047 1.415 . S
C2049 H2025 0.951 . S
C2049 C2050 1.366 . S
C2049 C2051 1.388 . S
C2050 C2049 1.366 . S
C2050 C2054 1.385 . S
C2051 H2026 0.951 . S
C2051 C2049 1.388 . S
C2051 C2052 1.366 . S
C2052 C2051 1.366 . S
C2052 C2053 1.414 . S
C2052 C2055 1.499 . S
C2053 H2027 0.950 . S
C2053 C2052 1.414 . S
C2053 C2054 1.374 . S
C2054 H2028 0.950 . S
C2054 C2050 1.385 . S
C2054 C2053 1.374 . S
C2055 C2052 1.499 . S
C2055 C2056 1.373 . S
C2055 C2057 1.389 . S
C2056 H2029 0.950 . S
C2056 C2042 1.377 . S
C2056 C2055 1.373 . S
C2057 C2041 1.377 . S
C2057 C2055 1.389 . S
C2057 C2058 1.524 . S
C2058 C2057 1.524 . S
C2058 C2059 1.397 . S
C2058 C2063 1.363 . S
C2059 H2030 0.950 . S
C2059 C2058 1.397 . S
C2059 C2060 1.334 . S
C2060 H2031 0.950 . S
C2060 C2059 1.334 . S
C2060 C2061 1.287 . S
C2061 C2060 1.287 . S
C2061 C2062 1.524 . S
C2061 H2064 0.999 . S
C2062 H2032 0.950 . S
C2062 C2061 1.524 . S
C2062 C2063 1.415 . S
C2063 H2033 0.950 . S
C2063 C2058 1.363 . S
C2063 C2062 1.415 . S
H2064 C2061 0.999 . S
H2065 C2046 0.913 . S
H2066 C2084 0.951 . S
H2067 C2086 0.951 . S
H2068 C2088 0.950 . S
H2069 C2089 0.950 . S
H2070 C2091 0.950 . S
H2071 C2094 0.950 . S
H2072 C2095 0.950 . S
H2073 C2097 0.950 . S
H2074 C2098 0.950 . S
H2075 C2099 0.951 . S
H2076 C2101 0.951 . S
H2077 C2103 0.950 . S
H2078 C2104 0.950 . S
H2079 C2106 0.950 . S
H2080 C2109 0.950 . S
H2081 C2110 0.950 . S
H2082 C2112 0.950 . S
H2083 C2113 0.950 . S
C2084 H2066 0.951 . S
C2084 C2085 1.366 . S
C2084 C2086 1.388 . S
C2085 C2084 1.366 . S
C2085 C2089 1.385 . S
C2086 H2067 0.951 . S
C2086 C2084 1.388 . S
C2086 C2087 1.366 . S
C2087 C2086 1.366 . S
C2087 C2088 1.414 . S
C2087 C2090 1.499 . S
C2088 H2068 0.950 . S
C2088 C2087 1.414 . S
C2088 C2089 1.374 . S
C2089 H2069 0.950 . S
C2089 C2085 1.385 . S
C2089 C2088 1.374 . S
C2090 C2087 1.499 . S
C2090 C2091 1.373 . S
C2090 C2092 1.389 . S
C2091 H2070 0.950 . S
C2091 C2090 1.373 . S
C2091 C2107 1.377 . S
C2092 C2090 1.389 . S
C2092 C2093 1.524 . S
C2092 C2106 1.377 . S
C2093 C2092 1.524 . S
C2093 C2094 1.397 . S
C2093 C2098 1.363 . S
C2094 H2071 0.950 . S
C2094 C2093 1.397 . S
C2094 C2095 1.334 . S
C2095 H2072 0.950 . S
C2095 C2094 1.334 . S
C2095 C2096 1.287 . S
C2096 C2095 1.287 . S
C2096 C2097 1.524 . S
C2096 H2115 0.913 . S
C2097 H2073 0.950 . S
C2097 C2096 1.524 . S
C2097 C2098 1.415 . S
C2098 H2074 0.950 . S
C2098 C2093 1.363 . S
C2098 C2097 1.415 . S
C2099 H2075 0.951 . S
C2099 C2100 1.366 . S
C2099 C2101 1.388 . S
C2100 C2099 1.366 . S
C2100 C2104 1.385 . S
C2101 H2076 0.951 . S
C2101 C2099 1.388 . S
C2101 C2102 1.366 . S
C2102 C2101 1.366 . S
C2102 C2103 1.414 . S
C2102 C2105 1.499 . S
C2103 H2077 0.950 . S
C2103 C2102 1.414 . S
C2103 C2104 1.374 . S
C2104 H2078 0.950 . S
C2104 C2100 1.385 . S
C2104 C2103 1.374 . S
C2105 C2102 1.499 . S
C2105 C2106 1.373 . S
C2105 C2107 1.389 . S
C2106 H2079 0.950 . S
C2106 C2092 1.377 . S
C2106 C2105 1.373 . S
C2107 C2091 1.377 . S
C2107 C2105 1.389 . S
C2107 C2108 1.524 . S
C2108 C2107 1.524 . S
C2108 C2109 1.397 . S
C2108 C2113 1.363 . S
C2109 H2080 0.950 . S
C2109 C2108 1.397 . S
C2109 C2110 1.334 . S
C2110 H2081 0.950 . S
C2110 C2109 1.334 . S
C2110 C2111 1.287 . S
C2111 C2110 1.287 . S
C2111 C2112 1.524 . S
C2111 H2114 0.999 . S
C2112 H2082 0.950 . S
C2112 C2111 1.524 . S
C2112 C2113 1.415 . S
C2113 H2083 0.950 . S
C2113 C2108 1.363 . S
C2113 C2112 1.415 . S
H2114 C2111 0.999 . S
H2115 C2096 0.913 . S
H2116 C2134 0.951 . S
H2117 C2136 0.951 . S
H2118 C2138 0.950 . S
H2119 C2139 0.950 . S
H2120 C2141 0.950 . S
H2121 C2144 0.950 . S
H2122 C2145 0.950 . S
H2123 C2147 0.950 . S
H2124 C2148 0.950 . S
H2125 C2149 0.951 . S
H2126 C2151 0.951 . S
H2127 C2153 0.950 . S
H2128 C2154 0.950 . S
H2129 C2156 0.950 . S
H2130 C2159 0.950 . S
H2131 C2160 0.950 . S
H2132 C2162 0.950 . S
H2133 C2163 0.950 . S
C2134 H2116 0.951 . S
C2134 C2135 1.366 . S
C2134 C2136 1.388 . S
C2135 C2134 1.366 . S
C2135 C2139 1.385 . S
C2136 H2117 0.951 . S
C2136 C2134 1.388 . S
C2136 C2137 1.366 . S
C2137 C2136 1.366 . S
C2137 C2138 1.414 . S
C2137 C2140 1.499 . S
C2138 H2118 0.950 . S
C2138 C2137 1.414 . S
C2138 C2139 1.374 . S
C2139 H2119 0.950 . S
C2139 C2135 1.385 . S
C2139 C2138 1.374 . S
C2140 C2137 1.499 . S
C2140 C2141 1.373 . S
C2140 C2142 1.389 . S
C2141 H2120 0.950 . S
C2141 C2140 1.373 . S
C2141 C2157 1.377 . S
C2142 C2140 1.389 . S
C2142 C2143 1.524 . S
C2142 C2156 1.377 . S
C2143 C2142 1.524 . S
C2143 C2144 1.397 . S
C2143 C2148 1.363 . S
C2144 H2121 0.950 . S
C2144 C2143 1.397 . S
C2144 C2145 1.334 . S
C2145 H2122 0.950 . S
C2145 C2144 1.334 . S
C2145 C2146 1.287 . S
C2146 C2145 1.287 . S
C2146 C2147 1.524 . S
C2146 H2165 0.913 . S
C2147 H2123 0.950 . S
C2147 C2146 1.524 . S
C2147 C2148 1.415 . S
C2148 H2124 0.950 . S
C2148 C2143 1.363 . S
C2148 C2147 1.415 . S
C2149 H2125 0.951 . S
C2149 C2150 1.366 . S
C2149 C2151 1.388 . S
C2150 C2149 1.366 . S
C2150 C2154 1.385 . S
C2151 H2126 0.951 . S
C2151 C2149 1.388 . S
C2151 C2152 1.366 . S
C2152 C2151 1.366 . S
C2152 C2153 1.414 . S
C2152 C2155 1.499 . S
C2153 H2127 0.950 . S
C2153 C2152 1.414 . S
C2153 C2154 1.374 . S
C2154 H2128 0.950 . S
C2154 C2150 1.385 . S
C2154 C2153 1.374 . S
C2155 C2152 1.499 . S
C2155 C2156 1.373 . S
C2155 C2157 1.389 . S
C2156 H2129 0.950 . S
C2156 C2142 1.377 . S
C2156 C2155 1.373 . S
C2157 C2141 1.377 . S
C2157 C2155 1.389 . S
C2157 C2158 1.524 . S
C2158 C2157 1.524 . S
C2158 C2159 1.397 . S
C2158 C2163 1.363 . S
C2159 H2130 0.950 . S
C2159 C2158 1.397 . S
C2159 C2160 1.334 . S
C2160 H2131 0.950 . S
C2160 C2159 1.334 . S
C2160 C2161 1.287 . S
C2161 C2160 1.287 . S
C2161 C2162 1.524 . S
C2161 H2164 0.999 . S
C2162 H2132 0.950 . S
C2162 C2161 1.524 . S
C2162 C2163 1.415 . S
C2163 H2133 0.950 . S
C2163 C2158 1.363 . S
C2163 C2162 1.415 . S
H2164 C2161 0.999 . S
H2165 C2146 0.913 . S
H2166 C2184 0.951 . S
H2167 C2186 0.951 . S
H2168 C2188 0.950 . S
H2169 C2189 0.950 . S
H2170 C2191 0.950 . S
H2171 C2194 0.950 . S
H2172 C2195 0.950 . S
H2173 C2197 0.950 . S
H2174 C2198 0.950 . S
H2175 C2199 0.951 . S
H2176 C2201 0.951 . S
H2177 C2203 0.950 1_455 S
H2178 C2204 0.950 . S
H2179 C2206 0.950 . S
H2180 C2209 0.950 1_455 S
H2181 C2210 0.950 . S
H2182 C2212 0.950 . S
H2183 C2213 0.950 1_455 S
C2184 H2166 0.951 . S
C2184 C2185 1.366 . S
C2184 C2186 1.388 . S
C2185 C2184 1.366 . S
C2185 C2189 1.385 . S
C2186 H2167 0.951 . S
C2186 C2184 1.388 . S
C2186 C2187 1.366 . S
C2187 C2186 1.366 . S
C2187 C2188 1.414 . S
C2187 C2190 1.499 . S
C2188 H2168 0.950 . S
C2188 C2187 1.414 . S
C2188 C2189 1.374 . S
C2189 H2169 0.950 . S
C2189 C2185 1.385 . S
C2189 C2188 1.374 . S
C2190 C2187 1.499 . S
C2190 C2191 1.373 . S
C2190 C2192 1.389 . S
C2191 H2170 0.950 . S
C2191 C2190 1.373 . S
C2191 C2207 1.377 . S
C2192 C2190 1.389 . S
C2192 C2193 1.524 . S
C2192 C2206 1.377 . S
C2193 C2192 1.524 . S
C2193 C2194 1.397 . S
C2193 C2198 1.363 . S
C2194 H2171 0.950 . S
C2194 C2193 1.397 . S
C2194 C2195 1.334 . S
C2195 H2172 0.950 . S
C2195 C2194 1.334 . S
C2195 C2196 1.287 . S
C2196 C2195 1.287 . S
C2196 C2197 1.524 . S
C2196 H2215 0.913 . S
C2197 H2173 0.950 . S
C2197 C2196 1.524 . S
C2197 C2198 1.415 . S
C2198 H2174 0.950 . S
C2198 C2193 1.363 . S
C2198 C2197 1.415 . S
C2199 H2175 0.951 . S
C2199 C2200 1.366 . S
C2199 C2201 1.388 . S
C2200 C2199 1.366 . S
C2200 C2204 1.385 . S
C2201 H2176 0.951 . S
C2201 C2199 1.388 . S
C2201 C2202 1.366 . S
C2202 C2201 1.366 . S
C2202 C2203 1.414 . S
C2202 C2205 1.499 1_655 S
C2203 H2177 0.950 1_655 S
C2203 C2202 1.414 . S
C2203 C2204 1.374 . S
C2204 H2178 0.950 . S
C2204 C2200 1.385 . S
C2204 C2203 1.374 . S
C2205 C2202 1.499 1_455 S
C2205 C2206 1.373 . S
C2205 C2207 1.389 . S
C2206 H2179 0.950 . S
C2206 C2192 1.377 . S
C2206 C2205 1.373 . S
C2207 C2191 1.377 . S
C2207 C2205 1.389 . S
C2207 C2208 1.524 . S
C2208 C2207 1.524 . S
C2208 C2209 1.397 1_455 S
C2208 C2213 1.363 1_455 S
C2209 H2180 0.950 1_655 S
C2209 C2208 1.397 1_655 S
C2209 C2210 1.334 . S
C2210 H2181 0.950 . S
C2210 C2209 1.334 . S
C2210 C2211 1.287 . S
C2211 C2210 1.287 . S
C2211 C2212 1.524 . S
C2211 H2214 0.999 . S
C2212 H2182 0.950 . S
C2212 C2211 1.524 . S
C2212 C2213 1.415 . S
C2213 H2183 0.950 1_655 S
C2213 C2208 1.363 1_655 S
C2213 C2212 1.415 . S
H2214 C2211 0.999 . S
H2215 C2196 0.913 . S
H2216 C2234 0.951 . S
H2217 C2236 0.951 . S
H2218 C2238 0.950 . S
H2219 C2239 0.950 . S
H2220 C2241 0.950 . S
H2221 C2244 0.950 . S
H2222 C2245 0.950 . S
H2223 C2247 0.950 . S
H2224 C2248 0.950 . S
H2225 C2249 0.951 . S
H2226 C2251 0.951 . S
H2227 C2253 0.950 . S
H2228 C2254 0.950 . S
H2229 C2256 0.950 . S
H2230 C2259 0.950 . S
H2231 C2260 0.950 . S
H2232 C2262 0.950 . S
H2233 C2263 0.950 . S
C2234 H2216 0.951 . S
C2234 C2235 1.366 . S
C2234 C2236 1.388 . S
C2235 C2234 1.366 . S
C2235 C2239 1.385 . S
C2236 H2217 0.951 . S
C2236 C2234 1.388 . S
C2236 C2237 1.366 . S
C2237 C2236 1.366 . S
C2237 C2238 1.414 . S
C2237 C2240 1.499 . S
C2238 H2218 0.950 . S
C2238 C2237 1.414 . S
C2238 C2239 1.374 . S
C2239 H2219 0.950 . S
C2239 C2235 1.385 . S
C2239 C2238 1.374 . S
C2240 C2237 1.499 . S
C2240 C2241 1.373 . S
C2240 C2242 1.389 . S
C2241 H2220 0.950 . S
C2241 C2240 1.373 . S
C2241 C2257 1.377 . S
C2242 C2240 1.389 . S
C2242 C2243 1.524 . S
C2242 C2256 1.377 . S
C2243 C2242 1.524 . S
C2243 C2244 1.397 . S
C2243 C2248 1.363 . S
C2244 H2221 0.950 . S
C2244 C2243 1.397 . S
C2244 C2245 1.334 . S
C2245 H2222 0.950 . S
C2245 C2244 1.334 . S
C2245 C2246 1.287 . S
C2246 C2245 1.287 . S
C2246 C2247 1.524 . S
C2246 H2265 0.913 . S
C2247 H2223 0.950 . S
C2247 C2246 1.524 . S
C2247 C2248 1.415 . S
C2248 H2224 0.950 . S
C2248 C2243 1.363 . S
C2248 C2247 1.415 . S
C2249 H2225 0.951 . S
C2249 C2250 1.366 . S
C2249 C2251 1.388 . S
C2250 C2249 1.366 . S
C2250 C2254 1.385 . S
C2251 H2226 0.951 . S
C2251 C2249 1.388 . S
C2251 C2252 1.366 . S
C2252 C2251 1.366 . S
C2252 C2253 1.414 . S
C2252 C2255 1.499 . S
C2253 H2227 0.950 . S
C2253 C2252 1.414 . S
C2253 C2254 1.374 . S
C2254 H2228 0.950 . S
C2254 C2250 1.385 . S
C2254 C2253 1.374 . S
C2255 C2252 1.499 . S
C2255 C2256 1.373 . S
C2255 C2257 1.389 . S
C2256 H2229 0.950 . S
C2256 C2242 1.377 . S
C2256 C2255 1.373 . S
C2257 C2241 1.377 . S
C2257 C2255 1.389 . S
C2257 C2258 1.524 . S
C2258 C2257 1.524 . S
C2258 C2259 1.397 . S
C2258 C2263 1.363 . S
C2259 H2230 0.950 . S
C2259 C2258 1.397 . S
C2259 C2260 1.334 . S
C2260 H2231 0.950 . S
C2260 C2259 1.334 . S
C2260 C2261 1.287 . S
C2261 C2260 1.287 . S
C2261 C2262 1.524 . S
C2261 H2264 0.999 . S
C2262 H2232 0.950 . S
C2262 C2261 1.524 . S
C2262 C2263 1.415 . S
C2263 H2233 0.950 . S
C2263 C2258 1.363 . S
C2263 C2262 1.415 . S
H2264 C2261 0.999 . S
H2265 C2246 0.913 . S
H2266 C2284 0.951 . S
H2267 C2286 0.951 . S
H2268 C2288 0.950 1_455 S
H2269 C2289 0.950 . S
H2270 C2291 0.950 . S
H2271 C2294 0.950 . S
H2272 C2295 0.950 . S
H2273 C2297 0.950 . S
H2274 C2298 0.950 . S
H2275 C2299 0.951 . S
H2276 C2301 0.951 . S
H2277 C2303 0.950 . S
H2278 C2304 0.950 . S
H2279 C2306 0.950 . S
H2280 C2309 0.950 . S
H2281 C2310 0.950 . S
H2282 C2312 0.950 . S
H2283 C2313 0.950 . S
C2284 H2266 0.951 . S
C2284 C2285 1.366 . S
C2284 C2286 1.388 . S
C2285 C2284 1.366 . S
C2285 C2289 1.385 . S
C2286 H2267 0.951 . S
C2286 C2284 1.388 . S
C2286 C2287 1.366 . S
C2287 C2286 1.366 . S
C2287 C2288 1.414 . S
C2287 C2290 1.499 1_655 S
C2288 H2268 0.950 1_655 S
C2288 C2287 1.414 . S
C2288 C2289 1.374 . S
C2289 H2269 0.950 . S
C2289 C2285 1.385 . S
C2289 C2288 1.374 . S
C2290 C2287 1.499 1_455 S
C2290 C2291 1.373 . S
C2290 C2292 1.389 . S
C2291 H2270 0.950 . S
C2291 C2290 1.373 . S
C2291 C2307 1.377 . S
C2292 C2290 1.389 . S
C2292 C2293 1.524 . S
C2292 C2306 1.377 . S
C2293 C2292 1.524 . S
C2293 C2294 1.397 . S
C2293 C2298 1.363 . S
C2294 H2271 0.950 . S
C2294 C2293 1.397 . S
C2294 C2295 1.334 1_455 S
C2295 H2272 0.950 . S
C2295 C2294 1.334 1_655 S
C2295 C2296 1.287 . S
C2296 C2295 1.287 . S
C2296 C2297 1.524 . S
C2296 H2315 0.913 . S
C2297 H2273 0.950 . S
C2297 C2296 1.524 . S
C2297 C2298 1.415 1_655 S
C2298 H2274 0.950 . S
C2298 C2293 1.363 . S
C2298 C2297 1.415 1_455 S
C2299 H2275 0.951 . S
C2299 C2300 1.366 . S
C2299 C2301 1.388 . S
C2300 C2299 1.366 . S
C2300 C2304 1.385 . S
C2301 H2276 0.951 . S
C2301 C2299 1.388 . S
C2301 C2302 1.366 . S
C2302 C2301 1.366 . S
C2302 C2303 1.414 . S
C2302 C2305 1.499 . S
C2303 H2277 0.950 . S
C2303 C2302 1.414 . S
C2303 C2304 1.374 . S
C2304 H2278 0.950 . S
C2304 C2300 1.385 . S
C2304 C2303 1.374 . S
C2305 C2302 1.499 . S
C2305 C2306 1.373 . S
C2305 C2307 1.389 . S
C2306 H2279 0.950 . S
C2306 C2292 1.377 . S
C2306 C2305 1.373 . S
C2307 C2291 1.377 . S
C2307 C2305 1.389 . S
C2307 C2308 1.524 . S
C2308 C2307 1.524 . S
C2308 C2309 1.397 . S
C2308 C2313 1.363 . S
C2309 H2280 0.950 . S
C2309 C2308 1.397 . S
C2309 C2310 1.334 . S
C2310 H2281 0.950 . S
C2310 C2309 1.334 . S
C2310 C2311 1.287 . S
C2311 C2310 1.287 . S
C2311 C2312 1.524 . S
C2311 H2314 0.999 . S
C2312 H2282 0.950 . S
C2312 C2311 1.524 . S
C2312 C2313 1.415 . S
C2313 H2283 0.950 . S
C2313 C2308 1.363 . S
C2313 C2312 1.415 . S
H2314 C2311 0.999 . S
H2315 C2296 0.913 . S
H2316 C2334 0.951 . S
H2317 C2336 0.951 . S
H2318 C2338 0.950 . S
H2319 C2339 0.950 . S
H2320 C2341 0.950 . S
H2321 C2344 0.950 . S
H2322 C2345 0.950 . S
H2323 C2347 0.950 . S
H2324 C2348 0.950 . S
H2325 C2349 0.951 . S
H2326 C2351 0.951 . S
H2327 C2353 0.950 . S
H2328 C2354 0.950 . S
H2329 C2356 0.950 . S
H2330 C2359 0.950 . S
H2331 C2360 0.950 . S
H2332 C2362 0.950 . S
H2333 C2363 0.950 . S
C2334 H2316 0.951 . S
C2334 C2335 1.366 . S
C2334 C2336 1.388 . S
C2335 C2334 1.366 . S
C2335 C2339 1.385 . S
C2336 H2317 0.951 . S
C2336 C2334 1.388 . S
C2336 C2337 1.366 . S
C2337 C2336 1.366 . S
C2337 C2338 1.414 . S
C2337 C2340 1.499 . S
C2338 H2318 0.950 . S
C2338 C2337 1.414 . S
C2338 C2339 1.374 . S
C2339 H2319 0.950 . S
C2339 C2335 1.385 . S
C2339 C2338 1.374 . S
C2340 C2337 1.499 . S
C2340 C2341 1.373 . S
C2340 C2342 1.389 . S
C2341 H2320 0.950 . S
C2341 C2340 1.373 . S
C2341 C2357 1.377 . S
C2342 C2340 1.389 . S
C2342 C2343 1.524 . S
C2342 C2356 1.377 . S
C2343 C2342 1.524 . S
C2343 C2344 1.397 . S
C2343 C2348 1.363 . S
C2344 H2321 0.950 . S
C2344 C2343 1.397 . S
C2344 C2345 1.334 . S
C2345 H2322 0.950 . S
C2345 C2344 1.334 . S
C2345 C2346 1.287 . S
C2346 C2345 1.287 . S
C2346 C2347 1.524 . S
C2346 H2365 0.913 . S
C2347 H2323 0.950 . S
C2347 C2346 1.524 . S
C2347 C2348 1.415 . S
C2348 H2324 0.950 . S
C2348 C2343 1.363 . S
C2348 C2347 1.415 . S
C2349 H2325 0.951 . S
C2349 C2350 1.366 . S
C2349 C2351 1.388 . S
C2350 C2349 1.366 . S
C2350 C2354 1.385 . S
C2351 H2326 0.951 . S
C2351 C2349 1.388 . S
C2351 C2352 1.366 . S
C2352 C2351 1.366 . S
C2352 C2353 1.414 . S
C2352 C2355 1.499 . S
C2353 H2327 0.950 . S
C2353 C2352 1.414 . S
C2353 C2354 1.374 . S
C2354 H2328 0.950 . S
C2354 C2350 1.385 . S
C2354 C2353 1.374 . S
C2355 C2352 1.499 . S
C2355 C2356 1.373 . S
C2355 C2357 1.389 . S
C2356 H2329 0.950 . S
C2356 C2342 1.377 . S
C2356 C2355 1.373 . S
C2357 C2341 1.377 . S
C2357 C2355 1.389 . S
C2357 C2358 1.524 . S
C2358 C2357 1.524 . S
C2358 C2359 1.397 . S
C2358 C2363 1.363 . S
C2359 H2330 0.950 . S
C2359 C2358 1.397 . S
C2359 C2360 1.334 . S
C2360 H2331 0.950 . S
C2360 C2359 1.334 . S
C2360 C2361 1.287 . S
C2361 C2360 1.287 . S
C2361 C2362 1.524 . S
C2361 H2364 0.999 . S
C2362 H2332 0.950 . S
C2362 C2361 1.524 . S
C2362 C2363 1.415 . S
C2363 H2333 0.950 . S
C2363 C2358 1.363 . S
C2363 C2362 1.415 . S
H2364 C2361 0.999 . S
H2365 C2346 0.913 . S
H2366 C2384 0.951 . S
H2367 C2386 0.951 . S
H2368 C2388 0.950 . S
H2369 C2389 0.950 . S
H2370 C2391 0.950 . S
H2371 C2394 0.950 . S
H2372 C2395 0.950 . S
H2373 C2397 0.950 . S
H2374 C2398 0.950 . S
H2375 C2399 0.951 . S
H2376 C2401 0.951 . S
H2377 C2403 0.950 . S
H2378 C2404 0.950 . S
H2379 C2406 0.950 . S
H2380 C2409 0.950 . S
H2381 C2410 0.950 . S
H2382 C2412 0.950 . S
H2383 C2413 0.950 . S
C2384 H2366 0.951 . S
C2384 C2385 1.366 . S
C2384 C2386 1.388 . S
C2385 C2384 1.366 . S
C2385 C2389 1.385 . S
C2386 H2367 0.951 . S
C2386 C2384 1.388 . S
C2386 C2387 1.366 . S
C2387 C2386 1.366 . S
C2387 C2388 1.414 . S
C2387 C2390 1.499 . S
C2388 H2368 0.950 . S
C2388 C2387 1.414 . S
C2388 C2389 1.374 . S
C2389 H2369 0.950 . S
C2389 C2385 1.385 . S
C2389 C2388 1.374 . S
C2390 C2387 1.499 . S
C2390 C2391 1.373 . S
C2390 C2392 1.389 . S
C2391 H2370 0.950 . S
C2391 C2390 1.373 . S
C2391 C2407 1.377 . S
C2392 C2390 1.389 . S
C2392 C2393 1.524 . S
C2392 C2406 1.377 . S
C2393 C2392 1.524 . S
C2393 C2394 1.397 . S
C2393 C2398 1.363 . S
C2394 H2371 0.950 . S
C2394 C2393 1.397 . S
C2394 C2395 1.334 . S
C2395 H2372 0.950 . S
C2395 C2394 1.334 . S
C2395 C2396 1.287 . S
C2396 C2395 1.287 . S
C2396 C2397 1.524 . S
C2396 H2415 0.913 . S
C2397 H2373 0.950 . S
C2397 C2396 1.524 . S
C2397 C2398 1.415 . S
C2398 H2374 0.950 . S
C2398 C2393 1.363 . S
C2398 C2397 1.415 . S
C2399 H2375 0.951 . S
C2399 C2400 1.366 . S
C2399 C2401 1.388 . S
C2400 C2399 1.366 . S
C2400 C2404 1.385 . S
C2401 H2376 0.951 . S
C2401 C2399 1.388 . S
C2401 C2402 1.366 . S
C2402 C2401 1.366 . S
C2402 C2403 1.414 . S
C2402 C2405 1.499 . S
C2403 H2377 0.950 . S
C2403 C2402 1.414 . S
C2403 C2404 1.374 . S
C2404 H2378 0.950 . S
C2404 C2400 1.385 . S
C2404 C2403 1.374 . S
C2405 C2402 1.499 . S
C2405 C2406 1.373 . S
C2405 C2407 1.389 . S
C2406 H2379 0.950 . S
C2406 C2392 1.377 . S
C2406 C2405 1.373 . S
C2407 C2391 1.377 . S
C2407 C2405 1.389 . S
C2407 C2408 1.524 . S
C2408 C2407 1.524 . S
C2408 C2409 1.397 . S
C2408 C2413 1.363 . S
C2409 H2380 0.950 . S
C2409 C2408 1.397 . S
C2409 C2410 1.334 . S
C2410 H2381 0.950 . S
C2410 C2409 1.334 . S
C2410 C2411 1.287 . S
C2411 C2410 1.287 . S
C2411 C2412 1.524 . S
C2411 H2414 0.999 . S
C2412 H2382 0.950 . S
C2412 C2411 1.524 . S
C2412 C2413 1.415 . S
C2413 H2383 0.950 . S
C2413 C2408 1.363 . S
C2413 C2412 1.415 . S
H2414 C2411 0.999 . S
H2415 C2396 0.913 . S
H2416 C2434 0.951 . S
H2417 C2436 0.951 . S
H2418 C2438 0.950 . S
H2419 C2439 0.950 . S
H2420 C2441 0.950 . S
H2421 C2444 0.950 . S
H2422 C2445 0.950 . S
H2423 C2447 0.950 . S
H2424 C2448 0.950 . S
H2425 C2449 0.951 . S
H2426 C2451 0.951 . S
H2427 C2453 0.950 . S
H2428 C2454 0.950 . S
H2429 C2456 0.950 . S
H2430 C2459 0.950 . S
H2431 C2460 0.950 . S
H2432 C2462 0.950 . S
H2433 C2463 0.950 . S
C2434 H2416 0.951 . S
C2434 C2435 1.366 . S
C2434 C2436 1.388 . S
C2435 C2434 1.366 . S
C2435 C2439 1.385 . S
C2436 H2417 0.951 . S
C2436 C2434 1.388 . S
C2436 C2437 1.366 . S
C2437 C2436 1.366 . S
C2437 C2438 1.414 . S
C2437 C2440 1.499 . S
C2438 H2418 0.950 . S
C2438 C2437 1.414 . S
C2438 C2439 1.374 . S
C2439 H2419 0.950 . S
C2439 C2435 1.385 . S
C2439 C2438 1.374 . S
C2440 C2437 1.499 . S
C2440 C2441 1.373 . S
C2440 C2442 1.389 . S
C2441 H2420 0.950 . S
C2441 C2440 1.373 . S
C2441 C2457 1.377 . S
C2442 C2440 1.389 . S
C2442 C2443 1.524 . S
C2442 C2456 1.377 . S
C2443 C2442 1.524 . S
C2443 C2444 1.397 . S
C2443 C2448 1.363 . S
C2444 H2421 0.950 . S
C2444 C2443 1.397 . S
C2444 C2445 1.334 . S
C2445 H2422 0.950 . S
C2445 C2444 1.334 . S
C2445 C2446 1.287 . S
C2446 C2445 1.287 . S
C2446 C2447 1.524 . S
C2446 H2465 0.913 . S
C2447 H2423 0.950 . S
C2447 C2446 1.524 . S
C2447 C2448 1.415 . S
C2448 H2424 0.950 . S
C2448 C2443 1.363 . S
C2448 C2447 1.415 . S
C2449 H2425 0.951 . S
C2449 C2450 1.366 . S
C2449 C2451 1.388 . S
C2450 C2449 1.366 . S
C2450 C2454 1.385 . S
C2451 H2426 0.951 . S
C2451 C2449 1.388 . S
C2451 C2452 1.366 . S
C2452 C2451 1.366 . S
C2452 C2453 1.414 . S
C2452 C2455 1.499 . S
C2453 H2427 0.950 . S
C2453 C2452 1.414 . S
C2453 C2454 1.374 . S
C2454 H2428 0.950 . S
C2454 C2450 1.385 . S
C2454 C2453 1.374 . S
C2455 C2452 1.499 . S
C2455 C2456 1.373 . S
C2455 C2457 1.389 . S
C2456 H2429 0.950 . S
C2456 C2442 1.377 . S
C2456 C2455 1.373 . S
C2457 C2441 1.377 . S
C2457 C2455 1.389 . S
C2457 C2458 1.524 . S
C2458 C2457 1.524 . S
C2458 C2459 1.397 . S
C2458 C2463 1.363 . S
C2459 H2430 0.950 . S
C2459 C2458 1.397 . S
C2459 C2460 1.334 . S
C2460 H2431 0.950 . S
C2460 C2459 1.334 . S
C2460 C2461 1.287 . S
C2461 C2460 1.287 . S
C2461 C2462 1.524 . S
C2461 H2464 0.999 . S
C2462 H2432 0.950 . S
C2462 C2461 1.524 . S
C2462 C2463 1.415 . S
C2463 H2433 0.950 . S
C2463 C2458 1.363 . S
C2463 C2462 1.415 . S
H2464 C2461 0.999 . S
H2465 C2446 0.913 . S
H2466 C2484 0.951 . S
H2467 C2486 0.951 . S
H2468 C2488 0.950 . S
H2469 C2489 0.950 . S
H2470 C2491 0.950 . S
H2471 C2494 0.950 . S
H2472 C2495 0.950 . S
H2473 C2497 0.950 . S
H2474 C2498 0.950 . S
H2475 C2499 0.951 . S
H2476 C2501 0.951 . S
H2477 C2503 0.950 . S
H2478 C2504 0.950 . S
H2479 C2506 0.950 . S
H2480 C2509 0.950 . S
H2481 C2510 0.950 . S
H2482 C2512 0.950 . S
H2483 C2513 0.950 . S
C2484 H2466 0.951 . S
C2484 C2485 1.366 . S
C2484 C2486 1.388 . S
C2485 C2484 1.366 . S
C2485 C2489 1.385 . S
C2486 H2467 0.951 . S
C2486 C2484 1.388 . S
C2486 C2487 1.366 . S
C2487 C2486 1.366 . S
C2487 C2488 1.414 . S
C2487 C2490 1.499 . S
C2488 H2468 0.950 . S
C2488 C2487 1.414 . S
C2488 C2489 1.374 . S
C2489 H2469 0.950 . S
C2489 C2485 1.385 . S
C2489 C2488 1.374 . S
C2490 C2487 1.499 . S
C2490 C2491 1.373 . S
C2490 C2492 1.389 . S
C2491 H2470 0.950 . S
C2491 C2490 1.373 . S
C2491 C2507 1.377 . S
C2492 C2490 1.389 . S
C2492 C2493 1.524 . S
C2492 C2506 1.377 . S
C2493 C2492 1.524 . S
C2493 C2494 1.397 . S
C2493 C2498 1.363 . S
C2494 H2471 0.950 . S
C2494 C2493 1.397 . S
C2494 C2495 1.334 . S
C2495 H2472 0.950 . S
C2495 C2494 1.334 . S
C2495 C2496 1.287 . S
C2496 C2495 1.287 . S
C2496 C2497 1.524 . S
C2496 H2515 0.913 . S
C2497 H2473 0.950 . S
C2497 C2496 1.524 . S
C2497 C2498 1.415 . S
C2498 H2474 0.950 . S
C2498 C2493 1.363 . S
C2498 C2497 1.415 . S
C2499 H2475 0.951 . S
C2499 C2500 1.366 . S
C2499 C2501 1.388 . S
C2500 C2499 1.366 . S
C2500 C2504 1.385 . S
C2501 H2476 0.951 . S
C2501 C2499 1.388 . S
C2501 C2502 1.366 . S
C2502 C2501 1.366 . S
C2502 C2503 1.414 . S
C2502 C2505 1.499 . S
C2503 H2477 0.950 . S
C2503 C2502 1.414 . S
C2503 C2504 1.374 . S
C2504 H2478 0.950 . S
C2504 C2500 1.385 . S
C2504 C2503 1.374 . S
C2505 C2502 1.499 . S
C2505 C2506 1.373 . S
C2505 C2507 1.389 . S
C2506 H2479 0.950 . S
C2506 C2492 1.377 . S
C2506 C2505 1.373 . S
C2507 C2491 1.377 . S
C2507 C2505 1.389 . S
C2507 C2508 1.524 . S
C2508 C2507 1.524 . S
C2508 C2509 1.397 . S
C2508 C2513 1.363 . S
C2509 H2480 0.950 . S
C2509 C2508 1.397 . S
C2509 C2510 1.334 . S
C2510 H2481 0.950 . S
C2510 C2509 1.334 . S
C2510 C2511 1.287 . S
C2511 C2510 1.287 . S
C2511 C2512 1.524 . S
C2511 H2514 0.999 . S
C2512 H2482 0.950 . S
C2512 C2511 1.524 . S
C2512 C2513 1.415 . S
C2513 H2483 0.950 . S
C2513 C2508 1.363 . S
C2513 C2512 1.415 . S
H2514 C2511 0.999 . S
H2515 C2496 0.913 . S
H2516 C2534 0.951 . S
H2517 C2536 0.951 . S
H2518 C2538 0.950 . S
H2519 C2539 0.950 . S
H2520 C2541 0.950 . S
H2521 C2544 0.950 . S
H2522 C2545 0.950 . S
H2523 C2547 0.950 . S
H2524 C2548 0.950 . S
H2525 C2549 0.951 . S
H2526 C2551 0.951 . S
H2527 C2553 0.950 . S
H2528 C2554 0.950 . S
H2529 C2556 0.950 . S
H2530 C2559 0.950 . S
H2531 C2560 0.950 . S
H2532 C2562 0.950 . S
H2533 C2563 0.950 . S
C2534 H2516 0.951 . S
C2534 C2535 1.366 . S
C2534 C2536 1.388 . S
C2535 C2534 1.366 . S
C2535 C2539 1.385 . S
C2536 H2517 0.951 . S
C2536 C2534 1.388 . S
C2536 C2537 1.366 . S
C2537 C2536 1.366 . S
C2537 C2538 1.414 . S
C2537 C2540 1.499 . S
C2538 H2518 0.950 . S
C2538 C2537 1.414 . S
C2538 C2539 1.374 . S
C2539 H2519 0.950 . S
C2539 C2535 1.385 . S
C2539 C2538 1.374 . S
C2540 C2537 1.499 . S
C2540 C2541 1.373 . S
C2540 C2542 1.389 . S
C2541 H2520 0.950 . S
C2541 C2540 1.373 . S
C2541 C2557 1.377 . S
C2542 C2540 1.389 . S
C2542 C2543 1.524 . S
C2542 C2556 1.377 . S
C2543 C2542 1.524 . S
C2543 C2544 1.397 . S
C2543 C2548 1.363 . S
C2544 H2521 0.950 . S
C2544 C2543 1.397 . S
C2544 C2545 1.334 . S
C2545 H2522 0.950 . S
C2545 C2544 1.334 . S
C2545 C2546 1.287 . S
C2546 C2545 1.287 . S
C2546 C2547 1.524 . S
C2546 H2565 0.913 . S
C2547 H2523 0.950 . S
C2547 C2546 1.524 . S
C2547 C2548 1.415 . S
C2548 H2524 0.950 . S
C2548 C2543 1.363 . S
C2548 C2547 1.415 . S
C2549 H2525 0.951 . S
C2549 C2550 1.366 . S
C2549 C2551 1.388 . S
C2550 C2549 1.366 . S
C2550 C2554 1.385 . S
C2551 H2526 0.951 . S
C2551 C2549 1.388 . S
C2551 C2552 1.366 . S
C2552 C2551 1.366 . S
C2552 C2553 1.414 . S
C2552 C2555 1.499 . S
C2553 H2527 0.950 . S
C2553 C2552 1.414 . S
C2553 C2554 1.374 . S
C2554 H2528 0.950 . S
C2554 C2550 1.385 . S
C2554 C2553 1.374 . S
C2555 C2552 1.499 . S
C2555 C2556 1.373 . S
C2555 C2557 1.389 . S
C2556 H2529 0.950 . S
C2556 C2542 1.377 . S
C2556 C2555 1.373 . S
C2557 C2541 1.377 . S
C2557 C2555 1.389 . S
C2557 C2558 1.524 . S
C2558 C2557 1.524 . S
C2558 C2559 1.397 . S
C2558 C2563 1.363 . S
C2559 H2530 0.950 . S
C2559 C2558 1.397 . S
C2559 C2560 1.334 . S
C2560 H2531 0.950 . S
C2560 C2559 1.334 . S
C2560 C2561 1.287 . S
C2561 C2560 1.287 . S
C2561 C2562 1.524 . S
C2561 H2564 0.999 . S
C2562 H2532 0.950 . S
C2562 C2561 1.524 . S
C2562 C2563 1.415 . S
C2563 H2533 0.950 . S
C2563 C2558 1.363 . S
C2563 C2562 1.415 . S
H2564 C2561 0.999 . S
H2565 C2546 0.913 . S
H2566 C2584 0.951 . S
H2567 C2586 0.951 . S
H2568 C2588 0.950 . S
H2569 C2589 0.950 . S
H2570 C2591 0.950 . S
H2571 C2594 0.950 . S
H2572 C2595 0.950 . S
H2573 C2597 0.950 . S
H2574 C2598 0.950 . S
H2575 C2599 0.951 . S
H2576 C2601 0.951 1_655 S
H2577 C2603 0.950 . S
H2578 C2604 0.950 . S
H2579 C2606 0.950 . S
H2580 C2609 0.950 1_455 S
H2581 C2610 0.934 1_455 S
H2582 C2612 0.950 . S
H2583 C2613 0.950 . S
C2584 H2566 0.951 . S
C2584 C2585 1.366 . S
C2584 C2586 1.388 . S
C2585 C2584 1.366 . S
C2585 C2589 1.385 . S
C2586 H2567 0.951 . S
C2586 C2584 1.388 . S
C2586 C2587 1.366 . S
C2587 C2586 1.366 . S
C2587 C2588 1.414 . S
C2587 C2590 1.499 . S
C2588 H2568 0.950 . S
C2588 C2587 1.414 . S
C2588 C2589 1.374 . S
C2589 H2569 0.950 . S
C2589 C2585 1.385 . S
C2589 C2588 1.374 . S
C2590 C2587 1.499 . S
C2590 C2591 1.373 . S
C2590 C2592 1.389 . S
C2591 H2570 0.950 . S
C2591 C2590 1.373 . S
C2591 C2607 1.377 . S
C2592 C2590 1.389 . S
C2592 C2593 1.524 . S
C2592 C2606 1.377 . S
C2593 C2592 1.524 . S
C2593 C2594 1.397 . S
C2593 C2598 1.363 . S
C2594 H2571 0.950 . S
C2594 C2593 1.397 . S
C2594 C2595 1.334 . S
C2595 H2572 0.950 . S
C2595 C2594 1.334 . S
C2595 C2596 1.287 . S
C2596 C2595 1.287 . S
C2596 C2597 1.524 . S
C2596 H2615 0.913 . S
C2597 H2573 0.950 . S
C2597 C2596 1.524 . S
C2597 C2598 1.415 . S
C2598 H2574 0.950 . S
C2598 C2593 1.363 . S
C2598 C2597 1.415 . S
C2599 H2575 0.951 . S
C2599 C2600 1.366 . S
C2599 C2601 1.388 . S
C2600 C2599 1.366 . S
C2600 C2604 1.385 . S
C2601 H2576 0.951 1_455 S
C2601 C2599 1.388 . S
C2601 C2602 1.366 . S
C2602 C2601 1.366 . S
C2602 C2603 1.414 . S
C2602 C2605 1.499 1_455 S
C2603 H2577 0.950 . S
C2603 C2602 1.414 . S
C2603 C2604 1.374 . S
C2604 H2578 0.950 . S
C2604 C2600 1.385 . S
C2604 C2603 1.374 . S
C2605 C2602 1.499 1_655 S
C2605 C2606 1.373 . S
C2605 C2607 1.389 . S
C2606 H2579 0.950 . S
C2606 C2592 1.377 . S
C2606 C2605 1.373 . S
C2607 C2591 1.377 . S
C2607 C2605 1.389 . S
C2607 C2608 1.524 . S
C2608 C2607 1.524 . S
C2608 C2609 1.397 . S
C2608 C2613 1.363 . S
C2609 H2580 0.950 1_655 S
C2609 C2608 1.397 . S
C2609 C2610 1.339 . S
C2610 H2581 0.934 1_655 S
C2610 C2609 1.339 . S
C2610 C2611 1.299 . S
C2611 C2610 1.299 . S
C2611 C2612 1.524 . S
C2611 H2614 0.999 . S
C2612 H2582 0.950 . S
C2612 C2611 1.524 . S
C2612 C2613 1.415 . S
C2613 H2583 0.950 . S
C2613 C2608 1.363 . S
C2613 C2612 1.415 . S
H2614 C2611 0.999 . S
H2615 C2596 0.913 . S
H2616 C2634 0.951 . S
H2617 C2636 0.951 . S
H2618 C2638 0.950 . S
H2619 C2639 0.950 . S
H2620 C2641 0.950 . S
H2621 C2644 0.950 . S
H2622 C2645 0.950 . S
H2623 C2647 0.950 . S
H2624 C2648 0.950 . S
H2625 C2649 0.951 . S
H2626 C2651 0.951 . S
H2627 C2653 0.950 . S
H2628 C2654 0.950 . S
H2629 C2656 0.950 . S
H2630 C2659 0.950 . S
H2631 C2660 0.950 . S
H2632 C2662 0.950 . S
H2633 C2663 0.950 . S
C2634 H2616 0.951 . S
C2634 C2635 1.366 . S
C2634 C2636 1.388 . S
C2635 C2634 1.366 . S
C2635 C2639 1.385 . S
C2636 H2617 0.951 . S
C2636 C2634 1.388 . S
C2636 C2637 1.366 . S
C2637 C2636 1.366 . S
C2637 C2638 1.414 . S
C2637 C2640 1.499 . S
C2638 H2618 0.950 . S
C2638 C2637 1.414 . S
C2638 C2639 1.374 . S
C2639 H2619 0.950 . S
C2639 C2635 1.385 . S
C2639 C2638 1.374 . S
C2640 C2637 1.499 . S
C2640 C2641 1.373 . S
C2640 C2642 1.389 . S
C2641 H2620 0.950 . S
C2641 C2640 1.373 . S
C2641 C2657 1.377 . S
C2642 C2640 1.389 . S
C2642 C2643 1.524 . S
C2642 C2656 1.377 . S
C2643 C2642 1.524 . S
C2643 C2644 1.397 . S
C2643 C2648 1.363 . S
C2644 H2621 0.950 . S
C2644 C2643 1.397 . S
C2644 C2645 1.334 . S
C2645 H2622 0.950 . S
C2645 C2644 1.334 . S
C2645 C2646 1.287 . S
C2646 C2645 1.287 . S
C2646 C2647 1.524 . S
C2646 H2665 0.913 . S
C2647 H2623 0.950 . S
C2647 C2646 1.524 . S
C2647 C2648 1.415 . S
C2648 H2624 0.950 . S
C2648 C2643 1.363 . S
C2648 C2647 1.415 . S
C2649 H2625 0.951 . S
C2649 C2650 1.366 . S
C2649 C2651 1.388 . S
C2650 C2649 1.366 . S
C2650 C2654 1.385 . S
C2651 H2626 0.951 . S
C2651 C2649 1.388 . S
C2651 C2652 1.366 . S
C2652 C2651 1.366 . S
C2652 C2653 1.414 . S
C2652 C2655 1.499 . S
C2653 H2627 0.950 . S
C2653 C2652 1.414 . S
C2653 C2654 1.374 . S
C2654 H2628 0.950 . S
C2654 C2650 1.385 . S
C2654 C2653 1.374 . S
C2655 C2652 1.499 . S
C2655 C2656 1.373 . S
C2655 C2657 1.389 . S
C2656 H2629 0.950 . S
C2656 C2642 1.377 . S
C2656 C2655 1.373 . S
C2657 C2641 1.377 . S
C2657 C2655 1.389 . S
C2657 C2658 1.524 . S
C2658 C2657 1.524 . S
C2658 C2659 1.397 . S
C2658 C2663 1.363 . S
C2659 H2630 0.950 . S
C2659 C2658 1.397 . S
C2659 C2660 1.334 . S
C2660 H2631 0.950 . S
C2660 C2659 1.334 . S
C2660 C2661 1.287 . S
C2661 C2660 1.287 . S
C2661 C2662 1.524 . S
C2661 H2664 0.999 . S
C2662 H2632 0.950 . S
C2662 C2661 1.524 . S
C2662 C2663 1.415 . S
C2663 H2633 0.950 . S
C2663 C2658 1.363 . S
C2663 C2662 1.415 . S
H2664 C2661 0.999 . S
H2665 C2646 0.913 . S
H2666 C2684 0.951 . S
H2667 C2686 0.951 . S
H2668 C2688 0.950 1_655 S
H2669 C2689 0.950 . S
H2670 C2691 0.950 . S
H2671 C2694 0.938 1_655 S
H2672 C2695 0.950 . S
H2673 C2697 0.950 . S
H2674 C2698 0.950 1_655 S
H2675 C2699 0.951 . S
H2676 C2701 0.951 . S
H2677 C2703 0.950 . S
H2678 C2704 0.950 . S
H2679 C2706 0.950 . S
H2680 C2709 0.950 . S
H2681 C2710 0.950 . S
H2682 C2712 0.950 . S
H2683 C2713 0.950 . S
C2684 H2666 0.951 . S
C2684 C2685 1.366 . S
C2684 C2686 1.388 . S
C2685 C2684 1.366 . S
C2685 C2689 1.385 . S
C2686 H2667 0.951 . S
C2686 C2684 1.388 . S
C2686 C2687 1.366 . S
C2687 C2686 1.366 . S
C2687 C2688 1.414 . S
C2687 C2690 1.499 1_455 S
C2688 H2668 0.950 1_455 S
C2688 C2687 1.414 . S
C2688 C2689 1.374 . S
C2689 H2669 0.950 . S
C2689 C2685 1.385 . S
C2689 C2688 1.374 . S
C2690 C2687 1.499 1_655 S
C2690 C2691 1.373 . S
C2690 C2692 1.389 . S
C2691 H2670 0.950 . S
C2691 C2690 1.373 . S
C2691 C2707 1.377 . S
C2692 C2690 1.389 . S
C2692 C2693 1.524 . S
C2692 C2706 1.377 . S
C2693 C2692 1.524 . S
C2693 C2694 1.397 1_655 S
C2693 C2698 1.363 1_655 S
C2694 H2671 0.938 1_455 S
C2694 C2693 1.397 1_455 S
C2694 C2695 1.334 . S
C2695 H2672 0.950 . S
C2695 C2694 1.334 . S
C2695 C2696 1.287 . S
C2696 C2695 1.287 . S
C2696 C2697 1.524 . S
C2696 H2715 0.913 . S
C2697 H2673 0.950 . S
C2697 C2696 1.524 . S
C2697 C2698 1.415 . S
C2698 H2674 0.950 1_455 S
C2698 C2693 1.363 1_455 S
C2698 C2697 1.415 . S
C2699 H2675 0.951 . S
C2699 C2700 1.366 . S
C2699 C2701 1.388 . S
C2700 C2699 1.366 . S
C2700 C2704 1.385 . S
C2701 H2676 0.951 . S
C2701 C2699 1.388 . S
C2701 C2702 1.366 . S
C2702 C2701 1.366 . S
C2702 C2703 1.414 . S
C2702 C2705 1.499 . S
C2703 H2677 0.950 . S
C2703 C2702 1.414 . S
C2703 C2704 1.374 . S
C2704 H2678 0.950 . S
C2704 C2700 1.385 . S
C2704 C2703 1.374 . S
C2705 C2702 1.499 . S
C2705 C2706 1.373 . S
C2705 C2707 1.389 . S
C2706 H2679 0.950 . S
C2706 C2692 1.377 . S
C2706 C2705 1.373 . S
C2707 C2691 1.377 . S
C2707 C2705 1.389 . S
C2707 C2708 1.524 . S
C2708 C2707 1.524 . S
C2708 C2709 1.397 . S
C2708 C2713 1.363 . S
C2709 H2680 0.950 . S
C2709 C2708 1.397 . S
C2709 C2710 1.334 . S
C2710 H2681 0.950 . S
C2710 C2709 1.334 . S
C2710 C2711 1.287 . S
C2711 C2710 1.287 . S
C2711 C2712 1.524 . S
C2711 H2714 0.999 . S
C2712 H2682 0.950 . S
C2712 C2711 1.524 . S
C2712 C2713 1.415 . S
C2713 H2683 0.950 . S
C2713 C2708 1.363 . S
C2713 C2712 1.415 . S
H2714 C2711 0.999 . S
H2715 C2696 0.913 . S
H2716 C2734 0.951 . S
H2717 C2736 0.951 . S
H2718 C2738 0.950 . S
H2719 C2739 0.950 . S
H2720 C2741 0.950 . S
H2721 C2744 0.950 . S
H2722 C2745 0.950 . S
H2723 C2747 0.950 . S
H2724 C2748 0.950 . S
H2725 C2749 0.951 . S
H2726 C2751 0.951 . S
H2727 C2753 0.950 . S
H2728 C2754 0.950 . S
H2729 C2756 0.950 . S
H2730 C2759 0.950 . S
H2731 C2760 0.950 . S
H2732 C2762 0.950 . S
H2733 C2763 0.950 . S
C2734 H2716 0.951 . S
C2734 C2735 1.366 . S
C2734 C2736 1.388 . S
C2735 C2734 1.366 . S
C2735 C2739 1.385 . S
C2736 H2717 0.951 . S
C2736 C2734 1.388 . S
C2736 C2737 1.366 . S
C2737 C2736 1.366 . S
C2737 C2738 1.414 . S
C2737 C2740 1.499 . S
C2738 H2718 0.950 . S
C2738 C2737 1.414 . S
C2738 C2739 1.374 . S
C2739 H2719 0.950 . S
C2739 C2735 1.385 . S
C2739 C2738 1.374 . S
C2740 C2737 1.499 . S
C2740 C2741 1.373 . S
C2740 C2742 1.389 . S
C2741 H2720 0.950 . S
C2741 C2740 1.373 . S
C2741 C2757 1.377 . S
C2742 C2740 1.389 . S
C2742 C2743 1.524 . S
C2742 C2756 1.377 . S
C2743 C2742 1.524 . S
C2743 C2744 1.397 . S
C2743 C2748 1.363 . S
C2744 H2721 0.950 . S
C2744 C2743 1.397 . S
C2744 C2745 1.334 . S
C2745 H2722 0.950 . S
C2745 C2744 1.334 . S
C2745 C2746 1.287 . S
C2746 C2745 1.287 . S
C2746 C2747 1.524 . S
C2746 H2765 0.913 . S
C2747 H2723 0.950 . S
C2747 C2746 1.524 . S
C2747 C2748 1.415 . S
C2748 H2724 0.950 . S
C2748 C2743 1.363 . S
C2748 C2747 1.415 . S
C2749 H2725 0.951 . S
C2749 C2750 1.366 . S
C2749 C2751 1.388 . S
C2750 C2749 1.366 . S
C2750 C2754 1.385 . S
C2751 H2726 0.951 . S
C2751 C2749 1.388 . S
C2751 C2752 1.366 . S
C2752 C2751 1.366 . S
C2752 C2753 1.414 . S
C2752 C2755 1.499 . S
C2753 H2727 0.950 . S
C2753 C2752 1.414 . S
C2753 C2754 1.374 . S
C2754 H2728 0.950 . S
C2754 C2750 1.385 . S
C2754 C2753 1.374 . S
C2755 C2752 1.499 . S
C2755 C2756 1.373 . S
C2755 C2757 1.389 . S
C2756 H2729 0.950 . S
C2756 C2742 1.377 . S
C2756 C2755 1.373 . S
C2757 C2741 1.377 . S
C2757 C2755 1.389 . S
C2757 C2758 1.524 . S
C2758 C2757 1.524 . S
C2758 C2759 1.397 . S
C2758 C2763 1.363 . S
C2759 H2730 0.950 . S
C2759 C2758 1.397 . S
C2759 C2760 1.334 . S
C2760 H2731 0.950 . S
C2760 C2759 1.334 . S
C2760 C2761 1.287 . S
C2761 C2760 1.287 . S
C2761 C2762 1.524 . S
C2761 H2764 0.999 . S
C2762 H2732 0.950 . S
C2762 C2761 1.524 . S
C2762 C2763 1.415 . S
C2763 H2733 0.950 . S
C2763 C2758 1.363 . S
C2763 C2762 1.415 . S
H2764 C2761 0.999 . S
H2765 C2746 0.913 . S
H2766 C2784 0.951 . S
H2767 C2786 0.951 . S
H2768 C2788 0.950 . S
H2769 C2789 0.950 . S
H2770 C2791 0.950 . S
H2771 C2794 0.950 . S
H2772 C2795 0.950 . S
H2773 C2797 0.950 . S
H2774 C2798 0.950 . S
H2775 C2799 0.951 . S
H2776 C2801 0.951 . S
H2777 C2803 0.950 . S
H2778 C2804 0.950 . S
H2779 C2806 0.950 . S
H2780 C2809 0.950 . S
H2781 C2810 0.950 . S
H2782 C2812 0.950 . S
H2783 C2813 0.950 . S
C2784 H2766 0.951 . S
C2784 C2785 1.366 . S
C2784 C2786 1.388 . S
C2785 C2784 1.366 . S
C2785 C2789 1.385 . S
C2786 H2767 0.951 . S
C2786 C2784 1.388 . S
C2786 C2787 1.366 . S
C2787 C2786 1.366 . S
C2787 C2788 1.414 . S
C2787 C2790 1.499 . S
C2788 H2768 0.950 . S
C2788 C2787 1.414 . S
C2788 C2789 1.374 . S
C2789 H2769 0.950 . S
C2789 C2785 1.385 . S
C2789 C2788 1.374 . S
C2790 C2787 1.499 . S
C2790 C2791 1.373 . S
C2790 C2792 1.389 . S
C2791 H2770 0.950 . S
C2791 C2790 1.373 . S
C2791 C2807 1.377 . S
C2792 C2790 1.389 . S
C2792 C2793 1.524 . S
C2792 C2806 1.377 . S
C2793 C2792 1.524 . S
C2793 C2794 1.397 . S
C2793 C2798 1.363 . S
C2794 H2771 0.950 . S
C2794 C2793 1.397 . S
C2794 C2795 1.334 . S
C2795 H2772 0.950 . S
C2795 C2794 1.334 . S
C2795 C2796 1.287 . S
C2796 C2795 1.287 . S
C2796 C2797 1.524 . S
C2796 H2815 0.913 . S
C2797 H2773 0.950 . S
C2797 C2796 1.524 . S
C2797 C2798 1.415 . S
C2798 H2774 0.950 . S
C2798 C2793 1.363 . S
C2798 C2797 1.415 . S
C2799 H2775 0.951 . S
C2799 C2800 1.366 . S
C2799 C2801 1.388 . S
C2800 C2799 1.366 . S
C2800 C2804 1.385 . S
C2801 H2776 0.951 . S
C2801 C2799 1.388 . S
C2801 C2802 1.366 . S
C2802 C2801 1.366 . S
C2802 C2803 1.414 . S
C2802 C2805 1.499 . S
C2803 H2777 0.950 . S
C2803 C2802 1.414 . S
C2803 C2804 1.374 . S
C2804 H2778 0.950 . S
C2804 C2800 1.385 . S
C2804 C2803 1.374 . S
C2805 C2802 1.499 . S
C2805 C2806 1.373 . S
C2805 C2807 1.389 . S
C2806 H2779 0.950 . S
C2806 C2792 1.377 . S
C2806 C2805 1.373 . S
C2807 C2791 1.377 . S
C2807 C2805 1.389 . S
C2807 C2808 1.524 . S
C2808 C2807 1.524 . S
C2808 C2809 1.397 . S
C2808 C2813 1.363 . S
C2809 H2780 0.950 . S
C2809 C2808 1.397 . S
C2809 C2810 1.334 . S
C2810 H2781 0.950 . S
C2810 C2809 1.334 . S
C2810 C2811 1.287 . S
C2811 C2810 1.287 . S
C2811 C2812 1.524 . S
C2811 H2814 0.999 . S
C2812 H2782 0.950 . S
C2812 C2811 1.524 . S
C2812 C2813 1.415 . S
C2813 H2783 0.950 . S
C2813 C2808 1.363 . S
C2813 C2812 1.415 . S
H2814 C2811 0.999 . S
H2815 C2796 0.913 . S
H2816 C2834 0.951 . S
H2817 C2836 0.951 . S
H2818 C2838 0.950 . S
H2819 C2839 0.950 . S
H2820 C2841 0.950 . S
H2821 C2844 0.950 . S
H2822 C2845 0.950 . S
H2823 C2847 0.950 . S
H2824 C2848 0.950 . S
H2825 C2849 0.951 . S
H2826 C2851 0.951 . S
H2827 C2853 0.950 . S
H2828 C2854 0.950 . S
H2829 C2856 0.950 . S
H2830 C2859 0.950 . S
H2831 C2860 0.950 . S
H2832 C2862 0.950 . S
H2833 C2863 0.950 . S
C2834 H2816 0.951 . S
C2834 C2835 1.366 . S
C2834 C2836 1.388 . S
C2835 C2834 1.366 . S
C2835 C2839 1.385 . S
C2836 H2817 0.951 . S
C2836 C2834 1.388 . S
C2836 C2837 1.366 . S
C2837 C2836 1.366 . S
C2837 C2838 1.414 . S
C2837 C2840 1.499 . S
C2838 H2818 0.950 . S
C2838 C2837 1.414 . S
C2838 C2839 1.374 . S
C2839 H2819 0.950 . S
C2839 C2835 1.385 . S
C2839 C2838 1.374 . S
C2840 C2837 1.499 . S
C2840 C2841 1.373 . S
C2840 C2842 1.389 . S
C2841 H2820 0.950 . S
C2841 C2840 1.373 . S
C2841 C2857 1.377 . S
C2842 C2840 1.389 . S
C2842 C2843 1.524 . S
C2842 C2856 1.377 . S
C2843 C2842 1.524 . S
C2843 C2844 1.397 . S
C2843 C2848 1.363 . S
C2844 H2821 0.950 . S
C2844 C2843 1.397 . S
C2844 C2845 1.334 . S
C2845 H2822 0.950 . S
C2845 C2844 1.334 . S
C2845 C2846 1.287 . S
C2846 C2845 1.287 . S
C2846 C2847 1.524 . S
C2846 H2865 0.913 . S
C2847 H2823 0.950 . S
C2847 C2846 1.524 . S
C2847 C2848 1.415 . S
C2848 H2824 0.950 . S
C2848 C2843 1.363 . S
C2848 C2847 1.415 . S
C2849 H2825 0.951 . S
C2849 C2850 1.366 . S
C2849 C2851 1.388 . S
C2850 C2849 1.366 . S
C2850 C2854 1.385 . S
C2851 H2826 0.951 . S
C2851 C2849 1.388 . S
C2851 C2852 1.366 . S
C2852 C2851 1.366 . S
C2852 C2853 1.414 . S
C2852 C2855 1.499 . S
C2853 H2827 0.950 . S
C2853 C2852 1.414 . S
C2853 C2854 1.374 . S
C2854 H2828 0.950 . S
C2854 C2850 1.385 . S
C2854 C2853 1.374 . S
C2855 C2852 1.499 . S
C2855 C2856 1.373 . S
C2855 C2857 1.389 . S
C2856 H2829 0.950 . S
C2856 C2842 1.377 . S
C2856 C2855 1.373 . S
C2857 C2841 1.377 . S
C2857 C2855 1.389 . S
C2857 C2858 1.524 . S
C2858 C2857 1.524 . S
C2858 C2859 1.397 . S
C2858 C2863 1.363 . S
C2859 H2830 0.950 . S
C2859 C2858 1.397 . S
C2859 C2860 1.334 . S
C2860 H2831 0.950 . S
C2860 C2859 1.334 . S
C2860 C2861 1.287 . S
C2861 C2860 1.287 . S
C2861 C2862 1.524 . S
C2861 H2864 0.999 . S
C2862 H2832 0.950 . S
C2862 C2861 1.524 . S
C2862 C2863 1.415 . S
C2863 H2833 0.950 . S
C2863 C2858 1.363 . S
C2863 C2862 1.415 . S
H2864 C2861 0.999 . S
H2865 C2846 0.913 . S
H2866 C2884 0.951 . S
H2867 C2886 0.951 . S
H2868 C2888 0.950 . S
H2869 C2889 0.950 . S
H2870 C2891 0.950 . S
H2871 C2894 0.950 . S
H2872 C2895 0.950 . S
H2873 C2897 0.950 . S
H2874 C2898 0.950 . S
H2875 C2899 0.951 . S
H2876 C2901 0.951 . S
H2877 C2903 0.950 . S
H2878 C2904 0.950 . S
H2879 C2906 0.950 . S
H2880 C2909 0.950 . S
H2881 C2910 0.950 . S
H2882 C2912 0.950 . S
H2883 C2913 0.950 . S
C2884 H2866 0.951 . S
C2884 C2885 1.366 . S
C2884 C2886 1.388 . S
C2885 C2884 1.366 . S
C2885 C2889 1.385 . S
C2886 H2867 0.951 . S
C2886 C2884 1.388 . S
C2886 C2887 1.366 . S
C2887 C2886 1.366 . S
C2887 C2888 1.414 . S
C2887 C2890 1.499 . S
C2888 H2868 0.950 . S
C2888 C2887 1.414 . S
C2888 C2889 1.374 . S
C2889 H2869 0.950 . S
C2889 C2885 1.385 . S
C2889 C2888 1.374 . S
C2890 C2887 1.499 . S
C2890 C2891 1.373 . S
C2890 C2892 1.389 . S
C2891 H2870 0.950 . S
C2891 C2890 1.373 . S
C2891 C2907 1.377 . S
C2892 C2890 1.389 . S
C2892 C2893 1.524 . S
C2892 C2906 1.377 . S
C2893 C2892 1.524 . S
C2893 C2894 1.397 . S
C2893 C2898 1.363 . S
C2894 H2871 0.950 . S
C2894 C2893 1.397 . S
C2894 C2895 1.334 . S
C2895 H2872 0.950 . S
C2895 C2894 1.334 . S
C2895 C2896 1.287 . S
C2896 C2895 1.287 . S
C2896 C2897 1.524 . S
C2896 H2915 0.913 . S
C2897 H2873 0.950 . S
C2897 C2896 1.524 . S
C2897 C2898 1.415 . S
C2898 H2874 0.950 . S
C2898 C2893 1.363 . S
C2898 C2897 1.415 . S
C2899 H2875 0.951 . S
C2899 C2900 1.366 . S
C2899 C2901 1.388 . S
C2900 C2899 1.366 . S
C2900 C2904 1.385 . S
C2901 H2876 0.951 . S
C2901 C2899 1.388 . S
C2901 C2902 1.366 . S
C2902 C2901 1.366 . S
C2902 C2903 1.414 . S
C2902 C2905 1.499 . S
C2903 H2877 0.950 . S
C2903 C2902 1.414 . S
C2903 C2904 1.374 . S
C2904 H2878 0.950 . S
C2904 C2900 1.385 . S
C2904 C2903 1.374 . S
C2905 C2902 1.499 . S
C2905 C2906 1.373 . S
C2905 C2907 1.389 . S
C2906 H2879 0.950 . S
C2906 C2892 1.377 . S
C2906 C2905 1.373 . S
C2907 C2891 1.377 . S
C2907 C2905 1.389 . S
C2907 C2908 1.524 . S
C2908 C2907 1.524 . S
C2908 C2909 1.397 . S
C2908 C2913 1.363 . S
C2909 H2880 0.950 . S
C2909 C2908 1.397 . S
C2909 C2910 1.334 . S
C2910 H2881 0.950 . S
C2910 C2909 1.334 . S
C2910 C2911 1.287 . S
C2911 C2910 1.287 . S
C2911 C2912 1.524 . S
C2911 H2914 0.999 . S
C2912 H2882 0.950 . S
C2912 C2911 1.524 . S
C2912 C2913 1.415 . S
C2913 H2883 0.950 . S
C2913 C2908 1.363 . S
C2913 C2912 1.415 . S
H2914 C2911 0.999 . S
H2915 C2896 0.913 . S
H2916 C2934 0.951 . S
H2917 C2936 0.951 . S
H2918 C2938 0.950 . S
H2919 C2939 0.950 . S
H2920 C2941 0.950 . S
H2921 C2944 0.950 . S
H2922 C2945 0.950 . S
H2923 C2947 0.950 . S
H2924 C2948 0.950 . S
H2925 C2949 0.951 . S
H2926 C2951 0.951 . S
H2927 C2953 0.950 . S
H2928 C2954 0.950 . S
H2929 C2956 0.950 . S
H2930 C2959 0.950 . S
H2931 C2960 0.950 . S
H2932 C2962 0.950 . S
H2933 C2963 0.950 . S
C2934 H2916 0.951 . S
C2934 C2935 1.366 . S
C2934 C2936 1.388 . S
C2935 C2934 1.366 . S
C2935 C2939 1.385 . S
C2936 H2917 0.951 . S
C2936 C2934 1.388 . S
C2936 C2937 1.366 . S
C2937 C2936 1.366 . S
C2937 C2938 1.414 . S
C2937 C2940 1.499 . S
C2938 H2918 0.950 . S
C2938 C2937 1.414 . S
C2938 C2939 1.374 . S
C2939 H2919 0.950 . S
C2939 C2935 1.385 . S
C2939 C2938 1.374 . S
C2940 C2937 1.499 . S
C2940 C2941 1.373 . S
C2940 C2942 1.389 . S
C2941 H2920 0.950 . S
C2941 C2940 1.373 . S
C2941 C2957 1.377 . S
C2942 C2940 1.389 . S
C2942 C2943 1.524 . S
C2942 C2956 1.377 . S
C2943 C2942 1.524 . S
C2943 C2944 1.397 . S
C2943 C2948 1.363 . S
C2944 H2921 0.950 . S
C2944 C2943 1.397 . S
C2944 C2945 1.334 . S
C2945 H2922 0.950 . S
C2945 C2944 1.334 . S
C2945 C2946 1.287 . S
C2946 C2945 1.287 . S
C2946 C2947 1.524 . S
C2946 H2965 0.913 . S
C2947 H2923 0.950 . S
C2947 C2946 1.524 . S
C2947 C2948 1.415 . S
C2948 H2924 0.950 . S
C2948 C2943 1.363 . S
C2948 C2947 1.415 . S
C2949 H2925 0.951 . S
C2949 C2950 1.366 . S
C2949 C2951 1.388 . S
C2950 C2949 1.366 . S
C2950 C2954 1.385 . S
C2951 H2926 0.951 . S
C2951 C2949 1.388 . S
C2951 C2952 1.366 . S
C2952 C2951 1.366 . S
C2952 C2953 1.414 . S
C2952 C2955 1.499 . S
C2953 H2927 0.950 . S
C2953 C2952 1.414 . S
C2953 C2954 1.374 . S
C2954 H2928 0.950 . S
C2954 C2950 1.385 . S
C2954 C2953 1.374 . S
C2955 C2952 1.499 . S
C2955 C2956 1.373 . S
C2955 C2957 1.389 . S
C2956 H2929 0.950 . S
C2956 C2942 1.377 . S
C2956 C2955 1.373 . S
C2957 C2941 1.377 . S
C2957 C2955 1.389 . S
C2957 C2958 1.524 . S
C2958 C2957 1.524 . S
C2958 C2959 1.397 . S
C2958 C2963 1.363 . S
C2959 H2930 0.950 . S
C2959 C2958 1.397 . S
C2959 C2960 1.334 . S
C2960 H2931 0.950 . S
C2960 C2959 1.334 . S
C2960 C2961 1.287 . S
C2961 C2960 1.287 . S
C2961 C2962 1.524 . S
C2961 H2964 0.999 . S
C2962 H2932 0.950 . S
C2962 C2961 1.524 . S
C2962 C2963 1.415 . S
C2963 H2933 0.950 . S
C2963 C2958 1.363 . S
C2963 C2962 1.415 . S
H2964 C2961 0.999 . S
H2965 C2946 0.913 . S
H2966 C2984 0.951 . S
H2967 C2986 0.951 1_554 S
H2968 C2988 0.950 . S
H2969 C2989 0.950 . S
H2970 C2991 0.950 . S
H2971 C2994 0.950 . S
H2972 C2995 0.950 . S
H2973 C2997 0.950 . S
H2974 C2998 0.950 1_554 S
H2975 C2999 0.951 . S
H2976 C3001 0.951 1_556 S
H2977 C3003 0.950 . S
H2978 C3004 0.950 . S
H2979 C3006 0.950 . S
H2980 C3009 0.950 . S
H2981 C3010 0.950 . S
H2982 C3012 0.950 . S
H2983 C3013 0.950 1_556 S
C2984 H2966 0.951 . S
C2984 C2985 1.366 . S
C2984 C2986 1.388 . S
C2985 C2984 1.366 . S
C2985 C2989 1.385 . S
C2986 H2967 0.951 1_556 S
C2986 C2984 1.388 . S
C2986 C2987 1.366 . S
C2987 C2986 1.366 . S
C2987 C2988 1.414 . S
C2987 C2990 1.499 . S
C2988 H2968 0.950 . S
C2988 C2987 1.414 . S
C2988 C2989 1.374 . S
C2989 H2969 0.950 . S
C2989 C2985 1.385 . S
C2989 C2988 1.374 . S
C2990 C2987 1.499 . S
C2990 C2991 1.373 1_556 S
C2990 C2992 1.389 . S
C2991 H2970 0.950 . S
C2991 C2990 1.373 1_554 S
C2991 C3007 1.377 . S
C2992 C2990 1.389 . S
C2992 C2993 1.524 . S
C2992 C3006 1.377 . S
C2993 C2992 1.524 . S
C2993 C2994 1.397 . S
C2993 C2998 1.363 . S
C2994 H2971 0.950 . S
C2994 C2993 1.397 . S
C2994 C2995 1.334 . S
C2995 H2972 0.950 . S
C2995 C2994 1.334 . S
C2995 C2996 1.287 . S
C2996 C2995 1.287 . S
C2996 C2997 1.524 . S
C2996 H3015 0.913 . S
C2997 H2973 0.950 . S
C2997 C2996 1.524 . S
C2997 C2998 1.415 . S
C2998 H2974 0.950 1_556 S
C2998 C2993 1.363 . S
C2998 C2997 1.415 . S
C2999 H2975 0.951 . S
C2999 C3000 1.366 . S
C2999 C3001 1.388 . S
C3000 C2999 1.366 . S
C3000 C3004 1.385 . S
C3001 H2976 0.951 1_554 S
C3001 C2999 1.388 . S
C3001 C3002 1.366 . S
C3002 C3001 1.366 . S
C3002 C3003 1.414 . S
C3002 C3005 1.499 . S
C3003 H2977 0.950 . S
C3003 C3002 1.414 . S
C3003 C3004 1.374 . S
C3004 H2978 0.950 . S
C3004 C3000 1.385 . S
C3004 C3003 1.374 . S
C3005 C3002 1.499 . S
C3005 C3006 1.373 1_554 S
C3005 C3007 1.389 . S
C3006 H2979 0.950 . S
C3006 C2992 1.377 . S
C3006 C3005 1.373 1_556 S
C3007 C2991 1.377 . S
C3007 C3005 1.389 . S
C3007 C3008 1.524 . S
C3008 C3007 1.524 . S
C3008 C3009 1.397 . S
C3008 C3013 1.363 . S
C3009 H2980 0.950 . S
C3009 C3008 1.397 . S
C3009 C3010 1.334 . S
C3010 H2981 0.950 . S
C3010 C3009 1.334 . S
C3010 C3011 1.287 . S
C3011 C3010 1.287 . S
C3011 C3012 1.524 . S
C3011 H3014 0.999 . S
C3012 H2982 0.950 . S
C3012 C3011 1.524 . S
C3012 C3013 1.415 . S
C3013 H2983 0.950 1_554 S
C3013 C3008 1.363 . S
C3013 C3012 1.415 . S
H3014 C3011 0.999 . S
H3015 C2996 0.913 . S
H3016 C3034 0.951 . S
H3017 C3036 0.951 . S
H3018 C3038 0.950 . S
H3019 C3039 0.950 . S
H3020 C3041 0.950 . S
H3021 C3044 0.950 . S
H3022 C3045 0.950 . S
H3023 C3047 0.950 . S
H3024 C3048 0.950 . S
H3025 C3049 0.951 . S
H3026 C3051 0.951 . S
H3027 C3053 0.950 . S
H3028 C3054 0.950 . S
H3029 C3056 0.950 . S
H3030 C3059 0.950 . S
H3031 C3060 0.950 . S
H3032 C3062 0.950 . S
H3033 C3063 0.950 . S
C3034 H3016 0.951 . S
C3034 C3035 1.366 . S
C3034 C3036 1.388 . S
C3035 C3034 1.366 . S
C3035 C3039 1.385 . S
C3036 H3017 0.951 . S
C3036 C3034 1.388 . S
C3036 C3037 1.366 . S
C3037 C3036 1.366 . S
C3037 C3038 1.414 . S
C3037 C3040 1.499 . S
C3038 H3018 0.950 . S
C3038 C3037 1.414 . S
C3038 C3039 1.374 . S
C3039 H3019 0.950 . S
C3039 C3035 1.385 . S
C3039 C3038 1.374 . S
C3040 C3037 1.499 . S
C3040 C3041 1.373 . S
C3040 C3042 1.389 . S
C3041 H3020 0.950 . S
C3041 C3040 1.373 . S
C3041 C3057 1.377 . S
C3042 C3040 1.389 . S
C3042 C3043 1.524 . S
C3042 C3056 1.377 . S
C3043 C3042 1.524 . S
C3043 C3044 1.397 . S
C3043 C3048 1.363 . S
C3044 H3021 0.950 . S
C3044 C3043 1.397 . S
C3044 C3045 1.334 . S
C3045 H3022 0.950 . S
C3045 C3044 1.334 . S
C3045 C3046 1.287 . S
C3046 C3045 1.287 . S
C3046 C3047 1.524 . S
C3046 H3065 0.913 . S
C3047 H3023 0.950 . S
C3047 C3046 1.524 . S
C3047 C3048 1.415 . S
C3048 H3024 0.950 . S
C3048 C3043 1.363 . S
C3048 C3047 1.415 . S
C3049 H3025 0.951 . S
C3049 C3050 1.366 . S
C3049 C3051 1.388 . S
C3050 C3049 1.366 . S
C3050 C3054 1.385 . S
C3051 H3026 0.951 . S
C3051 C3049 1.388 . S
C3051 C3052 1.366 . S
C3052 C3051 1.366 . S
C3052 C3053 1.414 . S
C3052 C3055 1.499 . S
C3053 H3027 0.950 . S
C3053 C3052 1.414 . S
C3053 C3054 1.374 . S
C3054 H3028 0.950 . S
C3054 C3050 1.385 . S
C3054 C3053 1.374 . S
C3055 C3052 1.499 . S
C3055 C3056 1.373 . S
C3055 C3057 1.389 . S
C3056 H3029 0.950 . S
C3056 C3042 1.377 . S
C3056 C3055 1.373 . S
C3057 C3041 1.377 . S
C3057 C3055 1.389 . S
C3057 C3058 1.524 . S
C3058 C3057 1.524 . S
C3058 C3059 1.397 . S
C3058 C3063 1.363 . S
C3059 H3030 0.950 . S
C3059 C3058 1.397 . S
C3059 C3060 1.334 . S
C3060 H3031 0.950 . S
C3060 C3059 1.334 . S
C3060 C3061 1.287 . S
C3061 C3060 1.287 . S
C3061 C3062 1.524 . S
C3061 H3064 0.999 . S
C3062 H3032 0.950 . S
C3062 C3061 1.524 . S
C3062 C3063 1.415 . S
C3063 H3033 0.950 . S
C3063 C3058 1.363 . S
C3063 C3062 1.415 . S
H3064 C3061 0.999 . S
H3065 C3046 0.913 . S
H3066 C3084 0.951 . S
H3067 C3086 0.951 . S
H3068 C3088 0.950 . S
H3069 C3089 0.950 . S
H3070 C3091 0.950 . S
H3071 C3094 0.950 . S
H3072 C3095 0.950 . S
H3073 C3097 0.950 . S
H3074 C3098 0.950 . S
H3075 C3099 0.951 . S
H3076 C3101 0.951 . S
H3077 C3103 0.950 . S
H3078 C3104 0.950 . S
H3079 C3106 0.950 . S
H3080 C3109 0.950 . S
H3081 C3110 0.950 . S
H3082 C3112 0.950 . S
H3083 C3113 0.950 . S
C3084 H3066 0.951 . S
C3084 C3085 1.366 . S
C3084 C3086 1.388 . S
C3085 C3084 1.366 . S
C3085 C3089 1.385 . S
C3086 H3067 0.951 . S
C3086 C3084 1.388 . S
C3086 C3087 1.366 . S
C3087 C3086 1.366 . S
C3087 C3088 1.414 . S
C3087 C3090 1.499 . S
C3088 H3068 0.950 . S
C3088 C3087 1.414 . S
C3088 C3089 1.374 . S
C3089 H3069 0.950 . S
C3089 C3085 1.385 . S
C3089 C3088 1.374 . S
C3090 C3087 1.499 . S
C3090 C3091 1.373 . S
C3090 C3092 1.389 . S
C3091 H3070 0.950 . S
C3091 C3090 1.373 . S
C3091 C3107 1.377 . S
C3092 C3090 1.389 . S
C3092 C3093 1.524 . S
C3092 C3106 1.377 . S
C3093 C3092 1.524 . S
C3093 C3094 1.397 . S
C3093 C3098 1.363 . S
C3094 H3071 0.950 . S
C3094 C3093 1.397 . S
C3094 C3095 1.334 . S
C3095 H3072 0.950 . S
C3095 C3094 1.334 . S
C3095 C3096 1.287 . S
C3096 C3095 1.287 . S
C3096 C3097 1.524 . S
C3096 H3115 0.913 . S
C3097 H3073 0.950 . S
C3097 C3096 1.524 . S
C3097 C3098 1.415 . S
C3098 H3074 0.950 . S
C3098 C3093 1.363 . S
C3098 C3097 1.415 . S
C3099 H3075 0.951 . S
C3099 C3100 1.366 . S
C3099 C3101 1.388 . S
C3100 C3099 1.366 . S
C3100 C3104 1.385 . S
C3101 H3076 0.951 . S
C3101 C3099 1.388 . S
C3101 C3102 1.366 . S
C3102 C3101 1.366 . S
C3102 C3103 1.414 . S
C3102 C3105 1.499 . S
C3103 H3077 0.950 . S
C3103 C3102 1.414 . S
C3103 C3104 1.374 . S
C3104 H3078 0.950 . S
C3104 C3100 1.385 . S
C3104 C3103 1.374 . S
C3105 C3102 1.499 . S
C3105 C3106 1.373 . S
C3105 C3107 1.389 . S
C3106 H3079 0.950 . S
C3106 C3092 1.377 . S
C3106 C3105 1.373 . S
C3107 C3091 1.377 . S
C3107 C3105 1.389 . S
C3107 C3108 1.524 . S
C3108 C3107 1.524 . S
C3108 C3109 1.397 . S
C3108 C3113 1.363 . S
C3109 H3080 0.950 . S
C3109 C3108 1.397 . S
C3109 C3110 1.334 . S
C3110 H3081 0.950 . S
C3110 C3109 1.334 . S
C3110 C3111 1.287 . S
C3111 C3110 1.287 . S
C3111 C3112 1.524 . S
C3111 H3114 0.999 . S
C3112 H3082 0.950 . S
C3112 C3111 1.524 . S
C3112 C3113 1.415 . S
C3113 H3083 0.950 . S
C3113 C3108 1.363 . S
C3113 C3112 1.415 . S
H3114 C3111 0.999 . S
H3115 C3096 0.913 . S
H3116 C3134 0.951 . S
H3117 C3136 0.951 . S
H3118 C3138 0.950 . S
H3119 C3139 0.950 . S
H3120 C3141 0.950 . S
H3121 C3144 0.950 . S
H3122 C3145 0.950 . S
H3123 C3147 0.950 . S
H3124 C3148 0.950 . S
H3125 C3149 0.951 . S
H3126 C3151 0.951 . S
H3127 C3153 0.950 . S
H3128 C3154 0.950 . S
H3129 C3156 0.950 . S
H3130 C3159 0.950 . S
H3131 C3160 0.950 . S
H3132 C3162 0.950 . S
H3133 C3163 0.950 . S
C3134 H3116 0.951 . S
C3134 C3135 1.366 . S
C3134 C3136 1.388 . S
C3135 C3134 1.366 . S
C3135 C3139 1.385 . S
C3136 H3117 0.951 . S
C3136 C3134 1.388 . S
C3136 C3137 1.366 . S
C3137 C3136 1.366 . S
C3137 C3138 1.414 . S
C3137 C3140 1.499 . S
C3138 H3118 0.950 . S
C3138 C3137 1.414 . S
C3138 C3139 1.374 . S
C3139 H3119 0.950 . S
C3139 C3135 1.385 . S
C3139 C3138 1.374 . S
C3140 C3137 1.499 . S
C3140 C3141 1.373 . S
C3140 C3142 1.389 . S
C3141 H3120 0.950 . S
C3141 C3140 1.373 . S
C3141 C3157 1.377 . S
C3142 C3140 1.389 . S
C3142 C3143 1.524 . S
C3142 C3156 1.377 . S
C3143 C3142 1.524 . S
C3143 C3144 1.397 . S
C3143 C3148 1.363 . S
C3144 H3121 0.950 . S
C3144 C3143 1.397 . S
C3144 C3145 1.334 . S
C3145 H3122 0.950 . S
C3145 C3144 1.334 . S
C3145 C3146 1.287 . S
C3146 C3145 1.287 . S
C3146 C3147 1.524 . S
C3146 H3165 0.913 . S
C3147 H3123 0.950 . S
C3147 C3146 1.524 . S
C3147 C3148 1.415 . S
C3148 H3124 0.950 . S
C3148 C3143 1.363 . S
C3148 C3147 1.415 . S
C3149 H3125 0.951 . S
C3149 C3150 1.366 . S
C3149 C3151 1.388 . S
C3150 C3149 1.366 . S
C3150 C3154 1.385 . S
C3151 H3126 0.951 . S
C3151 C3149 1.388 . S
C3151 C3152 1.366 . S
C3152 C3151 1.366 . S
C3152 C3153 1.414 . S
C3152 C3155 1.499 . S
C3153 H3127 0.950 . S
C3153 C3152 1.414 . S
C3153 C3154 1.374 . S
C3154 H3128 0.950 . S
C3154 C3150 1.385 . S
C3154 C3153 1.374 . S
C3155 C3152 1.499 . S
C3155 C3156 1.373 . S
C3155 C3157 1.389 . S
C3156 H3129 0.950 . S
C3156 C3142 1.377 . S
C3156 C3155 1.373 . S
C3157 C3141 1.377 . S
C3157 C3155 1.389 . S
C3157 C3158 1.524 . S
C3158 C3157 1.524 . S
C3158 C3159 1.397 . S
C3158 C3163 1.363 . S
C3159 H3130 0.950 . S
C3159 C3158 1.397 . S
C3159 C3160 1.334 . S
C3160 H3131 0.950 . S
C3160 C3159 1.334 . S
C3160 C3161 1.287 . S
C3161 C3160 1.287 . S
C3161 C3162 1.524 . S
C3161 H3164 0.999 . S
C3162 H3132 0.950 . S
C3162 C3161 1.524 . S
C3162 C3163 1.415 . S
C3163 H3133 0.950 . S
C3163 C3158 1.363 . S
C3163 C3162 1.415 . S
H3164 C3161 0.999 . S
H3165 C3146 0.913 . S
H3166 C3184 0.951 . S
H3167 C3186 0.951 . S
H3168 C3188 0.950 . S
H3169 C3189 0.950 . S
H3170 C3191 0.950 . S
H3171 C3194 0.950 . S
H3172 C3195 0.950 . S
H3173 C3197 0.950 . S
H3174 C3198 0.950 . S
H3175 C3199 0.951 . S
H3176 C3201 0.951 . S
H3177 C3203 0.950 . S
H3178 C3204 0.950 . S
H3179 C3206 0.950 . S
H3180 C3209 0.950 . S
H3181 C3210 0.950 . S
H3182 C3212 0.950 . S
H3183 C3213 0.950 . S
C3184 H3166 0.951 . S
C3184 C3185 1.366 . S
C3184 C3186 1.388 . S
C3185 C3184 1.366 . S
C3185 C3189 1.385 . S
C3186 H3167 0.951 . S
C3186 C3184 1.388 . S
C3186 C3187 1.366 . S
C3187 C3186 1.366 . S
C3187 C3188 1.414 . S
C3187 C3190 1.499 . S
C3188 H3168 0.950 . S
C3188 C3187 1.414 . S
C3188 C3189 1.374 . S
C3189 H3169 0.950 . S
C3189 C3185 1.385 . S
C3189 C3188 1.374 . S
C3190 C3187 1.499 . S
C3190 C3191 1.373 . S
C3190 C3192 1.389 1_554 S
C3191 H3170 0.950 . S
C3191 C3190 1.373 . S
C3191 C3207 1.377 . S
C3192 C3190 1.389 1_556 S
C3192 C3193 1.524 . S
C3192 C3206 1.377 . S
C3193 C3192 1.524 . S
C3193 C3194 1.397 . S
C3193 C3198 1.363 . S
C3194 H3171 0.950 . S
C3194 C3193 1.397 . S
C3194 C3195 1.334 . S
C3195 H3172 0.950 . S
C3195 C3194 1.334 . S
C3195 C3196 1.287 . S
C3196 C3195 1.287 . S
C3196 C3197 1.524 . S
C3196 H3215 0.913 . S
C3197 H3173 0.950 . S
C3197 C3196 1.524 . S
C3197 C3198 1.415 . S
C3198 H3174 0.950 . S
C3198 C3193 1.363 . S
C3198 C3197 1.415 . S
C3199 H3175 0.951 . S
C3199 C3200 1.366 . S
C3199 C3201 1.388 . S
C3200 C3199 1.366 . S
C3200 C3204 1.385 . S
C3201 H3176 0.951 . S
C3201 C3199 1.388 . S
C3201 C3202 1.366 . S
C3202 C3201 1.366 . S
C3202 C3203 1.414 . S
C3202 C3205 1.499 . S
C3203 H3177 0.950 . S
C3203 C3202 1.414 . S
C3203 C3204 1.374 . S
C3204 H3178 0.950 . S
C3204 C3200 1.385 . S
C3204 C3203 1.374 . S
C3205 C3202 1.499 . S
C3205 C3206 1.373 . S
C3205 C3207 1.389 1_556 S
C3206 H3179 0.950 . S
C3206 C3192 1.377 . S
C3206 C3205 1.373 . S
C3207 C3191 1.377 . S
C3207 C3205 1.389 1_554 S
C3207 C3208 1.524 . S
C3208 C3207 1.524 . S
C3208 C3209 1.397 . S
C3208 C3213 1.363 . S
C3209 H3180 0.950 . S
C3209 C3208 1.397 . S
C3209 C3210 1.334 . S
C3210 H3181 0.950 . S
C3210 C3209 1.334 . S
C3210 C3211 1.287 . S
C3211 C3210 1.287 . S
C3211 C3212 1.524 . S
C3211 H3214 0.999 . S
C3212 H3182 0.950 . S
C3212 C3211 1.524 . S
C3212 C3213 1.415 . S
C3213 H3183 0.950 . S
C3213 C3208 1.363 . S
C3213 C3212 1.415 . S
H3214 C3211 0.999 . S
H3215 C3196 0.913 . S
H3216 C3234 0.951 . S
H3217 C3236 0.951 . S
H3218 C3238 0.950 . S
H3219 C3239 0.950 . S
H3220 C3241 0.950 . S
H3221 C3244 0.950 . S
H3222 C3245 0.950 . S
H3223 C3247 0.950 . S
H3224 C3248 0.950 1_545 S
H3225 C3249 0.951 . S
H3226 C3251 0.951 . S
H3227 C3253 0.950 . S
H3228 C3254 0.950 . S
H3229 C3256 0.950 . S
H3230 C3259 0.950 . S
H3231 C3260 0.950 . S
H3232 C3262 0.950 . S
H3233 C3263 0.950 1_565 S
C3234 H3216 0.951 . S
C3234 C3235 1.366 . S
C3234 C3236 1.388 . S
C3235 C3234 1.366 . S
C3235 C3239 1.385 . S
C3236 H3217 0.951 . S
C3236 C3234 1.388 . S
C3236 C3237 1.366 . S
C3237 C3236 1.366 . S
C3237 C3238 1.414 . S
C3237 C3240 1.499 . S
C3238 H3218 0.950 . S
C3238 C3237 1.414 . S
C3238 C3239 1.374 . S
C3239 H3219 0.950 . S
C3239 C3235 1.385 . S
C3239 C3238 1.374 . S
C3240 C3237 1.499 . S
C3240 C3241 1.373 . S
C3240 C3242 1.389 . S
C3241 H3220 0.950 . S
C3241 C3240 1.373 . S
C3241 C3257 1.377 1_565 S
C3242 C3240 1.389 . S
C3242 C3243 1.524 . S
C3242 C3256 1.377 1_565 S
C3243 C3242 1.524 . S
C3243 C3244 1.397 . S
C3243 C3248 1.363 . S
C3244 H3221 0.950 . S
C3244 C3243 1.397 . S
C3244 C3245 1.334 . S
C3245 H3222 0.950 . S
C3245 C3244 1.334 . S
C3245 C3246 1.287 . S
C3246 C3245 1.287 . S
C3246 C3247 1.524 . S
C3246 H3265 0.913 . S
C3247 H3223 0.950 . S
C3247 C3246 1.524 . S
C3247 C3248 1.415 . S
C3248 H3224 0.950 1_565 S
C3248 C3243 1.363 . S
C3248 C3247 1.415 . S
C3249 H3225 0.951 . S
C3249 C3250 1.366 . S
C3249 C3251 1.388 . S
C3250 C3249 1.366 . S
C3250 C3254 1.385 . S
C3251 H3226 0.951 . S
C3251 C3249 1.388 . S
C3251 C3252 1.366 . S
C3252 C3251 1.366 . S
C3252 C3253 1.414 . S
C3252 C3255 1.499 . S
C3253 H3227 0.950 . S
C3253 C3252 1.414 . S
C3253 C3254 1.374 . S
C3254 H3228 0.950 . S
C3254 C3250 1.385 . S
C3254 C3253 1.374 . S
C3255 C3252 1.499 . S
C3255 C3256 1.373 . S
C3255 C3257 1.389 . S
C3256 H3229 0.950 . S
C3256 C3242 1.377 1_545 S
C3256 C3255 1.373 . S
C3257 C3241 1.377 1_545 S
C3257 C3255 1.389 . S
C3257 C3258 1.524 . S
C3258 C3257 1.524 . S
C3258 C3259 1.397 . S
C3258 C3263 1.363 . S
C3259 H3230 0.950 . S
C3259 C3258 1.397 . S
C3259 C3260 1.334 . S
C3260 H3231 0.950 . S
C3260 C3259 1.334 . S
C3260 C3261 1.287 . S
C3261 C3260 1.287 . S
C3261 C3262 1.524 . S
C3261 H3264 0.999 . S
C3262 H3232 0.950 . S
C3262 C3261 1.524 . S
C3262 C3263 1.415 . S
C3263 H3233 0.950 1_545 S
C3263 C3258 1.363 . S
C3263 C3262 1.415 . S
H3264 C3261 0.999 . S
H3265 C3246 0.913 . S
H3266 C3284 0.951 . S
H3267 C3286 0.951 . S
H3268 C3288 0.950 . S
H3269 C3289 0.950 1_556 S
H3270 C3291 0.950 . S
H3271 C3294 0.950 1_556 S
H3272 C3295 0.950 . S
H3273 C3297 0.950 . S
H3274 C3298 0.950 . S
H3275 C3299 0.951 . S
H3276 C3301 0.951 . S
H3277 C3303 0.950 . S
H3278 C3304 0.950 1_554 S
H3279 C3306 0.950 . S
H3280 C3309 0.950 1_554 S
H3281 C3310 0.950 . S
H3282 C3312 0.950 . S
H3283 C3313 0.950 . S
C3284 H3266 0.951 . S
C3284 C3285 1.366 . S
C3284 C3286 1.388 . S
C3285 C3284 1.366 . S
C3285 C3289 1.385 . S
C3286 H3267 0.951 . S
C3286 C3284 1.388 . S
C3286 C3287 1.366 . S
C3287 C3286 1.366 . S
C3287 C3288 1.414 1_554 S
C3287 C3290 1.499 . S
C3288 H3268 0.950 . S
C3288 C3287 1.414 1_556 S
C3288 C3289 1.374 1_556 S
C3289 H3269 0.950 1_554 S
C3289 C3285 1.385 . S
C3289 C3288 1.374 1_554 S
C3290 C3287 1.499 . S
C3290 C3291 1.373 1_554 S
C3290 C3292 1.389 . S
C3291 H3270 0.950 . S
C3291 C3290 1.373 1_556 S
C3291 C3307 1.377 . S
C3292 C3290 1.389 . S
C3292 C3293 1.524 . S
C3292 C3306 1.377 . S
C3293 C3292 1.524 . S
C3293 C3294 1.397 . S
C3293 C3298 1.363 . S
C3294 H3271 0.950 1_554 S
C3294 C3293 1.397 . S
C3294 C3295 1.334 . S
C3295 H3272 0.950 . S
C3295 C3294 1.334 . S
C3295 C3296 1.287 . S
C3296 C3295 1.287 . S
C3296 C3297 1.524 . S
C3296 H3315 0.913 . S
C3297 H3273 0.950 . S
C3297 C3296 1.524 . S
C3297 C3298 1.415 . S
C3298 H3274 0.950 . S
C3298 C3293 1.363 . S
C3298 C3297 1.415 . S
C3299 H3275 0.951 . S
C3299 C3300 1.366 . S
C3299 C3301 1.388 . S
C3300 C3299 1.366 . S
C3300 C3304 1.385 . S
C3301 H3276 0.951 . S
C3301 C3299 1.388 . S
C3301 C3302 1.366 . S
C3302 C3301 1.366 . S
C3302 C3303 1.414 1_556 S
C3302 C3305 1.499 . S
C3303 H3277 0.950 . S
C3303 C3302 1.414 1_554 S
C3303 C3304 1.374 1_554 S
C3304 H3278 0.950 1_556 S
C3304 C3300 1.385 . S
C3304 C3303 1.374 1_556 S
C3305 C3302 1.499 . S
C3305 C3306 1.373 1_556 S
C3305 C3307 1.389 . S
C3306 H3279 0.950 . S
C3306 C3292 1.377 . S
C3306 C3305 1.373 1_554 S
C3307 C3291 1.377 . S
C3307 C3305 1.389 . S
C3307 C3308 1.524 . S
C3308 C3307 1.524 . S
C3308 C3309 1.397 . S
C3308 C3313 1.363 . S
C3309 H3280 0.950 1_556 S
C3309 C3308 1.397 . S
C3309 C3310 1.334 . S
C3310 H3281 0.950 . S
C3310 C3309 1.334 . S
C3310 C3311 1.287 . S
C3311 C3310 1.287 . S
C3311 C3312 1.524 . S
C3311 H3314 0.999 . S
C3312 H3282 0.950 . S
C3312 C3311 1.524 . S
C3312 C3313 1.415 . S
C3313 H3283 0.950 . S
C3313 C3308 1.363 . S
C3313 C3312 1.415 . S
H3314 C3311 0.999 . S
H3315 C3296 0.913 . S
H3316 C3334 0.951 . S
H3317 C3336 0.951 . S
H3318 C3338 0.950 . S
H3319 C3339 0.950 . S
H3320 C3341 0.950 . S
H3321 C3344 0.950 . S
H3322 C3345 0.950 . S
H3323 C3347 0.950 . S
H3324 C3348 0.950 1_565 S
H3325 C3349 0.951 . S
H3326 C3351 0.951 . S
H3327 C3353 0.950 . S
H3328 C3354 0.950 . S
H3329 C3356 0.950 . S
H3330 C3359 0.950 . S
H3331 C3360 0.950 . S
H3332 C3362 0.950 . S
H3333 C3363 0.950 1_545 S
C3334 H3316 0.951 . S
C3334 C3335 1.366 . S
C3334 C3336 1.388 . S
C3335 C3334 1.366 . S
C3335 C3339 1.385 . S
C3336 H3317 0.951 . S
C3336 C3334 1.388 . S
C3336 C3337 1.366 . S
C3337 C3336 1.366 . S
C3337 C3338 1.414 . S
C3337 C3340 1.499 . S
C3338 H3318 0.950 . S
C3338 C3337 1.414 . S
C3338 C3339 1.374 . S
C3339 H3319 0.950 . S
C3339 C3335 1.385 . S
C3339 C3338 1.374 . S
C3340 C3337 1.499 . S
C3340 C3341 1.373 . S
C3340 C3342 1.389 . S
C3341 H3320 0.950 . S
C3341 C3340 1.373 . S
C3341 C3357 1.377 1_545 S
C3342 C3340 1.389 . S
C3342 C3343 1.524 . S
C3342 C3356 1.377 1_545 S
C3343 C3342 1.524 . S
C3343 C3344 1.397 . S
C3343 C3348 1.363 . S
C3344 H3321 0.950 . S
C3344 C3343 1.397 . S
C3344 C3345 1.334 . S
C3345 H3322 0.950 . S
C3345 C3344 1.334 . S
C3345 C3346 1.287 . S
C3346 C3345 1.287 . S
C3346 C3347 1.524 . S
C3346 H3365 0.913 . S
C3347 H3323 0.950 . S
C3347 C3346 1.524 . S
C3347 C3348 1.415 . S
C3348 H3324 0.950 1_545 S
C3348 C3343 1.363 . S
C3348 C3347 1.415 . S
C3349 H3325 0.951 . S
C3349 C3350 1.366 . S
C3349 C3351 1.388 . S
C3350 C3349 1.366 . S
C3350 C3354 1.385 . S
C3351 H3326 0.951 . S
C3351 C3349 1.388 . S
C3351 C3352 1.366 . S
C3352 C3351 1.366 . S
C3352 C3353 1.414 . S
C3352 C3355 1.499 . S
C3353 H3327 0.950 . S
C3353 C3352 1.414 . S
C3353 C3354 1.374 . S
C3354 H3328 0.950 . S
C3354 C3350 1.385 . S
C3354 C3353 1.374 . S
C3355 C3352 1.499 . S
C3355 C3356 1.373 . S
C3355 C3357 1.389 . S
C3356 H3329 0.950 . S
C3356 C3342 1.377 1_565 S
C3356 C3355 1.373 . S
C3357 C3341 1.377 1_565 S
C3357 C3355 1.389 . S
C3357 C3358 1.524 . S
C3358 C3357 1.524 . S
C3358 C3359 1.397 . S
C3358 C3363 1.363 . S
C3359 H3330 0.950 . S
C3359 C3358 1.397 . S
C3359 C3360 1.334 . S
C3360 H3331 0.950 . S
C3360 C3359 1.334 . S
C3360 C3361 1.287 . S
C3361 C3360 1.287 . S
C3361 C3362 1.524 . S
C3361 H3364 0.999 . S
C3362 H3332 0.950 . S
C3362 C3361 1.524 . S
C3362 C3363 1.415 . S
C3363 H3333 0.950 1_565 S
C3363 C3358 1.363 . S
C3363 C3362 1.415 . S
H3364 C3361 0.999 . S
H3365 C3346 0.913 . S
H3366 C3384 0.951 . S
H3367 C3386 0.951 . S
H3368 C3388 0.950 . S
H3369 C3389 0.950 . S
H3370 C3391 0.950 . S
H3371 C3394 0.950 . S
H3372 C3395 0.950 . S
H3373 C3397 0.950 . S
H3374 C3398 0.950 . S
H3375 C3399 0.951 . S
H3376 C3401 0.951 . S
H3377 C3403 0.950 . S
H3378 C3404 0.950 . S
H3379 C3406 0.950 . S
H3380 C3409 0.950 . S
H3381 C3410 0.950 . S
H3382 C3412 0.950 . S
H3383 C3413 0.950 . S
C3384 H3366 0.951 . S
C3384 C3385 1.366 . S
C3384 C3386 1.388 . S
C3385 C3384 1.366 . S
C3385 C3389 1.385 . S
C3386 H3367 0.951 . S
C3386 C3384 1.388 . S
C3386 C3387 1.366 . S
C3387 C3386 1.366 . S
C3387 C3388 1.414 . S
C3387 C3390 1.499 . S
C3388 H3368 0.950 . S
C3388 C3387 1.414 . S
C3388 C3389 1.374 . S
C3389 H3369 0.950 . S
C3389 C3385 1.385 . S
C3389 C3388 1.374 . S
C3390 C3387 1.499 . S
C3390 C3391 1.373 . S
C3390 C3392 1.389 . S
C3391 H3370 0.950 . S
C3391 C3390 1.373 . S
C3391 C3407 1.377 . S
C3392 C3390 1.389 . S
C3392 C3393 1.524 . S
C3392 C3406 1.377 . S
C3393 C3392 1.524 . S
C3393 C3394 1.397 . S
C3393 C3398 1.363 . S
C3394 H3371 0.950 . S
C3394 C3393 1.397 . S
C3394 C3395 1.334 . S
C3395 H3372 0.950 . S
C3395 C3394 1.334 . S
C3395 C3396 1.287 . S
C3396 C3395 1.287 . S
C3396 C3397 1.524 . S
C3396 H3415 0.913 . S
C3397 H3373 0.950 . S
C3397 C3396 1.524 . S
C3397 C3398 1.415 . S
C3398 H3374 0.950 . S
C3398 C3393 1.363 . S
C3398 C3397 1.415 . S
C3399 H3375 0.951 . S
C3399 C3400 1.366 . S
C3399 C3401 1.388 . S
C3400 C3399 1.366 . S
C3400 C3404 1.385 . S
C3401 H3376 0.951 . S
C3401 C3399 1.388 . S
C3401 C3402 1.366 . S
C3402 C3401 1.366 . S
C3402 C3403 1.414 . S
C3402 C3405 1.499 . S
C3403 H3377 0.950 . S
C3403 C3402 1.414 . S
C3403 C3404 1.374 . S
C3404 H3378 0.950 . S
C3404 C3400 1.385 . S
C3404 C3403 1.374 . S
C3405 C3402 1.499 . S
C3405 C3406 1.373 . S
C3405 C3407 1.389 . S
C3406 H3379 0.950 . S
C3406 C3392 1.377 . S
C3406 C3405 1.373 . S
C3407 C3391 1.377 . S
C3407 C3405 1.389 . S
C3407 C3408 1.524 . S
C3408 C3407 1.524 . S
C3408 C3409 1.397 . S
C3408 C3413 1.363 . S
C3409 H3380 0.950 . S
C3409 C3408 1.397 . S
C3409 C3410 1.334 . S
C3410 H3381 0.950 . S
C3410 C3409 1.334 . S
C3410 C3411 1.287 . S
C3411 C3410 1.287 . S
C3411 C3412 1.524 . S
C3411 H3414 0.999 . S
C3412 H3382 0.950 . S
C3412 C3411 1.524 . S
C3412 C3413 1.415 . S
C3413 H3383 0.950 . S
C3413 C3408 1.363 . S
C3413 C3412 1.415 . S
H3414 C3411 0.999 . S
H3415 C3396 0.913 . S
H3416 C3434 0.951 . S
H3417 C3436 0.951 . S
H3418 C3438 0.950 . S
H3419 C3439 0.950 . S
H3420 C3441 0.950 . S
H3421 C3444 0.950 . S
H3422 C3445 0.950 . S
H3423 C3447 0.950 . S
H3424 C3448 0.937 1_565 S
H3425 C3449 0.951 . S
H3426 C3451 0.951 . S
H3427 C3453 0.950 . S
H3428 C3454 0.950 . S
H3429 C3456 0.950 . S
H3430 C3459 0.950 . S
H3431 C3460 0.950 . S
H3432 C3462 0.950 . S
H3433 C3463 0.937 1_545 S
C3434 H3416 0.951 . S
C3434 C3435 1.366 . S
C3434 C3436 1.388 . S
C3435 C3434 1.366 . S
C3435 C3439 1.385 . S
C3436 H3417 0.951 . S
C3436 C3434 1.388 . S
C3436 C3437 1.366 . S
C3437 C3436 1.366 . S
C3437 C3438 1.414 . S
C3437 C3440 1.499 . S
C3438 H3418 0.950 . S
C3438 C3437 1.414 . S
C3438 C3439 1.374 . S
C3439 H3419 0.950 . S
C3439 C3435 1.385 . S
C3439 C3438 1.374 . S
C3440 C3437 1.499 . S
C3440 C3441 1.373 . S
C3440 C3442 1.389 . S
C3441 H3420 0.950 . S
C3441 C3440 1.373 . S
C3441 C3457 1.377 1_545 S
C3442 C3440 1.389 . S
C3442 C3443 1.524 . S
C3442 C3456 1.377 1_545 S
C3443 C3442 1.524 . S
C3443 C3444 1.397 . S
C3443 C3448 1.363 . S
C3444 H3421 0.950 . S
C3444 C3443 1.397 . S
C3444 C3445 1.334 . S
C3445 H3422 0.950 . S
C3445 C3444 1.334 . S
C3445 C3446 1.287 . S
C3446 C3445 1.287 . S
C3446 C3447 1.524 . S
C3446 H3465 0.913 . S
C3447 H3423 0.950 . S
C3447 C3446 1.524 . S
C3447 C3448 1.415 . S
C3448 H3424 0.937 1_545 S
C3448 C3443 1.363 . S
C3448 C3447 1.415 . S
C3449 H3425 0.951 . S
C3449 C3450 1.366 . S
C3449 C3451 1.388 . S
C3450 C3449 1.366 . S
C3450 C3454 1.385 . S
C3451 H3426 0.951 . S
C3451 C3449 1.388 . S
C3451 C3452 1.366 . S
C3452 C3451 1.366 . S
C3452 C3453 1.414 . S
C3452 C3455 1.499 . S
C3453 H3427 0.950 . S
C3453 C3452 1.414 . S
C3453 C3454 1.374 . S
C3454 H3428 0.950 . S
C3454 C3450 1.385 . S
C3454 C3453 1.374 . S
C3455 C3452 1.499 . S
C3455 C3456 1.373 . S
C3455 C3457 1.389 . S
C3456 H3429 0.950 . S
C3456 C3442 1.377 1_565 S
C3456 C3455 1.373 . S
C3457 C3441 1.377 1_565 S
C3457 C3455 1.389 . S
C3457 C3458 1.524 . S
C3458 C3457 1.524 . S
C3458 C3459 1.397 . S
C3458 C3463 1.363 . S
C3459 H3430 0.950 . S
C3459 C3458 1.397 . S
C3459 C3460 1.334 . S
C3460 H3431 0.950 . S
C3460 C3459 1.334 . S
C3460 C3461 1.287 . S
C3461 C3460 1.287 . S
C3461 C3462 1.524 . S
C3461 H3464 0.999 . S
C3462 H3432 0.950 . S
C3462 C3461 1.524 . S
C3462 C3463 1.415 . S
C3463 H3433 0.937 1_565 S
C3463 C3458 1.363 . S
C3463 C3462 1.415 . S
H3464 C3461 0.999 . S
H3465 C3446 0.913 . S
H3466 C3484 0.951 . S
H3467 C3486 0.951 1_556 S
H3468 C3488 0.950 . S
H3469 C3489 0.950 . S
H3470 C3491 0.950 . S
H3471 C3494 0.950 . S
H3472 C3495 0.950 . S
H3473 C3497 0.950 . S
H3474 C3498 0.950 . S
H3475 C3499 0.951 . S
H3476 C3501 0.951 1_554 S
H3477 C3503 0.950 . S
H3478 C3504 0.950 . S
H3479 C3506 0.950 . S
H3480 C3509 0.950 . S
H3481 C3510 0.950 . S
H3482 C3512 0.950 . S
H3483 C3513 0.950 . S
C3484 H3466 0.951 . S
C3484 C3485 1.366 . S
C3484 C3486 1.388 . S
C3485 C3484 1.366 . S
C3485 C3489 1.385 . S
C3486 H3467 0.951 1_554 S
C3486 C3484 1.388 . S
C3486 C3487 1.366 . S
C3487 C3486 1.366 . S
C3487 C3488 1.414 . S
C3487 C3490 1.499 . S
C3488 H3468 0.950 . S
C3488 C3487 1.414 . S
C3488 C3489 1.374 . S
C3489 H3469 0.950 . S
C3489 C3485 1.385 . S
C3489 C3488 1.374 . S
C3490 C3487 1.499 . S
C3490 C3491 1.373 . S
C3490 C3492 1.389 1_554 S
C3491 H3470 0.950 . S
C3491 C3490 1.373 . S
C3491 C3507 1.377 . S
C3492 C3490 1.389 1_556 S
C3492 C3493 1.524 . S
C3492 C3506 1.377 . S
C3493 C3492 1.524 . S
C3493 C3494 1.397 . S
C3493 C3498 1.363 . S
C3494 H3471 0.950 . S
C3494 C3493 1.397 . S
C3494 C3495 1.334 . S
C3495 H3472 0.950 . S
C3495 C3494 1.334 . S
C3495 C3496 1.287 . S
C3496 C3495 1.287 . S
C3496 C3497 1.524 . S
C3496 H3515 0.913 . S
C3497 H3473 0.950 . S
C3497 C3496 1.524 . S
C3497 C3498 1.415 . S
C3498 H3474 0.950 . S
C3498 C3493 1.363 . S
C3498 C3497 1.415 . S
C3499 H3475 0.951 . S
C3499 C3500 1.366 . S
C3499 C3501 1.388 . S
C3500 C3499 1.366 . S
C3500 C3504 1.385 . S
C3501 H3476 0.951 1_556 S
C3501 C3499 1.388 . S
C3501 C3502 1.366 . S
C3502 C3501 1.366 . S
C3502 C3503 1.414 . S
C3502 C3505 1.499 . S
C3503 H3477 0.950 . S
C3503 C3502 1.414 . S
C3503 C3504 1.374 . S
C3504 H3478 0.950 . S
C3504 C3500 1.385 . S
C3504 C3503 1.374 . S
C3505 C3502 1.499 . S
C3505 C3506 1.373 . S
C3505 C3507 1.389 1_556 S
C3506 H3479 0.950 . S
C3506 C3492 1.377 . S
C3506 C3505 1.373 . S
C3507 C3491 1.377 . S
C3507 C3505 1.389 1_554 S
C3507 C3508 1.524 . S
C3508 C3507 1.524 . S
C3508 C3509 1.397 . S
C3508 C3513 1.363 . S
C3509 H3480 0.950 . S
C3509 C3508 1.397 . S
C3509 C3510 1.334 . S
C3510 H3481 0.950 . S
C3510 C3509 1.334 . S
C3510 C3511 1.287 . S
C3511 C3510 1.287 . S
C3511 C3512 1.524 . S
C3511 H3514 0.999 . S
C3512 H3482 0.950 . S
C3512 C3511 1.524 . S
C3512 C3513 1.415 . S
C3513 H3483 0.950 . S
C3513 C3508 1.363 . S
C3513 C3512 1.415 . S
H3514 C3511 0.999 . S
H3515 C3496 0.913 . S
H3516 C3534 0.951 . S
H3517 C3536 0.951 . S
H3518 C3538 0.950 . S
H3519 C3539 0.950 . S
H3520 C3541 0.950 . S
H3521 C3544 0.950 . S
H3522 C3545 0.950 . S
H3523 C3547 0.950 . S
H3524 C3548 0.950 . S
H3525 C3549 0.951 . S
H3526 C3551 0.951 . S
H3527 C3553 0.950 . S
H3528 C3554 0.950 . S
H3529 C3556 0.950 . S
H3530 C3559 0.950 . S
H3531 C3560 0.950 . S
H3532 C3562 0.950 . S
H3533 C3563 0.950 . S
C3534 H3516 0.951 . S
C3534 C3535 1.366 . S
C3534 C3536 1.388 . S
C3535 C3534 1.366 . S
C3535 C3539 1.385 . S
C3536 H3517 0.951 . S
C3536 C3534 1.388 . S
C3536 C3537 1.366 . S
C3537 C3536 1.366 . S
C3537 C3538 1.414 . S
C3537 C3540 1.499 . S
C3538 H3518 0.950 . S
C3538 C3537 1.414 . S
C3538 C3539 1.374 . S
C3539 H3519 0.950 . S
C3539 C3535 1.385 . S
C3539 C3538 1.374 . S
C3540 C3537 1.499 . S
C3540 C3541 1.373 . S
C3540 C3542 1.389 . S
C3541 H3520 0.950 . S
C3541 C3540 1.373 . S
C3541 C3557 1.377 1_545 S
C3542 C3540 1.389 . S
C3542 C3543 1.524 . S
C3542 C3556 1.377 1_545 S
C3543 C3542 1.524 . S
C3543 C3544 1.397 . S
C3543 C3548 1.363 . S
C3544 H3521 0.950 . S
C3544 C3543 1.397 . S
C3544 C3545 1.334 . S
C3545 H3522 0.950 . S
C3545 C3544 1.334 . S
C3545 C3546 1.287 . S
C3546 C3545 1.287 . S
C3546 C3547 1.524 . S
C3546 H3565 0.913 . S
C3547 H3523 0.950 . S
C3547 C3546 1.524 . S
C3547 C3548 1.415 . S
C3548 H3524 0.950 . S
C3548 C3543 1.363 . S
C3548 C3547 1.415 . S
C3549 H3525 0.951 . S
C3549 C3550 1.366 . S
C3549 C3551 1.388 . S
C3550 C3549 1.366 . S
C3550 C3554 1.385 . S
C3551 H3526 0.951 . S
C3551 C3549 1.388 . S
C3551 C3552 1.366 . S
C3552 C3551 1.366 . S
C3552 C3553 1.414 . S
C3552 C3555 1.499 . S
C3553 H3527 0.950 . S
C3553 C3552 1.414 . S
C3553 C3554 1.374 . S
C3554 H3528 0.950 . S
C3554 C3550 1.385 . S
C3554 C3553 1.374 . S
C3555 C3552 1.499 . S
C3555 C3556 1.373 . S
C3555 C3557 1.389 . S
C3556 H3529 0.950 . S
C3556 C3542 1.377 1_565 S
C3556 C3555 1.373 . S
C3557 C3541 1.377 1_565 S
C3557 C3555 1.389 . S
C3557 C3558 1.524 . S
C3558 C3557 1.524 . S
C3558 C3559 1.397 . S
C3558 C3563 1.363 . S
C3559 H3530 0.950 . S
C3559 C3558 1.397 . S
C3559 C3560 1.334 . S
C3560 H3531 0.950 . S
C3560 C3559 1.334 . S
C3560 C3561 1.287 . S
C3561 C3560 1.287 . S
C3561 C3562 1.524 . S
C3561 H3564 0.999 . S
C3562 H3532 0.950 . S
C3562 C3561 1.524 . S
C3562 C3563 1.415 . S
C3563 H3533 0.950 . S
C3563 C3558 1.363 . S
C3563 C3562 1.415 . S
H3564 C3561 0.999 . S
H3565 C3546 0.913 . S
H3566 C3584 0.951 . S
H3567 C3586 0.951 . S
H3568 C3588 0.950 . S
H3569 C3589 0.950 . S
H3570 C3591 0.950 . S
H3571 C3594 0.950 . S
H3572 C3595 0.950 . S
H3573 C3597 0.950 . S
H3574 C3598 0.950 . S
H3575 C3599 0.951 . S
H3576 C3601 0.951 . S
H3577 C3603 0.950 . S
H3578 C3604 0.950 . S
H3579 C3606 0.950 . S
H3580 C3609 0.950 . S
H3581 C3610 0.950 . S
H3582 C3612 0.950 . S
H3583 C3613 0.950 . S
C3584 H3566 0.951 . S
C3584 C3585 1.366 . S
C3584 C3586 1.388 . S
C3585 C3584 1.366 . S
C3585 C3589 1.385 . S
C3586 H3567 0.951 . S
C3586 C3584 1.388 . S
C3586 C3587 1.366 . S
C3587 C3586 1.366 . S
C3587 C3588 1.414 . S
C3587 C3590 1.499 . S
C3588 H3568 0.950 . S
C3588 C3587 1.414 . S
C3588 C3589 1.374 . S
C3589 H3569 0.950 . S
C3589 C3585 1.385 . S
C3589 C3588 1.374 . S
C3590 C3587 1.499 . S
C3590 C3591 1.373 . S
C3590 C3592 1.389 . S
C3591 H3570 0.950 . S
C3591 C3590 1.373 . S
C3591 C3607 1.377 . S
C3592 C3590 1.389 . S
C3592 C3593 1.524 . S
C3592 C3606 1.377 . S
C3593 C3592 1.524 . S
C3593 C3594 1.397 . S
C3593 C3598 1.363 . S
C3594 H3571 0.950 . S
C3594 C3593 1.397 . S
C3594 C3595 1.334 . S
C3595 H3572 0.950 . S
C3595 C3594 1.334 . S
C3595 C3596 1.287 . S
C3596 C3595 1.287 . S
C3596 C3597 1.524 . S
C3596 H3615 0.913 . S
C3597 H3573 0.950 . S
C3597 C3596 1.524 . S
C3597 C3598 1.415 . S
C3598 H3574 0.950 . S
C3598 C3593 1.363 . S
C3598 C3597 1.415 . S
C3599 H3575 0.951 . S
C3599 C3600 1.366 . S
C3599 C3601 1.388 . S
C3600 C3599 1.366 . S
C3600 C3604 1.385 . S
C3601 H3576 0.951 . S
C3601 C3599 1.388 . S
C3601 C3602 1.366 . S
C3602 C3601 1.366 . S
C3602 C3603 1.414 . S
C3602 C3605 1.499 . S
C3603 H3577 0.950 . S
C3603 C3602 1.414 . S
C3603 C3604 1.374 . S
C3604 H3578 0.950 . S
C3604 C3600 1.385 . S
C3604 C3603 1.374 . S
C3605 C3602 1.499 . S
C3605 C3606 1.373 . S
C3605 C3607 1.389 . S
C3606 H3579 0.950 . S
C3606 C3592 1.377 . S
C3606 C3605 1.373 . S
C3607 C3591 1.377 . S
C3607 C3605 1.389 . S
C3607 C3608 1.524 . S
C3608 C3607 1.524 . S
C3608 C3609 1.397 . S
C3608 C3613 1.363 . S
C3609 H3580 0.950 . S
C3609 C3608 1.397 . S
C3609 C3610 1.334 . S
C3610 H3581 0.950 . S
C3610 C3609 1.334 . S
C3610 C3611 1.287 . S
C3611 C3610 1.287 . S
C3611 C3612 1.524 . S
C3611 H3614 0.999 . S
C3612 H3582 0.950 . S
C3612 C3611 1.524 . S
C3612 C3613 1.415 . S
C3613 H3583 0.950 . S
C3613 C3608 1.363 . S
C3613 C3612 1.415 . S
H3614 C3611 0.999 . S
H3615 C3596 0.913 . S
C435 C4 1.645 . S
C450 C283 1.645 . S
C485 C290 1.645 . S
C500 C23 1.645 . S
C535 C30 1.645 . S
C550 C309 1.645 . S
C585 C270 1.644 . S
C600 C43 1.645 . S
C635 C56 1.645 . S
C650 C257 1.645 . S
C685 C75 1.645 . S
C700 C212 1.645 . S
C735 C231 1.645 . S
C750 C82 1.645 . S
C785 C101 1.645 . S
C800 C238 1.645 . S
C835 C114 1.645 . S
C850 C387 1.645 . S
C885 C127 1.644 . S
C900 C400 1.645 . S
C935 C407 1.645 . S
C950 C134 1.645 . S
C985 C374 1.645 . S
C1000 C153 1.645 . S
C1035 C160 1.645 . S
C1050 C361 1.645 . S
C1085 C322 1.644 . S
C1100 C179 1.645 . S
C1135 C192 1.645 . S
C1150 C335 1.645 . S
C1185 C348 1.644 . S
C1200 C205 1.645 . S
C1235 C3 1.338 . S
C1250 C120 1.354 . S
C1285 C18 1.337 . S
C1300 C341 1.354 . S
C1335 C146 1.354 . S
C1350 C29 1.337 . S
C1385 C42 1.338 . S
C1400 C315 1.354 . S
C1435 C55 1.338 . S
C1450 C198 1.354 . S
C1485 C367 1.354 . S
C1500 C70 1.337 . S
C1535 C172 1.354 . S
C1550 C81 1.338 . S
C1585 C393 1.354 . S
C1600 C96 1.337 . S
C1635 C109 1.337 . S
C1650 C16 1.354 . S
C1685 C239 1.354 . S
C1700 C122 1.337 . S
C1735 C44 1.354 . S
C1750 C133 1.338 . S
C1785 C148 1.337 . S
C1800 C213 1.354 . S
C1835 C94 1.354 . S
C1850 C159 1.337 . S
C1885 C263 1.354 . S
C1900 C174 1.338 . S
C1935 C68 1.354 . S
C1950 C187 1.337 . S
C1985 C200 1.338 . S
C2000 C291 1.354 . S
C2035 C328 1.354 . S
C2050 C211 1.337 . S
C2085 C135 1.354 . S
C2100 C226 1.338 . S
C2135 C354 1.354 . S
C2150 C237 1.338 . S
C2185 C252 1.337 . S
C2200 C107 1.354 . S
C2235 C408 1.354 . S
C2250 C265 1.337 . S
C2285 C161 1.354 . S
C2300 C278 1.338 . S
C2335 C380 1.354 . S
C2350 C289 1.337 . S
C2385 C304 1.337 . S
C2400 C185 1.354 . S
C2435 C317 1.338 . S
C2450 C224 1.354 . S
C2485 C31 1.354 . S
C2500 C330 1.337 . S
C2535 C343 1.338 . S
C2550 C250 1.354 . S
C2585 C356 1.337 . S
C2600 C5 1.354 . S
C2635 C369 1.338 . S
C2650 C302 1.354 . S
C2685 C57 1.354 . S
C2700 C382 1.337 . S
C2735 C276 1.354 . S
C2750 C395 1.338 . S
C2785 C406 1.337 . S
C2800 C83 1.354 . S
C2835 C10 1.211 . S
C2850 C62 1.211 . S
C2885 C17 1.211 . S
C2900 C69 1.211 . S
C2935 C88 1.211 . S
C2950 C36 1.211 . S
C2985 C95 1.211 . S
C3000 C49 1.211 . S
C3035 C166 1.211 . S
C3050 C108 1.211 . S
C3085 C173 1.211 . S
C3100 C121 1.211 . S
C3135 C186 1.211 . S
C3150 C140 1.211 . S
C3185 C199 1.211 . S
C3200 C147 1.211 . S
C3235 C218 1.211 . S
C3250 C264 1.211 . S
C3285 C225 1.211 . S
C3300 C277 1.211 . S
C3335 C244 1.211 . S
C3350 C296 1.211 . S
C3385 C303 1.211 . S
C3400 C251 1.211 . S
C3435 C316 1.211 . S
C3450 C368 1.211 . S
C3485 C381 1.211 . S
C3500 C329 1.211 . S
C3535 C394 1.211 . S
C3550 C342 1.211 . S
C3585 C413 1.211 . S
C3600 C355 1.211 . S
