# Generated by pormake.
# Topology smn, (6)-cn, num edge types: 1
# Building blocks:
#     Node 0, Type 0, BuildingBlock: VOLQOD_clean_sbu_1, # of connection points: 6
#     Node 1, Type 0, BuildingBlock: VOLQOD_clean_sbu_1, # of connection points: 6
#     Node 2, Type 0, BuildingBlock: VOLQOD_clean_sbu_1, # of connection points: 6
#     Node 3, Type 0, BuildingBlock: VOLQOD_clean_sbu_1, # of connection points: 6
#     Node 4, Type 0, BuildingBlock: VOLQOD_clean_sbu_1, # of connection points: 6
#     Node 5, Type 0, BuildingBlock: VOLQOD_clean_sbu_1, # of connection points: 6
#     Node 6, Type 0, BuildingBlock: VOLQOD_clean_sbu_1, # of connection points: 6
#     Node 7, Type 0, BuildingBlock: VOLQOD_clean_sbu_1, # of connection points: 6
#     Node 8, Type 0, BuildingBlock: VOLQOD_clean_sbu_1, # of connection points: 6
#     Node 9, Type 0, BuildingBlock: VOLQOD_clean_sbu_1, # of connection points: 6
#     Node 10, Type 0, BuildingBlock: VOLQOD_clean_sbu_1, # of connection points: 6
#     Node 11, Type 0, BuildingBlock: VOLQOD_clean_sbu_1, # of connection points: 6
#     Node 12, Type 0, BuildingBlock: VOLQOD_clean_sbu_1, # of connection points: 6
#     Node 13, Type 0, BuildingBlock: VOLQOD_clean_sbu_1, # of connection points: 6
#     Node 14, Type 0, BuildingBlock: VOLQOD_clean_sbu_1, # of connection points: 6
#     Node 15, Type 0, BuildingBlock: VOLQOD_clean_sbu_1, # of connection points: 6
#     Node 16, Type 0, BuildingBlock: VOLQOD_clean_sbu_1, # of connection points: 6
#     Node 17, Type 0, BuildingBlock: VOLQOD_clean_sbu_1, # of connection points: 6
#     Edge 18, Type (0, 0), BuildingBlock: XUDNAN_clean_linker_2, # of connection points: 2
#     Edge 19, Type (0, 0), BuildingBlock: XUDNAN_clean_linker_2, # of connection points: 2
#     Edge 20, Type (0, 0), BuildingBlock: XUDNAN_clean_linker_2, # of connection points: 2
#     Edge 21, Type (0, 0), BuildingBlock: XUDNAN_clean_linker_2, # of connection points: 2
#     Edge 22, Type (0, 0), BuildingBlock: XUDNAN_clean_linker_2, # of connection points: 2
#     Edge 23, Type (0, 0), BuildingBlock: XUDNAN_clean_linker_2, # of connection points: 2
#     Edge 24, Type (0, 0), BuildingBlock: XUDNAN_clean_linker_2, # of connection points: 2
#     Edge 25, Type (0, 0), BuildingBlock: XUDNAN_clean_linker_2, # of connection points: 2
#     Edge 26, Type (0, 0), BuildingBlock: XUDNAN_clean_linker_2, # of connection points: 2
#     Edge 27, Type (0, 0), BuildingBlock: XUDNAN_clean_linker_2, # of connection points: 2
#     Edge 28, Type (0, 0), BuildingBlock: XUDNAN_clean_linker_2, # of connection points: 2
#     Edge 29, Type (0, 0), BuildingBlock: XUDNAN_clean_linker_2, # of connection points: 2
#     Edge 30, Type (0, 0), BuildingBlock: XUDNAN_clean_linker_2, # of connection points: 2
#     Edge 31, Type (0, 0), BuildingBlock: XUDNAN_clean_linker_2, # of connection points: 2
#     Edge 32, Type (0, 0), BuildingBlock: XUDNAN_clean_linker_2, # of connection points: 2
#     Edge 33, Type (0, 0), BuildingBlock: XUDNAN_clean_linker_2, # of connection points: 2
#     Edge 34, Type (0, 0), BuildingBlock: XUDNAN_clean_linker_2, # of connection points: 2
#     Edge 35, Type (0, 0), BuildingBlock: XUDNAN_clean_linker_2, # of connection points: 2
#     Edge 36, Type (0, 0), BuildingBlock: XUDNAN_clean_linker_2, # of connection points: 2
#     Edge 37, Type (0, 0), BuildingBlock: XUDNAN_clean_linker_2, # of connection points: 2
#     Edge 38, Type (0, 0), BuildingBlock: XUDNAN_clean_linker_2, # of connection points: 2
#     Edge 39, Type (0, 0), BuildingBlock: XUDNAN_clean_linker_2, # of connection points: 2
#     Edge 40, Type (0, 0), BuildingBlock: XUDNAN_clean_linker_2, # of connection points: 2
#     Edge 41, Type (0, 0), BuildingBlock: XUDNAN_clean_linker_2, # of connection points: 2
#     Edge 42, Type (0, 0), BuildingBlock: XUDNAN_clean_linker_2, # of connection points: 2
#     Edge 43, Type (0, 0), BuildingBlock: XUDNAN_clean_linker_2, # of connection points: 2
#     Edge 44, Type (0, 0), BuildingBlock: XUDNAN_clean_linker_2, # of connection points: 2
#     Edge 45, Type (0, 0), BuildingBlock: XUDNAN_clean_linker_2, # of connection points: 2
#     Edge 46, Type (0, 0), BuildingBlock: XUDNAN_clean_linker_2, # of connection points: 2
#     Edge 47, Type (0, 0), BuildingBlock: XUDNAN_clean_linker_2, # of connection points: 2
#     Edge 48, Type (0, 0), BuildingBlock: XUDNAN_clean_linker_2, # of connection points: 2
#     Edge 49, Type (0, 0), BuildingBlock: XUDNAN_clean_linker_2, # of connection points: 2
#     Edge 50, Type (0, 0), BuildingBlock: XUDNAN_clean_linker_2, # of connection points: 2
#     Edge 51, Type (0, 0), BuildingBlock: XUDNAN_clean_linker_2, # of connection points: 2
#     Edge 52, Type (0, 0), BuildingBlock: XUDNAN_clean_linker_2, # of connection points: 2
#     Edge 53, Type (0, 0), BuildingBlock: XUDNAN_clean_linker_2, # of connection points: 2
#     Edge 54, Type (0, 0), BuildingBlock: XUDNAN_clean_linker_2, # of connection points: 2
#     Edge 55, Type (0, 0), BuildingBlock: XUDNAN_clean_linker_2, # of connection points: 2
#     Edge 56, Type (0, 0), BuildingBlock: XUDNAN_clean_linker_2, # of connection points: 2
#     Edge 57, Type (0, 0), BuildingBlock: XUDNAN_clean_linker_2, # of connection points: 2
#     Edge 58, Type (0, 0), BuildingBlock: XUDNAN_clean_linker_2, # of connection points: 2
#     Edge 59, Type (0, 0), BuildingBlock: XUDNAN_clean_linker_2, # of connection points: 2
#     Edge 60, Type (0, 0), BuildingBlock: XUDNAN_clean_linker_2, # of connection points: 2
#     Edge 61, Type (0, 0), BuildingBlock: XUDNAN_clean_linker_2, # of connection points: 2
#     Edge 62, Type (0, 0), BuildingBlock: XUDNAN_clean_linker_2, # of connection points: 2
#     Edge 63, Type (0, 0), BuildingBlock: XUDNAN_clean_linker_2, # of connection points: 2
#     Edge 64, Type (0, 0), BuildingBlock: XUDNAN_clean_linker_2, # of connection points: 2
#     Edge 65, Type (0, 0), BuildingBlock: XUDNAN_clean_linker_2, # of connection points: 2
#     Edge 66, Type (0, 0), BuildingBlock: XUDNAN_clean_linker_2, # of connection points: 2
#     Edge 67, Type (0, 0), BuildingBlock: XUDNAN_clean_linker_2, # of connection points: 2
#     Edge 68, Type (0, 0), BuildingBlock: XUDNAN_clean_linker_2, # of connection points: 2
#     Edge 69, Type (0, 0), BuildingBlock: XUDNAN_clean_linker_2, # of connection points: 2
#     Edge 70, Type (0, 0), BuildingBlock: XUDNAN_clean_linker_2, # of connection points: 2
#     Edge 71, Type (0, 0), BuildingBlock: XUDNAN_clean_linker_2, # of connection points: 2
# Relax obj value: 0.237
# Max RMSD: 0.243
# Mean RMSD: 0.242
data_MOF--net-smn--node1-VOLQOD_clean_sbu_1--edge1-XUDNAN_clean_linker_2
_symmetry_space_group_name_H-M    P1
_symmetry_Int_Tables_number       1
_symmetry_cell_setting            triclinic
loop_
_symmetry_equiv_pos_as_xyz
'x, y, z'
_cell_length_a     63.414344
_cell_length_b     63.432025
_cell_length_c     21.324059
_cell_angle_alpha  89.962127
_cell_angle_beta   90.103245
_cell_angle_gamma 120.00081
loop_
_atom_site_label
_atom_site_type_symbol
_atom_site_fract_x
_atom_site_fract_y
_atom_site_fract_z
_atom_type_partial_charge
O0 O 0.03808 0.25876 0.65062 0.0
Zn1 Zn 0.00891 0.22733 0.68025 0.0
O2 O 0.01958 0.2133 0.74571 0.0
Zn3 Zn 0.01747 0.18286 0.72014 0.0
Zn4 Zn 0.05213 0.23649 0.7737 0.0
Zn5 Zn -0.00102 0.20629 0.8164 0.0
O6 O 0.99272 0.15384 0.77262 0.0
O7 O 0.97415 0.17174 0.81785 0.0
O8 O 0.9946 0.20364 0.6061 0.0
O9 O 0.00476 0.1759 0.6327 0.0
O10 O 0.05111 0.18641 0.7161 0.0
O11 O 0.07443 0.22498 0.7449 0.0
O12 O 0.05545 0.23833 0.86878 0.0
O13 O 0.98512 0.23705 0.71629 0.0
O14 O 0.01756 0.21128 0.89556 0.0
O15 O 0.98243 0.22578 0.81602 0.0
C16 C 0.05814 0.27368 0.67725 0.0
C17 C 0.9752 0.15279 0.80449 0.0
C18 C 0.0721 0.20508 0.72471 0.0
C19 C 0.99583 0.18456 0.59379 0.0
C20 C 0.03974 0.22527 0.9099 0.0
C21 C 0.97742 0.23615 0.77213 0.0
O22 O 0.06454 0.26861 0.72938 0.0
O23 O 0.76941 0.78609 0.64476 0.0
Zn24 Zn 0.80046 0.79366 0.68965 0.0
O25 O 0.80971 0.8216 0.74274 0.0
Zn26 Zn 0.84192 0.84808 0.72562 0.0
Zn27 Zn 0.78768 0.83357 0.73407 0.0
Zn28 Zn 0.80919 0.81309 0.82807 0.0
O29 O 0.86713 0.84831 0.78603 0.0
O30 O 0.84199 0.81946 0.85127 0.0
O31 O 0.82646 0.80219 0.62104 0.0
O32 O 0.85075 0.84149 0.6425 0.0
O33 O 0.84213 0.88003 0.7137 0.0
O34 O 0.80362 0.86362 0.68255 0.0
O35 O 0.78368 0.84654 0.81621 0.0
O36 O 0.79268 0.76419 0.74581 0.0
O37 O 0.80243 0.83463 0.88337 0.0
O38 O 0.78813 0.77747 0.83927 0.0
C39 C 0.75366 0.79283 0.65115 0.0
C40 C 0.86341 0.83411 0.83234 0.0
C41 C 0.82506 0.88183 0.6868 0.0
C42 C 0.84431 0.8232 0.60698 0.0
C43 C 0.79253 0.84729 0.87038 0.0
C44 C 0.78618 0.76047 0.80351 0.0
O45 O 0.75683 0.80962 0.68949 0.0
O46 O 0.22669 0.99408 0.64184 0.0
Zn47 Zn 0.22369 0.02292 0.67286 0.0
O48 O 0.19777 0.01146 0.73563 0.0
Zn49 Zn 0.17112 0.01649 0.71059 0.0
Zn50 Zn 0.18554 0.97774 0.75451 0.0
Zn51 Zn 0.21047 0.02849 0.81257 0.0
O52 O 0.16966 0.04277 0.76308 0.0
O53 O 0.20374 0.05549 0.81762 0.0
O54 O 0.21563 0.03838 0.59761 0.0
O55 O 0.17808 0.02941 0.62417 0.0
O56 O 0.13914 0.98462 0.70265 0.0
O57 O 0.15229 0.95853 0.71952 0.0
O58 O 0.1807 0.97064 0.84686 0.0
O59 O 0.25648 0.04562 0.71512 0.0
O60 O 0.19375 0.00726 0.88718 0.0
O61 O 0.24641 0.04283 0.81604 0.0
C62 C 0.21949 0.97297 0.66499 0.0
C63 C 0.1861 0.05816 0.79974 0.0
C64 C 0.13554 0.96295 0.70388 0.0
C65 C 0.19557 0.03779 0.58525 0.0
C66 C 0.18303 0.98425 0.89331 0.0
C67 C 0.26244 0.05004 0.77302 0.0
O68 O 0.20534 0.9653 0.71231 0.0
O69 O 0.04088 0.79665 0.25614 0.0
Zn70 Zn 0.01908 0.80679 0.29999 0.0
O71 O 0.00457 0.81855 0.24043 0.0
Zn72 Zn 0.01082 0.85108 0.2627 0.0
Zn73 Zn 0.0179 0.81985 0.15951 0.0
Zn74 Zn 0.97015 0.79558 0.23485 0.0
O75 O 0.97866 0.8505 0.2776 0.0
O76 O 0.95339 0.81042 0.27922 0.0
O77 O 0.03609 0.83103 0.36934 0.0
O78 O 0.02744 0.86007 0.3464 0.0
O79 O 0.03541 0.87723 0.20264 0.0
O80 O 0.04376 0.85353 0.14363 0.0
O81 O 0.99288 0.81183 0.09252 0.0
O82 O 0.99294 0.7771 0.34172 0.0
O83 O 0.95826 0.79198 0.14536 0.0
O84 O 0.96017 0.76385 0.28108 0.0
C85 C 0.04346 0.79328 0.1983 0.0
C86 C 0.95784 0.832 0.28969 0.0
C87 C 0.04828 0.87456 0.16072 0.0
C88 C 0.03676 0.85095 0.38258 0.0
C89 C 0.96973 0.80077 0.09419 0.0
C90 C 0.97116 0.7612 0.32797 0.0
O91 O 0.03373 0.79948 0.15514 0.0
O92 O 0.21691 0.26457 0.23589 0.0
Zn93 Zn 0.21083 0.2343 0.28537 0.0
O94 O 0.19245 0.20494 0.23471 0.0
Zn95 Zn 0.163 0.18033 0.27632 0.0
Zn96 Zn 0.18276 0.21308 0.15766 0.0
Zn97 Zn 0.21275 0.19132 0.2145 0.0
O98 O 0.1631 0.14843 0.28766 0.0
O99 O 0.20173 0.16081 0.26414 0.0
O100 O 0.19369 0.23069 0.36884 0.0
O101 O 0.16368 0.19223 0.36271 0.0
O102 O 0.13181 0.1774 0.23853 0.0
O103 O 0.14873 0.20545 0.16397 0.0
O104 O 0.18509 0.19444 0.0849 0.0
O105 O 0.24395 0.23889 0.30507 0.0
O106 O 0.20948 0.18186 0.12329 0.0
O107 O 0.24753 0.21364 0.2394 0.0
C108 C 0.21302 0.26693 0.17817 0.0
C109 C 0.18131 0.145 0.28683 0.0
C110 C 0.13034 0.19066 0.19571 0.0
C111 C 0.17563 0.21198 0.39322 0.0
C112 C 0.19703 0.18338 0.07832 0.0
C113 C 0.25653 0.23051 0.28038 0.0
O114 O 0.20161 0.24861 0.14231 0.0
O115 O 0.76661 0.98602 0.25762 0.0
Zn116 Zn 0.79882 0.011 0.29817 0.0
O117 O 0.82451 0.02293 0.23627 0.0
Zn118 Zn 0.85162 0.0183 0.25701 0.0
Zn119 Zn 0.81135 0.00707 0.15803 0.0
Zn120 Zn 0.83767 0.05689 0.22452 0.0
O121 O 0.88299 0.05044 0.27103 0.0
O122 O 0.86809 0.07546 0.27487 0.0
O123 O 0.80829 0.99681 0.37218 0.0
O124 O 0.84436 0.00254 0.34078 0.0
O125 O 0.85498 0.99581 0.194 0.0
O126 O 0.81888 0.98062 0.14727 0.0
O127 O 0.82833 0.02973 0.08546 0.0
O128 O 0.79359 0.03887 0.32601 0.0
O129 O 0.8478 0.06516 0.13521 0.0
O130 O 0.81434 0.06711 0.25372 0.0
C131 C 0.75984 0.9819 0.20022 0.0
C132 C 0.88538 0.07114 0.28436 0.0
C133 C 0.83823 0.98004 0.15875 0.0
C134 C 0.82746 0.99534 0.3814 0.0
C135 C 0.84324 0.05255 0.08536 0.0
C136 C 0.79937 0.05909 0.29929 0.0
O137 O 0.77513 0.99126 0.15563 0.0
O138 O 0.68754 0.58586 0.97993 0.0
Zn139 Zn 0.65873 0.55412 0.01182 0.0
O140 O 0.67003 0.54008 0.0746 0.0
Zn141 Zn 0.66568 0.50858 0.05353 0.0
Zn142 Zn 0.70356 0.56167 0.09252 0.0
Zn143 Zn 0.65179 0.5345 0.1496 0.0
O144 O 0.64674 0.48363 0.12139 0.0
O145 O 0.62486 0.5002 0.15182 0.0
O146 O 0.64212 0.52898 0.94136 0.0
O147 O 0.64599 0.49772 0.97486 0.0
O148 O 0.69799 0.51081 0.03407 0.0
O149 O 0.72371 0.55029 0.04792 0.0
O150 O 0.71009 0.56078 0.18469 0.0
O151 O 0.636 0.5644 0.05306 0.0
O152 O 0.67299 0.53849 0.22447 0.0
O153 O 0.63712 0.55586 0.15384 0.0
C154 C 0.70732 0.60077 0.00794 0.0
C155 C 0.62819 0.48209 0.14889 0.0
C156 C 0.71932 0.52933 0.03027 0.0
C157 C 0.63835 0.50728 0.93478 0.0
C158 C 0.69606 0.54963 0.23071 0.0
C159 C 0.63065 0.56527 0.11049 0.0
O160 O 0.7141 0.59478 0.05796 0.0
O161 O 0.43967 0.12153 0.96977 0.0
Zn162 Zn 0.4698 0.1266 0.01394 0.0
O163 O 0.47651 0.14983 0.07915 0.0
Zn164 Zn 0.50547 0.18093 0.06662 0.0
Zn165 Zn 0.44889 0.15362 0.09479 0.0
Zn166 Zn 0.48326 0.13788 0.15249 0.0
O167 O 0.52997 0.18835 0.13826 0.0
O168 O 0.51855 0.1497 0.15669 0.0
O169 O 0.49846 0.14027 0.95259 0.0
O170 O 0.52098 0.17824 0.98819 0.0
O171 O 0.49659 0.20707 0.04945 0.0
O172 O 0.45633 0.18551 0.05919 0.0
O173 O 0.44563 0.15754 0.18846 0.0
O174 O 0.46041 0.09329 0.05171 0.0
O175 O 0.47508 0.15184 0.22627 0.0
O176 O 0.46536 0.1019 0.15359 0.0
C177 C 0.42037 0.1209 0.98947 0.0
C178 C 0.53424 0.17216 0.16068 0.0
C179 C 0.47562 0.20518 0.0452 0.0
C180 C 0.51695 0.16173 0.94819 0.0
C181 C 0.45941 0.15859 0.23366 0.0
C182 C 0.45835 0.08655 0.10897 0.0
O183 O 0.41945 0.12897 0.04388 0.0
O184 O 0.90579 0.34034 0.96994 0.0
Zn185 Zn 0.90067 0.36512 0.01517 0.0
O186 O 0.87577 0.34796 0.07753 0.0
Zn187 Zn 0.84698 0.35036 0.06295 0.0
Zn188 Zn 0.86685 0.31427 0.08148 0.0
Zn189 Zn 0.88805 0.3615 0.15746 0.0
O190 O 0.84478 0.37435 0.12304 0.0
O191 O 0.87935 0.38664 0.17503 0.0
O192 O 0.88927 0.38115 0.94929 0.0
O193 O 0.85069 0.36521 0.97927 0.0
O194 O 0.81674 0.31696 0.05377 0.0
O195 O 0.8352 0.29547 0.03774 0.0
O196 O 0.85904 0.30181 0.17116 0.0
O197 O 0.93343 0.38751 0.0584 0.0
O198 O 0.87196 0.33626 0.22391 0.0
O199 O 0.92409 0.37766 0.15894 0.0
C200 C 0.9025 0.31933 0.98357 0.0
C201 C 0.86106 0.38888 0.16143 0.0
C202 C 0.81631 0.2976 0.03513 0.0
C203 C 0.86764 0.37725 0.94021 0.0
C204 C 0.86084 0.31312 0.2222 0.0
C205 C 0.93975 0.38862 0.11593 0.0
O206 O 0.89042 0.30774 0.03207 0.0
O207 O 0.71951 0.1424 0.55408 0.0
Zn208 Zn 0.69909 0.14938 0.61607 0.0
O209 O 0.67861 0.15832 0.56975 0.0
Zn210 Zn 0.68476 0.19036 0.59116 0.0
Zn211 Zn 0.68428 0.15826 0.48266 0.0
Zn212 Zn 0.64503 0.13569 0.58373 0.0
O213 O 0.65311 0.19014 0.61062 0.0
O214 O 0.63227 0.15136 0.6406 0.0
O215 O 0.71752 0.17431 0.6859 0.0
O216 O 0.70131 0.19806 0.67297 0.0
O217 O 0.70923 0.21609 0.53022 0.0
O218 O 0.71001 0.19118 0.45856 0.0
O219 O 0.65432 0.15082 0.43337 0.0
O220 O 0.67752 0.11799 0.66052 0.0
O221 O 0.62572 0.1317 0.5055 0.0
O222 O 0.63983 0.10469 0.62547 0.0
C223 C 0.71519 0.13603 0.49638 0.0
C224 C 0.63509 0.17269 0.63921 0.0
C225 C 0.71811 0.21249 0.48028 0.0
C226 C 0.71396 0.19143 0.70465 0.0
C227 C 0.63214 0.1404 0.45047 0.0
C228 C 0.65504 0.10186 0.65851 0.0
O229 O 0.69899 0.13772 0.46483 0.0
O230 O 0.88582 0.59687 0.59521 0.0
Zn231 Zn 0.87767 0.56495 0.63786 0.0
O232 O 0.86335 0.5387 0.57621 0.0
Zn233 Zn 0.83136 0.51222 0.59993 0.0
Zn234 Zn 0.86061 0.55091 0.49662 0.0
Zn235 Zn 0.88456 0.52591 0.56429 0.0
O236 O 0.83156 0.48027 0.61271 0.0
O237 O 0.87156 0.4951 0.6115 0.0
O238 O 0.85473 0.55691 0.71297 0.0
O239 O 0.82519 0.51984 0.68573 0.0
O240 O 0.80394 0.51106 0.54457 0.0
O241 O 0.82685 0.54343 0.48571 0.0
O242 O 0.867 0.53424 0.42488 0.0
O243 O 0.91035 0.56982 0.66825 0.0
O244 O 0.8856 0.51742 0.47457 0.0
O245 O 0.91753 0.548 0.59899 0.0
C246 C 0.88799 0.60289 0.53734 0.0
C247 C 0.85017 0.478 0.62374 0.0
C248 C 0.80605 0.52688 0.50403 0.0
C249 C 0.83487 0.53728 0.72487 0.0
C250 C 0.87715 0.52129 0.42445 0.0
C251 C 0.92449 0.56313 0.6442 0.0
O252 O 0.88104 0.58705 0.49379 0.0
O253 O 0.41549 0.30047 0.5477 0.0
Zn254 Zn 0.44257 0.31967 0.61163 0.0
O255 O 0.47363 0.33853 0.5702 0.0
Zn256 Zn 0.49816 0.33132 0.60275 0.0
Zn257 Zn 0.46935 0.33069 0.48354 0.0
Zn258 Zn 0.48439 0.37272 0.57497 0.0
O259 O 0.52955 0.36309 0.62657 0.0
O260 O 0.51476 0.38846 0.62448 0.0
O261 O 0.44527 0.29937 0.6816 0.0
O262 O 0.48519 0.31315 0.68265 0.0
O263 O 0.50156 0.30681 0.54532 0.0
O264 O 0.4769 0.30474 0.46882 0.0
O265 O 0.49189 0.35915 0.43148 0.0
O266 O 0.43425 0.34249 0.65493 0.0
O267 O 0.49684 0.38969 0.4922 0.0
O268 O 0.46007 0.37953 0.61879 0.0
C269 C 0.41551 0.30287 0.48815 0.0
C270 C 0.5317 0.38395 0.63716 0.0
C271 C 0.48982 0.29708 0.49473 0.0
C272 C 0.46413 0.30056 0.70677 0.0
C273 C 0.50077 0.38177 0.44125 0.0
C274 C 0.44183 0.36522 0.65241 0.0
O275 O 0.43497 0.31635 0.45788 0.0
O276 O 0.35062 0.91333 0.32102 0.0
Zn277 Zn 0.32779 0.88305 0.36949 0.0
O278 O 0.34689 0.8769 0.43114 0.0
Zn279 Zn 0.34652 0.84648 0.41365 0.0
Zn280 Zn 0.37979 0.90423 0.43646 0.0
Zn281 Zn 0.33362 0.8745 0.51253 0.0
O282 O 0.32575 0.81972 0.47746 0.0
O283 O 0.31295 0.84037 0.5347 0.0
O284 O 0.31151 0.85472 0.30637 0.0
O285 O 0.32919 0.83331 0.3329 0.0
O286 O 0.38097 0.85272 0.39882 0.0
O287 O 0.40189 0.89321 0.40361 0.0
O288 O 0.39175 0.91439 0.52594 0.0
O289 O 0.3034 0.89024 0.41419 0.0
O290 O 0.35927 0.88741 0.57846 0.0
O291 O 0.31239 0.88919 0.51495 0.0
C292 C 0.37176 0.93139 0.33208 0.0
C293 C 0.31229 0.82064 0.52064 0.0
C294 C 0.40083 0.87297 0.39313 0.0
C295 C 0.3155 0.83711 0.29665 0.0
C296 C 0.38156 0.90378 0.57704 0.0
C297 C 0.30073 0.89317 0.47237 0.0
O298 O 0.38429 0.93163 0.3793 0.0
O299 O 0.11591 0.45819 0.31873 0.0
Zn300 Zn 0.14721 0.4665 0.36339 0.0
O301 O 0.15306 0.49082 0.42736 0.0
Zn302 Zn 0.18197 0.52218 0.40947 0.0
Zn303 Zn 0.12472 0.49447 0.43705 0.0
Zn304 Zn 0.1579 0.47986 0.5063 0.0
O305 O 0.21002 0.53053 0.47095 0.0
O306 O 0.19273 0.49604 0.52533 0.0
O307 O 0.17493 0.48058 0.29841 0.0
O308 O 0.19529 0.51935 0.32816 0.0
O309 O 0.17313 0.5486 0.39593 0.0
O310 O 0.13276 0.5266 0.40205 0.0
O311 O 0.11756 0.4973 0.52842 0.0
O312 O 0.14185 0.43475 0.40442 0.0
O313 O 0.14385 0.48944 0.57636 0.0
O314 O 0.14584 0.44456 0.50582 0.0
C315 C 0.09695 0.45908 0.33429 0.0
C316 C 0.21116 0.51639 0.51169 0.0
C317 C 0.15212 0.54655 0.39065 0.0
C318 C 0.19198 0.50258 0.29007 0.0
C319 C 0.12811 0.49621 0.57829 0.0
C320 C 0.14112 0.42916 0.4623 0.0
O321 O 0.09634 0.46983 0.38437 0.0
O322 O 0.55711 0.66867 0.3086 0.0
Zn323 Zn 0.55262 0.69341 0.35708 0.0
O324 O 0.52958 0.67714 0.4245 0.0
Zn325 Zn 0.49979 0.67857 0.41299 0.0
Zn326 Zn 0.52379 0.64427 0.43373 0.0
Zn327 Zn 0.54355 0.69257 0.50194 0.0
O328 O 0.49685 0.70117 0.47832 0.0
O329 O 0.53315 0.71585 0.52336 0.0
O330 O 0.54002 0.70977 0.29656 0.0
O331 O 0.50215 0.69499 0.33125 0.0
O332 O 0.47079 0.64396 0.40371 0.0
O333 O 0.48971 0.62231 0.40706 0.0
O334 O 0.52413 0.63464 0.52459 0.0
O335 O 0.5862 0.71645 0.39377 0.0
O336 O 0.53134 0.66868 0.5721 0.0
O337 O 0.57957 0.7107 0.49659 0.0
C338 C 0.55514 0.64829 0.32354 0.0
C339 C 0.51354 0.71624 0.51519 0.0
C340 C 0.47056 0.62372 0.39922 0.0
C341 C 0.51876 0.70722 0.29136 0.0
C342 C 0.52507 0.64631 0.57415 0.0
C343 C 0.59396 0.72003 0.45031 0.0
O344 O 0.54507 0.63763 0.37488 0.0
O345 O 0.37349 0.45698 0.93411 0.0
Zn346 Zn 0.35474 0.47027 0.9812 0.0
O347 O 0.34675 0.48878 0.92316 0.0
Zn348 Zn 0.35821 0.52212 0.94936 0.0
Zn349 Zn 0.36007 0.49 0.84256 0.0
Zn350 Zn 0.31252 0.47233 0.91249 0.0
O351 O 0.32957 0.52804 0.96504 0.0
O352 O 0.29992 0.48935 0.96363 0.0
O353 O 0.37212 0.49097 0.05838 0.0
O354 O 0.3718 0.52497 0.03464 0.0
O355 O 0.38753 0.54703 0.89608 0.0
O356 O 0.39164 0.52018 0.83809 0.0
O357 O 0.33883 0.49142 0.77342 0.0
O358 O 0.32406 0.44015 0.01018 0.0
O359 O 0.30388 0.47585 0.82491 0.0
O360 O 0.29613 0.43786 0.9432 0.0
C361 C 0.37495 0.45377 0.8754 0.0
C362 C 0.30761 0.51155 0.97692 0.0
C363 C 0.39986 0.5417 0.85839 0.0
C364 C 0.37655 0.5124 0.07252 0.0
C365 C 0.31632 0.48498 0.77536 0.0
C366 C 0.30263 0.4287 0.98717 0.0
O367 O 0.36779 0.46332 0.83398 0.0
O368 O 0.57187 0.94014 0.93466 0.0
Zn369 Zn 0.55698 0.90822 0.98287 0.0
O370 O 0.5412 0.8812 0.92569 0.0
Zn371 Zn 0.50718 0.85937 0.94751 0.0
Zn372 Zn 0.542 0.89325 0.84386 0.0
Zn373 Zn 0.55911 0.8642 0.92155 0.0
O374 O 0.50132 0.82498 0.96506 0.0
O375 O 0.53997 0.8337 0.96992 0.0
O376 O 0.53416 0.9056 0.05308 0.0
O377 O 0.50169 0.86982 0.031 0.0
O378 O 0.4836 0.86401 0.8887 0.0
O379 O 0.51194 0.89435 0.83214 0.0
O380 O 0.54266 0.87075 0.77876 0.0
O381 O 0.58483 0.90725 0.0238 0.0
O382 O 0.55888 0.8525 0.83304 0.0
O383 O 0.59246 0.88299 0.96426 0.0
C384 C 0.57656 0.94465 0.87631 0.0
C385 C 0.51741 0.81925 0.97997 0.0
C386 C 0.48999 0.88153 0.84974 0.0
C387 C 0.51298 0.88816 0.06688 0.0
C388 C 0.55007 0.85547 0.78211 0.0
C389 C 0.59801 0.89806 0.00954 0.0
O390 O 0.56842 0.92775 0.83539 0.0
O391 O 0.08622 0.64171 0.90951 0.0
Zn392 Zn 0.11596 0.66205 0.96571 0.0
O393 O 0.14589 0.67752 0.91766 0.0
Zn394 Zn 0.16938 0.66849 0.94756 0.0
Zn395 Zn 0.13798 0.66704 0.8334 0.0
Zn396 Zn 0.16038 0.71249 0.91688 0.0
O397 O 0.20174 0.69871 0.97135 0.0
O398 O 0.18972 0.72621 0.97173 0.0
O399 O 0.11868 0.64286 0.03872 0.0
O400 O 0.15698 0.65127 0.02854 0.0
O401 O 0.17071 0.64293 0.89049 0.0
O402 O 0.14373 0.63986 0.81954 0.0
O403 O 0.15908 0.69274 0.77315 0.0
O404 O 0.11199 0.68845 0.00418 0.0
O405 O 0.17389 0.72631 0.83056 0.0
O406 O 0.13788 0.7231 0.95601 0.0
C407 C 0.08445 0.64195 0.84985 0.0
C408 C 0.20524 0.71982 0.98576 0.0
C409 C 0.15726 0.63242 0.84281 0.0
C410 C 0.13704 0.64167 0.05872 0.0
C411 C 0.17254 0.71563 0.77874 0.0
C412 C 0.12064 0.71113 0.9949 0.0
O413 O 0.10307 0.65346 0.81515 0.0
H414 H 0.07418 0.17114 0.64989 0.0
H415 H 0.11959 0.24075 0.74083 0.0
H416 H 0.15427 0.24732 0.6754 0.0
H417 H 0.12548 0.15673 0.6188 0.0
H418 H 0.11189 0.14323 0.54445 0.0
H419 H 0.09285 0.14102 0.60974 0.0
H420 H 0.07291 0.16007 0.54121 0.0
H421 H 0.09213 0.16287 0.4764 0.0
H422 H 0.09189 0.18942 0.50554 0.0
H423 H 0.18041 0.25102 0.58359 0.0
H424 H 0.19698 0.2492 0.47998 0.0
H425 H 0.13485 0.17693 0.45103 0.0
C426 C 0.09171 0.18719 0.65826 0.0
C427 C 0.09409 0.20542 0.70028 0.0
C428 C 0.11727 0.22647 0.70885 0.0
C429 C 0.13715 0.23039 0.67192 0.0
C430 C 0.13372 0.21287 0.62753 0.0
C431 C 0.11173 0.19136 0.62173 0.0
C432 C 0.11173 0.17692 0.56533 0.0
C433 C 0.11042 0.15306 0.58582 0.0
C434 C 0.09095 0.17207 0.51946 0.0
C435 C 0.13639 0.19445 0.53796 0.0
C436 C 0.14905 0.2149 0.57491 0.0
C437 C 0.17102 0.23476 0.55516 0.0
C438 C 0.1802 0.23367 0.49606 0.0
C439 C 0.16731 0.21291 0.45744 0.0
C440 C 0.1454 0.19297 0.47961 0.0
H441 H 0.7927 0.95845 0.45339 0.0
H442 H 0.87031 0.00897 0.44014 0.0
H443 H 0.87766 0.98878 0.52936 0.0
H444 H 0.79037 0.9498 0.62924 0.0
H445 H 0.76838 0.91785 0.62206 0.0
H446 H 0.76865 0.9392 0.56574 0.0
H447 H 0.77274 0.91408 0.47558 0.0
H448 H 0.77261 0.89281 0.53145 0.0
H449 H 0.79753 0.90783 0.47705 0.0
H450 H 0.8774 0.95981 0.60857 0.0
H451 H 0.86929 0.92368 0.67104 0.0
H452 H 0.79201 0.89172 0.63219 0.0
C453 C 0.81109 0.96573 0.47087 0.0
C454 C 0.83091 0.9853 0.44036 0.0
C455 C 0.85487 0.99394 0.46306 0.0
C456 C 0.85923 0.98271 0.51393 0.0
C457 C 0.83943 0.96286 0.54173 0.0
C458 C 0.8158 0.95449 0.52131 0.0
C459 C 0.79815 0.93107 0.55414 0.0
C460 C 0.78034 0.93471 0.59525 0.0
C461 C 0.78447 0.91023 0.50673 0.0
C462 C 0.81567 0.92708 0.59385 0.0
C463 C 0.83934 0.94584 0.58708 0.0
C464 C 0.85888 0.94519 0.61529 0.0
C465 C 0.85412 0.92458 0.65056 0.0
C466 C 0.83005 0.90486 0.65656 0.0
C467 C 0.81063 0.90652 0.62892 0.0
H468 H 0.108 0.96454 0.60758 0.0
H469 H 0.11409 0.91544 0.73817 0.0
H470 H 0.08482 0.88035 0.67515 0.0
H471 H 0.04132 0.92154 0.5613 0.0
H472 H 0.04775 0.93197 0.48125 0.0
H473 H 0.06413 0.95258 0.54459 0.0
H474 H 0.10478 0.96172 0.49305 0.0
H475 H 0.08867 0.94072 0.43063 0.0
H476 H 0.11031 0.93697 0.47726 0.0
H477 H 0.06295 0.852 0.58784 0.0
H478 H 0.04528 0.83136 0.4873 0.0
H479 H 0.05288 0.89854 0.41288 0.0
C480 C 0.1021 0.94634 0.62461 0.0
C481 C 0.11304 0.94261 0.6779 0.0
C482 C 0.10571 0.9186 0.69762 0.0
C483 C 0.08912 0.89856 0.66212 0.0
C484 C 0.0799 0.90288 0.60737 0.0
C485 C 0.08565 0.92612 0.58932 0.0
C486 C 0.07562 0.92598 0.52468 0.0
C487 C 0.05604 0.93345 0.52819 0.0
C488 C 0.09607 0.94231 0.47875 0.0
C489 C 0.06456 0.89932 0.50802 0.0
C490 C 0.06699 0.88627 0.55659 0.0
C491 C 0.06032 0.86185 0.55003 0.0
C492 C 0.05057 0.85036 0.49255 0.0
C493 C 0.0476 0.86331 0.44248 0.0
C494 C 0.05458 0.88807 0.45068 0.0
H495 H 0.21962 0.09378 0.87445 0.0
H496 H 0.15012 0.07034 0.78307 0.0
H497 H 0.14813 0.10451 0.83389 0.0
H498 H 0.20375 0.10581 0.0175 0.0
H499 H 0.23326 0.13157 0.03485 0.0
H500 H 0.2308 0.10803 0.98347 0.0
H501 H 0.25376 0.14007 0.8966 0.0
H502 H 0.25629 0.16381 0.94785 0.0
H503 H 0.24255 0.15981 0.87151 0.0
H504 H 0.1523 0.13897 0.9041 0.0
H505 H 0.16055 0.16803 0.99065 0.0
H506 H 0.2267 0.16693 0.03608 0.0
C507 C 0.20409 0.09593 0.86389 0.0
C508 C 0.185 0.07935 0.82465 0.0
C509 C 0.165 0.08287 0.81279 0.0
C510 C 0.16379 0.10227 0.84123 0.0
C511 C 0.18281 0.11795 0.88081 0.0
C512 C 0.20257 0.11489 0.89187 0.0
C513 C 0.2195 0.13236 0.94086 0.0
C514 C 0.22194 0.11861 0.99749 0.0
C515 C 0.2445 0.15006 0.91248 0.0
C516 C 0.20578 0.14528 0.9577 0.0
C517 C 0.18495 0.13719 0.92175 0.0
C518 C 0.16872 0.14562 0.93186 0.0
C519 C 0.1736 0.16217 0.98102 0.0
C520 C 0.19429 0.16971 0.02002 0.0
C521 C 0.21081 0.16159 0.00691 0.0
H522 H 0.88734 0.09363 0.08573 0.0
H523 H 0.83647 0.03599 0.96285 0.0
H524 H 0.86691 0.0527 0.87689 0.0
H525 H 0.91357 0.14134 0.97418 0.0
H526 H 0.94357 0.15411 0.00797 0.0
H527 H 0.91715 0.13749 0.05656 0.0
H528 H 0.93364 0.10913 0.09094 0.0
H529 H 0.95975 0.12525 0.04072 0.0
H530 H 0.94027 0.09282 0.03227 0.0
H531 H 0.9036 0.07781 0.80319 0.0
H532 H 0.94101 0.10963 0.75007 0.0
H533 H 0.96737 0.14706 0.92722 0.0
C534 C 0.88228 0.08465 0.04053 0.0
C535 C 0.85935 0.06375 0.03066 0.0
C536 C 0.85385 0.05225 0.97114 0.0
C537 C 0.87109 0.06148 0.92233 0.0
C538 C 0.89384 0.08181 0.9345 0.0
C539 C 0.89932 0.09315 0.99238 0.0
C540 C 0.92488 0.11451 0.99486 0.0
C541 C 0.92477 0.13826 0.00918 0.0
C542 C 0.94055 0.11015 0.04252 0.0
C543 C 0.93286 0.11404 0.92863 0.0
C544 C 0.91494 0.09504 0.89415 0.0
C545 C 0.91789 0.09245 0.83012 0.0
C546 C 0.93923 0.11037 0.80041 0.0
C547 C 0.95707 0.13032 0.83518 0.0
C548 C 0.95416 0.13157 0.90017 0.0
H549 H 0.86165 0.81084 0.94113 0.0
H550 H 0.91068 0.85304 0.79047 0.0
H551 H 0.9424 0.84556 0.83581 0.0
H552 H 0.90625 0.83124 0.06307 0.0
H553 H 0.89204 0.80205 0.10165 0.0
H554 H 0.87385 0.81101 0.05641 0.0
H555 H 0.85758 0.77155 0.99036 0.0
H556 H 0.87617 0.76274 0.03461 0.0
H557 H 0.87883 0.7652 0.95043 0.0
H558 H 0.96849 0.83294 0.8985 0.0
H559 H 0.98839 0.82086 0.97906 0.0
H560 H 0.92126 0.78646 0.08639 0.0
C561 C 0.87908 0.81867 0.91756 0.0
C562 C 0.88368 0.83252 0.86212 0.0
C563 C 0.9068 0.8425 0.83319 0.0
C564 C 0.92481 0.83814 0.85827 0.0
C565 C 0.91932 0.82378 0.91208 0.0
C566 C 0.89709 0.81448 0.94169 0.0
C567 C 0.89576 0.80023 0.99986 0.0
C568 C 0.89175 0.81184 0.05871 0.0
C569 C 0.87591 0.77334 0.99339 0.0
C570 C 0.9209 0.80315 0.99908 0.0
C571 C 0.93416 0.81654 0.94777 0.0
C572 C 0.95823 0.82238 0.93869 0.0
C573 C 0.96933 0.81529 0.98462 0.0
C574 C 0.95641 0.80265 0.03922 0.0
C575 C 0.93162 0.79583 0.04506 0.0
H576 H 0.85076 0.79039 0.5357 0.0
H577 H 0.86979 0.86624 0.54616 0.0
H578 H 0.89728 0.8759 0.45637 0.0
H579 H 0.90877 0.80128 0.50549 0.0
H580 H 0.90016 0.7765 0.45124 0.0
H581 H 0.87898 0.77453 0.51007 0.0
H582 H 0.84706 0.76685 0.42379 0.0
H583 H 0.86821 0.76876 0.36457 0.0
H584 H 0.85506 0.78818 0.36002 0.0
H585 H 0.92714 0.87888 0.37661 0.0
H586 H 0.95633 0.87414 0.30965 0.0
H587 H 0.91731 0.79647 0.34776 0.0
C588 C 0.8602 0.80884 0.51787 0.0
C589 C 0.85817 0.82752 0.5481 0.0
C590 C 0.87118 0.8516 0.52412 0.0
C591 C 0.88676 0.85731 0.47278 0.0
C592 C 0.88904 0.83872 0.44525 0.0
C593 C 0.87597 0.81492 0.46639 0.0
C594 C 0.88346 0.79888 0.43174 0.0
C595 C 0.89344 0.78713 0.47736 0.0
C596 C 0.86218 0.77952 0.3927 0.0
C597 C 0.90336 0.8176 0.38999 0.0
C598 C 0.90613 0.84043 0.39794 0.0
C599 C 0.92483 0.86099 0.36876 0.0
C600 C 0.94137 0.85817 0.33098 0.0
C601 C 0.93901 0.83496 0.32283 0.0
C602 C 0.9194 0.81443 0.35185 0.0
H603 H 0.22782 0.07829 0.51708 0.0
H604 H 0.15336 0.01834 0.52064 0.0
H605 H 0.14263 0.03708 0.43457 0.0
H606 H 0.21398 0.12342 0.49789 0.0
H607 H 0.23842 0.1423 0.44516 0.0
H608 H 0.24182 0.12227 0.49864 0.0
H609 H 0.25125 0.10189 0.40603 0.0
H610 H 0.24817 0.12211 0.35214 0.0
H611 H 0.23021 0.08963 0.34126 0.0
H612 H 0.13784 0.06542 0.36365 0.0
H613 H 0.14061 0.10028 0.3044 0.0
H614 H 0.21822 0.14139 0.34202 0.0
C615 C 0.20958 0.0687 0.4978 0.0
C616 C 0.19147 0.04683 0.52519 0.0
C617 C 0.16753 0.03512 0.50019 0.0
C618 C 0.16123 0.04558 0.45119 0.0
C619 C 0.17912 0.06772 0.42707 0.0
C620 C 0.20293 0.079 0.44858 0.0
C621 C 0.21798 0.10378 0.4183 0.0
C622 C 0.22866 0.12413 0.46797 0.0
C623 C 0.23809 0.10438 0.37696 0.0
C624 C 0.19867 0.105 0.37884 0.0
C625 C 0.17641 0.08395 0.38427 0.0
C626 C 0.1553 0.08177 0.3575 0.0
C627 C 0.15698 0.10167 0.32426 0.0
C628 C 0.17965 0.12333 0.31772 0.0
C629 C 0.20075 0.1248 0.34475 0.0
H630 H 0.89254 0.11288 0.3415 0.0
H631 H 0.92839 0.0713 0.30158 0.0
H632 H 0.96366 0.10019 0.36525 0.0
H633 H 0.94864 0.17436 0.34739 0.0
H634 H 0.93685 0.18393 0.41141 0.0
H635 H 0.91631 0.1625 0.35432 0.0
H636 H 0.89234 0.13209 0.44339 0.0
H637 H 0.91277 0.1533 0.50058 0.0
H638 H 0.90828 0.12293 0.49705 0.0
H639 H 0.99214 0.12982 0.44347 0.0
H640 H 0.01167 0.15762 0.53254 0.0
H641 H 0.95749 0.18021 0.52286 0.0
C642 C 0.90808 0.11019 0.3446 0.0
C643 C 0.90776 0.08988 0.3161 0.0
C644 C 0.92825 0.08676 0.32267 0.0
C645 C 0.94841 0.10314 0.35853 0.0
C646 C 0.94785 0.12261 0.38726 0.0
C647 C 0.92826 0.12627 0.3805 0.0
C648 C 0.93104 0.14706 0.42149 0.0
C649 C 0.93335 0.16822 0.38124 0.0
C650 C 0.90986 0.13831 0.4684 0.0
C651 C 0.95481 0.15389 0.45437 0.0
C652 C 0.96437 0.1398 0.43303 0.0
C653 C 0.98507 0.14124 0.45975 0.0
C654 C 0.99597 0.15702 0.5105 0.0
C655 C 0.98615 0.17116 0.5343 0.0
C656 C 0.96568 0.17003 0.50473 0.0
H657 H 0.8209 0.93137 0.17392 0.0
H658 H 0.8621 0.9925 0.04978 0.0
H659 H 0.85495 0.96424 0.96241 0.0
H660 H 0.84192 0.89005 0.09542 0.0
H661 H 0.81265 0.86348 0.10939 0.0
H662 H 0.82471 0.88847 0.16421 0.0
H663 H 0.78519 0.89057 0.15215 0.0
H664 H 0.77339 0.86635 0.09534 0.0
H665 H 0.77621 0.89528 0.07549 0.0
H666 H 0.83495 0.93094 0.88596 0.0
H667 H 0.81386 0.89282 0.82599 0.0
H668 H 0.78948 0.85159 0.99925 0.0
C669 C 0.82965 0.93863 0.12925 0.0
C670 C 0.84258 0.96399 0.11847 0.0
C671 C 0.85287 0.9731 0.059 0.0
C672 C 0.84859 0.95719 0.00903 0.0
C673 C 0.83454 0.93228 0.02006 0.0
C674 C 0.82617 0.92289 0.07916 0.0
C675 C 0.8108 0.89529 0.07709 0.0
C676 C 0.82327 0.88363 0.11369 0.0
C677 C 0.78486 0.88637 0.10147 0.0
C678 C 0.81074 0.89085 0.00719 0.0
C679 C 0.82426 0.91257 0.97541 0.0
C680 C 0.82497 0.91373 0.91032 0.0
C681 C 0.81253 0.892 0.8767 0.0
C682 C 0.79997 0.86932 0.9081 0.0
C683 C 0.79894 0.86872 0.97427 0.0
H684 H 0.15801 0.93585 0.92181 0.0
H685 H 0.1748 0.00661 0.99342 0.0
H686 H 0.14342 0.9865 0.07536 0.0
H687 H 0.09639 0.90934 0.93292 0.0
H688 H 0.09076 0.87959 0.95559 0.0
H689 H 0.11729 0.89927 0.91022 0.0
H690 H 0.14524 0.89626 0.9944 0.0
H691 H 0.11871 0.87604 0.03946 0.0
H692 H 0.14275 0.90329 0.07499 0.0
H693 H 0.10577 0.95793 0.14088 0.0
H694 H 0.06846 0.92377 0.18794 0.0
H695 H 0.07711 0.8731 0.06883 0.0
C696 C 0.15572 0.9472 0.95588 0.0
C697 C 0.16895 0.97281 0.95111 0.0
C698 C 0.16506 0.98693 0.99634 0.0
C699 C 0.14716 0.97566 0.04293 0.0
C700 C 0.1335 0.95031 0.044 0.0
C701 C 0.13796 0.93632 0.0022 0.0
C702 C 0.11974 0.90957 0.00939 0.0
C703 C 0.10519 0.89884 0.94842 0.0
C704 C 0.13236 0.89546 0.03086 0.0
C705 C 0.1039 0.91068 0.06051 0.0
C706 C 0.11206 0.9342 0.08056 0.0
C707 C 0.09944 0.9394 0.12601 0.0
C708 C 0.07818 0.91995 0.15215 0.0
C709 C 0.06977 0.89572 0.13225 0.0
C710 C 0.08293 0.89132 0.08561 0.0
H711 H 0.03876 0.1846 0.94804 0.0
H712 H 0.06075 0.2581 0.00625 0.0
H713 H 0.07738 0.25152 0.10525 0.0
H714 H 0.02689 0.15518 0.10803 0.0
H715 H 0.04028 0.13711 0.08515 0.0
H716 H 0.02462 0.14526 0.02787 0.0
H717 H 0.06309 0.16453 0.95738 0.0
H718 H 0.07857 0.15612 0.01382 0.0
H719 H 0.09174 0.18747 0.98991 0.0
H720 H 0.09607 0.23894 0.18935 0.0
H721 H 0.12227 0.22546 0.24006 0.0
H722 H 0.09134 0.16136 0.1224 0.0
C723 C 0.04639 0.19897 0.98284 0.0
C724 C 0.0481 0.22163 0.97096 0.0
C725 C 0.05904 0.24052 0.01555 0.0
C726 C 0.06826 0.2368 0.07191 0.0
C727 C 0.06658 0.21421 0.08212 0.0
C728 C 0.05622 0.19574 0.03821 0.0
C729 C 0.06072 0.17503 0.05415 0.0
C730 C 0.0367 0.15177 0.06973 0.0
C731 C 0.07435 0.17056 0.00068 0.0
C732 C 0.07646 0.18528 0.11207 0.0
C733 C 0.07864 0.20738 0.12907 0.0
C734 C 0.09407 0.22146 0.17736 0.0
C735 C 0.10873 0.21355 0.20634 0.0
C736 C 0.10818 0.19206 0.18615 0.0
C737 C 0.09119 0.17726 0.14034 0.0
H738 H 0.8294 0.57081 0.79445 0.0
H739 H 0.8108 0.4951 0.78908 0.0
H740 H 0.78335 0.48612 0.879 0.0
H741 H 0.82362 0.57453 0.9713 0.0
H742 H 0.81025 0.59363 0.96237 0.0
H743 H 0.8323 0.59538 0.90621 0.0
H744 H 0.80148 0.58685 0.81636 0.0
H745 H 0.77934 0.58488 0.87208 0.0
H746 H 0.77183 0.55986 0.81946 0.0
H747 H 0.75273 0.48343 0.9546 0.0
H748 H 0.72205 0.48789 0.01525 0.0
H749 H 0.76037 0.5653 0.97455 0.0
C750 C 0.82025 0.55262 0.814 0.0
C751 C 0.82227 0.53368 0.78529 0.0
C752 C 0.80947 0.50986 0.8106 0.0
C753 C 0.79392 0.50459 0.86185 0.0
C754 C 0.79143 0.52336 0.88758 0.0
C755 C 0.80442 0.54698 0.86517 0.0
C756 C 0.7962 0.56305 0.89669 0.0
C757 C 0.81682 0.58282 0.93652 0.0
C758 C 0.78664 0.5743 0.84826 0.0
C759 C 0.77584 0.5445 0.93771 0.0
C760 C 0.77364 0.5218 0.9324 0.0
C761 C 0.75461 0.50123 0.96055 0.0
C762 C 0.7372 0.50389 0.99458 0.0
C763 C 0.73899 0.52695 0.00019 0.0
C764 C 0.75886 0.54754 0.97235 0.0
H765 H 0.50749 0.24054 0.96541 0.0
H766 H 0.43647 0.212 0.05184 0.0
H767 H 0.42703 0.2366 0.97993 0.0
H768 H 0.51692 0.30308 0.92734 0.0
H769 H 0.53142 0.30375 0.85417 0.0
H770 H 0.53442 0.28789 0.9207 0.0
H771 H 0.51792 0.24881 0.85326 0.0
H772 H 0.51429 0.26427 0.78708 0.0
H773 H 0.48858 0.23667 0.81588 0.0
H774 H 0.42241 0.25816 0.88705 0.0
H775 H 0.42488 0.27883 0.78663 0.0
H776 H 0.49886 0.29318 0.7615 0.0
C777 C 0.49041 0.24031 0.97109 0.0
C778 C 0.47277 0.22445 0.01432 0.0
C779 C 0.4503 0.2241 0.01909 0.0
C780 C 0.44474 0.23799 0.97843 0.0
C781 C 0.46195 0.25233 0.93374 0.0
C782 C 0.48454 0.254 0.93065 0.0
C783 C 0.49882 0.26882 0.8745 0.0
C784 C 0.52175 0.29228 0.89544 0.0
C785 C 0.50526 0.25373 0.83009 0.0
C786 C 0.48035 0.27429 0.84517 0.0
C787 C 0.45928 0.26485 0.88022 0.0
C788 C 0.43902 0.26612 0.85986 0.0
C789 C 0.4405 0.27767 0.80252 0.0
C790 C 0.46207 0.28772 0.76632 0.0
C791 C 0.48218 0.28596 0.78833 0.0
H792 H 0.81322 0.25944 0.9686 0.0
H793 H 0.77086 0.29282 0.02531 0.0
H794 H 0.73725 0.26425 0.95664 0.0
H795 H 0.79953 0.25548 0.81391 0.0
H796 H 0.79806 0.22679 0.79929 0.0
H797 H 0.81658 0.24593 0.86229 0.0
H798 H 0.79366 0.21071 0.94145 0.0
H799 H 0.77518 0.19126 0.87846 0.0
H800 H 0.76093 0.19575 0.94625 0.0
H801 H 0.7115 0.23709 0.87157 0.0
H802 H 0.69479 0.21309 0.77551 0.0
H803 H 0.75421 0.19765 0.77109 0.0
C804 C 0.79658 0.26027 0.96835 0.0
C805 C 0.7946 0.27829 0.00275 0.0
C806 C 0.77273 0.27909 0.99975 0.0
C807 C 0.75353 0.26289 0.96103 0.0
C808 C 0.75651 0.24599 0.92598 0.0
C809 C 0.77742 0.24444 0.92958 0.0
C810 C 0.77732 0.22676 0.88153 0.0
C811 C 0.79916 0.23952 0.83662 0.0
C812 C 0.77673 0.20482 0.91387 0.0
C813 C 0.75355 0.21942 0.84825 0.0
C814 C 0.74167 0.23039 0.87558 0.0
C815 C 0.7204 0.22809 0.85045 0.0
C816 C 0.7112 0.21455 0.79549 0.0
C817 C 0.72329 0.20356 0.76571 0.0
C818 C 0.74445 0.20557 0.7933 0.0
H819 H 0.90187 0.49724 0.40213 0.0
H820 H 0.84785 0.51211 0.32099 0.0
H821 H 0.83868 0.48083 0.23984 0.0
H822 H 0.92256 0.48325 0.25277 0.0
H823 H 0.92619 0.45974 0.29001 0.0
H824 H 0.93081 0.48585 0.33451 0.0
H825 H 0.89898 0.45703 0.4156 0.0
H826 H 0.8938 0.43089 0.37071 0.0
H827 H 0.86863 0.43538 0.38957 0.0
H828 H 0.83163 0.44352 0.17642 0.0
H829 H 0.83073 0.40708 0.13065 0.0
H830 H 0.88908 0.41762 0.25669 0.0
C831 C 0.88862 0.49448 0.36623 0.0
C832 C 0.87561 0.50713 0.36787 0.0
C833 C 0.85824 0.5028 0.3203 0.0
C834 C 0.8528 0.48495 0.27423 0.0
C835 C 0.8651 0.47188 0.27607 0.0
C836 C 0.88301 0.47685 0.32023 0.0
C837 C 0.89255 0.45938 0.3153 0.0
C838 C 0.91963 0.47286 0.29703 0.0
C839 C 0.88822 0.44482 0.37641 0.0
C840 C 0.87677 0.44334 0.26267 0.0
C841 C 0.86108 0.45075 0.24016 0.0
C842 C 0.8441 0.43779 0.19314 0.0
C843 C 0.84356 0.41702 0.16781 0.0
C844 C 0.85987 0.40952 0.18986 0.0
C845 C 0.87647 0.42289 0.2382 0.0
H846 H 0.50339 0.39213 0.31486 0.0
H847 H 0.54622 0.40742 0.48488 0.0
H848 H 0.58406 0.42951 0.42345 0.0
H849 H 0.54401 0.38546 0.20915 0.0
H850 H 0.53979 0.40158 0.14516 0.0
H851 H 0.51569 0.38543 0.20113 0.0
H852 H 0.51438 0.42481 0.22555 0.0
H853 H 0.5379 0.4408 0.16827 0.0
H854 H 0.54207 0.45203 0.24759 0.0
H855 H 0.61698 0.44813 0.34457 0.0
H856 H 0.64341 0.4721 0.25652 0.0
H857 H 0.57983 0.44915 0.13891 0.0
C858 C 0.52078 0.40049 0.33884 0.0
C859 C 0.52212 0.39839 0.40433 0.0
C860 C 0.54502 0.40933 0.43469 0.0
C861 C 0.56655 0.42151 0.40016 0.0
C862 C 0.56478 0.42289 0.33545 0.0
C863 C 0.54256 0.41347 0.30519 0.0
C864 C 0.54597 0.41977 0.23604 0.0
C865 C 0.53576 0.39668 0.19549 0.0
C866 C 0.53441 0.43528 0.21834 0.0
C867 C 0.57353 0.43435 0.23257 0.0
C868 C 0.58397 0.43511 0.29009 0.0
C869 C 0.6091 0.44767 0.29918 0.0
C870 C 0.62397 0.46095 0.24888 0.0
C871 C 0.61352 0.4619 0.19118 0.0
C872 C 0.58811 0.44804 0.18235 0.0
H873 H 0.62556 0.13859 0.32202 0.0
H874 H 0.60193 0.15481 0.49727 0.0
H875 H 0.58001 0.17148 0.43894 0.0
H876 H 0.6325 0.18965 0.23206 0.0
H877 H 0.61946 0.17252 0.16116 0.0
H878 H 0.63476 0.16296 0.2158 0.0
H879 H 0.59624 0.12022 0.22449 0.0
H880 H 0.58124 0.12943 0.16824 0.0
H881 H 0.56744 0.11784 0.24361 0.0
H882 H 0.56227 0.18811 0.36292 0.0
H883 H 0.53981 0.19283 0.27426 0.0
H884 H 0.57093 0.16216 0.14836 0.0
C885 C 0.61545 0.14533 0.34783 0.0
C886 C 0.61532 0.14533 0.41402 0.0
C887 C 0.60193 0.15428 0.44646 0.0
C888 C 0.58978 0.1642 0.41382 0.0
C889 C 0.59081 0.16463 0.34867 0.0
C890 C 0.60249 0.15461 0.31587 0.0
C891 C 0.59853 0.1551 0.24591 0.0
C892 C 0.62276 0.17101 0.21174 0.0
C893 C 0.58505 0.12911 0.219 0.0
C894 C 0.58272 0.1668 0.2448 0.0
C895 C 0.57924 0.17294 0.30451 0.0
C896 C 0.56489 0.18348 0.31584 0.0
C897 C 0.55251 0.18646 0.26519 0.0
C898 C 0.55422 0.1784 0.2047 0.0
C899 C 0.57004 0.16915 0.19402 0.0
H900 H 0.52262 0.13099 0.86754 0.0
H901 H 0.5509 0.20742 0.91038 0.0
H902 H 0.5816 0.21889 0.8273 0.0
H903 H 0.57907 0.13532 0.84438 0.0
H904 H 0.56933 0.11365 0.78099 0.0
H905 H 0.54768 0.11149 0.83865 0.0
H906 H 0.52047 0.11345 0.75055 0.0
H907 H 0.54213 0.11567 0.69253 0.0
H908 H 0.53324 0.13855 0.6961 0.0
H909 H 0.61159 0.22215 0.74554 0.0
H910 H 0.63919 0.2164 0.67455 0.0
H911 H 0.59129 0.13812 0.6855 0.0
C912 C 0.53497 0.15013 0.85867 0.0
C913 C 0.5343 0.16824 0.89553 0.0
C914 C 0.55108 0.19313 0.883 0.0
C915 C 0.56853 0.19989 0.83557 0.0
C916 C 0.56898 0.1816 0.80076 0.0
C917 C 0.55264 0.15723 0.81163 0.0
C918 C 0.55822 0.14113 0.77089 0.0
C919 C 0.56392 0.12443 0.81114 0.0
C920 C 0.53727 0.12633 0.72478 0.0
C921 C 0.58064 0.16024 0.73701 0.0
C922 C 0.58639 0.1835 0.75402 0.0
C923 C 0.60713 0.20402 0.73121 0.0
C924 C 0.62268 0.20061 0.69086 0.0
C925 C 0.61745 0.17686 0.67453 0.0
C926 C 0.59585 0.15655 0.69698 0.0
H927 H 0.89801 0.4145 0.85984 0.0
H928 H 0.8222 0.36075 0.89323 0.0
H929 H 0.80974 0.37762 0.80656 0.0
H930 H 0.8885 0.46292 0.83097 0.0
H931 H 0.91092 0.47667 0.76978 0.0
H932 H 0.91438 0.45838 0.82882 0.0
H933 H 0.91675 0.43093 0.74233 0.0
H934 H 0.91326 0.4492 0.68293 0.0
H935 H 0.89259 0.41681 0.6853 0.0
H936 H 0.80471 0.40322 0.72596 0.0
H937 H 0.80808 0.43589 0.656 0.0
H938 H 0.88687 0.47222 0.67209 0.0
C939 C 0.87888 0.40595 0.84786 0.0
C940 C 0.86115 0.38636 0.88357 0.0
C941 C 0.8362 0.37591 0.86699 0.0
C942 C 0.82887 0.38524 0.81745 0.0
C943 C 0.84666 0.40494 0.78424 0.0
C944 C 0.87118 0.4151 0.7983 0.0
C945 C 0.88635 0.4374 0.75836 0.0
C946 C 0.90088 0.46018 0.79944 0.0
C947 C 0.90323 0.43333 0.71463 0.0
C948 C 0.86647 0.4386 0.72167 0.0
C949 C 0.84372 0.41957 0.7367 0.0
C950 C 0.82246 0.41799 0.71273 0.0
C951 C 0.82452 0.43663 0.6731 0.0
C952 C 0.84768 0.45654 0.65799 0.0
C953 C 0.86885 0.45709 0.68167 0.0
H954 H 0.61615 0.45781 0.92215 0.0
H955 H 0.63077 0.52331 0.82173 0.0
H956 H 0.60993 0.49839 0.72827 0.0
H957 H 0.62262 0.42487 0.78938 0.0
H958 H 0.59782 0.39592 0.81465 0.0
H959 H 0.61578 0.41899 0.87172 0.0
H960 H 0.57677 0.41694 0.91612 0.0
H961 H 0.55873 0.39365 0.85993 0.0
H962 H 0.55671 0.42097 0.86377 0.0
H963 H 0.58584 0.46649 0.64862 0.0
H964 H 0.55583 0.42967 0.59225 0.0
H965 H 0.55623 0.38451 0.74427 0.0
C966 C 0.61524 0.467 0.88027 0.0
C967 C 0.62527 0.49258 0.87903 0.0
C968 C 0.62323 0.50378 0.82376 0.0
C969 C 0.61163 0.48979 0.77032 0.0
C970 C 0.60215 0.46464 0.77306 0.0
C971 C 0.60357 0.45331 0.82685 0.0
C972 C 0.59005 0.42583 0.81939 0.0
C973 C 0.60762 0.41582 0.82406 0.0
C974 C 0.56933 0.41364 0.86764 0.0
C975 C 0.58027 0.42339 0.75331 0.0
C976 C 0.58791 0.44607 0.72713 0.0
C977 C 0.58002 0.44868 0.66827 0.0
C978 C 0.56308 0.42766 0.63649 0.0
C979 C 0.55414 0.40432 0.66353 0.0
C980 C 0.56341 0.40209 0.72178 0.0
H981 H 0.44012 0.18819 0.25148 0.0
H982 H 0.4848 0.163 0.34228 0.0
H983 H 0.49655 0.19473 0.42351 0.0
H984 H 0.48104 0.24879 0.26637 0.0
H985 H 0.45904 0.25837 0.27994 0.0
H986 H 0.45051 0.23108 0.236 0.0
H987 H 0.41493 0.20591 0.31272 0.0
H988 H 0.42294 0.23328 0.35605 0.0
H989 H 0.42095 0.20724 0.39571 0.0
H990 H 0.50709 0.23297 0.48876 0.0
H991 H 0.51291 0.27174 0.53346 0.0
H992 H 0.46288 0.27164 0.3939 0.0
C993 C 0.45159 0.18863 0.28973 0.0
C994 C 0.46129 0.17287 0.29065 0.0
C995 C 0.47687 0.17467 0.34081 0.0
C996 C 0.48378 0.19275 0.38709 0.0
C997 C 0.47492 0.20886 0.38271 0.0
C998 C 0.45888 0.20668 0.33564 0.0
C999 C 0.45357 0.22737 0.33751 0.0
C1000 C 0.46153 0.24227 0.27634 0.0
C1001 C 0.42649 0.21788 0.35135 0.0
C1002 C 0.46949 0.24182 0.39203 0.0
C1003 C 0.48153 0.23091 0.41826 0.0
C1004 C 0.49756 0.24155 0.46876 0.0
C1005 C 0.50092 0.26365 0.49358 0.0
C1006 C 0.48852 0.27493 0.46724 0.0
C1007 C 0.47282 0.26375 0.41545 0.0
H1008 H 0.82288 0.26613 0.22422 0.0
H1009 H 0.86219 0.33032 0.34108 0.0
H1010 H 0.82972 0.31186 0.42071 0.0
H1011 H 0.76583 0.25817 0.24967 0.0
H1012 H 0.74987 0.22537 0.2513 0.0
H1013 H 0.77771 0.24173 0.20754 0.0
H1014 H 0.79686 0.22026 0.2695 0.0
H1015 H 0.7688 0.20324 0.31222 0.0
H1016 H 0.79703 0.22103 0.35402 0.0
H1017 H 0.79032 0.28796 0.48263 0.0
H1018 H 0.75005 0.2583 0.52686 0.0
H1019 H 0.73685 0.21108 0.36656 0.0
C1020 C 0.82519 0.27598 0.26752 0.0
C1021 C 0.84522 0.29965 0.27637 0.0
C1022 C 0.84712 0.31209 0.33327 0.0
C1023 C 0.82866 0.30182 0.37869 0.0
C1024 C 0.80847 0.27905 0.36672 0.0
C1025 C 0.80689 0.26609 0.31305 0.0
C1026 C 0.78278 0.24258 0.30953 0.0
C1027 C 0.7682 0.24195 0.25105 0.0
C1028 C 0.7866 0.22047 0.31146 0.0
C1029 C 0.77088 0.24453 0.36896 0.0
C1030 C 0.7859 0.26562 0.40156 0.0
C1031 C 0.77849 0.27128 0.45767 0.0
C1032 C 0.75548 0.25448 0.48212 0.0
C1033 C 0.74022 0.23237 0.45029 0.0
C1034 C 0.74799 0.22778 0.39229 0.0
H1035 H 0.8069 0.55926 0.41946 0.0
H1036 H 0.75669 0.49522 0.52578 0.0
H1037 H 0.72201 0.49687 0.4762 0.0
H1038 H 0.77229 0.59057 0.42429 0.0
H1039 H 0.78096 0.60199 0.34556 0.0
H1040 H 0.80123 0.5966 0.39344 0.0
H1041 H 0.80254 0.56828 0.30774 0.0
H1042 H 0.78253 0.57376 0.25942 0.0
H1043 H 0.7744 0.54301 0.27955 0.0
H1044 H 0.693 0.50479 0.40786 0.0
H1045 H 0.67316 0.51588 0.32442 0.0
H1046 H 0.74378 0.57469 0.26609 0.0
C1047 C 0.78868 0.54556 0.43322 0.0
C1048 C 0.78457 0.52706 0.47674 0.0
C1049 C 0.76032 0.50957 0.49262 0.0
C1050 C 0.74055 0.51048 0.46491 0.0
C1051 C 0.74545 0.52907 0.42197 0.0
C1052 C 0.76903 0.54622 0.40639 0.0
C1053 C 0.76994 0.56351 0.35634 0.0
C1054 C 0.7818 0.58971 0.38144 0.0
C1055 C 0.78311 0.56203 0.2973 0.0
C1056 C 0.7431 0.55317 0.34462 0.0
C1057 C 0.72913 0.53352 0.38332 0.0
C1058 C 0.70382 0.52031 0.37797 0.0
C1059 C 0.69269 0.52686 0.3306 0.0
C1060 C 0.70692 0.54626 0.28878 0.0
C1061 C 0.73235 0.55992 0.2975 0.0
H1062 H 0.40231 0.84296 0.30374 0.0
H1063 H 0.44809 0.9066 0.41662 0.0
H1064 H 0.4835 0.91526 0.35089 0.0
H1065 H 0.45098 0.82687 0.26326 0.0
H1066 H 0.43899 0.8181 0.18496 0.0
H1067 H 0.4188 0.81387 0.24921 0.0
H1068 H 0.40317 0.83885 0.18893 0.0
H1069 H 0.42365 0.8437 0.1253 0.0
H1070 H 0.4246 0.86941 0.16405 0.0
H1071 H 0.51187 0.92119 0.26249 0.0
H1072 H 0.53193 0.92182 0.16256 0.0
H1073 H 0.4673 0.85474 0.10666 0.0
C1074 C 0.42005 0.85798 0.31643 0.0
C1075 C 0.4226 0.87393 0.36561 0.0
C1076 C 0.44588 0.89403 0.3794 0.0
C1077 C 0.46607 0.89912 0.34229 0.0
C1078 C 0.4627 0.88387 0.29173 0.0
C1079 C 0.44036 0.86344 0.27936 0.0
C1080 C 0.44089 0.85167 0.21814 0.0
C1081 C 0.43721 0.82611 0.2296 0.0
C1082 C 0.42196 0.85088 0.17139 0.0
C1083 C 0.4666 0.86921 0.1969 0.0
C1084 C 0.47902 0.88749 0.24023 0.0
C1085 C 0.5025 0.90668 0.22871 0.0
C1086 C 0.51368 0.90701 0.17162 0.0
C1087 C 0.50126 0.88834 0.12672 0.0
C1088 C 0.47744 0.86923 0.14003 0.0
H1089 H 0.18315 0.58151 0.30912 0.0
H1090 H 0.11393 0.55452 0.40401 0.0
H1091 H 0.10409 0.57978 0.33554 0.0
H1092 H 0.19353 0.64465 0.27274 0.0
H1093 H 0.20641 0.64459 0.19751 0.0
H1094 H 0.21022 0.62875 0.26287 0.0
H1095 H 0.19159 0.58928 0.1964 0.0
H1096 H 0.18718 0.60474 0.13148 0.0
H1097 H 0.16165 0.5776 0.16295 0.0
H1098 H 0.09856 0.60182 0.24494 0.0
H1099 H 0.09954 0.62192 0.14457 0.0
H1100 H 0.17216 0.63392 0.10909 0.0
C1101 C 0.16647 0.58182 0.31743 0.0
C1102 C 0.14939 0.56624 0.36204 0.0
C1103 C 0.12732 0.56646 0.37017 0.0
C1104 C 0.12157 0.58074 0.33152 0.0
C1105 C 0.13815 0.59482 0.28533 0.0
C1106 C 0.16037 0.59584 0.27888 0.0
C1107 C 0.17375 0.61018 0.22129 0.0
C1108 C 0.19738 0.63343 0.23972 0.0
C1109 C 0.17882 0.59451 0.17536 0.0
C1110 C 0.15515 0.6161 0.19499 0.0
C1111 C 0.13486 0.60739 0.23285 0.0
C1112 C 0.11458 0.6092 0.21553 0.0
C1113 C 0.11521 0.62045 0.15824 0.0
C1114 C 0.13591 0.62956 0.11896 0.0
C1115 C 0.15609 0.62736 0.13812 0.0
H1116 H 0.38645 0.55693 0.11502 0.0
H1117 H 0.38977 0.49276 0.17048 0.0
H1118 H 0.4075 0.51231 0.27256 0.0
H1119 H 0.44213 0.59924 0.17401 0.0
H1120 H 0.43278 0.62054 0.19835 0.0
H1121 H 0.41727 0.59994 0.13483 0.0
H1122 H 0.37623 0.58413 0.19324 0.0
H1123 H 0.39178 0.60454 0.25757 0.0
H1124 H 0.37293 0.57235 0.27177 0.0
H1125 H 0.42931 0.5408 0.362 0.0
H1126 H 0.45641 0.57659 0.42634 0.0
H1127 H 0.43798 0.62169 0.31248 0.0
C1128 C 0.39052 0.54669 0.14877 0.0
C1129 C 0.38669 0.52324 0.13463 0.0
C1130 C 0.39252 0.51072 0.18021 0.0
C1131 C 0.40239 0.52161 0.23848 0.0
C1132 C 0.40601 0.54484 0.25053 0.0
C1133 C 0.40025 0.5572 0.20675 0.0
C1134 C 0.4081 0.58286 0.22792 0.0
C1135 C 0.42614 0.60174 0.18102 0.0
C1136 C 0.38593 0.58615 0.23825 0.0
C1137 C 0.4203 0.58353 0.28942 0.0
C1138 C 0.41841 0.56124 0.30235 0.0
C1139 C 0.43046 0.55815 0.35304 0.0
C1140 C 0.44577 0.57857 0.38942 0.0
C1141 C 0.44899 0.60179 0.37473 0.0
C1142 C 0.43522 0.60402 0.32594 0.0
H1143 H 0.55825 0.81699 0.77795 0.0
H1144 H 0.52802 0.85354 0.66916 0.0
H1145 H 0.51241 0.82027 0.59115 0.0
H1146 H 0.57651 0.79376 0.6462 0.0
H1147 H 0.56876 0.76575 0.68615 0.0
H1148 H 0.57827 0.79319 0.73053 0.0
H1149 H 0.53841 0.77095 0.79536 0.0
H1150 H 0.52849 0.74365 0.74995 0.0
H1151 H 0.50945 0.7572 0.75548 0.0
H1152 H 0.49861 0.78128 0.52631 0.0
H1153 H 0.49279 0.74335 0.47588 0.0
H1154 H 0.53124 0.73312 0.6305 0.0
C1155 C 0.54875 0.81833 0.73724 0.0
C1156 C 0.54447 0.838 0.72981 0.0
C1157 C 0.5317 0.83876 0.67588 0.0
C1158 C 0.52257 0.81983 0.6315 0.0
C1159 C 0.52633 0.80024 0.64166 0.0
C1160 C 0.53944 0.79962 0.69285 0.0
C1161 C 0.54106 0.77667 0.69359 0.0
C1162 C 0.56773 0.78271 0.68879 0.0
C1163 C 0.52861 0.76122 0.75207 0.0
C1164 C 0.52691 0.76448 0.63473 0.0
C1165 C 0.51833 0.77812 0.60533 0.0
C1166 C 0.50522 0.77044 0.54908 0.0
C1167 C 0.50173 0.74878 0.5211 0.0
C1168 C 0.51147 0.73533 0.54948 0.0
C1169 C 0.52351 0.74301 0.60783 0.0
H1170 H 0.2986 0.81796 0.64113 0.0
H1171 H 0.28307 0.77488 0.47182 0.0
H1172 H 0.2446 0.74279 0.51948 0.0
H1173 H 0.27116 0.76664 0.75443 0.0
H1174 H 0.26012 0.7824 0.80265 0.0
H1175 H 0.28771 0.79942 0.7581 0.0
H1176 H 0.26929 0.8237 0.7069 0.0
H1177 H 0.24131 0.80616 0.74934 0.0
H1178 H 0.24084 0.80759 0.66496 0.0
H1179 H 0.20556 0.71816 0.58178 0.0
H1180 H 0.17208 0.69992 0.65874 0.0
H1181 H 0.2135 0.76068 0.78492 0.0
C1182 C 0.28751 0.80137 0.61489 0.0
C1183 C 0.29377 0.79869 0.55311 0.0
C1184 C 0.27875 0.77698 0.5197 0.0
C1185 C 0.25677 0.75887 0.54614 0.0
C1186 C 0.25041 0.76287 0.60589 0.0
C1187 C 0.26567 0.78337 0.64032 0.0
C1188 C 0.25432 0.78419 0.70191 0.0
C1189 C 0.2692 0.78308 0.75756 0.0
C1190 C 0.25126 0.80675 0.70595 0.0
C1191 C 0.22998 0.76112 0.69656 0.0
C1192 C 0.22802 0.74904 0.64096 0.0
C1193 C 0.20703 0.72736 0.62566 0.0
C1194 C 0.18802 0.71727 0.6695 0.0
C1195 C 0.1901 0.7289 0.7279 0.0
C1196 C 0.21116 0.75144 0.74056 0.0
H1197 H 0.21558 0.50941 0.63345 0.0
H1198 H 0.25694 0.53408 0.46126 0.0
H1199 H 0.2906 0.53074 0.51136 0.0
H1200 H 0.26783 0.53638 0.74622 0.0
H1201 H 0.25254 0.51009 0.79637 0.0
H1202 H 0.23505 0.51982 0.75055 0.0
H1203 H 0.21098 0.47653 0.70262 0.0
H1204 H 0.22892 0.46687 0.74625 0.0
H1205 H 0.22722 0.46408 0.66204 0.0
H1206 H 0.31715 0.51881 0.5786 0.0
H1207 H 0.33479 0.50305 0.65726 0.0
H1208 H 0.27291 0.48363 0.77893 0.0
C1209 C 0.23218 0.51512 0.60715 0.0
C1210 C 0.23395 0.5223 0.54404 0.0
C1211 C 0.2556 0.52909 0.51028 0.0
C1212 C 0.27463 0.52697 0.5382 0.0
C1213 C 0.27155 0.51819 0.59966 0.0
C1214 C 0.25095 0.51283 0.63388 0.0
C1215 C 0.25045 0.50142 0.6963 0.0
C1216 C 0.25155 0.51792 0.75056 0.0
C1217 C 0.22807 0.47571 0.70206 0.0
C1218 C 0.27364 0.50047 0.69159 0.0
C1219 C 0.28589 0.51046 0.63621 0.0
C1220 C 0.30774 0.51113 0.62226 0.0
C1221 C 0.3175 0.50194 0.66689 0.0
C1222 C 0.30515 0.49185 0.72407 0.0
C1223 C 0.28279 0.49092 0.73557 0.0
H1224 H 0.19434 0.47273 0.19918 0.0
H1225 H 0.2291 0.54805 0.26084 0.0
H1226 H 0.25998 0.55965 0.1786 0.0
H1227 H 0.24753 0.47142 0.17015 0.0
H1228 H 0.23651 0.45247 0.10128 0.0
H1229 H 0.21541 0.45047 0.16037 0.0
H1230 H 0.19129 0.45949 0.07652 0.0
H1231 H 0.21245 0.46159 0.0171 0.0
H1232 H 0.2069 0.48654 0.02905 0.0
H1233 H 0.29017 0.56251 0.09812 0.0
H1234 H 0.31653 0.55578 0.02493 0.0
H1235 H 0.26116 0.47935 0.01271 0.0
C1236 C 0.20816 0.49171 0.19465 0.0
C1237 C 0.20919 0.50936 0.23676 0.0
C1238 C 0.22781 0.53404 0.22941 0.0
C1239 C 0.24547 0.54093 0.18254 0.0
C1240 C 0.24422 0.52305 0.14259 0.0
C1241 C 0.22592 0.49898 0.14773 0.0
C1242 C 0.22965 0.48312 0.10138 0.0
C1243 C 0.23245 0.46321 0.13534 0.0
C1244 C 0.20883 0.47204 0.05315 0.0
C1245 C 0.25331 0.50186 0.0713 0.0
C1246 C 0.26136 0.52485 0.09513 0.0
C1247 C 0.28384 0.54466 0.07808 0.0
C1248 C 0.29871 0.5407 0.03648 0.0
C1249 C 0.29096 0.51712 0.01267 0.0
C1250 C 0.26765 0.49772 0.02929 0.0
H1251 H 0.54969 0.739 0.20155 0.0
H1252 H 0.47439 0.70231 0.26349 0.0
H1253 H 0.4646 0.72351 0.18193 0.0
H1254 H 0.55478 0.79557 0.1745 0.0
H1255 H 0.5737 0.80273 0.10587 0.0
H1256 H 0.57422 0.78264 0.1646 0.0
H1257 H 0.56341 0.7494 0.08001 0.0
H1258 H 0.56277 0.76942 0.02097 0.0
H1259 H 0.53662 0.73961 0.03221 0.0
H1260 H 0.46369 0.75182 0.10039 0.0
H1261 H 0.4724 0.78544 0.02691 0.0
H1262 H 0.54774 0.80259 0.01661 0.0
C1263 C 0.53106 0.73509 0.1973 0.0
C1264 C 0.51289 0.71895 0.23914 0.0
C1265 C 0.48875 0.71461 0.23223 0.0
C1266 C 0.48291 0.72648 0.18575 0.0
C1267 C 0.5013 0.74255 0.14593 0.0
C1268 C 0.52487 0.74678 0.151 0.0
C1269 C 0.54159 0.76612 0.10508 0.0
C1270 C 0.56228 0.78806 0.13958 0.0
C1271 C 0.55169 0.75549 0.0567 0.0
C1272 C 0.52392 0.7726 0.07498 0.0
C1273 C 0.50069 0.75865 0.09854 0.0
C1274 C 0.48174 0.76261 0.0808 0.0
C1275 C 0.48682 0.78172 0.03894 0.0
C1276 C 0.5107 0.79666 0.01563 0.0
C1277 C 0.52921 0.79146 0.03293 0.0
H1278 H 0.2774 0.83116 0.22065 0.0
H1279 H 0.32714 0.80386 0.25275 0.0
H1280 H 0.30647 0.77296 0.17089 0.0
H1281 H 0.22499 0.77408 0.19939 0.0
H1282 H 0.21194 0.78372 0.13845 0.0
H1283 H 0.23204 0.80534 0.19555 0.0
H1284 H 0.25982 0.83307 0.10639 0.0
H1285 H 0.23973 0.8115 0.04895 0.0
H1286 H 0.27163 0.82076 0.04916 0.0
H1287 H 0.27827 0.74251 0.09217 0.0
H1288 H 0.24469 0.71534 0.02106 0.0
H1289 H 0.2139 0.76276 0.03843 0.0
C1290 C 0.28421 0.81898 0.20967 0.0
C1291 C 0.3039 0.82001 0.24341 0.0
C1292 C 0.31203 0.80346 0.22797 0.0
C1293 C 0.30046 0.78583 0.18124 0.0
C1294 C 0.28083 0.78496 0.14978 0.0
C1295 C 0.27283 0.80116 0.16298 0.0
C1296 C 0.25049 0.79539 0.12445 0.0
C1297 C 0.22858 0.78927 0.167 0.0
C1298 C 0.25574 0.81643 0.07957 0.0
C1299 C 0.24694 0.77315 0.08885 0.0
C1300 C 0.26471 0.7675 0.10376 0.0
C1301 C 0.26441 0.74693 0.07938 0.0
C1302 C 0.24526 0.73158 0.03909 0.0
C1303 C 0.22671 0.73692 0.02364 0.0
C1304 C 0.22791 0.75822 0.04843 0.0
H1305 H 0.13391 0.61037 0.73492 0.0
H1306 H 0.17516 0.60335 0.8882 0.0
H1307 H 0.1672 0.56377 0.84409 0.0
H1308 H 0.08747 0.54732 0.72607 0.0
H1309 H 0.08542 0.54779 0.64181 0.0
H1310 H 0.09406 0.57505 0.6864 0.0
H1311 H 0.13387 0.59845 0.62177 0.0
H1312 H 0.12502 0.57148 0.57613 0.0
H1313 H 0.15405 0.58622 0.61571 0.0
H1314 H 0.15545 0.52545 0.77936 0.0
H1315 H 0.14546 0.49503 0.69557 0.0
H1316 H 0.11051 0.52748 0.5892 0.0
C1317 C 0.14137 0.60065 0.75967 0.0
C1318 C 0.15518 0.61001 0.81523 0.0
C1319 C 0.16466 0.59662 0.84541 0.0
C1320 C 0.15998 0.57403 0.82105 0.0
C1321 C 0.14569 0.56512 0.76695 0.0
C1322 C 0.13673 0.57823 0.73656 0.0
C1323 C 0.12274 0.56553 0.6779 0.0
C1324 C 0.09583 0.55851 0.68342 0.0
C1325 C 0.13464 0.58135 0.61946 0.0
C1326 C 0.12559 0.5433 0.67879 0.0
C1327 C 0.13862 0.54316 0.73081 0.0
C1328 C 0.14504 0.52529 0.73892 0.0
C1329 C 0.13912 0.50797 0.69115 0.0
C1330 C 0.12705 0.50875 0.63579 0.0
C1331 C 0.11926 0.52599 0.63129 0.0
H1332 H 0.41767 0.5891 0.81771 0.0
H1333 H 0.43765 0.5339 0.85066 0.0
H1334 H 0.47625 0.55862 0.79486 0.0
H1335 H 0.43672 0.6011 0.6679 0.0
H1336 H 0.44899 0.63359 0.6689 0.0
H1337 H 0.42551 0.61462 0.72336 0.0
H1338 H 0.45295 0.63959 0.81642 0.0
H1339 H 0.47653 0.65887 0.76201 0.0
H1340 H 0.48308 0.64364 0.82396 0.0
H1341 H 0.50687 0.58334 0.71534 0.0
H1342 H 0.53032 0.60969 0.62621 0.0
H1343 H 0.49338 0.65107 0.6492 0.0
C1344 C 0.43075 0.58289 0.81563 0.0
C1345 C 0.42481 0.55972 0.83869 0.0
C1346 C 0.44194 0.55168 0.83333 0.0
C1347 C 0.46396 0.56561 0.80187 0.0
C1348 C 0.46885 0.58779 0.77657 0.0
C1349 C 0.45305 0.59674 0.78417 0.0
C1350 C 0.46159 0.61986 0.74636 0.0
C1351 C 0.44205 0.61711 0.69883 0.0
C1352 C 0.46898 0.64179 0.78979 0.0
C1353 C 0.48365 0.62154 0.71375 0.0
C1354 C 0.48763 0.60295 0.73222 0.0
C1355 C 0.50463 0.59858 0.70212 0.0
C1356 C 0.51779 0.6135 0.65149 0.0
C1357 C 0.51412 0.63274 0.63238 0.0
C1358 C 0.49721 0.63706 0.66478 0.0
H1359 H 0.37711 0.86816 0.65556 0.0
H1360 H 0.42142 0.9455 0.61918 0.0
H1361 H 0.45036 0.94852 0.70157 0.0
H1362 H 0.39067 0.86887 0.8282 0.0
H1363 H 0.39216 0.84131 0.82154 0.0
H1364 H 0.37209 0.84613 0.77109 0.0
H1365 H 0.39237 0.83939 0.67376 0.0
H1366 H 0.41256 0.83474 0.72362 0.0
H1367 H 0.42486 0.85786 0.6637 0.0
H1368 H 0.47663 0.94242 0.77571 0.0
H1369 H 0.50086 0.92775 0.83055 0.0
H1370 H 0.44128 0.85333 0.815 0.0
C1371 C 0.39238 0.88591 0.66692 0.0
C1372 C 0.39678 0.9068 0.63244 0.0
C1373 C 0.41756 0.92947 0.64604 0.0
C1374 C 0.43399 0.93131 0.69283 0.0
C1375 C 0.42948 0.91022 0.72482 0.0
C1376 C 0.40925 0.8879 0.71229 0.0
C1377 C 0.41064 0.86749 0.74592 0.0
C1378 C 0.39017 0.85523 0.79459 0.0
C1379 C 0.41009 0.84878 0.69894 0.0
C1380 C 0.4353 0.88171 0.7775 0.0
C1381 C 0.44544 0.90639 0.76586 0.0
C1382 C 0.46876 0.92321 0.78577 0.0
C1383 C 0.48241 0.91463 0.81665 0.0
C1384 C 0.47293 0.88937 0.82694 0.0
C1385 C 0.44877 0.87272 0.80876 0.0
H1386 H 0.04844 0.29601 0.57937 0.0
H1387 H 0.10644 0.30359 0.70264 0.0
H1388 H 0.1353 0.34145 0.64843 0.0
H1389 H 0.08576 0.32123 0.43732 0.0
H1390 H 0.0701 0.33704 0.41327 0.0
H1391 H 0.05419 0.30916 0.45747 0.0
H1392 H 0.04251 0.33103 0.5415 0.0
H1393 H 0.05806 0.3588 0.49712 0.0
H1394 H 0.06614 0.35833 0.57799 0.0
H1395 H 0.15716 0.37955 0.58749 0.0
H1396 H 0.16985 0.41777 0.52981 0.0
H1397 H 0.09835 0.38636 0.44471 0.0
C1398 C 0.06726 0.30551 0.59452 0.0
C1399 C 0.07517 0.29676 0.64521 0.0
C1400 C 0.09989 0.30993 0.66416 0.0
C1401 C 0.1165 0.33136 0.63324 0.0
C1402 C 0.10817 0.33943 0.58341 0.0
C1403 C 0.08411 0.32709 0.56442 0.0
C1404 C 0.07954 0.34088 0.51297 0.0
C1405 C 0.07195 0.3262 0.45162 0.0
C1406 C 0.06044 0.34767 0.53366 0.0
C1407 C 0.10465 0.36321 0.50725 0.0
C1408 C 0.12095 0.3617 0.54765 0.0
C1409 C 0.14474 0.38078 0.55483 0.0
C1410 C 0.15183 0.40234 0.5217 0.0
C1411 C 0.13525 0.40461 0.48177 0.0
C1412 C 0.11158 0.38462 0.47311 0.0
H1413 H 0.70898 0.78816 0.67404 0.0
H1414 H 0.74969 0.77319 0.53505 0.0
H1415 H 0.71426 0.75656 0.46363 0.0
H1416 H 0.65293 0.73332 0.64857 0.0
H1417 H 0.63432 0.74702 0.66138 0.0
H1418 H 0.66355 0.75949 0.6991 0.0
H1419 H 0.67638 0.80167 0.65029 0.0
H1420 H 0.64724 0.78921 0.61184 0.0
H1421 H 0.67486 0.80438 0.56646 0.0
H1422 H 0.6743 0.74145 0.40734 0.0
H1423 H 0.63103 0.72383 0.37665 0.0
H1424 H 0.61603 0.74655 0.5549 0.0
C1425 C 0.71046 0.78153 0.62841 0.0
C1426 C 0.73207 0.78206 0.60987 0.0
C1427 C 0.73323 0.77285 0.55023 0.0
C1428 C 0.7133 0.76358 0.50913 0.0
C1429 C 0.69228 0.76341 0.52867 0.0
C1430 C 0.6906 0.77179 0.58727 0.0
C1431 C 0.66535 0.76784 0.59878 0.0
C1432 C 0.65333 0.75091 0.65528 0.0
C1433 C 0.66601 0.79223 0.60733 0.0
C1434 C 0.65304 0.75568 0.53782 0.0
C1435 C 0.66899 0.75376 0.4974 0.0
C1436 C 0.66163 0.74288 0.43854 0.0
C1437 C 0.6371 0.73307 0.42133 0.0
C1438 C 0.6203 0.73385 0.46346 0.0
C1439 C 0.62854 0.74571 0.52182 0.0
H1440 H 0.25397 0.98359 0.57252 0.0
H1441 H 0.20207 0.92499 0.69169 0.0
H1442 H 0.21439 0.89733 0.64553 0.0
H1443 H 0.24687 0.94558 0.43448 0.0
H1444 H 0.27881 0.96237 0.41528 0.0
H1445 H 0.26469 0.97746 0.4537 0.0
H1446 H 0.29659 0.99132 0.54315 0.0
H1447 H 0.31087 0.97644 0.50481 0.0
H1448 H 0.30069 0.96888 0.5848 0.0
H1449 H 0.23407 0.87683 0.59428 0.0
H1450 H 0.26134 0.86497 0.54228 0.0
H1451 H 0.30027 0.93579 0.45352 0.0
C1452 C 0.24501 0.96487 0.58837 0.0
C1453 C 0.227 0.95652 0.63579 0.0
C1454 C 0.21594 0.93193 0.65564 0.0
C1455 C 0.22269 0.91597 0.6294 0.0
C1456 C 0.24051 0.92477 0.5831 0.0
C1457 C 0.25159 0.94861 0.56268 0.0
C1458 C 0.27132 0.95365 0.51496 0.0
C1459 C 0.26503 0.96015 0.45079 0.0
C1460 C 0.29634 0.97376 0.53835 0.0
C1461 C 0.26993 0.92906 0.51305 0.0
C1462 C 0.2518 0.91265 0.55236 0.0
C1463 C 0.24801 0.88932 0.56245 0.0
C1464 C 0.2635 0.88272 0.5327 0.0
C1465 C 0.28236 0.89928 0.49302 0.0
C1466 C 0.2854 0.9226 0.4821 0.0
H1467 H 0.28137 0.06793 0.8893 0.0
H1468 H 0.30232 0.06088 0.70004 0.0
H1469 H 0.34517 0.07935 0.73469 0.0
H1470 H 0.33567 0.12609 0.92513 0.0
H1471 H 0.33656 0.11793 0.00568 0.0
H1472 H 0.30784 0.10538 0.96505 0.0
H1473 H 0.29896 0.06182 0.9916 0.0
H1474 H 0.3277 0.0742 0.03188 0.0
H1475 H 0.32058 0.05264 0.9691 0.0
H1476 H 0.385 0.09586 0.79148 0.0
H1477 H 0.41969 0.11147 0.86439 0.0
H1478 H 0.37295 0.10857 0.01683 0.0
C1479 C 0.29495 0.07045 0.85483 0.0
C1480 C 0.28844 0.0629 0.79183 0.0
C1481 C 0.30685 0.06659 0.74841 0.0
C1482 C 0.33122 0.07702 0.76771 0.0
C1483 C 0.33688 0.08383 0.8304 0.0
C1484 C 0.31932 0.08093 0.87316 0.0
C1485 C 0.3301 0.08933 0.93806 0.0
C1486 C 0.32739 0.11097 0.95974 0.0
C1487 C 0.31865 0.06824 0.98543 0.0
C1488 C 0.35647 0.09706 0.92541 0.0
C1489 C 0.35995 0.09372 0.863 0.0
C1490 C 0.38254 0.09875 0.8403 0.0
C1491 C 0.40212 0.10752 0.88233 0.0
C1492 C 0.39911 0.1113 0.94654 0.0
C1493 C 0.37592 0.10604 0.96809 0.0
H1494 H 0.95237 0.23152 0.8803 0.0
H1495 H 0.97168 0.26916 0.70123 0.0
H1496 H 0.95249 0.29301 0.73421 0.0
H1497 H 0.89353 0.22938 0.89831 0.0
H1498 H 0.8974 0.23409 0.98186 0.0
H1499 H 0.91066 0.21854 0.94171 0.0
H1500 H 0.953 0.24956 0.98675 0.0
H1501 H 0.93996 0.26535 0.0265 0.0
H1502 H 0.96503 0.28163 0.97318 0.0
H1503 H 0.93505 0.31546 0.79074 0.0
H1504 H 0.91816 0.33328 0.86359 0.0
H1505 H 0.90941 0.28033 0.00544 0.0
C1506 C 0.95227 0.24451 0.84749 0.0
C1507 C 0.96357 0.2485 0.78812 0.0
C1508 C 0.96303 0.26569 0.74675 0.0
C1509 C 0.95222 0.27935 0.76515 0.0
C1510 C 0.94181 0.27536 0.82467 0.0
C1511 C 0.94146 0.25814 0.8649 0.0
C1512 C 0.92995 0.25801 0.92722 0.0
C1513 C 0.90649 0.23355 0.93788 0.0
C1514 C 0.94807 0.264 0.9816 0.0
C1515 C 0.92444 0.27834 0.91646 0.0
C1516 C 0.93137 0.28805 0.85694 0.0
C1517 C 0.92927 0.30781 0.83713 0.0
C1518 C 0.91978 0.31789 0.87912 0.0
C1519 C 0.91241 0.30818 0.94032 0.0
C1520 C 0.91466 0.28802 0.95888 0.0
H1521 H 0.74826 0.71448 0.77546 0.0
H1522 H 0.80919 0.75469 0.90173 0.0
H1523 H 0.79687 0.71743 0.96338 0.0
H1524 H 0.70614 0.67988 0.89275 0.0
H1525 H 0.69026 0.6521 0.84814 0.0
H1526 H 0.70534 0.68098 0.80833 0.0
H1527 H 0.73038 0.66678 0.74304 0.0
H1528 H 0.7152 0.63773 0.78229 0.0
H1529 H 0.74797 0.6556 0.78272 0.0
H1530 H 0.77681 0.67763 0.01586 0.0
H1531 H 0.75007 0.63655 0.05714 0.0
H1532 H 0.70067 0.62112 0.89996 0.0
C1533 C 0.75925 0.71512 0.81512 0.0
C1534 C 0.77981 0.73721 0.83372 0.0
C1535 C 0.79348 0.73777 0.88681 0.0
C1536 C 0.78665 0.71675 0.92199 0.0
C1537 C 0.76598 0.69533 0.90369 0.0
C1538 C 0.75244 0.69421 0.85153 0.0
C1539 C 0.73001 0.66913 0.84544 0.0
C1540 C 0.70656 0.67063 0.84889 0.0
C1541 C 0.73095 0.65657 0.78477 0.0
C1542 C 0.73289 0.65665 0.90294 0.0
C1543 C 0.75393 0.67211 0.93528 0.0
C1544 C 0.76037 0.66522 0.99074 0.0
C1545 C 0.74496 0.64181 0.01391 0.0
C1546 C 0.72319 0.62548 0.98192 0.0
C1547 C 0.71717 0.63309 0.92551 0.0
H1548 H 0.88735 0.6218 0.42225 0.0
H1549 H 0.91501 0.64267 0.61206 0.0
H1550 H 0.93702 0.68583 0.57981 0.0
H1551 H 0.94037 0.66334 0.34384 0.0
H1552 H 0.92518 0.66995 0.28185 0.0
H1553 H 0.90989 0.6409 0.32076 0.0
H1554 H 0.87397 0.64768 0.3487 0.0
H1555 H 0.8891 0.67674 0.30951 0.0
H1556 H 0.87989 0.67487 0.3902 0.0
H1557 H 0.95928 0.7257 0.52507 0.0
H1558 H 0.97866 0.76058 0.4528 0.0
H1559 H 0.93531 0.71441 0.29887 0.0
C1560 C 0.8978 0.63545 0.4573 0.0
C1561 C 0.89953 0.62886 0.51972 0.0
C1562 C 0.91335 0.64729 0.5641 0.0
C1563 C 0.92591 0.67184 0.54621 0.0
C1564 C 0.92416 0.67763 0.48407 0.0
C1565 C 0.91022 0.66003 0.44043 0.0
C1566 C 0.91209 0.67106 0.37615 0.0
C1567 C 0.92251 0.6607 0.32783 0.0
C1568 C 0.88728 0.66737 0.35491 0.0
C1569 C 0.92987 0.69759 0.39005 0.0
C1570 C 0.93652 0.70091 0.45267 0.0
C1571 C 0.95394 0.72342 0.4762 0.0
C1572 C 0.96494 0.74306 0.43467 0.0
C1573 C 0.95839 0.74015 0.37037 0.0
C1574 C 0.94037 0.71718 0.34797 0.0
H1575 H 0.27722 0.25395 0.3907 0.0
H1576 H 0.29271 0.2275 0.21895 0.0
H1577 H 0.33462 0.24185 0.25604 0.0
H1578 H 0.33551 0.30776 0.40794 0.0
H1579 H 0.33625 0.30541 0.49207 0.0
H1580 H 0.30749 0.29317 0.45185 0.0
H1581 H 0.29336 0.25106 0.50264 0.0
H1582 H 0.32214 0.26312 0.54272 0.0
H1583 H 0.31158 0.23676 0.493 0.0
H1584 H 0.3749 0.26036 0.30901 0.0
H1585 H 0.41136 0.28127 0.37619 0.0
H1586 H 0.3694 0.29369 0.51683 0.0
C1587 C 0.28948 0.25131 0.36072 0.0
C1588 C 0.2818 0.23976 0.30173 0.0
C1589 C 0.29824 0.23632 0.26426 0.0
C1590 C 0.32205 0.24438 0.28493 0.0
C1591 C 0.32897 0.25554 0.34347 0.0
C1592 C 0.31319 0.25891 0.38103 0.0
C1593 C 0.32522 0.27124 0.44224 0.0
C1594 C 0.32618 0.29585 0.44888 0.0
C1595 C 0.3123 0.25454 0.49847 0.0
C1596 C 0.35037 0.27459 0.43277 0.0
C1597 C 0.35209 0.26544 0.37532 0.0
C1598 C 0.37375 0.2674 0.35431 0.0
C1599 C 0.39432 0.27933 0.39267 0.0
C1600 C 0.39301 0.28888 0.45162 0.0
C1601 C 0.37069 0.28616 0.47238 0.0
H1602 H 0.77564 0.0553 0.41085 0.0
H1603 H 0.79902 0.09639 0.23695 0.0
H1604 H 0.78169 0.12147 0.27175 0.0
H1605 H 0.71907 0.05455 0.42498 0.0
H1606 H 0.72087 0.05836 0.50894 0.0
H1607 H 0.73553 0.04369 0.47127 0.0
H1608 H 0.77659 0.07481 0.52229 0.0
H1609 H 0.76207 0.08964 0.55995 0.0
H1610 H 0.78827 0.10692 0.51068 0.0
H1611 H 0.76026 0.14053 0.32103 0.0
H1612 H 0.73637 0.15356 0.38466 0.0
H1613 H 0.72833 0.10221 0.53011 0.0
C1614 C 0.77709 0.06957 0.38016 0.0
C1615 C 0.78866 0.07383 0.32108 0.0
C1616 C 0.79033 0.09279 0.28244 0.0
C1617 C 0.78055 0.10717 0.30176 0.0
C1618 C 0.76936 0.10257 0.36014 0.0
C1619 C 0.76765 0.08436 0.39906 0.0
C1620 C 0.7545 0.08331 0.45942 0.0
C1621 C 0.7311 0.0585 0.46654 0.0
C1622 C 0.77137 0.08901 0.51646 0.0
C1623 C 0.74879 0.10352 0.44767 0.0
C1624 C 0.75755 0.11429 0.38994 0.0
C1625 C 0.75352 0.13246 0.3666 0.0
C1626 C 0.73991 0.13967 0.40291 0.0
C1627 C 0.73077 0.12896 0.46215 0.0
C1628 C 0.73554 0.11091 0.48535 0.0
H1629 H 0.64498 0.91366 0.97152 0.0
H1630 H 0.59968 0.89924 0.13589 0.0
H1631 H 0.63608 0.91594 0.20379 0.0
H1632 H 0.69209 0.90263 0.0453 0.0
H1633 H 0.71657 0.92753 0.00354 0.0
H1634 H 0.68672 0.911 0.96859 0.0
H1635 H 0.68638 0.9514 0.95442 0.0
H1636 H 0.71607 0.968 0.98981 0.0
H1637 H 0.69108 0.97046 0.02173 0.0
H1638 H 0.67727 0.93739 0.25311 0.0
H1639 H 0.72078 0.96274 0.28046 0.0
H1640 H 0.73975 0.96502 0.08392 0.0
C1641 C 0.64279 0.91334 0.02192 0.0
C1642 C 0.61961 0.90485 0.04881 0.0
C1643 C 0.61735 0.90549 0.11471 0.0
C1644 C 0.63788 0.9149 0.1536 0.0
C1645 C 0.66061 0.9238 0.1258 0.0
C1646 C 0.66324 0.92312 0.06151 0.0
C1647 C 0.68992 0.93607 0.04341 0.0
C1648 C 0.69672 0.91824 0.01345 0.0
C1649 C 0.69622 0.95777 0.99978 0.0
C1650 C 0.70174 0.94452 0.10729 0.0
C1651 C 0.68452 0.93696 0.15423 0.0
C1652 C 0.69098 0.94324 0.21684 0.0
C1653 C 0.71574 0.95769 0.23192 0.0
C1654 C 0.73374 0.96593 0.18448 0.0
C1655 C 0.7265 0.95905 0.12143 0.0
H1656 H 0.06278 0.7935 0.08321 0.0
H1657 H 0.05592 0.76629 0.27344 0.0
H1658 H 0.07743 0.74454 0.2425 0.0
H1659 H 0.05254 0.74049 0.00509 0.0
H1660 H 0.07459 0.75598 0.944 0.0
H1661 H 0.06013 0.7708 0.98172 0.0
H1662 H 0.10236 0.80725 0.0111 0.0
H1663 H 0.117 0.79257 0.97324 0.0
H1664 H 0.12372 0.80186 0.05409 0.0
H1665 H 0.09548 0.72261 0.18948 0.0
H1666 H 0.11183 0.70359 0.11867 0.0
H1667 H 0.10952 0.74665 0.96348 0.0
C1668 C 0.06599 0.78314 0.1185 0.0
C1669 C 0.05761 0.7815 0.18073 0.0
C1670 C 0.06226 0.76786 0.2256 0.0
C1671 C 0.07444 0.75544 0.20848 0.0
C1672 C 0.08217 0.75719 0.14662 0.0
C1673 C 0.07843 0.77091 0.10244 0.0
C1674 C 0.08812 0.76925 0.03877 0.0
C1675 C 0.06762 0.75848 0.98951 0.0
C1676 C 0.10905 0.79422 0.0181 0.0
C1677 C 0.09726 0.75185 0.05371 0.0
C1678 C 0.09359 0.74517 0.11628 0.0
C1679 C 0.09883 0.72798 0.1407 0.0
C1680 C 0.10797 0.71721 0.10009 0.0
C1681 C 0.11202 0.72384 0.03597 0.0
C1682 C 0.10694 0.74163 0.0126 0.0
H1683 H 0.25548 0.30992 0.20203 0.0
H1684 H 0.18927 0.27814 0.09084 0.0
H1685 H 0.20402 0.31701 0.03496 0.0
H1686 H 0.26458 0.37245 0.21112 0.0
H1687 H 0.29715 0.3866 0.20305 0.0
H1688 H 0.2802 0.35721 0.24004 0.0
H1689 H 0.29833 0.33953 0.1611 0.0
H1690 H 0.31515 0.36876 0.12356 0.0
H1691 H 0.29476 0.34234 0.07814 0.0
H1692 H 0.22668 0.35769 0.98578 0.0
H1693 H 0.25622 0.39831 0.94555 0.0
H1694 H 0.30876 0.40399 0.08545 0.0
C1695 C 0.24391 0.31144 0.16705 0.0
C1696 C 0.22118 0.29117 0.15097 0.0
C1697 C 0.20674 0.29352 0.10379 0.0
C1698 C 0.21491 0.31552 0.07194 0.0
C1699 C 0.23765 0.33499 0.08753 0.0
C1700 C 0.25199 0.33328 0.13395 0.0
C1701 C 0.27649 0.35649 0.13782 0.0
C1702 C 0.27979 0.36892 0.20181 0.0
C1703 C 0.29741 0.35147 0.12433 0.0
C1704 C 0.27376 0.37121 0.08561 0.0
C1705 C 0.2511 0.35852 0.0578 0.0
C1706 C 0.24444 0.36794 0.00745 0.0
C1707 C 0.26141 0.39103 0.98482 0.0
C1708 C 0.28486 0.4044 0.0122 0.0
C1709 C 0.29099 0.39429 0.06346 0.0
H1710 H 0.95863 0.40711 0.23117 0.0
H1711 H 0.97949 0.39949 0.04249 0.0
H1712 H 0.02232 0.41728 0.07764 0.0
H1713 H 0.01368 0.46503 0.26641 0.0
H1714 H 0.01408 0.45696 0.34729 0.0
H1715 H 0.98556 0.44488 0.30595 0.0
H1716 H 0.97564 0.40111 0.334 0.0
H1717 H 0.00424 0.413 0.37474 0.0
H1718 H 0.99677 0.39116 0.3125 0.0
H1719 H 0.06202 0.4324 0.13623 0.0
H1720 H 0.09649 0.44784 0.21034 0.0
H1721 H 0.04969 0.44704 0.3598 0.0
C1722 C 0.97224 0.40943 0.19697 0.0
C1723 C 0.96576 0.40186 0.13408 0.0
C1724 C 0.98411 0.40532 0.09076 0.0
C1725 C 0.00842 0.41527 0.11041 0.0
C1726 C 0.01405 0.42198 0.17321 0.0
C1727 C 0.99654 0.41958 0.21555 0.0
C1728 C 0.0072 0.42799 0.28046 0.0
C1729 C 0.005 0.45003 0.30123 0.0
C1730 C 0.99525 0.40706 0.32822 0.0
C1731 C 0.03343 0.43509 0.26846 0.0
C1732 C 0.03699 0.43137 0.20639 0.0
C1733 C 0.05949 0.43566 0.18472 0.0
C1734 C 0.07893 0.44427 0.22736 0.0
C1735 C 0.07583 0.44873 0.29093 0.0
C1736 C 0.05271 0.44401 0.31148 0.0
H1737 H 0.6099 0.56405 0.22403 0.0
H1738 H 0.6216 0.59577 0.03792 0.0
H1739 H 0.60201 0.61927 0.07111 0.0
H1740 H 0.55069 0.55907 0.25078 0.0
H1741 H 0.55669 0.56647 0.33286 0.0
H1742 H 0.57047 0.5513 0.29327 0.0
H1743 H 0.61316 0.58554 0.32816 0.0
H1744 H 0.59955 0.60087 0.36759 0.0
H1745 H 0.62266 0.61673 0.30903 0.0
H1746 H 0.58389 0.6415 0.12722 0.0
H1747 H 0.56675 0.65926 0.19982 0.0
H1748 H 0.56586 0.61204 0.34853 0.0
C1749 C 0.60818 0.57576 0.18991 0.0
C1750 C 0.61735 0.57808 0.12827 0.0
C1751 C 0.61465 0.5936 0.08525 0.0
C1752 C 0.60359 0.60705 0.10374 0.0
C1753 C 0.5951 0.60458 0.16516 0.0
C1754 C 0.59706 0.58913 0.20739 0.0
C1755 C 0.58692 0.59008 0.27098 0.0
C1756 C 0.56488 0.56525 0.28795 0.0
C1757 C 0.60676 0.59883 0.32192 0.0
C1758 C 0.57934 0.60884 0.25837 0.0
C1759 C 0.58422 0.61698 0.19705 0.0
C1760 C 0.57977 0.63507 0.17511 0.0
C1761 C 0.57011 0.64512 0.21687 0.0
C1762 C 0.56485 0.637 0.27991 0.0
C1763 C 0.56941 0.61847 0.30054 0.0
H1764 H 0.41118 0.97699 0.35018 0.0
H1765 H 0.35655 0.93226 0.21224 0.0
H1766 H 0.3752 0.96601 0.13597 0.0
H1767 H 0.41216 0.03198 0.31215 0.0
H1768 H 0.44441 0.051 0.32541 0.0
H1769 H 0.4276 0.02273 0.36722 0.0
H1770 H 0.45724 0.00896 0.32579 0.0
H1771 H 0.47399 0.03712 0.28325 0.0
H1772 H 0.46179 0.00848 0.24249 0.0
H1773 H 0.39968 0.00512 0.0749 0.0
H1774 H 0.42518 0.0477 0.03872 0.0
H1775 H 0.46271 0.06664 0.21796 0.0
C1776 C 0.4032 0.97422 0.30384 0.0
C1777 C 0.38246 0.95194 0.28717 0.0
C1778 C 0.37241 0.94919 0.22622 0.0
C1779 C 0.38298 0.96819 0.18236 0.0
C1780 C 0.40352 0.98987 0.20022 0.0
C1781 C 0.41335 0.99304 0.25975 0.0
C1782 C 0.43455 0.01857 0.26857 0.0
C1783 C 0.42935 0.03185 0.32145 0.0
C1784 C 0.45829 0.01825 0.28073 0.0
C1785 C 0.43489 0.02936 0.20503 0.0
C1786 C 0.41715 0.01245 0.16579 0.0
C1787 C 0.41371 0.0185 0.10515 0.0
C1788 C 0.42835 0.04266 0.08484 0.0
C1789 C 0.44588 0.06044 0.12551 0.0
C1790 C 0.44945 0.05345 0.18576 0.0
H1791 H 0.57187 0.96356 0.76594 0.0
H1792 H 0.61374 0.98288 0.93859 0.0
H1793 H 0.63872 0.02526 0.90058 0.0
H1794 H 0.62034 0.00106 0.66133 0.0
H1795 H 0.60214 0.00954 0.61416 0.0
H1796 H 0.58797 0.98072 0.65436 0.0
H1797 H 0.55827 0.99168 0.70917 0.0
H1798 H 0.57229 0.02051 0.66901 0.0
H1799 H 0.57032 0.01957 0.75338 0.0
H1800 H 0.66023 0.06461 0.84141 0.0
H1801 H 0.6745 0.09975 0.77018 0.0
H1802 H 0.61644 0.05561 0.63937 0.0
C1803 C 0.58638 0.97672 0.79559 0.0
C1804 C 0.59114 0.97003 0.85487 0.0
C1805 C 0.6099 0.98775 0.893 0.0
C1806 C 0.62418 0.01176 0.87172 0.0
C1807 C 0.61908 0.01774 0.81283 0.0
C1808 C 0.6004 0.00083 0.77571 0.0
C1809 C 0.5981 0.01216 0.71538 0.0
C1810 C 0.6024 0.00016 0.65792 0.0
C1811 C 0.57327 0.01091 0.71154 0.0
C1812 C 0.61862 0.03807 0.72396 0.0
C1813 C 0.63065 0.04079 0.78018 0.0
C1814 C 0.65083 0.06277 0.79758 0.0
C1815 C 0.65885 0.08257 0.75665 0.0
C1816 C 0.64649 0.08037 0.69945 0.0
C1817 C 0.62606 0.05783 0.68309 0.0
H1818 H 0.03897 0.63605 0.87534 0.0
H1819 H 0.07787 0.61311 0.75114 0.0
H1820 H 0.04068 0.58929 0.68868 0.0
H1821 H 0.97948 0.57882 0.86818 0.0
H1822 H 0.96222 0.59437 0.8673 0.0
H1823 H 0.99126 0.60786 0.9067 0.0
H1824 H 0.0063 0.64688 0.83979 0.0
H1825 H 0.97741 0.63344 0.79984 0.0
H1826 H 0.00513 0.64455 0.75545 0.0
H1827 H 0.0011 0.57017 0.63625 0.0
H1828 H 0.95995 0.55579 0.59542 0.0
H1829 H 0.94548 0.59147 0.74991 0.0
C1830 C 0.03936 0.62558 0.83574 0.0
C1831 C 0.06114 0.62625 0.81798 0.0
C1832 C 0.0613 0.61281 0.76522 0.0
C1833 C 0.04029 0.59919 0.72958 0.0
C1834 C 0.01926 0.59931 0.74704 0.0
C1835 C 0.01846 0.61204 0.79875 0.0
C1836 C 0.99364 0.61004 0.80424 0.0
C1837 C 0.9809 0.59699 0.86523 0.0
C1838 C 0.99576 0.63523 0.79954 0.0
C1839 C 0.98091 0.59451 0.74713 0.0
C1840 C 0.99609 0.58844 0.71539 0.0
C1841 C 0.98892 0.57462 0.66079 0.0
C1842 C 0.96546 0.56659 0.63793 0.0
C1843 C 0.94939 0.57246 0.66937 0.0
C1844 C 0.95731 0.58668 0.72474 0.0
H1845 H 0.43873 0.40661 0.63566 0.0
H1846 H 0.41911 0.34622 0.76316 0.0
H1847 H 0.4013 0.36319 0.83609 0.0
H1848 H 0.45382 0.45309 0.75209 0.0
H1849 H 0.44043 0.46802 0.70933 0.0
H1850 H 0.45245 0.45164 0.66764 0.0
H1851 H 0.4108 0.42541 0.61257 0.0
H1852 H 0.39871 0.44181 0.65378 0.0
H1853 H 0.38368 0.40911 0.6594 0.0
H1854 H 0.38704 0.38738 0.89715 0.0
H1855 H 0.37289 0.41489 0.93652 0.0
H1856 H 0.39909 0.45783 0.76632 0.0
C1857 C 0.4307 0.39703 0.67896 0.0
C1858 C 0.43035 0.37518 0.69391 0.0
C1859 C 0.41944 0.36295 0.75065 0.0
C1860 C 0.40942 0.37249 0.79258 0.0
C1861 C 0.41014 0.39411 0.77669 0.0
C1862 C 0.42014 0.40604 0.72087 0.0
C1863 C 0.41749 0.42836 0.71392 0.0
C1864 C 0.44254 0.45165 0.71056 0.0
C1865 C 0.40172 0.42602 0.65652 0.0
C1866 C 0.40454 0.42709 0.77461 0.0
C1867 C 0.4008 0.40741 0.81058 0.0
C1868 C 0.3897 0.40278 0.86927 0.0
C1869 C 0.38183 0.41852 0.89136 0.0
C1870 C 0.38478 0.4383 0.85424 0.0
C1871 C 0.3964 0.44266 0.79536 0.0
loop_
_geom_bond_atom_site_label_1
_geom_bond_atom_site_label_2
_geom_bond_distance
_geom_bond_site_symmetry_2
_ccdc_geom_bond_type
O0 Zn1 1.953 1_455 S
O0 C16 1.225 . S
Zn1 O0 1.953 1_655 S
Zn1 O2 1.949 1_655 S
Zn1 O8 1.919 . S
Zn1 O13 1.924 . S
O2 Zn1 1.949 1_455 S
O2 Zn3 1.923 . S
O2 Zn4 1.950 . S
O2 Zn5 1.946 . S
Zn3 O2 1.923 . S
Zn3 O6 1.933 1_455 S
Zn3 O9 1.941 1_455 S
Zn3 O10 1.965 . S
Zn4 O2 1.950 . S
Zn4 O11 1.938 . S
Zn4 O12 1.906 . S
Zn4 O22 1.953 . S
Zn5 O2 1.946 . S
Zn5 O7 1.932 1_455 S
Zn5 O14 1.980 . S
Zn5 O15 1.906 1_455 S
O6 Zn3 1.933 1_655 S
O6 C17 1.226 . S
O7 Zn5 1.932 1_655 S
O7 C17 1.307 . S
O8 Zn1 1.919 . S
O8 C19 1.253 . S
O9 Zn3 1.941 1_655 S
O9 C19 1.283 . S
O10 Zn3 1.965 . S
O10 C18 1.303 . S
O11 Zn4 1.938 . S
O11 C18 1.247 . S
O12 Zn4 1.906 . S
O12 C20 1.304 . S
O13 Zn1 1.924 . S
O13 C21 1.311 . S
O14 Zn5 1.980 . S
O14 C20 1.272 . S
O15 Zn5 1.906 1_655 S
O15 C21 1.231 . S
C16 O0 1.225 . S
C16 O22 1.298 . S
C17 O6 1.226 . S
C17 O7 1.307 . S
C18 O10 1.303 . S
C18 O11 1.247 . S
C19 O8 1.253 . S
C19 O9 1.283 . S
C20 O12 1.304 . S
C20 O14 1.272 . S
C21 O13 1.311 . S
C21 O15 1.231 . S
O22 Zn4 1.953 . S
O22 C16 1.298 . S
O23 Zn24 1.953 . S
O23 C39 1.225 . S
Zn24 O23 1.953 . S
Zn24 O25 1.949 . S
Zn24 O31 1.919 . S
Zn24 O36 1.924 . S
O25 Zn24 1.949 . S
O25 Zn26 1.923 . S
O25 Zn27 1.950 . S
O25 Zn28 1.945 . S
Zn26 O25 1.923 . S
Zn26 O29 1.933 . S
Zn26 O32 1.941 . S
Zn26 O33 1.965 . S
Zn27 O25 1.950 . S
Zn27 O34 1.938 . S
Zn27 O35 1.906 . S
Zn27 O45 1.953 . S
Zn28 O25 1.945 . S
Zn28 O30 1.932 . S
Zn28 O37 1.977 . S
Zn28 O38 1.910 . S
O29 Zn26 1.933 . S
O29 C40 1.226 . S
O30 Zn28 1.932 . S
O30 C40 1.307 . S
O31 Zn24 1.919 . S
O31 C42 1.253 . S
O32 Zn26 1.941 . S
O32 C42 1.283 . S
O33 Zn26 1.965 . S
O33 C41 1.303 . S
O34 Zn27 1.938 . S
O34 C41 1.247 . S
O35 Zn27 1.906 . S
O35 C43 1.304 . S
O36 Zn24 1.924 . S
O36 C44 1.311 . S
O37 Zn28 1.977 . S
O37 C43 1.272 . S
O38 Zn28 1.910 . S
O38 C44 1.231 . S
C39 O23 1.225 . S
C39 O45 1.298 . S
C40 O29 1.226 . S
C40 O30 1.307 . S
C41 O33 1.303 . S
C41 O34 1.247 . S
C42 O31 1.253 . S
C42 O32 1.283 . S
C43 O35 1.304 . S
C43 O37 1.272 . S
C44 O36 1.311 . S
C44 O38 1.231 . S
O45 Zn27 1.953 . S
O45 C39 1.298 . S
O46 Zn47 1.953 . S
O46 C62 1.225 1_545 S
Zn47 O46 1.953 . S
Zn47 O48 1.949 . S
Zn47 O54 1.919 . S
Zn47 O59 1.924 . S
O48 Zn47 1.949 . S
O48 Zn49 1.923 . S
O48 Zn50 1.950 1_545 S
O48 Zn51 1.945 . S
Zn49 O48 1.923 . S
Zn49 O52 1.933 . S
Zn49 O55 1.941 . S
Zn49 O56 1.965 1_545 S
Zn50 O48 1.950 1_565 S
Zn50 O57 1.938 . S
Zn50 O58 1.906 . S
Zn50 O68 1.953 . S
Zn51 O48 1.945 . S
Zn51 O53 1.932 . S
Zn51 O60 1.977 1_545 S
Zn51 O61 1.910 . S
O52 Zn49 1.933 . S
O52 C63 1.226 . S
O53 Zn51 1.932 . S
O53 C63 1.307 . S
O54 Zn47 1.919 . S
O54 C65 1.253 . S
O55 Zn49 1.941 . S
O55 C65 1.283 . S
O56 Zn49 1.965 1_565 S
O56 C64 1.303 . S
O57 Zn50 1.938 . S
O57 C64 1.247 . S
O58 Zn50 1.906 . S
O58 C66 1.304 . S
O59 Zn47 1.924 . S
O59 C67 1.311 . S
O60 Zn51 1.977 1_565 S
O60 C66 1.272 . S
O61 Zn51 1.910 . S
O61 C67 1.231 . S
C62 O46 1.225 1_565 S
C62 O68 1.298 . S
C63 O52 1.226 . S
C63 O53 1.307 . S
C64 O56 1.303 . S
C64 O57 1.247 . S
C65 O54 1.253 . S
C65 O55 1.283 . S
C66 O58 1.304 . S
C66 O60 1.272 . S
C67 O59 1.311 . S
C67 O61 1.231 . S
O68 Zn50 1.953 . S
O68 C62 1.298 . S
O69 Zn70 1.953 . S
O69 C85 1.225 . S
Zn70 O69 1.953 . S
Zn70 O71 1.949 . S
Zn70 O77 1.919 . S
Zn70 O82 1.924 . S
O71 Zn70 1.949 . S
O71 Zn72 1.923 . S
O71 Zn73 1.950 . S
O71 Zn74 1.945 1_455 S
Zn72 O71 1.923 . S
Zn72 O75 1.933 . S
Zn72 O78 1.941 . S
Zn72 O79 1.965 . S
Zn73 O71 1.950 . S
Zn73 O80 1.938 . S
Zn73 O81 1.906 1_455 S
Zn73 O91 1.953 . S
Zn74 O71 1.945 1_655 S
Zn74 O76 1.932 . S
Zn74 O83 1.977 . S
Zn74 O84 1.910 . S
O75 Zn72 1.933 . S
O75 C86 1.226 1_455 S
O76 Zn74 1.932 . S
O76 C86 1.307 . S
O77 Zn70 1.919 . S
O77 C88 1.253 . S
O78 Zn72 1.941 . S
O78 C88 1.283 . S
O79 Zn72 1.965 . S
O79 C87 1.303 . S
O80 Zn73 1.938 . S
O80 C87 1.247 . S
O81 Zn73 1.906 1_655 S
O81 C89 1.304 . S
O82 Zn70 1.924 . S
O82 C90 1.311 1_455 S
O83 Zn74 1.977 . S
O83 C89 1.272 . S
O84 Zn74 1.910 . S
O84 C90 1.231 . S
C85 O69 1.225 . S
C85 O91 1.298 . S
C86 O75 1.226 1_655 S
C86 O76 1.307 . S
C87 O79 1.303 . S
C87 O80 1.247 . S
C88 O77 1.253 . S
C88 O78 1.283 . S
C89 O81 1.304 . S
C89 O83 1.272 . S
C90 O82 1.311 1_655 S
C90 O84 1.231 . S
O91 Zn73 1.953 . S
O91 C85 1.298 . S
O92 Zn93 1.953 . S
O92 C108 1.225 . S
Zn93 O92 1.953 . S
Zn93 O94 1.949 . S
Zn93 O100 1.919 . S
Zn93 O105 1.924 . S
O94 Zn93 1.949 . S
O94 Zn95 1.923 . S
O94 Zn96 1.950 . S
O94 Zn97 1.945 . S
Zn95 O94 1.923 . S
Zn95 O98 1.933 . S
Zn95 O101 1.941 . S
Zn95 O102 1.965 . S
Zn96 O94 1.950 . S
Zn96 O103 1.938 . S
Zn96 O104 1.906 . S
Zn96 O114 1.953 . S
Zn97 O94 1.945 . S
Zn97 O99 1.932 . S
Zn97 O106 1.977 . S
Zn97 O107 1.910 . S
O98 Zn95 1.933 . S
O98 C109 1.226 . S
O99 Zn97 1.932 . S
O99 C109 1.307 . S
O100 Zn93 1.919 . S
O100 C111 1.253 . S
O101 Zn95 1.941 . S
O101 C111 1.283 . S
O102 Zn95 1.965 . S
O102 C110 1.303 . S
O103 Zn96 1.938 . S
O103 C110 1.247 . S
O104 Zn96 1.906 . S
O104 C112 1.304 . S
O105 Zn93 1.924 . S
O105 C113 1.311 . S
O106 Zn97 1.977 . S
O106 C112 1.272 . S
O107 Zn97 1.910 . S
O107 C113 1.231 . S
C108 O92 1.225 . S
C108 O114 1.298 . S
C109 O98 1.226 . S
C109 O99 1.307 . S
C110 O102 1.303 . S
C110 O103 1.247 . S
C111 O100 1.253 . S
C111 O101 1.283 . S
C112 O104 1.304 . S
C112 O106 1.272 . S
C113 O105 1.311 . S
C113 O107 1.231 . S
O114 Zn96 1.953 . S
O114 C108 1.298 . S
O115 Zn116 1.953 . S
O115 C131 1.225 . S
Zn116 O115 1.953 . S
Zn116 O117 1.949 1_565 S
Zn116 O123 1.919 . S
Zn116 O128 1.924 1_565 S
O117 Zn116 1.949 1_545 S
O117 Zn118 1.909 1_545 S
O117 Zn119 1.950 . S
O117 Zn120 1.945 . S
Zn118 O117 1.909 1_565 S
Zn118 O121 1.929 1_565 S
Zn118 O124 1.952 . S
Zn118 O125 1.977 . S
Zn119 O117 1.950 . S
Zn119 O126 1.938 1_545 S
Zn119 O127 1.906 . S
Zn119 O137 1.953 1_545 S
Zn120 O117 1.945 . S
Zn120 O122 1.932 . S
Zn120 O129 1.977 . S
Zn120 O130 1.910 . S
O121 Zn118 1.929 1_545 S
O121 C132 1.226 . S
O122 Zn120 1.932 . S
O122 C132 1.307 . S
O123 Zn116 1.919 . S
O123 C134 1.253 . S
O124 Zn118 1.952 . S
O124 C134 1.283 . S
O125 Zn118 1.977 . S
O125 C133 1.303 . S
O126 Zn119 1.938 1_565 S
O126 C133 1.247 . S
O127 Zn119 1.906 . S
O127 C135 1.304 . S
O128 Zn116 1.924 1_545 S
O128 C136 1.311 . S
O129 Zn120 1.977 . S
O129 C135 1.272 . S
O130 Zn120 1.910 . S
O130 C136 1.231 . S
C131 O115 1.225 . S
C131 O137 1.298 . S
C132 O121 1.226 . S
C132 O122 1.307 . S
C133 O125 1.303 . S
C133 O126 1.247 . S
C134 O123 1.253 . S
C134 O124 1.283 . S
C135 O127 1.304 . S
C135 O129 1.272 . S
C136 O128 1.311 . S
C136 O130 1.231 . S
O137 Zn119 1.953 1_565 S
O137 C131 1.298 . S
O138 Zn139 1.953 1_556 S
O138 C154 1.225 1_556 S
Zn139 O138 1.953 1_554 S
Zn139 O140 1.949 . S
Zn139 O146 1.919 1_554 S
Zn139 O151 1.924 . S
O140 Zn139 1.949 . S
O140 Zn141 1.923 . S
O140 Zn142 1.950 . S
O140 Zn143 1.945 . S
Zn141 O140 1.923 . S
Zn141 O144 1.933 . S
Zn141 O147 1.941 1_554 S
Zn141 O148 1.965 . S
Zn142 O140 1.950 . S
Zn142 O149 1.938 . S
Zn142 O150 1.906 . S
Zn142 O160 1.953 . S
Zn143 O140 1.945 . S
Zn143 O145 1.932 . S
Zn143 O152 1.977 . S
Zn143 O153 1.910 . S
O144 Zn141 1.933 . S
O144 C155 1.226 . S
O145 Zn143 1.932 . S
O145 C155 1.307 . S
O146 Zn139 1.919 1_556 S
O146 C157 1.253 . S
O147 Zn141 1.941 1_556 S
O147 C157 1.283 . S
O148 Zn141 1.965 . S
O148 C156 1.303 1_554 S
O149 Zn142 1.938 . S
O149 C156 1.247 1_554 S
O150 Zn142 1.906 . S
O150 C158 1.304 . S
O151 Zn139 1.924 . S
O151 C159 1.311 . S
O152 Zn143 1.977 . S
O152 C158 1.272 . S
O153 Zn143 1.910 . S
O153 C159 1.231 . S
C154 O138 1.225 1_554 S
C154 O160 1.298 . S
C155 O144 1.226 . S
C155 O145 1.307 . S
C156 O148 1.303 1_556 S
C156 O149 1.247 1_556 S
C157 O146 1.253 . S
C157 O147 1.283 . S
C158 O150 1.304 . S
C158 O152 1.272 . S
C159 O151 1.311 . S
C159 O153 1.231 . S
O160 Zn142 1.953 . S
O160 C154 1.298 . S
O161 Zn162 1.953 1_556 S
O161 C177 1.225 1_556 S
Zn162 O161 1.953 1_554 S
Zn162 O163 1.949 . S
Zn162 O169 1.919 1_554 S
Zn162 O174 1.924 . S
O163 Zn162 1.949 . S
O163 Zn164 1.923 . S
O163 Zn165 1.950 . S
O163 Zn166 1.945 . S
Zn164 O163 1.923 . S
Zn164 O167 1.933 . S
Zn164 O170 1.941 1_554 S
Zn164 O171 1.965 . S
Zn165 O163 1.950 . S
Zn165 O172 1.938 . S
Zn165 O173 1.906 . S
Zn165 O183 1.953 . S
Zn166 O163 1.945 . S
Zn166 O168 1.932 . S
Zn166 O175 1.977 . S
Zn166 O176 1.910 . S
O167 Zn164 1.933 . S
O167 C178 1.226 . S
O168 Zn166 1.932 . S
O168 C178 1.307 . S
O169 Zn162 1.919 1_556 S
O169 C180 1.253 . S
O170 Zn164 1.941 1_556 S
O170 C180 1.283 . S
O171 Zn164 1.965 . S
O171 C179 1.303 1_554 S
O172 Zn165 1.938 . S
O172 C179 1.247 1_554 S
O173 Zn165 1.906 . S
O173 C181 1.304 . S
O174 Zn162 1.924 . S
O174 C182 1.311 . S
O175 Zn166 1.977 . S
O175 C181 1.272 . S
O176 Zn166 1.910 . S
O176 C182 1.231 . S
C177 O161 1.225 1_554 S
C177 O183 1.298 . S
C178 O167 1.226 . S
C178 O168 1.307 . S
C179 O171 1.303 1_556 S
C179 O172 1.247 1_556 S
C180 O169 1.253 . S
C180 O170 1.283 . S
C181 O173 1.304 . S
C181 O175 1.272 . S
C182 O174 1.311 . S
C182 O176 1.231 . S
O183 Zn165 1.953 . S
O183 C177 1.298 . S
O184 Zn185 1.953 1_556 S
O184 C200 1.225 1_556 S
Zn185 O184 1.953 1_554 S
Zn185 O186 1.949 . S
Zn185 O192 1.919 1_554 S
Zn185 O197 1.924 . S
O186 Zn185 1.949 . S
O186 Zn187 1.923 . S
O186 Zn188 1.950 . S
O186 Zn189 1.945 . S
Zn187 O186 1.923 . S
Zn187 O190 1.933 . S
Zn187 O193 1.941 1_554 S
Zn187 O194 1.965 . S
Zn188 O186 1.950 . S
Zn188 O195 1.938 . S
Zn188 O196 1.906 . S
Zn188 O206 1.953 . S
Zn189 O186 1.945 . S
Zn189 O191 1.932 . S
Zn189 O198 1.977 . S
Zn189 O199 1.910 . S
O190 Zn187 1.933 . S
O190 C201 1.226 . S
O191 Zn189 1.932 . S
O191 C201 1.307 . S
O192 Zn185 1.919 1_556 S
O192 C203 1.253 . S
O193 Zn187 1.941 1_556 S
O193 C203 1.283 . S
O194 Zn187 1.965 . S
O194 C202 1.303 1_554 S
O195 Zn188 1.938 . S
O195 C202 1.247 1_554 S
O196 Zn188 1.906 . S
O196 C204 1.304 . S
O197 Zn185 1.924 . S
O197 C205 1.311 . S
O198 Zn189 1.977 . S
O198 C204 1.272 . S
O199 Zn189 1.910 . S
O199 C205 1.231 . S
C200 O184 1.225 1_554 S
C200 O206 1.298 . S
C201 O190 1.226 . S
C201 O191 1.307 . S
C202 O194 1.303 1_556 S
C202 O195 1.247 1_556 S
C203 O192 1.253 . S
C203 O193 1.283 . S
C204 O196 1.304 . S
C204 O198 1.272 . S
C205 O197 1.311 . S
C205 O199 1.231 . S
O206 Zn188 1.953 . S
O206 C200 1.298 . S
O207 Zn208 1.953 . S
O207 C223 1.225 . S
Zn208 O207 1.953 . S
Zn208 O209 1.949 . S
Zn208 O215 1.919 . S
Zn208 O220 1.924 . S
O209 Zn208 1.949 . S
O209 Zn210 1.923 . S
O209 Zn211 1.950 . S
O209 Zn212 1.945 . S
Zn210 O209 1.923 . S
Zn210 O213 1.933 . S
Zn210 O216 1.941 . S
Zn210 O217 1.965 . S
Zn211 O209 1.950 . S
Zn211 O218 1.938 . S
Zn211 O219 1.906 . S
Zn211 O229 1.953 . S
Zn212 O209 1.945 . S
Zn212 O214 1.932 . S
Zn212 O221 1.977 . S
Zn212 O222 1.910 . S
O213 Zn210 1.933 . S
O213 C224 1.226 . S
O214 Zn212 1.932 . S
O214 C224 1.307 . S
O215 Zn208 1.919 . S
O215 C226 1.253 . S
O216 Zn210 1.941 . S
O216 C226 1.283 . S
O217 Zn210 1.965 . S
O217 C225 1.303 . S
O218 Zn211 1.938 . S
O218 C225 1.247 . S
O219 Zn211 1.906 . S
O219 C227 1.304 . S
O220 Zn208 1.924 . S
O220 C228 1.311 . S
O221 Zn212 1.977 . S
O221 C227 1.272 . S
O222 Zn212 1.910 . S
O222 C228 1.231 . S
C223 O207 1.225 . S
C223 O229 1.298 . S
C224 O213 1.226 . S
C224 O214 1.307 . S
C225 O217 1.303 . S
C225 O218 1.247 . S
C226 O215 1.253 . S
C226 O216 1.283 . S
C227 O219 1.304 . S
C227 O221 1.272 . S
C228 O220 1.311 . S
C228 O222 1.231 . S
O229 Zn211 1.953 . S
O229 C223 1.298 . S
O230 Zn231 1.953 . S
O230 C246 1.225 . S
Zn231 O230 1.953 . S
Zn231 O232 1.949 . S
Zn231 O238 1.919 . S
Zn231 O243 1.924 . S
O232 Zn231 1.949 . S
O232 Zn233 1.923 . S
O232 Zn234 1.950 . S
O232 Zn235 1.945 . S
Zn233 O232 1.923 . S
Zn233 O236 1.933 . S
Zn233 O239 1.941 . S
Zn233 O240 1.965 . S
Zn234 O232 1.950 . S
Zn234 O241 1.938 . S
Zn234 O242 1.906 . S
Zn234 O252 1.953 . S
Zn235 O232 1.945 . S
Zn235 O237 1.932 . S
Zn235 O244 1.977 . S
Zn235 O245 1.910 . S
O236 Zn233 1.933 . S
O236 C247 1.226 . S
O237 Zn235 1.932 . S
O237 C247 1.307 . S
O238 Zn231 1.919 . S
O238 C249 1.253 . S
O239 Zn233 1.941 . S
O239 C249 1.283 . S
O240 Zn233 1.965 . S
O240 C248 1.303 . S
O241 Zn234 1.938 . S
O241 C248 1.247 . S
O242 Zn234 1.906 . S
O242 C250 1.304 . S
O243 Zn231 1.924 . S
O243 C251 1.311 . S
O244 Zn235 1.977 . S
O244 C250 1.272 . S
O245 Zn235 1.910 . S
O245 C251 1.231 . S
C246 O230 1.225 . S
C246 O252 1.298 . S
C247 O236 1.226 . S
C247 O237 1.307 . S
C248 O240 1.303 . S
C248 O241 1.247 . S
C249 O238 1.253 . S
C249 O239 1.283 . S
C250 O242 1.304 . S
C250 O244 1.272 . S
C251 O243 1.311 . S
C251 O245 1.231 . S
O252 Zn234 1.953 . S
O252 C246 1.298 . S
O253 Zn254 1.953 . S
O253 C269 1.225 . S
Zn254 O253 1.953 . S
Zn254 O255 1.949 . S
Zn254 O261 1.919 . S
Zn254 O266 1.924 . S
O255 Zn254 1.949 . S
O255 Zn256 1.923 . S
O255 Zn257 1.950 . S
O255 Zn258 1.945 . S
Zn256 O255 1.923 . S
Zn256 O259 1.933 . S
Zn256 O262 1.941 . S
Zn256 O263 1.965 . S
Zn257 O255 1.950 . S
Zn257 O264 1.938 . S
Zn257 O265 1.906 . S
Zn257 O275 1.953 . S
Zn258 O255 1.945 . S
Zn258 O260 1.932 . S
Zn258 O267 1.977 . S
Zn258 O268 1.910 . S
O259 Zn256 1.933 . S
O259 C270 1.226 . S
O260 Zn258 1.932 . S
O260 C270 1.307 . S
O261 Zn254 1.919 . S
O261 C272 1.253 . S
O262 Zn256 1.941 . S
O262 C272 1.283 . S
O263 Zn256 1.965 . S
O263 C271 1.303 . S
O264 Zn257 1.938 . S
O264 C271 1.247 . S
O265 Zn257 1.906 . S
O265 C273 1.304 . S
O266 Zn254 1.924 . S
O266 C274 1.311 . S
O267 Zn258 1.977 . S
O267 C273 1.272 . S
O268 Zn258 1.910 . S
O268 C274 1.231 . S
C269 O253 1.225 . S
C269 O275 1.298 . S
C270 O259 1.226 . S
C270 O260 1.307 . S
C271 O263 1.303 . S
C271 O264 1.247 . S
C272 O261 1.253 . S
C272 O262 1.283 . S
C273 O265 1.304 . S
C273 O267 1.272 . S
C274 O266 1.311 . S
C274 O268 1.231 . S
O275 Zn257 1.953 . S
O275 C269 1.298 . S
O276 Zn277 1.953 . S
O276 C292 1.225 . S
Zn277 O276 1.953 . S
Zn277 O278 1.949 . S
Zn277 O284 1.919 . S
Zn277 O289 1.924 . S
O278 Zn277 1.949 . S
O278 Zn279 1.923 . S
O278 Zn280 1.950 . S
O278 Zn281 1.945 . S
Zn279 O278 1.923 . S
Zn279 O282 1.933 . S
Zn279 O285 1.941 . S
Zn279 O286 1.965 . S
Zn280 O278 1.950 . S
Zn280 O287 1.938 . S
Zn280 O288 1.906 . S
Zn280 O298 1.953 . S
Zn281 O278 1.945 . S
Zn281 O283 1.932 . S
Zn281 O290 1.977 . S
Zn281 O291 1.910 . S
O282 Zn279 1.933 . S
O282 C293 1.226 . S
O283 Zn281 1.932 . S
O283 C293 1.307 . S
O284 Zn277 1.919 . S
O284 C295 1.253 . S
O285 Zn279 1.941 . S
O285 C295 1.283 . S
O286 Zn279 1.965 . S
O286 C294 1.303 . S
O287 Zn280 1.938 . S
O287 C294 1.247 . S
O288 Zn280 1.906 . S
O288 C296 1.304 . S
O289 Zn277 1.924 . S
O289 C297 1.311 . S
O290 Zn281 1.977 . S
O290 C296 1.272 . S
O291 Zn281 1.910 . S
O291 C297 1.231 . S
C292 O276 1.225 . S
C292 O298 1.298 . S
C293 O282 1.226 . S
C293 O283 1.307 . S
C294 O286 1.303 . S
C294 O287 1.247 . S
C295 O284 1.253 . S
C295 O285 1.283 . S
C296 O288 1.304 . S
C296 O290 1.272 . S
C297 O289 1.311 . S
C297 O291 1.231 . S
O298 Zn280 1.953 . S
O298 C292 1.298 . S
O299 Zn300 1.953 . S
O299 C315 1.225 . S
Zn300 O299 1.953 . S
Zn300 O301 1.949 . S
Zn300 O307 1.919 . S
Zn300 O312 1.924 . S
O301 Zn300 1.949 . S
O301 Zn302 1.923 . S
O301 Zn303 1.950 . S
O301 Zn304 1.945 . S
Zn302 O301 1.923 . S
Zn302 O305 1.933 . S
Zn302 O308 1.941 . S
Zn302 O309 1.965 . S
Zn303 O301 1.950 . S
Zn303 O310 1.938 . S
Zn303 O311 1.906 . S
Zn303 O321 1.953 . S
Zn304 O301 1.945 . S
Zn304 O306 1.932 . S
Zn304 O313 1.977 . S
Zn304 O314 1.910 . S
O305 Zn302 1.933 . S
O305 C316 1.226 . S
O306 Zn304 1.932 . S
O306 C316 1.307 . S
O307 Zn300 1.919 . S
O307 C318 1.253 . S
O308 Zn302 1.941 . S
O308 C318 1.283 . S
O309 Zn302 1.965 . S
O309 C317 1.303 . S
O310 Zn303 1.938 . S
O310 C317 1.247 . S
O311 Zn303 1.906 . S
O311 C319 1.304 . S
O312 Zn300 1.924 . S
O312 C320 1.311 . S
O313 Zn304 1.977 . S
O313 C319 1.272 . S
O314 Zn304 1.910 . S
O314 C320 1.231 . S
C315 O299 1.225 . S
C315 O321 1.298 . S
C316 O305 1.226 . S
C316 O306 1.307 . S
C317 O309 1.303 . S
C317 O310 1.247 . S
C318 O307 1.253 . S
C318 O308 1.283 . S
C319 O311 1.304 . S
C319 O313 1.272 . S
C320 O312 1.311 . S
C320 O314 1.231 . S
O321 Zn303 1.953 . S
O321 C315 1.298 . S
O322 Zn323 1.953 . S
O322 C338 1.225 . S
Zn323 O322 1.953 . S
Zn323 O324 1.949 . S
Zn323 O330 1.919 . S
Zn323 O335 1.924 . S
O324 Zn323 1.949 . S
O324 Zn325 1.923 . S
O324 Zn326 1.950 . S
O324 Zn327 1.945 . S
Zn325 O324 1.923 . S
Zn325 O328 1.933 . S
Zn325 O331 1.941 . S
Zn325 O332 1.965 . S
Zn326 O324 1.950 . S
Zn326 O333 1.938 . S
Zn326 O334 1.906 . S
Zn326 O344 1.953 . S
Zn327 O324 1.945 . S
Zn327 O329 1.932 . S
Zn327 O336 1.977 . S
Zn327 O337 1.910 . S
O328 Zn325 1.933 . S
O328 C339 1.226 . S
O329 Zn327 1.932 . S
O329 C339 1.307 . S
O330 Zn323 1.919 . S
O330 C341 1.253 . S
O331 Zn325 1.941 . S
O331 C341 1.283 . S
O332 Zn325 1.965 . S
O332 C340 1.303 . S
O333 Zn326 1.938 . S
O333 C340 1.247 . S
O334 Zn326 1.906 . S
O334 C342 1.304 . S
O335 Zn323 1.924 . S
O335 C343 1.311 . S
O336 Zn327 1.977 . S
O336 C342 1.272 . S
O337 Zn327 1.910 . S
O337 C343 1.231 . S
C338 O322 1.225 . S
C338 O344 1.298 . S
C339 O328 1.226 . S
C339 O329 1.307 . S
C340 O332 1.303 . S
C340 O333 1.247 . S
C341 O330 1.253 . S
C341 O331 1.283 . S
C342 O334 1.304 . S
C342 O336 1.272 . S
C343 O335 1.311 . S
C343 O337 1.231 . S
O344 Zn326 1.953 . S
O344 C338 1.298 . S
O345 Zn346 1.953 . S
O345 C361 1.225 . S
Zn346 O345 1.953 . S
Zn346 O347 1.949 . S
Zn346 O353 1.919 1_556 S
Zn346 O358 1.924 . S
O347 Zn346 1.949 . S
O347 Zn348 1.923 . S
O347 Zn349 1.950 . S
O347 Zn350 1.945 . S
Zn348 O347 1.923 . S
Zn348 O351 1.933 . S
Zn348 O354 1.941 . S
Zn348 O355 1.965 . S
Zn349 O347 1.950 . S
Zn349 O356 1.938 . S
Zn349 O357 1.906 . S
Zn349 O367 1.953 . S
Zn350 O347 1.945 . S
Zn350 O352 1.932 . S
Zn350 O359 1.977 . S
Zn350 O360 1.910 . S
O351 Zn348 1.933 . S
O351 C362 1.231 . S
O352 Zn350 1.932 . S
O352 C362 1.310 . S
O353 Zn346 1.919 1_554 S
O353 C364 1.253 . S
O354 Zn348 1.941 . S
O354 C364 1.283 1_556 S
O355 Zn348 1.965 . S
O355 C363 1.303 . S
O356 Zn349 1.938 . S
O356 C363 1.247 . S
O357 Zn349 1.906 . S
O357 C365 1.304 . S
O358 Zn346 1.924 . S
O358 C366 1.311 . S
O359 Zn350 1.977 . S
O359 C365 1.272 . S
O360 Zn350 1.910 . S
O360 C366 1.231 . S
C361 O345 1.225 . S
C361 O367 1.298 . S
C362 O351 1.231 . S
C362 O352 1.310 . S
C363 O355 1.303 . S
C363 O356 1.247 . S
C364 O353 1.253 . S
C364 O354 1.283 1_554 S
C365 O357 1.304 . S
C365 O359 1.272 . S
C366 O358 1.311 . S
C366 O360 1.231 . S
O367 Zn349 1.953 . S
O367 C361 1.298 . S
O368 Zn369 1.953 . S
O368 C384 1.225 . S
Zn369 O368 1.953 . S
Zn369 O370 1.949 . S
Zn369 O376 1.919 1_556 S
Zn369 O381 1.924 . S
O370 Zn369 1.949 . S
O370 Zn371 1.923 . S
O370 Zn372 1.950 . S
O370 Zn373 1.945 . S
Zn371 O370 1.923 . S
Zn371 O374 1.933 . S
Zn371 O377 1.941 . S
Zn371 O378 1.965 . S
Zn372 O370 1.950 . S
Zn372 O379 1.938 . S
Zn372 O380 1.906 . S
Zn372 O390 1.953 . S
Zn373 O370 1.945 . S
Zn373 O375 1.932 . S
Zn373 O382 1.977 . S
Zn373 O383 1.910 . S
O374 Zn371 1.933 . S
O374 C385 1.231 . S
O375 Zn373 1.932 . S
O375 C385 1.310 . S
O376 Zn369 1.919 1_554 S
O376 C387 1.253 . S
O377 Zn371 1.941 . S
O377 C387 1.283 1_556 S
O378 Zn371 1.965 . S
O378 C386 1.303 . S
O379 Zn372 1.938 . S
O379 C386 1.247 . S
O380 Zn372 1.906 . S
O380 C388 1.304 . S
O381 Zn369 1.924 . S
O381 C389 1.311 . S
O382 Zn373 1.977 . S
O382 C388 1.272 . S
O383 Zn373 1.910 . S
O383 C389 1.231 . S
C384 O368 1.225 . S
C384 O390 1.298 . S
C385 O374 1.231 . S
C385 O375 1.310 . S
C386 O378 1.303 . S
C386 O379 1.247 . S
C387 O376 1.253 . S
C387 O377 1.283 1_554 S
C388 O380 1.304 . S
C388 O382 1.272 . S
C389 O381 1.311 . S
C389 O383 1.231 . S
O390 Zn372 1.953 . S
O390 C384 1.298 . S
O391 Zn392 1.953 . S
O391 C407 1.225 . S
Zn392 O391 1.953 . S
Zn392 O393 1.949 . S
Zn392 O399 1.919 1_556 S
Zn392 O404 1.924 . S
O393 Zn392 1.949 . S
O393 Zn394 1.923 . S
O393 Zn395 1.950 . S
O393 Zn396 1.945 . S
Zn394 O393 1.923 . S
Zn394 O397 1.933 . S
Zn394 O400 1.941 . S
Zn394 O401 1.965 . S
Zn395 O393 1.950 . S
Zn395 O402 1.938 . S
Zn395 O403 1.906 . S
Zn395 O413 1.953 . S
Zn396 O393 1.945 . S
Zn396 O398 1.932 . S
Zn396 O405 1.977 . S
Zn396 O406 1.910 . S
O397 Zn394 1.933 . S
O397 C408 1.231 . S
O398 Zn396 1.932 . S
O398 C408 1.310 . S
O399 Zn392 1.919 1_554 S
O399 C410 1.253 . S
O400 Zn394 1.941 . S
O400 C410 1.283 1_556 S
O401 Zn394 1.965 . S
O401 C409 1.303 . S
O402 Zn395 1.938 . S
O402 C409 1.247 . S
O403 Zn395 1.906 . S
O403 C411 1.304 . S
O404 Zn392 1.924 . S
O404 C412 1.311 . S
O405 Zn396 1.977 . S
O405 C411 1.272 . S
O406 Zn396 1.910 . S
O406 C412 1.231 . S
C407 O391 1.225 . S
C407 O413 1.298 . S
C408 O397 1.231 . S
C408 O398 1.310 . S
C409 O401 1.303 . S
C409 O402 1.247 . S
C410 O399 1.253 . S
C410 O400 1.283 1_554 S
C411 O403 1.304 . S
C411 O405 1.272 . S
C412 O404 1.311 . S
C412 O406 1.231 . S
O413 Zn395 1.953 . S
O413 C407 1.298 . S
H414 C426 0.930 . S
H415 C428 0.930 . S
H416 C429 0.930 . S
H417 C433 0.959 . S
H418 C433 0.959 . S
H419 C433 0.961 . S
H420 C434 0.960 . S
H421 C434 0.961 . S
H422 C434 0.959 . S
H423 C437 0.929 . S
H424 C438 0.931 . S
H425 C440 0.930 . S
C426 H414 0.930 . S
C426 C427 1.399 . S
C426 C431 1.399 . S
C427 C426 1.399 . S
C427 C428 1.376 . S
C428 H415 0.930 . S
C428 C427 1.376 . S
C428 C429 1.388 . S
C429 H416 0.930 . S
C429 C428 1.388 . S
C429 C430 1.390 . S
C430 C429 1.390 . S
C430 C431 1.394 . S
C430 C436 1.465 . S
C431 C426 1.399 . S
C431 C430 1.394 . S
C431 C432 1.516 . S
C432 C431 1.516 . S
C432 C433 1.502 . S
C432 C434 1.561 . S
C432 C435 1.526 . S
C433 H417 0.959 . S
C433 H418 0.959 . S
C433 H419 0.961 . S
C433 C432 1.502 . S
C434 H420 0.960 . S
C434 H421 0.961 . S
C434 H422 0.959 . S
C434 C432 1.561 . S
C435 C432 1.526 . S
C435 C436 1.396 . S
C435 C440 1.390 . S
C436 C430 1.465 . S
C436 C435 1.396 . S
C436 C437 1.399 . S
C437 H423 0.929 . S
C437 C436 1.399 . S
C437 C438 1.385 . S
C438 H424 0.931 . S
C438 C437 1.385 . S
C438 C439 1.389 . S
C439 C438 1.389 . S
C439 C440 1.387 . S
C440 H425 0.930 . S
C440 C435 1.390 . S
C440 C439 1.387 . S
H441 C453 0.930 . S
H442 C455 0.930 . S
H443 C456 0.930 . S
H444 C460 0.959 . S
H445 C460 0.959 . S
H446 C460 0.961 . S
H447 C461 0.960 . S
H448 C461 0.961 . S
H449 C461 0.959 . S
H450 C464 0.929 . S
H451 C465 0.931 . S
H452 C467 0.930 . S
C453 H441 0.930 . S
C453 C454 1.399 . S
C453 C458 1.399 . S
C454 C453 1.399 . S
C454 C455 1.376 . S
C455 H442 0.930 . S
C455 C454 1.376 . S
C455 C456 1.388 . S
C456 H443 0.930 . S
C456 C455 1.388 . S
C456 C457 1.390 . S
C457 C456 1.390 . S
C457 C458 1.394 . S
C457 C463 1.465 . S
C458 C453 1.399 . S
C458 C457 1.394 . S
C458 C459 1.516 . S
C459 C458 1.516 . S
C459 C460 1.502 . S
C459 C461 1.561 . S
C459 C462 1.526 . S
C460 H444 0.959 . S
C460 H445 0.959 . S
C460 H446 0.961 . S
C460 C459 1.502 . S
C461 H447 0.960 . S
C461 H448 0.961 . S
C461 H449 0.959 . S
C461 C459 1.561 . S
C462 C459 1.526 . S
C462 C463 1.396 . S
C462 C467 1.390 . S
C463 C457 1.465 . S
C463 C462 1.396 . S
C463 C464 1.399 . S
C464 H450 0.929 . S
C464 C463 1.399 . S
C464 C465 1.385 . S
C465 H451 0.931 . S
C465 C464 1.385 . S
C465 C466 1.389 . S
C466 C465 1.389 . S
C466 C467 1.387 . S
C467 H452 0.930 . S
C467 C462 1.390 . S
C467 C466 1.387 . S
H468 C480 0.930 . S
H469 C482 0.930 . S
H470 C483 0.930 . S
H471 C487 0.959 . S
H472 C487 0.959 . S
H473 C487 0.961 . S
H474 C488 0.960 . S
H475 C488 0.961 . S
H476 C488 0.959 . S
H477 C491 0.929 . S
H478 C492 0.931 . S
H479 C494 0.930 . S
C480 H468 0.930 . S
C480 C481 1.399 . S
C480 C485 1.399 . S
C481 C480 1.399 . S
C481 C482 1.376 . S
C482 H469 0.930 . S
C482 C481 1.376 . S
C482 C483 1.388 . S
C483 H470 0.930 . S
C483 C482 1.388 . S
C483 C484 1.390 . S
C484 C483 1.390 . S
C484 C485 1.394 . S
C484 C490 1.465 . S
C485 C480 1.399 . S
C485 C484 1.394 . S
C485 C486 1.516 . S
C486 C485 1.516 . S
C486 C487 1.502 . S
C486 C488 1.561 . S
C486 C489 1.526 . S
C487 H471 0.959 . S
C487 H472 0.959 . S
C487 H473 0.961 . S
C487 C486 1.502 . S
C488 H474 0.960 . S
C488 H475 0.961 . S
C488 H476 0.959 . S
C488 C486 1.561 . S
C489 C486 1.526 . S
C489 C490 1.396 . S
C489 C494 1.390 . S
C490 C484 1.465 . S
C490 C489 1.396 . S
C490 C491 1.399 . S
C491 H477 0.929 . S
C491 C490 1.399 . S
C491 C492 1.385 . S
C492 H478 0.931 . S
C492 C491 1.385 . S
C492 C493 1.389 . S
C493 C492 1.389 . S
C493 C494 1.387 . S
C494 H479 0.930 . S
C494 C489 1.390 . S
C494 C493 1.387 . S
H495 C507 0.930 . S
H496 C509 0.930 . S
H497 C510 0.930 1_554 S
H498 C514 0.959 . S
H499 C514 0.959 . S
H500 C514 0.961 . S
H501 C515 0.960 . S
H502 C515 0.961 . S
H503 C515 0.959 . S
H504 C518 0.929 . S
H505 C519 0.931 . S
H506 C521 0.930 . S
C507 H495 0.930 . S
C507 C508 1.399 . S
C507 C512 1.399 . S
C508 C507 1.399 . S
C508 C509 1.376 . S
C509 H496 0.930 . S
C509 C508 1.376 . S
C509 C510 1.388 . S
C510 H497 0.930 1_556 S
C510 C509 1.388 . S
C510 C511 1.390 . S
C511 C510 1.390 . S
C511 C512 1.394 . S
C511 C517 1.465 1_556 S
C512 C507 1.399 . S
C512 C511 1.394 . S
C512 C513 1.516 . S
C513 C512 1.516 . S
C513 C514 1.502 . S
C513 C515 1.561 . S
C513 C516 1.526 1_556 S
C514 H498 0.959 . S
C514 H499 0.959 . S
C514 H500 0.961 . S
C514 C513 1.502 . S
C515 H501 0.960 . S
C515 H502 0.961 . S
C515 H503 0.959 . S
C515 C513 1.561 . S
C516 C513 1.526 1_554 S
C516 C517 1.396 . S
C516 C521 1.390 . S
C517 C511 1.465 1_554 S
C517 C516 1.396 . S
C517 C518 1.399 . S
C518 H504 0.929 . S
C518 C517 1.399 . S
C518 C519 1.385 . S
C519 H505 0.931 . S
C519 C518 1.385 . S
C519 C520 1.389 . S
C520 C519 1.389 . S
C520 C521 1.387 . S
C521 H506 0.930 . S
C521 C516 1.390 . S
C521 C520 1.387 . S
H522 C534 0.930 . S
H523 C536 0.930 . S
H524 C537 0.930 . S
H525 C541 0.959 . S
H526 C541 0.959 . S
H527 C541 0.961 . S
H528 C542 0.960 . S
H529 C542 0.961 . S
H530 C542 0.959 1_556 S
H531 C545 0.929 . S
H532 C546 0.931 . S
H533 C548 0.930 . S
C534 H522 0.930 . S
C534 C535 1.399 . S
C534 C539 1.399 . S
C535 C534 1.399 . S
C535 C536 1.376 . S
C536 H523 0.930 . S
C536 C535 1.376 . S
C536 C537 1.388 1_554 S
C537 H524 0.930 . S
C537 C536 1.388 1_556 S
C537 C538 1.390 . S
C538 C537 1.390 . S
C538 C539 1.394 1_556 S
C538 C544 1.465 . S
C539 C534 1.399 . S
C539 C538 1.394 1_554 S
C539 C540 1.516 . S
C540 C539 1.516 . S
C540 C541 1.502 . S
C540 C542 1.561 . S
C540 C543 1.526 1_554 S
C541 H525 0.959 . S
C541 H526 0.959 . S
C541 H527 0.961 . S
C541 C540 1.502 . S
C542 H528 0.960 . S
C542 H529 0.961 . S
C542 H530 0.959 1_554 S
C542 C540 1.561 . S
C543 C540 1.526 1_556 S
C543 C544 1.396 . S
C543 C548 1.390 . S
C544 C538 1.465 . S
C544 C543 1.396 . S
C544 C545 1.399 . S
C545 H531 0.929 . S
C545 C544 1.399 . S
C545 C546 1.385 . S
C546 H532 0.931 . S
C546 C545 1.385 . S
C546 C547 1.389 . S
C547 C546 1.389 . S
C547 C548 1.387 . S
C548 H533 0.930 . S
C548 C543 1.390 . S
C548 C547 1.387 . S
H549 C561 0.930 . S
H550 C563 0.930 . S
H551 C564 0.930 . S
H552 C568 0.959 . S
H553 C568 0.959 . S
H554 C568 0.961 1_556 S
H555 C569 0.960 . S
H556 C569 0.961 . S
H557 C569 0.959 . S
H558 C572 0.929 . S
H559 C573 0.931 . S
H560 C575 0.930 . S
C561 H549 0.930 . S
C561 C562 1.399 . S
C561 C566 1.399 . S
C562 C561 1.399 . S
C562 C563 1.376 . S
C563 H550 0.930 . S
C563 C562 1.376 . S
C563 C564 1.388 . S
C564 H551 0.930 . S
C564 C563 1.388 . S
C564 C565 1.390 . S
C565 C564 1.390 . S
C565 C566 1.394 . S
C565 C571 1.465 1_556 S
C566 C561 1.399 . S
C566 C565 1.394 . S
C566 C567 1.516 . S
C567 C566 1.516 . S
C567 C568 1.502 1_556 S
C567 C569 1.561 . S
C567 C570 1.526 1_556 S
C568 H552 0.959 . S
C568 H553 0.959 . S
C568 H554 0.961 1_554 S
C568 C567 1.502 1_554 S
C569 H555 0.960 . S
C569 H556 0.961 . S
C569 H557 0.959 . S
C569 C567 1.561 . S
C570 C567 1.526 1_554 S
C570 C571 1.396 . S
C570 C575 1.390 . S
C571 C565 1.465 1_554 S
C571 C570 1.396 . S
C571 C572 1.399 . S
C572 H558 0.929 . S
C572 C571 1.399 . S
C572 C573 1.385 . S
C573 H559 0.931 . S
C573 C572 1.385 . S
C573 C574 1.389 . S
C574 C573 1.389 . S
C574 C575 1.387 . S
C575 H560 0.930 . S
C575 C570 1.390 . S
C575 C574 1.387 . S
H576 C588 0.930 . S
H577 C590 0.930 . S
H578 C591 0.930 . S
H579 C595 0.959 . S
H580 C595 0.959 . S
H581 C595 0.961 . S
H582 C596 0.960 . S
H583 C596 0.961 . S
H584 C596 0.959 . S
H585 C599 0.929 . S
H586 C600 0.931 . S
H587 C602 0.930 . S
C588 H576 0.930 . S
C588 C589 1.399 . S
C588 C593 1.399 . S
C589 C588 1.399 . S
C589 C590 1.376 . S
C590 H577 0.930 . S
C590 C589 1.376 . S
C590 C591 1.388 . S
C591 H578 0.930 . S
C591 C590 1.388 . S
C591 C592 1.390 . S
C592 C591 1.390 . S
C592 C593 1.394 . S
C592 C598 1.465 . S
C593 C588 1.399 . S
C593 C592 1.394 . S
C593 C594 1.516 . S
C594 C593 1.516 . S
C594 C595 1.502 . S
C594 C596 1.561 . S
C594 C597 1.526 . S
C595 H579 0.959 . S
C595 H580 0.959 . S
C595 H581 0.961 . S
C595 C594 1.502 . S
C596 H582 0.960 . S
C596 H583 0.961 . S
C596 H584 0.959 . S
C596 C594 1.561 . S
C597 C594 1.526 . S
C597 C598 1.396 . S
C597 C602 1.390 . S
C598 C592 1.465 . S
C598 C597 1.396 . S
C598 C599 1.399 . S
C599 H585 0.929 . S
C599 C598 1.399 . S
C599 C600 1.385 . S
C600 H586 0.931 . S
C600 C599 1.385 . S
C600 C601 1.389 . S
C601 C600 1.389 . S
C601 C602 1.387 . S
C602 H587 0.930 . S
C602 C597 1.390 . S
C602 C601 1.387 . S
H603 C615 0.930 . S
H604 C617 0.930 . S
H605 C618 0.930 . S
H606 C622 0.959 . S
H607 C622 0.959 . S
H608 C622 0.961 . S
H609 C623 0.960 . S
H610 C623 0.961 . S
H611 C623 0.959 . S
H612 C626 0.929 . S
H613 C627 0.931 . S
H614 C629 0.930 . S
C615 H603 0.930 . S
C615 C616 1.399 . S
C615 C620 1.399 . S
C616 C615 1.399 . S
C616 C617 1.376 . S
C617 H604 0.930 . S
C617 C616 1.376 . S
C617 C618 1.388 . S
C618 H605 0.930 . S
C618 C617 1.388 . S
C618 C619 1.390 . S
C619 C618 1.390 . S
C619 C620 1.394 . S
C619 C625 1.465 . S
C620 C615 1.399 . S
C620 C619 1.394 . S
C620 C621 1.516 . S
C621 C620 1.516 . S
C621 C622 1.502 . S
C621 C623 1.561 . S
C621 C624 1.526 . S
C622 H606 0.959 . S
C622 H607 0.959 . S
C622 H608 0.961 . S
C622 C621 1.502 . S
C623 H609 0.960 . S
C623 H610 0.961 . S
C623 H611 0.959 . S
C623 C621 1.561 . S
C624 C621 1.526 . S
C624 C625 1.396 . S
C624 C629 1.390 . S
C625 C619 1.465 . S
C625 C624 1.396 . S
C625 C626 1.399 . S
C626 H612 0.929 . S
C626 C625 1.399 . S
C626 C627 1.385 . S
C627 H613 0.931 . S
C627 C626 1.385 . S
C627 C628 1.389 . S
C628 C627 1.389 . S
C628 C629 1.387 . S
C629 H614 0.930 . S
C629 C624 1.390 . S
C629 C628 1.387 . S
H630 C642 0.930 . S
H631 C644 0.930 . S
H632 C645 0.930 . S
H633 C649 0.959 . S
H634 C649 0.959 . S
H635 C649 0.961 . S
H636 C650 0.960 . S
H637 C650 0.961 . S
H638 C650 0.959 . S
H639 C653 0.929 . S
H640 C654 0.931 . S
H641 C656 0.930 . S
C642 H630 0.930 . S
C642 C643 1.399 . S
C642 C647 1.399 . S
C643 C642 1.399 . S
C643 C644 1.376 . S
C644 H631 0.930 . S
C644 C643 1.376 . S
C644 C645 1.388 . S
C645 H632 0.930 . S
C645 C644 1.388 . S
C645 C646 1.390 . S
C646 C645 1.390 . S
C646 C647 1.394 . S
C646 C652 1.465 . S
C647 C642 1.399 . S
C647 C646 1.394 . S
C647 C648 1.516 . S
C648 C647 1.516 . S
C648 C649 1.502 . S
C648 C650 1.561 . S
C648 C651 1.526 . S
C649 H633 0.959 . S
C649 H634 0.959 . S
C649 H635 0.961 . S
C649 C648 1.502 . S
C650 H636 0.960 . S
C650 H637 0.961 . S
C650 H638 0.959 . S
C650 C648 1.561 . S
C651 C648 1.526 . S
C651 C652 1.396 . S
C651 C656 1.390 . S
C652 C646 1.465 . S
C652 C651 1.396 . S
C652 C653 1.399 . S
C653 H639 0.929 . S
C653 C652 1.399 . S
C653 C654 1.385 . S
C654 H640 0.931 . S
C654 C653 1.385 . S
C654 C655 1.389 . S
C655 C654 1.389 . S
C655 C656 1.387 . S
C656 H641 0.930 . S
C656 C651 1.390 . S
C656 C655 1.387 . S
H657 C669 0.930 . S
H658 C671 0.930 . S
H659 C672 0.930 1_556 S
H660 C676 0.959 . S
H661 C676 0.959 . S
H662 C676 0.961 . S
H663 C677 0.960 . S
H664 C677 0.961 . S
H665 C677 0.959 . S
H666 C680 0.929 . S
H667 C681 0.931 . S
H668 C683 0.930 1_554 S
C669 H657 0.930 . S
C669 C670 1.399 . S
C669 C674 1.399 . S
C670 C669 1.399 . S
C670 C671 1.376 . S
C671 H658 0.930 . S
C671 C670 1.376 . S
C671 C672 1.388 . S
C672 H659 0.930 1_554 S
C672 C671 1.388 . S
C672 C673 1.390 . S
C673 C672 1.390 . S
C673 C674 1.394 . S
C673 C679 1.465 1_554 S
C674 C669 1.399 . S
C674 C673 1.394 . S
C674 C675 1.516 . S
C675 C674 1.516 . S
C675 C676 1.502 . S
C675 C677 1.561 . S
C675 C678 1.526 . S
C676 H660 0.959 . S
C676 H661 0.959 . S
C676 H662 0.961 . S
C676 C675 1.502 . S
C677 H663 0.960 . S
C677 H664 0.961 . S
C677 H665 0.959 . S
C677 C675 1.561 . S
C678 C675 1.526 . S
C678 C679 1.396 1_554 S
C678 C683 1.390 1_554 S
C679 C673 1.465 1_556 S
C679 C678 1.396 1_556 S
C679 C680 1.399 . S
C680 H666 0.929 . S
C680 C679 1.399 . S
C680 C681 1.385 . S
C681 H667 0.931 . S
C681 C680 1.385 . S
C681 C682 1.389 . S
C682 C681 1.389 . S
C682 C683 1.387 . S
C683 H668 0.930 1_556 S
C683 C678 1.390 1_556 S
C683 C682 1.387 . S
H684 C696 0.930 . S
H685 C698 0.930 . S
H686 C699 0.930 . S
H687 C703 0.959 . S
H688 C703 0.959 . S
H689 C703 0.961 . S
H690 C704 0.960 . S
H691 C704 0.961 . S
H692 C704 0.959 . S
H693 C707 0.929 . S
H694 C708 0.931 . S
H695 C710 0.930 . S
C696 H684 0.930 . S
C696 C697 1.399 . S
C696 C701 1.399 . S
C697 C696 1.399 . S
C697 C698 1.376 . S
C698 H685 0.930 . S
C698 C697 1.376 . S
C698 C699 1.388 1_556 S
C699 H686 0.930 . S
C699 C698 1.388 1_554 S
C699 C700 1.390 . S
C700 C699 1.390 . S
C700 C701 1.394 1_554 S
C700 C706 1.465 . S
C701 C696 1.399 . S
C701 C700 1.394 1_556 S
C701 C702 1.516 . S
C702 C701 1.516 . S
C702 C703 1.502 . S
C702 C704 1.561 . S
C702 C705 1.526 1_556 S
C703 H687 0.959 . S
C703 H688 0.959 . S
C703 H689 0.961 . S
C703 C702 1.502 . S
C704 H690 0.960 . S
C704 H691 0.961 . S
C704 H692 0.959 . S
C704 C702 1.561 . S
C705 C702 1.526 1_554 S
C705 C706 1.396 . S
C705 C710 1.390 . S
C706 C700 1.465 . S
C706 C705 1.396 . S
C706 C707 1.399 . S
C707 H693 0.929 . S
C707 C706 1.399 . S
C707 C708 1.385 . S
C708 H694 0.931 . S
C708 C707 1.385 . S
C708 C709 1.389 . S
C709 C708 1.389 . S
C709 C710 1.387 . S
C710 H695 0.930 . S
C710 C705 1.390 . S
C710 C709 1.387 . S
H711 C723 0.930 . S
H712 C725 0.930 . S
H713 C726 0.930 . S
H714 C730 0.959 . S
H715 C730 0.959 . S
H716 C730 0.961 . S
H717 C731 0.960 . S
H718 C731 0.961 1_554 S
H719 C731 0.959 . S
H720 C734 0.929 . S
H721 C735 0.931 . S
H722 C737 0.930 . S
C723 H711 0.930 . S
C723 C724 1.399 . S
C723 C728 1.399 . S
C724 C723 1.399 . S
C724 C725 1.376 . S
C725 H712 0.930 . S
C725 C724 1.376 . S
C725 C726 1.388 . S
C726 H713 0.930 . S
C726 C725 1.388 . S
C726 C727 1.390 . S
C727 C726 1.390 . S
C727 C728 1.394 . S
C727 C733 1.465 1_556 S
C728 C723 1.399 . S
C728 C727 1.394 . S
C728 C729 1.516 1_556 S
C729 C728 1.516 1_554 S
C729 C730 1.502 . S
C729 C731 1.561 1_554 S
C729 C732 1.526 . S
C730 H714 0.959 . S
C730 H715 0.959 . S
C730 H716 0.961 . S
C730 C729 1.502 . S
C731 H717 0.960 . S
C731 H718 0.961 1_556 S
C731 H719 0.959 . S
C731 C729 1.561 1_556 S
C732 C729 1.526 . S
C732 C733 1.396 . S
C732 C737 1.390 . S
C733 C727 1.465 1_554 S
C733 C732 1.396 . S
C733 C734 1.399 . S
C734 H720 0.929 . S
C734 C733 1.399 . S
C734 C735 1.385 . S
C735 H721 0.931 . S
C735 C734 1.385 . S
C735 C736 1.389 . S
C736 C735 1.389 . S
C736 C737 1.387 . S
C737 H722 0.930 . S
C737 C732 1.390 . S
C737 C736 1.387 . S
H738 C750 0.930 . S
H739 C752 0.930 . S
H740 C753 0.930 . S
H741 C757 0.959 . S
H742 C757 0.959 . S
H743 C757 0.961 . S
H744 C758 0.960 . S
H745 C758 0.961 . S
H746 C758 0.959 . S
H747 C761 0.929 . S
H748 C762 0.931 . S
H749 C764 0.930 . S
C750 H738 0.930 . S
C750 C751 1.399 . S
C750 C755 1.399 . S
C751 C750 1.399 . S
C751 C752 1.376 . S
C752 H739 0.930 . S
C752 C751 1.376 . S
C752 C753 1.388 . S
C753 H740 0.930 . S
C753 C752 1.388 . S
C753 C754 1.390 . S
C754 C753 1.390 . S
C754 C755 1.394 . S
C754 C760 1.465 . S
C755 C750 1.399 . S
C755 C754 1.394 . S
C755 C756 1.516 . S
C756 C755 1.516 . S
C756 C757 1.502 . S
C756 C758 1.561 . S
C756 C759 1.526 . S
C757 H741 0.959 . S
C757 H742 0.959 . S
C757 H743 0.961 . S
C757 C756 1.502 . S
C758 H744 0.960 . S
C758 H745 0.961 . S
C758 H746 0.959 . S
C758 C756 1.561 . S
C759 C756 1.526 . S
C759 C760 1.396 . S
C759 C764 1.390 . S
C760 C754 1.465 . S
C760 C759 1.396 . S
C760 C761 1.399 . S
C761 H747 0.929 . S
C761 C760 1.399 . S
C761 C762 1.385 . S
C762 H748 0.931 . S
C762 C761 1.385 . S
C762 C763 1.389 . S
C763 C762 1.389 . S
C763 C764 1.387 . S
C764 H749 0.930 . S
C764 C759 1.390 . S
C764 C763 1.387 . S
H765 C777 0.930 . S
H766 C779 0.930 . S
H767 C780 0.930 . S
H768 C784 0.959 . S
H769 C784 0.959 . S
H770 C784 0.961 . S
H771 C785 0.960 . S
H772 C785 0.961 . S
H773 C785 0.959 . S
H774 C788 0.929 . S
H775 C789 0.931 . S
H776 C791 0.930 . S
C777 H765 0.930 . S
C777 C778 1.399 . S
C777 C782 1.399 . S
C778 C777 1.399 . S
C778 C779 1.376 . S
C779 H766 0.930 . S
C779 C778 1.376 . S
C779 C780 1.388 . S
C780 H767 0.930 . S
C780 C779 1.388 . S
C780 C781 1.390 . S
C781 C780 1.390 . S
C781 C782 1.394 . S
C781 C787 1.465 . S
C782 C777 1.399 . S
C782 C781 1.394 . S
C782 C783 1.516 . S
C783 C782 1.516 . S
C783 C784 1.502 . S
C783 C785 1.561 . S
C783 C786 1.526 . S
C784 H768 0.959 . S
C784 H769 0.959 . S
C784 H770 0.961 . S
C784 C783 1.502 . S
C785 H771 0.960 . S
C785 H772 0.961 . S
C785 H773 0.959 . S
C785 C783 1.561 . S
C786 C783 1.526 . S
C786 C787 1.396 . S
C786 C791 1.390 . S
C787 C781 1.465 . S
C787 C786 1.396 . S
C787 C788 1.399 . S
C788 H774 0.929 . S
C788 C787 1.399 . S
C788 C789 1.385 . S
C789 H775 0.931 . S
C789 C788 1.385 . S
C789 C790 1.389 . S
C790 C789 1.389 . S
C790 C791 1.387 . S
C791 H776 0.930 . S
C791 C786 1.390 . S
C791 C790 1.387 . S
H792 C804 0.930 . S
H793 C806 0.930 . S
H794 C807 0.930 . S
H795 C811 0.959 . S
H796 C811 0.959 . S
H797 C811 0.961 . S
H798 C812 0.960 . S
H799 C812 0.961 . S
H800 C812 0.959 . S
H801 C815 0.929 . S
H802 C816 0.931 . S
H803 C818 0.930 . S
C804 H792 0.930 . S
C804 C805 1.399 . S
C804 C809 1.399 . S
C805 C804 1.399 . S
C805 C806 1.376 . S
C806 H793 0.930 . S
C806 C805 1.376 . S
C806 C807 1.388 . S
C807 H794 0.930 . S
C807 C806 1.388 . S
C807 C808 1.390 . S
C808 C807 1.390 . S
C808 C809 1.394 . S
C808 C814 1.465 . S
C809 C804 1.399 . S
C809 C808 1.394 . S
C809 C810 1.516 . S
C810 C809 1.516 . S
C810 C811 1.502 . S
C810 C812 1.561 . S
C810 C813 1.526 . S
C811 H795 0.959 . S
C811 H796 0.959 . S
C811 H797 0.961 . S
C811 C810 1.502 . S
C812 H798 0.960 . S
C812 H799 0.961 . S
C812 H800 0.959 . S
C812 C810 1.561 . S
C813 C810 1.526 . S
C813 C814 1.396 . S
C813 C818 1.390 . S
C814 C808 1.465 . S
C814 C813 1.396 . S
C814 C815 1.399 . S
C815 H801 0.929 . S
C815 C814 1.399 . S
C815 C816 1.385 . S
C816 H802 0.931 . S
C816 C815 1.385 . S
C816 C817 1.389 . S
C817 C816 1.389 . S
C817 C818 1.387 . S
C818 H803 0.930 . S
C818 C813 1.390 . S
C818 C817 1.387 . S
H819 C831 0.930 . S
H820 C833 0.930 . S
H821 C834 0.930 . S
H822 C838 0.959 . S
H823 C838 0.959 . S
H824 C838 0.961 . S
H825 C839 0.960 . S
H826 C839 0.961 . S
H827 C839 0.959 . S
H828 C842 0.929 . S
H829 C843 0.931 . S
H830 C845 0.930 . S
C831 H819 0.930 . S
C831 C832 1.399 . S
C831 C836 1.399 . S
C832 C831 1.399 . S
C832 C833 1.376 . S
C833 H820 0.930 . S
C833 C832 1.376 . S
C833 C834 1.388 . S
C834 H821 0.930 . S
C834 C833 1.388 . S
C834 C835 1.390 . S
C835 C834 1.390 . S
C835 C836 1.394 . S
C835 C841 1.465 . S
C836 C831 1.399 . S
C836 C835 1.394 . S
C836 C837 1.516 . S
C837 C836 1.516 . S
C837 C838 1.502 . S
C837 C839 1.561 . S
C837 C840 1.526 . S
C838 H822 0.959 . S
C838 H823 0.959 . S
C838 H824 0.961 . S
C838 C837 1.502 . S
C839 H825 0.960 . S
C839 H826 0.961 . S
C839 H827 0.959 . S
C839 C837 1.561 . S
C840 C837 1.526 . S
C840 C841 1.396 . S
C840 C845 1.390 . S
C841 C835 1.465 . S
C841 C840 1.396 . S
C841 C842 1.399 . S
C842 H828 0.929 . S
C842 C841 1.399 . S
C842 C843 1.385 . S
C843 H829 0.931 . S
C843 C842 1.385 . S
C843 C844 1.389 . S
C844 C843 1.389 . S
C844 C845 1.387 . S
C845 H830 0.930 . S
C845 C840 1.390 . S
C845 C844 1.387 . S
H846 C858 0.930 . S
H847 C860 0.930 . S
H848 C861 0.930 . S
H849 C865 0.959 . S
H850 C865 0.959 . S
H851 C865 0.961 . S
H852 C866 0.960 . S
H853 C866 0.961 . S
H854 C866 0.959 . S
H855 C869 0.929 . S
H856 C870 0.931 . S
H857 C872 0.930 . S
C858 H846 0.930 . S
C858 C859 1.399 . S
C858 C863 1.399 . S
C859 C858 1.399 . S
C859 C860 1.376 . S
C860 H847 0.930 . S
C860 C859 1.376 . S
C860 C861 1.388 . S
C861 H848 0.930 . S
C861 C860 1.388 . S
C861 C862 1.390 . S
C862 C861 1.390 . S
C862 C863 1.394 . S
C862 C868 1.465 . S
C863 C858 1.399 . S
C863 C862 1.394 . S
C863 C864 1.516 . S
C864 C863 1.516 . S
C864 C865 1.502 . S
C864 C866 1.561 . S
C864 C867 1.526 . S
C865 H849 0.959 . S
C865 H850 0.959 . S
C865 H851 0.961 . S
C865 C864 1.502 . S
C866 H852 0.960 . S
C866 H853 0.961 . S
C866 H854 0.959 . S
C866 C864 1.561 . S
C867 C864 1.526 . S
C867 C868 1.396 . S
C867 C872 1.390 . S
C868 C862 1.465 . S
C868 C867 1.396 . S
C868 C869 1.399 . S
C869 H855 0.929 . S
C869 C868 1.399 . S
C869 C870 1.385 . S
C870 H856 0.931 . S
C870 C869 1.385 . S
C870 C871 1.389 . S
C871 C870 1.389 . S
C871 C872 1.387 . S
C872 H857 0.930 . S
C872 C867 1.390 . S
C872 C871 1.387 . S
H873 C885 0.930 . S
H874 C887 0.930 . S
H875 C888 0.930 . S
H876 C892 0.959 . S
H877 C892 0.959 . S
H878 C892 0.961 . S
H879 C893 0.960 . S
H880 C893 0.961 . S
H881 C893 0.959 . S
H882 C896 0.929 . S
H883 C897 0.931 . S
H884 C899 0.930 . S
C885 H873 0.930 . S
C885 C886 1.399 . S
C885 C890 1.399 . S
C886 C885 1.399 . S
C886 C887 1.376 . S
C887 H874 0.930 . S
C887 C886 1.376 . S
C887 C888 1.388 . S
C888 H875 0.930 . S
C888 C887 1.388 . S
C888 C889 1.390 . S
C889 C888 1.390 . S
C889 C890 1.394 . S
C889 C895 1.465 . S
C890 C885 1.399 . S
C890 C889 1.394 . S
C890 C891 1.516 . S
C891 C890 1.516 . S
C891 C892 1.502 . S
C891 C893 1.561 . S
C891 C894 1.526 . S
C892 H876 0.959 . S
C892 H877 0.959 . S
C892 H878 0.961 . S
C892 C891 1.502 . S
C893 H879 0.960 . S
C893 H880 0.961 . S
C893 H881 0.959 . S
C893 C891 1.561 . S
C894 C891 1.526 . S
C894 C895 1.396 . S
C894 C899 1.390 . S
C895 C889 1.465 . S
C895 C894 1.396 . S
C895 C896 1.399 . S
C896 H882 0.929 . S
C896 C895 1.399 . S
C896 C897 1.385 . S
C897 H883 0.931 . S
C897 C896 1.385 . S
C897 C898 1.389 . S
C898 C897 1.389 . S
C898 C899 1.387 . S
C899 H884 0.930 . S
C899 C894 1.390 . S
C899 C898 1.387 . S
H900 C912 0.930 . S
H901 C914 0.930 . S
H902 C915 0.930 . S
H903 C919 0.959 . S
H904 C919 0.959 . S
H905 C919 0.961 . S
H906 C920 0.960 . S
H907 C920 0.961 . S
H908 C920 0.959 . S
H909 C923 0.929 . S
H910 C924 0.931 . S
H911 C926 0.930 . S
C912 H900 0.930 . S
C912 C913 1.399 . S
C912 C917 1.399 . S
C913 C912 1.399 . S
C913 C914 1.376 . S
C914 H901 0.930 . S
C914 C913 1.376 . S
C914 C915 1.388 . S
C915 H902 0.930 . S
C915 C914 1.388 . S
C915 C916 1.390 . S
C916 C915 1.390 . S
C916 C917 1.394 . S
C916 C922 1.465 . S
C917 C912 1.399 . S
C917 C916 1.394 . S
C917 C918 1.516 . S
C918 C917 1.516 . S
C918 C919 1.502 . S
C918 C920 1.561 . S
C918 C921 1.526 . S
C919 H903 0.959 . S
C919 H904 0.959 . S
C919 H905 0.961 . S
C919 C918 1.502 . S
C920 H906 0.960 . S
C920 H907 0.961 . S
C920 H908 0.959 . S
C920 C918 1.561 . S
C921 C918 1.526 . S
C921 C922 1.396 . S
C921 C926 1.390 . S
C922 C916 1.465 . S
C922 C921 1.396 . S
C922 C923 1.399 . S
C923 H909 0.929 . S
C923 C922 1.399 . S
C923 C924 1.385 . S
C924 H910 0.931 . S
C924 C923 1.385 . S
C924 C925 1.389 . S
C925 C924 1.389 . S
C925 C926 1.387 . S
C926 H911 0.930 . S
C926 C921 1.390 . S
C926 C925 1.387 . S
H927 C939 0.930 . S
H928 C941 0.922 1_554 S
H929 C942 0.930 . S
H930 C946 0.959 . S
H931 C946 0.959 . S
H932 C946 0.961 . S
H933 C947 0.960 . S
H934 C947 0.961 . S
H935 C947 0.959 . S
H936 C950 0.929 . S
H937 C951 0.931 . S
H938 C953 0.930 . S
C939 H927 0.930 . S
C939 C940 1.399 . S
C939 C944 1.399 . S
C940 C939 1.399 . S
C940 C941 1.376 . S
C941 H928 0.922 1_556 S
C941 C940 1.376 . S
C941 C942 1.388 . S
C942 H929 0.930 . S
C942 C941 1.388 . S
C942 C943 1.390 . S
C943 C942 1.390 . S
C943 C944 1.394 . S
C943 C949 1.465 . S
C944 C939 1.399 . S
C944 C943 1.394 . S
C944 C945 1.516 . S
C945 C944 1.516 . S
C945 C946 1.502 . S
C945 C947 1.561 . S
C945 C948 1.526 . S
C946 H930 0.959 . S
C946 H931 0.959 . S
C946 H932 0.961 . S
C946 C945 1.502 . S
C947 H933 0.960 . S
C947 H934 0.961 . S
C947 H935 0.959 . S
C947 C945 1.561 . S
C948 C945 1.526 . S
C948 C949 1.396 . S
C948 C953 1.390 . S
C949 C943 1.465 . S
C949 C948 1.396 . S
C949 C950 1.399 . S
C950 H936 0.929 . S
C950 C949 1.399 . S
C950 C951 1.385 . S
C951 H937 0.931 . S
C951 C950 1.385 . S
C951 C952 1.389 . S
C952 C951 1.389 . S
C952 C953 1.387 . S
C953 H938 0.930 . S
C953 C948 1.390 . S
C953 C952 1.387 . S
H954 C966 0.930 . S
H955 C968 0.930 . S
H956 C969 0.930 . S
H957 C973 0.959 . S
H958 C973 0.959 . S
H959 C973 0.961 . S
H960 C974 0.960 . S
H961 C974 0.961 . S
H962 C974 0.959 . S
H963 C977 0.929 . S
H964 C978 0.931 . S
H965 C980 0.930 . S
C966 H954 0.930 . S
C966 C967 1.399 . S
C966 C971 1.399 . S
C967 C966 1.399 . S
C967 C968 1.376 . S
C968 H955 0.930 . S
C968 C967 1.376 . S
C968 C969 1.388 . S
C969 H956 0.930 . S
C969 C968 1.388 . S
C969 C970 1.390 . S
C970 C969 1.390 . S
C970 C971 1.394 . S
C970 C976 1.465 . S
C971 C966 1.399 . S
C971 C970 1.394 . S
C971 C972 1.516 . S
C972 C971 1.516 . S
C972 C973 1.502 . S
C972 C974 1.561 . S
C972 C975 1.526 . S
C973 H957 0.959 . S
C973 H958 0.959 . S
C973 H959 0.961 . S
C973 C972 1.502 . S
C974 H960 0.960 . S
C974 H961 0.961 . S
C974 H962 0.959 . S
C974 C972 1.561 . S
C975 C972 1.526 . S
C975 C976 1.396 . S
C975 C980 1.390 . S
C976 C970 1.465 . S
C976 C975 1.396 . S
C976 C977 1.399 . S
C977 H963 0.929 . S
C977 C976 1.399 . S
C977 C978 1.385 . S
C978 H964 0.931 . S
C978 C977 1.385 . S
C978 C979 1.389 . S
C979 C978 1.389 . S
C979 C980 1.387 . S
C980 H965 0.930 . S
C980 C975 1.390 . S
C980 C979 1.387 . S
H981 C993 0.930 . S
H982 C995 0.930 . S
H983 C996 0.930 . S
H984 C1000 0.959 . S
H985 C1000 0.959 . S
H986 C1000 0.961 . S
H987 C1001 0.960 . S
H988 C1001 0.961 . S
H989 C1001 0.959 . S
H990 C1004 0.929 . S
H991 C1005 0.931 . S
H992 C1007 0.930 . S
C993 H981 0.930 . S
C993 C994 1.399 . S
C993 C998 1.399 . S
C994 C993 1.399 . S
C994 C995 1.376 . S
C995 H982 0.930 . S
C995 C994 1.376 . S
C995 C996 1.388 . S
C996 H983 0.930 . S
C996 C995 1.388 . S
C996 C997 1.390 . S
C997 C996 1.390 . S
C997 C998 1.394 . S
C997 C1003 1.465 . S
C998 C993 1.399 . S
C998 C997 1.394 . S
C998 C999 1.516 . S
C999 C998 1.516 . S
C999 C1000 1.502 . S
C999 C1001 1.561 . S
C999 C1002 1.526 . S
C1000 H984 0.959 . S
C1000 H985 0.959 . S
C1000 H986 0.961 . S
C1000 C999 1.502 . S
C1001 H987 0.960 . S
C1001 H988 0.961 . S
C1001 H989 0.959 . S
C1001 C999 1.561 . S
C1002 C999 1.526 . S
C1002 C1003 1.396 . S
C1002 C1007 1.390 . S
C1003 C997 1.465 . S
C1003 C1002 1.396 . S
C1003 C1004 1.399 . S
C1004 H990 0.929 . S
C1004 C1003 1.399 . S
C1004 C1005 1.385 . S
C1005 H991 0.931 . S
C1005 C1004 1.385 . S
C1005 C1006 1.389 . S
C1006 C1005 1.389 . S
C1006 C1007 1.387 . S
C1007 H992 0.930 . S
C1007 C1002 1.390 . S
C1007 C1006 1.387 . S
H1008 C1020 0.930 . S
H1009 C1022 0.930 . S
H1010 C1023 0.930 . S
H1011 C1027 0.959 . S
H1012 C1027 0.959 . S
H1013 C1027 0.961 . S
H1014 C1028 0.960 . S
H1015 C1028 0.961 . S
H1016 C1028 0.959 . S
H1017 C1031 0.929 . S
H1018 C1032 0.931 . S
H1019 C1034 0.930 . S
C1020 H1008 0.930 . S
C1020 C1021 1.399 . S
C1020 C1025 1.399 . S
C1021 C1020 1.399 . S
C1021 C1022 1.376 . S
C1022 H1009 0.930 . S
C1022 C1021 1.376 . S
C1022 C1023 1.388 . S
C1023 H1010 0.930 . S
C1023 C1022 1.388 . S
C1023 C1024 1.390 . S
C1024 C1023 1.390 . S
C1024 C1025 1.394 . S
C1024 C1030 1.465 . S
C1025 C1020 1.399 . S
C1025 C1024 1.394 . S
C1025 C1026 1.516 . S
C1026 C1025 1.516 . S
C1026 C1027 1.502 . S
C1026 C1028 1.561 . S
C1026 C1029 1.526 . S
C1027 H1011 0.959 . S
C1027 H1012 0.959 . S
C1027 H1013 0.961 . S
C1027 C1026 1.502 . S
C1028 H1014 0.960 . S
C1028 H1015 0.961 . S
C1028 H1016 0.959 . S
C1028 C1026 1.561 . S
C1029 C1026 1.526 . S
C1029 C1030 1.396 . S
C1029 C1034 1.390 . S
C1030 C1024 1.465 . S
C1030 C1029 1.396 . S
C1030 C1031 1.399 . S
C1031 H1017 0.929 . S
C1031 C1030 1.399 . S
C1031 C1032 1.385 . S
C1032 H1018 0.931 . S
C1032 C1031 1.385 . S
C1032 C1033 1.389 . S
C1033 C1032 1.389 . S
C1033 C1034 1.387 . S
C1034 H1019 0.930 . S
C1034 C1029 1.390 . S
C1034 C1033 1.387 . S
H1035 C1047 0.930 . S
H1036 C1049 0.930 . S
H1037 C1050 0.930 . S
H1038 C1054 0.959 . S
H1039 C1054 0.959 . S
H1040 C1054 0.961 . S
H1041 C1055 0.960 . S
H1042 C1055 0.961 . S
H1043 C1055 0.959 . S
H1044 C1058 0.929 . S
H1045 C1059 0.931 . S
H1046 C1061 0.930 . S
C1047 H1035 0.930 . S
C1047 C1048 1.399 . S
C1047 C1052 1.399 . S
C1048 C1047 1.399 . S
C1048 C1049 1.376 . S
C1049 H1036 0.930 . S
C1049 C1048 1.376 . S
C1049 C1050 1.388 . S
C1050 H1037 0.930 . S
C1050 C1049 1.388 . S
C1050 C1051 1.390 . S
C1051 C1050 1.390 . S
C1051 C1052 1.394 . S
C1051 C1057 1.465 . S
C1052 C1047 1.399 . S
C1052 C1051 1.394 . S
C1052 C1053 1.516 . S
C1053 C1052 1.516 . S
C1053 C1054 1.502 . S
C1053 C1055 1.561 . S
C1053 C1056 1.526 . S
C1054 H1038 0.959 . S
C1054 H1039 0.959 . S
C1054 H1040 0.961 . S
C1054 C1053 1.502 . S
C1055 H1041 0.960 . S
C1055 H1042 0.961 . S
C1055 H1043 0.959 . S
C1055 C1053 1.561 . S
C1056 C1053 1.526 . S
C1056 C1057 1.396 . S
C1056 C1061 1.390 . S
C1057 C1051 1.465 . S
C1057 C1056 1.396 . S
C1057 C1058 1.399 . S
C1058 H1044 0.929 . S
C1058 C1057 1.399 . S
C1058 C1059 1.385 . S
C1059 H1045 0.931 . S
C1059 C1058 1.385 . S
C1059 C1060 1.389 . S
C1060 C1059 1.389 . S
C1060 C1061 1.387 . S
C1061 H1046 0.930 . S
C1061 C1056 1.390 . S
C1061 C1060 1.387 . S
H1062 C1074 0.930 . S
H1063 C1076 0.930 . S
H1064 C1077 0.930 . S
H1065 C1081 0.959 . S
H1066 C1081 0.959 . S
H1067 C1081 0.961 . S
H1068 C1082 0.960 . S
H1069 C1082 0.961 . S
H1070 C1082 0.959 . S
H1071 C1085 0.929 . S
H1072 C1086 0.931 . S
H1073 C1088 0.930 . S
C1074 H1062 0.930 . S
C1074 C1075 1.399 . S
C1074 C1079 1.399 . S
C1075 C1074 1.399 . S
C1075 C1076 1.376 . S
C1076 H1063 0.930 . S
C1076 C1075 1.376 . S
C1076 C1077 1.388 . S
C1077 H1064 0.930 . S
C1077 C1076 1.388 . S
C1077 C1078 1.390 . S
C1078 C1077 1.390 . S
C1078 C1079 1.394 . S
C1078 C1084 1.465 . S
C1079 C1074 1.399 . S
C1079 C1078 1.394 . S
C1079 C1080 1.516 . S
C1080 C1079 1.516 . S
C1080 C1081 1.502 . S
C1080 C1082 1.561 . S
C1080 C1083 1.526 . S
C1081 H1065 0.959 . S
C1081 H1066 0.959 . S
C1081 H1067 0.961 . S
C1081 C1080 1.502 . S
C1082 H1068 0.960 . S
C1082 H1069 0.961 . S
C1082 H1070 0.959 . S
C1082 C1080 1.561 . S
C1083 C1080 1.526 . S
C1083 C1084 1.396 . S
C1083 C1088 1.390 . S
C1084 C1078 1.465 . S
C1084 C1083 1.396 . S
C1084 C1085 1.399 . S
C1085 H1071 0.929 . S
C1085 C1084 1.399 . S
C1085 C1086 1.385 . S
C1086 H1072 0.931 . S
C1086 C1085 1.385 . S
C1086 C1087 1.389 . S
C1087 C1086 1.389 . S
C1087 C1088 1.387 . S
C1088 H1073 0.930 . S
C1088 C1083 1.390 . S
C1088 C1087 1.387 . S
H1089 C1101 0.930 . S
H1090 C1103 0.930 . S
H1091 C1104 0.930 . S
H1092 C1108 0.959 . S
H1093 C1108 0.959 . S
H1094 C1108 0.961 . S
H1095 C1109 0.960 . S
H1096 C1109 0.961 . S
H1097 C1109 0.959 . S
H1098 C1112 0.929 . S
H1099 C1113 0.931 . S
H1100 C1115 0.930 . S
C1101 H1089 0.930 . S
C1101 C1102 1.399 . S
C1101 C1106 1.399 . S
C1102 C1101 1.399 . S
C1102 C1103 1.376 . S
C1103 H1090 0.930 . S
C1103 C1102 1.376 . S
C1103 C1104 1.388 . S
C1104 H1091 0.930 . S
C1104 C1103 1.388 . S
C1104 C1105 1.390 . S
C1105 C1104 1.390 . S
C1105 C1106 1.394 . S
C1105 C1111 1.465 . S
C1106 C1101 1.399 . S
C1106 C1105 1.394 . S
C1106 C1107 1.516 . S
C1107 C1106 1.516 . S
C1107 C1108 1.502 . S
C1107 C1109 1.561 . S
C1107 C1110 1.526 . S
C1108 H1092 0.959 . S
C1108 H1093 0.959 . S
C1108 H1094 0.961 . S
C1108 C1107 1.502 . S
C1109 H1095 0.960 . S
C1109 H1096 0.961 . S
C1109 H1097 0.959 . S
C1109 C1107 1.561 . S
C1110 C1107 1.526 . S
C1110 C1111 1.396 . S
C1110 C1115 1.390 . S
C1111 C1105 1.465 . S
C1111 C1110 1.396 . S
C1111 C1112 1.399 . S
C1112 H1098 0.929 . S
C1112 C1111 1.399 . S
C1112 C1113 1.385 . S
C1113 H1099 0.931 . S
C1113 C1112 1.385 . S
C1113 C1114 1.389 . S
C1114 C1113 1.389 . S
C1114 C1115 1.387 . S
C1115 H1100 0.930 . S
C1115 C1110 1.390 . S
C1115 C1114 1.387 . S
H1116 C1128 0.930 . S
H1117 C1130 0.930 . S
H1118 C1131 0.930 . S
H1119 C1135 0.959 . S
H1120 C1135 0.959 . S
H1121 C1135 0.961 . S
H1122 C1136 0.960 . S
H1123 C1136 0.961 . S
H1124 C1136 0.959 . S
H1125 C1139 0.929 . S
H1126 C1140 0.931 . S
H1127 C1142 0.930 . S
C1128 H1116 0.930 . S
C1128 C1129 1.399 . S
C1128 C1133 1.399 . S
C1129 C1128 1.399 . S
C1129 C1130 1.376 . S
C1130 H1117 0.930 . S
C1130 C1129 1.376 . S
C1130 C1131 1.388 . S
C1131 H1118 0.930 . S
C1131 C1130 1.388 . S
C1131 C1132 1.390 . S
C1132 C1131 1.390 . S
C1132 C1133 1.394 . S
C1132 C1138 1.465 . S
C1133 C1128 1.399 . S
C1133 C1132 1.394 . S
C1133 C1134 1.516 . S
C1134 C1133 1.516 . S
C1134 C1135 1.502 . S
C1134 C1136 1.561 . S
C1134 C1137 1.526 . S
C1135 H1119 0.959 . S
C1135 H1120 0.959 . S
C1135 H1121 0.961 . S
C1135 C1134 1.502 . S
C1136 H1122 0.960 . S
C1136 H1123 0.961 . S
C1136 H1124 0.959 . S
C1136 C1134 1.561 . S
C1137 C1134 1.526 . S
C1137 C1138 1.396 . S
C1137 C1142 1.390 . S
C1138 C1132 1.465 . S
C1138 C1137 1.396 . S
C1138 C1139 1.399 . S
C1139 H1125 0.929 . S
C1139 C1138 1.399 . S
C1139 C1140 1.385 . S
C1140 H1126 0.931 . S
C1140 C1139 1.385 . S
C1140 C1141 1.389 . S
C1141 C1140 1.389 . S
C1141 C1142 1.387 . S
C1142 H1127 0.930 . S
C1142 C1137 1.390 . S
C1142 C1141 1.387 . S
H1143 C1155 0.930 . S
H1144 C1157 0.930 . S
H1145 C1158 0.930 . S
H1146 C1162 0.959 . S
H1147 C1162 0.959 . S
H1148 C1162 0.961 . S
H1149 C1163 0.960 . S
H1150 C1163 0.961 . S
H1151 C1163 0.959 . S
H1152 C1166 0.929 . S
H1153 C1167 0.931 . S
H1154 C1169 0.930 . S
C1155 H1143 0.930 . S
C1155 C1156 1.399 . S
C1155 C1160 1.399 . S
C1156 C1155 1.399 . S
C1156 C1157 1.376 . S
C1157 H1144 0.930 . S
C1157 C1156 1.376 . S
C1157 C1158 1.388 . S
C1158 H1145 0.930 . S
C1158 C1157 1.388 . S
C1158 C1159 1.390 . S
C1159 C1158 1.390 . S
C1159 C1160 1.394 . S
C1159 C1165 1.465 . S
C1160 C1155 1.399 . S
C1160 C1159 1.394 . S
C1160 C1161 1.516 . S
C1161 C1160 1.516 . S
C1161 C1162 1.502 . S
C1161 C1163 1.561 . S
C1161 C1164 1.526 . S
C1162 H1146 0.959 . S
C1162 H1147 0.959 . S
C1162 H1148 0.961 . S
C1162 C1161 1.502 . S
C1163 H1149 0.960 . S
C1163 H1150 0.961 . S
C1163 H1151 0.959 . S
C1163 C1161 1.561 . S
C1164 C1161 1.526 . S
C1164 C1165 1.396 . S
C1164 C1169 1.390 . S
C1165 C1159 1.465 . S
C1165 C1164 1.396 . S
C1165 C1166 1.399 . S
C1166 H1152 0.929 . S
C1166 C1165 1.399 . S
C1166 C1167 1.385 . S
C1167 H1153 0.931 . S
C1167 C1166 1.385 . S
C1167 C1168 1.389 . S
C1168 C1167 1.389 . S
C1168 C1169 1.387 . S
C1169 H1154 0.930 . S
C1169 C1164 1.390 . S
C1169 C1168 1.387 . S
H1170 C1182 0.930 . S
H1171 C1184 0.930 . S
H1172 C1185 0.930 . S
H1173 C1189 0.959 . S
H1174 C1189 0.959 . S
H1175 C1189 0.961 . S
H1176 C1190 0.960 . S
H1177 C1190 0.961 . S
H1178 C1190 0.959 . S
H1179 C1193 0.929 . S
H1180 C1194 0.931 . S
H1181 C1196 0.930 . S
C1182 H1170 0.930 . S
C1182 C1183 1.399 . S
C1182 C1187 1.399 . S
C1183 C1182 1.399 . S
C1183 C1184 1.376 . S
C1184 H1171 0.930 . S
C1184 C1183 1.376 . S
C1184 C1185 1.388 . S
C1185 H1172 0.930 . S
C1185 C1184 1.388 . S
C1185 C1186 1.390 . S
C1186 C1185 1.390 . S
C1186 C1187 1.394 . S
C1186 C1192 1.465 . S
C1187 C1182 1.399 . S
C1187 C1186 1.394 . S
C1187 C1188 1.516 . S
C1188 C1187 1.516 . S
C1188 C1189 1.502 . S
C1188 C1190 1.561 . S
C1188 C1191 1.526 . S
C1189 H1173 0.959 . S
C1189 H1174 0.959 . S
C1189 H1175 0.961 . S
C1189 C1188 1.502 . S
C1190 H1176 0.960 . S
C1190 H1177 0.961 . S
C1190 H1178 0.959 . S
C1190 C1188 1.561 . S
C1191 C1188 1.526 . S
C1191 C1192 1.396 . S
C1191 C1196 1.390 . S
C1192 C1186 1.465 . S
C1192 C1191 1.396 . S
C1192 C1193 1.399 . S
C1193 H1179 0.929 . S
C1193 C1192 1.399 . S
C1193 C1194 1.385 . S
C1194 H1180 0.931 . S
C1194 C1193 1.385 . S
C1194 C1195 1.389 . S
C1195 C1194 1.389 . S
C1195 C1196 1.387 . S
C1196 H1181 0.930 . S
C1196 C1191 1.390 . S
C1196 C1195 1.387 . S
H1197 C1209 0.930 . S
H1198 C1211 0.930 . S
H1199 C1212 0.930 . S
H1200 C1216 0.959 . S
H1201 C1216 0.959 . S
H1202 C1216 0.961 . S
H1203 C1217 0.960 . S
H1204 C1217 0.961 . S
H1205 C1217 0.959 . S
H1206 C1220 0.929 . S
H1207 C1221 0.931 . S
H1208 C1223 0.930 . S
C1209 H1197 0.930 . S
C1209 C1210 1.399 . S
C1209 C1214 1.399 . S
C1210 C1209 1.399 . S
C1210 C1211 1.376 . S
C1211 H1198 0.930 . S
C1211 C1210 1.376 . S
C1211 C1212 1.388 . S
C1212 H1199 0.930 . S
C1212 C1211 1.388 . S
C1212 C1213 1.390 . S
C1213 C1212 1.390 . S
C1213 C1214 1.394 . S
C1213 C1219 1.465 . S
C1214 C1209 1.399 . S
C1214 C1213 1.394 . S
C1214 C1215 1.516 . S
C1215 C1214 1.516 . S
C1215 C1216 1.502 . S
C1215 C1217 1.561 . S
C1215 C1218 1.526 . S
C1216 H1200 0.959 . S
C1216 H1201 0.959 . S
C1216 H1202 0.961 . S
C1216 C1215 1.502 . S
C1217 H1203 0.960 . S
C1217 H1204 0.961 . S
C1217 H1205 0.959 . S
C1217 C1215 1.561 . S
C1218 C1215 1.526 . S
C1218 C1219 1.396 . S
C1218 C1223 1.390 . S
C1219 C1213 1.465 . S
C1219 C1218 1.396 . S
C1219 C1220 1.399 . S
C1220 H1206 0.929 . S
C1220 C1219 1.399 . S
C1220 C1221 1.385 . S
C1221 H1207 0.931 . S
C1221 C1220 1.385 . S
C1221 C1222 1.389 . S
C1222 C1221 1.389 . S
C1222 C1223 1.387 . S
C1223 H1208 0.930 . S
C1223 C1218 1.390 . S
C1223 C1222 1.387 . S
H1224 C1236 0.930 . S
H1225 C1238 0.930 . S
H1226 C1239 0.930 . S
H1227 C1243 0.959 . S
H1228 C1243 0.959 . S
H1229 C1243 0.961 . S
H1230 C1244 0.960 . S
H1231 C1244 0.961 . S
H1232 C1244 0.959 . S
H1233 C1247 0.929 . S
H1234 C1248 0.931 . S
H1235 C1250 0.930 . S
C1236 H1224 0.930 . S
C1236 C1237 1.399 . S
C1236 C1241 1.399 . S
C1237 C1236 1.399 . S
C1237 C1238 1.376 . S
C1238 H1225 0.930 . S
C1238 C1237 1.376 . S
C1238 C1239 1.388 . S
C1239 H1226 0.930 . S
C1239 C1238 1.388 . S
C1239 C1240 1.390 . S
C1240 C1239 1.390 . S
C1240 C1241 1.394 . S
C1240 C1246 1.465 . S
C1241 C1236 1.399 . S
C1241 C1240 1.394 . S
C1241 C1242 1.516 . S
C1242 C1241 1.516 . S
C1242 C1243 1.502 . S
C1242 C1244 1.561 . S
C1242 C1245 1.526 . S
C1243 H1227 0.959 . S
C1243 H1228 0.959 . S
C1243 H1229 0.961 . S
C1243 C1242 1.502 . S
C1244 H1230 0.960 . S
C1244 H1231 0.961 . S
C1244 H1232 0.959 . S
C1244 C1242 1.561 . S
C1245 C1242 1.526 . S
C1245 C1246 1.396 . S
C1245 C1250 1.390 . S
C1246 C1240 1.465 . S
C1246 C1245 1.396 . S
C1246 C1247 1.399 . S
C1247 H1233 0.929 . S
C1247 C1246 1.399 . S
C1247 C1248 1.385 . S
C1248 H1234 0.931 . S
C1248 C1247 1.385 . S
C1248 C1249 1.389 . S
C1249 C1248 1.389 . S
C1249 C1250 1.387 . S
C1250 H1235 0.930 . S
C1250 C1245 1.390 . S
C1250 C1249 1.387 . S
H1251 C1263 0.930 . S
H1252 C1265 0.930 . S
H1253 C1266 0.930 . S
H1254 C1270 0.959 . S
H1255 C1270 0.959 . S
H1256 C1270 0.961 . S
H1257 C1271 0.960 . S
H1258 C1271 0.961 . S
H1259 C1271 0.959 . S
H1260 C1274 0.929 . S
H1261 C1275 0.931 . S
H1262 C1277 0.930 . S
C1263 H1251 0.930 . S
C1263 C1264 1.399 . S
C1263 C1268 1.399 . S
C1264 C1263 1.399 . S
C1264 C1265 1.376 . S
C1265 H1252 0.930 . S
C1265 C1264 1.376 . S
C1265 C1266 1.388 . S
C1266 H1253 0.930 . S
C1266 C1265 1.388 . S
C1266 C1267 1.390 . S
C1267 C1266 1.390 . S
C1267 C1268 1.394 . S
C1267 C1273 1.465 . S
C1268 C1263 1.399 . S
C1268 C1267 1.394 . S
C1268 C1269 1.516 . S
C1269 C1268 1.516 . S
C1269 C1270 1.502 . S
C1269 C1271 1.561 . S
C1269 C1272 1.526 . S
C1270 H1254 0.959 . S
C1270 H1255 0.959 . S
C1270 H1256 0.961 . S
C1270 C1269 1.502 . S
C1271 H1257 0.960 . S
C1271 H1258 0.961 . S
C1271 H1259 0.959 . S
C1271 C1269 1.561 . S
C1272 C1269 1.526 . S
C1272 C1273 1.396 . S
C1272 C1277 1.390 . S
C1273 C1267 1.465 . S
C1273 C1272 1.396 . S
C1273 C1274 1.399 . S
C1274 H1260 0.929 . S
C1274 C1273 1.399 . S
C1274 C1275 1.385 . S
C1275 H1261 0.931 . S
C1275 C1274 1.385 . S
C1275 C1276 1.389 . S
C1276 C1275 1.389 . S
C1276 C1277 1.387 . S
C1277 H1262 0.930 . S
C1277 C1272 1.390 . S
C1277 C1276 1.387 . S
H1278 C1290 0.930 . S
H1279 C1292 0.930 . S
H1280 C1293 0.930 . S
H1281 C1297 0.959 . S
H1282 C1297 0.959 . S
H1283 C1297 0.961 . S
H1284 C1298 0.960 . S
H1285 C1298 0.961 . S
H1286 C1298 0.959 . S
H1287 C1301 0.929 . S
H1288 C1302 0.931 . S
H1289 C1304 0.930 . S
C1290 H1278 0.930 . S
C1290 C1291 1.399 . S
C1290 C1295 1.399 . S
C1291 C1290 1.399 . S
C1291 C1292 1.376 . S
C1292 H1279 0.930 . S
C1292 C1291 1.376 . S
C1292 C1293 1.388 . S
C1293 H1280 0.930 . S
C1293 C1292 1.388 . S
C1293 C1294 1.390 . S
C1294 C1293 1.390 . S
C1294 C1295 1.394 . S
C1294 C1300 1.465 . S
C1295 C1290 1.399 . S
C1295 C1294 1.394 . S
C1295 C1296 1.516 . S
C1296 C1295 1.516 . S
C1296 C1297 1.502 . S
C1296 C1298 1.561 . S
C1296 C1299 1.526 . S
C1297 H1281 0.959 . S
C1297 H1282 0.959 . S
C1297 H1283 0.961 . S
C1297 C1296 1.502 . S
C1298 H1284 0.960 . S
C1298 H1285 0.961 . S
C1298 H1286 0.959 . S
C1298 C1296 1.561 . S
C1299 C1296 1.526 . S
C1299 C1300 1.396 . S
C1299 C1304 1.390 . S
C1300 C1294 1.465 . S
C1300 C1299 1.396 . S
C1300 C1301 1.399 . S
C1301 H1287 0.929 . S
C1301 C1300 1.399 . S
C1301 C1302 1.385 . S
C1302 H1288 0.931 . S
C1302 C1301 1.385 . S
C1302 C1303 1.389 . S
C1303 C1302 1.389 . S
C1303 C1304 1.387 . S
C1304 H1289 0.930 . S
C1304 C1299 1.390 . S
C1304 C1303 1.387 . S
H1305 C1317 0.930 . S
H1306 C1319 0.930 . S
H1307 C1320 0.930 . S
H1308 C1324 0.959 . S
H1309 C1324 0.959 . S
H1310 C1324 0.961 . S
H1311 C1325 0.960 . S
H1312 C1325 0.961 . S
H1313 C1325 0.959 . S
H1314 C1328 0.929 . S
H1315 C1329 0.931 . S
H1316 C1331 0.930 . S
C1317 H1305 0.930 . S
C1317 C1318 1.399 . S
C1317 C1322 1.399 . S
C1318 C1317 1.399 . S
C1318 C1319 1.376 . S
C1319 H1306 0.930 . S
C1319 C1318 1.376 . S
C1319 C1320 1.388 . S
C1320 H1307 0.930 . S
C1320 C1319 1.388 . S
C1320 C1321 1.390 . S
C1321 C1320 1.390 . S
C1321 C1322 1.394 . S
C1321 C1327 1.465 . S
C1322 C1317 1.399 . S
C1322 C1321 1.394 . S
C1322 C1323 1.516 . S
C1323 C1322 1.516 . S
C1323 C1324 1.502 . S
C1323 C1325 1.561 . S
C1323 C1326 1.526 . S
C1324 H1308 0.959 . S
C1324 H1309 0.959 . S
C1324 H1310 0.961 . S
C1324 C1323 1.502 . S
C1325 H1311 0.960 . S
C1325 H1312 0.961 . S
C1325 H1313 0.959 . S
C1325 C1323 1.561 . S
C1326 C1323 1.526 . S
C1326 C1327 1.396 . S
C1326 C1331 1.390 . S
C1327 C1321 1.465 . S
C1327 C1326 1.396 . S
C1327 C1328 1.399 . S
C1328 H1314 0.929 . S
C1328 C1327 1.399 . S
C1328 C1329 1.385 . S
C1329 H1315 0.931 . S
C1329 C1328 1.385 . S
C1329 C1330 1.389 . S
C1330 C1329 1.389 . S
C1330 C1331 1.387 . S
C1331 H1316 0.930 . S
C1331 C1326 1.390 . S
C1331 C1330 1.387 . S
H1332 C1344 0.930 . S
H1333 C1346 0.930 . S
H1334 C1347 0.930 . S
H1335 C1351 0.959 . S
H1336 C1351 0.959 . S
H1337 C1351 0.961 . S
H1338 C1352 0.960 . S
H1339 C1352 0.961 . S
H1340 C1352 0.959 . S
H1341 C1355 0.929 . S
H1342 C1356 0.931 . S
H1343 C1358 0.930 . S
C1344 H1332 0.930 . S
C1344 C1345 1.399 . S
C1344 C1349 1.399 . S
C1345 C1344 1.399 . S
C1345 C1346 1.376 . S
C1346 H1333 0.930 . S
C1346 C1345 1.376 . S
C1346 C1347 1.388 . S
C1347 H1334 0.930 . S
C1347 C1346 1.388 . S
C1347 C1348 1.390 . S
C1348 C1347 1.390 . S
C1348 C1349 1.394 . S
C1348 C1354 1.465 . S
C1349 C1344 1.399 . S
C1349 C1348 1.394 . S
C1349 C1350 1.516 . S
C1350 C1349 1.516 . S
C1350 C1351 1.502 . S
C1350 C1352 1.561 . S
C1350 C1353 1.526 . S
C1351 H1335 0.959 . S
C1351 H1336 0.959 . S
C1351 H1337 0.961 . S
C1351 C1350 1.502 . S
C1352 H1338 0.960 . S
C1352 H1339 0.961 . S
C1352 H1340 0.959 . S
C1352 C1350 1.561 . S
C1353 C1350 1.526 . S
C1353 C1354 1.396 . S
C1353 C1358 1.390 . S
C1354 C1348 1.465 . S
C1354 C1353 1.396 . S
C1354 C1355 1.399 . S
C1355 H1341 0.929 . S
C1355 C1354 1.399 . S
C1355 C1356 1.385 . S
C1356 H1342 0.931 . S
C1356 C1355 1.385 . S
C1356 C1357 1.389 . S
C1357 C1356 1.389 . S
C1357 C1358 1.387 . S
C1358 H1343 0.930 . S
C1358 C1353 1.390 . S
C1358 C1357 1.387 . S
H1359 C1371 0.930 . S
H1360 C1373 0.930 . S
H1361 C1374 0.930 . S
H1362 C1378 0.959 . S
H1363 C1378 0.959 . S
H1364 C1378 0.961 . S
H1365 C1379 0.960 . S
H1366 C1379 0.961 . S
H1367 C1379 0.959 . S
H1368 C1382 0.929 . S
H1369 C1383 0.931 . S
H1370 C1385 0.930 . S
C1371 H1359 0.930 . S
C1371 C1372 1.399 . S
C1371 C1376 1.399 . S
C1372 C1371 1.399 . S
C1372 C1373 1.376 . S
C1373 H1360 0.930 . S
C1373 C1372 1.376 . S
C1373 C1374 1.388 . S
C1374 H1361 0.930 . S
C1374 C1373 1.388 . S
C1374 C1375 1.390 . S
C1375 C1374 1.390 . S
C1375 C1376 1.394 . S
C1375 C1381 1.465 . S
C1376 C1371 1.399 . S
C1376 C1375 1.394 . S
C1376 C1377 1.516 . S
C1377 C1376 1.516 . S
C1377 C1378 1.502 . S
C1377 C1379 1.561 . S
C1377 C1380 1.526 . S
C1378 H1362 0.959 . S
C1378 H1363 0.959 . S
C1378 H1364 0.961 . S
C1378 C1377 1.502 . S
C1379 H1365 0.960 . S
C1379 H1366 0.961 . S
C1379 H1367 0.959 . S
C1379 C1377 1.561 . S
C1380 C1377 1.526 . S
C1380 C1381 1.396 . S
C1380 C1385 1.390 . S
C1381 C1375 1.465 . S
C1381 C1380 1.396 . S
C1381 C1382 1.399 . S
C1382 H1368 0.929 . S
C1382 C1381 1.399 . S
C1382 C1383 1.385 . S
C1383 H1369 0.931 . S
C1383 C1382 1.385 . S
C1383 C1384 1.389 . S
C1384 C1383 1.389 . S
C1384 C1385 1.387 . S
C1385 H1370 0.930 . S
C1385 C1380 1.390 . S
C1385 C1384 1.387 . S
H1386 C1398 0.930 . S
H1387 C1400 0.930 . S
H1388 C1401 0.930 . S
H1389 C1405 0.959 . S
H1390 C1405 0.959 . S
H1391 C1405 0.961 . S
H1392 C1406 0.960 . S
H1393 C1406 0.961 . S
H1394 C1406 0.959 . S
H1395 C1409 0.929 . S
H1396 C1410 0.931 . S
H1397 C1412 0.930 . S
C1398 H1386 0.930 . S
C1398 C1399 1.399 . S
C1398 C1403 1.399 . S
C1399 C1398 1.399 . S
C1399 C1400 1.376 . S
C1400 H1387 0.930 . S
C1400 C1399 1.376 . S
C1400 C1401 1.388 . S
C1401 H1388 0.930 . S
C1401 C1400 1.388 . S
C1401 C1402 1.390 . S
C1402 C1401 1.390 . S
C1402 C1403 1.394 . S
C1402 C1408 1.465 . S
C1403 C1398 1.399 . S
C1403 C1402 1.394 . S
C1403 C1404 1.516 . S
C1404 C1403 1.516 . S
C1404 C1405 1.502 . S
C1404 C1406 1.561 . S
C1404 C1407 1.526 . S
C1405 H1389 0.959 . S
C1405 H1390 0.959 . S
C1405 H1391 0.961 . S
C1405 C1404 1.502 . S
C1406 H1392 0.960 . S
C1406 H1393 0.961 . S
C1406 H1394 0.959 . S
C1406 C1404 1.561 . S
C1407 C1404 1.526 . S
C1407 C1408 1.396 . S
C1407 C1412 1.390 . S
C1408 C1402 1.465 . S
C1408 C1407 1.396 . S
C1408 C1409 1.399 . S
C1409 H1395 0.929 . S
C1409 C1408 1.399 . S
C1409 C1410 1.385 . S
C1410 H1396 0.931 . S
C1410 C1409 1.385 . S
C1410 C1411 1.389 . S
C1411 C1410 1.389 . S
C1411 C1412 1.387 . S
C1412 H1397 0.930 . S
C1412 C1407 1.390 . S
C1412 C1411 1.387 . S
H1413 C1425 0.930 . S
H1414 C1427 0.930 . S
H1415 C1428 0.930 . S
H1416 C1432 0.959 . S
H1417 C1432 0.959 . S
H1418 C1432 0.961 . S
H1419 C1433 0.960 . S
H1420 C1433 0.961 . S
H1421 C1433 0.959 . S
H1422 C1436 0.929 . S
H1423 C1437 0.931 . S
H1424 C1439 0.930 . S
C1425 H1413 0.930 . S
C1425 C1426 1.399 . S
C1425 C1430 1.399 . S
C1426 C1425 1.399 . S
C1426 C1427 1.376 . S
C1427 H1414 0.930 . S
C1427 C1426 1.376 . S
C1427 C1428 1.388 . S
C1428 H1415 0.930 . S
C1428 C1427 1.388 . S
C1428 C1429 1.390 . S
C1429 C1428 1.390 . S
C1429 C1430 1.394 . S
C1429 C1435 1.465 . S
C1430 C1425 1.399 . S
C1430 C1429 1.394 . S
C1430 C1431 1.516 . S
C1431 C1430 1.516 . S
C1431 C1432 1.502 . S
C1431 C1433 1.561 . S
C1431 C1434 1.526 . S
C1432 H1416 0.959 . S
C1432 H1417 0.959 . S
C1432 H1418 0.961 . S
C1432 C1431 1.502 . S
C1433 H1419 0.960 . S
C1433 H1420 0.961 . S
C1433 H1421 0.959 . S
C1433 C1431 1.561 . S
C1434 C1431 1.526 . S
C1434 C1435 1.396 . S
C1434 C1439 1.390 . S
C1435 C1429 1.465 . S
C1435 C1434 1.396 . S
C1435 C1436 1.399 . S
C1436 H1422 0.929 . S
C1436 C1435 1.399 . S
C1436 C1437 1.385 . S
C1437 H1423 0.931 . S
C1437 C1436 1.385 . S
C1437 C1438 1.389 . S
C1438 C1437 1.389 . S
C1438 C1439 1.387 . S
C1439 H1424 0.930 . S
C1439 C1434 1.390 . S
C1439 C1438 1.387 . S
H1440 C1452 0.930 . S
H1441 C1454 0.930 . S
H1442 C1455 0.930 . S
H1443 C1459 0.959 . S
H1444 C1459 0.959 . S
H1445 C1459 0.961 . S
H1446 C1460 0.960 . S
H1447 C1460 0.961 . S
H1448 C1460 0.959 . S
H1449 C1463 0.929 . S
H1450 C1464 0.931 . S
H1451 C1466 0.930 . S
C1452 H1440 0.930 . S
C1452 C1453 1.399 . S
C1452 C1457 1.399 . S
C1453 C1452 1.399 . S
C1453 C1454 1.376 . S
C1454 H1441 0.930 . S
C1454 C1453 1.376 . S
C1454 C1455 1.388 . S
C1455 H1442 0.930 . S
C1455 C1454 1.388 . S
C1455 C1456 1.390 . S
C1456 C1455 1.390 . S
C1456 C1457 1.394 . S
C1456 C1462 1.465 . S
C1457 C1452 1.399 . S
C1457 C1456 1.394 . S
C1457 C1458 1.516 . S
C1458 C1457 1.516 . S
C1458 C1459 1.502 . S
C1458 C1460 1.561 . S
C1458 C1461 1.526 . S
C1459 H1443 0.959 . S
C1459 H1444 0.959 . S
C1459 H1445 0.961 . S
C1459 C1458 1.502 . S
C1460 H1446 0.960 . S
C1460 H1447 0.961 . S
C1460 H1448 0.959 . S
C1460 C1458 1.561 . S
C1461 C1458 1.526 . S
C1461 C1462 1.396 . S
C1461 C1466 1.390 . S
C1462 C1456 1.465 . S
C1462 C1461 1.396 . S
C1462 C1463 1.399 . S
C1463 H1449 0.929 . S
C1463 C1462 1.399 . S
C1463 C1464 1.385 . S
C1464 H1450 0.931 . S
C1464 C1463 1.385 . S
C1464 C1465 1.389 . S
C1465 C1464 1.389 . S
C1465 C1466 1.387 . S
C1466 H1451 0.930 . S
C1466 C1461 1.390 . S
C1466 C1465 1.387 . S
H1467 C1479 0.930 . S
H1468 C1481 0.930 . S
H1469 C1482 0.930 . S
H1470 C1486 0.959 . S
H1471 C1486 0.959 . S
H1472 C1486 0.961 . S
H1473 C1487 0.960 . S
H1474 C1487 0.961 . S
H1475 C1487 0.959 . S
H1476 C1490 0.929 . S
H1477 C1491 0.931 . S
H1478 C1493 0.930 1_554 S
C1479 H1467 0.930 . S
C1479 C1480 1.399 . S
C1479 C1484 1.399 . S
C1480 C1479 1.399 . S
C1480 C1481 1.376 . S
C1481 H1468 0.930 . S
C1481 C1480 1.376 . S
C1481 C1482 1.388 . S
C1482 H1469 0.930 . S
C1482 C1481 1.388 . S
C1482 C1483 1.390 . S
C1483 C1482 1.390 . S
C1483 C1484 1.394 . S
C1483 C1489 1.465 . S
C1484 C1479 1.399 . S
C1484 C1483 1.394 . S
C1484 C1485 1.516 . S
C1485 C1484 1.516 . S
C1485 C1486 1.502 1_556 S
C1485 C1487 1.561 . S
C1485 C1488 1.526 . S
C1486 H1470 0.959 . S
C1486 H1471 0.959 . S
C1486 H1472 0.961 . S
C1486 C1485 1.502 1_554 S
C1487 H1473 0.960 . S
C1487 H1474 0.961 . S
C1487 H1475 0.959 . S
C1487 C1485 1.561 . S
C1488 C1485 1.526 . S
C1488 C1489 1.396 . S
C1488 C1493 1.390 . S
C1489 C1483 1.465 . S
C1489 C1488 1.396 . S
C1489 C1490 1.399 . S
C1490 H1476 0.929 . S
C1490 C1489 1.399 . S
C1490 C1491 1.385 . S
C1491 H1477 0.931 . S
C1491 C1490 1.385 . S
C1491 C1492 1.389 . S
C1492 C1491 1.389 . S
C1492 C1493 1.387 . S
C1493 H1478 0.930 1_556 S
C1493 C1488 1.390 . S
C1493 C1492 1.387 . S
H1494 C1506 0.930 . S
H1495 C1508 0.930 . S
H1496 C1509 0.930 . S
H1497 C1513 0.959 . S
H1498 C1513 0.959 1_554 S
H1499 C1513 0.961 . S
H1500 C1514 0.960 . S
H1501 C1514 0.961 . S
H1502 C1514 0.959 . S
H1503 C1517 0.929 . S
H1504 C1518 0.931 . S
H1505 C1520 0.930 1_554 S
C1506 H1494 0.930 . S
C1506 C1507 1.399 . S
C1506 C1511 1.399 . S
C1507 C1506 1.399 . S
C1507 C1508 1.376 . S
C1508 H1495 0.930 . S
C1508 C1507 1.376 . S
C1508 C1509 1.388 . S
C1509 H1496 0.930 . S
C1509 C1508 1.388 . S
C1509 C1510 1.390 . S
C1510 C1509 1.390 . S
C1510 C1511 1.394 . S
C1510 C1516 1.465 . S
C1511 C1506 1.399 . S
C1511 C1510 1.394 . S
C1511 C1512 1.516 . S
C1512 C1511 1.516 . S
C1512 C1513 1.502 . S
C1512 C1514 1.561 1_556 S
C1512 C1515 1.526 . S
C1513 H1497 0.959 . S
C1513 H1498 0.959 1_556 S
C1513 H1499 0.961 . S
C1513 C1512 1.502 . S
C1514 H1500 0.960 . S
C1514 H1501 0.961 . S
C1514 H1502 0.959 . S
C1514 C1512 1.561 1_554 S
C1515 C1512 1.526 . S
C1515 C1516 1.396 . S
C1515 C1520 1.390 . S
C1516 C1510 1.465 . S
C1516 C1515 1.396 . S
C1516 C1517 1.399 . S
C1517 H1503 0.929 . S
C1517 C1516 1.399 . S
C1517 C1518 1.385 . S
C1518 H1504 0.931 . S
C1518 C1517 1.385 . S
C1518 C1519 1.389 . S
C1519 C1518 1.389 . S
C1519 C1520 1.387 . S
C1520 H1505 0.930 1_556 S
C1520 C1515 1.390 . S
C1520 C1519 1.387 . S
H1521 C1533 0.930 . S
H1522 C1535 0.930 . S
H1523 C1536 0.930 . S
H1524 C1540 0.959 . S
H1525 C1540 0.959 . S
H1526 C1540 0.961 . S
H1527 C1541 0.960 . S
H1528 C1541 0.961 . S
H1529 C1541 0.959 . S
H1530 C1544 0.929 . S
H1531 C1545 0.931 . S
H1532 C1547 0.930 . S
C1533 H1521 0.930 . S
C1533 C1534 1.399 . S
C1533 C1538 1.399 . S
C1534 C1533 1.399 . S
C1534 C1535 1.376 . S
C1535 H1522 0.930 . S
C1535 C1534 1.376 . S
C1535 C1536 1.388 . S
C1536 H1523 0.930 . S
C1536 C1535 1.388 . S
C1536 C1537 1.390 . S
C1537 C1536 1.390 . S
C1537 C1538 1.394 . S
C1537 C1543 1.465 . S
C1538 C1533 1.399 . S
C1538 C1537 1.394 . S
C1538 C1539 1.516 . S
C1539 C1538 1.516 . S
C1539 C1540 1.502 . S
C1539 C1541 1.561 . S
C1539 C1542 1.526 . S
C1540 H1524 0.959 . S
C1540 H1525 0.959 . S
C1540 H1526 0.961 . S
C1540 C1539 1.502 . S
C1541 H1527 0.960 . S
C1541 H1528 0.961 . S
C1541 H1529 0.959 . S
C1541 C1539 1.561 . S
C1542 C1539 1.526 . S
C1542 C1543 1.396 . S
C1542 C1547 1.390 . S
C1543 C1537 1.465 . S
C1543 C1542 1.396 . S
C1543 C1544 1.399 1_556 S
C1544 H1530 0.929 . S
C1544 C1543 1.399 1_554 S
C1544 C1545 1.385 . S
C1545 H1531 0.931 . S
C1545 C1544 1.385 . S
C1545 C1546 1.389 1_554 S
C1546 C1545 1.389 1_556 S
C1546 C1547 1.387 . S
C1547 H1532 0.930 . S
C1547 C1542 1.390 . S
C1547 C1546 1.387 . S
H1548 C1560 0.930 . S
H1549 C1562 0.930 . S
H1550 C1563 0.930 . S
H1551 C1567 0.959 . S
H1552 C1567 0.959 . S
H1553 C1567 0.961 . S
H1554 C1568 0.960 . S
H1555 C1568 0.961 . S
H1556 C1568 0.959 . S
H1557 C1571 0.929 . S
H1558 C1572 0.931 . S
H1559 C1574 0.930 . S
C1560 H1548 0.930 . S
C1560 C1561 1.399 . S
C1560 C1565 1.399 . S
C1561 C1560 1.399 . S
C1561 C1562 1.376 . S
C1562 H1549 0.930 . S
C1562 C1561 1.376 . S
C1562 C1563 1.388 . S
C1563 H1550 0.930 . S
C1563 C1562 1.388 . S
C1563 C1564 1.390 . S
C1564 C1563 1.390 . S
C1564 C1565 1.394 . S
C1564 C1570 1.465 . S
C1565 C1560 1.399 . S
C1565 C1564 1.394 . S
C1565 C1566 1.516 . S
C1566 C1565 1.516 . S
C1566 C1567 1.502 . S
C1566 C1568 1.561 . S
C1566 C1569 1.526 . S
C1567 H1551 0.959 . S
C1567 H1552 0.959 . S
C1567 H1553 0.961 . S
C1567 C1566 1.502 . S
C1568 H1554 0.960 . S
C1568 H1555 0.961 . S
C1568 H1556 0.959 . S
C1568 C1566 1.561 . S
C1569 C1566 1.526 . S
C1569 C1570 1.396 . S
C1569 C1574 1.390 . S
C1570 C1564 1.465 . S
C1570 C1569 1.396 . S
C1570 C1571 1.399 . S
C1571 H1557 0.929 . S
C1571 C1570 1.399 . S
C1571 C1572 1.385 . S
C1572 H1558 0.931 . S
C1572 C1571 1.385 . S
C1572 C1573 1.389 . S
C1573 C1572 1.389 . S
C1573 C1574 1.387 . S
C1574 H1559 0.930 . S
C1574 C1569 1.390 . S
C1574 C1573 1.387 . S
H1575 C1587 0.930 . S
H1576 C1589 0.930 . S
H1577 C1590 0.930 . S
H1578 C1594 0.959 . S
H1579 C1594 0.959 . S
H1580 C1594 0.961 . S
H1581 C1595 0.960 . S
H1582 C1595 0.961 . S
H1583 C1595 0.959 . S
H1584 C1598 0.929 . S
H1585 C1599 0.931 . S
H1586 C1601 0.930 . S
C1587 H1575 0.930 . S
C1587 C1588 1.399 . S
C1587 C1592 1.399 . S
C1588 C1587 1.399 . S
C1588 C1589 1.376 . S
C1589 H1576 0.930 . S
C1589 C1588 1.376 . S
C1589 C1590 1.388 . S
C1590 H1577 0.930 . S
C1590 C1589 1.388 . S
C1590 C1591 1.390 . S
C1591 C1590 1.390 . S
C1591 C1592 1.394 . S
C1591 C1597 1.465 . S
C1592 C1587 1.399 . S
C1592 C1591 1.394 . S
C1592 C1593 1.516 . S
C1593 C1592 1.516 . S
C1593 C1594 1.502 . S
C1593 C1595 1.561 . S
C1593 C1596 1.526 . S
C1594 H1578 0.959 . S
C1594 H1579 0.959 . S
C1594 H1580 0.961 . S
C1594 C1593 1.502 . S
C1595 H1581 0.960 . S
C1595 H1582 0.961 . S
C1595 H1583 0.959 . S
C1595 C1593 1.561 . S
C1596 C1593 1.526 . S
C1596 C1597 1.396 . S
C1596 C1601 1.390 . S
C1597 C1591 1.465 . S
C1597 C1596 1.396 . S
C1597 C1598 1.399 . S
C1598 H1584 0.929 . S
C1598 C1597 1.399 . S
C1598 C1599 1.385 . S
C1599 H1585 0.931 . S
C1599 C1598 1.385 . S
C1599 C1600 1.389 . S
C1600 C1599 1.389 . S
C1600 C1601 1.387 . S
C1601 H1586 0.930 . S
C1601 C1596 1.390 . S
C1601 C1600 1.387 . S
H1602 C1614 0.930 . S
H1603 C1616 0.930 . S
H1604 C1617 0.930 . S
H1605 C1621 0.959 . S
H1606 C1621 0.959 . S
H1607 C1621 0.961 . S
H1608 C1622 0.960 . S
H1609 C1622 0.961 . S
H1610 C1622 0.959 . S
H1611 C1625 0.929 . S
H1612 C1626 0.931 . S
H1613 C1628 0.930 . S
C1614 H1602 0.930 . S
C1614 C1615 1.399 . S
C1614 C1619 1.399 . S
C1615 C1614 1.399 . S
C1615 C1616 1.376 . S
C1616 H1603 0.930 . S
C1616 C1615 1.376 . S
C1616 C1617 1.388 . S
C1617 H1604 0.930 . S
C1617 C1616 1.388 . S
C1617 C1618 1.390 . S
C1618 C1617 1.390 . S
C1618 C1619 1.394 . S
C1618 C1624 1.465 . S
C1619 C1614 1.399 . S
C1619 C1618 1.394 . S
C1619 C1620 1.516 . S
C1620 C1619 1.516 . S
C1620 C1621 1.502 . S
C1620 C1622 1.561 . S
C1620 C1623 1.526 . S
C1621 H1605 0.959 . S
C1621 H1606 0.959 . S
C1621 H1607 0.961 . S
C1621 C1620 1.502 . S
C1622 H1608 0.960 . S
C1622 H1609 0.961 . S
C1622 H1610 0.959 . S
C1622 C1620 1.561 . S
C1623 C1620 1.526 . S
C1623 C1624 1.396 . S
C1623 C1628 1.390 . S
C1624 C1618 1.465 . S
C1624 C1623 1.396 . S
C1624 C1625 1.399 . S
C1625 H1611 0.929 . S
C1625 C1624 1.399 . S
C1625 C1626 1.385 . S
C1626 H1612 0.931 . S
C1626 C1625 1.385 . S
C1626 C1627 1.389 . S
C1627 C1626 1.389 . S
C1627 C1628 1.387 . S
C1628 H1613 0.930 . S
C1628 C1623 1.390 . S
C1628 C1627 1.387 . S
H1629 C1641 0.930 . S
H1630 C1643 0.930 . S
H1631 C1644 0.930 . S
H1632 C1648 0.959 1_554 S
H1633 C1648 0.959 . S
H1634 C1648 0.961 . S
H1635 C1649 0.960 . S
H1636 C1649 0.961 . S
H1637 C1649 0.959 . S
H1638 C1652 0.929 . S
H1639 C1653 0.931 . S
H1640 C1655 0.930 . S
C1641 H1629 0.930 . S
C1641 C1642 1.399 1_556 S
C1641 C1646 1.399 1_556 S
C1642 C1641 1.399 1_554 S
C1642 C1643 1.376 . S
C1643 H1630 0.930 . S
C1643 C1642 1.376 . S
C1643 C1644 1.388 . S
C1644 H1631 0.930 . S
C1644 C1643 1.388 . S
C1644 C1645 1.390 . S
C1645 C1644 1.390 . S
C1645 C1646 1.394 . S
C1645 C1651 1.465 . S
C1646 C1641 1.399 1_554 S
C1646 C1645 1.394 . S
C1646 C1647 1.516 . S
C1647 C1646 1.516 . S
C1647 C1648 1.502 1_554 S
C1647 C1649 1.561 1_554 S
C1647 C1650 1.526 . S
C1648 H1632 0.959 1_556 S
C1648 H1633 0.959 . S
C1648 H1634 0.961 . S
C1648 C1647 1.502 1_556 S
C1649 H1635 0.960 . S
C1649 H1636 0.961 . S
C1649 H1637 0.959 . S
C1649 C1647 1.561 1_556 S
C1650 C1647 1.526 . S
C1650 C1651 1.396 . S
C1650 C1655 1.390 . S
C1651 C1645 1.465 . S
C1651 C1650 1.396 . S
C1651 C1652 1.399 . S
C1652 H1638 0.929 . S
C1652 C1651 1.399 . S
C1652 C1653 1.385 . S
C1653 H1639 0.931 . S
C1653 C1652 1.385 . S
C1653 C1654 1.389 . S
C1654 C1653 1.389 . S
C1654 C1655 1.387 . S
C1655 H1640 0.930 . S
C1655 C1650 1.390 . S
C1655 C1654 1.387 . S
H1656 C1668 0.930 . S
H1657 C1670 0.930 . S
H1658 C1671 0.930 . S
H1659 C1675 0.959 . S
H1660 C1675 0.959 . S
H1661 C1675 0.961 . S
H1662 C1676 0.960 . S
H1663 C1676 0.961 1_556 S
H1664 C1676 0.959 . S
H1665 C1679 0.929 . S
H1666 C1680 0.931 . S
H1667 C1682 0.930 . S
C1668 H1656 0.930 . S
C1668 C1669 1.399 . S
C1668 C1673 1.399 . S
C1669 C1668 1.399 . S
C1669 C1670 1.376 . S
C1670 H1657 0.930 . S
C1670 C1669 1.376 . S
C1670 C1671 1.388 . S
C1671 H1658 0.930 . S
C1671 C1670 1.388 . S
C1671 C1672 1.390 . S
C1672 C1671 1.390 . S
C1672 C1673 1.394 . S
C1672 C1678 1.465 . S
C1673 C1668 1.399 . S
C1673 C1672 1.394 . S
C1673 C1674 1.516 . S
C1674 C1673 1.516 . S
C1674 C1675 1.502 1_554 S
C1674 C1676 1.561 . S
C1674 C1677 1.526 . S
C1675 H1659 0.959 . S
C1675 H1660 0.959 . S
C1675 H1661 0.961 . S
C1675 C1674 1.502 1_556 S
C1676 H1662 0.960 . S
C1676 H1663 0.961 1_554 S
C1676 H1664 0.959 . S
C1676 C1674 1.561 . S
C1677 C1674 1.526 . S
C1677 C1678 1.396 . S
C1677 C1682 1.390 1_554 S
C1678 C1672 1.465 . S
C1678 C1677 1.396 . S
C1678 C1679 1.399 . S
C1679 H1665 0.929 . S
C1679 C1678 1.399 . S
C1679 C1680 1.385 . S
C1680 H1666 0.931 . S
C1680 C1679 1.385 . S
C1680 C1681 1.389 . S
C1681 C1680 1.389 . S
C1681 C1682 1.387 1_554 S
C1682 H1667 0.930 . S
C1682 C1677 1.390 1_556 S
C1682 C1681 1.387 1_556 S
H1683 C1695 0.930 . S
H1684 C1697 0.930 . S
H1685 C1698 0.930 1_556 S
H1686 C1702 0.959 . S
H1687 C1702 0.959 . S
H1688 C1702 0.961 . S
H1689 C1703 0.960 . S
H1690 C1703 0.961 . S
H1691 C1703 0.959 . S
H1692 C1706 0.929 . S
H1693 C1707 0.931 . S
H1694 C1709 0.930 . S
C1695 H1683 0.930 . S
C1695 C1696 1.399 . S
C1695 C1700 1.399 . S
C1696 C1695 1.399 . S
C1696 C1697 1.376 . S
C1697 H1684 0.930 . S
C1697 C1696 1.376 . S
C1697 C1698 1.388 . S
C1698 H1685 0.930 1_554 S
C1698 C1697 1.388 . S
C1698 C1699 1.390 . S
C1699 C1698 1.390 . S
C1699 C1700 1.394 . S
C1699 C1705 1.465 . S
C1700 C1695 1.399 . S
C1700 C1699 1.394 . S
C1700 C1701 1.516 . S
C1701 C1700 1.516 . S
C1701 C1702 1.502 . S
C1701 C1703 1.561 . S
C1701 C1704 1.526 . S
C1702 H1686 0.959 . S
C1702 H1687 0.959 . S
C1702 H1688 0.961 . S
C1702 C1701 1.502 . S
C1703 H1689 0.960 . S
C1703 H1690 0.961 . S
C1703 H1691 0.959 . S
C1703 C1701 1.561 . S
C1704 C1701 1.526 . S
C1704 C1705 1.396 . S
C1704 C1709 1.390 . S
C1705 C1699 1.465 . S
C1705 C1704 1.396 . S
C1705 C1706 1.399 1_554 S
C1706 H1692 0.929 . S
C1706 C1705 1.399 1_556 S
C1706 C1707 1.385 . S
C1707 H1693 0.931 . S
C1707 C1706 1.385 . S
C1707 C1708 1.389 1_556 S
C1708 C1707 1.389 1_554 S
C1708 C1709 1.387 . S
C1709 H1694 0.930 . S
C1709 C1704 1.390 . S
C1709 C1708 1.387 . S
H1710 C1722 0.930 . S
H1711 C1724 0.930 . S
H1712 C1725 0.930 1_455 S
H1713 C1729 0.959 . S
H1714 C1729 0.955 1_455 S
H1715 C1729 0.961 . S
H1716 C1730 0.960 . S
H1717 C1730 0.961 . S
H1718 C1730 0.959 . S
H1719 C1733 0.929 . S
H1720 C1734 0.931 . S
H1721 C1736 0.930 . S
C1722 H1710 0.930 . S
C1722 C1723 1.399 . S
C1722 C1727 1.399 . S
C1723 C1722 1.399 . S
C1723 C1724 1.376 . S
C1724 H1711 0.930 . S
C1724 C1723 1.376 . S
C1724 C1725 1.388 . S
C1725 H1712 0.930 1_655 S
C1725 C1724 1.388 . S
C1725 C1726 1.390 1_655 S
C1726 C1725 1.390 1_455 S
C1726 C1727 1.394 1_455 S
C1726 C1732 1.465 . S
C1727 C1722 1.399 . S
C1727 C1726 1.394 1_655 S
C1727 C1728 1.516 . S
C1728 C1727 1.516 . S
C1728 C1729 1.502 . S
C1728 C1730 1.561 . S
C1728 C1731 1.526 1_655 S
C1729 H1713 0.959 . S
C1729 H1714 0.955 1_655 S
C1729 H1715 0.961 . S
C1729 C1728 1.502 . S
C1730 H1716 0.960 . S
C1730 H1717 0.961 . S
C1730 H1718 0.959 . S
C1730 C1728 1.561 . S
C1731 C1728 1.526 1_455 S
C1731 C1732 1.396 . S
C1731 C1736 1.390 . S
C1732 C1726 1.465 . S
C1732 C1731 1.396 . S
C1732 C1733 1.399 . S
C1733 H1719 0.929 . S
C1733 C1732 1.399 . S
C1733 C1734 1.385 . S
C1734 H1720 0.931 . S
C1734 C1733 1.385 . S
C1734 C1735 1.389 . S
C1735 C1734 1.389 . S
C1735 C1736 1.387 . S
C1736 H1721 0.930 . S
C1736 C1731 1.390 . S
C1736 C1735 1.387 . S
H1737 C1749 0.930 . S
H1738 C1751 0.930 . S
H1739 C1752 0.930 . S
H1740 C1756 0.959 . S
H1741 C1756 0.959 . S
H1742 C1756 0.961 . S
H1743 C1757 0.960 . S
H1744 C1757 0.961 . S
H1745 C1757 0.959 . S
H1746 C1760 0.929 . S
H1747 C1761 0.931 . S
H1748 C1763 0.930 . S
C1749 H1737 0.930 . S
C1749 C1750 1.399 . S
C1749 C1754 1.399 . S
C1750 C1749 1.399 . S
C1750 C1751 1.376 . S
C1751 H1738 0.930 . S
C1751 C1750 1.376 . S
C1751 C1752 1.388 . S
C1752 H1739 0.930 . S
C1752 C1751 1.388 . S
C1752 C1753 1.390 . S
C1753 C1752 1.390 . S
C1753 C1754 1.394 . S
C1753 C1759 1.465 . S
C1754 C1749 1.399 . S
C1754 C1753 1.394 . S
C1754 C1755 1.516 . S
C1755 C1754 1.516 . S
C1755 C1756 1.502 . S
C1755 C1757 1.561 . S
C1755 C1758 1.526 . S
C1756 H1740 0.959 . S
C1756 H1741 0.959 . S
C1756 H1742 0.961 . S
C1756 C1755 1.502 . S
C1757 H1743 0.960 . S
C1757 H1744 0.961 . S
C1757 H1745 0.959 . S
C1757 C1755 1.561 . S
C1758 C1755 1.526 . S
C1758 C1759 1.396 . S
C1758 C1763 1.390 . S
C1759 C1753 1.465 . S
C1759 C1758 1.396 . S
C1759 C1760 1.399 . S
C1760 H1746 0.929 . S
C1760 C1759 1.399 . S
C1760 C1761 1.385 . S
C1761 H1747 0.931 . S
C1761 C1760 1.385 . S
C1761 C1762 1.389 . S
C1762 C1761 1.389 . S
C1762 C1763 1.387 . S
C1763 H1748 0.930 . S
C1763 C1758 1.390 . S
C1763 C1762 1.387 . S
H1764 C1776 0.930 . S
H1765 C1778 0.930 . S
H1766 C1779 0.930 . S
H1767 C1783 0.959 . S
H1768 C1783 0.959 . S
H1769 C1783 0.961 . S
H1770 C1784 0.960 . S
H1771 C1784 0.961 . S
H1772 C1784 0.959 . S
H1773 C1787 0.929 . S
H1774 C1788 0.931 . S
H1775 C1790 0.930 . S
C1776 H1764 0.930 . S
C1776 C1777 1.399 . S
C1776 C1781 1.375 1_565 S
C1777 C1776 1.399 . S
C1777 C1778 1.376 . S
C1778 H1765 0.930 . S
C1778 C1777 1.376 . S
C1778 C1779 1.388 . S
C1779 H1766 0.930 . S
C1779 C1778 1.388 . S
C1779 C1780 1.392 1_565 S
C1780 C1779 1.392 1_545 S
C1780 C1781 1.386 . S
C1780 C1786 1.463 . S
C1781 C1776 1.375 1_545 S
C1781 C1780 1.386 . S
C1781 C1782 1.548 . S
C1782 C1781 1.548 . S
C1782 C1783 1.502 . S
C1782 C1784 1.561 . S
C1782 C1785 1.526 . S
C1783 H1767 0.959 . S
C1783 H1768 0.959 . S
C1783 H1769 0.961 . S
C1783 C1782 1.502 . S
C1784 H1770 0.960 . S
C1784 H1771 0.961 . S
C1784 H1772 0.959 . S
C1784 C1782 1.561 . S
C1785 C1782 1.526 . S
C1785 C1786 1.396 . S
C1785 C1790 1.390 . S
C1786 C1780 1.463 . S
C1786 C1785 1.396 . S
C1786 C1787 1.399 . S
C1787 H1773 0.929 . S
C1787 C1786 1.399 . S
C1787 C1788 1.385 . S
C1788 H1774 0.931 . S
C1788 C1787 1.385 . S
C1788 C1789 1.389 . S
C1789 C1788 1.389 . S
C1789 C1790 1.387 . S
C1790 H1775 0.930 . S
C1790 C1785 1.390 . S
C1790 C1789 1.387 . S
H1791 C1803 0.930 . S
H1792 C1805 0.930 . S
H1793 C1806 0.930 . S
H1794 C1810 0.959 1_545 S
H1795 C1810 0.959 1_545 S
H1796 C1810 0.961 . S
H1797 C1811 1.001 . S
H1798 C1811 0.946 1_545 S
H1799 C1811 0.924 1_545 S
H1800 C1814 0.929 . S
H1801 C1815 0.931 . S
H1802 C1817 0.930 . S
C1803 H1791 0.930 . S
C1803 C1804 1.399 . S
C1803 C1808 1.399 . S
C1804 C1803 1.399 . S
C1804 C1805 1.376 . S
C1805 H1792 0.930 . S
C1805 C1804 1.376 . S
C1805 C1806 1.388 1_565 S
C1806 H1793 0.930 . S
C1806 C1805 1.388 1_545 S
C1806 C1807 1.390 . S
C1807 C1806 1.390 . S
C1807 C1808 1.394 1_545 S
C1807 C1813 1.465 . S
C1808 C1803 1.399 . S
C1808 C1807 1.394 1_565 S
C1808 C1809 1.516 1_565 S
C1809 C1808 1.516 1_545 S
C1809 C1810 1.502 1_545 S
C1809 C1811 1.573 1_545 S
C1809 C1812 1.526 . S
C1810 H1794 0.959 1_565 S
C1810 H1795 0.959 1_565 S
C1810 H1796 0.961 . S
C1810 C1809 1.502 1_565 S
C1811 H1797 1.001 . S
C1811 H1798 0.946 1_565 S
C1811 H1799 0.924 1_565 S
C1811 C1809 1.573 1_565 S
C1812 C1809 1.526 . S
C1812 C1813 1.396 . S
C1812 C1817 1.390 . S
C1813 C1807 1.465 . S
C1813 C1812 1.396 . S
C1813 C1814 1.399 . S
C1814 H1800 0.929 . S
C1814 C1813 1.399 . S
C1814 C1815 1.385 . S
C1815 H1801 0.931 . S
C1815 C1814 1.385 . S
C1815 C1816 1.389 . S
C1816 C1815 1.389 . S
C1816 C1817 1.387 . S
C1817 H1802 0.930 . S
C1817 C1812 1.390 . S
C1817 C1816 1.387 . S
H1818 C1830 0.930 . S
H1819 C1832 0.930 . S
H1820 C1833 0.930 . S
H1821 C1837 0.959 . S
H1822 C1837 0.959 . S
H1823 C1837 0.961 . S
H1824 C1838 0.960 . S
H1825 C1838 0.961 1_655 S
H1826 C1838 0.959 . S
H1827 C1841 0.929 1_455 S
H1828 C1842 0.931 . S
H1829 C1844 0.930 . S
C1830 H1818 0.930 . S
C1830 C1831 1.399 . S
C1830 C1835 1.399 . S
C1831 C1830 1.399 . S
C1831 C1832 1.376 . S
C1832 H1819 0.930 . S
C1832 C1831 1.376 . S
C1832 C1833 1.388 . S
C1833 H1820 0.930 . S
C1833 C1832 1.388 . S
C1833 C1834 1.390 . S
C1834 C1833 1.390 . S
C1834 C1835 1.394 . S
C1834 C1840 1.465 . S
C1835 C1830 1.399 . S
C1835 C1834 1.394 . S
C1835 C1836 1.497 1_455 S
C1836 C1835 1.497 1_655 S
C1836 C1837 1.506 . S
C1836 C1838 1.571 1_655 S
C1836 C1839 1.532 . S
C1837 H1821 0.959 . S
C1837 H1822 0.959 . S
C1837 H1823 0.961 . S
C1837 C1836 1.506 . S
C1838 H1824 0.960 . S
C1838 H1825 0.961 1_455 S
C1838 H1826 0.959 . S
C1838 C1836 1.571 1_455 S
C1839 C1836 1.532 . S
C1839 C1840 1.396 1_655 S
C1839 C1844 1.390 . S
C1840 C1834 1.465 . S
C1840 C1839 1.396 1_455 S
C1840 C1841 1.399 1_455 S
C1841 H1827 0.929 1_655 S
C1841 C1840 1.399 1_655 S
C1841 C1842 1.385 . S
C1842 H1828 0.931 . S
C1842 C1841 1.385 . S
C1842 C1843 1.389 . S
C1843 C1842 1.389 . S
C1843 C1844 1.387 . S
C1844 H1829 0.930 . S
C1844 C1839 1.390 . S
C1844 C1843 1.387 . S
H1845 C1857 0.930 . S
H1846 C1859 0.930 . S
H1847 C1860 0.930 . S
H1848 C1864 0.959 . S
H1849 C1864 0.959 . S
H1850 C1864 0.961 . S
H1851 C1865 0.960 . S
H1852 C1865 0.961 . S
H1853 C1865 0.959 . S
H1854 C1868 0.929 . S
H1855 C1869 0.931 . S
H1856 C1871 0.930 . S
C1857 H1845 0.930 . S
C1857 C1858 1.399 . S
C1857 C1862 1.399 . S
C1858 C1857 1.399 . S
C1858 C1859 1.376 . S
C1859 H1846 0.930 . S
C1859 C1858 1.376 . S
C1859 C1860 1.388 . S
C1860 H1847 0.930 . S
C1860 C1859 1.388 . S
C1860 C1861 1.390 . S
C1861 C1860 1.390 . S
C1861 C1862 1.394 . S
C1861 C1867 1.465 . S
C1862 C1857 1.399 . S
C1862 C1861 1.394 . S
C1862 C1863 1.516 . S
C1863 C1862 1.516 . S
C1863 C1864 1.502 . S
C1863 C1865 1.561 . S
C1863 C1866 1.526 . S
C1864 H1848 0.959 . S
C1864 H1849 0.959 . S
C1864 H1850 0.961 . S
C1864 C1863 1.502 . S
C1865 H1851 0.960 . S
C1865 H1852 0.961 . S
C1865 H1853 0.959 . S
C1865 C1863 1.561 . S
C1866 C1863 1.526 . S
C1866 C1867 1.396 . S
C1866 C1871 1.390 . S
C1867 C1861 1.465 . S
C1867 C1866 1.396 . S
C1867 C1868 1.399 . S
C1868 H1854 0.929 . S
C1868 C1867 1.399 . S
C1868 C1869 1.385 . S
C1869 H1855 0.931 . S
C1869 C1868 1.385 . S
C1869 C1870 1.389 . S
C1870 C1869 1.389 . S
C1870 C1871 1.387 . S
C1871 H1856 0.930 . S
C1871 C1866 1.390 . S
C1871 C1870 1.387 . S
C427 C18 1.362 . S
C439 C111 1.359 . S
C454 C134 1.350 . S
C466 C41 1.370 . S
C481 C64 1.334 . S
C493 C88 1.389 . S
C508 C63 1.662 . S
C520 C112 1.709 . S
C535 C135 1.710 . S
C547 C17 1.627 . S
C562 C40 1.683 . S
C574 C89 1.687 . S
C589 C42 1.676 . S
C601 C86 1.743 . S
C616 C65 1.673 . S
C628 C109 1.744 . S
C643 C132 1.681 . S
C655 C19 1.740 . S
C670 C133 1.319 . S
C682 C43 1.331 . S
C697 C66 1.358 . S
C709 C87 1.355 . S
C724 C20 1.339 . S
C736 C110 1.324 . S
C751 C249 1.339 . S
C763 C156 1.382 . S
C778 C179 1.367 . S
C790 C272 1.352 . S
C805 C202 1.397 . S
C817 C226 1.322 . S
C832 C250 1.702 . S
C844 C201 1.641 . S
C859 C273 1.727 . S
C871 C155 1.627 . S
C886 C227 1.728 . S
C898 C178 1.623 . S
C913 C180 1.671 . S
C925 C224 1.745 . S
C940 C203 1.726 . S
C952 C247 1.697 . S
C967 C157 1.748 . S
C979 C270 1.673 . S
C994 C181 1.330 . S
C1006 C271 1.338 . S
C1021 C204 1.358 . S
C1033 C225 1.355 . S
C1048 C248 1.325 . S
C1060 C158 1.324 . S
C1075 C294 1.356 . S
C1087 C387 1.366 . S
C1102 C317 1.370 . S
C1114 C410 1.350 . S
C1129 C364 1.365 . S
C1141 C340 1.359 . S
C1156 C388 1.693 . S
C1168 C339 1.659 . S
C1183 C293 1.657 . S
C1195 C411 1.695 . S
C1210 C316 1.604 . S
C1222 C365 1.728 . S
C1237 C318 1.749 . S
C1249 C362 1.662 1_554 S
C1264 C341 1.717 . S
C1276 C385 1.696 1_554 S
C1291 C295 1.706 . S
C1303 C408 1.706 1_554 S
C1318 C409 1.355 . S
C1330 C319 1.348 . S
C1345 C363 1.327 . S
C1357 C342 1.342 . S
C1372 C296 1.349 . S
C1384 C386 1.336 . S
C1399 C16 1.329 . S
C1411 C320 1.332 . S
C1426 C39 1.327 . S
C1438 C343 1.344 . S
C1453 C62 1.332 . S
C1465 C297 1.321 . S
C1480 C67 1.309 . S
C1492 C177 1.356 1_556 S
C1507 C21 1.352 . S
C1519 C200 1.337 1_556 S
C1534 C44 1.329 . S
C1546 C154 1.330 1_556 S
C1561 C246 1.411 . S
C1573 C90 1.370 . S
C1588 C113 1.410 . S
C1600 C269 1.420 . S
C1615 C136 1.392 . S
C1627 C223 1.423 . S
C1642 C389 1.398 1_554 S
C1654 C131 1.395 . S
C1669 C85 1.399 . S
C1681 C412 1.382 1_554 S
C1696 C108 1.418 . S
C1708 C366 1.411 1_554 S
C1723 C205 1.346 . S
C1735 C315 1.341 . S
C1750 C159 1.292 . S
C1762 C338 1.355 . S
C1777 C292 1.357 . S
C1789 C182 1.307 . S
C1804 C384 1.406 . S
C1816 C228 1.372 . S
C1831 C407 1.419 . S
C1843 C251 1.409 . S
C1858 C274 1.404 . S
C1870 C361 1.395 . S
