# Generated by pormake.
# Topology cab, (5)-cn, num edge types: 1
# Building blocks:
#     Node 0, Type 0, BuildingBlock: XOMCOT_clean_sbu_1, # of connection points: 5
#     Node 1, Type 0, BuildingBlock: XOMCOT_clean_sbu_1, # of connection points: 5
#     Node 2, Type 0, BuildingBlock: XOMCOT_clean_sbu_1, # of connection points: 5
#     Node 3, Type 0, BuildingBlock: XOMCOT_clean_sbu_1, # of connection points: 5
#     Node 4, Type 0, BuildingBlock: XOMCOT_clean_sbu_1, # of connection points: 5
#     Node 5, Type 0, BuildingBlock: XOMCOT_clean_sbu_1, # of connection points: 5
#     Edge 6, Type (0, 0), BuildingBlock: TEMPAE_clean_linker_10, # of connection points: 2
#     Edge 7, Type (0, 0), BuildingBlock: TEMPAE_clean_linker_10, # of connection points: 2
#     Edge 8, Type (0, 0), BuildingBlock: TEMPAE_clean_linker_10, # of connection points: 2
#     Edge 9, Type (0, 0), BuildingBlock: TEMPAE_clean_linker_10, # of connection points: 2
#     Edge 10, Type (0, 0), BuildingBlock: TEMPAE_clean_linker_10, # of connection points: 2
#     Edge 11, Type (0, 0), BuildingBlock: TEMPAE_clean_linker_10, # of connection points: 2
#     Edge 12, Type (0, 0), BuildingBlock: TEMPAE_clean_linker_10, # of connection points: 2
#     Edge 13, Type (0, 0), BuildingBlock: TEMPAE_clean_linker_10, # of connection points: 2
#     Edge 14, Type (0, 0), BuildingBlock: TEMPAE_clean_linker_10, # of connection points: 2
#     Edge 15, Type (0, 0), BuildingBlock: TEMPAE_clean_linker_10, # of connection points: 2
#     Edge 16, Type (0, 0), BuildingBlock: TEMPAE_clean_linker_10, # of connection points: 2
#     Edge 17, Type (0, 0), BuildingBlock: TEMPAE_clean_linker_10, # of connection points: 2
#     Edge 18, Type (0, 0), BuildingBlock: TEMPAE_clean_linker_10, # of connection points: 2
#     Edge 19, Type (0, 0), BuildingBlock: TEMPAE_clean_linker_10, # of connection points: 2
#     Edge 20, Type (0, 0), BuildingBlock: TEMPAE_clean_linker_10, # of connection points: 2
# Relax obj value: 0.863
# Max RMSD: 0.209
# Mean RMSD: 0.207
data_MOF--net-cab--node1-XOMCOT_clean_sbu_1--edge1-TEMPAE_clean_linker_10
_symmetry_space_group_name_H-M    P1
_symmetry_Int_Tables_number       1
_symmetry_cell_setting            triclinic
loop_
_symmetry_equiv_pos_as_xyz
'x, y, z'
_cell_length_a     36.195086
_cell_length_b     36.283219
_cell_length_c     36.233894
_cell_angle_alpha  79.981399
_cell_angle_beta   69.555748
_cell_angle_gamma 80.030409
loop_
_atom_site_label
_atom_site_type_symbol
_atom_site_fract_x
_atom_site_fract_y
_atom_site_fract_z
_atom_type_partial_charge
C0 C 0.97253 0.98327 0.45354 0.0
C1 C 0.97364 0.94551 0.45143 0.0
N2 N 0.00229 0.9368 0.4176 0.0
N3 N 0.00092 0.99784 0.42156 0.0
C4 C 0.0181 0.96898 0.39995 0.0
H5 H 0.95325 0.99879 0.47751 0.0
Co6 Co 0.01574 0.04586 0.41211 0.0
C7 C 0.103 0.03568 0.38045 0.0
O8 O 0.10377 0.05617 0.40666 0.0
N9 N 0.031 0.09546 0.40127 0.0
C10 C 0.0345 0.1567 0.39877 0.0
C11 C 0.02414 0.12396 0.4234 0.0
C12 C 0.04665 0.11171 0.36355 0.0
N13 N 0.04797 0.14894 0.36104 0.0
O14 O 0.00054 0.05542 0.36619 0.0
H15 H 0.00995 0.12253 0.45506 0.0
H16 H 0.05454 0.09686 0.3379 0.0
O17 O 0.06985 0.028 0.38042 0.0
C18 C 0.96904 0.07859 0.37167 0.0
O19 O 0.95135 0.09042 0.40665 0.0
N20 N 0.02613 0.03655 0.45952 0.0
C21 C 0.02626 0.02588 0.53727 0.0
C22 C 0.05359 0.00359 0.50903 0.0
C23 C 0.05269 0.00907 0.47019 0.0
C24 C -0.00332 0.05492 0.48752 0.0
C25 C -0.00309 0.05114 0.52611 0.0
H26 H 0.07274 0.99096 0.44904 0.0
H27 H 0.97294 0.07312 0.47951 0.0
H28 H 0.04293 0.971 0.37258 0.0
H29 H 0.95534 0.92589 0.47323 0.0
H30 H 0.02916 0.18461 0.40778 0.0
H31 H 0.0755 0.98227 0.51672 0.0
H32 H 0.97486 0.06893 0.54637 0.0
C33 C 0.14412 0.00203 0.80909 0.0
C34 C 0.11016 0.9909 0.8379 0.0
N35 N 0.10492 0.00651 0.87079 0.0
N36 N 0.15992 0.02476 0.82372 0.0
C37 C 0.13572 0.02658 0.86149 0.0
H38 H 0.15597 0.99499 0.77901 0.0
Co39 Co 0.20402 0.04936 0.79492 0.0
C40 C 0.20968 0.09577 0.85045 0.0
O41 O 0.24705 0.08179 0.84414 0.0
N42 N 0.24858 0.0739 0.76527 0.0
C43 C 0.28751 0.11915 0.73705 0.0
C44 C 0.24912 0.11065 0.75015 0.0
C45 C 0.28697 0.06056 0.75996 0.0
N46 N 0.31126 0.08765 0.74378 0.0
O47 O 0.2325 0.01612 0.82493 0.0
H48 H 0.22301 0.1308 0.75166 0.0
H49 H 0.29652 0.03262 0.77206 0.0
O50 O 0.1894 0.08474 0.83288 0.0
C51 C 0.24018 0.98225 0.8171 0.0
O52 O 0.23959 0.97583 0.78271 0.0
N53 N 0.17423 0.07981 0.76636 0.0
C54 C 0.11802 0.09764 0.72885 0.0
C55 C 0.10943 0.10818 0.76648 0.0
C56 C 0.13842 0.09938 0.78475 0.0
C57 C 0.18428 0.07283 0.72819 0.0
C58 C 0.15655 0.08213 0.70849 0.0
H59 H 0.13006 0.10397 0.81542 0.0
H60 H 0.21232 0.05642 0.71461 0.0
H61 H 0.1395 0.04368 0.88125 0.0
H62 H 0.09044 0.97336 0.83462 0.0
H63 H 0.29665 0.14708 0.72702 0.0
H64 H 0.07958 0.11945 0.78305 0.0
H65 H 0.16357 0.07301 0.6796 0.0
C66 C 0.4128 0.06327 0.11487 0.0
C67 C 0.38452 0.06376 0.15198 0.0
N68 N 0.35723 0.04161 0.15459 0.0
N69 N 0.40308 0.04118 0.09425 0.0
C70 C 0.36913 0.02823 0.1193 0.0
H71 H 0.43804 0.07907 0.10305 0.0
Co72 Co 0.42917 0.03675 0.04102 0.0
C73 C 0.39858 0.97287 0.0258 0.0
O74 O 0.43443 0.9606 0.0035 0.0
N75 N 0.45545 0.03372 0.9862 0.0
C76 C 0.49713 0.03084 0.92429 0.0
C77 C 0.49421 0.02889 0.96345 0.0
C78 C 0.43576 0.0391 0.95982 0.0
N79 N 0.46021 0.03715 0.92216 0.0
O80 O 0.39396 0.07841 0.02878 0.0
H81 H 0.51939 0.02479 0.97362 0.0
H82 H 0.40376 0.04504 0.96821 0.0
O83 O 0.39284 0.00292 0.04187 0.0
C84 C 0.40488 0.11118 0.02035 0.0
O85 O 0.44151 0.11483 0.01675 0.0
N86 N 0.46381 0.99695 0.05545 0.0
C87 C 0.51872 0.94642 0.0822 0.0
C88 C 0.48013 0.93774 0.09145 0.0
C89 C 0.45284 0.96367 0.07796 0.0
C90 C 0.50028 0.00673 0.04915 0.0
C91 C 0.52873 0.98132 0.06071 0.0
H92 H 0.42247 0.95774 0.08771 0.0
H93 H 0.50689 0.03498 0.03607 0.0
H94 H 0.35223 0.01089 0.1114 0.0
H95 H 0.38359 0.07973 0.17496 0.0
H96 H 0.52435 0.02785 0.89942 0.0
H97 H 0.47079 0.91204 0.1102 0.0
H98 H 0.55755 0.98993 0.05516 0.0
C99 C 0.14938 0.38097 0.07195 0.0
C100 C 0.18674 0.36305 0.0704 0.0
N101 N 0.19421 0.33304 0.05049 0.0
N102 N 0.13361 0.36201 0.05337 0.0
C103 C 0.16158 0.33293 0.04087 0.0
H104 H 0.13445 0.40589 0.08607 0.0
Co105 Co 0.08344 0.37214 0.0483 0.0
C106 C 0.09058 0.33025 0.9822 0.0
O107 O 0.07233 0.3586 0.96469 0.0
N108 N 0.032 0.38137 0.04393 0.0
C109 C 0.97447 0.40344 0.03362 0.0
C110 C 0.01013 0.41269 0.03278 0.0
C111 C 0.00864 0.35375 0.05158 0.0
N112 N 0.97366 0.36629 0.04557 0.0
O113 O 0.06675 0.33475 0.09198 0.0
H114 H 0.01905 0.44059 0.02394 0.0
H115 H 0.01782 0.32445 0.06008 0.0
O116 O 0.09666 0.33366 0.01391 0.0
C117 C 0.04913 0.34298 0.12707 0.0
O118 O 0.0368 0.37839 0.13293 0.0
N119 N 0.10246 0.40975 0.00669 0.0
C120 C 0.14908 0.46724 0.96726 0.0
C121 C 0.15886 0.43179 0.95379 0.0
C122 C 0.13498 0.40327 0.97392 0.0
C123 C 0.09179 0.44462 0.01886 0.0
C124 C 0.11389 0.4741 -0.00121 0.0
H125 H 0.14591 0.3751 0.96616 0.0
H126 H 0.06861 0.44857 0.04689 0.0
H127 H 0.15794 0.31114 0.02598 0.0
H128 H 0.20675 0.37136 0.08288 0.0
H129 H 0.95097 0.42261 0.02613 0.0
H130 H 0.18665 0.42518 0.93055 0.0
H131 H 0.10631 0.50063 0.01114 0.0
C132 C 0.74809 0.14276 0.13525 0.0
C133 C 0.75127 0.17719 0.11184 0.0
N134 N 0.79005 0.17966 0.09145 0.0
N135 N 0.78476 0.12396 0.12964 0.0
C136 C 0.80941 0.14669 0.10227 0.0
H137 H 0.72152 0.134 0.1581 0.0
Co138 Co 0.80104 0.08585 0.16381 0.0
C139 C 0.85971 0.03563 0.10825 0.0
O140 O 0.84222 0.00628 0.1293 0.0
N141 N 0.81862 0.04894 0.19991 0.0
C142 C 0.82523 0.01248 0.25422 0.0
C143 C 0.79976 0.03788 0.23871 0.0
C144 C 0.85641 0.03263 0.19411 0.0
N145 N 0.86084 0.00891 0.22565 0.0
O146 O 0.83198 0.11816 0.17174 0.0
H147 H 0.76988 0.04849 0.25548 0.0
H148 H 0.88107 0.03893 0.16767 0.0
O149 O 0.84631 0.06855 0.11891 0.0
C150 C 0.81452 0.14083 0.19725 0.0
O151 O 0.77566 0.14335 0.21321 0.0
N152 N 0.76871 0.054 0.15673 0.0
C153 C 0.721 0.0062 0.14782 0.0
C154 C 0.74734 0.02473 0.11446 0.0
C155 C 0.7706 0.04896 0.11955 0.0
C156 C 0.74079 0.03848 0.18923 0.0
C157 C 0.7174 0.01352 0.18556 0.0
H158 H 0.79025 0.06367 0.09351 0.0
H159 H 0.73538 0.04629 0.21806 0.0
H160 H 0.84138 0.14162 0.09506 0.0
H161 H 0.72745 0.20002 0.11289 0.0
H162 H 0.81793 0.99752 0.28394 0.0
H163 H 0.74951 0.02085 0.08475 0.0
H164 H 0.69549 0.00139 0.21177 0.0
C165 C 0.1113 0.74736 0.094 0.0
C166 C 0.11399 0.76801 0.05753 0.0
N167 N 0.13159 0.79864 0.05456 0.0
N168 N 0.1278 0.76484 0.11324 0.0
C169 C 0.13909 0.79634 0.08872 0.0
H170 H 0.10047 0.7202 0.1047 0.0
Co171 Co 0.13839 0.74663 0.16027 0.0
C172 C 0.18911 0.80014 0.16223 0.0
O173 O 0.16667 0.80475 0.19887 0.0
N174 N 0.14815 0.72849 0.20792 0.0
C175 C 0.17607 0.71629 0.2551 0.0
C176 C 0.18294 0.71794 0.21494 0.0
C177 C 0.12068 0.73093 0.24404 0.0
N178 N 0.13677 0.72508 0.27326 0.0
O179 O 0.10286 0.78795 0.18383 0.0
H180 H 0.21173 0.7154 0.19209 0.0
H181 H 0.08984 0.74133 0.24847 0.0
O182 O 0.18179 0.77667 0.14402 0.0
C183 C 0.06562 0.78725 0.19409 0.0
O184 O 0.05254 0.75719 0.18976 0.0
N185 N 0.17221 0.70616 0.13617 0.0
C186 C 0.2034 0.64578 0.09174 0.0
C187 C 0.21514 0.68184 0.07624 0.0
C188 C 0.19977 0.71152 0.09929 0.0
C189 C 0.16317 0.67092 0.15309 0.0
C190 C 0.17959 0.64013 0.1319 0.0
H191 H 0.20686 0.73955 0.08582 0.0
H192 H 0.1412 0.66693 0.18226 0.0
H193 H 0.15435 0.81649 0.09472 0.0
H194 H 0.10633 0.75984 0.03402 0.0
H195 H 0.19861 0.71258 0.26915 0.0
H196 H 0.23328 0.68815 0.04561 0.0
H197 H 0.17118 0.61264 0.14618 0.0
C198 C 0.01846 0.31544 0.19727 0.0
C199 C 0.04914 0.31385 0.16088 0.0
C200 C 0.01928 0.28847 0.22995 0.0
C201 C 0.05225 0.26016 0.22634 0.0
C202 C 0.08368 0.25896 0.18976 0.0
C203 C 0.08143 0.28548 0.15727 0.0
C204 C 0.98459 0.28985 0.26809 0.0
C205 C 0.11984 0.2299 0.18501 0.0
C206 C 0.06696 0.20987 0.32238 0.0
C207 C 0.05201 0.17582 0.326 0.0
C208 C 0.06821 0.23731 0.28953 0.0
C209 C 0.05309 0.23085 0.26034 0.0
C210 C 0.03826 0.1964 0.26376 0.0
C211 C 0.03848 0.16914 0.29617 0.0
C212 C 0.0854 0.27327 0.28619 0.0
C213 C 0.02125 0.18864 0.23369 0.0
H214 H 0.99356 0.33745 0.19998 0.0
H215 H 0.10557 0.28469 0.12925 0.0
H216 H 0.97077 0.26336 0.27529 0.0
H217 H 0.99492 0.29196 0.29299 0.0
H218 H 0.96154 0.314 0.26623 0.0
H219 H 0.14278 0.23434 0.15532 0.0
H220 H 0.13325 0.23083 0.20805 0.0
H221 H 0.11113 0.20123 0.18926 0.0
H222 H 0.07769 0.21492 0.34525 0.0
H223 H 0.02665 0.14303 0.29884 0.0
H224 H 0.06202 0.2977 0.28761 0.0
H225 H 0.10913 0.27767 0.25708 0.0
H226 H 0.098 0.27301 0.31015 0.0
H227 H -0.00276 0.21139 0.23091 0.0
H228 H 0.00908 0.16116 0.2418 0.0
H229 H 0.04453 0.18852 0.20409 0.0
C230 C 0.82376 0.14805 0.25956 0.0
C231 C 0.83817 0.15188 0.2181 0.0
C232 C 0.84988 0.14371 0.28112 0.0
C233 C 0.89098 0.1447 0.26044 0.0
C234 C 0.90472 0.15394 0.21872 0.0
C235 C 0.87802 0.15704 0.19785 0.0
C236 C 0.83401 0.13345 0.32561 0.0
C237 C 0.94782 0.15819 0.19605 0.0
C238 C 0.94456 0.13524 0.3342 0.0
C239 C 0.95542 0.09619 0.33855 0.0
C240 C 0.92755 0.15241 0.3053 0.0
C241 C 0.91929 0.12952 0.28206 0.0
C242 C 0.9324 0.09023 0.28485 0.0
C243 C 0.95114 0.0741 0.31275 0.0
C244 C 0.91643 0.19459 0.30133 0.0
C245 C 0.92385 0.06475 0.26071 0.0
H246 H 0.79287 0.14411 0.27519 0.0
H247 H 0.88879 0.16079 0.16565 0.0
H248 H 0.84552 0.10382 0.33351 0.0
H249 H 0.84421 0.15159 0.34085 0.0
H250 H 0.80103 0.13626 0.33722 0.0
H251 H 0.95431 0.16152 0.16342 0.0
H252 H 0.95533 0.18353 0.20381 0.0
H253 H 0.96748 0.13355 0.20434 0.0
H254 H 0.94904 0.15231 0.35371 0.0
H255 H 0.95995 0.04391 0.31623 0.0
H256 H 0.88444 0.2014 0.31791 0.0
H257 H 0.92152 0.20635 0.26981 0.0
H258 H 0.93369 0.20873 0.31358 0.0
H259 H 0.8913 0.06395 0.26996 0.0
H260 H 0.93849 0.03545 0.26447 0.0
H261 H 0.93407 0.07577 0.22873 0.0
C262 C 0.02843 0.89665 0.36406 0.0
C263 C 0.01644 0.90025 0.4045 0.0
C264 C 0.04607 0.86207 0.35002 0.0
C265 C 0.05236 0.83041 0.37715 0.0
C266 C 0.03904 0.83355 0.41826 0.0
C267 C 0.02097 0.86853 0.43151 0.0
C268 C 0.0589 0.85972 0.30599 0.0
C269 C 0.04533 0.80049 0.44798 0.0
C270 C 0.07659 0.74171 0.32836 0.0
C271 C 0.11779 0.74118 0.30995 0.0
C272 C 0.05474 0.76859 0.35384 0.0
C273 C 0.07483 0.79497 0.36154 0.0
C274 C 0.11689 0.79107 0.34755 0.0
C275 C 0.13794 0.76416 0.32181 0.0
C276 C 0.00998 0.77144 0.36849 0.0
C277 C 0.1395 0.81823 0.35571 0.0
H278 H 0.02434 0.92118 0.34338 0.0
H279 H 0.01195 0.87151 0.46278 0.0
H280 H 0.09152 0.85187 0.29416 0.0
H281 H 0.0446 0.83752 0.30042 0.0
H282 H 0.0511 0.88682 0.2892 0.0
H283 H 0.02914 0.80629 0.47906 0.0
H284 H 0.0355 0.775 0.44303 0.0
H285 H 0.07748 0.79394 0.44405 0.0
H286 H 0.06105 0.72347 0.31976 0.0
H287 H 0.16974 0.76397 0.30787 0.0
H288 H -0.00187 0.79419 0.34935 0.0
H289 H -0.0026 0.77873 0.3993 0.0
H290 H -0.00047 0.74471 0.36743 0.0
H291 H 0.13698 0.84551 0.33685 0.0
H292 H 0.17152 0.80746 0.34905 0.0
H293 H 0.12689 0.82379 0.38713 0.0
C294 C 0.29803 0.06729 0.20577 0.0
C295 C 0.32074 0.03651 0.18663 0.0
C296 C 0.26195 0.0631 0.23655 0.0
C297 C 0.24883 0.02697 0.24928 0.0
C298 C 0.27187 0.99565 0.23017 0.0
C299 C 0.30727 0.00097 0.19852 0.0
C300 C 0.23783 0.09743 0.25541 0.0
C301 C 0.25935 0.95657 0.2432 0.0
C302 C 0.17655 0.02079 0.35436 0.0
C303 C 0.13996 0.02658 0.3478 0.0
C304 C 0.21238 0.01797 0.32262 0.0
C305 C 0.21151 0.02233 0.28331 0.0
C306 C 0.17458 0.02643 0.27671 0.0
C307 C 0.13917 0.02801 0.30918 0.0
C308 C 0.25115 0.0122 0.33101 0.0
C309 C 0.17233 0.03186 0.23526 0.0
H310 H 0.30821 0.09485 0.19601 0.0
H311 H 0.32496 0.97723 0.18357 0.0
H312 H 0.20717 0.10047 0.25432 0.0
H313 H 0.23558 0.09405 0.28711 0.0
H314 H 0.25107 0.12378 0.24049 0.0
H315 H 0.28347 0.93461 0.22964 0.0
H316 H 0.25036 0.95001 0.27598 0.0
H317 H 0.23329 0.95504 0.23439 0.0
H318 H 0.17714 0.01938 0.38429 0.0
H319 H 0.11084 0.03281 0.30406 0.0
H320 H 0.26539 0.03854 0.32081 0.0
H321 H 0.27193 0.98976 0.31442 0.0
H322 H 0.2469 0.0044 0.36314 0.0
H323 H 0.18225 0.05942 0.21977 0.0
H324 H 0.14172 0.03131 0.2353 0.0
H325 H 0.1925 0.00967 0.2179 0.0
C326 C 0.12589 0.84998 0.00217 0.0
C327 C 0.14939 0.82244 0.01901 0.0
C328 C 0.14354 0.87499 0.96877 0.0
C329 C 0.18554 0.8716 0.95172 0.0
C330 C 0.20923 0.84307 0.96825 0.0
C331 C 0.19079 0.81906 0.00205 0.0
C332 C 0.11735 0.90529 0.95207 0.0
C333 C 0.25397 0.83798 0.9503 0.0
C334 C 0.22705 0.91618 0.84528 0.0
C335 C 0.23414 0.95144 0.85049 0.0
C336 C 0.21214 0.8895 0.87796 0.0
C337 C 0.2047 0.89809 0.91671 0.0
C338 C 0.21428 0.93258 0.92205 0.0
C339 C 0.22881 0.95892 0.88885 0.0
C340 C 0.20224 0.85305 0.87107 0.0
C341 C 0.20745 0.94238 0.96295 0.0
H342 H 0.09387 0.8524 0.01579 0.0
H343 H 0.20861 0.79748 0.01542 0.0
H344 H 0.12479 0.9335 0.95282 0.0
H345 H 0.12281 0.90243 0.92054 0.0
H346 H 0.08526 0.90415 0.96881 0.0
H347 H 0.2681 0.81537 0.96775 0.0
H348 H 0.26277 0.83076 0.91963 0.0
H349 H 0.26588 0.86472 0.94832 0.0
H350 H 0.23098 0.91012 0.8158 0.0
H351 H 0.2343 0.98606 0.89313 0.0
H352 H 0.16956 0.85275 0.88272 0.0
H353 H 0.21546 0.82861 0.88731 0.0
H354 H 0.21294 0.84927 0.8391 0.0
H355 H 0.17517 0.94517 0.97986 0.0
H356 H 0.21892 0.96917 0.96188 0.0
H357 H 0.22209 0.91947 0.97957 0.0
C358 C 0.41096 0.03456 0.89045 0.0
C359 C 0.44862 0.04227 0.88725 0.0
C360 C 0.39731 0.04283 0.85797 0.0
C361 C 0.42232 0.05855 0.82097 0.0
C362 C 0.46131 0.06432 0.81677 0.0
C363 C 0.47393 0.05639 0.85014 0.0
C364 C 0.35544 0.03604 0.8638 0.0
C365 C 0.48908 0.08033 0.77766 0.0
C366 C 0.37485 0.05237 0.74597 0.0
C367 C 0.34883 0.08598 0.74955 0.0
C368 C 0.40361 0.04481 0.76492 0.0
C369 C 0.40566 0.07134 0.78826 0.0
C370 C 0.38339 0.1074 0.78716 0.0
C371 C 0.35529 0.11438 0.76754 0.0
C372 C 0.42808 0.00663 0.76403 0.0
C373 C 0.38492 0.13667 0.81138 0.0
H374 H 0.39174 0.02254 0.91866 0.0
H375 H 0.50309 0.06247 0.84739 0.0
H376 H 0.33761 0.06314 0.85792 0.0
H377 H 0.35582 0.01726 0.84253 0.0
H378 H 0.3402 0.023 0.89434 0.0
H379 H 0.52054 0.07432 0.77672 0.0
H380 H 0.48624 0.06882 0.75247 0.0
H381 H 0.48144 0.11137 0.77336 0.0
H382 H 0.37027 0.0307 0.73141 0.0
H383 H 0.33535 0.14047 0.77036 0.0
H384 H 0.41384 0.98784 0.79116 0.0
H385 H 0.45843 0.00881 0.76361 0.0
H386 H 0.43032 0.99335 0.7378 0.0
H387 H 0.36812 0.12858 0.84309 0.0
H388 H 0.37157 0.16506 0.80184 0.0
H389 H 0.41594 0.13835 0.8091 0.0
C390 C 0.1507 0.13506 0.89043 0.0
C391 C 0.19209 0.12733 0.87425 0.0
C392 C 0.13327 0.16688 0.91015 0.0
C393 C 0.15786 0.19193 0.91291 0.0
C394 C 0.19971 0.18379 0.89746 0.0
C395 C 0.21637 0.15131 0.87858 0.0
C396 C 0.08855 0.17408 0.92731 0.0
C397 C 0.22684 0.21008 0.89957 0.0
C398 C 0.11288 0.29354 0.9243 0.0
C399 C 0.10632 0.29474 0.96453 0.0
C400 C 0.12987 0.26021 0.90704 0.0
C401 C 0.13975 0.22729 0.93084 0.0
C402 C 0.13243 0.22818 0.97166 0.0
C403 C 0.11609 0.26199 0.98794 0.0
C404 C 0.13784 0.26036 0.86324 0.0
C405 C 0.14199 0.19349 -0.00191 0.0
H406 H 0.13188 0.11635 0.88739 0.0
H407 H 0.24839 0.14551 0.86583 0.0
H408 H 0.07945 0.17856 0.95895 0.0
H409 H 0.07752 0.20013 0.91129 0.0
H410 H 0.07387 0.1504 0.92523 0.0
H411 H 0.25871 0.19877 0.88783 0.0
H412 H 0.2219 0.23772 0.88218 0.0
H413 H 0.21993 0.21531 0.93067 0.0
H414 H 0.10561 0.31886 0.9061 0.0
H415 H 0.1108 0.26273 0.01918 0.0
H416 H 0.12146 0.23935 0.85864 0.0
H417 H 0.16996 0.25208 0.84819 0.0
H418 H 0.12892 0.28844 0.8488 0.0
H419 H 0.12695 0.16997 0.99635 0.0
H420 H 0.13273 0.19853 0.02961 0.0
H421 H 0.1744 0.1842 0.98782 0.0
C422 C 0.91302 0.06094 0.04855 0.0
C423 C 0.89674 0.02999 0.07444 0.0
C424 C 0.94807 0.05582 0.0163 0.0
C425 C 0.96735 0.01888 0.00998 0.0
C426 C 0.95147 0.98759 0.03644 0.0
C427 C 0.91625 0.99351 0.06828 0.0
C428 C 0.96417 0.0899 0.98868 0.0
C429 C 0.97146 0.94784 0.0309 0.0
C430 C 0.03313 0.00478 0.90482 0.0
C431 C 0.07094 0.0064 0.90644 0.0
C432 C -0.00075 0.0081 0.93854 0.0
C433 C 0.00332 0.01297 0.97478 0.0
C434 C 0.04154 0.01338 0.97696 0.0
C435 C 0.07491 0.01022 0.94268 0.0
C436 C 0.95897 0.00752 0.93506 0.0
C437 C 0.04709 0.01805 0.01523 0.0
H438 H 0.89814 0.08919 0.05321 0.0
H439 H 0.90411 0.96947 0.08846 0.0
H440 H 0.99522 0.09076 0.987 0.0
H441 H 0.9647 0.08794 0.95827 0.0
H442 H 0.94618 0.11674 -0.00168 0.0
H443 H 0.95609 0.92672 0.05499 0.0
H444 H 0.97212 0.94069 0.00211 0.0
H445 H 0.00273 0.94554 0.03 0.0
H446 H 0.02983 0.00233 0.87681 0.0
H447 H 0.10416 0.01096 0.94412 0.0
H448 H 0.94056 0.03499 0.94126 0.0
H449 H 0.94322 0.98547 0.95741 0.0
H450 H 0.96105 0.00207 0.90512 0.0
H451 H 0.03275 0.0462 0.02412 0.0
H452 H 0.07895 0.01534 0.01254 0.0
H453 H 0.03249 0.99668 0.03943 0.0
C454 C 0.33472 0.1416 0.03508 0.0
C455 C 0.3755 0.14491 0.01965 0.0
C456 C 0.30643 0.17366 0.03837 0.0
C457 C 0.31924 0.20987 0.02542 0.0
C458 C 0.36031 0.21333 0.00853 0.0
C459 C 0.38799 0.1808 0.00609 0.0
C460 C 0.26286 0.16884 0.05672 0.0
C461 C 0.37499 0.25144 0.99366 0.0
C462 C 0.24143 0.28851 0.00729 0.0
C463 C 0.22839 0.30499 0.04262 0.0
C464 C 0.27193 0.25834 0.00066 0.0
C465 C 0.28952 0.24405 0.03035 0.0
C466 C 0.27728 0.26131 0.06563 0.0
C467 C 0.24699 0.29183 0.07122 0.0
C468 C 0.28442 0.24105 0.96244 0.0
C469 C 0.29504 0.24654 0.09816 0.0
H470 H 0.32485 0.11397 0.0458 0.0
H471 H 0.41947 0.18352 0.99395 0.0
H472 H 0.24958 0.18337 0.08376 0.0
H473 H 0.2468 0.18203 0.03574 0.0
H474 H 0.25783 0.13871 0.06497 0.0
H475 H 0.40778 0.24919 0.9795 0.0
H476 H 0.36097 0.26704 0.97179 0.0
H477 H 0.36632 0.26844 0.0187 0.0
H478 H 0.2273 0.29901 0.98497 0.0
H479 H 0.2366 0.30433 0.09868 0.0
H480 H 0.27562 0.2122 0.96881 0.0
H481 H 0.3172 0.23848 0.94846 0.0
H482 H 0.27065 0.25784 0.94084 0.0
H483 H 0.28819 0.21729 0.11013 0.0
H484 H 0.2835 0.26412 0.12297 0.0
H485 H 0.32784 0.24553 0.08613 0.0
C486 C 0.37766 0.90862 0.04419 0.0
C487 C 0.3673 0.94777 0.04031 0.0
C488 C 0.34862 0.88432 0.06334 0.0
C489 C 0.30829 0.89961 0.07798 0.0
C490 C 0.29747 0.93905 0.07225 0.0
C491 C 0.32726 0.96277 0.05404 0.0
C492 C 0.36119 0.84239 0.06892 0.0
C493 C 0.25452 0.95609 0.08542 0.0
C494 C 0.2336 0.83084 0.09927 0.0
C495 C 0.2206 0.8245 0.14085 0.0
C496 C 0.26089 0.85641 0.07849 0.0
C497 C 0.27751 0.87426 0.09966 0.0
C498 C 0.26547 0.86709 0.14161 0.0
C499 C 0.23653 0.8428 0.16178 0.0
C500 C 0.27159 0.8639 0.03393 0.0
C501 C 0.28342 0.88479 0.16512 0.0
H502 H 0.40868 0.89699 0.03393 0.0
H503 H 0.31929 0.99309 0.0508 0.0
H504 H 0.35055 0.83143 0.10094 0.0
H505 H 0.34745 0.8277 0.05355 0.0
H506 H 0.39395 0.83517 0.05719 0.0
H507 H 0.251 0.98706 0.07665 0.0
H508 H 0.23736 0.94285 0.07228 0.0
H509 H 0.24133 0.95042 0.11815 0.0
H510 H 0.22177 0.81657 0.08276 0.0
H511 H 0.22675 0.83775 0.19393 0.0
H512 H 0.29605 0.84233 0.02023 0.0
H513 H 0.28126 0.89219 0.02176 0.0
H514 H 0.24578 0.86169 0.02498 0.0
H515 H 0.31619 0.87755 0.15471 0.0
H516 H 0.27173 0.87533 0.19747 0.0
H517 H 0.27718 0.91595 0.16032 0.0
C518 C 0.84605 0.21146 0.04513 0.0
C519 C 0.80886 0.21342 0.07497 0.0
C520 C 0.87026 0.24023 0.03626 0.0
C521 C 0.85687 0.27169 0.05786 0.0
C522 C 0.8179 0.27543 0.08548 0.0
C523 C 0.79427 0.24621 0.09367 0.0
C524 C 0.91148 0.23529 0.0063 0.0
C525 C 0.80247 0.30856 0.10906 0.0
C526 C 0.93721 0.3116 0.07774 0.0
C527 C 0.94286 0.3439 0.04981 0.0
C528 C 0.90884 0.28831 0.08104 0.0
C529 C 0.88548 0.29752 0.0557 0.0
C530 C 0.8904 0.33048 0.02797 0.0
C531 C 0.91903 0.35336 0.0254 0.0
C532 C 0.90429 0.25353 0.1113 0.0
C533 C 0.8661 0.34108 0.00045 0.0
H534 H 0.85719 0.18614 0.03061 0.0
H535 H 0.76575 0.24772 0.11708 0.0
H536 H 0.91812 0.26179 0.9861 0.0
H537 H 0.93365 0.22844 0.02203 0.0
H538 H 0.91525 0.21223 0.98825 0.0
H539 H 0.76985 0.31039 0.12438 0.0
H540 H 0.81719 0.30558 0.13183 0.0
H541 H 0.80952 0.33538 0.08962 0.0
H542 H 0.95502 0.30455 0.09716 0.0
H543 H 0.92353 0.3781 0.00353 0.0
H544 H 0.9113 0.22791 0.09609 0.0
H545 H 0.8731 0.25413 0.13153 0.0
H546 H 0.92403 0.25096 0.12944 0.0
H547 H 0.87294 0.31911 0.98042 0.0
H548 H 0.872 0.36867 0.98206 0.0
H549 H 0.83395 0.34244 0.01776 0.0
C550 C 0.05128 0.85455 0.20764 0.0
C551 C 0.03749 0.82044 0.20858 0.0
C552 C 0.0247 0.88748 0.21618 0.0
C553 C 0.98351 0.88611 0.22585 0.0
C554 C 0.96933 0.85116 0.2297 0.0
C555 C -0.0035 0.81876 0.221 0.0
C556 C 0.04089 0.92413 0.21226 0.0
C557 C 0.92558 0.84844 0.24016 0.0
C558 C 0.90238 0.96635 0.26107 0.0
C559 C 0.89473 0.98141 0.22571 0.0
C560 C 0.93301 0.93667 0.26141 0.0
C561 C 0.95583 0.92145 0.22568 0.0
C562 C 0.94939 0.93775 0.18969 0.0
C563 C 0.91904 0.96745 0.19019 0.0
C564 C 0.93978 0.92059 0.30017 0.0
C565 C 0.97296 0.92243 0.15084 0.0
H566 H 0.08295 0.85596 0.19859 0.0
H567 H 0.98558 0.79237 0.22242 0.0
H568 H 0.03933 0.9417 0.18442 0.0
H569 H 0.02284 0.94034 0.23724 0.0
H570 H 0.07232 0.91948 0.21143 0.0
H571 H 0.91909 0.81875 0.24613 0.0
H572 H 0.90809 0.86278 0.26669 0.0
H573 H 0.91529 0.8629 0.21523 0.0
H574 H 0.88409 0.9774 0.28849 0.0
H575 H 0.91309 0.97841 0.1628 0.0
H576 H 0.97198 0.91574 0.29623 0.0
H577 H 0.92821 0.8929 0.31058 0.0
H578 H 0.92457 0.93941 0.32358 0.0
H579 H 0.00527 0.92024 0.1457 0.0
H580 H 0.9665 0.94032 0.1251 0.0
H581 H 0.96576 0.89364 0.15202 0.0
C582 C 0.06956 0.05778 0.72993 0.0
C583 C 0.08592 0.09181 0.71565 0.0
C584 C 0.05028 0.04386 0.70887 0.0
C585 C 0.04683 0.06513 0.67341 0.0
C586 C 0.05844 0.10194 0.66215 0.0
C587 C 0.07884 0.1146 0.68305 0.0
C588 C 0.03866 0.00445 0.72174 0.0
C589 C 0.05352 0.12608 0.62541 0.0
C590 C 0.06819 0.02193 0.58014 0.0
C591 C 0.03028 0.0261 0.57664 0.0
C592 C 0.07338 0.03126 0.61368 0.0
C593 C 0.04001 0.04637 0.64373 0.0
C594 C 0.0014 0.04735 0.64228 0.0
C595 C -0.00306 0.03629 0.60908 0.0
C596 C 0.11505 0.028 0.6152 0.0
C597 C 0.96507 0.06331 0.67366 0.0
H598 H 0.07557 0.0402 0.75517 0.0
H599 H 0.09174 0.14087 0.67225 0.0
H600 H 0.01121 0.00199 0.71577 0.0
H601 H 0.06282 0.98445 0.70468 0.0
H602 H 0.03408 0.99576 0.75383 0.0
H603 H 0.05666 0.15605 0.62521 0.0
H604 H 0.07657 0.11556 0.59872 0.0
H605 H 0.02403 0.12454 0.62318 0.0
H606 H 0.09426 0.01404 0.55559 0.0
H607 H 0.96732 0.03795 0.60758 0.0
H608 H 0.11603 0.01534 0.64506 0.0
H609 H 0.12463 0.05651 0.60932 0.0
H610 H 0.13671 0.01056 0.59284 0.0
H611 H 0.96795 0.05626 0.70364 0.0
H612 H 0.93776 0.05295 0.67411 0.0
H613 H 0.96142 0.0945 0.66702 0.0
C614 C 0.69259 0.94546 0.15921 0.0
C615 C 0.69361 0.9834 0.14299 0.0
C616 C 0.66578 0.9242 0.15471 0.0
C617 C 0.63927 0.94181 0.13417 0.0
C618 C 0.64024 0.98041 0.1182 0.0
C619 C 0.66768 0.00051 0.1225 0.0
C620 C 0.66689 0.88293 0.17083 0.0
C621 C 0.61247 0.00079 0.09625 0.0
C622 C 0.58524 0.91239 0.07732 0.0
C623 C 0.54659 0.92397 0.10117 0.0
C624 C 0.61719 0.9102 0.09127 0.0
C625 C 0.60977 0.92124 0.12901 0.0
C626 C 0.57038 0.92519 0.15572 0.0
C627 C 0.53889 0.92631 0.14137 0.0
C628 C 0.65891 0.90294 0.0631 0.0
C629 C 0.56122 0.93556 0.1968 0.0
H630 H 0.71308 0.93238 0.17487 0.0
H631 H 0.66851 0.03 0.11037 0.0
H632 H 0.63697 0.87347 0.18165 0.0
H633 H 0.68601 0.86614 0.1467 0.0
H634 H 0.67964 0.87661 0.19536 0.0
H635 H 0.61499 0.03148 0.08887 0.0
H636 H 0.61952 0.98877 0.06811 0.0
H637 H 0.58119 0.99721 0.11427 0.0
H638 H 0.59098 0.90991 0.04635 0.0
H639 H 0.50879 0.9348 0.1599 0.0
H640 H 0.67933 0.88851 0.07938 0.0
H641 H 0.66962 0.93024 0.04768 0.0
H642 H 0.66007 0.88553 0.04026 0.0
H643 H 0.58368 0.92072 0.2104 0.0
H644 H 0.53129 0.92877 0.21651 0.0
H645 H 0.56178 0.96635 0.19481 0.0
C646 C 0.18165 0.59181 0.07313 0.0
C647 C 0.21035 0.61633 0.065 0.0
C648 C 0.18423 0.56711 0.04656 0.0
C649 C 0.21553 0.56766 0.00975 0.0
C650 C 0.2454 0.59132 0.00147 0.0
C651 C 0.24274 0.61504 0.02943 0.0
C652 C 0.15197 0.54171 0.05734 0.0
C653 C 0.27891 0.59339 0.9624 0.0
C654 C 0.21196 0.48043 0.97129 0.0
C655 C 0.17941 0.49298 0.95793 0.0
C656 C 0.22959 0.50599 0.98278 0.0
C657 C 0.21447 0.54465 0.98007 0.0
C658 C 0.18748 0.55788 0.9589 0.0
C659 C 0.16957 0.53168 0.94864 0.0
C660 C 0.25911 0.49074 0.00418 0.0
C661 C 0.17257 0.5992 0.95311 0.0
H662 H 0.15572 0.59292 0.09952 0.0
H663 H 0.2656 0.63323 0.02275 0.0
H664 H 0.13326 0.55126 0.03808 0.0
H665 H 0.16514 0.51223 0.05264 0.0
H666 H 0.13236 0.54181 0.08874 0.0
H667 H 0.30537 0.60258 0.96538 0.0
H668 H 0.28774 0.56599 0.95021 0.0
H669 H 0.26899 0.61446 0.94058 0.0
H670 H 0.2198 0.45042 0.97825 0.0
H671 H 0.14474 0.54136 0.93776 0.0
H672 H 0.24305 0.48695 0.03663 0.0
H673 H 0.28121 0.51055 -0.00161 0.0
H674 H 0.27498 0.46294 0.99528 0.0
H675 H 0.14884 0.60698 0.98072 0.0
H676 H 0.15995 0.60576 0.92849 0.0
H677 H 0.19683 0.61676 0.94676 0.0
loop_
_geom_bond_atom_site_label_1
_geom_bond_atom_site_label_2
_geom_bond_distance
_geom_bond_site_symmetry_2
_ccdc_geom_bond_type
C0 C1 1.351 . S
C0 N3 1.368 . S
C0 H5 0.931 1_455 S
C1 C0 1.351 . S
C1 N2 1.373 . S
C1 H29 0.936 . S
N2 C1 1.373 . S
N2 C4 1.340 . S
N3 C0 1.368 . S
N3 C4 1.321 . S
N3 Co6 2.135 1_565 S
C4 N2 1.340 . S
C4 N3 1.321 . S
C4 H28 0.930 . S
H5 C0 0.931 1_655 S
Co6 N3 2.135 1_545 S
Co6 N9 2.121 . S
Co6 O14 2.033 1_455 S
Co6 O17 2.039 . S
Co6 N20 2.140 . S
C7 O8 1.227 1_545 S
C7 O17 1.265 . S
O8 C7 1.227 1_565 S
N9 Co6 2.121 . S
N9 C11 1.375 . S
N9 C12 1.313 . S
C10 C11 1.338 . S
C10 N13 1.377 . S
C10 H30 0.930 . S
C11 N9 1.375 . S
C11 C10 1.338 . S
C11 H15 0.931 . S
C12 N9 1.313 . S
C12 N13 1.344 . S
C12 H16 0.930 1_455 S
N13 C10 1.377 . S
N13 C12 1.344 . S
O14 Co6 2.033 1_655 S
O14 C18 1.267 . S
H15 C11 0.931 . S
H16 C12 0.930 1_655 S
O17 Co6 2.039 . S
O17 C7 1.265 . S
C18 O14 1.267 . S
C18 O19 1.227 . S
O19 C18 1.227 . S
N20 Co6 2.140 . S
N20 C23 1.346 1_545 S
N20 C24 1.345 . S
C21 C22 1.387 1_545 S
C21 C25 1.391 . S
C22 C21 1.387 1_565 S
C22 C23 1.369 . S
C22 H31 0.929 . S
C23 N20 1.346 1_565 S
C23 C22 1.369 . S
C23 H26 0.928 . S
C24 N20 1.345 . S
C24 C25 1.371 . S
C24 H27 0.931 . S
C25 C21 1.391 . S
C25 C24 1.371 . S
C25 H32 0.930 . S
H26 C23 0.928 . S
H27 C24 0.931 . S
H28 C4 0.930 . S
H29 C1 0.936 . S
H30 C10 0.930 . S
H31 C22 0.929 . S
H32 C25 0.930 . S
C33 C34 1.351 . S
C33 N36 1.368 . S
C33 H38 0.931 . S
C34 C33 1.351 . S
C34 N35 1.373 . S
C34 H62 0.930 . S
N35 C34 1.373 . S
N35 C37 1.340 . S
N36 C33 1.368 . S
N36 C37 1.321 . S
N36 Co39 2.135 . S
C37 N35 1.340 . S
C37 N36 1.321 . S
C37 H61 0.930 . S
H38 C33 0.931 . S
Co39 N36 2.135 . S
Co39 N42 2.121 . S
Co39 O47 2.055 . S
Co39 O50 2.039 . S
Co39 N53 2.140 . S
C40 O41 1.227 . S
C40 O50 1.265 . S
O41 C40 1.227 . S
N42 Co39 2.121 . S
N42 C44 1.375 . S
N42 C45 1.313 . S
C43 C44 1.338 . S
C43 N46 1.377 . S
C43 H63 0.930 . S
C44 N42 1.375 . S
C44 C43 1.338 . S
C44 H48 0.931 . S
C45 N42 1.313 . S
C45 N46 1.344 . S
C45 H49 0.930 . S
N46 C43 1.377 . S
N46 C45 1.344 . S
O47 Co39 2.055 . S
O47 C51 1.253 . S
H48 C44 0.931 . S
H49 C45 0.930 . S
O50 Co39 2.039 . S
O50 C40 1.265 . S
C51 O47 1.253 . S
C51 O52 1.227 . S
O52 C51 1.227 . S
N53 Co39 2.140 . S
N53 C56 1.346 . S
N53 C57 1.345 . S
C54 C55 1.387 . S
C54 C58 1.391 . S
C55 C54 1.387 . S
C55 C56 1.369 . S
C55 H64 0.929 . S
C56 N53 1.346 . S
C56 C55 1.369 . S
C56 H59 0.928 . S
C57 N53 1.345 . S
C57 C58 1.371 . S
C57 H60 0.931 . S
C58 C54 1.391 . S
C58 C57 1.371 . S
C58 H65 0.930 . S
H59 C56 0.928 . S
H60 C57 0.931 . S
H61 C37 0.930 . S
H62 C34 0.930 . S
H63 C43 0.930 . S
H64 C55 0.929 . S
H65 C58 0.930 . S
C66 C67 1.351 . S
C66 N69 1.368 . S
C66 H71 0.931 . S
C67 C66 1.351 . S
C67 N68 1.373 . S
C67 H95 0.930 . S
N68 C67 1.373 . S
N68 C70 1.340 . S
N69 C66 1.368 . S
N69 C70 1.321 . S
N69 Co72 2.135 . S
C70 N68 1.340 . S
C70 N69 1.321 . S
C70 H94 0.930 1_545 S
H71 C66 0.931 . S
Co72 N69 2.135 . S
Co72 N75 2.121 1_554 S
Co72 O80 2.055 . S
Co72 O83 2.039 1_545 S
Co72 N86 2.140 . S
C73 O74 1.227 . S
C73 O83 1.265 . S
O74 C73 1.227 . S
N75 Co72 2.121 1_556 S
N75 C77 1.375 1_545 S
N75 C78 1.313 . S
C76 C77 1.338 . S
C76 N79 1.377 1_565 S
C76 H96 0.930 . S
C77 N75 1.375 1_565 S
C77 C76 1.338 . S
C77 H81 0.931 . S
C78 N75 1.313 . S
C78 N79 1.344 . S
C78 H82 0.930 . S
N79 C76 1.377 1_545 S
N79 C78 1.344 . S
O80 Co72 2.055 . S
O80 C84 1.253 . S
H81 C77 0.931 . S
H82 C78 0.930 . S
O83 Co72 2.039 1_565 S
O83 C73 1.265 . S
C84 O80 1.253 . S
C84 O85 1.227 . S
O85 C84 1.227 . S
N86 Co72 2.140 . S
N86 C89 1.346 . S
N86 C90 1.345 1_554 S
C87 C88 1.387 . S
C87 C91 1.391 1_554 S
C88 C87 1.387 . S
C88 C89 1.369 . S
C88 H97 0.929 1_545 S
C89 N86 1.346 . S
C89 C88 1.369 . S
C89 H92 0.928 1_545 S
C90 N86 1.345 1_556 S
C90 C91 1.371 . S
C90 H93 0.931 . S
C91 C87 1.391 1_556 S
C91 C90 1.371 . S
C91 H98 0.930 . S
H92 C89 0.928 1_565 S
H93 C90 0.931 . S
H94 C70 0.930 1_565 S
H95 C67 0.930 . S
H96 C76 0.930 . S
H97 C88 0.929 1_565 S
H98 C91 0.930 . S
C99 C100 1.351 . S
C99 N102 1.368 . S
C99 H104 0.931 . S
C100 C99 1.351 . S
C100 N101 1.373 . S
C100 H128 0.930 . S
N101 C100 1.373 . S
N101 C103 1.340 . S
N102 C99 1.368 . S
N102 C103 1.321 . S
N102 Co105 2.135 . S
C103 N101 1.340 . S
C103 N102 1.321 . S
C103 H127 0.930 1_554 S
H104 C99 0.931 . S
Co105 N102 2.135 . S
Co105 N108 2.121 . S
Co105 O113 2.055 . S
Co105 O116 2.039 . S
Co105 N119 2.140 . S
C106 O107 1.227 . S
C106 O116 1.265 1_556 S
O107 C106 1.227 . S
N108 Co105 2.121 . S
N108 C110 1.375 1_455 S
N108 C111 1.313 1_455 S
C109 C110 1.338 . S
C109 N112 1.377 . S
C109 H129 0.930 . S
C110 N108 1.375 1_655 S
C110 C109 1.338 . S
C110 H114 0.910 1_654 S
C111 N108 1.313 1_655 S
C111 N112 1.344 . S
C111 H115 0.930 . S
N112 C109 1.377 . S
N112 C111 1.344 . S
O113 Co105 2.055 . S
O113 C117 1.253 . S
H114 C110 0.910 1_456 S
H115 C111 0.930 . S
O116 Co105 2.039 . S
O116 C106 1.265 1_554 S
C117 O113 1.253 . S
C117 O118 1.227 . S
O118 C117 1.227 . S
N119 Co105 2.140 . S
N119 C122 1.346 . S
N119 C123 1.345 . S
C120 C121 1.387 . S
C120 C124 1.391 . S
C121 C120 1.387 . S
C121 C122 1.369 . S
C121 H130 0.929 . S
C122 N119 1.346 . S
C122 C121 1.369 . S
C122 H125 0.928 . S
C123 N119 1.345 . S
C123 C124 1.371 . S
C123 H126 0.931 . S
C124 C120 1.391 . S
C124 C123 1.371 . S
C124 H131 0.930 . S
H125 C122 0.928 . S
H126 C123 0.931 . S
H127 C103 0.930 1_556 S
H128 C100 0.930 . S
H129 C109 0.930 . S
H130 C121 0.929 . S
H131 C124 0.930 . S
C132 C133 1.351 . S
C132 N135 1.368 . S
C132 H137 0.931 . S
C133 C132 1.351 . S
C133 N134 1.373 . S
C133 H161 0.930 . S
N134 C133 1.373 . S
N134 C136 1.340 . S
N135 C132 1.368 . S
N135 C136 1.321 . S
N135 Co138 2.135 . S
C136 N134 1.340 . S
C136 N135 1.321 . S
C136 H160 0.930 . S
H137 C132 0.931 . S
Co138 N135 2.135 . S
Co138 N141 2.121 . S
Co138 O146 2.055 . S
Co138 O149 2.039 . S
Co138 N152 2.140 . S
C139 O140 1.227 . S
C139 O149 1.265 . S
O140 C139 1.227 . S
N141 Co138 2.121 . S
N141 C143 1.375 . S
N141 C144 1.313 . S
C142 C143 1.338 1_565 S
C142 N145 1.377 . S
C142 H162 0.930 . S
C143 N141 1.375 . S
C143 C142 1.338 1_545 S
C143 H147 0.931 . S
C144 N141 1.313 . S
C144 N145 1.345 1_545 S
C144 H148 0.930 . S
N145 C142 1.377 . S
N145 C144 1.345 1_565 S
O146 Co138 2.055 . S
O146 C150 1.253 . S
H147 C143 0.931 . S
H148 C144 0.930 . S
O149 Co138 2.039 . S
O149 C139 1.265 . S
C150 O146 1.253 . S
C150 O151 1.227 . S
O151 C150 1.227 . S
N152 Co138 2.140 . S
N152 C155 1.346 . S
N152 C156 1.345 . S
C153 C154 1.387 . S
C153 C157 1.391 . S
C154 C153 1.387 . S
C154 C155 1.369 . S
C154 H163 0.929 . S
C155 N152 1.346 . S
C155 C154 1.369 . S
C155 H158 0.928 . S
C156 N152 1.345 . S
C156 C157 1.371 . S
C156 H159 0.931 . S
C157 C153 1.391 . S
C157 C156 1.371 . S
C157 H164 0.930 . S
H158 C155 0.928 . S
H159 C156 0.931 . S
H160 C136 0.930 . S
H161 C133 0.930 . S
H162 C142 0.930 . S
H163 C154 0.929 . S
H164 C157 0.930 . S
C165 C166 1.351 . S
C165 N168 1.368 . S
C165 H170 0.931 . S
C166 C165 1.351 . S
C166 N167 1.373 . S
C166 H194 0.930 . S
N167 C166 1.373 . S
N167 C169 1.340 . S
N168 C165 1.368 . S
N168 C169 1.321 . S
N168 Co171 2.135 . S
C169 N167 1.340 . S
C169 N168 1.321 . S
C169 H193 0.930 . S
H170 C165 0.931 . S
Co171 N168 2.135 . S
Co171 N174 2.121 . S
Co171 O179 2.055 . S
Co171 O182 2.039 . S
Co171 N185 2.140 . S
C172 O173 1.227 . S
C172 O182 1.265 . S
O173 C172 1.227 . S
N174 Co171 2.121 . S
N174 C176 1.375 . S
N174 C177 1.313 . S
C175 C176 1.338 . S
C175 N178 1.377 . S
C175 H195 0.930 . S
C176 N174 1.375 . S
C176 C175 1.338 . S
C176 H180 0.931 . S
C177 N174 1.313 . S
C177 N178 1.344 . S
C177 H181 0.930 . S
N178 C175 1.377 . S
N178 C177 1.344 . S
O179 Co171 2.055 . S
O179 C183 1.253 . S
H180 C176 0.931 . S
H181 C177 0.930 . S
O182 Co171 2.039 . S
O182 C172 1.265 . S
C183 O179 1.253 . S
C183 O184 1.227 . S
O184 C183 1.227 . S
N185 Co171 2.140 . S
N185 C188 1.346 . S
N185 C189 1.345 . S
C186 C187 1.387 . S
C186 C190 1.391 . S
C187 C186 1.387 . S
C187 C188 1.369 . S
C187 H196 0.929 . S
C188 N185 1.346 . S
C188 C187 1.369 . S
C188 H191 0.928 . S
C189 N185 1.345 . S
C189 C190 1.371 . S
C189 H192 0.931 . S
C190 C186 1.391 . S
C190 C189 1.371 . S
C190 H197 0.930 . S
H191 C188 0.928 . S
H192 C189 0.931 . S
H193 C169 0.930 . S
H194 C166 0.930 . S
H195 C175 0.930 . S
H196 C187 0.929 . S
H197 C190 0.930 . S
C198 C199 1.391 . S
C198 C200 1.391 . S
C198 H214 0.931 1_455 S
C199 C198 1.391 . S
C199 C203 1.376 . S
C200 C198 1.391 . S
C200 C201 1.388 . S
C200 C204 1.514 1_455 S
C201 C200 1.388 . S
C201 C202 1.410 . S
C201 C209 1.503 . S
C202 C201 1.410 . S
C202 C203 1.392 . S
C202 C205 1.511 . S
C203 C199 1.376 . S
C203 C202 1.392 . S
C203 H215 0.929 . S
C204 C200 1.514 1_655 S
C204 H216 0.960 . S
C204 H217 0.962 . S
C204 H218 0.960 . S
C205 C202 1.511 . S
C205 H219 0.961 . S
C205 H220 0.961 . S
C205 H221 0.961 . S
C206 C207 1.370 . S
C206 C208 1.363 . S
C206 H222 0.931 . S
C207 C206 1.370 . S
C207 C211 1.408 . S
C208 C206 1.363 . S
C208 C209 1.370 . S
C208 C212 1.524 . S
C209 C201 1.503 . S
C209 C208 1.370 . S
C209 C210 1.403 . S
C210 C209 1.403 . S
C210 C211 1.404 . S
C210 C213 1.539 . S
C211 C207 1.408 . S
C211 C210 1.404 . S
C211 H223 0.930 . S
C212 C208 1.524 . S
C212 H224 0.956 . S
C212 H225 0.961 . S
C212 H226 0.961 . S
C213 C210 1.539 . S
C213 H227 0.958 . S
C213 H228 0.961 . S
C213 H229 0.960 . S
H214 C198 0.931 1_655 S
H215 C203 0.929 . S
H216 C204 0.960 . S
H217 C204 0.962 . S
H218 C204 0.960 . S
H219 C205 0.961 . S
H220 C205 0.961 . S
H221 C205 0.961 . S
H222 C206 0.931 . S
H223 C211 0.930 . S
H224 C212 0.956 . S
H225 C212 0.961 . S
H226 C212 0.961 . S
H227 C213 0.958 . S
H228 C213 0.961 . S
H229 C213 0.960 . S
C230 C231 1.391 . S
C230 C232 1.394 . S
C230 H246 0.931 . S
C231 C230 1.391 . S
C231 C235 1.376 . S
C232 C230 1.394 . S
C232 C233 1.369 . S
C232 C236 1.531 . S
C233 C232 1.369 . S
C233 C234 1.410 . S
C233 C241 1.503 . S
C234 C233 1.410 . S
C234 C235 1.392 . S
C234 C237 1.511 1_545 S
C235 C231 1.376 . S
C235 C234 1.392 . S
C235 H247 0.929 . S
C236 C232 1.531 . S
C236 H248 0.960 . S
C236 H249 0.962 . S
C236 H250 0.960 . S
C237 C234 1.511 1_565 S
C237 H251 0.961 . S
C237 H252 0.961 . S
C237 H253 0.961 . S
C238 C239 1.370 . S
C238 C240 1.363 . S
C238 H254 0.931 . S
C239 C238 1.370 . S
C239 C243 1.408 . S
C240 C238 1.363 . S
C240 C241 1.370 . S
C240 C244 1.524 . S
C241 C233 1.503 . S
C241 C240 1.370 . S
C241 C242 1.403 . S
C242 C241 1.403 . S
C242 C243 1.404 . S
C242 C245 1.539 1_545 S
C243 C239 1.408 . S
C243 C242 1.404 . S
C243 H255 0.930 1_545 S
C244 C240 1.524 . S
C244 H256 0.956 . S
C244 H257 0.961 . S
C244 H258 0.961 . S
C245 C242 1.539 1_565 S
C245 H259 0.958 1_565 S
C245 H260 0.961 . S
C245 H261 0.960 . S
H246 C230 0.931 . S
H247 C235 0.929 . S
H248 C236 0.960 . S
H249 C236 0.962 . S
H250 C236 0.960 . S
H251 C237 0.961 . S
H252 C237 0.961 . S
H253 C237 0.961 . S
H254 C238 0.931 . S
H255 C243 0.930 1_565 S
H256 C244 0.956 . S
H257 C244 0.961 . S
H258 C244 0.961 . S
H259 C245 0.958 1_545 S
H260 C245 0.961 . S
H261 C245 0.960 . S
C262 C263 1.391 . S
C262 C264 1.394 . S
C262 H278 0.931 . S
C263 C262 1.391 . S
C263 C267 1.376 . S
C264 C262 1.394 . S
C264 C265 1.369 . S
C264 C268 1.531 . S
C265 C264 1.369 . S
C265 C266 1.410 . S
C265 C273 1.503 . S
C266 C265 1.410 . S
C266 C267 1.392 . S
C266 C269 1.511 . S
C267 C263 1.376 . S
C267 C266 1.392 . S
C267 H279 0.929 . S
C268 C264 1.531 . S
C268 H280 0.960 . S
C268 H281 0.962 . S
C268 H282 0.960 . S
C269 C266 1.511 . S
C269 H283 0.961 . S
C269 H284 0.961 . S
C269 H285 0.961 . S
C270 C271 1.370 . S
C270 C272 1.363 . S
C270 H286 0.931 . S
C271 C270 1.370 . S
C271 C275 1.408 . S
C272 C270 1.363 . S
C272 C273 1.370 . S
C272 C276 1.524 . S
C273 C265 1.503 . S
C273 C272 1.370 . S
C273 C274 1.403 . S
C274 C273 1.403 . S
C274 C275 1.404 . S
C274 C277 1.539 . S
C275 C271 1.408 . S
C275 C274 1.404 . S
C275 H287 0.930 . S
C276 C272 1.524 . S
C276 H288 0.956 . S
C276 H289 0.961 . S
C276 H290 0.961 . S
C277 C274 1.539 . S
C277 H291 0.958 . S
C277 H292 0.961 . S
C277 H293 0.960 . S
H278 C262 0.931 . S
H279 C267 0.929 . S
H280 C268 0.960 . S
H281 C268 0.962 . S
H282 C268 0.960 . S
H283 C269 0.961 . S
H284 C269 0.961 . S
H285 C269 0.961 . S
H286 C270 0.931 . S
H287 C275 0.930 . S
H288 C276 0.956 . S
H289 C276 0.961 . S
H290 C276 0.961 . S
H291 C277 0.958 . S
H292 C277 0.961 . S
H293 C277 0.960 . S
C294 C295 1.391 . S
C294 C296 1.394 . S
C294 H310 0.931 . S
C295 C294 1.391 . S
C295 C299 1.376 1_545 S
C296 C294 1.394 . S
C296 C297 1.369 . S
C296 C300 1.531 . S
C297 C296 1.369 . S
C297 C298 1.410 1_545 S
C297 C305 1.503 . S
C298 C297 1.410 1_565 S
C298 C299 1.392 . S
C298 C301 1.511 . S
C299 C295 1.376 1_565 S
C299 C298 1.392 . S
C299 H311 0.929 . S
C300 C296 1.531 . S
C300 H312 0.960 . S
C300 H313 0.962 . S
C300 H314 0.960 . S
C301 C298 1.511 . S
C301 H315 0.961 . S
C301 H316 0.961 . S
C301 H317 0.961 . S
C302 C303 1.370 . S
C302 C304 1.363 . S
C302 H318 0.931 . S
C303 C302 1.370 . S
C303 C307 1.408 1_545 S
C304 C302 1.363 . S
C304 C305 1.370 . S
C304 C308 1.524 . S
C305 C297 1.503 . S
C305 C304 1.370 . S
C305 C306 1.403 1_545 S
C306 C305 1.403 1_565 S
C306 C307 1.404 . S
C306 C309 1.539 . S
C307 C303 1.408 1_565 S
C307 C306 1.404 . S
C307 H319 0.930 . S
C308 C304 1.524 . S
C308 H320 0.956 . S
C308 H321 0.961 . S
C308 H322 0.961 . S
C309 C306 1.539 . S
C309 H323 0.975 . S
C309 H324 0.961 . S
C309 H325 0.960 . S
H310 C294 0.931 . S
H311 C299 0.929 . S
H312 C300 0.960 . S
H313 C300 0.962 . S
H314 C300 0.960 . S
H315 C301 0.961 . S
H316 C301 0.961 . S
H317 C301 0.961 . S
H318 C302 0.931 . S
H319 C307 0.930 . S
H320 C308 0.956 . S
H321 C308 0.961 . S
H322 C308 0.961 . S
H323 C309 0.975 . S
H324 C309 0.961 . S
H325 C309 0.960 . S
C326 C327 1.391 1_554 S
C326 C328 1.394 1_554 S
C326 H342 0.931 . S
C327 C326 1.391 1_556 S
C327 C331 1.376 . S
C328 C326 1.394 1_556 S
C328 C329 1.369 . S
C328 C332 1.531 1_556 S
C329 C328 1.369 . S
C329 C330 1.410 . S
C329 C337 1.503 . S
C330 C329 1.410 . S
C330 C331 1.392 . S
C330 C333 1.511 . S
C331 C327 1.376 . S
C331 C330 1.392 . S
C331 H343 0.929 . S
C332 C328 1.531 1_554 S
C332 H344 0.960 1_554 S
C332 H345 0.962 1_554 S
C332 H346 0.960 . S
C333 C330 1.511 . S
C333 H347 0.961 . S
C333 H348 0.961 . S
C333 H349 0.961 . S
C334 C335 1.370 . S
C334 C336 1.363 . S
C334 H350 0.931 . S
C335 C334 1.370 . S
C335 C339 1.408 . S
C336 C334 1.363 . S
C336 C337 1.370 . S
C336 C340 1.524 . S
C337 C329 1.503 . S
C337 C336 1.370 . S
C337 C338 1.403 . S
C338 C337 1.403 . S
C338 C339 1.404 . S
C338 C341 1.539 . S
C339 C335 1.408 . S
C339 C338 1.404 . S
C339 H351 0.930 . S
C340 C336 1.524 . S
C340 H352 0.956 . S
C340 H353 0.961 . S
C340 H354 0.961 . S
C341 C338 1.539 . S
C341 H355 0.958 . S
C341 H356 0.961 . S
C341 H357 0.960 . S
H342 C326 0.931 . S
H343 C331 0.929 . S
H344 C332 0.960 1_556 S
H345 C332 0.962 1_556 S
H346 C332 0.960 . S
H347 C333 0.961 . S
H348 C333 0.961 . S
H349 C333 0.961 . S
H350 C334 0.931 . S
H351 C339 0.930 . S
H352 C340 0.956 . S
H353 C340 0.961 . S
H354 C340 0.961 . S
H355 C341 0.958 . S
H356 C341 0.961 . S
H357 C341 0.960 . S
C358 C359 1.391 . S
C358 C360 1.394 . S
C358 H374 0.931 . S
C359 C358 1.391 . S
C359 C363 1.376 . S
C360 C358 1.394 . S
C360 C361 1.369 . S
C360 C364 1.531 . S
C361 C360 1.369 . S
C361 C362 1.410 . S
C361 C369 1.503 . S
C362 C361 1.410 . S
C362 C363 1.392 . S
C362 C365 1.511 . S
C363 C359 1.376 . S
C363 C362 1.392 . S
C363 H375 0.929 . S
C364 C360 1.531 . S
C364 H376 0.960 . S
C364 H377 0.960 1_545 S
C364 H378 0.960 . S
C365 C362 1.511 . S
C365 H379 0.961 . S
C365 H380 0.961 . S
C365 H381 0.961 . S
C366 C367 1.370 . S
C366 C368 1.363 . S
C366 H382 0.931 . S
C367 C366 1.370 . S
C367 C371 1.408 . S
C368 C366 1.363 . S
C368 C369 1.370 . S
C368 C372 1.524 1_545 S
C369 C361 1.503 . S
C369 C368 1.370 . S
C369 C370 1.403 . S
C370 C369 1.403 . S
C370 C371 1.404 . S
C370 C373 1.539 . S
C371 C367 1.408 . S
C371 C370 1.404 . S
C371 H383 0.930 . S
C372 C368 1.524 1_565 S
C372 H384 0.956 . S
C372 H385 0.961 1_565 S
C372 H386 0.961 . S
C373 C370 1.539 . S
C373 H387 0.958 . S
C373 H388 0.961 . S
C373 H389 0.960 . S
H374 C358 0.931 . S
H375 C363 0.929 . S
H376 C364 0.960 . S
H377 C364 0.960 1_565 S
H378 C364 0.960 . S
H379 C365 0.961 . S
H380 C365 0.961 . S
H381 C365 0.961 . S
H382 C366 0.931 . S
H383 C371 0.930 . S
H384 C372 0.956 . S
H385 C372 0.961 1_545 S
H386 C372 0.961 . S
H387 C373 0.958 . S
H388 C373 0.961 . S
H389 C373 0.960 . S
C390 C391 1.391 . S
C390 C392 1.394 . S
C390 H406 0.931 . S
C391 C390 1.391 . S
C391 C395 1.376 . S
C392 C390 1.394 . S
C392 C393 1.369 . S
C392 C396 1.531 . S
C393 C392 1.369 . S
C393 C394 1.410 . S
C393 C401 1.503 . S
C394 C393 1.410 . S
C394 C395 1.392 . S
C394 C397 1.511 . S
C395 C391 1.376 . S
C395 C394 1.392 . S
C395 H407 0.929 . S
C396 C392 1.531 . S
C396 H408 0.960 . S
C396 H409 0.962 . S
C396 H410 0.960 . S
C397 C394 1.511 . S
C397 H411 0.961 . S
C397 H412 0.961 . S
C397 H413 0.961 . S
C398 C399 1.370 . S
C398 C400 1.363 . S
C398 H414 0.931 . S
C399 C398 1.370 . S
C399 C403 1.408 . S
C400 C398 1.363 . S
C400 C401 1.370 . S
C400 C404 1.524 . S
C401 C393 1.503 . S
C401 C400 1.370 . S
C401 C402 1.403 . S
C402 C401 1.403 . S
C402 C403 1.404 . S
C402 C405 1.539 . S
C403 C399 1.408 . S
C403 C402 1.404 . S
C403 H415 0.930 . S
C404 C400 1.524 . S
C404 H416 0.956 . S
C404 H417 0.961 . S
C404 H418 0.961 . S
C405 C402 1.539 . S
C405 H419 0.958 . S
C405 H420 0.961 . S
C405 H421 0.960 . S
H406 C390 0.931 . S
H407 C395 0.929 . S
H408 C396 0.960 . S
H409 C396 0.962 . S
H410 C396 0.960 . S
H411 C397 0.961 . S
H412 C397 0.961 . S
H413 C397 0.961 . S
H414 C398 0.931 . S
H415 C403 0.930 . S
H416 C404 0.956 . S
H417 C404 0.961 . S
H418 C404 0.961 . S
H419 C405 0.958 . S
H420 C405 0.961 . S
H421 C405 0.960 . S
C422 C423 1.391 . S
C422 C424 1.394 1_554 S
C422 H438 0.931 . S
C423 C422 1.391 . S
C423 C427 1.376 . S
C424 C422 1.394 1_556 S
C424 C425 1.369 . S
C424 C428 1.531 . S
C425 C424 1.369 . S
C425 C426 1.410 1_556 S
C425 C433 1.503 . S
C426 C425 1.410 1_554 S
C426 C427 1.392 . S
C426 C429 1.511 1_655 S
C427 C423 1.376 . S
C427 C426 1.392 . S
C427 H439 0.929 . S
C428 C424 1.531 . S
C428 H440 0.960 . S
C428 H441 0.962 . S
C428 H442 0.960 . S
C429 C426 1.511 1_455 S
C429 H443 0.961 . S
C429 H444 0.961 1_554 S
C429 H445 0.961 . S
C430 C431 1.370 . S
C430 C432 1.363 1_455 S
C430 H446 0.931 . S
C431 C430 1.370 . S
C431 C435 1.408 . S
C432 C430 1.363 1_655 S
C432 C433 1.370 . S
C432 C436 1.524 . S
C433 C425 1.503 . S
C433 C432 1.370 . S
C433 C434 1.403 1_655 S
C434 C433 1.403 1_455 S
C434 C435 1.404 . S
C434 C437 1.539 . S
C435 C431 1.408 . S
C435 C434 1.404 . S
C435 H447 0.930 . S
C436 C432 1.524 . S
C436 H448 0.956 . S
C436 H449 0.961 . S
C436 H450 0.961 . S
C437 C434 1.539 . S
C437 H451 0.958 . S
C437 H452 0.961 . S
C437 H453 0.960 . S
H438 C422 0.931 . S
H439 C427 0.929 . S
H440 C428 0.960 . S
H441 C428 0.962 . S
H442 C428 0.960 . S
H443 C429 0.961 . S
H444 C429 0.961 1_556 S
H445 C429 0.961 . S
H446 C430 0.931 . S
H447 C435 0.930 . S
H448 C436 0.956 . S
H449 C436 0.961 . S
H450 C436 0.961 . S
H451 C437 0.958 . S
H452 C437 0.961 . S
H453 C437 0.960 . S
C454 C455 1.391 . S
C454 C456 1.394 . S
C454 H470 0.931 . S
C455 C454 1.391 . S
C455 C459 1.376 1_554 S
C456 C454 1.394 . S
C456 C457 1.369 . S
C456 C460 1.531 . S
C457 C456 1.369 . S
C457 C458 1.410 1_554 S
C457 C465 1.503 . S
C458 C457 1.410 1_556 S
C458 C459 1.392 . S
C458 C461 1.511 . S
C459 C455 1.376 1_556 S
C459 C458 1.392 . S
C459 H471 0.929 . S
C460 C456 1.531 . S
C460 H472 0.960 . S
C460 H473 0.962 . S
C460 H474 0.960 . S
C461 C458 1.511 . S
C461 H475 0.961 . S
C461 H476 0.961 . S
C461 H477 0.961 . S
C462 C463 1.368 . S
C462 C464 1.363 1_554 S
C462 H478 0.933 1_554 S
C463 C462 1.368 . S
C463 C467 1.408 . S
C464 C462 1.363 1_556 S
C464 C465 1.370 1_556 S
C464 C468 1.524 . S
C465 C457 1.503 . S
C465 C464 1.370 1_554 S
C465 C466 1.403 . S
C466 C465 1.403 . S
C466 C467 1.404 . S
C466 C469 1.539 . S
C467 C463 1.408 . S
C467 C466 1.404 . S
C467 H479 0.930 . S
C468 C464 1.524 . S
C468 H480 0.969 . S
C468 H481 0.961 . S
C468 H482 0.961 . S
C469 C466 1.539 . S
C469 H483 0.958 . S
C469 H484 0.961 . S
C469 H485 0.960 . S
H470 C454 0.931 . S
H471 C459 0.929 . S
H472 C460 0.960 . S
H473 C460 0.962 . S
H474 C460 0.960 . S
H475 C461 0.961 . S
H476 C461 0.961 . S
H477 C461 0.961 . S
H478 C462 0.933 1_556 S
H479 C467 0.930 . S
H480 C468 0.969 . S
H481 C468 0.961 . S
H482 C468 0.961 . S
H483 C469 0.958 . S
H484 C469 0.961 . S
H485 C469 0.960 . S
C486 C487 1.391 . S
C486 C488 1.394 . S
C486 H502 0.931 . S
C487 C486 1.391 . S
C487 C491 1.376 . S
C488 C486 1.394 . S
C488 C489 1.369 . S
C488 C492 1.531 . S
C489 C488 1.369 . S
C489 C490 1.410 . S
C489 C497 1.503 . S
C490 C489 1.410 . S
C490 C491 1.392 . S
C490 C493 1.511 . S
C491 C487 1.376 . S
C491 C490 1.392 . S
C491 H503 0.929 . S
C492 C488 1.531 . S
C492 H504 0.960 . S
C492 H505 0.962 . S
C492 H506 0.960 . S
C493 C490 1.511 . S
C493 H507 0.961 . S
C493 H508 0.961 . S
C493 H509 0.961 . S
C494 C495 1.370 . S
C494 C496 1.363 . S
C494 H510 0.931 . S
C495 C494 1.370 . S
C495 C499 1.408 . S
C496 C494 1.363 . S
C496 C497 1.370 . S
C496 C500 1.524 . S
C497 C489 1.503 . S
C497 C496 1.370 . S
C497 C498 1.403 . S
C498 C497 1.403 . S
C498 C499 1.404 . S
C498 C501 1.539 . S
C499 C495 1.408 . S
C499 C498 1.404 . S
C499 H511 0.930 . S
C500 C496 1.524 . S
C500 H512 0.956 . S
C500 H513 0.961 . S
C500 H514 0.961 . S
C501 C498 1.539 . S
C501 H515 0.958 . S
C501 H516 0.961 . S
C501 H517 0.960 . S
H502 C486 0.931 . S
H503 C491 0.929 . S
H504 C492 0.960 . S
H505 C492 0.962 . S
H506 C492 0.960 . S
H507 C493 0.961 . S
H508 C493 0.961 . S
H509 C493 0.961 . S
H510 C494 0.931 . S
H511 C499 0.930 . S
H512 C500 0.956 . S
H513 C500 0.961 . S
H514 C500 0.961 . S
H515 C501 0.958 . S
H516 C501 0.961 . S
H517 C501 0.960 . S
C518 C519 1.391 . S
C518 C520 1.394 . S
C518 H534 0.931 . S
C519 C518 1.391 . S
C519 C523 1.376 . S
C520 C518 1.394 . S
C520 C521 1.369 . S
C520 C524 1.531 . S
C521 C520 1.369 . S
C521 C522 1.410 . S
C521 C529 1.503 . S
C522 C521 1.410 . S
C522 C523 1.392 . S
C522 C525 1.511 . S
C523 C519 1.376 . S
C523 C522 1.392 . S
C523 H535 0.929 . S
C524 C520 1.531 . S
C524 H536 0.960 . S
C524 H537 0.962 . S
C524 H538 0.960 . S
C525 C522 1.511 . S
C525 H539 0.961 . S
C525 H540 0.961 . S
C525 H541 0.961 . S
C526 C527 1.370 . S
C526 C528 1.363 . S
C526 H542 0.931 . S
C527 C526 1.370 . S
C527 C531 1.408 . S
C528 C526 1.363 . S
C528 C529 1.370 . S
C528 C532 1.524 . S
C529 C521 1.503 . S
C529 C528 1.370 . S
C529 C530 1.403 . S
C530 C529 1.403 . S
C530 C531 1.404 . S
C530 C533 1.539 . S
C531 C527 1.408 . S
C531 C530 1.404 . S
C531 H543 0.930 . S
C532 C528 1.524 . S
C532 H544 0.956 . S
C532 H545 0.961 . S
C532 H546 0.961 . S
C533 C530 1.539 . S
C533 H547 0.958 . S
C533 H548 0.961 . S
C533 H549 0.960 . S
H534 C518 0.931 . S
H535 C523 0.929 . S
H536 C524 0.960 . S
H537 C524 0.962 . S
H538 C524 0.960 . S
H539 C525 0.961 . S
H540 C525 0.961 . S
H541 C525 0.961 . S
H542 C526 0.931 . S
H543 C531 0.930 . S
H544 C532 0.956 . S
H545 C532 0.961 . S
H546 C532 0.961 . S
H547 C533 0.958 . S
H548 C533 0.961 . S
H549 C533 0.960 . S
C550 C551 1.391 . S
C550 C552 1.394 . S
C550 H566 0.931 . S
C551 C550 1.391 . S
C551 C555 1.376 . S
C552 C550 1.394 . S
C552 C553 1.369 1_455 S
C552 C556 1.531 . S
C553 C552 1.369 1_655 S
C553 C554 1.410 . S
C553 C561 1.503 . S
C554 C553 1.410 . S
C554 C555 1.392 1_655 S
C554 C557 1.511 . S
C555 C551 1.376 . S
C555 C554 1.392 1_455 S
C555 H567 0.929 . S
C556 C552 1.531 . S
C556 H568 0.960 1_455 S
C556 H569 0.962 . S
C556 H570 0.960 . S
C557 C554 1.511 . S
C557 H571 0.961 . S
C557 H572 0.961 . S
C557 H573 0.961 . S
C558 C559 1.370 . S
C558 C560 1.363 . S
C558 H574 0.931 . S
C559 C558 1.370 . S
C559 C563 1.408 . S
C560 C558 1.363 . S
C560 C561 1.370 . S
C560 C564 1.524 . S
C561 C553 1.503 . S
C561 C560 1.370 . S
C561 C562 1.403 . S
C562 C561 1.403 . S
C562 C563 1.404 . S
C562 C565 1.539 . S
C563 C559 1.408 . S
C563 C562 1.404 . S
C563 H575 0.930 . S
C564 C560 1.524 . S
C564 H576 0.956 . S
C564 H577 0.961 . S
C564 H578 0.961 . S
C565 C562 1.539 . S
C565 H579 0.958 . S
C565 H580 0.961 . S
C565 H581 0.960 . S
H566 C550 0.931 . S
H567 C555 0.929 . S
H568 C556 0.960 1_655 S
H569 C556 0.962 . S
H570 C556 0.960 . S
H571 C557 0.961 . S
H572 C557 0.961 . S
H573 C557 0.961 . S
H574 C558 0.931 . S
H575 C563 0.930 . S
H576 C564 0.956 . S
H577 C564 0.961 . S
H578 C564 0.961 . S
H579 C565 0.958 . S
H580 C565 0.961 . S
H581 C565 0.960 . S
C582 C583 1.391 . S
C582 C584 1.394 . S
C582 H598 0.931 . S
C583 C582 1.391 . S
C583 C587 1.376 . S
C584 C582 1.394 . S
C584 C585 1.369 . S
C584 C588 1.531 . S
C585 C584 1.369 . S
C585 C586 1.410 . S
C585 C593 1.503 . S
C586 C585 1.410 . S
C586 C587 1.392 . S
C586 C589 1.511 . S
C587 C583 1.376 . S
C587 C586 1.392 . S
C587 H599 0.929 . S
C588 C584 1.531 . S
C588 H600 0.960 . S
C588 H601 0.962 . S
C588 H602 0.960 . S
C589 C586 1.511 . S
C589 H603 0.961 . S
C589 H604 0.961 . S
C589 H605 0.961 . S
C590 C591 1.381 . S
C590 C592 1.375 . S
C590 H606 0.908 1_545 S
C591 C590 1.381 . S
C591 C595 1.408 . S
C592 C590 1.375 . S
C592 C593 1.370 . S
C592 C596 1.524 1_545 S
C593 C585 1.503 . S
C593 C592 1.370 . S
C593 C594 1.403 . S
C594 C593 1.403 . S
C594 C595 1.404 . S
C594 C597 1.539 . S
C595 C591 1.408 . S
C595 C594 1.404 . S
C595 H607 0.930 . S
C596 C592 1.524 1_565 S
C596 H608 0.956 . S
C596 H609 0.964 . S
C596 H610 0.961 . S
C597 C594 1.539 . S
C597 H611 0.958 . S
C597 H612 0.961 . S
C597 H613 0.960 . S
H598 C582 0.931 . S
H599 C587 0.929 . S
H600 C588 0.960 . S
H601 C588 0.962 . S
H602 C588 0.960 . S
H603 C589 0.961 . S
H604 C589 0.961 . S
H605 C589 0.961 . S
H606 C590 0.908 1_565 S
H607 C595 0.930 . S
H608 C596 0.956 . S
H609 C596 0.964 . S
H610 C596 0.961 . S
H611 C597 0.958 . S
H612 C597 0.961 . S
H613 C597 0.960 . S
C614 C615 1.391 . S
C614 C616 1.394 . S
C614 H630 0.931 . S
C615 C614 1.391 . S
C615 C619 1.376 . S
C616 C614 1.394 . S
C616 C617 1.369 . S
C616 C620 1.531 1_545 S
C617 C616 1.369 . S
C617 C618 1.410 . S
C617 C625 1.503 . S
C618 C617 1.410 . S
C618 C619 1.392 . S
C618 C621 1.511 . S
C619 C615 1.376 . S
C619 C618 1.392 . S
C619 H631 0.929 . S
C620 C616 1.531 1_565 S
C620 H632 0.960 . S
C620 H633 0.962 . S
C620 H634 0.960 . S
C621 C618 1.511 . S
C621 H635 0.961 . S
C621 H636 0.961 . S
C621 H637 0.961 . S
C622 C623 1.370 . S
C622 C624 1.363 . S
C622 H638 0.931 1_554 S
C623 C622 1.370 . S
C623 C627 1.408 . S
C624 C622 1.363 . S
C624 C625 1.370 . S
C624 C628 1.524 . S
C625 C617 1.503 . S
C625 C624 1.370 . S
C625 C626 1.403 . S
C626 C625 1.403 . S
C626 C627 1.404 . S
C626 C629 1.539 . S
C627 C623 1.408 . S
C627 C626 1.404 . S
C627 H639 0.930 . S
C628 C624 1.524 . S
C628 H640 0.956 . S
C628 H641 0.961 . S
C628 H642 0.961 . S
C629 C626 1.539 . S
C629 H643 0.958 1_545 S
C629 H644 0.961 . S
C629 H645 0.960 . S
H630 C614 0.931 . S
H631 C619 0.929 . S
H632 C620 0.960 . S
H633 C620 0.962 . S
H634 C620 0.960 . S
H635 C621 0.961 . S
H636 C621 0.961 . S
H637 C621 0.961 . S
H638 C622 0.931 1_556 S
H639 C627 0.930 . S
H640 C628 0.956 . S
H641 C628 0.961 . S
H642 C628 0.961 . S
H643 C629 0.958 1_565 S
H644 C629 0.961 . S
H645 C629 0.960 . S
C646 C647 1.391 . S
C646 C648 1.394 . S
C646 H662 0.931 . S
C647 C646 1.391 . S
C647 C651 1.376 . S
C648 C646 1.394 . S
C648 C649 1.369 . S
C648 C652 1.531 . S
C649 C648 1.369 . S
C649 C650 1.410 . S
C649 C657 1.503 . S
C650 C649 1.410 . S
C650 C651 1.392 . S
C650 C653 1.511 . S
C651 C647 1.376 . S
C651 C650 1.392 . S
C651 H663 0.929 . S
C652 C648 1.531 . S
C652 H664 0.960 . S
C652 H665 0.962 . S
C652 H666 0.960 . S
C653 C650 1.511 . S
C653 H667 0.961 . S
C653 H668 0.961 . S
C653 H669 0.961 . S
C654 C655 1.370 . S
C654 C656 1.363 . S
C654 H670 0.931 . S
C655 C654 1.370 . S
C655 C659 1.408 . S
C656 C654 1.363 . S
C656 C657 1.370 . S
C656 C660 1.524 . S
C657 C649 1.503 . S
C657 C656 1.370 . S
C657 C658 1.403 . S
C658 C657 1.403 . S
C658 C659 1.404 . S
C658 C661 1.539 . S
C659 C655 1.408 . S
C659 C658 1.404 . S
C659 H671 0.930 . S
C660 C656 1.524 . S
C660 H672 0.956 . S
C660 H673 0.961 . S
C660 H674 0.961 . S
C661 C658 1.539 . S
C661 H675 0.958 . S
C661 H676 0.961 . S
C661 H677 0.960 . S
H662 C646 0.931 . S
H663 C651 0.929 . S
H664 C652 0.960 . S
H665 C652 0.962 . S
H666 C652 0.960 . S
H667 C653 0.961 . S
H668 C653 0.961 . S
H669 C653 0.961 . S
H670 C654 0.931 . S
H671 C659 0.930 . S
H672 C660 0.956 . S
H673 C660 0.961 . S
H674 C660 0.961 . S
H675 C661 0.958 . S
H676 C661 0.961 . S
H677 C661 0.960 . S
C199 C117 1.550 . S
C207 N13 1.328 . S
C231 C150 0.728 . S
C239 C18 0.720 . S
C263 N2 0.713 . S
C271 N178 0.620 . S
C295 N68 1.175 . S
C303 C7 1.392 . S
C327 N167 1.226 1_556 S
C335 C51 1.428 1_565 S
C359 N79 0.683 . S
C367 N46 0.628 . S
C391 C40 0.882 . S
C399 C106 0.874 . S
C423 C139 1.390 . S
C431 N35 1.208 . S
C455 C84 1.410 . S
C463 N101 1.238 . S
C487 C73 0.851 . S
C495 C172 0.896 . S
C519 N134 0.658 . S
C527 N112 0.591 . S
C551 C183 1.537 . S
C559 N145 1.338 . S
C583 C54 1.099 . S
C591 C21 1.109 . S
C615 C153 1.147 . S
C623 C87 1.089 . S
C647 C186 1.040 . S
C655 C120 1.114 . S
