# Generated by pormake.
# Topology dia, (4)-cn, num edge types: 1
# Building blocks:
#     Node 0, Type 0, BuildingBlock: CEKHIL_clean_sbu_0, # of connection points: 4
#     Node 1, Type 0, BuildingBlock: CEKHIL_clean_sbu_0, # of connection points: 4
#     Node 2, Type 0, BuildingBlock: CEKHIL_clean_sbu_0, # of connection points: 4
#     Node 3, Type 0, BuildingBlock: CEKHIL_clean_sbu_0, # of connection points: 4
#     Node 4, Type 0, BuildingBlock: CEKHIL_clean_sbu_0, # of connection points: 4
#     Node 5, Type 0, BuildingBlock: CEKHIL_clean_sbu_0, # of connection points: 4
#     Node 6, Type 0, BuildingBlock: CEKHIL_clean_sbu_0, # of connection points: 4
#     Node 7, Type 0, BuildingBlock: CEKHIL_clean_sbu_0, # of connection points: 4
#     Edge 8, Type (0, 0), BuildingBlock: AJUNOK_clean_linker_0, # of connection points: 2
#     Edge 9, Type (0, 0), BuildingBlock: AJUNOK_clean_linker_0, # of connection points: 2
#     Edge 10, Type (0, 0), BuildingBlock: AJUNOK_clean_linker_0, # of connection points: 2
#     Edge 11, Type (0, 0), BuildingBlock: AJUNOK_clean_linker_0, # of connection points: 2
#     Edge 12, Type (0, 0), BuildingBlock: AJUNOK_clean_linker_0, # of connection points: 2
#     Edge 13, Type (0, 0), BuildingBlock: AJUNOK_clean_linker_0, # of connection points: 2
#     Edge 14, Type (0, 0), BuildingBlock: AJUNOK_clean_linker_0, # of connection points: 2
#     Edge 15, Type (0, 0), BuildingBlock: AJUNOK_clean_linker_0, # of connection points: 2
#     Edge 16, Type (0, 0), BuildingBlock: AJUNOK_clean_linker_0, # of connection points: 2
#     Edge 17, Type (0, 0), BuildingBlock: AJUNOK_clean_linker_0, # of connection points: 2
#     Edge 18, Type (0, 0), BuildingBlock: AJUNOK_clean_linker_0, # of connection points: 2
#     Edge 19, Type (0, 0), BuildingBlock: AJUNOK_clean_linker_0, # of connection points: 2
#     Edge 20, Type (0, 0), BuildingBlock: AJUNOK_clean_linker_0, # of connection points: 2
#     Edge 21, Type (0, 0), BuildingBlock: AJUNOK_clean_linker_0, # of connection points: 2
#     Edge 22, Type (0, 0), BuildingBlock: AJUNOK_clean_linker_0, # of connection points: 2
#     Edge 23, Type (0, 0), BuildingBlock: AJUNOK_clean_linker_0, # of connection points: 2
# Relax obj value: 0.001
# Max RMSD: 0.017
# Mean RMSD: 0.017
data_MOF--net-dia--node1-CEKHIL_clean_sbu_0--edge1-AJUNOK_clean_linker_0
_symmetry_space_group_name_H-M    P1
_symmetry_Int_Tables_number       1
_symmetry_cell_setting            triclinic
loop_
_symmetry_equiv_pos_as_xyz
'x, y, z'
_cell_length_a     27.903257
_cell_length_b     28.040093
_cell_length_c     18.37113
_cell_angle_alpha  90.014348
_cell_angle_beta   90.126409
_cell_angle_gamma 91.837195
loop_
_atom_site_label
_atom_site_type_symbol
_atom_site_fract_x
_atom_site_fract_y
_atom_site_fract_z
_atom_type_partial_charge
Co0 Co 0.14134 0.15551 0.63783 0.0
O1 O 0.09218 0.20263 0.63043 0.0
O2 O 0.10601 0.16014 0.72862 0.0
C3 C 0.19953 0.20185 0.58555 0.0
O4 O 0.18982 0.10526 0.66849 0.0
Co5 Co 0.19173 0.1144 0.50228 0.0
O6 O 0.23497 0.08431 0.57343 0.0
C7 C 0.09126 0.08601 0.53514 0.0
C8 C 0.08137 0.19319 0.69764 0.0
C9 C 0.22496 0.08229 0.64105 0.0
O10 O 0.09519 0.1046 0.59919 0.0
O11 O 0.12406 0.09022 0.48673 0.0
O12 O 0.18991 0.20634 0.65443 0.0
O13 O 0.1723 0.17181 0.55054 0.0
Co14 Co 0.87235 0.38745 0.87004 0.0
O15 O 0.82498 0.43637 0.87662 0.0
O16 O 0.86725 0.42172 0.77846 0.0
C17 C 0.82634 0.32982 0.92393 0.0
O18 O 0.92275 0.33905 0.84004 0.0
Co19 Co 0.91489 0.33894 0.00604 0.0
O20 O 0.94433 0.29488 0.93578 0.0
C21 C 0.94403 0.43825 0.96941 0.0
C22 C 0.83426 0.44658 0.80913 0.0
C23 C 0.94592 0.30425 0.86794 0.0
O24 O 0.92357 0.43389 0.9067 0.0
O25 O 0.94065 0.40606 0.01876 0.0
O26 O 0.82144 0.33891 0.85493 0.0
O27 O 0.8565 0.35735 0.95834 0.0
Co28 Co 0.64118 0.15387 0.13929 0.0
O29 O 0.5913 0.20076 0.13532 0.0
O30 O 0.60835 0.15802 0.23198 0.0
C31 C 0.69763 0.20035 0.08284 0.0
O32 O 0.69061 0.10399 0.16767 0.0
Co33 Co 0.68952 0.11225 1.00229 0.0
O34 O 0.73411 0.08213 0.07142 0.0
C35 C 0.58933 0.08468 0.03868 0.0
C36 C 0.5824 0.19079 0.20309 0.0
C37 C 0.72521 0.08068 0.13941 0.0
O38 O 0.59443 0.10263 0.10302 0.0
O39 O 0.62134 0.08915 0.98913 0.0
O40 O 0.68993 0.20525 0.15228 0.0
O41 O 0.66984 0.1697 0.05029 0.0
Co42 Co 0.87573 0.88714 0.37154 0.0
O43 O 0.82871 0.93641 0.37828 0.0
O44 O 0.86964 0.92061 0.2793 0.0
C45 C 0.82992 0.83054 0.42839 0.0
O46 O 0.92557 0.83807 0.34153 0.0
Co47 Co 0.91941 0.83945 0.50769 0.0
O48 O 0.94799 0.79468 0.43772 0.0
C49 C 0.94771 0.93868 0.46906 0.0
C50 C 0.83717 0.94597 0.31034 0.0
C51 C 0.9489 0.80342 0.36965 0.0
O52 O 0.92754 0.93369 0.40619 0.0
O53 O 0.94425 0.90695 0.51907 0.0
O54 O 0.82422 0.83866 0.35921 0.0
O55 O 0.86091 0.85816 0.46077 0.0
Co56 Co 0.14135 0.6527 0.13629 0.0
O57 O 0.09261 0.7002 0.13104 0.0
O58 O 0.10682 0.65691 0.22818 0.0
C59 C 0.19936 0.69927 0.08408 0.0
O60 O 0.19017 0.60167 0.1634 0.0
Co61 Co 0.18825 0.61384 0.99597 0.0
O62 O 0.23285 0.58318 0.06437 0.0
C63 C 0.08875 0.58496 0.03326 0.0
C64 C 0.08221 0.69043 0.19821 0.0
C65 C 0.22476 0.57962 0.13242 0.0
O66 O 0.09428 0.60255 0.09772 0.0
O67 O 0.12029 0.58994 0.98312 0.0
O68 O 0.19049 0.70291 0.15329 0.0
O69 O 0.17122 0.67024 0.04876 0.0
Co70 Co 0.37451 0.38674 0.36792 0.0
O71 O 0.32737 0.4363 0.37041 0.0
O72 O 0.36984 0.4181 0.27402 0.0
C73 C 0.32805 0.33123 0.42624 0.0
O74 O 0.42473 0.33699 0.34183 0.0
Co75 Co 0.4161 0.34224 0.50835 0.0
O76 O 0.44535 0.29603 0.44142 0.0
C77 C 0.44537 0.4403 0.46512 0.0
C78 C 0.33701 0.44427 0.30234 0.0
C79 C 0.44735 0.30293 0.37294 0.0
O80 O 0.42603 0.43397 0.40187 0.0
O81 O 0.44098 0.40983 0.51677 0.0
O82 O 0.32306 0.33794 0.35657 0.0
O83 O 0.35849 0.3597 0.45801 0.0
Co84 Co 0.37376 0.88717 0.87229 0.0
O85 O 0.32663 0.93636 0.8798 0.0
O86 O 0.3678 0.92124 0.78073 0.0
C87 C 0.32823 0.82992 0.9282 0.0
O88 O 0.42361 0.83852 0.84107 0.0
Co89 Co 0.41772 0.83834 0.00729 0.0
O90 O 0.44609 0.7942 0.93616 0.0
C91 C 0.44553 0.93805 0.97101 0.0
C92 C 0.33528 0.94637 0.81203 0.0
C93 C 0.44692 0.80359 0.8683 0.0
O94 O 0.42548 0.93353 0.90796 0.0
O95 O 0.44216 0.90583 0.02029 0.0
O96 O 0.32229 0.83863 0.85923 0.0
O97 O 0.35916 0.85741 0.96091 0.0
Co98 Co 0.64034 0.65513 0.63439 0.0
O99 O 0.59129 0.70245 0.62773 0.0
O100 O 0.60479 0.65893 0.725 0.0
C101 C 0.6989 0.70167 0.5837 0.0
O102 O 0.68858 0.6046 0.66451 0.0
Co103 Co 0.69131 0.61491 0.49879 0.0
O104 O 0.7345 0.58461 0.56983 0.0
C105 C 0.59066 0.58627 0.53004 0.0
C106 C 0.58033 0.69236 0.6947 0.0
C107 C 0.72405 0.58205 0.63725 0.0
O108 O 0.59421 0.60471 0.59425 0.0
O109 O 0.62382 0.59052 0.48223 0.0
O110 O 0.68894 0.70565 0.65254 0.0
O111 O 0.67173 0.67206 0.54775 0.0
C112 C 0.2668 0.26415 0.43153 0.0
C113 C 0.29886 0.29558 0.46798 0.0
C114 C 0.23608 0.23285 0.47022 0.0
C115 C 0.23587 0.23203 0.54695 0.0
H116 H 0.26468 0.26429 0.37265 0.0
H117 H 0.21131 0.21009 0.43949 0.0
S118 S 0.31539 0.30462 0.66856 0.0
N119 N 0.33054 0.3219 0.58563 0.0
N120 N 0.27241 0.26337 0.65788 0.0
C121 C 0.26881 0.2621 0.58411 0.0
C122 C 0.30041 0.29377 0.54475 0.0
C123 C 0.79087 0.52446 0.65349 0.0
C124 C 0.75299 0.5499 0.68431 0.0
C125 C 0.81726 0.49203 0.69441 0.0
C126 C 0.80725 0.48333 0.76832 0.0
H127 H 0.80006 0.52902 0.59662 0.0
H128 H 0.84542 0.47315 0.66733 0.0
S129 S 0.71344 0.54176 0.87709 0.0
N130 N 0.70811 0.56489 0.79496 0.0
N131 N 0.75762 0.50417 0.87162 0.0
C132 C 0.77023 0.50916 0.80056 0.0
C133 C 0.74323 0.54228 0.75877 0.0
C134 C 0.52512 0.02592 0.07684 0.0
C135 C 0.54685 0.05366 0.02178 0.0
C136 C 0.4908 0.99005 0.05997 0.0
C137 C 0.47651 0.98078 0.98743 0.0
H138 H 0.53651 0.03011 0.13296 0.0
H139 H 0.47655 0.96841 0.10421 0.0
S140 S 0.51721 0.04904 0.82461 0.0
N141 N 0.54772 0.07357 0.89281 0.0
N142 N 0.48309 1.00627 0.86111 0.0
C143 C 0.49541 1.01075 0.93248 0.0
C144 C 0.53064 0.04708 0.94965 0.0
C145 C 1.00535 0.73556 0.35404 0.0
C146 C 0.9802 0.77349 0.32278 0.0
C147 C 0.03729 0.70846 0.31327 0.0
C148 C 0.04574 0.71781 0.23912 0.0
H149 H 1.00098 0.72691 0.41114 0.0
H150 H 0.05605 0.68036 0.34065 0.0
S151 S 0.98783 0.81145 0.12926 0.0
N152 N 0.96519 0.81764 0.21151 0.0
N153 N 0.02488 0.76688 0.13515 0.0
C154 C 0.0201 0.75484 0.20648 0.0
C155 C 0.98751 0.78252 0.24808 0.0
C156 C 0.31788 0.9918 0.69751 0.0
C157 C 0.30822 0.98326 0.77156 0.0
C158 C 0.29151 0.02437 0.65683 0.0
C159 C 0.25399 0.05014 0.68803 0.0
H160 H 0.34574 0.97269 0.6701 0.0
H161 H 0.30043 0.02876 0.59984 0.0
S162 S 0.21548 0.04254 0.88133 0.0
N163 N 0.25935 1.00461 0.87543 0.0
N164 N 0.20986 0.06561 0.79921 0.0
C165 C 0.2446 0.0427 0.76264 0.0
C166 C 0.2716 1.00942 0.8042 0.0
C167 C 0.99084 0.48991 0.05708 0.0
C168 C 0.9755 0.48078 0.98502 0.0
C169 C 0.02538 0.52576 0.07293 0.0
C170 C 0.04634 0.55363 0.0173 0.0
H171 H 0.97719 0.46822 0.10169 0.0
H172 H 0.03749 0.52991 0.12872 0.0
S173 S 1.01406 0.54922 0.82113 0.0
N174 N 0.98041 0.50644 0.85856 0.0
N175 N 0.04554 0.57363 0.88843 0.0
C176 C 0.02922 0.54708 0.94568 0.0
C177 C 0.99372 0.51079 0.92954 0.0
C178 C 0.49019 0.28304 0.25574 0.0
C179 C 0.47921 0.27181 0.32878 0.0
C180 C 0.52272 0.25622 0.21524 0.0
C181 C 0.54584 0.21691 0.24581 0.0
H182 H 0.47432 0.31344 0.22983 0.0
H183 H 0.53041 0.26704 0.15979 0.0
S184 S 0.52741 0.1699 0.43299 0.0
N185 N 0.49267 0.21632 0.42842 0.0
N186 N 0.55347 0.1667 0.35271 0.0
C187 C 0.53426 0.20443 0.31801 0.0
C188 C 0.50113 0.23159 0.35924 0.0
C189 C 0.76837 0.76378 0.43182 0.0
C190 C 0.80023 0.7949 0.46924 0.0
C191 C 0.737 0.73263 0.46955 0.0
C192 C 0.73587 0.7317 0.54624 0.0
H193 H 0.76694 0.76403 0.37289 0.0
H194 H 0.71245 0.71009 0.43808 0.0
S195 S 0.81432 0.8037 0.67021 0.0
N196 N 0.83065 0.82093 0.58776 0.0
N197 N 0.77123 0.76272 0.65826 0.0
C198 C 0.76858 0.76149 0.5844 0.0
C199 C 0.80087 0.79298 0.54601 0.0
C200 C 0.24593 0.53791 0.25019 0.0
C201 C 0.2555 0.54693 0.17604 0.0
C202 C 0.27283 0.5054 0.29068 0.0
C203 C 0.31057 0.48031 0.25902 0.0
H204 H 0.21694 0.55556 0.27719 0.0
H205 H 0.26342 0.49946 0.34719 0.0
S206 S 0.35225 0.49201 0.06787 0.0
N207 N 0.30732 0.52864 0.07355 0.0
N208 N 0.35707 0.46801 0.1494 0.0
C209 C 0.3212 0.48959 0.18547 0.0
C210 C 0.29397 0.52268 0.14419 0.0
C211 C 0.79462 0.29419 0.03964 0.0
C212 C 0.79651 0.29346 0.96297 0.0
C213 C 0.76349 0.26319 0.07825 0.0
C214 C 0.73337 0.22992 0.04173 0.0
H215 H 0.81634 0.3199 0.07025 0.0
H216 H 0.76239 0.26601 0.13702 0.0
S217 S 0.72776 0.21072 0.84141 0.0
N218 N 0.76775 0.25481 0.8522 0.0
N219 N 0.70962 0.1962 0.92416 0.0
C220 C 0.73636 0.22752 0.96509 0.0
C221 C 0.76781 0.25937 0.92587 0.0
C222 C 0.81887 0.99064 0.19525 0.0
C223 C 0.80984 0.98256 0.26962 0.0
C224 C 0.79209 0.02292 0.15457 0.0
C225 C 0.7548 0.04884 0.18611 0.0
H226 H 0.84652 0.97136 0.16764 0.0
H227 H 0.80049 0.02698 0.09734 0.0
S228 S 0.71784 0.04238 0.38022 0.0
N229 N 0.76173 1.00451 0.37404 0.0
N230 N 0.71154 0.06492 0.29789 0.0
C231 C 0.74605 0.04186 0.26101 0.0
C232 C 0.77343 1.00889 0.30253 0.0
C233 C 0.99203 0.99213 0.55697 0.0
C234 C 0.97884 0.98145 0.48445 0.0
C235 C 0.02632 0.0281 0.57333 0.0
C236 C 0.04919 0.05453 0.51778 0.0
H237 H 0.97684 0.97156 0.6017 0.0
H238 H 0.03672 0.03345 0.62968 0.0
S239 S 0.02292 0.04567 0.31983 0.0
N240 N 0.98781 1.00401 0.35717 0.0
N241 N 0.05247 0.07149 0.38792 0.0
C242 C 0.0342 0.04643 0.44539 0.0
C243 C 0.99894 1.01001 0.42873 0.0
C244 C 1.0026 0.23671 0.85214 0.0
C245 C 0.9778 0.27492 0.82112 0.0
C246 C 0.03504 0.21011 0.8116 0.0
C247 C 0.04439 0.22025 0.73791 0.0
H248 H 0.99755 0.22742 0.90888 0.0
H249 H 0.05346 0.18173 0.83885 0.0
S250 S 0.98784 0.31502 0.6288 0.0
N251 N 0.96414 0.3203 0.71053 0.0
N252 N 0.02485 0.27042 0.63459 0.0
C253 C 0.01915 0.25759 0.70545 0.0
C254 C 0.98601 0.28478 0.74684 0.0
C255 C 0.5354 0.70948 0.80979 0.0
C256 C 0.54361 0.71928 0.7357 0.0
C257 C 0.5035 0.73616 0.85116 0.0
C258 C 0.47809 0.7741 0.82061 0.0
H259 H 0.55441 0.68137 0.83675 0.0
H260 H 0.49941 0.72717 0.90818 0.0
S261 S 0.48467 0.81292 0.62737 0.0
N262 N 0.52207 0.7686 0.63241 0.0
N263 N 0.46231 0.81864 0.7099 0.0
C264 C 0.48502 0.78353 0.7459 0.0
C265 C 0.51764 0.75625 0.70366 0.0
C266 C 0.23504 0.73213 0.96928 0.0
C267 C 0.23586 0.72942 0.04588 0.0
C268 C 0.26591 0.76375 0.93143 0.0
C269 C 0.29913 0.79357 0.96863 0.0
H270 H 0.20931 0.71072 0.93815 0.0
H271 H 0.26294 0.76548 0.87269 0.0
S272 S 0.31873 0.79701 0.16894 0.0
N273 N 0.27469 0.75703 0.1573 0.0
N274 N 0.3331 0.8161 0.08661 0.0
C275 C 0.30175 0.78971 0.04514 0.0
C276 C 0.27002 0.75775 0.08364 0.0
C277 C 0.48812 0.49581 0.55165 0.0
C278 C 0.47688 0.48296 0.47922 0.0
C279 C 0.52299 0.53127 0.56765 0.0
C280 C 0.54842 0.55507 0.51186 0.0
H281 H 0.47092 0.47726 0.59676 0.0
H282 H 0.53169 0.53829 0.62423 0.0
S283 S 0.52804 0.53981 0.31309 0.0
N284 N 0.49053 0.50057 0.35114 0.0
N285 N 0.55619 0.56725 0.38107 0.0
C286 C 0.5354 0.54486 0.43914 0.0
C287 C 0.49956 0.50889 0.42284 0.0
loop_
_geom_bond_atom_site_label_1
_geom_bond_atom_site_label_2
_geom_bond_distance
_geom_bond_site_symmetry_2
_ccdc_geom_bond_type
Co0 O1 2.216 . S
Co0 O2 2.091 . S
Co0 O4 2.004 . S
Co0 O10 2.021 . S
Co0 O12 2.137 . S
Co0 O13 2.244 . S
O1 Co0 2.216 . S
O1 C8 1.247 . S
O2 Co0 2.091 . S
O2 C8 1.261 . S
C3 O12 1.247 . S
C3 O13 1.272 . S
O4 Co0 2.004 . S
O4 C9 1.259 . S
Co5 O6 2.061 . S
Co5 O11 2.052 . S
Co5 O13 2.135 . S
O6 Co5 2.061 . S
O6 C9 1.235 . S
C7 O10 1.238 . S
C7 O11 1.241 . S
C8 O1 1.247 . S
C8 O2 1.261 . S
C9 O4 1.259 . S
C9 O6 1.235 . S
O10 Co0 2.021 . S
O10 C7 1.238 . S
O11 Co5 2.052 . S
O11 C7 1.241 . S
O12 Co0 2.137 . S
O12 C3 1.247 . S
O13 Co0 2.244 . S
O13 C3 1.272 . S
O13 Co5 2.135 . S
Co14 O15 2.216 . S
Co14 O16 2.091 . S
Co14 O18 2.004 . S
Co14 O24 2.021 . S
Co14 O26 2.137 . S
Co14 O27 2.244 . S
O15 Co14 2.216 . S
O15 C22 1.247 . S
O16 Co14 2.091 . S
O16 C22 1.261 . S
C17 O26 1.247 . S
C17 O27 1.272 . S
O18 Co14 2.004 . S
O18 C23 1.259 . S
Co19 O20 2.061 . S
Co19 O25 2.052 . S
Co19 O27 2.135 . S
O20 Co19 2.061 . S
O20 C23 1.235 . S
C21 O24 1.238 . S
C21 O25 1.241 . S
C22 O15 1.247 . S
C22 O16 1.261 . S
C23 O18 1.259 . S
C23 O20 1.235 . S
O24 Co14 2.021 . S
O24 C21 1.238 . S
O25 Co19 2.052 . S
O25 C21 1.241 . S
O26 Co14 2.137 . S
O26 C17 1.247 . S
O27 Co14 2.244 . S
O27 C17 1.272 . S
O27 Co19 2.135 . S
Co28 O29 2.216 . S
Co28 O30 2.091 . S
Co28 O32 2.004 . S
Co28 O38 2.021 . S
Co28 O40 2.137 . S
Co28 O41 2.244 . S
O29 Co28 2.216 . S
O29 C36 1.247 . S
O30 Co28 2.091 . S
O30 C36 1.261 . S
C31 O40 1.247 . S
C31 O41 1.272 . S
O32 Co28 2.004 . S
O32 C37 1.259 . S
Co33 O34 2.061 . S
Co33 O39 2.052 . S
Co33 O41 2.135 . S
O34 Co33 2.061 . S
O34 C37 1.235 . S
C35 O38 1.238 . S
C35 O39 1.241 . S
C36 O29 1.247 . S
C36 O30 1.261 . S
C37 O32 1.259 . S
C37 O34 1.235 . S
O38 Co28 2.021 . S
O38 C35 1.238 . S
O39 Co33 2.052 . S
O39 C35 1.241 . S
O40 Co28 2.137 . S
O40 C31 1.247 . S
O41 Co28 2.244 . S
O41 C31 1.272 . S
O41 Co33 2.135 . S
Co42 O43 2.216 . S
Co42 O44 2.091 . S
Co42 O46 2.004 . S
Co42 O52 2.021 . S
Co42 O54 2.137 . S
Co42 O55 2.244 . S
O43 Co42 2.216 . S
O43 C50 1.247 . S
O44 Co42 2.091 . S
O44 C50 1.261 . S
C45 O54 1.247 . S
C45 O55 1.272 . S
O46 Co42 2.004 . S
O46 C51 1.259 . S
Co47 O48 2.061 . S
Co47 O53 2.052 . S
Co47 O55 2.135 . S
O48 Co47 2.061 . S
O48 C51 1.235 . S
C49 O52 1.238 . S
C49 O53 1.241 . S
C50 O43 1.247 . S
C50 O44 1.261 . S
C51 O46 1.259 . S
C51 O48 1.235 . S
O52 Co42 2.021 . S
O52 C49 1.238 . S
O53 Co47 2.052 . S
O53 C49 1.241 . S
O54 Co42 2.137 . S
O54 C45 1.247 . S
O55 Co42 2.244 . S
O55 C45 1.272 . S
O55 Co47 2.135 . S
Co56 O57 2.216 . S
Co56 O58 2.091 . S
Co56 O60 2.004 . S
Co56 O66 2.021 . S
Co56 O68 2.137 . S
Co56 O69 2.244 . S
O57 Co56 2.216 . S
O57 C64 1.247 . S
O58 Co56 2.091 . S
O58 C64 1.261 . S
C59 O68 1.247 . S
C59 O69 1.272 . S
O60 Co56 2.004 . S
O60 C65 1.259 . S
Co61 O62 2.061 . S
Co61 O67 2.052 . S
Co61 O69 2.135 . S
O62 Co61 2.061 . S
O62 C65 1.235 . S
C63 O66 1.238 . S
C63 O67 1.241 . S
C64 O57 1.247 . S
C64 O58 1.261 . S
C65 O60 1.259 . S
C65 O62 1.235 . S
O66 Co56 2.021 . S
O66 C63 1.238 . S
O67 Co61 2.052 . S
O67 C63 1.241 . S
O68 Co56 2.137 . S
O68 C59 1.247 . S
O69 Co56 2.244 . S
O69 C59 1.272 . S
O69 Co61 2.135 . S
Co70 O71 2.216 . S
Co70 O72 2.091 . S
Co70 O74 2.004 . S
Co70 O80 2.021 . S
Co70 O82 2.137 . S
Co70 O83 2.244 . S
O71 Co70 2.216 . S
O71 C78 1.247 . S
O72 Co70 2.091 . S
O72 C78 1.261 . S
C73 O82 1.247 . S
C73 O83 1.272 . S
O74 Co70 2.004 . S
O74 C79 1.259 . S
Co75 O76 2.061 . S
Co75 O81 2.052 . S
Co75 O83 2.135 . S
O76 Co75 2.061 . S
O76 C79 1.235 . S
C77 O80 1.238 . S
C77 O81 1.241 . S
C78 O71 1.247 . S
C78 O72 1.261 . S
C79 O74 1.259 . S
C79 O76 1.235 . S
O80 Co70 2.021 . S
O80 C77 1.238 . S
O81 Co75 2.052 . S
O81 C77 1.241 . S
O82 Co70 2.137 . S
O82 C73 1.247 . S
O83 Co70 2.244 . S
O83 C73 1.272 . S
O83 Co75 2.135 . S
Co84 O85 2.216 . S
Co84 O86 2.091 . S
Co84 O88 2.004 . S
Co84 O94 2.021 . S
Co84 O96 2.137 . S
Co84 O97 2.244 . S
O85 Co84 2.216 . S
O85 C92 1.247 . S
O86 Co84 2.091 . S
O86 C92 1.261 . S
C87 O96 1.247 . S
C87 O97 1.272 . S
O88 Co84 2.004 . S
O88 C93 1.259 . S
Co89 O90 2.061 . S
Co89 O95 2.052 . S
Co89 O97 2.135 . S
O90 Co89 2.061 . S
O90 C93 1.235 . S
C91 O94 1.238 . S
C91 O95 1.241 . S
C92 O85 1.247 . S
C92 O86 1.261 . S
C93 O88 1.259 . S
C93 O90 1.235 . S
O94 Co84 2.021 . S
O94 C91 1.238 . S
O95 Co89 2.052 . S
O95 C91 1.241 . S
O96 Co84 2.137 . S
O96 C87 1.247 . S
O97 Co84 2.244 . S
O97 C87 1.272 . S
O97 Co89 2.135 . S
Co98 O99 2.216 . S
Co98 O100 2.091 . S
Co98 O102 2.004 . S
Co98 O108 2.021 . S
Co98 O110 2.137 . S
Co98 O111 2.244 . S
O99 Co98 2.216 . S
O99 C106 1.247 . S
O100 Co98 2.091 . S
O100 C106 1.261 . S
C101 O110 1.247 . S
C101 O111 1.272 . S
O102 Co98 2.004 . S
O102 C107 1.259 . S
Co103 O104 2.061 . S
Co103 O109 2.052 . S
Co103 O111 2.135 . S
O104 Co103 2.061 . S
O104 C107 1.235 . S
C105 O108 1.238 . S
C105 O109 1.241 . S
C106 O99 1.247 . S
C106 O100 1.261 . S
C107 O102 1.259 . S
C107 O104 1.235 . S
O108 Co98 2.021 . S
O108 C105 1.238 . S
O109 Co103 2.052 . S
O109 C105 1.241 . S
O110 Co98 2.137 . S
O110 C101 1.247 . S
O111 Co98 2.244 . S
O111 C101 1.272 . S
O111 Co103 2.135 . S
C112 C113 1.369 . S
C112 C114 1.419 . S
C112 H116 0.930 . S
C113 C112 1.369 . S
C113 C122 1.429 . S
C114 C112 1.419 . S
C114 C115 1.363 . S
C114 H117 0.929 . S
C115 C114 1.363 . S
C115 C121 1.428 . S
H116 C112 0.930 . S
H117 C114 0.929 . S
S118 N119 1.613 . S
S118 N120 1.610 . S
N119 S118 1.613 . S
N119 C122 1.350 . S
N120 S118 1.610 . S
N120 C121 1.351 . S
C121 C115 1.428 . S
C121 N120 1.351 . S
C121 C122 1.434 . S
C122 C113 1.429 . S
C122 N119 1.350 . S
C122 C121 1.434 . S
C123 C124 1.369 . S
C123 C125 1.419 . S
C123 H127 0.930 . S
C124 C123 1.369 . S
C124 C133 1.429 . S
C125 C123 1.419 . S
C125 C126 1.363 . S
C125 H128 0.929 . S
C126 C125 1.363 . S
C126 C132 1.428 . S
H127 C123 0.930 . S
H128 C125 0.929 . S
S129 N130 1.613 . S
S129 N131 1.610 . S
N130 S129 1.613 . S
N130 C133 1.350 . S
N131 S129 1.610 . S
N131 C132 1.351 . S
C132 C126 1.428 . S
C132 N131 1.351 . S
C132 C133 1.434 . S
C133 C124 1.429 . S
C133 N130 1.350 . S
C133 C132 1.434 . S
C134 C135 1.369 . S
C134 C136 1.419 1_545 S
C134 H138 0.930 . S
C135 C134 1.369 . S
C135 C144 1.429 1_554 S
C136 C134 1.419 1_565 S
C136 C137 1.363 1_554 S
C136 H139 0.929 . S
C137 C136 1.363 1_556 S
C137 C143 1.428 . S
H138 C134 0.930 . S
H139 C136 0.929 . S
S140 N141 1.613 1_565 S
S140 N142 1.610 . S
N141 S140 1.613 1_545 S
N141 C144 1.350 . S
N142 S140 1.610 . S
N142 C143 1.351 . S
C143 C137 1.428 . S
C143 N142 1.351 . S
C143 C144 1.434 1_565 S
C144 C135 1.429 1_556 S
C144 N141 1.350 . S
C144 C143 1.434 1_545 S
C145 C146 1.369 . S
C145 C147 1.419 1_655 S
C145 H149 0.930 . S
C146 C145 1.369 . S
C146 C155 1.429 . S
C147 C145 1.419 1_455 S
C147 C148 1.363 . S
C147 H150 0.929 . S
C148 C147 1.363 . S
C148 C154 1.428 . S
H149 C145 0.930 . S
H150 C147 0.929 . S
S151 N152 1.613 . S
S151 N153 1.610 1_655 S
N152 S151 1.613 . S
N152 C155 1.350 . S
N153 S151 1.610 1_455 S
N153 C154 1.351 . S
C154 C148 1.428 . S
C154 N153 1.351 . S
C154 C155 1.434 1_455 S
C155 C146 1.429 . S
C155 N152 1.350 . S
C155 C154 1.434 1_655 S
C156 C157 1.369 . S
C156 C158 1.419 . S
C156 H160 0.930 . S
C157 C156 1.369 . S
C157 C166 1.429 1_565 S
C158 C156 1.419 . S
C158 C159 1.363 1_565 S
C158 H161 0.929 . S
C159 C158 1.363 1_545 S
C159 C165 1.428 . S
H160 C156 0.930 . S
H161 C158 0.929 . S
S162 N163 1.613 . S
S162 N164 1.610 . S
N163 S162 1.613 . S
N163 C166 1.350 . S
N164 S162 1.610 . S
N164 C165 1.351 . S
C165 C159 1.428 . S
C165 N164 1.351 . S
C165 C166 1.434 . S
C166 C157 1.429 1_545 S
C166 N163 1.350 . S
C166 C165 1.434 . S
C167 C168 1.369 1_554 S
C167 C169 1.419 1_655 S
C167 H171 0.930 . S
C168 C167 1.369 1_556 S
C168 C177 1.429 . S
C169 C167 1.419 1_455 S
C169 C170 1.363 . S
C169 H172 0.929 . S
C170 C169 1.363 . S
C170 C176 1.428 1_554 S
H171 C167 0.930 . S
H172 C169 0.929 . S
S173 N174 1.613 1_455 S
S173 N175 1.610 . S
N174 S173 1.613 1_655 S
N174 C177 1.350 . S
N175 S173 1.610 . S
N175 C176 1.351 . S
C176 C170 1.428 1_556 S
C176 N175 1.351 . S
C176 C177 1.434 1_455 S
C177 C168 1.429 . S
C177 N174 1.350 . S
C177 C176 1.434 1_655 S
C178 C179 1.369 . S
C178 C180 1.419 . S
C178 H182 0.930 . S
C179 C178 1.369 . S
C179 C188 1.429 . S
C180 C178 1.419 . S
C180 C181 1.363 . S
C180 H183 0.929 . S
C181 C180 1.363 . S
C181 C187 1.428 . S
H182 C178 0.930 . S
H183 C180 0.929 . S
S184 N185 1.613 . S
S184 N186 1.610 . S
N185 S184 1.613 . S
N185 C188 1.350 . S
N186 S184 1.610 . S
N186 C187 1.351 . S
C187 C181 1.428 . S
C187 N186 1.351 . S
C187 C188 1.434 . S
C188 C179 1.429 . S
C188 N185 1.350 . S
C188 C187 1.434 . S
C189 C190 1.369 . S
C189 C191 1.419 . S
C189 H193 0.930 . S
C190 C189 1.369 . S
C190 C199 1.429 . S
C191 C189 1.419 . S
C191 C192 1.363 . S
C191 H194 0.929 . S
C192 C191 1.363 . S
C192 C198 1.428 . S
H193 C189 0.930 . S
H194 C191 0.929 . S
S195 N196 1.613 . S
S195 N197 1.610 . S
N196 S195 1.613 . S
N196 C199 1.350 . S
N197 S195 1.610 . S
N197 C198 1.351 . S
C198 C192 1.428 . S
C198 N197 1.351 . S
C198 C199 1.434 . S
C199 C190 1.429 . S
C199 N196 1.350 . S
C199 C198 1.434 . S
C200 C201 1.369 . S
C200 C202 1.419 . S
C200 H204 0.930 . S
C201 C200 1.369 . S
C201 C210 1.429 . S
C202 C200 1.419 . S
C202 C203 1.363 . S
C202 H205 0.929 . S
C203 C202 1.363 . S
C203 C209 1.428 . S
H204 C200 0.930 . S
H205 C202 0.929 . S
S206 N207 1.613 . S
S206 N208 1.610 . S
N207 S206 1.613 . S
N207 C210 1.350 . S
N208 S206 1.610 . S
N208 C209 1.351 . S
C209 C203 1.428 . S
C209 N208 1.351 . S
C209 C210 1.434 . S
C210 C201 1.429 . S
C210 N207 1.350 . S
C210 C209 1.434 . S
C211 C212 1.369 1_554 S
C211 C213 1.419 . S
C211 H215 0.930 . S
C212 C211 1.369 1_556 S
C212 C221 1.429 . S
C213 C211 1.419 . S
C213 C214 1.363 . S
C213 H216 0.929 . S
C214 C213 1.363 . S
C214 C220 1.428 1_554 S
H215 C211 0.930 . S
H216 C213 0.929 . S
S217 N218 1.613 . S
S217 N219 1.610 . S
N218 S217 1.613 . S
N218 C221 1.350 . S
N219 S217 1.610 . S
N219 C220 1.351 . S
C220 C214 1.428 1_556 S
C220 N219 1.351 . S
C220 C221 1.434 . S
C221 C212 1.429 . S
C221 N218 1.350 . S
C221 C220 1.434 . S
C222 C223 1.369 . S
C222 C224 1.419 1_565 S
C222 H226 0.930 . S
C223 C222 1.369 . S
C223 C232 1.420 1_565 S
C224 C222 1.419 1_545 S
C224 C225 1.363 . S
C224 H227 0.929 . S
C225 C224 1.363 . S
C225 C231 1.428 . S
H226 C222 0.930 . S
H227 C224 0.929 . S
S228 N229 1.613 . S
S228 N230 1.610 . S
N229 S228 1.613 . S
N229 C232 1.350 . S
N230 S228 1.610 . S
N230 C231 1.351 . S
C231 C225 1.428 . S
C231 N230 1.351 . S
C231 C232 1.444 . S
C232 C223 1.420 1_545 S
C232 N229 1.350 . S
C232 C231 1.444 . S
C233 C234 1.369 . S
C233 C235 1.419 1_655 S
C233 H237 0.930 . S
C234 C233 1.369 . S
C234 C243 1.429 1_565 S
C235 C233 1.419 1_455 S
C235 C236 1.363 1_565 S
C235 H238 0.929 . S
C236 C235 1.363 1_545 S
C236 C242 1.428 . S
H237 C233 0.930 . S
H238 C235 0.929 . S
S239 N240 1.613 1_455 S
S239 N241 1.610 . S
N240 S239 1.613 1_655 S
N240 C243 1.350 . S
N241 S239 1.610 . S
N241 C242 1.351 . S
C242 C236 1.428 . S
C242 N241 1.351 . S
C242 C243 1.434 1_455 S
C243 C234 1.429 1_545 S
C243 N240 1.350 . S
C243 C242 1.434 1_655 S
C244 C245 1.369 . S
C244 C246 1.419 1_655 S
C244 H248 0.930 . S
C245 C244 1.369 . S
C245 C254 1.429 . S
C246 C244 1.419 1_455 S
C246 C247 1.363 . S
C246 H249 0.929 . S
C247 C246 1.363 . S
C247 C253 1.428 . S
H248 C244 0.930 . S
H249 C246 0.929 . S
S250 N251 1.613 . S
S250 N252 1.610 1_655 S
N251 S250 1.613 . S
N251 C254 1.350 . S
N252 S250 1.610 1_455 S
N252 C253 1.351 . S
C253 C247 1.428 . S
C253 N252 1.351 . S
C253 C254 1.434 1_455 S
C254 C245 1.429 . S
C254 N251 1.350 . S
C254 C253 1.434 1_655 S
C255 C256 1.369 . S
C255 C257 1.419 . S
C255 H259 0.930 . S
C256 C255 1.369 . S
C256 C265 1.429 . S
C257 C255 1.419 . S
C257 C258 1.363 . S
C257 H260 0.929 . S
C258 C257 1.363 . S
C258 C264 1.428 . S
H259 C255 0.930 . S
H260 C257 0.929 . S
S261 N262 1.613 . S
S261 N263 1.610 . S
N262 S261 1.613 . S
N262 C265 1.350 . S
N263 S261 1.610 . S
N263 C264 1.351 . S
C264 C258 1.428 . S
C264 N263 1.351 . S
C264 C265 1.434 . S
C265 C256 1.429 . S
C265 N262 1.350 . S
C265 C264 1.434 . S
C266 C267 1.369 1_556 S
C266 C268 1.419 . S
C266 H270 0.930 . S
C267 C266 1.369 1_554 S
C267 C276 1.429 . S
C268 C266 1.419 . S
C268 C269 1.363 . S
C268 H271 0.929 . S
C269 C268 1.363 . S
C269 C275 1.428 1_556 S
H270 C266 0.930 . S
H271 C268 0.929 . S
S272 N273 1.613 . S
S272 N274 1.610 . S
N273 S272 1.613 . S
N273 C276 1.350 . S
N274 S272 1.610 . S
N274 C275 1.351 . S
C275 C269 1.428 1_554 S
C275 N274 1.351 . S
C275 C276 1.434 . S
C276 C267 1.429 . S
C276 N273 1.350 . S
C276 C275 1.434 . S
C277 C278 1.369 . S
C277 C279 1.419 . S
C277 H281 0.930 . S
C278 C277 1.369 . S
C278 C287 1.429 . S
C279 C277 1.419 . S
C279 C280 1.363 . S
C279 H282 0.929 . S
C280 C279 1.363 . S
C280 C286 1.428 . S
H281 C277 0.930 . S
H282 C279 0.929 . S
S283 N284 1.613 . S
S283 N285 1.610 . S
N284 S283 1.613 . S
N284 C287 1.350 . S
N285 S283 1.610 . S
N285 C286 1.351 . S
C286 C280 1.428 . S
C286 N285 1.351 . S
C286 C287 1.434 . S
C287 C278 1.429 . S
C287 N284 1.350 . S
C287 C286 1.434 . S
C113 C73 1.499 . S
C115 C3 1.498 . S
C124 C107 1.486 . S
C126 C22 1.499 . S
C135 C35 1.470 . S
C137 C91 1.474 . S
C146 C51 1.488 . S
C148 C64 1.499 . S
C157 C92 1.499 . S
C159 C9 1.487 . S
C168 C21 1.474 . S
C170 C63 1.471 . S
C179 C79 1.484 . S
C181 C36 1.498 . S
C190 C45 1.498 . S
C192 C101 1.497 . S
C201 C65 1.485 . S
C203 C78 1.498 . S
C212 C17 1.497 . S
C214 C31 1.499 . S
C223 C50 1.499 . S
C225 C37 1.488 . S
C234 C49 1.475 . S
C236 C7 1.471 . S
C245 C23 1.488 . S
C247 C8 1.499 . S
C256 C106 1.499 . S
C258 C93 1.487 . S
C267 C59 1.497 . S
C269 C87 1.499 . S
C278 C77 1.470 . S
C280 C105 1.470 . S
