# Generated by pormake.
# Topology ums, (4)-cn, num edge types: 1
# Building blocks:
#     Node 0, Type 0, BuildingBlock: QUQFOY_clean_sbu_3, # of connection points: 4
#     Node 1, Type 0, BuildingBlock: QUQFOY_clean_sbu_3, # of connection points: 4
#     Node 2, Type 0, BuildingBlock: QUQFOY_clean_sbu_3, # of connection points: 4
#     Node 3, Type 0, BuildingBlock: QUQFOY_clean_sbu_3, # of connection points: 4
#     Node 4, Type 0, BuildingBlock: QUQFOY_clean_sbu_3, # of connection points: 4
#     Node 5, Type 0, BuildingBlock: QUQFOY_clean_sbu_3, # of connection points: 4
#     Node 6, Type 0, BuildingBlock: QUQFOY_clean_sbu_3, # of connection points: 4
#     Node 7, Type 0, BuildingBlock: QUQFOY_clean_sbu_3, # of connection points: 4
#     Node 8, Type 0, BuildingBlock: QUQFOY_clean_sbu_3, # of connection points: 4
#     Node 9, Type 0, BuildingBlock: QUQFOY_clean_sbu_3, # of connection points: 4
#     Node 10, Type 0, BuildingBlock: QUQFOY_clean_sbu_3, # of connection points: 4
#     Node 11, Type 0, BuildingBlock: QUQFOY_clean_sbu_3, # of connection points: 4
#     Node 12, Type 0, BuildingBlock: QUQFOY_clean_sbu_3, # of connection points: 4
#     Node 13, Type 0, BuildingBlock: QUQFOY_clean_sbu_3, # of connection points: 4
#     Node 14, Type 0, BuildingBlock: QUQFOY_clean_sbu_3, # of connection points: 4
#     Node 15, Type 0, BuildingBlock: QUQFOY_clean_sbu_3, # of connection points: 4
#     Node 16, Type 0, BuildingBlock: QUQFOY_clean_sbu_3, # of connection points: 4
#     Node 17, Type 0, BuildingBlock: QUQFOY_clean_sbu_3, # of connection points: 4
#     Node 18, Type 0, BuildingBlock: QUQFOY_clean_sbu_3, # of connection points: 4
#     Node 19, Type 0, BuildingBlock: QUQFOY_clean_sbu_3, # of connection points: 4
#     Node 20, Type 0, BuildingBlock: QUQFOY_clean_sbu_3, # of connection points: 4
#     Node 21, Type 0, BuildingBlock: QUQFOY_clean_sbu_3, # of connection points: 4
#     Node 22, Type 0, BuildingBlock: QUQFOY_clean_sbu_3, # of connection points: 4
#     Node 23, Type 0, BuildingBlock: QUQFOY_clean_sbu_3, # of connection points: 4
#     Node 24, Type 0, BuildingBlock: QUQFOY_clean_sbu_3, # of connection points: 4
#     Node 25, Type 0, BuildingBlock: QUQFOY_clean_sbu_3, # of connection points: 4
#     Node 26, Type 0, BuildingBlock: QUQFOY_clean_sbu_3, # of connection points: 4
#     Node 27, Type 0, BuildingBlock: QUQFOY_clean_sbu_3, # of connection points: 4
#     Node 28, Type 0, BuildingBlock: QUQFOY_clean_sbu_3, # of connection points: 4
#     Node 29, Type 0, BuildingBlock: QUQFOY_clean_sbu_3, # of connection points: 4
#     Node 30, Type 0, BuildingBlock: QUQFOY_clean_sbu_3, # of connection points: 4
#     Node 31, Type 0, BuildingBlock: QUQFOY_clean_sbu_3, # of connection points: 4
#     Node 32, Type 0, BuildingBlock: QUQFOY_clean_sbu_3, # of connection points: 4
#     Node 33, Type 0, BuildingBlock: QUQFOY_clean_sbu_3, # of connection points: 4
#     Node 34, Type 0, BuildingBlock: QUQFOY_clean_sbu_3, # of connection points: 4
#     Node 35, Type 0, BuildingBlock: QUQFOY_clean_sbu_3, # of connection points: 4
#     Edge 36, Type (0, 0), BuildingBlock: XIVTED_clean_linker_0, # of connection points: 2
#     Edge 37, Type (0, 0), BuildingBlock: XIVTED_clean_linker_0, # of connection points: 2
#     Edge 38, Type (0, 0), BuildingBlock: XIVTED_clean_linker_0, # of connection points: 2
#     Edge 39, Type (0, 0), BuildingBlock: XIVTED_clean_linker_0, # of connection points: 2
#     Edge 40, Type (0, 0), BuildingBlock: XIVTED_clean_linker_0, # of connection points: 2
#     Edge 41, Type (0, 0), BuildingBlock: XIVTED_clean_linker_0, # of connection points: 2
#     Edge 42, Type (0, 0), BuildingBlock: XIVTED_clean_linker_0, # of connection points: 2
#     Edge 43, Type (0, 0), BuildingBlock: XIVTED_clean_linker_0, # of connection points: 2
#     Edge 44, Type (0, 0), BuildingBlock: XIVTED_clean_linker_0, # of connection points: 2
#     Edge 45, Type (0, 0), BuildingBlock: XIVTED_clean_linker_0, # of connection points: 2
#     Edge 46, Type (0, 0), BuildingBlock: XIVTED_clean_linker_0, # of connection points: 2
#     Edge 47, Type (0, 0), BuildingBlock: XIVTED_clean_linker_0, # of connection points: 2
#     Edge 48, Type (0, 0), BuildingBlock: XIVTED_clean_linker_0, # of connection points: 2
#     Edge 49, Type (0, 0), BuildingBlock: XIVTED_clean_linker_0, # of connection points: 2
#     Edge 50, Type (0, 0), BuildingBlock: XIVTED_clean_linker_0, # of connection points: 2
#     Edge 51, Type (0, 0), BuildingBlock: XIVTED_clean_linker_0, # of connection points: 2
#     Edge 52, Type (0, 0), BuildingBlock: XIVTED_clean_linker_0, # of connection points: 2
#     Edge 53, Type (0, 0), BuildingBlock: XIVTED_clean_linker_0, # of connection points: 2
#     Edge 54, Type (0, 0), BuildingBlock: XIVTED_clean_linker_0, # of connection points: 2
#     Edge 55, Type (0, 0), BuildingBlock: XIVTED_clean_linker_0, # of connection points: 2
#     Edge 56, Type (0, 0), BuildingBlock: XIVTED_clean_linker_0, # of connection points: 2
#     Edge 57, Type (0, 0), BuildingBlock: XIVTED_clean_linker_0, # of connection points: 2
#     Edge 58, Type (0, 0), BuildingBlock: XIVTED_clean_linker_0, # of connection points: 2
#     Edge 59, Type (0, 0), BuildingBlock: XIVTED_clean_linker_0, # of connection points: 2
#     Edge 60, Type (0, 0), BuildingBlock: XIVTED_clean_linker_0, # of connection points: 2
#     Edge 61, Type (0, 0), BuildingBlock: XIVTED_clean_linker_0, # of connection points: 2
#     Edge 62, Type (0, 0), BuildingBlock: XIVTED_clean_linker_0, # of connection points: 2
#     Edge 63, Type (0, 0), BuildingBlock: XIVTED_clean_linker_0, # of connection points: 2
#     Edge 64, Type (0, 0), BuildingBlock: XIVTED_clean_linker_0, # of connection points: 2
#     Edge 65, Type (0, 0), BuildingBlock: XIVTED_clean_linker_0, # of connection points: 2
#     Edge 66, Type (0, 0), BuildingBlock: XIVTED_clean_linker_0, # of connection points: 2
#     Edge 67, Type (0, 0), BuildingBlock: XIVTED_clean_linker_0, # of connection points: 2
#     Edge 68, Type (0, 0), BuildingBlock: XIVTED_clean_linker_0, # of connection points: 2
#     Edge 69, Type (0, 0), BuildingBlock: XIVTED_clean_linker_0, # of connection points: 2
#     Edge 70, Type (0, 0), BuildingBlock: XIVTED_clean_linker_0, # of connection points: 2
#     Edge 71, Type (0, 0), BuildingBlock: XIVTED_clean_linker_0, # of connection points: 2
#     Edge 72, Type (0, 0), BuildingBlock: XIVTED_clean_linker_0, # of connection points: 2
#     Edge 73, Type (0, 0), BuildingBlock: XIVTED_clean_linker_0, # of connection points: 2
#     Edge 74, Type (0, 0), BuildingBlock: XIVTED_clean_linker_0, # of connection points: 2
#     Edge 75, Type (0, 0), BuildingBlock: XIVTED_clean_linker_0, # of connection points: 2
#     Edge 76, Type (0, 0), BuildingBlock: XIVTED_clean_linker_0, # of connection points: 2
#     Edge 77, Type (0, 0), BuildingBlock: XIVTED_clean_linker_0, # of connection points: 2
#     Edge 78, Type (0, 0), BuildingBlock: XIVTED_clean_linker_0, # of connection points: 2
#     Edge 79, Type (0, 0), BuildingBlock: XIVTED_clean_linker_0, # of connection points: 2
#     Edge 80, Type (0, 0), BuildingBlock: XIVTED_clean_linker_0, # of connection points: 2
#     Edge 81, Type (0, 0), BuildingBlock: XIVTED_clean_linker_0, # of connection points: 2
#     Edge 82, Type (0, 0), BuildingBlock: XIVTED_clean_linker_0, # of connection points: 2
#     Edge 83, Type (0, 0), BuildingBlock: XIVTED_clean_linker_0, # of connection points: 2
#     Edge 84, Type (0, 0), BuildingBlock: XIVTED_clean_linker_0, # of connection points: 2
#     Edge 85, Type (0, 0), BuildingBlock: XIVTED_clean_linker_0, # of connection points: 2
#     Edge 86, Type (0, 0), BuildingBlock: XIVTED_clean_linker_0, # of connection points: 2
#     Edge 87, Type (0, 0), BuildingBlock: XIVTED_clean_linker_0, # of connection points: 2
#     Edge 88, Type (0, 0), BuildingBlock: XIVTED_clean_linker_0, # of connection points: 2
#     Edge 89, Type (0, 0), BuildingBlock: XIVTED_clean_linker_0, # of connection points: 2
#     Edge 90, Type (0, 0), BuildingBlock: XIVTED_clean_linker_0, # of connection points: 2
#     Edge 91, Type (0, 0), BuildingBlock: XIVTED_clean_linker_0, # of connection points: 2
#     Edge 92, Type (0, 0), BuildingBlock: XIVTED_clean_linker_0, # of connection points: 2
#     Edge 93, Type (0, 0), BuildingBlock: XIVTED_clean_linker_0, # of connection points: 2
#     Edge 94, Type (0, 0), BuildingBlock: XIVTED_clean_linker_0, # of connection points: 2
#     Edge 95, Type (0, 0), BuildingBlock: XIVTED_clean_linker_0, # of connection points: 2
#     Edge 96, Type (0, 0), BuildingBlock: XIVTED_clean_linker_0, # of connection points: 2
#     Edge 97, Type (0, 0), BuildingBlock: XIVTED_clean_linker_0, # of connection points: 2
#     Edge 98, Type (0, 0), BuildingBlock: XIVTED_clean_linker_0, # of connection points: 2
#     Edge 99, Type (0, 0), BuildingBlock: XIVTED_clean_linker_0, # of connection points: 2
#     Edge 100, Type (0, 0), BuildingBlock: XIVTED_clean_linker_0, # of connection points: 2
#     Edge 101, Type (0, 0), BuildingBlock: XIVTED_clean_linker_0, # of connection points: 2
#     Edge 102, Type (0, 0), BuildingBlock: XIVTED_clean_linker_0, # of connection points: 2
#     Edge 103, Type (0, 0), BuildingBlock: XIVTED_clean_linker_0, # of connection points: 2
#     Edge 104, Type (0, 0), BuildingBlock: XIVTED_clean_linker_0, # of connection points: 2
#     Edge 105, Type (0, 0), BuildingBlock: XIVTED_clean_linker_0, # of connection points: 2
#     Edge 106, Type (0, 0), BuildingBlock: XIVTED_clean_linker_0, # of connection points: 2
#     Edge 107, Type (0, 0), BuildingBlock: XIVTED_clean_linker_0, # of connection points: 2
# Relax obj value: 0.190
# Max RMSD: 0.142
# Mean RMSD: 0.141
data_MOF--net-ums--node1-QUQFOY_clean_sbu_3--edge1-XIVTED_clean_linker_0
_symmetry_space_group_name_H-M    P1
_symmetry_Int_Tables_number       1
_symmetry_cell_setting            triclinic
loop_
_symmetry_equiv_pos_as_xyz
'x, y, z'
_cell_length_a     104.64329
_cell_length_b     104.27662
_cell_length_c     23.912318
_cell_angle_alpha  90.08488
_cell_angle_beta   89.907916
_cell_angle_gamma 120.09961
loop_
_atom_site_label
_atom_site_type_symbol
_atom_site_fract_x
_atom_site_fract_y
_atom_site_fract_z
_atom_type_partial_charge
C0 C 0.1917 0.30132 0.27076 0.0
O1 O 0.18475 0.30427 0.30743 0.0
Cd2 Cd 0.16433 0.28582 0.36042 0.0
O3 O 0.18893 0.28805 0.26371 0.0
Cd4 Cd 0.17284 0.26309 0.30488 0.0
C5 C 0.1435 0.26409 0.25022 0.0
O6 O 0.17157 0.26955 0.40123 0.0
O7 O 0.15507 0.24744 0.37597 0.0
O8 O 0.19232 0.2572 0.31831 0.0
C9 C 0.16088 0.25694 0.41485 0.0
O10 O 0.14525 0.27325 0.28892 0.0
C11 C 0.18744 0.24682 0.28252 0.0
O12 O 0.15225 0.25898 0.24545 0.0
O13 O 0.17581 0.24407 0.25615 0.0
C14 C 0.68695 0.89312 0.2307 0.0
O15 O 0.6814 0.88356 0.26952 0.0
Cd16 Cd 0.6972 0.87966 0.33219 0.0
O17 O 0.70077 0.9023 0.22965 0.0
Cd18 Cd 0.72345 0.91034 0.2851 0.0
C19 C 0.72089 0.8793 0.23152 0.0
O20 O 0.71405 0.90211 0.3794 0.0
O21 O 0.73636 0.90701 0.36243 0.0
O22 O 0.72617 0.93472 0.28591 0.0
C23 C 0.72595 0.90312 0.39745 0.0
O24 O 0.71051 0.87239 0.26685 0.0
C25 C 0.73925 0.94144 0.26672 0.0
O26 O 0.72743 0.89338 0.22751 0.0
O27 O 0.74516 0.93363 0.25571 0.0
C28 C 0.08958 0.79696 0.23448 0.0
O29 O 0.0991 0.80064 0.27316 0.0
Cd30 Cd 0.10405 0.82076 0.33568 0.0
O31 O 0.08089 0.80218 0.23348 0.0
Cd32 Cd 0.07379 0.81767 0.28921 0.0
C33 C 0.10527 0.84523 0.23464 0.0
O34 O 0.08186 0.81577 0.38253 0.0
O35 O 0.07784 0.83391 0.36813 0.0
O36 O 0.04914 0.79662 0.28981 0.0
C37 C 0.08142 0.82689 0.40198 0.0
O38 O 0.11187 0.84133 0.2696 0.0
C39 C 0.04283 0.80344 0.2713 0.0
O40 O 0.09121 0.83826 0.2314 0.0
O41 O 0.05101 0.81718 0.26072 0.0
C42 C 0.29566 0.19852 0.25052 0.0
O43 O 0.30076 0.19356 0.21341 0.0
Cd44 Cd 0.28471 0.17317 0.15354 0.0
O45 O 0.28192 0.19419 0.25203 0.0
Cd46 Cd 0.25884 0.17827 0.19997 0.0
C47 C 0.26135 0.14993 0.2564 0.0
O48 O 0.26769 0.17832 0.10603 0.0
O49 O 0.24564 0.16061 0.12579 0.0
O50 O 0.25269 0.19752 0.18461 0.0
C51 C 0.2558 0.16705 0.08965 0.0
O52 O 0.27166 0.15305 0.22115 0.0
C53 C 0.24142 0.19187 0.21623 0.0
O54 O 0.25495 0.15759 0.25889 0.0
O55 O 0.23819 0.17981 0.24078 0.0
C56 C 0.78693 0.10028 0.23134 0.0
O57 O 0.79181 0.10971 0.19193 0.0
Cd58 Cd 0.81196 0.11283 0.1337 0.0
O59 O 0.79108 0.09074 0.23588 0.0
Cd60 Cd 0.8061 0.08219 0.18457 0.0
C61 C 0.83502 0.11303 0.23745 0.0
O62 O 0.8055 0.08984 0.08856 0.0
O63 O 0.82258 0.08474 0.10863 0.0
O64 O 0.78508 0.05719 0.18571 0.0
C65 C 0.81622 0.08835 0.07197 0.0
O66 O 0.8322 0.12018 0.20102 0.0
C67 C 0.79201 0.05128 0.20699 0.0
O68 O 0.82695 0.09901 0.24182 0.0
O69 O 0.80557 0.05983 0.21851 0.0
C70 C 0.88653 0.69205 0.24929 0.0
O71 O 0.87714 0.68615 0.21018 0.0
Cd72 Cd 0.87251 0.70137 0.14694 0.0
O73 O 0.89523 0.70601 0.2504 0.0
Cd74 Cd 0.90242 0.72859 0.19481 0.0
C75 C 0.87066 0.72437 0.24732 0.0
O76 O 0.89477 0.71891 0.10046 0.0
O77 O 0.89864 0.74099 0.11674 0.0
O78 O 0.92725 0.73278 0.19516 0.0
C79 C 0.89532 0.73061 0.08192 0.0
O80 O 0.86417 0.71386 0.21204 0.0
C81 C 0.93329 0.74592 0.21418 0.0
O82 O 0.8847 0.73152 0.25137 0.0
O83 O 0.92487 0.75114 0.2248 0.0
C84 C 0.78924 0.69237 0.75074 0.0
O85 O 0.79284 0.68657 0.71151 0.0
Cd86 Cd 0.81254 0.70191 0.6478 0.0
O87 O 0.79426 0.7063 0.75169 0.0
Cd88 Cd 0.80927 0.72885 0.69522 0.0
C89 C 0.83717 0.72529 0.74767 0.0
O90 O 0.80748 0.71915 0.60093 0.0
O91 O 0.82544 0.74134 0.61715 0.0
O92 O 0.78852 0.73296 0.69558 0.0
C93 C 0.81853 0.73092 0.58237 0.0
O94 O 0.83332 0.71476 0.71263 0.0
C95 C 0.79561 0.74612 0.71432 0.0
O96 O 0.83007 0.73225 0.75156 0.0
O97 O 0.80926 0.75135 0.72486 0.0
C98 C 0.29059 0.09401 0.75293 0.0
O99 O 0.29658 0.10409 0.71611 0.0
Cd100 Cd 0.282 0.1102 0.65555 0.0
O101 O 0.27665 0.08544 0.75355 0.0
Cd102 Cd 0.25434 0.08007 0.69959 0.0
C103 C 0.25921 0.11179 0.75696 0.0
O104 O 0.26395 0.0888 0.60628 0.0
O105 O 0.24251 0.08613 0.62525 0.0
O106 O 0.24667 0.05438 0.6816 0.0
C107 C 0.25265 0.08924 0.58956 0.0
O108 O 0.26985 0.11845 0.72248 0.0
C109 C 0.23528 0.04904 0.71251 0.0
O110 O 0.25178 0.09767 0.75893 0.0
O111 O 0.23264 0.05817 0.73806 0.0
C112 C 0.89032 0.19117 0.73718 0.0
O113 O 0.88099 0.18802 0.69812 0.0
Cd114 Cd 0.87538 0.16788 0.63481 0.0
O115 O 0.89849 0.18534 0.73827 0.0
Cd116 Cd 0.90493 0.16929 0.68314 0.0
C117 C 0.87251 0.14258 0.73554 0.0
O118 O 0.89758 0.17216 0.58993 0.0
O119 O 0.90083 0.15347 0.60266 0.0
O120 O 0.92989 0.18975 0.68543 0.0
C121 C 0.89764 0.16094 0.56949 0.0
O122 O 0.86645 0.14708 0.70047 0.0
C123 C 0.93567 0.18247 0.70449 0.0
O124 O 0.88653 0.14888 0.73933 0.0
O125 O 0.92706 0.16872 0.71369 0.0
C126 C 0.68927 0.79742 0.73544 0.0
O127 O 0.68387 0.80137 0.77498 0.0
Cd128 Cd 0.69989 0.82155 0.83568 0.0
O129 O 0.70312 0.80234 0.73292 0.0
Cd130 Cd 0.7262 0.8175 0.78607 0.0
C131 C 0.72262 0.84528 0.73172 0.0
O132 O 0.71712 0.81628 0.88066 0.0
O133 O 0.73926 0.83407 0.86306 0.0
O134 O 0.72915 0.79601 0.78635 0.0
C135 C 0.72896 0.82736 0.89843 0.0
O136 O 0.71242 0.84173 0.76788 0.0
C137 C 0.7422 0.80252 0.76687 0.0
O138 O 0.72946 0.83806 0.72775 0.0
O139 O 0.74798 0.81625 0.75568 0.0
C140 C 0.19202 0.89288 0.7384 0.0
O141 O 0.18693 0.88274 0.77522 0.0
Cd142 Cd 0.16673 0.8784 0.83599 0.0
O143 O 0.18769 0.90231 0.73663 0.0
Cd144 Cd 0.17117 0.90888 0.78768 0.0
C145 C 0.14298 0.8773 0.73406 0.0
O146 O 0.17144 0.90069 0.88269 0.0
O147 O 0.15343 0.90433 0.86104 0.0
O148 O 0.18928 0.93479 0.80267 0.0
C149 C 0.16006 0.90117 0.89818 0.0
O150 O 0.14625 0.87037 0.76989 0.0
C151 C 0.18323 0.9398 0.77019 0.0
O152 O 0.15054 0.89138 0.73027 0.0
O153 O 0.17158 0.9304 0.74487 0.0
C154 C 0.09203 0.29134 0.75039 0.0
O155 O 0.10146 0.29677 0.78959 0.0
Cd156 Cd 0.10561 0.28114 0.85195 0.0
O157 O 0.08298 0.27744 0.74808 0.0
Cd158 Cd 0.07522 0.25444 0.80282 0.0
C159 C 0.10659 0.25765 0.7511 0.0
O160 O 0.08291 0.2643 0.8966 0.0
O161 O 0.07876 0.24207 0.88259 0.0
O162 O 0.05049 0.25057 0.80102 0.0
C163 C 0.08228 0.2527 0.91644 0.0
O164 O 0.11325 0.26802 0.7868 0.0
C165 C 0.04438 0.23746 0.78176 0.0
O166 O 0.09258 0.25095 0.74639 0.0
O167 O 0.0527 0.23206 0.77206 0.0
C168 C 0.85735 0.63298 0.59605 0.0
O169 O 0.85391 0.6389 0.63536 0.0
Cd170 Cd 0.83424 0.62381 0.69957 0.0
O171 O 0.85207 0.61901 0.59496 0.0
Cd172 Cd 0.83668 0.59647 0.65083 0.0
C173 C 0.80905 0.60086 0.60037 0.0
O174 O 0.83915 0.6063 0.74522 0.0
O175 O 0.82088 0.5842 0.7301 0.0
O176 O 0.857 0.59173 0.64816 0.0
C177 C 0.82811 0.59465 0.76452 0.0
O178 O 0.81319 0.61141 0.63556 0.0
C179 C 0.84958 0.57864 0.62893 0.0
O180 O 0.81589 0.59367 0.59588 0.0
O181 O 0.83594 0.57372 0.61944 0.0
C182 C 0.35855 0.22775 0.58509 0.0
O183 O 0.35263 0.21816 0.62364 0.0
Cd184 Cd 0.36762 0.21304 0.68594 0.0
O185 O 0.37249 0.23638 0.58395 0.0
Cd186 Cd 0.39508 0.24325 0.63849 0.0
C187 C 0.39043 0.21134 0.58427 0.0
O188 O 0.38525 0.23527 0.73217 0.0
O189 O 0.40729 0.2392 0.71685 0.0
O190 O 0.39933 0.2682 0.63868 0.0
C191 C 0.39676 0.23562 0.75108 0.0
O192 O 0.37998 0.20483 0.61968 0.0
C193 C 0.41234 0.27423 0.61889 0.0
O194 O 0.39767 0.22544 0.58069 0.0
O195 O 0.41752 0.26576 0.60806 0.0
C196 C 0.74656 0.1322 0.54183 0.0
O197 O 0.73437 0.13192 0.54303 0.0
Cd198 Cd 0.74358 0.15256 0.61372 0.0
O199 O 0.75637 0.14122 0.57486 0.0
Cd200 Cd 0.74271 0.15394 0.6167 0.0
C201 C 0.76563 0.17761 0.54571 0.0
O202 O 0.74907 0.15174 0.71239 0.0
O203 O 0.75209 0.17313 0.69083 0.0
O204 O 0.71783 0.13139 0.6283 0.0
C205 C 0.75284 0.16481 0.72789 0.0
O206 O 0.76909 0.17079 0.58049 0.0
C207 C 0.71062 0.1375 0.61213 0.0
O208 O 0.75208 0.17363 0.54301 0.0
O209 O 0.7181 0.15104 0.59817 0.0
C210 C 0.95371 0.52536 0.58768 0.0
O211 O 0.95906 0.52157 0.54746 0.0
Cd212 Cd 0.94303 0.50195 0.48467 0.0
O213 O 0.93989 0.52061 0.59017 0.0
Cd214 Cd 0.9169 0.50609 0.53556 0.0
C215 C 0.91978 0.47756 0.58596 0.0
O216 O 0.92611 0.50784 0.44081 0.0
O217 O 0.90382 0.49018 0.45699 0.0
O218 O 0.91419 0.5277 0.53815 0.0
C219 C 0.91423 0.49698 0.42212 0.0
O220 O 0.93006 0.48124 0.55004 0.0
C221 C 0.90117 0.52117 0.55787 0.0
O222 O 0.91315 0.48496 0.59106 0.0
O223 O 0.89526 0.50736 0.56757 0.0
C224 C 0.46356 0.43187 0.56645 0.0
O225 O 0.4677 0.44116 0.5266 0.0
Cd226 Cd 0.48706 0.44433 0.46359 0.0
O227 O 0.46803 0.42256 0.56917 0.0
Cd228 Cd 0.48266 0.414 0.51571 0.0
C229 C 0.51148 0.44568 0.5642 0.0
O230 O 0.48056 0.42109 0.42072 0.0
O231 O 0.49802 0.41621 0.43612 0.0
O232 O 0.4615 0.3893 0.52106 0.0
C233 C 0.49115 0.41973 0.40145 0.0
O234 O 0.50794 0.45234 0.52808 0.0
C235 C 0.46845 0.38327 0.54106 0.0
O236 O 0.50391 0.43165 0.56981 0.0
O237 O 0.48222 0.39161 0.54957 0.0
C238 C 0.55384 0.02625 0.59561 0.0
O239 O 0.54431 0.02061 0.55683 0.0
Cd240 Cd 0.53979 0.03601 0.49436 0.0
O241 O 0.56273 0.04017 0.59735 0.0
Cd242 Cd 0.57005 0.06302 0.54288 0.0
C243 C 0.53843 0.05921 0.59528 0.0
O244 O 0.5623 0.05322 0.4489 0.0
O245 O 0.56649 0.07544 0.46372 0.0
O246 O 0.59497 0.06729 0.54511 0.0
C247 C 0.56292 0.06486 0.42957 0.0
O248 O 0.53181 0.04879 0.55977 0.0
C249 C 0.60084 0.0804 0.56432 0.0
O250 O 0.55247 0.06611 0.59945 0.0
O251 O 0.59231 0.08556 0.57374 0.0
C252 C 0.45356 0.02272 0.08936 0.0
O253 O 0.45853 0.01776 0.05182 0.0
Cd254 Cd 0.47911 0.034 0.9933 0.0
O255 O 0.45807 0.03654 0.09235 0.0
Cd256 Cd 0.47453 0.05994 0.04248 0.0
C257 C 0.50244 0.05656 0.09737 0.0
O258 O 0.47436 0.05157 0.94748 0.0
O259 O 0.49226 0.07341 0.96907 0.0
O260 O 0.45597 0.067 0.0277 0.0
C261 C 0.48569 0.06353 0.93195 0.0
O262 O 0.49919 0.04634 0.06137 0.0
C263 C 0.46179 0.07812 0.06022 0.0
O264 O 0.495 0.06317 0.10071 0.0
O265 O 0.47356 0.08078 0.08538 0.0
C266 C 0.95807 0.43414 0.08333 0.0
O267 O 0.96293 0.44353 0.04379 0.0
Cd268 Cd 0.94605 0.44619 0.98304 0.0
O269 O 0.94438 0.42455 0.08633 0.0
Cd270 Cd 0.921 0.41538 0.03431 0.0
C271 C 0.92277 0.44623 0.08631 0.0
O272 O 0.92971 0.42299 0.93912 0.0
O273 O 0.90725 0.41744 0.95687 0.0
O274 O 0.91908 0.39133 0.03645 0.0
C275 C 0.91753 0.42129 0.92125 0.0
O276 O 0.93279 0.45322 0.04977 0.0
C277 C 0.90606 0.38445 0.05618 0.0
O278 O 0.9167 0.4322 0.09126 0.0
O279 O 0.89986 0.39204 0.06634 0.0
C280 C 0.55675 0.52464 0.06332 0.0
O281 O 0.54751 0.52037 0.02343 0.0
Cd282 Cd 0.54449 0.50076 0.96172 0.0
O283 O 0.56607 0.52021 0.06651 0.0
Cd284 Cd 0.57487 0.50556 0.01455 0.0
C285 C 0.54338 0.47672 0.0641 0.0
O286 O 0.56776 0.5074 0.91952 0.0
O287 O 0.57301 0.49016 0.93527 0.0
O288 O 0.59925 0.52712 0.02011 0.0
C289 C 0.5693 0.49687 0.90048 0.0
O290 O 0.53668 0.48014 0.02778 0.0
C291 C 0.60544 0.52042 0.04092 0.0
O292 O 0.55737 0.48434 0.0693 0.0
O293 O 0.59735 0.50657 0.04953 0.0
C294 C 0.35292 0.12433 0.08758 0.0
O295 O 0.34758 0.12903 0.12469 0.0
Cd296 Cd 0.36329 0.14973 0.18433 0.0
O297 O 0.36676 0.12916 0.08579 0.0
Cd298 Cd 0.38967 0.14589 0.13713 0.0
C299 C 0.38593 0.17363 0.08188 0.0
O300 O 0.38116 0.14581 0.23204 0.0
O301 O 0.4028 0.16393 0.20968 0.0
O302 O 0.39691 0.12751 0.15357 0.0
C303 C 0.393 0.15738 0.24699 0.0
O304 O 0.3756 0.17012 0.11739 0.0
C305 C 0.408 0.1333 0.12109 0.0
O306 O 0.39271 0.16635 0.07868 0.0
O307 O 0.41061 0.14502 0.09531 0.0
C308 C 0.86152 0.2255 0.07166 0.0
O309 O 0.85621 0.21541 0.10869 0.0
Cd310 Cd 0.83602 0.21174 0.16827 0.0
O311 O 0.8577 0.23532 0.07 0.0
Cd312 Cd 0.84255 0.24336 0.12221 0.0
C313 C 0.81384 0.21299 0.06432 0.0
O314 O 0.84203 0.2342 0.21668 0.0
O315 O 0.82569 0.24034 0.19638 0.0
O316 O 0.86355 0.26836 0.12609 0.0
C317 C 0.8313 0.23577 0.23261 0.0
O318 O 0.81625 0.20538 0.09999 0.0
C319 C 0.85678 0.27446 0.10506 0.0
O320 O 0.82207 0.22704 0.06203 0.0
O321 O 0.84337 0.26601 0.09115 0.0
C322 C 0.7604 0.63301 0.09738 0.0
O323 O 0.76984 0.6388 0.1364 0.0
Cd324 Cd 0.77416 0.62345 0.20019 0.0
O325 O 0.75154 0.61907 0.09636 0.0
Cd326 Cd 0.74414 0.59641 0.15177 0.0
C327 C 0.77595 0.60031 0.10062 0.0
O328 O 0.75168 0.60611 0.24622 0.0
O329 O 0.74732 0.58384 0.23067 0.0
O330 O 0.71912 0.59188 0.14907 0.0
C331 C 0.75082 0.59432 0.26521 0.0
O332 O 0.78253 0.61085 0.13569 0.0
C333 C 0.71345 0.57887 0.12901 0.0
O334 O 0.76191 0.5933 0.09655 0.0
O335 O 0.72213 0.5739 0.1194 0.0
C336 C 0.52238 0.96065 0.92357 0.0
O337 O 0.51741 0.96558 0.96132 0.0
Cd338 Cd 0.49694 0.94929 0.02034 0.0
O339 O 0.51786 0.94684 0.92029 0.0
Cd340 Cd 0.50134 0.9233 0.96919 0.0
C341 C 0.47333 0.92698 0.91666 0.0
O342 O 0.50173 0.93153 0.06459 0.0
O343 O 0.48388 0.90965 0.04322 0.0
O344 O 0.51961 0.91565 0.98045 0.0
C345 C 0.49045 0.91955 0.08027 0.0
O346 O 0.47665 0.93716 0.95287 0.0
C347 C 0.51356 0.90488 0.94639 0.0
O348 O 0.48075 0.92037 0.91269 0.0
O349 O 0.50176 0.90263 0.9226 0.0
C350 C 0.01769 0.5575 0.9222 0.0
O351 O 0.01291 0.54777 0.96056 0.0
Cd352 Cd 0.02951 0.54424 0.02003 0.0
O353 O 0.0314 0.56698 0.91887 0.0
Cd354 Cd 0.05487 0.57469 0.96861 0.0
C355 C 0.05206 0.54324 0.91675 0.0
O356 O 0.04703 0.56694 0.06448 0.0
O357 O 0.06883 0.57115 0.04158 0.0
O358 O 0.06146 0.60035 0.98135 0.0
C359 C 0.05913 0.56785 0.07932 0.0
O360 O 0.04201 0.53635 0.95325 0.0
C361 C 0.07234 0.60561 0.94781 0.0
O362 O 0.05836 0.55728 0.91203 0.0
O363 O 0.07512 0.59646 0.92331 0.0
C364 C 0.43136 0.46554 0.89616 0.0
O365 O 0.44058 0.4695 0.93605 0.0
Cd366 Cd 0.44431 0.48916 -0.001 0.0
O367 O 0.42237 0.47039 0.89322 0.0
Cd368 Cd 0.41454 0.48569 0.94624 0.0
C369 C 0.44663 0.51404 0.89835 0.0
O370 O 0.42134 0.48346 0.04162 0.0
O371 O 0.41715 0.50139 0.02522 0.0
O372 O 0.38952 0.46513 0.94125 0.0
C373 C 0.42033 0.49433 0.06034 0.0
O374 O 0.453 0.51022 0.93466 0.0
C375 C 0.38401 0.47251 0.9208 0.0
O376 O 0.43264 0.50676 0.89247 0.0
O377 O 0.3928 0.48621 0.9116 0.0
C378 C 0.62422 0.86211 0.89449 0.0
O379 O 0.62981 0.858 0.85618 0.0
Cd380 Cd 0.61457 0.83766 0.79447 0.0
O381 O 0.61032 0.85692 0.89655 0.0
Cd382 Cd 0.58747 0.84024 0.84471 0.0
C383 C 0.59247 0.81284 0.89579 0.0
O384 O 0.5963 0.8415 0.74972 0.0
O385 O 0.57474 0.8229 0.76946 0.0
O386 O 0.57934 0.85816 0.83395 0.0
C387 C 0.5847 0.82993 0.73313 0.0
O388 O 0.60287 0.81687 0.86019 0.0
C389 C 0.56837 0.85165 0.86677 0.0
O390 O 0.58525 0.81966 0.89996 0.0
O391 O 0.56621 0.83973 0.88965 0.0
C392 C 0.11921 0.7624 0.90218 0.0
O393 O 0.12435 0.77239 0.86478 0.0
Cd394 Cd 0.14451 0.77618 0.80488 0.0
O395 O 0.12333 0.75281 0.90448 0.0
Cd396 Cd 0.13918 0.74533 0.85377 0.0
C397 C 0.16786 0.77653 0.90736 0.0
O398 O 0.13904 0.75358 0.75886 0.0
O399 O 0.15649 0.74901 0.77954 0.0
O400 O 0.12022 0.71961 0.84066 0.0
C401 C 0.15012 0.7526 0.74283 0.0
O402 O 0.1648 0.78367 0.87171 0.0
C403 C 0.126 0.71438 0.8735 0.0
O404 O 0.16007 0.76247 0.91085 0.0
O405 O 0.13794 0.72358 0.89771 0.0
C406 C 0.23503 0.37696 0.97019 0.0
O407 O 0.23752 0.37409 0.92126 0.0
Cd408 Cd 0.23787 0.39631 0.88508 0.0
O409 O 0.23515 0.38906 0.97724 0.0
Cd410 Cd 0.2426 0.40616 0.88975 0.0
C411 C 0.21867 0.40695 0.95238 0.0
O412 O 0.23167 0.39339 0.79396 0.0
O413 O 0.23251 0.41405 0.81257 0.0
O414 O 0.26644 0.40754 0.87987 0.0
C415 C 0.22942 0.40367 0.7778 0.0
O416 O 0.21561 0.39498 0.92781 0.0
C417 C 0.2741 0.42152 0.88521 0.0
O418 O 0.23185 0.4176 0.9487 0.0
O419 O 0.26711 0.42846 0.89237 0.0
C420 C 0.12306 0.35745 0.4223 0.0
O421 O 0.12857 0.35316 0.38432 0.0
Cd422 Cd 0.14915 0.37067 0.3286 0.0
O423 O 0.12679 0.37108 0.42626 0.0
Cd424 Cd 0.14204 0.39496 0.37689 0.0
C425 C 0.17021 0.39321 0.43725 0.0
O426 O 0.14308 0.38716 0.28145 0.0
O427 O 0.15952 0.40949 0.30445 0.0
O428 O 0.12087 0.39859 0.37307 0.0
C429 C 0.15391 0.39961 0.26687 0.0
O430 O 0.16817 0.38353 0.40031 0.0
C431 C 0.12745 0.4114 0.39522 0.0
O432 O 0.16197 0.39895 0.43932 0.0
O433 O 0.14083 0.41649 0.40961 0.0
C434 C 0.62712 0.76578 0.39664 0.0
O435 O 0.63243 0.77535 0.35779 0.0
Cd436 Cd 0.61646 0.77895 0.29533 0.0
O437 O 0.61335 0.75638 0.3982 0.0
Cd438 Cd 0.59051 0.74811 0.34318 0.0
C439 C 0.59274 0.7791 0.39626 0.0
O440 O 0.60013 0.75615 0.24913 0.0
O441 O 0.57771 0.75109 0.26435 0.0
O442 O 0.58735 0.72352 0.34391 0.0
C443 C 0.58825 0.75491 0.22995 0.0
O444 O 0.60306 0.78612 0.36085 0.0
C445 C 0.57424 0.71707 0.3628 0.0
O446 O 0.58637 0.76503 0.40015 0.0
O447 O 0.56859 0.72515 0.37315 0.0
C448 C 0.2203 0.858 0.40444 0.0
O449 O 0.2108 0.85404 0.36554 0.0
Cd450 Cd 0.20586 0.83378 0.30407 0.0
O451 O 0.22896 0.85275 0.40699 0.0
Cd452 Cd 0.23577 0.83662 0.35361 0.0
C453 C 0.20378 0.8092 0.40609 0.0
O454 O 0.22834 0.8388 0.25948 0.0
O455 O 0.23197 0.82044 0.2744 0.0
O456 O 0.26081 0.85708 0.35543 0.0
C457 C 0.22872 0.82765 0.24014 0.0
O458 O 0.19739 0.81311 0.37022 0.0
C459 C 0.26651 0.8498 0.37527 0.0
O460 O 0.21782 0.81613 0.41039 0.0
O461 O 0.25782 0.83612 0.38526 0.0
C462 C 0.02214 0.46507 0.41804 0.0
O463 O 0.01701 0.46913 0.45818 0.0
Cd464 Cd 0.03334 0.4886 0.52059 0.0
O465 O 0.03589 0.46948 0.41535 0.0
Cd466 Cd 0.05905 0.48366 0.46918 0.0
C467 C 0.05671 0.51246 0.41809 0.0
O468 O 0.04972 0.48189 0.56351 0.0
O469 O 0.07217 0.49932 0.54854 0.0
O470 O 0.06126 0.46171 0.46538 0.0
C471 C 0.06163 0.49254 0.5829 0.0
O472 O 0.04658 0.50909 0.45445 0.0
C473 C 0.07442 0.46819 0.44706 0.0
O474 O 0.06307 0.50481 0.413 0.0
O475 O 0.08057 0.48207 0.43842 0.0
C476 C 0.52556 0.55821 0.39685 0.0
O477 O 0.52134 0.54899 0.43693 0.0
Cd478 Cd 0.50197 0.54604 0.49939 0.0
O479 O 0.52123 0.56762 0.39373 0.0
Cd480 Cd 0.5068 0.57644 0.44701 0.0
C481 C 0.47784 0.54494 0.39805 0.0
O482 O 0.50868 0.56933 0.54222 0.0
O483 O 0.49136 0.57436 0.52601 0.0
O484 O 0.52812 0.60108 0.44246 0.0
C485 C 0.49816 0.57085 0.56107 0.0
O486 O 0.48123 0.53821 0.43438 0.0
C487 C 0.52126 0.60725 0.42296 0.0
O488 O 0.48553 0.55897 0.39249 0.0
O489 O 0.5075 0.59899 0.41388 0.0
C490 C 0.42258 0.95728 0.41742 0.0
O491 O 0.43216 0.9629 0.45603 0.0
Cd492 Cd 0.43663 0.94741 0.51812 0.0
O493 O 0.41365 0.94335 0.41581 0.0
Cd494 Cd 0.40622 0.92047 0.4702 0.0
C495 C 0.43767 0.92406 0.4169 0.0
O496 O 0.41409 0.93039 0.56384 0.0
O497 O 0.40967 0.90806 0.54972 0.0
O498 O 0.38159 0.91683 0.46913 0.0
C499 C 0.41333 0.91873 0.58355 0.0
O500 O 0.44435 0.93451 0.45226 0.0
C501 C 0.37534 0.90371 0.44987 0.0
O502 O 0.42362 0.91717 0.41307 0.0
O503 O 0.38352 0.89818 0.43986 0.0
H504 H 0.23742 0.20942 0.14249 0.0
H505 H 0.20362 0.24116 0.357 0.0
H506 H 0.22561 0.19099 0.30854 0.0
H507 H 0.18813 0.23295 0.18643 0.0
H508 H 0.21598 0.22677 0.34056 0.0
H509 H 0.22336 0.22218 0.1579 0.0
C510 C 0.23185 0.20807 0.18213 0.0
C511 C 0.23262 0.19917 0.22437 0.0
C512 C 0.20983 0.22811 0.30692 0.0
C513 C 0.21691 0.21387 0.24241 0.0
C514 C 0.20287 0.23636 0.31607 0.0
C515 C 0.19488 0.2382 0.27293 0.0
C516 C 0.2091 0.22206 0.25385 0.0
C517 C 0.19416 0.2317 0.22076 0.0
C518 C 0.22382 0.21527 0.19071 0.0
C519 C 0.2252 0.19771 0.27491 0.0
N520 N 0.20136 0.22405 0.21237 0.0
N521 N 0.21779 0.20518 0.2829 0.0
H522 H 0.8047 0.0346 0.23337 0.0
H523 H 0.72761 0.95966 0.26868 0.0
H524 H 0.76248 0.0313 0.20331 0.0
H525 H 0.7687 0.96004 0.2449 0.0
H526 H 0.7406 0.98644 0.25494 0.0
H527 H 0.79204 0.00772 0.24792 0.0
C528 C 0.79277 0.02823 0.23002 0.0
C529 C 0.78461 0.03517 0.21709 0.0
C530 C 0.74678 0.98067 0.25259 0.0
C531 C 0.77013 0.00454 0.23385 0.0
C532 C 0.73939 0.96539 0.26058 0.0
C533 C 0.7471 0.95762 0.25784 0.0
C534 C 0.76205 0.9883 0.24239 0.0
C535 C 0.76234 0.96561 0.24713 0.0
C536 C 0.78558 0.01291 0.23807 0.0
C537 C 0.7692 0.0264 0.21306 0.0
N538 N 0.76935 0.98056 0.24003 0.0
N539 N 0.76246 0.01155 0.22163 0.0
H540 H 0.95277 0.73588 0.21132 0.0
H541 H 0.02504 0.81522 0.24875 0.0
H542 H 0.95047 0.77566 0.23691 0.0
H543 H 0.02392 0.77368 0.27391 0.0
H544 H -0.00185 0.80148 0.23518 0.0
H545 H 0.97941 0.75017 0.22477 0.0
C546 C 0.95788 0.74764 0.2198 0.0
C547 C 0.9494 0.75459 0.22312 0.0
C548 C 0.00383 0.79542 0.24379 0.0
C549 C 0.97995 0.77106 0.23832 0.0
C550 C 0.01915 0.80323 0.25131 0.0
C551 C 0.0267 0.79556 0.26248 0.0
C552 C -0.00388 0.77987 0.24679 0.0
C553 C 0.01855 0.78005 0.26553 0.0
C554 C 0.9731 0.75579 0.22762 0.0
C555 C 0.95662 0.76987 0.23425 0.0
N556 N 0.00373 0.77273 0.25751 0.0
N557 N 0.97154 0.77764 0.24125 0.0
H558 H 0.8083 0.77589 0.73625 0.0
H559 H 0.73086 0.77266 0.7702 0.0
H560 H 0.76609 0.73624 0.71156 0.0
H561 H 0.77168 0.81377 0.74444 0.0
H562 H 0.74407 0.75914 0.75787 0.0
H563 H 0.79552 0.79003 0.74848 0.0
C564 C 0.79636 0.77016 0.73357 0.0
C565 C 0.78823 0.75487 0.72288 0.0
C566 C 0.75015 0.77112 0.75474 0.0
C567 C 0.77362 0.77091 0.73697 0.0
C568 C 0.74262 0.77885 0.7619 0.0
C569 C 0.75019 0.79436 0.75826 0.0
C570 C 0.76541 0.77894 0.74442 0.0
C571 C 0.76543 0.8018 0.74735 0.0
C572 C 0.7891 0.77824 0.7403 0.0
C573 C 0.7728 0.74801 0.71961 0.0
N574 N 0.77258 0.79401 0.74106 0.0
N575 N 0.766 0.75606 0.72684 0.0
H576 H 0.22987 0.02766 0.63566 0.0
H577 H 0.19899 0.96167 0.8456 0.0
H578 H 0.21947 0.03387 0.8046 0.0
H579 H 0.18176 0.95431 0.67756 0.0
H580 H 0.21003 0.98847 0.8315 0.0
H581 H 0.21547 0.00072 0.64937 0.0
C582 C 0.22448 0.02332 0.67551 0.0
C583 C 0.22582 0.03291 0.71916 0.0
C584 C 0.20373 0.98095 0.79797 0.0
C585 C 0.20974 0.00235 0.73528 0.0
C586 C 0.19754 0.96572 0.80578 0.0
C587 C 0.18951 0.95585 0.76257 0.0
C588 C 0.20224 0.98629 0.74609 0.0
C589 C 0.18785 0.96161 0.71189 0.0
C590 C 0.21625 0.00802 0.68314 0.0
C591 C 0.21862 0.0268 0.76993 0.0
N592 N 0.19438 0.97652 0.70465 0.0
N593 N 0.21107 0.01185 0.77701 0.0
H594 H 0.02526 0.24794 0.78294 0.0
H595 H 0.95255 0.16983 0.73 0.0
H596 H 0.027 0.2079 0.75599 0.0
H597 H 0.95519 0.21209 0.70517 0.0
H598 H 0.97922 0.18289 0.74906 0.0
H599 H -0.00118 0.23422 0.76463 0.0
C600 C 0.02006 0.23624 0.77322 0.0
C601 C 0.02834 0.22906 0.77084 0.0
C602 C 0.97391 0.18925 0.73928 0.0
C603 C -0.002 0.21324 0.74997 0.0
C604 C 0.95873 0.18183 0.7286 0.0
C605 C 0.95167 0.1899 0.71598 0.0
C606 C 0.98197 0.20481 0.73801 0.0
C607 C 0.96017 0.20542 0.71458 0.0
C608 C 0.00496 0.22841 0.76259 0.0
C609 C 0.02102 0.21386 0.75801 0.0
N610 N 0.97484 0.21235 0.7257 0.0
N611 N 0.00621 0.20641 0.7482 0.0
H612 H 0.83629 0.54897 0.60409 0.0
H613 H 0.91286 0.55109 0.55782 0.0
H614 H 0.87898 0.58795 0.62956 0.0
H615 H 0.87182 0.51013 0.58255 0.0
H616 H 0.90006 0.56482 0.57493 0.0
H617 H 0.84859 0.53452 0.58723 0.0
C618 C 0.84823 0.55448 0.60603 0.0
C619 C 0.85664 0.56967 0.61822 0.0
C620 C 0.89384 0.55283 0.57678 0.0
C621 C 0.8707 0.5533 0.59879 0.0
C622 C 0.90113 0.54497 0.56685 0.0
C623 C 0.89338 0.52944 0.56884 0.0
C624 C 0.87863 0.54512 0.58825 0.0
C625 C 0.87821 0.52211 0.58083 0.0
C626 C 0.85522 0.54623 0.59663 0.0
C627 C 0.87206 0.57626 0.62041 0.0
N628 N 0.87128 0.53002 0.58987 0.0
N629 N 0.87859 0.56805 0.61056 0.0
H630 H 0.40226 0.29373 0.62223 0.0
H631 H 0.48053 0.36592 0.56654 0.0
H632 H 0.44174 0.29141 0.5922 0.0
H633 H 0.43877 0.36421 0.54435 0.0
H634 H 0.46715 0.33922 0.58631 0.0
H635 H 0.41619 0.3203 0.60449 0.0
C636 C 0.41388 0.29882 0.61198 0.0
C637 C 0.42085 0.29034 0.60853 0.0
C638 C 0.46096 0.34473 0.57703 0.0
C639 C 0.43689 0.32081 0.58835 0.0
C640 C 0.46856 0.35994 0.56596 0.0
C641 C 0.46073 0.36727 0.55374 0.0
C642 C 0.44545 0.3369 0.57654 0.0
C643 C 0.44525 0.35901 0.55339 0.0
C644 C 0.42182 0.31399 0.60169 0.0
C645 C 0.43594 0.29754 0.59505 0.0
N646 N 0.43813 0.34429 0.56483 0.0
N647 N 0.4435 0.31241 0.58559 0.0
H648 H 0.69229 0.10769 0.62387 0.0
H649 H 0.61768 0.11017 0.58621 0.0
H650 H 0.69196 0.14828 0.59252 0.0
H651 H 0.62048 0.0705 0.56617 0.0
H652 H 0.64448 0.12437 0.60085 0.0
H653 H 0.66542 0.09389 0.61542 0.0
C654 C 0.68655 0.11371 0.61541 0.0
C655 C 0.69436 0.12915 0.60863 0.0
C656 C 0.63919 0.11256 0.59329 0.0
C657 C 0.66361 0.11342 0.59909 0.0
C658 C 0.62392 0.10445 0.58512 0.0
C659 C 0.61688 0.08915 0.57477 0.0
C660 C 0.64739 0.10525 0.59175 0.0
C661 C 0.62547 0.08229 0.57372 0.0
C662 C 0.67122 0.10582 0.61043 0.0
C663 C 0.68636 0.13637 0.59774 0.0
N664 N 0.64027 0.09038 0.58222 0.0
N665 N 0.67139 0.12844 0.59336 0.0
H666 H 0.44552 0.08349 0.98522 0.0
H667 H 0.41348 0.11723 0.19691 0.0
H668 H 0.46275 0.09384 0.15322 0.0
H669 H 0.42341 0.13385 0.02793 0.0
H670 H 0.42807 0.10501 0.18233 0.0
H671 H 0.43371 0.09846 -7e-05 0.0
C672 C 0.44681 0.08893 0.02515 0.0
C673 C 0.45508 0.08746 0.06817 0.0
C674 C 0.42712 0.11143 0.14871 0.0
C675 C 0.44145 0.10425 0.08536 0.0
C676 C 0.41877 0.11832 0.15682 0.0
C677 C 0.41728 0.12651 0.11347 0.0
C678 C 0.43361 0.11241 0.09641 0.0
C679 C 0.42437 0.12766 0.06238 0.0
C680 C 0.44016 0.0975 0.03332 0.0
C681 C 0.4565 0.09477 0.11903 0.0
N682 N 0.43207 0.12047 0.05488 0.0
N683 N 0.44954 0.1027 0.1266 0.0
H684 H 0.88618 0.29462 0.11447 0.0
H685 H 0.87668 0.36548 0.0774 0.0
H686 H 0.84407 0.29119 0.08042 0.0
H687 H 0.91829 0.36674 0.05674 0.0
H688 H 0.86446 0.33854 0.09002 0.0
H689 H 0.89813 0.32151 0.10442 0.0
C690 C 0.87945 0.29953 0.10485 0.0
C691 C 0.86412 0.29068 0.09809 0.0
C692 C 0.87626 0.34475 0.08272 0.0
C693 C 0.87769 0.32142 0.08703 0.0
C694 C 0.88324 0.3601 0.07579 0.0
C695 C 0.8985 0.36832 0.06588 0.0
C696 C 0.88466 0.33766 0.08043 0.0
C697 C 0.90649 0.36081 0.06404 0.0
C698 C 0.88628 0.31487 0.09903 0.0
C699 C 0.85593 0.29762 0.08567 0.0
N700 N 0.89947 0.34591 0.0714 0.0
N701 N 0.86282 0.31261 0.08076 0.0
H702 H 0.62317 0.50898 0.06896 0.0
H703 H 0.6935 0.58838 0.12938 0.0
H704 H 0.62383 0.55031 0.04436 0.0
H705 H 0.69707 0.54938 0.10168 0.0
H706 H 0.66716 0.5739 0.10891 0.0
H707 H 0.64962 0.52298 0.09123 0.0
C708 C 0.62887 0.52098 0.06833 0.0
C709 C 0.62132 0.52851 0.05473 0.0
C710 C 0.6737 0.5685 0.10722 0.0
C711 C 0.6514 0.5445 0.08042 0.0
C712 C 0.68873 0.57675 0.11907 0.0
C713 C 0.69749 0.57007 0.11706 0.0
C714 C 0.66732 0.55342 0.09379 0.0
C715 C 0.69072 0.55496 0.10344 0.0
C716 C 0.64394 0.52894 0.08084 0.0
C717 C 0.62922 0.54405 0.05442 0.0
N718 N 0.67598 0.5471 0.09247 0.0
N719 N 0.64381 0.55153 0.06729 0.0
H720 H 0.51202 0.89032 0.84947 0.0
H721 H 0.55316 0.84927 0.96272 0.0
H722 H 0.53005 0.89841 0.01636 0.0
H723 H 0.56191 0.86826 0.79722 0.0
H724 H 0.53851 0.86123 0.98282 0.0
H725 H 0.52434 0.87601 0.82927 0.0
C726 C 0.51843 0.88893 0.88195 0.0
C727 C 0.52014 0.89558 0.9345 0.0
C728 C 0.54358 0.86264 0.94205 0.0
C729 C 0.53385 0.8791 0.91215 0.0
C730 C 0.55184 0.85581 0.9305 0.0
C731 C 0.55877 0.8579 0.8784 0.0
C732 C 0.54193 0.87121 0.90061 0.0
C733 C 0.55681 0.86651 0.83805 0.0
C734 C 0.52547 0.88086 0.87034 0.0
C735 C 0.52859 0.89353 0.97518 0.0
N736 N 0.54847 0.8728 0.84987 0.0
N737 N 0.53509 0.88537 0.96328 0.0
H738 H 0.07776 0.62786 0.02055 0.0
H739 H 0.10896 0.69209 0.80119 0.0
H740 H 0.08697 0.61974 0.85237 0.0
H741 H 0.12712 0.70029 0.96788 0.0
H742 H 0.09685 0.66533 0.81899 0.0
H743 H 0.09203 0.65461 0.00243 0.0
C744 C 0.0828 0.63173 0.97986 0.0
C745 C 0.08124 0.62166 0.93781 0.0
C746 C 0.10356 0.67303 0.85141 0.0
C747 C 0.09719 0.65202 0.91675 0.0
C748 C 0.11038 0.68823 0.84149 0.0
C749 C 0.11902 0.69833 0.88321 0.0
C750 C 0.10506 0.66797 0.90392 0.0
C751 C 0.12059 0.69282 0.93463 0.0
C752 C 0.09096 0.64694 0.96974 0.0
C753 C 0.088 0.6272 0.88587 0.0
N754 N 0.11348 0.67796 0.94391 0.0
N755 N 0.09554 0.64206 0.87644 0.0
H756 H 0.29154 0.40905 0.87871 0.0
H757 H 0.36793 0.48589 0.89443 0.0
H758 H 0.29375 0.45144 0.89043 0.0
H759 H 0.36371 0.44302 0.92196 0.0
H760 H 0.34112 0.47371 0.88078 0.0
H761 H 0.31841 0.42164 0.88205 0.0
C762 C 0.29768 0.42103 0.88175 0.0
C763 C 0.29039 0.4292 0.88465 0.0
C764 C 0.3461 0.467 0.88964 0.0
C765 C 0.32121 0.44371 0.88852 0.0
C766 C 0.36138 0.47392 0.89725 0.0
C767 C 0.36802 0.46544 0.90961 0.0
C768 C 0.33749 0.4515 0.89393 0.0
C769 C 0.35904 0.44999 0.91284 0.0
C770 C 0.31304 0.42821 0.88378 0.0
C771 C 0.29894 0.44471 0.88839 0.0
N772 N 0.34424 0.44353 0.90508 0.0
N773 N 0.31393 0.45148 0.89033 0.0
H774 H 0.06248 0.43821 0.44319 0.0
H775 H 0.13974 0.44069 0.42354 0.0
H776 H 0.10402 0.47918 0.42927 0.0
H777 H 0.09803 0.40176 0.38434 0.0
H778 H 0.12696 0.4548 0.43464 0.0
H779 H 0.07547 0.42445 0.43008 0.0
C780 C 0.07435 0.44431 0.43728 0.0
C781 C 0.0822 0.45986 0.43731 0.0
C782 C 0.12063 0.44318 0.42351 0.0
C783 C 0.09713 0.44417 0.42273 0.0
C784 C 0.1279 0.43511 0.41743 0.0
C785 C 0.11992 0.42003 0.40304 0.0
C786 C 0.10528 0.43607 0.41581 0.0
C787 C 0.10461 0.41337 0.39539 0.0
C788 C 0.08174 0.43645 0.42967 0.0
C789 C 0.09755 0.4672 0.42934 0.0
N790 N 0.09778 0.42142 0.40211 0.0
N791 N 0.10455 0.45928 0.42271 0.0
H792 H 0.55095 0.62643 0.42213 0.0
H793 H 0.54477 0.69921 0.3864 0.0
H794 H 0.50917 0.62472 0.40034 0.0
H795 H 0.58503 0.69812 0.35958 0.0
H796 H 0.53152 0.67227 0.39993 0.0
H797 H 0.56368 0.65316 0.40737 0.0
C798 C 0.54445 0.63169 0.41414 0.0
C799 C 0.52898 0.62335 0.4124 0.0
C800 C 0.54325 0.67796 0.39097 0.0
C801 C 0.54349 0.65398 0.39585 0.0
C802 C 0.55082 0.69332 0.38349 0.0
C803 C 0.56601 0.7009 0.37186 0.0
C804 C 0.55099 0.67021 0.38743 0.0
C805 C 0.57331 0.69272 0.36836 0.0
C806 C 0.55173 0.64694 0.40561 0.0
C807 C 0.52112 0.63074 0.40182 0.0
N808 N 0.56574 0.67784 0.37633 0.0
N809 N 0.52847 0.64568 0.39421 0.0
H810 H 0.35654 0.91459 0.4511 0.0
H811 H 0.28311 0.83692 0.40135 0.0
H812 H 0.35759 0.87416 0.42481 0.0
H813 H 0.28631 0.87938 0.37477 0.0
H814 H 0.3098 0.84973 0.41969 0.0
H815 H 0.33007 0.90115 0.43345 0.0
C816 C 0.35119 0.90286 0.44167 0.0
C817 C 0.35928 0.89548 0.43929 0.0
C818 C 0.30462 0.85619 0.4097 0.0
C819 C 0.3289 0.88 0.41919 0.0
C820 C 0.28942 0.84891 0.39945 0.0
C821 C 0.28251 0.85711 0.38653 0.0
C822 C 0.31285 0.87174 0.40772 0.0
C823 C 0.29118 0.87261 0.38444 0.0
C824 C 0.33607 0.8952 0.43141 0.0
C825 C 0.35175 0.88027 0.42682 0.0
N826 N 0.30586 0.87941 0.39517 0.0
N827 N 0.33693 0.87298 0.4174 0.0
H828 H 0.09052 0.27362 -0.00111 0.0
H829 H 0.1337 0.24222 0.17078 0.0
H830 H 0.08786 0.23187 0.96087 0.0
H831 H 0.12683 0.27724 0.23258 0.0
H832 H 0.11633 0.23779 0.09505 0.0
H833 H 0.10314 0.27478 0.08635 0.0
C834 C 0.09245 0.26462 0.00924 0.0
C835 C 0.08827 0.2527 0.97232 0.0
C836 C 0.11849 0.24633 0.12555 0.0
C837 C 0.10283 0.25403 0.0719 0.0
C838 C 0.12844 0.24889 0.16874 0.0
C839 C 0.13184 0.26021 0.20782 0.0
C840 C 0.11204 0.25528 0.12092 0.0
C841 C 0.1246 0.26843 0.20329 0.0
C842 C 0.09964 0.26527 0.05918 0.0
C843 C 0.09097 0.24131 0.98794 0.0
N844 N 0.11518 0.26593 0.16019 0.0
N845 N 0.09825 0.24234 0.03622 0.0
H846 H 0.70654 0.84917 0.21776 0.0
H847 H 0.75131 0.85326 0.94108 0.0
H848 H 0.74298 0.88972 0.15285 0.0
H849 H 0.70858 0.8161 0.98307 0.0
H850 H 0.7513 0.8651 0.02925 0.0
H851 H 0.71022 0.83542 0.14289 0.0
C852 C 0.71545 0.85518 0.18825 0.0
C853 C 0.72434 0.87068 0.19119 0.0
C854 C 0.74199 0.8543 0.01938 0.0
C855 C 0.72856 0.85495 0.10533 0.0
C856 C 0.74199 0.8475 0.96913 0.0
C857 C 0.72983 0.83375 0.9544 0.0
C858 C 0.72977 0.84726 0.0553 0.0
C859 C 0.71811 0.82677 0.99254 0.0
C860 C 0.7175 0.84731 0.1454 0.0
C861 C 0.73575 0.87782 0.15188 0.0
N862 N 0.71833 0.83366 0.04111 0.0
N863 N 0.73746 0.86991 0.1103 0.0
H864 H 0.09555 0.85739 0.15544 0.0
H865 H 0.17117 0.89311 0.98647 0.0
H866 H 0.13521 0.85955 0.21889 0.0
H867 H 0.13392 0.89759 0.93724 0.0
H868 H 0.15881 0.88239 0.07527 0.0
H869 H 0.10997 0.87382 0.07901 0.0
C870 C 0.10732 0.86146 0.15376 0.0
C871 C 0.11413 0.85691 0.19327 0.0
C872 C 0.15341 0.88587 0.04529 0.0
C873 C 0.13067 0.87559 0.10548 0.0
C874 C 0.16046 0.89196 0.99456 0.0
C875 C 0.15349 0.89608 0.95417 0.0
C876 C 0.13925 0.88375 0.05541 0.0
C877 C 0.13965 0.89445 0.967 0.0
C878 C 0.11555 0.87085 0.11006 0.0
C879 C 0.12945 0.86265 0.18915 0.0
N880 N 0.13291 0.88825 0.01623 0.0
N881 N 0.13716 0.87152 0.14559 0.0
H882 H 0.27269 0.0971 0.50424 0.0
H883 H 0.23907 0.13887 0.33423 0.0
H884 H 0.2319 0.09541 0.54914 0.0
H885 H 0.27551 0.13423 0.27441 0.0
H886 H 0.23531 0.12167 0.41007 0.0
H887 H 0.2731 0.10945 0.41688 0.0
C888 C 0.26375 0.09921 0.49549 0.0
C889 C 0.25233 0.09536 0.53426 0.0
C890 C 0.24403 0.12429 0.37999 0.0
C891 C 0.25277 0.10957 0.43463 0.0
C892 C 0.24618 0.13412 0.33665 0.0
C893 C 0.25773 0.13814 0.2982 0.0
C894 C 0.25357 0.11854 0.38529 0.0
C895 C 0.26653 0.13154 0.30326 0.0
C896 C 0.26398 0.10624 0.44558 0.0
C897 C 0.24098 0.09828 0.52062 0.0
N898 N 0.26438 0.12221 0.3464 0.0
N899 N 0.24158 0.10535 0.47221 0.0
H900 H 0.85082 0.143 0.25626 0.0
H901 H 0.89313 0.13529 0.5207 0.0
H902 H 0.84675 0.10167 0.31122 0.0
H903 H 0.8884 0.17351 0.49045 0.0
H904 H 0.88041 0.12452 0.43274 0.0
H905 H 0.86878 0.15586 0.33074 0.0
C906 C 0.85383 0.13665 0.28349 0.0
C907 C 0.84713 0.12119 0.27791 0.0
C908 C 0.88228 0.13532 0.44511 0.0
C909 C 0.86766 0.13587 0.36308 0.0
C910 C 0.88957 0.1415 0.49525 0.0
C911 C 0.89165 0.15523 0.51328 0.0
C912 C 0.87707 0.14295 0.41263 0.0
C913 C 0.88689 0.16283 0.47838 0.0
C914 C 0.86405 0.144 0.32609 0.0
C915 C 0.8515 0.11356 0.31436 0.0
N916 N 0.87971 0.15653 0.42987 0.0
N917 N 0.86142 0.12097 0.35559 0.0
H918 H 0.84333 0.75386 0.5363 0.0
H919 H 0.84074 0.70815 0.264 0.0
H920 H 0.80771 0.70968 0.50009 0.0
H921 H 0.88007 0.74703 0.32335 0.0
H922 H 0.82667 0.71114 0.33935 0.0
H923 H 0.85492 0.75394 0.44762 0.0
C924 C 0.83786 0.74422 0.50942 0.0
C925 C 0.82463 0.73166 0.52595 0.0
C926 C 0.83834 0.7191 0.33548 0.0
C927 C 0.83787 0.73169 0.42437 0.0
C928 C 0.84639 0.71745 0.29234 0.0
C929 C 0.86167 0.72726 0.28773 0.0
C930 C 0.84559 0.73069 0.37408 0.0
C931 C 0.86836 0.73911 0.32563 0.0
C932 C 0.8445 0.74428 0.45883 0.0
C933 C 0.81798 0.71955 0.48919 0.0
N934 N 0.86029 0.74043 0.36746 0.0
N935 N 0.82474 0.71982 0.44024 0.0
H936 H 0.85033 0.7483 0.82226 0.0
H937 H 0.88587 0.70963 -0.00109 0.0
H938 H 0.85092 0.70922 0.7661 0.0
H939 H 0.8926 0.7531 0.03645 0.0
H940 H 0.8745 0.70999 0.91003 0.0
H941 H 0.86732 0.75115 0.89739 0.0
C942 C 0.85417 0.74042 0.82529 0.0
C943 C 0.84905 0.7284 0.7882 0.0
C944 C 0.87863 0.71952 0.93743 0.0
C945 C 0.86837 0.73149 0.87455 0.0
C946 C 0.8851 0.71931 0.98818 0.0
C947 C 0.89002 0.73127 0.02541 0.0
C948 C 0.87694 0.73172 0.92418 0.0
C949 C 0.88883 0.74357 0.00926 0.0
C950 C 0.86388 0.74205 0.8682 0.0
C951 C 0.8545 0.7186 0.79393 0.0
N952 N 0.88225 0.7434 0.96018 0.0
N953 N 0.8637 0.72024 0.8368 0.0
H954 H 0.23704 0.10193 0.83515 0.0
H955 H 0.27565 0.17806 0.00334 0.0
H956 H 0.27508 0.14178 0.7741 0.0
H957 H 0.23359 0.1406 0.0501 0.0
H958 H 0.2748 0.16548 0.91595 0.0
H959 H 0.2346 0.11633 0.91078 0.0
C960 C 0.24478 0.11373 0.83723 0.0
C961 C 0.25639 0.12061 0.79855 0.0
C962 C 0.26568 0.16007 0.94505 0.0
C963 C 0.25374 0.13714 0.88535 0.0
C964 C 0.26617 0.16725 0.99498 0.0
C965 C 0.25475 0.1603 0.03429 0.0
C966 C 0.25374 0.14578 0.93462 0.0
C967 C 0.24269 0.14632 0.02114 0.0
C968 C 0.24338 0.12195 0.88045 0.0
C969 C 0.26602 0.13596 0.80317 0.0
N970 N 0.24258 0.13945 0.9727 0.0
N971 N 0.26459 0.14367 0.84618 0.0
H972 H 0.80604 0.09786 0.98495 0.0
H973 H 0.88089 0.12894 0.81352 0.0
H974 H 0.84113 0.08954 0.03062 0.0
H975 H 0.8427 0.13006 0.75173 0.0
H976 H 0.86583 0.11282 0.88958 0.0
H977 H 0.81851 0.1081 0.89584 0.0
C978 C 0.81628 0.09804 0.97598 0.0
C979 C 0.82265 0.09301 0.01551 0.0
C980 C 0.86069 0.11643 0.85895 0.0
C981 C 0.83703 0.1048 0.91397 0.0
C982 C 0.8693 0.12565 0.81547 0.0
C983 C 0.86311 0.13103 0.77653 0.0
C984 C 0.84584 0.11271 0.86395 0.0
C985 C 0.84799 0.12629 0.781 0.0
C986 C 0.82339 0.10387 0.92509 0.0
C987 C 0.83589 0.09343 0.00158 0.0
N988 N 0.83993 0.11758 0.82438 0.0
N989 N 0.84273 0.09939 0.95226 0.0
H990 H 0.70539 0.89335 0.48173 0.0
H991 H 0.7447 0.85761 0.65318 0.0
H992 H 0.74858 0.90029 0.44029 0.0
H993 H 0.70678 0.85932 0.715 0.0
H994 H 0.747 0.87431 0.57734 0.0
H995 H 0.7062 0.88186 0.56979 0.0
C996 C 0.7151 0.8926 0.49142 0.0
C997 C 0.72686 0.89764 0.45339 0.0
C998 C 0.73829 0.87117 0.60791 0.0
C999 C 0.72782 0.88441 0.55366 0.0
C1000 C 0.73696 0.86163 0.65123 0.0
C1001 C 0.72544 0.85692 0.69022 0.0
C1002 C 0.7279 0.8759 0.60312 0.0
C1003 C 0.71579 0.86257 0.68575 0.0
C1004 C 0.71557 0.88606 0.5417 0.0
C1005 C 0.7392 0.89645 0.46818 0.0
N1006 N 0.71712 0.8716 0.64254 0.0
N1007 N 0.73929 0.8898 0.51684 0.0
H1008 H 0.08526 0.85255 0.44832 0.0
H1009 H 0.12783 0.84727 0.71666 0.0
H1010 H 0.09116 0.81521 0.48277 0.0
H1011 H 0.13091 0.88792 0.6584 0.0
H1012 H 0.11019 0.83383 0.64198 0.0
H1013 H 0.09773 0.86395 0.53602 0.0
C1014 C 0.08904 0.84667 0.47462 0.0
C1015 C 0.08734 0.83299 0.45789 0.0
C1016 C 0.11464 0.84567 0.64592 0.0
C1017 C 0.10163 0.846 0.55826 0.0
C1018 C 0.12467 0.85336 0.68865 0.0
C1019 C 0.13101 0.8688 0.69342 0.0
C1020 C 0.11084 0.85345 0.6079 0.0
C1021 C 0.12644 0.87606 0.65596 0.0
C1022 C 0.09618 0.8532 0.52462 0.0
C1023 C 0.09236 0.82583 0.49384 0.0
N1024 N 0.11671 0.86833 0.61457 0.0
N1025 N 0.09938 0.83248 0.5422 0.0
H1026 H 0.13672 0.27154 0.74217 0.0
H1027 H 0.13445 0.23356 0.44913 0.0
H1028 H 0.09666 0.23686 0.6672 0.0
H1029 H 0.17148 0.27461 0.50728 0.0
H1030 H 0.12191 0.23118 0.53824 0.0
H1031 H 0.15092 0.26908 0.66622 0.0
C1032 C 0.1309 0.26325 0.71022 0.0
C1033 C 0.11543 0.25456 0.71061 0.0
C1034 C 0.13285 0.24062 0.53165 0.0
C1035 C 0.13167 0.25177 0.62336 0.0
C1036 C 0.14002 0.24198 0.48089 0.0
C1037 C 0.15394 0.25442 0.47055 0.0
C1038 C 0.13969 0.25174 0.57238 0.0
C1039 C 0.16068 0.26494 0.51327 0.0
C1040 C 0.13904 0.2619 0.66675 0.0
C1041 C 0.10855 0.24392 0.66826 0.0
N1042 N 0.15344 0.26341 0.56217 0.0
N1043 N 0.11671 0.24294 0.62598 0.0
H1044 H 0.79565 0.61735 0.58332 0.0
H1045 H 0.75215 0.57123 0.31256 0.0
H1046 H 0.79538 0.57794 0.5257 0.0
H1047 H 0.76133 0.61572 0.3469 0.0
H1048 H 0.76344 0.57116 0.40163 0.0
H1049 H 0.77858 0.61437 0.50817 0.0
C1050 C 0.79184 0.60794 0.55543 0.0
C1051 C 0.79712 0.59798 0.56041 0.0
C1052 C 0.76287 0.58089 0.38993 0.0
C1053 C 0.77761 0.59456 0.47431 0.0
C1054 C 0.7564 0.58094 0.33911 0.0
C1055 C 0.75599 0.59359 0.32192 0.0
C1056 C 0.76894 0.59356 0.42395 0.0
C1057 C 0.76155 0.60579 0.3583 0.0
C1058 C 0.78214 0.60629 0.51241 0.0
C1059 C 0.79175 0.58598 0.5231 0.0
N1060 N 0.76792 0.60552 0.40746 0.0
N1061 N 0.78238 0.58468 0.48137 0.0
H1062 H 0.41589 0.18348 0.28568 0.0
H1063 H 0.37482 0.1812 0.5706 0.0
H1064 H 0.3736 0.14675 0.33503 0.0
H1065 H 0.41188 0.22088 0.50328 0.0
H1066 H 0.37705 0.16696 0.49399 0.0
H1067 H 0.41719 0.19573 0.37428 0.0
C1068 C 0.40693 0.17792 0.31537 0.0
C1069 C 0.39452 0.16415 0.30267 0.0
C1070 C 0.38478 0.17875 0.49633 0.0
C1071 C 0.39597 0.17813 0.40416 0.0
C1072 C 0.38356 0.18691 0.54019 0.0
C1073 C 0.39306 0.20232 0.543 0.0
C1074 C 0.3956 0.18604 0.45507 0.0
C1075 C 0.40421 0.20906 0.5025 0.0
C1076 C 0.40768 0.18494 0.36592 0.0
C1077 C 0.38331 0.15742 0.34291 0.0
N1078 N 0.40509 0.20089 0.45993 0.0
N1079 N 0.38425 0.16453 0.39174 0.0
H1080 H 0.83773 0.22135 0.31418 0.0
H1081 H 0.76186 0.19576 0.4737 0.0
H1082 H 0.80788 0.23728 0.27454 0.0
H1083 H 0.79441 0.18492 0.53091 0.0
H1084 H 0.77949 0.21247 0.40444 0.0
H1085 H 0.82309 0.20943 0.39804 0.0
C1086 C 0.82822 0.2225 0.32349 0.0
C1087 C 0.8239 0.23014 0.28699 0.0
C1088 C 0.78285 0.20656 0.4325 0.0
C1089 C 0.80707 0.21648 0.38231 0.0
C1090 C 0.77277 0.19701 0.47199 0.0
C1091 C 0.77664 0.18886 0.5077 0.0
C1092 C 0.79685 0.20784 0.42823 0.0
C1093 C 0.79096 0.19096 0.50394 0.0
C1094 C 0.81986 0.21569 0.3713 0.0
C1095 C 0.81152 0.23134 0.30116 0.0
N1096 N 0.8005 0.20012 0.46441 0.0
N1097 N 0.80346 0.22444 0.34733 0.0
H1098 H 0.89755 0.46504 0.6638 0.0
H1099 H 0.9375 0.43024 0.83526 0.0
H1100 H 0.93521 0.46303 0.6008 0.0
H1101 H 0.8944 0.42328 0.87842 0.0
H1102 H 0.93607 0.44083 0.74593 0.0
H1103 H 0.89518 0.44821 0.73921 0.0
C1104 C 0.9052 0.46091 0.66535 0.0
C1105 C 0.91672 0.46563 0.62633 0.0
C1106 C 0.92684 0.43681 0.77464 0.0
C1107 C 0.91419 0.44651 0.71294 0.0
C1108 C 0.92767 0.43079 0.82568 0.0
C1109 C 0.91614 0.42605 0.86458 0.0
C1110 C 0.91447 0.43825 0.76281 0.0
C1111 C 0.90361 0.42692 0.84985 0.0
C1112 C 0.90384 0.45129 0.70842 0.0
C1113 C 0.92623 0.4598 0.63019 0.0
N1114 N 0.9032 0.4331 0.80045 0.0
N1115 N 0.92489 0.45073 0.67324 0.0
H1116 H 0.56754 0.47204 0.85441 0.0
H1117 H 0.52638 0.4758 0.57915 0.0
H1118 H 0.55987 0.50812 0.81699 0.0
H1119 H 0.52401 0.43573 0.6406 0.0
H1120 H 0.54359 0.48969 0.65442 0.0
H1121 H 0.55653 0.46069 0.7647 0.0
C1122 C 0.56371 0.47768 0.82704 0.0
C1123 C 0.56442 0.49095 0.84353 0.0
C1124 C 0.53943 0.47789 0.65097 0.0
C1125 C 0.55183 0.478 0.74087 0.0
C1126 C 0.52965 0.46994 0.60789 0.0
C1127 C 0.52357 0.45452 0.60402 0.0
C1128 C 0.54324 0.47038 0.69023 0.0
C1129 C 0.52827 0.44757 0.64238 0.0
C1130 C 0.5574 0.47116 0.77589 0.0
C1131 C 0.55938 0.4978 0.80617 0.0
N1132 N 0.53773 0.45553 0.68417 0.0
N1133 N 0.55318 0.49118 0.75672 0.0
H1134 H 0.50837 0.04418 0.60871 0.0
H1135 H 0.51171 0.08634 0.89236 0.0
H1136 H 0.54833 0.08103 0.67515 0.0
H1137 H 0.47469 0.04406 0.84419 0.0
H1138 H 0.52367 0.08736 0.80335 0.0
H1139 H 0.49441 0.04702 0.68478 0.0
C1140 C 0.5142 0.05301 0.63879 0.0
C1141 C 0.52961 0.06224 0.63597 0.0
C1142 C 0.51288 0.07793 0.81206 0.0
C1143 C 0.51365 0.06549 0.72326 0.0
C1144 C 0.50603 0.07733 0.86283 0.0
C1145 C 0.49227 0.06499 0.876 0.0
C1146 C 0.5059 0.06612 0.77412 0.0
C1147 C 0.48537 0.05371 0.83597 0.0
C1148 C 0.50621 0.05458 0.68233 0.0
C1149 C 0.53651 0.07354 0.67601 0.0
N1150 N 0.49231 0.05449 0.78696 0.0
N1151 N 0.5285 0.07475 0.7183 0.0
H1152 H 0.51463 0.07937 0.17308 0.0
H1153 H 0.55348 0.04362 0.34773 0.0
H1154 H 0.51692 0.04122 0.11658 0.0
H1155 H 0.55888 0.08661 0.38434 0.0
H1156 H 0.54117 0.04311 0.26018 0.0
H1157 H 0.5319 0.08289 0.24808 0.0
C1158 C 0.51887 0.07181 0.17608 0.0
C1159 C 0.51419 0.05989 0.13878 0.0
C1160 C 0.54521 0.05273 0.28707 0.0
C1161 C 0.53387 0.06378 0.22492 0.0
C1162 C 0.55222 0.05302 0.33706 0.0
C1163 C 0.55707 0.0651 0.37364 0.0
C1164 C 0.54289 0.06454 0.27392 0.0
C1165 C 0.55522 0.07702 0.35759 0.0
C1166 C 0.52876 0.07385 0.21889 0.0
C1167 C 0.52016 0.05052 0.14451 0.0
N1168 N 0.54812 0.07635 0.30926 0.0
N1169 N 0.52954 0.05256 0.18721 0.0
H1170 H 0.93691 0.47633 0.1008 0.0
H1171 H 0.89186 0.47136 0.37781 0.0
H1172 H 0.90072 0.43552 0.16511 0.0
H1173 H 0.9348 0.50852 0.33814 0.0
H1174 H 0.892 0.45985 0.28897 0.0
H1175 H 0.93313 0.48985 0.1764 0.0
C1176 C 0.92803 0.47022 0.1303 0.0
C1177 C 0.91924 0.45471 0.127 0.0
C1178 C 0.90132 0.47058 0.29949 0.0
C1179 C 0.9149 0.47017 0.21363 0.0
C1180 C 0.90125 0.47719 0.35012 0.0
C1181 C 0.91344 0.49084 0.36571 0.0
C1182 C 0.91363 0.47771 0.26404 0.0
C1183 C 0.92525 0.49792 0.32801 0.0
C1184 C 0.92593 0.47795 0.17356 0.0
C1185 C 0.90787 0.44743 0.16636 0.0
N1186 N 0.9251 0.49122 0.27903 0.0
N1187 N 0.9061 0.45521 0.2083 0.0
H1188 H 0.47957 0.42883 0.31801 0.0
H1189 H 0.55336 0.46397 0.13941 0.0
H1190 H 0.51601 0.42188 0.35508 0.0
H1191 H 0.51351 0.46244 0.08208 0.0
H1192 H 0.5393 0.44706 0.21517 0.0
H1193 H 0.49109 0.43971 0.22815 0.0
C1194 C 0.4899 0.42943 0.30697 0.0
C1195 C 0.49694 0.42462 0.34435 0.0
C1196 C 0.53358 0.45026 0.18557 0.0
C1197 C 0.51023 0.43715 0.24198 0.0
C1198 C 0.54162 0.45993 0.1423 0.0
C1199 C 0.53465 0.46479 0.10472 0.0
C1200 C 0.51851 0.44556 0.19181 0.0
C1201 C 0.51937 0.45908 0.11027 0.0
C1202 C 0.49647 0.43562 0.25564 0.0
C1203 C 0.51027 0.42558 0.32777 0.0
N1204 N 0.51185 0.44994 0.15354 0.0
N1205 N 0.51657 0.43191 0.27813 0.0
H1206 H 0.41858 0.23182 0.79643 0.0
H1207 H 0.37085 0.18847 0.06475 0.0
H1208 H 0.37538 0.2256 0.83227 0.0
H1209 H 0.40856 0.18595 0.0057 0.0
H1210 H 0.37492 0.20615 0.99033 0.0
H1211 H 0.41752 0.21916 0.88359 0.0
C1212 C 0.40893 0.22793 0.82293 0.0
C1213 C 0.39695 0.2296 0.80673 0.0
C1214 C 0.38237 0.20182 0.99401 0.0
C1215 C 0.3957 0.21509 0.90648 0.0
C1216 C 0.38009 0.19175 0.03658 0.0
C1217 C 0.38928 0.18557 0.04111 0.0
C1218 C 0.39397 0.2058 0.95586 0.0
C1219 C 0.4011 0.1903 0.00347 0.0
C1220 C 0.40833 0.22068 0.87261 0.0
C1221 C 0.38479 0.22443 0.84292 0.0
N1222 N 0.40305 0.20006 0.96222 0.0
N1223 N 0.38443 0.21731 0.89096 0.0
H1224 H 0.75816 0.15063 0.81371 0.0
H1225 H 0.80358 0.22535 0.98863 0.0
H1226 H 0.7614 0.19227 0.76937 0.0
H1227 H 0.7974 0.18315 0.0433 0.0
H1228 H 0.78627 0.21281 0.91242 0.0
H1229 H 0.77066 0.16165 0.90225 0.0
C1230 C 0.76136 0.16202 0.82287 0.0
C1231 C 0.7589 0.1706 0.78393 0.0
C1232 C 0.78858 0.20626 0.94137 0.0
C1233 C 0.77322 0.18327 0.88467 0.0
C1234 C 0.79848 0.21343 0.98494 0.0
C1235 C 0.80208 0.20532 0.02209 0.0
C1236 C 0.78232 0.19088 0.93446 0.0
C1237 C 0.79502 0.18987 0.01547 0.0
C1238 C 0.76848 0.16831 0.87336 0.0
C1239 C 0.7632 0.18529 0.79795 0.0
N1240 N 0.78561 0.18316 0.97206 0.0
N1241 N 0.77026 0.19119 0.8469 0.0
H1242 H 0.76633 0.57693 0.02802 0.0
H1243 H 0.83977 0.61594 0.8464 0.0
H1244 H 0.80569 0.61679 0.08049 0.0
H1245 H 0.80334 0.57207 0.81222 0.0
H1246 H 0.82833 0.61572 0.93604 0.0
H1247 H 0.78044 0.57404 0.95271 0.0
C1248 C 0.77798 0.58498 0.02414 0.0
C1249 C 0.78478 0.59722 0.06023 0.0
C1250 C 0.82294 0.60607 0.90921 0.0
C1251 C 0.80098 0.59408 0.97361 0.0
C1252 C 0.82946 0.6062 0.85803 0.0
C1253 C 0.82239 0.59409 0.8215 0.0
C1254 C 0.80921 0.59379 0.9236 0.0
C1255 C 0.8091 0.58172 0.83881 0.0
C1256 C 0.78604 0.58332 0.98112 0.0
C1257 C 0.79996 0.60723 0.05345 0.0
N1258 N 0.80286 0.58196 0.88829 0.0
N1259 N 0.8075 0.60556 0.01045 0.0
H1260 H 0.42287 0.94014 0.66473 0.0
H1261 H 0.46065 0.90387 0.84254 0.0
H1262 H 0.4169 0.89682 0.63016 0.0
H1263 H 0.4592 0.94265 0.89668 0.0
H1264 H 0.44338 0.90035 0.76759 0.0
H1265 H 0.43494 0.94064 0.75289 0.0
C1266 C 0.42395 0.93067 0.67597 0.0
C1267 C 0.41903 0.9185 0.63978 0.0
C1268 C 0.4467 0.90953 0.79625 0.0
C1269 C 0.43292 0.91904 0.74022 0.0
C1270 C 0.45659 0.91156 0.83904 0.0
C1271 C 0.46151 0.92367 0.8756 0.0
C1272 C 0.44184 0.91978 0.78948 0.0
C1273 C 0.45577 0.93321 0.86929 0.0
C1274 C 0.43083 0.93095 0.72632 0.0
C1275 C 0.42064 0.90649 0.65658 0.0
N1276 N 0.44639 0.93117 0.82657 0.0
N1277 N 0.4276 0.90714 0.70525 0.0
H1278 H 0.03749 0.51315 0.90121 0.0
H1279 H 0.08395 0.51799 0.62854 0.0
H1280 H 0.07447 0.55379 0.83964 0.0
H1281 H 0.0407 0.48097 0.66553 0.0
H1282 H 0.08346 0.52944 0.71711 0.0
H1283 H 0.0415 0.49958 0.82638 0.0
C1284 C 0.04658 0.51921 0.87245 0.0
C1285 C 0.05554 0.53468 0.87628 0.0
C1286 C 0.07414 0.51874 0.70607 0.0
C1287 C 0.06015 0.51918 0.7906 0.0
C1288 C 0.07442 0.51217 0.6556 0.0
C1289 C 0.06225 0.4986 0.63931 0.0
C1290 C 0.06164 0.51165 0.74062 0.0
C1291 C 0.05025 0.49153 0.67621 0.0
C1292 C 0.04881 0.51145 0.82965 0.0
C1293 C 0.06718 0.5419 0.83791 0.0
N1294 N 0.0502 0.4982 0.725 0.0
N1295 N 0.06908 0.5341 0.79643 0.0
H1296 H 0.4766 0.52809 0.88294 0.0
H1297 H 0.47394 0.57003 0.60787 0.0
H1298 H 0.43734 0.52734 0.8227 0.0
H1299 H 0.50911 0.56108 0.64451 0.0
H1300 H 0.46269 0.55941 0.69807 0.0
H1301 H 0.49075 0.54518 0.80758 0.0
C1302 C 0.47099 0.53169 0.85446 0.0
C1303 C 0.4557 0.52609 0.85865 0.0
C1304 C 0.47295 0.55991 0.68661 0.0
C1305 C 0.47185 0.54561 0.77237 0.0
C1306 C 0.4794 0.56599 0.63517 0.0
C1307 C 0.49237 0.56623 0.61831 0.0
C1308 C 0.47953 0.55406 0.72155 0.0
C1309 C 0.49902 0.56096 0.65562 0.0
C1310 C 0.47908 0.5414 0.81133 0.0
C1311 C 0.44906 0.53121 0.82064 0.0
N1312 N 0.49245 0.55496 0.70536 0.0
N1313 N 0.45715 0.54058 0.7788 0.0
H1314 H 0.56945 0.79898 0.96954 0.0
H1315 H 0.60937 0.76505 0.14775 0.0
H1316 H 0.60929 0.79993 0.91508 0.0
H1317 H 0.56544 0.75684 0.18356 0.0
H1318 H 0.60887 0.77638 0.05888 0.0
H1319 H 0.56695 0.78202 0.04454 0.0
C1320 C 0.57759 0.79549 0.97294 0.0
C1321 C 0.58969 0.80103 0.93635 0.0
C1322 C 0.59927 0.77193 0.08589 0.0
C1323 C 0.58699 0.78174 0.02255 0.0
C1324 C 0.59956 0.76548 0.13664 0.0
C1325 C 0.58751 0.76017 0.17339 0.0
C1326 C 0.58689 0.77319 0.07215 0.0
C1327 C 0.57505 0.76092 0.15674 0.0
C1328 C 0.57614 0.78579 0.01577 0.0
C1329 C 0.59982 0.79602 0.94252 0.0
N1330 N 0.57513 0.76749 0.10766 0.0
N1331 N 0.59835 0.78682 0.98531 0.0
H1332 H 0.22022 0.84005 0.15791 0.0
H1333 H 0.17966 0.76541 0.98206 0.0
H1334 H 0.22397 0.80156 0.19463 0.0
H1335 H 0.18319 0.80647 0.92665 0.0
H1336 H 0.19717 0.77888 0.05692 0.0
H1337 H 0.20797 0.82852 0.06984 0.0
C1338 C 0.21861 0.82925 0.14716 0.0
C1339 C 0.22296 0.82168 0.18393 0.0
C1340 C 0.19425 0.78498 0.02799 0.0
C1341 C 0.20885 0.80836 0.08358 0.0
C1342 C 0.18423 0.77728 0.98525 0.0
C1343 C 0.17981 0.78479 0.94836 0.0
C1344 C 0.19977 0.80027 0.03436 0.0
C1345 C 0.1862 0.8002 0.95429 0.0
C1346 C 0.21163 0.82267 0.09686 0.0
C1347 C 0.22069 0.80774 0.16774 0.0
N1348 N 0.19571 0.8074 -0.00305 0.0
N1349 N 0.21363 0.80146 0.11909 0.0
H1350 H 0.22223 0.43002 0.01869 0.0
H1351 H 0.14656 0.37958 0.18128 0.0
H1352 H 0.18995 0.38552 0.96892 0.0
H1353 H 0.17814 0.42459 0.228 0.0
H1354 H 0.16078 0.38267 0.09611 0.0
H1355 H 0.20476 0.42946 0.08808 0.0
C1356 C 0.2114 0.42022 0.0218 0.0
C1357 C 0.20761 0.40774 0.9885 0.0
C1358 C 0.16452 0.39193 0.1247 0.0
C1359 C 0.18763 0.40694 0.0681 0.0
C1360 C 0.15639 0.39017 0.17331 0.0
C1361 C 0.16128 0.40178 0.21214 0.0
C1362 C 0.17767 0.40537 0.11504 0.0
C1363 C 0.17405 0.41528 0.19951 0.0
C1364 C 0.20143 0.41988 0.0615 0.0
C1365 C 0.1934 0.39535 0.99414 0.0
N1366 N 0.18188 0.41665 0.15238 0.0
N1367 N 0.18399 0.3952 0.03363 0.0
H1368 H 0.22237 0.38343 0.69329 0.0
H1369 H 0.1796 0.415 0.51681 0.0
H1370 H 0.22149 0.42314 0.73733 0.0
H1371 H 0.18624 0.37954 0.45864 0.0
H1372 H 0.19593 0.41886 0.59563 0.0
H1373 H 0.21002 0.38234 0.60514 0.0
C1374 C 0.21966 0.39197 0.68425 0.0
C1375 C 0.22285 0.40332 0.72284 0.0
C1376 C 0.19394 0.41033 0.56533 0.0
C1377 C 0.20869 0.40213 0.62235 0.0
C1378 C 0.18461 0.40812 0.52028 0.0
C1379 C 0.18144 0.39684 0.48128 0.0
C1380 C 0.20004 0.40111 0.57183 0.0
C1381 C 0.18832 0.38833 0.48778 0.0
C1382 C 0.21264 0.39136 0.6339 0.0
C1383 C 0.21917 0.41414 0.70891 0.0
N1384 N 0.19717 0.39053 0.53256 0.0
N1385 N 0.21218 0.41321 0.66002 0.0
H1386 H 0.56275 0.80362 0.69161 0.0
H1387 H 0.60684 0.8092 0.41102 0.0
H1388 H 0.60459 0.84172 0.64702 0.0
H1389 H 0.57075 0.7683 0.47527 0.0
H1390 H 0.60313 0.82262 0.48717 0.0
H1391 H 0.5627 0.79203 0.60273 0.0
C1392 C 0.57186 0.80962 0.66287 0.0
C1393 C 0.5838 0.82358 0.67704 0.0
C1394 C 0.59593 0.81073 0.48423 0.0
C1395 C 0.58378 0.81037 0.57527 0.0
C1396 C 0.59799 0.80305 0.44063 0.0
C1397 C 0.58921 0.78755 0.43713 0.0
C1398 C 0.58498 0.80289 0.52451 0.0
C1399 C 0.57789 0.78021 0.47663 0.0
C1400 C 0.57183 0.80298 0.61218 0.0
C1401 C 0.59524 0.83088 0.638 0.0
N1402 N 0.57618 0.78794 0.51895 0.0
N1403 N 0.595 0.82414 0.58903 0.0
H1404 H 0.17567 0.75502 0.7024 0.0
H1405 H 0.17375 0.79488 0.41999 0.0
H1406 H 0.13963 0.76178 0.65587 0.0
H1407 H 0.21311 0.79686 0.48593 0.0
H1408 H 0.15948 0.77824 0.49614 0.0
H1409 H 0.18777 0.7659 0.61353 0.0
C1410 C 0.17022 0.75865 0.67325 0.0
C1411 C 0.15671 0.75767 0.68685 0.0
C1412 C 0.17121 0.7822 0.49357 0.0
C1413 C 0.17051 0.77012 0.58511 0.0
C1414 C 0.17938 0.79166 0.44997 0.0
C1415 C 0.19472 0.79746 0.44696 0.0
C1416 C 0.1784 0.77845 0.53433 0.0
C1417 C 0.20135 0.79281 0.48692 0.0
C1418 C 0.17715 0.76488 0.62257 0.0
C1419 C 0.15012 0.76246 0.6473 0.0
N1420 N 0.19317 0.78368 0.52923 0.0
N1421 N 0.15714 0.76858 0.59835 0.0
H1422 H 0.08207 0.56472 0.11683 0.0
H1423 H 0.0426 0.52846 0.40698 0.0
H1424 H 0.04043 0.56002 0.16925 0.0
H1425 H 0.07766 0.52332 0.33502 0.0
H1426 H 0.04509 0.54491 0.33007 0.0
H1427 H 0.08375 0.5543 0.2061 0.0
C1428 C 0.07335 0.56164 0.14734 0.0
C1429 C 0.06099 0.56305 0.13532 0.0
C1430 C 0.05235 0.54031 0.33149 0.0
C1431 C 0.06288 0.55116 0.23753 0.0
C1432 C 0.05099 0.53095 0.37552 0.0
C1433 C 0.05979 0.52429 0.37707 0.0
C1434 C 0.06263 0.54309 0.28878 0.0
C1435 C 0.07052 0.52805 0.33523 0.0
C1436 C 0.07432 0.55568 0.19825 0.0
C1437 C 0.05008 0.55898 0.17657 0.0
N1438 N 0.07154 0.53709 0.29249 0.0
N1439 N 0.05123 0.55312 0.22574 0.0
H1440 H 0.42235 0.51924 0.10652 0.0
H1441 H 0.46282 0.51484 0.38267 0.0
H1442 H 0.42944 0.4828 0.14404 0.0
H1443 H 0.46554 0.55508 0.32137 0.0
H1444 H 0.44571 0.50109 0.30695 0.0
H1445 H 0.43328 0.53045 0.19644 0.0
C1446 C 0.42605 0.5135 0.13395 0.0
C1447 C 0.42518 0.50017 0.11742 0.0
C1448 C 0.44993 0.5129 0.31052 0.0
C1449 C 0.4377 0.51296 0.22037 0.0
C1450 C 0.45966 0.52076 0.35387 0.0
C1451 C 0.4658 0.53619 0.35794 0.0
C1452 C 0.44625 0.52049 0.2712 0.0
C1453 C 0.46123 0.54323 0.31947 0.0
C1454 C 0.43231 0.51993 0.18523 0.0
C1455 C 0.43004 0.49317 0.15489 0.0
N1456 N 0.45182 0.53535 0.27744 0.0
N1457 N 0.43622 0.49972 0.20449 0.0
H1458 H 0.46437 0.89679 0.11978 0.0
H1459 H 0.46772 0.93898 0.40342 0.0
H1460 H 0.50143 0.93904 0.16797 0.0
H1461 H 0.42767 0.90235 0.33652 0.0
H1462 H 0.48164 0.93611 0.32728 0.0
H1463 H 0.45235 0.89585 0.20855 0.0
C1464 C 0.47005 0.90581 0.14928 0.0
C1465 C 0.48384 0.91812 0.13618 0.0
C1466 C 0.46983 0.92861 0.32962 0.0
C1467 C 0.47013 0.91708 0.23779 0.0
C1468 C 0.46186 0.93019 0.37321 0.0
C1469 C 0.44644 0.92102 0.37598 0.0
C1470 C 0.46237 0.91775 0.28857 0.0
C1471 C 0.43951 0.90978 0.33574 0.0
C1472 C 0.46316 0.90526 0.19989 0.0
C1473 C 0.49073 0.92941 0.17615 0.0
N1474 N 0.4475 0.90855 0.29341 0.0
N1475 N 0.48375 0.92868 0.22502 0.0
H1476 H 0.23128 0.38164 0.07951 0.0
H1477 H 0.2043 0.29844 0.17416 0.0
H1478 H 0.23096 0.34874 0.96883 0.0
H1479 H 0.20175 0.33108 0.27751 0.0
H1480 H 0.21748 0.3175 0.10316 0.0
H1481 H 0.22376 0.36405 0.15634 0.0
C1482 C 0.22971 0.37072 0.07139 0.0
C1483 C 0.23161 0.3666 0.01746 0.0
C1484 C 0.21418 0.32051 0.14167 0.0
C1485 C 0.2229 0.3463 0.10562 0.0
C1486 C 0.20672 0.30965 0.1824 0.0
C1487 C 0.20175 0.31311 0.23168 0.0
C1488 C 0.21672 0.33492 0.15037 0.0
C1489 C 0.20522 0.32784 0.23997 0.0
C1490 C 0.22542 0.36066 0.11541 0.0
C1491 C 0.22954 0.35234 0.00968 0.0
N1492 N 0.21236 0.33815 0.19956 0.0
N1493 N 0.22516 0.34264 0.05322 0.0
H1494 H 0.69616 0.90639 0.12852 0.0
H1495 H 0.61515 0.86631 -0.0032 0.0
H1496 H 0.65666 0.87828 0.22327 0.0
H1497 H 0.65451 0.87807 0.90084 0.0
H1498 H 0.63043 0.87706 0.07994 0.0
H1499 H 0.68097 0.90226 0.0455 0.0
C1500 C 0.68427 0.89957 0.13222 0.0
C1501 C 0.67768 0.89253 0.1829 0.0
C1502 C 0.63571 0.87748 0.04046 0.0
C1503 C 0.66029 0.88785 0.08796 0.0
C1504 C 0.62703 0.87143 0.99283 0.0
C1505 C 0.63355 0.87112 0.94179 0.0
C1506 C 0.65104 0.88343 0.03694 0.0
C1507 C 0.649 0.87793 0.93939 0.0
C1508 C 0.67564 0.89718 0.08469 0.0
C1509 C 0.66222 0.88381 0.18499 0.0
N1510 N 0.65722 0.88371 0.98642 0.0
N1511 N 0.65405 0.88165 0.13808 0.0
H1512 H 0.11315 0.74848 0.00368 0.0
H1513 H 0.07723 0.794 0.13115 0.0
H1514 H 0.10514 0.77864 0.90668 0.0
H1515 H 0.1025 0.77968 0.22856 0.0
H1516 H 0.08085 0.78233 0.04852 0.0
H1517 H 0.1025 0.75375 0.08548 0.0
C1518 C 0.10886 0.75596 -0.00084 0.0
C1519 C 0.11021 0.76328 0.94831 0.0
C1520 C 0.08541 0.78157 0.08821 0.0
C1521 C 0.09803 0.76931 0.04188 0.0
C1522 C 0.0833 0.78816 0.13548 0.0
C1523 C 0.08972 0.78795 0.1868 0.0
C1524 C 0.09381 0.77454 0.0924 0.0
C1525 C 0.09749 0.78024 0.18976 0.0
C1526 C 0.10288 0.75902 0.04602 0.0
C1527 C 0.10447 0.77287 0.94515 0.0
N1528 N 0.09938 0.7739 0.14311 0.0
N1529 N 0.09872 0.7757 0.99145 0.0
H1530 H 0.28719 0.20393 0.35201 0.0
H1531 H 0.36818 0.2408 0.48279 0.0
H1532 H 0.32594 0.21321 0.25638 0.0
H1533 H 0.32834 0.21443 0.57828 0.0
H1534 H 0.35313 0.23733 0.3999 0.0
H1535 H 0.30273 0.21452 0.43471 0.0
C1536 C 0.29901 0.20849 0.34799 0.0
C1537 C 0.30526 0.20751 0.29725 0.0
C1538 C 0.34771 0.2325 0.43924 0.0
C1539 C 0.32303 0.21964 0.39183 0.0
C1540 C 0.35626 0.23452 0.48668 0.0
C1541 C 0.34951 0.22774 0.5375 0.0
C1542 C 0.33229 0.22382 0.44275 0.0
C1543 C 0.33402 0.21972 0.53987 0.0
C1544 C 0.30783 0.21444 0.39536 0.0
C1545 C 0.32063 0.2136 0.29474 0.0
N1546 N 0.32592 0.21791 0.49304 0.0
N1547 N 0.32899 0.21931 0.34151 0.0
H1548 H 0.76775 0.12424 0.54653 0.0
H1549 H 0.76924 0.11266 0.22454 0.0
H1550 H 0.73305 0.12156 0.44124 0.0
H1551 H 0.78408 0.09103 0.33971 0.0
H1552 H 0.75685 0.11743 0.30223 0.0
H1553 H 0.77511 0.11337 0.47092 0.0
C1554 C 0.76156 0.12116 0.50777 0.0
C1555 C 0.74979 0.12379 0.5 0.0
C1556 C 0.76263 0.11143 0.31019 0.0
C1557 C 0.75837 0.11176 0.4132 0.0
C1558 C 0.76973 0.10875 0.266 0.0
C1559 C 0.77773 0.10148 0.27575 0.0
C1560 C 0.76391 0.10718 0.36463 0.0
C1561 C 0.778 0.09664 0.3303 0.0
C1562 C 0.76574 0.11495 0.46477 0.0
C1563 C 0.74215 0.11964 0.44895 0.0
N1564 N 0.77142 0.09982 0.37292 0.0
N1565 N 0.74675 0.11408 0.40701 0.0
H1566 H 0.87216 0.6617 0.25808 0.0
H1567 H 0.8734 0.66332 0.58721 0.0
H1568 H 0.89963 0.70176 0.3514 0.0
H1569 H 0.86044 0.62322 0.49347 0.0
H1570 H 0.88385 0.67771 0.5017 0.0
H1571 H 0.86839 0.64729 0.34337 0.0
C1572 C 0.87758 0.66745 0.29625 0.0
C1573 C 0.8861 0.68298 0.29765 0.0
C1574 C 0.87893 0.66578 0.50008 0.0
C1575 C 0.88163 0.66658 0.39555 0.0
C1576 C 0.87295 0.65755 0.54889 0.0
C1577 C 0.8659 0.64203 0.54745 0.0
C1578 C 0.8776 0.6584 0.44931 0.0
C1579 C 0.86571 0.63516 0.49657 0.0
C1580 C 0.87544 0.65922 0.34492 0.0
C1581 C 0.89292 0.68982 0.34833 0.0
N1582 N 0.87123 0.64337 0.44936 0.0
N1583 N 0.89032 0.68161 0.39544 0.0
H1584 H 0.77346 0.66202 0.75948 0.0
H1585 H 0.775 0.66336 0.08868 0.0
H1586 H 0.78622 0.70201 0.85369 0.0
H1587 H 0.74729 0.62339 0.99523 0.0
H1588 H 0.7788 0.67784 0.00351 0.0
H1589 H 0.76323 0.64756 0.84501 0.0
C1590 C 0.77391 0.66775 0.79792 0.0
C1591 C 0.78083 0.68327 0.79945 0.0
C1592 C 0.7717 0.66592 0.00191 0.0
C1593 C 0.76938 0.66681 0.89762 0.0
C1594 C 0.76954 0.65765 0.05051 0.0
C1595 C 0.76092 0.64213 0.04905 0.0
C1596 C 0.76543 0.6586 0.95131 0.0
C1597 C 0.75407 0.63533 -0.00163 0.0
C1598 C 0.76805 0.65948 0.84673 0.0
C1599 C 0.78104 0.69007 0.85049 0.0
N1600 N 0.75667 0.64358 0.95133 0.0
N1601 N 0.77565 0.68183 0.89771 0.0
H1602 H 0.36166 0.11864 0.9872 0.0
H1603 H 0.28082 0.08052 0.85451 0.0
H1604 H 0.32261 0.1091 0.08125 0.0
H1605 H 0.32077 0.10708 0.75986 0.0
H1606 H 0.29578 0.08408 0.93783 0.0
H1607 H 0.34629 0.10744 0.9046 0.0
C1608 C 0.34982 0.1139 0.99093 0.0
C1609 C 0.34344 0.115 0.04116 0.0
C1610 C 0.30124 0.0889 0.89855 0.0
C1611 C 0.32583 0.10216 0.94665 0.0
C1612 C 0.29274 0.08682 0.85085 0.0
C1613 C 0.29955 0.09367 0.80018 0.0
C1614 C 0.31666 0.09772 0.89543 0.0
C1615 C 0.31505 0.10173 0.79814 0.0
C1616 C 0.34108 0.10759 0.94361 0.0
C1617 C 0.32802 0.10865 0.04329 0.0
N1618 N 0.32308 0.10362 0.84521 0.0
N1619 N 0.31975 0.1026 -0.00346 0.0
H1620 H 0.90252 0.19346 0.84037 0.0
H1621 H 0.8681 0.23997 0.97125 0.0
H1622 H 0.87826 0.2092 0.74415 0.0
H1623 H 0.87499 0.2087 0.06583 0.0
H1624 H 0.87872 0.23483 0.88906 0.0
H1625 H 0.89922 0.20511 0.92372 0.0
C1626 C 0.89675 0.19961 0.83645 0.0
C1627 C 0.89049 0.2002 0.78526 0.0
C1628 C 0.8781 0.22928 0.92809 0.0
C1629 C 0.88677 0.21358 0.88049 0.0
C1630 C 0.87212 0.23226 0.97516 0.0
C1631 C 0.87046 0.22459 0.02541 0.0
C1632 C 0.88263 0.21873 0.93142 0.0
C1633 C 0.8759 0.21473 0.02782 0.0
C1634 C 0.89483 0.20618 0.88414 0.0
C1635 C 0.88312 0.20833 0.78284 0.0
N1636 N 0.88164 0.21199 0.98132 0.0
N1637 N 0.88139 0.21463 0.82991 0.0
H1638 H 0.65897 0.78165 0.73063 0.0
H1639 H 0.6574 0.78072 0.40182 0.0
H1640 H 0.69793 0.79349 0.63196 0.0
H1641 H 0.61843 0.75324 0.50019 0.0
H1642 H 0.67255 0.78519 0.48533 0.0
H1643 H 0.64379 0.77069 0.64723 0.0
C1644 C 0.66432 0.78175 0.69168 0.0
C1645 C 0.67976 0.78862 0.68822 0.0
C1646 C 0.6607 0.77798 0.48839 0.0
C1647 C 0.66249 0.77634 0.59253 0.0
C1648 C 0.65205 0.77545 0.44076 0.0
C1649 C 0.63662 0.7667 0.44409 0.0
C1650 C 0.65385 0.77196 0.53992 0.0
C1651 C 0.63028 0.7601 0.49566 0.0
C1652 C 0.65565 0.77547 0.64411 0.0
C1653 C 0.68608 0.78836 0.63662 0.0
N1654 N 0.6389 0.76308 0.54176 0.0
N1655 N 0.67744 0.78257 0.59061 0.0
H1656 H 0.20071 0.90952 0.6425 0.0
H1657 H 0.20733 0.87522 0.40606 0.0
H1658 H 0.20385 0.87469 0.72756 0.0
H1659 H 0.23256 0.86186 0.50851 0.0
H1660 H 0.20402 0.88751 0.4871 0.0
H1661 H 0.21113 0.90485 0.55873 0.0
C1662 C 0.20378 0.90102 0.64391 0.0
C1663 C 0.2011 0.89227 0.69192 0.0
C1664 C 0.21065 0.88228 0.49158 0.0
C1665 C 0.2127 0.88665 0.59558 0.0
C1666 C 0.21244 0.87514 0.44532 0.0
C1667 C 0.22019 0.86745 0.4505 0.0
C1668 C 0.2165 0.88157 0.54362 0.0
C1669 C 0.22652 0.86767 0.50253 0.0
C1670 C 0.20956 0.89825 0.59575 0.0
C1671 C 0.20548 0.88155 0.69129 0.0
N1672 N 0.22429 0.87436 0.54734 0.0
N1673 N 0.21094 0.87895 0.64367 0.0
H1674 H 0.10924 0.32706 0.42171 0.0
H1675 H 0.10499 0.32161 0.74946 0.0
H1676 H 0.11659 0.36406 0.52551 0.0
H1677 H 0.08086 0.28303 0.64475 0.0
H1678 H 0.10901 0.3374 0.6681 0.0
H1679 H 0.09825 0.31056 0.50203 0.0
C1680 C 0.10832 0.33168 0.4611 0.0
C1681 C 0.11397 0.34699 0.46697 0.0
C1682 C 0.10263 0.32548 0.66314 0.0
C1683 C 0.10168 0.32822 0.55922 0.0
C1684 C 0.10036 0.31646 0.70953 0.0
C1685 C 0.09267 0.30098 0.70383 0.0
C1686 C 0.09744 0.31897 0.61042 0.0
C1687 C 0.08687 0.29491 0.65108 0.0
C1688 C 0.10203 0.32225 0.50691 0.0
C1689 C 0.11243 0.35234 0.51902 0.0
N1690 N 0.0896 0.30392 0.6062 0.0
N1691 N 0.10668 0.34302 0.56338 0.0
H1692 H 0.98736 0.54156 0.91981 0.0
H1693 H 0.98399 0.54169 0.59121 0.0
H1694 H 0.02528 0.57071 0.8194 0.0
H1695 H 0.94519 0.52813 0.69306 0.0
H1696 H -0.0006 0.55262 0.67412 0.0
H1697 H 0.97156 0.53669 0.8379 0.0
C1698 C -0.00766 0.54712 0.88084 0.0
C1699 C 0.00769 0.55646 0.87642 0.0
C1700 C 0.98752 0.54746 0.6781 0.0
C1701 C 0.98972 0.55071 0.78237 0.0
C1702 C 0.97872 0.54119 0.63081 0.0
C1703 C 0.96327 0.53389 0.63523 0.0
C1704 C 0.98081 0.54615 0.73037 0.0
C1705 C 0.95705 0.53362 0.68766 0.0
C1706 C 0.98331 0.54435 0.83411 0.0
C1707 C 0.01351 0.5634 0.82481 0.0
N1708 N 0.96582 0.53943 0.73335 0.0
N1709 N 0.00456 0.56018 0.77958 0.0
H1710 H 0.41909 0.46153 0.7921 0.0
H1711 H 0.45941 0.41958 0.67063 0.0
H1712 H 0.44587 0.44973 0.89271 0.0
H1713 H 0.44838 0.44701 0.57005 0.0
H1714 H 0.44851 0.42472 0.75202 0.0
H1715 H 0.42386 0.4503 0.71079 0.0
C1716 C 0.42575 0.45634 0.79741 0.0
C1717 C 0.43223 0.45672 0.84926 0.0
C1718 C 0.44832 0.42944 0.71193 0.0
C1719 C 0.43767 0.44385 0.75629 0.0
C1720 C 0.45446 0.42646 0.66534 0.0
C1721 C 0.45495 0.43301 0.61347 0.0
C1722 C 0.44245 0.43887 0.70652 0.0
C1723 C 0.44837 0.44185 0.6093 0.0
C1724 C 0.42852 0.45001 0.75086 0.0
C1725 C 0.44077 0.44983 0.85347 0.0
N1726 N 0.44246 0.44459 0.65531 0.0
N1727 N 0.44332 0.44374 0.80749 0.0
H1728 H 0.52838 0.95293 0.82162 0.0
H1729 H 0.56615 0.03519 0.69937 0.0
H1730 H 0.53719 0.99109 0.92112 0.0
H1731 H 0.54046 -0.00409 0.59958 0.0
H1732 H 0.56213 0.01948 0.78098 0.0
H1733 H 0.53953 0.96915 0.74087 0.0
C1734 C 0.53295 0.96475 0.82691 0.0
C1735 C 0.53167 0.97063 0.87814 0.0
C1736 C 0.55757 0.01433 0.74099 0.0
C1737 C 0.54443 0.9892 0.78578 0.0
C1738 C 0.55991 0.02326 0.69429 0.0
C1739 C 0.55348 0.01685 0.64263 0.0
C1740 C 0.54893 -0.00112 0.73585 0.0
C1741 C 0.54548 0.00133 0.63869 0.0
C1742 C 0.53922 0.97397 0.78065 0.0
C1743 C 0.53779 0.98605 0.88232 0.0
N1744 N 0.54336 0.99287 0.68479 0.0
N1745 N 0.54381 0.9948 0.83658 0.0
H1746 H 0.44776 0.03055 0.19149 0.0
H1747 H 0.41001 0.94832 0.31405 0.0
H1748 H 0.43859 0.99229 0.09191 0.0
H1749 H 0.43604 0.98761 0.41336 0.0
H1750 H 0.41386 0.96402 0.23256 0.0
H1751 H 0.4367 0.01438 0.27244 0.0
C1752 C 0.44313 0.01872 0.18623 0.0
C1753 C 0.44428 0.01279 0.13492 0.0
C1754 C 0.41853 0.96918 0.27243 0.0
C1755 C 0.43163 0.99428 0.22749 0.0
C1756 C 0.4163 0.96025 0.31906 0.0
C1757 C 0.42287 0.96667 0.37053 0.0
C1758 C 0.42722 0.98462 0.27745 0.0
C1759 C 0.43092 0.98219 0.37439 0.0
C1760 C 0.43691 0.00953 0.23259 0.0
C1761 C 0.43808 -0.00264 0.13077 0.0
N1762 N 0.43294 0.99065 0.32835 0.0
N1763 N 0.43212 0.98864 0.17661 0.0
H1764 H -0.00814 0.44941 0.41494 0.0
H1765 H 0.98838 0.45003 0.08631 0.0
H1766 H 0.0304 0.46208 0.31254 0.0
H1767 H 0.95026 0.42134 0.18669 0.0
H1768 H 0.00411 0.45463 0.16826 0.0
H1769 H 0.97631 0.43895 0.33205 0.0
C1770 C -0.00297 0.4498 0.37521 0.0
C1771 C 0.01245 0.45671 0.37061 0.0
C1772 C -0.00768 0.44715 0.17204 0.0
C1773 C -0.00523 0.44503 0.27556 0.0
C1774 C 0.98334 0.44454 0.12532 0.0
C1775 C 0.96797 0.43538 0.12972 0.0
C1776 C 0.98585 0.44078 0.2237 0.0
C1777 C 0.96205 0.42852 0.18134 0.0
C1778 C 0.98816 0.44382 0.32795 0.0
C1779 C 0.01856 0.45687 0.31806 0.0
N1780 N 0.97097 0.43155 0.22653 0.0
N1781 N 0.00972 0.45135 0.2724 0.0
H1782 H 0.5417 0.53991 0.06567 0.0
H1783 H 0.54079 0.54313 0.39452 0.0
H1784 H 0.56892 0.52899 0.16762 0.0
H1785 H 0.52927 0.56981 0.29165 0.0
H1786 H 0.55139 0.53794 0.31223 0.0
H1787 H 0.53711 0.55115 0.14755 0.0
C1788 C 0.54687 0.54006 0.10504 0.0
C1789 C 0.55561 0.5334 0.10986 0.0
C1790 C 0.54675 0.54512 0.3079 0.0
C1791 C 0.55022 0.546 0.2038 0.0
C1792 C 0.54068 0.54807 0.35484 0.0
C1793 C 0.53403 0.55682 0.34992 0.0
C1794 C 0.5459 0.55073 0.25551 0.0
C1795 C 0.53425 0.56298 0.29743 0.0
C1796 C 0.54428 0.54649 0.15173 0.0
C1797 C 0.56208 0.53396 0.16194 0.0
N1798 N 0.53985 0.55961 0.25208 0.0
N1799 N 0.55906 0.53992 0.20708 0.0
loop_
_geom_bond_atom_site_label_1
_geom_bond_atom_site_label_2
_geom_bond_distance
_geom_bond_site_symmetry_2
_ccdc_geom_bond_type
C0 O1 1.306 . S
C0 O3 1.160 . S
O1 C0 1.306 . S
O1 Cd2 2.228 . S
Cd2 O1 2.228 . S
Cd2 O6 2.273 . S
Cd2 O10 2.277 . S
O3 C0 1.160 . S
O3 Cd4 2.203 . S
Cd4 O3 2.203 . S
Cd4 O6 2.411 . S
Cd4 O7 2.333 . S
Cd4 O8 2.352 . S
Cd4 O12 2.277 . S
Cd4 O13 2.356 . S
C5 O10 1.209 . S
C5 O12 1.226 . S
O6 Cd2 2.273 . S
O6 Cd4 2.411 . S
O6 C9 1.320 . S
O7 Cd4 2.333 . S
O7 C9 1.214 . S
O8 Cd4 2.352 . S
O8 C11 1.258 . S
C9 O6 1.320 . S
C9 O7 1.214 . S
O10 Cd2 2.277 . S
O10 C5 1.209 . S
C11 O8 1.258 . S
C11 O13 1.282 . S
O12 Cd4 2.277 . S
O12 C5 1.226 . S
O13 Cd4 2.356 . S
O13 C11 1.282 . S
C14 O15 1.306 . S
C14 O17 1.160 . S
O15 C14 1.306 . S
O15 Cd16 2.228 . S
Cd16 O15 2.228 . S
Cd16 O20 2.273 . S
Cd16 O24 2.277 . S
O17 C14 1.160 . S
O17 Cd18 2.203 . S
Cd18 O17 2.203 . S
Cd18 O20 2.411 . S
Cd18 O21 2.333 . S
Cd18 O22 2.352 . S
Cd18 O26 2.277 . S
Cd18 O27 2.356 . S
C19 O24 1.209 . S
C19 O26 1.226 . S
O20 Cd16 2.273 . S
O20 Cd18 2.411 . S
O20 C23 1.320 . S
O21 Cd18 2.333 . S
O21 C23 1.214 . S
O22 Cd18 2.352 . S
O22 C25 1.258 . S
C23 O20 1.320 . S
C23 O21 1.214 . S
O24 Cd16 2.277 . S
O24 C19 1.209 . S
C25 O22 1.258 . S
C25 O27 1.282 . S
O26 Cd18 2.277 . S
O26 C19 1.226 . S
O27 Cd18 2.356 . S
O27 C25 1.282 . S
C28 O29 1.306 . S
C28 O31 1.160 . S
O29 C28 1.306 . S
O29 Cd30 2.228 . S
Cd30 O29 2.228 . S
Cd30 O34 2.273 . S
Cd30 O38 2.277 . S
O31 C28 1.160 . S
O31 Cd32 2.203 . S
Cd32 O31 2.203 . S
Cd32 O34 2.411 . S
Cd32 O35 2.333 . S
Cd32 O36 2.352 . S
Cd32 O40 2.277 . S
Cd32 O41 2.356 . S
C33 O38 1.209 . S
C33 O40 1.226 . S
O34 Cd30 2.273 . S
O34 Cd32 2.411 . S
O34 C37 1.320 . S
O35 Cd32 2.333 . S
O35 C37 1.214 . S
O36 Cd32 2.352 . S
O36 C39 1.258 . S
C37 O34 1.320 . S
C37 O35 1.214 . S
O38 Cd30 2.277 . S
O38 C33 1.209 . S
C39 O36 1.258 . S
C39 O41 1.282 . S
O40 Cd32 2.277 . S
O40 C33 1.226 . S
O41 Cd32 2.356 . S
O41 C39 1.282 . S
C42 O43 1.306 . S
C42 O45 1.160 . S
O43 C42 1.306 . S
O43 Cd44 2.228 . S
Cd44 O43 2.228 . S
Cd44 O48 2.273 . S
Cd44 O52 2.277 . S
O45 C42 1.160 . S
O45 Cd46 2.203 . S
Cd46 O45 2.203 . S
Cd46 O48 2.411 . S
Cd46 O49 2.333 . S
Cd46 O50 2.352 . S
Cd46 O54 2.277 . S
Cd46 O55 2.356 . S
C47 O52 1.209 . S
C47 O54 1.226 . S
O48 Cd44 2.273 . S
O48 Cd46 2.411 . S
O48 C51 1.320 . S
O49 Cd46 2.333 . S
O49 C51 1.214 . S
O50 Cd46 2.352 . S
O50 C53 1.258 . S
C51 O48 1.320 . S
C51 O49 1.214 . S
O52 Cd44 2.277 . S
O52 C47 1.209 . S
C53 O50 1.258 . S
C53 O55 1.282 . S
O54 Cd46 2.277 . S
O54 C47 1.226 . S
O55 Cd46 2.356 . S
O55 C53 1.282 . S
C56 O57 1.306 . S
C56 O59 1.160 . S
O57 C56 1.306 . S
O57 Cd58 2.228 . S
Cd58 O57 2.228 . S
Cd58 O62 2.273 . S
Cd58 O66 2.277 . S
O59 C56 1.160 . S
O59 Cd60 2.203 . S
Cd60 O59 2.203 . S
Cd60 O62 2.411 . S
Cd60 O63 2.333 . S
Cd60 O64 2.352 . S
Cd60 O68 2.277 . S
Cd60 O69 2.356 . S
C61 O66 1.209 . S
C61 O68 1.226 . S
O62 Cd58 2.273 . S
O62 Cd60 2.411 . S
O62 C65 1.320 . S
O63 Cd60 2.333 . S
O63 C65 1.214 . S
O64 Cd60 2.352 . S
O64 C67 1.258 . S
C65 O62 1.320 . S
C65 O63 1.214 . S
O66 Cd58 2.277 . S
O66 C61 1.209 . S
C67 O64 1.258 . S
C67 O69 1.282 . S
O68 Cd60 2.277 . S
O68 C61 1.226 . S
O69 Cd60 2.356 . S
O69 C67 1.282 . S
C70 O71 1.306 . S
C70 O73 1.160 . S
O71 C70 1.306 . S
O71 Cd72 2.228 . S
Cd72 O71 2.228 . S
Cd72 O76 2.273 . S
Cd72 O80 2.277 . S
O73 C70 1.160 . S
O73 Cd74 2.203 . S
Cd74 O73 2.203 . S
Cd74 O76 2.411 . S
Cd74 O77 2.333 . S
Cd74 O78 2.352 . S
Cd74 O82 2.277 . S
Cd74 O83 2.356 . S
C75 O80 1.209 . S
C75 O82 1.226 . S
O76 Cd72 2.273 . S
O76 Cd74 2.411 . S
O76 C79 1.320 . S
O77 Cd74 2.333 . S
O77 C79 1.214 . S
O78 Cd74 2.352 . S
O78 C81 1.258 . S
C79 O76 1.320 . S
C79 O77 1.214 . S
O80 Cd72 2.277 . S
O80 C75 1.209 . S
C81 O78 1.258 . S
C81 O83 1.282 . S
O82 Cd74 2.277 . S
O82 C75 1.226 . S
O83 Cd74 2.356 . S
O83 C81 1.282 . S
C84 O85 1.306 . S
C84 O87 1.160 . S
O85 C84 1.306 . S
O85 Cd86 2.228 . S
Cd86 O85 2.228 . S
Cd86 O90 2.273 . S
Cd86 O94 2.277 . S
O87 C84 1.160 . S
O87 Cd88 2.203 . S
Cd88 O87 2.203 . S
Cd88 O90 2.411 . S
Cd88 O91 2.333 . S
Cd88 O92 2.352 . S
Cd88 O96 2.277 . S
Cd88 O97 2.356 . S
C89 O94 1.209 . S
C89 O96 1.226 . S
O90 Cd86 2.273 . S
O90 Cd88 2.411 . S
O90 C93 1.320 . S
O91 Cd88 2.333 . S
O91 C93 1.214 . S
O92 Cd88 2.352 . S
O92 C95 1.258 . S
C93 O90 1.320 . S
C93 O91 1.214 . S
O94 Cd86 2.277 . S
O94 C89 1.209 . S
C95 O92 1.258 . S
C95 O97 1.282 . S
O96 Cd88 2.277 . S
O96 C89 1.226 . S
O97 Cd88 2.356 . S
O97 C95 1.282 . S
C98 O99 1.306 . S
C98 O101 1.160 . S
O99 C98 1.306 . S
O99 Cd100 2.228 . S
Cd100 O99 2.228 . S
Cd100 O104 2.273 . S
Cd100 O108 2.277 . S
O101 C98 1.160 . S
O101 Cd102 2.203 . S
Cd102 O101 2.203 . S
Cd102 O104 2.411 . S
Cd102 O105 2.333 . S
Cd102 O106 2.352 . S
Cd102 O110 2.277 . S
Cd102 O111 2.356 . S
C103 O108 1.209 . S
C103 O110 1.226 . S
O104 Cd100 2.273 . S
O104 Cd102 2.411 . S
O104 C107 1.320 . S
O105 Cd102 2.333 . S
O105 C107 1.214 . S
O106 Cd102 2.352 . S
O106 C109 1.258 . S
C107 O104 1.320 . S
C107 O105 1.214 . S
O108 Cd100 2.277 . S
O108 C103 1.209 . S
C109 O106 1.258 . S
C109 O111 1.282 . S
O110 Cd102 2.277 . S
O110 C103 1.226 . S
O111 Cd102 2.356 . S
O111 C109 1.282 . S
C112 O113 1.306 . S
C112 O115 1.160 . S
O113 C112 1.306 . S
O113 Cd114 2.228 . S
Cd114 O113 2.228 . S
Cd114 O118 2.273 . S
Cd114 O122 2.277 . S
O115 C112 1.160 . S
O115 Cd116 2.203 . S
Cd116 O115 2.203 . S
Cd116 O118 2.411 . S
Cd116 O119 2.333 . S
Cd116 O120 2.352 . S
Cd116 O124 2.277 . S
Cd116 O125 2.356 . S
C117 O122 1.209 . S
C117 O124 1.226 . S
O118 Cd114 2.273 . S
O118 Cd116 2.411 . S
O118 C121 1.320 . S
O119 Cd116 2.333 . S
O119 C121 1.214 . S
O120 Cd116 2.352 . S
O120 C123 1.258 . S
C121 O118 1.320 . S
C121 O119 1.214 . S
O122 Cd114 2.277 . S
O122 C117 1.209 . S
C123 O120 1.258 . S
C123 O125 1.282 . S
O124 Cd116 2.277 . S
O124 C117 1.226 . S
O125 Cd116 2.356 . S
O125 C123 1.282 . S
C126 O127 1.306 . S
C126 O129 1.160 . S
O127 C126 1.306 . S
O127 Cd128 2.228 . S
Cd128 O127 2.228 . S
Cd128 O132 2.273 . S
Cd128 O136 2.277 . S
O129 C126 1.160 . S
O129 Cd130 2.203 . S
Cd130 O129 2.203 . S
Cd130 O132 2.411 . S
Cd130 O133 2.333 . S
Cd130 O134 2.352 . S
Cd130 O138 2.277 . S
Cd130 O139 2.356 . S
C131 O136 1.209 . S
C131 O138 1.226 . S
O132 Cd128 2.273 . S
O132 Cd130 2.411 . S
O132 C135 1.320 . S
O133 Cd130 2.333 . S
O133 C135 1.214 . S
O134 Cd130 2.352 . S
O134 C137 1.258 . S
C135 O132 1.320 . S
C135 O133 1.214 . S
O136 Cd128 2.277 . S
O136 C131 1.209 . S
C137 O134 1.258 . S
C137 O139 1.282 . S
O138 Cd130 2.277 . S
O138 C131 1.226 . S
O139 Cd130 2.356 . S
O139 C137 1.282 . S
C140 O141 1.306 . S
C140 O143 1.160 . S
O141 C140 1.306 . S
O141 Cd142 2.228 . S
Cd142 O141 2.228 . S
Cd142 O146 2.273 . S
Cd142 O150 2.277 . S
O143 C140 1.160 . S
O143 Cd144 2.203 . S
Cd144 O143 2.203 . S
Cd144 O146 2.411 . S
Cd144 O147 2.333 . S
Cd144 O148 2.352 . S
Cd144 O152 2.277 . S
Cd144 O153 2.356 . S
C145 O150 1.209 . S
C145 O152 1.226 . S
O146 Cd142 2.273 . S
O146 Cd144 2.411 . S
O146 C149 1.320 . S
O147 Cd144 2.333 . S
O147 C149 1.214 . S
O148 Cd144 2.352 . S
O148 C151 1.258 . S
C149 O146 1.320 . S
C149 O147 1.214 . S
O150 Cd142 2.277 . S
O150 C145 1.209 . S
C151 O148 1.258 . S
C151 O153 1.282 . S
O152 Cd144 2.277 . S
O152 C145 1.226 . S
O153 Cd144 2.356 . S
O153 C151 1.282 . S
C154 O155 1.306 . S
C154 O157 1.160 . S
O155 C154 1.306 . S
O155 Cd156 2.228 . S
Cd156 O155 2.228 . S
Cd156 O160 2.273 . S
Cd156 O164 2.277 . S
O157 C154 1.160 . S
O157 Cd158 2.203 . S
Cd158 O157 2.203 . S
Cd158 O160 2.411 . S
Cd158 O161 2.333 . S
Cd158 O162 2.352 . S
Cd158 O166 2.277 . S
Cd158 O167 2.356 . S
C159 O164 1.209 . S
C159 O166 1.226 . S
O160 Cd156 2.273 . S
O160 Cd158 2.411 . S
O160 C163 1.320 . S
O161 Cd158 2.333 . S
O161 C163 1.214 . S
O162 Cd158 2.352 . S
O162 C165 1.258 . S
C163 O160 1.320 . S
C163 O161 1.214 . S
O164 Cd156 2.277 . S
O164 C159 1.209 . S
C165 O162 1.258 . S
C165 O167 1.282 . S
O166 Cd158 2.277 . S
O166 C159 1.226 . S
O167 Cd158 2.356 . S
O167 C165 1.282 . S
C168 O169 1.306 . S
C168 O171 1.160 . S
O169 C168 1.306 . S
O169 Cd170 2.228 . S
Cd170 O169 2.228 . S
Cd170 O174 2.273 . S
Cd170 O178 2.277 . S
O171 C168 1.160 . S
O171 Cd172 2.203 . S
Cd172 O171 2.203 . S
Cd172 O174 2.411 . S
Cd172 O175 2.333 . S
Cd172 O176 2.352 . S
Cd172 O180 2.277 . S
Cd172 O181 2.356 . S
C173 O178 1.209 . S
C173 O180 1.226 . S
O174 Cd170 2.273 . S
O174 Cd172 2.411 . S
O174 C177 1.320 . S
O175 Cd172 2.333 . S
O175 C177 1.214 . S
O176 Cd172 2.352 . S
O176 C179 1.258 . S
C177 O174 1.320 . S
C177 O175 1.214 . S
O178 Cd170 2.277 . S
O178 C173 1.209 . S
C179 O176 1.258 . S
C179 O181 1.282 . S
O180 Cd172 2.277 . S
O180 C173 1.226 . S
O181 Cd172 2.356 . S
O181 C179 1.282 . S
C182 O183 1.306 . S
C182 O185 1.160 . S
O183 C182 1.306 . S
O183 Cd184 2.228 . S
Cd184 O183 2.228 . S
Cd184 O188 2.273 . S
Cd184 O192 2.277 . S
O185 C182 1.160 . S
O185 Cd186 2.203 . S
Cd186 O185 2.203 . S
Cd186 O188 2.411 . S
Cd186 O189 2.333 . S
Cd186 O190 2.352 . S
Cd186 O194 2.277 . S
Cd186 O195 2.356 . S
C187 O192 1.209 . S
C187 O194 1.226 . S
O188 Cd184 2.273 . S
O188 Cd186 2.411 . S
O188 C191 1.320 . S
O189 Cd186 2.333 . S
O189 C191 1.214 . S
O190 Cd186 2.352 . S
O190 C193 1.258 . S
C191 O188 1.320 . S
C191 O189 1.214 . S
O192 Cd184 2.277 . S
O192 C187 1.209 . S
C193 O190 1.258 . S
C193 O195 1.282 . S
O194 Cd186 2.277 . S
O194 C187 1.226 . S
O195 Cd186 2.356 . S
O195 C193 1.282 . S
C196 O197 1.306 . S
C196 O199 1.160 . S
O197 C196 1.306 . S
O197 Cd198 2.228 . S
Cd198 O197 2.228 . S
Cd198 O202 2.273 . S
Cd198 O206 2.277 . S
O199 C196 1.160 . S
O199 Cd200 2.203 . S
Cd200 O199 2.203 . S
Cd200 O202 2.411 . S
Cd200 O203 2.333 . S
Cd200 O204 2.352 . S
Cd200 O208 2.277 . S
Cd200 O209 2.356 . S
C201 O206 1.209 . S
C201 O208 1.226 . S
O202 Cd198 2.273 . S
O202 Cd200 2.411 . S
O202 C205 1.320 . S
O203 Cd200 2.333 . S
O203 C205 1.214 . S
O204 Cd200 2.352 . S
O204 C207 1.258 . S
C205 O202 1.320 . S
C205 O203 1.214 . S
O206 Cd198 2.277 . S
O206 C201 1.209 . S
C207 O204 1.258 . S
C207 O209 1.282 . S
O208 Cd200 2.277 . S
O208 C201 1.226 . S
O209 Cd200 2.356 . S
O209 C207 1.282 . S
C210 O211 1.306 . S
C210 O213 1.160 . S
O211 C210 1.306 . S
O211 Cd212 2.228 . S
Cd212 O211 2.228 . S
Cd212 O216 2.273 . S
Cd212 O220 2.277 . S
O213 C210 1.160 . S
O213 Cd214 2.203 . S
Cd214 O213 2.203 . S
Cd214 O216 2.411 . S
Cd214 O217 2.333 . S
Cd214 O218 2.352 . S
Cd214 O222 2.277 . S
Cd214 O223 2.356 . S
C215 O220 1.209 . S
C215 O222 1.226 . S
O216 Cd212 2.273 . S
O216 Cd214 2.411 . S
O216 C219 1.320 . S
O217 Cd214 2.333 . S
O217 C219 1.214 . S
O218 Cd214 2.352 . S
O218 C221 1.258 . S
C219 O216 1.320 . S
C219 O217 1.214 . S
O220 Cd212 2.277 . S
O220 C215 1.209 . S
C221 O218 1.258 . S
C221 O223 1.282 . S
O222 Cd214 2.277 . S
O222 C215 1.226 . S
O223 Cd214 2.356 . S
O223 C221 1.282 . S
C224 O225 1.306 . S
C224 O227 1.160 . S
O225 C224 1.306 . S
O225 Cd226 2.228 . S
Cd226 O225 2.228 . S
Cd226 O230 2.273 . S
Cd226 O234 2.277 . S
O227 C224 1.160 . S
O227 Cd228 2.203 . S
Cd228 O227 2.203 . S
Cd228 O230 2.411 . S
Cd228 O231 2.333 . S
Cd228 O232 2.352 . S
Cd228 O236 2.277 . S
Cd228 O237 2.356 . S
C229 O234 1.209 . S
C229 O236 1.226 . S
O230 Cd226 2.273 . S
O230 Cd228 2.411 . S
O230 C233 1.320 . S
O231 Cd228 2.333 . S
O231 C233 1.214 . S
O232 Cd228 2.352 . S
O232 C235 1.258 . S
C233 O230 1.320 . S
C233 O231 1.214 . S
O234 Cd226 2.277 . S
O234 C229 1.209 . S
C235 O232 1.258 . S
C235 O237 1.282 . S
O236 Cd228 2.277 . S
O236 C229 1.226 . S
O237 Cd228 2.356 . S
O237 C235 1.282 . S
C238 O239 1.306 . S
C238 O241 1.160 . S
O239 C238 1.306 . S
O239 Cd240 2.228 . S
Cd240 O239 2.228 . S
Cd240 O244 2.273 . S
Cd240 O248 2.277 . S
O241 C238 1.160 . S
O241 Cd242 2.203 . S
Cd242 O241 2.203 . S
Cd242 O244 2.411 . S
Cd242 O245 2.333 . S
Cd242 O246 2.352 . S
Cd242 O250 2.277 . S
Cd242 O251 2.356 . S
C243 O248 1.209 . S
C243 O250 1.226 . S
O244 Cd240 2.273 . S
O244 Cd242 2.411 . S
O244 C247 1.320 . S
O245 Cd242 2.333 . S
O245 C247 1.214 . S
O246 Cd242 2.352 . S
O246 C249 1.258 . S
C247 O244 1.320 . S
C247 O245 1.214 . S
O248 Cd240 2.277 . S
O248 C243 1.209 . S
C249 O246 1.258 . S
C249 O251 1.282 . S
O250 Cd242 2.277 . S
O250 C243 1.226 . S
O251 Cd242 2.356 . S
O251 C249 1.282 . S
C252 O253 1.306 . S
C252 O255 1.160 . S
O253 C252 1.306 . S
O253 Cd254 2.228 . S
Cd254 O253 2.228 . S
Cd254 O258 2.273 . S
Cd254 O262 2.277 . S
O255 C252 1.160 . S
O255 Cd256 2.203 . S
Cd256 O255 2.203 . S
Cd256 O258 2.411 . S
Cd256 O259 2.333 . S
Cd256 O260 2.352 . S
Cd256 O264 2.277 . S
Cd256 O265 2.356 . S
C257 O262 1.209 . S
C257 O264 1.226 . S
O258 Cd254 2.273 . S
O258 Cd256 2.411 . S
O258 C261 1.320 . S
O259 Cd256 2.333 . S
O259 C261 1.214 . S
O260 Cd256 2.352 . S
O260 C263 1.258 . S
C261 O258 1.320 . S
C261 O259 1.214 . S
O262 Cd254 2.277 . S
O262 C257 1.209 . S
C263 O260 1.258 . S
C263 O265 1.282 . S
O264 Cd256 2.277 . S
O264 C257 1.226 . S
O265 Cd256 2.356 . S
O265 C263 1.282 . S
C266 O267 1.306 . S
C266 O269 1.160 . S
O267 C266 1.306 . S
O267 Cd268 2.228 . S
Cd268 O267 2.228 . S
Cd268 O272 2.273 . S
Cd268 O276 2.277 . S
O269 C266 1.160 . S
O269 Cd270 2.203 . S
Cd270 O269 2.203 . S
Cd270 O272 2.411 . S
Cd270 O273 2.333 . S
Cd270 O274 2.352 . S
Cd270 O278 2.277 . S
Cd270 O279 2.356 . S
C271 O276 1.209 . S
C271 O278 1.226 . S
O272 Cd268 2.273 . S
O272 Cd270 2.411 . S
O272 C275 1.320 . S
O273 Cd270 2.333 . S
O273 C275 1.214 . S
O274 Cd270 2.352 . S
O274 C277 1.258 . S
C275 O272 1.320 . S
C275 O273 1.214 . S
O276 Cd268 2.277 . S
O276 C271 1.209 . S
C277 O274 1.258 . S
C277 O279 1.282 . S
O278 Cd270 2.277 . S
O278 C271 1.226 . S
O279 Cd270 2.356 . S
O279 C277 1.282 . S
C280 O281 1.306 . S
C280 O283 1.160 . S
O281 C280 1.306 . S
O281 Cd282 2.228 . S
Cd282 O281 2.228 . S
Cd282 O286 2.273 . S
Cd282 O290 2.277 . S
O283 C280 1.160 . S
O283 Cd284 2.203 . S
Cd284 O283 2.203 . S
Cd284 O286 2.411 . S
Cd284 O287 2.333 . S
Cd284 O288 2.352 . S
Cd284 O292 2.277 . S
Cd284 O293 2.356 . S
C285 O290 1.209 . S
C285 O292 1.226 . S
O286 Cd282 2.273 . S
O286 Cd284 2.411 . S
O286 C289 1.320 . S
O287 Cd284 2.333 . S
O287 C289 1.214 . S
O288 Cd284 2.352 . S
O288 C291 1.258 . S
C289 O286 1.320 . S
C289 O287 1.214 . S
O290 Cd282 2.277 . S
O290 C285 1.209 . S
C291 O288 1.258 . S
C291 O293 1.282 . S
O292 Cd284 2.277 . S
O292 C285 1.226 . S
O293 Cd284 2.356 . S
O293 C291 1.282 . S
C294 O295 1.306 . S
C294 O297 1.160 . S
O295 C294 1.306 . S
O295 Cd296 2.228 1_556 S
Cd296 O295 2.228 1_554 S
Cd296 O300 2.273 . S
Cd296 O304 2.277 1_554 S
O297 C294 1.160 . S
O297 Cd298 2.203 . S
Cd298 O297 2.203 . S
Cd298 O300 2.411 1_556 S
Cd298 O301 2.333 1_556 S
Cd298 O302 2.352 1_556 S
Cd298 O306 2.277 . S
Cd298 O307 2.356 . S
C299 O304 1.209 . S
C299 O306 1.226 . S
O300 Cd296 2.273 . S
O300 Cd298 2.411 1_554 S
O300 C303 1.320 . S
O301 Cd298 2.333 1_554 S
O301 C303 1.214 . S
O302 Cd298 2.352 1_554 S
O302 C305 1.258 . S
C303 O300 1.320 . S
C303 O301 1.214 . S
O304 Cd296 2.277 1_556 S
O304 C299 1.209 . S
C305 O302 1.258 . S
C305 O307 1.282 1_554 S
O306 Cd298 2.277 . S
O306 C299 1.226 . S
O307 Cd298 2.356 . S
O307 C305 1.282 1_556 S
C308 O309 1.306 . S
C308 O311 1.160 . S
O309 C308 1.306 . S
O309 Cd310 2.228 1_556 S
Cd310 O309 2.228 1_554 S
Cd310 O314 2.273 . S
Cd310 O318 2.277 1_554 S
O311 C308 1.160 . S
O311 Cd312 2.203 . S
Cd312 O311 2.203 . S
Cd312 O314 2.411 1_556 S
Cd312 O315 2.333 1_556 S
Cd312 O316 2.352 1_556 S
Cd312 O320 2.277 . S
Cd312 O321 2.356 . S
C313 O318 1.209 . S
C313 O320 1.226 . S
O314 Cd310 2.273 . S
O314 Cd312 2.411 1_554 S
O314 C317 1.320 . S
O315 Cd312 2.333 1_554 S
O315 C317 1.214 . S
O316 Cd312 2.352 1_554 S
O316 C319 1.258 . S
C317 O314 1.320 . S
C317 O315 1.214 . S
O318 Cd310 2.277 1_556 S
O318 C313 1.209 . S
C319 O316 1.258 . S
C319 O321 1.282 1_554 S
O320 Cd312 2.277 . S
O320 C313 1.226 . S
O321 Cd312 2.356 . S
O321 C319 1.282 1_556 S
C322 O323 1.306 . S
C322 O325 1.160 . S
O323 C322 1.306 . S
O323 Cd324 2.228 1_556 S
Cd324 O323 2.228 1_554 S
Cd324 O328 2.273 . S
Cd324 O332 2.277 1_554 S
O325 C322 1.160 . S
O325 Cd326 2.203 . S
Cd326 O325 2.203 . S
Cd326 O328 2.411 1_556 S
Cd326 O329 2.333 1_556 S
Cd326 O330 2.352 1_556 S
Cd326 O334 2.277 . S
Cd326 O335 2.356 . S
C327 O332 1.209 . S
C327 O334 1.226 . S
O328 Cd324 2.273 . S
O328 Cd326 2.411 1_554 S
O328 C331 1.320 . S
O329 Cd326 2.333 1_554 S
O329 C331 1.214 . S
O330 Cd326 2.352 1_554 S
O330 C333 1.258 . S
C331 O328 1.320 . S
C331 O329 1.214 . S
O332 Cd324 2.277 1_556 S
O332 C327 1.209 . S
C333 O330 1.258 . S
C333 O335 1.282 1_554 S
O334 Cd326 2.277 . S
O334 C327 1.226 . S
O335 Cd326 2.356 . S
O335 C333 1.282 1_556 S
C336 O337 1.306 . S
C336 O339 1.160 . S
O337 C336 1.306 . S
O337 Cd338 2.228 . S
Cd338 O337 2.228 . S
Cd338 O342 2.273 . S
Cd338 O346 2.277 . S
O339 C336 1.160 . S
O339 Cd340 2.203 . S
Cd340 O339 2.203 . S
Cd340 O342 2.411 . S
Cd340 O343 2.333 . S
Cd340 O344 2.352 . S
Cd340 O348 2.277 . S
Cd340 O349 2.356 . S
C341 O346 1.209 . S
C341 O348 1.226 . S
O342 Cd338 2.273 . S
O342 Cd340 2.411 . S
O342 C345 1.320 . S
O343 Cd340 2.333 . S
O343 C345 1.214 . S
O344 Cd340 2.352 . S
O344 C347 1.258 . S
C345 O342 1.320 . S
C345 O343 1.214 . S
O346 Cd338 2.277 . S
O346 C341 1.209 . S
C347 O344 1.258 . S
C347 O349 1.282 . S
O348 Cd340 2.277 . S
O348 C341 1.226 . S
O349 Cd340 2.356 . S
O349 C347 1.282 . S
C350 O351 1.306 . S
C350 O353 1.160 . S
O351 C350 1.306 . S
O351 Cd352 2.228 . S
Cd352 O351 2.228 . S
Cd352 O356 2.273 . S
Cd352 O360 2.277 . S
O353 C350 1.160 . S
O353 Cd354 2.203 . S
Cd354 O353 2.203 . S
Cd354 O356 2.411 . S
Cd354 O357 2.333 . S
Cd354 O358 2.352 . S
Cd354 O362 2.277 . S
Cd354 O363 2.356 . S
C355 O360 1.209 . S
C355 O362 1.226 . S
O356 Cd352 2.273 . S
O356 Cd354 2.411 . S
O356 C359 1.320 . S
O357 Cd354 2.333 . S
O357 C359 1.214 . S
O358 Cd354 2.352 . S
O358 C361 1.258 . S
C359 O356 1.320 . S
C359 O357 1.214 . S
O360 Cd352 2.277 . S
O360 C355 1.209 . S
C361 O358 1.258 . S
C361 O363 1.282 . S
O362 Cd354 2.277 . S
O362 C355 1.226 . S
O363 Cd354 2.356 . S
O363 C361 1.282 . S
C364 O365 1.306 . S
C364 O367 1.160 . S
O365 C364 1.306 . S
O365 Cd366 2.228 . S
Cd366 O365 2.228 . S
Cd366 O370 2.273 . S
Cd366 O374 2.277 . S
O367 C364 1.160 . S
O367 Cd368 2.203 . S
Cd368 O367 2.203 . S
Cd368 O370 2.411 . S
Cd368 O371 2.333 . S
Cd368 O372 2.352 . S
Cd368 O376 2.277 . S
Cd368 O377 2.356 . S
C369 O374 1.209 . S
C369 O376 1.226 . S
O370 Cd366 2.273 . S
O370 Cd368 2.411 . S
O370 C373 1.320 . S
O371 Cd368 2.333 . S
O371 C373 1.214 . S
O372 Cd368 2.352 . S
O372 C375 1.258 . S
C373 O370 1.320 . S
C373 O371 1.214 . S
O374 Cd366 2.277 . S
O374 C369 1.209 . S
C375 O372 1.258 . S
C375 O377 1.282 . S
O376 Cd368 2.277 . S
O376 C369 1.226 . S
O377 Cd368 2.356 . S
O377 C375 1.282 . S
C378 O379 1.306 . S
C378 O381 1.160 . S
O379 C378 1.306 . S
O379 Cd380 2.228 1_554 S
Cd380 O379 2.228 1_556 S
Cd380 O384 2.273 . S
Cd380 O388 2.277 1_556 S
O381 C378 1.160 . S
O381 Cd382 2.203 . S
Cd382 O381 2.203 . S
Cd382 O384 2.411 1_554 S
Cd382 O385 2.333 1_554 S
Cd382 O386 2.352 1_554 S
Cd382 O390 2.277 . S
Cd382 O391 2.356 . S
C383 O388 1.209 . S
C383 O390 1.226 . S
O384 Cd380 2.273 . S
O384 Cd382 2.411 1_556 S
O384 C387 1.320 . S
O385 Cd382 2.333 1_556 S
O385 C387 1.214 . S
O386 Cd382 2.352 1_556 S
O386 C389 1.258 . S
C387 O384 1.320 . S
C387 O385 1.214 . S
O388 Cd380 2.277 1_554 S
O388 C383 1.209 . S
C389 O386 1.258 . S
C389 O391 1.282 1_556 S
O390 Cd382 2.277 . S
O390 C383 1.226 . S
O391 Cd382 2.356 . S
O391 C389 1.282 1_554 S
C392 O393 1.306 . S
C392 O395 1.160 . S
O393 C392 1.306 . S
O393 Cd394 2.228 1_554 S
Cd394 O393 2.228 1_556 S
Cd394 O398 2.273 . S
Cd394 O402 2.277 1_556 S
O395 C392 1.160 . S
O395 Cd396 2.203 . S
Cd396 O395 2.203 . S
Cd396 O398 2.411 1_554 S
Cd396 O399 2.333 1_554 S
Cd396 O400 2.352 1_554 S
Cd396 O404 2.277 . S
Cd396 O405 2.356 . S
C397 O402 1.209 . S
C397 O404 1.226 . S
O398 Cd394 2.273 . S
O398 Cd396 2.411 1_556 S
O398 C401 1.320 . S
O399 Cd396 2.333 1_556 S
O399 C401 1.214 . S
O400 Cd396 2.352 1_556 S
O400 C403 1.258 . S
C401 O398 1.320 . S
C401 O399 1.214 . S
O402 Cd394 2.277 1_554 S
O402 C397 1.209 . S
C403 O400 1.258 . S
C403 O405 1.282 1_556 S
O404 Cd396 2.277 . S
O404 C397 1.226 . S
O405 Cd396 2.356 . S
O405 C403 1.282 1_554 S
C406 O407 1.306 . S
C406 O409 1.160 . S
O407 C406 1.306 . S
O407 Cd408 2.228 1_554 S
Cd408 O407 2.228 1_556 S
Cd408 O412 2.273 . S
Cd408 O416 2.277 1_556 S
O409 C406 1.160 . S
O409 Cd410 2.203 . S
Cd410 O409 2.203 . S
Cd410 O412 2.411 1_554 S
Cd410 O413 2.333 1_554 S
Cd410 O414 2.352 1_554 S
Cd410 O418 2.277 . S
Cd410 O419 2.356 . S
C411 O416 1.209 . S
C411 O418 1.226 . S
O412 Cd408 2.273 . S
O412 Cd410 2.411 1_556 S
O412 C415 1.320 . S
O413 Cd410 2.333 1_556 S
O413 C415 1.214 . S
O414 Cd410 2.352 1_556 S
O414 C417 1.258 . S
C415 O412 1.320 . S
C415 O413 1.214 . S
O416 Cd408 2.277 1_554 S
O416 C411 1.209 . S
C417 O414 1.258 . S
C417 O419 1.282 1_556 S
O418 Cd410 2.277 . S
O418 C411 1.226 . S
O419 Cd410 2.356 . S
O419 C417 1.282 1_554 S
C420 O421 1.306 . S
C420 O423 1.160 . S
O421 C420 1.306 . S
O421 Cd422 2.228 . S
Cd422 O421 2.228 . S
Cd422 O426 2.273 . S
Cd422 O430 2.277 . S
O423 C420 1.160 . S
O423 Cd424 2.203 . S
Cd424 O423 2.203 . S
Cd424 O426 2.411 . S
Cd424 O427 2.333 . S
Cd424 O428 2.352 . S
Cd424 O432 2.277 . S
Cd424 O433 2.356 . S
C425 O430 1.209 . S
C425 O432 1.226 . S
O426 Cd422 2.273 . S
O426 Cd424 2.411 . S
O426 C429 1.320 . S
O427 Cd424 2.333 . S
O427 C429 1.214 . S
O428 Cd424 2.352 . S
O428 C431 1.258 . S
C429 O426 1.320 . S
C429 O427 1.214 . S
O430 Cd422 2.277 . S
O430 C425 1.209 . S
C431 O428 1.258 . S
C431 O433 1.282 . S
O432 Cd424 2.277 . S
O432 C425 1.226 . S
O433 Cd424 2.356 . S
O433 C431 1.282 . S
C434 O435 1.306 . S
C434 O437 1.160 . S
O435 C434 1.306 . S
O435 Cd436 2.228 . S
Cd436 O435 2.228 . S
Cd436 O440 2.273 . S
Cd436 O444 2.277 . S
O437 C434 1.160 . S
O437 Cd438 2.203 . S
Cd438 O437 2.203 . S
Cd438 O440 2.411 . S
Cd438 O441 2.333 . S
Cd438 O442 2.352 . S
Cd438 O446 2.277 . S
Cd438 O447 2.356 . S
C439 O444 1.209 . S
C439 O446 1.226 . S
O440 Cd436 2.273 . S
O440 Cd438 2.411 . S
O440 C443 1.320 . S
O441 Cd438 2.333 . S
O441 C443 1.214 . S
O442 Cd438 2.352 . S
O442 C445 1.258 . S
C443 O440 1.320 . S
C443 O441 1.214 . S
O444 Cd436 2.277 . S
O444 C439 1.209 . S
C445 O442 1.258 . S
C445 O447 1.282 . S
O446 Cd438 2.277 . S
O446 C439 1.226 . S
O447 Cd438 2.356 . S
O447 C445 1.282 . S
C448 O449 1.306 . S
C448 O451 1.160 . S
O449 C448 1.306 . S
O449 Cd450 2.228 . S
Cd450 O449 2.228 . S
Cd450 O454 2.273 . S
Cd450 O458 2.277 . S
O451 C448 1.160 . S
O451 Cd452 2.203 . S
Cd452 O451 2.203 . S
Cd452 O454 2.411 . S
Cd452 O455 2.333 . S
Cd452 O456 2.352 . S
Cd452 O460 2.277 . S
Cd452 O461 2.356 . S
C453 O458 1.209 . S
C453 O460 1.226 . S
O454 Cd450 2.273 . S
O454 Cd452 2.411 . S
O454 C457 1.320 . S
O455 Cd452 2.333 . S
O455 C457 1.214 . S
O456 Cd452 2.352 . S
O456 C459 1.258 . S
C457 O454 1.320 . S
C457 O455 1.214 . S
O458 Cd450 2.277 . S
O458 C453 1.209 . S
C459 O456 1.258 . S
C459 O461 1.282 . S
O460 Cd452 2.277 . S
O460 C453 1.226 . S
O461 Cd452 2.356 . S
O461 C459 1.282 . S
C462 O463 1.306 . S
C462 O465 1.160 . S
O463 C462 1.306 . S
O463 Cd464 2.228 . S
Cd464 O463 2.228 . S
Cd464 O468 2.273 . S
Cd464 O472 2.277 . S
O465 C462 1.160 . S
O465 Cd466 2.203 . S
Cd466 O465 2.203 . S
Cd466 O468 2.411 . S
Cd466 O469 2.333 . S
Cd466 O470 2.352 . S
Cd466 O474 2.277 . S
Cd466 O475 2.356 . S
C467 O472 1.209 . S
C467 O474 1.226 . S
O468 Cd464 2.273 . S
O468 Cd466 2.411 . S
O468 C471 1.320 . S
O469 Cd466 2.333 . S
O469 C471 1.214 . S
O470 Cd466 2.352 . S
O470 C473 1.258 . S
C471 O468 1.320 . S
C471 O469 1.214 . S
O472 Cd464 2.277 . S
O472 C467 1.209 . S
C473 O470 1.258 . S
C473 O475 1.282 . S
O474 Cd466 2.277 . S
O474 C467 1.226 . S
O475 Cd466 2.356 . S
O475 C473 1.282 . S
C476 O477 1.306 . S
C476 O479 1.160 . S
O477 C476 1.306 . S
O477 Cd478 2.228 . S
Cd478 O477 2.228 . S
Cd478 O482 2.273 . S
Cd478 O486 2.277 . S
O479 C476 1.160 . S
O479 Cd480 2.203 . S
Cd480 O479 2.203 . S
Cd480 O482 2.411 . S
Cd480 O483 2.333 . S
Cd480 O484 2.352 . S
Cd480 O488 2.277 . S
Cd480 O489 2.356 . S
C481 O486 1.209 . S
C481 O488 1.226 . S
O482 Cd478 2.273 . S
O482 Cd480 2.411 . S
O482 C485 1.320 . S
O483 Cd480 2.333 . S
O483 C485 1.214 . S
O484 Cd480 2.352 . S
O484 C487 1.258 . S
C485 O482 1.320 . S
C485 O483 1.214 . S
O486 Cd478 2.277 . S
O486 C481 1.209 . S
C487 O484 1.258 . S
C487 O489 1.282 . S
O488 Cd480 2.277 . S
O488 C481 1.226 . S
O489 Cd480 2.356 . S
O489 C487 1.282 . S
C490 O491 1.306 . S
C490 O493 1.160 . S
O491 C490 1.306 . S
O491 Cd492 2.228 . S
Cd492 O491 2.228 . S
Cd492 O496 2.273 . S
Cd492 O500 2.277 . S
O493 C490 1.160 . S
O493 Cd494 2.203 . S
Cd494 O493 2.203 . S
Cd494 O496 2.411 . S
Cd494 O497 2.333 . S
Cd494 O498 2.352 . S
Cd494 O502 2.277 . S
Cd494 O503 2.356 . S
C495 O500 1.209 . S
C495 O502 1.226 . S
O496 Cd492 2.273 . S
O496 Cd494 2.411 . S
O496 C499 1.320 . S
O497 Cd494 2.333 . S
O497 C499 1.214 . S
O498 Cd494 2.352 . S
O498 C501 1.258 . S
C499 O496 1.320 . S
C499 O497 1.214 . S
O500 Cd492 2.277 . S
O500 C495 1.209 . S
C501 O498 1.258 . S
C501 O503 1.282 . S
O502 Cd494 2.277 . S
O502 C495 1.226 . S
O503 Cd494 2.356 . S
O503 C501 1.282 . S
H504 C510 0.930 . S
H505 C514 0.930 . S
H506 C519 0.929 . S
H507 C517 0.929 . S
H508 C512 0.929 . S
H509 C518 0.929 . S
C510 H504 0.930 . S
C510 C511 1.367 . S
C510 C518 1.378 . S
C511 C510 1.367 . S
C511 C519 1.433 . S
C512 H508 0.929 . S
C512 C514 1.378 . S
C512 C516 1.350 . S
C513 C516 1.463 . S
C513 C518 1.350 . S
C513 N521 1.427 . S
C514 H505 0.930 . S
C514 C512 1.378 . S
C514 C515 1.367 . S
C515 C514 1.367 . S
C515 C517 1.433 . S
C516 C512 1.350 . S
C516 C513 1.463 . S
C516 N520 1.427 . S
C517 H507 0.929 . S
C517 C515 1.433 . S
C517 N520 1.384 . S
C518 H509 0.929 . S
C518 C510 1.378 . S
C518 C513 1.350 . S
C519 H506 0.929 . S
C519 C511 1.433 . S
C519 N521 1.384 . S
N520 C516 1.427 . S
N520 C517 1.384 . S
N521 C513 1.427 . S
N521 C519 1.384 . S
H522 C528 0.930 . S
H523 C532 0.930 . S
H524 C537 0.929 . S
H525 C535 0.929 . S
H526 C530 0.929 . S
H527 C536 0.929 . S
C528 H522 0.930 . S
C528 C529 1.367 . S
C528 C536 1.378 . S
C529 C528 1.367 . S
C529 C537 1.433 . S
C530 H526 0.929 . S
C530 C532 1.378 . S
C530 C534 1.350 . S
C531 C534 1.463 1_545 S
C531 C536 1.350 . S
C531 N539 1.427 . S
C532 H523 0.930 . S
C532 C530 1.378 . S
C532 C533 1.367 . S
C533 C532 1.367 . S
C533 C535 1.433 . S
C534 C530 1.350 . S
C534 C531 1.463 1_565 S
C534 N538 1.427 . S
C535 H525 0.929 . S
C535 C533 1.433 . S
C535 N538 1.384 . S
C536 H527 0.929 . S
C536 C528 1.378 . S
C536 C531 1.350 . S
C537 H524 0.929 . S
C537 C529 1.433 . S
C537 N539 1.384 . S
N538 C534 1.427 . S
N538 C535 1.384 . S
N539 C531 1.427 . S
N539 C537 1.384 . S
H540 C546 0.930 . S
H541 C550 0.930 . S
H542 C555 0.929 . S
H543 C553 0.929 . S
H544 C548 0.929 . S
H545 C554 0.929 . S
C546 H540 0.930 . S
C546 C547 1.367 . S
C546 C554 1.378 . S
C547 C546 1.367 . S
C547 C555 1.433 . S
C548 H544 0.929 . S
C548 C550 1.378 . S
C548 C552 1.350 . S
C549 C552 1.463 1_655 S
C549 C554 1.350 . S
C549 N557 1.427 . S
C550 H541 0.930 . S
C550 C548 1.378 . S
C550 C551 1.367 . S
C551 C550 1.367 . S
C551 C553 1.433 . S
C552 C548 1.350 . S
C552 C549 1.463 1_455 S
C552 N556 1.427 . S
C553 H543 0.929 . S
C553 C551 1.433 . S
C553 N556 1.384 . S
C554 H545 0.929 . S
C554 C546 1.378 . S
C554 C549 1.350 . S
C555 H542 0.929 . S
C555 C547 1.433 . S
C555 N557 1.384 . S
N556 C552 1.427 . S
N556 C553 1.384 . S
N557 C549 1.427 . S
N557 C555 1.384 . S
H558 C564 0.930 . S
H559 C568 0.930 . S
H560 C573 0.929 . S
H561 C571 0.929 . S
H562 C566 0.929 . S
H563 C572 0.929 . S
C564 H558 0.930 . S
C564 C565 1.367 . S
C564 C572 1.378 . S
C565 C564 1.367 . S
C565 C573 1.433 . S
C566 H562 0.929 . S
C566 C568 1.378 . S
C566 C570 1.350 . S
C567 C570 1.463 . S
C567 C572 1.350 . S
C567 N575 1.427 . S
C568 H559 0.930 . S
C568 C566 1.378 . S
C568 C569 1.367 . S
C569 C568 1.367 . S
C569 C571 1.433 . S
C570 C566 1.350 . S
C570 C567 1.463 . S
C570 N574 1.427 . S
C571 H561 0.929 . S
C571 C569 1.433 . S
C571 N574 1.384 . S
C572 H563 0.929 . S
C572 C564 1.378 . S
C572 C567 1.350 . S
C573 H560 0.929 . S
C573 C565 1.433 . S
C573 N575 1.384 . S
N574 C570 1.427 . S
N574 C571 1.384 . S
N575 C567 1.427 . S
N575 C573 1.384 . S
H576 C582 0.930 . S
H577 C586 0.930 . S
H578 C591 0.929 . S
H579 C589 0.929 . S
H580 C584 0.929 . S
H581 C590 0.929 . S
C582 H576 0.930 . S
C582 C583 1.367 . S
C582 C590 1.378 . S
C583 C582 1.367 . S
C583 C591 1.433 . S
C584 H580 0.929 . S
C584 C586 1.378 . S
C584 C588 1.350 . S
C585 C588 1.463 1_545 S
C585 C590 1.350 . S
C585 N593 1.427 . S
C586 H577 0.930 . S
C586 C584 1.378 . S
C586 C587 1.367 . S
C587 C586 1.367 . S
C587 C589 1.433 . S
C588 C584 1.350 . S
C588 C585 1.463 1_565 S
C588 N592 1.427 . S
C589 H579 0.929 . S
C589 C587 1.433 . S
C589 N592 1.384 . S
C590 H581 0.929 . S
C590 C582 1.378 . S
C590 C585 1.350 . S
C591 H578 0.929 . S
C591 C583 1.433 . S
C591 N593 1.384 . S
N592 C588 1.427 . S
N592 C589 1.384 . S
N593 C585 1.427 . S
N593 C591 1.384 . S
H594 C600 0.930 . S
H595 C604 0.930 . S
H596 C609 0.929 . S
H597 C607 0.929 . S
H598 C602 0.929 . S
H599 C608 0.929 . S
C600 H594 0.930 . S
C600 C601 1.367 . S
C600 C608 1.378 . S
C601 C600 1.367 . S
C601 C609 1.433 . S
C602 H598 0.929 . S
C602 C604 1.378 . S
C602 C606 1.350 . S
C603 C606 1.463 1_455 S
C603 C608 1.350 . S
C603 N611 1.427 . S
C604 H595 0.930 . S
C604 C602 1.378 . S
C604 C605 1.367 . S
C605 C604 1.367 . S
C605 C607 1.433 . S
C606 C602 1.350 . S
C606 C603 1.463 1_655 S
C606 N610 1.427 . S
C607 H597 0.929 . S
C607 C605 1.433 . S
C607 N610 1.384 . S
C608 H599 0.929 . S
C608 C600 1.378 . S
C608 C603 1.350 . S
C609 H596 0.929 . S
C609 C601 1.433 . S
C609 N611 1.384 . S
N610 C606 1.427 . S
N610 C607 1.384 . S
N611 C603 1.427 . S
N611 C609 1.384 . S
H612 C618 0.930 . S
H613 C622 0.930 . S
H614 C627 0.929 . S
H615 C625 0.929 . S
H616 C620 0.929 . S
H617 C626 0.929 . S
C618 H612 0.930 . S
C618 C619 1.367 . S
C618 C626 1.378 . S
C619 C618 1.367 . S
C619 C627 1.433 . S
C620 H616 0.929 . S
C620 C622 1.378 . S
C620 C624 1.350 . S
C621 C624 1.463 . S
C621 C626 1.350 . S
C621 N629 1.427 . S
C622 H613 0.930 . S
C622 C620 1.378 . S
C622 C623 1.367 . S
C623 C622 1.367 . S
C623 C625 1.433 . S
C624 C620 1.350 . S
C624 C621 1.463 . S
C624 N628 1.427 . S
C625 H615 0.929 . S
C625 C623 1.433 . S
C625 N628 1.384 . S
C626 H617 0.929 . S
C626 C618 1.378 . S
C626 C621 1.350 . S
C627 H614 0.929 . S
C627 C619 1.433 . S
C627 N629 1.384 . S
N628 C624 1.427 . S
N628 C625 1.384 . S
N629 C621 1.427 . S
N629 C627 1.384 . S
H630 C636 0.930 . S
H631 C640 0.930 . S
H632 C645 0.929 . S
H633 C643 0.929 . S
H634 C638 0.929 . S
H635 C644 0.929 . S
C636 H630 0.930 . S
C636 C637 1.367 . S
C636 C644 1.378 . S
C637 C636 1.367 . S
C637 C645 1.433 . S
C638 H634 0.929 . S
C638 C640 1.378 . S
C638 C642 1.350 . S
C639 C642 1.463 . S
C639 C644 1.350 . S
C639 N647 1.427 . S
C640 H631 0.930 . S
C640 C638 1.378 . S
C640 C641 1.367 . S
C641 C640 1.367 . S
C641 C643 1.433 . S
C642 C638 1.350 . S
C642 C639 1.463 . S
C642 N646 1.427 . S
C643 H633 0.929 . S
C643 C641 1.433 . S
C643 N646 1.384 . S
C644 H635 0.929 . S
C644 C636 1.378 . S
C644 C639 1.350 . S
C645 H632 0.929 . S
C645 C637 1.433 . S
C645 N647 1.384 . S
N646 C642 1.427 . S
N646 C643 1.384 . S
N647 C639 1.427 . S
N647 C645 1.384 . S
H648 C654 0.930 . S
H649 C658 0.930 . S
H650 C663 0.929 . S
H651 C661 0.929 . S
H652 C656 0.929 . S
H653 C662 0.929 . S
C654 H648 0.930 . S
C654 C655 1.367 . S
C654 C662 1.378 . S
C655 C654 1.367 . S
C655 C663 1.433 . S
C656 H652 0.929 . S
C656 C658 1.378 . S
C656 C660 1.350 . S
C657 C660 1.463 . S
C657 C662 1.350 . S
C657 N665 1.427 . S
C658 H649 0.930 . S
C658 C656 1.378 . S
C658 C659 1.367 . S
C659 C658 1.367 . S
C659 C661 1.433 . S
C660 C656 1.350 . S
C660 C657 1.463 . S
C660 N664 1.427 . S
C661 H651 0.929 . S
C661 C659 1.433 . S
C661 N664 1.384 . S
C662 H653 0.929 . S
C662 C654 1.378 . S
C662 C657 1.350 . S
C663 H650 0.929 . S
C663 C655 1.433 . S
C663 N665 1.384 . S
N664 C660 1.427 . S
N664 C661 1.384 . S
N665 C657 1.427 . S
N665 C663 1.384 . S
H666 C672 0.930 . S
H667 C676 0.930 . S
H668 C681 0.929 . S
H669 C679 0.929 1_556 S
H670 C674 0.929 . S
H671 C680 0.929 . S
C672 H666 0.930 . S
C672 C673 1.367 . S
C672 C680 1.378 . S
C673 C672 1.367 . S
C673 C681 1.433 . S
C674 H670 0.929 . S
C674 C676 1.378 . S
C674 C678 1.350 . S
C675 C678 1.463 . S
C675 C680 1.350 . S
C675 N683 1.427 . S
C676 H667 0.930 . S
C676 C674 1.378 . S
C676 C677 1.367 . S
C677 C676 1.367 . S
C677 C679 1.433 . S
C678 C674 1.350 . S
C678 C675 1.463 . S
C678 N682 1.427 . S
C679 H669 0.929 1_554 S
C679 C677 1.433 . S
C679 N682 1.384 . S
C680 H671 0.929 . S
C680 C672 1.378 . S
C680 C675 1.350 . S
C681 H668 0.929 . S
C681 C673 1.433 . S
C681 N683 1.384 . S
N682 C678 1.427 . S
N682 C679 1.384 . S
N683 C675 1.427 . S
N683 C681 1.384 . S
H684 C690 0.930 . S
H685 C694 0.930 . S
H686 C699 0.929 . S
H687 C697 0.929 . S
H688 C692 0.929 . S
H689 C698 0.929 . S
C690 H684 0.930 . S
C690 C691 1.367 . S
C690 C698 1.378 . S
C691 C690 1.367 . S
C691 C699 1.433 . S
C692 H688 0.929 . S
C692 C694 1.378 . S
C692 C696 1.350 . S
C693 C696 1.463 . S
C693 C698 1.350 . S
C693 N701 1.427 . S
C694 H685 0.930 . S
C694 C692 1.378 . S
C694 C695 1.367 . S
C695 C694 1.367 . S
C695 C697 1.433 . S
C696 C692 1.350 . S
C696 C693 1.463 . S
C696 N700 1.427 . S
C697 H687 0.929 . S
C697 C695 1.433 . S
C697 N700 1.384 . S
C698 H689 0.929 . S
C698 C690 1.378 . S
C698 C693 1.350 . S
C699 H686 0.929 . S
C699 C691 1.433 . S
C699 N701 1.384 . S
N700 C696 1.427 . S
N700 C697 1.384 . S
N701 C693 1.427 . S
N701 C699 1.384 . S
H702 C708 0.930 . S
H703 C712 0.930 . S
H704 C717 0.929 . S
H705 C715 0.929 1_556 S
H706 C710 0.929 . S
H707 C716 0.929 . S
C708 H702 0.930 . S
C708 C709 1.367 . S
C708 C716 1.378 . S
C709 C708 1.367 . S
C709 C717 1.433 . S
C710 H706 0.929 . S
C710 C712 1.378 . S
C710 C714 1.350 . S
C711 C714 1.463 . S
C711 C716 1.350 . S
C711 N719 1.427 . S
C712 H703 0.930 . S
C712 C710 1.378 . S
C712 C713 1.367 . S
C713 C712 1.367 . S
C713 C715 1.433 . S
C714 C710 1.350 . S
C714 C711 1.463 . S
C714 N718 1.427 . S
C715 H705 0.929 1_554 S
C715 C713 1.433 . S
C715 N718 1.384 . S
C716 H707 0.929 . S
C716 C708 1.378 . S
C716 C711 1.350 . S
C717 H704 0.929 . S
C717 C709 1.433 . S
C717 N719 1.384 . S
N718 C714 1.427 . S
N718 C715 1.384 . S
N719 C711 1.427 . S
N719 C717 1.384 . S
H720 C726 0.930 . S
H721 C730 0.930 1_554 S
H722 C735 0.929 . S
H723 C733 0.929 . S
H724 C728 0.929 1_554 S
H725 C734 0.929 . S
C726 H720 0.930 . S
C726 C727 1.367 . S
C726 C734 1.378 . S
C727 C726 1.367 . S
C727 C735 1.433 . S
C728 H724 0.929 1_556 S
C728 C730 1.378 . S
C728 C732 1.350 . S
C729 C732 1.463 . S
C729 C734 1.350 . S
C729 N737 1.427 . S
C730 H721 0.930 1_556 S
C730 C728 1.378 . S
C730 C731 1.367 . S
C731 C730 1.367 . S
C731 C733 1.433 . S
C732 C728 1.350 . S
C732 C729 1.463 . S
C732 N736 1.427 . S
C733 H723 0.929 . S
C733 C731 1.433 . S
C733 N736 1.384 . S
C734 H725 0.929 . S
C734 C726 1.378 . S
C734 C729 1.350 . S
C735 H722 0.929 . S
C735 C727 1.433 . S
C735 N737 1.384 . S
N736 C732 1.427 . S
N736 C733 1.384 . S
N737 C729 1.427 . S
N737 C735 1.384 . S
H738 C744 0.930 . S
H739 C748 0.930 . S
H740 C753 0.929 . S
H741 C751 0.929 1_554 S
H742 C746 0.929 . S
H743 C752 0.929 . S
C744 H738 0.930 . S
C744 C745 1.367 . S
C744 C752 1.378 . S
C745 C744 1.367 . S
C745 C753 1.433 . S
C746 H742 0.929 . S
C746 C748 1.378 . S
C746 C750 1.350 . S
C747 C750 1.463 . S
C747 C752 1.350 . S
C747 N755 1.427 . S
C748 H739 0.930 . S
C748 C746 1.378 . S
C748 C749 1.367 . S
C749 C748 1.367 . S
C749 C751 1.433 . S
C750 C746 1.350 . S
C750 C747 1.463 . S
C750 N754 1.427 . S
C751 H741 0.929 1_556 S
C751 C749 1.433 . S
C751 N754 1.384 . S
C752 H743 0.929 . S
C752 C744 1.378 . S
C752 C747 1.350 . S
C753 H740 0.929 . S
C753 C745 1.433 . S
C753 N755 1.384 . S
N754 C750 1.427 . S
N754 C751 1.384 . S
N755 C747 1.427 . S
N755 C753 1.384 . S
H756 C762 0.930 . S
H757 C766 0.930 . S
H758 C771 0.929 . S
H759 C769 0.929 . S
H760 C764 0.929 . S
H761 C770 0.929 . S
C762 H756 0.930 . S
C762 C763 1.367 . S
C762 C770 1.378 . S
C763 C762 1.367 . S
C763 C771 1.433 . S
C764 H760 0.929 . S
C764 C766 1.378 . S
C764 C768 1.350 . S
C765 C768 1.463 . S
C765 C770 1.350 . S
C765 N773 1.427 . S
C766 H757 0.930 . S
C766 C764 1.378 . S
C766 C767 1.367 . S
C767 C766 1.367 . S
C767 C769 1.433 . S
C768 C764 1.350 . S
C768 C765 1.463 . S
C768 N772 1.427 . S
C769 H759 0.929 . S
C769 C767 1.433 . S
C769 N772 1.384 . S
C770 H761 0.929 . S
C770 C762 1.378 . S
C770 C765 1.350 . S
C771 H758 0.929 . S
C771 C763 1.433 . S
C771 N773 1.384 . S
N772 C768 1.427 . S
N772 C769 1.384 . S
N773 C765 1.427 . S
N773 C771 1.384 . S
H774 C780 0.930 . S
H775 C784 0.930 . S
H776 C789 0.929 . S
H777 C787 0.929 . S
H778 C782 0.929 . S
H779 C788 0.929 . S
C780 H774 0.930 . S
C780 C781 1.367 . S
C780 C788 1.378 . S
C781 C780 1.367 . S
C781 C789 1.433 . S
C782 H778 0.929 . S
C782 C784 1.378 . S
C782 C786 1.350 . S
C783 C786 1.463 . S
C783 C788 1.350 . S
C783 N791 1.427 . S
C784 H775 0.930 . S
C784 C782 1.378 . S
C784 C785 1.367 . S
C785 C784 1.367 . S
C785 C787 1.433 . S
C786 C782 1.350 . S
C786 C783 1.463 . S
C786 N790 1.427 . S
C787 H777 0.929 . S
C787 C785 1.433 . S
C787 N790 1.384 . S
C788 H779 0.929 . S
C788 C780 1.378 . S
C788 C783 1.350 . S
C789 H776 0.929 . S
C789 C781 1.433 . S
C789 N791 1.384 . S
N790 C786 1.427 . S
N790 C787 1.384 . S
N791 C783 1.427 . S
N791 C789 1.384 . S
H792 C798 0.930 . S
H793 C802 0.930 . S
H794 C807 0.929 . S
H795 C805 0.929 . S
H796 C800 0.929 . S
H797 C806 0.929 . S
C798 H792 0.930 . S
C798 C799 1.367 . S
C798 C806 1.378 . S
C799 C798 1.367 . S
C799 C807 1.433 . S
C800 H796 0.929 . S
C800 C802 1.378 . S
C800 C804 1.350 . S
C801 C804 1.463 . S
C801 C806 1.350 . S
C801 N809 1.427 . S
C802 H793 0.930 . S
C802 C800 1.378 . S
C802 C803 1.367 . S
C803 C802 1.367 . S
C803 C805 1.433 . S
C804 C800 1.350 . S
C804 C801 1.463 . S
C804 N808 1.427 . S
C805 H795 0.929 . S
C805 C803 1.433 . S
C805 N808 1.384 . S
C806 H797 0.929 . S
C806 C798 1.378 . S
C806 C801 1.350 . S
C807 H794 0.929 . S
C807 C799 1.433 . S
C807 N809 1.384 . S
N808 C804 1.427 . S
N808 C805 1.384 . S
N809 C801 1.427 . S
N809 C807 1.384 . S
H810 C816 0.930 . S
H811 C820 0.930 . S
H812 C825 0.929 . S
H813 C823 0.929 . S
H814 C818 0.929 . S
H815 C824 0.929 . S
C816 H810 0.930 . S
C816 C817 1.367 . S
C816 C824 1.378 . S
C817 C816 1.367 . S
C817 C825 1.433 . S
C818 H814 0.929 . S
C818 C820 1.378 . S
C818 C822 1.350 . S
C819 C822 1.463 . S
C819 C824 1.350 . S
C819 N827 1.427 . S
C820 H811 0.930 . S
C820 C818 1.378 . S
C820 C821 1.367 . S
C821 C820 1.367 . S
C821 C823 1.433 . S
C822 C818 1.350 . S
C822 C819 1.463 . S
C822 N826 1.427 . S
C823 H813 0.929 . S
C823 C821 1.433 . S
C823 N826 1.384 . S
C824 H815 0.929 . S
C824 C816 1.378 . S
C824 C819 1.350 . S
C825 H812 0.929 . S
C825 C817 1.433 . S
C825 N827 1.384 . S
N826 C822 1.427 . S
N826 C823 1.384 . S
N827 C819 1.427 . S
N827 C825 1.384 . S
H828 C834 0.930 . S
H829 C838 0.930 . S
H830 C843 0.929 . S
H831 C841 0.929 . S
H832 C836 0.929 . S
H833 C842 0.929 . S
C834 H828 0.930 . S
C834 C835 1.367 . S
C834 C842 1.378 . S
C835 C834 1.367 . S
C835 C843 1.433 . S
C836 H832 0.929 . S
C836 C838 1.378 . S
C836 C840 1.350 . S
C837 C840 1.463 . S
C837 C842 1.350 . S
C837 N845 1.427 . S
C838 H829 0.930 . S
C838 C836 1.378 . S
C838 C839 1.367 1_556 S
C839 C838 1.367 1_554 S
C839 C841 1.433 . S
C840 C836 1.350 . S
C840 C837 1.463 . S
C840 N844 1.427 . S
C841 H831 0.929 . S
C841 C839 1.433 . S
C841 N844 1.384 1_554 S
C842 H833 0.929 . S
C842 C834 1.378 . S
C842 C837 1.350 . S
C843 H830 0.929 . S
C843 C835 1.433 . S
C843 N845 1.384 . S
N844 C840 1.427 . S
N844 C841 1.384 1_556 S
N845 C837 1.427 . S
N845 C843 1.384 . S
H846 C852 0.930 . S
H847 C856 0.930 . S
H848 C861 0.929 . S
H849 C859 0.929 . S
H850 C854 0.929 . S
H851 C860 0.929 . S
C852 H846 0.930 . S
C852 C853 1.367 . S
C852 C860 1.378 1_554 S
C853 C852 1.367 . S
C853 C861 1.433 1_554 S
C854 H850 0.929 . S
C854 C856 1.378 . S
C854 C858 1.350 . S
C855 C858 1.463 . S
C855 C860 1.350 . S
C855 N863 1.427 . S
C856 H847 0.930 . S
C856 C854 1.378 . S
C856 C857 1.367 . S
C857 C856 1.367 . S
C857 C859 1.433 . S
C858 C854 1.350 . S
C858 C855 1.463 . S
C858 N862 1.427 . S
C859 H849 0.929 . S
C859 C857 1.433 . S
C859 N862 1.384 . S
C860 H851 0.929 . S
C860 C852 1.378 1_556 S
C860 C855 1.350 . S
C861 H848 0.929 . S
C861 C853 1.433 1_556 S
C861 N863 1.384 . S
N862 C858 1.427 . S
N862 C859 1.384 . S
N863 C855 1.427 . S
N863 C861 1.384 . S
H864 C870 0.930 . S
H865 C874 0.930 . S
H866 C879 0.929 . S
H867 C877 0.929 . S
H868 C872 0.929 . S
H869 C878 0.929 . S
C870 H864 0.930 . S
C870 C871 1.367 1_556 S
C870 C878 1.378 . S
C871 C870 1.367 1_554 S
C871 C879 1.433 . S
C872 H868 0.929 . S
C872 C874 1.378 . S
C872 C876 1.350 . S
C873 C876 1.463 . S
C873 C878 1.350 . S
C873 N881 1.427 . S
C874 H865 0.930 . S
C874 C872 1.378 . S
C874 C875 1.367 . S
C875 C874 1.367 . S
C875 C877 1.433 . S
C876 C872 1.350 . S
C876 C873 1.463 . S
C876 N880 1.427 . S
C877 H867 0.929 . S
C877 C875 1.433 . S
C877 N880 1.384 . S
C878 H869 0.929 . S
C878 C870 1.378 . S
C878 C873 1.350 . S
C879 H866 0.929 . S
C879 C871 1.433 . S
C879 N881 1.384 1_554 S
N880 C876 1.427 . S
N880 C877 1.384 . S
N881 C873 1.427 . S
N881 C879 1.384 1_556 S
H882 C888 0.930 . S
H883 C892 0.930 . S
H884 C897 0.929 . S
H885 C895 0.929 . S
H886 C890 0.929 . S
H887 C896 0.929 . S
C888 H882 0.930 . S
C888 C889 1.367 . S
C888 C896 1.378 . S
C889 C888 1.367 . S
C889 C897 1.433 . S
C890 H886 0.929 . S
C890 C892 1.378 . S
C890 C894 1.350 . S
C891 C894 1.463 . S
C891 C896 1.350 . S
C891 N899 1.427 . S
C892 H883 0.930 . S
C892 C890 1.378 . S
C892 C893 1.367 . S
C893 C892 1.367 . S
C893 C895 1.433 . S
C894 C890 1.350 . S
C894 C891 1.463 . S
C894 N898 1.427 . S
C895 H885 0.929 . S
C895 C893 1.433 . S
C895 N898 1.384 . S
C896 H887 0.929 . S
C896 C888 1.378 . S
C896 C891 1.350 . S
C897 H884 0.929 . S
C897 C889 1.433 . S
C897 N899 1.384 . S
N898 C894 1.427 . S
N898 C895 1.384 . S
N899 C891 1.427 . S
N899 C897 1.384 . S
H900 C906 0.930 . S
H901 C910 0.930 . S
H902 C915 0.929 . S
H903 C913 0.929 . S
H904 C908 0.929 . S
H905 C914 0.929 . S
C906 H900 0.930 . S
C906 C907 1.367 . S
C906 C914 1.378 . S
C907 C906 1.367 . S
C907 C915 1.433 . S
C908 H904 0.929 . S
C908 C910 1.378 . S
C908 C912 1.350 . S
C909 C912 1.463 . S
C909 C914 1.350 . S
C909 N917 1.427 . S
C910 H901 0.930 . S
C910 C908 1.378 . S
C910 C911 1.367 . S
C911 C910 1.367 . S
C911 C913 1.433 . S
C912 C908 1.350 . S
C912 C909 1.463 . S
C912 N916 1.427 . S
C913 H903 0.929 . S
C913 C911 1.433 . S
C913 N916 1.384 . S
C914 H905 0.929 . S
C914 C906 1.378 . S
C914 C909 1.350 . S
C915 H902 0.929 . S
C915 C907 1.433 . S
C915 N917 1.384 . S
N916 C912 1.427 . S
N916 C913 1.384 . S
N917 C909 1.427 . S
N917 C915 1.384 . S
H918 C924 0.930 . S
H919 C928 0.930 . S
H920 C933 0.929 . S
H921 C931 0.929 . S
H922 C926 0.929 . S
H923 C932 0.929 . S
C924 H918 0.930 . S
C924 C925 1.367 . S
C924 C932 1.378 . S
C925 C924 1.367 . S
C925 C933 1.433 . S
C926 H922 0.929 . S
C926 C928 1.378 . S
C926 C930 1.350 . S
C927 C930 1.463 . S
C927 C932 1.350 . S
C927 N935 1.427 . S
C928 H919 0.930 . S
C928 C926 1.378 . S
C928 C929 1.367 . S
C929 C928 1.367 . S
C929 C931 1.433 . S
C930 C926 1.350 . S
C930 C927 1.463 . S
C930 N934 1.427 . S
C931 H921 0.929 . S
C931 C929 1.433 . S
C931 N934 1.384 . S
C932 H923 0.929 . S
C932 C924 1.378 . S
C932 C927 1.350 . S
C933 H920 0.929 . S
C933 C925 1.433 . S
C933 N935 1.384 . S
N934 C930 1.427 . S
N934 C931 1.384 . S
N935 C927 1.427 . S
N935 C933 1.384 . S
H936 C942 0.930 . S
H937 C946 0.930 . S
H938 C951 0.929 . S
H939 C949 0.929 . S
H940 C944 0.929 . S
H941 C950 0.929 . S
C942 H936 0.930 . S
C942 C943 1.367 1_554 S
C942 C950 1.378 . S
C943 C942 1.367 1_556 S
C943 C951 1.433 . S
C944 H940 0.929 . S
C944 C946 1.378 . S
C944 C948 1.350 . S
C945 C948 1.463 . S
C945 C950 1.350 . S
C945 N953 1.427 . S
C946 H937 0.930 . S
C946 C944 1.378 . S
C946 C947 1.367 . S
C947 C946 1.367 . S
C947 C949 1.433 . S
C948 C944 1.350 . S
C948 C945 1.463 . S
C948 N952 1.427 . S
C949 H939 0.929 . S
C949 C947 1.433 . S
C949 N952 1.384 . S
C950 H941 0.929 . S
C950 C942 1.378 . S
C950 C945 1.350 . S
C951 H938 0.929 . S
C951 C943 1.433 . S
C951 N953 1.384 1_556 S
N952 C948 1.427 . S
N952 C949 1.384 . S
N953 C945 1.427 . S
N953 C951 1.384 1_554 S
H954 C960 0.930 . S
H955 C964 0.930 . S
H956 C969 0.929 . S
H957 C967 0.929 . S
H958 C962 0.929 . S
H959 C968 0.929 . S
C960 H954 0.930 . S
C960 C961 1.367 1_554 S
C960 C968 1.378 . S
C961 C960 1.367 1_556 S
C961 C969 1.433 . S
C962 H958 0.929 . S
C962 C964 1.378 . S
C962 C966 1.350 . S
C963 C966 1.463 . S
C963 C968 1.350 . S
C963 N971 1.427 . S
C964 H955 0.930 . S
C964 C962 1.378 . S
C964 C965 1.367 . S
C965 C964 1.367 . S
C965 C967 1.433 . S
C966 C962 1.350 . S
C966 C963 1.463 . S
C966 N970 1.427 . S
C967 H957 0.929 . S
C967 C965 1.433 . S
C967 N970 1.384 . S
C968 H959 0.929 . S
C968 C960 1.378 . S
C968 C963 1.350 . S
C969 H956 0.929 . S
C969 C961 1.433 . S
C969 N971 1.384 1_556 S
N970 C966 1.427 . S
N970 C967 1.384 . S
N971 C963 1.427 . S
N971 C969 1.384 1_554 S
H972 C978 0.930 . S
H973 C982 0.930 . S
H974 C987 0.929 . S
H975 C985 0.929 . S
H976 C980 0.929 . S
H977 C986 0.929 . S
C978 H972 0.930 . S
C978 C979 1.367 . S
C978 C986 1.378 . S
C979 C978 1.367 . S
C979 C987 1.433 . S
C980 H976 0.929 . S
C980 C982 1.378 . S
C980 C984 1.350 . S
C981 C984 1.463 . S
C981 C986 1.350 . S
C981 N989 1.427 . S
C982 H973 0.930 . S
C982 C980 1.378 . S
C982 C983 1.367 1_554 S
C983 C982 1.367 1_556 S
C983 C985 1.433 . S
C984 C980 1.350 . S
C984 C981 1.463 . S
C984 N988 1.427 . S
C985 H975 0.929 . S
C985 C983 1.433 . S
C985 N988 1.384 1_556 S
C986 H977 0.929 . S
C986 C978 1.378 . S
C986 C981 1.350 . S
C987 H974 0.929 . S
C987 C979 1.433 . S
C987 N989 1.384 . S
N988 C984 1.427 . S
N988 C985 1.384 1_554 S
N989 C981 1.427 . S
N989 C987 1.384 . S
H990 C996 0.930 . S
H991 C1000 0.930 . S
H992 C1005 0.929 . S
H993 C1003 0.929 . S
H994 C998 0.929 . S
H995 C1004 0.929 . S
C996 H990 0.930 . S
C996 C997 1.367 . S
C996 C1004 1.378 . S
C997 C996 1.367 . S
C997 C1005 1.433 . S
C998 H994 0.929 . S
C998 C1000 1.378 . S
C998 C1002 1.350 . S
C999 C1002 1.463 . S
C999 C1004 1.350 . S
C999 N1007 1.427 . S
C1000 H991 0.930 . S
C1000 C998 1.378 . S
C1000 C1001 1.367 . S
C1001 C1000 1.367 . S
C1001 C1003 1.433 . S
C1002 C998 1.350 . S
C1002 C999 1.463 . S
C1002 N1006 1.427 . S
C1003 H993 0.929 . S
C1003 C1001 1.433 . S
C1003 N1006 1.384 . S
C1004 H995 0.929 . S
C1004 C996 1.378 . S
C1004 C999 1.350 . S
C1005 H992 0.929 . S
C1005 C997 1.433 . S
C1005 N1007 1.384 . S
N1006 C1002 1.427 . S
N1006 C1003 1.384 . S
N1007 C999 1.427 . S
N1007 C1005 1.384 . S
H1008 C1014 0.930 . S
H1009 C1018 0.930 . S
H1010 C1023 0.929 . S
H1011 C1021 0.929 . S
H1012 C1016 0.929 . S
H1013 C1022 0.929 . S
C1014 H1008 0.930 . S
C1014 C1015 1.367 . S
C1014 C1022 1.378 . S
C1015 C1014 1.367 . S
C1015 C1023 1.433 . S
C1016 H1012 0.929 . S
C1016 C1018 1.378 . S
C1016 C1020 1.350 . S
C1017 C1020 1.463 . S
C1017 C1022 1.350 . S
C1017 N1025 1.427 . S
C1018 H1009 0.930 . S
C1018 C1016 1.378 . S
C1018 C1019 1.367 . S
C1019 C1018 1.367 . S
C1019 C1021 1.433 . S
C1020 C1016 1.350 . S
C1020 C1017 1.463 . S
C1020 N1024 1.427 . S
C1021 H1011 0.929 . S
C1021 C1019 1.433 . S
C1021 N1024 1.384 . S
C1022 H1013 0.929 . S
C1022 C1014 1.378 . S
C1022 C1017 1.350 . S
C1023 H1010 0.929 . S
C1023 C1015 1.433 . S
C1023 N1025 1.384 . S
N1024 C1020 1.427 . S
N1024 C1021 1.384 . S
N1025 C1017 1.427 . S
N1025 C1023 1.384 . S
H1026 C1032 0.930 . S
H1027 C1036 0.930 . S
H1028 C1041 0.929 . S
H1029 C1039 0.929 . S
H1030 C1034 0.929 . S
H1031 C1040 0.929 . S
C1032 H1026 0.930 . S
C1032 C1033 1.367 . S
C1032 C1040 1.378 . S
C1033 C1032 1.367 . S
C1033 C1041 1.433 . S
C1034 H1030 0.929 . S
C1034 C1036 1.378 . S
C1034 C1038 1.350 . S
C1035 C1038 1.463 . S
C1035 C1040 1.350 . S
C1035 N1043 1.427 . S
C1036 H1027 0.930 . S
C1036 C1034 1.378 . S
C1036 C1037 1.367 . S
C1037 C1036 1.367 . S
C1037 C1039 1.433 . S
C1038 C1034 1.350 . S
C1038 C1035 1.463 . S
C1038 N1042 1.427 . S
C1039 H1029 0.929 . S
C1039 C1037 1.433 . S
C1039 N1042 1.384 . S
C1040 H1031 0.929 . S
C1040 C1032 1.378 . S
C1040 C1035 1.350 . S
C1041 H1028 0.929 . S
C1041 C1033 1.433 . S
C1041 N1043 1.384 . S
N1042 C1038 1.427 . S
N1042 C1039 1.384 . S
N1043 C1035 1.427 . S
N1043 C1041 1.384 . S
H1044 C1050 0.930 . S
H1045 C1054 0.930 . S
H1046 C1059 0.929 . S
H1047 C1057 0.929 . S
H1048 C1052 0.929 . S
H1049 C1058 0.929 . S
C1050 H1044 0.930 . S
C1050 C1051 1.367 . S
C1050 C1058 1.378 . S
C1051 C1050 1.367 . S
C1051 C1059 1.433 . S
C1052 H1048 0.929 . S
C1052 C1054 1.378 . S
C1052 C1056 1.350 . S
C1053 C1056 1.463 . S
C1053 C1058 1.350 . S
C1053 N1061 1.427 . S
C1054 H1045 0.930 . S
C1054 C1052 1.378 . S
C1054 C1055 1.367 . S
C1055 C1054 1.367 . S
C1055 C1057 1.433 . S
C1056 C1052 1.350 . S
C1056 C1053 1.463 . S
C1056 N1060 1.427 . S
C1057 H1047 0.929 . S
C1057 C1055 1.433 . S
C1057 N1060 1.384 . S
C1058 H1049 0.929 . S
C1058 C1050 1.378 . S
C1058 C1053 1.350 . S
C1059 H1046 0.929 . S
C1059 C1051 1.433 . S
C1059 N1061 1.384 . S
N1060 C1056 1.427 . S
N1060 C1057 1.384 . S
N1061 C1053 1.427 . S
N1061 C1059 1.384 . S
H1062 C1068 0.930 . S
H1063 C1072 0.930 . S
H1064 C1077 0.929 . S
H1065 C1075 0.929 . S
H1066 C1070 0.929 . S
H1067 C1076 0.929 . S
C1068 H1062 0.930 . S
C1068 C1069 1.367 . S
C1068 C1076 1.378 . S
C1069 C1068 1.367 . S
C1069 C1077 1.433 . S
C1070 H1066 0.929 . S
C1070 C1072 1.378 . S
C1070 C1074 1.350 . S
C1071 C1074 1.463 . S
C1071 C1076 1.350 . S
C1071 N1079 1.427 . S
C1072 H1063 0.930 . S
C1072 C1070 1.378 . S
C1072 C1073 1.367 . S
C1073 C1072 1.367 . S
C1073 C1075 1.433 . S
C1074 C1070 1.350 . S
C1074 C1071 1.463 . S
C1074 N1078 1.427 . S
C1075 H1065 0.929 . S
C1075 C1073 1.433 . S
C1075 N1078 1.384 . S
C1076 H1067 0.929 . S
C1076 C1068 1.378 . S
C1076 C1071 1.350 . S
C1077 H1064 0.929 . S
C1077 C1069 1.433 . S
C1077 N1079 1.384 . S
N1078 C1074 1.427 . S
N1078 C1075 1.384 . S
N1079 C1071 1.427 . S
N1079 C1077 1.384 . S
H1080 C1086 0.930 . S
H1081 C1090 0.930 . S
H1082 C1095 0.929 . S
H1083 C1093 0.929 . S
H1084 C1088 0.929 . S
H1085 C1094 0.929 . S
C1086 H1080 0.930 . S
C1086 C1087 1.367 . S
C1086 C1094 1.378 . S
C1087 C1086 1.367 . S
C1087 C1095 1.433 . S
C1088 H1084 0.929 . S
C1088 C1090 1.378 . S
C1088 C1092 1.350 . S
C1089 C1092 1.463 . S
C1089 C1094 1.350 . S
C1089 N1097 1.427 . S
C1090 H1081 0.930 . S
C1090 C1088 1.378 . S
C1090 C1091 1.367 . S
C1091 C1090 1.367 . S
C1091 C1093 1.433 . S
C1092 C1088 1.350 . S
C1092 C1089 1.463 . S
C1092 N1096 1.427 . S
C1093 H1083 0.929 . S
C1093 C1091 1.433 . S
C1093 N1096 1.384 . S
C1094 H1085 0.929 . S
C1094 C1086 1.378 . S
C1094 C1089 1.350 . S
C1095 H1082 0.929 . S
C1095 C1087 1.433 . S
C1095 N1097 1.384 . S
N1096 C1092 1.427 . S
N1096 C1093 1.384 . S
N1097 C1089 1.427 . S
N1097 C1095 1.384 . S
H1098 C1104 0.930 . S
H1099 C1108 0.930 . S
H1100 C1113 0.929 . S
H1101 C1111 0.929 . S
H1102 C1106 0.929 . S
H1103 C1112 0.929 . S
C1104 H1098 0.930 . S
C1104 C1105 1.367 . S
C1104 C1112 1.378 . S
C1105 C1104 1.367 . S
C1105 C1113 1.433 . S
C1106 H1102 0.929 . S
C1106 C1108 1.378 . S
C1106 C1110 1.350 . S
C1107 C1110 1.463 . S
C1107 C1112 1.350 . S
C1107 N1115 1.427 . S
C1108 H1099 0.930 . S
C1108 C1106 1.378 . S
C1108 C1109 1.367 1_556 S
C1109 C1108 1.367 1_554 S
C1109 C1111 1.433 . S
C1110 C1106 1.350 . S
C1110 C1107 1.463 . S
C1110 N1114 1.427 1_556 S
C1111 H1101 0.929 . S
C1111 C1109 1.433 . S
C1111 N1114 1.384 . S
C1112 H1103 0.929 . S
C1112 C1104 1.378 . S
C1112 C1107 1.350 . S
C1113 H1100 0.929 . S
C1113 C1105 1.433 . S
C1113 N1115 1.384 . S
N1114 C1110 1.427 1_554 S
N1114 C1111 1.384 . S
N1115 C1107 1.427 . S
N1115 C1113 1.384 . S
H1116 C1122 0.930 . S
H1117 C1126 0.930 . S
H1118 C1131 0.929 . S
H1119 C1129 0.929 . S
H1120 C1124 0.929 . S
H1121 C1130 0.929 . S
C1122 H1116 0.930 . S
C1122 C1123 1.367 . S
C1122 C1130 1.378 . S
C1123 C1122 1.367 . S
C1123 C1131 1.433 1_554 S
C1124 H1120 0.929 . S
C1124 C1126 1.378 . S
C1124 C1128 1.350 . S
C1125 C1128 1.463 . S
C1125 C1130 1.350 1_556 S
C1125 N1133 1.427 . S
C1126 H1117 0.930 . S
C1126 C1124 1.378 . S
C1126 C1127 1.367 . S
C1127 C1126 1.367 . S
C1127 C1129 1.433 . S
C1128 C1124 1.350 . S
C1128 C1125 1.463 . S
C1128 N1132 1.427 . S
C1129 H1119 0.929 . S
C1129 C1127 1.433 . S
C1129 N1132 1.384 . S
C1130 H1121 0.929 . S
C1130 C1122 1.378 . S
C1130 C1125 1.350 1_554 S
C1131 H1118 0.929 . S
C1131 C1123 1.433 1_556 S
C1131 N1133 1.384 . S
N1132 C1128 1.427 . S
N1132 C1129 1.384 . S
N1133 C1125 1.427 . S
N1133 C1131 1.384 . S
H1134 C1140 0.930 . S
H1135 C1144 0.930 . S
H1136 C1149 0.929 . S
H1137 C1147 0.929 . S
H1138 C1142 0.929 . S
H1139 C1148 0.929 . S
C1140 H1134 0.930 . S
C1140 C1141 1.367 . S
C1140 C1148 1.378 . S
C1141 C1140 1.367 . S
C1141 C1149 1.433 . S
C1142 H1138 0.929 . S
C1142 C1144 1.378 1_556 S
C1142 C1146 1.350 . S
C1143 C1146 1.463 . S
C1143 C1148 1.350 . S
C1143 N1151 1.427 . S
C1144 H1135 0.930 . S
C1144 C1142 1.378 1_554 S
C1144 C1145 1.367 . S
C1145 C1144 1.367 . S
C1145 C1147 1.433 1_554 S
C1146 C1142 1.350 . S
C1146 C1143 1.463 . S
C1146 N1150 1.427 . S
C1147 H1137 0.929 . S
C1147 C1145 1.433 1_556 S
C1147 N1150 1.384 . S
C1148 H1139 0.929 . S
C1148 C1140 1.378 . S
C1148 C1143 1.350 . S
C1149 H1136 0.929 . S
C1149 C1141 1.433 . S
C1149 N1151 1.384 . S
N1150 C1146 1.427 . S
N1150 C1147 1.384 . S
N1151 C1143 1.427 . S
N1151 C1149 1.384 . S
H1152 C1158 0.930 . S
H1153 C1162 0.930 . S
H1154 C1167 0.929 . S
H1155 C1165 0.929 . S
H1156 C1160 0.929 . S
H1157 C1166 0.929 . S
C1158 H1152 0.930 . S
C1158 C1159 1.367 . S
C1158 C1166 1.378 . S
C1159 C1158 1.367 . S
C1159 C1167 1.433 . S
C1160 H1156 0.929 . S
C1160 C1162 1.378 . S
C1160 C1164 1.350 . S
C1161 C1164 1.463 . S
C1161 C1166 1.350 . S
C1161 N1169 1.427 . S
C1162 H1153 0.930 . S
C1162 C1160 1.378 . S
C1162 C1163 1.367 . S
C1163 C1162 1.367 . S
C1163 C1165 1.433 . S
C1164 C1160 1.350 . S
C1164 C1161 1.463 . S
C1164 N1168 1.427 . S
C1165 H1155 0.929 . S
C1165 C1163 1.433 . S
C1165 N1168 1.384 . S
C1166 H1157 0.929 . S
C1166 C1158 1.378 . S
C1166 C1161 1.350 . S
C1167 H1154 0.929 . S
C1167 C1159 1.433 . S
C1167 N1169 1.384 . S
N1168 C1164 1.427 . S
N1168 C1165 1.384 . S
N1169 C1161 1.427 . S
N1169 C1167 1.384 . S
H1170 C1176 0.930 . S
H1171 C1180 0.930 . S
H1172 C1185 0.929 . S
H1173 C1183 0.929 . S
H1174 C1178 0.929 . S
H1175 C1184 0.929 . S
C1176 H1170 0.930 . S
C1176 C1177 1.367 . S
C1176 C1184 1.378 . S
C1177 C1176 1.367 . S
C1177 C1185 1.433 . S
C1178 H1174 0.929 . S
C1178 C1180 1.378 . S
C1178 C1182 1.350 . S
C1179 C1182 1.463 . S
C1179 C1184 1.350 . S
C1179 N1187 1.427 . S
C1180 H1171 0.930 . S
C1180 C1178 1.378 . S
C1180 C1181 1.367 . S
C1181 C1180 1.367 . S
C1181 C1183 1.433 . S
C1182 C1178 1.350 . S
C1182 C1179 1.463 . S
C1182 N1186 1.427 . S
C1183 H1173 0.929 . S
C1183 C1181 1.433 . S
C1183 N1186 1.384 . S
C1184 H1175 0.929 . S
C1184 C1176 1.378 . S
C1184 C1179 1.350 . S
C1185 H1172 0.929 . S
C1185 C1177 1.433 . S
C1185 N1187 1.384 . S
N1186 C1182 1.427 . S
N1186 C1183 1.384 . S
N1187 C1179 1.427 . S
N1187 C1185 1.384 . S
H1188 C1194 0.930 . S
H1189 C1198 0.930 . S
H1190 C1203 0.929 . S
H1191 C1201 0.929 . S
H1192 C1196 0.929 . S
H1193 C1202 0.929 . S
C1194 H1188 0.930 . S
C1194 C1195 1.367 . S
C1194 C1202 1.378 . S
C1195 C1194 1.367 . S
C1195 C1203 1.433 . S
C1196 H1192 0.929 . S
C1196 C1198 1.378 . S
C1196 C1200 1.350 . S
C1197 C1200 1.463 . S
C1197 C1202 1.350 . S
C1197 N1205 1.427 . S
C1198 H1189 0.930 . S
C1198 C1196 1.378 . S
C1198 C1199 1.367 . S
C1199 C1198 1.367 . S
C1199 C1201 1.433 . S
C1200 C1196 1.350 . S
C1200 C1197 1.463 . S
C1200 N1204 1.427 . S
C1201 H1191 0.929 . S
C1201 C1199 1.433 . S
C1201 N1204 1.384 . S
C1202 H1193 0.929 . S
C1202 C1194 1.378 . S
C1202 C1197 1.350 . S
C1203 H1190 0.929 . S
C1203 C1195 1.433 . S
C1203 N1205 1.384 . S
N1204 C1200 1.427 . S
N1204 C1201 1.384 . S
N1205 C1197 1.427 . S
N1205 C1203 1.384 . S
H1206 C1212 0.930 . S
H1207 C1216 0.930 . S
H1208 C1221 0.929 . S
H1209 C1219 0.929 . S
H1210 C1214 0.929 . S
H1211 C1220 0.929 . S
C1212 H1206 0.930 . S
C1212 C1213 1.367 . S
C1212 C1220 1.378 . S
C1213 C1212 1.367 . S
C1213 C1221 1.433 . S
C1214 H1210 0.929 . S
C1214 C1216 1.378 . S
C1214 C1218 1.350 . S
C1215 C1218 1.463 . S
C1215 C1220 1.350 . S
C1215 N1223 1.427 . S
C1216 H1207 0.930 . S
C1216 C1214 1.378 . S
C1216 C1217 1.367 . S
C1217 C1216 1.367 . S
C1217 C1219 1.433 . S
C1218 C1214 1.350 . S
C1218 C1215 1.463 . S
C1218 N1222 1.427 . S
C1219 H1209 0.929 . S
C1219 C1217 1.433 . S
C1219 N1222 1.384 . S
C1220 H1211 0.929 . S
C1220 C1212 1.378 . S
C1220 C1215 1.350 . S
C1221 H1208 0.929 . S
C1221 C1213 1.433 . S
C1221 N1223 1.384 . S
N1222 C1218 1.427 . S
N1222 C1219 1.384 . S
N1223 C1215 1.427 . S
N1223 C1221 1.384 . S
H1224 C1230 0.930 . S
H1225 C1234 0.930 . S
H1226 C1239 0.929 . S
H1227 C1237 0.929 . S
H1228 C1232 0.929 . S
H1229 C1238 0.929 . S
C1230 H1224 0.930 . S
C1230 C1231 1.367 . S
C1230 C1238 1.378 . S
C1231 C1230 1.367 . S
C1231 C1239 1.433 . S
C1232 H1228 0.929 . S
C1232 C1234 1.378 . S
C1232 C1236 1.350 . S
C1233 C1236 1.463 . S
C1233 C1238 1.350 . S
C1233 N1241 1.427 . S
C1234 H1225 0.930 . S
C1234 C1232 1.378 . S
C1234 C1235 1.367 . S
C1235 C1234 1.367 . S
C1235 C1237 1.433 . S
C1236 C1232 1.350 . S
C1236 C1233 1.463 . S
C1236 N1240 1.427 . S
C1237 H1227 0.929 . S
C1237 C1235 1.433 . S
C1237 N1240 1.384 . S
C1238 H1229 0.929 . S
C1238 C1230 1.378 . S
C1238 C1233 1.350 . S
C1239 H1226 0.929 . S
C1239 C1231 1.433 . S
C1239 N1241 1.384 . S
N1240 C1236 1.427 . S
N1240 C1237 1.384 . S
N1241 C1233 1.427 . S
N1241 C1239 1.384 . S
H1242 C1248 0.930 . S
H1243 C1252 0.930 . S
H1244 C1257 0.929 . S
H1245 C1255 0.929 . S
H1246 C1250 0.929 . S
H1247 C1256 0.929 . S
C1248 H1242 0.930 . S
C1248 C1249 1.367 . S
C1248 C1256 1.378 . S
C1249 C1248 1.367 . S
C1249 C1257 1.433 . S
C1250 H1246 0.929 . S
C1250 C1252 1.378 . S
C1250 C1254 1.350 . S
C1251 C1254 1.463 . S
C1251 C1256 1.350 . S
C1251 N1259 1.427 . S
C1252 H1243 0.930 . S
C1252 C1250 1.378 . S
C1252 C1253 1.367 . S
C1253 C1252 1.367 . S
C1253 C1255 1.433 . S
C1254 C1250 1.350 . S
C1254 C1251 1.463 . S
C1254 N1258 1.427 . S
C1255 H1245 0.929 . S
C1255 C1253 1.433 . S
C1255 N1258 1.384 . S
C1256 H1247 0.929 . S
C1256 C1248 1.378 . S
C1256 C1251 1.350 . S
C1257 H1244 0.929 . S
C1257 C1249 1.433 . S
C1257 N1259 1.384 . S
N1258 C1254 1.427 . S
N1258 C1255 1.384 . S
N1259 C1251 1.427 . S
N1259 C1257 1.384 . S
H1260 C1266 0.930 . S
H1261 C1270 0.930 . S
H1262 C1275 0.929 . S
H1263 C1273 0.929 . S
H1264 C1268 0.929 . S
H1265 C1274 0.929 . S
C1266 H1260 0.930 . S
C1266 C1267 1.367 . S
C1266 C1274 1.378 . S
C1267 C1266 1.367 . S
C1267 C1275 1.433 . S
C1268 H1264 0.929 . S
C1268 C1270 1.378 . S
C1268 C1272 1.350 . S
C1269 C1272 1.463 . S
C1269 C1274 1.350 . S
C1269 N1277 1.427 . S
C1270 H1261 0.930 . S
C1270 C1268 1.378 . S
C1270 C1271 1.367 . S
C1271 C1270 1.367 . S
C1271 C1273 1.433 . S
C1272 C1268 1.350 . S
C1272 C1269 1.463 . S
C1272 N1276 1.427 . S
C1273 H1263 0.929 . S
C1273 C1271 1.433 . S
C1273 N1276 1.384 . S
C1274 H1265 0.929 . S
C1274 C1266 1.378 . S
C1274 C1269 1.350 . S
C1275 H1262 0.929 . S
C1275 C1267 1.433 . S
C1275 N1277 1.384 . S
N1276 C1272 1.427 . S
N1276 C1273 1.384 . S
N1277 C1269 1.427 . S
N1277 C1275 1.384 . S
H1278 C1284 0.930 . S
H1279 C1288 0.930 . S
H1280 C1293 0.929 . S
H1281 C1291 0.929 . S
H1282 C1286 0.929 . S
H1283 C1292 0.929 . S
C1284 H1278 0.930 . S
C1284 C1285 1.367 . S
C1284 C1292 1.378 . S
C1285 C1284 1.367 . S
C1285 C1293 1.433 . S
C1286 H1282 0.929 . S
C1286 C1288 1.378 . S
C1286 C1290 1.350 . S
C1287 C1290 1.463 . S
C1287 C1292 1.350 . S
C1287 N1295 1.427 . S
C1288 H1279 0.930 . S
C1288 C1286 1.378 . S
C1288 C1289 1.367 . S
C1289 C1288 1.367 . S
C1289 C1291 1.433 . S
C1290 C1286 1.350 . S
C1290 C1287 1.463 . S
C1290 N1294 1.427 . S
C1291 H1281 0.929 . S
C1291 C1289 1.433 . S
C1291 N1294 1.384 . S
C1292 H1283 0.929 . S
C1292 C1284 1.378 . S
C1292 C1287 1.350 . S
C1293 H1280 0.929 . S
C1293 C1285 1.433 . S
C1293 N1295 1.384 . S
N1294 C1290 1.427 . S
N1294 C1291 1.384 . S
N1295 C1287 1.427 . S
N1295 C1293 1.384 . S
H1296 C1302 0.930 . S
H1297 C1306 0.930 . S
H1298 C1311 0.929 . S
H1299 C1309 0.929 . S
H1300 C1304 0.929 . S
H1301 C1310 0.929 . S
C1302 H1296 0.930 . S
C1302 C1303 1.367 . S
C1302 C1310 1.378 . S
C1303 C1302 1.367 . S
C1303 C1311 1.433 . S
C1304 H1300 0.929 . S
C1304 C1306 1.378 . S
C1304 C1308 1.350 . S
C1305 C1308 1.463 . S
C1305 C1310 1.350 . S
C1305 N1313 1.427 . S
C1306 H1297 0.930 . S
C1306 C1304 1.378 . S
C1306 C1307 1.367 . S
C1307 C1306 1.367 . S
C1307 C1309 1.433 . S
C1308 C1304 1.350 . S
C1308 C1305 1.463 . S
C1308 N1312 1.427 . S
C1309 H1299 0.929 . S
C1309 C1307 1.433 . S
C1309 N1312 1.384 . S
C1310 H1301 0.929 . S
C1310 C1302 1.378 . S
C1310 C1305 1.350 . S
C1311 H1298 0.929 . S
C1311 C1303 1.433 . S
C1311 N1313 1.384 . S
N1312 C1308 1.427 . S
N1312 C1309 1.384 . S
N1313 C1305 1.427 . S
N1313 C1311 1.384 . S
H1314 C1320 0.930 . S
H1315 C1324 0.930 . S
H1316 C1329 0.929 . S
H1317 C1327 0.929 . S
H1318 C1322 0.929 . S
H1319 C1328 0.929 . S
C1320 H1314 0.930 . S
C1320 C1321 1.367 . S
C1320 C1328 1.378 . S
C1321 C1320 1.367 . S
C1321 C1329 1.433 . S
C1322 H1318 0.929 . S
C1322 C1324 1.378 . S
C1322 C1326 1.350 . S
C1323 C1326 1.463 . S
C1323 C1328 1.350 . S
C1323 N1331 1.427 . S
C1324 H1315 0.930 . S
C1324 C1322 1.378 . S
C1324 C1325 1.367 . S
C1325 C1324 1.367 . S
C1325 C1327 1.433 . S
C1326 C1322 1.350 . S
C1326 C1323 1.463 . S
C1326 N1330 1.427 . S
C1327 H1317 0.929 . S
C1327 C1325 1.433 . S
C1327 N1330 1.384 . S
C1328 H1319 0.929 . S
C1328 C1320 1.378 . S
C1328 C1323 1.350 . S
C1329 H1316 0.929 . S
C1329 C1321 1.433 . S
C1329 N1331 1.384 . S
N1330 C1326 1.427 . S
N1330 C1327 1.384 . S
N1331 C1323 1.427 . S
N1331 C1329 1.384 . S
H1332 C1338 0.930 . S
H1333 C1342 0.930 . S
H1334 C1347 0.929 . S
H1335 C1345 0.929 . S
H1336 C1340 0.929 . S
H1337 C1346 0.929 . S
C1338 H1332 0.930 . S
C1338 C1339 1.367 . S
C1338 C1346 1.378 . S
C1339 C1338 1.367 . S
C1339 C1347 1.433 . S
C1340 H1336 0.929 . S
C1340 C1342 1.378 . S
C1340 C1344 1.350 . S
C1341 C1344 1.463 . S
C1341 C1346 1.350 . S
C1341 N1349 1.427 . S
C1342 H1333 0.930 . S
C1342 C1340 1.378 . S
C1342 C1343 1.367 . S
C1343 C1342 1.367 . S
C1343 C1345 1.433 . S
C1344 C1340 1.350 . S
C1344 C1341 1.463 . S
C1344 N1348 1.427 . S
C1345 H1335 0.929 . S
C1345 C1343 1.433 . S
C1345 N1348 1.384 . S
C1346 H1337 0.929 . S
C1346 C1338 1.378 . S
C1346 C1341 1.350 . S
C1347 H1334 0.929 . S
C1347 C1339 1.433 . S
C1347 N1349 1.384 . S
N1348 C1344 1.427 . S
N1348 C1345 1.384 . S
N1349 C1341 1.427 . S
N1349 C1347 1.384 . S
H1350 C1356 0.930 . S
H1351 C1360 0.930 . S
H1352 C1365 0.929 . S
H1353 C1363 0.929 . S
H1354 C1358 0.929 . S
H1355 C1364 0.929 . S
C1356 H1350 0.930 . S
C1356 C1357 1.367 . S
C1356 C1364 1.378 . S
C1357 C1356 1.367 . S
C1357 C1365 1.433 . S
C1358 H1354 0.929 . S
C1358 C1360 1.378 . S
C1358 C1362 1.350 . S
C1359 C1362 1.463 . S
C1359 C1364 1.350 . S
C1359 N1367 1.427 . S
C1360 H1351 0.930 . S
C1360 C1358 1.378 . S
C1360 C1361 1.367 . S
C1361 C1360 1.367 . S
C1361 C1363 1.433 . S
C1362 C1358 1.350 . S
C1362 C1359 1.463 . S
C1362 N1366 1.427 . S
C1363 H1353 0.929 . S
C1363 C1361 1.433 . S
C1363 N1366 1.384 . S
C1364 H1355 0.929 . S
C1364 C1356 1.378 . S
C1364 C1359 1.350 . S
C1365 H1352 0.929 . S
C1365 C1357 1.433 . S
C1365 N1367 1.384 . S
N1366 C1362 1.427 . S
N1366 C1363 1.384 . S
N1367 C1359 1.427 . S
N1367 C1365 1.384 . S
H1368 C1374 0.930 . S
H1369 C1378 0.930 . S
H1370 C1383 0.929 . S
H1371 C1381 0.929 . S
H1372 C1376 0.929 . S
H1373 C1382 0.929 . S
C1374 H1368 0.930 . S
C1374 C1375 1.367 . S
C1374 C1382 1.378 . S
C1375 C1374 1.367 . S
C1375 C1383 1.433 . S
C1376 H1372 0.929 . S
C1376 C1378 1.378 . S
C1376 C1380 1.350 . S
C1377 C1380 1.463 . S
C1377 C1382 1.350 . S
C1377 N1385 1.427 . S
C1378 H1369 0.930 . S
C1378 C1376 1.378 . S
C1378 C1379 1.367 . S
C1379 C1378 1.367 . S
C1379 C1381 1.433 . S
C1380 C1376 1.350 . S
C1380 C1377 1.463 . S
C1380 N1384 1.427 . S
C1381 H1371 0.929 . S
C1381 C1379 1.433 . S
C1381 N1384 1.384 . S
C1382 H1373 0.929 . S
C1382 C1374 1.378 . S
C1382 C1377 1.350 . S
C1383 H1370 0.929 . S
C1383 C1375 1.433 . S
C1383 N1385 1.384 . S
N1384 C1380 1.427 . S
N1384 C1381 1.384 . S
N1385 C1377 1.427 . S
N1385 C1383 1.384 . S
H1386 C1392 0.930 . S
H1387 C1396 0.930 . S
H1388 C1401 0.929 . S
H1389 C1399 0.929 . S
H1390 C1394 0.929 . S
H1391 C1400 0.929 . S
C1392 H1386 0.930 . S
C1392 C1393 1.367 . S
C1392 C1400 1.378 . S
C1393 C1392 1.367 . S
C1393 C1401 1.433 . S
C1394 H1390 0.929 . S
C1394 C1396 1.378 . S
C1394 C1398 1.350 . S
C1395 C1398 1.463 . S
C1395 C1400 1.350 . S
C1395 N1403 1.427 . S
C1396 H1387 0.930 . S
C1396 C1394 1.378 . S
C1396 C1397 1.367 . S
C1397 C1396 1.367 . S
C1397 C1399 1.433 . S
C1398 C1394 1.350 . S
C1398 C1395 1.463 . S
C1398 N1402 1.427 . S
C1399 H1389 0.929 . S
C1399 C1397 1.433 . S
C1399 N1402 1.384 . S
C1400 H1391 0.929 . S
C1400 C1392 1.378 . S
C1400 C1395 1.350 . S
C1401 H1388 0.929 . S
C1401 C1393 1.433 . S
C1401 N1403 1.384 . S
N1402 C1398 1.427 . S
N1402 C1399 1.384 . S
N1403 C1395 1.427 . S
N1403 C1401 1.384 . S
H1404 C1410 0.930 . S
H1405 C1414 0.930 . S
H1406 C1419 0.929 . S
H1407 C1417 0.929 . S
H1408 C1412 0.929 . S
H1409 C1418 0.929 . S
C1410 H1404 0.930 . S
C1410 C1411 1.367 . S
C1410 C1418 1.378 . S
C1411 C1410 1.367 . S
C1411 C1419 1.433 . S
C1412 H1408 0.929 . S
C1412 C1414 1.378 . S
C1412 C1416 1.350 . S
C1413 C1416 1.463 . S
C1413 C1418 1.350 . S
C1413 N1421 1.427 . S
C1414 H1405 0.930 . S
C1414 C1412 1.378 . S
C1414 C1415 1.367 . S
C1415 C1414 1.367 . S
C1415 C1417 1.433 . S
C1416 C1412 1.350 . S
C1416 C1413 1.463 . S
C1416 N1420 1.427 . S
C1417 H1407 0.929 . S
C1417 C1415 1.433 . S
C1417 N1420 1.384 . S
C1418 H1409 0.929 . S
C1418 C1410 1.378 . S
C1418 C1413 1.350 . S
C1419 H1406 0.929 . S
C1419 C1411 1.433 . S
C1419 N1421 1.384 . S
N1420 C1416 1.427 . S
N1420 C1417 1.384 . S
N1421 C1413 1.427 . S
N1421 C1419 1.384 . S
H1422 C1428 0.930 . S
H1423 C1432 0.930 . S
H1424 C1437 0.928 1_556 S
H1425 C1435 0.929 . S
H1426 C1430 0.929 . S
H1427 C1436 0.929 . S
C1428 H1422 0.930 . S
C1428 C1429 1.367 . S
C1428 C1436 1.378 1_556 S
C1429 C1428 1.367 . S
C1429 C1437 1.422 1_556 S
C1430 H1426 0.929 . S
C1430 C1432 1.378 . S
C1430 C1434 1.350 . S
C1431 C1434 1.463 . S
C1431 C1436 1.350 . S
C1431 N1439 1.427 . S
C1432 H1423 0.930 . S
C1432 C1430 1.378 . S
C1432 C1433 1.367 . S
C1433 C1432 1.367 . S
C1433 C1435 1.433 . S
C1434 C1430 1.350 . S
C1434 C1431 1.463 . S
C1434 N1438 1.427 . S
C1435 H1425 0.929 . S
C1435 C1433 1.433 . S
C1435 N1438 1.384 . S
C1436 H1427 0.929 . S
C1436 C1428 1.378 1_554 S
C1436 C1431 1.350 . S
C1437 H1424 0.928 1_554 S
C1437 C1429 1.422 1_554 S
C1437 N1439 1.397 . S
N1438 C1434 1.427 . S
N1438 C1435 1.384 . S
N1439 C1431 1.427 . S
N1439 C1437 1.397 . S
H1440 C1446 0.930 . S
H1441 C1450 0.930 . S
H1442 C1455 0.929 . S
H1443 C1453 0.929 . S
H1444 C1448 0.929 . S
H1445 C1454 0.929 . S
C1446 H1440 0.930 . S
C1446 C1447 1.367 . S
C1446 C1454 1.378 . S
C1447 C1446 1.367 . S
C1447 C1455 1.433 1_556 S
C1448 H1444 0.929 . S
C1448 C1450 1.378 . S
C1448 C1452 1.350 . S
C1449 C1452 1.463 . S
C1449 C1454 1.350 1_554 S
C1449 N1457 1.427 . S
C1450 H1441 0.930 . S
C1450 C1448 1.378 . S
C1450 C1451 1.367 . S
C1451 C1450 1.367 . S
C1451 C1453 1.433 . S
C1452 C1448 1.350 . S
C1452 C1449 1.463 . S
C1452 N1456 1.427 . S
C1453 H1443 0.929 . S
C1453 C1451 1.433 . S
C1453 N1456 1.384 . S
C1454 H1445 0.929 . S
C1454 C1446 1.378 . S
C1454 C1449 1.350 1_556 S
C1455 H1442 0.929 . S
C1455 C1447 1.433 1_554 S
C1455 N1457 1.384 . S
N1456 C1452 1.427 . S
N1456 C1453 1.384 . S
N1457 C1449 1.427 . S
N1457 C1455 1.384 . S
H1458 C1464 0.930 . S
H1459 C1468 0.930 . S
H1460 C1473 0.929 . S
H1461 C1471 0.929 . S
H1462 C1466 0.929 . S
H1463 C1472 0.929 . S
C1464 H1458 0.930 . S
C1464 C1465 1.367 . S
C1464 C1472 1.378 1_556 S
C1465 C1464 1.367 . S
C1465 C1473 1.433 . S
C1466 H1462 0.929 . S
C1466 C1468 1.378 . S
C1466 C1470 1.350 . S
C1467 C1470 1.463 . S
C1467 C1472 1.350 . S
C1467 N1475 1.427 . S
C1468 H1459 0.930 . S
C1468 C1466 1.378 . S
C1468 C1469 1.367 . S
C1469 C1468 1.367 . S
C1469 C1471 1.433 . S
C1470 C1466 1.350 . S
C1470 C1467 1.463 . S
C1470 N1474 1.427 . S
C1471 H1461 0.929 . S
C1471 C1469 1.433 . S
C1471 N1474 1.384 . S
C1472 H1463 0.929 . S
C1472 C1464 1.378 1_554 S
C1472 C1467 1.350 . S
C1473 H1460 0.929 . S
C1473 C1465 1.433 . S
C1473 N1475 1.384 1_556 S
N1474 C1470 1.427 . S
N1474 C1471 1.384 . S
N1475 C1467 1.427 . S
N1475 C1473 1.384 1_554 S
H1476 C1482 0.930 . S
H1477 C1486 0.930 . S
H1478 C1491 0.929 . S
H1479 C1489 0.929 . S
H1480 C1484 0.929 . S
H1481 C1490 0.929 . S
C1482 H1476 0.930 . S
C1482 C1483 1.367 . S
C1482 C1490 1.378 . S
C1483 C1482 1.367 . S
C1483 C1491 1.433 . S
C1484 H1480 0.929 . S
C1484 C1486 1.378 . S
C1484 C1488 1.350 . S
C1485 C1488 1.463 . S
C1485 C1490 1.350 . S
C1485 N1493 1.427 . S
C1486 H1477 0.930 . S
C1486 C1484 1.378 . S
C1486 C1487 1.367 . S
C1487 C1486 1.367 . S
C1487 C1489 1.433 . S
C1488 C1484 1.350 . S
C1488 C1485 1.463 . S
C1488 N1492 1.427 . S
C1489 H1479 0.929 . S
C1489 C1487 1.433 . S
C1489 N1492 1.384 . S
C1490 H1481 0.929 . S
C1490 C1482 1.378 . S
C1490 C1485 1.350 . S
C1491 H1478 0.929 . S
C1491 C1483 1.433 . S
C1491 N1493 1.384 . S
N1492 C1488 1.427 . S
N1492 C1489 1.384 . S
N1493 C1485 1.427 . S
N1493 C1491 1.384 . S
H1494 C1500 0.930 . S
H1495 C1504 0.930 . S
H1496 C1509 0.929 . S
H1497 C1507 0.929 1_556 S
H1498 C1502 0.929 . S
H1499 C1508 0.929 . S
C1500 H1494 0.930 . S
C1500 C1501 1.367 . S
C1500 C1508 1.378 . S
C1501 C1500 1.367 . S
C1501 C1509 1.433 . S
C1502 H1498 0.929 . S
C1502 C1504 1.378 . S
C1502 C1506 1.350 . S
C1503 C1506 1.463 . S
C1503 C1508 1.350 . S
C1503 N1511 1.427 . S
C1504 H1495 0.930 . S
C1504 C1502 1.378 . S
C1504 C1505 1.367 . S
C1505 C1504 1.367 . S
C1505 C1507 1.433 . S
C1506 C1502 1.350 . S
C1506 C1503 1.463 . S
C1506 N1510 1.427 . S
C1507 H1497 0.929 1_554 S
C1507 C1505 1.433 . S
C1507 N1510 1.384 . S
C1508 H1499 0.929 . S
C1508 C1500 1.378 . S
C1508 C1503 1.350 . S
C1509 H1496 0.929 . S
C1509 C1501 1.433 . S
C1509 N1511 1.384 . S
N1510 C1506 1.427 . S
N1510 C1507 1.384 . S
N1511 C1503 1.427 . S
N1511 C1509 1.384 . S
H1512 C1518 0.930 . S
H1513 C1522 0.930 . S
H1514 C1527 0.929 1_556 S
H1515 C1525 0.929 . S
H1516 C1520 0.929 . S
H1517 C1526 0.929 . S
C1518 H1512 0.930 . S
C1518 C1519 1.367 . S
C1518 C1526 1.378 . S
C1519 C1518 1.367 . S
C1519 C1527 1.433 . S
C1520 H1516 0.929 . S
C1520 C1522 1.378 . S
C1520 C1524 1.350 . S
C1521 C1524 1.463 . S
C1521 C1526 1.350 . S
C1521 N1529 1.427 . S
C1522 H1513 0.930 . S
C1522 C1520 1.378 . S
C1522 C1523 1.367 . S
C1523 C1522 1.367 . S
C1523 C1525 1.433 . S
C1524 C1520 1.350 . S
C1524 C1521 1.463 . S
C1524 N1528 1.427 . S
C1525 H1515 0.929 . S
C1525 C1523 1.433 . S
C1525 N1528 1.384 . S
C1526 H1517 0.929 . S
C1526 C1518 1.378 . S
C1526 C1521 1.350 . S
C1527 H1514 0.929 1_554 S
C1527 C1519 1.433 . S
C1527 N1529 1.384 . S
N1528 C1524 1.427 . S
N1528 C1525 1.384 . S
N1529 C1521 1.427 . S
N1529 C1527 1.384 . S
H1530 C1536 0.930 . S
H1531 C1540 0.930 . S
H1532 C1545 0.929 . S
H1533 C1543 0.929 . S
H1534 C1538 0.929 . S
H1535 C1544 0.929 . S
C1536 H1530 0.930 . S
C1536 C1537 1.367 . S
C1536 C1544 1.378 . S
C1537 C1536 1.367 . S
C1537 C1545 1.433 . S
C1538 H1534 0.929 . S
C1538 C1540 1.378 . S
C1538 C1542 1.350 . S
C1539 C1542 1.463 . S
C1539 C1544 1.350 . S
C1539 N1547 1.427 . S
C1540 H1531 0.930 . S
C1540 C1538 1.378 . S
C1540 C1541 1.367 . S
C1541 C1540 1.367 . S
C1541 C1543 1.433 . S
C1542 C1538 1.350 . S
C1542 C1539 1.463 . S
C1542 N1546 1.427 . S
C1543 H1533 0.929 . S
C1543 C1541 1.433 . S
C1543 N1546 1.384 . S
C1544 H1535 0.929 . S
C1544 C1536 1.378 . S
C1544 C1539 1.350 . S
C1545 H1532 0.929 . S
C1545 C1537 1.433 . S
C1545 N1547 1.384 . S
N1546 C1542 1.427 . S
N1546 C1543 1.384 . S
N1547 C1539 1.427 . S
N1547 C1545 1.384 . S
H1548 C1554 0.930 . S
H1549 C1558 0.930 . S
H1550 C1563 0.929 . S
H1551 C1561 0.929 . S
H1552 C1556 0.929 . S
H1553 C1562 0.929 . S
C1554 H1548 0.930 . S
C1554 C1555 1.367 . S
C1554 C1562 1.378 . S
C1555 C1554 1.367 . S
C1555 C1563 1.433 . S
C1556 H1552 0.929 . S
C1556 C1558 1.378 . S
C1556 C1560 1.350 . S
C1557 C1560 1.463 . S
C1557 C1562 1.350 . S
C1557 N1565 1.427 . S
C1558 H1549 0.930 . S
C1558 C1556 1.378 . S
C1558 C1559 1.367 . S
C1559 C1558 1.367 . S
C1559 C1561 1.433 . S
C1560 C1556 1.350 . S
C1560 C1557 1.463 . S
C1560 N1564 1.427 . S
C1561 H1551 0.929 . S
C1561 C1559 1.433 . S
C1561 N1564 1.384 . S
C1562 H1553 0.929 . S
C1562 C1554 1.378 . S
C1562 C1557 1.350 . S
C1563 H1550 0.929 . S
C1563 C1555 1.433 . S
C1563 N1565 1.384 . S
N1564 C1560 1.427 . S
N1564 C1561 1.384 . S
N1565 C1557 1.427 . S
N1565 C1563 1.384 . S
H1566 C1572 0.930 . S
H1567 C1576 0.930 . S
H1568 C1581 0.929 . S
H1569 C1579 0.929 . S
H1570 C1574 0.929 . S
H1571 C1580 0.929 . S
C1572 H1566 0.930 . S
C1572 C1573 1.367 . S
C1572 C1580 1.378 . S
C1573 C1572 1.367 . S
C1573 C1581 1.433 . S
C1574 H1570 0.929 . S
C1574 C1576 1.378 . S
C1574 C1578 1.350 . S
C1575 C1578 1.463 . S
C1575 C1580 1.350 . S
C1575 N1583 1.427 . S
C1576 H1567 0.930 . S
C1576 C1574 1.378 . S
C1576 C1577 1.367 . S
C1577 C1576 1.367 . S
C1577 C1579 1.433 . S
C1578 C1574 1.350 . S
C1578 C1575 1.463 . S
C1578 N1582 1.427 . S
C1579 H1569 0.929 . S
C1579 C1577 1.433 . S
C1579 N1582 1.384 . S
C1580 H1571 0.929 . S
C1580 C1572 1.378 . S
C1580 C1575 1.350 . S
C1581 H1568 0.929 . S
C1581 C1573 1.433 . S
C1581 N1583 1.384 . S
N1582 C1578 1.427 . S
N1582 C1579 1.384 . S
N1583 C1575 1.427 . S
N1583 C1581 1.384 . S
H1584 C1590 0.930 . S
H1585 C1594 0.930 1_554 S
H1586 C1599 0.929 . S
H1587 C1597 0.929 . S
H1588 C1592 0.936 . S
H1589 C1598 0.929 . S
C1590 H1584 0.930 . S
C1590 C1591 1.367 . S
C1590 C1598 1.378 . S
C1591 C1590 1.367 . S
C1591 C1599 1.433 . S
C1592 H1588 0.936 . S
C1592 C1594 1.378 . S
C1592 C1596 1.350 . S
C1593 C1596 1.463 . S
C1593 C1598 1.350 . S
C1593 N1601 1.427 . S
C1594 H1585 0.930 1_556 S
C1594 C1592 1.378 . S
C1594 C1595 1.367 . S
C1595 C1594 1.367 . S
C1595 C1597 1.433 . S
C1596 C1592 1.350 . S
C1596 C1593 1.463 . S
C1596 N1600 1.427 . S
C1597 H1587 0.929 . S
C1597 C1595 1.433 . S
C1597 N1600 1.384 . S
C1598 H1589 0.929 . S
C1598 C1590 1.378 . S
C1598 C1593 1.350 . S
C1599 H1586 0.929 . S
C1599 C1591 1.433 . S
C1599 N1601 1.384 . S
N1600 C1596 1.427 . S
N1600 C1597 1.384 . S
N1601 C1593 1.427 . S
N1601 C1599 1.384 . S
H1602 C1608 0.930 . S
H1603 C1612 0.930 . S
H1604 C1617 0.929 1_554 S
H1605 C1615 0.929 . S
H1606 C1610 0.929 . S
H1607 C1616 0.929 . S
C1608 H1602 0.930 . S
C1608 C1609 1.367 . S
C1608 C1616 1.378 . S
C1609 C1608 1.367 . S
C1609 C1617 1.433 . S
C1610 H1606 0.929 . S
C1610 C1612 1.378 . S
C1610 C1614 1.350 . S
C1611 C1614 1.463 . S
C1611 C1616 1.350 . S
C1611 N1619 1.427 . S
C1612 H1603 0.930 . S
C1612 C1610 1.378 . S
C1612 C1613 1.367 . S
C1613 C1612 1.367 . S
C1613 C1615 1.433 . S
C1614 C1610 1.350 . S
C1614 C1611 1.463 . S
C1614 N1618 1.427 . S
C1615 H1605 0.929 . S
C1615 C1613 1.433 . S
C1615 N1618 1.384 . S
C1616 H1607 0.929 . S
C1616 C1608 1.378 . S
C1616 C1611 1.350 . S
C1617 H1604 0.929 1_556 S
C1617 C1609 1.433 . S
C1617 N1619 1.384 . S
N1618 C1614 1.427 . S
N1618 C1615 1.384 . S
N1619 C1611 1.427 . S
N1619 C1617 1.384 . S
H1620 C1626 0.930 . S
H1621 C1630 0.930 . S
H1622 C1635 0.929 . S
H1623 C1633 0.929 1_554 S
H1624 C1628 0.929 . S
H1625 C1634 0.929 . S
C1626 H1620 0.930 . S
C1626 C1627 1.367 . S
C1626 C1634 1.378 . S
C1627 C1626 1.367 . S
C1627 C1635 1.433 . S
C1628 H1624 0.929 . S
C1628 C1630 1.378 . S
C1628 C1632 1.350 . S
C1629 C1632 1.463 . S
C1629 C1634 1.350 . S
C1629 N1637 1.427 . S
C1630 H1621 0.930 . S
C1630 C1628 1.378 . S
C1630 C1631 1.367 . S
C1631 C1630 1.367 . S
C1631 C1633 1.433 . S
C1632 C1628 1.350 . S
C1632 C1629 1.463 . S
C1632 N1636 1.427 . S
C1633 H1623 0.929 1_556 S
C1633 C1631 1.433 . S
C1633 N1636 1.384 . S
C1634 H1625 0.929 . S
C1634 C1626 1.378 . S
C1634 C1629 1.350 . S
C1635 H1622 0.929 . S
C1635 C1627 1.433 . S
C1635 N1637 1.384 . S
N1636 C1632 1.427 . S
N1636 C1633 1.384 . S
N1637 C1629 1.427 . S
N1637 C1635 1.384 . S
H1638 C1644 0.930 . S
H1639 C1648 0.930 . S
H1640 C1653 0.929 . S
H1641 C1651 0.929 . S
H1642 C1646 0.929 . S
H1643 C1652 0.929 . S
C1644 H1638 0.930 . S
C1644 C1645 1.367 . S
C1644 C1652 1.378 . S
C1645 C1644 1.367 . S
C1645 C1653 1.433 . S
C1646 H1642 0.929 . S
C1646 C1648 1.378 . S
C1646 C1650 1.350 . S
C1647 C1650 1.463 . S
C1647 C1652 1.350 . S
C1647 N1655 1.427 . S
C1648 H1639 0.930 . S
C1648 C1646 1.378 . S
C1648 C1649 1.367 . S
C1649 C1648 1.367 . S
C1649 C1651 1.433 . S
C1650 C1646 1.350 . S
C1650 C1647 1.463 . S
C1650 N1654 1.427 . S
C1651 H1641 0.929 . S
C1651 C1649 1.433 . S
C1651 N1654 1.384 . S
C1652 H1643 0.929 . S
C1652 C1644 1.378 . S
C1652 C1647 1.350 . S
C1653 H1640 0.929 . S
C1653 C1645 1.433 . S
C1653 N1655 1.384 . S
N1654 C1650 1.427 . S
N1654 C1651 1.384 . S
N1655 C1647 1.427 . S
N1655 C1653 1.384 . S
H1656 C1662 0.930 . S
H1657 C1666 0.930 . S
H1658 C1671 0.929 . S
H1659 C1669 0.929 . S
H1660 C1664 0.929 . S
H1661 C1670 0.929 . S
C1662 H1656 0.930 . S
C1662 C1663 1.367 . S
C1662 C1670 1.378 . S
C1663 C1662 1.367 . S
C1663 C1671 1.433 . S
C1664 H1660 0.929 . S
C1664 C1666 1.378 . S
C1664 C1668 1.350 . S
C1665 C1668 1.463 . S
C1665 C1670 1.350 . S
C1665 N1673 1.427 . S
C1666 H1657 0.930 . S
C1666 C1664 1.378 . S
C1666 C1667 1.367 . S
C1667 C1666 1.367 . S
C1667 C1669 1.433 . S
C1668 C1664 1.350 . S
C1668 C1665 1.463 . S
C1668 N1672 1.427 . S
C1669 H1659 0.929 . S
C1669 C1667 1.433 . S
C1669 N1672 1.384 . S
C1670 H1661 0.929 . S
C1670 C1662 1.378 . S
C1670 C1665 1.350 . S
C1671 H1658 0.929 . S
C1671 C1663 1.433 . S
C1671 N1673 1.384 . S
N1672 C1668 1.427 . S
N1672 C1669 1.384 . S
N1673 C1665 1.427 . S
N1673 C1671 1.384 . S
H1674 C1680 0.930 . S
H1675 C1684 0.930 . S
H1676 C1689 0.929 . S
H1677 C1687 0.929 . S
H1678 C1682 0.929 . S
H1679 C1688 0.929 . S
C1680 H1674 0.930 . S
C1680 C1681 1.367 . S
C1680 C1688 1.378 . S
C1681 C1680 1.367 . S
C1681 C1689 1.433 . S
C1682 H1678 0.929 . S
C1682 C1684 1.378 . S
C1682 C1686 1.350 . S
C1683 C1686 1.463 . S
C1683 C1688 1.350 . S
C1683 N1691 1.427 . S
C1684 H1675 0.930 . S
C1684 C1682 1.378 . S
C1684 C1685 1.367 . S
C1685 C1684 1.367 . S
C1685 C1687 1.433 . S
C1686 C1682 1.350 . S
C1686 C1683 1.463 . S
C1686 N1690 1.427 . S
C1687 H1677 0.929 . S
C1687 C1685 1.433 . S
C1687 N1690 1.384 . S
C1688 H1679 0.929 . S
C1688 C1680 1.378 . S
C1688 C1683 1.350 . S
C1689 H1676 0.929 . S
C1689 C1681 1.433 . S
C1689 N1691 1.384 . S
N1690 C1686 1.427 . S
N1690 C1687 1.384 . S
N1691 C1683 1.427 . S
N1691 C1689 1.384 . S
H1692 C1698 0.930 . S
H1693 C1702 0.930 . S
H1694 C1707 0.929 . S
H1695 C1705 0.929 . S
H1696 C1700 0.929 . S
H1697 C1706 0.929 . S
C1698 H1692 0.930 . S
C1698 C1699 1.367 . S
C1698 C1706 1.378 . S
C1699 C1698 1.367 . S
C1699 C1707 1.433 . S
C1700 H1696 0.929 . S
C1700 C1702 1.378 . S
C1700 C1704 1.350 . S
C1701 C1704 1.463 1_455 S
C1701 C1706 1.350 . S
C1701 N1709 1.427 . S
C1702 H1693 0.930 . S
C1702 C1700 1.378 . S
C1702 C1703 1.367 . S
C1703 C1702 1.367 . S
C1703 C1705 1.433 . S
C1704 C1700 1.350 . S
C1704 C1701 1.463 1_655 S
C1704 N1708 1.427 . S
C1705 H1695 0.929 . S
C1705 C1703 1.433 . S
C1705 N1708 1.384 . S
C1706 H1697 0.929 . S
C1706 C1698 1.378 . S
C1706 C1701 1.350 . S
C1707 H1694 0.929 . S
C1707 C1699 1.433 . S
C1707 N1709 1.384 . S
N1708 C1704 1.427 . S
N1708 C1705 1.384 . S
N1709 C1701 1.427 . S
N1709 C1707 1.384 . S
H1710 C1716 0.930 . S
H1711 C1720 0.930 . S
H1712 C1725 0.929 . S
H1713 C1723 0.929 . S
H1714 C1718 0.929 . S
H1715 C1724 0.929 . S
C1716 H1710 0.930 . S
C1716 C1717 1.367 . S
C1716 C1724 1.378 . S
C1717 C1716 1.367 . S
C1717 C1725 1.433 . S
C1718 H1714 0.929 . S
C1718 C1720 1.378 . S
C1718 C1722 1.350 . S
C1719 C1722 1.463 . S
C1719 C1724 1.350 . S
C1719 N1727 1.427 . S
C1720 H1711 0.930 . S
C1720 C1718 1.378 . S
C1720 C1721 1.367 . S
C1721 C1720 1.367 . S
C1721 C1723 1.433 . S
C1722 C1718 1.350 . S
C1722 C1719 1.463 . S
C1722 N1726 1.427 . S
C1723 H1713 0.929 . S
C1723 C1721 1.433 . S
C1723 N1726 1.384 . S
C1724 H1715 0.929 . S
C1724 C1716 1.378 . S
C1724 C1719 1.350 . S
C1725 H1712 0.929 . S
C1725 C1717 1.433 . S
C1725 N1727 1.384 . S
N1726 C1722 1.427 . S
N1726 C1723 1.384 . S
N1727 C1719 1.427 . S
N1727 C1725 1.384 . S
H1728 C1734 0.930 . S
H1729 C1738 0.930 . S
H1730 C1743 0.929 . S
H1731 C1741 0.929 . S
H1732 C1736 0.929 . S
H1733 C1742 0.929 . S
C1734 H1728 0.930 . S
C1734 C1735 1.367 . S
C1734 C1742 1.378 . S
C1735 C1734 1.367 . S
C1735 C1743 1.433 . S
C1736 H1732 0.929 . S
C1736 C1738 1.378 . S
C1736 C1740 1.350 . S
C1737 C1740 1.463 1_565 S
C1737 C1742 1.350 . S
C1737 N1745 1.427 . S
C1738 H1729 0.930 . S
C1738 C1736 1.378 . S
C1738 C1739 1.367 . S
C1739 C1738 1.367 . S
C1739 C1741 1.433 . S
C1740 C1736 1.350 . S
C1740 C1737 1.463 1_545 S
C1740 N1744 1.427 . S
C1741 H1731 0.929 . S
C1741 C1739 1.433 . S
C1741 N1744 1.384 . S
C1742 H1733 0.929 . S
C1742 C1734 1.378 . S
C1742 C1737 1.350 . S
C1743 H1730 0.929 . S
C1743 C1735 1.433 . S
C1743 N1745 1.384 . S
N1744 C1740 1.427 . S
N1744 C1741 1.384 . S
N1745 C1737 1.427 . S
N1745 C1743 1.384 . S
H1746 C1752 0.930 . S
H1747 C1756 0.930 . S
H1748 C1761 0.929 . S
H1749 C1759 0.929 . S
H1750 C1754 0.929 . S
H1751 C1760 0.929 . S
C1752 H1746 0.930 . S
C1752 C1753 1.367 . S
C1752 C1760 1.378 . S
C1753 C1752 1.367 . S
C1753 C1761 1.433 . S
C1754 H1750 0.929 . S
C1754 C1756 1.378 . S
C1754 C1758 1.350 . S
C1755 C1758 1.463 1_545 S
C1755 C1760 1.350 . S
C1755 N1763 1.427 . S
C1756 H1747 0.930 . S
C1756 C1754 1.378 . S
C1756 C1757 1.367 . S
C1757 C1756 1.367 . S
C1757 C1759 1.433 . S
C1758 C1754 1.350 . S
C1758 C1755 1.463 1_565 S
C1758 N1762 1.427 . S
C1759 H1749 0.929 . S
C1759 C1757 1.433 . S
C1759 N1762 1.384 . S
C1760 H1751 0.929 . S
C1760 C1752 1.378 . S
C1760 C1755 1.350 . S
C1761 H1748 0.929 . S
C1761 C1753 1.433 . S
C1761 N1763 1.384 . S
N1762 C1758 1.427 . S
N1762 C1759 1.384 . S
N1763 C1755 1.427 . S
N1763 C1761 1.384 . S
H1764 C1770 0.930 . S
H1765 C1774 0.930 . S
H1766 C1779 0.929 . S
H1767 C1777 0.929 . S
H1768 C1772 0.929 . S
H1769 C1778 0.929 . S
C1770 H1764 0.930 . S
C1770 C1771 1.367 . S
C1770 C1778 1.378 . S
C1771 C1770 1.367 . S
C1771 C1779 1.433 . S
C1772 H1768 0.929 . S
C1772 C1774 1.378 . S
C1772 C1776 1.350 . S
C1773 C1776 1.463 1_455 S
C1773 C1778 1.350 . S
C1773 N1781 1.427 . S
C1774 H1765 0.930 . S
C1774 C1772 1.378 . S
C1774 C1775 1.367 . S
C1775 C1774 1.367 . S
C1775 C1777 1.433 . S
C1776 C1772 1.350 . S
C1776 C1773 1.463 1_655 S
C1776 N1780 1.427 . S
C1777 H1767 0.929 . S
C1777 C1775 1.433 . S
C1777 N1780 1.384 . S
C1778 H1769 0.929 . S
C1778 C1770 1.378 . S
C1778 C1773 1.350 . S
C1779 H1766 0.929 . S
C1779 C1771 1.433 . S
C1779 N1781 1.384 . S
N1780 C1776 1.427 . S
N1780 C1777 1.384 . S
N1781 C1773 1.427 . S
N1781 C1779 1.384 . S
H1782 C1788 0.930 . S
H1783 C1792 0.930 . S
H1784 C1797 0.929 . S
H1785 C1795 0.929 . S
H1786 C1790 0.929 . S
H1787 C1796 0.929 . S
C1788 H1782 0.930 . S
C1788 C1789 1.367 . S
C1788 C1796 1.378 . S
C1789 C1788 1.367 . S
C1789 C1797 1.433 . S
C1790 H1786 0.929 . S
C1790 C1792 1.378 . S
C1790 C1794 1.350 . S
C1791 C1794 1.463 . S
C1791 C1796 1.350 . S
C1791 N1799 1.427 . S
C1792 H1783 0.930 . S
C1792 C1790 1.378 . S
C1792 C1793 1.367 . S
C1793 C1792 1.367 . S
C1793 C1795 1.433 . S
C1794 C1790 1.350 . S
C1794 C1791 1.463 . S
C1794 N1798 1.427 . S
C1795 H1785 0.929 . S
C1795 C1793 1.433 . S
C1795 N1798 1.384 . S
C1796 H1787 0.929 . S
C1796 C1788 1.378 . S
C1796 C1791 1.350 . S
C1797 H1784 0.929 . S
C1797 C1789 1.433 . S
C1797 N1799 1.384 . S
N1798 C1794 1.427 . S
N1798 C1795 1.384 . S
N1799 C1791 1.427 . S
N1799 C1797 1.384 . S
C511 C53 1.118 . S
C515 C11 1.118 . S
C529 C67 1.116 . S
C533 C25 1.121 . S
C547 C81 1.121 . S
C551 C39 1.116 . S
C565 C95 1.117 . S
C569 C137 1.119 . S
C583 C109 1.119 . S
C587 C151 1.118 . S
C601 C165 1.121 . S
C605 C123 1.117 . S
C619 C179 1.111 . S
C623 C221 1.114 . S
C637 C193 1.114 . S
C641 C235 1.112 . S
C655 C207 1.114 . S
C659 C249 1.112 . S
C673 C263 1.112 . S
C677 C305 1.111 . S
C691 C319 1.114 . S
C695 C277 1.108 . S
C709 C291 1.111 . S
C713 C333 1.112 . S
C727 C347 1.111 . S
C731 C389 1.109 . S
C745 C361 1.112 . S
C749 C403 1.111 . S
C763 C417 1.114 . S
C767 C375 1.108 . S
C781 C473 1.115 . S
C785 C431 1.109 . S
C799 C487 1.116 . S
C803 C445 1.111 . S
C817 C501 1.115 . S
C821 C459 1.111 . S
C835 C163 1.542 . S
C839 C5 1.539 . S
C853 C19 1.537 . S
C857 C135 1.544 . S
C871 C33 1.540 . S
C875 C149 1.541 . S
C889 C107 1.550 . S
C893 C47 1.544 . S
C907 C61 1.546 . S
C911 C121 1.550 . S
C925 C93 1.550 . S
C929 C75 1.542 . S
C943 C89 1.541 . S
C947 C79 1.541 . S
C961 C103 1.541 . S
C965 C51 1.541 . S
C979 C65 1.541 . S
C983 C117 1.538 . S
C997 C23 1.548 . S
C1001 C131 1.546 . S
C1015 C37 1.551 . S
C1019 C145 1.544 . S
C1033 C159 1.544 . S
C1037 C9 1.551 . S
C1051 C173 1.519 . S
C1055 C331 1.525 . S
C1069 C303 1.527 . S
C1073 C187 1.518 . S
C1087 C317 1.524 . S
C1091 C201 1.522 . S
C1105 C215 1.541 . S
C1109 C275 1.541 . S
C1123 C289 1.544 . S
C1127 C229 1.540 . S
C1141 C243 1.542 . S
C1145 C261 1.542 . S
C1159 C257 1.540 . S
C1163 C247 1.538 . S
C1177 C271 1.536 . S
C1181 C219 1.542 . S
C1195 C233 1.539 . S
C1199 C285 1.538 . S
C1213 C191 1.560 . S
C1217 C299 1.556 . S
C1231 C205 1.557 . S
C1235 C313 1.559 . S
C1249 C327 1.558 . S
C1253 C177 1.558 . S
C1267 C499 1.539 . S
C1271 C341 1.540 . S
C1285 C355 1.540 . S
C1289 C471 1.539 . S
C1303 C369 1.537 . S
C1307 C485 1.542 . S
C1321 C383 1.554 . S
C1325 C443 1.560 . S
C1339 C457 1.557 . S
C1343 C397 1.559 . S
C1357 C411 1.558 . S
C1361 C429 1.559 . S
C1375 C415 1.526 . S
C1379 C425 1.517 . S
C1393 C387 1.526 . S
C1397 C439 1.519 . S
C1411 C401 1.526 . S
C1415 C453 1.519 . S
C1429 C359 1.545 . S
C1433 C467 1.539 . S
C1447 C373 1.543 . S
C1451 C481 1.541 . S
C1465 C345 1.544 . S
C1469 C495 1.538 . S
C1483 C406 1.345 . S
C1487 C0 1.358 . S
C1501 C14 1.352 . S
C1505 C378 1.355 . S
C1519 C392 1.353 . S
C1523 C28 1.354 . S
C1537 C42 1.348 . S
C1541 C182 1.359 . S
C1555 C196 1.345 . S
C1559 C56 1.358 . S
C1573 C70 1.356 . S
C1577 C168 1.347 . S
C1591 C84 1.346 . S
C1595 C322 1.355 . S
C1609 C294 1.358 . S
C1613 C98 1.347 . S
C1627 C112 1.355 . S
C1631 C308 1.352 . S
C1645 C126 1.350 . S
C1649 C434 1.352 . S
C1663 C140 1.345 . S
C1667 C448 1.360 . S
C1681 C420 1.347 . S
C1685 C154 1.355 . S
C1699 C350 1.350 . S
C1703 C210 1.353 . S
C1717 C364 1.347 . S
C1721 C224 1.360 . S
C1735 C336 1.352 . S
C1739 C238 1.357 . S
C1753 C252 1.357 . S
C1757 C490 1.352 . S
C1771 C462 1.354 . S
C1775 C266 1.349 . S
C1789 C280 1.346 . S
C1793 C476 1.358 . S
