# Generated by pormake.
# Topology swl, (7)-cn, num edge types: 1
# Building blocks:
#     Node 0, Type 0, BuildingBlock: HICVOG_clean_sbu_0, # of connection points: 7
#     Node 1, Type 0, BuildingBlock: HICVOG_clean_sbu_0, # of connection points: 7
#     Node 2, Type 0, BuildingBlock: HICVOG_clean_sbu_0, # of connection points: 7
#     Node 3, Type 0, BuildingBlock: HICVOG_clean_sbu_0, # of connection points: 7
#     Node 4, Type 0, BuildingBlock: HICVOG_clean_sbu_0, # of connection points: 7
#     Node 5, Type 0, BuildingBlock: HICVOG_clean_sbu_0, # of connection points: 7
#     Node 6, Type 0, BuildingBlock: HICVOG_clean_sbu_0, # of connection points: 7
#     Node 7, Type 0, BuildingBlock: HICVOG_clean_sbu_0, # of connection points: 7
#     Node 8, Type 0, BuildingBlock: HICVOG_clean_sbu_0, # of connection points: 7
#     Node 9, Type 0, BuildingBlock: HICVOG_clean_sbu_0, # of connection points: 7
#     Node 10, Type 0, BuildingBlock: HICVOG_clean_sbu_0, # of connection points: 7
#     Node 11, Type 0, BuildingBlock: HICVOG_clean_sbu_0, # of connection points: 7
#     Node 12, Type 0, BuildingBlock: HICVOG_clean_sbu_0, # of connection points: 7
#     Node 13, Type 0, BuildingBlock: HICVOG_clean_sbu_0, # of connection points: 7
#     Node 14, Type 0, BuildingBlock: HICVOG_clean_sbu_0, # of connection points: 7
#     Node 15, Type 0, BuildingBlock: HICVOG_clean_sbu_0, # of connection points: 7
#     Edge 16, Type (0, 0), None
#     Edge 17, Type (0, 0), None
#     Edge 18, Type (0, 0), None
#     Edge 19, Type (0, 0), None
#     Edge 20, Type (0, 0), None
#     Edge 21, Type (0, 0), None
#     Edge 22, Type (0, 0), None
#     Edge 23, Type (0, 0), None
#     Edge 24, Type (0, 0), None
#     Edge 25, Type (0, 0), None
#     Edge 26, Type (0, 0), None
#     Edge 27, Type (0, 0), None
#     Edge 28, Type (0, 0), None
#     Edge 29, Type (0, 0), None
#     Edge 30, Type (0, 0), None
#     Edge 31, Type (0, 0), None
#     Edge 32, Type (0, 0), None
#     Edge 33, Type (0, 0), None
#     Edge 34, Type (0, 0), None
#     Edge 35, Type (0, 0), None
#     Edge 36, Type (0, 0), None
#     Edge 37, Type (0, 0), None
#     Edge 38, Type (0, 0), None
#     Edge 39, Type (0, 0), None
#     Edge 40, Type (0, 0), None
#     Edge 41, Type (0, 0), None
#     Edge 42, Type (0, 0), None
#     Edge 43, Type (0, 0), None
#     Edge 44, Type (0, 0), None
#     Edge 45, Type (0, 0), None
#     Edge 46, Type (0, 0), None
#     Edge 47, Type (0, 0), None
#     Edge 48, Type (0, 0), None
#     Edge 49, Type (0, 0), None
#     Edge 50, Type (0, 0), None
#     Edge 51, Type (0, 0), None
#     Edge 52, Type (0, 0), None
#     Edge 53, Type (0, 0), None
#     Edge 54, Type (0, 0), None
#     Edge 55, Type (0, 0), None
#     Edge 56, Type (0, 0), None
#     Edge 57, Type (0, 0), None
#     Edge 58, Type (0, 0), None
#     Edge 59, Type (0, 0), None
#     Edge 60, Type (0, 0), None
#     Edge 61, Type (0, 0), None
#     Edge 62, Type (0, 0), None
#     Edge 63, Type (0, 0), None
#     Edge 64, Type (0, 0), None
#     Edge 65, Type (0, 0), None
#     Edge 66, Type (0, 0), None
#     Edge 67, Type (0, 0), None
#     Edge 68, Type (0, 0), None
#     Edge 69, Type (0, 0), None
#     Edge 70, Type (0, 0), None
#     Edge 71, Type (0, 0), None
# Relax obj value: 0.114
# Max RMSD: 0.219
# Mean RMSD: 0.219
data_MOF--net-swl--node1-HICVOG_clean_sbu_0--edge1-none
_symmetry_space_group_name_H-M    P1
_symmetry_Int_Tables_number       1
_symmetry_cell_setting            triclinic
loop_
_symmetry_equiv_pos_as_xyz
'x, y, z'
_cell_length_a     7.2502746
_cell_length_b     49.769113
_cell_length_c     24.554696
_cell_angle_alpha  90.018018
_cell_angle_beta   90.005904
_cell_angle_gamma 89.999754
loop_
_atom_site_label
_atom_site_type_symbol
_atom_site_fract_x
_atom_site_fract_y
_atom_site_fract_z
_atom_type_partial_charge
Zn0 Zn 0.18231 0.07847 0.48129 0.0
C1 C 0.45646 0.11339 0.37022 0.0
N2 N 0.30664 0.10867 0.33607 0.0
C3 C 1.15692 0.10389 0.3702 0.0
N4 N 0.22113 0.10421 0.4221 0.0
N5 N 0.39256 0.11298 0.42215 0.0
C6 C 0.71523 0.11326 0.50839 0.0
O7 O 0.58363 0.09534 0.50653 0.0
O8 O 0.92781 0.07973 0.49559 0.0
Zn9 Zn 0.43059 0.13875 0.48138 0.0
N10 N 0.26278 0.04273 0.46305 0.0
C11 C 0.49607 0.01302 0.4315 0.0
C12 C 0.427 0.039 0.43753 0.0
C13 C 1.16402 0.02161 0.48258 0.0
N14 N 0.39772 -0.00811 0.45105 0.0
C15 C 0.23257 -0.00463 0.47658 0.0
O16 O 0.33423 0.13056 0.5576 0.0
C17 C 0.30625 0.10861 0.58277 0.0
O18 O 0.27842 0.08666 0.55754 0.0
H19 H 0.50587 0.05608 0.42345 0.0
H20 H 1.03617 0.02546 0.50392 0.0
C21 C 0.44918 0.19559 0.48258 0.0
C22 C 0.38086 0.22185 0.47658 0.0
C23 C 1.11704 0.20422 0.43158 0.0
C24 C 0.18592 0.17823 0.43761 0.0
N25 N 0.35019 0.17448 0.4631 0.0
N26 N 0.21564 0.22534 0.45109 0.0
H27 H 0.57708 0.19173 0.5039 0.0
C28 C 0.8979 0.104 0.50829 0.0
O29 O 1.02951 0.12193 0.50631 0.0
O30 O 0.68507 0.13754 0.49576 0.0
H31 H 1.10687 0.16115 0.42356 0.0
H32 H 0.62825 0.00968 0.41225 0.0
H33 H 0.98483 0.20758 0.41235 0.0
Zn34 Zn 0.18213 0.13874 0.74375 0.0
C35 C 0.45635 0.10383 0.85483 0.0
N36 N 0.30656 0.10856 0.88897 0.0
C37 C 1.15681 0.11333 0.85485 0.0
N38 N 0.22098 0.113 0.80295 0.0
N39 N 0.39241 0.10423 0.8029 0.0
C40 C 0.71507 0.10393 0.71667 0.0
O41 O 0.58349 0.12186 0.71854 0.0
O42 O 0.92766 0.13746 0.72943 0.0
Zn43 Zn 0.43041 0.07845 0.74368 0.0
N44 N 0.26244 0.17448 0.76201 0.0
C45 C 0.49553 0.20421 0.79363 0.0
C46 C 0.42658 0.17822 0.78758 0.0
C47 C 1.16365 0.19559 0.74246 0.0
N48 N 0.39715 0.22533 0.77406 0.0
C49 C 0.23207 0.22185 0.74848 0.0
O50 O 0.33413 0.08666 0.66745 0.0
C51 C 0.30619 0.10861 0.64228 0.0
O52 O 0.27832 0.13055 0.6675 0.0
H53 H 0.50549 0.16115 0.80166 0.0
H54 H 1.03586 0.19173 0.72108 0.0
C55 C 0.44882 0.02162 0.74247 0.0
C56 C 0.3804 -0.00464 0.74845 0.0
C57 C 1.11657 0.01301 0.79341 0.0
C58 C 0.18555 0.03899 0.7874 0.0
N59 N 0.34987 0.04273 0.76195 0.0
N60 N 0.21513 -0.00812 0.77391 0.0
H61 H 0.57676 0.02547 0.72118 0.0
C62 C 0.89775 0.11319 0.71674 0.0
O63 O 1.02938 0.09527 0.71871 0.0
O64 O 0.68492 0.07966 0.72931 0.0
H65 H 1.10653 0.05608 0.80144 0.0
H66 H 0.62765 0.20756 0.81292 0.0
H67 H 0.98432 0.00966 0.81261 0.0
Zn68 Zn 1.18118 0.88874 0.49374 0.0
C69 C 0.90715 0.85384 0.60483 0.0
N70 N 1.05695 0.85858 0.63897 0.0
C71 C 0.20668 0.86334 0.60484 0.0
N72 N 1.14249 0.863 0.55294 0.0
N73 N 0.97106 0.85422 0.5529 0.0
C74 C 0.64826 0.85394 0.46668 0.0
O75 O 0.77985 0.87187 0.46857 0.0
O76 O 0.43565 0.88748 0.47941 0.0
Zn77 Zn 0.9329 0.82845 0.49367 0.0
N78 N 1.10077 0.92447 0.51201 0.0
C79 C 0.86755 0.95419 0.5436 0.0
C80 C 0.93659 0.92821 0.53755 0.0
C81 C 0.19952 0.94559 0.49248 0.0
N82 N 0.9659 0.97532 0.52404 0.0
C83 C 1.13102 0.97184 0.49849 0.0
O84 O 1.0291 0.83665 0.41745 0.0
C85 C 1.05699 0.8586 0.39228 0.0
O86 O 1.08492 0.88055 0.4175 0.0
H87 H 0.85772 0.91112 0.55162 0.0
H88 H 0.32735 0.94174 0.47112 0.0
C89 C 0.91442 0.7716 0.49243 0.0
C90 C 0.98282 0.74535 0.49842 0.0
C91 C 0.24656 0.76299 0.54345 0.0
C92 C 1.17762 0.78898 0.53743 0.0
N93 N 1.01335 0.79272 0.51193 0.0
N94 N 1.14803 0.74187 0.52392 0.0
H95 H 0.78653 0.77546 0.47111 0.0
C96 C 0.46558 0.8632 0.46673 0.0
O97 O 0.33395 0.84528 0.46868 0.0
O98 O 0.67838 0.82967 0.47932 0.0
H99 H 0.25661 0.80606 0.55149 0.0
H100 H 0.7354 0.95753 0.56287 0.0
H101 H 0.37877 0.75964 0.56268 0.0
Zn102 Zn 0.93276 0.88875 0.23135 0.0
C103 C 0.20686 0.85386 0.12021 0.0
N104 N 1.05705 0.85858 0.08607 0.0
C105 C 0.90732 0.86335 0.1202 0.0
N106 N 0.97153 0.86302 0.1721 0.0
N107 N 1.14297 0.85425 0.17214 0.0
C108 C 0.46571 0.85394 0.25836 0.0
O109 O 0.33413 0.87187 0.25653 0.0
O110 O 0.67829 0.88748 0.24566 0.0
Zn111 Zn 1.18102 0.82847 0.23131 0.0
N112 N 1.01316 0.92449 0.21314 0.0
C113 C 0.2465 0.9542 0.18167 0.0
C114 C 1.17748 0.92822 0.18768 0.0
C115 C 0.91425 0.94561 0.23262 0.0
N116 N 1.14801 0.97533 0.20118 0.0
C117 C 0.98275 0.97186 0.22665 0.0
O118 O 1.08481 0.83666 0.30755 0.0
C119 C 1.0569 0.8586 0.33276 0.0
O120 O 1.02899 0.88055 0.30758 0.0
H121 H 0.25645 0.91114 0.17364 0.0
H122 H 0.78632 0.94176 0.25392 0.0
C123 C 0.19927 0.77164 0.2325 0.0
C124 C 1.13085 0.74539 0.22648 0.0
C125 C 0.8673 0.76303 0.18138 0.0
C126 C 0.93626 0.78901 0.18743 0.0
N127 N 1.10045 0.79275 0.21297 0.0
N128 N 0.96572 0.7419 0.20093 0.0
H129 H 0.32709 0.7755 0.25386 0.0
C130 C 0.64838 0.8632 0.25831 0.0
O131 O 0.78001 0.84528 0.25631 0.0
O132 O 0.43555 0.82967 0.24567 0.0
H133 H 0.85734 0.80609 0.17335 0.0
H134 H 0.37875 0.95754 0.16246 0.0
H135 H 0.73514 0.75968 0.16211 0.0
Zn136 Zn 0.43092 0.63873 0.98135 0.0
C137 C 1.15675 0.60384 0.87022 0.0
N138 N 0.30653 0.60858 0.83608 0.0
C139 C 0.45628 0.61334 0.87021 0.0
N140 N 0.39213 0.61299 0.92211 0.0
N141 N 0.2207 0.60422 0.92214 0.0
C142 C 0.89797 0.60392 0.00837 0.0
O143 O 1.02954 0.62185 0.00651 0.0
O144 O 0.68538 0.63745 -0.00432 0.0
Zn145 Zn 0.18262 0.57844 0.98134 0.0
N146 N 0.35063 0.67447 0.96313 0.0
C147 C 1.11737 0.7042 0.93166 0.0
C148 C 0.18629 0.67822 0.93768 0.0
C149 C 0.44966 0.69558 0.9826 0.0
N150 N 0.21598 0.72533 0.95116 0.0
C151 C 0.38126 0.72184 0.97662 0.0
O152 O 0.27887 0.58665 0.05757 0.0
C153 C 0.30678 0.6086 0.08277 0.0
O154 O 0.33467 0.63054 0.05758 0.0
H155 H 1.10723 0.66114 0.92365 0.0
H156 H 0.57761 0.69173 0.00389 0.0
C157 C 1.16435 0.5216 0.9826 0.0
C158 C 0.23276 0.49535 0.97658 0.0
C159 C 0.49615 0.51298 0.93141 0.0
C160 C 0.4272 0.53897 0.93746 0.0
N161 N 0.26309 0.54271 0.96304 0.0
N162 N 0.39781 0.49186 0.951 0.0
H163 H 1.03659 0.52546 0.00399 0.0
C164 C 0.71529 0.61318 0.00833 0.0
O165 O 0.58366 0.59526 0.00634 0.0
O166 O 0.92811 0.57965 -0.00431 0.0
H167 H 0.50606 0.55605 0.92335 0.0
H168 H 0.9851 0.70756 0.91246 0.0
H169 H 0.62825 0.50963 0.91211 0.0
Zn170 Zn 0.18268 0.63877 0.24372 0.0
C171 C 0.45704 0.60387 0.35483 0.0
N172 N 0.30724 0.60858 0.38898 0.0
C173 C 1.1575 0.61337 0.35486 0.0
N174 N 0.22168 0.61306 0.30296 0.0
N175 N 0.39311 0.60429 0.3029 0.0
C176 C 0.71568 0.60393 0.21666 0.0
O177 O 0.58411 0.62187 0.21848 0.0
O178 O 0.92823 0.63747 0.22941 0.0
Zn179 Zn 0.43096 0.57849 0.24371 0.0
N180 N 0.26296 0.67451 0.26192 0.0
C181 C 0.49615 0.70425 0.29346 0.0
C182 C 0.42719 0.67826 0.28744 0.0
C183 C 1.16409 0.69562 0.2424 0.0
N184 N 0.39768 0.72536 0.27391 0.0
C185 C 0.23251 0.72187 0.24838 0.0
O186 O 0.33467 0.58666 0.16748 0.0
C187 C 0.30672 0.60861 0.14229 0.0
O188 O 0.27886 0.63056 0.16748 0.0
H189 H 0.50615 0.66118 0.30152 0.0
H190 H 1.03623 0.69175 0.22105 0.0
C191 C 0.4493 0.52165 0.24256 0.0
C192 C 0.38091 0.4954 0.24857 0.0
C193 C 1.11717 0.51305 0.29356 0.0
C194 C 0.18611 0.53903 0.28753 0.0
N195 N 0.35038 0.54277 0.26204 0.0
N196 N 0.21569 0.49192 0.27406 0.0
H197 H 0.57719 0.52551 0.22124 0.0
C198 C 0.89835 0.61319 0.21675 0.0
O199 O 1.02999 0.59528 0.21878 0.0
O200 O 0.68549 0.57967 0.22934 0.0
H201 H 1.10712 0.55612 0.30157 0.0
H202 H 0.62833 0.7076 0.31272 0.0
H203 H 0.98496 0.5097 0.31279 0.0
Zn204 Zn 0.93305 0.32845 -0.00629 0.0
C205 C 0.20744 0.36337 0.10483 0.0
N206 N 1.05765 0.35866 0.13898 0.0
C207 C 0.9079 0.35387 0.10485 0.0
N208 N 0.97208 0.35417 0.05295 0.0
N209 N 1.14351 0.36295 0.0529 0.0
C210 C 0.46601 0.36327 0.96665 0.0
O211 O 0.33442 0.34535 0.96844 0.0
O212 O 0.67856 0.32974 0.97942 0.0
Zn213 Zn 1.18133 0.38874 -0.00629 0.0
N214 N 1.01346 0.29271 0.0119 0.0
C215 C 0.24689 0.263 0.0433 0.0
C216 C 1.17787 0.28898 0.03731 0.0
C217 C 0.91445 0.2716 -0.00756 0.0
N218 N 1.14829 0.24187 0.02383 0.0
C219 C 0.98294 0.24535 -0.0016 0.0
O220 O 1.08489 0.38055 0.91749 0.0
C221 C 1.05685 0.3586 0.89228 0.0
O222 O 1.02908 0.33665 0.91747 0.0
H223 H 0.25692 0.30606 0.05133 0.0
H224 H 0.78644 0.27545 0.97118 0.0
C225 C 0.1996 0.44558 -0.00751 0.0
C226 C 1.1312 0.47183 -0.00147 0.0
C227 C 0.86786 0.45419 0.04372 0.0
C228 C 0.9368 0.42821 0.03766 0.0
N229 N 1.10087 0.42446 0.01206 0.0
N230 N 0.96619 0.47532 0.02413 0.0
H231 H 0.32732 0.44172 0.97108 0.0
C232 C 0.64868 0.35401 0.96677 0.0
O233 O 0.7803 0.37193 0.96881 0.0
O234 O 0.43582 0.38754 0.97932 0.0
H235 H 0.85794 0.41113 0.05176 0.0
H236 H 0.3792 0.25965 0.06248 0.0
H237 H 0.73579 0.45755 0.06304 0.0
Zn238 Zn 0.93253 0.38873 0.73135 0.0
C239 C 0.20666 0.35384 0.62021 0.0
N240 N 1.05685 0.35857 0.58607 0.0
C241 C 0.90712 0.36333 0.62021 0.0
N242 N 0.97133 0.363 0.67211 0.0
N243 N 1.14276 0.35423 0.67214 0.0
C244 C 0.46551 0.35392 0.75837 0.0
O245 O 0.33393 0.37185 0.75653 0.0
O246 O 0.67808 0.38745 0.74567 0.0
Zn247 Zn 1.18081 0.32845 0.73133 0.0
N248 N 1.01279 0.42448 0.71313 0.0
C249 C 0.24598 0.45421 0.68162 0.0
C250 C 1.17707 0.42822 0.68765 0.0
C251 C 0.91381 0.44559 0.7326 0.0
N252 N 1.14741 0.47533 0.70113 0.0
C253 C 0.98218 0.47185 0.72661 0.0
O254 O 1.08461 0.33665 0.80756 0.0
C255 C 1.0567 0.3586 0.83277 0.0
O256 O 1.0288 0.38055 0.80758 0.0
H257 H 0.25611 0.41114 0.67361 0.0
H258 H 0.7859 0.44173 0.75391 0.0
C259 C 0.19897 0.27161 0.73256 0.0
C260 C 1.13049 0.24536 0.72656 0.0
C261 C 0.86702 0.26301 0.68142 0.0
C262 C 0.93604 0.28899 0.68746 0.0
N263 N 1.10022 0.29273 0.71301 0.0
N264 N 0.96537 0.24188 0.70099 0.0
H265 H 0.32678 0.27547 0.75393 0.0
C266 C 0.64818 0.36318 0.75832 0.0
O267 O 0.77982 0.34526 0.75631 0.0
O268 O 0.43534 0.32965 0.74568 0.0
H269 H 0.85718 0.30607 0.67337 0.0
H270 H 0.3782 0.45756 0.6624 0.0
H271 H 0.73487 0.25966 0.66214 0.0
Zn272 Zn 0.93101 0.13872 0.98133 0.0
C273 C 0.65677 0.10386 0.87022 0.0
N274 N 0.80657 0.10857 0.83607 0.0
C275 C 0.95635 0.1133 0.87021 0.0
N276 N 0.89219 0.11298 0.92211 0.0
N277 N 0.72074 0.10422 0.92214 0.0
C278 C 0.39806 0.10391 0.00837 0.0
O279 O 0.52965 0.12184 0.00653 0.0
O280 O 0.18548 0.13745 -0.00435 0.0
Zn281 Zn 0.68271 0.07844 0.98133 0.0
N282 N 0.85059 0.17446 0.9631 0.0
C283 C 0.6172 0.20417 0.93166 0.0
C284 C 0.6862 0.17819 0.93767 0.0
C285 C 0.94958 0.19557 0.98255 0.0
N286 N 0.71578 0.2253 0.95114 0.0
C287 C 0.88111 0.22182 0.97658 0.0
O288 O 0.779 0.08664 0.05757 0.0
C289 C 0.80697 0.1086 0.08277 0.0
O290 O 0.83485 0.13054 0.05757 0.0
H291 H 0.60715 0.16111 0.92365 0.0
H292 H 1.07757 0.19172 0.00383 0.0
C293 C 0.66455 0.02161 0.98257 0.0
C294 C 0.733 -0.00464 0.97655 0.0
C295 C 0.9964 0.013 0.9314 0.0
C296 C 0.92741 0.03898 0.93745 0.0
N297 N 0.76328 0.04272 0.96302 0.0
N298 N 0.89807 -0.00812 0.95097 0.0
H299 H 0.53677 0.02546 0.00395 0.0
C300 C 0.21539 0.11318 0.00831 0.0
O301 O 1.08376 0.09526 0.00632 0.0
O302 O 0.42821 0.07965 -0.00431 0.0
H303 H 1.00626 0.05607 0.92335 0.0
H304 H 0.4849 0.20752 0.91248 0.0
H305 H 1.12852 0.00965 0.91211 0.0
Zn306 Zn 0.931 0.07849 0.24373 0.0
C307 C 0.65688 0.11337 0.35483 0.0
N308 N 0.80669 0.10865 0.38898 0.0
C309 C 0.95645 0.10392 0.35483 0.0
N310 N 0.89226 0.10424 0.30294 0.0
N311 N 0.72081 0.11301 0.3029 0.0
C312 C 0.39806 0.11328 0.21667 0.0
O313 O 0.52966 0.09536 0.21853 0.0
O314 O 0.18548 0.07975 0.22942 0.0
Zn315 Zn 0.68268 0.13878 0.24369 0.0
N316 N 0.8506 0.04276 0.26198 0.0
C317 C 0.61731 0.01304 0.29349 0.0
C318 C 0.6863 0.03902 0.28746 0.0
C319 C 0.9495 0.02164 0.2425 0.0
N320 N 0.7158 -0.00809 0.27399 0.0
C321 C 0.88103 -0.00462 0.2485 0.0
O322 O 0.77897 0.13056 0.16747 0.0
C323 C 0.80694 0.10861 0.14228 0.0
O324 O 0.83482 0.08667 0.16749 0.0
H325 H 0.60732 0.05611 0.30149 0.0
H326 H 1.07741 0.02548 0.22119 0.0
C327 C 0.66437 0.19562 0.24242 0.0
C328 C 0.73281 0.22187 0.24842 0.0
C329 C 0.99628 0.20424 0.29357 0.0
C330 C 0.9273 0.17825 0.28753 0.0
N331 N 0.76314 0.17451 0.26197 0.0
N332 N 0.89791 0.22536 0.27399 0.0
H333 H 0.53657 0.19176 0.22104 0.0
C334 C 0.21539 0.10402 0.21673 0.0
O335 O 1.08377 0.12194 0.21871 0.0
O336 O 0.42819 0.13756 0.22933 0.0
H337 H 1.00619 0.16117 0.30164 0.0
H338 H 0.48508 0.0097 0.31271 0.0
H339 H 1.12841 0.20759 0.31285 0.0
Zn340 Zn 0.68137 0.88874 -0.00627 0.0
C341 C 0.40728 0.85388 0.10482 0.0
N342 N 0.5571 0.85859 0.13897 0.0
C343 C 0.70686 0.86332 0.10483 0.0
N344 N 0.64266 0.863 0.05293 0.0
N345 N 0.47121 0.85423 0.0529 0.0
C346 C 1.14839 0.85393 0.96668 0.0
O347 O 0.27997 0.87186 0.96857 0.0
O348 O 0.93581 0.88746 0.97939 0.0
Zn349 Zn 0.43305 0.82845 -0.00631 0.0
N350 N 0.60108 0.92447 0.012 0.0
C351 C 0.36803 0.9542 0.04363 0.0
C352 C 0.43697 0.92822 0.03757 0.0
C353 C 0.69986 0.94559 -0.00755 0.0
N354 N 0.46639 0.97532 0.02406 0.0
C355 C 0.63144 0.97184 -0.00153 0.0
O356 O 0.52919 0.83665 0.91746 0.0
C357 C 0.55707 0.8586 0.89228 0.0
O358 O 0.58503 0.88055 0.91749 0.0
H359 H 0.35807 0.91114 0.05166 0.0
H360 H 0.82762 0.94173 0.97106 0.0
C361 C 0.41466 0.77161 -0.00751 0.0
C362 C 0.4831 0.74536 -0.00154 0.0
C363 C 0.74698 0.76301 0.0434 0.0
C364 C 0.678 0.78899 0.0374 0.0
N365 N 0.51363 0.79273 0.01196 0.0
N366 N 0.64841 0.74188 0.02391 0.0
H367 H 0.28669 0.77547 0.9712 0.0
C368 C 0.96572 0.86319 0.96671 0.0
O369 O 0.83409 0.84527 0.96866 0.0
O370 O 1.17853 0.82966 0.97934 0.0
H371 H 0.75703 0.80607 0.05143 0.0
H372 H 0.23593 0.95755 0.06293 0.0
H373 H 0.87927 0.75966 0.06259 0.0
Zn374 Zn 0.4326 0.88873 0.73135 0.0
C375 C 0.70673 0.85386 0.62021 0.0
N376 N 0.5569 0.85857 0.58607 0.0
C377 C 0.40715 0.86331 0.62021 0.0
N378 N 0.47137 0.863 0.67211 0.0
N379 N 0.64282 0.85424 0.67214 0.0
C380 C 0.96561 0.85391 0.75836 0.0
O381 O 0.83404 0.87185 0.75651 0.0
O382 O 1.17817 0.88745 0.74568 0.0
Zn383 Zn 0.68093 0.82845 0.73132 0.0
N384 N 0.51285 0.92448 0.71312 0.0
C385 C 0.74603 0.95421 0.68163 0.0
C386 C 0.67714 0.92822 0.68765 0.0
C387 C 0.41385 0.94559 0.7326 0.0
N388 N 0.64744 0.97533 0.70113 0.0
C389 C 0.48221 0.97184 0.72661 0.0
O390 O 0.58479 0.83665 0.80755 0.0
C391 C 0.55689 0.8586 0.83276 0.0
O392 O 0.52894 0.88055 0.80758 0.0
H393 H 0.75619 0.91114 0.67362 0.0
H394 H 0.28594 0.94173 0.7539 0.0
C395 C 0.69904 0.77161 0.73255 0.0
C396 C 0.63052 0.74536 0.72655 0.0
C397 C 0.36704 0.76302 0.68144 0.0
C398 C 0.43609 0.789 0.68747 0.0
N399 N 0.60029 0.79273 0.71301 0.0
N400 N 0.46538 0.74189 0.701 0.0
H401 H 0.82687 0.77547 0.75391 0.0
C402 C 1.14828 0.86318 0.75833 0.0
O403 O 0.27993 0.84526 0.75634 0.0
O404 O 0.93546 0.82965 0.74566 0.0
H405 H 0.35722 0.80608 0.67338 0.0
H406 H 0.87825 0.95756 0.66241 0.0
H407 H 0.23487 0.75967 0.66217 0.0
Zn408 Zn 0.68267 0.57845 0.4813 0.0
C409 C 0.95706 0.61335 0.37023 0.0
N410 N 0.80722 0.60867 0.33608 0.0
C411 C 0.65748 0.6039 0.3702 0.0
N412 N 0.72171 0.60417 0.4221 0.0
N413 N 0.89316 0.61294 0.42216 0.0
C414 C 0.21566 0.61327 0.50842 0.0
O415 O 1.08406 0.59534 0.50661 0.0
O416 O 0.42818 0.57974 0.49558 0.0
Zn417 Zn 0.93099 0.63874 0.48138 0.0
N418 N 0.76307 0.54271 0.46308 0.0
C419 C 0.99634 0.51299 0.43156 0.0
C420 C 0.92732 0.53897 0.43758 0.0
C421 C 0.66424 0.5216 0.4826 0.0
N422 N 0.89792 0.49187 0.4511 0.0
C423 C 0.73274 0.49535 0.47661 0.0
O424 O 0.83455 0.63055 0.55759 0.0
C425 C 0.80649 0.6086 0.58277 0.0
O426 O 0.77871 0.58665 0.55755 0.0
H427 H 1.00625 0.55606 0.42352 0.0
H428 H 0.53636 0.52546 0.50393 0.0
C429 C 0.94942 0.69558 0.48256 0.0
C430 C 0.88106 0.72183 0.47655 0.0
C431 C 0.61739 0.70419 0.43149 0.0
C432 C 0.6863 0.6782 0.43753 0.0
N433 N 0.85052 0.67446 0.46306 0.0
N434 N 0.71589 0.72531 0.45102 0.0
H435 H 1.07727 0.69172 0.50391 0.0
C436 C 0.39833 0.60401 0.50828 0.0
O437 O 0.52995 0.62193 0.50625 0.0
O438 O 0.18547 0.63754 0.49578 0.0
H439 H 0.60731 0.66112 0.42347 0.0
H440 H 1.12854 0.50964 0.41232 0.0
H441 H 0.48521 0.70754 0.41223 0.0
Zn442 Zn 0.68212 0.63874 0.74374 0.0
C443 C 0.95632 0.60386 0.85483 0.0
N444 N 0.80651 0.60857 0.88898 0.0
C445 C 0.65674 0.61331 0.85485 0.0
N446 N 0.72093 0.613 0.80295 0.0
N447 N 0.89237 0.60424 0.8029 0.0
C448 C 0.21509 0.60393 0.71668 0.0
O449 O 1.08351 0.62186 0.71856 0.0
O450 O 0.42767 0.63747 0.72941 0.0
Zn451 Zn 0.93044 0.57846 0.74369 0.0
N452 N 0.76244 0.67448 0.762 0.0
C453 C 0.99555 0.70421 0.79363 0.0
C454 C 0.92659 0.67822 0.78757 0.0
C455 C 0.66366 0.69559 0.74246 0.0
N456 N 0.89718 0.72533 0.77405 0.0
C457 C 0.7321 0.72185 0.74848 0.0
O458 O 0.83422 0.58665 0.66747 0.0
C459 C 0.80631 0.6086 0.64229 0.0
O460 O 0.77837 0.63055 0.6675 0.0
H461 H 1.00549 0.66114 0.80166 0.0
H462 H 0.53587 0.69174 0.72108 0.0
C463 C 0.94883 0.52162 0.74249 0.0
C464 C 0.88038 0.49537 0.74846 0.0
C465 C 0.61657 0.51301 0.79342 0.0
C466 C 0.68556 0.539 0.78742 0.0
N467 N 0.84989 0.54273 0.76196 0.0
N468 N 0.71511 0.49189 0.77392 0.0
H469 H 1.07677 0.52547 0.72119 0.0
C470 C 0.39776 0.61319 0.71673 0.0
O471 O 0.5294 0.59527 0.71869 0.0
O472 O 0.18496 0.57966 0.72934 0.0
H473 H 0.60655 0.55608 0.80146 0.0
H474 H 1.12768 0.70756 0.81292 0.0
H475 H 0.48431 0.50967 0.81262 0.0
Zn476 Zn 0.6812 0.38874 0.49375 0.0
C477 C 0.40708 0.35386 0.60482 0.0
N478 N 0.5569 0.35857 0.63898 0.0
C479 C 0.70666 0.36331 0.60484 0.0
N480 N 0.64245 0.36299 0.55294 0.0
N481 N 0.471 0.35423 0.5529 0.0
C482 C 1.14826 0.35394 0.46667 0.0
O483 O 0.27985 0.37187 0.46854 0.0
O484 O 0.93568 0.38747 0.47944 0.0
Zn485 Zn 0.43289 0.32846 0.49367 0.0
N486 N 0.60078 0.42447 0.51202 0.0
C487 C 0.36757 0.45419 0.54359 0.0
C488 C 0.43657 0.42821 0.53755 0.0
C489 C 0.69959 0.44558 0.49251 0.0
N490 N 0.46597 0.47531 0.52405 0.0
C491 C 0.63111 0.47183 0.49851 0.0
O492 O 0.52916 0.33666 0.41745 0.0
C493 C 0.55711 0.35861 0.39228 0.0
O494 O 0.585 0.38055 0.41751 0.0
H495 H 0.35766 0.41112 0.55161 0.0
H496 H 0.82743 0.44173 0.47116 0.0
C497 C 0.41435 0.27162 0.49246 0.0
C498 C 0.48271 0.24536 0.49844 0.0
C499 C 0.74655 0.263 0.54343 0.0
C500 C 0.67764 0.28898 0.53742 0.0
N501 N 0.51335 0.29273 0.51194 0.0
N502 N 0.64795 0.24187 0.52392 0.0
H503 H 0.28644 0.27548 0.47115 0.0
C504 C 0.96559 0.3632 0.46674 0.0
O505 O 0.83397 0.34528 0.46869 0.0
O506 O 1.1784 0.32967 0.47931 0.0
H507 H 0.75669 0.30606 0.55146 0.0
H508 H 0.2354 0.45754 0.56285 0.0
H509 H 0.87878 0.25964 0.56265 0.0
Zn510 Zn 0.4331 0.38877 0.23136 0.0
C511 C 0.70747 0.35389 0.12023 0.0
N512 N 0.55763 0.35857 0.08607 0.0
C513 C 0.40789 0.36334 0.12021 0.0
N514 N 0.47212 0.36305 0.1721 0.0
N515 N 0.64356 0.35429 0.17215 0.0
C516 C 0.96614 0.35393 0.2584 0.0
O517 O 0.83456 0.37186 0.25661 0.0
O518 O 1.17865 0.38747 0.24567 0.0
Zn519 Zn 0.68144 0.32848 0.23132 0.0
N520 N 0.51332 0.42452 0.21319 0.0
C521 C 0.74658 0.45425 0.18175 0.0
C522 C 0.67765 0.42826 0.18775 0.0
C523 C 0.41431 0.44563 0.23267 0.0
N524 N 0.64798 0.47537 0.20125 0.0
C525 C 0.48271 0.47188 0.22671 0.0
O526 O 0.58513 0.33667 0.30755 0.0
C527 C 0.55713 0.35861 0.33277 0.0
O528 O 0.52928 0.38056 0.30759 0.0
H529 H 0.75671 0.41119 0.17371 0.0
H530 H 0.28637 0.44176 0.25396 0.0
C531 C 0.69965 0.27164 0.23252 0.0
C532 C 0.63123 0.24539 0.22649 0.0
C533 C 0.36783 0.26303 0.18131 0.0
C534 C 0.43679 0.28902 0.18737 0.0
N535 N 0.6009 0.29276 0.21296 0.0
N536 N 0.46618 0.24191 0.20089 0.0
H537 H 0.8274 0.2755 0.25392 0.0
C538 C 1.14881 0.36319 0.2583 0.0
O539 O 0.28045 0.34527 0.25624 0.0
O540 O 0.93595 0.32966 0.2457 0.0
H541 H 0.35792 0.3061 0.17327 0.0
H542 H 0.87883 0.45761 0.16255 0.0
H543 H 0.23573 0.25968 0.16201 0.0
loop_
_geom_bond_atom_site_label_1
_geom_bond_atom_site_label_2
_geom_bond_distance
_geom_bond_site_symmetry_2
_ccdc_geom_bond_type
Zn0 N4 2.020 1_655 S
Zn0 O8 2.019 . S
Zn0 N10 2.119 1_655 S
Zn0 O18 1.975 1_655 S
C1 N2 1.334 . S
C1 N5 1.336 . S
N2 C1 1.334 . S
N2 C3 1.334 . S
C3 N2 1.334 . S
C3 N4 1.336 . S
N4 Zn0 2.020 1_455 S
N4 C3 1.336 . S
N4 N5 1.354 . S
N5 C1 1.336 . S
N5 N4 1.354 . S
N5 Zn9 2.020 . S
C6 O7 1.244 . S
C6 O30 1.257 . S
O7 C6 1.244 . S
O8 Zn0 2.019 . S
O8 C28 1.257 . S
Zn9 N5 2.020 . S
Zn9 O16 1.975 . S
Zn9 N25 2.119 . S
Zn9 O30 2.019 . S
N10 Zn0 2.119 1_455 S
N10 C12 1.334 . S
N10 C13 1.328 1_455 S
C11 C12 1.391 . S
C11 N14 1.329 . S
C11 H32 0.930 . S
C12 N10 1.334 . S
C12 C11 1.391 . S
C12 H19 0.930 . S
C13 N10 1.328 1_655 S
C13 C15 1.392 . S
C13 H20 0.930 . S
N14 C11 1.329 . S
N14 C15 1.331 1_455 S
C15 C13 1.392 . S
C15 N14 1.331 1_655 S
O16 Zn9 1.975 . S
O16 C17 1.252 . S
C17 O16 1.252 . S
C17 O18 1.252 . S
O18 Zn0 1.975 1_455 S
O18 C17 1.252 . S
H19 C12 0.930 . S
H20 C13 0.930 . S
C21 C22 1.392 . S
C21 N25 1.328 . S
C21 H27 0.930 . S
C22 C21 1.392 . S
C22 N26 1.331 . S
C23 C24 1.391 . S
C23 N26 1.329 . S
C23 H33 0.930 1_455 S
C24 C23 1.391 . S
C24 N25 1.334 . S
C24 H31 0.930 . S
N25 Zn9 2.119 . S
N25 C21 1.328 . S
N25 C24 1.334 . S
N26 C22 1.331 . S
N26 C23 1.329 . S
H27 C21 0.930 . S
C28 O8 1.257 . S
C28 O29 1.244 . S
O29 C28 1.244 . S
O30 C6 1.257 . S
O30 Zn9 2.019 . S
H31 C24 0.930 . S
H32 C11 0.930 . S
H33 C23 0.930 1_655 S
Zn34 N38 2.020 1_655 S
Zn34 O42 2.019 . S
Zn34 N44 2.119 1_655 S
Zn34 O52 1.975 1_655 S
C35 N36 1.334 . S
C35 N39 1.336 . S
N36 C35 1.334 . S
N36 C37 1.334 . S
C37 N36 1.334 . S
C37 N38 1.336 . S
N38 Zn34 2.020 1_455 S
N38 C37 1.336 . S
N38 N39 1.354 . S
N39 C35 1.336 . S
N39 N38 1.354 . S
N39 Zn43 2.020 . S
C40 O41 1.244 . S
C40 O64 1.257 . S
O41 C40 1.244 . S
O42 Zn34 2.019 . S
O42 C62 1.257 . S
Zn43 N39 2.020 . S
Zn43 O50 1.975 . S
Zn43 N59 2.119 . S
Zn43 O64 2.019 . S
N44 Zn34 2.119 1_455 S
N44 C46 1.334 . S
N44 C47 1.328 1_455 S
C45 C46 1.391 . S
C45 N48 1.329 . S
C45 H66 0.930 . S
C46 N44 1.334 . S
C46 C45 1.391 . S
C46 H53 0.930 . S
C47 N44 1.328 1_655 S
C47 C49 1.392 . S
C47 H54 0.930 . S
N48 C45 1.329 . S
N48 C49 1.331 1_455 S
C49 C47 1.392 . S
C49 N48 1.331 1_655 S
O50 Zn43 1.975 . S
O50 C51 1.252 . S
C51 O50 1.252 . S
C51 O52 1.252 . S
O52 Zn34 1.975 1_455 S
O52 C51 1.252 . S
H53 C46 0.930 . S
H54 C47 0.930 . S
C55 C56 1.392 . S
C55 N59 1.328 . S
C55 H61 0.930 . S
C56 C55 1.392 . S
C56 N60 1.331 . S
C57 C58 1.391 . S
C57 N60 1.329 . S
C57 H67 0.930 1_455 S
C58 C57 1.391 . S
C58 N59 1.334 . S
C58 H65 0.930 . S
N59 Zn43 2.119 . S
N59 C55 1.328 . S
N59 C58 1.334 . S
N60 C56 1.331 . S
N60 C57 1.329 . S
H61 C55 0.930 . S
C62 O42 1.257 . S
C62 O63 1.244 . S
O63 C62 1.244 . S
O64 C40 1.257 . S
O64 Zn43 2.019 . S
H65 C58 0.930 . S
H66 C45 0.930 . S
H67 C57 0.930 1_655 S
Zn68 N72 2.020 1_455 S
Zn68 O76 2.019 . S
Zn68 N78 2.119 1_455 S
Zn68 O86 1.975 1_455 S
C69 N70 1.334 . S
C69 N73 1.336 . S
N70 C69 1.334 . S
N70 C71 1.334 . S
C71 N70 1.334 . S
C71 N72 1.336 . S
N72 Zn68 2.020 1_655 S
N72 C71 1.336 . S
N72 N73 1.354 . S
N73 C69 1.336 . S
N73 N72 1.354 . S
N73 Zn77 2.020 . S
C74 O75 1.244 . S
C74 O98 1.257 . S
O75 C74 1.244 . S
O76 Zn68 2.019 . S
O76 C96 1.257 . S
Zn77 N73 2.020 . S
Zn77 O84 1.975 . S
Zn77 N93 2.119 . S
Zn77 O98 2.019 . S
N78 Zn68 2.119 1_655 S
N78 C80 1.334 . S
N78 C81 1.328 1_655 S
C79 C80 1.391 . S
C79 N82 1.329 . S
C79 H100 0.930 . S
C80 N78 1.334 . S
C80 C79 1.391 . S
C80 H87 0.930 . S
C81 N78 1.328 1_455 S
C81 C83 1.392 . S
C81 H88 0.930 . S
N82 C79 1.329 . S
N82 C83 1.331 1_655 S
C83 C81 1.392 . S
C83 N82 1.331 1_455 S
O84 Zn77 1.975 . S
O84 C85 1.252 . S
C85 O84 1.252 . S
C85 O86 1.252 . S
O86 Zn68 1.975 1_655 S
O86 C85 1.252 . S
H87 C80 0.930 . S
H88 C81 0.930 . S
C89 C90 1.392 . S
C89 N93 1.328 . S
C89 H95 0.930 . S
C90 C89 1.392 . S
C90 N94 1.331 . S
C91 C92 1.391 . S
C91 N94 1.329 . S
C91 H101 0.930 1_655 S
C92 C91 1.391 . S
C92 N93 1.334 . S
C92 H99 0.930 . S
N93 Zn77 2.119 . S
N93 C89 1.328 . S
N93 C92 1.334 . S
N94 C90 1.331 . S
N94 C91 1.329 . S
H95 C89 0.930 . S
C96 O76 1.257 . S
C96 O97 1.244 . S
O97 C96 1.244 . S
O98 C74 1.257 . S
O98 Zn77 2.019 . S
H99 C92 0.930 . S
H100 C79 0.930 . S
H101 C91 0.930 1_455 S
Zn102 N106 2.020 . S
Zn102 O110 2.019 . S
Zn102 N112 2.119 . S
Zn102 O120 1.975 . S
C103 N104 1.334 . S
C103 N107 1.336 . S
N104 C103 1.334 . S
N104 C105 1.334 . S
C105 N104 1.334 . S
C105 N106 1.336 . S
N106 Zn102 2.020 . S
N106 C105 1.336 . S
N106 N107 1.354 . S
N107 C103 1.336 . S
N107 N106 1.354 . S
N107 Zn111 2.020 1_655 S
C108 O109 1.244 . S
C108 O132 1.257 . S
O109 C108 1.244 . S
O110 Zn102 2.019 . S
O110 C130 1.257 . S
Zn111 N107 2.020 1_455 S
Zn111 O118 1.975 1_455 S
Zn111 N127 2.119 1_455 S
Zn111 O132 2.019 . S
N112 Zn102 2.119 . S
N112 C114 1.334 . S
N112 C115 1.328 . S
C113 C114 1.391 . S
C113 N116 1.329 . S
C113 H134 0.930 1_655 S
C114 N112 1.334 . S
C114 C113 1.391 . S
C114 H121 0.930 . S
C115 N112 1.328 . S
C115 C117 1.392 . S
C115 H122 0.930 . S
N116 C113 1.329 . S
N116 C117 1.331 . S
C117 C115 1.392 . S
C117 N116 1.331 . S
O118 Zn111 1.975 1_655 S
O118 C119 1.252 . S
C119 O118 1.252 . S
C119 O120 1.252 . S
O120 Zn102 1.975 . S
O120 C119 1.252 . S
H121 C114 0.930 . S
H122 C115 0.930 . S
C123 C124 1.392 . S
C123 N127 1.328 1_455 S
C123 H129 0.930 . S
C124 C123 1.392 . S
C124 N128 1.331 1_455 S
C125 C126 1.391 . S
C125 N128 1.329 . S
C125 H135 0.930 . S
C126 C125 1.391 . S
C126 N127 1.334 . S
C126 H133 0.930 . S
N127 Zn111 2.119 1_655 S
N127 C123 1.328 1_655 S
N127 C126 1.334 . S
N128 C124 1.331 1_655 S
N128 C125 1.329 . S
H129 C123 0.930 . S
C130 O110 1.257 . S
C130 O131 1.244 . S
O131 C130 1.244 . S
O132 C108 1.257 . S
O132 Zn111 2.019 . S
H133 C126 0.930 . S
H134 C113 0.930 1_455 S
H135 C125 0.930 . S
Zn136 N140 2.020 . S
Zn136 O144 2.019 1_556 S
Zn136 N146 2.119 1_556 S
Zn136 O154 1.975 1_556 S
C137 N138 1.334 . S
C137 N141 1.336 . S
N138 C137 1.334 . S
N138 C139 1.334 . S
C139 N138 1.334 . S
C139 N140 1.336 . S
N140 Zn136 2.020 . S
N140 C139 1.336 . S
N140 N141 1.354 . S
N141 C137 1.336 . S
N141 N140 1.354 . S
N141 Zn145 2.020 1_455 S
C142 O143 1.244 1_554 S
C142 O166 1.257 . S
O143 C142 1.244 1_556 S
O144 Zn136 2.019 1_554 S
O144 C164 1.257 . S
Zn145 N141 2.020 1_655 S
Zn145 O152 1.975 1_656 S
Zn145 N161 2.119 1_656 S
Zn145 O166 2.019 1_556 S
N146 Zn136 2.119 1_554 S
N146 C148 1.334 . S
N146 C149 1.328 . S
C147 C148 1.391 . S
C147 N150 1.329 . S
C147 H168 0.930 1_455 S
C148 N146 1.334 . S
C148 C147 1.391 . S
C148 H155 0.930 . S
C149 N146 1.328 . S
C149 C151 1.392 . S
C149 H156 0.931 . S
N150 C147 1.329 . S
N150 C151 1.331 . S
C151 C149 1.392 . S
C151 N150 1.331 . S
O152 Zn145 1.975 1_454 S
O152 C153 1.252 . S
C153 O152 1.252 . S
C153 O154 1.252 . S
O154 Zn136 1.975 1_554 S
O154 C153 1.252 . S
H155 C148 0.930 . S
H156 C149 0.931 . S
C157 C158 1.392 . S
C157 N161 1.328 1_655 S
C157 H163 0.931 . S
C158 C157 1.392 . S
C158 N162 1.331 1_655 S
C159 C160 1.391 . S
C159 N162 1.329 . S
C159 H169 0.930 . S
C160 C159 1.391 . S
C160 N161 1.334 . S
C160 H167 0.930 . S
N161 Zn145 2.119 1_454 S
N161 C157 1.328 1_455 S
N161 C160 1.334 . S
N162 C158 1.331 1_455 S
N162 C159 1.329 . S
H163 C157 0.931 . S
C164 O144 1.257 . S
C164 O165 1.244 1_554 S
O165 C164 1.244 1_556 S
O166 C142 1.257 . S
O166 Zn145 2.019 1_554 S
H167 C160 0.930 . S
H168 C147 0.930 1_655 S
H169 C159 0.930 . S
Zn170 N174 2.020 1_655 S
Zn170 O178 2.019 . S
Zn170 N180 2.119 1_655 S
Zn170 O188 1.975 1_655 S
C171 N172 1.334 . S
C171 N175 1.336 . S
N172 C171 1.334 . S
N172 C173 1.334 . S
C173 N172 1.334 . S
C173 N174 1.336 . S
N174 Zn170 2.020 1_455 S
N174 C173 1.336 . S
N174 N175 1.354 . S
N175 C171 1.336 . S
N175 N174 1.354 . S
N175 Zn179 2.020 . S
C176 O177 1.244 . S
C176 O200 1.257 . S
O177 C176 1.244 . S
O178 Zn170 2.019 . S
O178 C198 1.257 . S
Zn179 N175 2.020 . S
Zn179 O186 1.975 . S
Zn179 N195 2.119 . S
Zn179 O200 2.019 . S
N180 Zn170 2.119 1_455 S
N180 C182 1.334 . S
N180 C183 1.328 1_455 S
C181 C182 1.391 . S
C181 N184 1.329 . S
C181 H202 0.930 . S
C182 N180 1.334 . S
C182 C181 1.391 . S
C182 H189 0.930 . S
C183 N180 1.328 1_655 S
C183 C185 1.392 . S
C183 H190 0.930 . S
N184 C181 1.329 . S
N184 C185 1.331 1_455 S
C185 C183 1.392 . S
C185 N184 1.331 1_655 S
O186 Zn179 1.975 . S
O186 C187 1.252 . S
C187 O186 1.252 . S
C187 O188 1.252 . S
O188 Zn170 1.975 1_455 S
O188 C187 1.252 . S
H189 C182 0.930 . S
H190 C183 0.930 . S
C191 C192 1.392 . S
C191 N195 1.328 . S
C191 H197 0.930 . S
C192 C191 1.392 . S
C192 N196 1.331 . S
C193 C194 1.391 . S
C193 N196 1.329 . S
C193 H203 0.930 1_455 S
C194 C193 1.391 . S
C194 N195 1.334 . S
C194 H201 0.930 . S
N195 Zn179 2.119 . S
N195 C191 1.328 . S
N195 C194 1.334 . S
N196 C192 1.331 . S
N196 C193 1.329 . S
H197 C191 0.930 . S
C198 O178 1.257 . S
C198 O199 1.244 . S
O199 C198 1.244 . S
O200 C176 1.257 . S
O200 Zn179 2.019 . S
H201 C194 0.930 . S
H202 C181 0.930 . S
H203 C193 0.930 1_655 S
Zn204 N208 2.020 . S
Zn204 O212 2.019 1_554 S
Zn204 N214 2.119 1_554 S
Zn204 O222 1.975 1_554 S
C205 N206 1.334 . S
C205 N209 1.336 . S
N206 C205 1.334 . S
N206 C207 1.334 . S
C207 N206 1.334 . S
C207 N208 1.336 . S
N208 Zn204 2.020 . S
N208 C207 1.336 . S
N208 N209 1.354 . S
N209 C205 1.336 . S
N209 N208 1.354 . S
N209 Zn213 2.020 1_655 S
C210 O211 1.244 1_556 S
C210 O234 1.257 . S
O211 C210 1.244 1_554 S
O212 Zn204 2.019 1_556 S
O212 C232 1.257 . S
Zn213 N209 2.020 1_455 S
Zn213 O220 1.975 1_454 S
Zn213 N229 2.119 1_454 S
Zn213 O234 2.019 1_554 S
N214 Zn204 2.119 1_556 S
N214 C216 1.334 . S
N214 C217 1.328 . S
C215 C216 1.391 . S
C215 N218 1.329 . S
C215 H236 0.930 1_655 S
C216 N214 1.334 . S
C216 C215 1.391 . S
C216 H223 0.930 . S
C217 N214 1.328 . S
C217 C219 1.392 . S
C217 H224 0.931 . S
N218 C215 1.329 . S
N218 C219 1.331 . S
C219 C217 1.392 . S
C219 N218 1.331 . S
O220 Zn213 1.975 1_656 S
O220 C221 1.252 . S
C221 O220 1.252 . S
C221 O222 1.252 . S
O222 Zn204 1.975 1_556 S
O222 C221 1.252 . S
H223 C216 0.930 . S
H224 C217 0.931 . S
C225 C226 1.392 . S
C225 N229 1.328 1_455 S
C225 H231 0.931 . S
C226 C225 1.392 . S
C226 N230 1.331 1_455 S
C227 C228 1.391 . S
C227 N230 1.329 . S
C227 H237 0.930 . S
C228 C227 1.391 . S
C228 N229 1.334 . S
C228 H235 0.930 . S
N229 Zn213 2.119 1_656 S
N229 C225 1.328 1_655 S
N229 C228 1.334 . S
N230 C226 1.331 1_655 S
N230 C227 1.329 . S
H231 C225 0.931 . S
C232 O212 1.257 . S
C232 O233 1.244 1_556 S
O233 C232 1.244 1_554 S
O234 C210 1.257 . S
O234 Zn213 2.019 1_556 S
H235 C228 0.930 . S
H236 C215 0.930 1_455 S
H237 C227 0.930 . S
Zn238 N242 2.020 . S
Zn238 O246 2.019 . S
Zn238 N248 2.119 . S
Zn238 O256 1.975 . S
C239 N240 1.334 . S
C239 N243 1.336 . S
N240 C239 1.334 . S
N240 C241 1.334 . S
C241 N240 1.334 . S
C241 N242 1.336 . S
N242 Zn238 2.020 . S
N242 C241 1.336 . S
N242 N243 1.354 . S
N243 C239 1.336 . S
N243 N242 1.354 . S
N243 Zn247 2.020 1_655 S
C244 O245 1.244 . S
C244 O268 1.257 . S
O245 C244 1.244 . S
O246 Zn238 2.019 . S
O246 C266 1.257 . S
Zn247 N243 2.020 1_455 S
Zn247 O254 1.975 1_455 S
Zn247 N263 2.119 1_455 S
Zn247 O268 2.019 . S
N248 Zn238 2.119 . S
N248 C250 1.334 . S
N248 C251 1.328 . S
C249 C250 1.391 . S
C249 N252 1.329 . S
C249 H270 0.930 1_655 S
C250 N248 1.334 . S
C250 C249 1.391 . S
C250 H257 0.930 . S
C251 N248 1.328 . S
C251 C253 1.392 . S
C251 H258 0.930 . S
N252 C249 1.329 . S
N252 C253 1.331 . S
C253 C251 1.392 . S
C253 N252 1.331 . S
O254 Zn247 1.975 1_655 S
O254 C255 1.252 . S
C255 O254 1.252 . S
C255 O256 1.252 . S
O256 Zn238 1.975 . S
O256 C255 1.252 . S
H257 C250 0.930 . S
H258 C251 0.930 . S
C259 C260 1.392 . S
C259 N263 1.328 1_455 S
C259 H265 0.930 . S
C260 C259 1.392 . S
C260 N264 1.331 1_455 S
C261 C262 1.391 . S
C261 N264 1.329 . S
C261 H271 0.930 . S
C262 C261 1.391 . S
C262 N263 1.334 . S
C262 H269 0.930 . S
N263 Zn247 2.119 1_655 S
N263 C259 1.328 1_655 S
N263 C262 1.334 . S
N264 C260 1.331 1_655 S
N264 C261 1.329 . S
H265 C259 0.930 . S
C266 O246 1.257 . S
C266 O267 1.244 . S
O267 C266 1.244 . S
O268 C244 1.257 . S
O268 Zn247 2.019 . S
H269 C262 0.930 . S
H270 C249 0.930 1_455 S
H271 C261 0.930 . S
Zn272 N276 2.020 . S
Zn272 O280 2.019 1_556 S
Zn272 N282 2.119 1_556 S
Zn272 O290 1.975 1_556 S
C273 N274 1.334 . S
C273 N277 1.336 . S
N274 C273 1.334 . S
N274 C275 1.334 . S
C275 N274 1.334 . S
C275 N276 1.336 . S
N276 Zn272 2.020 . S
N276 C275 1.336 . S
N276 N277 1.354 . S
N277 C273 1.336 . S
N277 N276 1.354 . S
N277 Zn281 2.020 . S
C278 O279 1.244 1_554 S
C278 O302 1.257 . S
O279 C278 1.244 1_556 S
O280 Zn272 2.019 1_554 S
O280 C300 1.257 1_655 S
Zn281 N277 2.020 . S
Zn281 O288 1.975 1_556 S
Zn281 N297 2.119 1_556 S
Zn281 O302 2.019 1_556 S
N282 Zn272 2.119 1_554 S
N282 C284 1.334 . S
N282 C285 1.328 . S
C283 C284 1.391 . S
C283 N286 1.329 . S
C283 H304 0.930 . S
C284 N282 1.334 . S
C284 C283 1.391 . S
C284 H291 0.930 . S
C285 N282 1.328 . S
C285 C287 1.392 . S
C285 H292 0.931 . S
N286 C283 1.329 . S
N286 C287 1.331 . S
C287 C285 1.392 . S
C287 N286 1.331 . S
O288 Zn281 1.975 1_554 S
O288 C289 1.252 . S
C289 O288 1.252 . S
C289 O290 1.252 . S
O290 Zn272 1.975 1_554 S
O290 C289 1.252 . S
H291 C284 0.930 . S
H292 C285 0.931 . S
C293 C294 1.392 . S
C293 N297 1.328 . S
C293 H299 0.931 . S
C294 C293 1.392 . S
C294 N298 1.331 . S
C295 C296 1.391 . S
C295 N298 1.329 . S
C295 H305 0.930 . S
C296 C295 1.391 . S
C296 N297 1.334 . S
C296 H303 0.930 . S
N297 Zn281 2.119 1_554 S
N297 C293 1.328 . S
N297 C296 1.334 . S
N298 C294 1.331 . S
N298 C295 1.329 . S
H299 C293 0.931 . S
C300 O280 1.257 1_455 S
C300 O301 1.244 1_454 S
O301 C300 1.244 1_656 S
O302 C278 1.257 . S
O302 Zn281 2.019 1_554 S
H303 C296 0.930 . S
H304 C283 0.930 . S
H305 C295 0.930 . S
Zn306 N310 2.020 . S
Zn306 O314 2.019 . S
Zn306 N316 2.119 . S
Zn306 O324 1.975 . S
C307 N308 1.334 . S
C307 N311 1.336 . S
N308 C307 1.334 . S
N308 C309 1.334 . S
C309 N308 1.334 . S
C309 N310 1.336 . S
N310 Zn306 2.020 . S
N310 C309 1.336 . S
N310 N311 1.354 . S
N311 C307 1.336 . S
N311 N310 1.354 . S
N311 Zn315 2.020 . S
C312 O313 1.244 . S
C312 O336 1.257 . S
O313 C312 1.244 . S
O314 Zn306 2.019 . S
O314 C334 1.257 1_655 S
Zn315 N311 2.020 . S
Zn315 O322 1.975 . S
Zn315 N331 2.119 . S
Zn315 O336 2.019 . S
N316 Zn306 2.119 . S
N316 C318 1.334 . S
N316 C319 1.328 . S
C317 C318 1.391 . S
C317 N320 1.329 . S
C317 H338 0.930 . S
C318 N316 1.334 . S
C318 C317 1.391 . S
C318 H325 0.930 . S
C319 N316 1.328 . S
C319 C321 1.392 . S
C319 H326 0.930 . S
N320 C317 1.329 . S
N320 C321 1.331 . S
C321 C319 1.392 . S
C321 N320 1.331 . S
O322 Zn315 1.975 . S
O322 C323 1.252 . S
C323 O322 1.252 . S
C323 O324 1.252 . S
O324 Zn306 1.975 . S
O324 C323 1.252 . S
H325 C318 0.930 . S
H326 C319 0.930 . S
C327 C328 1.392 . S
C327 N331 1.328 . S
C327 H333 0.930 . S
C328 C327 1.392 . S
C328 N332 1.331 . S
C329 C330 1.391 . S
C329 N332 1.329 . S
C329 H339 0.930 . S
C330 C329 1.391 . S
C330 N331 1.334 . S
C330 H337 0.930 . S
N331 Zn315 2.119 . S
N331 C327 1.328 . S
N331 C330 1.334 . S
N332 C328 1.331 . S
N332 C329 1.329 . S
H333 C327 0.930 . S
C334 O314 1.257 1_455 S
C334 O335 1.244 1_455 S
O335 C334 1.244 1_655 S
O336 C312 1.257 . S
O336 Zn315 2.019 . S
H337 C330 0.930 . S
H338 C317 0.930 . S
H339 C329 0.930 . S
Zn340 N344 2.020 . S
Zn340 O348 2.019 1_554 S
Zn340 N350 2.119 1_554 S
Zn340 O358 1.975 1_554 S
C341 N342 1.334 . S
C341 N345 1.336 . S
N342 C341 1.334 . S
N342 C343 1.334 . S
C343 N342 1.334 . S
C343 N344 1.336 . S
N344 Zn340 2.020 . S
N344 C343 1.336 . S
N344 N345 1.354 . S
N345 C341 1.336 . S
N345 N344 1.354 . S
N345 Zn349 2.020 . S
C346 O347 1.244 1_656 S
C346 O370 1.257 1_655 S
O347 C346 1.244 1_454 S
O348 Zn340 2.019 1_556 S
O348 C368 1.257 . S
Zn349 N345 2.020 . S
Zn349 O356 1.975 1_554 S
Zn349 N365 2.119 1_554 S
Zn349 O370 2.019 1_554 S
N350 Zn340 2.119 1_556 S
N350 C352 1.334 . S
N350 C353 1.328 . S
C351 C352 1.391 . S
C351 N354 1.329 . S
C351 H372 0.930 . S
C352 N350 1.334 . S
C352 C351 1.391 . S
C352 H359 0.930 . S
C353 N350 1.328 . S
C353 C355 1.392 . S
C353 H360 0.931 . S
N354 C351 1.329 . S
N354 C355 1.331 . S
C355 C353 1.392 . S
C355 N354 1.331 . S
O356 Zn349 1.975 1_556 S
O356 C357 1.252 . S
C357 O356 1.252 . S
C357 O358 1.252 . S
O358 Zn340 1.975 1_556 S
O358 C357 1.252 . S
H359 C352 0.930 . S
H360 C353 0.931 . S
C361 C362 1.392 . S
C361 N365 1.328 . S
C361 H367 0.931 . S
C362 C361 1.392 . S
C362 N366 1.331 . S
C363 C364 1.391 . S
C363 N366 1.329 . S
C363 H373 0.930 . S
C364 C363 1.391 . S
C364 N365 1.334 . S
C364 H371 0.930 . S
N365 Zn349 2.119 1_556 S
N365 C361 1.328 . S
N365 C364 1.334 . S
N366 C362 1.331 . S
N366 C363 1.329 . S
H367 C361 0.931 . S
C368 O348 1.257 . S
C368 O369 1.244 1_556 S
O369 C368 1.244 1_554 S
O370 C346 1.257 1_455 S
O370 Zn349 2.019 1_556 S
H371 C364 0.930 . S
H372 C351 0.930 . S
H373 C363 0.930 . S
Zn374 N378 2.020 . S
Zn374 O382 2.019 . S
Zn374 N384 2.119 . S
Zn374 O392 1.975 . S
C375 N376 1.334 . S
C375 N379 1.336 . S
N376 C375 1.334 . S
N376 C377 1.334 . S
C377 N376 1.334 . S
C377 N378 1.336 . S
N378 Zn374 2.020 . S
N378 C377 1.336 . S
N378 N379 1.354 . S
N379 C375 1.336 . S
N379 N378 1.354 . S
N379 Zn383 2.020 . S
C380 O381 1.244 . S
C380 O404 1.257 . S
O381 C380 1.244 . S
O382 Zn374 2.019 . S
O382 C402 1.257 1_455 S
Zn383 N379 2.020 . S
Zn383 O390 1.975 . S
Zn383 N399 2.119 . S
Zn383 O404 2.019 . S
N384 Zn374 2.119 . S
N384 C386 1.334 . S
N384 C387 1.328 . S
C385 C386 1.391 . S
C385 N388 1.329 . S
C385 H406 0.930 . S
C386 N384 1.334 . S
C386 C385 1.391 . S
C386 H393 0.930 . S
C387 N384 1.328 . S
C387 C389 1.392 . S
C387 H394 0.930 . S
N388 C385 1.329 . S
N388 C389 1.331 . S
C389 C387 1.392 . S
C389 N388 1.331 . S
O390 Zn383 1.975 . S
O390 C391 1.252 . S
C391 O390 1.252 . S
C391 O392 1.252 . S
O392 Zn374 1.975 . S
O392 C391 1.252 . S
H393 C386 0.930 . S
H394 C387 0.930 . S
C395 C396 1.392 . S
C395 N399 1.328 . S
C395 H401 0.930 . S
C396 C395 1.392 . S
C396 N400 1.331 . S
C397 C398 1.391 . S
C397 N400 1.329 . S
C397 H407 0.930 . S
C398 C397 1.391 . S
C398 N399 1.334 . S
C398 H405 0.930 . S
N399 Zn383 2.119 . S
N399 C395 1.328 . S
N399 C398 1.334 . S
N400 C396 1.331 . S
N400 C397 1.329 . S
H401 C395 0.930 . S
C402 O382 1.257 1_655 S
C402 O403 1.244 1_655 S
O403 C402 1.244 1_455 S
O404 C380 1.257 . S
O404 Zn383 2.019 . S
H405 C398 0.930 . S
H406 C385 0.930 . S
H407 C397 0.930 . S
Zn408 N412 2.020 . S
Zn408 O416 2.019 . S
Zn408 N418 2.119 . S
Zn408 O426 1.975 . S
C409 N410 1.334 . S
C409 N413 1.336 . S
N410 C409 1.334 . S
N410 C411 1.334 . S
C411 N410 1.334 . S
C411 N412 1.336 . S
N412 Zn408 2.020 . S
N412 C411 1.336 . S
N412 N413 1.354 . S
N413 C409 1.336 . S
N413 N412 1.354 . S
N413 Zn417 2.020 . S
C414 O415 1.244 1_455 S
C414 O438 1.257 1_455 S
O415 C414 1.244 1_655 S
O416 Zn408 2.019 . S
O416 C436 1.257 . S
Zn417 N413 2.020 . S
Zn417 O424 1.975 . S
Zn417 N433 2.119 . S
Zn417 O438 2.019 . S
N418 Zn408 2.119 . S
N418 C420 1.334 . S
N418 C421 1.328 . S
C419 C420 1.391 . S
C419 N422 1.329 . S
C419 H440 0.930 . S
C420 N418 1.334 . S
C420 C419 1.391 . S
C420 H427 0.930 . S
C421 N418 1.328 . S
C421 C423 1.392 . S
C421 H428 0.930 . S
N422 C419 1.329 . S
N422 C423 1.331 . S
C423 C421 1.392 . S
C423 N422 1.331 . S
O424 Zn417 1.975 . S
O424 C425 1.252 . S
C425 O424 1.252 . S
C425 O426 1.252 . S
O426 Zn408 1.975 . S
O426 C425 1.252 . S
H427 C420 0.930 . S
H428 C421 0.930 . S
C429 C430 1.392 . S
C429 N433 1.328 . S
C429 H435 0.930 . S
C430 C429 1.392 . S
C430 N434 1.331 . S
C431 C432 1.391 . S
C431 N434 1.329 . S
C431 H441 0.930 . S
C432 C431 1.391 . S
C432 N433 1.334 . S
C432 H439 0.930 . S
N433 Zn417 2.119 . S
N433 C429 1.328 . S
N433 C432 1.334 . S
N434 C430 1.331 . S
N434 C431 1.329 . S
H435 C429 0.930 . S
C436 O416 1.257 . S
C436 O437 1.244 . S
O437 C436 1.244 . S
O438 C414 1.257 1_655 S
O438 Zn417 2.019 . S
H439 C432 0.930 . S
H440 C419 0.930 . S
H441 C431 0.930 . S
Zn442 N446 2.020 . S
Zn442 O450 2.019 . S
Zn442 N452 2.119 . S
Zn442 O460 1.975 . S
C443 N444 1.334 . S
C443 N447 1.336 . S
N444 C443 1.334 . S
N444 C445 1.334 . S
C445 N444 1.334 . S
C445 N446 1.336 . S
N446 Zn442 2.020 . S
N446 C445 1.336 . S
N446 N447 1.354 . S
N447 C443 1.336 . S
N447 N446 1.354 . S
N447 Zn451 2.020 . S
C448 O449 1.244 1_455 S
C448 O472 1.257 1_455 S
O449 C448 1.244 1_655 S
O450 Zn442 2.019 . S
O450 C470 1.257 . S
Zn451 N447 2.020 . S
Zn451 O458 1.975 . S
Zn451 N467 2.119 . S
Zn451 O472 2.019 . S
N452 Zn442 2.119 . S
N452 C454 1.334 . S
N452 C455 1.328 . S
C453 C454 1.391 . S
C453 N456 1.329 . S
C453 H474 0.930 . S
C454 N452 1.334 . S
C454 C453 1.391 . S
C454 H461 0.930 . S
C455 N452 1.328 . S
C455 C457 1.392 . S
C455 H462 0.930 . S
N456 C453 1.329 . S
N456 C457 1.331 . S
C457 C455 1.392 . S
C457 N456 1.331 . S
O458 Zn451 1.975 . S
O458 C459 1.252 . S
C459 O458 1.252 . S
C459 O460 1.252 . S
O460 Zn442 1.975 . S
O460 C459 1.252 . S
H461 C454 0.930 . S
H462 C455 0.930 . S
C463 C464 1.392 . S
C463 N467 1.328 . S
C463 H469 0.930 . S
C464 C463 1.392 . S
C464 N468 1.331 . S
C465 C466 1.391 . S
C465 N468 1.329 . S
C465 H475 0.930 . S
C466 C465 1.391 . S
C466 N467 1.334 . S
C466 H473 0.930 . S
N467 Zn451 2.119 . S
N467 C463 1.328 . S
N467 C466 1.334 . S
N468 C464 1.331 . S
N468 C465 1.329 . S
H469 C463 0.930 . S
C470 O450 1.257 . S
C470 O471 1.244 . S
O471 C470 1.244 . S
O472 C448 1.257 1_655 S
O472 Zn451 2.019 . S
H473 C466 0.930 . S
H474 C453 0.930 . S
H475 C465 0.930 . S
Zn476 N480 2.020 . S
Zn476 O484 2.019 . S
Zn476 N486 2.119 . S
Zn476 O494 1.975 . S
C477 N478 1.334 . S
C477 N481 1.336 . S
N478 C477 1.334 . S
N478 C479 1.334 . S
C479 N478 1.334 . S
C479 N480 1.336 . S
N480 Zn476 2.020 . S
N480 C479 1.336 . S
N480 N481 1.354 . S
N481 C477 1.336 . S
N481 N480 1.354 . S
N481 Zn485 2.020 . S
C482 O483 1.244 1_655 S
C482 O506 1.257 1_655 S
O483 C482 1.244 1_455 S
O484 Zn476 2.019 . S
O484 C504 1.257 . S
Zn485 N481 2.020 . S
Zn485 O492 1.975 . S
Zn485 N501 2.119 . S
Zn485 O506 2.019 . S
N486 Zn476 2.119 . S
N486 C488 1.334 . S
N486 C489 1.328 . S
C487 C488 1.391 . S
C487 N490 1.329 . S
C487 H508 0.930 . S
C488 N486 1.334 . S
C488 C487 1.391 . S
C488 H495 0.930 . S
C489 N486 1.328 . S
C489 C491 1.392 . S
C489 H496 0.930 . S
N490 C487 1.329 . S
N490 C491 1.331 . S
C491 C489 1.392 . S
C491 N490 1.331 . S
O492 Zn485 1.975 . S
O492 C493 1.252 . S
C493 O492 1.252 . S
C493 O494 1.252 . S
O494 Zn476 1.975 . S
O494 C493 1.252 . S
H495 C488 0.930 . S
H496 C489 0.930 . S
C497 C498 1.392 . S
C497 N501 1.328 . S
C497 H503 0.930 . S
C498 C497 1.392 . S
C498 N502 1.331 . S
C499 C500 1.391 . S
C499 N502 1.329 . S
C499 H509 0.930 . S
C500 C499 1.391 . S
C500 N501 1.334 . S
C500 H507 0.930 . S
N501 Zn485 2.119 . S
N501 C497 1.328 . S
N501 C500 1.334 . S
N502 C498 1.331 . S
N502 C499 1.329 . S
H503 C497 0.930 . S
C504 O484 1.257 . S
C504 O505 1.244 . S
O505 C504 1.244 . S
O506 C482 1.257 1_455 S
O506 Zn485 2.019 . S
H507 C500 0.930 . S
H508 C487 0.930 . S
H509 C499 0.930 . S
Zn510 N514 2.020 . S
Zn510 O518 2.019 . S
Zn510 N520 2.119 . S
Zn510 O528 1.975 . S
C511 N512 1.334 . S
C511 N515 1.336 . S
N512 C511 1.334 . S
N512 C513 1.334 . S
C513 N512 1.334 . S
C513 N514 1.336 . S
N514 Zn510 2.020 . S
N514 C513 1.336 . S
N514 N515 1.354 . S
N515 C511 1.336 . S
N515 N514 1.354 . S
N515 Zn519 2.020 . S
C516 O517 1.244 . S
C516 O540 1.257 . S
O517 C516 1.244 . S
O518 Zn510 2.019 . S
O518 C538 1.257 1_455 S
Zn519 N515 2.020 . S
Zn519 O526 1.975 . S
Zn519 N535 2.119 . S
Zn519 O540 2.019 . S
N520 Zn510 2.119 . S
N520 C522 1.334 . S
N520 C523 1.328 . S
C521 C522 1.391 . S
C521 N524 1.329 . S
C521 H542 0.930 . S
C522 N520 1.334 . S
C522 C521 1.391 . S
C522 H529 0.930 . S
C523 N520 1.328 . S
C523 C525 1.392 . S
C523 H530 0.930 . S
N524 C521 1.329 . S
N524 C525 1.331 . S
C525 C523 1.392 . S
C525 N524 1.331 . S
O526 Zn519 1.975 . S
O526 C527 1.252 . S
C527 O526 1.252 . S
C527 O528 1.252 . S
O528 Zn510 1.975 . S
O528 C527 1.252 . S
H529 C522 0.930 . S
H530 C523 0.930 . S
C531 C532 1.392 . S
C531 N535 1.328 . S
C531 H537 0.930 . S
C532 C531 1.392 . S
C532 N536 1.331 . S
C533 C534 1.391 . S
C533 N536 1.329 . S
C533 H543 0.930 . S
C534 C533 1.391 . S
C534 N535 1.334 . S
C534 H541 0.930 . S
N535 Zn519 2.119 . S
N535 C531 1.328 . S
N535 C534 1.334 . S
N536 C532 1.331 . S
N536 C533 1.329 . S
H537 C531 0.930 . S
C538 O518 1.257 1_655 S
C538 O539 1.244 1_655 S
O539 C538 1.244 1_455 S
O540 C516 1.257 . S
O540 Zn519 2.019 . S
H541 C534 0.930 . S
H542 C521 0.930 . S
H543 C533 0.930 . S
C498 C22 2.160 . S
C83 C15 2.160 1_465 S
C56 C389 2.160 1_545 S
C49 C260 2.160 1_655 S
C90 C430 2.160 . S
C117 C321 2.160 1_565 S
C124 C185 2.160 1_455 S
C151 C362 2.160 1_554 S
C158 C226 2.160 1_654 S
C192 C525 2.160 . S
C219 C287 2.160 1_556 S
C464 C253 2.160 . S
C294 C355 2.160 1_544 S
C328 C532 2.160 . S
C396 C457 2.160 . S
C423 C491 2.160 . S
C17 C51 1.996 . S
C119 C85 1.996 . S
C153 C187 1.996 . S
C221 C255 1.996 . S
C289 C323 1.996 . S
C357 C391 1.996 . S
C425 C459 1.996 . S
C527 C493 1.996 . S
C307 C1 3.061 . S
C3 C309 3.061 1_455 S
C35 C273 3.061 . S
C37 C275 3.061 1_455 S
C375 C69 3.061 . S
C377 C71 3.061 1_455 S
C343 C105 3.061 . S
C341 C103 3.061 1_455 S
C139 C445 3.061 . S
C137 C443 3.061 1_455 S
C411 C171 3.061 . S
C409 C173 3.061 1_655 S
C511 C207 3.061 . S
C205 C513 3.061 1_655 S
C241 C479 3.061 . S
C239 C477 3.061 1_655 S
C6 C28 1.479 . S
C40 C62 1.479 . S
C74 C96 1.479 . S
C130 C108 1.479 . S
C142 C164 1.479 . S
C176 C198 1.479 . S
C210 C232 1.479 . S
C266 C244 1.479 . S
C300 C278 1.479 . S
C334 C312 1.479 . S
C368 C346 1.479 . S
C402 C380 1.479 . S
C414 C436 1.479 . S
C448 C470 1.479 . S
C482 C504 1.479 . S
C538 C516 1.479 . S
