# Generated by pormake.
# Topology umb, (4)-cn, num edge types: 1
# Building blocks:
#     Node 0, Type 0, BuildingBlock: NAWXER_clean_sbu_0, # of connection points: 4
#     Node 1, Type 0, BuildingBlock: NAWXER_clean_sbu_0, # of connection points: 4
#     Node 2, Type 0, BuildingBlock: NAWXER_clean_sbu_0, # of connection points: 4
#     Node 3, Type 0, BuildingBlock: NAWXER_clean_sbu_0, # of connection points: 4
#     Node 4, Type 0, BuildingBlock: NAWXER_clean_sbu_0, # of connection points: 4
#     Node 5, Type 0, BuildingBlock: NAWXER_clean_sbu_0, # of connection points: 4
#     Node 6, Type 0, BuildingBlock: NAWXER_clean_sbu_0, # of connection points: 4
#     Node 7, Type 0, BuildingBlock: NAWXER_clean_sbu_0, # of connection points: 4
#     Node 8, Type 0, BuildingBlock: NAWXER_clean_sbu_0, # of connection points: 4
#     Node 9, Type 0, BuildingBlock: NAWXER_clean_sbu_0, # of connection points: 4
#     Node 10, Type 0, BuildingBlock: NAWXER_clean_sbu_0, # of connection points: 4
#     Node 11, Type 0, BuildingBlock: NAWXER_clean_sbu_0, # of connection points: 4
#     Edge 12, Type (0, 0), BuildingBlock: TEMPAE_clean_linker_10, # of connection points: 2
#     Edge 13, Type (0, 0), BuildingBlock: TEMPAE_clean_linker_10, # of connection points: 2
#     Edge 14, Type (0, 0), BuildingBlock: TEMPAE_clean_linker_10, # of connection points: 2
#     Edge 15, Type (0, 0), BuildingBlock: TEMPAE_clean_linker_10, # of connection points: 2
#     Edge 16, Type (0, 0), BuildingBlock: TEMPAE_clean_linker_10, # of connection points: 2
#     Edge 17, Type (0, 0), BuildingBlock: TEMPAE_clean_linker_10, # of connection points: 2
#     Edge 18, Type (0, 0), BuildingBlock: TEMPAE_clean_linker_10, # of connection points: 2
#     Edge 19, Type (0, 0), BuildingBlock: TEMPAE_clean_linker_10, # of connection points: 2
#     Edge 20, Type (0, 0), BuildingBlock: TEMPAE_clean_linker_10, # of connection points: 2
#     Edge 21, Type (0, 0), BuildingBlock: TEMPAE_clean_linker_10, # of connection points: 2
#     Edge 22, Type (0, 0), BuildingBlock: TEMPAE_clean_linker_10, # of connection points: 2
#     Edge 23, Type (0, 0), BuildingBlock: TEMPAE_clean_linker_10, # of connection points: 2
#     Edge 24, Type (0, 0), BuildingBlock: TEMPAE_clean_linker_10, # of connection points: 2
#     Edge 25, Type (0, 0), BuildingBlock: TEMPAE_clean_linker_10, # of connection points: 2
#     Edge 26, Type (0, 0), BuildingBlock: TEMPAE_clean_linker_10, # of connection points: 2
#     Edge 27, Type (0, 0), BuildingBlock: TEMPAE_clean_linker_10, # of connection points: 2
#     Edge 28, Type (0, 0), BuildingBlock: TEMPAE_clean_linker_10, # of connection points: 2
#     Edge 29, Type (0, 0), BuildingBlock: TEMPAE_clean_linker_10, # of connection points: 2
#     Edge 30, Type (0, 0), BuildingBlock: TEMPAE_clean_linker_10, # of connection points: 2
#     Edge 31, Type (0, 0), BuildingBlock: TEMPAE_clean_linker_10, # of connection points: 2
#     Edge 32, Type (0, 0), BuildingBlock: TEMPAE_clean_linker_10, # of connection points: 2
#     Edge 33, Type (0, 0), BuildingBlock: TEMPAE_clean_linker_10, # of connection points: 2
#     Edge 34, Type (0, 0), BuildingBlock: TEMPAE_clean_linker_10, # of connection points: 2
#     Edge 35, Type (0, 0), BuildingBlock: TEMPAE_clean_linker_10, # of connection points: 2
# Relax obj value: 0.192
# Max RMSD: 0.212
# Mean RMSD: 0.211
data_MOF--net-umb--node1-NAWXER_clean_sbu_0--edge1-TEMPAE_clean_linker_10
_symmetry_space_group_name_H-M    P1
_symmetry_Int_Tables_number       1
_symmetry_cell_setting            triclinic
loop_
_symmetry_equiv_pos_as_xyz
'x, y, z'
_cell_length_a     47.39303
_cell_length_b     47.425595
_cell_length_c     37.645892
_cell_angle_alpha  89.972553
_cell_angle_beta   89.945066
_cell_angle_gamma 120.00318
loop_
_atom_site_label
_atom_site_type_symbol
_atom_site_fract_x
_atom_site_fract_y
_atom_site_fract_z
_atom_type_partial_charge
C0 C 0.56099 0.21868 0.34679 0.0
C1 C 0.51259 0.10273 0.33441 0.0
O2 O 0.57212 0.20259 0.33103 0.0
Zn3 Zn 0.53648 0.16095 0.34077 0.0
O4 O 0.53323 0.20369 0.36247 0.0
Zn5 Zn 0.49484 0.15375 0.36928 0.0
O6 O 0.49408 0.14896 0.42133 0.0
O7 O 0.54035 0.15792 0.39748 0.0
O8 O 0.49378 0.1099 0.35198 0.0
O9 O 0.53944 0.12531 0.32241 0.0
O10 O 0.50052 0.16296 0.30894 0.0
O11 O 0.45933 0.15492 0.34282 0.0
C12 C 0.52269 0.15326 0.42512 0.0
C13 C 0.47276 0.16105 0.3123 0.0
C14 C 0.32116 0.56355 0.68621 0.0
C15 C 0.39007 0.51695 0.67127 0.0
O16 O 0.34817 0.57492 0.66993 0.0
Zn17 Zn 0.3546 0.53948 0.67837 0.0
O18 O 0.30853 0.53551 0.70122 0.0
Zn19 Zn 0.32049 0.49713 0.70588 0.0
O20 O 0.32417 0.49495 0.75781 0.0
O21 O 0.36113 0.54203 0.73519 0.0
O22 O 0.36407 0.49737 0.68841 0.0
O23 O 0.39371 0.5437 0.65986 0.0
O24 O 0.3172 0.50419 0.64567 0.0
O25 O 0.28426 0.46202 0.67841 0.0
C26 C 0.34815 0.52362 0.76232 0.0
C27 C 0.29157 0.47618 0.64829 0.0
C28 C 0.8212 0.3594 0.09355 0.0
C29 C 0.81199 0.30114 0.98062 0.0
O30 O 0.82563 0.33518 0.08973 0.0
Zn31 Zn 0.82007 0.3308 1.03774 0.0
O32 O 0.81625 0.37221 0.06597 0.0
Zn33 Zn 0.81264 0.36503 1.00927 0.0
O34 O 0.77101 0.35915 1.00025 0.0
O35 O 0.77006 0.31972 1.03261 0.0
O36 O 0.81013 0.327 0.97745 0.0
O37 O 0.81829 0.29385 1.01103 0.0
O38 O 0.86388 0.37355 1.01973 0.0
O39 O 0.84803 0.40347 0.99034 0.0
C40 C 0.75504 0.33251 1.0171 0.0
C41 C 0.8708 0.39937 1.00198 0.0
C42 C 0.45313 0.82251 0.43154 0.0
C43 C 0.49996 0.80919 0.31887 0.0
O44 O 0.48121 0.8255 0.42766 0.0
Zn45 Zn 0.47965 0.81937 0.37572 0.0
O46 O 0.43546 0.8181 0.40404 0.0
Zn47 Zn 0.4386 0.81369 0.34742 0.0
O48 O 0.40156 0.77294 0.33879 0.0
O49 O 0.4392 0.77008 0.37076 0.0
O50 O 0.47289 0.80877 0.31568 0.0
O51 O 0.51369 0.81534 0.3492 0.0
O52 O 0.48313 0.86404 0.35688 0.0
O53 O 0.43754 0.84987 0.32785 0.0
C54 C 0.41129 0.75606 0.35541 0.0
C55 C 0.46504 0.87189 0.33892 0.0
C56 C 0.67137 0.50224 0.64757 0.0
C57 C 0.61166 0.45648 0.76056 0.0
O58 O 0.67951 0.5155 0.67808 0.0
Zn59 Zn 0.6414 0.48189 0.7046 0.0
O60 O 0.64413 0.47576 0.64425 0.0
Zn61 Zn 0.60436 0.44218 0.67636 0.0
O62 O 0.56823 0.44323 0.65711 0.0
O63 O 0.60058 0.48749 0.68781 0.0
O64 O 0.59644 0.44 0.73302 0.0
O65 O 0.63904 0.48243 0.7567 0.0
O66 O 0.64822 0.44067 0.69752 0.0
O67 O 0.60574 0.40358 0.66763 0.0
C68 C 0.57447 0.47056 0.66959 0.0
C69 C 0.63293 0.41265 0.68263 0.0
C70 C 0.14927 0.62394 0.09575 0.0
C71 C 0.16118 0.68393 0.98333 0.0
O72 O 0.14556 0.6486 0.09201 0.0
Zn73 Zn 0.15169 0.65343 1.04007 0.0
O74 O 0.15419 0.61113 0.06816 0.0
Zn75 Zn 0.15856 0.6189 1.01156 0.0
O76 O 0.19992 0.62392 1.00285 0.0
O77 O 0.20148 0.66375 1.03493 0.0
O78 O 0.16243 0.65775 0.97999 0.0
O79 O 0.1546 0.69105 1.01369 0.0
O80 O 0.1076 0.61148 1.02141 0.0
O81 O 0.1229 0.58113 0.992 0.0
C82 C 0.21621 0.6506 1.01949 0.0
C83 C 0.10037 0.58574 1.0034 0.0
C84 C 0.7495 0.41543 0.40985 0.0
C85 C 0.86512 0.46417 0.42612 0.0
O86 O 0.76532 0.40448 0.42647 0.0
Zn87 Zn 0.80709 0.44024 0.41799 0.0
O88 O 0.76471 0.44334 0.39455 0.0
Zn89 Zn 0.81475 0.48214 0.38976 0.0
O90 O 0.82106 0.4837 0.33785 0.0
O91 O 0.81166 0.43722 0.36141 0.0
O92 O 0.85832 0.48315 0.40838 0.0
O93 O 0.84229 0.43713 0.43737 0.0
O94 O 0.8042 0.47554 0.44987 0.0
O95 O 0.81261 0.51708 0.41649 0.0
C96 C 0.81697 0.4552 0.33393 0.0
C97 C 0.80601 0.50325 0.44679 0.0
C98 C 0.32971 0.7604 0.75035 0.0
C99 C 0.39694 0.8764 0.763 0.0
O100 O 0.35682 0.77655 0.76627 0.0
Zn101 Zn 0.36264 0.81813 0.75659 0.0
O102 O 0.3169 0.77532 0.73467 0.0
Zn103 Zn 0.32831 0.82527 0.72795 0.0
O104 O 0.33253 0.83009 0.67589 0.0
O105 O 0.36975 0.82114 0.69986 0.0
O106 O 0.37105 0.86922 0.74529 0.0
O107 O 0.40112 0.85384 0.7751 0.0
O108 O 0.32437 0.81576 0.78827 0.0
O109 O 0.29145 0.82397 0.7543 0.0
C110 C 0.35684 0.82578 0.67218 0.0
C111 C 0.2985 0.81764 0.78482 0.0
C112 C 0.51391 0.35574 0.9998 0.0
C113 C 0.47015 0.2948 0.11254 0.0
O114 O 0.48829 0.32808 1.00365 0.0
Zn115 Zn 0.48945 0.3253 0.05567 0.0
O116 O 0.53053 0.3709 1.02729 0.0
Zn117 Zn 0.52906 0.36254 0.08381 0.0
O118 O 0.56818 0.36201 0.09164 0.0
O119 O 0.53144 0.31949 0.06153 0.0
O120 O 0.49635 0.32228 0.11581 0.0
O121 O 0.4566 0.28667 0.08218 0.0
O122 O 0.48305 0.36537 0.07354 0.0
O123 O 0.52744 0.39802 0.10391 0.0
C124 C 0.55957 0.33514 0.07616 0.0
C125 C 0.49981 0.39137 0.09197 0.0
C126 C 0.1469 0.52376 0.33565 0.0
C127 C 0.15718 0.47427 0.44777 0.0
O128 O 0.14351 0.4955 0.3391 0.0
Zn129 Zn 0.14848 0.49594 0.39115 0.0
O130 O 0.15095 0.54095 0.36348 0.0
Zn131 Zn 0.15417 0.5367 0.4201 0.0
O132 O 0.1951 0.57326 0.42988 0.0
O133 O 0.19789 0.53565 0.39782 0.0
O134 O 0.15795 0.50146 0.45142 0.0
O135 O 0.15139 0.4611 0.41716 0.0
O136 O 0.10373 0.49275 0.4092 0.0
O137 O 0.11779 0.53788 0.43908 0.0
C138 C 0.212 0.5633 0.41369 0.0
C139 C 0.09578 0.51071 0.42726 0.0
C140 C 0.6803 0.1682 0.77891 0.0
C141 C 0.6207 0.15506 0.66599 0.0
O142 O 0.68777 0.16176 0.74867 0.0
Zn143 Zn 0.65001 0.15816 0.72186 0.0
O144 O 0.65391 0.16914 0.78194 0.0
Zn145 Zn 0.61507 0.16462 0.75006 0.0
O146 O 0.57741 0.12888 0.76971 0.0
O147 O 0.6082 0.11387 0.7407 0.0
O148 O 0.60758 0.15988 0.69339 0.0
O149 O 0.64552 0.15161 0.67002 0.0
O150 O 0.65929 0.20771 0.72572 0.0
O151 O 0.61936 0.20566 0.75821 0.0
C152 C 0.58232 0.10649 0.75862 0.0
C153 C 0.64567 0.22209 0.7409 0.0
C154 C 0.44435 0.61722 1.0045 0.0
C155 C 0.49408 0.67306 0.11816 0.0
O156 O 0.47316 0.64105 1.00869 0.0
Zn157 Zn 0.47194 0.64445 0.06075 0.0
O158 O 0.42633 0.60421 1.0319 0.0
Zn159 Zn 0.42983 0.61046 0.08875 0.0
O160 O 0.39471 0.61725 0.09837 0.0
O161 O 0.43414 0.657 0.06722 0.0
O162 O 0.46597 0.64761 0.12116 0.0
O163 O 0.50776 0.68032 0.08777 0.0
O164 O 0.47156 0.60068 0.07734 0.0
O165 O 0.42557 0.57114 0.10658 0.0
C166 C 0.4063 0.64455 0.0827 0.0
C167 C 0.45209 0.57466 0.09449 0.0
C168 C 0.51658 0.13436 0.48884 0.0
C169 C 0.53642 0.15362 0.46084 0.0
C170 C 0.53009 0.13355 0.522 0.0
C171 C 0.56414 0.15326 0.52775 0.0
C172 C 0.5841 0.1733 0.49973 0.0
C173 C 0.57012 0.17282 0.4666 0.0
C174 C 0.50796 0.11127 0.55076 0.0
C175 C 0.62027 0.19556 0.50483 0.0
C176 C 0.59366 0.17473 0.62361 0.0
C177 C 0.6072 0.15481 0.6302 0.0
C178 C 0.58007 0.17478 0.5904 0.0
C179 C 0.57886 0.15356 0.56321 0.0
C180 C 0.59226 0.13313 0.56981 0.0
C181 C 0.60676 0.13441 0.60299 0.0
C182 C 0.56726 0.19785 0.58435 0.0
C183 C 0.59086 0.10959 0.54197 0.0
H184 H 0.49059 0.11926 0.48451 0.0
H185 H 0.58562 0.18798 0.44519 0.0
H186 H 0.51662 0.09457 0.55961 0.0
H187 H 0.50865 0.12576 0.57419 0.0
H188 H 0.4823 0.09651 0.54172 0.0
H189 H 0.63223 0.21047 0.48084 0.0
H190 H 0.62468 0.21218 0.52754 0.0
H191 H 0.63205 0.18105 0.51129 0.0
H192 H 0.59417 0.19079 0.64441 0.0
H193 H 0.61693 0.11878 0.608 0.0
H194 H 0.54078 0.18387 0.5786 0.0
H195 H 0.5794 0.21346 0.56089 0.0
H196 H 0.57124 0.21378 0.60765 0.0
H197 H 0.56522 0.09321 0.53379 0.0
H198 H 0.60119 0.09449 0.55161 0.0
H199 H 0.60454 0.12308 0.51797 0.0
C200 C 0.37466 0.56999 0.80522 0.0
C201 C 0.36117 0.53659 0.79835 0.0
C202 C 0.38801 0.58334 0.8386 0.0
C203 C 0.38896 0.56307 0.86569 0.0
C204 C 0.37555 0.52931 0.85882 0.0
C205 C 0.36135 0.51639 0.82546 0.0
C206 C 0.4009 0.61918 0.84491 0.0
C207 C 0.37664 0.5069 0.88656 0.0
C208 C 0.45081 0.60509 0.94066 0.0
C209 C 0.43083 0.60437 0.96857 0.0
C210 C 0.43749 0.59122 0.9073 0.0
C211 C 0.4035 0.57718 0.90129 0.0
C212 C 0.38342 0.57715 0.92922 0.0
C213 C 0.39721 0.59023 0.96254 0.0
C214 C 0.45973 0.59119 0.87861 0.0
C215 C 0.34732 0.56354 0.92386 0.0
H216 H 0.37438 0.58573 0.7845 0.0
H217 H 0.35123 0.49064 0.82024 0.0
H218 H 0.38868 0.62255 0.86836 0.0
H219 H 0.42734 0.63154 0.8508 0.0
H220 H 0.39708 0.63133 0.82167 0.0
H221 H 0.36621 0.48153 0.87678 0.0
H222 H 0.40222 0.51594 0.89487 0.0
H223 H 0.36291 0.50669 0.91052 0.0
H224 H 0.47674 0.61571 0.94519 0.0
H225 H 0.38161 0.5898 0.98387 0.0
H226 H 0.4592 0.60518 0.85525 0.0
H227 H 0.45105 0.56589 0.86958 0.0
H228 H 0.48533 0.60194 0.88779 0.0
H229 H 0.34316 0.57596 0.90117 0.0
H230 H 0.33527 0.56644 0.9478 0.0
H231 H 0.33543 0.53728 0.91723 0.0
C232 C 0.79853 0.40826 0.29201 0.0
C233 C 0.81752 0.44188 0.29822 0.0
C234 C 0.79891 0.39461 0.25894 0.0
C235 C 0.8196 0.41485 0.23146 0.0
C236 C 0.83907 0.44884 0.23767 0.0
C237 C 0.83742 0.46201 0.27075 0.0
C238 C 0.77687 0.3585 0.25333 0.0
C239 C 0.862 0.47126 0.2095 0.0
C240 C 0.84046 0.37304 0.15705 0.0
C241 C 0.82058 0.37264 0.12926 0.0
C242 C 0.84092 0.38727 0.19017 0.0
C243 C 0.82022 0.40047 0.19608 0.0
C244 C 0.79954 0.39934 0.16828 0.0
C245 C 0.80038 0.38598 0.13518 0.0
C246 C 0.86388 0.38857 0.2187 0.0
C247 C 0.77623 0.41197 0.17355 0.0
H248 H 0.78287 0.39254 0.313 0.0
H249 H 0.85236 0.48795 0.27544 0.0
H250 H 0.76084 0.35422 0.23008 0.0
H251 H 0.79165 0.34687 0.24747 0.0
H252 H 0.76134 0.34631 0.27688 0.0
H253 H 0.87643 0.49683 0.21885 0.0
H254 H 0.87903 0.46281 0.20124 0.0
H255 H 0.84804 0.47067 0.18561 0.0
H256 H 0.85631 0.36302 0.15258 0.0
H257 H 0.78472 0.38552 0.11393 0.0
H258 H 0.84986 0.37468 0.24236 0.0
H259 H 0.87998 0.41415 0.22723 0.0
H260 H 0.87931 0.37844 0.20957 0.0
H261 H 0.76004 0.39958 0.19657 0.0
H262 H 0.76085 0.40816 0.14978 0.0
H263 H 0.78999 0.43838 0.17963 0.0
C264 C 0.4599 0.84296 0.49466 0.0
C265 C 0.4398 0.82297 0.46729 0.0
C266 C 0.44669 0.84448 0.52779 0.0
C267 C 0.41272 0.82472 0.53419 0.0
C268 C 0.39254 0.80392 0.50682 0.0
C269 C 0.4062 0.80373 0.47366 0.0
C270 C 0.46903 0.86759 0.5558 0.0
C271 C 0.35647 0.78156 0.51265 0.0
C272 C 0.38403 0.80547 0.63066 0.0
C273 C 0.37023 0.82527 0.63648 0.0
C274 C 0.3975 0.80478 0.59755 0.0
C275 C 0.3983 0.82523 0.56963 0.0
C276 C 0.38467 0.84556 0.57547 0.0
C277 C 0.37032 0.84493 0.60859 0.0
C278 C 0.41059 0.78184 0.59235 0.0
C279 C 0.38564 0.86831 0.54685 0.0
H280 H 0.48582 0.85808 0.48982 0.0
H281 H 0.39053 0.78801 0.45274 0.0
H282 H 0.4603 0.88438 0.56407 0.0
H283 H 0.46871 0.85378 0.57972 0.0
H284 H 0.49457 0.88225 0.54629 0.0
H285 H 0.34436 0.76591 0.48921 0.0
H286 H 0.35244 0.76566 0.53598 0.0
H287 H 0.34455 0.79606 0.51848 0.0
H288 H 0.38383 0.78999 0.652 0.0
H289 H 0.35997 0.8605 0.61298 0.0
H290 H 0.43697 0.79586 0.58607 0.0
H291 H 0.39824 0.7655 0.56949 0.0
H292 H 0.40708 0.76665 0.61624 0.0
H293 H 0.41116 0.88457 0.53813 0.0
H294 H 0.37529 0.88355 0.55596 0.0
H295 H 0.37173 0.85415 0.5233 0.0
C296 C 0.53927 0.40407 0.95917 0.0
C297 C 0.52565 0.3704 0.96405 0.0
C298 C 0.55247 0.41891 0.92619 0.0
C299 C 0.55339 0.3999 0.89763 0.0
C300 C 0.53978 0.36584 0.90254 0.0
C301 C 0.52554 0.35143 0.93544 0.0
C302 C 0.56548 0.455 0.92195 0.0
C303 C 0.54113 0.34473 0.87335 0.0
C304 C 0.56371 0.4302 0.8017 0.0
C305 C 0.59739 0.44424 0.79635 0.0
C306 C 0.54926 0.41658 0.83471 0.0
C307 C 0.56871 0.41566 0.86278 0.0
C308 C 0.60279 0.42968 0.8574 0.0
C309 C 0.61679 0.44434 0.82451 0.0
C310 C 0.51313 0.40313 0.83949 0.0
C311 C 0.62436 0.42836 0.88604 0.0
H312 H 0.53938 0.41883 0.98121 0.0
H313 H 0.51549 0.32548 0.93924 0.0
H314 H 0.59208 0.46765 0.91686 0.0
H315 H 0.55393 0.45956 0.89869 0.0
H316 H 0.56099 0.46592 0.94587 0.0
H317 H 0.53024 0.31886 0.88159 0.0
H318 H 0.52801 0.34594 0.84955 0.0
H319 H 0.56683 0.35391 0.86539 0.0
H320 H 0.54862 0.4301 0.78001 0.0
H321 H 0.64275 0.45472 0.82033 0.0
H322 H 0.50861 0.41431 0.86312 0.0
H323 H 0.5008 0.37651 0.84427 0.0
H324 H 0.50182 0.40764 0.81595 0.0
H325 H 0.62321 0.44114 0.91017 0.0
H326 H 0.6502 0.4396 0.87745 0.0
H327 H 0.61555 0.40266 0.89362 0.0
C328 C 0.12805 0.51814 0.27196 0.0
C329 C 0.14719 0.53775 0.30007 0.0
C330 C 0.12729 0.53191 0.23893 0.0
C331 C 0.14697 0.566 0.23342 0.0
C332 C 0.16689 0.58573 0.26156 0.0
C333 C 0.16633 0.57148 0.29457 0.0
C334 C 0.10508 0.51003 0.21006 0.0
C335 C 0.18915 0.62192 0.25672 0.0
C336 C 0.16882 0.59646 0.13777 0.0
C337 C 0.14895 0.6101 0.13141 0.0
C338 C 0.16872 0.58251 0.17082 0.0
C339 C 0.14737 0.58102 0.19809 0.0
C340 C 0.12697 0.59449 0.1917 0.0
C341 C 0.1284 0.60936 0.15869 0.0
C342 C 0.19176 0.56964 0.17664 0.0
C343 C 0.10327 0.59279 0.21959 0.0
H344 H 0.113 0.49212 0.2761 0.0
H345 H 0.18141 0.5868 0.31607 0.0
H346 H 0.0884 0.51875 0.20132 0.0
H347 H 0.11966 0.51089 0.1866 0.0
H348 H 0.09028 0.48432 0.21894 0.0
H349 H 0.204 0.63367 0.28076 0.0
H350 H 0.20585 0.62654 0.23398 0.0
H351 H 0.17462 0.63372 0.25043 0.0
H352 H 0.18496 0.59717 0.11691 0.0
H353 H 0.11278 0.61957 0.15386 0.0
H354 H 0.17775 0.54312 0.18215 0.0
H355 H 0.2073 0.58154 0.20017 0.0
H356 H 0.20778 0.57384 0.15332 0.0
H357 H 0.0869 0.56708 0.22758 0.0
H358 H 0.08816 0.60314 0.21009 0.0
H359 H 0.11667 0.60625 0.24368 0.0
C360 C 0.6976 0.36555 0.42448 0.0
C361 C 0.71413 0.39473 0.40544 0.0
C362 C 0.66621 0.34176 0.41474 0.0
C363 C 0.65117 0.34758 0.38536 0.0
C364 C 0.66585 0.37871 0.36941 0.0
C365 C 0.6975 0.40207 0.37953 0.0
C366 C 0.65093 0.30906 0.43317 0.0
C367 C 0.64973 0.38631 0.33931 0.0
C368 C 0.612 0.27021 0.33382 0.0
C369 C 0.58107 0.25428 0.34948 0.0
C370 C 0.63425 0.3025 0.34229 0.0
C371 C 0.62506 0.31913 0.36679 0.0
C372 C 0.59253 0.30462 0.37889 0.0
C373 C 0.57082 0.27205 0.37029 0.0
C374 C 0.66864 0.31742 0.3281 0.0
C375 C 0.58141 0.32223 0.40351 0.0
H376 H 0.71004 0.36029 0.44537 0.0
H377 H 0.70991 0.42504 0.36537 0.0
H378 H 0.62522 0.30073 0.44018 0.0
H379 H 0.65107 0.29071 0.41497 0.0
H380 H 0.66418 0.30976 0.45778 0.0
H381 H 0.65814 0.41277 0.33821 0.0
H382 H 0.65631 0.37943 0.31375 0.0
H383 H 0.62279 0.37252 0.34186 0.0
H384 H 0.61969 0.25684 0.31682 0.0
H385 H 0.54653 0.2601 0.38163 0.0
H386 H 0.68538 0.31979 0.34998 0.0
H387 H 0.67694 0.34214 0.31745 0.0
H388 H 0.67081 0.30248 0.30671 0.0
H389 H 0.58542 0.31761 0.43143 0.0
H390 H 0.55496 0.31326 0.40018 0.0
H391 H 0.59514 0.34892 0.39892 0.0
C392 C 0.28612 0.70691 0.72709 0.0
C393 C 0.31441 0.72482 0.74744 0.0
C394 C 0.27529 0.67437 0.71836 0.0
C395 C 0.29362 0.66002 0.72982 0.0
C396 C 0.31987 0.67683 0.75376 0.0
C397 C 0.32985 0.70908 0.76241 0.0
C398 C 0.24615 0.6566 0.69433 0.0
C399 C 0.33975 0.66213 0.76719 0.0
C400 C 0.28282 0.57695 0.71724 0.0
C401 C 0.30629 0.58405 0.69076 0.0
C402 C 0.27473 0.60041 0.72759 0.0
C403 C 0.29087 0.63138 0.71125 0.0
C404 C 0.31112 0.6369 0.68133 0.0
C405 C 0.31853 0.61301 0.67138 0.0
C406 C 0.25164 0.59313 0.75832 0.0
C407 C 0.32821 0.66943 0.66251 0.0
H408 H 0.27347 0.71872 0.71627 0.0
H409 H 0.35118 0.72256 0.779 0.0
H410 H 0.25433 0.6612 0.66623 0.0
H411 H 0.23336 0.62992 0.69897 0.0
H412 H 0.22866 0.66547 0.69823 0.0
H413 H 0.3573 0.67724 0.78815 0.0
H414 H 0.32362 0.63745 0.77814 0.0
H415 H 0.35368 0.65969 0.74483 0.0
H416 H 0.2726 0.55415 0.73171 0.0
H417 H 0.33583 0.61807 0.65007 0.0
H418 H 0.2382 0.60663 0.75589 0.0
H419 H 0.26567 0.60066 0.78347 0.0
H420 H 0.23381 0.56665 0.76015 0.0
H421 H 0.31074 0.67775 0.65606 0.0
H422 H 0.34018 0.66845 0.63752 0.0
H423 H 0.34715 0.68791 0.68021 0.0
C424 C 0.61395 0.34121 0.08713 0.0
C425 C 0.58255 0.32297 0.07308 0.0
C426 C 0.63785 0.33316 0.07936 0.0
C427 C 0.62994 0.3061 0.05717 0.0
C428 C 0.59747 0.28558 1.04606 0.0
C429 C 0.57405 0.29441 0.05399 0.0
C430 C 0.67224 0.35543 0.09223 0.0
C431 C 0.58793 0.25588 1.02348 0.0
C432 C 0.70306 0.3295 1.00071 0.0
C433 C 0.71974 0.31822 1.02165 0.0
C434 C 0.67165 0.32242 1.00984 0.0
C435 C 0.65684 0.30364 1.04065 0.0
C436 C 0.67187 0.28875 0.05917 0.0
C437 C 0.70343 0.29633 0.04946 0.0
C438 C 0.656 0.33815 0.98886 0.0
C439 C 0.65618 0.26758 0.09132 0.0
H440 H 0.62044 0.36289 0.1026 0.0
H441 H 0.54953 0.27974 1.04374 0.0
H442 H 0.68233 0.34111 0.10453 0.0
H443 H 0.68806 0.36888 0.06932 0.0
H444 H 0.67356 0.37347 0.11195 0.0
H445 H 0.56158 0.23782 1.02632 0.0
H446 H 0.59272 0.26323 0.99515 0.0
H447 H 0.60228 0.24402 1.03049 0.0
H448 H 0.71533 0.34567 0.97853 0.0
H449 H 0.71608 0.28701 0.0653 0.0
H450 H 0.65647 0.35808 1.00476 0.0
H451 H 0.63017 0.32025 0.98306 0.0
H452 H 0.66883 0.34856 0.96334 0.0
H453 H 0.66135 0.28326 0.11507 0.0
H454 H 0.66597 0.25099 0.09625 0.0
H455 H 0.62934 0.25286 0.08825 0.0
C456 C 0.39579 0.70308 0.38475 0.0
C457 C 0.38933 0.72085 0.35946 0.0
C458 C 0.37177 0.67141 0.39396 0.0
C459 C 0.34085 0.65778 0.37767 0.0
C460 C 0.33567 0.67418 0.34922 0.0
C461 C 0.3601 0.7056 0.34041 0.0
C462 C 0.37856 0.65398 0.42335 0.0
C463 C 0.30312 0.66014 0.33065 0.0
C464 C 0.26598 0.57597 0.38901 0.0
C465 C 0.24748 0.58454 0.41092 0.0
C466 C 0.29841 0.59873 0.38089 0.0
C467 C 0.31209 0.63058 0.3947 0.0
C468 C 0.29468 0.6381 0.41994 0.0
C469 C 0.26252 0.61486 0.42784 0.0
C470 C 0.3168 0.58948 0.35509 0.0
C471 C 0.3087 0.67176 0.43579 0.0
H472 H 0.41872 0.71455 0.399 0.0
H473 H 0.35542 0.71895 0.32008 0.0
H474 H 0.37056 0.65909 0.44906 0.0
H475 H 0.36507 0.62723 0.41924 0.0
H476 H 0.40501 0.6625 0.42532 0.0
H477 H 0.3043 0.67441 0.30671 0.0
H478 H 0.29437 0.63463 0.32252 0.0
H479 H 0.28482 0.66001 0.34919 0.0
H480 H 0.25468 0.55219 0.37655 0.0
H481 H 0.24858 0.62126 0.44558 0.0
H482 H 0.34329 0.60258 0.36095 0.0
H483 H 0.31349 0.59609 0.32776 0.0
H484 H 0.30756 0.56285 0.35566 0.0
H485 H 0.33354 0.68029 0.44623 0.0
H486 H 0.29336 0.67251 0.45769 0.0
H487 H 0.31064 0.68915 0.41487 0.0
C488 C 0.62771 0.35862 0.6717 0.0
C489 C 0.64599 0.39036 0.68483 0.0
C490 C 0.63696 0.33548 0.67876 0.0
C491 C 0.66525 0.34451 0.69926 0.0
C492 C 0.68563 0.37729 0.70936 0.0
C493 C 0.67562 0.39993 0.7022 0.0
C494 C 0.61476 0.30071 0.66705 0.0
C495 C 0.71656 0.38799 0.73014 0.0
C496 C 0.64716 0.27338 0.7569 0.0
C497 C 0.65844 0.25704 0.73541 0.0
C498 C 0.65245 0.30406 0.74728 0.0
C499 C 0.66942 0.31849 0.71539 0.0
C500 C 0.6843 0.3039 0.69597 0.0
C501 C 0.67856 0.27308 0.70623 0.0
C502 C 0.63676 0.31923 0.76917 0.0
C503 C 0.70349 0.31919 0.66252 0.0
H504 H 0.60516 0.35129 0.65759 0.0
H505 H 0.69029 0.4247 0.71168 0.0
H506 H 0.62898 0.29089 0.65393 0.0
H507 H 0.60263 0.28528 0.69064 0.0
H508 H 0.59562 0.29849 0.64838 0.0
H509 H 0.73376 0.4145 0.72693 0.0
H510 H 0.71056 0.38305 0.75878 0.0
H511 H 0.72892 0.37443 0.7218 0.0
H512 H 0.63235 0.26131 0.78005 0.0
H513 H 0.68779 0.26066 0.68987 0.0
H514 H 0.61571 0.31759 0.75443 0.0
H515 H 0.65422 0.34536 0.77398 0.0
H516 H 0.62788 0.30688 0.79523 0.0
H517 H 0.68644 0.31283 0.63983 0.0
H518 H 0.72053 0.31014 0.6565 0.0
H519 H 0.71755 0.34613 0.66465 0.0
C520 C 0.26732 0.65052 1.00597 0.0
C521 C 0.25157 0.66475 1.02362 0.0
C522 C 0.29885 0.65833 1.01545 0.0
C523 C 0.31489 0.68109 1.04306 0.0
C524 C 0.30085 0.69872 0.05754 0.0
C525 C 0.26903 0.69014 1.04778 0.0
C526 C 0.31332 0.63941 0.99871 0.0
C527 C 0.31795 0.72434 0.0857 0.0
C528 C 0.3563 0.64657 0.09693 0.0
C529 C 0.38646 0.66032 0.07965 0.0
C530 C 0.33372 0.65613 0.08813 0.0
C531 C 0.34181 0.68015 0.06158 0.0
C532 C 0.37378 0.69724 1.04772 0.0
C533 C 0.39585 0.68692 0.05676 0.0
C534 C 0.29999 0.63776 0.10422 0.0
C535 C 0.38375 0.72416 1.02079 0.0
H536 H 0.25425 0.6316 0.98643 0.0
H537 H 0.25723 0.70189 0.06083 0.0
H538 H 0.33876 0.65608 0.99019 0.0
H539 H 0.31376 0.62229 1.01853 0.0
H540 H 0.29915 0.62511 0.97529 0.0
H541 H 0.30991 0.74268 0.08503 0.0
H542 H 0.31182 0.71264 0.11227 0.0
H543 H 0.34481 0.73695 0.08246 0.0
H544 H 0.34935 0.62671 0.11554 0.0
H545 H 0.41957 0.6983 1.04406 0.0
H546 H 0.28237 0.62176 0.08379 0.0
H547 H 0.29205 0.65488 0.11346 0.0
H548 H 0.29883 0.62234 0.12704 0.0
H549 H 0.37778 0.71352 0.99374 0.0
H550 H 0.41042 0.74144 1.02182 0.0
H551 H 0.37067 0.73782 1.02511 0.0
C552 C 0.47988 0.04418 0.35141 0.0
C553 C 0.50436 0.06852 0.33039 0.0
C554 C 0.47408 0.01218 0.35052 0.0
C555 C 0.49298 0.00438 0.32775 0.0
C556 C 0.51692 0.02857 0.30553 0.0
C557 C 0.52245 0.06045 0.30725 0.0
C558 C 0.44841 0.98696 0.37472 0.0
C559 C 0.53717 0.02093 0.28057 0.0
C560 C 0.4994 0.93074 0.35408 0.0
C561 C 0.47484 0.90636 0.33326 0.0
C562 C 0.50617 0.96303 0.35189 0.0
C563 C 0.48817 0.97104 0.32801 0.0
C564 C 0.46442 0.94683 0.30575 0.0
C565 C 0.45791 0.91469 0.30878 0.0
C566 C 0.53159 0.98829 0.37616 0.0
C567 C 0.44511 0.95463 0.27963 0.0
H568 H 0.46592 0.05031 0.36944 0.0
H569 H 0.5413 0.07916 0.29079 0.0
H570 H 0.43033 0.96589 0.35896 0.0
H571 H 0.4599 0.97771 0.39356 0.0
H572 H 0.43534 -0.00316 0.39023 0.0
H573 H 0.55351 0.04208 0.26363 0.0
H574 H 0.55231 0.01353 0.29606 0.0
H575 H 0.52111 0.00018 0.26315 0.0
H576 H 0.51248 0.92439 0.3731 0.0
H577 H 0.43907 0.89595 0.2924 0.0
H578 H 0.51985 -0.00255 0.39479 0.0
H579 H 0.54978 0.00942 0.36048 0.0
H580 H 0.54455 0.97844 0.39191 0.0
H581 H 0.42939 0.96188 0.29422 0.0
H582 H 0.4294 0.93358 0.26231 0.0
H583 H 0.46176 0.9755 0.2626 0.0
C584 C 0.41669 0.48454 0.68662 0.0
C585 C 0.41678 0.50973 0.66706 0.0
C586 C 0.44334 0.4794 0.68535 0.0
C587 C 0.47049 0.49976 0.66374 0.0
C588 C 0.47037 0.52466 0.64321 0.0
C589 C 0.44353 0.52943 0.64521 0.0
C590 C 0.44272 0.45262 0.70768 0.0
C591 C 0.49878 0.54655 0.61957 0.0
C592 C 0.55027 0.50445 0.68826 0.0
C593 C 0.55027 0.48119 0.66533 0.0
C594 C 0.52479 0.51141 0.68742 0.0
C595 C 0.49905 0.49495 0.66282 0.0
C596 C 0.49978 0.47264 0.63848 0.0
C597 C 0.52533 0.46591 0.64014 0.0
C598 C 0.52469 0.53531 0.71384 0.0
C599 C 0.47296 0.45496 0.61157 0.0
H600 H 0.39617 0.46935 0.70368 0.0
H601 H 0.44369 0.54889 0.62993 0.0
H602 H 0.44583 0.43536 0.69051 0.0
H603 H 0.46333 0.46315 0.72672 0.0
H604 H 0.41964 0.43881 0.72286 0.0
H605 H 0.49439 0.56412 0.60445 0.0
H606 H 0.52107 0.56042 0.63584 0.0
H607 H 0.50368 0.53172 0.60044 0.0
H608 H 0.56943 0.51621 0.70785 0.0
H609 H 0.52538 0.44809 0.62215 0.0
H610 H 0.5037 0.52244 0.7322 0.0
H611 H 0.52171 0.55427 0.69991 0.0
H612 H 0.54742 0.54742 0.7298 0.0
H613 H 0.44979 0.4385 0.62548 0.0
H614 H 0.47844 0.44025 0.59282 0.0
H615 H 0.46901 0.47259 0.59608 0.0
C616 C 0.92966 0.42567 1.01795 0.0
C617 C 0.90494 0.42542 0.99732 0.0
C618 C 0.96156 0.4521 1.01659 0.0
C619 C 0.96885 0.47864 0.99377 0.0
C620 C 0.94431 0.47794 0.97186 0.0
C621 C 0.91256 0.45137 0.97402 0.0
C622 C -0.01282 0.45213 1.04045 0.0
C623 C 0.95138 0.50564 0.94686 0.0
C624 C 0.04151 0.5597 1.01941 0.0
C625 C 0.0661 0.56027 0.99821 0.0
C626 C 0.00949 0.53352 1.01767 0.0
C627 C 0.00196 0.50761 0.99385 0.0
C628 C 0.02636 0.50875 0.97127 0.0
C629 C 0.05823 0.53502 0.97386 0.0
C630 C -0.01597 0.53299 1.04227 0.0
C631 C 0.01904 0.48176 0.94518 0.0
H632 H 0.92389 0.40574 1.03609 0.0
H633 H 0.89357 0.4512 0.95784 0.0
H634 H 0.00839 0.45569 1.02446 0.0
H635 H -0.00389 0.47273 0.05942 0.0
H636 H 0.97777 0.42915 0.0558 0.0
H637 H 0.93007 0.50036 0.92998 0.0
H638 H 0.95832 0.52808 0.96234 0.0
H639 H 0.97227 0.51079 0.92937 0.0
H640 H 0.04749 0.5791 1.03836 0.0
H641 H 0.07713 0.53547 0.95722 0.0
H642 H 0.9753 0.51204 0.06078 0.0
H643 H 0.96267 0.52968 1.02682 0.0
H644 H -0.00645 0.55568 0.05815 0.0
H645 H 0.01226 0.45892 0.9598 0.0
H646 H 0.04017 0.48752 0.92773 0.0
H647 H -0.00204 0.47707 0.92828 0.0
C648 C 0.0372 0.47709 0.41058 0.0
C649 C 0.06127 0.50117 0.43213 0.0
C650 C 0.00494 0.47058 0.41206 0.0
C651 C -0.00337 0.48832 0.43596 0.0
C652 C 0.02049 0.51157 0.45893 0.0
C653 C 0.05261 0.51786 0.4566 0.0
C654 C 0.98007 0.44568 0.38704 0.0
C655 C 0.01233 0.53057 0.48511 0.0
C656 C 0.92414 0.49726 0.41101 0.0
C657 C 0.89926 0.47243 0.43119 0.0
C658 C 0.95612 0.50303 0.41277 0.0
C659 C 0.96335 0.48372 0.43555 0.0
C660 C 0.93861 0.45946 0.45699 0.0
C661 C 0.90677 0.45398 0.45442 0.0
C662 C 0.98195 0.52906 0.3894 0.0
C663 C 0.9456 0.43875 0.48193 0.0
H664 H 0.0438 0.4642 0.39156 0.0
H665 H 0.0711 0.53632 0.47353 0.0
H666 H 0.95858 0.42731 0.40213 0.0
H667 H 0.97137 0.45783 0.36842 0.0
H668 H -0.00988 0.4329 0.37129 0.0
H669 H 0.03307 0.54588 0.50298 0.0
H670 H 0.00551 0.54663 0.47055 0.0
H671 H -0.00895 0.51375 0.50157 0.0
H672 H 0.91845 0.51151 0.39292 0.0
H673 H 0.88764 0.43486 0.47024 0.0
H674 H -0.00852 0.51783 0.37055 0.0
H675 H 0.00276 0.54673 0.40578 0.0
H676 H 0.97252 0.54254 0.37392 0.0
H677 H 0.95311 0.42368 0.46645 0.0
H678 H 0.92409 0.42231 0.49839 0.0
H679 H 0.9661 0.45444 0.49983 0.0
C680 C 0.55694 0.04752 0.74355 0.0
C681 C 0.55706 0.07218 0.76415 0.0
C682 C 0.53097 0.01541 0.74564 0.0
C683 C 0.50481 0.00787 0.76918 0.0
C684 C 0.5055 0.03236 0.79116 0.0
C685 C 0.53157 0.0643 0.78825 0.0
C686 C 0.53092 -0.01015 0.72168 0.0
C687 C 0.47821 0.02506 0.81691 0.0
C688 C 0.42318 0.93494 0.74568 0.0
C689 C 0.42296 0.91062 0.76703 0.0
C690 C 0.44953 0.96688 0.74652 0.0
C691 C 0.47602 0.97465 0.76957 0.0
C692 C 0.47538 0.95051 0.79215 0.0
C693 C 0.4489 0.91869 0.79047 0.0
C694 C 0.4495 -0.00795 0.72194 0.0
C695 C 0.50302 0.9581 0.81742 0.0
H696 H 0.57652 0.05351 0.7248 0.0
H697 H 0.53167 0.08325 0.80444 0.0
H698 H 0.5277 0.96876 0.73761 0.0
H699 H 0.51009 0.98073 0.70299 0.0
H700 H 0.55377 -0.0006 0.70601 0.0
H701 H 0.48362 0.04632 0.83391 0.0
H702 H 0.45541 0.01788 0.80204 0.0
H703 H 0.47362 0.00428 0.83428 0.0
H704 H 0.40327 0.92881 0.72741 0.0
H705 H 0.44876 0.9 0.80719 0.0
H706 H 0.4703 0.00093 0.70317 0.0
H707 H 0.45271 0.01336 0.73741 0.0
H708 H 0.42661 0.98226 0.70636 0.0
H709 H 0.52563 0.96515 0.80215 0.0
H710 H 0.49786 0.93704 0.83467 0.0
H711 H 0.50782 0.97907 0.83453 0.0
C712 C 0.4841 0.54793 0.0778 0.0
C713 C 0.45921 0.54784 0.09799 0.0
C714 C 0.48922 0.52129 0.07852 0.0
C715 C 0.46916 0.49413 0.10023 0.0
C716 C 0.44451 0.4942 0.12134 0.0
C717 C 0.43974 0.52105 0.11987 0.0
C718 C 0.51573 0.52197 0.05559 0.0
C719 C 0.42295 0.46578 0.14511 0.0
C720 C 0.46488 0.4148 0.07473 0.0
C721 C 0.48864 0.41506 0.09705 0.0
C722 C 0.45753 0.43998 0.07618 0.0
C723 C 0.47413 0.46569 0.10078 0.0
C724 C 0.4969 0.46516 0.12458 0.0
C725 C 0.50398 0.43989 0.12234 0.0
C726 C 0.43312 0.43987 0.05034 0.0
C727 C 0.51477 0.49196 0.15146 0.0
H728 H 0.4991 0.56848 0.0607 0.0
H729 H 0.42051 0.52087 0.13563 0.0
H730 H 0.53333 0.51902 0.07234 0.0
H731 H 0.50499 0.5013 1.03663 0.0
H732 H 0.52923 0.54499 1.04027 0.0
H733 H 0.40545 0.47005 0.16055 0.0
H734 H 0.40901 0.44347 0.12889 0.0
H735 H 0.43807 0.46101 0.16395 0.0
H736 H 0.45306 0.39571 0.05507 0.0
H737 H 0.52218 0.44004 0.13988 0.0
H738 H 0.44565 0.46077 1.03181 0.0
H739 H 0.41434 0.44285 0.06472 0.0
H740 H 0.4208 0.41707 1.03452 0.0
H741 H 0.53105 0.51514 0.13748 0.0
H742 H 0.52974 0.48655 0.1699 0.0
H743 H 0.49723 0.49582 0.16729 0.0
C744 C 0.43624 0.18018 0.28542 0.0
C745 C 0.4598 0.17071 0.28136 0.0
C746 C 0.42968 0.19609 0.25761 0.0
C747 C 0.44743 0.20311 0.2253 0.0
C748 C 0.46924 0.19123 0.22024 0.0
C749 C 0.47488 0.17501 0.24808 0.0
C750 C 0.4054 0.20732 0.26375 0.0
C751 C 0.4889 0.19812 0.18647 0.0
C752 C 0.43467 0.2391 0.14005 0.0
C753 C 0.45902 0.27191 0.14337 0.0
C754 C 0.42857 0.21661 0.16774 0.0
C755 C 0.44765 0.22706 0.19914 0.0
C756 C 0.4707 0.26052 0.20341 0.0
C757 C 0.47582 0.28243 0.17577 0.0
C758 C 0.40301 0.18139 0.16251 0.0
C759 C 0.49185 0.27296 0.23616 0.0
H760 H 0.42428 0.17685 0.31089 0.0
H761 H 0.49277 0.1674 0.24434 0.0
H762 H 0.41858 0.23365 0.2703 0.0
H763 H 0.39081 0.20402 0.23947 0.0
H764 H 0.38864 0.19397 0.28609 0.0
H765 H 0.50264 0.18482 0.18544 0.0
H766 H 0.47281 0.19127 0.16289 0.0
H767 H 0.50658 0.22461 0.18456 0.0
H768 H 0.42134 0.23067 0.11532 0.0
H769 H 0.49442 0.30774 0.179 0.0
H770 H 0.38912 0.17082 0.18741 0.0
H771 H 0.415 0.16722 0.15524 0.0
H772 H 0.38571 0.17843 0.14099 0.0
H773 H 0.47662 0.265 0.2605 0.0
H774 H 0.507 0.29995 0.23651 0.0
H775 H 0.50832 0.26264 0.23728 0.0
C776 C 0.17762 0.43868 0.47437 0.0
C777 C 0.1675 0.46172 0.47855 0.0
C778 C 0.19383 0.43242 0.50212 0.0
C779 C 0.20052 0.44999 0.53447 0.0
C780 C 0.18806 0.4713 0.53963 0.0
C781 C 0.17154 0.47661 0.51187 0.0
C782 C 0.20561 0.4086 0.49589 0.0
C783 C 0.19459 0.49077 0.57343 0.0
C784 C 0.23674 0.43851 0.62018 0.0
C785 C 0.26929 0.46357 0.61703 0.0
C786 C 0.21435 0.43162 0.59219 0.0
C787 C 0.22464 0.45059 0.56065 0.0
C788 C 0.258 0.47415 0.55646 0.0
C789 C 0.27981 0.48007 0.58442 0.0
C790 C 0.1793 0.40548 0.59733 0.0
C791 C 0.2703 0.49518 0.52356 0.0
H792 H 0.17449 0.42684 0.44889 0.0
H793 H 0.16342 0.49408 0.51574 0.0
H794 H 0.23189 0.42213 0.48898 0.0
H795 H 0.20278 0.3942 0.52024 0.0
H796 H 0.19226 0.39166 0.47375 0.0
H797 H 0.18106 0.50429 0.57442 0.0
H798 H 0.18769 0.47459 0.59696 0.0
H799 H 0.22103 0.50861 0.57549 0.0
H800 H 0.22831 0.42542 0.64509 0.0
H801 H 0.30497 0.49915 0.58132 0.0
H802 H 0.169 0.39167 0.57237 0.0
H803 H 0.16463 0.41689 0.60477 0.0
H804 H 0.17672 0.3882 0.61873 0.0
H805 H 0.26257 0.47987 0.49933 0.0
H806 H 0.29727 0.5106 0.52322 0.0
H807 H 0.25966 0.51136 0.52226 0.0
C808 C 0.79809 0.28968 0.91637 0.0
C809 C 0.80247 0.27873 0.94949 0.0
C810 C 0.78226 0.26805 0.88827 0.0
C811 C 0.77089 0.23441 0.89287 0.0
C812 C 0.77801 0.22357 0.92501 0.0
C813 C 0.7935 0.24581 0.95311 0.0
C814 C 0.77524 0.28096 0.85473 0.0
C815 C 0.76741 0.18816 0.93063 0.0
C816 C 0.69198 0.18378 0.84278 0.0
C817 C 0.70285 0.17861 0.80998 0.0
C818 C 0.71363 0.19991 0.87078 0.0
C819 C 0.74721 0.2108 0.86644 0.0
C820 C 0.75799 0.20305 0.83465 0.0
C821 C 0.73574 0.18728 0.80661 0.0
C822 C 0.70079 0.20763 0.90394 0.0
C823 C 0.79334 0.21314 0.82933 0.0
H824 H 0.80536 0.31512 0.91293 0.0
H825 H 0.79693 0.23705 0.97842 0.0
H826 H 0.78266 0.2724 0.831 0.0
H827 H 0.74864 0.27159 0.85266 0.0
H828 H 0.78802 0.30799 0.85414 0.0
H829 H 0.78112 0.18487 0.95262 0.0
H830 H 0.74112 0.17454 0.93745 0.0
H831 H 0.77082 0.17728 0.90605 0.0
H832 H 0.66657 0.17679 0.84605 0.0
H833 H 0.74444 0.18324 0.78157 0.0
H834 H 0.71071 0.23432 0.9057 0.0
H835 H 0.70887 0.2001 0.92796 0.0
H836 H 0.67376 0.19539 0.90428 0.0
H837 H 0.80728 0.23931 0.82213 0.0
H838 H 0.7965 0.19902 0.8077 0.0
H839 H 0.80401 0.20986 0.85415 0.0
C840 C 0.49136 0.68502 0.18224 0.0
C841 C 0.50734 0.69536 0.14934 0.0
C842 C 0.49781 0.70695 0.21021 0.0
C843 C 0.52138 0.74024 0.20571 0.0
C844 C 0.53986 0.75034 0.17382 0.0
C845 C 0.53245 0.72784 0.14584 0.0
C846 C 0.47728 0.69485 0.24349 0.0
C847 C 0.56599 0.78532 0.16831 0.0
C848 C 0.49631 0.79388 0.25495 0.0
C849 C 0.51179 0.79826 0.28796 0.0
C850 C 0.50105 0.777 0.22715 0.0
C851 C 0.52239 0.76452 0.23192 0.0
C852 C 0.5405 0.77148 0.26393 0.0
C853 C 0.5348 0.78804 0.29174 0.0
C854 C 0.48101 0.77021 0.19374 0.0
C855 C 0.56435 0.75966 0.26971 0.0
H856 H 0.47223 0.65991 0.18559 0.0
H857 H 0.54515 0.73614 0.1207 0.0
H858 H 0.49296 0.70278 0.26744 0.0
H859 H 0.46106 0.70545 0.24512 0.0
H860 H 0.4619 0.6679 0.24408 0.0
H861 H 0.58293 0.78776 0.14654 0.0
H862 H 0.55451 0.79999 0.1612 0.0
H863 H 0.58022 0.79571 0.19301 0.0
H864 H 0.47885 0.80207 0.25138 0.0
H865 H 0.54709 0.79143 0.31697 0.0
H866 H 0.46316 0.74376 0.192 0.0
H867 H 0.49683 0.77695 0.1699 0.0
H868 H 0.46744 0.78369 0.19304 0.0
H869 H 0.55086 0.73345 0.27682 0.0
H870 H 0.58164 0.77312 0.29156 0.0
H871 H 0.57839 0.76229 0.24511 0.0
C872 C 0.68365 0.49756 0.58401 0.0
C873 C 0.69411 0.51404 0.61659 0.0
C874 C 0.70557 0.50327 0.55616 0.0
C875 C 0.73898 0.52657 0.56043 0.0
C876 C 0.74931 0.54535 0.59204 0.0
C877 C 0.72682 0.53868 0.61991 0.0
C878 C 0.69325 0.4824 0.5232 0.0
C879 C 0.78445 0.57117 0.59729 0.0
C880 C 0.79175 0.5005 0.51097 0.0
C881 C 0.79596 0.51576 0.47783 0.0
C882 C 0.77529 0.50569 0.53892 0.0
C883 C 0.76306 0.52723 0.53411 0.0
C884 C 0.76995 0.54515 0.50195 0.0
C885 C 0.78612 0.53903 0.47402 0.0
C886 C 0.76855 0.48585 0.57251 0.0
C887 C 0.75837 0.56918 0.49611 0.0
H888 H 0.65841 0.47875 0.58078 0.0
H889 H 0.73521 0.55177 0.64479 0.0
H890 H 0.7011 0.49784 0.49902 0.0
H891 H 0.70378 0.46613 0.52177 0.0
H892 H 0.66627 0.46709 0.52285 0.0
H893 H 0.78721 0.58826 0.61897 0.0
H894 H 0.7989 0.55944 0.60435 0.0
H895 H 0.79488 0.58526 0.57247 0.0
H896 H 0.79967 0.48283 0.51453 0.0
H897 H 0.78937 0.55113 0.44866 0.0
H898 H 0.74208 0.46804 0.57443 0.0
H899 H 0.77536 0.50177 0.59622 0.0
H900 H 0.78202 0.47226 0.57329 0.0
H901 H 0.73205 0.55583 0.48947 0.0
H902 H 0.77168 0.58618 0.47394 0.0
H903 H 0.76145 0.58351 0.52056 0.0
C904 C 0.1814 0.73991 0.95662 0.0
C905 C 0.17185 0.70688 0.95257 0.0
C906 C 0.19794 0.76252 0.92905 0.0
C907 C 0.20556 0.75194 0.89703 0.0
C908 C 0.19369 0.71828 0.89195 0.0
C909 C 0.1768 0.69628 0.91951 0.0
C910 C 0.20906 0.79799 0.93513 0.0
C911 C 0.2012 0.70564 0.85851 0.0
C912 C 0.243 0.79986 0.81166 0.0
C913 C 0.27562 0.80782 0.81563 0.0
C914 C 0.22013 0.78416 0.83926 0.0
C915 C 0.23002 0.77572 0.87122 0.0
C916 C 0.26339 0.78599 0.87622 0.0
C917 C 0.28568 0.8021 0.84864 0.0
C918 C 0.18506 0.77477 0.83326 0.0
C919 C 0.27528 0.77752 0.9096 0.0
H920 H 0.17756 0.74842 0.98189 0.0
H921 H 0.16912 0.67078 0.91573 0.0
H922 H 0.23518 0.81105 0.94267 0.0
H923 H 0.20655 0.80947 0.91055 0.0
H924 H 0.19503 0.80125 0.95682 0.0
H925 H 0.1881 0.67861 0.85752 0.0
H926 H 0.19453 0.71474 0.83467 0.0
H927 H 0.22777 0.71467 0.85706 0.0
H928 H 0.23491 0.80432 0.78644 0.0
H929 H 0.31088 0.80853 0.85236 0.0
H930 H 0.17408 0.77799 0.85788 0.0
H931 H 0.17087 0.74871 0.8257 0.0
H932 H 0.18266 0.78937 0.81162 0.0
H933 H 0.26684 0.78486 0.93348 0.0
H934 H 0.30227 0.78944 0.91055 0.0
H935 H 0.265 0.75076 0.911 0.0
loop_
_geom_bond_atom_site_label_1
_geom_bond_atom_site_label_2
_geom_bond_distance
_geom_bond_site_symmetry_2
_ccdc_geom_bond_type
C0 O2 1.247 . S
C0 O4 1.258 . S
C1 O8 1.247 . S
C1 O9 1.258 . S
O2 C0 1.247 . S
O2 Zn3 2.028 . S
Zn3 O2 2.028 . S
Zn3 O7 2.035 . S
Zn3 O9 2.035 . S
Zn3 O10 2.028 . S
O4 C0 1.258 . S
O4 Zn5 2.035 . S
Zn5 O4 2.035 . S
Zn5 O6 2.028 . S
Zn5 O8 2.028 . S
Zn5 O11 2.035 . S
O6 Zn5 2.028 . S
O6 C12 1.247 . S
O7 Zn3 2.035 . S
O7 C12 1.258 . S
O8 C1 1.247 . S
O8 Zn5 2.028 . S
O9 C1 1.258 . S
O9 Zn3 2.035 . S
O10 Zn3 2.028 . S
O10 C13 1.247 . S
O11 Zn5 2.035 . S
O11 C13 1.258 . S
C12 O6 1.247 . S
C12 O7 1.258 . S
C13 O10 1.247 . S
C13 O11 1.258 . S
C14 O16 1.247 . S
C14 O18 1.258 . S
C15 O22 1.247 . S
C15 O23 1.258 . S
O16 C14 1.247 . S
O16 Zn17 2.028 . S
Zn17 O16 2.028 . S
Zn17 O21 2.035 . S
Zn17 O23 2.035 . S
Zn17 O24 2.028 . S
O18 C14 1.258 . S
O18 Zn19 2.035 . S
Zn19 O18 2.035 . S
Zn19 O20 2.028 . S
Zn19 O22 2.028 . S
Zn19 O25 2.035 . S
O20 Zn19 2.028 . S
O20 C26 1.247 . S
O21 Zn17 2.035 . S
O21 C26 1.258 . S
O22 C15 1.247 . S
O22 Zn19 2.028 . S
O23 C15 1.258 . S
O23 Zn17 2.035 . S
O24 Zn17 2.028 . S
O24 C27 1.247 . S
O25 Zn19 2.035 . S
O25 C27 1.258 . S
C26 O20 1.247 . S
C26 O21 1.258 . S
C27 O24 1.247 . S
C27 O25 1.258 . S
C28 O30 1.247 . S
C28 O32 1.258 . S
C29 O36 1.247 . S
C29 O37 1.258 . S
O30 C28 1.247 . S
O30 Zn31 2.028 . S
Zn31 O30 2.028 . S
Zn31 O35 2.035 . S
Zn31 O37 2.035 1_554 S
Zn31 O38 2.028 . S
O32 C28 1.258 . S
O32 Zn33 2.035 1_554 S
Zn33 O32 2.035 1_556 S
Zn33 O34 2.028 . S
Zn33 O36 2.028 . S
Zn33 O39 2.035 . S
O34 Zn33 2.028 . S
O34 C40 1.247 1_556 S
O35 Zn31 2.035 . S
O35 C40 1.258 . S
O36 C29 1.247 . S
O36 Zn33 2.028 . S
O37 C29 1.258 . S
O37 Zn31 2.035 1_556 S
O38 Zn31 2.028 . S
O38 C41 1.247 1_554 S
O39 Zn33 2.035 . S
O39 C41 1.258 . S
C40 O34 1.247 1_554 S
C40 O35 1.258 . S
C41 O38 1.247 1_556 S
C41 O39 1.258 . S
C42 O44 1.247 . S
C42 O46 1.258 . S
C43 O50 1.247 . S
C43 O51 1.258 . S
O44 C42 1.247 . S
O44 Zn45 2.028 . S
Zn45 O44 2.028 . S
Zn45 O49 2.035 . S
Zn45 O51 2.035 . S
Zn45 O52 2.028 . S
O46 C42 1.258 . S
O46 Zn47 2.035 . S
Zn47 O46 2.035 . S
Zn47 O48 2.028 . S
Zn47 O50 2.028 . S
Zn47 O53 2.035 . S
O48 Zn47 2.028 . S
O48 C54 1.247 . S
O49 Zn45 2.035 . S
O49 C54 1.258 . S
O50 C43 1.247 . S
O50 Zn47 2.028 . S
O51 C43 1.258 . S
O51 Zn45 2.035 . S
O52 Zn45 2.028 . S
O52 C55 1.247 . S
O53 Zn47 2.035 . S
O53 C55 1.258 . S
C54 O48 1.247 . S
C54 O49 1.258 . S
C55 O52 1.247 . S
C55 O53 1.258 . S
C56 O58 1.247 . S
C56 O60 1.258 . S
C57 O64 1.247 . S
C57 O65 1.258 . S
O58 C56 1.247 . S
O58 Zn59 2.028 . S
Zn59 O58 2.028 . S
Zn59 O63 2.035 . S
Zn59 O65 2.035 . S
Zn59 O66 2.028 . S
O60 C56 1.258 . S
O60 Zn61 2.035 . S
Zn61 O60 2.035 . S
Zn61 O62 2.028 . S
Zn61 O64 2.028 . S
Zn61 O67 2.035 . S
O62 Zn61 2.028 . S
O62 C68 1.247 . S
O63 Zn59 2.035 . S
O63 C68 1.258 . S
O64 C57 1.247 . S
O64 Zn61 2.028 . S
O65 C57 1.258 . S
O65 Zn59 2.035 . S
O66 Zn59 2.028 . S
O66 C69 1.247 . S
O67 Zn61 2.035 . S
O67 C69 1.258 . S
C68 O62 1.247 . S
C68 O63 1.258 . S
C69 O66 1.247 . S
C69 O67 1.258 . S
C70 O72 1.247 . S
C70 O74 1.258 . S
C71 O78 1.247 . S
C71 O79 1.258 . S
O72 C70 1.247 . S
O72 Zn73 2.028 . S
Zn73 O72 2.028 . S
Zn73 O77 2.035 . S
Zn73 O79 2.035 1_554 S
Zn73 O80 2.028 . S
O74 C70 1.258 . S
O74 Zn75 2.035 1_554 S
Zn75 O74 2.035 1_556 S
Zn75 O76 2.028 . S
Zn75 O78 2.028 . S
Zn75 O81 2.035 . S
O76 Zn75 2.028 . S
O76 C82 1.247 1_556 S
O77 Zn73 2.035 . S
O77 C82 1.258 . S
O78 C71 1.247 . S
O78 Zn75 2.028 . S
O79 C71 1.258 . S
O79 Zn73 2.035 1_556 S
O80 Zn73 2.028 . S
O80 C83 1.247 1_554 S
O81 Zn75 2.035 . S
O81 C83 1.258 . S
C82 O76 1.247 1_554 S
C82 O77 1.258 . S
C83 O80 1.247 1_556 S
C83 O81 1.258 . S
C84 O86 1.247 . S
C84 O88 1.258 . S
C85 O92 1.247 . S
C85 O93 1.258 . S
O86 C84 1.247 . S
O86 Zn87 2.028 . S
Zn87 O86 2.028 . S
Zn87 O91 2.035 . S
Zn87 O93 2.035 . S
Zn87 O94 2.028 . S
O88 C84 1.258 . S
O88 Zn89 2.035 . S
Zn89 O88 2.035 . S
Zn89 O90 2.028 . S
Zn89 O92 2.028 . S
Zn89 O95 2.035 . S
O90 Zn89 2.028 . S
O90 C96 1.247 . S
O91 Zn87 2.035 . S
O91 C96 1.258 . S
O92 C85 1.247 . S
O92 Zn89 2.028 . S
O93 C85 1.258 . S
O93 Zn87 2.035 . S
O94 Zn87 2.028 . S
O94 C97 1.247 . S
O95 Zn89 2.035 . S
O95 C97 1.258 . S
C96 O90 1.247 . S
C96 O91 1.258 . S
C97 O94 1.247 . S
C97 O95 1.258 . S
C98 O100 1.247 . S
C98 O102 1.258 . S
C99 O106 1.247 . S
C99 O107 1.258 . S
O100 C98 1.247 . S
O100 Zn101 2.028 . S
Zn101 O100 2.028 . S
Zn101 O105 2.035 . S
Zn101 O107 2.035 . S
Zn101 O108 2.028 . S
O102 C98 1.258 . S
O102 Zn103 2.035 . S
Zn103 O102 2.035 . S
Zn103 O104 2.028 . S
Zn103 O106 2.028 . S
Zn103 O109 2.035 . S
O104 Zn103 2.028 . S
O104 C110 1.247 . S
O105 Zn101 2.035 . S
O105 C110 1.258 . S
O106 C99 1.247 . S
O106 Zn103 2.028 . S
O107 C99 1.258 . S
O107 Zn101 2.035 . S
O108 Zn101 2.028 . S
O108 C111 1.247 . S
O109 Zn103 2.035 . S
O109 C111 1.258 . S
C110 O104 1.247 . S
C110 O105 1.258 . S
C111 O108 1.247 . S
C111 O109 1.258 . S
C112 O114 1.247 . S
C112 O116 1.258 . S
C113 O120 1.247 . S
C113 O121 1.258 . S
O114 C112 1.247 . S
O114 Zn115 2.028 . S
Zn115 O114 2.028 . S
Zn115 O119 2.035 . S
Zn115 O121 2.035 1_556 S
Zn115 O122 2.028 . S
O116 C112 1.258 . S
O116 Zn117 2.035 1_556 S
Zn117 O116 2.035 1_554 S
Zn117 O118 2.028 . S
Zn117 O120 2.028 . S
Zn117 O123 2.035 . S
O118 Zn117 2.028 . S
O118 C124 1.247 1_554 S
O119 Zn115 2.035 . S
O119 C124 1.258 . S
O120 C113 1.247 . S
O120 Zn117 2.028 . S
O121 C113 1.258 . S
O121 Zn115 2.035 1_554 S
O122 Zn115 2.028 . S
O122 C125 1.247 1_556 S
O123 Zn117 2.035 . S
O123 C125 1.258 . S
C124 O118 1.247 1_556 S
C124 O119 1.258 . S
C125 O122 1.247 1_554 S
C125 O123 1.258 . S
C126 O128 1.247 . S
C126 O130 1.258 . S
C127 O134 1.247 . S
C127 O135 1.258 . S
O128 C126 1.247 . S
O128 Zn129 2.028 . S
Zn129 O128 2.028 . S
Zn129 O133 2.035 . S
Zn129 O135 2.035 . S
Zn129 O136 2.028 . S
O130 C126 1.258 . S
O130 Zn131 2.035 . S
Zn131 O130 2.035 . S
Zn131 O132 2.028 . S
Zn131 O134 2.028 . S
Zn131 O137 2.035 . S
O132 Zn131 2.028 . S
O132 C138 1.247 . S
O133 Zn129 2.035 . S
O133 C138 1.258 . S
O134 C127 1.247 . S
O134 Zn131 2.028 . S
O135 C127 1.258 . S
O135 Zn129 2.035 . S
O136 Zn129 2.028 . S
O136 C139 1.247 . S
O137 Zn131 2.035 . S
O137 C139 1.258 . S
C138 O132 1.247 . S
C138 O133 1.258 . S
C139 O136 1.247 . S
C139 O137 1.258 . S
C140 O142 1.247 . S
C140 O144 1.258 . S
C141 O148 1.247 . S
C141 O149 1.258 . S
O142 C140 1.247 . S
O142 Zn143 2.028 . S
Zn143 O142 2.028 . S
Zn143 O147 2.035 . S
Zn143 O149 2.035 . S
Zn143 O150 2.028 . S
O144 C140 1.258 . S
O144 Zn145 2.035 . S
Zn145 O144 2.035 . S
Zn145 O146 2.028 . S
Zn145 O148 2.028 . S
Zn145 O151 2.035 . S
O146 Zn145 2.028 . S
O146 C152 1.247 . S
O147 Zn143 2.035 . S
O147 C152 1.258 . S
O148 C141 1.247 . S
O148 Zn145 2.028 . S
O149 C141 1.258 . S
O149 Zn143 2.035 . S
O150 Zn143 2.028 . S
O150 C153 1.247 . S
O151 Zn145 2.035 . S
O151 C153 1.258 . S
C152 O146 1.247 . S
C152 O147 1.258 . S
C153 O150 1.247 . S
C153 O151 1.258 . S
C154 O156 1.247 . S
C154 O158 1.258 . S
C155 O162 1.247 . S
C155 O163 1.258 . S
O156 C154 1.247 . S
O156 Zn157 2.028 . S
Zn157 O156 2.028 . S
Zn157 O161 2.035 . S
Zn157 O163 2.035 1_556 S
Zn157 O164 2.028 . S
O158 C154 1.258 . S
O158 Zn159 2.035 1_556 S
Zn159 O158 2.035 1_554 S
Zn159 O160 2.028 . S
Zn159 O162 2.028 . S
Zn159 O165 2.035 . S
O160 Zn159 2.028 . S
O160 C166 1.247 1_554 S
O161 Zn157 2.035 . S
O161 C166 1.258 . S
O162 C155 1.247 . S
O162 Zn159 2.028 . S
O163 C155 1.258 . S
O163 Zn157 2.035 1_554 S
O164 Zn157 2.028 . S
O164 C167 1.247 1_556 S
O165 Zn159 2.035 . S
O165 C167 1.258 . S
C166 O160 1.247 1_556 S
C166 O161 1.258 . S
C167 O164 1.247 1_554 S
C167 O165 1.258 . S
C168 C169 1.391 . S
C168 C170 1.394 . S
C168 H184 0.931 . S
C169 C168 1.391 . S
C169 C173 1.376 . S
C170 C168 1.394 . S
C170 C171 1.369 . S
C170 C174 1.531 . S
C171 C170 1.369 . S
C171 C172 1.410 . S
C171 C179 1.503 . S
C172 C171 1.410 . S
C172 C173 1.392 . S
C172 C175 1.511 . S
C173 C169 1.376 . S
C173 C172 1.392 . S
C173 H185 0.929 . S
C174 C170 1.531 . S
C174 H186 0.960 . S
C174 H187 0.962 . S
C174 H188 0.960 . S
C175 C172 1.511 . S
C175 H189 0.961 . S
C175 H190 0.961 . S
C175 H191 0.961 . S
C176 C177 1.370 . S
C176 C178 1.363 . S
C176 H192 0.931 . S
C177 C176 1.370 . S
C177 C181 1.408 . S
C178 C176 1.363 . S
C178 C179 1.370 . S
C178 C182 1.524 . S
C179 C171 1.503 . S
C179 C178 1.370 . S
C179 C180 1.403 . S
C180 C179 1.403 . S
C180 C181 1.404 . S
C180 C183 1.539 . S
C181 C177 1.408 . S
C181 C180 1.404 . S
C181 H193 0.930 . S
C182 C178 1.524 . S
C182 H194 0.956 . S
C182 H195 0.961 . S
C182 H196 0.961 . S
C183 C180 1.539 . S
C183 H197 0.958 . S
C183 H198 0.961 . S
C183 H199 0.960 . S
H184 C168 0.931 . S
H185 C173 0.929 . S
H186 C174 0.960 . S
H187 C174 0.962 . S
H188 C174 0.960 . S
H189 C175 0.961 . S
H190 C175 0.961 . S
H191 C175 0.961 . S
H192 C176 0.931 . S
H193 C181 0.930 . S
H194 C182 0.956 . S
H195 C182 0.961 . S
H196 C182 0.961 . S
H197 C183 0.958 . S
H198 C183 0.961 . S
H199 C183 0.960 . S
C200 C201 1.391 . S
C200 C202 1.394 . S
C200 H216 0.931 . S
C201 C200 1.391 . S
C201 C205 1.376 . S
C202 C200 1.394 . S
C202 C203 1.369 . S
C202 C206 1.531 . S
C203 C202 1.369 . S
C203 C204 1.410 . S
C203 C211 1.503 . S
C204 C203 1.410 . S
C204 C205 1.392 . S
C204 C207 1.511 . S
C205 C201 1.376 . S
C205 C204 1.392 . S
C205 H217 0.929 . S
C206 C202 1.531 . S
C206 H218 0.960 . S
C206 H219 0.962 . S
C206 H220 0.960 . S
C207 C204 1.511 . S
C207 H221 0.961 . S
C207 H222 0.961 . S
C207 H223 0.961 . S
C208 C209 1.370 . S
C208 C210 1.363 . S
C208 H224 0.931 . S
C209 C208 1.370 . S
C209 C213 1.408 . S
C210 C208 1.363 . S
C210 C211 1.370 . S
C210 C214 1.524 . S
C211 C203 1.503 . S
C211 C210 1.370 . S
C211 C212 1.403 . S
C212 C211 1.403 . S
C212 C213 1.404 . S
C212 C215 1.539 . S
C213 C209 1.408 . S
C213 C212 1.404 . S
C213 H225 0.930 . S
C214 C210 1.524 . S
C214 H226 0.956 . S
C214 H227 0.961 . S
C214 H228 0.961 . S
C215 C212 1.539 . S
C215 H229 0.958 . S
C215 H230 0.961 . S
C215 H231 0.960 . S
H216 C200 0.931 . S
H217 C205 0.929 . S
H218 C206 0.960 . S
H219 C206 0.962 . S
H220 C206 0.960 . S
H221 C207 0.961 . S
H222 C207 0.961 . S
H223 C207 0.961 . S
H224 C208 0.931 . S
H225 C213 0.930 . S
H226 C214 0.956 . S
H227 C214 0.961 . S
H228 C214 0.961 . S
H229 C215 0.958 . S
H230 C215 0.961 . S
H231 C215 0.960 . S
C232 C233 1.391 . S
C232 C234 1.394 . S
C232 H248 0.931 . S
C233 C232 1.391 . S
C233 C237 1.376 . S
C234 C232 1.394 . S
C234 C235 1.369 . S
C234 C238 1.531 . S
C235 C234 1.369 . S
C235 C236 1.410 . S
C235 C243 1.503 . S
C236 C235 1.410 . S
C236 C237 1.392 . S
C236 C239 1.511 . S
C237 C233 1.376 . S
C237 C236 1.392 . S
C237 H249 0.929 . S
C238 C234 1.531 . S
C238 H250 0.960 . S
C238 H251 0.962 . S
C238 H252 0.960 . S
C239 C236 1.511 . S
C239 H253 0.961 . S
C239 H254 0.961 . S
C239 H255 0.961 . S
C240 C241 1.370 . S
C240 C242 1.363 . S
C240 H256 0.931 . S
C241 C240 1.370 . S
C241 C245 1.408 . S
C242 C240 1.363 . S
C242 C243 1.370 . S
C242 C246 1.524 . S
C243 C235 1.503 . S
C243 C242 1.370 . S
C243 C244 1.403 . S
C244 C243 1.403 . S
C244 C245 1.404 . S
C244 C247 1.539 . S
C245 C241 1.408 . S
C245 C244 1.404 . S
C245 H257 0.930 . S
C246 C242 1.524 . S
C246 H258 0.956 . S
C246 H259 0.961 . S
C246 H260 0.961 . S
C247 C244 1.539 . S
C247 H261 0.958 . S
C247 H262 0.961 . S
C247 H263 0.960 . S
H248 C232 0.931 . S
H249 C237 0.929 . S
H250 C238 0.960 . S
H251 C238 0.962 . S
H252 C238 0.960 . S
H253 C239 0.961 . S
H254 C239 0.961 . S
H255 C239 0.961 . S
H256 C240 0.931 . S
H257 C245 0.930 . S
H258 C246 0.956 . S
H259 C246 0.961 . S
H260 C246 0.961 . S
H261 C247 0.958 . S
H262 C247 0.961 . S
H263 C247 0.960 . S
C264 C265 1.391 . S
C264 C266 1.394 . S
C264 H280 0.931 . S
C265 C264 1.391 . S
C265 C269 1.376 . S
C266 C264 1.394 . S
C266 C267 1.369 . S
C266 C270 1.531 . S
C267 C266 1.369 . S
C267 C268 1.410 . S
C267 C275 1.503 . S
C268 C267 1.410 . S
C268 C269 1.392 . S
C268 C271 1.511 . S
C269 C265 1.376 . S
C269 C268 1.392 . S
C269 H281 0.929 . S
C270 C266 1.531 . S
C270 H282 0.960 . S
C270 H283 0.962 . S
C270 H284 0.960 . S
C271 C268 1.511 . S
C271 H285 0.961 . S
C271 H286 0.961 . S
C271 H287 0.961 . S
C272 C273 1.370 . S
C272 C274 1.363 . S
C272 H288 0.931 . S
C273 C272 1.370 . S
C273 C277 1.408 . S
C274 C272 1.363 . S
C274 C275 1.370 . S
C274 C278 1.524 . S
C275 C267 1.503 . S
C275 C274 1.370 . S
C275 C276 1.403 . S
C276 C275 1.403 . S
C276 C277 1.404 . S
C276 C279 1.539 . S
C277 C273 1.408 . S
C277 C276 1.404 . S
C277 H289 0.930 . S
C278 C274 1.524 . S
C278 H290 0.956 . S
C278 H291 0.961 . S
C278 H292 0.961 . S
C279 C276 1.539 . S
C279 H293 0.958 . S
C279 H294 0.961 . S
C279 H295 0.960 . S
H280 C264 0.931 . S
H281 C269 0.929 . S
H282 C270 0.960 . S
H283 C270 0.962 . S
H284 C270 0.960 . S
H285 C271 0.961 . S
H286 C271 0.961 . S
H287 C271 0.961 . S
H288 C272 0.931 . S
H289 C277 0.930 . S
H290 C278 0.956 . S
H291 C278 0.961 . S
H292 C278 0.961 . S
H293 C279 0.958 . S
H294 C279 0.961 . S
H295 C279 0.960 . S
C296 C297 1.391 . S
C296 C298 1.394 . S
C296 H312 0.931 . S
C297 C296 1.391 . S
C297 C301 1.376 . S
C298 C296 1.394 . S
C298 C299 1.369 . S
C298 C302 1.531 . S
C299 C298 1.369 . S
C299 C300 1.410 . S
C299 C307 1.503 . S
C300 C299 1.410 . S
C300 C301 1.392 . S
C300 C303 1.511 . S
C301 C297 1.376 . S
C301 C300 1.392 . S
C301 H313 0.929 . S
C302 C298 1.531 . S
C302 H314 0.960 . S
C302 H315 0.962 . S
C302 H316 0.960 . S
C303 C300 1.511 . S
C303 H317 0.961 . S
C303 H318 0.961 . S
C303 H319 0.961 . S
C304 C305 1.370 . S
C304 C306 1.363 . S
C304 H320 0.931 . S
C305 C304 1.370 . S
C305 C309 1.408 . S
C306 C304 1.363 . S
C306 C307 1.370 . S
C306 C310 1.524 . S
C307 C299 1.503 . S
C307 C306 1.370 . S
C307 C308 1.403 . S
C308 C307 1.403 . S
C308 C309 1.404 . S
C308 C311 1.539 . S
C309 C305 1.408 . S
C309 C308 1.404 . S
C309 H321 0.930 . S
C310 C306 1.524 . S
C310 H322 0.956 . S
C310 H323 0.961 . S
C310 H324 0.961 . S
C311 C308 1.539 . S
C311 H325 0.958 . S
C311 H326 0.961 . S
C311 H327 0.960 . S
H312 C296 0.931 . S
H313 C301 0.929 . S
H314 C302 0.960 . S
H315 C302 0.962 . S
H316 C302 0.960 . S
H317 C303 0.961 . S
H318 C303 0.961 . S
H319 C303 0.961 . S
H320 C304 0.931 . S
H321 C309 0.930 . S
H322 C310 0.956 . S
H323 C310 0.961 . S
H324 C310 0.961 . S
H325 C311 0.958 . S
H326 C311 0.961 . S
H327 C311 0.960 . S
C328 C329 1.391 . S
C328 C330 1.394 . S
C328 H344 0.931 . S
C329 C328 1.391 . S
C329 C333 1.376 . S
C330 C328 1.394 . S
C330 C331 1.369 . S
C330 C334 1.531 . S
C331 C330 1.369 . S
C331 C332 1.410 . S
C331 C339 1.503 . S
C332 C331 1.410 . S
C332 C333 1.392 . S
C332 C335 1.511 . S
C333 C329 1.376 . S
C333 C332 1.392 . S
C333 H345 0.929 . S
C334 C330 1.531 . S
C334 H346 0.960 . S
C334 H347 0.962 . S
C334 H348 0.960 . S
C335 C332 1.511 . S
C335 H349 0.961 . S
C335 H350 0.961 . S
C335 H351 0.961 . S
C336 C337 1.370 . S
C336 C338 1.363 . S
C336 H352 0.931 . S
C337 C336 1.370 . S
C337 C341 1.408 . S
C338 C336 1.363 . S
C338 C339 1.370 . S
C338 C342 1.524 . S
C339 C331 1.503 . S
C339 C338 1.370 . S
C339 C340 1.403 . S
C340 C339 1.403 . S
C340 C341 1.404 . S
C340 C343 1.539 . S
C341 C337 1.408 . S
C341 C340 1.404 . S
C341 H353 0.930 . S
C342 C338 1.524 . S
C342 H354 0.956 . S
C342 H355 0.961 . S
C342 H356 0.961 . S
C343 C340 1.539 . S
C343 H357 0.958 . S
C343 H358 0.961 . S
C343 H359 0.960 . S
H344 C328 0.931 . S
H345 C333 0.929 . S
H346 C334 0.960 . S
H347 C334 0.962 . S
H348 C334 0.960 . S
H349 C335 0.961 . S
H350 C335 0.961 . S
H351 C335 0.961 . S
H352 C336 0.931 . S
H353 C341 0.930 . S
H354 C342 0.956 . S
H355 C342 0.961 . S
H356 C342 0.961 . S
H357 C343 0.958 . S
H358 C343 0.961 . S
H359 C343 0.960 . S
C360 C361 1.391 . S
C360 C362 1.394 . S
C360 H376 0.931 . S
C361 C360 1.391 . S
C361 C365 1.376 . S
C362 C360 1.394 . S
C362 C363 1.369 . S
C362 C366 1.531 . S
C363 C362 1.369 . S
C363 C364 1.410 . S
C363 C371 1.503 . S
C364 C363 1.410 . S
C364 C365 1.392 . S
C364 C367 1.511 . S
C365 C361 1.376 . S
C365 C364 1.392 . S
C365 H377 0.929 . S
C366 C362 1.531 . S
C366 H378 0.960 . S
C366 H379 0.962 . S
C366 H380 0.960 . S
C367 C364 1.511 . S
C367 H381 0.961 . S
C367 H382 0.961 . S
C367 H383 0.961 . S
C368 C369 1.370 . S
C368 C370 1.363 . S
C368 H384 0.931 . S
C369 C368 1.370 . S
C369 C373 1.408 . S
C370 C368 1.363 . S
C370 C371 1.370 . S
C370 C374 1.524 . S
C371 C363 1.503 . S
C371 C370 1.370 . S
C371 C372 1.403 . S
C372 C371 1.403 . S
C372 C373 1.404 . S
C372 C375 1.539 . S
C373 C369 1.408 . S
C373 C372 1.404 . S
C373 H385 0.930 . S
C374 C370 1.524 . S
C374 H386 0.956 . S
C374 H387 0.961 . S
C374 H388 0.961 . S
C375 C372 1.539 . S
C375 H389 0.958 . S
C375 H390 0.961 . S
C375 H391 0.960 . S
H376 C360 0.931 . S
H377 C365 0.929 . S
H378 C366 0.960 . S
H379 C366 0.962 . S
H380 C366 0.960 . S
H381 C367 0.961 . S
H382 C367 0.961 . S
H383 C367 0.961 . S
H384 C368 0.931 . S
H385 C373 0.930 . S
H386 C374 0.956 . S
H387 C374 0.961 . S
H388 C374 0.961 . S
H389 C375 0.958 . S
H390 C375 0.961 . S
H391 C375 0.960 . S
C392 C393 1.391 . S
C392 C394 1.394 . S
C392 H408 0.931 . S
C393 C392 1.391 . S
C393 C397 1.376 . S
C394 C392 1.394 . S
C394 C395 1.369 . S
C394 C398 1.531 . S
C395 C394 1.369 . S
C395 C396 1.410 . S
C395 C403 1.503 . S
C396 C395 1.410 . S
C396 C397 1.392 . S
C396 C399 1.511 . S
C397 C393 1.376 . S
C397 C396 1.392 . S
C397 H409 0.929 . S
C398 C394 1.531 . S
C398 H410 0.960 . S
C398 H411 0.962 . S
C398 H412 0.960 . S
C399 C396 1.511 . S
C399 H413 0.961 . S
C399 H414 0.961 . S
C399 H415 0.961 . S
C400 C401 1.370 . S
C400 C402 1.363 . S
C400 H416 0.931 . S
C401 C400 1.370 . S
C401 C405 1.408 . S
C402 C400 1.363 . S
C402 C403 1.370 . S
C402 C406 1.524 . S
C403 C395 1.503 . S
C403 C402 1.370 . S
C403 C404 1.403 . S
C404 C403 1.403 . S
C404 C405 1.404 . S
C404 C407 1.539 . S
C405 C401 1.408 . S
C405 C404 1.404 . S
C405 H417 0.930 . S
C406 C402 1.524 . S
C406 H418 0.956 . S
C406 H419 0.961 . S
C406 H420 0.961 . S
C407 C404 1.539 . S
C407 H421 0.958 . S
C407 H422 0.961 . S
C407 H423 0.960 . S
H408 C392 0.931 . S
H409 C397 0.929 . S
H410 C398 0.960 . S
H411 C398 0.962 . S
H412 C398 0.960 . S
H413 C399 0.961 . S
H414 C399 0.961 . S
H415 C399 0.961 . S
H416 C400 0.931 . S
H417 C405 0.930 . S
H418 C406 0.956 . S
H419 C406 0.961 . S
H420 C406 0.961 . S
H421 C407 0.958 . S
H422 C407 0.961 . S
H423 C407 0.960 . S
C424 C425 1.391 1_556 S
C424 C426 1.394 . S
C424 H440 0.931 . S
C425 C424 1.391 1_554 S
C425 C429 1.376 . S
C426 C424 1.394 . S
C426 C427 1.369 1_556 S
C426 C430 1.531 . S
C427 C426 1.369 1_554 S
C427 C428 1.410 . S
C427 C435 1.503 . S
C428 C427 1.410 . S
C428 C429 1.392 . S
C428 C431 1.511 . S
C429 C425 1.376 . S
C429 C428 1.392 . S
C429 H441 0.929 . S
C430 C426 1.531 . S
C430 H442 0.960 1_556 S
C430 H443 0.962 . S
C430 H444 0.960 . S
C431 C428 1.511 . S
C431 H445 0.961 . S
C431 H446 0.961 . S
C431 H447 0.961 . S
C432 C433 1.370 1_556 S
C432 C434 1.363 . S
C432 H448 0.931 . S
C433 C432 1.370 1_554 S
C433 C437 1.408 . S
C434 C432 1.363 . S
C434 C435 1.370 1_556 S
C434 C438 1.524 . S
C435 C427 1.503 . S
C435 C434 1.370 1_554 S
C435 C436 1.403 . S
C436 C435 1.403 . S
C436 C437 1.404 . S
C436 C439 1.539 . S
C437 C433 1.408 . S
C437 C436 1.404 . S
C437 H449 0.930 . S
C438 C434 1.524 . S
C438 H450 0.956 . S
C438 H451 0.961 . S
C438 H452 0.961 . S
C439 C436 1.539 . S
C439 H453 0.958 . S
C439 H454 0.961 . S
C439 H455 0.960 . S
H440 C424 0.931 . S
H441 C429 0.929 . S
H442 C430 0.960 1_554 S
H443 C430 0.962 . S
H444 C430 0.960 . S
H445 C431 0.961 . S
H446 C431 0.961 . S
H447 C431 0.961 . S
H448 C432 0.931 . S
H449 C437 0.930 . S
H450 C438 0.956 . S
H451 C438 0.961 . S
H452 C438 0.961 . S
H453 C439 0.958 . S
H454 C439 0.961 . S
H455 C439 0.960 . S
C456 C457 1.391 . S
C456 C458 1.394 . S
C456 H472 0.931 . S
C457 C456 1.391 . S
C457 C461 1.376 . S
C458 C456 1.394 . S
C458 C459 1.369 . S
C458 C462 1.531 . S
C459 C458 1.369 . S
C459 C460 1.410 . S
C459 C467 1.503 . S
C460 C459 1.410 . S
C460 C461 1.392 . S
C460 C463 1.511 . S
C461 C457 1.376 . S
C461 C460 1.392 . S
C461 H473 0.929 . S
C462 C458 1.531 . S
C462 H474 0.960 . S
C462 H475 0.962 . S
C462 H476 0.960 . S
C463 C460 1.511 . S
C463 H477 0.961 . S
C463 H478 0.961 . S
C463 H479 0.961 . S
C464 C465 1.370 . S
C464 C466 1.363 . S
C464 H480 0.931 . S
C465 C464 1.370 . S
C465 C469 1.408 . S
C466 C464 1.363 . S
C466 C467 1.370 . S
C466 C470 1.524 . S
C467 C459 1.503 . S
C467 C466 1.370 . S
C467 C468 1.403 . S
C468 C467 1.403 . S
C468 C469 1.404 . S
C468 C471 1.539 . S
C469 C465 1.408 . S
C469 C468 1.404 . S
C469 H481 0.930 . S
C470 C466 1.524 . S
C470 H482 0.956 . S
C470 H483 0.961 . S
C470 H484 0.961 . S
C471 C468 1.539 . S
C471 H485 0.958 . S
C471 H486 0.961 . S
C471 H487 0.960 . S
H472 C456 0.931 . S
H473 C461 0.929 . S
H474 C462 0.960 . S
H475 C462 0.962 . S
H476 C462 0.960 . S
H477 C463 0.961 . S
H478 C463 0.961 . S
H479 C463 0.961 . S
H480 C464 0.931 . S
H481 C469 0.930 . S
H482 C470 0.956 . S
H483 C470 0.961 . S
H484 C470 0.961 . S
H485 C471 0.958 . S
H486 C471 0.961 . S
H487 C471 0.960 . S
C488 C489 1.391 . S
C488 C490 1.394 . S
C488 H504 0.931 . S
C489 C488 1.391 . S
C489 C493 1.376 . S
C490 C488 1.394 . S
C490 C491 1.369 . S
C490 C494 1.531 . S
C491 C490 1.369 . S
C491 C492 1.410 . S
C491 C499 1.503 . S
C492 C491 1.410 . S
C492 C493 1.392 . S
C492 C495 1.511 . S
C493 C489 1.376 . S
C493 C492 1.392 . S
C493 H505 0.929 . S
C494 C490 1.531 . S
C494 H506 0.960 . S
C494 H507 0.962 . S
C494 H508 0.960 . S
C495 C492 1.511 . S
C495 H509 0.961 . S
C495 H510 0.961 . S
C495 H511 0.961 . S
C496 C497 1.370 . S
C496 C498 1.363 . S
C496 H512 0.931 . S
C497 C496 1.370 . S
C497 C501 1.408 . S
C498 C496 1.363 . S
C498 C499 1.370 . S
C498 C502 1.524 . S
C499 C491 1.503 . S
C499 C498 1.370 . S
C499 C500 1.403 . S
C500 C499 1.403 . S
C500 C501 1.404 . S
C500 C503 1.539 . S
C501 C497 1.408 . S
C501 C500 1.404 . S
C501 H513 0.930 . S
C502 C498 1.524 . S
C502 H514 0.956 . S
C502 H515 0.961 . S
C502 H516 0.961 . S
C503 C500 1.539 . S
C503 H517 0.958 . S
C503 H518 0.961 . S
C503 H519 0.960 . S
H504 C488 0.931 . S
H505 C493 0.929 . S
H506 C494 0.960 . S
H507 C494 0.962 . S
H508 C494 0.960 . S
H509 C495 0.961 . S
H510 C495 0.961 . S
H511 C495 0.961 . S
H512 C496 0.931 . S
H513 C501 0.930 . S
H514 C502 0.956 . S
H515 C502 0.961 . S
H516 C502 0.961 . S
H517 C503 0.958 . S
H518 C503 0.961 . S
H519 C503 0.960 . S
C520 C521 1.391 1_556 S
C520 C522 1.394 . S
C520 H536 0.931 . S
C521 C520 1.391 1_554 S
C521 C525 1.376 . S
C522 C520 1.394 . S
C522 C523 1.359 1_556 S
C522 C526 1.531 . S
C523 C522 1.359 1_554 S
C523 C524 1.420 . S
C523 C531 1.503 1_554 S
C524 C523 1.420 . S
C524 C525 1.392 . S
C524 C527 1.511 . S
C525 C521 1.376 . S
C525 C524 1.392 . S
C525 H537 0.929 . S
C526 C522 1.531 . S
C526 H538 0.960 . S
C526 H539 0.962 . S
C526 H540 0.960 . S
C527 C524 1.511 . S
C527 H541 0.961 . S
C527 H542 0.961 . S
C527 H543 0.961 . S
C528 C529 1.370 . S
C528 C530 1.363 . S
C528 H544 0.931 . S
C529 C528 1.370 . S
C529 C533 1.407 1_556 S
C530 C528 1.363 . S
C530 C531 1.371 . S
C530 C534 1.524 . S
C531 C523 1.503 1_556 S
C531 C530 1.371 . S
C531 C532 1.402 1_556 S
C532 C531 1.402 1_554 S
C532 C533 1.404 . S
C532 C535 1.539 . S
C533 C529 1.407 1_554 S
C533 C532 1.404 . S
C533 H545 0.931 . S
C534 C530 1.524 . S
C534 H546 0.956 . S
C534 H547 0.961 1_556 S
C534 H548 0.961 . S
C535 C532 1.539 . S
C535 H549 0.958 1_554 S
C535 H550 0.961 . S
C535 H551 0.960 . S
H536 C520 0.931 . S
H537 C525 0.929 . S
H538 C526 0.960 . S
H539 C526 0.962 . S
H540 C526 0.960 . S
H541 C527 0.961 . S
H542 C527 0.961 . S
H543 C527 0.961 . S
H544 C528 0.931 . S
H545 C533 0.931 . S
H546 C534 0.956 . S
H547 C534 0.961 1_554 S
H548 C534 0.961 . S
H549 C535 0.958 1_556 S
H550 C535 0.961 . S
H551 C535 0.960 . S
C552 C553 1.391 . S
C552 C554 1.394 . S
C552 H568 0.931 . S
C553 C552 1.391 . S
C553 C557 1.376 . S
C554 C552 1.394 . S
C554 C555 1.369 . S
C554 C558 1.531 1_545 S
C555 C554 1.369 . S
C555 C556 1.410 . S
C555 C563 1.503 1_545 S
C556 C555 1.410 . S
C556 C557 1.392 . S
C556 C559 1.511 . S
C557 C553 1.376 . S
C557 C556 1.392 . S
C557 H569 0.929 . S
C558 C554 1.531 1_565 S
C558 H570 0.960 . S
C558 H571 0.962 . S
C558 H572 0.960 . S
C559 C556 1.511 . S
C559 H573 0.961 . S
C559 H574 0.961 . S
C559 H575 0.961 . S
C560 C561 1.370 . S
C560 C562 1.363 . S
C560 H576 0.931 . S
C561 C560 1.370 . S
C561 C565 1.408 . S
C562 C560 1.363 . S
C562 C563 1.370 . S
C562 C566 1.508 1_565 S
C563 C555 1.503 1_565 S
C563 C562 1.370 . S
C563 C564 1.403 . S
C564 C563 1.403 . S
C564 C565 1.404 . S
C564 C567 1.539 . S
C565 C561 1.408 . S
C565 C564 1.404 . S
C565 H577 0.930 . S
C566 C562 1.508 1_545 S
C566 H578 0.967 1_545 S
C566 H579 0.983 . S
C566 H580 0.945 1_545 S
C567 C564 1.539 . S
C567 H581 0.958 . S
C567 H582 0.961 . S
C567 H583 0.960 . S
H568 C552 0.931 . S
H569 C557 0.929 . S
H570 C558 0.960 . S
H571 C558 0.962 . S
H572 C558 0.960 . S
H573 C559 0.961 . S
H574 C559 0.961 . S
H575 C559 0.961 . S
H576 C560 0.931 . S
H577 C565 0.930 . S
H578 C566 0.967 1_565 S
H579 C566 0.983 . S
H580 C566 0.945 1_565 S
H581 C567 0.958 . S
H582 C567 0.961 . S
H583 C567 0.960 . S
C584 C585 1.391 . S
C584 C586 1.394 . S
C584 H600 0.931 . S
C585 C584 1.391 . S
C585 C589 1.376 . S
C586 C584 1.394 . S
C586 C587 1.369 . S
C586 C590 1.531 . S
C587 C586 1.369 . S
C587 C588 1.410 . S
C587 C595 1.503 . S
C588 C587 1.410 . S
C588 C589 1.392 . S
C588 C591 1.511 . S
C589 C585 1.376 . S
C589 C588 1.392 . S
C589 H601 0.929 . S
C590 C586 1.531 . S
C590 H602 0.960 . S
C590 H603 0.962 . S
C590 H604 0.960 . S
C591 C588 1.511 . S
C591 H605 0.961 . S
C591 H606 0.961 . S
C591 H607 0.961 . S
C592 C593 1.370 . S
C592 C594 1.363 . S
C592 H608 0.931 . S
C593 C592 1.370 . S
C593 C597 1.408 . S
C594 C592 1.363 . S
C594 C595 1.370 . S
C594 C598 1.524 . S
C595 C587 1.503 . S
C595 C594 1.370 . S
C595 C596 1.403 . S
C596 C595 1.403 . S
C596 C597 1.404 . S
C596 C599 1.539 . S
C597 C593 1.408 . S
C597 C596 1.404 . S
C597 H609 0.930 . S
C598 C594 1.524 . S
C598 H610 0.956 . S
C598 H611 0.961 . S
C598 H612 0.961 . S
C599 C596 1.539 . S
C599 H613 0.958 . S
C599 H614 0.961 . S
C599 H615 0.960 . S
H600 C584 0.931 . S
H601 C589 0.929 . S
H602 C590 0.960 . S
H603 C590 0.962 . S
H604 C590 0.960 . S
H605 C591 0.961 . S
H606 C591 0.961 . S
H607 C591 0.961 . S
H608 C592 0.931 . S
H609 C597 0.930 . S
H610 C598 0.956 . S
H611 C598 0.961 . S
H612 C598 0.961 . S
H613 C599 0.958 . S
H614 C599 0.961 . S
H615 C599 0.960 . S
C616 C617 1.391 . S
C616 C618 1.394 . S
C616 H632 0.931 . S
C617 C616 1.391 . S
C617 C621 1.376 1_556 S
C618 C616 1.394 . S
C618 C619 1.369 . S
C618 C622 1.531 1_655 S
C619 C618 1.369 . S
C619 C620 1.410 1_556 S
C619 C627 1.503 1_655 S
C620 C619 1.410 1_554 S
C620 C621 1.392 . S
C620 C623 1.511 . S
C621 C617 1.376 1_554 S
C621 C620 1.392 . S
C621 H633 0.929 . S
C622 C618 1.531 1_455 S
C622 H634 0.960 . S
C622 H635 0.962 . S
C622 H636 0.960 . S
C623 C620 1.511 . S
C623 H637 0.961 . S
C623 H638 0.961 . S
C623 H639 0.961 . S
C624 C625 1.370 1_554 S
C624 C626 1.363 . S
C624 H640 0.931 . S
C625 C624 1.370 1_556 S
C625 C629 1.408 . S
C626 C624 1.363 . S
C626 C627 1.370 1_554 S
C626 C630 1.524 . S
C627 C619 1.503 1_455 S
C627 C626 1.370 1_556 S
C627 C628 1.403 . S
C628 C627 1.403 . S
C628 C629 1.404 . S
C628 C631 1.539 1_455 S
C629 C625 1.408 . S
C629 C628 1.404 . S
C629 H641 0.930 . S
C630 C626 1.524 . S
C630 H642 0.956 . S
C630 H643 0.961 . S
C630 H644 0.961 . S
C631 C628 1.539 1_655 S
C631 H645 0.958 . S
C631 H646 0.961 . S
C631 H647 0.960 . S
H632 C616 0.931 . S
H633 C621 0.929 . S
H634 C622 0.960 . S
H635 C622 0.962 . S
H636 C622 0.960 . S
H637 C623 0.961 . S
H638 C623 0.961 . S
H639 C623 0.961 . S
H640 C624 0.931 . S
H641 C629 0.930 . S
H642 C630 0.956 . S
H643 C630 0.961 . S
H644 C630 0.961 . S
H645 C631 0.958 . S
H646 C631 0.961 . S
H647 C631 0.960 . S
C648 C649 1.391 . S
C648 C650 1.394 . S
C648 H664 0.931 . S
C649 C648 1.391 . S
C649 C653 1.376 . S
C650 C648 1.394 . S
C650 C651 1.369 . S
C650 C654 1.531 . S
C651 C650 1.369 . S
C651 C652 1.410 . S
C651 C659 1.503 1_455 S
C652 C651 1.410 . S
C652 C653 1.392 . S
C652 C655 1.511 . S
C653 C649 1.376 . S
C653 C652 1.392 . S
C653 H665 0.929 . S
C654 C650 1.531 . S
C654 H666 0.960 1_455 S
C654 H667 0.962 . S
C654 H668 0.960 . S
C655 C652 1.511 . S
C655 H669 0.961 . S
C655 H670 0.961 1_455 S
C655 H671 0.961 1_455 S
C656 C657 1.370 . S
C656 C658 1.363 . S
C656 H672 0.931 . S
C657 C656 1.370 . S
C657 C661 1.408 . S
C658 C656 1.363 . S
C658 C659 1.370 . S
C658 C662 1.524 1_655 S
C659 C651 1.503 1_655 S
C659 C658 1.370 . S
C659 C660 1.403 . S
C660 C659 1.403 . S
C660 C661 1.404 . S
C660 C663 1.539 . S
C661 C657 1.408 . S
C661 C660 1.404 . S
C661 H673 0.930 . S
C662 C658 1.524 1_455 S
C662 H674 0.956 . S
C662 H675 0.961 . S
C662 H676 0.961 . S
C663 C660 1.539 . S
C663 H677 0.958 . S
C663 H678 0.961 . S
C663 H679 0.960 . S
H664 C648 0.931 . S
H665 C653 0.929 . S
H666 C654 0.960 1_655 S
H667 C654 0.962 . S
H668 C654 0.960 . S
H669 C655 0.961 . S
H670 C655 0.961 1_655 S
H671 C655 0.961 1_655 S
H672 C656 0.931 . S
H673 C661 0.930 . S
H674 C662 0.956 . S
H675 C662 0.961 . S
H676 C662 0.961 . S
H677 C663 0.958 . S
H678 C663 0.961 . S
H679 C663 0.960 . S
C680 C681 1.391 . S
C680 C682 1.394 . S
C680 H696 0.931 . S
C681 C680 1.391 . S
C681 C685 1.376 . S
C682 C680 1.394 . S
C682 C683 1.369 . S
C682 C686 1.531 1_545 S
C683 C682 1.369 . S
C683 C684 1.410 . S
C683 C691 1.503 1_545 S
C684 C683 1.410 . S
C684 C685 1.392 . S
C684 C687 1.511 . S
C685 C681 1.376 . S
C685 C684 1.392 . S
C685 H697 0.929 . S
C686 C682 1.531 1_565 S
C686 H698 0.960 . S
C686 H699 0.962 . S
C686 H700 0.960 . S
C687 C684 1.511 . S
C687 H701 0.961 . S
C687 H702 0.961 . S
C687 H703 0.961 . S
C688 C689 1.370 . S
C688 C690 1.363 . S
C688 H704 0.931 . S
C689 C688 1.370 . S
C689 C693 1.408 . S
C690 C688 1.363 . S
C690 C691 1.370 . S
C690 C694 1.524 1_565 S
C691 C683 1.503 1_565 S
C691 C690 1.370 . S
C691 C692 1.403 . S
C692 C691 1.403 . S
C692 C693 1.404 . S
C692 C695 1.539 . S
C693 C689 1.408 . S
C693 C692 1.404 . S
C693 H705 0.930 . S
C694 C690 1.524 1_545 S
C694 H706 0.956 . S
C694 H707 0.961 . S
C694 H708 0.961 . S
C695 C692 1.539 . S
C695 H709 0.958 . S
C695 H710 0.961 . S
C695 H711 0.960 . S
H696 C680 0.931 . S
H697 C685 0.929 . S
H698 C686 0.960 . S
H699 C686 0.962 . S
H700 C686 0.960 . S
H701 C687 0.961 . S
H702 C687 0.961 . S
H703 C687 0.961 . S
H704 C688 0.931 . S
H705 C693 0.930 . S
H706 C694 0.956 . S
H707 C694 0.961 . S
H708 C694 0.961 . S
H709 C695 0.958 . S
H710 C695 0.961 . S
H711 C695 0.960 . S
C712 C713 1.384 1_556 S
C712 C714 1.394 . S
C712 H728 0.931 . S
C713 C712 1.384 1_554 S
C713 C717 1.382 . S
C714 C712 1.394 . S
C714 C715 1.369 . S
C714 C718 1.531 . S
C715 C714 1.369 . S
C715 C716 1.410 1_556 S
C715 C723 1.503 . S
C716 C715 1.410 1_554 S
C716 C717 1.392 . S
C716 C719 1.511 . S
C717 C713 1.382 . S
C717 C716 1.392 . S
C717 H729 0.929 . S
C718 C714 1.531 . S
C718 H730 0.960 . S
C718 H731 0.962 . S
C718 H732 0.960 . S
C719 C716 1.511 . S
C719 H733 0.961 . S
C719 H734 0.961 . S
C719 H735 0.961 . S
C720 C721 1.370 . S
C720 C722 1.363 . S
C720 H736 0.931 . S
C721 C720 1.370 . S
C721 C725 1.408 1_554 S
C722 C720 1.363 . S
C722 C723 1.370 1_554 S
C722 C726 1.524 . S
C723 C715 1.503 . S
C723 C722 1.370 1_556 S
C723 C724 1.403 . S
C724 C723 1.403 . S
C724 C725 1.404 . S
C724 C727 1.539 . S
C725 C721 1.408 1_556 S
C725 C724 1.404 . S
C725 H737 0.930 . S
C726 C722 1.524 . S
C726 H738 0.956 . S
C726 H739 0.961 . S
C726 H740 0.961 . S
C727 C724 1.539 . S
C727 H741 0.958 . S
C727 H742 0.961 . S
C727 H743 0.960 . S
H728 C712 0.931 . S
H729 C717 0.929 . S
H730 C718 0.960 . S
H731 C718 0.962 . S
H732 C718 0.960 . S
H733 C719 0.961 . S
H734 C719 0.961 . S
H735 C719 0.961 . S
H736 C720 0.931 . S
H737 C725 0.930 . S
H738 C726 0.956 . S
H739 C726 0.961 . S
H740 C726 0.961 . S
H741 C727 0.958 . S
H742 C727 0.961 . S
H743 C727 0.960 . S
C744 C745 1.391 . S
C744 C746 1.394 . S
C744 H760 0.931 . S
C745 C744 1.391 . S
C745 C749 1.376 . S
C746 C744 1.394 . S
C746 C747 1.369 . S
C746 C750 1.531 . S
C747 C746 1.369 . S
C747 C748 1.410 . S
C747 C755 1.503 . S
C748 C747 1.410 . S
C748 C749 1.392 . S
C748 C751 1.511 . S
C749 C745 1.376 . S
C749 C748 1.392 . S
C749 H761 0.929 . S
C750 C746 1.531 . S
C750 H762 0.960 . S
C750 H763 0.962 . S
C750 H764 0.960 . S
C751 C748 1.511 . S
C751 H765 0.961 . S
C751 H766 0.961 . S
C751 H767 0.961 . S
C752 C753 1.370 . S
C752 C754 1.363 . S
C752 H768 0.931 . S
C753 C752 1.370 . S
C753 C757 1.408 . S
C754 C752 1.363 . S
C754 C755 1.370 . S
C754 C758 1.524 . S
C755 C747 1.503 . S
C755 C754 1.370 . S
C755 C756 1.403 . S
C756 C755 1.403 . S
C756 C757 1.404 . S
C756 C759 1.539 . S
C757 C753 1.408 . S
C757 C756 1.404 . S
C757 H769 0.930 . S
C758 C754 1.524 . S
C758 H770 0.956 . S
C758 H771 0.961 . S
C758 H772 0.961 . S
C759 C756 1.539 . S
C759 H773 0.958 . S
C759 H774 0.961 . S
C759 H775 0.960 . S
H760 C744 0.931 . S
H761 C749 0.929 . S
H762 C750 0.960 . S
H763 C750 0.962 . S
H764 C750 0.960 . S
H765 C751 0.961 . S
H766 C751 0.961 . S
H767 C751 0.961 . S
H768 C752 0.931 . S
H769 C757 0.930 . S
H770 C758 0.956 . S
H771 C758 0.961 . S
H772 C758 0.961 . S
H773 C759 0.958 . S
H774 C759 0.961 . S
H775 C759 0.960 . S
C776 C777 1.391 . S
C776 C778 1.394 . S
C776 H792 0.931 . S
C777 C776 1.391 . S
C777 C781 1.376 . S
C778 C776 1.394 . S
C778 C779 1.369 . S
C778 C782 1.531 . S
C779 C778 1.369 . S
C779 C780 1.410 . S
C779 C787 1.503 . S
C780 C779 1.410 . S
C780 C781 1.392 . S
C780 C783 1.511 . S
C781 C777 1.376 . S
C781 C780 1.392 . S
C781 H793 0.929 . S
C782 C778 1.531 . S
C782 H794 0.960 . S
C782 H795 0.962 . S
C782 H796 0.960 . S
C783 C780 1.511 . S
C783 H797 0.961 . S
C783 H798 0.961 . S
C783 H799 0.961 . S
C784 C785 1.370 . S
C784 C786 1.363 . S
C784 H800 0.931 . S
C785 C784 1.370 . S
C785 C789 1.408 . S
C786 C784 1.363 . S
C786 C787 1.370 . S
C786 C790 1.524 . S
C787 C779 1.503 . S
C787 C786 1.370 . S
C787 C788 1.403 . S
C788 C787 1.403 . S
C788 C789 1.404 . S
C788 C791 1.539 . S
C789 C785 1.408 . S
C789 C788 1.404 . S
C789 H801 0.930 . S
C790 C786 1.524 . S
C790 H802 0.956 . S
C790 H803 0.961 . S
C790 H804 0.961 . S
C791 C788 1.539 . S
C791 H805 0.958 . S
C791 H806 0.961 . S
C791 H807 0.960 . S
H792 C776 0.931 . S
H793 C781 0.929 . S
H794 C782 0.960 . S
H795 C782 0.962 . S
H796 C782 0.960 . S
H797 C783 0.961 . S
H798 C783 0.961 . S
H799 C783 0.961 . S
H800 C784 0.931 . S
H801 C789 0.930 . S
H802 C790 0.956 . S
H803 C790 0.961 . S
H804 C790 0.961 . S
H805 C791 0.958 . S
H806 C791 0.961 . S
H807 C791 0.960 . S
C808 C809 1.391 . S
C808 C810 1.394 . S
C808 H824 0.931 . S
C809 C808 1.391 . S
C809 C813 1.376 . S
C810 C808 1.394 . S
C810 C811 1.369 . S
C810 C814 1.531 . S
C811 C810 1.369 . S
C811 C812 1.410 . S
C811 C819 1.503 . S
C812 C811 1.410 . S
C812 C813 1.392 . S
C812 C815 1.511 . S
C813 C809 1.376 . S
C813 C812 1.392 . S
C813 H825 0.929 . S
C814 C810 1.531 . S
C814 H826 0.960 . S
C814 H827 0.962 . S
C814 H828 0.960 . S
C815 C812 1.511 . S
C815 H829 0.961 . S
C815 H830 0.961 . S
C815 H831 0.961 . S
C816 C817 1.370 . S
C816 C818 1.363 . S
C816 H832 0.931 . S
C817 C816 1.370 . S
C817 C821 1.408 . S
C818 C816 1.363 . S
C818 C819 1.370 . S
C818 C822 1.524 . S
C819 C811 1.503 . S
C819 C818 1.370 . S
C819 C820 1.403 . S
C820 C819 1.403 . S
C820 C821 1.404 . S
C820 C823 1.539 . S
C821 C817 1.408 . S
C821 C820 1.404 . S
C821 H833 0.930 . S
C822 C818 1.524 . S
C822 H834 0.956 . S
C822 H835 0.961 . S
C822 H836 0.961 . S
C823 C820 1.539 . S
C823 H837 0.958 . S
C823 H838 0.961 . S
C823 H839 0.960 . S
H824 C808 0.931 . S
H825 C813 0.929 . S
H826 C814 0.960 . S
H827 C814 0.962 . S
H828 C814 0.960 . S
H829 C815 0.961 . S
H830 C815 0.961 . S
H831 C815 0.961 . S
H832 C816 0.931 . S
H833 C821 0.930 . S
H834 C822 0.956 . S
H835 C822 0.961 . S
H836 C822 0.961 . S
H837 C823 0.958 . S
H838 C823 0.961 . S
H839 C823 0.960 . S
C840 C841 1.391 . S
C840 C842 1.394 . S
C840 H856 0.931 . S
C841 C840 1.391 . S
C841 C845 1.376 . S
C842 C840 1.394 . S
C842 C843 1.369 . S
C842 C846 1.531 . S
C843 C842 1.369 . S
C843 C844 1.410 . S
C843 C851 1.503 . S
C844 C843 1.410 . S
C844 C845 1.392 . S
C844 C847 1.511 . S
C845 C841 1.376 . S
C845 C844 1.392 . S
C845 H857 0.929 . S
C846 C842 1.531 . S
C846 H858 0.960 . S
C846 H859 0.962 . S
C846 H860 0.960 . S
C847 C844 1.511 . S
C847 H861 0.961 . S
C847 H862 0.961 . S
C847 H863 0.961 . S
C848 C849 1.370 . S
C848 C850 1.363 . S
C848 H864 0.931 . S
C849 C848 1.370 . S
C849 C853 1.408 . S
C850 C848 1.363 . S
C850 C851 1.370 . S
C850 C854 1.524 . S
C851 C843 1.503 . S
C851 C850 1.370 . S
C851 C852 1.403 . S
C852 C851 1.403 . S
C852 C853 1.404 . S
C852 C855 1.539 . S
C853 C849 1.408 . S
C853 C852 1.404 . S
C853 H865 0.930 . S
C854 C850 1.524 . S
C854 H866 0.956 . S
C854 H867 0.961 . S
C854 H868 0.961 . S
C855 C852 1.539 . S
C855 H869 0.958 . S
C855 H870 0.961 . S
C855 H871 0.960 . S
H856 C840 0.931 . S
H857 C845 0.929 . S
H858 C846 0.960 . S
H859 C846 0.962 . S
H860 C846 0.960 . S
H861 C847 0.961 . S
H862 C847 0.961 . S
H863 C847 0.961 . S
H864 C848 0.931 . S
H865 C853 0.930 . S
H866 C854 0.956 . S
H867 C854 0.961 . S
H868 C854 0.961 . S
H869 C855 0.958 . S
H870 C855 0.961 . S
H871 C855 0.960 . S
C872 C873 1.391 . S
C872 C874 1.394 . S
C872 H888 0.931 . S
C873 C872 1.391 . S
C873 C877 1.376 . S
C874 C872 1.394 . S
C874 C875 1.369 . S
C874 C878 1.531 . S
C875 C874 1.369 . S
C875 C876 1.410 . S
C875 C883 1.503 . S
C876 C875 1.410 . S
C876 C877 1.392 . S
C876 C879 1.511 . S
C877 C873 1.376 . S
C877 C876 1.392 . S
C877 H889 0.929 . S
C878 C874 1.531 . S
C878 H890 0.960 . S
C878 H891 0.962 . S
C878 H892 0.960 . S
C879 C876 1.511 . S
C879 H893 0.961 . S
C879 H894 0.961 . S
C879 H895 0.961 . S
C880 C881 1.370 . S
C880 C882 1.363 . S
C880 H896 0.931 . S
C881 C880 1.370 . S
C881 C885 1.408 . S
C882 C880 1.363 . S
C882 C883 1.370 . S
C882 C886 1.524 . S
C883 C875 1.503 . S
C883 C882 1.370 . S
C883 C884 1.403 . S
C884 C883 1.403 . S
C884 C885 1.404 . S
C884 C887 1.539 . S
C885 C881 1.408 . S
C885 C884 1.404 . S
C885 H897 0.930 . S
C886 C882 1.524 . S
C886 H898 0.956 . S
C886 H899 0.961 . S
C886 H900 0.961 . S
C887 C884 1.539 . S
C887 H901 0.958 . S
C887 H902 0.961 . S
C887 H903 0.960 . S
H888 C872 0.931 . S
H889 C877 0.929 . S
H890 C878 0.960 . S
H891 C878 0.962 . S
H892 C878 0.960 . S
H893 C879 0.961 . S
H894 C879 0.961 . S
H895 C879 0.961 . S
H896 C880 0.931 . S
H897 C885 0.930 . S
H898 C886 0.956 . S
H899 C886 0.961 . S
H900 C886 0.961 . S
H901 C887 0.958 . S
H902 C887 0.961 . S
H903 C887 0.960 . S
C904 C905 1.391 . S
C904 C906 1.394 . S
C904 H920 0.931 . S
C905 C904 1.391 . S
C905 C909 1.376 . S
C906 C904 1.394 . S
C906 C907 1.369 . S
C906 C910 1.531 . S
C907 C906 1.369 . S
C907 C908 1.410 . S
C907 C915 1.503 . S
C908 C907 1.410 . S
C908 C909 1.392 . S
C908 C911 1.511 . S
C909 C905 1.376 . S
C909 C908 1.392 . S
C909 H921 0.929 . S
C910 C906 1.531 . S
C910 H922 0.960 . S
C910 H923 0.962 . S
C910 H924 0.960 . S
C911 C908 1.511 . S
C911 H925 0.961 . S
C911 H926 0.961 . S
C911 H927 0.961 . S
C912 C913 1.370 . S
C912 C914 1.363 . S
C912 H928 0.931 . S
C913 C912 1.370 . S
C913 C917 1.408 . S
C914 C912 1.363 . S
C914 C915 1.370 . S
C914 C918 1.524 . S
C915 C907 1.503 . S
C915 C914 1.370 . S
C915 C916 1.403 . S
C916 C915 1.403 . S
C916 C917 1.404 . S
C916 C919 1.539 . S
C917 C913 1.408 . S
C917 C916 1.404 . S
C917 H929 0.930 . S
C918 C914 1.524 . S
C918 H930 0.956 . S
C918 H931 0.961 . S
C918 H932 0.961 . S
C919 C916 1.539 . S
C919 H933 0.958 . S
C919 H934 0.961 . S
C919 H935 0.960 . S
H920 C904 0.931 . S
H921 C909 0.929 . S
H922 C910 0.960 . S
H923 C910 0.962 . S
H924 C910 0.960 . S
H925 C911 0.961 . S
H926 C911 0.961 . S
H927 C911 0.961 . S
H928 C912 0.931 . S
H929 C917 0.930 . S
H930 C918 0.956 . S
H931 C918 0.961 . S
H932 C918 0.961 . S
H933 C919 0.958 . S
H934 C919 0.961 . S
H935 C919 0.960 . S
C169 C12 1.491 . S
C177 C141 1.490 . S
C201 C26 1.502 . S
C209 C154 1.509 . S
C233 C96 1.492 . S
C241 C28 1.510 . S
C265 C42 1.490 . S
C273 C110 1.491 . S
C297 C112 1.490 . S
C305 C57 1.512 . S
C329 C126 1.506 . S
C337 C70 1.521 . S
C361 C84 1.133 . S
C369 C0 1.114 . S
C393 C98 1.097 . S
C401 C14 1.098 . S
C425 C124 1.087 1_554 S
C433 C40 1.093 . S
C457 C54 1.062 . S
C465 C138 1.084 . S
C489 C69 1.105 . S
C497 C153 1.103 . S
C521 C82 1.132 . S
C529 C166 1.112 . S
C553 C1 2.289 . S
C561 C55 2.286 . S
C585 C15 2.310 . S
C593 C68 2.274 . S
C617 C41 2.265 . S
C625 C83 2.292 . S
C649 C139 2.310 . S
C657 C85 2.279 . S
C681 C152 2.300 . S
C689 C99 2.279 . S
C713 C167 2.303 . S
C721 C125 2.277 . S
C745 C13 1.918 . S
C753 C113 1.922 . S
C777 C127 1.946 . S
C785 C27 1.960 . S
C809 C29 1.934 . S
C817 C140 1.922 . S
C841 C155 1.935 . S
C849 C43 1.923 . S
C873 C56 1.960 . S
C881 C97 1.952 . S
C905 C71 1.914 . S
C913 C111 1.928 . S
