# Generated by pormake.
# Topology vby, (6)-cn, num edge types: 1
# Building blocks:
#     Node 0, Type 0, BuildingBlock: NUHQIS_clean_sbu_0, # of connection points: 6
#     Node 1, Type 0, BuildingBlock: NUHQIS_clean_sbu_0, # of connection points: 6
#     Node 2, Type 0, BuildingBlock: NUHQIS_clean_sbu_0, # of connection points: 6
#     Node 3, Type 0, BuildingBlock: NUHQIS_clean_sbu_0, # of connection points: 6
#     Node 4, Type 0, BuildingBlock: NUHQIS_clean_sbu_0, # of connection points: 6
#     Node 5, Type 0, BuildingBlock: NUHQIS_clean_sbu_0, # of connection points: 6
#     Node 6, Type 0, BuildingBlock: NUHQIS_clean_sbu_0, # of connection points: 6
#     Node 7, Type 0, BuildingBlock: NUHQIS_clean_sbu_0, # of connection points: 6
#     Edge 8, Type (0, 0), BuildingBlock: XIVTED_clean_linker_0, # of connection points: 2
#     Edge 9, Type (0, 0), BuildingBlock: XIVTED_clean_linker_0, # of connection points: 2
#     Edge 10, Type (0, 0), BuildingBlock: XIVTED_clean_linker_0, # of connection points: 2
#     Edge 11, Type (0, 0), BuildingBlock: XIVTED_clean_linker_0, # of connection points: 2
#     Edge 12, Type (0, 0), BuildingBlock: XIVTED_clean_linker_0, # of connection points: 2
#     Edge 13, Type (0, 0), BuildingBlock: XIVTED_clean_linker_0, # of connection points: 2
#     Edge 14, Type (0, 0), BuildingBlock: XIVTED_clean_linker_0, # of connection points: 2
#     Edge 15, Type (0, 0), BuildingBlock: XIVTED_clean_linker_0, # of connection points: 2
#     Edge 16, Type (0, 0), BuildingBlock: XIVTED_clean_linker_0, # of connection points: 2
#     Edge 17, Type (0, 0), BuildingBlock: XIVTED_clean_linker_0, # of connection points: 2
#     Edge 18, Type (0, 0), BuildingBlock: XIVTED_clean_linker_0, # of connection points: 2
#     Edge 19, Type (0, 0), BuildingBlock: XIVTED_clean_linker_0, # of connection points: 2
#     Edge 20, Type (0, 0), BuildingBlock: XIVTED_clean_linker_0, # of connection points: 2
#     Edge 21, Type (0, 0), BuildingBlock: XIVTED_clean_linker_0, # of connection points: 2
#     Edge 22, Type (0, 0), BuildingBlock: XIVTED_clean_linker_0, # of connection points: 2
#     Edge 23, Type (0, 0), BuildingBlock: XIVTED_clean_linker_0, # of connection points: 2
#     Edge 24, Type (0, 0), BuildingBlock: XIVTED_clean_linker_0, # of connection points: 2
#     Edge 25, Type (0, 0), BuildingBlock: XIVTED_clean_linker_0, # of connection points: 2
#     Edge 26, Type (0, 0), BuildingBlock: XIVTED_clean_linker_0, # of connection points: 2
#     Edge 27, Type (0, 0), BuildingBlock: XIVTED_clean_linker_0, # of connection points: 2
#     Edge 28, Type (0, 0), BuildingBlock: XIVTED_clean_linker_0, # of connection points: 2
#     Edge 29, Type (0, 0), BuildingBlock: XIVTED_clean_linker_0, # of connection points: 2
#     Edge 30, Type (0, 0), BuildingBlock: XIVTED_clean_linker_0, # of connection points: 2
#     Edge 31, Type (0, 0), BuildingBlock: XIVTED_clean_linker_0, # of connection points: 2
# Relax obj value: 0.198
# Max RMSD: 0.230
# Mean RMSD: 0.218
data_MOF--net-vby--node1-NUHQIS_clean_sbu_0--edge1-XIVTED_clean_linker_0
_symmetry_space_group_name_H-M    P1
_symmetry_Int_Tables_number       1
_symmetry_cell_setting            triclinic
loop_
_symmetry_equiv_pos_as_xyz
'x, y, z'
_cell_length_a     15.502347
_cell_length_b     105.44098
_cell_length_c     30.266194
_cell_angle_alpha  86.062928
_cell_angle_beta   89.721278
_cell_angle_gamma 89.975213
loop_
_atom_site_label
_atom_site_type_symbol
_atom_site_fract_x
_atom_site_fract_y
_atom_site_fract_z
_atom_type_partial_charge
Tb0 Tb 0.11066 0.39957 0.97896 0.0
Eu1 Eu 0.10728 0.3678 0.99013 0.0
C2 C 0.10309 0.38503 0.07223 0.0
C3 C 0.28388 0.38336 0.98227 0.0
C4 C 0.09313 0.43588 0.9847 0.0
C5 C 0.11745 0.45397 0.02907 0.0
C6 C 0.13332 0.44133 0.02045 0.0
C7 C 1.03383 0.44324 0.95899 0.0
C8 C 1.01761 0.45589 0.96778 0.0
C9 C 0.06119 0.46151 0.00214 0.0
C10 C 0.12416 0.42355 0.96991 0.0
O11 O 0.13738 0.39238 0.91469 0.0
O12 O 0.05469 0.37456 0.92394 0.0
O13 O 0.97122 0.37391 0.00226 0.0
O14 O 0.97324 0.39504 0.97579 0.0
C15 C 0.09044 0.38354 0.8981 0.0
O16 O 0.11791 0.34984 0.95941 0.0
O17 O 0.08563 0.34978 0.0294 0.0
O18 O 0.14101 0.37523 0.05578 0.0
O19 O 0.07086 0.3944 0.04657 0.0
O20 O 0.24182 0.39341 -0.00599 0.0
O21 O 0.24408 0.37298 0.97209 0.0
C22 C 0.9317 0.38458 0.98974 0.0
O23 O 0.16821 0.41627 -0.00195 0.0
O24 O 0.07409 0.41697 0.94554 0.0
C25 C 0.14725 0.3307 0.00368 0.0
C26 C 0.21041 0.30546 0.00912 0.0
C27 C 0.24547 0.31467 0.97825 0.0
C28 C 0.21414 0.32716 0.9755 0.0
C29 C 0.11532 0.3217 0.03595 0.0
C30 C 0.14666 0.30923 0.03875 0.0
C31 C 0.10123 0.34293 -0.00411 0.0
H32 H 0.15113 0.45796 0.05616 0.0
H33 H 0.18018 0.43601 0.04066 0.0
H34 H 1.00297 0.43942 0.93074 0.0
H35 H 0.97441 0.46147 0.94617 0.0
H36 H 0.29418 0.3121 0.9547 0.0
H37 H 0.23979 0.33386 0.95005 0.0
H38 H 0.0634 0.32416 0.05789 0.0
H39 H 0.11936 0.30246 0.06349 0.0
Tb40 Tb 0.96875 0.61955 0.99093 0.0
Eu41 Eu 0.97214 0.65127 0.98842 0.0
C42 C 0.97912 0.63378 0.07785 0.0
C43 C 0.79562 0.63559 0.98922 0.0
C44 C 0.98719 0.58278 0.00337 0.0
C45 C 0.95814 0.56217 0.04185 0.0
C46 C 0.94178 0.5752 0.03563 0.0
C47 C 0.05264 0.57715 0.97901 0.0
C48 C 0.06927 0.56409 0.98537 0.0
C49 C 1.02014 0.55638 0.01583 0.0
C50 C 0.95429 0.59567 0.99009 0.0
O51 O 0.93869 0.62733 0.92436 0.0
O52 O 1.02246 0.64503 0.92398 0.0
O53 O 0.10887 0.6451 3e-05 0.0
O54 O 0.10621 0.6239 0.98433 0.0
C55 C 0.98584 0.63606 0.9029 0.0
O56 O 0.95142 0.66958 0.9523 0.0
O57 O 1.00234 0.66892 0.0192 0.0
O58 O 0.93947 0.64352 0.05752 0.0
O59 O 1.01107 0.62451 0.05584 0.0
O60 O 0.83783 0.62551 0.00511 0.0
O61 O 0.83525 0.64601 0.97414 0.0
C62 C 0.14799 0.63439 0.9925 0.0
O63 O 0.92079 0.60236 0.02053 0.0
O64 O 0.99576 0.60273 0.9599 0.0
C65 C 0.92942 0.68799 -0.00692 0.0
C66 C 0.86067 0.71265 7e-05 0.0
C67 C 0.827 0.70458 0.96925 0.0
C68 C 0.86104 0.69239 0.96574 0.0
C69 C 0.96081 0.69586 0.02496 0.0
C70 C 0.9267 0.70802 0.02854 0.0
C71 C 0.97632 0.67613 0.98504 0.0
H72 H 0.92008 0.55654 0.06605 0.0
H73 H 0.8902 0.57922 0.05453 0.0
H74 H 0.088 0.58267 0.95344 0.0
H75 H 0.11713 0.55991 0.96459 0.0
H76 H 0.77533 0.70777 0.94724 0.0
H77 H 0.83558 0.68659 0.94065 0.0
H78 H 1.01431 0.6928 0.046 0.0
H79 H 0.95492 0.71402 0.05229 0.0
Tb80 Tb 0.1073 0.65093 0.48828 0.0
Eu81 Eu 0.11116 0.61918 0.48941 0.0
C82 C 0.10122 0.63677 0.40201 0.0
C83 C 0.93183 0.63493 0.48999 0.0
C84 C 0.15245 0.68669 0.49281 0.0
C85 C 0.21091 0.70687 0.46228 0.0
C86 C 0.17679 0.69486 0.45631 0.0
C87 C 0.16507 0.69069 0.5357 0.0
C88 C 0.19942 0.70276 0.54173 0.0
C89 C 0.22144 0.71109 0.50503 0.0
C90 C 0.10371 0.67498 0.48485 0.0
O91 O 0.13704 0.64354 0.55541 0.0
O92 O 0.06559 0.62447 0.55612 0.0
O93 O 0.24429 0.62544 0.50602 0.0
O94 O 0.24225 0.64617 0.47679 0.0
C95 C 0.09672 0.634 0.57686 0.0
O96 O 0.14781 0.6006 0.52028 0.0
O97 O 0.09282 0.60204 0.45408 0.0
O98 O 0.1477 0.62778 0.42203 0.0
O99 O 0.06205 0.64517 0.42493 0.0
O100 O 0.97344 0.64531 0.49928 0.0
O101 O 0.9712 0.62438 0.4805 0.0
C102 C 0.28415 0.6359 0.49177 0.0
O103 O 0.12955 0.66838 0.45238 0.0
O104 O 0.07687 0.66772 0.51879 0.0
C105 C 0.09036 0.58137 0.49289 0.0
C106 C 0.06252 0.55478 0.4997 0.0
C107 C 0.08377 0.56121 0.53739 0.0
C108 C 0.09812 0.57437 0.53397 0.0
C109 C 0.06409 0.57503 0.45589 0.0
C110 C 0.05024 0.56191 0.45926 0.0
C111 C 0.124 0.59452 0.4862 0.0
H112 H 0.22551 0.71306 0.43317 0.0
H113 H 0.16625 0.69215 0.42286 0.0
H114 H 0.14621 0.68468 0.56457 0.0
H115 H 0.20754 0.70563 0.57513 0.0
H116 H 0.0941 0.55597 0.56897 0.0
H117 H 0.1194 0.57893 0.563 0.0
H118 H 0.05851 0.58011 0.42367 0.0
H119 H 1.03263 0.55727 0.42977 0.0
Tb120 Tb 0.96821 0.39779 0.47892 0.0
Eu121 Eu 0.97463 0.36603 0.49136 0.0
C122 C 0.98914 0.38148 0.3989 0.0
C123 C 0.79625 0.38131 0.48355 0.0
C124 C 0.99209 0.43418 0.47658 0.0
C125 C 1.03365 0.45534 0.44699 0.0
C126 C 1.01278 0.44272 0.44052 0.0
C127 C 0.99579 0.4384 0.51963 0.0
C128 C 1.01674 0.45107 0.52615 0.0
C129 C 1.03415 0.45977 0.4898 0.0
C130 C 0.95486 0.4217 0.46763 0.0
O131 O 1.00864 0.39284 0.54641 0.0
O132 O 0.93951 0.37362 0.55673 0.0
O133 O 0.10984 0.37251 0.50298 0.0
O134 O 0.10585 0.39347 0.47463 0.0
C135 C 0.97652 0.38354 0.5726 0.0
O136 O 0.99679 0.34811 0.53117 0.0
O137 O 0.96672 0.34798 0.46111 0.0
O138 O 1.02653 0.3727 0.42467 0.0
O139 O 0.9404 0.39011 0.4157 0.0
O140 O 0.83695 0.39158 0.49421 0.0
O141 O 0.8373 0.37094 0.47403 0.0
C142 C 0.14838 0.38319 0.48933 0.0
O143 O 0.9959 0.41473 0.44041 0.0
O144 O 0.91964 0.41488 0.50046 0.0
C145 C 0.93793 0.3289 0.50552 0.0
C146 C 0.87292 0.30378 0.50945 0.0
C147 C 0.94483 0.30685 0.53481 0.0
C148 C 0.97697 0.31927 0.53277 0.0
C149 C 0.86354 0.32603 0.48179 0.0
C150 C 0.83135 0.31359 0.48376 0.0
C151 C 0.98316 0.34118 0.49775 0.0
H152 H 0.04531 0.46176 0.41811 0.0
H153 H 1.00901 0.43977 0.40697 0.0
H154 H 0.97969 0.43206 0.54814 0.0
H155 H 1.01768 0.4541 0.5596 0.0
H156 H 0.97907 0.29955 0.55459 0.0
H157 H 1.03495 0.32122 0.55098 0.0
H158 H 0.83207 0.33328 0.46047 0.0
H159 H 0.77498 0.3116 0.46441 0.0
Tb160 Tb 0.61447 0.89915 0.98962 0.0
Eu161 Eu 0.61346 0.86763 0.00808 0.0
C162 C 0.60175 0.88673 0.08552 0.0
C163 C 0.7878 0.88294 0.99268 0.0
C164 C 0.59213 0.93571 0.98463 0.0
C165 C 0.59396 0.95397 0.02984 0.0
C166 C 0.61044 0.94109 0.02481 0.0
C167 C 0.55341 0.94335 0.95043 0.0
C168 C 0.53685 0.95622 0.95546 0.0
C169 C 0.55922 0.96178 -0.00524 0.0
C170 C 0.62611 0.92304 0.97506 0.0
O171 O 0.64437 0.8914 0.92645 0.0
O172 O 0.58093 0.87175 0.93653 0.0
O173 O 0.4784 0.87417 0.02214 0.0
O174 O 0.47898 0.89379 0.98337 0.0
C175 C 0.60875 0.88136 0.91058 0.0
O176 O 0.56206 0.84876 -0.00227 0.0
O177 O 0.66097 0.85091 0.04697 0.0
O178 O 0.64089 0.87676 0.07131 0.0
O179 O 0.57059 0.89569 0.05783 0.0
O180 O 0.74606 0.89295 0.00532 0.0
O181 O 0.74672 0.87262 0.98283 0.0
C182 C 0.43762 0.88397 0.00279 0.0
O183 O 0.66714 0.91647 0.00639 0.0
O184 O 0.5798 0.91581 0.95115 0.0
C185 C 0.6506 0.83055 0.01713 0.0
C186 C 0.70442 0.80515 0.00901 0.0
C187 C 0.64034 0.81065 0.98104 0.0
C188 C 0.61345 0.82319 0.98519 0.0
C189 C 0.7169 0.82521 0.04391 0.0
C190 C 0.74367 0.81268 0.0398 0.0
C191 C 0.61284 0.84298 0.02689 0.0
H192 H 0.6127 0.95793 0.06044 0.0
H193 H 0.64129 0.93552 0.05169 0.0
H194 H 0.53946 0.93952 0.91892 0.0
H195 H 0.5086 0.96188 0.92804 0.0
H196 H 0.60814 0.80508 0.95726 0.0
H197 H 0.56129 0.82694 0.9645 0.0
H198 H 0.74623 0.83056 0.06921 0.0
H199 H 0.79412 0.80882 0.0614 0.0
Tb200 Tb 0.47122 0.119 0.03129 0.0
Eu201 Eu 0.47448 0.15079 0.01889 0.0
C202 C 0.48816 0.13539 0.11134 0.0
C203 C 0.29772 0.13512 0.02634 0.0
C204 C 0.4947 0.08248 0.03306 0.0
C205 C 0.55165 0.06204 0.06194 0.0
C206 C 0.5343 0.07488 0.0671 0.0
C207 C 0.47638 0.07708 0.9929 0.0
C208 C 0.49366 0.06423 0.98774 0.0
C209 C 0.52917 0.05645 0.02269 0.0
C210 C 0.45926 0.09506 0.04275 0.0
O211 O 0.51218 0.12402 0.9637 0.0
O212 O 0.44162 0.14314 0.95352 0.0
O213 O 0.61053 0.14461 0.00726 0.0
O214 O 0.60838 0.12361 0.03521 0.0
C215 C 0.48012 0.13331 0.93759 0.0
O216 O 0.49652 0.16871 0.97909 0.0
O217 O 0.46317 0.16884 0.04891 0.0
O218 O 0.52547 0.14424 0.08564 0.0
O219 O 0.44098 0.12664 0.09444 0.0
O220 O 0.33991 0.12496 0.01562 0.0
O221 O 0.33728 0.14558 0.03603 0.0
C222 C 0.64999 0.134 0.0206 0.0
O223 O 0.5021 0.10206 0.06899 0.0
O224 O 0.42188 0.10188 0.01076 0.0
C225 C 0.43418 0.18786 0.0039 0.0
C226 C 0.37079 0.21309 -0.00249 0.0
C227 C 0.43507 0.20926 0.96826 0.0
C228 C 0.46653 0.1968 0.97154 0.0
C229 C 0.36675 0.19145 0.03167 0.0
C230 C 0.33531 0.20393 0.02845 0.0
C231 C 0.4803 0.17565 0.01228 0.0
H232 H 0.58046 0.0564 0.08926 0.0
H233 H 0.54824 0.0787 0.09861 0.0
H234 H 0.44474 0.0826 0.96616 0.0
H235 H 0.47481 0.06025 0.95719 0.0
H236 H 0.46271 0.21598 0.94348 0.0
H237 H 0.51886 0.1943 0.94992 0.0
H238 H 0.34076 0.1848 0.05716 0.0
H239 H 0.2862 0.20654 0.05171 0.0
Tb240 Tb 0.60506 0.15043 0.51924 0.0
Eu241 Eu 0.61259 0.1187 0.53145 0.0
C242 C 0.59759 0.13382 0.43763 0.0
C243 C 0.43144 0.13411 0.523 0.0
C244 C 0.64506 0.18648 0.50426 0.0
C245 C 0.64018 0.20846 0.47407 0.0
C246 C 0.60617 0.19615 0.4771 0.0
C247 C 0.7214 0.18918 0.52668 0.0
C248 C 0.75541 0.20152 0.52373 0.0
C249 C 0.7138 0.21139 0.49837 0.0
C250 C 0.59742 0.17446 0.51379 0.0
O251 O 0.55842 0.14402 0.58471 0.0
O252 O 0.64601 0.12684 0.59566 0.0
O253 O 0.74528 0.1255 0.51245 0.0
O254 O 0.7403 0.14609 0.53303 0.0
C255 C 0.59851 0.13574 0.6115 0.0
O256 O 0.58444 0.10087 0.57026 0.0
O257 O 0.66306 0.1008 0.51056 0.0
O258 O 0.56792 0.1241 0.46255 0.0
O259 O 0.63568 0.14349 0.45481 0.0
O260 O 0.47229 0.14463 0.5095 0.0
O261 O 0.47164 0.1236 0.53715 0.0
C262 C 0.78369 0.136 0.52238 0.0
O263 O 0.5792 0.16753 0.48101 0.0
O264 O 0.61761 0.16756 0.54963 0.0
C265 C 0.59368 0.08123 0.53483 0.0
C266 C 0.55961 0.05526 0.52402 0.0
C267 C 0.54799 0.06034 0.56542 0.0
C268 C 0.56511 0.07316 0.57075 0.0
C269 C 0.60161 0.07632 0.49294 0.0
C270 C 0.58464 0.06348 0.48761 0.0
C271 C 0.62703 0.09398 0.54325 0.0
H272 H 0.60592 0.21581 0.45455 0.0
H273 H 0.54675 0.19433 0.4599 0.0
H274 H 0.75287 0.18191 0.5479 0.0
H275 H 0.81307 0.2034 0.54226 0.0
H276 H 0.52978 0.05427 0.59429 0.0
H277 H 0.55977 0.07662 0.60353 0.0
H278 H 0.62396 0.08227 0.46459 0.0
H279 H 0.59295 0.05992 0.45513 0.0
Tb280 Tb 0.46169 0.89828 0.49303 0.0
Eu281 Eu 0.46545 0.86652 0.50284 0.0
C282 C 0.47754 0.88265 0.41138 0.0
C283 C 0.28881 0.88217 0.49852 0.0
C284 C 0.48697 0.93468 0.49152 0.0
C285 C 0.53624 0.95547 0.4616 0.0
C286 C 0.51694 0.94274 0.45585 0.0
C287 C 0.48037 0.93948 0.53362 0.0
C288 C 0.49955 0.95224 0.53937 0.0
C289 C 0.52542 0.96047 0.50317 0.0
C290 C 0.44962 0.92222 0.48244 0.0
O291 O 0.50588 0.89311 0.55972 0.0
O292 O 0.43936 0.87365 0.57013 0.0
O293 O 0.60178 0.87253 0.51346 0.0
O294 O 0.599 0.89373 0.48764 0.0
C295 C 0.47769 0.88351 0.58586 0.0
O296 O 0.48123 0.84829 0.54155 0.0
O297 O 0.45991 0.84872 0.47066 0.0
O298 O 0.5153 0.87361 0.43596 0.0
O299 O 0.42942 0.89106 0.42967 0.0
O300 O 0.33123 0.89214 0.51058 0.0
O301 O 0.32833 0.87188 0.487 0.0
C302 C 0.64092 0.88325 0.50089 0.0
O303 O 0.49018 0.91526 0.45498 0.0
O304 O 0.41432 0.91536 0.51519 0.0
C305 C 0.42361 0.82934 0.51245 0.0
C306 C 0.36477 0.80385 0.51757 0.0
C307 C 0.39869 0.80919 0.55511 0.0
C308 C 0.42832 0.82177 0.55249 0.0
C309 C 0.38541 0.82419 0.47561 0.0
C310 C 0.35632 0.81161 0.47817 0.0
C311 C 0.47072 0.84161 0.5072 0.0
H312 H 0.5551 0.96154 0.43288 0.0
H313 H 0.52128 0.93936 0.4229 0.0
H314 H 0.45693 0.93356 0.56179 0.0
H315 H 0.49186 0.95573 0.57198 0.0
H316 H 0.4066 0.80343 0.58587 0.0
H317 H 0.45862 0.82538 0.58126 0.0
H318 H 0.38131 0.82968 0.4441 0.0
H319 H 0.32933 0.80784 0.44884 0.0
H320 H 0.38806 0.40414 0.98739 0.0
H321 H 0.8247 0.36402 0.00185 0.0
H322 H 0.39769 0.36349 0.9777 0.0
H323 H 0.82018 0.40485 0.97729 0.0
H324 H 0.66778 0.36375 -0.00054 0.0
H325 H 0.54544 0.40462 0.98944 0.0
C326 C 0.42318 0.3953 0.98569 0.0
C327 C 0.3794 0.38373 0.98244 0.0
C328 C 0.70104 0.37277 -0.00543 0.0
C329 C 0.5599 0.38426 0.98499 0.0
C330 C 0.79085 0.37296 -0.00384 0.0
C331 C 0.83607 0.3845 0.98979 0.0
C332 C 0.65553 0.3842 0.98693 0.0
C333 C 0.7882 0.39574 0.98231 0.0
C334 C 0.51313 0.39561 0.98674 0.0
C335 C 0.42857 0.37262 0.98013 0.0
N336 N 0.70047 0.39532 0.98121 0.0
N337 N 0.51616 0.37315 0.98168 0.0
H338 H 0.25484 0.65496 0.99277 0.0
H339 H 0.69131 0.61481 0.00505 0.0
H340 H 0.25938 0.61402 0.9915 0.0
H341 H 0.68216 0.65537 0.97378 0.0
H342 H 0.53377 0.61428 0.00571 0.0
H343 H 0.41167 0.65517 0.99165 0.0
C344 C 0.2887 0.64598 0.99239 0.0
C345 C 0.24353 0.63443 0.99229 0.0
C346 C 0.56629 0.62328 -0.00139 0.0
C347 C 0.42405 0.63466 0.99096 0.0
C348 C 0.65628 0.62362 -0.00162 0.0
C349 C 0.70019 0.63517 0.98941 0.0
C350 C 0.5197 0.63459 0.99025 0.0
C351 C 0.6512 0.64625 0.98078 0.0
C352 C 0.37849 0.64614 0.99155 0.0
C353 C 0.2914 0.62314 0.99152 0.0
N354 N 0.56362 0.64569 0.98161 0.0
N355 N 0.37918 0.62353 0.99105 0.0
H356 H 0.82681 0.65577 0.4928 0.0
H357 H 0.39096 0.61544 0.50585 0.0
H358 H 0.81889 0.61495 0.48769 0.0
H359 H 0.39539 0.65615 0.47769 0.0
H360 H 0.54795 0.61525 0.50536 0.0
H361 H 0.66931 0.6562 0.49314 0.0
C362 C 0.79208 0.64688 0.49185 0.0
C363 C 0.83635 0.63528 0.49026 0.0
C364 C 0.51469 0.62423 0.49922 0.0
C365 C 0.65583 0.63576 0.49074 0.0
C366 C 0.42485 0.62437 0.49966 0.0
C367 C 0.37966 0.63585 0.49181 0.0
C368 C 0.56018 0.63565 0.49124 0.0
C369 C 0.42746 0.64708 0.48379 0.0
C370 C 0.70209 0.64716 0.49187 0.0
C371 C 0.78767 0.6241 0.48883 0.0
N372 N 0.51523 0.64671 0.48387 0.0
N373 N 0.70006 0.62462 0.48928 0.0
H374 H 0.68528 0.36112 0.47958 0.0
H375 H 0.2574 0.40372 0.47597 0.0
H376 H 0.68921 0.40185 0.48758 0.0
H377 H 0.25761 0.36291 0.50173 0.0
H378 H 0.41545 0.40335 0.47398 0.0
H379 H 0.52758 0.36171 0.481 0.0
C380 C 0.6531 0.37019 0.48152 0.0
C381 C 0.7007 0.38145 0.4836 0.0
C382 C 0.38069 0.3945 0.48019 0.0
C383 C 0.52014 0.38219 0.48512 0.0
C384 C 0.2905 0.3947 0.48127 0.0
C385 C 0.24397 0.38334 0.48914 0.0
C386 C 0.42458 0.38285 0.48651 0.0
C387 C 0.2905 0.37193 0.49579 0.0
C388 C 0.56304 0.37051 0.48249 0.0
C389 C 0.6553 0.39292 0.48616 0.0
N390 N 0.37802 0.37197 0.49413 0.0
N391 N 0.56764 0.393 0.48673 0.0
H392 H 0.89362 0.90369 -0.00658 0.0
H393 H 0.32991 0.86366 0.02143 0.0
H394 H 0.90099 0.86281 0.99151 0.0
H395 H 0.3261 0.90377 0.98189 0.0
H396 H 0.17238 0.86332 0.01772 0.0
H397 H 0.05122 0.90402 -0.00433 0.0
C398 C 0.92831 0.89477 -0.00658 0.0
C399 C 0.8837 0.8832 0.99228 0.0
C400 C 0.20602 0.87219 0.00984 0.0
C401 C 0.06474 0.88353 -0.00471 0.0
C402 C 0.29607 0.87242 0.0122 0.0
C403 C 0.34168 0.88378 0.00202 0.0
C404 C 0.16071 0.88342 -0.00224 0.0
C405 C 0.29392 0.8948 0.98995 0.0
C406 C 1.01841 0.89498 -0.0054 0.0
C407 C 0.93246 0.87196 0.99217 0.0
N408 N 0.20618 0.89435 0.98837 0.0
N409 N 1.02023 0.8724 -0.00602 0.0
H410 H 0.19337 0.11431 0.02208 0.0
H411 H 0.75706 0.15451 0.00728 0.0
H412 H 0.18415 0.15504 0.02985 0.0
H413 H 0.7613 0.11373 0.03387 0.0
H414 H 0.914 0.15474 0.00897 0.0
H415 H 1.03593 0.11384 0.02042 0.0
C416 C 0.15834 0.12317 0.02341 0.0
C417 C 0.20223 0.13475 0.02606 0.0
C418 C 0.88069 0.14574 0.01447 0.0
C419 C 1.02174 0.13424 0.02398 0.0
C420 C 0.79087 0.14557 0.0133 0.0
C421 C 0.74558 0.13406 0.02044 0.0
C422 C 0.92611 0.13431 0.02246 0.0
C423 C 0.79336 0.12282 0.02829 0.0
C424 C 0.06838 0.12287 0.0226 0.0
C425 C 0.15319 0.14589 0.0279 0.0
N426 N 0.88111 0.12323 0.02896 0.0
N427 N 0.0656 0.14536 0.02662 0.0
H428 H 0.32045 0.11385 0.53377 0.0
H429 H 0.89264 0.15647 0.52772 0.0
H430 H 0.32444 0.15475 0.51156 0.0
H431 H 0.89277 0.11583 0.51698 0.0
H432 H 0.05085 0.15613 0.52773 0.0
H433 H 0.16287 0.11447 0.5337 0.0
C434 C 0.28832 0.12296 0.52889 0.0
C435 C 0.33592 0.13425 0.52257 0.0
C436 C 1.016 0.14731 0.52529 0.0
C437 C 0.1554 0.13504 0.52269 0.0
C438 C 0.92576 0.14749 0.52539 0.0
C439 C 0.87922 0.13618 0.52226 0.0
C440 C 0.05983 0.13571 0.52252 0.0
C441 C 0.92569 0.12482 0.51925 0.0
C442 C 0.1983 0.1233 0.52875 0.0
C443 C 0.29053 0.14578 0.51633 0.0
N444 N 1.01321 0.12487 0.51962 0.0
N445 N 0.20287 0.14588 0.51671 0.0
H446 H 0.74801 0.86268 0.51005 0.0
H447 H 0.18429 0.90285 0.50655 0.0
H448 H 0.75212 0.90366 0.49134 0.0
H449 H 0.17542 0.86247 0.4909 0.0
H450 H 1.02666 0.90337 0.50692 0.0
H451 H 0.90489 0.86252 0.50927 0.0
C452 C 0.7818 0.87168 0.50591 0.0
C453 C 0.73649 0.88323 0.50081 0.0
C454 C 0.05928 0.89441 0.50333 0.0
C455 C 0.91707 0.88305 0.49989 0.0
C456 C 0.14931 0.89408 0.50328 0.0
C457 C 0.19333 0.88258 0.49876 0.0
C458 C 1.01276 0.88314 0.49928 0.0
C459 C 0.14439 0.87155 0.4944 0.0
C460 C 0.87161 0.87155 0.50527 0.0
C461 C 0.78426 0.89454 0.4953 0.0
N462 N 0.0568 0.8721 0.49496 0.0
N463 N 0.87206 0.89417 0.49515 0.0
H464 H 0.16785 0.54189 0.01507 0.0
H465 H 0.91434 0.47618 -0.00072 0.0
H466 H 0.89041 0.53875 0.02009 0.0
H467 H 0.18972 0.47846 0.01717 0.0
H468 H 0.90438 0.49918 0.00519 0.0
H469 H 0.17772 0.51872 0.01424 0.0
C470 C 0.10907 0.53633 0.01613 0.0
C471 C 1.02823 0.54229 0.01782 0.0
C472 C 0.96694 0.49464 0.0081 0.0
C473 C 1.03892 0.51576 0.0167 0.0
C474 C 0.97265 0.48151 0.00454 0.0
C475 C 0.05291 0.47536 0.00786 0.0
C476 C 0.04215 0.50172 0.01454 0.0
C477 C 0.12632 0.48276 0.01501 0.0
C478 C 0.1147 0.5231 0.01582 0.0
C479 C 0.95417 0.53458 0.01942 0.0
N480 N 0.11924 0.49553 0.01785 0.0
N481 N 0.96129 0.52175 0.01857 0.0
H482 H 0.14656 0.47629 0.44519 0.0
H483 H 0.98673 0.53811 0.56249 0.0
H484 H 0.95154 0.47481 0.54774 0.0
H485 H 0.1347 0.53926 0.4412 0.0
H486 H 0.98565 0.51477 0.5638 0.0
H487 H 0.15633 0.49925 0.44984 0.0
C488 C 0.10583 0.48077 0.46877 0.0
C489 C 0.04749 0.47356 0.49578 0.0
C490 C 1.01823 0.52016 0.53691 0.0
C491 C 0.05897 0.49995 0.50154 0.0
C492 C 1.01905 0.53346 0.53622 0.0
C493 C 0.06005 0.54065 0.50143 0.0
C494 C 0.05973 0.51402 0.50289 0.0
C495 C 0.10089 0.53413 0.46822 0.0
C496 C 0.11162 0.4939 0.47148 0.0
C497 C 0.99793 0.47993 0.52645 0.0
N498 N 0.09977 0.52123 0.46982 0.0
N499 N 1.00446 0.49276 0.52833 0.0
H500 H 0.59463 0.98079 0.9307 0.0
H501 H 0.49474 0.03743 0.08681 0.0
H502 H 0.50895 0.97483 0.06646 0.0
H503 H 0.57927 0.04343 0.95088 0.0
H504 H 0.50149 0.01452 0.08022 0.0
H505 H 0.5881 1.00371 0.93727 0.0
C506 C 0.57346 0.98428 0.96179 0.0
C507 C 0.55191 0.9758 -0.00196 0.0
C508 C 0.51881 0.02084 0.05185 0.0
C509 C 0.54591 1.00216 0.00601 0.0
C510 C 0.51574 0.03396 0.05568 0.0
C511 C 0.53689 0.04244 0.0194 0.0
C512 C 0.54313 0.01609 0.0114 0.0
C513 C 0.56164 0.0373 0.97963 0.0
C514 C 0.5705 0.9974 0.96561 0.0
C515 C 0.52693 0.98096 0.03775 0.0
N516 N 0.56406 0.02448 0.97672 0.0
N517 N 0.52464 0.99378 0.04065 0.0
H518 H 0.43802 0.03885 0.56182 0.0
H519 H 0.64771 0.97682 0.46554 0.0
H520 H 0.66289 0.03983 0.477 0.0
H521 H 0.42315 0.97592 0.55058 0.0
H522 H 0.65483 0.99989 0.46954 0.0
H523 H 0.43147 0.01579 0.55799 0.0
C524 C 0.48601 0.03422 0.54236 0.0
C525 C 0.5511 0.04133 0.51969 0.0
C526 C 0.60417 0.99464 0.48746 0.0
C527 C 0.54389 0.01487 0.51509 0.0
C528 C 0.59997 0.98146 0.48512 0.0
C529 C 0.53479 0.97438 0.50779 0.0
C530 C 0.54259 1.00083 0.51255 0.0
C531 C 0.47533 0.98092 0.53306 0.0
C532 C 0.48212 0.02105 0.5401 0.0
C533 C 0.61084 0.0348 0.49453 0.0
N534 N 0.4805 0.99375 0.53463 0.0
N535 N 0.60594 0.02196 0.49303 0.0
H536 H 0.37224 0.29547 -0.00333 0.0
H537 H 0.20876 0.2231 0.00921 0.0
H538 H 0.1069 0.28436 0.01949 0.0
H539 H 0.47431 0.23419 0.98697 0.0
H540 H 0.17009 0.2455 0.01289 0.0
H541 H 0.41085 0.27308 0.99266 0.0
C542 C 0.32205 0.28834 0.00082 0.0
C543 C 0.23617 0.29185 0.00856 0.0
C544 C 0.2368 0.24303 0.00706 0.0
C545 C 0.28004 0.26613 0.00416 0.0
C546 C 0.25898 0.23023 0.0051 0.0
C547 C 0.34495 0.22671 -0.00234 0.0
C548 C 0.301 0.25243 0.00168 0.0
C549 C 0.40699 0.23642 0.99206 0.0
C550 C 0.3442 0.27554 -0.00133 0.0
C551 C 0.17416 0.28213 0.01419 0.0
N552 N 0.38385 0.2488 -0.00572 0.0
N553 N 0.19726 0.26976 0.0118 0.0
H554 H 0.73398 0.7879 0.07919 0.0
H555 H 0.82364 0.72948 0.92948 0.0
H556 H 0.72462 0.79105 0.93635 0.0
H557 H 0.83143 0.72653 0.07235 0.0
H558 H 0.78331 0.75184 0.93123 0.0
H559 H 0.76848 0.76538 0.07714 0.0
C560 C 0.73995 0.78389 0.04732 0.0
C561 C 0.72689 0.79144 0.00785 0.0
C562 C 0.7935 0.74629 0.96221 0.0
C563 C 0.76516 0.7655 0.00531 0.0
C564 C 0.81586 0.73348 0.96127 0.0
C565 C 0.83098 0.72607 0.00086 0.0
C566 C 0.78613 0.75179 0.00303 0.0
C567 C 0.82148 0.73188 0.04099 0.0
C568 C 0.759 0.77098 0.0462 0.0
C569 C 0.73352 0.7856 0.96762 0.0
N570 N 0.79985 0.74438 0.04103 0.0
N571 N 0.75235 0.773 0.96739 0.0
H572 H 0.3445 0.72492 0.45712 0.0
H573 H 0.27839 0.78891 0.58173 0.0
H574 H 0.16513 0.72766 0.56562 0.0
H575 H 0.40659 0.78726 0.45543 0.0
H576 H 0.24858 0.76603 0.58183 0.0
H577 H 0.38113 0.74727 0.46183 0.0
C578 C 0.31275 0.7302 0.48199 0.0
C579 C 0.25082 0.72436 0.51069 0.0
C580 C 0.28309 0.7707 0.5541 0.0
C581 C 0.29343 0.75006 0.51656 0.0
C582 C 0.30031 0.78374 0.55408 0.0
C583 C 0.34437 0.79004 0.51833 0.0
C584 C 0.31116 0.76388 0.51838 0.0
C585 C 0.37111 0.78286 0.48332 0.0
C586 C 0.33394 0.74298 0.48472 0.0
C587 C 0.21364 0.73168 0.54297 0.0
N588 N 0.35429 0.7702 0.48429 0.0
N589 N 0.2352 0.74416 0.54489 0.0
H590 H 0.81998 0.29155 0.4371 0.0
H591 H 0.77037 0.22354 0.57011 0.0
H592 H 0.86443 0.2851 0.57753 0.0
H593 H 0.72148 0.23004 0.43011 0.0
H594 H 0.80827 0.24593 0.57303 0.0
H595 H 0.78306 0.26912 0.43392 0.0
C596 C 0.82102 0.28546 0.46741 0.0
C597 C 0.84528 0.29028 0.50769 0.0
C598 C 0.78955 0.24246 0.54162 0.0
C599 C 0.80453 0.26444 0.50407 0.0
C600 C 0.76865 0.22962 0.53982 0.0
C601 C 0.74278 0.22484 0.49976 0.0
C602 C 0.78465 0.25065 0.5031 0.0
C603 C 0.74012 0.2333 0.46183 0.0
C604 C 0.80065 0.27261 0.46547 0.0
C605 C 0.8471 0.28182 0.54565 0.0
N606 N 0.76065 0.24577 0.46445 0.0
N607 N 0.82714 0.26934 0.54288 0.0
H608 H 1.02116 0.40301 0.11834 0.0
H609 H 0.08127 0.36456 0.35319 0.0
H610 H 0.15596 0.36718 0.13648 0.0
H611 H 0.93446 0.39933 0.33489 0.0
H612 H 0.11215 0.3657 0.27405 0.0
H613 H 0.99339 0.40228 0.19787 0.0
C614 C 0.04539 0.39502 0.13903 0.0
C615 C 0.09081 0.38511 0.12063 0.0
C616 C 0.07306 0.37307 0.28728 0.0
C617 C 0.05874 0.38421 0.21174 0.0
C618 C 0.05525 0.37243 0.33251 0.0
C619 C 1.00508 0.38187 0.35071 0.0
C620 C 1.0407 0.38325 0.25994 0.0
C621 C 0.97322 0.39183 0.32226 0.0
C622 C 1.02923 0.3946 0.18446 0.0
C623 C 0.12057 0.37501 0.14914 0.0
N624 N 0.9917 0.39227 0.27825 0.0
N625 N 0.10381 0.37481 0.19325 0.0
H626 H 0.06596 0.61604 0.13104 0.0
H627 H 1.00868 0.65394 0.34955 0.0
H628 H 0.92674 0.65146 0.13464 0.0
H629 H 0.15764 0.61943 0.34486 0.0
H630 H 0.97689 0.65306 0.27096 0.0
H631 H 0.0971 0.61683 0.20977 0.0
C632 C 0.04146 0.62395 0.14839 0.0
C633 C 0.9937 0.63371 0.12611 0.0
C634 C 1.01672 0.6457 0.28707 0.0
C635 C 1.0297 0.63469 0.21628 0.0
C636 C 1.03509 0.6462 0.33197 0.0
C637 C 0.0859 0.63674 0.35387 0.0
C638 C 0.04919 0.63563 0.26385 0.0
C639 C 0.11829 0.62694 0.32934 0.0
C640 C 0.05957 0.62441 0.19335 0.0
C641 C 0.96383 0.64372 0.15038 0.0
N642 N 0.09917 0.62663 0.28567 0.0
N643 N 0.98247 0.64396 0.19412 0.0
H644 H 0.92779 0.61828 0.84809 0.0
H645 H 0.15172 0.65193 0.63172 0.0
H646 H 0.07603 0.65296 0.84788 0.0
H647 H 1.01206 0.61648 0.63229 0.0
H648 H 0.12424 0.65246 0.71101 0.0
H649 H 0.95623 0.61756 0.76881 0.0
C650 C 0.966 0.62577 0.83138 0.0
C651 C 0.99951 0.6357 0.85468 0.0
C652 C 0.09979 0.64454 0.69381 0.0
C653 C 1.03265 0.6349 0.76402 0.0
C654 C 0.11561 0.64422 0.64851 0.0
C655 C 0.08417 0.63414 0.62525 0.0
C656 C 0.05198 0.63473 0.71607 0.0
C657 C 1.03763 0.62443 0.64882 0.0
C658 C 0.98243 0.62533 0.78612 0.0
C659 C 0.04885 0.64512 0.8313 0.0
N660 N 1.02279 0.62499 0.69291 0.0
N661 N 0.06393 0.64448 0.7873 0.0
H662 H 0.92184 0.36604 0.6378 0.0
H663 H 0.14448 0.40137 0.83351 0.0
H664 H 0.05773 0.40174 0.61757 0.0
H665 H 1.00036 0.36637 0.85305 0.0
H666 H 0.1138 0.40174 0.75423 0.0
H667 H 0.94889 0.36619 0.71706 0.0
C668 C 0.95699 0.37395 0.65001 0.0
C669 C 0.98776 0.38387 0.62093 0.0
C670 C 0.08895 0.39399 0.77592 0.0
C671 C 1.01944 0.38407 0.7117 0.0
C672 C 0.10666 0.39375 0.82115 0.0
C673 C 0.07504 0.38382 0.84996 0.0
C674 C 1.0394 0.38421 0.75945 0.0
C675 C 1.02611 0.37422 0.83213 0.0
C676 C 0.97257 0.37402 0.69531 0.0
C677 C 1.03289 0.39387 0.63872 0.0
N678 N 1.00985 0.37466 0.78806 0.0
N679 N 0.04764 0.39369 0.68295 0.0
H680 H 0.67456 0.87136 0.151 0.0
H681 H 0.41432 0.90049 0.34924 0.0
H682 H 0.49961 0.90308 0.13022 0.0
H683 H 0.57793 0.86731 0.36347 0.0
H684 H 0.44738 0.90236 0.26978 0.0
H685 H 0.64472 0.87079 0.22984 0.0
C686 C 0.63004 0.87827 0.16303 0.0
C687 C 0.5891 0.88724 0.13381 0.0
C688 C 0.47583 0.89467 0.29037 0.0
C689 C 0.55402 0.88656 0.22465 0.0
C690 C 0.45686 0.89357 0.33569 0.0
C691 C 0.4933 0.88371 0.36307 0.0
C692 C 0.53179 0.88587 0.27246 0.0
C693 C 0.54818 0.87506 0.34373 0.0
C694 C 0.61286 0.87792 0.20821 0.0
C695 C 0.53257 0.896 0.15156 0.0
N696 N 0.56574 0.87635 0.29972 0.0
N697 N 0.51626 0.8954 0.19591 0.0
H698 H 0.43151 0.11759 0.17517 0.0
H699 H 0.64923 0.1521 0.37416 0.0
H700 H 0.57671 0.15254 0.15742 0.0
H701 H 0.51748 0.11598 0.39076 0.0
H702 H 0.62214 0.15254 0.29465 0.0
H703 H 0.45979 0.11706 0.25462 0.0
C704 C 0.46903 0.12517 0.18798 0.0
C705 C 0.50178 0.13512 0.15961 0.0
C706 C 0.59939 0.1445 0.3157 0.0
C707 C 0.5347 0.13455 0.25041 0.0
C708 C 0.61497 0.14424 0.36111 0.0
C709 C 0.58558 0.13399 0.38922 0.0
C710 C 0.55387 0.13448 0.29829 0.0
C711 C 0.54139 0.12408 0.37041 0.0
C712 C 0.48539 0.12485 0.23332 0.0
C713 C 0.55021 0.14467 0.17803 0.0
N714 N 0.52671 0.12459 0.32615 0.0
N715 N 0.56522 0.14415 0.22225 0.0
H716 H 0.56406 0.11532 0.89246 0.0
H717 H 0.5051 0.15286 0.65582 0.0
H718 H 0.42771 0.15098 0.8726 0.0
H719 H 0.65514 0.11846 0.67677 0.0
H720 H 0.47353 0.15208 0.73496 0.0
H721 H 0.59356 0.1159 0.81313 0.0
C722 C 0.53987 0.12325 0.87143 0.0
C723 C 0.49347 0.13314 0.88929 0.0
C724 C 0.51351 0.14471 0.72228 0.0
C725 C 0.52755 0.13389 0.7984 0.0
C726 C 0.53171 0.14516 0.67708 0.0
C727 C 0.58282 0.1357 0.65963 0.0
C728 C 0.54644 0.13472 0.75029 0.0
C729 C 0.61555 0.12596 0.68878 0.0
C730 C 0.55703 0.12359 0.82612 0.0
C731 C 0.46382 0.14315 0.86035 0.0
N732 N 0.59659 0.12571 0.73269 0.0
N733 N 0.48155 0.14328 0.81635 0.0
H734 H 0.55439 0.90214 0.63066 0.0
H735 H 0.53876 0.86228 0.86526 0.0
H736 H 0.44205 0.86469 0.65062 0.0
H737 H 0.64769 0.89995 0.84562 0.0
H738 H 0.50661 0.86276 0.78638 0.0
H739 H 0.59027 0.90141 0.70913 0.0
C740 C 0.53683 0.89378 0.65153 0.0
C741 C 0.49503 0.88346 0.63391 0.0
C742 C 0.53786 0.8709 0.79928 0.0
C743 C 0.53664 0.88254 0.72395 0.0
C744 C 0.55657 0.87062 0.84436 0.0
C745 C 0.59593 0.88111 0.86222 0.0
C746 C 0.55845 0.88174 0.77174 0.0
C747 C 0.61736 0.89165 0.83339 0.0
C748 C 0.55762 0.89336 0.69639 0.0
C749 C 0.47409 0.87288 0.66269 0.0
N750 N 0.59804 0.89171 0.78962 0.0
N751 N 0.49527 0.87269 0.70626 0.0
loop_
_geom_bond_atom_site_label_1
_geom_bond_atom_site_label_2
_geom_bond_distance
_geom_bond_site_symmetry_2
_ccdc_geom_bond_type
Tb0 C10 2.825 . S
Tb0 O11 2.347 1_554 S
Tb0 O14 2.366 1_455 S
Tb0 O19 2.418 . S
Tb0 O20 2.384 . S
Tb0 O23 2.479 . S
Tb0 O24 2.471 1_554 S
Eu1 O12 2.418 1_554 S
Eu1 O13 2.384 1_455 S
Eu1 O16 2.479 1_554 S
Eu1 O17 2.471 . S
Eu1 O18 2.347 . S
Eu1 O21 2.366 1_554 S
Eu1 C31 2.825 . S
C2 O18 1.259 . S
C2 O19 1.265 . S
C3 O20 1.255 . S
C3 O21 1.265 1_554 S
C4 C6 1.380 1_556 S
C4 C7 1.374 . S
C4 C10 1.507 1_656 S
C5 C6 1.384 . S
C5 C9 1.387 1_554 S
C5 H32 0.930 . S
C6 C4 1.380 1_554 S
C6 C5 1.384 . S
C6 H33 0.931 . S
C7 C4 1.374 . S
C7 C8 1.390 . S
C7 H34 0.930 . S
C8 C7 1.390 . S
C8 C9 1.391 . S
C8 H35 0.930 . S
C9 C5 1.387 1_556 S
C9 C8 1.391 . S
C10 Tb0 2.825 . S
C10 C4 1.507 1_454 S
C10 O23 1.238 . S
C10 O24 1.247 1_554 S
O11 Tb0 2.347 1_556 S
O11 C15 1.259 . S
O12 Eu1 2.418 1_556 S
O12 C15 1.265 . S
O13 Eu1 2.384 1_655 S
O13 C22 1.255 . S
O14 Tb0 2.366 1_655 S
O14 C22 1.265 . S
C15 O11 1.259 . S
C15 O12 1.265 . S
O16 Eu1 2.479 1_556 S
O16 C31 1.238 1_556 S
O17 Eu1 2.471 . S
O17 C31 1.247 . S
O18 Eu1 2.347 . S
O18 C2 1.259 . S
O19 Tb0 2.418 . S
O19 C2 1.265 . S
O20 Tb0 2.384 . S
O20 C3 1.255 . S
O21 Eu1 2.366 1_556 S
O21 C3 1.265 1_556 S
C22 O13 1.255 . S
C22 O14 1.265 . S
O23 Tb0 2.479 . S
O23 C10 1.238 . S
O24 Tb0 2.471 1_556 S
O24 C10 1.247 1_556 S
C25 C28 1.380 1_554 S
C25 C29 1.374 . S
C25 C31 1.507 . S
C26 C27 1.384 1_554 S
C26 C30 1.391 . S
C27 C26 1.384 1_556 S
C27 C28 1.385 . S
C27 H36 0.933 . S
C28 C25 1.380 1_556 S
C28 C27 1.385 . S
C28 H37 0.931 . S
C29 C25 1.374 . S
C29 C30 1.390 . S
C29 H38 0.930 . S
C30 C26 1.391 . S
C30 C29 1.390 . S
C30 H39 0.930 . S
C31 Eu1 2.825 . S
C31 O16 1.238 1_554 S
C31 O17 1.247 . S
C31 C25 1.507 . S
H32 C5 0.930 . S
H33 C6 0.931 . S
H34 C7 0.930 . S
H35 C8 0.930 . S
H36 C27 0.933 . S
H37 C28 0.931 . S
H38 C29 0.930 . S
H39 C30 0.930 . S
Tb40 C50 2.825 . S
Tb40 O51 2.347 1_554 S
Tb40 O54 2.366 1_655 S
Tb40 O59 2.418 . S
Tb40 O60 2.384 . S
Tb40 O63 2.479 . S
Tb40 O64 2.471 1_554 S
Eu41 O52 2.418 . S
Eu41 O53 2.384 1_655 S
Eu41 O56 2.479 . S
Eu41 O57 2.471 1_556 S
Eu41 O58 2.347 1_556 S
Eu41 O61 2.366 . S
Eu41 C71 2.825 1_556 S
C42 O58 1.259 . S
C42 O59 1.265 . S
C43 O60 1.255 . S
C43 O61 1.265 1_554 S
C44 C46 1.380 . S
C44 C47 1.374 1_554 S
C44 C50 1.507 1_455 S
C45 C46 1.384 . S
C45 C49 1.387 1_554 S
C45 H72 0.930 . S
C46 C44 1.380 . S
C46 C45 1.384 . S
C46 H73 0.931 . S
C47 C44 1.374 1_556 S
C47 C48 1.390 . S
C47 H74 0.930 . S
C48 C47 1.390 . S
C48 C49 1.391 . S
C48 H75 0.930 . S
C49 C45 1.387 1_556 S
C49 C48 1.391 . S
C50 Tb40 2.825 . S
C50 C44 1.507 1_655 S
C50 O63 1.238 . S
C50 O64 1.247 1_554 S
O51 Tb40 2.347 1_556 S
O51 C55 1.259 . S
O52 Eu41 2.418 . S
O52 C55 1.265 . S
O53 Eu41 2.384 1_455 S
O53 C62 1.255 1_556 S
O54 Tb40 2.366 1_455 S
O54 C62 1.265 . S
C55 O51 1.259 . S
C55 O52 1.265 . S
O56 Eu41 2.479 . S
O56 C71 1.238 1_556 S
O57 Eu41 2.471 1_554 S
O57 C71 1.247 . S
O58 Eu41 2.347 1_554 S
O58 C42 1.259 . S
O59 Tb40 2.418 . S
O59 C42 1.265 . S
O60 Tb40 2.384 . S
O60 C43 1.255 . S
O61 Eu41 2.366 . S
O61 C43 1.265 1_556 S
C62 O53 1.255 1_554 S
C62 O54 1.265 . S
O63 Tb40 2.479 . S
O63 C50 1.238 . S
O64 Tb40 2.471 1_556 S
O64 C50 1.247 1_556 S
C65 C68 1.380 1_554 S
C65 C69 1.374 . S
C65 C71 1.507 . S
C66 C67 1.387 1_554 S
C66 C70 1.391 . S
C67 C66 1.387 1_556 S
C67 C68 1.384 . S
C67 H76 0.930 . S
C68 C65 1.380 1_556 S
C68 C67 1.384 . S
C68 H77 0.931 . S
C69 C65 1.374 . S
C69 C70 1.390 . S
C69 H78 0.930 . S
C70 C66 1.391 . S
C70 C69 1.390 . S
C70 H79 0.930 . S
C71 Eu41 2.825 1_554 S
C71 O56 1.238 1_554 S
C71 O57 1.247 . S
C71 C65 1.507 . S
H72 C45 0.930 . S
H73 C46 0.931 . S
H74 C47 0.930 . S
H75 C48 0.930 . S
H76 C67 0.930 . S
H77 C68 0.931 . S
H78 C69 0.930 . S
H79 C70 0.930 . S
Tb80 C90 2.825 . S
Tb80 O91 2.347 . S
Tb80 O94 2.366 . S
Tb80 O99 2.418 . S
Tb80 O100 2.384 1_455 S
Tb80 O103 2.479 . S
Tb80 O104 2.471 . S
Eu81 O92 2.418 . S
Eu81 O93 2.384 . S
Eu81 O96 2.479 . S
Eu81 O97 2.471 . S
Eu81 O98 2.347 . S
Eu81 O101 2.366 1_455 S
Eu81 C111 2.825 . S
C82 O98 1.259 . S
C82 O99 1.265 . S
C83 O100 1.255 . S
C83 O101 1.265 . S
C84 C86 1.380 . S
C84 C87 1.374 . S
C84 C90 1.507 . S
C85 C86 1.384 . S
C85 C89 1.387 . S
C85 H112 0.930 . S
C86 C84 1.380 . S
C86 C85 1.384 . S
C86 H113 0.931 . S
C87 C84 1.374 . S
C87 C88 1.390 . S
C87 H114 0.930 . S
C88 C87 1.390 . S
C88 C89 1.391 . S
C88 H115 0.930 . S
C89 C85 1.387 . S
C89 C88 1.391 . S
C90 Tb80 2.825 . S
C90 C84 1.507 . S
C90 O103 1.238 . S
C90 O104 1.247 . S
O91 Tb80 2.347 . S
O91 C95 1.259 . S
O92 Eu81 2.418 . S
O92 C95 1.265 . S
O93 Eu81 2.384 . S
O93 C102 1.255 . S
O94 Tb80 2.366 . S
O94 C102 1.265 . S
C95 O91 1.259 . S
C95 O92 1.265 . S
O96 Eu81 2.479 . S
O96 C111 1.238 . S
O97 Eu81 2.471 . S
O97 C111 1.247 . S
O98 Eu81 2.347 . S
O98 C82 1.259 . S
O99 Tb80 2.418 . S
O99 C82 1.265 . S
O100 Tb80 2.384 1_655 S
O100 C83 1.255 . S
O101 Eu81 2.366 1_655 S
O101 C83 1.265 . S
C102 O93 1.255 . S
C102 O94 1.265 . S
O103 Tb80 2.479 . S
O103 C90 1.238 . S
O104 Tb80 2.471 . S
O104 C90 1.247 . S
C105 C108 1.380 . S
C105 C109 1.374 . S
C105 C111 1.507 1_655 S
C106 C107 1.387 . S
C106 C110 1.391 . S
C107 C106 1.387 . S
C107 C108 1.384 . S
C107 H116 0.930 . S
C108 C105 1.380 . S
C108 C107 1.384 . S
C108 H117 0.931 . S
C109 C105 1.374 . S
C109 C110 1.390 . S
C109 H118 0.930 . S
C110 C106 1.391 . S
C110 C109 1.390 . S
C110 H119 0.930 . S
C111 Eu81 2.825 . S
C111 O96 1.238 . S
C111 O97 1.247 . S
C111 C105 1.507 1_455 S
H112 C85 0.930 . S
H113 C86 0.931 . S
H114 C87 0.930 . S
H115 C88 0.930 . S
H116 C107 0.930 . S
H117 C108 0.931 . S
H118 C109 0.930 . S
H119 C110 0.930 . S
Tb120 C130 2.825 . S
Tb120 O131 2.347 . S
Tb120 O134 2.366 1_655 S
Tb120 O139 2.418 . S
Tb120 O140 2.384 . S
Tb120 O143 2.479 . S
Tb120 O144 2.471 . S
Eu121 O132 2.418 . S
Eu121 O133 2.384 1_655 S
Eu121 O136 2.479 . S
Eu121 O137 2.471 . S
Eu121 O138 2.347 . S
Eu121 O141 2.366 . S
Eu121 C151 2.825 . S
C122 O138 1.259 . S
C122 O139 1.265 . S
C123 O140 1.255 . S
C123 O141 1.265 . S
C124 C126 1.380 . S
C124 C127 1.374 . S
C124 C130 1.507 1_455 S
C125 C126 1.384 . S
C125 C129 1.387 . S
C125 H152 0.930 . S
C126 C124 1.380 . S
C126 C125 1.384 . S
C126 H153 0.931 . S
C127 C124 1.374 . S
C127 C128 1.390 . S
C127 H154 0.930 . S
C128 C127 1.390 . S
C128 C129 1.391 . S
C128 H155 0.930 . S
C129 C125 1.387 . S
C129 C128 1.391 . S
C130 Tb120 2.825 . S
C130 C124 1.507 1_655 S
C130 O143 1.238 . S
C130 O144 1.247 . S
O131 Tb120 2.347 . S
O131 C135 1.259 . S
O132 Eu121 2.418 . S
O132 C135 1.265 . S
O133 Eu121 2.384 1_455 S
O133 C142 1.255 . S
O134 Tb120 2.366 1_455 S
O134 C142 1.265 . S
C135 O131 1.259 . S
C135 O132 1.265 . S
O136 Eu121 2.479 . S
O136 C151 1.238 . S
O137 Eu121 2.471 . S
O137 C151 1.247 . S
O138 Eu121 2.347 . S
O138 C122 1.259 . S
O139 Tb120 2.418 . S
O139 C122 1.265 . S
O140 Tb120 2.384 . S
O140 C123 1.255 . S
O141 Eu121 2.366 . S
O141 C123 1.265 . S
C142 O133 1.255 . S
C142 O134 1.265 . S
O143 Tb120 2.479 . S
O143 C130 1.238 . S
O144 Tb120 2.471 . S
O144 C130 1.247 . S
C145 C148 1.380 . S
C145 C149 1.374 . S
C145 C151 1.507 . S
C146 C147 1.387 . S
C146 C150 1.391 . S
C147 C146 1.387 . S
C147 C148 1.384 . S
C147 H156 0.930 . S
C148 C145 1.380 . S
C148 C147 1.384 . S
C148 H157 0.931 . S
C149 C145 1.374 . S
C149 C150 1.390 . S
C149 H158 0.930 . S
C150 C146 1.391 . S
C150 C149 1.390 . S
C150 H159 0.930 . S
C151 Eu121 2.825 . S
C151 O136 1.238 . S
C151 O137 1.247 . S
C151 C145 1.507 . S
H152 C125 0.930 . S
H153 C126 0.931 . S
H154 C127 0.930 . S
H155 C128 0.930 . S
H156 C147 0.930 . S
H157 C148 0.931 . S
H158 C149 0.930 . S
H159 C150 0.930 . S
Tb160 C170 2.825 . S
Tb160 O171 2.347 1_554 S
Tb160 O174 2.366 . S
Tb160 O179 2.418 . S
Tb160 O180 2.384 . S
Tb160 O183 2.479 . S
Tb160 O184 2.471 1_554 S
Eu161 O172 2.418 1_554 S
Eu161 O173 2.384 . S
Eu161 O176 2.479 1_554 S
Eu161 O177 2.471 . S
Eu161 O178 2.347 . S
Eu161 O181 2.366 1_554 S
Eu161 C191 2.825 . S
C162 O178 1.259 . S
C162 O179 1.265 . S
C163 O180 1.255 . S
C163 O181 1.265 1_554 S
C164 C166 1.380 1_556 S
C164 C167 1.374 . S
C164 C170 1.507 1_556 S
C165 C166 1.384 . S
C165 C169 1.387 1_554 S
C165 H192 0.930 . S
C166 C164 1.380 1_554 S
C166 C165 1.384 . S
C166 H193 0.931 . S
C167 C164 1.374 . S
C167 C168 1.390 . S
C167 H194 0.930 . S
C168 C167 1.390 . S
C168 C169 1.391 . S
C168 H195 0.930 . S
C169 C165 1.387 1_556 S
C169 C168 1.391 . S
C170 Tb160 2.825 . S
C170 C164 1.507 1_554 S
C170 O183 1.238 . S
C170 O184 1.247 1_554 S
O171 Tb160 2.347 1_556 S
O171 C175 1.259 . S
O172 Eu161 2.418 1_556 S
O172 C175 1.265 . S
O173 Eu161 2.384 . S
O173 C182 1.255 . S
O174 Tb160 2.366 . S
O174 C182 1.265 . S
C175 O171 1.259 . S
C175 O172 1.265 . S
O176 Eu161 2.479 1_556 S
O176 C191 1.238 1_556 S
O177 Eu161 2.471 . S
O177 C191 1.247 . S
O178 Eu161 2.347 . S
O178 C162 1.259 . S
O179 Tb160 2.418 . S
O179 C162 1.265 . S
O180 Tb160 2.384 . S
O180 C163 1.255 . S
O181 Eu161 2.366 1_556 S
O181 C163 1.265 1_556 S
C182 O173 1.255 . S
C182 O174 1.265 . S
O183 Tb160 2.479 . S
O183 C170 1.238 . S
O184 Tb160 2.471 1_556 S
O184 C170 1.247 1_556 S
C185 C188 1.380 1_554 S
C185 C189 1.374 . S
C185 C191 1.507 . S
C186 C187 1.384 1_554 S
C186 C190 1.391 . S
C187 C186 1.384 1_556 S
C187 C188 1.385 . S
C187 H196 0.933 . S
C188 C185 1.380 1_556 S
C188 C187 1.385 . S
C188 H197 0.931 . S
C189 C185 1.374 . S
C189 C190 1.390 . S
C189 H198 0.930 . S
C190 C186 1.391 . S
C190 C189 1.390 . S
C190 H199 0.930 . S
C191 Eu161 2.825 . S
C191 O176 1.238 1_554 S
C191 O177 1.247 . S
C191 C185 1.507 . S
H192 C165 0.930 . S
H193 C166 0.931 . S
H194 C167 0.930 . S
H195 C168 0.930 . S
H196 C187 0.933 . S
H197 C188 0.931 . S
H198 C189 0.930 . S
H199 C190 0.930 . S
Tb200 C210 2.825 . S
Tb200 O211 2.347 1_554 S
Tb200 O214 2.366 . S
Tb200 O219 2.418 . S
Tb200 O220 2.384 . S
Tb200 O223 2.479 . S
Tb200 O224 2.471 1_554 S
Eu201 O212 2.418 . S
Eu201 O213 2.384 . S
Eu201 O216 2.479 . S
Eu201 O217 2.471 1_556 S
Eu201 O218 2.347 1_556 S
Eu201 O221 2.366 . S
Eu201 C231 2.825 1_556 S
C202 O218 1.259 . S
C202 O219 1.265 . S
C203 O220 1.255 . S
C203 O221 1.265 1_554 S
C204 C206 1.380 . S
C204 C207 1.374 1_554 S
C204 C210 1.507 . S
C205 C206 1.384 . S
C205 C209 1.387 1_554 S
C205 H232 0.930 . S
C206 C204 1.380 . S
C206 C205 1.384 . S
C206 H233 0.931 . S
C207 C204 1.374 1_556 S
C207 C208 1.390 . S
C207 H234 0.930 . S
C208 C207 1.390 . S
C208 C209 1.391 . S
C208 H235 0.930 . S
C209 C205 1.387 1_556 S
C209 C208 1.391 . S
C210 Tb200 2.825 . S
C210 C204 1.507 . S
C210 O223 1.238 . S
C210 O224 1.247 1_554 S
O211 Tb200 2.347 1_556 S
O211 C215 1.259 . S
O212 Eu201 2.418 . S
O212 C215 1.265 . S
O213 Eu201 2.384 . S
O213 C222 1.255 1_556 S
O214 Tb200 2.366 . S
O214 C222 1.265 . S
C215 O211 1.259 . S
C215 O212 1.265 . S
O216 Eu201 2.479 . S
O216 C231 1.238 1_556 S
O217 Eu201 2.471 1_554 S
O217 C231 1.247 . S
O218 Eu201 2.347 1_554 S
O218 C202 1.259 . S
O219 Tb200 2.418 . S
O219 C202 1.265 . S
O220 Tb200 2.384 . S
O220 C203 1.255 . S
O221 Eu201 2.366 . S
O221 C203 1.265 1_556 S
C222 O213 1.255 1_554 S
C222 O214 1.265 . S
O223 Tb200 2.479 . S
O223 C210 1.238 . S
O224 Tb200 2.471 1_556 S
O224 C210 1.247 1_556 S
C225 C228 1.380 1_554 S
C225 C229 1.374 . S
C225 C231 1.507 . S
C226 C227 1.387 1_554 S
C226 C230 1.391 . S
C227 C226 1.387 1_556 S
C227 C228 1.384 . S
C227 H236 0.930 . S
C228 C225 1.380 1_556 S
C228 C227 1.384 . S
C228 H237 0.931 . S
C229 C225 1.374 . S
C229 C230 1.390 . S
C229 H238 0.930 . S
C230 C226 1.391 . S
C230 C229 1.390 . S
C230 H239 0.930 . S
C231 Eu201 2.825 1_554 S
C231 O216 1.238 1_554 S
C231 O217 1.247 . S
C231 C225 1.507 . S
H232 C205 0.930 . S
H233 C206 0.931 . S
H234 C207 0.930 . S
H235 C208 0.930 . S
H236 C227 0.930 . S
H237 C228 0.931 . S
H238 C229 0.930 . S
H239 C230 0.930 . S
Tb240 C250 2.825 . S
Tb240 O251 2.347 . S
Tb240 O254 2.366 . S
Tb240 O259 2.418 . S
Tb240 O260 2.384 . S
Tb240 O263 2.479 . S
Tb240 O264 2.471 . S
Eu241 O252 2.418 . S
Eu241 O253 2.384 . S
Eu241 O256 2.479 . S
Eu241 O257 2.471 . S
Eu241 O258 2.347 . S
Eu241 O261 2.366 . S
Eu241 C271 2.825 . S
C242 O258 1.259 . S
C242 O259 1.265 . S
C243 O260 1.255 . S
C243 O261 1.265 . S
C244 C246 1.380 . S
C244 C247 1.374 . S
C244 C250 1.507 . S
C245 C246 1.384 . S
C245 C249 1.387 . S
C245 H272 0.930 . S
C246 C244 1.380 . S
C246 C245 1.384 . S
C246 H273 0.931 . S
C247 C244 1.374 . S
C247 C248 1.390 . S
C247 H274 0.930 . S
C248 C247 1.390 . S
C248 C249 1.391 . S
C248 H275 0.930 . S
C249 C245 1.387 . S
C249 C248 1.391 . S
C250 Tb240 2.825 . S
C250 C244 1.507 . S
C250 O263 1.238 . S
C250 O264 1.247 . S
O251 Tb240 2.347 . S
O251 C255 1.259 . S
O252 Eu241 2.418 . S
O252 C255 1.265 . S
O253 Eu241 2.384 . S
O253 C262 1.255 . S
O254 Tb240 2.366 . S
O254 C262 1.265 . S
C255 O251 1.259 . S
C255 O252 1.265 . S
O256 Eu241 2.479 . S
O256 C271 1.238 . S
O257 Eu241 2.471 . S
O257 C271 1.247 . S
O258 Eu241 2.347 . S
O258 C242 1.259 . S
O259 Tb240 2.418 . S
O259 C242 1.265 . S
O260 Tb240 2.384 . S
O260 C243 1.255 . S
O261 Eu241 2.366 . S
O261 C243 1.265 . S
C262 O253 1.255 . S
C262 O254 1.265 . S
O263 Tb240 2.479 . S
O263 C250 1.238 . S
O264 Tb240 2.471 . S
O264 C250 1.247 . S
C265 C268 1.380 . S
C265 C269 1.374 . S
C265 C271 1.507 . S
C266 C267 1.387 . S
C266 C270 1.391 . S
C267 C266 1.387 . S
C267 C268 1.384 . S
C267 H276 0.930 . S
C268 C265 1.380 . S
C268 C267 1.384 . S
C268 H277 0.931 . S
C269 C265 1.374 . S
C269 C270 1.390 . S
C269 H278 0.930 . S
C270 C266 1.391 . S
C270 C269 1.390 . S
C270 H279 0.930 . S
C271 Eu241 2.825 . S
C271 O256 1.238 . S
C271 O257 1.247 . S
C271 C265 1.507 . S
H272 C245 0.930 . S
H273 C246 0.931 . S
H274 C247 0.930 . S
H275 C248 0.930 . S
H276 C267 0.930 . S
H277 C268 0.931 . S
H278 C269 0.930 . S
H279 C270 0.930 . S
Tb280 C290 2.825 . S
Tb280 O291 2.347 . S
Tb280 O294 2.366 . S
Tb280 O299 2.418 . S
Tb280 O300 2.384 . S
Tb280 O303 2.479 . S
Tb280 O304 2.471 . S
Eu281 O292 2.418 . S
Eu281 O293 2.384 . S
Eu281 O296 2.479 . S
Eu281 O297 2.471 . S
Eu281 O298 2.347 . S
Eu281 O301 2.366 . S
Eu281 C311 2.825 . S
C282 O298 1.259 . S
C282 O299 1.265 . S
C283 O300 1.255 . S
C283 O301 1.265 . S
C284 C286 1.380 . S
C284 C287 1.374 . S
C284 C290 1.507 . S
C285 C286 1.384 . S
C285 C289 1.387 . S
C285 H312 0.930 . S
C286 C284 1.380 . S
C286 C285 1.384 . S
C286 H313 0.931 . S
C287 C284 1.374 . S
C287 C288 1.390 . S
C287 H314 0.930 . S
C288 C287 1.390 . S
C288 C289 1.391 . S
C288 H315 0.930 . S
C289 C285 1.387 . S
C289 C288 1.391 . S
C290 Tb280 2.825 . S
C290 C284 1.507 . S
C290 O303 1.238 . S
C290 O304 1.247 . S
O291 Tb280 2.347 . S
O291 C295 1.259 . S
O292 Eu281 2.418 . S
O292 C295 1.265 . S
O293 Eu281 2.384 . S
O293 C302 1.255 . S
O294 Tb280 2.366 . S
O294 C302 1.265 . S
C295 O291 1.259 . S
C295 O292 1.265 . S
O296 Eu281 2.479 . S
O296 C311 1.238 . S
O297 Eu281 2.471 . S
O297 C311 1.247 . S
O298 Eu281 2.347 . S
O298 C282 1.259 . S
O299 Tb280 2.418 . S
O299 C282 1.265 . S
O300 Tb280 2.384 . S
O300 C283 1.255 . S
O301 Eu281 2.366 . S
O301 C283 1.265 . S
C302 O293 1.255 . S
C302 O294 1.265 . S
O303 Tb280 2.479 . S
O303 C290 1.238 . S
O304 Tb280 2.471 . S
O304 C290 1.247 . S
C305 C308 1.380 . S
C305 C309 1.374 . S
C305 C311 1.507 . S
C306 C307 1.387 . S
C306 C310 1.391 . S
C307 C306 1.387 . S
C307 C308 1.384 . S
C307 H316 0.930 . S
C308 C305 1.380 . S
C308 C307 1.384 . S
C308 H317 0.931 . S
C309 C305 1.374 . S
C309 C310 1.390 . S
C309 H318 0.930 . S
C310 C306 1.391 . S
C310 C309 1.390 . S
C310 H319 0.930 . S
C311 Eu281 2.825 . S
C311 O296 1.238 . S
C311 O297 1.247 . S
C311 C305 1.507 . S
H312 C285 0.930 . S
H313 C286 0.931 . S
H314 C287 0.930 . S
H315 C288 0.930 . S
H316 C307 0.930 . S
H317 C308 0.931 . S
H318 C309 0.930 . S
H319 C310 0.930 . S
H320 C326 0.930 . S
H321 C330 0.930 . S
H322 C335 0.929 . S
H323 C333 0.929 . S
H324 C328 0.929 . S
H325 C334 0.929 . S
C326 H320 0.930 . S
C326 C327 1.367 1_556 S
C326 C334 1.378 . S
C327 C326 1.367 1_554 S
C327 C335 1.433 . S
C328 H324 0.929 . S
C328 C330 1.378 . S
C328 C332 1.350 . S
C329 C332 1.463 . S
C329 C334 1.350 1_554 S
C329 N337 1.427 . S
C330 H321 0.930 . S
C330 C328 1.378 . S
C330 C331 1.367 . S
C331 C330 1.367 . S
C331 C333 1.433 1_554 S
C332 C328 1.350 . S
C332 C329 1.463 . S
C332 N336 1.427 1_554 S
C333 H323 0.929 . S
C333 C331 1.433 1_556 S
C333 N336 1.384 . S
C334 H325 0.929 . S
C334 C326 1.378 . S
C334 C329 1.350 1_556 S
C335 H322 0.929 . S
C335 C327 1.433 . S
C335 N337 1.384 . S
N336 C332 1.427 1_556 S
N336 C333 1.384 . S
N337 C329 1.427 . S
N337 C335 1.384 . S
H338 C344 0.930 . S
H339 C348 0.930 . S
H340 C353 0.929 . S
H341 C351 0.929 . S
H342 C346 0.929 . S
H343 C352 0.929 . S
C344 H338 0.930 . S
C344 C345 1.367 . S
C344 C352 1.378 . S
C345 C344 1.367 . S
C345 C353 1.433 1_554 S
C346 H342 0.929 . S
C346 C348 1.378 . S
C346 C350 1.350 1_556 S
C347 C350 1.463 . S
C347 C352 1.350 . S
C347 N355 1.427 1_554 S
C348 H339 0.930 . S
C348 C346 1.378 . S
C348 C349 1.367 1_556 S
C349 C348 1.367 1_554 S
C349 C351 1.433 . S
C350 C346 1.350 1_554 S
C350 C347 1.463 . S
C350 N354 1.427 . S
C351 H341 0.929 . S
C351 C349 1.433 . S
C351 N354 1.384 . S
C352 H343 0.929 . S
C352 C344 1.378 . S
C352 C347 1.350 . S
C353 H340 0.929 . S
C353 C345 1.433 1_556 S
C353 N355 1.384 . S
N354 C350 1.427 . S
N354 C351 1.384 . S
N355 C347 1.427 1_556 S
N355 C353 1.384 . S
H356 C362 0.930 . S
H357 C366 0.930 . S
H358 C371 0.929 . S
H359 C369 0.929 . S
H360 C364 0.929 . S
H361 C370 0.929 . S
C362 H356 0.930 . S
C362 C363 1.367 . S
C362 C370 1.378 . S
C363 C362 1.367 . S
C363 C371 1.433 . S
C364 H360 0.929 . S
C364 C366 1.378 . S
C364 C368 1.350 . S
C365 C368 1.463 . S
C365 C370 1.350 . S
C365 N373 1.427 . S
C366 H357 0.930 . S
C366 C364 1.378 . S
C366 C367 1.367 . S
C367 C366 1.367 . S
C367 C369 1.433 . S
C368 C364 1.350 . S
C368 C365 1.463 . S
C368 N372 1.427 . S
C369 H359 0.929 . S
C369 C367 1.433 . S
C369 N372 1.384 . S
C370 H361 0.929 . S
C370 C362 1.378 . S
C370 C365 1.350 . S
C371 H358 0.929 . S
C371 C363 1.433 . S
C371 N373 1.384 . S
N372 C368 1.427 . S
N372 C369 1.384 . S
N373 C365 1.427 . S
N373 C371 1.384 . S
H374 C380 0.930 . S
H375 C384 0.930 . S
H376 C389 0.929 . S
H377 C387 0.929 . S
H378 C382 0.929 . S
H379 C388 0.929 . S
C380 H374 0.930 . S
C380 C381 1.367 . S
C380 C388 1.378 . S
C381 C380 1.367 . S
C381 C389 1.433 . S
C382 H378 0.929 . S
C382 C384 1.378 . S
C382 C386 1.350 . S
C383 C386 1.463 . S
C383 C388 1.350 . S
C383 N391 1.427 . S
C384 H375 0.930 . S
C384 C382 1.378 . S
C384 C385 1.367 . S
C385 C384 1.367 . S
C385 C387 1.433 . S
C386 C382 1.350 . S
C386 C383 1.463 . S
C386 N390 1.427 . S
C387 H377 0.929 . S
C387 C385 1.433 . S
C387 N390 1.384 . S
C388 H379 0.929 . S
C388 C380 1.378 . S
C388 C383 1.350 . S
C389 H376 0.929 . S
C389 C381 1.433 . S
C389 N391 1.384 . S
N390 C386 1.427 . S
N390 C387 1.384 . S
N391 C383 1.427 . S
N391 C389 1.384 . S
H392 C398 0.930 . S
H393 C402 0.930 . S
H394 C407 0.929 . S
H395 C405 0.929 . S
H396 C400 0.929 . S
H397 C406 0.929 . S
C398 H392 0.930 . S
C398 C399 1.367 . S
C398 C406 1.378 . S
C399 C398 1.367 . S
C399 C407 1.433 1_554 S
C400 H396 0.929 . S
C400 C402 1.378 . S
C400 C404 1.350 1_556 S
C401 C404 1.463 . S
C401 C406 1.350 1_455 S
C401 N409 1.427 1_454 S
C402 H393 0.930 . S
C402 C400 1.378 . S
C402 C403 1.367 1_556 S
C403 C402 1.367 1_554 S
C403 C405 1.433 . S
C404 C400 1.350 1_554 S
C404 C401 1.463 . S
C404 N408 1.427 . S
C405 H395 0.929 . S
C405 C403 1.433 . S
C405 N408 1.384 . S
C406 H397 0.929 . S
C406 C398 1.378 . S
C406 C401 1.350 1_655 S
C407 H394 0.929 . S
C407 C399 1.433 1_556 S
C407 N409 1.384 . S
N408 C404 1.427 . S
N408 C405 1.384 . S
N409 C401 1.427 1_656 S
N409 C407 1.384 . S
H410 C416 0.930 . S
H411 C420 0.930 . S
H412 C425 0.929 . S
H413 C423 0.929 . S
H414 C418 0.929 . S
H415 C424 0.929 . S
C416 H410 0.930 . S
C416 C417 1.367 1_556 S
C416 C424 1.378 . S
C417 C416 1.367 1_554 S
C417 C425 1.433 . S
C418 H414 0.929 . S
C418 C420 1.378 . S
C418 C422 1.350 . S
C419 C422 1.463 . S
C419 C424 1.350 1_654 S
C419 N427 1.427 1_655 S
C420 H411 0.930 . S
C420 C418 1.378 . S
C420 C421 1.367 . S
C421 C420 1.367 . S
C421 C423 1.433 1_554 S
C422 C418 1.350 . S
C422 C419 1.463 . S
C422 N426 1.427 1_554 S
C423 H413 0.929 . S
C423 C421 1.433 1_556 S
C423 N426 1.384 . S
C424 H415 0.929 . S
C424 C416 1.378 . S
C424 C419 1.350 1_456 S
C425 H412 0.929 . S
C425 C417 1.433 . S
C425 N427 1.384 . S
N426 C422 1.427 1_556 S
N426 C423 1.384 . S
N427 C419 1.427 1_455 S
N427 C425 1.384 . S
H428 C434 0.930 . S
H429 C438 0.930 . S
H430 C443 0.929 . S
H431 C441 0.929 . S
H432 C436 0.929 1_455 S
H433 C442 0.929 . S
C434 H428 0.930 . S
C434 C435 1.367 . S
C434 C442 1.378 . S
C435 C434 1.367 . S
C435 C443 1.433 . S
C436 H432 0.929 1_655 S
C436 C438 1.378 . S
C436 C440 1.350 1_655 S
C437 C440 1.463 . S
C437 C442 1.350 . S
C437 N445 1.427 . S
C438 H429 0.930 . S
C438 C436 1.378 . S
C438 C439 1.367 . S
C439 C438 1.367 . S
C439 C441 1.433 . S
C440 C436 1.350 1_455 S
C440 C437 1.463 . S
C440 N444 1.427 1_455 S
C441 H431 0.929 . S
C441 C439 1.433 . S
C441 N444 1.384 . S
C442 H433 0.929 . S
C442 C434 1.378 . S
C442 C437 1.350 . S
C443 H430 0.929 . S
C443 C435 1.433 . S
C443 N445 1.384 . S
N444 C440 1.427 1_655 S
N444 C441 1.384 . S
N445 C437 1.427 . S
N445 C443 1.384 . S
H446 C452 0.930 . S
H447 C456 0.930 . S
H448 C461 0.929 . S
H449 C459 0.929 . S
H450 C454 0.929 . S
H451 C460 0.929 . S
C452 H446 0.930 . S
C452 C453 1.367 . S
C452 C460 1.378 . S
C453 C452 1.367 . S
C453 C461 1.433 . S
C454 H450 0.929 . S
C454 C456 1.378 . S
C454 C458 1.350 1_455 S
C455 C458 1.463 . S
C455 C460 1.350 . S
C455 N463 1.427 . S
C456 H447 0.930 . S
C456 C454 1.378 . S
C456 C457 1.367 . S
C457 C456 1.367 . S
C457 C459 1.433 . S
C458 C454 1.350 1_655 S
C458 C455 1.463 . S
C458 N462 1.427 1_655 S
C459 H449 0.929 . S
C459 C457 1.433 . S
C459 N462 1.384 . S
C460 H451 0.929 . S
C460 C452 1.378 . S
C460 C455 1.350 . S
C461 H448 0.929 . S
C461 C453 1.433 . S
C461 N463 1.384 . S
N462 C458 1.427 1_455 S
N462 C459 1.384 . S
N463 C455 1.427 . S
N463 C461 1.384 . S
H464 C470 0.930 . S
H465 C474 0.930 . S
H466 C479 0.929 1_655 S
H467 C477 0.929 1_455 S
H468 C472 0.929 . S
H469 C478 0.929 . S
C470 H464 0.930 . S
C470 C471 1.367 . S
C470 C478 1.378 . S
C471 C470 1.367 . S
C471 C479 1.433 . S
C472 H468 0.929 . S
C472 C474 1.378 . S
C472 C476 1.350 . S
C473 C476 1.463 1_455 S
C473 C478 1.350 . S
C473 N481 1.427 1_455 S
C474 H465 0.930 . S
C474 C472 1.378 . S
C474 C475 1.367 . S
C475 C474 1.367 . S
C475 C477 1.433 . S
C476 C472 1.350 . S
C476 C473 1.463 1_655 S
C476 N480 1.427 1_655 S
C477 H467 0.929 1_655 S
C477 C475 1.433 . S
C477 N480 1.384 1_655 S
C478 H469 0.929 . S
C478 C470 1.378 . S
C478 C473 1.350 . S
C479 H466 0.929 1_455 S
C479 C471 1.433 . S
C479 N481 1.384 1_455 S
N480 C476 1.427 1_455 S
N480 C477 1.384 1_455 S
N481 C473 1.427 1_655 S
N481 C479 1.384 1_655 S
H482 C488 0.930 . S
H483 C492 0.930 . S
H484 C497 0.929 . S
H485 C495 0.929 . S
H486 C490 0.929 . S
H487 C496 0.929 . S
C488 H482 0.930 . S
C488 C489 1.367 . S
C488 C496 1.378 . S
C489 C488 1.367 . S
C489 C497 1.433 . S
C490 H486 0.929 . S
C490 C492 1.378 . S
C490 C494 1.350 . S
C491 C494 1.463 1_455 S
C491 C496 1.350 . S
C491 N499 1.427 . S
C492 H483 0.930 . S
C492 C490 1.378 . S
C492 C493 1.367 . S
C493 C492 1.367 . S
C493 C495 1.433 . S
C494 C490 1.350 . S
C494 C491 1.463 1_655 S
C494 N498 1.427 . S
C495 H485 0.929 . S
C495 C493 1.433 . S
C495 N498 1.384 . S
C496 H487 0.929 . S
C496 C488 1.378 . S
C496 C491 1.350 . S
C497 H484 0.929 . S
C497 C489 1.433 . S
C497 N499 1.384 . S
N498 C494 1.427 . S
N498 C495 1.384 . S
N499 C491 1.427 . S
N499 C497 1.384 . S
H500 C506 0.930 . S
H501 C510 0.930 . S
H502 C515 0.929 1_554 S
H503 C513 0.929 . S
H504 C508 0.929 . S
H505 C514 0.929 . S
C506 H500 0.930 . S
C506 C507 1.367 . S
C506 C514 1.378 . S
C507 C506 1.367 . S
C507 C515 1.433 . S
C508 H504 0.929 . S
C508 C510 1.378 . S
C508 C512 1.350 1_554 S
C509 C512 1.463 1_565 S
C509 C514 1.350 . S
C509 N517 1.426 1_556 S
C510 H501 0.930 . S
C510 C508 1.378 . S
C510 C511 1.367 1_554 S
C511 C510 1.367 1_556 S
C511 C513 1.433 . S
C512 C508 1.350 1_556 S
C512 C509 1.463 1_545 S
C512 N516 1.427 . S
C513 H503 0.929 . S
C513 C511 1.433 . S
C513 N516 1.384 . S
C514 H505 0.929 . S
C514 C506 1.378 . S
C514 C509 1.350 . S
C515 H502 0.929 1_556 S
C515 C507 1.433 . S
C515 N517 1.383 1_556 S
N516 C512 1.427 . S
N516 C513 1.384 . S
N517 C509 1.426 1_554 S
N517 C515 1.383 1_554 S
H518 C524 0.930 . S
H519 C528 0.930 . S
H520 C533 0.929 . S
H521 C531 0.929 . S
H522 C526 0.929 . S
H523 C532 0.929 . S
C524 H518 0.930 . S
C524 C525 1.367 . S
C524 C532 1.378 . S
C525 C524 1.367 . S
C525 C533 1.433 . S
C526 H522 0.929 . S
C526 C528 1.378 . S
C526 C530 1.350 . S
C527 C530 1.463 1_545 S
C527 C532 1.350 . S
C527 N535 1.427 . S
C528 H519 0.930 . S
C528 C526 1.378 . S
C528 C529 1.367 . S
C529 C528 1.367 . S
C529 C531 1.433 . S
C530 C526 1.350 . S
C530 C527 1.463 1_565 S
C530 N534 1.427 . S
C531 H521 0.929 . S
C531 C529 1.433 . S
C531 N534 1.384 . S
C532 H523 0.929 . S
C532 C524 1.378 . S
C532 C527 1.350 . S
C533 H520 0.929 . S
C533 C525 1.433 . S
C533 N535 1.384 . S
N534 C530 1.427 . S
N534 C531 1.384 . S
N535 C527 1.427 . S
N535 C533 1.384 . S
H536 C542 0.930 1_556 S
H537 C546 0.930 . S
H538 C551 0.929 . S
H539 C549 0.929 . S
H540 C544 0.929 . S
H541 C550 0.929 . S
C542 H536 0.930 1_554 S
C542 C543 1.367 . S
C542 C550 1.378 1_554 S
C543 C542 1.367 . S
C543 C551 1.433 . S
C544 H540 0.929 . S
C544 C546 1.378 . S
C544 C548 1.350 . S
C545 C548 1.463 . S
C545 C550 1.350 1_554 S
C545 N553 1.427 . S
C546 H537 0.930 . S
C546 C544 1.378 . S
C546 C547 1.367 . S
C547 C546 1.367 . S
C547 C549 1.433 1_554 S
C548 C544 1.350 . S
C548 C545 1.463 . S
C548 N552 1.427 1_554 S
C549 H539 0.929 . S
C549 C547 1.433 1_556 S
C549 N552 1.384 . S
C550 H541 0.929 . S
C550 C542 1.378 1_556 S
C550 C545 1.350 1_556 S
C551 H538 0.929 . S
C551 C543 1.433 . S
C551 N553 1.384 . S
N552 C548 1.427 1_556 S
N552 C549 1.384 . S
N553 C545 1.427 . S
N553 C551 1.384 . S
H554 C560 0.930 . S
H555 C564 0.930 . S
H556 C569 0.929 1_556 S
H557 C567 0.929 . S
H558 C562 0.929 . S
H559 C568 0.929 . S
C560 H554 0.930 . S
C560 C561 1.367 . S
C560 C568 1.378 . S
C561 C560 1.367 . S
C561 C569 1.433 . S
C562 H558 0.929 . S
C562 C564 1.378 . S
C562 C566 1.350 1_556 S
C563 C566 1.463 . S
C563 C568 1.350 . S
C563 N571 1.427 . S
C564 H555 0.930 . S
C564 C562 1.378 . S
C564 C565 1.367 1_556 S
C565 C564 1.367 1_554 S
C565 C567 1.433 . S
C566 C562 1.350 1_554 S
C566 C563 1.463 . S
C566 N570 1.427 . S
C567 H557 0.929 . S
C567 C565 1.433 . S
C567 N570 1.384 . S
C568 H559 0.929 . S
C568 C560 1.378 . S
C568 C563 1.350 . S
C569 H556 0.929 1_554 S
C569 C561 1.433 . S
C569 N571 1.384 . S
N570 C566 1.427 . S
N570 C567 1.384 . S
N571 C563 1.427 . S
N571 C569 1.384 . S
H572 C578 0.930 . S
H573 C582 0.930 . S
H574 C587 0.929 . S
H575 C585 0.929 . S
H576 C580 0.929 . S
H577 C586 0.929 . S
C578 H572 0.930 . S
C578 C579 1.367 . S
C578 C586 1.378 . S
C579 C578 1.367 . S
C579 C587 1.433 . S
C580 H576 0.929 . S
C580 C582 1.378 . S
C580 C584 1.350 . S
C581 C584 1.463 . S
C581 C586 1.350 . S
C581 N589 1.427 . S
C582 H573 0.930 . S
C582 C580 1.378 . S
C582 C583 1.367 . S
C583 C582 1.367 . S
C583 C585 1.433 . S
C584 C580 1.350 . S
C584 C581 1.463 . S
C584 N588 1.427 . S
C585 H575 0.929 . S
C585 C583 1.433 . S
C585 N588 1.384 . S
C586 H577 0.929 . S
C586 C578 1.378 . S
C586 C581 1.350 . S
C587 H574 0.929 . S
C587 C579 1.433 . S
C587 N589 1.384 . S
N588 C584 1.427 . S
N588 C585 1.384 . S
N589 C581 1.427 . S
N589 C587 1.384 . S
H590 C596 0.930 . S
H591 C600 0.930 . S
H592 C605 0.929 . S
H593 C603 0.929 . S
H594 C598 0.929 . S
H595 C604 0.929 . S
C596 H590 0.930 . S
C596 C597 1.367 . S
C596 C604 1.378 . S
C597 C596 1.367 . S
C597 C605 1.433 . S
C598 H594 0.929 . S
C598 C600 1.378 . S
C598 C602 1.350 . S
C599 C602 1.463 . S
C599 C604 1.350 . S
C599 N607 1.427 . S
C600 H591 0.930 . S
C600 C598 1.378 . S
C600 C601 1.367 . S
C601 C600 1.367 . S
C601 C603 1.433 . S
C602 C598 1.350 . S
C602 C599 1.463 . S
C602 N606 1.427 . S
C603 H593 0.929 . S
C603 C601 1.433 . S
C603 N606 1.384 . S
C604 H595 0.929 . S
C604 C596 1.378 . S
C604 C599 1.350 . S
C605 H592 0.929 . S
C605 C597 1.433 . S
C605 N607 1.384 . S
N606 C602 1.427 . S
N606 C603 1.384 . S
N607 C599 1.427 . S
N607 C605 1.384 . S
H608 C614 0.930 . S
H609 C618 0.930 . S
H610 C623 0.929 . S
H611 C621 0.929 . S
H612 C616 0.929 . S
H613 C622 0.929 . S
C614 H608 0.930 . S
C614 C615 1.367 . S
C614 C622 1.378 . S
C615 C614 1.367 . S
C615 C623 1.433 . S
C616 H612 0.929 . S
C616 C618 1.378 . S
C616 C620 1.350 . S
C617 C620 1.463 1_455 S
C617 C622 1.350 . S
C617 N625 1.427 . S
C618 H609 0.930 . S
C618 C616 1.378 . S
C618 C619 1.367 . S
C619 C618 1.367 . S
C619 C621 1.433 . S
C620 C616 1.350 . S
C620 C617 1.463 1_655 S
C620 N624 1.427 . S
C621 H611 0.929 . S
C621 C619 1.433 . S
C621 N624 1.384 . S
C622 H613 0.929 . S
C622 C614 1.378 . S
C622 C617 1.350 . S
C623 H610 0.929 . S
C623 C615 1.433 . S
C623 N625 1.384 . S
N624 C620 1.427 . S
N624 C621 1.384 . S
N625 C617 1.427 . S
N625 C623 1.384 . S
H626 C632 0.930 . S
H627 C636 0.930 . S
H628 C641 0.929 . S
H629 C639 0.929 . S
H630 C634 0.929 . S
H631 C640 0.929 . S
C632 H626 0.930 . S
C632 C633 1.367 . S
C632 C640 1.378 . S
C633 C632 1.367 . S
C633 C641 1.433 1_655 S
C634 H630 0.929 . S
C634 C636 1.378 . S
C634 C638 1.350 . S
C635 C638 1.463 1_655 S
C635 C640 1.350 . S
C635 N643 1.427 1_655 S
C636 H627 0.930 . S
C636 C634 1.378 . S
C636 C637 1.367 . S
C637 C636 1.367 . S
C637 C639 1.433 1_455 S
C638 C634 1.350 . S
C638 C635 1.463 1_455 S
C638 N642 1.427 1_455 S
C639 H629 0.929 . S
C639 C637 1.433 1_655 S
C639 N642 1.384 . S
C640 H631 0.929 . S
C640 C632 1.378 . S
C640 C635 1.350 . S
C641 H628 0.929 . S
C641 C633 1.433 1_455 S
C641 N643 1.384 . S
N642 C638 1.427 1_655 S
N642 C639 1.384 . S
N643 C635 1.427 1_455 S
N643 C641 1.384 . S
H644 C650 0.930 . S
H645 C654 0.930 . S
H646 C659 0.929 . S
H647 C657 0.929 . S
H648 C652 0.929 . S
H649 C658 0.929 . S
C650 H644 0.930 . S
C650 C651 1.367 . S
C650 C658 1.378 . S
C651 C650 1.367 . S
C651 C659 1.433 1_655 S
C652 H648 0.929 . S
C652 C654 1.378 . S
C652 C656 1.350 . S
C653 C656 1.463 1_655 S
C653 C658 1.350 . S
C653 N661 1.427 1_655 S
C654 H645 0.930 . S
C654 C652 1.378 . S
C654 C655 1.367 . S
C655 C654 1.367 . S
C655 C657 1.433 1_455 S
C656 C652 1.350 . S
C656 C653 1.463 1_455 S
C656 N660 1.427 1_455 S
C657 H647 0.929 . S
C657 C655 1.433 1_655 S
C657 N660 1.384 . S
C658 H649 0.929 . S
C658 C650 1.378 . S
C658 C653 1.350 . S
C659 H646 0.929 . S
C659 C651 1.433 1_455 S
C659 N661 1.384 . S
N660 C656 1.427 1_655 S
N660 C657 1.384 . S
N661 C653 1.427 1_455 S
N661 C659 1.384 . S
H662 C668 0.930 . S
H663 C672 0.930 . S
H664 C677 0.929 . S
H665 C675 0.929 . S
H666 C670 0.929 . S
H667 C676 0.929 . S
C668 H662 0.930 . S
C668 C669 1.367 . S
C668 C676 1.378 . S
C669 C668 1.367 . S
C669 C677 1.433 1_655 S
C670 H666 0.929 . S
C670 C672 1.378 . S
C670 C674 1.350 . S
C671 C674 1.463 1_655 S
C671 C676 1.350 . S
C671 N679 1.427 1_655 S
C672 H663 0.930 . S
C672 C670 1.378 . S
C672 C673 1.367 . S
C673 C672 1.367 . S
C673 C675 1.433 1_455 S
C674 C670 1.350 . S
C674 C671 1.463 1_455 S
C674 N678 1.427 1_455 S
C675 H665 0.929 . S
C675 C673 1.433 1_655 S
C675 N678 1.384 . S
C676 H667 0.929 . S
C676 C668 1.378 . S
C676 C671 1.350 . S
C677 H664 0.929 . S
C677 C669 1.433 1_455 S
C677 N679 1.384 . S
N678 C674 1.427 1_655 S
N678 C675 1.384 . S
N679 C671 1.427 1_455 S
N679 C677 1.384 . S
H680 C686 0.930 . S
H681 C690 0.930 . S
H682 C695 0.929 . S
H683 C693 0.929 . S
H684 C688 0.929 . S
H685 C694 0.929 . S
C686 H680 0.930 . S
C686 C687 1.367 . S
C686 C694 1.378 . S
C687 C686 1.367 . S
C687 C695 1.433 . S
C688 H684 0.929 . S
C688 C690 1.378 . S
C688 C692 1.350 . S
C689 C692 1.463 . S
C689 C694 1.350 . S
C689 N697 1.427 . S
C690 H681 0.930 . S
C690 C688 1.378 . S
C690 C691 1.367 . S
C691 C690 1.367 . S
C691 C693 1.433 . S
C692 C688 1.350 . S
C692 C689 1.463 . S
C692 N696 1.427 . S
C693 H683 0.929 . S
C693 C691 1.433 . S
C693 N696 1.384 . S
C694 H685 0.929 . S
C694 C686 1.378 . S
C694 C689 1.350 . S
C695 H682 0.929 . S
C695 C687 1.433 . S
C695 N697 1.384 . S
N696 C692 1.427 . S
N696 C693 1.384 . S
N697 C689 1.427 . S
N697 C695 1.384 . S
H698 C704 0.930 . S
H699 C708 0.930 . S
H700 C713 0.929 . S
H701 C711 0.929 . S
H702 C706 0.929 . S
H703 C712 0.929 . S
C704 H698 0.930 . S
C704 C705 1.367 . S
C704 C712 1.378 . S
C705 C704 1.367 . S
C705 C713 1.433 . S
C706 H702 0.929 . S
C706 C708 1.378 . S
C706 C710 1.350 . S
C707 C710 1.463 . S
C707 C712 1.350 . S
C707 N715 1.427 . S
C708 H699 0.930 . S
C708 C706 1.378 . S
C708 C709 1.367 . S
C709 C708 1.367 . S
C709 C711 1.433 . S
C710 C706 1.350 . S
C710 C707 1.463 . S
C710 N714 1.427 . S
C711 H701 0.929 . S
C711 C709 1.433 . S
C711 N714 1.384 . S
C712 H703 0.929 . S
C712 C704 1.378 . S
C712 C707 1.350 . S
C713 H700 0.929 . S
C713 C705 1.433 . S
C713 N715 1.384 . S
N714 C710 1.427 . S
N714 C711 1.384 . S
N715 C707 1.427 . S
N715 C713 1.384 . S
H716 C722 0.930 . S
H717 C726 0.930 . S
H718 C731 0.929 . S
H719 C729 0.929 . S
H720 C724 0.929 . S
H721 C730 0.929 . S
C722 H716 0.930 . S
C722 C723 1.367 . S
C722 C730 1.378 . S
C723 C722 1.367 . S
C723 C731 1.433 . S
C724 H720 0.929 . S
C724 C726 1.378 . S
C724 C728 1.350 . S
C725 C728 1.463 . S
C725 C730 1.350 . S
C725 N733 1.427 . S
C726 H717 0.930 . S
C726 C724 1.378 . S
C726 C727 1.367 . S
C727 C726 1.367 . S
C727 C729 1.433 . S
C728 C724 1.350 . S
C728 C725 1.463 . S
C728 N732 1.427 . S
C729 H719 0.929 . S
C729 C727 1.433 . S
C729 N732 1.384 . S
C730 H721 0.929 . S
C730 C722 1.378 . S
C730 C725 1.350 . S
C731 H718 0.929 . S
C731 C723 1.433 . S
C731 N733 1.384 . S
N732 C728 1.427 . S
N732 C729 1.384 . S
N733 C725 1.427 . S
N733 C731 1.384 . S
H734 C740 0.930 . S
H735 C744 0.930 . S
H736 C749 0.929 . S
H737 C747 0.929 . S
H738 C742 0.929 . S
H739 C748 0.929 . S
C740 H734 0.930 . S
C740 C741 1.367 . S
C740 C748 1.378 . S
C741 C740 1.367 . S
C741 C749 1.433 . S
C742 H738 0.929 . S
C742 C744 1.378 . S
C742 C746 1.350 . S
C743 C746 1.463 . S
C743 C748 1.350 . S
C743 N751 1.427 . S
C744 H735 0.930 . S
C744 C742 1.378 . S
C744 C745 1.367 . S
C745 C744 1.367 . S
C745 C747 1.433 . S
C746 C742 1.350 . S
C746 C743 1.463 . S
C746 N750 1.427 . S
C747 H737 0.929 . S
C747 C745 1.433 . S
C747 N750 1.384 . S
C748 H739 0.929 . S
C748 C740 1.378 . S
C748 C743 1.350 . S
C749 H736 0.929 . S
C749 C741 1.433 . S
C749 N751 1.384 . S
N750 C746 1.427 . S
N750 C747 1.384 . S
N751 C743 1.427 . S
N751 C749 1.384 . S
C327 C3 2.309 . S
C331 C22 2.309 . S
C345 C62 2.303 . S
C349 C43 2.303 . S
C363 C83 2.304 . S
C367 C102 2.304 . S
C381 C123 2.308 . S
C385 C142 2.308 . S
C399 C163 2.306 . S
C403 C182 2.306 . S
C417 C203 2.304 . S
C421 C222 2.304 . S
C435 C243 2.311 . S
C439 C262 2.311 . S
C453 C302 2.305 . S
C457 C283 2.305 . S
C471 C49 2.566 . S
C475 C9 2.551 . S
C489 C129 2.537 . S
C493 C106 2.537 . S
C507 C169 2.537 . S
C511 C209 2.552 . S
C525 C266 2.542 . S
C529 C289 2.542 . S
C543 C26 1.805 . S
C547 C226 1.821 . S
C561 C186 1.802 . S
C565 C66 1.813 . S
C579 C89 1.790 . S
C583 C306 1.790 . S
C597 C146 1.788 . S
C601 C249 1.788 . S
C615 C2 1.517 . S
C619 C122 1.551 . S
C633 C42 1.573 . S
C637 C82 1.560 . S
C651 C55 1.530 . S
C655 C95 1.542 . S
C669 C135 1.586 . S
C673 C15 1.571 . S
C687 C162 1.531 . S
C691 C282 1.543 . S
C705 C202 1.574 . S
C709 C242 1.560 . S
C723 C215 1.532 . S
C727 C255 1.545 . S
C741 C295 1.592 . S
C745 C175 1.561 . S
