# Generated by pormake.
# Topology uou, (4)-cn, num edge types: 1
# Building blocks:
#     Node 0, Type 0, BuildingBlock: ICAMEG_clean_sbu_1, # of connection points: 4
#     Node 1, Type 0, BuildingBlock: ICAMEG_clean_sbu_1, # of connection points: 4
#     Node 2, Type 0, BuildingBlock: ICAMEG_clean_sbu_1, # of connection points: 4
#     Node 3, Type 0, BuildingBlock: ICAMEG_clean_sbu_1, # of connection points: 4
#     Node 4, Type 0, BuildingBlock: ICAMEG_clean_sbu_1, # of connection points: 4
#     Node 5, Type 0, BuildingBlock: ICAMEG_clean_sbu_1, # of connection points: 4
#     Node 6, Type 0, BuildingBlock: ICAMEG_clean_sbu_1, # of connection points: 4
#     Node 7, Type 0, BuildingBlock: ICAMEG_clean_sbu_1, # of connection points: 4
#     Node 8, Type 0, BuildingBlock: ICAMEG_clean_sbu_1, # of connection points: 4
#     Node 9, Type 0, BuildingBlock: ICAMEG_clean_sbu_1, # of connection points: 4
#     Node 10, Type 0, BuildingBlock: ICAMEG_clean_sbu_1, # of connection points: 4
#     Node 11, Type 0, BuildingBlock: ICAMEG_clean_sbu_1, # of connection points: 4
#     Node 12, Type 0, BuildingBlock: ICAMEG_clean_sbu_1, # of connection points: 4
#     Node 13, Type 0, BuildingBlock: ICAMEG_clean_sbu_1, # of connection points: 4
#     Node 14, Type 0, BuildingBlock: ICAMEG_clean_sbu_1, # of connection points: 4
#     Node 15, Type 0, BuildingBlock: ICAMEG_clean_sbu_1, # of connection points: 4
#     Edge 16, Type (0, 0), BuildingBlock: MIFKUJ_clean_linker_0, # of connection points: 2
#     Edge 17, Type (0, 0), BuildingBlock: MIFKUJ_clean_linker_0, # of connection points: 2
#     Edge 18, Type (0, 0), BuildingBlock: MIFKUJ_clean_linker_0, # of connection points: 2
#     Edge 19, Type (0, 0), BuildingBlock: MIFKUJ_clean_linker_0, # of connection points: 2
#     Edge 20, Type (0, 0), BuildingBlock: MIFKUJ_clean_linker_0, # of connection points: 2
#     Edge 21, Type (0, 0), BuildingBlock: MIFKUJ_clean_linker_0, # of connection points: 2
#     Edge 22, Type (0, 0), BuildingBlock: MIFKUJ_clean_linker_0, # of connection points: 2
#     Edge 23, Type (0, 0), BuildingBlock: MIFKUJ_clean_linker_0, # of connection points: 2
#     Edge 24, Type (0, 0), BuildingBlock: MIFKUJ_clean_linker_0, # of connection points: 2
#     Edge 25, Type (0, 0), BuildingBlock: MIFKUJ_clean_linker_0, # of connection points: 2
#     Edge 26, Type (0, 0), BuildingBlock: MIFKUJ_clean_linker_0, # of connection points: 2
#     Edge 27, Type (0, 0), BuildingBlock: MIFKUJ_clean_linker_0, # of connection points: 2
#     Edge 28, Type (0, 0), BuildingBlock: MIFKUJ_clean_linker_0, # of connection points: 2
#     Edge 29, Type (0, 0), BuildingBlock: MIFKUJ_clean_linker_0, # of connection points: 2
#     Edge 30, Type (0, 0), BuildingBlock: MIFKUJ_clean_linker_0, # of connection points: 2
#     Edge 31, Type (0, 0), BuildingBlock: MIFKUJ_clean_linker_0, # of connection points: 2
#     Edge 32, Type (0, 0), BuildingBlock: MIFKUJ_clean_linker_0, # of connection points: 2
#     Edge 33, Type (0, 0), BuildingBlock: MIFKUJ_clean_linker_0, # of connection points: 2
#     Edge 34, Type (0, 0), BuildingBlock: MIFKUJ_clean_linker_0, # of connection points: 2
#     Edge 35, Type (0, 0), BuildingBlock: MIFKUJ_clean_linker_0, # of connection points: 2
#     Edge 36, Type (0, 0), BuildingBlock: MIFKUJ_clean_linker_0, # of connection points: 2
#     Edge 37, Type (0, 0), BuildingBlock: MIFKUJ_clean_linker_0, # of connection points: 2
#     Edge 38, Type (0, 0), BuildingBlock: MIFKUJ_clean_linker_0, # of connection points: 2
#     Edge 39, Type (0, 0), BuildingBlock: MIFKUJ_clean_linker_0, # of connection points: 2
#     Edge 40, Type (0, 0), BuildingBlock: MIFKUJ_clean_linker_0, # of connection points: 2
#     Edge 41, Type (0, 0), BuildingBlock: MIFKUJ_clean_linker_0, # of connection points: 2
#     Edge 42, Type (0, 0), BuildingBlock: MIFKUJ_clean_linker_0, # of connection points: 2
#     Edge 43, Type (0, 0), BuildingBlock: MIFKUJ_clean_linker_0, # of connection points: 2
#     Edge 44, Type (0, 0), BuildingBlock: MIFKUJ_clean_linker_0, # of connection points: 2
#     Edge 45, Type (0, 0), BuildingBlock: MIFKUJ_clean_linker_0, # of connection points: 2
#     Edge 46, Type (0, 0), BuildingBlock: MIFKUJ_clean_linker_0, # of connection points: 2
#     Edge 47, Type (0, 0), BuildingBlock: MIFKUJ_clean_linker_0, # of connection points: 2
# Relax obj value: 0.027
# Max RMSD: 0.084
# Mean RMSD: 0.084
data_MOF--net-uou--node1-ICAMEG_clean_sbu_1--edge1-MIFKUJ_clean_linker_0
_symmetry_space_group_name_H-M    P1
_symmetry_Int_Tables_number       1
_symmetry_cell_setting            triclinic
loop_
_symmetry_equiv_pos_as_xyz
'x, y, z'
_cell_length_a     52.998498
_cell_length_b     51.899133
_cell_length_c     74.804509
_cell_angle_alpha  89.979623
_cell_angle_beta   89.915041
_cell_angle_gamma 90.077409
loop_
_atom_site_label
_atom_site_type_symbol
_atom_site_fract_x
_atom_site_fract_y
_atom_site_fract_z
_atom_type_partial_charge
Co0 Co 0.04176 0.06441 0.12548 0.0
Co1 Co 0.09739 0.09564 0.13529 0.0
O2 O 0.07865 0.06777 0.12343 0.0
C3 C 0.04884 0.06051 0.08578 0.0
O4 O 0.0642 0.08037 0.08617 0.0
C5 C 0.12876 0.04912 0.14504 0.0
O6 O 0.10844 0.03537 0.14829 0.0
O7 O 0.08208 0.08627 0.15895 0.0
O8 O 0.04257 0.07632 0.15082 0.0
H9 H 0.10568 0.17163 0.17645 0.0
H10 H 0.07192 0.02025 0.11245 0.0
O11 O 0.03924 0.05185 0.1002 0.0
H12 H 0.02893 0.98875 0.16674 0.0
H13 H 0.95798 0.02056 0.11598 0.0
H14 H 1.00112 0.09654 0.14114 0.0
H15 H 0.02209 0.03313 0.15605 0.0
H16 H 0.00423 0.02484 0.11388 0.0
O17 O 0.12684 0.07243 0.13996 0.0
H18 H 0.08323 0.13645 0.16106 0.0
H19 H 0.15098 0.11404 0.13499 0.0
H20 H 0.95486 0.09294 0.14367 0.0
H21 H 0.07911 0.97561 0.12257 0.0
H22 H 0.93297 0.05473 0.13103 0.0
H23 H 0.05757 0.95963 0.14994 0.0
O24 O 0.03679 0.10072 0.11732 0.0
H25 H 0.13823 0.07541 0.07633 0.0
H26 H 0.10701 0.14482 0.11539 0.0
H27 H 0.12454 0.15576 0.08582 0.0
H28 H 0.14038 0.12087 0.06605 0.0
H29 H 0.12015 0.06539 0.10592 0.0
H30 H 0.17426 0.14875 0.15031 0.0
H31 H 0.15156 0.17793 0.17114 0.0
O32 O 0.06942 0.12048 0.13058 0.0
C33 C 0.05897 0.08167 0.16269 0.0
C34 C 0.11579 0.15905 0.16739 0.0
C35 C 0.15428 0.14618 0.15274 0.0
N36 N 0.11576 0.12319 0.14711 0.0
C37 C 0.10317 0.13912 0.15861 0.0
C38 C 0.14103 0.12646 0.14418 0.0
C39 C 0.14153 0.16256 0.16442 0.0
C40 C 0.06232 0.01335 0.12428 0.0
N41 N 0.04654 0.02924 0.1336 0.0
C42 C 0.06653 0.98809 0.12999 0.0
C43 C 0.05447 0.97915 0.14535 0.0
C44 C 0.03842 0.99548 0.1548 0.0
C45 C 0.03468 0.02063 0.14871 0.0
C46 C 0.96729 0.0373 0.12155 0.0
C47 C 0.99175 0.07982 0.13565 0.0
C48 C 0.99347 0.03987 0.12035 0.0
N49 N 0.00539 0.0609 0.12741 0.0
C50 C 0.96554 0.0779 0.13711 0.0
C51 C 0.95328 0.05647 0.13 0.0
C52 C 0.04841 0.12103 0.12231 0.0
C53 C 0.13132 0.09078 0.08479 0.0
C54 C 0.11343 0.12956 0.10677 0.0
C55 C 0.12356 0.13585 0.09009 0.0
C56 C 0.1325 0.11628 0.07902 0.0
N57 N 0.11219 0.1045 0.11231 0.0
C58 C 0.12108 0.08523 0.10158 0.0
Co59 Co 0.47276 0.93811 0.13067 0.0
Co60 Co 0.41892 0.9072 0.1433 0.0
O61 O 0.43602 0.93378 0.129 0.0
C62 C 0.46626 0.93849 0.0908 0.0
O63 O 0.45301 0.91713 0.09176 0.0
C64 C 0.38455 0.95283 0.14797 0.0
O65 O 0.40411 0.96807 0.15012 0.0
O66 O 0.43264 0.92282 0.16567 0.0
O67 O 0.47258 0.9281 0.1566 0.0
H68 H 0.4132 0.84106 0.19223 0.0
H69 H 0.44164 0.98082 0.11659 0.0
O70 O 0.47456 0.94906 0.10498 0.0
H71 H 0.48576 0.01696 0.1689 0.0
H72 H 0.55586 0.98218 0.11872 0.0
H73 H 0.51403 0.90757 0.14691 0.0
H74 H 0.49286 0.97191 0.15975 0.0
H75 H 0.50963 0.97724 0.11728 0.0
O76 O 0.38772 0.92889 0.14506 0.0
H77 H 0.43425 0.8739 0.17363 0.0
H78 H 0.36694 0.88485 0.14384 0.0
H79 H 0.56028 0.91189 0.14882 0.0
H80 H 0.43418 0.02608 0.12515 0.0
H81 H 0.58151 0.94941 0.13465 0.0
H82 H 0.45629 0.0444 0.15151 0.0
O83 O 0.47765 0.90131 0.12365 0.0
H84 H 0.37899 0.90982 0.08247 0.0
H85 H 0.41648 0.85371 0.1285 0.0
H86 H 0.40187 0.8347 0.10015 0.0
H87 H 0.38289 0.86281 0.07691 0.0
H88 H 0.3942 0.92811 0.11094 0.0
H89 H 0.3451 0.85227 0.16222 0.0
H90 H 0.36828 0.83004 0.18658 0.0
O91 O 0.44887 0.88383 0.14187 0.0
C92 C 0.45601 0.92655 0.16896 0.0
C93 C 0.4029 0.85057 0.18164 0.0
C94 C 0.36467 0.85689 0.16481 0.0
N95 N 0.40188 0.88124 0.15761 0.0
C96 C 0.41473 0.86917 0.17104 0.0
C97 C 0.37712 0.87539 0.15448 0.0
C98 C 0.3777 0.84442 0.17847 0.0
C99 C 0.45147 0.98873 0.12799 0.0
N100 N 0.4677 0.97376 0.13762 0.0
C101 C 0.44711 0.01434 0.13281 0.0
C102 C 0.45949 0.02459 0.14762 0.0
C103 C 0.47602 0.0092 0.15739 0.0
C104 C 0.4799 0.98367 0.15217 0.0
C105 C 0.54684 0.96575 0.12495 0.0
C106 C 0.52311 0.924 0.14077 0.0
C107 C 0.52067 0.9628 0.12413 0.0
N108 N 0.50912 0.94217 0.13206 0.0
C109 C 0.54931 0.92632 0.14187 0.0
C110 C 0.56121 0.94736 0.1339 0.0
C111 C 0.46796 0.88189 0.13157 0.0
C112 C 0.38715 0.89736 0.09252 0.0
C113 C 0.40833 0.86611 0.11844 0.0
C114 C 0.40002 0.85521 0.10243 0.0
C115 C 0.38938 0.87099 0.08939 0.0
N116 N 0.40613 0.89201 0.1214 0.0
C117 C 0.3957 0.90759 0.10868 0.0
Co118 Co 0.54157 0.94434 0.38677 0.0
Co119 Co 0.59309 0.90992 0.37388 0.0
O120 O 0.57795 0.9379 0.38787 0.0
C121 C 0.54723 0.94486 0.42675 0.0
O122 O 0.55625 0.9213 0.42636 0.0
C123 C 0.62895 0.95349 0.36675 0.0
O124 O 0.60972 0.96839 0.36285 0.0
O125 O 0.57939 0.9252 0.35143 0.0
O126 O 0.54014 0.93327 0.36105 0.0
H127 H 0.59361 0.84077 0.32684 0.0
H128 H 0.57589 0.98569 0.39919 0.0
O129 O 0.54167 0.95642 0.41227 0.0
H130 H 0.53163 0.02199 0.347 0.0
H131 H 0.46182 0.99327 0.40045 0.0
H132 H 0.4978 0.91611 0.37168 0.0
H133 H 0.52215 0.97799 0.35745 0.0
H134 H 0.50774 0.9858 0.40061 0.0
O135 O 0.62524 0.93017 0.37137 0.0
H136 H 0.5749 0.87564 0.34486 0.0
H137 H 0.64402 0.88543 0.37275 0.0
H138 H 0.45179 0.92306 0.37095 0.0
H139 H 0.58577 0.02994 0.3893 0.0
H140 H 0.43351 0.96184 0.38546 0.0
H141 H 0.56361 0.04833 0.36299 0.0
O142 O 0.53474 0.90814 0.39453 0.0
H143 H 0.63534 0.91252 0.43393 0.0
H144 H 0.59297 0.85703 0.38966 0.0
H145 H 0.60779 0.83817 0.418 0.0
H146 H 0.62923 0.86597 0.44035 0.0
H147 H 0.61995 0.93067 0.40547 0.0
H148 H 0.66355 0.85088 0.35486 0.0
H149 H 0.63828 0.82826 0.33173 0.0
O150 O 0.56193 0.8883 0.37618 0.0
C151 C 0.55611 0.92992 0.34845 0.0
C152 C 0.60483 0.85052 0.33686 0.0
C153 C 0.64409 0.8562 0.35258 0.0
N154 N 0.60832 0.88255 0.35988 0.0
C155 C 0.59432 0.87024 0.34715 0.0
C156 C 0.63294 0.87582 0.36262 0.0
C157 C 0.6299 0.84353 0.3396 0.0
C158 C 0.56603 0.99366 0.38783 0.0
N159 N 0.54842 0.97931 0.37896 0.0
C160 C 0.57175 0.01869 0.38225 0.0
C161 C 0.55933 0.02898 0.36747 0.0
C162 C 0.5414 0.01421 0.35849 0.0
C163 C 0.53617 0.98927 0.36445 0.0
C164 C 0.46956 0.97633 0.39405 0.0
C165 C 0.49001 0.93314 0.3779 0.0
C166 C 0.49555 0.97194 0.39415 0.0
N167 N 0.50548 0.95058 0.38609 0.0
C168 C 0.46394 0.93693 0.37749 0.0
C169 C 0.45369 0.95869 0.38564 0.0
C170 C 0.54288 0.88805 0.3866 0.0
C171 C 0.62611 0.9002 0.42427 0.0
C172 C 0.60223 0.86928 0.39933 0.0
C173 C 0.61063 0.85847 0.41534 0.0
C174 C 0.62265 0.87408 0.42787 0.0
N175 N 0.60574 0.89491 0.39587 0.0
C176 C 0.61744 0.91035 0.40811 0.0
Co177 Co 0.97192 0.06773 0.38042 0.0
Co178 Co 0.91747 0.09668 0.36716 0.0
O179 O 0.93495 0.06999 0.38106 0.0
C180 C 0.96368 0.06432 0.42009 0.0
O181 O 0.95046 0.08571 0.41965 0.0
C182 C 0.88522 0.04939 0.36146 0.0
O183 O 0.90535 0.0347 0.36081 0.0
O184 O 0.93336 0.08341 0.34476 0.0
O185 O 0.97293 0.07983 0.35491 0.0
H186 H 0.91155 0.16596 0.3204 0.0
H187 H 0.94253 0.02212 0.39203 0.0
O188 O 0.97254 0.05482 0.4057 0.0
H189 H 0.99117 0.99313 0.33952 0.0
H190 H 0.05629 0.02743 0.39364 0.0
H191 H 0.01261 0.10175 0.36676 0.0
H192 H 0.99538 0.03763 0.35065 0.0
H193 H 0.00982 0.02964 0.39358 0.0
O194 O 0.88741 0.07359 0.36371 0.0
H195 H 0.93302 0.13293 0.33851 0.0
H196 H 0.86452 0.11627 0.36574 0.0
H197 H 0.0591 0.10025 0.36646 0.0
H198 H 0.93807 0.97729 0.38153 0.0
H199 H 0.08126 0.06288 0.37996 0.0
H200 H 0.96242 0.96258 0.35504 0.0
O201 O 0.97445 0.10411 0.38889 0.0
H202 H 0.87356 0.08751 0.42638 0.0
H203 H 0.91143 0.14881 0.38365 0.0
H204 H 0.89352 0.16498 0.41193 0.0
H205 H 0.87435 0.13425 0.43351 0.0
H206 H 0.89191 0.07213 0.39801 0.0
H207 H 0.84227 0.14897 0.34781 0.0
H208 H 0.86584 0.17416 0.32499 0.0
O209 O 0.94617 0.12148 0.37029 0.0
C210 C 0.9571 0.08139 0.3421 0.0
C211 C 0.90108 0.15515 0.33032 0.0
C212 C 0.86219 0.14559 0.34569 0.0
N213 N 0.90009 0.12274 0.35323 0.0
C214 C 0.91315 0.13644 0.34065 0.0
C215 C 0.87489 0.12704 0.35576 0.0
C216 C 0.87543 0.15972 0.3329 0.0
C217 C 0.95338 0.01578 0.38061 0.0
N218 N 0.9692 0.03247 0.37199 0.0
C219 C 0.9507 0.9904 0.37468 0.0
C220 C 0.96434 0.98217 0.3598 0.0
C221 C 0.98046 0.99931 0.35108 0.0
C222 C 0.98268 0.02453 0.3574 0.0
C223 C 0.04686 0.0438 0.3877 0.0
C224 C 0.02209 0.08537 0.37261 0.0
C225 C 0.02054 0.04519 0.38766 0.0
N226 N 0.00849 0.06575 0.3801 0.0
C227 C 0.04843 0.08465 0.37242 0.0
C228 C 0.06085 0.06369 0.38001 0.0
C229 C 0.9646 0.12353 0.38114 0.0
C230 C 0.88179 0.10111 0.41706 0.0
C231 C 0.90318 0.13529 0.39298 0.0
C232 C 0.89302 0.14458 0.40896 0.0
C233 C 0.88226 0.12733 0.42106 0.0
N234 N 0.90258 0.10955 0.38913 0.0
C235 C 0.89212 0.09252 0.40095 0.0
Co236 Co 0.96725 0.93617 0.88282 0.0
Co237 Co 0.91369 0.90598 0.86838 0.0
O238 O 0.9307 0.93077 0.88405 0.0
C239 C 0.98329 0.93296 0.92055 0.0
O240 O 0.99866 0.91467 0.91521 0.0
C241 C 0.8794 0.95159 0.86311 0.0
O242 O 0.8985 0.9658 0.85775 0.0
O243 O 0.92801 0.92344 0.84682 0.0
O244 O 0.96756 0.92999 0.85637 0.0
H245 H 0.90801 0.84471 0.81653 0.0
H246 H 0.93491 0.97565 0.89985 0.0
O247 O 0.96783 0.94294 0.90942 0.0
H248 H 0.97759 0.02049 0.85014 0.0
H249 H 0.04903 0.98178 0.8967 0.0
H250 H 0.00948 0.9087 0.86523 0.0
H251 H 0.98621 0.97465 0.85618 0.0
H252 H 1.00298 0.97511 0.89809 0.0
O253 O 0.88287 0.9283 0.86781 0.0
H254 H 0.9292 0.87524 0.83681 0.0
H255 H 0.86125 0.88499 0.86622 0.0
H256 H 0.05558 0.91469 0.86347 0.0
H257 H 0.92591 0.0216 0.89438 0.0
H258 H 0.07565 0.95144 0.87928 0.0
H259 H 0.9473 0.04431 0.86935 0.0
O260 O 0.97277 0.89855 0.88705 0.0
H261 H 0.87237 0.90284 0.92885 0.0
H262 H 0.90999 0.85115 0.88041 0.0
H263 H 0.89416 0.82938 0.90749 0.0
H264 H 0.87508 0.85526 0.93193 0.0
H265 H 0.8888 0.92387 0.90163 0.0
H266 H 0.83928 0.85471 0.84617 0.0
H267 H 0.86271 0.83425 0.82115 0.0
O268 O 0.94332 0.8822 0.86888 0.0
C269 C 0.95128 0.92836 0.84386 0.0
C270 C 0.8976 0.85345 0.82741 0.0
C271 C 0.85902 0.85909 0.84403 0.0
N272 N 0.89653 0.88181 0.85275 0.0
C273 C 0.90952 0.87073 0.83896 0.0
C274 C 0.87155 0.87628 0.85531 0.0
C275 C 0.87218 0.84761 0.83 0.0
C276 C 0.94446 0.98546 0.88903 0.0
N277 N 0.9612 0.97251 0.87844 0.0
C278 C 0.93922 0.01145 0.88596 0.0
C279 C 0.9512 0.02417 0.87189 0.0
C280 C 0.96818 0.01082 0.8611 0.0
C281 C 0.97293 0.98483 0.86456 0.0
C282 C 0.0405 0.9657 0.88974 0.0
C283 C 0.01806 0.92475 0.87214 0.0
C284 C 0.01444 0.96183 0.89047 0.0
N285 N 1.00353 0.94155 0.88172 0.0
C286 C 0.04418 0.92804 0.87109 0.0
C287 C 0.05543 0.94867 0.87997 0.0
C288 C 0.96289 0.87971 0.8786 0.0
C289 C 0.88061 0.89135 0.91828 0.0
C290 C 0.90189 0.86257 0.89102 0.0
C291 C 0.89286 0.85012 0.9063 0.0
C292 C 0.88215 0.86465 0.92001 0.0
N293 N 0.90032 0.88877 0.88942 0.0
C294 C 0.88988 0.90314 0.90282 0.0
Co295 Co 0.53269 0.05805 0.88317 0.0
Co296 Co 0.58975 0.08751 0.87349 0.0
O297 O 0.56975 0.06002 0.88491 0.0
C298 C 0.53967 0.05451 0.92282 0.0
O299 O 0.5543 0.07494 0.92224 0.0
C300 C 0.62097 0.03893 0.86765 0.0
O301 O 0.6026 0.02379 0.87297 0.0
O302 O 0.57314 0.08068 0.84991 0.0
O303 O 0.53365 0.07012 0.85788 0.0
H304 H 0.60095 0.1647 0.83379 0.0
H305 H 0.56022 0.01216 0.8964 0.0
O306 O 0.53026 0.04546 0.90848 0.0
H307 H 0.51658 0.9833 0.84176 0.0
H308 H 0.44758 0.01737 0.89366 0.0
H309 H 0.49298 0.09135 0.86753 0.0
H310 H 0.51215 0.02803 0.85237 0.0
H311 H 0.49396 0.02006 0.89541 0.0
O312 O 0.61782 0.06322 0.86691 0.0
H313 H 0.57694 0.13069 0.84931 0.0
H314 H 0.64436 0.10252 0.8729 0.0
H315 H 0.44661 0.08934 0.86535 0.0
H316 H 0.56486 0.96712 0.88641 0.0
H317 H 0.42359 0.05214 0.87849 0.0
H318 H 0.54303 0.95247 0.85886 0.0
O319 O 0.52898 0.09448 0.89137 0.0
H320 H 0.62982 0.06181 0.93177 0.0
H321 H 0.60391 0.13481 0.89394 0.0
H322 H 0.62296 0.14332 0.92337 0.0
H323 H 0.63618 0.10663 0.9425 0.0
H324 H 0.61033 0.05424 0.9024 0.0
H325 H 0.66904 0.13639 0.85774 0.0
H326 H 0.64731 0.16788 0.83806 0.0
O327 O 0.56339 0.11351 0.87975 0.0
C328 C 0.55002 0.07632 0.84615 0.0
C329 C 0.6106 0.15128 0.84246 0.0
C330 C 0.64883 0.1353 0.85583 0.0
N331 N 0.60918 0.1147 0.86208 0.0
C332 C 0.59711 0.13195 0.85128 0.0
C333 C 0.63475 0.11611 0.86435 0.0
C334 C 0.63662 0.15297 0.84481 0.0
C335 C 0.55049 0.00587 0.88448 0.0
N336 N 0.53599 0.02274 0.87498 0.0
C337 C 0.55326 0.98037 0.87885 0.0
C338 C 0.54104 0.97217 0.86338 0.0
C339 C 0.52623 0.98947 0.85377 0.0
C340 C 0.52391 0.01482 0.8598 0.0
C341 C 0.45739 0.03368 0.88789 0.0
C342 C 0.48312 0.07507 0.87324 0.0
C343 C 0.48366 0.03535 0.88889 0.0
N344 N 0.4962 0.05584 0.88157 0.0
C345 C 0.45685 0.07405 0.87198 0.0
C346 C 0.44394 0.05319 0.87937 0.0
C347 C 0.54194 0.11446 0.88749 0.0
C348 C 0.62417 0.07797 0.92355 0.0
C349 C 0.6093 0.11877 0.90224 0.0
C350 C 0.62025 0.12369 0.91887 0.0
C351 C 0.62769 0.10311 0.92958 0.0
N352 N 0.60589 0.09407 0.89639 0.0
C353 C 0.61319 0.0738 0.90683 0.0
Co354 Co 0.46588 0.06843 0.62917 0.0
Co355 Co 0.40979 0.09703 0.64081 0.0
O356 O 0.42883 0.07005 0.62823 0.0
C357 C 0.45967 0.06529 0.5893 0.0
O358 O 0.44803 0.08762 0.5893 0.0
C359 C 0.37875 0.0484 0.64647 0.0
O360 O 0.39832 0.03357 0.64346 0.0
O361 O 0.42638 0.08742 0.66387 0.0
O362 O 0.46609 0.08092 0.65449 0.0
H363 H 0.40041 0.17144 0.68325 0.0
H364 H 0.43805 0.02188 0.61723 0.0
O365 O 0.46699 0.05527 0.60394 0.0
H366 H 0.48555 0.99469 0.67064 0.0
H367 H 0.55077 0.02913 0.61605 0.0
H368 H 0.50611 0.10256 0.64338 0.0
H369 H 0.48867 0.03928 0.65953 0.0
H370 H 0.5043 0.0309 0.61597 0.0
O371 O 0.38101 0.07283 0.64611 0.0
H372 H 0.42355 0.13761 0.66693 0.0
H373 H 0.35571 0.11338 0.6418 0.0
H374 H 0.55261 0.10138 0.64397 0.0
H375 H 0.43468 0.97694 0.62774 0.0
H376 H 0.57526 0.06448 0.6302 0.0
H377 H 0.45845 0.96313 0.65468 0.0
O378 O 0.46863 0.10477 0.62067 0.0
H379 H 0.36641 0.07807 0.58257 0.0
H380 H 0.3996 0.14655 0.62167 0.0
H381 H 0.38039 0.1582 0.59281 0.0
H382 H 0.36347 0.12382 0.57307 0.0
H383 H 0.3862 0.06727 0.6114 0.0
H384 H 0.33182 0.14678 0.65798 0.0
H385 H 0.3542 0.17619 0.67883 0.0
O386 O 0.43695 0.12298 0.63593 0.0
C387 C 0.44996 0.08469 0.6669 0.0
C388 C 0.39045 0.15879 0.67418 0.0
C389 C 0.35196 0.14492 0.66001 0.0
N390 N 0.39104 0.1236 0.65336 0.0
C391 C 0.40346 0.13962 0.66487 0.0
C392 C 0.36558 0.12598 0.65093 0.0
C393 C 0.36453 0.16142 0.6717 0.0
C394 C 0.44861 0.01595 0.62887 0.0
N395 N 0.46346 0.03322 0.63777 0.0
C396 C 0.44655 0.99051 0.63481 0.0
C397 C 0.45986 0.98278 0.64994 0.0
C398 C 0.47503 1.00049 0.65892 0.0
C399 C 0.47662 0.02577 0.65261 0.0
C400 C 0.54112 0.04528 0.62213 0.0
C401 C 0.51581 0.08634 0.63749 0.0
C402 C 0.51479 0.04643 0.62209 0.0
N403 N 0.50246 0.06675 0.62976 0.0
C404 C 0.54215 0.08581 0.63781 0.0
C405 C 0.55485 0.06512 0.63007 0.0
C406 C 0.4571 0.12454 0.62666 0.0
C407 C 0.37365 0.09323 0.59108 0.0
C408 C 0.39251 0.13147 0.61311 0.0
C409 C 0.38154 0.13819 0.59681 0.0
C410 C 0.37204 0.1189 0.58574 0.0
N411 N 0.39395 0.10626 0.6183 0.0
C412 C 0.38479 0.08724 0.60747 0.0
Co413 Co 0.03333 0.94279 0.62619 0.0
Co414 Co 0.08672 0.91045 0.63749 0.0
O415 O 0.06989 0.93802 0.62409 0.0
C416 C 0.03909 0.94514 0.58634 0.0
O417 O 0.05145 0.92323 0.58669 0.0
C418 C 0.12174 0.95486 0.64463 0.0
O419 O 0.10257 0.96876 0.65017 0.0
O420 O 0.07357 0.92494 0.66042 0.0
O421 O 0.0336 0.93107 0.65177 0.0
H422 H 0.09209 0.84058 0.68389 0.0
H423 H 0.06532 0.98587 0.61347 0.0
O424 O 0.03154 0.95541 0.60085 0.0
H425 H 0.02206 0.01895 0.66717 0.0
H426 H 0.95097 0.98894 0.61623 0.0
H427 H 0.99165 0.91196 0.64185 0.0
H428 H 0.0139 0.97485 0.65641 0.0
H429 H 0.99706 0.98323 0.61418 0.0
O430 O 0.11821 0.93189 0.6392 0.0
H431 H 0.07124 0.875 0.66668 0.0
H432 H 0.13863 0.88813 0.63722 0.0
H433 H 0.94553 0.91702 0.64436 0.0
H434 H 0.07388 0.03025 0.62368 0.0
H435 H 0.92488 0.95574 0.63149 0.0
H436 H 0.05221 0.04702 0.65074 0.0
O437 O 0.02778 0.90654 0.6181 0.0
H438 H 0.12601 0.91533 0.57642 0.0
H439 H 0.08785 0.85776 0.62144 0.0
H440 H 0.10207 0.83978 0.59265 0.0
H441 H 0.12139 0.86863 0.56991 0.0
H442 H 0.11127 0.93257 0.60534 0.0
H443 H 0.1603 0.85411 0.6543 0.0
H444 H 0.13697 0.83 0.67779 0.0
O445 O 0.05627 0.88763 0.63587 0.0
C446 C 0.05026 0.92857 0.66397 0.0
C447 C 0.10246 0.85097 0.6737 0.0
C448 C 0.14075 0.85857 0.6571 0.0
N449 N 0.10366 0.88354 0.65091 0.0
C450 C 0.09074 0.87043 0.66387 0.0
C451 C 0.1284 0.87789 0.64751 0.0
C452 C 0.12765 0.84506 0.67028 0.0
C453 C 0.05568 0.99313 0.62517 0.0
N454 N 0.03907 0.97783 0.63427 0.0
C455 C 0.06066 0.01823 0.63092 0.0
C456 C 0.04851 0.02762 0.64612 0.0
C457 C 0.03161 0.01188 0.65535 0.0
C458 C 0.02711 0.98689 0.64921 0.0
C459 C 0.95974 0.97199 0.6219 0.0
C460 C 0.98283 0.9289 0.63627 0.0
C461 C 0.98583 0.96861 0.62073 0.0
N462 N 0.99707 0.94732 0.62795 0.0
C463 C 0.95669 0.93165 0.63771 0.0
C464 C 0.94512 0.95336 0.63048 0.0
C465 C 0.037 0.88668 0.62571 0.0
C466 C 0.11771 0.90255 0.58624 0.0
C467 C 0.09617 0.87047 0.61161 0.0
C468 C 0.10424 0.86015 0.59534 0.0
C469 C 0.11508 0.87635 0.58259 0.0
N470 N 0.09884 0.89619 0.6151 0.0
C471 C 0.10941 0.91219 0.60266 0.0
Co472 Co 0.52997 0.56133 0.12309 0.0
Co473 Co 0.58889 0.58617 0.13248 0.0
O474 O 0.56679 0.56132 0.12046 0.0
C475 C 0.53637 0.55945 0.08334 0.0
O476 O 0.55301 0.57817 0.08427 0.0
C477 C 0.62584 0.55182 0.15043 0.0
O478 O 0.61814 0.56139 0.16574 0.0
O479 O 0.57294 0.57796 0.15612 0.0
O480 O 0.53254 0.57112 0.14874 0.0
H481 H 0.6092 0.65619 0.17658 0.0
H482 H 0.55584 0.51549 0.10826 0.0
O483 O 0.52593 0.55091 0.09748 0.0
H484 H 0.5103 0.48414 0.16155 0.0
H485 H 0.44224 0.52685 0.11295 0.0
H486 H 0.49293 0.5954 0.14108 0.0
H487 H 0.50778 0.52979 0.15263 0.0
H488 H 0.4886 0.5269 0.11023 0.0
O489 O 0.61481 0.55824 0.13593 0.0
H490 H 0.58137 0.62639 0.16008 0.0
H491 H 0.64413 0.59804 0.13072 0.0
H492 H 0.44663 0.59601 0.14428 0.0
H493 H 0.55868 0.46958 0.1166 0.0
H494 H 0.42094 0.56155 0.13013 0.0
H495 H 0.53582 0.45365 0.14343 0.0
O496 O 0.52843 0.59854 0.11639 0.0
H497 H 0.6267 0.56428 0.07274 0.0
H498 H 0.60185 0.63484 0.1132 0.0
H499 H 0.61994 0.64519 0.08367 0.0
H500 H 0.63258 0.60976 0.06323 0.0
H501 H 0.60823 0.55481 0.10231 0.0
H502 H 0.67245 0.62799 0.14656 0.0
H503 H 0.65504 0.65726 0.16974 0.0
O504 O 0.56396 0.61465 0.12864 0.0
C505 C 0.54978 0.57481 0.16029 0.0
C506 C 0.61697 0.64365 0.16641 0.0
C507 C 0.65251 0.62775 0.14963 0.0
N508 N 0.61109 0.6105 0.14444 0.0
C509 C 0.60132 0.6267 0.15707 0.0
C510 C 0.63635 0.61088 0.14067 0.0
C511 C 0.64271 0.64419 0.16262 0.0
C512 C 0.54573 0.50866 0.11989 0.0
N513 N 0.53158 0.52528 0.12989 0.0
C514 C 0.54745 0.48267 0.12458 0.0
C515 C 0.53464 0.47375 0.13964 0.0
C516 C 0.52033 0.49084 0.14982 0.0
C517 C 0.51904 0.5167 0.14473 0.0
C518 C 0.45321 0.542 0.11915 0.0
C519 C 0.4819 0.58037 0.13489 0.0
C520 C 0.47948 0.5422 0.11758 0.0
N521 N 0.49348 0.5612 0.12545 0.0
C522 C 0.45568 0.5808 0.13674 0.0
C523 C 0.44128 0.56146 0.1288 0.0
C524 C 0.54257 0.61733 0.12102 0.0
C525 C 0.6213 0.57989 0.08154 0.0
C526 C 0.60712 0.61932 0.10433 0.0
C527 C 0.61746 0.6253 0.08765 0.0
C528 C 0.62457 0.60541 0.0762 0.0
N529 N 0.60396 0.59425 0.10947 0.0
C530 C 0.6109 0.57465 0.09832 0.0
Co531 Co 0.96917 0.43543 0.13113 0.0
Co532 Co 0.91049 0.41159 0.142 0.0
O533 O 0.93215 0.43684 0.12975 0.0
C534 C 0.96136 0.4408 0.0917 0.0
O535 O 0.94503 0.42176 0.09223 0.0
C536 C 0.88226 0.46254 0.14465 0.0
O537 O 0.90043 0.47526 0.13663 0.0
O538 O 0.92763 0.41908 0.16522 0.0
O539 O 0.96785 0.42284 0.15635 0.0
H540 H 0.89387 0.33737 0.18356 0.0
H541 H 0.94559 0.48415 0.11896 0.0
O542 O 0.97204 0.44844 0.10598 0.0
H543 H 0.9935 0.50713 0.17312 0.0
H544 H 0.05736 0.4681 0.12003 0.0
H545 H 0.006 0.3978 0.14555 0.0
H546 H 0.99349 0.46252 0.16189 0.0
H547 H 0.0109 0.46994 0.11892 0.0
O548 O 0.88433 0.43849 0.14779 0.0
H549 H 0.92024 0.36891 0.16739 0.0
H550 H 0.85495 0.40125 0.14335 0.0
H551 H 0.0524 0.39528 0.14707 0.0
H552 H 0.94528 0.52909 0.12967 0.0
H553 H 0.07841 0.43061 0.13426 0.0
H554 H 0.96929 0.54081 0.15699 0.0
O555 O 0.969 0.39915 0.12247 0.0
H556 H 0.87126 0.43435 0.08269 0.0
H557 H 0.8944 0.36357 0.12335 0.0
H558 H 0.87437 0.35351 0.09452 0.0
H559 H 0.86248 0.38906 0.07397 0.0
H560 H 0.89169 0.44348 0.11145 0.0
H561 H 0.8279 0.37027 0.15943 0.0
H562 H 0.84734 0.33794 0.17963 0.0
O563 O 0.93512 0.38326 0.13676 0.0
C564 C 0.95123 0.42013 0.16854 0.0
C565 C 0.88518 0.35131 0.17474 0.0
C566 C 0.84815 0.3698 0.16122 0.0
N567 N 0.88921 0.38679 0.15434 0.0
C568 C 0.90003 0.36917 0.16551 0.0
C569 C 0.86358 0.38735 0.1522 0.0
C570 C 0.85908 0.35166 0.17255 0.0
C571 C 0.95616 0.48911 0.13082 0.0
N572 N 0.96939 0.47067 0.13983 0.0
C573 C 0.95587 0.51459 0.13684 0.0
C574 C 0.96933 0.52114 0.15218 0.0
C575 C 0.98287 0.50225 0.16126 0.0
C576 C 0.98268 0.47697 0.15487 0.0
C577 C 0.04623 0.4526 0.12568 0.0
C578 C 0.01718 0.4133 0.14 0.0
C579 C 0.01991 0.45349 0.12504 0.0
N580 N 0.00573 0.43404 0.13222 0.0
C581 C 0.04345 0.41175 0.14087 0.0
C582 C 0.05803 0.43156 0.13367 0.0
C583 C 0.95545 0.38031 0.12782 0.0
C584 C 0.87616 0.41869 0.09158 0.0
C585 C 0.88938 0.37917 0.11451 0.0
C586 C 0.87797 0.37334 0.09819 0.0
C587 C 0.8713 0.39328 0.08668 0.0
N588 N 0.8939 0.40416 0.11936 0.0
C589 C 0.88759 0.42378 0.10802 0.0
Co590 Co 0.03799 0.43976 0.3852 0.0
Co591 Co 0.0959 0.41794 0.37185 0.0
O592 O 0.07499 0.44222 0.38552 0.0
C593 C 0.04678 0.44481 0.42466 0.0
O594 O 0.06226 0.42507 0.42424 0.0
C595 C 0.12445 0.46894 0.37065 0.0
O596 O 0.10665 0.48109 0.37943 0.0
O597 O 0.07769 0.42756 0.3495 0.0
O598 O 0.03802 0.42739 0.35982 0.0
H599 H 0.11018 0.3477 0.32673 0.0
H600 H 0.06139 0.48898 0.39654 0.0
O601 O 0.03634 0.45273 0.41038 0.0
H602 H 0.00868 0.51104 0.34449 0.0
H603 H 0.94954 0.4687 0.39964 0.0
H604 H 1.00154 0.40085 0.3719 0.0
H605 H 0.0105 0.46639 0.35563 0.0
H606 H 0.99591 0.47261 0.39891 0.0
O607 O 0.12206 0.44518 0.36665 0.0
H608 H 0.08474 0.37782 0.34475 0.0
H609 H 0.15121 0.4073 0.36903 0.0
H610 H 0.95526 0.39627 0.3722 0.0
H611 H 0.05991 0.53397 0.38596 0.0
H612 H 0.92891 0.43036 0.38616 0.0
H613 H 0.03346 0.54523 0.35971 0.0
O614 O 0.03989 0.4035 0.39378 0.0
H615 H 0.13862 0.43497 0.43086 0.0
H616 H 0.11137 0.3681 0.38826 0.0
H617 H 0.13281 0.3553 0.41605 0.0
H618 H 0.14677 0.38886 0.43755 0.0
H619 H 0.11685 0.44688 0.40309 0.0
H620 H 0.17735 0.37771 0.35112 0.0
H621 H 0.15684 0.34753 0.32985 0.0
O622 O 0.07128 0.38926 0.37635 0.0
C623 C 0.05388 0.42711 0.34697 0.0
C624 C 0.11933 0.3607 0.33599 0.0
C625 C 0.15704 0.37757 0.34967 0.0
N626 N 0.11642 0.39419 0.35803 0.0
C627 C 0.10502 0.37776 0.34627 0.0
C628 C 0.14212 0.39434 0.35974 0.0
C629 C 0.14551 0.36063 0.33774 0.0
C630 C 0.04979 0.49374 0.38514 0.0
N631 N 0.03621 0.47502 0.37664 0.0
C632 C 0.04905 0.51925 0.3792 0.0
C633 C 0.03422 0.52554 0.36446 0.0
C634 C 0.02034 0.50637 0.3559 0.0
C635 C 0.02156 0.48107 0.36221 0.0
C636 C 0.96082 0.45375 0.39348 0.0
C637 C 0.99023 0.41585 0.3779 0.0
C638 C 0.98709 0.45583 0.39307 0.0
N639 N 1.00145 0.43705 0.38527 0.0
C640 C 0.96401 0.41312 0.37807 0.0
C641 C 0.94925 0.43223 0.38591 0.0
C642 C 0.05259 0.38525 0.38677 0.0
C643 C 0.13286 0.42018 0.42151 0.0
C644 C 0.11741 0.38287 0.39749 0.0
C645 C 0.12955 0.37548 0.41323 0.0
C646 C 0.13737 0.39431 0.42528 0.0
N647 N 0.11334 0.40833 0.39374 0.0
C648 C 0.12067 0.42685 0.40563 0.0
Co649 Co 0.47357 0.57029 0.37926 0.0
Co650 Co 0.41753 0.59758 0.36742 0.0
O651 O 0.43662 0.57141 0.38072 0.0
C652 C 0.46588 0.56562 0.41877 0.0
O653 O 0.45148 0.58619 0.41849 0.0
C654 C 0.38452 0.54954 0.36736 0.0
O655 O 0.40231 0.53565 0.37477 0.0
O656 O 0.43314 0.58541 0.34469 0.0
O657 O 0.47322 0.58294 0.3539 0.0
H658 H 0.4076 0.66803 0.32185 0.0
H659 H 0.44676 0.52317 0.39123 0.0
O660 O 0.47545 0.557 0.40435 0.0
H661 H 0.49411 0.49717 0.3374 0.0
H662 H 0.55954 0.53223 0.39035 0.0
H663 H 0.51271 0.60564 0.36496 0.0
H664 H 0.49671 0.5417 0.34865 0.0
H665 H 0.51306 0.53327 0.3915 0.0
O666 O 0.3883 0.57322 0.36362 0.0
H667 H 0.43093 0.63554 0.33928 0.0
H668 H 0.36364 0.61433 0.36653 0.0
H669 H 0.55918 0.60527 0.36338 0.0
H670 H 0.44376 0.47834 0.38049 0.0
H671 H 0.58292 0.56836 0.37613 0.0
H672 H 0.46749 0.46511 0.35335 0.0
O673 O 0.47529 0.60643 0.38808 0.0
H674 H 0.37678 0.58661 0.42783 0.0
H675 H 0.40929 0.64923 0.38387 0.0
H676 H 0.39153 0.66482 0.41233 0.0
H677 H 0.37499 0.63344 0.43451 0.0
H678 H 0.39499 0.57182 0.39937 0.0
H679 H 0.33955 0.64639 0.34927 0.0
H680 H 0.36157 0.67362 0.32679 0.0
O681 O 0.44542 0.62349 0.37054 0.0
C682 C 0.45677 0.58403 0.34148 0.0
C683 C 0.39781 0.65634 0.33164 0.0
C684 C 0.35961 0.64418 0.34701 0.0
N685 N 0.39873 0.62316 0.35399 0.0
C686 C 0.41094 0.63795 0.34158 0.0
C687 C 0.37335 0.62599 0.35671 0.0
C688 C 0.37198 0.65944 0.33441 0.0
C689 C 0.45716 0.51755 0.37943 0.0
N690 N 0.47171 0.53511 0.37052 0.0
C691 C 0.45537 0.49214 0.3734 0.0
C692 C 0.46868 0.48474 0.35816 0.0
C693 C 0.48357 0.50273 0.34918 0.0
C694 C 0.48487 0.52797 0.35558 0.0
C695 C 0.54941 0.54841 0.38473 0.0
C696 C 0.52289 0.58946 0.37048 0.0
C697 C 0.52309 0.54915 0.38539 0.0
N698 N 0.51016 0.56944 0.37822 0.0
C699 C 0.54921 0.58938 0.36957 0.0
C700 C 0.56252 0.56868 0.37674 0.0
C701 C 0.46437 0.62572 0.38094 0.0
C702 C 0.38373 0.60049 0.4182 0.0
C703 C 0.4021 0.63539 0.39342 0.0
C704 C 0.39206 0.64437 0.40952 0.0
C705 C 0.38278 0.62676 0.42196 0.0
N706 N 0.40275 0.60958 0.38972 0.0
C707 C 0.39391 0.59221 0.40196 0.0
Co708 Co 0.47287 0.43122 0.87815 0.0
Co709 Co 0.41434 0.40874 0.86641 0.0
O710 O 0.43587 0.43362 0.87901 0.0
C711 C 0.46365 0.43835 0.91727 0.0
O712 O 0.44683 0.41977 0.91676 0.0
C713 C 0.38644 0.45989 0.86395 0.0
O714 O 0.4045 0.47239 0.87221 0.0
O715 O 0.43217 0.41665 0.84352 0.0
O716 O 0.47217 0.41769 0.85311 0.0
H717 H 0.39827 0.33544 0.82403 0.0
H718 H 0.45002 0.48097 0.88897 0.0
O719 O 0.47518 0.44511 0.90308 0.0
H720 H 0.50029 0.50055 0.83513 0.0
H721 H 0.56145 0.46197 0.89005 0.0
H722 H 0.5092 0.39201 0.86515 0.0
H723 H 0.49899 0.45648 0.84733 0.0
H724 H 0.51503 0.46511 0.89033 0.0
O725 O 0.38849 0.43591 0.86061 0.0
H726 H 0.42444 0.3665 0.84073 0.0
H727 H 0.35879 0.39876 0.86443 0.0
H728 H 0.55555 0.38816 0.86448 0.0
H729 H 0.45098 0.52541 0.87729 0.0
H730 H 0.58202 0.42332 0.87699 0.0
H731 H 0.47617 0.53541 0.85012 0.0
O732 O 0.47134 0.39532 0.88745 0.0
H733 H 0.37348 0.43054 0.92541 0.0
H734 H 0.39774 0.36041 0.88452 0.0
H735 H 0.37685 0.34989 0.91302 0.0
H736 H 0.36438 0.38512 0.93367 0.0
H737 H 0.39479 0.44012 0.897 0.0
H738 H 0.33193 0.36829 0.84781 0.0
H739 H 0.35166 0.33623 0.82751 0.0
O740 O 0.43864 0.38009 0.87167 0.0
C741 C 0.45591 0.41636 0.8406 0.0
C742 C 0.38946 0.34926 0.83288 0.0
C743 C 0.35222 0.36772 0.84621 0.0
N744 N 0.39321 0.38432 0.85364 0.0
C745 C 0.40419 0.36685 0.84241 0.0
C746 C 0.36754 0.385 0.85554 0.0
C747 C 0.3633 0.34974 0.83483 0.0
C748 C 0.46111 0.48519 0.87719 0.0
N749 N 0.47429 0.4661 0.8688 0.0
C750 C 0.46154 0.51039 0.87062 0.0
C751 C 0.47566 0.51598 0.85536 0.0
C752 C 0.48915 0.49642 0.84692 0.0
C753 C 0.48825 0.47146 0.85386 0.0
C754 C 0.55013 0.44654 0.88454 0.0
C755 C 0.52058 0.40744 0.87055 0.0
C756 C 0.52383 0.44818 0.8847 0.0
N757 N 0.5094 0.42882 0.87768 0.0
C758 C 0.54682 0.40513 0.87016 0.0
C759 C 0.56166 0.42485 0.8772 0.0
C760 C 0.45804 0.37672 0.88149 0.0
C761 C 0.37861 0.41503 0.91646 0.0
C762 C 0.39246 0.37587 0.8934 0.0
C763 C 0.38057 0.36979 0.90953 0.0
C764 C 0.37357 0.38954 0.92111 0.0
N765 N 0.39714 0.40094 0.88881 0.0
C766 C 0.39054 0.42037 0.90021 0.0
Co767 Co 0.03376 0.56248 0.88594 0.0
Co768 Co 0.09299 0.58339 0.87504 0.0
O769 O 0.07054 0.55969 0.88786 0.0
C770 C 0.04052 0.55835 0.92557 0.0
O771 O 0.05743 0.57685 0.92493 0.0
C772 C 0.12955 0.54758 0.85818 0.0
O773 O 0.12181 0.55622 0.84262 0.0
O774 O 0.07665 0.57358 0.85197 0.0
O775 O 0.03609 0.57375 0.86039 0.0
H776 H 0.11344 0.65125 0.82932 0.0
H777 H 0.05677 0.51389 0.89874 0.0
O778 O 0.02987 0.55063 0.9113 0.0
H779 H 0.00705 0.48962 0.84566 0.0
H780 H 0.94407 0.53417 0.89682 0.0
H781 H 0.99882 0.60098 0.87034 0.0
H782 H 0.00819 0.5347 0.85602 0.0
H783 H 0.99038 0.53033 0.89842 0.0
O784 O 0.11858 0.55494 0.8725 0.0
H785 H 0.08573 0.6218 0.84621 0.0
H786 H 0.14839 0.59481 0.87618 0.0
H787 H 0.95262 0.60548 0.86832 0.0
H788 H 0.05595 0.4685 0.88895 0.0
H789 H 0.92489 0.57192 0.88162 0.0
H790 H 0.03098 0.45614 0.86221 0.0
O791 O 0.03529 0.59915 0.89381 0.0
H792 H 0.13103 0.56532 0.93523 0.0
H793 H 0.10602 0.63332 0.89279 0.0
H794 H 0.12437 0.64547 0.92184 0.0
H795 H 0.13711 0.61134 0.94328 0.0
H796 H 0.11232 0.55403 0.90609 0.0
H797 H 0.17672 0.62412 0.8597 0.0
H798 H 0.15933 0.65253 0.83602 0.0
O799 O 0.06852 0.61254 0.87772 0.0
C800 C 0.05313 0.57387 0.84833 0.0
C801 C 0.12127 0.63895 0.83959 0.0
C802 C 0.1568 0.62368 0.85661 0.0
N803 N 0.11539 0.6066 0.86218 0.0
C804 C 0.10567 0.62222 0.8492 0.0
C805 C 0.14064 0.60715 0.86592 0.0
C806 C 0.14701 0.63964 0.84335 0.0
C807 C 0.04575 0.50862 0.88716 0.0
N808 N 0.03246 0.5269 0.87802 0.0
C809 C 0.04541 0.48291 0.88165 0.0
C810 C 0.03141 0.47599 0.86664 0.0
C811 C 0.01799 0.49476 0.85734 0.0
C812 C 0.01877 0.52028 0.86324 0.0
C813 C 0.95595 0.54891 0.89096 0.0
C814 C 0.9869 0.58623 0.8761 0.0
C815 C 0.98219 0.54687 0.89187 0.0
N816 N 0.99731 0.56534 0.8844 0.0
C817 C 0.96074 0.58891 0.87494 0.0
C818 C 0.9452 0.57009 0.88242 0.0
C819 C 0.04885 0.61705 0.88708 0.0
C820 C 0.12563 0.58037 0.92598 0.0
C821 C 0.11136 0.61835 0.90207 0.0
C822 C 0.12184 0.62535 0.91849 0.0
C823 C 0.129 0.60619 0.9305 0.0
N824 N 0.10819 0.59297 0.8977 0.0
C825 C 0.11511 0.57409 0.90943 0.0
Co826 Co 0.97413 0.56651 0.62912 0.0
Co827 Co 0.91827 0.59335 0.64223 0.0
O828 O 0.93714 0.56772 0.62825 0.0
C829 C 0.96607 0.56356 0.58946 0.0
O830 O 0.95214 0.58446 0.59002 0.0
C831 C 0.88549 0.5451 0.64206 0.0
O832 O 0.90281 0.53183 0.6336 0.0
O833 O 0.93466 0.58081 0.66454 0.0
O834 O 0.97449 0.57806 0.65474 0.0
H835 H 0.90919 0.66251 0.68881 0.0
H836 H 0.9469 0.52004 0.61654 0.0
O837 O 0.97536 0.55426 0.60374 0.0
H838 H 0.9951 0.49157 0.66929 0.0
H839 H 0.05971 0.52908 0.61558 0.0
H840 H 0.01372 0.60114 0.64354 0.0
H841 H 0.99792 0.53647 0.65875 0.0
H842 H 0.01321 0.53 0.61549 0.0
O843 O 0.88936 0.56858 0.64632 0.0
H844 H 0.93224 0.63074 0.67055 0.0
H845 H 0.86427 0.60953 0.64431 0.0
H846 H 0.06024 0.60083 0.64413 0.0
H847 H 0.94379 0.47482 0.62646 0.0
H848 H 0.08355 0.56462 0.63005 0.0
H849 H 0.96792 0.46035 0.65307 0.0
O850 O 0.97572 0.60307 0.62102 0.0
H851 H 0.87612 0.58372 0.58225 0.0
H852 H 0.90901 0.64534 0.62663 0.0
H853 H 0.89036 0.66159 0.59868 0.0
H854 H 0.87363 0.63072 0.57628 0.0
H855 H 0.89517 0.56828 0.61022 0.0
H856 H 0.84046 0.64086 0.66243 0.0
H857 H 0.86295 0.66772 0.68481 0.0
O858 O 0.94586 0.61954 0.63892 0.0
C859 C 0.95834 0.57918 0.6674 0.0
C860 C 0.89919 0.65098 0.67906 0.0
C861 C 0.86061 0.63881 0.66427 0.0
N862 N 0.89968 0.61841 0.65629 0.0
C863 C 0.91216 0.633 0.66865 0.0
C864 C 0.8742 0.62104 0.65409 0.0
C865 C 0.87324 0.65388 0.67683 0.0
C866 C 0.95752 0.51387 0.62809 0.0
N867 N 0.97237 0.53097 0.63714 0.0
C868 C 0.95566 0.48825 0.63366 0.0
C869 C 0.96919 0.48015 0.6486 0.0
C870 C 0.98441 0.49766 0.65771 0.0
C871 C 0.98581 0.52312 0.65175 0.0
C872 C 0.04977 0.54495 0.62178 0.0
C873 C 0.02371 0.58525 0.63748 0.0
C874 C 0.02342 0.54562 0.62172 0.0
N875 N 0.01073 0.56556 0.62957 0.0
C876 C 0.05006 0.5852 0.63781 0.0
C877 C 0.06313 0.56489 0.6299 0.0
C878 C 0.9648 0.6221 0.62851 0.0
C879 C 0.88314 0.59738 0.59199 0.0
C880 C 0.90171 0.63172 0.61701 0.0
C881 C 0.89118 0.64108 0.60118 0.0
C882 C 0.8818 0.62374 0.58862 0.0
N883 N 0.90272 0.60581 0.62033 0.0
C884 C 0.89379 0.58873 0.60796 0.0
Co885 Co 0.53419 0.44137 0.62372 0.0
Co886 Co 0.59337 0.41728 0.6329 0.0
O887 O 0.57097 0.44223 0.62137 0.0
C888 C 0.5402 0.44381 0.58399 0.0
O889 O 0.55587 0.42424 0.58463 0.0
C890 C 0.6299 0.4516 0.65158 0.0
O891 O 0.62266 0.44112 0.66673 0.0
O892 O 0.57705 0.42389 0.65669 0.0
O893 O 0.53667 0.43083 0.64921 0.0
H894 H 0.61363 0.34325 0.6737 0.0
H895 H 0.55965 0.48811 0.60977 0.0
O896 O 0.5304 0.45259 0.59827 0.0
H897 H 0.51258 0.51707 0.663 0.0
H898 H 0.446 0.47427 0.61342 0.0
H899 H 0.49753 0.40583 0.64084 0.0
H900 H 0.51091 0.47166 0.65343 0.0
H901 H 0.4924 0.47532 0.61104 0.0
O902 O 0.61875 0.4456 0.63704 0.0
H903 H 0.58597 0.3748 0.65881 0.0
H904 H 0.649 0.407 0.63162 0.0
H905 H 0.4512 0.40415 0.64366 0.0
H906 H 0.56164 0.5338 0.61875 0.0
H907 H 0.4251 0.43854 0.62989 0.0
H908 H 0.53802 0.54853 0.64556 0.0
O909 O 0.53322 0.40434 0.61646 0.0
H910 H 0.63018 0.44345 0.57366 0.0
H911 H 0.60854 0.3701 0.61263 0.0
H912 H 0.62682 0.36187 0.58286 0.0
H913 H 0.63785 0.39875 0.56315 0.0
H914 H 0.61153 0.45073 0.60344 0.0
H915 H 0.67735 0.37593 0.64633 0.0
H916 H 0.65971 0.34374 0.66752 0.0
O917 O 0.56897 0.38851 0.62834 0.0
C918 C 0.55378 0.42667 0.66078 0.0
C919 C 0.62156 0.3572 0.6645 0.0
C920 C 0.65733 0.37556 0.64915 0.0
N921 N 0.61583 0.39272 0.64435 0.0
C922 C 0.60599 0.37509 0.65601 0.0
C923 C 0.64117 0.39313 0.64089 0.0
C924 C 0.64741 0.35749 0.66103 0.0
C925 C 0.54922 0.49441 0.6214 0.0
N926 N 0.53513 0.47724 0.63104 0.0
C927 C 0.55046 0.52029 0.62645 0.0
C928 C 0.53722 0.52853 0.6415 0.0
C929 C 0.52296 0.51089 0.65129 0.0
C930 C 0.52216 0.48517 0.64585 0.0
C931 C 0.45717 0.45917 0.61948 0.0
C932 C 0.48632 0.42092 0.63485 0.0
C933 C 0.48345 0.45961 0.61812 0.0
N934 N 0.49768 0.44068 0.62582 0.0
C935 C 0.46008 0.41984 0.63647 0.0
C936 C 0.44545 0.43913 0.62873 0.0
C937 C 0.5475 0.38556 0.62085 0.0
C938 C 0.62544 0.42722 0.58211 0.0
C939 C 0.61296 0.38619 0.60406 0.0
C940 C 0.62348 0.38144 0.58725 0.0
C941 C 0.62971 0.40214 0.57622 0.0
N942 N 0.60878 0.41083 0.60975 0.0
C943 C 0.61491 0.43122 0.59901 0.0
H944 H 0.36851 0.0033 0.14697 0.0
H945 H 0.32488 0.01901 0.14754 0.0
H946 H 0.29783 0.94083 0.15206 0.0
H947 H 0.34102 0.92509 0.15096 0.0
H948 H 0.27008 0.96469 0.12917 0.0
H949 H 0.29912 0.98455 0.18836 0.0
H950 H 0.32743 0.00364 0.21091 0.0
H951 H 0.31227 0.07921 0.19019 0.0
H952 H 0.28411 0.06053 0.16736 0.0
H953 H 0.14248 0.99857 0.15139 0.0
H954 H 0.18549 0.9811 0.15335 0.0
H955 H 0.21606 0.05713 0.14463 0.0
H956 H 0.17366 0.0746 0.14287 0.0
H957 H 0.24136 0.03317 0.17065 0.0
H958 H 0.21333 0.01273 0.11094 0.0
H959 H 0.18485 0.99345 0.08858 0.0
H960 H 0.19795 0.91839 0.11085 0.0
H961 H 0.22626 0.93729 0.13351 0.0
C962 C 0.35325 0.9895 0.14815 0.0
C963 C 0.35833 0.96294 0.1489 0.0
C964 C 0.32828 0.99849 0.14855 0.0
C965 C 0.30791 0.98114 0.15003 0.0
C966 C 0.31307 0.95465 0.15085 0.0
C967 C 0.3379 0.94568 0.15026 0.0
C968 C 0.2812 0.99032 0.15043 0.0
C969 C 0.26378 0.9794 0.13845 0.0
C970 C 0.27286 0.00983 0.16229 0.0
C971 C 0.28969 0.02112 0.17605 0.0
C972 C 0.30196 0.00522 0.18854 0.0
C973 C 0.31796 0.01597 0.20138 0.0
C974 C 0.32169 0.04262 0.20195 0.0
C975 C 0.30938 0.05858 0.18971 0.0
C976 C 0.29338 0.04792 0.17683 0.0
C977 C 0.15838 0.01155 0.14998 0.0
C978 C 0.1545 0.03799 0.14689 0.0
C979 C 0.18296 1.00154 0.15103 0.0
C980 C 0.20408 0.01778 0.149 0.0
C981 C 0.20016 0.04419 0.14627 0.0
C982 C 0.17576 0.05414 0.14517 0.0
C983 C 0.23037 0.00756 0.14939 0.0
C984 C 0.24769 0.01832 0.16148 0.0
C985 C 0.2386 0.98785 0.13769 0.0
C986 C 0.22168 0.97646 0.12403 0.0
C987 C 0.20998 0.99214 0.11115 0.0
C988 C 0.1939 0.98128 0.09841 0.0
C989 C 0.18953 0.95472 0.09833 0.0
C990 C 0.20131 0.93896 0.11095 0.0
C991 C 0.21738 0.94974 0.12374 0.0
H992 H 0.17707 0.94634 0.08845 0.0
H993 H 0.33409 0.0509 0.2119 0.0
H994 H 0.64529 0.00267 0.35904 0.0
H995 H 0.68892 0.01822 0.35745 0.0
H996 H 0.7159 0.94209 0.37035 0.0
H997 H 0.67257 0.9266 0.37232 0.0
H998 H 0.74174 0.97619 0.38856 0.0
H999 H 0.71807 0.96683 0.32705 0.0
H1000 H 0.69183 0.97365 0.30027 0.0
H1001 H 0.70507 0.05517 0.3034 0.0
H1002 H 0.73112 0.04887 0.33036 0.0
H1003 H 0.8708 0.99853 0.36458 0.0
H1004 H 0.82763 0.98122 0.36461 0.0
H1005 H 0.79823 0.05767 0.35609 0.0
H1006 H 0.84099 0.07499 0.35599 0.0
H1007 H 0.77415 0.02245 0.33521 0.0
H1008 H 0.79728 0.03147 0.39709 0.0
H1009 H 0.82382 0.02435 0.42368 0.0
H1010 H 0.81183 0.94273 0.41951 0.0
H1011 H 0.78551 0.94935 0.39271 0.0
C1012 C 0.66051 0.98924 0.36153 0.0
C1013 C 0.65532 0.96335 0.36574 0.0
C1014 C 0.68549 0.99813 0.36054 0.0
C1015 C 0.70584 0.98127 0.36356 0.0
C1016 C 0.70064 0.95551 0.36795 0.0
C1017 C 0.67574 0.94666 0.36901 0.0
C1018 C 0.73255 0.99036 0.36228 0.0
C1019 C 0.74887 0.98598 0.37677 0.0
C1020 C 0.74193 0.00355 0.34706 0.0
C1021 C 0.72634 0.0074 0.33083 0.0
C1022 C 0.71523 0.98623 0.32211 0.0
C1023 C 0.70042 0.99 0.30688 0.0
C1024 C 0.69673 0.01483 0.30017 0.0
C1025 C 0.70791 0.03595 0.30863 0.0
C1026 C 0.72272 0.03229 0.32388 0.0
C1027 C 0.85515 0.0116 0.36257 0.0
C1028 C 0.85941 0.03817 0.36038 0.0
C1029 C 0.83047 1.00171 0.36268 0.0
C1030 C 0.80962 0.01819 0.36052 0.0
C1031 C 0.81394 0.04456 0.3578 0.0
C1032 C 0.83848 0.05445 0.35783 0.0
C1033 C 0.78322 0.00826 0.36147 0.0
C1034 C 0.76699 0.01254 0.34694 0.0
C1035 C 0.77395 0.99489 0.37663 0.0
C1036 C 0.78966 0.99089 0.39278 0.0
C1037 C 0.80048 0.01199 0.40175 0.0
C1038 C 0.81545 0.00805 0.41688 0.0
C1039 C 0.81957 0.9831 0.42325 0.0
C1040 C 0.80866 0.96204 0.41454 0.0
C1041 C 0.7937 0.96588 0.39939 0.0
H1042 H 0.83117 0.98009 0.43496 0.0
H1043 H 0.68526 0.01771 0.28838 0.0
H1044 H 0.8622 0.9988 0.85131 0.0
H1045 H 0.81839 0.01405 0.85066 0.0
H1046 H 0.79365 0.94275 0.87463 0.0
H1047 H 0.83696 0.92735 0.87515 0.0
H1048 H 0.76366 0.95504 0.84758 0.0
H1049 H 0.79774 0.99899 0.89882 0.0
H1050 H 0.82766 0.02707 0.91488 0.0
H1051 H 0.80807 0.09039 0.88067 0.0
H1052 H 0.77826 0.06257 0.86424 0.0
H1053 H 0.63951 0.99081 0.8758 0.0
H1054 H 0.68335 0.97618 0.8736 0.0
H1055 H 0.70469 0.0492 0.85049 0.0
H1056 H 0.66121 0.06402 0.85286 0.0
H1057 H 0.73668 0.03683 0.87597 0.0
H1058 H 0.70146 0.99318 0.82531 0.0
H1059 H 0.67148 0.96506 0.80936 0.0
H1060 H 0.69309 0.90116 0.84242 0.0
H1061 H 0.72297 0.929 0.85874 0.0
C1062 C 0.84744 0.98644 0.85651 0.0
C1063 C 0.85319 0.96183 0.86325 0.0
C1064 C 0.82238 0.99519 0.85616 0.0
C1065 C 0.80264 0.97958 0.86266 0.0
C1066 C 0.80844 0.95512 0.86946 0.0
C1067 C 0.83334 0.94638 0.86979 0.0
C1068 C 0.77588 0.98842 0.86235 0.0
C1069 C 0.75773 0.97281 0.85395 0.0
C1070 C 0.76813 0.01187 0.87029 0.0
C1071 C 0.78599 0.02863 0.88018 0.0
C1072 C 0.79997 0.01885 0.89463 0.0
C1073 C 0.81688 0.03472 0.90382 0.0
C1074 C 0.81982 0.06047 0.89876 0.0
C1075 C 0.8058 0.07042 0.88455 0.0
C1076 C 0.78889 0.05462 0.8753 0.0
C1077 C 0.65347 0.00361 0.87002 0.0
C1078 C 0.64678 0.02862 0.86456 0.0
C1079 C 0.67857 0.99522 0.86876 0.0
C1080 C 0.69742 0.01156 0.86182 0.0
C1081 C 0.6906 0.03627 0.85597 0.0
C1082 C 0.66563 0.04468 0.85729 0.0
C1083 C 0.7244 0.00339 0.86126 0.0
C1084 C 0.7426 0.01912 0.86951 0.0
C1085 C 0.73219 0.98005 0.85318 0.0
C1086 C 0.71428 0.96324 0.84336 0.0
C1087 C 0.69968 0.97318 0.82927 0.0
C1088 C 0.68273 0.95729 0.82015 0.0
C1089 C 0.68033 0.93136 0.8249 0.0
C1090 C 0.69494 0.92126 0.83877 0.0
C1091 C 0.71191 0.93708 0.84795 0.0
H1092 H 0.6672 0.91908 0.81782 0.0
H1093 H 0.83292 0.07274 0.90589 0.0
H1094 H 0.16475 0.93124 0.63293 0.0
H1095 H 0.20795 0.94714 0.63416 0.0
H1096 H 0.18199 0.01776 0.65828 0.0
H1097 H 0.13832 0.00202 0.65692 0.0
H1098 H 0.21756 0.02689 0.63264 0.0
H1099 H 0.20981 0.97089 0.68354 0.0
H1100 H 0.1993 0.93027 0.69898 0.0
H1101 H 0.25405 0.89002 0.66719 0.0
H1102 H 0.26465 0.93035 0.65138 0.0
H1103 H 0.3367 0.07227 0.6594 0.0
H1104 H 0.29358 0.05595 0.66021 0.0
H1105 H 0.31884 0.9834 0.63856 0.0
H1106 H 0.36241 0.99948 0.63814 0.0
H1107 H 0.28345 0.97533 0.66323 0.0
H1108 H 0.29112 0.03016 0.61205 0.0
H1109 H 0.30205 0.07022 0.59608 0.0
H1110 H 0.24765 0.1119 0.62728 0.0
H1111 H 0.2367 0.07215 0.64367 0.0
C1112 C 0.16809 0.95018 0.63852 0.0
C1113 C 0.14795 0.96526 0.64497 0.0
C1114 C 0.19293 0.95922 0.63927 0.0
C1115 C 0.19837 0.98349 0.64659 0.0
C1116 C 0.1783 0.99891 0.65265 0.0
C1117 C 0.15333 0.98986 0.6519 0.0
C1118 C 0.22504 0.99259 0.64791 0.0
C1119 C 0.23187 0.01582 0.63957 0.0
C1120 C 0.24396 0.97781 0.65651 0.0
C1121 C 0.23787 0.95361 0.66618 0.0
C1122 C 0.2195 0.95335 0.67976 0.0
C1123 C 0.21354 0.93038 0.68859 0.0
C1124 C 0.22596 0.90757 0.68404 0.0
C1125 C 0.24443 0.9077 0.67069 0.0
C1126 C 0.25044 0.93061 0.66181 0.0
C1127 C 0.33319 0.05275 0.65492 0.0
C1128 C 0.35304 0.03726 0.64855 0.0
C1129 C 0.30842 0.04347 0.65532 0.0
C1130 C 0.30275 0.01863 0.64905 0.0
C1131 C 0.32267 0.00269 0.64337 0.0
C1132 C 0.34759 0.0119 0.64314 0.0
C1133 C 0.27599 0.00968 0.64799 0.0
C1134 C 0.26914 0.98646 0.65634 0.0
C1135 C 0.25708 0.02437 0.63929 0.0
C1136 C 0.26325 0.04821 0.6292 0.0
C1137 C 0.28158 0.04789 0.61558 0.0
C1138 C 0.28779 0.07055 0.60645 0.0
C1139 C 0.27559 0.0936 0.61069 0.0
C1140 C 0.2571 0.09403 0.62402 0.0
C1141 C 0.25088 0.07144 0.63323 0.0
H1142 H 0.28043 0.11113 0.60361 0.0
H1143 H 0.2213 0.8898 0.69087 0.0
H1144 H 0.84731 0.4506 0.17003 0.0
H1145 H 0.80388 0.46604 0.1721 0.0
H1146 H 0.81654 0.51543 0.1265 0.0
H1147 H 0.8605 0.50109 0.1251 0.0
H1148 H 0.78671 0.53896 0.14751 0.0
H1149 H 0.78726 0.45368 0.12399 0.0
H1150 H 0.79776 0.40742 0.12316 0.0
H1151 H 0.75579 0.3952 0.17158 0.0
H1152 H 0.74544 0.44151 0.17289 0.0
H1153 H 0.65732 0.54737 0.12163 0.0
H1154 H 0.70072 0.53137 0.12142 0.0
H1155 H 0.6939 0.51008 0.17691 0.0
H1156 H 0.65056 0.52671 0.17741 0.0
H1157 H 0.71977 0.4721 0.15065 0.0
H1158 H 0.72039 0.56057 0.17253 0.0
H1159 H 0.7093 0.60658 0.17021 0.0
H1160 H 0.74848 0.61164 0.12004 0.0
H1161 H 0.7594 0.5655 0.12191 0.0
C1162 C 0.84093 0.46512 0.16067 0.0
C1163 C 0.85726 0.4746 0.14738 0.0
C1164 C 0.816 0.47376 0.16173 0.0
C1165 C 0.80655 0.49135 0.14911 0.0
C1166 C 0.82322 0.50174 0.13635 0.0
C1167 C 0.84839 0.49358 0.13557 0.0
C1168 C 0.77917 0.49815 0.14884 0.0
C1169 C 0.77218 0.52424 0.14802 0.0
C1170 C 0.75993 0.47907 0.14952 0.0
C1171 C 0.76576 0.45112 0.14862 0.0
C1172 C 0.78038 0.44116 0.13452 0.0
C1173 C 0.78631 0.41493 0.13396 0.0
C1174 C 0.77746 0.39839 0.14732 0.0
C1175 C 0.76265 0.40805 0.16125 0.0
C1176 C 0.75674 0.43428 0.16191 0.0
C1177 C 0.66483 0.53884 0.13372 0.0
C1178 C 0.65047 0.53833 0.14957 0.0
C1179 C 0.68968 0.5298 0.13358 0.0
C1180 C 0.70051 0.51968 0.14916 0.0
C1181 C 0.68583 0.51782 0.16474 0.0
C1182 C 0.66111 0.52734 0.165 0.0
C1183 C 0.72765 0.5127 0.14948 0.0
C1184 C 0.73447 0.48665 0.15022 0.0
C1185 C 0.74671 0.53172 0.14826 0.0
C1186 C 0.74049 0.55953 0.14728 0.0
C1187 C 0.72645 0.57143 0.16093 0.0
C1188 C 0.72023 0.59754 0.15971 0.0
C1189 C 0.72815 0.61201 0.14498 0.0
C1190 C 0.74234 0.6004 0.13144 0.0
C1191 C 0.74856 0.57428 0.13258 0.0
H1192 H 0.72333 0.63223 0.14406 0.0
H1193 H 0.78204 0.37809 0.14685 0.0
H1194 H 0.34753 0.56576 0.3447 0.0
H1195 H 0.3035 0.55185 0.34388 0.0
H1196 H 0.31828 0.49719 0.38607 0.0
H1197 H 0.36271 0.51014 0.38624 0.0
H1198 H 0.28645 0.47664 0.3651 0.0
H1199 H 0.29061 0.55848 0.39353 0.0
H1200 H 0.30267 0.60418 0.39656 0.0
H1201 H 0.25813 0.62321 0.35052 0.0
H1202 H 0.24614 0.57753 0.34703 0.0
H1203 H 0.14656 0.50708 0.39051 0.0
H1204 H 0.1906 0.52132 0.38912 0.0
H1205 H 0.20274 0.47285 0.34304 0.0
H1206 H 0.1592 0.45761 0.34499 0.0
H1207 H 0.2211 0.54491 0.36818 0.0
H1208 H 0.26013 0.44664 0.34301 0.0
H1209 H 0.24823 0.40068 0.34422 0.0
H1210 H 0.20644 0.41402 0.39254 0.0
H1211 H 0.21847 0.45992 0.39182 0.0
C1212 C 0.34146 0.55052 0.35363 0.0
C1213 C 0.35858 0.53913 0.36559 0.0
C1214 C 0.3162 0.5427 0.35326 0.0
C1215 C 0.30725 0.52391 0.36525 0.0
C1216 C 0.32458 0.51179 0.37672 0.0
C1217 C 0.35002 0.51921 0.37682 0.0
C1218 C 0.27976 0.51755 0.36621 0.0
C1219 C 0.27221 0.4916 0.36575 0.0
C1220 C 0.26101 0.53694 0.36762 0.0
C1221 C 0.26764 0.56454 0.36993 0.0
C1222 C 0.28347 0.5724 0.38401 0.0
C1223 C 0.29031 0.59829 0.3858 0.0
C1224 C 0.28122 0.61658 0.37371 0.0
C1225 C 0.26518 0.60902 0.35986 0.0
C1226 C 0.25834 0.58313 0.35797 0.0
C1227 C 0.15854 0.49978 0.37993 0.0
C1228 C 0.14949 0.48107 0.36795 0.0
C1229 C 0.18376 0.5079 0.37915 0.0
C1230 C 0.2003 0.4977 0.36624 0.0
C1231 C 0.19067 0.48045 0.35347 0.0
C1232 C 0.16569 0.4719 0.35449 0.0
C1233 C 0.2278 0.50405 0.36666 0.0
C1234 C 0.23535 0.52997 0.36747 0.0
C1235 C 0.24658 0.48458 0.36633 0.0
C1236 C 0.24003 0.45678 0.36725 0.0
C1237 C 0.24857 0.43972 0.35397 0.0
C1238 C 0.24177 0.41369 0.35456 0.0
C1239 C 0.22654 0.40446 0.36842 0.0
C1240 C 0.2182 0.4212 0.38179 0.0
C1241 C 0.22501 0.44722 0.3813 0.0
H1242 H 0.22125 0.38432 0.36882 0.0
H1243 H 0.28658 0.63661 0.3751 0.0
H1244 H 0.16116 0.54496 0.88696 0.0
H1245 H 0.20469 0.52933 0.88742 0.0
H1246 H 0.19775 0.5048 0.83261 0.0
H1247 H 0.15428 0.52101 0.83185 0.0
H1248 H 0.22407 0.46859 0.85916 0.0
H1249 H 0.224 0.55623 0.83591 0.0
H1250 H 0.21293 0.60232 0.83731 0.0
H1251 H 0.25221 0.60949 0.88723 0.0
H1252 H 0.26317 0.56331 0.88626 0.0
H1253 H 0.35138 0.44787 0.83874 0.0
H1254 H 0.30787 0.46309 0.83693 0.0
H1255 H 0.32076 0.51285 0.88225 0.0
H1256 H 0.36477 0.49863 0.88345 0.0
H1257 H 0.29053 0.53604 0.86101 0.0
H1258 H 0.29206 0.45136 0.88554 0.0
H1259 H 0.30311 0.40526 0.88675 0.0
H1260 H 0.26068 0.39154 0.83882 0.0
H1261 H 0.24978 0.43769 0.83712 0.0
C1262 C 0.16867 0.53578 0.87509 0.0
C1263 C 0.15424 0.53424 0.85934 0.0
C1264 C 0.1936 0.52697 0.87537 0.0
C1265 C 0.20444 0.51606 0.86002 0.0
C1266 C 0.18969 0.51316 0.84459 0.0
C1267 C 0.16488 0.52244 0.84418 0.0
C1268 C 0.23164 0.50928 0.85975 0.0
C1269 C 0.23866 0.48327 0.85933 0.0
C1270 C 0.25057 0.52848 0.8606 0.0
C1271 C 0.24418 0.55627 0.8611 0.0
C1272 C 0.23008 0.56758 0.84726 0.0
C1273 C 0.22388 0.59374 0.84796 0.0
C1274 C 0.23183 0.60882 0.86236 0.0
C1275 C 0.24605 0.59778 0.87609 0.0
C1276 C 0.25228 0.57163 0.87547 0.0
C1277 C 0.34505 0.46243 0.8481 0.0
C1278 C 0.36145 0.472 0.86127 0.0
C1279 C 0.32008 0.47095 0.84718 0.0
C1280 C 0.31068 0.48856 0.8598 0.0
C1281 C 0.32742 0.49912 0.87242 0.0
C1282 C 0.35262 0.49103 0.87308 0.0
C1283 C 0.28327 0.49517 0.86026 0.0
C1284 C 0.2761 0.52121 0.8608 0.0
C1285 C 0.26419 0.47591 0.85995 0.0
C1286 C 0.27028 0.44804 0.86112 0.0
C1287 C 0.28519 0.43854 0.8752 0.0
C1288 C 0.29144 0.41241 0.87597 0.0
C1289 C 0.28262 0.39549 0.86286 0.0
C1290 C 0.26751 0.40468 0.84896 0.0
C1291 C 0.26129 0.43083 0.84809 0.0
H1292 H 0.28745 0.37526 0.86349 0.0
H1293 H 0.22702 0.62907 0.86288 0.0
H1294 H 0.66005 0.45921 0.62238 0.0
H1295 H 0.70292 0.47665 0.6218 0.0
H1296 H 0.6981 0.49346 0.6781 0.0
H1297 H 0.65526 0.47535 0.67896 0.0
H1298 H 0.72195 0.53431 0.65204 0.0
H1299 H 0.72584 0.4449 0.67204 0.0
H1300 H 0.71542 0.3988 0.66891 0.0
H1301 H 0.75171 0.39717 0.61757 0.0
H1302 H 0.76191 0.44342 0.62025 0.0
H1303 H 0.85097 0.55791 0.66764 0.0
H1304 H 0.80754 0.54257 0.67051 0.0
H1305 H 0.81804 0.49382 0.62434 0.0
H1306 H 0.862 0.50794 0.62219 0.0
H1307 H 0.79013 0.46946 0.64565 0.0
H1308 H 0.78692 0.55569 0.62361 0.0
H1309 H 0.7964 0.60223 0.6234 0.0
H1310 H 0.758 0.61121 0.67359 0.0
H1311 H 0.74863 0.56462 0.67425 0.0
C1312 C 0.66785 0.46704 0.6346 0.0
C1313 C 0.6542 0.46585 0.65075 0.0
C1314 C 0.69241 0.47693 0.63423 0.0
C1315 C 0.70368 0.48625 0.64991 0.0
C1316 C 0.68968 0.48639 0.66586 0.0
C1317 C 0.66525 0.47601 0.66632 0.0
C1318 C 0.73066 0.494 0.64984 0.0
C1319 C 0.73695 0.52019 0.65091 0.0
C1320 C 0.75008 0.47558 0.64771 0.0
C1321 C 0.74442 0.44767 0.64627 0.0
C1322 C 0.7314 0.43477 0.66002 0.0
C1323 C 0.72557 0.4086 0.65834 0.0
C1324 C 0.73286 0.39508 0.64304 0.0
C1325 C 0.74606 0.40768 0.6294 0.0
C1326 C 0.75188 0.43386 0.631 0.0
C1327 C 0.84408 0.54368 0.65824 0.0
C1328 C 0.85988 0.53418 0.64467 0.0
C1329 C 0.81913 0.53508 0.65977 0.0
C1330 C 0.80908 0.51752 0.64734 0.0
C1331 C 0.82515 0.50743 0.63409 0.0
C1332 C 0.85033 0.51552 0.63286 0.0
C1333 C 0.78181 0.51002 0.64793 0.0
C1334 C 0.77534 0.48377 0.64687 0.0
C1335 C 0.76218 0.5285 0.6496 0.0
C1336 C 0.76729 0.55662 0.64906 0.0
C1337 C 0.7806 0.56757 0.63465 0.0
C1338 C 0.78596 0.59395 0.63445 0.0
C1339 C 0.77787 0.60965 0.6485 0.0
C1340 C 0.76429 0.59901 0.66273 0.0
C1341 C 0.75894 0.57262 0.66302 0.0
H1342 H 0.78208 0.63006 0.64833 0.0
H1343 H 0.72833 0.37482 0.64176 0.0
H1344 H 0.93135 0.08023 0.31004 0.0
H1345 H 0.94945 0.08091 0.2798 0.0
H1346 H 0.02429 0.08517 0.30213 0.0
H1347 H 0.00661 0.08447 0.33214 0.0
H1348 H 0.01855 0.11879 0.27423 0.0
H1349 H 1.00305 0.02941 0.28664 0.0
H1350 H 0.97726 0.99191 0.29544 0.0
H1351 H 0.92814 0.00482 0.25073 0.0
H1352 H 0.95342 0.04268 0.24183 0.0
H1353 H 0.08661 0.08849 0.19373 0.0
H1354 H 0.07058 0.0887 0.22457 0.0
H1355 H 0.99485 0.07747 0.20497 0.0
H1356 H 0.01051 0.07668 0.17454 0.0
H1357 H 1.00237 0.04687 0.23212 0.0
H1358 H 0.01652 0.13712 0.22028 0.0
H1359 H 0.04175 0.17507 0.21158 0.0
H1360 H 0.09296 0.1608 0.25486 0.0
H1361 H 0.0681 0.12262 0.26377 0.0
C1362 C 0.95164 0.08134 0.3085 0.0
C1363 C 0.96744 0.08215 0.32359 0.0
C1364 C 0.96198 0.08169 0.29122 0.0
C1365 C 0.98828 0.08297 0.28869 0.0
C1366 C 1.00399 0.08424 0.30371 0.0
C1367 C 0.99375 0.0837 0.32091 0.0
C1368 C 0.99961 0.08245 0.27047 0.0
C1369 C 0.01522 0.10295 0.26508 0.0
C1370 C 0.99508 0.06194 0.25844 0.0
C1371 C 0.97998 0.03904 0.26367 0.0
C1372 C 0.98664 0.02438 0.27876 0.0
C1373 C 0.97213 0.00304 0.28376 0.0
C1374 C 0.95104 0.99602 0.27368 0.0
C1375 C 0.94446 0.0103 0.25854 0.0
C1376 C 0.95888 0.0317 0.25351 0.0
C1377 C 0.06656 0.08609 0.19602 0.0
C1378 C 0.04996 0.08252 0.18156 0.0
C1379 C 0.05738 0.08631 0.21365 0.0
C1380 C 0.03142 0.08323 0.21714 0.0
C1381 C 0.01493 0.07974 0.20272 0.0
C1382 C 0.02402 0.0794 0.18522 0.0
C1383 C 0.02108 0.08342 0.23571 0.0
C1384 C 0.00571 0.06277 0.24123 0.0
C1385 C 0.02577 0.10384 0.24781 0.0
C1386 C 0.04061 0.12687 0.24258 0.0
C1387 C 0.03326 0.14198 0.22787 0.0
C1388 C 0.04747 0.16354 0.22291 0.0
C1389 C 0.06901 0.17027 0.23259 0.0
C1390 C 0.0763 0.15553 0.24734 0.0
C1391 C 0.06214 0.13395 0.25238 0.0
H1392 H 0.08 0.18696 0.22871 0.0
H1393 H 0.93983 0.97949 0.27756 0.0
H1394 H 0.50482 0.92955 0.18035 0.0
H1395 H 0.5206 0.93024 0.21081 0.0
H1396 H 0.44447 0.92693 0.23104 0.0
H1397 H 0.4282 0.92609 0.20027 0.0
H1398 H 0.47611 0.96376 0.24866 0.0
H1399 H 0.47764 0.87438 0.23221 0.0
H1400 H 0.48784 0.83757 0.21268 0.0
H1401 H 0.56689 0.8541 0.21792 0.0
H1402 H 0.55714 0.8913 0.23725 0.0
H1403 H 0.50709 0.93426 0.33773 0.0
H1404 H 0.49035 0.9337 0.30756 0.0
H1405 H 0.56564 0.92569 0.28633 0.0
H1406 H 0.58272 0.92546 0.31683 0.0
H1407 H 0.53399 0.89465 0.26907 0.0
H1408 H 0.5335 0.98368 0.28506 0.0
H1409 H 0.52433 0.02118 0.30421 0.0
H1410 H 0.44486 0.00672 0.29925 0.0
H1411 H 0.45357 0.96883 0.28032 0.0
C1412 C 0.49125 0.92899 0.19118 0.0
C1413 C 0.46513 0.92765 0.18776 0.0
C1414 C 0.50041 0.92934 0.20865 0.0
C1415 C 0.48377 0.92839 0.22321 0.0
C1416 C 0.45765 0.92762 0.21997 0.0
C1417 C 0.44839 0.92707 0.20238 0.0
C1418 C 0.49396 0.92792 0.24172 0.0
C1419 C 0.48842 0.94845 0.25326 0.0
C1420 C 0.5107 0.90836 0.24747 0.0
C1421 C 0.51664 0.88577 0.23606 0.0
C1422 C 0.49719 0.87029 0.22909 0.0
C1423 C 0.50289 0.84934 0.21807 0.0
C1424 C 0.528 0.84353 0.21403 0.0
C1425 C 0.54745 0.85863 0.22105 0.0
C1426 C 0.54185 0.87964 0.23205 0.0
C1427 C 0.52026 0.93244 0.32673 0.0
C1428 C 0.54638 0.93009 0.3298 0.0
C1429 C 0.51057 0.93224 0.30939 0.0
C1430 C 0.52671 0.93013 0.29459 0.0
C1431 C 0.55279 0.92747 0.29754 0.0
C1432 C 0.56255 0.92746 0.31498 0.0
C1433 C 0.51614 0.9305 0.27613 0.0
C1434 C 0.52164 0.90997 0.26455 0.0
C1435 C 0.49953 0.9502 0.27028 0.0
C1436 C 0.4942 0.97327 0.28139 0.0
C1437 C 0.51407 0.9884 0.28814 0.0
C1438 C 0.50896 0.00973 0.29896 0.0
C1439 C 0.48403 0.0163 0.30297 0.0
C1440 C 0.46417 1.00159 0.29614 0.0
C1441 C 0.46918 0.98019 0.28536 0.0
H1442 H 0.48012 0.03281 0.31136 0.0
H1443 H 0.53237 0.82731 0.20549 0.0
H1444 H 1.00151 0.92874 0.67564 0.0
H1445 H 0.98592 0.92941 0.70611 0.0
H1446 H 0.06227 0.9297 0.72596 0.0
H1447 H 0.07831 0.92833 0.69512 0.0
H1448 H 0.03308 0.89795 0.74547 0.0
H1449 H 0.02664 0.98486 0.7254 0.0
H1450 H 0.01497 0.01963 0.70454 0.0
H1451 H 0.93661 1.00056 0.71093 0.0
H1452 H 0.94783 0.96535 0.7316 0.0
H1453 H 0.99984 0.93649 0.83293 0.0
H1454 H 0.01635 0.9374 0.8026 0.0
H1455 H 0.94135 0.9264 0.78172 0.0
H1456 H 0.92439 0.92526 0.81231 0.0
H1457 H 0.97066 0.96453 0.76315 0.0
H1458 H 0.9782 0.87674 0.78301 0.0
H1459 H 0.99074 0.8425 0.80403 0.0
H1460 H 0.06844 0.86469 0.79847 0.0
H1461 H 0.05631 0.89938 0.77763 0.0
C1462 C 0.01517 0.92897 0.68639 0.0
C1463 C 0.04128 0.92873 0.68282 0.0
C1464 C 0.00612 0.92946 0.70389 0.0
C1465 C 0.02286 0.93015 0.71838 0.0
C1466 C 0.04897 0.92935 0.71498 0.0
C1467 C 0.05812 0.92865 0.69735 0.0
C1468 C 0.01279 0.93172 0.73697 0.0
C1469 C 0.01976 0.91277 0.7494 0.0
C1470 C 0.99499 0.95076 0.74206 0.0
C1471 C 0.9881 0.97232 0.72995 0.0
C1472 C 0.00692 0.98798 0.72229 0.0
C1473 C 1.00039 0.00777 0.71049 0.0
C1474 C 0.97507 0.01227 0.70639 0.0
C1475 C 0.95622 0.99704 0.71412 0.0
C1476 C 0.96266 0.97717 0.72589 0.0
C1477 C 0.98667 0.93437 0.82197 0.0
C1478 C 0.96069 0.93064 0.82516 0.0
C1479 C 0.99624 0.93486 0.80459 0.0
C1480 C 0.98015 0.93169 0.78991 0.0
C1481 C 0.9541 0.92883 0.7929 0.0
C1482 C 0.94445 0.92815 0.81038 0.0
C1483 C 0.99085 0.93069 0.77153 0.0
C1484 C 0.98402 0.94978 0.75918 0.0
C1485 C 0.00893 0.91192 0.76656 0.0
C1486 C 0.01632 0.89082 0.77888 0.0
C1487 C 0.99795 0.87445 0.78637 0.0
C1488 C 0.00498 0.85494 0.79824 0.0
C1489 C 0.03037 0.85146 0.80262 0.0
C1490 C 0.04878 0.86743 0.79508 0.0
C1491 C 0.04184 0.88701 0.78323 0.0
H1492 H 0.03578 0.83635 0.81182 0.0
H1493 H 0.97005 0.02758 0.69724 0.0
H1494 H 0.49919 0.08665 0.67742 0.0
H1495 H 0.51604 0.08722 0.70756 0.0
H1496 H 0.44054 0.08609 0.72911 0.0
H1497 H 0.42324 0.08611 0.69865 0.0
H1498 H 0.47066 0.11863 0.74785 0.0
H1499 H 0.47595 0.03135 0.72778 0.0
H1500 H 0.48694 0.99665 0.70667 0.0
H1501 H 0.56545 0.01593 0.71146 0.0
H1502 H 0.55489 0.05103 0.73241 0.0
H1503 H 0.50135 0.07451 0.83434 0.0
H1504 H 0.48583 0.07795 0.80392 0.0
H1505 H 0.56198 0.08661 0.7845 0.0
H1506 H 0.57798 0.08329 0.81527 0.0
H1507 H 0.53235 0.05095 0.76466 0.0
H1508 H 0.52632 0.13793 0.78566 0.0
H1509 H 0.51446 0.17209 0.80695 0.0
H1510 H 0.43627 0.1522 0.80093 0.0
H1511 H 0.44769 0.11767 0.77976 0.0
C1512 C 0.486 0.08657 0.68848 0.0
C1513 C 0.45975 0.08604 0.68551 0.0
C1514 C 0.49576 0.08683 0.70578 0.0
C1515 C 0.47963 0.08618 0.72065 0.0
C1516 C 0.45338 0.08645 0.71784 0.0
C1517 C 0.44351 0.08638 0.70042 0.0
C1518 C 0.4904 0.0847 0.73901 0.0
C1519 C 0.48388 0.10364 0.75159 0.0
C1520 C 0.50812 0.06545 0.74382 0.0
C1521 C 0.51461 0.04397 0.73155 0.0
C1522 C 0.49555 0.02829 0.72426 0.0
C1523 C 0.5017 0.00854 0.71232 0.0
C1524 C 0.52687 0.00413 0.70769 0.0
C1525 C 0.54596 0.01939 0.71505 0.0
C1526 C 0.53991 0.0392 0.72697 0.0
C1527 C 0.51498 0.0772 0.82371 0.0
C1528 C 0.54103 0.07865 0.82737 0.0
C1529 C 0.50596 0.07924 0.80626 0.0
C1530 C 0.52268 0.08276 0.79194 0.0
C1531 C 0.54874 0.08396 0.79539 0.0
C1532 C 0.55784 0.08213 0.81297 0.0
C1533 C 0.51264 0.08489 0.77344 0.0
C1534 C 0.51923 0.06601 0.76087 0.0
C1535 C 0.49486 0.10407 0.76869 0.0
C1536 C 0.48788 0.12506 0.78123 0.0
C1537 C 0.50661 0.14071 0.78897 0.0
C1538 C 0.49996 0.16016 0.801 0.0
C1539 C 0.47464 0.16426 0.80534 0.0
C1540 C 0.45589 0.14898 0.79758 0.0
C1541 C 0.46243 0.12949 0.78553 0.0
H1542 H 0.46954 0.17931 0.81468 0.0
H1543 H 0.53159 0.98886 0.69842 0.0
H1544 H 0.50203 0.56939 0.17349 0.0
H1545 H 0.48801 0.57151 0.20432 0.0
H1546 H 0.56455 0.58434 0.22163 0.0
H1547 H 0.57909 0.58212 0.19044 0.0
H1548 H 0.53762 0.54842 0.24299 0.0
H1549 H 0.52622 0.63324 0.21935 0.0
H1550 H 0.51158 0.66453 0.19695 0.0
H1551 H 0.43473 0.64262 0.20701 0.0
H1552 H 0.44897 0.61046 0.22908 0.0
H1553 H 0.50567 0.5871 0.33019 0.0
H1554 H 0.5217 0.58642 0.29977 0.0
H1555 H 0.44573 0.58083 0.27954 0.0
H1556 H 0.42927 0.58204 0.31023 0.0
H1557 H 0.4735 0.6138 0.25975 0.0
H1558 H 0.48371 0.5277 0.28132 0.0
H1559 H 0.49708 0.49427 0.3027 0.0
H1560 H 0.57435 0.51748 0.29622 0.0
H1561 H 0.5614 0.55126 0.27491 0.0
C1562 C 0.51608 0.5726 0.18374 0.0
C1563 C 0.5418 0.57567 0.17936 0.0
C1564 C 0.50793 0.57386 0.20143 0.0
C1565 C 0.52516 0.57836 0.21526 0.0
C1566 C 0.55093 0.5809 0.21112 0.0
C1567 C 0.55919 0.5797 0.19329 0.0
C1568 C 0.51586 0.58086 0.23393 0.0
C1569 C 0.52395 0.56299 0.24676 0.0
C1570 C 0.49741 0.5994 0.23867 0.0
C1571 C 0.4887 0.61926 0.22579 0.0
C1572 C 0.50621 0.63494 0.21671 0.0
C1573 C 0.49797 0.65286 0.20407 0.0
C1574 C 0.47224 0.65564 0.20057 0.0
C1575 C 0.45467 0.64046 0.20973 0.0
C1576 C 0.46282 0.62234 0.2223 0.0
C1577 C 0.49222 0.58575 0.31935 0.0
C1578 C 0.4661 0.58438 0.32274 0.0
C1579 C 0.50151 0.58527 0.3019 0.0
C1580 C 0.48499 0.58309 0.28735 0.0
C1581 C 0.45885 0.58239 0.29058 0.0
C1582 C 0.44947 0.58301 0.30812 0.0
C1583 C 0.49521 0.58131 0.26885 0.0
C1584 C 0.48726 0.5993 0.25604 0.0
C1585 C 0.51362 0.56274 0.26407 0.0
C1586 C 0.52156 0.54216 0.27664 0.0
C1587 C 0.50354 0.52577 0.28453 0.0
C1588 C 0.51104 0.50675 0.29663 0.0
C1589 C 0.53654 0.50382 0.30088 0.0
C1590 C 0.5546 0.51981 0.29294 0.0
C1591 C 0.5472 0.53887 0.28082 0.0
H1592 H 0.54231 0.48911 0.31028 0.0
H1593 H 0.46593 0.66955 0.19077 0.0
H1594 H 0.00435 0.42501 0.337 0.0
H1595 H 0.98694 0.42279 0.30703 0.0
H1596 H 0.06206 0.42302 0.28479 0.0
H1597 H 0.07989 0.4257 0.315 0.0
H1598 H 0.03068 0.4554 0.26671 0.0
H1599 H 0.02778 0.36767 0.2868 0.0
H1600 H 0.01746 0.33268 0.30789 0.0
H1601 H 0.93858 0.34995 0.30294 0.0
H1602 H 0.94845 0.38532 0.282 0.0
H1603 H 1.0001 0.4174 0.17976 0.0
H1604 H 0.01607 0.41725 0.21013 0.0
H1605 H 0.94 0.41909 0.23061 0.0
H1606 H 0.92355 0.41897 0.19989 0.0
H1607 H 0.97096 0.38581 0.24977 0.0
H1608 H 0.97361 0.47333 0.22983 0.0
H1609 H 0.98364 0.50853 0.20884 0.0
H1610 H 0.06267 0.49191 0.21377 0.0
H1611 H 0.05308 0.45633 0.2346 0.0
C1612 C 0.01733 0.42461 0.32581 0.0
C1613 C 0.04363 0.42554 0.3285 0.0
C1614 C 0.00725 0.4232 0.30863 0.0
C1615 C 0.02315 0.42239 0.29365 0.0
C1616 C 0.04942 0.42355 0.29618 0.0
C1617 C 0.05959 0.42502 0.31346 0.0
C1618 C 0.01218 0.42061 0.27539 0.0
C1619 C 0.01794 0.43996 0.26293 0.0
C1620 C 0.99492 0.40088 0.27061 0.0
C1621 C 0.98888 0.37929 0.28293 0.0
C1622 C 0.00824 0.36411 0.29028 0.0
C1623 C 1.00247 0.3442 0.3022 0.0
C1624 C 0.97738 0.33912 0.30677 0.0
C1625 C 0.958 0.35391 0.29939 0.0
C1626 C 0.96367 0.37388 0.28748 0.0
C1627 C 0.98658 0.4177 0.19063 0.0
C1628 C 0.96043 0.41851 0.18728 0.0
C1629 C 0.99584 0.41765 0.20805 0.0
C1630 C 0.97929 0.41862 0.22266 0.0
C1631 C 0.95313 0.41848 0.21951 0.0
C1632 C 0.94376 0.41848 0.20195 0.0
C1633 C 0.98962 0.4205 0.24109 0.0
C1634 C 0.98371 0.40122 0.25358 0.0
C1635 C 0.00671 0.44033 0.24594 0.0
C1636 C 0.0126 0.46202 0.23367 0.0
C1637 C 0.99312 0.47708 0.22636 0.0
C1638 C 0.99873 0.49711 0.2145 0.0
C1639 C 0.02378 0.50241 0.20994 0.0
C1640 C 0.04327 0.48776 0.2173 0.0
C1641 C 0.03777 0.46768 0.22915 0.0
H1642 H 0.02808 0.51791 0.20073 0.0
H1643 H 0.97296 0.3237 0.31601 0.0
H1644 H 0.58186 0.41467 0.69083 0.0
H1645 H 0.56672 0.41196 0.72186 0.0
H1646 H 0.49176 0.43215 0.7045 0.0
H1647 H 0.50639 0.43481 0.67387 0.0
H1648 H 0.50482 0.45908 0.73389 0.0
H1649 H 0.50468 0.37061 0.71462 0.0
H1650 H 0.52355 0.33131 0.7019 0.0
H1651 H 0.57867 0.33019 0.74392 0.0
H1652 H 0.56008 0.36961 0.75689 0.0
H1653 H 0.43018 0.42364 0.80902 0.0
H1654 H 0.44789 0.42409 0.77869 0.0
H1655 H 0.52137 0.40592 0.79987 0.0
H1656 H 0.50401 0.40539 0.83003 0.0
H1657 H 0.51103 0.37841 0.76921 0.0
H1658 H 0.50826 0.4663 0.78948 0.0
H1659 H 0.48792 0.50515 0.80178 0.0
H1660 H 0.43715 0.50728 0.75713 0.0
H1661 H 0.45696 0.4682 0.74468 0.0
C1662 C 0.56219 0.41861 0.69365 0.0
C1663 C 0.54547 0.42509 0.67977 0.0
C1664 C 0.55354 0.41697 0.71138 0.0
C1665 C 0.52806 0.42185 0.7155 0.0
C1666 C 0.5115 0.42847 0.70169 0.0
C1667 C 0.52 0.42994 0.68409 0.0
C1668 C 0.51824 0.41992 0.73409 0.0
C1669 C 0.50602 0.44138 0.74155 0.0
C1670 C 0.52009 0.39697 0.74421 0.0
C1671 C 0.53118 0.37318 0.7366 0.0
C1672 C 0.52093 0.36207 0.72108 0.0
C1673 C 0.53156 0.33976 0.71383 0.0
C1674 C 0.55241 0.32833 0.72202 0.0
C1675 C 0.56256 0.3391 0.73756 0.0
C1676 C 0.55195 0.36139 0.74489 0.0
C1677 C 0.45004 0.4195 0.8072 0.0
C1678 C 0.46566 0.41469 0.82201 0.0
C1679 C 0.46016 0.41985 0.78987 0.0
C1680 C 0.48603 0.41527 0.78704 0.0
C1681 C 0.5014 0.40952 0.80172 0.0
C1682 C 0.49139 0.40936 0.81899 0.0
C1683 C 0.49738 0.4175 0.76892 0.0
C1684 C 0.50994 0.39614 0.76158 0.0
C1685 C 0.49572 0.44053 0.75885 0.0
C1686 C 0.48393 0.46417 0.76624 0.0
C1687 C 0.49263 0.47493 0.78235 0.0
C1688 C 0.48121 0.49701 0.78935 0.0
C1689 C 0.4612 0.50863 0.78028 0.0
C1690 C 0.45262 0.49824 0.76416 0.0
C1691 C 0.46395 0.47613 0.75712 0.0
H1692 H 0.45239 0.52572 0.78571 0.0
H1693 H 0.56065 0.31108 0.71636 0.0
H1694 H 0.08174 0.5705 0.81755 0.0
H1695 H 0.06662 0.57139 0.78658 0.0
H1696 H 0.99026 0.58103 0.80544 0.0
H1697 H 0.00494 0.57959 0.83615 0.0
H1698 H 0.99155 0.54621 0.77975 0.0
H1699 H 0.0267 0.63135 0.78865 0.0
H1700 H 0.06083 0.6618 0.79627 0.0
H1701 H 0.10564 0.63288 0.75289 0.0
H1702 H 0.07211 0.60178 0.74527 0.0
H1703 H 0.93153 0.58342 0.69886 0.0
H1704 H 0.94826 0.58327 0.72938 0.0
H1705 H 0.02379 0.57491 0.70863 0.0
H1706 H 0.00745 0.57561 0.67828 0.0
H1707 H 0.02392 0.60855 0.73497 0.0
H1708 H 0.99114 0.52348 0.72619 0.0
H1709 H 0.959 0.49095 0.71846 0.0
H1710 H 0.91162 0.51799 0.76111 0.0
H1711 H 0.94334 0.55095 0.76893 0.0
C1712 C 0.06175 0.57283 0.81509 0.0
C1713 C 0.04462 0.57493 0.82941 0.0
C1714 C 0.05312 0.57342 0.79737 0.0
C1715 C 0.02727 0.57647 0.79365 0.0
C1716 C 0.01025 0.57858 0.80793 0.0
C1717 C 0.01877 0.57783 0.82555 0.0
C1718 C 0.01764 0.57734 0.77497 0.0
C1719 C 0.99843 0.56007 0.77003 0.0
C1720 C 0.02706 0.59494 0.7621 0.0
C1721 C 0.04697 0.61405 0.76649 0.0
C1722 C 0.04389 0.63135 0.7808 0.0
C1723 C 0.06312 0.64874 0.78512 0.0
C1724 C 0.08536 0.64927 0.77508 0.0
C1725 C 0.08842 0.63243 0.76067 0.0
C1726 C 0.06932 0.61491 0.75635 0.0
C1727 C 0.95169 0.58155 0.70079 0.0
C1728 C 0.96805 0.5793 0.68605 0.0
C1729 C 0.96124 0.5814 0.71826 0.0
C1730 C 0.9873 0.57877 0.72134 0.0
C1731 C 1.00364 0.57695 0.70664 0.0
C1732 C 0.99417 0.57721 0.68924 0.0
C1733 C 0.99765 0.5776 0.73983 0.0
C1734 C 0.01701 0.59474 0.74471 0.0
C1735 C 0.98855 0.55974 0.75263 0.0
C1736 C 0.9695 0.53985 0.74802 0.0
C1737 C 0.97378 0.52261 0.73384 0.0
C1738 C 0.95566 0.50408 0.72945 0.0
C1739 C 0.93325 0.50245 0.73926 0.0
C1740 C 0.92896 0.5193 0.75351 0.0
C1741 C 0.94701 0.53791 0.75793 0.0
H1742 H 0.91924 0.48808 0.73585 0.0
H1743 H 0.10021 0.66274 0.77845 0.0
H1744 H 0.07257 0.16729 0.12233 0.0
H1745 H 0.05476 0.2099 0.11991 0.0
H1746 H 0.98034 0.17711 0.11445 0.0
H1747 H 0.9986 0.13356 0.1156 0.0
H1748 H 0.98432 0.21987 0.09448 0.0
H1749 H 1.00162 0.19894 0.15493 0.0
H1750 H 0.02716 0.18242 0.17991 0.0
H1751 H 0.08097 0.24332 0.17204 0.0
H1752 H 0.056 0.25991 0.14673 0.0
H1753 H 0.92779 0.33593 0.13055 0.0
H1754 H 0.9421 0.2917 0.12651 0.0
H1755 H 0.01698 0.31906 0.11437 0.0
H1756 H 1.00262 0.36374 0.11772 0.0
H1757 H 0.00987 0.2785 0.1437 0.0
H1758 H 0.99026 0.29789 0.08188 0.0
H1759 H 0.96237 0.313 0.05772 0.0
H1760 H 0.90863 0.25387 0.0707 0.0
H1761 H 0.93605 0.23866 0.09514 0.0
C1762 C 0.05251 0.16884 0.12017 0.0
C1763 C 0.0371 0.1468 0.11916 0.0
C1764 C 0.04226 0.19342 0.11898 0.0
C1765 C 0.01612 0.19682 0.11754 0.0
C1766 C 1.00059 0.17497 0.11572 0.0
C1767 C 0.01103 0.1501 0.11642 0.0
C1768 C 0.00542 0.22324 0.11897 0.0
C1769 C 0.98962 0.23254 0.10538 0.0
C1770 C 0.01234 0.23991 0.13319 0.0
C1771 C 0.027 0.23058 0.14884 0.0
C1772 C 0.01894 0.20877 0.15848 0.0
C1773 C 0.03334 0.19938 0.1727 0.0
C1774 C 0.0557 0.2118 0.17756 0.0
C1775 C 0.06365 0.23372 0.16826 0.0
C1776 C 0.04937 0.24314 0.15397 0.0
C1777 C 0.9472 0.33272 0.1267 0.0
C1778 C 0.96399 0.35353 0.12433 0.0
C1779 C 0.95534 0.30735 0.12444 0.0
C1780 C 0.98053 0.30217 0.12011 0.0
C1781 C 0.99741 0.32275 0.11767 0.0
C1782 C 0.98915 0.34825 0.11954 0.0
C1783 C 0.9894 0.27517 0.11901 0.0
C1784 C 0.00464 0.26575 0.13282 0.0
C1785 C 0.98147 0.25833 0.10525 0.0
C1786 C 0.96508 0.26732 0.09047 0.0
C1787 C 0.97239 0.28827 0.0797 0.0
C1788 C 0.95669 0.29682 0.06593 0.0
C1789 C 0.9337 0.28445 0.06271 0.0
C1790 C 0.92642 0.26346 0.07322 0.0
C1791 C 0.94204 0.25485 0.08703 0.0
H1792 H 0.92157 0.2911 0.05203 0.0
H1793 H 0.06685 0.20447 0.18855 0.0
H1794 H 0.5037 0.86542 0.10716 0.0
H1795 H 0.51908 0.82114 0.1029 0.0
H1796 H 0.4718 0.7953 0.14635 0.0
H1797 H 0.4568 0.8389 0.15085 0.0
H1798 H 0.51705 0.77426 0.1488 0.0
H1799 H 0.45477 0.78711 0.10277 0.0
H1800 H 0.4363 0.80894 0.07661 0.0
H1801 H 0.50257 0.79175 0.04577 0.0
H1802 H 0.52163 0.77017 0.07187 0.0
H1803 H 0.50218 0.64046 0.13657 0.0
H1804 H 0.49152 0.68645 0.13578 0.0
H1805 H 0.55268 0.70012 0.09887 0.0
H1806 H 0.56355 0.65415 0.09984 0.0
H1807 H 0.50499 0.72818 0.09131 0.0
H1808 H 0.5655 0.71245 0.13777 0.0
H1809 H 0.58277 0.69089 0.16437 0.0
H1810 H 0.51799 0.71385 0.19497 0.0
H1811 H 0.49999 0.73504 0.16838 0.0
C1812 C 0.49679 0.85031 0.11588 0.0
C1813 C 0.47893 0.85578 0.12928 0.0
C1814 C 0.50547 0.825 0.11337 0.0
C1815 C 0.49641 0.80483 0.12422 0.0
C1816 C 0.47909 0.81047 0.13782 0.0
C1817 C 0.47045 0.83553 0.14032 0.0
C1818 C 0.50443 0.77765 0.12154 0.0
C1819 C 0.51426 0.76419 0.13624 0.0
C1820 C 0.50127 0.76457 0.10507 0.0
C1821 C 0.48975 0.7773 0.08933 0.0
C1822 C 0.46549 0.78816 0.09045 0.0
C1823 C 0.4549 0.80047 0.07563 0.0
C1824 C 0.46828 0.80179 0.05955 0.0
C1825 C 0.49225 0.79075 0.05825 0.0
C1826 C 0.50296 0.77848 0.07305 0.0
C1827 C 0.51292 0.65319 0.12797 0.0
C1828 C 0.53363 0.64388 0.11824 0.0
C1829 C 0.50693 0.67943 0.1276 0.0
C1830 C 0.5214 0.69668 0.11732 0.0
C1831 C 0.54127 0.68713 0.10685 0.0
C1832 C 0.54753 0.66095 0.10748 0.0
C1833 C 0.51699 0.72484 0.1187 0.0
C1834 C 0.50795 0.73839 0.10379 0.0
C1835 C 0.52061 0.73803 0.13503 0.0
C1836 C 0.53124 0.72505 0.15101 0.0
C1837 C 0.55475 0.71259 0.1501 0.0
C1838 C 0.56469 0.70044 0.16519 0.0
C1839 C 0.55143 0.70082 0.18134 0.0
C1840 C 0.52821 0.71345 0.18243 0.0
C1841 C 0.5181 0.72551 0.16734 0.0
H1842 H 0.55918 0.69142 0.19302 0.0
H1843 H 0.46006 0.81132 0.04809 0.0
H1844 H 0.4855 0.64569 0.4114 0.0
H1845 H 0.49919 0.69055 0.41633 0.0
H1846 H 0.48025 0.70907 0.3618 0.0
H1847 H 0.4658 0.66485 0.35699 0.0
H1848 H 0.53304 0.7256 0.37834 0.0
H1849 H 0.44047 0.72774 0.38428 0.0
H1850 H 0.40112 0.71211 0.3982 0.0
H1851 H 0.42903 0.73339 0.45001 0.0
H1852 H 0.46878 0.74875 0.43638 0.0
H1853 H 0.53111 0.8549 0.36026 0.0
H1854 H 0.51712 0.81036 0.36328 0.0
H1855 H 0.51279 0.81952 0.42053 0.0
H1856 H 0.5261 0.86487 0.41742 0.0
H1857 H 0.47539 0.7875 0.40825 0.0
H1858 H 0.56443 0.79257 0.40265 0.0
H1859 H 0.60511 0.80681 0.38999 0.0
H1860 H 0.58681 0.77077 0.34003 0.0
H1861 H 0.54587 0.75652 0.35229 0.0
C1862 C 0.48448 0.65935 0.40047 0.0
C1863 C 0.47456 0.65189 0.38384 0.0
C1864 C 0.4922 0.68489 0.40331 0.0
C1865 C 0.49065 0.70301 0.38941 0.0
C1866 C 0.48156 0.69532 0.37266 0.0
C1867 C 0.47326 0.67011 0.36997 0.0
C1868 C 0.4978 0.73028 0.39222 0.0
C1869 C 0.5205 0.73918 0.38486 0.0
C1870 C 0.48174 0.74771 0.40123 0.0
C1871 C 0.45768 0.73907 0.40935 0.0
C1872 C 0.43831 0.72886 0.39866 0.0
C1873 C 0.41592 0.72009 0.40648 0.0
C1874 C 0.41261 0.72167 0.42499 0.0
C1875 C 0.43165 0.73213 0.43568 0.0
C1876 C 0.4541 0.74087 0.42791 0.0
C1877 C 0.52663 0.84759 0.37346 0.0
C1878 C 0.52976 0.86318 0.38862 0.0
C1879 C 0.51879 0.82209 0.37519 0.0
C1880 C 0.51461 0.81136 0.39217 0.0
C1881 C 0.51612 0.82736 0.40731 0.0
C1882 C 0.5236 0.85322 0.40554 0.0
C1883 C 0.51037 0.78313 0.39381 0.0
C1884 C 0.48825 0.77396 0.40201 0.0
C1885 C 0.52723 0.76531 0.3858 0.0
C1886 C 0.55201 0.77353 0.37839 0.0
C1887 C 0.56901 0.78778 0.38893 0.0
C1888 C 0.59212 0.79586 0.38183 0.0
C1889 C 0.59852 0.78971 0.36423 0.0
C1890 C 0.58182 0.77548 0.35367 0.0
C1891 C 0.55869 0.76734 0.36071 0.0
H1892 H 0.61647 0.79586 0.35879 0.0
H1893 H 0.39528 0.71484 0.43103 0.0
H1894 H 0.07432 0.3418 0.3731 0.0
H1895 H 0.05989 0.29753 0.37581 0.0
H1896 H 0.99897 0.32214 0.41007 0.0
H1897 H 0.01297 0.36695 0.40706 0.0
H1898 H 0.05405 0.26369 0.40135 0.0
H1899 H 0.94707 0.28557 0.40091 0.0
H1900 H 0.91828 0.31984 0.3906 0.0
H1901 H 0.97135 0.34153 0.34984 0.0
H1902 H 1.00021 0.30709 0.35967 0.0
H1903 H 0.99017 0.14246 0.41033 0.0
H1904 H 0.00494 0.18685 0.41493 0.0
H1905 H 0.97832 0.20735 0.36229 0.0
H1906 H 0.9627 0.16375 0.35803 0.0
H1907 H 0.96631 0.24363 0.38301 0.0
H1908 H 0.04275 0.19601 0.3731 0.0
H1909 H 0.07396 0.16177 0.37879 0.0
H1910 H 0.08612 0.19111 0.43175 0.0
H1911 H 0.05467 0.2253 0.42646 0.0
C1912 C 0.05791 0.33794 0.38133 0.0
C1913 C 0.04467 0.35811 0.38973 0.0
C1914 C 0.04978 0.31247 0.38295 0.0
C1915 C 0.02822 0.30644 0.39301 0.0
C1916 C 0.01549 0.32635 0.40203 0.0
C1917 C 0.02354 0.35197 0.40033 0.0
C1918 C 0.01841 0.27955 0.39301 0.0
C1919 C 0.0348 0.25929 0.39749 0.0
C1920 C 0.99348 0.27372 0.38757 0.0
C1921 C 0.97591 0.29397 0.38119 0.0
C1922 C 0.95252 0.29757 0.38969 0.0
C1923 C 0.9362 0.31702 0.38392 0.0
C1924 C 0.94302 0.3329 0.36961 0.0
C1925 C 0.96611 0.32925 0.36094 0.0
C1926 C 0.98245 0.30977 0.36661 0.0
C1927 C 0.98764 0.15648 0.39975 0.0
C1928 C 0.97528 0.14962 0.38384 0.0
C1929 C 0.99609 0.18184 0.40236 0.0
C1930 C 0.99289 0.20057 0.38892 0.0
C1931 C 0.98083 0.19348 0.37297 0.0
C1932 C 0.97201 0.16842 0.3705 0.0
C1933 C 1.00202 0.22758 0.39117 0.0
C1934 C 0.98547 0.24793 0.38714 0.0
C1935 C 0.02711 0.23342 0.3963 0.0
C1936 C 0.04616 0.21302 0.39946 0.0
C1937 C 0.05196 0.19505 0.386 0.0
C1938 C 0.0697 0.17566 0.38915 0.0
C1939 C 0.08196 0.17422 0.40564 0.0
C1940 C 0.07657 0.19222 0.419 0.0
C1941 C 0.05879 0.2116 0.41594 0.0
H1942 H 0.09569 0.1592 0.40805 0.0
H1943 H 0.9304 0.348 0.36522 0.0
H1944 H 0.00591 0.63644 0.90305 0.0
H1945 H 0.99203 0.68156 0.90368 0.0
H1946 H 0.06011 0.70437 0.87628 0.0
H1947 H 0.074 0.65982 0.87542 0.0
H1948 H 0.01177 0.72794 0.91676 0.0
H1949 H 0.04404 0.74635 0.84345 0.0
H1950 H 0.04902 0.72206 0.8153 0.0
H1951 H 0.99394 0.6669 0.83301 0.0
H1952 H 0.98833 0.69105 0.8611 0.0
H1953 H 1.00336 0.86336 0.89892 0.0
H1954 H 0.0192 0.81914 0.90195 0.0
H1955 H 0.96244 0.79259 0.86497 0.0
H1956 H 0.94722 0.83625 0.86142 0.0
H1957 H 1.00383 0.77005 0.85746 0.0
H1958 H 0.95674 0.78509 0.91104 0.0
H1959 H 0.94528 0.80793 0.93878 0.0
H1960 H 0.01901 0.79327 0.96021 0.0
H1961 H 0.03104 0.77066 0.93246 0.0
C1962 C 0.01805 0.65111 0.89734 0.0
C1963 C 0.04098 0.64437 0.88906 0.0
C1964 C 0.01013 0.67688 0.89778 0.0
C1965 C 0.02494 0.69626 0.88986 0.0
C1966 C 0.04826 0.6897 0.88229 0.0
C1967 C 0.05616 0.66411 0.88184 0.0
C1968 C 0.01551 0.72309 0.8883 0.0
C1969 C 0.01005 0.73722 0.90382 0.0
C1970 C 0.01274 0.73499 0.87139 0.0
C1971 C 0.01598 0.72039 0.85446 0.0
C1972 C 0.03295 0.72908 0.84131 0.0
C1973 C 0.03588 0.71533 0.82537 0.0
C1974 C 0.02183 0.69294 0.82239 0.0
C1975 C 0.00486 0.68421 0.83535 0.0
C1976 C 1.00183 0.6979 0.85129 0.0
C1977 C 0.9944 0.84811 0.89136 0.0
C1978 C 0.97388 0.85346 0.88004 0.0
C1979 C 1.00336 0.82281 0.89318 0.0
C1980 C 0.99181 0.80242 0.88386 0.0
C1981 C 0.97171 0.8079 0.87231 0.0
C1982 C 0.96293 0.83302 0.87038 0.0
C1983 C 1.00034 0.77526 0.88594 0.0
C1984 C 0.00569 0.76097 0.87045 0.0
C1985 C 1.00212 0.76305 0.90285 0.0
C1986 C 0.99488 0.77642 0.9196 0.0
C1987 C 0.97057 0.7869 0.92162 0.0
C1988 C 0.96396 0.79978 0.93735 0.0
C1989 C 0.98143 0.80211 0.95123 0.0
C1990 C 0.00551 0.79149 0.94943 0.0
C1991 C 0.01224 0.77863 0.93371 0.0
H1992 H 0.97628 0.8121 0.9634 0.0
H1993 H 0.02398 0.68241 0.81 0.0
H1994 H 0.431 0.33265 0.8755 0.0
H1995 H 0.44422 0.28824 0.88012 0.0
H1996 H 0.51625 0.3146 0.89961 0.0
H1997 H 0.50295 0.35947 0.89547 0.0
H1998 H 0.51766 0.27626 0.87141 0.0
H1999 H 0.47835 0.29085 0.92862 0.0
H2000 H 0.44352 0.30436 0.94836 0.0
H2001 H 0.39548 0.24649 0.92546 0.0
H2002 H 0.42992 0.23288 0.90537 0.0
H2003 H 0.56823 0.15812 0.89509 0.0
H2004 H 0.55254 0.20187 0.89725 0.0
H2005 H 0.4765 0.1743 0.88955 0.0
H2006 H 0.49224 0.12983 0.88822 0.0
H2007 H 0.47609 0.21353 0.91203 0.0
H2008 H 0.51231 0.19894 0.85465 0.0
H2009 H 0.54437 0.18619 0.83244 0.0
H2010 H 0.5948 0.2442 0.85239 0.0
H2011 H 0.5633 0.25693 0.87501 0.0
C2012 C 0.44952 0.32918 0.88106 0.0
C2013 C 0.46583 0.34977 0.88524 0.0
C2014 C 0.45702 0.30369 0.88369 0.0
C2015 C 0.48112 0.29816 0.89031 0.0
C2016 C 0.4975 0.31854 0.89456 0.0
C2017 C 0.48985 0.34415 0.89222 0.0
C2018 C 0.48955 0.27102 0.89183 0.0
C2019 C 0.50894 0.26261 0.88052 0.0
C2020 C 0.47729 0.25307 0.90314 0.0
C2021 C 0.45666 0.261 0.91538 0.0
C2022 C 0.4603 0.28113 0.92769 0.0
C2023 C 0.44063 0.28879 0.93896 0.0
C2024 C 0.41728 0.27633 0.93814 0.0
C2025 C 0.41357 0.25613 0.92608 0.0
C2026 C 0.43317 0.24842 0.91476 0.0
C2027 C 0.54816 0.16117 0.89409 0.0
C2028 C 0.53158 0.14043 0.89123 0.0
C2029 C 0.53918 0.18633 0.89523 0.0
C2030 C 0.51342 0.19155 0.89299 0.0
C2031 C 0.49652 0.17079 0.89114 0.0
C2032 C 0.50552 0.14538 0.89037 0.0
C2033 C 0.50462 0.21873 0.89177 0.0
C2034 C 0.48501 0.22714 0.90299 0.0
C2035 C 0.51633 0.23667 0.88007 0.0
C2036 C 0.53549 0.22876 0.86664 0.0
C2037 C 0.53033 0.20882 0.85443 0.0
C2038 C 0.54839 0.20162 0.84174 0.0
C2039 C 0.57157 0.21443 0.84098 0.0
C2040 C 0.57682 0.23432 0.85299 0.0
C2041 C 0.55888 0.24152 0.86575 0.0
H2042 H 0.58543 0.20904 0.83104 0.0
H2043 H 0.40207 0.2823 0.94687 0.0
H2044 H 0.434 0.17076 0.63264 0.0
H2045 H 0.45101 0.21383 0.62837 0.0
H2046 H 0.52143 0.18165 0.61019 0.0
H2047 H 0.50422 0.13794 0.61391 0.0
H2048 H 0.52358 0.22237 0.63867 0.0
H2049 H 0.48921 0.20631 0.58009 0.0
H2050 H 0.45578 0.19273 0.55921 0.0
H2051 H 0.40742 0.25271 0.57888 0.0
H2052 H 0.44043 0.2664 0.60008 0.0
H2053 H 0.57614 0.34212 0.61758 0.0
H2054 H 0.56203 0.29778 0.61504 0.0
H2055 H 0.48454 0.32312 0.61641 0.0
H2056 H 0.49873 0.36803 0.61765 0.0
H2057 H 0.48743 0.28434 0.59515 0.0
H2058 H 0.51799 0.29983 0.65425 0.0
H2059 H 0.54893 0.31417 0.67674 0.0
H2060 H 0.60076 0.25586 0.65931 0.0
H2061 H 0.57042 0.24159 0.63636 0.0
C2062 C 0.45299 0.17262 0.62746 0.0
C2063 C 0.4676 0.15071 0.62341 0.0
C2064 C 0.4627 0.19737 0.6251 0.0
C2065 C 0.48739 0.20092 0.61889 0.0
C2066 C 0.50226 0.17925 0.61495 0.0
C2067 C 0.49236 0.15433 0.61701 0.0
C2068 C 0.49753 0.22744 0.61695 0.0
C2069 C 0.51611 0.23583 0.62893 0.0
C2070 C 0.48696 0.24517 0.60472 0.0
C2071 C 0.46724 0.23725 0.59177 0.0
C2072 C 0.47138 0.21648 0.58005 0.0
C2073 C 0.45252 0.20878 0.56815 0.0
C2074 C 0.42947 0.22181 0.56775 0.0
C2075 C 0.42528 0.24262 0.57921 0.0
C2076 C 0.44407 0.25038 0.59116 0.0
C2077 C 0.5561 0.33843 0.61704 0.0
C2078 C 0.53861 0.35875 0.61791 0.0
C2079 C 0.54801 0.31291 0.61576 0.0
C2080 C 0.52219 0.30689 0.61608 0.0
C2081 C 0.50459 0.32717 0.61626 0.0
C2082 C 0.51272 0.35288 0.61702 0.0
C2083 C 0.51369 0.27949 0.61687 0.0
C2084 C 0.49523 0.27092 0.60479 0.0
C2085 C 0.52398 0.2617 0.62932 0.0
C2086 C 0.542 0.26979 0.64345 0.0
C2087 C 0.53603 0.29014 0.65514 0.0
C2088 C 0.55346 0.29827 0.66798 0.0
C2089 C 0.57677 0.28594 0.66946 0.0
C2090 C 0.58269 0.26541 0.65813 0.0
C2091 C 0.5654 0.25731 0.64519 0.0
H2092 H 0.59024 0.29229 0.6794 0.0
H2093 H 0.41488 0.21581 0.55853 0.0
H2094 H 0.0277 0.85224 0.65183 0.0
H2095 H 0.01506 0.80733 0.6485 0.0
H2096 H 0.00813 0.81796 0.5915 0.0
H2097 H 0.01997 0.86366 0.59496 0.0
H2098 H 0.97245 0.78459 0.6038 0.0
H2099 H 0.0614 0.79214 0.60848 0.0
H2100 H 0.10169 0.80752 0.62102 0.0
H2101 H 0.08545 0.76899 0.67051 0.0
H2102 H 0.04487 0.75365 0.65837 0.0
H2103 H 0.98463 0.64354 0.59803 0.0
H2104 H 0.99766 0.68876 0.59371 0.0
H2105 H 0.98101 0.70464 0.64904 0.0
H2106 H 0.9672 0.66007 0.65326 0.0
H2107 H 0.03232 0.72333 0.63201 0.0
H2108 H 0.93968 0.72322 0.62734 0.0
H2109 H 0.90028 0.70721 0.61379 0.0
H2110 H 0.92632 0.73086 0.56192 0.0
H2111 H 0.96609 0.74665 0.57518 0.0
C2112 C 0.02296 0.84514 0.63863 0.0
C2113 C 0.02489 0.86128 0.62363 0.0
C2114 C 0.0159 0.81943 0.63671 0.0
C2115 C 0.01138 0.80904 0.61969 0.0
C2116 C 0.01175 0.82552 0.60475 0.0
C2117 C 0.0184 0.85157 0.60672 0.0
C2118 C 0.00784 0.78073 0.61773 0.0
C2119 C 0.9858 0.77122 0.60966 0.0
C2120 C 0.02532 0.76312 0.62526 0.0
C2121 C 0.05001 0.7718 0.63252 0.0
C2122 C 0.06635 0.78702 0.62206 0.0
C2123 C 0.08924 0.79575 0.6291 0.0
C2124 C 0.09611 0.78925 0.64655 0.0
C2125 C 0.08011 0.77398 0.65699 0.0
C2126 C 0.05718 0.76522 0.65002 0.0
C2127 C 0.98401 0.65669 0.60927 0.0
C2128 C 0.97487 0.6484 0.62596 0.0
C2129 C 0.99137 0.68243 0.60678 0.0
C2130 C 0.99025 0.69993 0.62108 0.0
C2131 C 0.98202 0.69139 0.63788 0.0
C2132 C 0.97408 0.66597 0.64023 0.0
C2133 C 0.99668 0.72749 0.61862 0.0
C2134 C 0.0193 0.73677 0.62586 0.0
C2135 C 0.97999 0.74478 0.6101 0.0
C2136 C 0.95594 0.7358 0.6022 0.0
C2137 C 0.93709 0.72478 0.61303 0.0
C2138 C 0.91468 0.7158 0.60541 0.0
C2139 C 0.91083 0.71793 0.58699 0.0
C2140 C 0.92935 0.72917 0.57617 0.0
C2141 C 0.95182 0.73815 0.58373 0.0
H2142 H 0.89348 0.71093 0.58111 0.0
H2143 H 0.11386 0.79595 0.65195 0.0
H2144 H 0.01904 0.92074 0.94538 0.0
H2145 H 0.02849 0.94295 0.97324 0.0
H2146 H 0.96614 0.99468 0.96426 0.0
H2147 H 0.95699 0.97292 0.93592 0.0
H2148 H 0.00511 0.02128 0.97524 0.0
H2149 H 0.96344 0.94555 0.99602 0.0
H2150 H 0.9548 0.89899 0.99856 0.0
H2151 H 0.02922 0.88661 0.01946 0.0
H2152 H 0.03843 0.93307 0.01682 0.0
H2153 H 0.00974 0.02746 0.07996 0.0
H2154 H 0.99706 0.00712 0.05213 0.0
H2155 H 0.05886 0.04435 0.02472 0.0
H2156 H 0.07122 0.06565 0.05267 0.0
H2157 H 0.01758 0.97384 0.03211 0.0
H2158 H 0.04445 0.05284 0.98069 0.0
H2159 H 0.04776 0.10021 0.97899 0.0
H2160 H 0.99318 0.10765 0.02115 0.0
H2161 H 0.9893 0.06035 0.02294 0.0
C2162 C 0.0071 0.93666 0.94937 0.0
C2163 C 0.98713 0.94491 0.9384 0.0
C2164 C 0.01254 0.94936 0.96538 0.0
C2165 C 0.9979 0.97039 0.97103 0.0
C2166 C 0.97774 0.97853 0.96022 0.0
C2167 C 0.9724 0.96593 0.94408 0.0
C2168 C 0.00405 0.98408 0.98803 0.0
C2169 C 0.00778 0.0109 0.98768 0.0
C2170 C 0.00718 0.97072 1.00439 0.0
C2171 C 1.00169 0.94277 0.00607 0.0
C2172 C 0.97802 0.93288 1.00104 0.0
C2173 C 0.97302 0.90651 1.00251 0.0
C2174 C 0.99147 0.88985 0.00912 0.0
C2175 C 0.01495 0.89954 0.01432 0.0
C2176 C 0.02007 0.92589 0.01286 0.0
C2177 C 0.0207 0.03143 0.06805 0.0
C2178 C 0.04155 0.04823 0.06859 0.0
C2179 C 0.0134 0.01968 0.05208 0.0
C2180 C 0.02682 0.02422 0.0362 0.0
C2181 C 0.04784 0.04085 0.03669 0.0
C2182 C 0.055 0.05293 0.0527 0.0
C2183 C 0.01888 0.01107 0.01935 0.0
C2184 C 0.0149 0.98428 0.01969 0.0
C2185 C 0.0148 0.02459 1.00314 0.0
C2186 C 0.01681 0.05305 1.00207 0.0
C2187 C 0.0331 0.0646 0.98955 0.0
C2188 C 0.03508 0.09143 0.98858 0.0
C2189 C 0.02076 0.10692 1.0 0.0
C2190 C 0.00434 0.09562 0.01237 0.0
C2191 C 1.00227 0.0688 0.01338 0.0
H2192 H 0.02233 0.12769 0.99924 0.0
H2193 H 0.98756 0.86943 0.01025 0.0
H2194 H 0.5559 0.06728 0.95665 0.0
H2195 H 0.54348 0.04716 0.98501 0.0
H2196 H 0.49597 0.99367 0.9565 0.0
H2197 H 0.50805 0.01362 0.92828 0.0
H2198 H 0.4716 0.01277 0.98498 0.0
H2199 H 0.55239 0.97477 0.97346 0.0
H2200 H 0.59796 0.97464 0.96677 0.0
H2201 H 0.61269 0.01592 0.01539 0.0
H2202 H 0.56714 0.01662 0.02225 0.0
H2203 H 0.45061 0.92394 0.05713 0.0
H2204 H 0.4629 0.94321 0.02842 0.0
H2205 H 0.50927 0.99861 0.0561 0.0
H2206 H 0.49719 0.97967 0.08463 0.0
H2207 H 0.53418 0.97792 0.02787 0.0
H2208 H 0.45332 0.01628 0.03917 0.0
H2209 H 0.40774 0.01643 0.04582 0.0
H2210 H 0.39318 0.97428 0.99753 0.0
H2211 H 0.43875 0.97356 0.99071 0.0
C2212 C 0.54288 0.05118 0.95642 0.0
C2213 C 0.53302 0.04212 0.94014 0.0
C2214 C 0.53583 0.03964 0.97264 0.0
C2215 C 0.51886 0.01877 0.97291 0.0
C2216 C 0.50902 0.00975 0.95668 0.0
C2217 C 0.51607 0.02118 0.94051 0.0
C2218 C 0.51111 0.00637 0.99005 0.0
C2219 C 0.48529 0.00485 0.99424 0.0
C2220 C 0.52892 0.99643 1.00233 0.0
C2221 C 0.55633 0.99598 0.99827 0.0
C2222 C 0.56533 0.98401 0.98265 0.0
C2223 C 0.59115 0.9838 0.97884 0.0
C2224 C 0.6082 0.99533 0.99062 0.0
C2225 C 0.59946 0.00704 0.00626 0.0
C2226 C 0.57364 0.00733 0.01013 0.0
C2227 C 0.46336 0.94027 0.0571 0.0
C2228 C 0.47286 0.95021 0.07324 0.0
C2229 C 0.47034 0.9513 0.04068 0.0
C2230 C 0.48698 0.97244 0.04009 0.0
C2231 C 0.49649 0.98229 0.05618 0.0
C2232 C 0.48943 0.97144 0.07253 0.0
C2233 C 0.49469 0.98436 0.02279 0.0
C2234 C 0.5205 0.9858 0.01858 0.0
C2235 C 0.47687 0.9942 0.01048 0.0
C2236 C 0.44947 0.99461 0.01454 0.0
C2237 C 0.44042 0.00684 0.03005 0.0
C2238 C 0.41458 0.00707 0.03383 0.0
C2239 C 0.39758 0.9953 0.02213 0.0
C2240 C 0.40638 0.98334 0.00659 0.0
C2241 C 0.43221 0.98303 1.00276 0.0
H2242 H 0.37758 0.99551 0.02508 0.0
H2243 H 0.62819 0.99515 0.98765 0.0
H2244 H 0.47907 0.01697 0.58506 0.0
H2245 H 0.49357 0.99653 0.55759 0.0
H2246 H 0.47064 0.06326 0.52736 0.0
H2247 H 0.45558 0.08381 0.55492 0.0
H2248 H 0.45949 0.01952 0.50956 0.0
H2249 H 0.53237 0.05398 0.53888 0.0
H2250 H 0.56112 0.06084 0.56433 0.0
H2251 H 0.57697 0.97977 0.56619 0.0
H2252 H 0.54796 0.97236 0.54093 0.0
H2253 H 0.5301 0.99393 0.43181 0.0
H2254 H 0.51581 0.01382 0.45951 0.0
H2255 H 0.53546 0.94504 0.48866 0.0
H2256 H 0.55005 0.92486 0.46083 0.0
H2257 H 0.54834 0.98955 0.507 0.0
H2258 H 0.4753 0.95547 0.47734 0.0
H2259 H 0.44697 0.94921 0.45159 0.0
H2260 H 0.4319 0.03045 0.45008 0.0
H2261 H 0.46049 0.03726 0.47566 0.0
C2262 C 0.47692 0.02732 0.57258 0.0
C2263 C 0.46634 0.0522 0.57225 0.0
C2264 C 0.48534 0.0156 0.55686 0.0
C2265 C 0.48371 0.02853 0.54041 0.0
C2266 C 0.47225 0.05294 0.5399 0.0
C2267 C 0.46365 0.06469 0.55567 0.0
C2268 C 0.49457 0.01677 0.52392 0.0
C2269 C 0.479 0.01329 0.50894 0.0
C2270 C 0.51993 0.00812 0.52316 0.0
C2271 C 0.5378 0.01258 0.53811 0.0
C2272 C 0.54187 0.03759 0.54478 0.0
C2273 C 0.55821 0.04158 0.55917 0.0
C2274 C 0.5708 0.02075 0.56691 0.0
C2275 C 0.56716 0.99589 0.56021 0.0
C2276 C 0.55078 0.99178 0.54584 0.0
C2277 C 0.5316 0.98298 0.44409 0.0
C2278 C 0.54103 0.95762 0.44401 0.0
C2279 C 0.52332 0.99442 0.45995 0.0
C2280 C 0.52412 0.98079 0.47614 0.0
C2281 C 0.53454 0.95589 0.4763 0.0
C2282 C 0.54286 0.94437 0.46038 0.0
C2283 C 0.51326 0.99232 0.49268 0.0
C2284 C 0.52883 0.99576 0.50765 0.0
C2285 C 0.48793 1.00102 0.49342 0.0
C2286 C 0.47022 0.9969 0.47832 0.0
C2287 C 0.46606 0.97202 0.47146 0.0
C2288 C 0.44995 0.96838 0.45689 0.0
C2289 C 0.4377 0.98943 0.44917 0.0
C2290 C 0.44143 0.01416 0.45606 0.0
C2291 C 0.45757 0.01793 0.4706 0.0
H2292 H 0.42527 0.98657 0.43787 0.0
H2293 H 0.58342 0.02387 0.57806 0.0
H2294 H 0.05177 0.93009 0.55218 0.0
H2295 H 0.03887 0.95024 0.52397 0.0
H2296 H 0.99817 0.00846 0.55327 0.0
H2297 H 0.01082 0.98855 0.58136 0.0
H2298 H 0.97004 0.9898 0.52609 0.0
H2299 H 0.05411 0.02236 0.53386 0.0
H2300 H 0.10001 0.01935 0.53874 0.0
H2301 H 0.10799 0.97561 0.49035 0.0
H2302 H 0.06205 0.97805 0.48531 0.0
H2303 H 0.94997 0.07883 0.45419 0.0
H2304 H 0.96242 0.05845 0.48243 0.0
H2305 H 0.00399 1.00075 0.45325 0.0
H2306 H 0.99182 0.02088 0.42515 0.0
H2307 H 0.03163 0.01914 0.48041 0.0
H2308 H 0.94771 0.98652 0.47255 0.0
H2309 H 0.90181 0.98932 0.4676 0.0
H2310 H 0.8935 0.03287 0.51605 0.0
H2311 H 0.93944 0.03064 0.52115 0.0
C2312 C 0.04018 0.94724 0.55262 0.0
C2313 C 0.03238 0.95765 0.56908 0.0
C2314 C 0.03285 0.95878 0.53647 0.0
C2315 C 0.01759 0.98096 0.53647 0.0
C2316 C 0.00985 0.99135 0.55289 0.0
C2317 C 0.01724 0.97994 0.56898 0.0
C2318 C 0.00946 0.99331 0.51944 0.0
C2319 C 0.98353 0.9965 0.5162 0.0
C2320 C 0.02698 1.00161 0.50634 0.0
C2321 C 0.05461 1.00015 0.50931 0.0
C2322 C 0.06562 0.01191 0.52434 0.0
C2323 C 0.09165 0.01034 0.52712 0.0
C2324 C 0.1069 0.99723 0.5149 0.0
C2325 C 0.09615 0.98572 0.49983 0.0
C2326 C 0.07012 0.9872 0.497 0.0
C2327 C 0.96163 0.06172 0.45379 0.0
C2328 C 0.96988 0.05157 0.43735 0.0
C2329 C 0.96871 0.05005 0.46995 0.0
C2330 C 0.98412 0.02798 0.47 0.0
C2331 C 0.99221 0.01779 0.4536 0.0
C2332 C 0.98511 0.02933 0.4375 0.0
C2333 C 0.99221 0.01563 0.48705 0.0
C2334 C 0.01813 0.01244 0.49029 0.0
C2335 C 0.97468 0.0073 0.50014 0.0
C2336 C 0.94705 0.00865 0.49713 0.0
C2337 C 0.93613 0.99689 0.48207 0.0
C2338 C 0.9101 0.99833 0.47925 0.0
C2339 C 0.89476 0.01133 0.49148 0.0
C2340 C 0.90541 0.02285 0.50657 0.0
C2341 C 0.93144 0.02149 0.50944 0.0
H2342 H 0.87461 0.01243 0.48928 0.0
H2343 H 0.12705 0.99605 0.51707 0.0
H2344 H 0.55683 0.56863 0.05003 0.0
H2345 H 0.5447 0.54858 0.02161 0.0
H2346 H 0.48743 0.50429 0.04887 0.0
H2347 H 0.49969 0.52365 0.07715 0.0
H2348 H 0.51174 0.4745 0.02643 0.0
H2349 H 0.47326 0.5584 0.02318 0.0
H2350 H 0.47266 0.60591 0.0238 0.0
H2351 H 0.52418 0.60832 0.97948 0.0
H2352 H 0.52534 0.5608 0.97874 0.0
H2353 H 0.44263 0.43102 0.95057 0.0
H2354 H 0.45456 0.45222 0.97861 0.0
H2355 H 0.5116 0.49586 0.95064 0.0
H2356 H 0.49951 0.47535 0.92267 0.0
H2357 H 0.48783 0.52608 0.97328 0.0
H2358 H 0.52622 0.44226 0.97645 0.0
H2359 H 0.52691 0.39476 0.9758 0.0
H2360 H 0.4757 0.3922 0.0203 0.0
H2361 H 0.47445 0.43971 0.02106 0.0
C2362 C 0.54164 0.55465 0.04995 0.0
C2363 C 0.52924 0.54784 0.0659 0.0
C2364 C 0.53464 0.54326 0.03368 0.0
C2365 C 0.51495 0.52505 0.03303 0.0
C2366 C 0.50269 0.51821 0.04897 0.0
C2367 C 0.50972 0.52942 0.06518 0.0
C2368 C 0.50707 0.51284 0.01589 0.0
C2369 C 0.50623 0.48582 0.01488 0.0
C2370 C 0.50036 0.5275 1.00065 0.0
C2371 C 0.49958 0.55606 1.00102 0.0
C2372 C 0.4846 0.56907 0.01365 0.0
C2373 C 0.48414 0.596 0.01401 0.0
C2374 C 0.49842 0.61013 1.00172 0.0
C2375 C 0.51315 0.59736 0.98901 0.0
C2376 C 0.51371 0.57043 0.9886 0.0
C2377 C 0.45767 0.44517 0.9504 0.0
C2378 C 0.47017 0.45134 0.93436 0.0
C2379 C 0.46455 0.45721 0.96645 0.0
C2380 C 0.48423 0.47544 0.96681 0.0
C2381 C 0.49639 0.4819 0.95075 0.0
C2382 C 0.48947 0.47002 0.93474 0.0
C2383 C 0.4924 0.48775 0.98385 0.0
C2384 C 0.49333 0.51478 0.98483 0.0
C2385 C 0.4992 0.4731 0.99907 0.0
C2386 C 0.50005 0.44453 0.9987 0.0
C2387 C 0.51497 0.43156 0.98601 0.0
C2388 C 0.51548 0.40464 0.98564 0.0
C2389 C 0.5013 0.39047 0.99797 0.0
C2390 C 0.48664 0.4032 0.01074 0.0
C2391 C 0.48604 0.43012 0.01116 0.0
H2392 H 0.50172 0.36962 0.99766 0.0
H2393 H 0.49804 0.63097 1.00202 0.0
H2394 H 0.94256 0.43116 0.05804 0.0
H2395 H 0.95548 0.45138 0.02984 0.0
H2396 H 0.0093 0.49839 0.05825 0.0
H2397 H 0.9962 0.47884 0.08635 0.0
H2398 H 0.98601 0.52661 0.03426 0.0
H2399 H 0.02712 0.44399 0.03418 0.0
H2400 H 0.02916 0.39658 0.03596 0.0
H2401 H 0.98092 0.39036 0.99009 0.0
H2402 H 0.97833 0.43776 0.98818 0.0
H2403 H 0.05902 0.56831 0.95928 0.0
H2404 H 0.0457 0.5485 0.98753 0.0
H2405 H 0.99153 0.50186 0.95916 0.0
H2406 H 0.00498 0.52104 0.93102 0.0
H2407 H 0.01498 0.47349 0.98312 0.0
H2408 H 0.97397 0.55616 0.98318 0.0
H2409 H 0.97196 0.60357 0.98143 0.0
H2410 H 0.02011 0.60969 0.02736 0.0
H2411 H 0.02267 0.5623 0.02923 0.0
C2412 C 0.9571 0.44585 0.05827 0.0
C2413 C 0.9684 0.45323 0.07449 0.0
C2414 C 0.96456 0.45733 0.04213 0.0
C2415 C 0.98364 0.47622 0.04185 0.0
C2416 C 0.99458 0.48389 0.05806 0.0
C2417 C 0.98708 0.47256 0.07416 0.0
C2418 C 0.99245 0.48799 0.02475 0.0
C2419 C 0.99261 0.51498 0.02316 0.0
C2420 C 1.00067 0.4729 0.01009 0.0
C2421 C 1.00233 0.44441 0.01115 0.0
C2422 C 0.01681 0.43251 0.02455 0.0
C2423 C 0.01809 0.40564 0.02557 0.0
C2424 C 0.00513 0.39047 0.01317 0.0
C2425 C 0.99092 0.40214 0.9997 0.0
C2426 C 0.98956 0.429 0.99863 0.0
C2427 C 0.0443 0.55382 0.95906 0.0
C2428 C 0.03303 0.54639 0.94285 0.0
C2429 C 0.03661 0.54257 0.97524 0.0
C2430 C 0.01737 0.52385 0.97553 0.0
C2431 C 0.00639 0.51622 0.95933 0.0
C2432 C 0.01409 0.52733 0.94321 0.0
C2433 C 0.00853 0.5121 0.99263 0.0
C2434 C 0.00837 0.48512 0.99422 0.0
C2435 C 1.00033 0.52721 0.00729 0.0
C2436 C 0.99872 0.55569 0.00623 0.0
C2437 C 0.98428 0.56762 0.99282 0.0
C2438 C 0.98302 0.59449 0.99182 0.0
C2439 C 0.99596 0.60964 1.00425 0.0
C2440 C 0.01013 0.59794 0.01773 0.0
C2441 C 0.01148 0.57108 0.01877 0.0
H2442 H 0.99496 0.63043 1.00345 0.0
H2443 H 0.00613 0.36968 0.01399 0.0
H2444 H 0.99409 0.52011 0.58442 0.0
H2445 H 0.00736 0.50071 0.55635 0.0
H2446 H 0.96648 0.55873 0.52705 0.0
H2447 H 0.95292 0.57848 0.55532 0.0
H2448 H 0.9603 0.50956 0.51284 0.0
H2449 H 0.02879 0.56398 0.5308 0.0
H2450 H 0.06054 0.58115 0.55172 0.0
H2451 H 0.09461 0.50635 0.55569 0.0
H2452 H 0.06281 0.48864 0.53499 0.0
H2453 H 0.01754 0.48751 0.42922 0.0
H2454 H 0.00409 0.50741 0.45708 0.0
H2455 H 0.04679 0.4514 0.48696 0.0
H2456 H 0.06068 0.43129 0.45891 0.0
H2457 H 0.05195 0.49984 0.50084 0.0
H2458 H 0.98359 0.44524 0.48311 0.0
H2459 H 0.95181 0.42774 0.46234 0.0
H2460 H 0.91741 0.50235 0.45812 0.0
H2461 H 0.94924 0.5204 0.47866 0.0
C2462 C 0.98779 0.52884 0.57206 0.0
C2463 C 0.97258 0.55108 0.57217 0.0
C2464 C 0.99549 0.51768 0.55598 0.0
C2465 C 0.98827 0.52848 0.53959 0.0
C2466 C 0.97239 0.55016 0.53957 0.0
C2467 C 0.96468 0.56144 0.55573 0.0
C2468 C 0.99776 0.51721 0.52258 0.0
C2469 C 0.98033 0.50779 0.51008 0.0
C2470 C 0.02392 0.51428 0.51919 0.0
C2471 C 0.04327 0.52493 0.53147 0.0
C2472 C 0.04294 0.55115 0.53623 0.0
C2473 C 0.06096 0.56098 0.54804 0.0
C2474 C 0.07954 0.54483 0.55507 0.0
C2475 C 0.08019 0.51883 0.55025 0.0
C2476 C 0.06218 0.50889 0.53847 0.0
C2477 C 0.02419 0.47934 0.44167 0.0
C2478 C 0.04005 0.45758 0.44179 0.0
C2479 C 0.01638 0.49076 0.45763 0.0
C2480 C 0.02404 0.48066 0.47414 0.0
C2481 C 0.04052 0.45945 0.47437 0.0
C2482 C 0.04842 0.44795 0.45833 0.0
C2483 C 0.0145 0.49217 0.49108 0.0
C2484 C 0.03192 0.50162 0.50357 0.0
C2485 C 0.98833 0.49508 0.49448 0.0
C2486 C 0.96896 0.48422 0.4823 0.0
C2487 C 0.96936 0.45796 0.47765 0.0
C2488 C 0.95132 0.44794 0.46594 0.0
C2489 C 0.93264 0.46394 0.45888 0.0
C2490 C 0.93191 0.48998 0.46358 0.0
C2491 C 0.94994 0.50012 0.47527 0.0
H2492 H 0.91871 0.45614 0.4498 0.0
H2493 H 0.09347 0.55248 0.56422 0.0
H2494 H 0.55492 0.43 0.54997 0.0
H2495 H 0.54208 0.45005 0.52171 0.0
H2496 H 0.497 0.50512 0.55076 0.0
H2497 H 0.50937 0.48517 0.57884 0.0
H2498 H 0.47128 0.48698 0.52304 0.0
H2499 H 0.5543 0.52156 0.53278 0.0
H2500 H 0.60009 0.51944 0.53837 0.0
H2501 H 0.61063 0.47761 0.48942 0.0
H2502 H 0.56482 0.47917 0.48365 0.0
H2503 H 0.4512 0.57861 0.45293 0.0
H2504 H 0.46352 0.55745 0.48092 0.0
H2505 H 0.50717 0.502 0.45115 0.0
H2506 H 0.49522 0.52296 0.42331 0.0
H2507 H 0.53357 0.51988 0.47904 0.0
H2508 H 0.45044 0.48581 0.4692 0.0
H2509 H 0.40464 0.48812 0.46368 0.0
H2510 H 0.39433 0.52931 0.51292 0.0
H2511 H 0.44015 0.52757 0.51861 0.0
C2512 C 0.54231 0.4464 0.55032 0.0
C2513 C 0.53319 0.45592 0.5667 0.0
C2514 C 0.53503 0.45789 0.53417 0.0
C2515 C 0.51865 0.47922 0.5341 0.0
C2516 C 0.50955 0.48866 0.55044 0.0
C2517 C 0.51676 0.47722 0.56652 0.0
C2518 C 0.51081 0.49178 0.5171 0.0
C2519 C 0.48492 0.49444 0.51352 0.0
C2520 C 0.52855 0.5011 0.50449 0.0
C2521 C 0.5561 0.50025 0.50788 0.0
C2522 C 0.56636 0.51174 0.52327 0.0
C2523 C 0.59232 0.51067 0.52647 0.0
C2524 C 0.60825 0.49834 0.51429 0.0
C2525 C 0.59826 0.48712 0.49886 0.0
C2526 C 0.5723 0.4881 0.49561 0.0
C2527 C 0.46333 0.56185 0.45235 0.0
C2528 C 0.47222 0.55255 0.43585 0.0
C2529 C 0.47031 0.54973 0.46836 0.0
C2530 C 0.48621 0.52804 0.46814 0.0
C2531 C 0.49499 0.51873 0.45168 0.0
C2532 C 0.48802 0.53075 0.43574 0.0
C2533 C 0.49405 0.51512 0.485 0.0
C2534 C 0.51994 0.51241 0.48856 0.0
C2535 C 0.47631 0.50579 0.4976 0.0
C2536 C 0.44876 0.50679 0.49424 0.0
C2537 C 0.43843 0.49555 0.47878 0.0
C2538 C 0.41247 0.49672 0.47563 0.0
C2539 C 0.39659 0.50892 0.48791 0.0
C2540 C 0.40665 0.51991 0.5034 0.0
C2541 C 0.43262 0.51882 0.5066 0.0
H2542 H 0.37649 0.5098 0.48545 0.0
H2543 H 0.62834 0.49753 0.51678 0.0
loop_
_geom_bond_atom_site_label_1
_geom_bond_atom_site_label_2
_geom_bond_distance
_geom_bond_site_symmetry_2
_ccdc_geom_bond_type
Co0 O2 2.143 . S
Co0 O8 2.074 . S
Co0 O11 2.093 . S
Co0 O24 2.097 . S
Co0 N41 2.151 . S
Co0 N49 2.214 1_455 S
Co1 O2 2.160 . S
Co1 O7 2.058 . S
Co1 O17 2.057 . S
Co1 O32 2.037 . S
Co1 N36 2.145 . S
Co1 N57 2.257 . S
O2 Co0 2.143 . S
O2 Co1 2.160 . S
C3 O4 1.278 . S
C3 O11 1.224 . S
O4 C3 1.278 . S
C5 O6 1.245 . S
C5 O17 1.232 . S
O6 C5 1.245 . S
O7 Co1 2.058 . S
O7 C33 1.269 . S
O8 Co0 2.074 . S
O8 C33 1.257 . S
H9 C34 0.930 . S
H10 C40 0.930 . S
O11 Co0 2.093 . S
O11 C3 1.224 . S
H12 C44 0.929 1_655 S
H13 C46 0.930 . S
H14 C47 0.930 . S
H15 C45 0.949 . S
H16 C48 0.928 . S
O17 Co1 2.057 . S
O17 C5 1.232 . S
H18 C37 0.929 . S
H19 C38 0.929 . S
H20 C50 0.931 . S
H21 C42 0.929 . S
H22 C51 0.930 . S
H23 C43 0.931 . S
O24 Co0 2.097 . S
O24 C52 1.214 . S
H25 C53 0.929 . S
H26 C54 0.929 . S
H27 C55 0.930 . S
H28 C56 0.929 . S
H29 C58 0.930 . S
H30 C35 0.930 . S
H31 C39 0.930 . S
O32 Co1 2.037 . S
O32 C52 1.234 . S
C33 O7 1.269 . S
C33 O8 1.257 . S
C34 H9 0.930 . S
C34 C37 1.388 . S
C34 C39 1.418 . S
C35 H30 0.930 . S
C35 C38 1.404 . S
C35 C39 1.353 . S
N36 Co1 2.145 . S
N36 C37 1.397 . S
N36 C38 1.334 . S
C37 H18 0.929 . S
C37 C34 1.388 . S
C37 N36 1.397 . S
C38 H19 0.929 . S
C38 C35 1.404 . S
C38 N36 1.334 . S
C39 H31 0.930 . S
C39 C34 1.418 . S
C39 C35 1.353 . S
C40 H10 0.930 . S
C40 N41 1.330 . S
C40 C42 1.446 1_545 S
N41 Co0 2.151 . S
N41 C40 1.330 . S
N41 C45 1.418 . S
C42 H21 0.929 . S
C42 C40 1.446 1_565 S
C42 C43 1.332 . S
C43 H23 0.931 . S
C43 C42 1.332 . S
C43 C44 1.267 . S
C44 H12 0.929 1_455 S
C44 C43 1.267 . S
C44 C45 1.251 1_565 S
C45 H15 0.949 . S
C45 N41 1.418 . S
C45 C44 1.251 1_545 S
C46 H13 0.930 . S
C46 C48 1.406 . S
C46 C51 1.261 . S
C47 H14 0.930 . S
C47 N49 1.325 . S
C47 C50 1.357 . S
C48 H16 0.928 . S
C48 C46 1.406 . S
C48 N49 1.261 . S
N49 Co0 2.214 1_655 S
N49 C47 1.325 . S
N49 C48 1.261 . S
C50 H20 0.931 . S
C50 C47 1.357 . S
C50 C51 1.312 . S
C51 H22 0.930 . S
C51 C46 1.261 . S
C51 C50 1.312 . S
C52 O24 1.214 . S
C52 O32 1.234 . S
C53 H25 0.929 . S
C53 C56 1.391 . S
C53 C58 1.391 . S
C54 H26 0.929 . S
C54 C55 1.390 . S
C54 N57 1.391 . S
C55 H27 0.930 . S
C55 C54 1.390 . S
C55 C56 1.392 . S
C56 H28 0.929 . S
C56 C53 1.391 . S
C56 C55 1.392 . S
N57 Co1 2.257 . S
N57 C54 1.391 . S
N57 C58 1.388 . S
C58 H29 0.930 . S
C58 C53 1.391 . S
C58 N57 1.388 . S
Co59 O61 2.143 . S
Co59 O67 2.074 . S
Co59 O70 2.093 . S
Co59 O83 2.097 . S
Co59 N100 2.151 . S
Co59 N108 2.214 . S
Co60 O61 2.160 . S
Co60 O66 2.058 . S
Co60 O76 2.057 . S
Co60 O91 2.037 . S
Co60 N95 2.145 . S
Co60 N116 2.257 . S
O61 Co59 2.143 . S
O61 Co60 2.160 . S
C62 O63 1.278 . S
C62 O70 1.224 . S
O63 C62 1.278 . S
C64 O65 1.245 . S
C64 O76 1.232 . S
O65 C64 1.245 . S
O66 Co60 2.058 . S
O66 C92 1.269 . S
O67 Co59 2.074 . S
O67 C92 1.257 . S
H68 C93 0.930 . S
H69 C99 0.930 . S
O70 Co59 2.093 . S
O70 C62 1.224 . S
H71 C103 0.929 . S
H72 C105 0.930 . S
H73 C106 0.930 . S
H74 C104 0.929 . S
H75 C107 0.928 . S
O76 Co60 2.057 . S
O76 C64 1.232 . S
H77 C96 0.929 . S
H78 C97 0.929 . S
H79 C109 0.931 . S
H80 C101 0.929 . S
H81 C110 0.930 . S
H82 C102 0.931 . S
O83 Co59 2.097 . S
O83 C111 1.214 . S
H84 C112 0.929 . S
H85 C113 0.929 . S
H86 C114 0.930 . S
H87 C115 0.929 . S
H88 C117 0.930 . S
H89 C94 0.930 . S
H90 C98 0.930 . S
O91 Co60 2.037 . S
O91 C111 1.234 . S
C92 O66 1.269 . S
C92 O67 1.257 . S
C93 H68 0.930 . S
C93 C96 1.388 . S
C93 C98 1.418 . S
C94 H89 0.930 . S
C94 C97 1.404 . S
C94 C98 1.353 . S
N95 Co60 2.145 . S
N95 C96 1.397 . S
N95 C97 1.334 . S
C96 H77 0.929 . S
C96 C93 1.388 . S
C96 N95 1.397 . S
C97 H78 0.929 . S
C97 C94 1.404 . S
C97 N95 1.334 . S
C98 H90 0.930 . S
C98 C93 1.418 . S
C98 C94 1.353 . S
C99 H69 0.930 . S
C99 N100 1.330 . S
C99 C101 1.446 1_565 S
N100 Co59 2.151 . S
N100 C99 1.330 . S
N100 C104 1.418 . S
C101 H80 0.929 . S
C101 C99 1.446 1_545 S
C101 C102 1.332 . S
C102 H82 0.931 . S
C102 C101 1.332 . S
C102 C103 1.267 . S
C103 H71 0.929 . S
C103 C102 1.267 . S
C103 C104 1.251 1_545 S
C104 H74 0.929 . S
C104 N100 1.418 . S
C104 C103 1.251 1_565 S
C105 H72 0.930 . S
C105 C107 1.406 . S
C105 C110 1.261 . S
C106 H73 0.930 . S
C106 N108 1.325 . S
C106 C109 1.357 . S
C107 H75 0.928 . S
C107 C105 1.406 . S
C107 N108 1.261 . S
N108 Co59 2.214 . S
N108 C106 1.325 . S
N108 C107 1.261 . S
C109 H79 0.931 . S
C109 C106 1.357 . S
C109 C110 1.312 . S
C110 H81 0.930 . S
C110 C105 1.261 . S
C110 C109 1.312 . S
C111 O83 1.214 . S
C111 O91 1.234 . S
C112 H84 0.929 . S
C112 C115 1.391 . S
C112 C117 1.391 . S
C113 H85 0.929 . S
C113 C114 1.390 . S
C113 N116 1.391 . S
C114 H86 0.930 . S
C114 C113 1.390 . S
C114 C115 1.392 . S
C115 H87 0.929 . S
C115 C112 1.391 . S
C115 C114 1.392 . S
N116 Co60 2.257 . S
N116 C113 1.391 . S
N116 C117 1.388 . S
C117 H88 0.930 . S
C117 C112 1.391 . S
C117 N116 1.388 . S
Co118 O120 2.143 . S
Co118 O126 2.074 . S
Co118 O129 2.093 . S
Co118 O142 2.097 . S
Co118 N159 2.151 . S
Co118 N167 2.214 . S
Co119 O120 2.160 . S
Co119 O125 2.058 . S
Co119 O135 2.057 . S
Co119 O150 2.037 . S
Co119 N154 2.145 . S
Co119 N175 2.257 . S
O120 Co118 2.143 . S
O120 Co119 2.160 . S
C121 O122 1.278 . S
C121 O129 1.224 . S
O122 C121 1.278 . S
C123 O124 1.245 . S
C123 O135 1.232 . S
O124 C123 1.245 . S
O125 Co119 2.058 . S
O125 C151 1.269 . S
O126 Co118 2.074 . S
O126 C151 1.257 . S
H127 C152 0.930 . S
H128 C158 0.930 . S
O129 Co118 2.093 . S
O129 C121 1.224 . S
H130 C162 0.929 . S
H131 C164 0.930 . S
H132 C165 0.930 . S
H133 C163 0.929 . S
H134 C166 0.928 . S
O135 Co119 2.057 . S
O135 C123 1.232 . S
H136 C155 0.929 . S
H137 C156 0.929 . S
H138 C168 0.931 . S
H139 C160 0.929 . S
H140 C169 0.930 . S
H141 C161 0.931 . S
O142 Co118 2.097 . S
O142 C170 1.214 . S
H143 C171 0.929 . S
H144 C172 0.929 . S
H145 C173 0.930 . S
H146 C174 0.929 . S
H147 C176 0.930 . S
H148 C153 0.930 . S
H149 C157 0.930 . S
O150 Co119 2.037 . S
O150 C170 1.234 . S
C151 O125 1.269 . S
C151 O126 1.257 . S
C152 H127 0.930 . S
C152 C155 1.388 . S
C152 C157 1.418 . S
C153 H148 0.930 . S
C153 C156 1.404 . S
C153 C157 1.353 . S
N154 Co119 2.145 . S
N154 C155 1.397 . S
N154 C156 1.334 . S
C155 H136 0.929 . S
C155 C152 1.388 . S
C155 N154 1.397 . S
C156 H137 0.929 . S
C156 C153 1.404 . S
C156 N154 1.334 . S
C157 H149 0.930 . S
C157 C152 1.418 . S
C157 C153 1.353 . S
C158 H128 0.930 . S
C158 N159 1.330 . S
C158 C160 1.446 1_565 S
N159 Co118 2.151 . S
N159 C158 1.330 . S
N159 C163 1.418 . S
C160 H139 0.929 . S
C160 C158 1.446 1_545 S
C160 C161 1.332 . S
C161 H141 0.931 . S
C161 C160 1.332 . S
C161 C162 1.267 . S
C162 H130 0.929 . S
C162 C161 1.267 . S
C162 C163 1.251 1_545 S
C163 H133 0.929 . S
C163 N159 1.418 . S
C163 C162 1.251 1_565 S
C164 H131 0.930 . S
C164 C166 1.406 . S
C164 C169 1.261 . S
C165 H132 0.930 . S
C165 N167 1.325 . S
C165 C168 1.357 . S
C166 H134 0.928 . S
C166 C164 1.406 . S
C166 N167 1.261 . S
N167 Co118 2.214 . S
N167 C165 1.325 . S
N167 C166 1.261 . S
C168 H138 0.931 . S
C168 C165 1.357 . S
C168 C169 1.312 . S
C169 H140 0.930 . S
C169 C164 1.261 . S
C169 C168 1.312 . S
C170 O142 1.214 . S
C170 O150 1.234 . S
C171 H143 0.929 . S
C171 C174 1.391 . S
C171 C176 1.391 . S
C172 H144 0.929 . S
C172 C173 1.390 . S
C172 N175 1.391 . S
C173 H145 0.930 . S
C173 C172 1.390 . S
C173 C174 1.392 . S
C174 H146 0.929 . S
C174 C171 1.391 . S
C174 C173 1.392 . S
N175 Co119 2.257 . S
N175 C172 1.391 . S
N175 C176 1.388 . S
C176 H147 0.930 . S
C176 C171 1.391 . S
C176 N175 1.388 . S
Co177 O179 2.143 . S
Co177 O185 2.074 . S
Co177 O188 2.093 . S
Co177 O201 2.097 . S
Co177 N218 2.151 . S
Co177 N226 2.214 1_655 S
Co178 O179 2.160 . S
Co178 O184 2.058 . S
Co178 O194 2.057 . S
Co178 O209 2.037 . S
Co178 N213 2.145 . S
Co178 N234 2.257 . S
O179 Co177 2.143 . S
O179 Co178 2.160 . S
C180 O181 1.278 . S
C180 O188 1.224 . S
O181 C180 1.278 . S
C182 O183 1.245 . S
C182 O194 1.232 . S
O183 C182 1.245 . S
O184 Co178 2.058 . S
O184 C210 1.269 . S
O185 Co177 2.074 . S
O185 C210 1.257 . S
H186 C211 0.930 . S
H187 C217 0.930 . S
O188 Co177 2.093 . S
O188 C180 1.224 . S
H189 C221 0.929 1_455 S
H190 C223 0.930 . S
H191 C224 0.930 . S
H192 C222 0.949 . S
H193 C225 0.928 . S
O194 Co178 2.057 . S
O194 C182 1.232 . S
H195 C214 0.929 . S
H196 C215 0.929 . S
H197 C227 0.931 . S
H198 C219 0.929 . S
H199 C228 0.930 . S
H200 C220 0.931 . S
O201 Co177 2.097 . S
O201 C229 1.214 . S
H202 C230 0.929 . S
H203 C231 0.929 . S
H204 C232 0.930 . S
H205 C233 0.929 . S
H206 C235 0.930 . S
H207 C212 0.930 . S
H208 C216 0.930 . S
O209 Co178 2.037 . S
O209 C229 1.234 . S
C210 O184 1.269 . S
C210 O185 1.257 . S
C211 H186 0.930 . S
C211 C214 1.388 . S
C211 C216 1.418 . S
C212 H207 0.930 . S
C212 C215 1.404 . S
C212 C216 1.353 . S
N213 Co178 2.145 . S
N213 C214 1.397 . S
N213 C215 1.334 . S
C214 H195 0.929 . S
C214 C211 1.388 . S
C214 N213 1.397 . S
C215 H196 0.929 . S
C215 C212 1.404 . S
C215 N213 1.334 . S
C216 H208 0.930 . S
C216 C211 1.418 . S
C216 C212 1.353 . S
C217 H187 0.930 . S
C217 N218 1.330 . S
C217 C219 1.446 1_545 S
N218 Co177 2.151 . S
N218 C217 1.330 . S
N218 C222 1.418 . S
C219 H198 0.929 . S
C219 C217 1.446 1_565 S
C219 C220 1.332 . S
C220 H200 0.931 . S
C220 C219 1.332 . S
C220 C221 1.267 . S
C221 H189 0.929 1_655 S
C221 C220 1.267 . S
C221 C222 1.251 1_565 S
C222 H192 0.949 . S
C222 N218 1.418 . S
C222 C221 1.251 1_545 S
C223 H190 0.930 . S
C223 C225 1.406 . S
C223 C228 1.261 . S
C224 H191 0.930 . S
C224 N226 1.325 . S
C224 C227 1.357 . S
C225 H193 0.928 . S
C225 C223 1.406 . S
C225 N226 1.261 . S
N226 Co177 2.214 1_455 S
N226 C224 1.325 . S
N226 C225 1.261 . S
C227 H197 0.931 . S
C227 C224 1.357 . S
C227 C228 1.312 . S
C228 H199 0.930 . S
C228 C223 1.261 . S
C228 C227 1.312 . S
C229 O201 1.214 . S
C229 O209 1.234 . S
C230 H202 0.929 . S
C230 C233 1.391 . S
C230 C235 1.391 . S
C231 H203 0.929 . S
C231 C232 1.390 . S
C231 N234 1.391 . S
C232 H204 0.930 . S
C232 C231 1.390 . S
C232 C233 1.392 . S
C233 H205 0.929 . S
C233 C230 1.391 . S
C233 C232 1.392 . S
N234 Co178 2.257 . S
N234 C231 1.391 . S
N234 C235 1.388 . S
C235 H206 0.930 . S
C235 C230 1.391 . S
C235 N234 1.388 . S
Co236 O238 2.143 . S
Co236 O244 2.074 . S
Co236 O247 2.093 . S
Co236 O260 2.097 . S
Co236 N277 2.151 . S
Co236 N285 2.214 1_655 S
Co237 O238 2.160 . S
Co237 O243 2.058 . S
Co237 O253 2.057 . S
Co237 O268 2.037 . S
Co237 N272 2.145 . S
Co237 N293 2.257 . S
O238 Co236 2.143 . S
O238 Co237 2.160 . S
C239 O240 1.278 . S
C239 O247 1.224 . S
O240 C239 1.278 . S
C241 O242 1.245 . S
C241 O253 1.232 . S
O242 C241 1.245 . S
O243 Co237 2.058 . S
O243 C269 1.269 . S
O244 Co236 2.074 . S
O244 C269 1.257 . S
H245 C270 0.930 . S
H246 C276 0.930 . S
O247 Co236 2.093 . S
O247 C239 1.224 . S
H248 C280 0.929 1_455 S
H249 C282 0.930 . S
H250 C283 0.930 . S
H251 C281 0.949 . S
H252 C284 0.928 . S
O253 Co237 2.057 . S
O253 C241 1.232 . S
H254 C273 0.929 . S
H255 C274 0.929 . S
H256 C286 0.931 . S
H257 C278 0.929 . S
H258 C287 0.930 . S
H259 C279 0.931 . S
O260 Co236 2.097 . S
O260 C288 1.214 . S
H261 C289 0.929 . S
H262 C290 0.929 . S
H263 C291 0.930 . S
H264 C292 0.929 . S
H265 C294 0.930 . S
H266 C271 0.930 . S
H267 C275 0.930 . S
O268 Co237 2.037 . S
O268 C288 1.234 . S
C269 O243 1.269 . S
C269 O244 1.257 . S
C270 H245 0.930 . S
C270 C273 1.388 . S
C270 C275 1.418 . S
C271 H266 0.930 . S
C271 C274 1.404 . S
C271 C275 1.353 . S
N272 Co237 2.145 . S
N272 C273 1.397 . S
N272 C274 1.334 . S
C273 H254 0.929 . S
C273 C270 1.388 . S
C273 N272 1.397 . S
C274 H255 0.929 . S
C274 C271 1.404 . S
C274 N272 1.334 . S
C275 H267 0.930 . S
C275 C270 1.418 . S
C275 C271 1.353 . S
C276 H246 0.930 . S
C276 N277 1.330 . S
C276 C278 1.446 1_565 S
N277 Co236 2.151 . S
N277 C276 1.330 . S
N277 C281 1.418 . S
C278 H257 0.929 . S
C278 C276 1.446 1_545 S
C278 C279 1.332 . S
C279 H259 0.931 . S
C279 C278 1.332 . S
C279 C280 1.267 . S
C280 H248 0.929 1_655 S
C280 C279 1.267 . S
C280 C281 1.251 1_545 S
C281 H251 0.949 . S
C281 N277 1.418 . S
C281 C280 1.251 1_565 S
C282 H249 0.930 . S
C282 C284 1.406 . S
C282 C287 1.261 . S
C283 H250 0.930 . S
C283 N285 1.325 . S
C283 C286 1.357 . S
C284 H252 0.928 . S
C284 C282 1.406 . S
C284 N285 1.261 . S
N285 Co236 2.214 1_455 S
N285 C283 1.325 . S
N285 C284 1.261 . S
C286 H256 0.931 . S
C286 C283 1.357 . S
C286 C287 1.312 . S
C287 H258 0.930 . S
C287 C282 1.261 . S
C287 C286 1.312 . S
C288 O260 1.214 . S
C288 O268 1.234 . S
C289 H261 0.929 . S
C289 C292 1.391 . S
C289 C294 1.391 . S
C290 H262 0.929 . S
C290 C291 1.390 . S
C290 N293 1.391 . S
C291 H263 0.930 . S
C291 C290 1.390 . S
C291 C292 1.392 . S
C292 H264 0.929 . S
C292 C289 1.391 . S
C292 C291 1.392 . S
N293 Co237 2.257 . S
N293 C290 1.391 . S
N293 C294 1.388 . S
C294 H265 0.930 . S
C294 C289 1.391 . S
C294 N293 1.388 . S
Co295 O297 2.143 . S
Co295 O303 2.074 . S
Co295 O306 2.093 . S
Co295 O319 2.097 . S
Co295 N336 2.151 . S
Co295 N344 2.214 . S
Co296 O297 2.160 . S
Co296 O302 2.058 . S
Co296 O312 2.057 . S
Co296 O327 2.037 . S
Co296 N331 2.145 . S
Co296 N352 2.257 . S
O297 Co295 2.143 . S
O297 Co296 2.160 . S
C298 O299 1.278 . S
C298 O306 1.224 . S
O299 C298 1.278 . S
C300 O301 1.245 . S
C300 O312 1.232 . S
O301 C300 1.245 . S
O302 Co296 2.058 . S
O302 C328 1.269 . S
O303 Co295 2.074 . S
O303 C328 1.257 . S
H304 C329 0.930 . S
H305 C335 0.930 . S
O306 Co295 2.093 . S
O306 C298 1.224 . S
H307 C339 0.929 . S
H308 C341 0.930 . S
H309 C342 0.930 . S
H310 C340 0.929 . S
H311 C343 0.928 . S
O312 Co296 2.057 . S
O312 C300 1.232 . S
H313 C332 0.929 . S
H314 C333 0.929 . S
H315 C345 0.931 . S
H316 C337 0.929 . S
H317 C346 0.930 . S
H318 C338 0.931 . S
O319 Co295 2.097 . S
O319 C347 1.214 . S
H320 C348 0.929 . S
H321 C349 0.929 . S
H322 C350 0.930 . S
H323 C351 0.929 . S
H324 C353 0.930 . S
H325 C330 0.930 . S
H326 C334 0.930 . S
O327 Co296 2.037 . S
O327 C347 1.234 . S
C328 O302 1.269 . S
C328 O303 1.257 . S
C329 H304 0.930 . S
C329 C332 1.388 . S
C329 C334 1.418 . S
C330 H325 0.930 . S
C330 C333 1.404 . S
C330 C334 1.353 . S
N331 Co296 2.145 . S
N331 C332 1.397 . S
N331 C333 1.334 . S
C332 H313 0.929 . S
C332 C329 1.388 . S
C332 N331 1.397 . S
C333 H314 0.929 . S
C333 C330 1.404 . S
C333 N331 1.334 . S
C334 H326 0.930 . S
C334 C329 1.418 . S
C334 C330 1.353 . S
C335 H305 0.930 . S
C335 N336 1.330 . S
C335 C337 1.446 1_545 S
N336 Co295 2.151 . S
N336 C335 1.330 . S
N336 C340 1.418 . S
C337 H316 0.929 . S
C337 C335 1.446 1_565 S
C337 C338 1.332 . S
C338 H318 0.931 . S
C338 C337 1.332 . S
C338 C339 1.267 . S
C339 H307 0.929 . S
C339 C338 1.267 . S
C339 C340 1.251 1_565 S
C340 H310 0.929 . S
C340 N336 1.418 . S
C340 C339 1.251 1_545 S
C341 H308 0.930 . S
C341 C343 1.406 . S
C341 C346 1.261 . S
C342 H309 0.930 . S
C342 N344 1.325 . S
C342 C345 1.357 . S
C343 H311 0.928 . S
C343 C341 1.406 . S
C343 N344 1.261 . S
N344 Co295 2.214 . S
N344 C342 1.325 . S
N344 C343 1.261 . S
C345 H315 0.931 . S
C345 C342 1.357 . S
C345 C346 1.312 . S
C346 H317 0.930 . S
C346 C341 1.261 . S
C346 C345 1.312 . S
C347 O319 1.214 . S
C347 O327 1.234 . S
C348 H320 0.929 . S
C348 C351 1.391 . S
C348 C353 1.391 . S
C349 H321 0.929 . S
C349 C350 1.390 . S
C349 N352 1.391 . S
C350 H322 0.930 . S
C350 C349 1.390 . S
C350 C351 1.392 . S
C351 H323 0.929 . S
C351 C348 1.391 . S
C351 C350 1.392 . S
N352 Co296 2.257 . S
N352 C349 1.391 . S
N352 C353 1.388 . S
C353 H324 0.930 . S
C353 C348 1.391 . S
C353 N352 1.388 . S
Co354 O356 2.143 . S
Co354 O362 2.074 . S
Co354 O365 2.093 . S
Co354 O378 2.097 . S
Co354 N395 2.151 . S
Co354 N403 2.214 . S
Co355 O356 2.160 . S
Co355 O361 2.058 . S
Co355 O371 2.057 . S
Co355 O386 2.037 . S
Co355 N390 2.145 . S
Co355 N411 2.257 . S
O356 Co354 2.143 . S
O356 Co355 2.160 . S
C357 O358 1.278 . S
C357 O365 1.224 . S
O358 C357 1.278 . S
C359 O360 1.245 . S
C359 O371 1.232 . S
O360 C359 1.245 . S
O361 Co355 2.058 . S
O361 C387 1.269 . S
O362 Co354 2.074 . S
O362 C387 1.257 . S
H363 C388 0.930 . S
H364 C394 0.930 . S
O365 Co354 2.093 . S
O365 C357 1.224 . S
H366 C398 0.929 . S
H367 C400 0.930 . S
H368 C401 0.930 . S
H369 C399 0.929 . S
H370 C402 0.928 . S
O371 Co355 2.057 . S
O371 C359 1.232 . S
H372 C391 0.929 . S
H373 C392 0.929 . S
H374 C404 0.931 . S
H375 C396 0.929 . S
H376 C405 0.930 . S
H377 C397 0.931 . S
O378 Co354 2.097 . S
O378 C406 1.214 . S
H379 C407 0.929 . S
H380 C408 0.929 . S
H381 C409 0.930 . S
H382 C410 0.929 . S
H383 C412 0.930 . S
H384 C389 0.930 . S
H385 C393 0.930 . S
O386 Co355 2.037 . S
O386 C406 1.234 . S
C387 O361 1.269 . S
C387 O362 1.257 . S
C388 H363 0.930 . S
C388 C391 1.388 . S
C388 C393 1.418 . S
C389 H384 0.930 . S
C389 C392 1.404 . S
C389 C393 1.353 . S
N390 Co355 2.145 . S
N390 C391 1.397 . S
N390 C392 1.334 . S
C391 H372 0.929 . S
C391 C388 1.388 . S
C391 N390 1.397 . S
C392 H373 0.929 . S
C392 C389 1.404 . S
C392 N390 1.334 . S
C393 H385 0.930 . S
C393 C388 1.418 . S
C393 C389 1.353 . S
C394 H364 0.930 . S
C394 N395 1.330 . S
C394 C396 1.446 1_545 S
N395 Co354 2.151 . S
N395 C394 1.330 . S
N395 C399 1.418 . S
C396 H375 0.929 . S
C396 C394 1.446 1_565 S
C396 C397 1.332 . S
C397 H377 0.931 . S
C397 C396 1.332 . S
C397 C398 1.267 . S
C398 H366 0.929 . S
C398 C397 1.267 . S
C398 C399 1.251 1_565 S
C399 H369 0.929 . S
C399 N395 1.418 . S
C399 C398 1.251 1_545 S
C400 H367 0.930 . S
C400 C402 1.406 . S
C400 C405 1.261 . S
C401 H368 0.930 . S
C401 N403 1.325 . S
C401 C404 1.357 . S
C402 H370 0.928 . S
C402 C400 1.406 . S
C402 N403 1.261 . S
N403 Co354 2.214 . S
N403 C401 1.325 . S
N403 C402 1.261 . S
C404 H374 0.931 . S
C404 C401 1.357 . S
C404 C405 1.312 . S
C405 H376 0.930 . S
C405 C400 1.261 . S
C405 C404 1.312 . S
C406 O378 1.214 . S
C406 O386 1.234 . S
C407 H379 0.929 . S
C407 C410 1.391 . S
C407 C412 1.391 . S
C408 H380 0.929 . S
C408 C409 1.390 . S
C408 N411 1.391 . S
C409 H381 0.930 . S
C409 C408 1.390 . S
C409 C410 1.392 . S
C410 H382 0.929 . S
C410 C407 1.391 . S
C410 C409 1.392 . S
N411 Co355 2.257 . S
N411 C408 1.391 . S
N411 C412 1.388 . S
C412 H383 0.930 . S
C412 C407 1.391 . S
C412 N411 1.388 . S
Co413 O415 2.143 . S
Co413 O421 2.074 . S
Co413 O424 2.093 . S
Co413 O437 2.097 . S
Co413 N454 2.151 . S
Co413 N462 2.214 1_455 S
Co414 O415 2.160 . S
Co414 O420 2.058 . S
Co414 O430 2.057 . S
Co414 O445 2.037 . S
Co414 N449 2.145 . S
Co414 N470 2.257 . S
O415 Co413 2.143 . S
O415 Co414 2.160 . S
C416 O417 1.278 . S
C416 O424 1.224 . S
O417 C416 1.278 . S
C418 O419 1.245 . S
C418 O430 1.232 . S
O419 C418 1.245 . S
O420 Co414 2.058 . S
O420 C446 1.269 . S
O421 Co413 2.074 . S
O421 C446 1.257 . S
H422 C447 0.930 . S
H423 C453 0.930 . S
O424 Co413 2.093 . S
O424 C416 1.224 . S
H425 C457 0.929 1_655 S
H426 C459 0.930 . S
H427 C460 0.930 . S
H428 C458 0.949 . S
H429 C461 0.928 . S
O430 Co414 2.057 . S
O430 C418 1.232 . S
H431 C450 0.929 . S
H432 C451 0.929 . S
H433 C463 0.931 . S
H434 C455 0.929 . S
H435 C464 0.930 . S
H436 C456 0.931 . S
O437 Co413 2.097 . S
O437 C465 1.214 . S
H438 C466 0.929 . S
H439 C467 0.929 . S
H440 C468 0.930 . S
H441 C469 0.929 . S
H442 C471 0.930 . S
H443 C448 0.930 . S
H444 C452 0.930 . S
O445 Co414 2.037 . S
O445 C465 1.234 . S
C446 O420 1.269 . S
C446 O421 1.257 . S
C447 H422 0.930 . S
C447 C450 1.388 . S
C447 C452 1.418 . S
C448 H443 0.930 . S
C448 C451 1.404 . S
C448 C452 1.353 . S
N449 Co414 2.145 . S
N449 C450 1.397 . S
N449 C451 1.334 . S
C450 H431 0.929 . S
C450 C447 1.388 . S
C450 N449 1.397 . S
C451 H432 0.929 . S
C451 C448 1.404 . S
C451 N449 1.334 . S
C452 H444 0.930 . S
C452 C447 1.418 . S
C452 C448 1.353 . S
C453 H423 0.930 . S
C453 N454 1.330 . S
C453 C455 1.446 1_565 S
N454 Co413 2.151 . S
N454 C453 1.330 . S
N454 C458 1.418 . S
C455 H434 0.929 . S
C455 C453 1.446 1_545 S
C455 C456 1.332 . S
C456 H436 0.931 . S
C456 C455 1.332 . S
C456 C457 1.267 . S
C457 H425 0.929 1_455 S
C457 C456 1.267 . S
C457 C458 1.251 1_545 S
C458 H428 0.949 . S
C458 N454 1.418 . S
C458 C457 1.251 1_565 S
C459 H426 0.930 . S
C459 C461 1.406 . S
C459 C464 1.261 . S
C460 H427 0.930 . S
C460 N462 1.325 . S
C460 C463 1.357 . S
C461 H429 0.928 . S
C461 C459 1.406 . S
C461 N462 1.261 . S
N462 Co413 2.214 1_655 S
N462 C460 1.325 . S
N462 C461 1.261 . S
C463 H433 0.931 . S
C463 C460 1.357 . S
C463 C464 1.312 . S
C464 H435 0.930 . S
C464 C459 1.261 . S
C464 C463 1.312 . S
C465 O437 1.214 . S
C465 O445 1.234 . S
C466 H438 0.929 . S
C466 C469 1.391 . S
C466 C471 1.391 . S
C467 H439 0.929 . S
C467 C468 1.390 . S
C467 N470 1.391 . S
C468 H440 0.930 . S
C468 C467 1.390 . S
C468 C469 1.392 . S
C469 H441 0.929 . S
C469 C466 1.391 . S
C469 C468 1.392 . S
N470 Co414 2.257 . S
N470 C467 1.391 . S
N470 C471 1.388 . S
C471 H442 0.930 . S
C471 C466 1.391 . S
C471 N470 1.388 . S
Co472 O474 2.143 . S
Co472 O480 2.074 . S
Co472 O483 2.093 . S
Co472 O496 2.097 . S
Co472 N513 2.151 . S
Co472 N521 2.214 . S
Co473 O474 2.160 . S
Co473 O479 2.058 . S
Co473 O489 2.057 . S
Co473 O504 2.037 . S
Co473 N508 2.145 . S
Co473 N529 2.257 . S
O474 Co472 2.143 . S
O474 Co473 2.160 . S
C475 O476 1.278 . S
C475 O483 1.224 . S
O476 C475 1.278 . S
C477 O478 1.245 . S
C477 O489 1.232 . S
O478 C477 1.245 . S
O479 Co473 2.058 . S
O479 C505 1.269 . S
O480 Co472 2.074 . S
O480 C505 1.257 . S
H481 C506 0.930 . S
H482 C512 0.930 . S
O483 Co472 2.093 . S
O483 C475 1.224 . S
H484 C516 0.929 . S
H485 C518 0.930 . S
H486 C519 0.930 . S
H487 C517 0.929 . S
H488 C520 0.928 . S
O489 Co473 2.057 . S
O489 C477 1.232 . S
H490 C509 0.929 . S
H491 C510 0.929 . S
H492 C522 0.931 . S
H493 C514 0.929 . S
H494 C523 0.930 . S
H495 C515 0.931 . S
O496 Co472 2.097 . S
O496 C524 1.214 . S
H497 C525 0.929 . S
H498 C526 0.929 . S
H499 C527 0.930 . S
H500 C528 0.929 . S
H501 C530 0.930 . S
H502 C507 0.930 . S
H503 C511 0.930 . S
O504 Co473 2.037 . S
O504 C524 1.234 . S
C505 O479 1.269 . S
C505 O480 1.257 . S
C506 H481 0.930 . S
C506 C509 1.388 . S
C506 C511 1.418 . S
C507 H502 0.930 . S
C507 C510 1.404 . S
C507 C511 1.353 . S
N508 Co473 2.145 . S
N508 C509 1.397 . S
N508 C510 1.334 . S
C509 H490 0.929 . S
C509 C506 1.388 . S
C509 N508 1.397 . S
C510 H491 0.929 . S
C510 C507 1.404 . S
C510 N508 1.334 . S
C511 H503 0.930 . S
C511 C506 1.418 . S
C511 C507 1.353 . S
C512 H482 0.930 . S
C512 N513 1.330 . S
C512 C514 1.446 . S
N513 Co472 2.151 . S
N513 C512 1.330 . S
N513 C517 1.418 . S
C514 H493 0.929 . S
C514 C512 1.446 . S
C514 C515 1.332 . S
C515 H495 0.931 . S
C515 C514 1.332 . S
C515 C516 1.267 . S
C516 H484 0.929 . S
C516 C515 1.267 . S
C516 C517 1.251 . S
C517 H487 0.929 . S
C517 N513 1.418 . S
C517 C516 1.251 . S
C518 H485 0.930 . S
C518 C520 1.406 . S
C518 C523 1.261 . S
C519 H486 0.930 . S
C519 N521 1.325 . S
C519 C522 1.357 . S
C520 H488 0.928 . S
C520 C518 1.406 . S
C520 N521 1.261 . S
N521 Co472 2.214 . S
N521 C519 1.325 . S
N521 C520 1.261 . S
C522 H492 0.931 . S
C522 C519 1.357 . S
C522 C523 1.312 . S
C523 H494 0.930 . S
C523 C518 1.261 . S
C523 C522 1.312 . S
C524 O496 1.214 . S
C524 O504 1.234 . S
C525 H497 0.929 . S
C525 C528 1.391 . S
C525 C530 1.391 . S
C526 H498 0.929 . S
C526 C527 1.390 . S
C526 N529 1.391 . S
C527 H499 0.930 . S
C527 C526 1.390 . S
C527 C528 1.392 . S
C528 H500 0.929 . S
C528 C525 1.391 . S
C528 C527 1.392 . S
N529 Co473 2.257 . S
N529 C526 1.391 . S
N529 C530 1.388 . S
C530 H501 0.930 . S
C530 C525 1.391 . S
C530 N529 1.388 . S
Co531 O533 2.143 . S
Co531 O539 2.074 . S
Co531 O542 2.093 . S
Co531 O555 2.097 . S
Co531 N572 2.151 . S
Co531 N580 2.214 1_655 S
Co532 O533 2.160 . S
Co532 O538 2.058 . S
Co532 O548 2.057 . S
Co532 O563 2.037 . S
Co532 N567 2.145 . S
Co532 N588 2.257 . S
O533 Co531 2.143 . S
O533 Co532 2.160 . S
C534 O535 1.278 . S
C534 O542 1.224 . S
O535 C534 1.278 . S
C536 O537 1.245 . S
C536 O548 1.232 . S
O537 C536 1.245 . S
O538 Co532 2.058 . S
O538 C564 1.269 . S
O539 Co531 2.074 . S
O539 C564 1.257 . S
H540 C565 0.930 . S
H541 C571 0.930 . S
O542 Co531 2.093 . S
O542 C534 1.224 . S
H543 C575 0.929 1_455 S
H544 C577 0.930 . S
H545 C578 0.930 . S
H546 C576 0.949 . S
H547 C579 0.928 . S
O548 Co532 2.057 . S
O548 C536 1.232 . S
H549 C568 0.929 . S
H550 C569 0.929 . S
H551 C581 0.931 . S
H552 C573 0.929 . S
H553 C582 0.930 . S
H554 C574 0.931 . S
O555 Co531 2.097 . S
O555 C583 1.214 . S
H556 C584 0.929 . S
H557 C585 0.929 . S
H558 C586 0.930 . S
H559 C587 0.929 . S
H560 C589 0.930 . S
H561 C566 0.930 . S
H562 C570 0.930 . S
O563 Co532 2.037 . S
O563 C583 1.234 . S
C564 O538 1.269 . S
C564 O539 1.257 . S
C565 H540 0.930 . S
C565 C568 1.388 . S
C565 C570 1.418 . S
C566 H561 0.930 . S
C566 C569 1.404 . S
C566 C570 1.353 . S
N567 Co532 2.145 . S
N567 C568 1.397 . S
N567 C569 1.334 . S
C568 H549 0.929 . S
C568 C565 1.388 . S
C568 N567 1.397 . S
C569 H550 0.929 . S
C569 C566 1.404 . S
C569 N567 1.334 . S
C570 H562 0.930 . S
C570 C565 1.418 . S
C570 C566 1.353 . S
C571 H541 0.930 . S
C571 N572 1.330 . S
C571 C573 1.446 . S
N572 Co531 2.151 . S
N572 C571 1.330 . S
N572 C576 1.418 . S
C573 H552 0.929 . S
C573 C571 1.446 . S
C573 C574 1.332 . S
C574 H554 0.931 . S
C574 C573 1.332 . S
C574 C575 1.267 . S
C575 H543 0.929 1_655 S
C575 C574 1.267 . S
C575 C576 1.251 . S
C576 H546 0.949 . S
C576 N572 1.418 . S
C576 C575 1.251 . S
C577 H544 0.930 . S
C577 C579 1.406 . S
C577 C582 1.261 . S
C578 H545 0.930 . S
C578 N580 1.325 . S
C578 C581 1.357 . S
C579 H547 0.928 . S
C579 C577 1.406 . S
C579 N580 1.261 . S
N580 Co531 2.214 1_455 S
N580 C578 1.325 . S
N580 C579 1.261 . S
C581 H551 0.931 . S
C581 C578 1.357 . S
C581 C582 1.312 . S
C582 H553 0.930 . S
C582 C577 1.261 . S
C582 C581 1.312 . S
C583 O555 1.214 . S
C583 O563 1.234 . S
C584 H556 0.929 . S
C584 C587 1.391 . S
C584 C589 1.391 . S
C585 H557 0.929 . S
C585 C586 1.390 . S
C585 N588 1.391 . S
C586 H558 0.930 . S
C586 C585 1.390 . S
C586 C587 1.392 . S
C587 H559 0.929 . S
C587 C584 1.391 . S
C587 C586 1.392 . S
N588 Co532 2.257 . S
N588 C585 1.391 . S
N588 C589 1.388 . S
C589 H560 0.930 . S
C589 C584 1.391 . S
C589 N588 1.388 . S
Co590 O592 2.143 . S
Co590 O598 2.074 . S
Co590 O601 2.093 . S
Co590 O614 2.097 . S
Co590 N631 2.151 . S
Co590 N639 2.214 1_455 S
Co591 O592 2.160 . S
Co591 O597 2.058 . S
Co591 O607 2.057 . S
Co591 O622 2.037 . S
Co591 N626 2.145 . S
Co591 N647 2.257 . S
O592 Co590 2.143 . S
O592 Co591 2.160 . S
C593 O594 1.278 . S
C593 O601 1.224 . S
O594 C593 1.278 . S
C595 O596 1.245 . S
C595 O607 1.232 . S
O596 C595 1.245 . S
O597 Co591 2.058 . S
O597 C623 1.269 . S
O598 Co590 2.074 . S
O598 C623 1.257 . S
H599 C624 0.930 . S
H600 C630 0.930 . S
O601 Co590 2.093 . S
O601 C593 1.224 . S
H602 C634 0.929 1_655 S
H603 C636 0.930 . S
H604 C637 0.930 . S
H605 C635 0.949 . S
H606 C638 0.928 . S
O607 Co591 2.057 . S
O607 C595 1.232 . S
H608 C627 0.929 . S
H609 C628 0.929 . S
H610 C640 0.931 . S
H611 C632 0.929 . S
H612 C641 0.930 . S
H613 C633 0.931 . S
O614 Co590 2.097 . S
O614 C642 1.214 . S
H615 C643 0.929 . S
H616 C644 0.929 . S
H617 C645 0.930 . S
H618 C646 0.929 . S
H619 C648 0.930 . S
H620 C625 0.930 . S
H621 C629 0.930 . S
O622 Co591 2.037 . S
O622 C642 1.234 . S
C623 O597 1.269 . S
C623 O598 1.257 . S
C624 H599 0.930 . S
C624 C627 1.388 . S
C624 C629 1.418 . S
C625 H620 0.930 . S
C625 C628 1.404 . S
C625 C629 1.353 . S
N626 Co591 2.145 . S
N626 C627 1.397 . S
N626 C628 1.334 . S
C627 H608 0.929 . S
C627 C624 1.388 . S
C627 N626 1.397 . S
C628 H609 0.929 . S
C628 C625 1.404 . S
C628 N626 1.334 . S
C629 H621 0.930 . S
C629 C624 1.418 . S
C629 C625 1.353 . S
C630 H600 0.930 . S
C630 N631 1.330 . S
C630 C632 1.446 . S
N631 Co590 2.151 . S
N631 C630 1.330 . S
N631 C635 1.418 . S
C632 H611 0.929 . S
C632 C630 1.446 . S
C632 C633 1.332 . S
C633 H613 0.931 . S
C633 C632 1.332 . S
C633 C634 1.267 . S
C634 H602 0.929 1_455 S
C634 C633 1.267 . S
C634 C635 1.251 . S
C635 H605 0.949 . S
C635 N631 1.418 . S
C635 C634 1.251 . S
C636 H603 0.930 . S
C636 C638 1.406 . S
C636 C641 1.261 . S
C637 H604 0.930 . S
C637 N639 1.325 . S
C637 C640 1.357 . S
C638 H606 0.928 . S
C638 C636 1.406 . S
C638 N639 1.261 . S
N639 Co590 2.214 1_655 S
N639 C637 1.325 . S
N639 C638 1.261 . S
C640 H610 0.931 . S
C640 C637 1.357 . S
C640 C641 1.312 . S
C641 H612 0.930 . S
C641 C636 1.261 . S
C641 C640 1.312 . S
C642 O614 1.214 . S
C642 O622 1.234 . S
C643 H615 0.929 . S
C643 C646 1.391 . S
C643 C648 1.391 . S
C644 H616 0.929 . S
C644 C645 1.390 . S
C644 N647 1.391 . S
C645 H617 0.930 . S
C645 C644 1.390 . S
C645 C646 1.392 . S
C646 H618 0.929 . S
C646 C643 1.391 . S
C646 C645 1.392 . S
N647 Co591 2.257 . S
N647 C644 1.391 . S
N647 C648 1.388 . S
C648 H619 0.930 . S
C648 C643 1.391 . S
C648 N647 1.388 . S
Co649 O651 2.143 . S
Co649 O657 2.074 . S
Co649 O660 2.093 . S
Co649 O673 2.097 . S
Co649 N690 2.151 . S
Co649 N698 2.214 . S
Co650 O651 2.160 . S
Co650 O656 2.058 . S
Co650 O666 2.057 . S
Co650 O681 2.037 . S
Co650 N685 2.145 . S
Co650 N706 2.257 . S
O651 Co649 2.143 . S
O651 Co650 2.160 . S
C652 O653 1.278 . S
C652 O660 1.224 . S
O653 C652 1.278 . S
C654 O655 1.245 . S
C654 O666 1.232 . S
O655 C654 1.245 . S
O656 Co650 2.058 . S
O656 C682 1.269 . S
O657 Co649 2.074 . S
O657 C682 1.257 . S
H658 C683 0.930 . S
H659 C689 0.930 . S
O660 Co649 2.093 . S
O660 C652 1.224 . S
H661 C693 0.929 . S
H662 C695 0.930 . S
H663 C696 0.930 . S
H664 C694 0.929 . S
H665 C697 0.928 . S
O666 Co650 2.057 . S
O666 C654 1.232 . S
H667 C686 0.929 . S
H668 C687 0.929 . S
H669 C699 0.931 . S
H670 C691 0.929 . S
H671 C700 0.930 . S
H672 C692 0.931 . S
O673 Co649 2.097 . S
O673 C701 1.214 . S
H674 C702 0.929 . S
H675 C703 0.929 . S
H676 C704 0.930 . S
H677 C705 0.929 . S
H678 C707 0.930 . S
H679 C684 0.930 . S
H680 C688 0.930 . S
O681 Co650 2.037 . S
O681 C701 1.234 . S
C682 O656 1.269 . S
C682 O657 1.257 . S
C683 H658 0.930 . S
C683 C686 1.388 . S
C683 C688 1.418 . S
C684 H679 0.930 . S
C684 C687 1.404 . S
C684 C688 1.353 . S
N685 Co650 2.145 . S
N685 C686 1.397 . S
N685 C687 1.334 . S
C686 H667 0.929 . S
C686 C683 1.388 . S
C686 N685 1.397 . S
C687 H668 0.929 . S
C687 C684 1.404 . S
C687 N685 1.334 . S
C688 H680 0.930 . S
C688 C683 1.418 . S
C688 C684 1.353 . S
C689 H659 0.930 . S
C689 N690 1.330 . S
C689 C691 1.446 . S
N690 Co649 2.151 . S
N690 C689 1.330 . S
N690 C694 1.418 . S
C691 H670 0.929 . S
C691 C689 1.446 . S
C691 C692 1.332 . S
C692 H672 0.931 . S
C692 C691 1.332 . S
C692 C693 1.267 . S
C693 H661 0.929 . S
C693 C692 1.267 . S
C693 C694 1.251 . S
C694 H664 0.929 . S
C694 N690 1.418 . S
C694 C693 1.251 . S
C695 H662 0.930 . S
C695 C697 1.406 . S
C695 C700 1.261 . S
C696 H663 0.930 . S
C696 N698 1.325 . S
C696 C699 1.357 . S
C697 H665 0.928 . S
C697 C695 1.406 . S
C697 N698 1.261 . S
N698 Co649 2.214 . S
N698 C696 1.325 . S
N698 C697 1.261 . S
C699 H669 0.931 . S
C699 C696 1.357 . S
C699 C700 1.312 . S
C700 H671 0.930 . S
C700 C695 1.261 . S
C700 C699 1.312 . S
C701 O673 1.214 . S
C701 O681 1.234 . S
C702 H674 0.929 . S
C702 C705 1.391 . S
C702 C707 1.391 . S
C703 H675 0.929 . S
C703 C704 1.390 . S
C703 N706 1.391 . S
C704 H676 0.930 . S
C704 C703 1.390 . S
C704 C705 1.392 . S
C705 H677 0.929 . S
C705 C702 1.391 . S
C705 C704 1.392 . S
N706 Co650 2.257 . S
N706 C703 1.391 . S
N706 C707 1.388 . S
C707 H678 0.930 . S
C707 C702 1.391 . S
C707 N706 1.388 . S
Co708 O710 2.143 . S
Co708 O716 2.074 . S
Co708 O719 2.093 . S
Co708 O732 2.097 . S
Co708 N749 2.151 . S
Co708 N757 2.214 . S
Co709 O710 2.160 . S
Co709 O715 2.058 . S
Co709 O725 2.057 . S
Co709 O740 2.037 . S
Co709 N744 2.145 . S
Co709 N765 2.257 . S
O710 Co708 2.143 . S
O710 Co709 2.160 . S
C711 O712 1.278 . S
C711 O719 1.224 . S
O712 C711 1.278 . S
C713 O714 1.245 . S
C713 O725 1.232 . S
O714 C713 1.245 . S
O715 Co709 2.058 . S
O715 C741 1.269 . S
O716 Co708 2.074 . S
O716 C741 1.257 . S
H717 C742 0.930 . S
H718 C748 0.930 . S
O719 Co708 2.093 . S
O719 C711 1.224 . S
H720 C752 0.929 . S
H721 C754 0.930 . S
H722 C755 0.930 . S
H723 C753 0.929 . S
H724 C756 0.928 . S
O725 Co709 2.057 . S
O725 C713 1.232 . S
H726 C745 0.929 . S
H727 C746 0.929 . S
H728 C758 0.931 . S
H729 C750 0.929 . S
H730 C759 0.930 . S
H731 C751 0.931 . S
O732 Co708 2.097 . S
O732 C760 1.214 . S
H733 C761 0.929 . S
H734 C762 0.929 . S
H735 C763 0.930 . S
H736 C764 0.929 . S
H737 C766 0.930 . S
H738 C743 0.930 . S
H739 C747 0.930 . S
O740 Co709 2.037 . S
O740 C760 1.234 . S
C741 O715 1.269 . S
C741 O716 1.257 . S
C742 H717 0.930 . S
C742 C745 1.388 . S
C742 C747 1.418 . S
C743 H738 0.930 . S
C743 C746 1.404 . S
C743 C747 1.353 . S
N744 Co709 2.145 . S
N744 C745 1.397 . S
N744 C746 1.334 . S
C745 H726 0.929 . S
C745 C742 1.388 . S
C745 N744 1.397 . S
C746 H727 0.929 . S
C746 C743 1.404 . S
C746 N744 1.334 . S
C747 H739 0.930 . S
C747 C742 1.418 . S
C747 C743 1.353 . S
C748 H718 0.930 . S
C748 N749 1.330 . S
C748 C750 1.446 . S
N749 Co708 2.151 . S
N749 C748 1.330 . S
N749 C753 1.418 . S
C750 H729 0.929 . S
C750 C748 1.446 . S
C750 C751 1.332 . S
C751 H731 0.931 . S
C751 C750 1.332 . S
C751 C752 1.267 . S
C752 H720 0.929 . S
C752 C751 1.267 . S
C752 C753 1.251 . S
C753 H723 0.929 . S
C753 N749 1.418 . S
C753 C752 1.251 . S
C754 H721 0.930 . S
C754 C756 1.406 . S
C754 C759 1.261 . S
C755 H722 0.930 . S
C755 N757 1.325 . S
C755 C758 1.357 . S
C756 H724 0.928 . S
C756 C754 1.406 . S
C756 N757 1.261 . S
N757 Co708 2.214 . S
N757 C755 1.325 . S
N757 C756 1.261 . S
C758 H728 0.931 . S
C758 C755 1.357 . S
C758 C759 1.312 . S
C759 H730 0.930 . S
C759 C754 1.261 . S
C759 C758 1.312 . S
C760 O732 1.214 . S
C760 O740 1.234 . S
C761 H733 0.929 . S
C761 C764 1.391 . S
C761 C766 1.391 . S
C762 H734 0.929 . S
C762 C763 1.390 . S
C762 N765 1.391 . S
C763 H735 0.930 . S
C763 C762 1.390 . S
C763 C764 1.392 . S
C764 H736 0.929 . S
C764 C761 1.391 . S
C764 C763 1.392 . S
N765 Co709 2.257 . S
N765 C762 1.391 . S
N765 C766 1.388 . S
C766 H737 0.930 . S
C766 C761 1.391 . S
C766 N765 1.388 . S
Co767 O769 2.143 . S
Co767 O775 2.074 . S
Co767 O778 2.093 . S
Co767 O791 2.097 . S
Co767 N808 2.151 . S
Co767 N816 2.214 1_455 S
Co768 O769 2.160 . S
Co768 O774 2.058 . S
Co768 O784 2.057 . S
Co768 O799 2.037 . S
Co768 N803 2.145 . S
Co768 N824 2.257 . S
O769 Co767 2.143 . S
O769 Co768 2.160 . S
C770 O771 1.278 . S
C770 O778 1.224 . S
O771 C770 1.278 . S
C772 O773 1.245 . S
C772 O784 1.232 . S
O773 C772 1.245 . S
O774 Co768 2.058 . S
O774 C800 1.269 . S
O775 Co767 2.074 . S
O775 C800 1.257 . S
H776 C801 0.930 . S
H777 C807 0.930 . S
O778 Co767 2.093 . S
O778 C770 1.224 . S
H779 C811 0.929 1_655 S
H780 C813 0.930 . S
H781 C814 0.930 . S
H782 C812 0.949 . S
H783 C815 0.928 . S
O784 Co768 2.057 . S
O784 C772 1.232 . S
H785 C804 0.929 . S
H786 C805 0.929 . S
H787 C817 0.931 . S
H788 C809 0.929 . S
H789 C818 0.930 . S
H790 C810 0.931 . S
O791 Co767 2.097 . S
O791 C819 1.214 . S
H792 C820 0.929 . S
H793 C821 0.929 . S
H794 C822 0.930 . S
H795 C823 0.929 . S
H796 C825 0.930 . S
H797 C802 0.930 . S
H798 C806 0.930 . S
O799 Co768 2.037 . S
O799 C819 1.234 . S
C800 O774 1.269 . S
C800 O775 1.257 . S
C801 H776 0.930 . S
C801 C804 1.388 . S
C801 C806 1.418 . S
C802 H797 0.930 . S
C802 C805 1.404 . S
C802 C806 1.353 . S
N803 Co768 2.145 . S
N803 C804 1.397 . S
N803 C805 1.334 . S
C804 H785 0.929 . S
C804 C801 1.388 . S
C804 N803 1.397 . S
C805 H786 0.929 . S
C805 C802 1.404 . S
C805 N803 1.334 . S
C806 H798 0.930 . S
C806 C801 1.418 . S
C806 C802 1.353 . S
C807 H777 0.930 . S
C807 N808 1.330 . S
C807 C809 1.446 . S
N808 Co767 2.151 . S
N808 C807 1.330 . S
N808 C812 1.418 . S
C809 H788 0.929 . S
C809 C807 1.446 . S
C809 C810 1.332 . S
C810 H790 0.931 . S
C810 C809 1.332 . S
C810 C811 1.267 . S
C811 H779 0.929 1_455 S
C811 C810 1.267 . S
C811 C812 1.251 . S
C812 H782 0.949 . S
C812 N808 1.418 . S
C812 C811 1.251 . S
C813 H780 0.930 . S
C813 C815 1.406 . S
C813 C818 1.261 . S
C814 H781 0.930 . S
C814 N816 1.325 . S
C814 C817 1.357 . S
C815 H783 0.928 . S
C815 C813 1.406 . S
C815 N816 1.261 . S
N816 Co767 2.214 1_655 S
N816 C814 1.325 . S
N816 C815 1.261 . S
C817 H787 0.931 . S
C817 C814 1.357 . S
C817 C818 1.312 . S
C818 H789 0.930 . S
C818 C813 1.261 . S
C818 C817 1.312 . S
C819 O791 1.214 . S
C819 O799 1.234 . S
C820 H792 0.929 . S
C820 C823 1.391 . S
C820 C825 1.391 . S
C821 H793 0.929 . S
C821 C822 1.390 . S
C821 N824 1.391 . S
C822 H794 0.930 . S
C822 C821 1.390 . S
C822 C823 1.392 . S
C823 H795 0.929 . S
C823 C820 1.391 . S
C823 C822 1.392 . S
N824 Co768 2.257 . S
N824 C821 1.391 . S
N824 C825 1.388 . S
C825 H796 0.930 . S
C825 C820 1.391 . S
C825 N824 1.388 . S
Co826 O828 2.143 . S
Co826 O834 2.074 . S
Co826 O837 2.093 . S
Co826 O850 2.097 . S
Co826 N867 2.151 . S
Co826 N875 2.214 1_655 S
Co827 O828 2.160 . S
Co827 O833 2.058 . S
Co827 O843 2.057 . S
Co827 O858 2.037 . S
Co827 N862 2.145 . S
Co827 N883 2.257 . S
O828 Co826 2.143 . S
O828 Co827 2.160 . S
C829 O830 1.278 . S
C829 O837 1.224 . S
O830 C829 1.278 . S
C831 O832 1.245 . S
C831 O843 1.232 . S
O832 C831 1.245 . S
O833 Co827 2.058 . S
O833 C859 1.269 . S
O834 Co826 2.074 . S
O834 C859 1.257 . S
H835 C860 0.930 . S
H836 C866 0.930 . S
O837 Co826 2.093 . S
O837 C829 1.224 . S
H838 C870 0.929 1_455 S
H839 C872 0.930 . S
H840 C873 0.930 . S
H841 C871 0.949 . S
H842 C874 0.928 . S
O843 Co827 2.057 . S
O843 C831 1.232 . S
H844 C863 0.929 . S
H845 C864 0.929 . S
H846 C876 0.931 . S
H847 C868 0.929 . S
H848 C877 0.930 . S
H849 C869 0.931 . S
O850 Co826 2.097 . S
O850 C878 1.214 . S
H851 C879 0.929 . S
H852 C880 0.929 . S
H853 C881 0.930 . S
H854 C882 0.929 . S
H855 C884 0.930 . S
H856 C861 0.930 . S
H857 C865 0.930 . S
O858 Co827 2.037 . S
O858 C878 1.234 . S
C859 O833 1.269 . S
C859 O834 1.257 . S
C860 H835 0.930 . S
C860 C863 1.388 . S
C860 C865 1.418 . S
C861 H856 0.930 . S
C861 C864 1.404 . S
C861 C865 1.353 . S
N862 Co827 2.145 . S
N862 C863 1.397 . S
N862 C864 1.334 . S
C863 H844 0.929 . S
C863 C860 1.388 . S
C863 N862 1.397 . S
C864 H845 0.929 . S
C864 C861 1.404 . S
C864 N862 1.334 . S
C865 H857 0.930 . S
C865 C860 1.418 . S
C865 C861 1.353 . S
C866 H836 0.930 . S
C866 N867 1.330 . S
C866 C868 1.446 . S
N867 Co826 2.151 . S
N867 C866 1.330 . S
N867 C871 1.418 . S
C868 H847 0.929 . S
C868 C866 1.446 . S
C868 C869 1.332 . S
C869 H849 0.931 . S
C869 C868 1.332 . S
C869 C870 1.267 . S
C870 H838 0.929 1_655 S
C870 C869 1.267 . S
C870 C871 1.251 . S
C871 H841 0.949 . S
C871 N867 1.418 . S
C871 C870 1.251 . S
C872 H839 0.930 . S
C872 C874 1.406 . S
C872 C877 1.261 . S
C873 H840 0.930 . S
C873 N875 1.325 . S
C873 C876 1.357 . S
C874 H842 0.928 . S
C874 C872 1.406 . S
C874 N875 1.261 . S
N875 Co826 2.214 1_455 S
N875 C873 1.325 . S
N875 C874 1.261 . S
C876 H846 0.931 . S
C876 C873 1.357 . S
C876 C877 1.312 . S
C877 H848 0.930 . S
C877 C872 1.261 . S
C877 C876 1.312 . S
C878 O850 1.214 . S
C878 O858 1.234 . S
C879 H851 0.929 . S
C879 C882 1.391 . S
C879 C884 1.391 . S
C880 H852 0.929 . S
C880 C881 1.390 . S
C880 N883 1.391 . S
C881 H853 0.930 . S
C881 C880 1.390 . S
C881 C882 1.392 . S
C882 H854 0.929 . S
C882 C879 1.391 . S
C882 C881 1.392 . S
N883 Co827 2.257 . S
N883 C880 1.391 . S
N883 C884 1.388 . S
C884 H855 0.930 . S
C884 C879 1.391 . S
C884 N883 1.388 . S
Co885 O887 2.143 . S
Co885 O893 2.074 . S
Co885 O896 2.093 . S
Co885 O909 2.097 . S
Co885 N926 2.151 . S
Co885 N934 2.214 . S
Co886 O887 2.160 . S
Co886 O892 2.058 . S
Co886 O902 2.057 . S
Co886 O917 2.037 . S
Co886 N921 2.145 . S
Co886 N942 2.257 . S
O887 Co885 2.143 . S
O887 Co886 2.160 . S
C888 O889 1.278 . S
C888 O896 1.224 . S
O889 C888 1.278 . S
C890 O891 1.245 . S
C890 O902 1.232 . S
O891 C890 1.245 . S
O892 Co886 2.058 . S
O892 C918 1.269 . S
O893 Co885 2.074 . S
O893 C918 1.257 . S
H894 C919 0.930 . S
H895 C925 0.930 . S
O896 Co885 2.093 . S
O896 C888 1.224 . S
H897 C929 0.929 . S
H898 C931 0.930 . S
H899 C932 0.930 . S
H900 C930 0.929 . S
H901 C933 0.928 . S
O902 Co886 2.057 . S
O902 C890 1.232 . S
H903 C922 0.929 . S
H904 C923 0.929 . S
H905 C935 0.931 . S
H906 C927 0.929 . S
H907 C936 0.930 . S
H908 C928 0.931 . S
O909 Co885 2.097 . S
O909 C937 1.214 . S
H910 C938 0.929 . S
H911 C939 0.929 . S
H912 C940 0.930 . S
H913 C941 0.929 . S
H914 C943 0.930 . S
H915 C920 0.930 . S
H916 C924 0.930 . S
O917 Co886 2.037 . S
O917 C937 1.234 . S
C918 O892 1.269 . S
C918 O893 1.257 . S
C919 H894 0.930 . S
C919 C922 1.388 . S
C919 C924 1.418 . S
C920 H915 0.930 . S
C920 C923 1.404 . S
C920 C924 1.353 . S
N921 Co886 2.145 . S
N921 C922 1.397 . S
N921 C923 1.334 . S
C922 H903 0.929 . S
C922 C919 1.388 . S
C922 N921 1.397 . S
C923 H904 0.929 . S
C923 C920 1.404 . S
C923 N921 1.334 . S
C924 H916 0.930 . S
C924 C919 1.418 . S
C924 C920 1.353 . S
C925 H895 0.930 . S
C925 N926 1.330 . S
C925 C927 1.446 . S
N926 Co885 2.151 . S
N926 C925 1.330 . S
N926 C930 1.418 . S
C927 H906 0.929 . S
C927 C925 1.446 . S
C927 C928 1.332 . S
C928 H908 0.931 . S
C928 C927 1.332 . S
C928 C929 1.267 . S
C929 H897 0.929 . S
C929 C928 1.267 . S
C929 C930 1.251 . S
C930 H900 0.929 . S
C930 N926 1.418 . S
C930 C929 1.251 . S
C931 H898 0.930 . S
C931 C933 1.406 . S
C931 C936 1.261 . S
C932 H899 0.930 . S
C932 N934 1.325 . S
C932 C935 1.357 . S
C933 H901 0.928 . S
C933 C931 1.406 . S
C933 N934 1.261 . S
N934 Co885 2.214 . S
N934 C932 1.325 . S
N934 C933 1.261 . S
C935 H905 0.931 . S
C935 C932 1.357 . S
C935 C936 1.312 . S
C936 H907 0.930 . S
C936 C931 1.261 . S
C936 C935 1.312 . S
C937 O909 1.214 . S
C937 O917 1.234 . S
C938 H910 0.929 . S
C938 C941 1.391 . S
C938 C943 1.391 . S
C939 H911 0.929 . S
C939 C940 1.390 . S
C939 N942 1.391 . S
C940 H912 0.930 . S
C940 C939 1.390 . S
C940 C941 1.392 . S
C941 H913 0.929 . S
C941 C938 1.391 . S
C941 C940 1.392 . S
N942 Co886 2.257 . S
N942 C939 1.391 . S
N942 C943 1.388 . S
C943 H914 0.930 . S
C943 C938 1.391 . S
C943 N942 1.388 . S
H944 C962 0.951 1_545 S
H945 C964 0.951 . S
H946 C966 0.950 . S
H947 C967 0.950 . S
H948 C969 0.950 . S
H949 C972 0.950 . S
H950 C973 0.950 . S
H951 C975 0.950 . S
H952 C976 0.950 . S
H953 C977 0.951 1_565 S
H954 C979 0.951 . S
H955 C981 0.950 . S
H956 C982 0.950 . S
H957 C984 0.950 . S
H958 C987 0.950 . S
H959 C988 0.950 . S
H960 C990 0.950 . S
H961 C991 0.950 . S
C962 H944 0.951 1_565 S
C962 C963 1.366 . S
C962 C964 1.388 1_565 S
C963 C962 1.366 . S
C963 C967 1.385 . S
C964 H945 0.951 . S
C964 C962 1.388 1_545 S
C964 C965 1.366 1_545 S
C965 C964 1.366 1_565 S
C965 C966 1.414 . S
C965 C968 1.499 . S
C966 H946 0.950 . S
C966 C965 1.414 . S
C966 C967 1.374 . S
C967 H947 0.950 . S
C967 C963 1.385 . S
C967 C966 1.374 . S
C968 C965 1.499 . S
C968 C969 1.373 . S
C968 C970 1.389 1_565 S
C969 H948 0.950 . S
C969 C968 1.373 . S
C969 C985 1.377 . S
C970 C968 1.389 1_545 S
C970 C971 1.524 . S
C970 C984 1.377 . S
C971 C970 1.524 . S
C971 C972 1.397 . S
C971 C976 1.363 . S
C972 H949 0.950 . S
C972 C971 1.397 . S
C972 C973 1.334 . S
C973 H950 0.950 . S
C973 C972 1.334 . S
C973 C974 1.287 . S
C974 C973 1.287 . S
C974 C975 1.524 . S
C974 H993 0.913 . S
C975 H951 0.950 . S
C975 C974 1.524 . S
C975 C976 1.415 . S
C976 H952 0.950 . S
C976 C971 1.363 . S
C976 C975 1.415 . S
C977 H953 0.951 1_545 S
C977 C978 1.366 . S
C977 C979 1.388 1_545 S
C978 C977 1.366 . S
C978 C982 1.385 . S
C979 H954 0.951 . S
C979 C977 1.388 1_565 S
C979 C980 1.366 1_565 S
C980 C979 1.366 1_545 S
C980 C981 1.414 . S
C980 C983 1.499 . S
C981 H955 0.950 . S
C981 C980 1.414 . S
C981 C982 1.374 . S
C982 H956 0.950 . S
C982 C978 1.385 . S
C982 C981 1.374 . S
C983 C980 1.499 . S
C983 C984 1.373 . S
C983 C985 1.389 1_545 S
C984 H957 0.950 . S
C984 C970 1.377 . S
C984 C983 1.373 . S
C985 C969 1.377 . S
C985 C983 1.389 1_565 S
C985 C986 1.524 . S
C986 C985 1.524 . S
C986 C987 1.397 . S
C986 C991 1.363 . S
C987 H958 0.950 . S
C987 C986 1.397 . S
C987 C988 1.334 . S
C988 H959 0.950 . S
C988 C987 1.334 . S
C988 C989 1.287 . S
C989 C988 1.287 . S
C989 C990 1.524 . S
C989 H992 0.999 . S
C990 H960 0.950 . S
C990 C989 1.524 . S
C990 C991 1.415 . S
C991 H961 0.950 . S
C991 C986 1.363 . S
C991 C990 1.415 . S
H992 C989 0.999 . S
H993 C974 0.913 . S
H994 C1012 0.951 1_545 S
H995 C1014 0.951 . S
H996 C1016 0.950 . S
H997 C1017 0.950 . S
H998 C1019 0.950 . S
H999 C1022 0.950 . S
H1000 C1023 0.950 . S
H1001 C1025 0.950 . S
H1002 C1026 0.950 . S
H1003 C1027 0.951 1_565 S
H1004 C1029 0.951 . S
H1005 C1031 0.950 . S
H1006 C1032 0.950 . S
H1007 C1034 0.950 . S
H1008 C1037 0.950 . S
H1009 C1038 0.950 . S
H1010 C1040 0.950 . S
H1011 C1041 0.950 . S
C1012 H994 0.951 1_565 S
C1012 C1013 1.366 . S
C1012 C1014 1.388 1_565 S
C1013 C1012 1.366 . S
C1013 C1017 1.385 . S
C1014 H995 0.951 . S
C1014 C1012 1.388 1_545 S
C1014 C1015 1.366 1_545 S
C1015 C1014 1.366 1_565 S
C1015 C1016 1.414 . S
C1015 C1018 1.499 . S
C1016 H996 0.950 . S
C1016 C1015 1.414 . S
C1016 C1017 1.374 . S
C1017 H997 0.950 . S
C1017 C1013 1.385 . S
C1017 C1016 1.374 . S
C1018 C1015 1.499 . S
C1018 C1019 1.373 . S
C1018 C1020 1.389 1_565 S
C1019 H998 0.950 . S
C1019 C1018 1.373 . S
C1019 C1035 1.377 . S
C1020 C1018 1.389 1_545 S
C1020 C1021 1.524 . S
C1020 C1034 1.377 . S
C1021 C1020 1.524 . S
C1021 C1022 1.397 1_545 S
C1021 C1026 1.363 . S
C1022 H999 0.950 . S
C1022 C1021 1.397 1_565 S
C1022 C1023 1.334 . S
C1023 H1000 0.950 . S
C1023 C1022 1.334 . S
C1023 C1024 1.287 1_565 S
C1024 C1023 1.287 1_545 S
C1024 C1025 1.524 . S
C1024 H1043 0.913 . S
C1025 H1001 0.950 . S
C1025 C1024 1.524 . S
C1025 C1026 1.415 . S
C1026 H1002 0.950 . S
C1026 C1021 1.363 . S
C1026 C1025 1.415 . S
C1027 H1003 0.951 1_545 S
C1027 C1028 1.366 . S
C1027 C1029 1.388 1_545 S
C1028 C1027 1.366 . S
C1028 C1032 1.385 . S
C1029 H1004 0.951 . S
C1029 C1027 1.388 1_565 S
C1029 C1030 1.366 1_565 S
C1030 C1029 1.366 1_545 S
C1030 C1031 1.414 . S
C1030 C1033 1.499 . S
C1031 H1005 0.950 . S
C1031 C1030 1.414 . S
C1031 C1032 1.374 . S
C1032 H1006 0.950 . S
C1032 C1028 1.385 . S
C1032 C1031 1.374 . S
C1033 C1030 1.499 . S
C1033 C1034 1.373 . S
C1033 C1035 1.389 1_545 S
C1034 H1007 0.950 . S
C1034 C1020 1.377 . S
C1034 C1033 1.373 . S
C1035 C1019 1.377 . S
C1035 C1033 1.389 1_565 S
C1035 C1036 1.524 . S
C1036 C1035 1.524 . S
C1036 C1037 1.397 1_565 S
C1036 C1041 1.363 . S
C1037 H1008 0.950 . S
C1037 C1036 1.397 1_545 S
C1037 C1038 1.334 . S
C1038 H1009 0.950 . S
C1038 C1037 1.334 . S
C1038 C1039 1.287 1_545 S
C1039 C1038 1.287 1_565 S
C1039 C1040 1.524 . S
C1039 H1042 0.999 . S
C1040 H1010 0.950 . S
C1040 C1039 1.524 . S
C1040 C1041 1.415 . S
C1041 H1011 0.950 . S
C1041 C1036 1.363 . S
C1041 C1040 1.415 . S
H1042 C1039 0.999 . S
H1043 C1024 0.913 . S
H1044 C1062 0.951 1_545 S
H1045 C1064 0.951 . S
H1046 C1066 0.950 . S
H1047 C1067 0.950 . S
H1048 C1069 0.950 . S
H1049 C1072 0.950 1_565 S
H1050 C1073 0.950 . S
H1051 C1075 0.950 . S
H1052 C1076 0.950 . S
H1053 C1077 0.951 1_565 S
H1054 C1079 0.951 . S
H1055 C1081 0.950 . S
H1056 C1082 0.950 . S
H1057 C1084 0.950 . S
H1058 C1087 0.950 1_545 S
H1059 C1088 0.950 . S
H1060 C1090 0.950 . S
H1061 C1091 0.950 . S
C1062 H1044 0.951 1_565 S
C1062 C1063 1.366 . S
C1062 C1064 1.388 1_565 S
C1063 C1062 1.366 . S
C1063 C1067 1.385 . S
C1064 H1045 0.951 . S
C1064 C1062 1.388 1_545 S
C1064 C1065 1.366 1_545 S
C1065 C1064 1.366 1_565 S
C1065 C1066 1.414 . S
C1065 C1068 1.499 . S
C1066 H1046 0.950 . S
C1066 C1065 1.414 . S
C1066 C1067 1.374 . S
C1067 H1047 0.950 . S
C1067 C1063 1.385 . S
C1067 C1066 1.374 . S
C1068 C1065 1.499 . S
C1068 C1069 1.373 . S
C1068 C1070 1.389 1_565 S
C1069 H1048 0.950 . S
C1069 C1068 1.373 . S
C1069 C1085 1.377 . S
C1070 C1068 1.389 1_545 S
C1070 C1071 1.524 . S
C1070 C1084 1.377 . S
C1071 C1070 1.524 . S
C1071 C1072 1.397 . S
C1071 C1076 1.363 . S
C1072 H1049 0.950 1_545 S
C1072 C1071 1.397 . S
C1072 C1073 1.334 . S
C1073 H1050 0.950 . S
C1073 C1072 1.334 . S
C1073 C1074 1.287 . S
C1074 C1073 1.287 . S
C1074 C1075 1.524 . S
C1074 H1093 0.913 . S
C1075 H1051 0.950 . S
C1075 C1074 1.524 . S
C1075 C1076 1.415 . S
C1076 H1052 0.950 . S
C1076 C1071 1.363 . S
C1076 C1075 1.415 . S
C1077 H1053 0.951 1_545 S
C1077 C1078 1.366 . S
C1077 C1079 1.388 1_545 S
C1078 C1077 1.366 . S
C1078 C1082 1.385 . S
C1079 H1054 0.951 . S
C1079 C1077 1.388 1_565 S
C1079 C1080 1.366 1_565 S
C1080 C1079 1.366 1_545 S
C1080 C1081 1.414 . S
C1080 C1083 1.499 . S
C1081 H1055 0.950 . S
C1081 C1080 1.414 . S
C1081 C1082 1.374 . S
C1082 H1056 0.950 . S
C1082 C1078 1.385 . S
C1082 C1081 1.374 . S
C1083 C1080 1.499 . S
C1083 C1084 1.373 . S
C1083 C1085 1.389 1_545 S
C1084 H1057 0.950 . S
C1084 C1070 1.377 . S
C1084 C1083 1.373 . S
C1085 C1069 1.377 . S
C1085 C1083 1.389 1_565 S
C1085 C1086 1.524 . S
C1086 C1085 1.524 . S
C1086 C1087 1.397 . S
C1086 C1091 1.363 . S
C1087 H1058 0.950 1_565 S
C1087 C1086 1.397 . S
C1087 C1088 1.334 . S
C1088 H1059 0.950 . S
C1088 C1087 1.334 . S
C1088 C1089 1.287 . S
C1089 C1088 1.287 . S
C1089 C1090 1.524 . S
C1089 H1092 0.999 . S
C1090 H1060 0.950 . S
C1090 C1089 1.524 . S
C1090 C1091 1.415 . S
C1091 H1061 0.950 . S
C1091 C1086 1.363 . S
C1091 C1090 1.415 . S
H1092 C1089 0.999 . S
H1093 C1074 0.913 . S
H1094 C1112 0.951 . S
H1095 C1114 0.951 . S
H1096 C1116 0.984 . S
H1097 C1117 0.950 1_545 S
H1098 C1119 0.950 . S
H1099 C1122 0.950 . S
H1100 C1123 0.950 . S
H1101 C1125 0.950 . S
H1102 C1126 0.950 . S
H1103 C1127 0.951 . S
H1104 C1129 0.951 . S
H1105 C1131 0.985 . S
H1106 C1132 0.950 1_565 S
H1107 C1134 0.950 . S
H1108 C1137 0.950 . S
H1109 C1138 0.950 . S
H1110 C1140 0.950 . S
H1111 C1141 0.950 . S
C1112 H1094 0.951 . S
C1112 C1113 1.366 . S
C1112 C1114 1.388 . S
C1113 C1112 1.366 . S
C1113 C1117 1.385 . S
C1114 H1095 0.951 . S
C1114 C1112 1.388 . S
C1114 C1115 1.366 . S
C1115 C1114 1.366 . S
C1115 C1116 1.391 1_565 S
C1115 C1118 1.499 . S
C1116 H1096 0.984 . S
C1116 C1115 1.391 1_545 S
C1116 C1117 1.364 1_545 S
C1117 H1097 0.950 1_565 S
C1117 C1113 1.385 . S
C1117 C1116 1.364 1_565 S
C1118 C1115 1.499 . S
C1118 C1119 1.373 1_565 S
C1118 C1120 1.389 . S
C1119 H1098 0.950 . S
C1119 C1118 1.373 1_545 S
C1119 C1135 1.377 . S
C1120 C1118 1.389 . S
C1120 C1121 1.524 . S
C1120 C1134 1.377 . S
C1121 C1120 1.524 . S
C1121 C1122 1.397 . S
C1121 C1126 1.363 . S
C1122 H1099 0.950 . S
C1122 C1121 1.397 . S
C1122 C1123 1.334 . S
C1123 H1100 0.950 . S
C1123 C1122 1.334 . S
C1123 C1124 1.287 . S
C1124 C1123 1.287 . S
C1124 C1125 1.524 . S
C1124 H1143 0.913 . S
C1125 H1101 0.950 . S
C1125 C1124 1.524 . S
C1125 C1126 1.415 . S
C1126 H1102 0.950 . S
C1126 C1121 1.363 . S
C1126 C1125 1.415 . S
C1127 H1103 0.951 . S
C1127 C1128 1.366 . S
C1127 C1129 1.388 . S
C1128 C1127 1.366 . S
C1128 C1132 1.385 . S
C1129 H1104 0.951 . S
C1129 C1127 1.388 . S
C1129 C1130 1.366 . S
C1130 C1129 1.366 . S
C1130 C1131 1.391 1_545 S
C1130 C1133 1.499 . S
C1131 H1105 0.985 . S
C1131 C1130 1.391 1_565 S
C1131 C1132 1.364 1_565 S
C1132 H1106 0.950 1_545 S
C1132 C1128 1.385 . S
C1132 C1131 1.364 1_545 S
C1133 C1130 1.499 . S
C1133 C1134 1.373 1_545 S
C1133 C1135 1.389 . S
C1134 H1107 0.950 . S
C1134 C1120 1.377 . S
C1134 C1133 1.373 1_565 S
C1135 C1119 1.377 . S
C1135 C1133 1.389 . S
C1135 C1136 1.524 . S
C1136 C1135 1.524 . S
C1136 C1137 1.397 . S
C1136 C1141 1.363 . S
C1137 H1108 0.950 . S
C1137 C1136 1.397 . S
C1137 C1138 1.334 . S
C1138 H1109 0.950 . S
C1138 C1137 1.334 . S
C1138 C1139 1.287 . S
C1139 C1138 1.287 . S
C1139 C1140 1.524 . S
C1139 H1142 0.999 . S
C1140 H1110 0.950 . S
C1140 C1139 1.524 . S
C1140 C1141 1.415 . S
C1141 H1111 0.950 . S
C1141 C1136 1.363 . S
C1141 C1140 1.415 . S
H1142 C1139 0.999 . S
H1143 C1124 0.913 . S
H1144 C1162 0.951 . S
H1145 C1164 0.951 . S
H1146 C1166 0.950 . S
H1147 C1167 0.950 . S
H1148 C1169 0.950 . S
H1149 C1172 0.950 . S
H1150 C1173 0.950 . S
H1151 C1175 0.950 . S
H1152 C1176 0.950 . S
H1153 C1177 0.951 . S
H1154 C1179 0.951 . S
H1155 C1181 0.950 . S
H1156 C1182 0.950 . S
H1157 C1184 0.950 . S
H1158 C1187 0.950 . S
H1159 C1188 0.950 . S
H1160 C1190 0.950 . S
H1161 C1191 0.950 . S
C1162 H1144 0.951 . S
C1162 C1163 1.366 . S
C1162 C1164 1.388 . S
C1163 C1162 1.366 . S
C1163 C1167 1.385 . S
C1164 H1145 0.951 . S
C1164 C1162 1.388 . S
C1164 C1165 1.366 . S
C1165 C1164 1.366 . S
C1165 C1166 1.414 . S
C1165 C1168 1.499 . S
C1166 H1146 0.950 . S
C1166 C1165 1.414 . S
C1166 C1167 1.374 . S
C1167 H1147 0.950 . S
C1167 C1163 1.385 . S
C1167 C1166 1.374 . S
C1168 C1165 1.499 . S
C1168 C1169 1.373 . S
C1168 C1170 1.389 . S
C1169 H1148 0.950 . S
C1169 C1168 1.373 . S
C1169 C1185 1.377 . S
C1170 C1168 1.389 . S
C1170 C1171 1.524 . S
C1170 C1184 1.377 . S
C1171 C1170 1.524 . S
C1171 C1172 1.397 . S
C1171 C1176 1.363 . S
C1172 H1149 0.950 . S
C1172 C1171 1.397 . S
C1172 C1173 1.334 . S
C1173 H1150 0.950 . S
C1173 C1172 1.334 . S
C1173 C1174 1.287 . S
C1174 C1173 1.287 . S
C1174 C1175 1.524 . S
C1174 H1193 0.913 . S
C1175 H1151 0.950 . S
C1175 C1174 1.524 . S
C1175 C1176 1.415 . S
C1176 H1152 0.950 . S
C1176 C1171 1.363 . S
C1176 C1175 1.415 . S
C1177 H1153 0.951 . S
C1177 C1178 1.366 . S
C1177 C1179 1.388 . S
C1178 C1177 1.366 . S
C1178 C1182 1.385 . S
C1179 H1154 0.951 . S
C1179 C1177 1.388 . S
C1179 C1180 1.366 . S
C1180 C1179 1.366 . S
C1180 C1181 1.414 . S
C1180 C1183 1.499 . S
C1181 H1155 0.950 . S
C1181 C1180 1.414 . S
C1181 C1182 1.374 . S
C1182 H1156 0.950 . S
C1182 C1178 1.385 . S
C1182 C1181 1.374 . S
C1183 C1180 1.499 . S
C1183 C1184 1.373 . S
C1183 C1185 1.389 . S
C1184 H1157 0.950 . S
C1184 C1170 1.377 . S
C1184 C1183 1.373 . S
C1185 C1169 1.377 . S
C1185 C1183 1.389 . S
C1185 C1186 1.524 . S
C1186 C1185 1.524 . S
C1186 C1187 1.397 . S
C1186 C1191 1.363 . S
C1187 H1158 0.950 . S
C1187 C1186 1.397 . S
C1187 C1188 1.334 . S
C1188 H1159 0.950 . S
C1188 C1187 1.334 . S
C1188 C1189 1.287 . S
C1189 C1188 1.287 . S
C1189 C1190 1.524 . S
C1189 H1192 0.999 . S
C1190 H1160 0.950 . S
C1190 C1189 1.524 . S
C1190 C1191 1.415 . S
C1191 H1161 0.950 . S
C1191 C1186 1.363 . S
C1191 C1190 1.415 . S
H1192 C1189 0.999 . S
H1193 C1174 0.913 . S
H1194 C1212 0.951 . S
H1195 C1214 0.951 . S
H1196 C1216 0.950 . S
H1197 C1217 0.950 . S
H1198 C1219 0.950 . S
H1199 C1222 0.950 . S
H1200 C1223 0.950 . S
H1201 C1225 0.950 . S
H1202 C1226 0.950 . S
H1203 C1227 0.951 . S
H1204 C1229 0.951 . S
H1205 C1231 0.950 . S
H1206 C1232 0.950 . S
H1207 C1234 0.950 . S
H1208 C1237 0.950 . S
H1209 C1238 0.950 . S
H1210 C1240 0.950 . S
H1211 C1241 0.950 . S
C1212 H1194 0.951 . S
C1212 C1213 1.366 . S
C1212 C1214 1.388 . S
C1213 C1212 1.366 . S
C1213 C1217 1.385 . S
C1214 H1195 0.951 . S
C1214 C1212 1.388 . S
C1214 C1215 1.366 . S
C1215 C1214 1.366 . S
C1215 C1216 1.414 . S
C1215 C1218 1.499 . S
C1216 H1196 0.950 . S
C1216 C1215 1.414 . S
C1216 C1217 1.374 . S
C1217 H1197 0.950 . S
C1217 C1213 1.385 . S
C1217 C1216 1.374 . S
C1218 C1215 1.499 . S
C1218 C1219 1.373 . S
C1218 C1220 1.389 . S
C1219 H1198 0.950 . S
C1219 C1218 1.373 . S
C1219 C1235 1.377 . S
C1220 C1218 1.389 . S
C1220 C1221 1.524 . S
C1220 C1234 1.377 . S
C1221 C1220 1.524 . S
C1221 C1222 1.397 . S
C1221 C1226 1.363 . S
C1222 H1199 0.950 . S
C1222 C1221 1.397 . S
C1222 C1223 1.334 . S
C1223 H1200 0.950 . S
C1223 C1222 1.334 . S
C1223 C1224 1.287 . S
C1224 C1223 1.287 . S
C1224 C1225 1.524 . S
C1224 H1243 0.913 . S
C1225 H1201 0.950 . S
C1225 C1224 1.524 . S
C1225 C1226 1.415 . S
C1226 H1202 0.950 . S
C1226 C1221 1.363 . S
C1226 C1225 1.415 . S
C1227 H1203 0.951 . S
C1227 C1228 1.366 . S
C1227 C1229 1.388 . S
C1228 C1227 1.366 . S
C1228 C1232 1.385 . S
C1229 H1204 0.951 . S
C1229 C1227 1.388 . S
C1229 C1230 1.366 . S
C1230 C1229 1.366 . S
C1230 C1231 1.414 . S
C1230 C1233 1.499 . S
C1231 H1205 0.950 . S
C1231 C1230 1.414 . S
C1231 C1232 1.374 . S
C1232 H1206 0.950 . S
C1232 C1228 1.385 . S
C1232 C1231 1.374 . S
C1233 C1230 1.499 . S
C1233 C1234 1.373 . S
C1233 C1235 1.389 . S
C1234 H1207 0.950 . S
C1234 C1220 1.377 . S
C1234 C1233 1.373 . S
C1235 C1219 1.377 . S
C1235 C1233 1.389 . S
C1235 C1236 1.524 . S
C1236 C1235 1.524 . S
C1236 C1237 1.397 . S
C1236 C1241 1.363 . S
C1237 H1208 0.950 . S
C1237 C1236 1.397 . S
C1237 C1238 1.334 . S
C1238 H1209 0.950 . S
C1238 C1237 1.334 . S
C1238 C1239 1.287 . S
C1239 C1238 1.287 . S
C1239 C1240 1.524 . S
C1239 H1242 0.999 . S
C1240 H1210 0.950 . S
C1240 C1239 1.524 . S
C1240 C1241 1.415 . S
C1241 H1211 0.950 . S
C1241 C1236 1.363 . S
C1241 C1240 1.415 . S
H1242 C1239 0.999 . S
H1243 C1224 0.913 . S
H1244 C1262 0.951 . S
H1245 C1264 0.951 . S
H1246 C1266 0.950 . S
H1247 C1267 0.950 . S
H1248 C1269 0.950 . S
H1249 C1272 0.950 . S
H1250 C1273 0.950 . S
H1251 C1275 0.950 . S
H1252 C1276 0.950 . S
H1253 C1277 0.951 . S
H1254 C1279 0.951 . S
H1255 C1281 0.950 . S
H1256 C1282 0.950 . S
H1257 C1284 0.950 . S
H1258 C1287 0.950 . S
H1259 C1288 0.950 . S
H1260 C1290 0.950 . S
H1261 C1291 0.950 . S
C1262 H1244 0.951 . S
C1262 C1263 1.366 . S
C1262 C1264 1.388 . S
C1263 C1262 1.366 . S
C1263 C1267 1.385 . S
C1264 H1245 0.951 . S
C1264 C1262 1.388 . S
C1264 C1265 1.366 . S
C1265 C1264 1.366 . S
C1265 C1266 1.414 . S
C1265 C1268 1.499 . S
C1266 H1246 0.950 . S
C1266 C1265 1.414 . S
C1266 C1267 1.374 . S
C1267 H1247 0.950 . S
C1267 C1263 1.385 . S
C1267 C1266 1.374 . S
C1268 C1265 1.499 . S
C1268 C1269 1.373 . S
C1268 C1270 1.389 . S
C1269 H1248 0.950 . S
C1269 C1268 1.373 . S
C1269 C1285 1.377 . S
C1270 C1268 1.389 . S
C1270 C1271 1.524 . S
C1270 C1284 1.377 . S
C1271 C1270 1.524 . S
C1271 C1272 1.397 . S
C1271 C1276 1.363 . S
C1272 H1249 0.950 . S
C1272 C1271 1.397 . S
C1272 C1273 1.334 . S
C1273 H1250 0.950 . S
C1273 C1272 1.334 . S
C1273 C1274 1.287 . S
C1274 C1273 1.287 . S
C1274 C1275 1.524 . S
C1274 H1293 0.913 . S
C1275 H1251 0.950 . S
C1275 C1274 1.524 . S
C1275 C1276 1.415 . S
C1276 H1252 0.950 . S
C1276 C1271 1.363 . S
C1276 C1275 1.415 . S
C1277 H1253 0.951 . S
C1277 C1278 1.366 . S
C1277 C1279 1.388 . S
C1278 C1277 1.366 . S
C1278 C1282 1.385 . S
C1279 H1254 0.951 . S
C1279 C1277 1.388 . S
C1279 C1280 1.366 . S
C1280 C1279 1.366 . S
C1280 C1281 1.414 . S
C1280 C1283 1.499 . S
C1281 H1255 0.950 . S
C1281 C1280 1.414 . S
C1281 C1282 1.374 . S
C1282 H1256 0.950 . S
C1282 C1278 1.385 . S
C1282 C1281 1.374 . S
C1283 C1280 1.499 . S
C1283 C1284 1.373 . S
C1283 C1285 1.389 . S
C1284 H1257 0.950 . S
C1284 C1270 1.377 . S
C1284 C1283 1.373 . S
C1285 C1269 1.377 . S
C1285 C1283 1.389 . S
C1285 C1286 1.524 . S
C1286 C1285 1.524 . S
C1286 C1287 1.397 . S
C1286 C1291 1.363 . S
C1287 H1258 0.950 . S
C1287 C1286 1.397 . S
C1287 C1288 1.334 . S
C1288 H1259 0.950 . S
C1288 C1287 1.334 . S
C1288 C1289 1.287 . S
C1289 C1288 1.287 . S
C1289 C1290 1.524 . S
C1289 H1292 0.999 . S
C1290 H1260 0.950 . S
C1290 C1289 1.524 . S
C1290 C1291 1.415 . S
C1291 H1261 0.950 . S
C1291 C1286 1.363 . S
C1291 C1290 1.415 . S
H1292 C1289 0.999 . S
H1293 C1274 0.913 . S
H1294 C1312 0.951 . S
H1295 C1314 0.951 . S
H1296 C1316 0.950 . S
H1297 C1317 0.950 . S
H1298 C1319 0.950 . S
H1299 C1322 0.950 . S
H1300 C1323 0.950 . S
H1301 C1325 0.950 . S
H1302 C1326 0.950 . S
H1303 C1327 0.951 . S
H1304 C1329 0.951 . S
H1305 C1331 0.950 . S
H1306 C1332 0.950 . S
H1307 C1334 0.950 . S
H1308 C1337 0.950 . S
H1309 C1338 0.950 . S
H1310 C1340 0.950 . S
H1311 C1341 0.950 . S
C1312 H1294 0.951 . S
C1312 C1313 1.366 . S
C1312 C1314 1.388 . S
C1313 C1312 1.366 . S
C1313 C1317 1.385 . S
C1314 H1295 0.951 . S
C1314 C1312 1.388 . S
C1314 C1315 1.366 . S
C1315 C1314 1.366 . S
C1315 C1316 1.414 . S
C1315 C1318 1.499 . S
C1316 H1296 0.950 . S
C1316 C1315 1.414 . S
C1316 C1317 1.374 . S
C1317 H1297 0.950 . S
C1317 C1313 1.385 . S
C1317 C1316 1.374 . S
C1318 C1315 1.499 . S
C1318 C1319 1.373 . S
C1318 C1320 1.389 . S
C1319 H1298 0.950 . S
C1319 C1318 1.373 . S
C1319 C1335 1.377 . S
C1320 C1318 1.389 . S
C1320 C1321 1.524 . S
C1320 C1334 1.377 . S
C1321 C1320 1.524 . S
C1321 C1322 1.397 . S
C1321 C1326 1.363 . S
C1322 H1299 0.950 . S
C1322 C1321 1.397 . S
C1322 C1323 1.334 . S
C1323 H1300 0.950 . S
C1323 C1322 1.334 . S
C1323 C1324 1.287 . S
C1324 C1323 1.287 . S
C1324 C1325 1.524 . S
C1324 H1343 0.913 . S
C1325 H1301 0.950 . S
C1325 C1324 1.524 . S
C1325 C1326 1.415 . S
C1326 H1302 0.950 . S
C1326 C1321 1.363 . S
C1326 C1325 1.415 . S
C1327 H1303 0.951 . S
C1327 C1328 1.366 . S
C1327 C1329 1.388 . S
C1328 C1327 1.366 . S
C1328 C1332 1.385 . S
C1329 H1304 0.951 . S
C1329 C1327 1.388 . S
C1329 C1330 1.366 . S
C1330 C1329 1.366 . S
C1330 C1331 1.414 . S
C1330 C1333 1.499 . S
C1331 H1305 0.950 . S
C1331 C1330 1.414 . S
C1331 C1332 1.374 . S
C1332 H1306 0.950 . S
C1332 C1328 1.385 . S
C1332 C1331 1.374 . S
C1333 C1330 1.499 . S
C1333 C1334 1.373 . S
C1333 C1335 1.389 . S
C1334 H1307 0.950 . S
C1334 C1320 1.377 . S
C1334 C1333 1.373 . S
C1335 C1319 1.377 . S
C1335 C1333 1.389 . S
C1335 C1336 1.524 . S
C1336 C1335 1.524 . S
C1336 C1337 1.397 . S
C1336 C1341 1.363 . S
C1337 H1308 0.950 . S
C1337 C1336 1.397 . S
C1337 C1338 1.334 . S
C1338 H1309 0.950 . S
C1338 C1337 1.334 . S
C1338 C1339 1.287 . S
C1339 C1338 1.287 . S
C1339 C1340 1.524 . S
C1339 H1342 0.999 . S
C1340 H1310 0.950 . S
C1340 C1339 1.524 . S
C1340 C1341 1.415 . S
C1341 H1311 0.950 . S
C1341 C1336 1.363 . S
C1341 C1340 1.415 . S
H1342 C1339 0.999 . S
H1343 C1324 0.913 . S
H1344 C1362 0.951 . S
H1345 C1364 0.951 . S
H1346 C1366 0.950 1_455 S
H1347 C1367 0.950 . S
H1348 C1369 0.950 . S
H1349 C1372 0.950 1_455 S
H1350 C1373 0.950 . S
H1351 C1375 0.950 . S
H1352 C1376 0.950 . S
H1353 C1377 0.951 . S
H1354 C1379 0.951 . S
H1355 C1381 0.950 1_655 S
H1356 C1382 0.950 . S
H1357 C1384 0.950 . S
H1358 C1387 0.950 1_655 S
H1359 C1388 0.950 . S
H1360 C1390 0.950 . S
H1361 C1391 0.950 . S
C1362 H1344 0.951 . S
C1362 C1363 1.366 . S
C1362 C1364 1.388 . S
C1363 C1362 1.366 . S
C1363 C1367 1.385 . S
C1364 H1345 0.951 . S
C1364 C1362 1.388 . S
C1364 C1365 1.366 . S
C1365 C1364 1.366 . S
C1365 C1366 1.414 . S
C1365 C1368 1.499 . S
C1366 H1346 0.950 1_655 S
C1366 C1365 1.414 . S
C1366 C1367 1.374 . S
C1367 H1347 0.950 . S
C1367 C1363 1.385 . S
C1367 C1366 1.374 . S
C1368 C1365 1.499 . S
C1368 C1369 1.373 1_655 S
C1368 C1370 1.389 . S
C1369 H1348 0.950 . S
C1369 C1368 1.373 1_455 S
C1369 C1385 1.377 . S
C1370 C1368 1.389 . S
C1370 C1371 1.524 . S
C1370 C1384 1.377 . S
C1371 C1370 1.524 . S
C1371 C1372 1.397 . S
C1371 C1376 1.363 . S
C1372 H1349 0.950 1_655 S
C1372 C1371 1.397 . S
C1372 C1373 1.334 1_545 S
C1373 H1350 0.950 . S
C1373 C1372 1.334 1_565 S
C1373 C1374 1.287 . S
C1374 C1373 1.287 . S
C1374 C1375 1.524 . S
C1374 H1393 0.913 . S
C1375 H1351 0.950 . S
C1375 C1374 1.524 . S
C1375 C1376 1.415 1_565 S
C1376 H1352 0.950 . S
C1376 C1371 1.363 . S
C1376 C1375 1.415 1_545 S
C1377 H1353 0.951 . S
C1377 C1378 1.366 . S
C1377 C1379 1.388 . S
C1378 C1377 1.366 . S
C1378 C1382 1.385 . S
C1379 H1354 0.951 . S
C1379 C1377 1.388 . S
C1379 C1380 1.366 . S
C1380 C1379 1.366 . S
C1380 C1381 1.414 . S
C1380 C1383 1.499 . S
C1381 H1355 0.950 1_455 S
C1381 C1380 1.414 . S
C1381 C1382 1.374 . S
C1382 H1356 0.950 . S
C1382 C1378 1.385 . S
C1382 C1381 1.374 . S
C1383 C1380 1.499 . S
C1383 C1384 1.373 1_455 S
C1383 C1385 1.389 . S
C1384 H1357 0.950 . S
C1384 C1370 1.377 . S
C1384 C1383 1.373 1_655 S
C1385 C1369 1.377 . S
C1385 C1383 1.389 . S
C1385 C1386 1.524 . S
C1386 C1385 1.524 . S
C1386 C1387 1.397 . S
C1386 C1391 1.363 . S
C1387 H1358 0.950 1_455 S
C1387 C1386 1.397 . S
C1387 C1388 1.334 . S
C1388 H1359 0.950 . S
C1388 C1387 1.334 . S
C1388 C1389 1.287 . S
C1389 C1388 1.287 . S
C1389 C1390 1.524 . S
C1389 H1392 0.999 . S
C1390 H1360 0.950 . S
C1390 C1389 1.524 . S
C1390 C1391 1.415 . S
C1391 H1361 0.950 . S
C1391 C1386 1.363 . S
C1391 C1390 1.415 . S
H1392 C1389 0.999 . S
H1393 C1374 0.913 . S
H1394 C1412 0.951 . S
H1395 C1414 0.951 . S
H1396 C1416 0.950 . S
H1397 C1417 0.950 . S
H1398 C1419 0.950 . S
H1399 C1422 0.950 . S
H1400 C1423 0.950 . S
H1401 C1425 0.950 . S
H1402 C1426 0.950 . S
H1403 C1427 0.951 . S
H1404 C1429 0.951 . S
H1405 C1431 0.950 . S
H1406 C1432 0.950 . S
H1407 C1434 0.950 . S
H1408 C1437 0.950 . S
H1409 C1438 0.950 . S
H1410 C1440 0.950 . S
H1411 C1441 0.950 1_545 S
C1412 H1394 0.951 . S
C1412 C1413 1.366 . S
C1412 C1414 1.388 . S
C1413 C1412 1.366 . S
C1413 C1417 1.385 . S
C1414 H1395 0.951 . S
C1414 C1412 1.388 . S
C1414 C1415 1.366 . S
C1415 C1414 1.366 . S
C1415 C1416 1.414 . S
C1415 C1418 1.499 . S
C1416 H1396 0.950 . S
C1416 C1415 1.414 . S
C1416 C1417 1.374 . S
C1417 H1397 0.950 . S
C1417 C1413 1.385 . S
C1417 C1416 1.374 . S
C1418 C1415 1.499 . S
C1418 C1419 1.373 . S
C1418 C1420 1.389 . S
C1419 H1398 0.950 . S
C1419 C1418 1.373 . S
C1419 C1435 1.377 . S
C1420 C1418 1.389 . S
C1420 C1421 1.524 . S
C1420 C1434 1.377 . S
C1421 C1420 1.524 . S
C1421 C1422 1.397 . S
C1421 C1426 1.363 . S
C1422 H1399 0.950 . S
C1422 C1421 1.397 . S
C1422 C1423 1.334 . S
C1423 H1400 0.950 . S
C1423 C1422 1.334 . S
C1423 C1424 1.287 . S
C1424 C1423 1.287 . S
C1424 C1425 1.524 . S
C1424 H1443 0.913 . S
C1425 H1401 0.950 . S
C1425 C1424 1.524 . S
C1425 C1426 1.415 . S
C1426 H1402 0.950 . S
C1426 C1421 1.363 . S
C1426 C1425 1.415 . S
C1427 H1403 0.951 . S
C1427 C1428 1.366 . S
C1427 C1429 1.388 . S
C1428 C1427 1.366 . S
C1428 C1432 1.385 . S
C1429 H1404 0.951 . S
C1429 C1427 1.388 . S
C1429 C1430 1.366 . S
C1430 C1429 1.366 . S
C1430 C1431 1.414 . S
C1430 C1433 1.499 . S
C1431 H1405 0.950 . S
C1431 C1430 1.414 . S
C1431 C1432 1.374 . S
C1432 H1406 0.950 . S
C1432 C1428 1.385 . S
C1432 C1431 1.374 . S
C1433 C1430 1.499 . S
C1433 C1434 1.373 . S
C1433 C1435 1.389 . S
C1434 H1407 0.950 . S
C1434 C1420 1.377 . S
C1434 C1433 1.373 . S
C1435 C1419 1.377 . S
C1435 C1433 1.389 . S
C1435 C1436 1.524 . S
C1436 C1435 1.524 . S
C1436 C1437 1.397 . S
C1436 C1441 1.363 . S
C1437 H1408 0.950 . S
C1437 C1436 1.397 . S
C1437 C1438 1.334 . S
C1438 H1409 0.950 . S
C1438 C1437 1.334 . S
C1438 C1439 1.287 1_565 S
C1439 C1438 1.287 1_545 S
C1439 C1440 1.524 . S
C1439 H1442 0.999 . S
C1440 H1410 0.950 . S
C1440 C1439 1.524 . S
C1440 C1441 1.415 1_545 S
C1441 H1411 0.950 1_565 S
C1441 C1436 1.363 . S
C1441 C1440 1.415 1_565 S
H1442 C1439 0.999 . S
H1443 C1424 0.913 . S
H1444 C1462 0.951 . S
H1445 C1464 0.951 1_655 S
H1446 C1466 0.950 . S
H1447 C1467 0.950 . S
H1448 C1469 0.950 . S
H1449 C1472 0.950 . S
H1450 C1473 0.950 . S
H1451 C1475 0.947 . S
H1452 C1476 0.951 1_655 S
H1453 C1477 0.951 . S
H1454 C1479 0.951 1_455 S
H1455 C1481 0.950 . S
H1456 C1482 0.950 . S
H1457 C1484 0.950 . S
H1458 C1487 0.950 . S
H1459 C1488 0.950 . S
H1460 C1490 0.947 . S
H1461 C1491 0.950 1_455 S
C1462 H1444 0.951 . S
C1462 C1463 1.366 . S
C1462 C1464 1.388 . S
C1463 C1462 1.366 . S
C1463 C1467 1.385 . S
C1464 H1445 0.951 1_455 S
C1464 C1462 1.388 . S
C1464 C1465 1.366 . S
C1465 C1464 1.366 . S
C1465 C1466 1.414 . S
C1465 C1468 1.499 . S
C1466 H1446 0.950 . S
C1466 C1465 1.414 . S
C1466 C1467 1.374 . S
C1467 H1447 0.950 . S
C1467 C1463 1.385 . S
C1467 C1466 1.374 . S
C1468 C1465 1.499 . S
C1468 C1469 1.373 . S
C1468 C1470 1.389 . S
C1469 H1448 0.950 . S
C1469 C1468 1.373 . S
C1469 C1485 1.377 1_455 S
C1470 C1468 1.389 . S
C1470 C1471 1.524 . S
C1470 C1484 1.377 1_455 S
C1471 C1470 1.524 . S
C1471 C1472 1.397 . S
C1471 C1476 1.363 1_565 S
C1472 H1449 0.950 . S
C1472 C1471 1.397 . S
C1472 C1473 1.334 1_565 S
C1473 H1450 0.950 . S
C1473 C1472 1.334 1_545 S
C1473 C1474 1.287 . S
C1474 C1473 1.287 . S
C1474 C1475 1.524 . S
C1474 H1493 0.913 . S
C1475 H1451 0.947 . S
C1475 C1474 1.524 . S
C1475 C1476 1.415 . S
C1476 H1452 0.951 1_455 S
C1476 C1471 1.363 1_545 S
C1476 C1475 1.415 . S
C1477 H1453 0.951 . S
C1477 C1478 1.366 . S
C1477 C1479 1.388 . S
C1478 C1477 1.366 . S
C1478 C1482 1.385 . S
C1479 H1454 0.951 1_655 S
C1479 C1477 1.388 . S
C1479 C1480 1.366 . S
C1480 C1479 1.366 . S
C1480 C1481 1.414 . S
C1480 C1483 1.499 . S
C1481 H1455 0.950 . S
C1481 C1480 1.414 . S
C1481 C1482 1.374 . S
C1482 H1456 0.950 . S
C1482 C1478 1.385 . S
C1482 C1481 1.374 . S
C1483 C1480 1.499 . S
C1483 C1484 1.373 . S
C1483 C1485 1.389 . S
C1484 H1457 0.950 . S
C1484 C1470 1.377 1_655 S
C1484 C1483 1.373 . S
C1485 C1469 1.377 1_655 S
C1485 C1483 1.389 . S
C1485 C1486 1.524 . S
C1486 C1485 1.524 . S
C1486 C1487 1.397 . S
C1486 C1491 1.363 . S
C1487 H1458 0.950 . S
C1487 C1486 1.397 . S
C1487 C1488 1.334 . S
C1488 H1459 0.950 . S
C1488 C1487 1.334 . S
C1488 C1489 1.287 . S
C1489 C1488 1.287 . S
C1489 C1490 1.524 . S
C1489 H1492 0.999 . S
C1490 H1460 0.947 . S
C1490 C1489 1.524 . S
C1490 C1491 1.415 . S
C1491 H1461 0.950 1_655 S
C1491 C1486 1.363 . S
C1491 C1490 1.415 . S
H1492 C1489 0.999 . S
H1493 C1474 0.913 . S
H1494 C1512 0.951 . S
H1495 C1514 0.951 . S
H1496 C1516 0.950 . S
H1497 C1517 0.950 . S
H1498 C1519 0.950 . S
H1499 C1522 0.950 . S
H1500 C1523 0.950 . S
H1501 C1525 0.950 . S
H1502 C1526 0.950 . S
H1503 C1527 0.951 . S
H1504 C1529 0.951 . S
H1505 C1531 0.950 . S
H1506 C1532 0.950 . S
H1507 C1534 0.950 . S
H1508 C1537 0.950 . S
H1509 C1538 0.950 . S
H1510 C1540 0.950 . S
H1511 C1541 0.950 . S
C1512 H1494 0.951 . S
C1512 C1513 1.366 . S
C1512 C1514 1.388 . S
C1513 C1512 1.366 . S
C1513 C1517 1.385 . S
C1514 H1495 0.951 . S
C1514 C1512 1.388 . S
C1514 C1515 1.366 . S
C1515 C1514 1.366 . S
C1515 C1516 1.414 . S
C1515 C1518 1.499 . S
C1516 H1496 0.950 . S
C1516 C1515 1.414 . S
C1516 C1517 1.374 . S
C1517 H1497 0.950 . S
C1517 C1513 1.385 . S
C1517 C1516 1.374 . S
C1518 C1515 1.499 . S
C1518 C1519 1.373 . S
C1518 C1520 1.389 . S
C1519 H1498 0.950 . S
C1519 C1518 1.373 . S
C1519 C1535 1.377 . S
C1520 C1518 1.389 . S
C1520 C1521 1.524 . S
C1520 C1534 1.377 . S
C1521 C1520 1.524 . S
C1521 C1522 1.397 . S
C1521 C1526 1.363 . S
C1522 H1499 0.950 . S
C1522 C1521 1.397 . S
C1522 C1523 1.334 1_545 S
C1523 H1500 0.950 . S
C1523 C1522 1.334 1_565 S
C1523 C1524 1.287 . S
C1524 C1523 1.287 . S
C1524 C1525 1.524 . S
C1524 H1543 0.913 . S
C1525 H1501 0.950 . S
C1525 C1524 1.524 . S
C1525 C1526 1.415 1_565 S
C1526 H1502 0.950 . S
C1526 C1521 1.363 . S
C1526 C1525 1.415 1_545 S
C1527 H1503 0.951 . S
C1527 C1528 1.366 . S
C1527 C1529 1.388 . S
C1528 C1527 1.366 . S
C1528 C1532 1.385 . S
C1529 H1504 0.951 . S
C1529 C1527 1.388 . S
C1529 C1530 1.366 . S
C1530 C1529 1.366 . S
C1530 C1531 1.414 . S
C1530 C1533 1.499 . S
C1531 H1505 0.950 . S
C1531 C1530 1.414 . S
C1531 C1532 1.374 . S
C1532 H1506 0.950 . S
C1532 C1528 1.385 . S
C1532 C1531 1.374 . S
C1533 C1530 1.499 . S
C1533 C1534 1.373 . S
C1533 C1535 1.389 . S
C1534 H1507 0.950 . S
C1534 C1520 1.377 . S
C1534 C1533 1.373 . S
C1535 C1519 1.377 . S
C1535 C1533 1.389 . S
C1535 C1536 1.524 . S
C1536 C1535 1.524 . S
C1536 C1537 1.397 . S
C1536 C1541 1.363 . S
C1537 H1508 0.950 . S
C1537 C1536 1.397 . S
C1537 C1538 1.334 . S
C1538 H1509 0.950 . S
C1538 C1537 1.334 . S
C1538 C1539 1.287 . S
C1539 C1538 1.287 . S
C1539 C1540 1.524 . S
C1539 H1542 0.999 . S
C1540 H1510 0.950 . S
C1540 C1539 1.524 . S
C1540 C1541 1.415 . S
C1541 H1511 0.950 . S
C1541 C1536 1.363 . S
C1541 C1540 1.415 . S
H1542 C1539 0.999 . S
H1543 C1524 0.913 . S
H1544 C1562 0.951 . S
H1545 C1564 0.951 . S
H1546 C1566 0.950 . S
H1547 C1567 0.950 . S
H1548 C1569 0.950 . S
H1549 C1572 0.950 . S
H1550 C1573 0.950 . S
H1551 C1575 0.950 . S
H1552 C1576 0.950 . S
H1553 C1577 0.951 . S
H1554 C1579 0.951 . S
H1555 C1581 0.950 . S
H1556 C1582 0.950 . S
H1557 C1584 0.950 . S
H1558 C1587 0.950 . S
H1559 C1588 0.950 . S
H1560 C1590 0.950 . S
H1561 C1591 0.950 . S
C1562 H1544 0.951 . S
C1562 C1563 1.366 . S
C1562 C1564 1.388 . S
C1563 C1562 1.366 . S
C1563 C1567 1.385 . S
C1564 H1545 0.951 . S
C1564 C1562 1.388 . S
C1564 C1565 1.366 . S
C1565 C1564 1.366 . S
C1565 C1566 1.414 . S
C1565 C1568 1.499 . S
C1566 H1546 0.950 . S
C1566 C1565 1.414 . S
C1566 C1567 1.374 . S
C1567 H1547 0.950 . S
C1567 C1563 1.385 . S
C1567 C1566 1.374 . S
C1568 C1565 1.499 . S
C1568 C1569 1.373 . S
C1568 C1570 1.389 . S
C1569 H1548 0.950 . S
C1569 C1568 1.373 . S
C1569 C1585 1.377 . S
C1570 C1568 1.389 . S
C1570 C1571 1.524 . S
C1570 C1584 1.377 . S
C1571 C1570 1.524 . S
C1571 C1572 1.397 . S
C1571 C1576 1.363 . S
C1572 H1549 0.950 . S
C1572 C1571 1.397 . S
C1572 C1573 1.334 . S
C1573 H1550 0.950 . S
C1573 C1572 1.334 . S
C1573 C1574 1.287 . S
C1574 C1573 1.287 . S
C1574 C1575 1.524 . S
C1574 H1593 0.913 . S
C1575 H1551 0.950 . S
C1575 C1574 1.524 . S
C1575 C1576 1.415 . S
C1576 H1552 0.950 . S
C1576 C1571 1.363 . S
C1576 C1575 1.415 . S
C1577 H1553 0.951 . S
C1577 C1578 1.366 . S
C1577 C1579 1.388 . S
C1578 C1577 1.366 . S
C1578 C1582 1.385 . S
C1579 H1554 0.951 . S
C1579 C1577 1.388 . S
C1579 C1580 1.366 . S
C1580 C1579 1.366 . S
C1580 C1581 1.414 . S
C1580 C1583 1.499 . S
C1581 H1555 0.950 . S
C1581 C1580 1.414 . S
C1581 C1582 1.374 . S
C1582 H1556 0.950 . S
C1582 C1578 1.385 . S
C1582 C1581 1.374 . S
C1583 C1580 1.499 . S
C1583 C1584 1.373 . S
C1583 C1585 1.389 . S
C1584 H1557 0.950 . S
C1584 C1570 1.377 . S
C1584 C1583 1.373 . S
C1585 C1569 1.377 . S
C1585 C1583 1.389 . S
C1585 C1586 1.524 . S
C1586 C1585 1.524 . S
C1586 C1587 1.397 . S
C1586 C1591 1.363 . S
C1587 H1558 0.950 . S
C1587 C1586 1.397 . S
C1587 C1588 1.334 . S
C1588 H1559 0.950 . S
C1588 C1587 1.334 . S
C1588 C1589 1.287 . S
C1589 C1588 1.287 . S
C1589 C1590 1.524 . S
C1589 H1592 0.999 . S
C1590 H1560 0.950 . S
C1590 C1589 1.524 . S
C1590 C1591 1.415 . S
C1591 H1561 0.950 . S
C1591 C1586 1.363 . S
C1591 C1590 1.415 . S
H1592 C1589 0.999 . S
H1593 C1574 0.913 . S
H1594 C1612 0.951 . S
H1595 C1614 0.951 . S
H1596 C1616 0.950 . S
H1597 C1617 0.950 . S
H1598 C1619 0.950 . S
H1599 C1622 0.950 . S
H1600 C1623 0.950 . S
H1601 C1625 0.950 . S
H1602 C1626 0.950 1_655 S
H1603 C1627 0.951 . S
H1604 C1629 0.951 . S
H1605 C1631 0.950 . S
H1606 C1632 0.950 . S
H1607 C1634 0.950 . S
H1608 C1637 0.950 . S
H1609 C1638 0.950 . S
H1610 C1640 0.950 . S
H1611 C1641 0.950 1_455 S
C1612 H1594 0.951 . S
C1612 C1613 1.366 . S
C1612 C1614 1.388 . S
C1613 C1612 1.366 . S
C1613 C1617 1.385 . S
C1614 H1595 0.951 . S
C1614 C1612 1.388 . S
C1614 C1615 1.366 . S
C1615 C1614 1.366 . S
C1615 C1616 1.414 . S
C1615 C1618 1.499 . S
C1616 H1596 0.950 . S
C1616 C1615 1.414 . S
C1616 C1617 1.374 . S
C1617 H1597 0.950 . S
C1617 C1613 1.385 . S
C1617 C1616 1.374 . S
C1618 C1615 1.499 . S
C1618 C1619 1.383 . S
C1618 C1620 1.389 . S
C1619 H1598 0.950 . S
C1619 C1618 1.383 . S
C1619 C1635 1.367 1_455 S
C1620 C1618 1.389 . S
C1620 C1621 1.524 . S
C1620 C1634 1.367 1_455 S
C1621 C1620 1.524 . S
C1621 C1622 1.397 . S
C1621 C1626 1.363 . S
C1622 H1599 0.950 . S
C1622 C1621 1.397 . S
C1622 C1623 1.334 . S
C1623 H1600 0.950 . S
C1623 C1622 1.334 . S
C1623 C1624 1.287 . S
C1624 C1623 1.287 . S
C1624 C1625 1.524 . S
C1624 H1643 0.913 . S
C1625 H1601 0.950 . S
C1625 C1624 1.524 . S
C1625 C1626 1.415 . S
C1626 H1602 0.950 1_455 S
C1626 C1621 1.363 . S
C1626 C1625 1.415 . S
C1627 H1603 0.951 . S
C1627 C1628 1.366 . S
C1627 C1629 1.388 . S
C1628 C1627 1.366 . S
C1628 C1632 1.385 . S
C1629 H1604 0.951 . S
C1629 C1627 1.388 . S
C1629 C1630 1.366 . S
C1630 C1629 1.366 . S
C1630 C1631 1.414 . S
C1630 C1633 1.499 . S
C1631 H1605 0.950 . S
C1631 C1630 1.414 . S
C1631 C1632 1.374 . S
C1632 H1606 0.950 . S
C1632 C1628 1.385 . S
C1632 C1631 1.374 . S
C1633 C1630 1.499 . S
C1633 C1634 1.383 . S
C1633 C1635 1.389 . S
C1634 H1607 0.950 . S
C1634 C1620 1.367 1_655 S
C1634 C1633 1.383 . S
C1635 C1619 1.367 1_655 S
C1635 C1633 1.389 . S
C1635 C1636 1.524 . S
C1636 C1635 1.524 . S
C1636 C1637 1.397 . S
C1636 C1641 1.363 . S
C1637 H1608 0.950 . S
C1637 C1636 1.397 . S
C1637 C1638 1.334 . S
C1638 H1609 0.950 . S
C1638 C1637 1.334 . S
C1638 C1639 1.287 . S
C1639 C1638 1.287 . S
C1639 C1640 1.524 . S
C1639 H1642 0.999 . S
C1640 H1610 0.950 . S
C1640 C1639 1.524 . S
C1640 C1641 1.415 . S
C1641 H1611 0.950 1_655 S
C1641 C1636 1.363 . S
C1641 C1640 1.415 . S
H1642 C1639 0.999 . S
H1643 C1624 0.913 . S
H1644 C1662 0.951 . S
H1645 C1664 0.951 . S
H1646 C1666 0.950 . S
H1647 C1667 0.950 . S
H1648 C1669 0.950 . S
H1649 C1672 0.950 . S
H1650 C1673 0.950 . S
H1651 C1675 0.950 . S
H1652 C1676 0.950 . S
H1653 C1677 0.951 . S
H1654 C1679 0.951 . S
H1655 C1681 0.950 . S
H1656 C1682 0.950 . S
H1657 C1684 0.950 . S
H1658 C1687 0.950 . S
H1659 C1688 0.950 . S
H1660 C1690 0.950 . S
H1661 C1691 0.950 . S
C1662 H1644 0.951 . S
C1662 C1663 1.366 . S
C1662 C1664 1.388 . S
C1663 C1662 1.366 . S
C1663 C1667 1.385 . S
C1664 H1645 0.951 . S
C1664 C1662 1.388 . S
C1664 C1665 1.366 . S
C1665 C1664 1.366 . S
C1665 C1666 1.414 . S
C1665 C1668 1.499 . S
C1666 H1646 0.950 . S
C1666 C1665 1.414 . S
C1666 C1667 1.374 . S
C1667 H1647 0.950 . S
C1667 C1663 1.385 . S
C1667 C1666 1.374 . S
C1668 C1665 1.499 . S
C1668 C1669 1.373 . S
C1668 C1670 1.389 . S
C1669 H1648 0.950 . S
C1669 C1668 1.373 . S
C1669 C1685 1.377 . S
C1670 C1668 1.389 . S
C1670 C1671 1.524 . S
C1670 C1684 1.377 . S
C1671 C1670 1.524 . S
C1671 C1672 1.397 . S
C1671 C1676 1.363 . S
C1672 H1649 0.950 . S
C1672 C1671 1.397 . S
C1672 C1673 1.334 . S
C1673 H1650 0.950 . S
C1673 C1672 1.334 . S
C1673 C1674 1.287 . S
C1674 C1673 1.287 . S
C1674 C1675 1.524 . S
C1674 H1693 0.913 . S
C1675 H1651 0.950 . S
C1675 C1674 1.524 . S
C1675 C1676 1.415 . S
C1676 H1652 0.950 . S
C1676 C1671 1.363 . S
C1676 C1675 1.415 . S
C1677 H1653 0.951 . S
C1677 C1678 1.366 . S
C1677 C1679 1.388 . S
C1678 C1677 1.366 . S
C1678 C1682 1.385 . S
C1679 H1654 0.951 . S
C1679 C1677 1.388 . S
C1679 C1680 1.366 . S
C1680 C1679 1.366 . S
C1680 C1681 1.414 . S
C1680 C1683 1.499 . S
C1681 H1655 0.950 . S
C1681 C1680 1.414 . S
C1681 C1682 1.374 . S
C1682 H1656 0.950 . S
C1682 C1678 1.385 . S
C1682 C1681 1.374 . S
C1683 C1680 1.499 . S
C1683 C1684 1.373 . S
C1683 C1685 1.389 . S
C1684 H1657 0.950 . S
C1684 C1670 1.377 . S
C1684 C1683 1.373 . S
C1685 C1669 1.377 . S
C1685 C1683 1.389 . S
C1685 C1686 1.524 . S
C1686 C1685 1.524 . S
C1686 C1687 1.397 . S
C1686 C1691 1.363 . S
C1687 H1658 0.950 . S
C1687 C1686 1.397 . S
C1687 C1688 1.334 . S
C1688 H1659 0.950 . S
C1688 C1687 1.334 . S
C1688 C1689 1.287 . S
C1689 C1688 1.287 . S
C1689 C1690 1.524 . S
C1689 H1692 0.999 . S
C1690 H1660 0.950 . S
C1690 C1689 1.524 . S
C1690 C1691 1.415 . S
C1691 H1661 0.950 . S
C1691 C1686 1.363 . S
C1691 C1690 1.415 . S
H1692 C1689 0.999 . S
H1693 C1674 0.913 . S
H1694 C1712 0.951 . S
H1695 C1714 0.951 . S
H1696 C1716 0.950 . S
H1697 C1717 0.950 . S
H1698 C1719 0.950 . S
H1699 C1722 0.950 . S
H1700 C1723 0.950 . S
H1701 C1725 0.950 . S
H1702 C1726 0.950 . S
H1703 C1727 0.951 . S
H1704 C1729 0.951 . S
H1705 C1731 0.950 . S
H1706 C1732 0.950 . S
H1707 C1734 0.950 . S
H1708 C1737 0.950 . S
H1709 C1738 0.950 . S
H1710 C1740 0.950 . S
H1711 C1741 0.950 . S
C1712 H1694 0.951 . S
C1712 C1713 1.366 . S
C1712 C1714 1.388 . S
C1713 C1712 1.366 . S
C1713 C1717 1.385 . S
C1714 H1695 0.951 . S
C1714 C1712 1.388 . S
C1714 C1715 1.366 . S
C1715 C1714 1.366 . S
C1715 C1716 1.414 . S
C1715 C1718 1.499 . S
C1716 H1696 0.950 . S
C1716 C1715 1.414 . S
C1716 C1717 1.374 . S
C1717 H1697 0.950 . S
C1717 C1713 1.385 . S
C1717 C1716 1.374 . S
C1718 C1715 1.499 . S
C1718 C1719 1.373 1_455 S
C1718 C1720 1.389 . S
C1719 H1698 0.950 . S
C1719 C1718 1.373 1_655 S
C1719 C1735 1.377 . S
C1720 C1718 1.389 . S
C1720 C1721 1.524 . S
C1720 C1734 1.377 . S
C1721 C1720 1.524 . S
C1721 C1722 1.397 . S
C1721 C1726 1.363 . S
C1722 H1699 0.950 . S
C1722 C1721 1.397 . S
C1722 C1723 1.334 . S
C1723 H1700 0.950 . S
C1723 C1722 1.334 . S
C1723 C1724 1.287 . S
C1724 C1723 1.287 . S
C1724 C1725 1.524 . S
C1724 H1743 0.913 . S
C1725 H1701 0.950 . S
C1725 C1724 1.524 . S
C1725 C1726 1.415 . S
C1726 H1702 0.950 . S
C1726 C1721 1.363 . S
C1726 C1725 1.415 . S
C1727 H1703 0.951 . S
C1727 C1728 1.366 . S
C1727 C1729 1.388 . S
C1728 C1727 1.366 . S
C1728 C1732 1.385 . S
C1729 H1704 0.951 . S
C1729 C1727 1.388 . S
C1729 C1730 1.366 . S
C1730 C1729 1.366 . S
C1730 C1731 1.414 . S
C1730 C1733 1.499 . S
C1731 H1705 0.950 . S
C1731 C1730 1.414 . S
C1731 C1732 1.374 . S
C1732 H1706 0.950 . S
C1732 C1728 1.385 . S
C1732 C1731 1.374 . S
C1733 C1730 1.499 . S
C1733 C1734 1.373 1_655 S
C1733 C1735 1.389 . S
C1734 H1707 0.950 . S
C1734 C1720 1.377 . S
C1734 C1733 1.373 1_455 S
C1735 C1719 1.377 . S
C1735 C1733 1.389 . S
C1735 C1736 1.524 . S
C1736 C1735 1.524 . S
C1736 C1737 1.397 . S
C1736 C1741 1.363 . S
C1737 H1708 0.950 . S
C1737 C1736 1.397 . S
C1737 C1738 1.334 . S
C1738 H1709 0.950 . S
C1738 C1737 1.334 . S
C1738 C1739 1.287 . S
C1739 C1738 1.287 . S
C1739 C1740 1.524 . S
C1739 H1742 0.999 . S
C1740 H1710 0.950 . S
C1740 C1739 1.524 . S
C1740 C1741 1.415 . S
C1741 H1711 0.950 . S
C1741 C1736 1.363 . S
C1741 C1740 1.415 . S
H1742 C1739 0.999 . S
H1743 C1724 0.913 . S
H1744 C1762 0.951 . S
H1745 C1764 0.951 . S
H1746 C1766 0.950 . S
H1747 C1767 0.950 1_655 S
H1748 C1769 0.950 . S
H1749 C1772 0.950 . S
H1750 C1773 0.950 . S
H1751 C1775 0.950 . S
H1752 C1776 0.950 . S
H1753 C1777 0.951 . S
H1754 C1779 0.951 . S
H1755 C1781 0.950 . S
H1756 C1782 0.950 1_455 S
H1757 C1784 0.950 . S
H1758 C1787 0.950 . S
H1759 C1788 0.950 . S
H1760 C1790 0.950 . S
H1761 C1791 0.950 . S
C1762 H1744 0.951 . S
C1762 C1763 1.366 . S
C1762 C1764 1.388 . S
C1763 C1762 1.366 . S
C1763 C1767 1.385 . S
C1764 H1745 0.951 . S
C1764 C1762 1.388 . S
C1764 C1765 1.366 . S
C1765 C1764 1.366 . S
C1765 C1766 1.414 1_455 S
C1765 C1768 1.499 . S
C1766 H1746 0.950 . S
C1766 C1765 1.414 1_655 S
C1766 C1767 1.374 1_655 S
C1767 H1747 0.950 1_455 S
C1767 C1763 1.385 . S
C1767 C1766 1.374 1_455 S
C1768 C1765 1.499 . S
C1768 C1769 1.373 1_455 S
C1768 C1770 1.389 . S
C1769 H1748 0.950 . S
C1769 C1768 1.373 1_655 S
C1769 C1785 1.377 . S
C1770 C1768 1.389 . S
C1770 C1771 1.524 . S
C1770 C1784 1.377 . S
C1771 C1770 1.524 . S
C1771 C1772 1.397 . S
C1771 C1776 1.363 . S
C1772 H1749 0.950 . S
C1772 C1771 1.397 . S
C1772 C1773 1.334 . S
C1773 H1750 0.950 . S
C1773 C1772 1.334 . S
C1773 C1774 1.287 . S
C1774 C1773 1.287 . S
C1774 C1775 1.524 . S
C1774 H1793 0.913 . S
C1775 H1751 0.950 . S
C1775 C1774 1.524 . S
C1775 C1776 1.415 . S
C1776 H1752 0.950 . S
C1776 C1771 1.363 . S
C1776 C1775 1.415 . S
C1777 H1753 0.951 . S
C1777 C1778 1.366 . S
C1777 C1779 1.388 . S
C1778 C1777 1.366 . S
C1778 C1782 1.385 . S
C1779 H1754 0.951 . S
C1779 C1777 1.388 . S
C1779 C1780 1.366 . S
C1780 C1779 1.366 . S
C1780 C1781 1.414 1_655 S
C1780 C1783 1.499 . S
C1781 H1755 0.950 . S
C1781 C1780 1.414 1_455 S
C1781 C1782 1.374 1_455 S
C1782 H1756 0.950 1_655 S
C1782 C1778 1.385 . S
C1782 C1781 1.374 1_655 S
C1783 C1780 1.499 . S
C1783 C1784 1.373 1_655 S
C1783 C1785 1.389 . S
C1784 H1757 0.950 . S
C1784 C1770 1.377 . S
C1784 C1783 1.373 1_455 S
C1785 C1769 1.377 . S
C1785 C1783 1.389 . S
C1785 C1786 1.524 . S
C1786 C1785 1.524 . S
C1786 C1787 1.397 . S
C1786 C1791 1.363 . S
C1787 H1758 0.950 . S
C1787 C1786 1.397 . S
C1787 C1788 1.334 . S
C1788 H1759 0.950 . S
C1788 C1787 1.334 . S
C1788 C1789 1.287 . S
C1789 C1788 1.287 . S
C1789 C1790 1.524 . S
C1789 H1792 0.999 . S
C1790 H1760 0.950 . S
C1790 C1789 1.524 . S
C1790 C1791 1.415 . S
C1791 H1761 0.950 . S
C1791 C1786 1.363 . S
C1791 C1790 1.415 . S
H1792 C1789 0.999 . S
H1793 C1774 0.913 . S
H1794 C1812 0.951 . S
H1795 C1814 0.951 . S
H1796 C1816 0.950 . S
H1797 C1817 0.950 . S
H1798 C1819 0.950 . S
H1799 C1822 0.950 . S
H1800 C1823 0.950 . S
H1801 C1825 0.950 . S
H1802 C1826 0.950 . S
H1803 C1827 0.951 . S
H1804 C1829 0.951 . S
H1805 C1831 0.950 . S
H1806 C1832 0.950 . S
H1807 C1834 0.950 . S
H1808 C1837 0.950 . S
H1809 C1838 0.950 . S
H1810 C1840 0.950 . S
H1811 C1841 0.950 . S
C1812 H1794 0.951 . S
C1812 C1813 1.366 . S
C1812 C1814 1.388 . S
C1813 C1812 1.366 . S
C1813 C1817 1.385 . S
C1814 H1795 0.951 . S
C1814 C1812 1.388 . S
C1814 C1815 1.366 . S
C1815 C1814 1.366 . S
C1815 C1816 1.414 . S
C1815 C1818 1.499 . S
C1816 H1796 0.950 . S
C1816 C1815 1.414 . S
C1816 C1817 1.374 . S
C1817 H1797 0.950 . S
C1817 C1813 1.385 . S
C1817 C1816 1.374 . S
C1818 C1815 1.499 . S
C1818 C1819 1.373 . S
C1818 C1820 1.389 . S
C1819 H1798 0.950 . S
C1819 C1818 1.373 . S
C1819 C1835 1.377 . S
C1820 C1818 1.389 . S
C1820 C1821 1.524 . S
C1820 C1834 1.377 . S
C1821 C1820 1.524 . S
C1821 C1822 1.397 . S
C1821 C1826 1.363 . S
C1822 H1799 0.950 . S
C1822 C1821 1.397 . S
C1822 C1823 1.334 . S
C1823 H1800 0.950 . S
C1823 C1822 1.334 . S
C1823 C1824 1.287 . S
C1824 C1823 1.287 . S
C1824 C1825 1.524 . S
C1824 H1843 0.913 . S
C1825 H1801 0.950 . S
C1825 C1824 1.524 . S
C1825 C1826 1.415 . S
C1826 H1802 0.950 . S
C1826 C1821 1.363 . S
C1826 C1825 1.415 . S
C1827 H1803 0.951 . S
C1827 C1828 1.366 . S
C1827 C1829 1.388 . S
C1828 C1827 1.366 . S
C1828 C1832 1.385 . S
C1829 H1804 0.951 . S
C1829 C1827 1.388 . S
C1829 C1830 1.366 . S
C1830 C1829 1.366 . S
C1830 C1831 1.414 . S
C1830 C1833 1.499 . S
C1831 H1805 0.950 . S
C1831 C1830 1.414 . S
C1831 C1832 1.374 . S
C1832 H1806 0.950 . S
C1832 C1828 1.385 . S
C1832 C1831 1.374 . S
C1833 C1830 1.499 . S
C1833 C1834 1.373 . S
C1833 C1835 1.389 . S
C1834 H1807 0.950 . S
C1834 C1820 1.377 . S
C1834 C1833 1.373 . S
C1835 C1819 1.377 . S
C1835 C1833 1.389 . S
C1835 C1836 1.524 . S
C1836 C1835 1.524 . S
C1836 C1837 1.397 . S
C1836 C1841 1.363 . S
C1837 H1808 0.950 . S
C1837 C1836 1.397 . S
C1837 C1838 1.334 . S
C1838 H1809 0.950 . S
C1838 C1837 1.334 . S
C1838 C1839 1.287 . S
C1839 C1838 1.287 . S
C1839 C1840 1.524 . S
C1839 H1842 0.999 . S
C1840 H1810 0.950 . S
C1840 C1839 1.524 . S
C1840 C1841 1.415 . S
C1841 H1811 0.950 . S
C1841 C1836 1.363 . S
C1841 C1840 1.415 . S
H1842 C1839 0.999 . S
H1843 C1824 0.913 . S
H1844 C1862 0.951 . S
H1845 C1864 0.951 . S
H1846 C1866 0.950 . S
H1847 C1867 0.950 . S
H1848 C1869 0.950 . S
H1849 C1872 0.950 . S
H1850 C1873 0.950 . S
H1851 C1875 0.950 . S
H1852 C1876 0.950 . S
H1853 C1877 0.951 . S
H1854 C1879 0.951 . S
H1855 C1881 0.950 . S
H1856 C1882 0.950 . S
H1857 C1884 0.950 . S
H1858 C1887 0.950 . S
H1859 C1888 0.950 . S
H1860 C1890 0.950 . S
H1861 C1891 0.950 . S
C1862 H1844 0.951 . S
C1862 C1863 1.366 . S
C1862 C1864 1.388 . S
C1863 C1862 1.366 . S
C1863 C1867 1.385 . S
C1864 H1845 0.951 . S
C1864 C1862 1.388 . S
C1864 C1865 1.366 . S
C1865 C1864 1.366 . S
C1865 C1866 1.414 . S
C1865 C1868 1.499 . S
C1866 H1846 0.950 . S
C1866 C1865 1.414 . S
C1866 C1867 1.374 . S
C1867 H1847 0.950 . S
C1867 C1863 1.385 . S
C1867 C1866 1.374 . S
C1868 C1865 1.499 . S
C1868 C1869 1.373 . S
C1868 C1870 1.389 . S
C1869 H1848 0.950 . S
C1869 C1868 1.373 . S
C1869 C1885 1.377 . S
C1870 C1868 1.389 . S
C1870 C1871 1.524 . S
C1870 C1884 1.377 . S
C1871 C1870 1.524 . S
C1871 C1872 1.397 . S
C1871 C1876 1.363 . S
C1872 H1849 0.950 . S
C1872 C1871 1.397 . S
C1872 C1873 1.334 . S
C1873 H1850 0.950 . S
C1873 C1872 1.334 . S
C1873 C1874 1.287 . S
C1874 C1873 1.287 . S
C1874 C1875 1.524 . S
C1874 H1893 0.913 . S
C1875 H1851 0.950 . S
C1875 C1874 1.524 . S
C1875 C1876 1.415 . S
C1876 H1852 0.950 . S
C1876 C1871 1.363 . S
C1876 C1875 1.415 . S
C1877 H1853 0.951 . S
C1877 C1878 1.366 . S
C1877 C1879 1.388 . S
C1878 C1877 1.366 . S
C1878 C1882 1.385 . S
C1879 H1854 0.951 . S
C1879 C1877 1.388 . S
C1879 C1880 1.366 . S
C1880 C1879 1.366 . S
C1880 C1881 1.414 . S
C1880 C1883 1.499 . S
C1881 H1855 0.950 . S
C1881 C1880 1.414 . S
C1881 C1882 1.374 . S
C1882 H1856 0.950 . S
C1882 C1878 1.385 . S
C1882 C1881 1.374 . S
C1883 C1880 1.499 . S
C1883 C1884 1.373 . S
C1883 C1885 1.389 . S
C1884 H1857 0.950 . S
C1884 C1870 1.377 . S
C1884 C1883 1.373 . S
C1885 C1869 1.377 . S
C1885 C1883 1.389 . S
C1885 C1886 1.524 . S
C1886 C1885 1.524 . S
C1886 C1887 1.397 . S
C1886 C1891 1.363 . S
C1887 H1858 0.950 . S
C1887 C1886 1.397 . S
C1887 C1888 1.334 . S
C1888 H1859 0.950 . S
C1888 C1887 1.334 . S
C1888 C1889 1.287 . S
C1889 C1888 1.287 . S
C1889 C1890 1.524 . S
C1889 H1892 0.999 . S
C1890 H1860 0.950 . S
C1890 C1889 1.524 . S
C1890 C1891 1.415 . S
C1891 H1861 0.950 . S
C1891 C1886 1.363 . S
C1891 C1890 1.415 . S
H1892 C1889 0.999 . S
H1893 C1874 0.913 . S
H1894 C1912 0.951 . S
H1895 C1914 0.951 . S
H1896 C1916 0.950 . S
H1897 C1917 0.950 . S
H1898 C1919 0.950 . S
H1899 C1922 0.950 . S
H1900 C1923 0.950 . S
H1901 C1925 0.950 . S
H1902 C1926 0.950 . S
H1903 C1927 0.951 . S
H1904 C1929 0.951 . S
H1905 C1931 0.950 . S
H1906 C1932 0.950 . S
H1907 C1934 0.950 . S
H1908 C1937 0.950 . S
H1909 C1938 0.950 . S
H1910 C1940 0.950 . S
H1911 C1941 0.950 . S
C1912 H1894 0.951 . S
C1912 C1913 1.366 . S
C1912 C1914 1.388 . S
C1913 C1912 1.366 . S
C1913 C1917 1.385 . S
C1914 H1895 0.951 . S
C1914 C1912 1.388 . S
C1914 C1915 1.366 . S
C1915 C1914 1.366 . S
C1915 C1916 1.414 . S
C1915 C1918 1.499 . S
C1916 H1896 0.950 . S
C1916 C1915 1.414 . S
C1916 C1917 1.374 . S
C1917 H1897 0.950 . S
C1917 C1913 1.385 . S
C1917 C1916 1.374 . S
C1918 C1915 1.499 . S
C1918 C1919 1.373 . S
C1918 C1920 1.389 1_455 S
C1919 H1898 0.950 . S
C1919 C1918 1.373 . S
C1919 C1935 1.377 . S
C1920 C1918 1.389 1_655 S
C1920 C1921 1.524 . S
C1920 C1934 1.377 . S
C1921 C1920 1.524 . S
C1921 C1922 1.397 . S
C1921 C1926 1.363 . S
C1922 H1899 0.950 . S
C1922 C1921 1.397 . S
C1922 C1923 1.334 . S
C1923 H1900 0.950 . S
C1923 C1922 1.334 . S
C1923 C1924 1.287 . S
C1924 C1923 1.287 . S
C1924 C1925 1.524 . S
C1924 H1943 0.913 . S
C1925 H1901 0.950 . S
C1925 C1924 1.524 . S
C1925 C1926 1.415 . S
C1926 H1902 0.950 . S
C1926 C1921 1.363 . S
C1926 C1925 1.415 . S
C1927 H1903 0.951 . S
C1927 C1928 1.366 . S
C1927 C1929 1.388 . S
C1928 C1927 1.366 . S
C1928 C1932 1.385 . S
C1929 H1904 0.951 . S
C1929 C1927 1.388 . S
C1929 C1930 1.366 . S
C1930 C1929 1.366 . S
C1930 C1931 1.414 . S
C1930 C1933 1.499 . S
C1931 H1905 0.950 . S
C1931 C1930 1.414 . S
C1931 C1932 1.374 . S
C1932 H1906 0.950 . S
C1932 C1928 1.385 . S
C1932 C1931 1.374 . S
C1933 C1930 1.499 . S
C1933 C1934 1.373 . S
C1933 C1935 1.389 1_655 S
C1934 H1907 0.950 . S
C1934 C1920 1.377 . S
C1934 C1933 1.373 . S
C1935 C1919 1.377 . S
C1935 C1933 1.389 1_455 S
C1935 C1936 1.524 . S
C1936 C1935 1.524 . S
C1936 C1937 1.397 . S
C1936 C1941 1.363 . S
C1937 H1908 0.950 . S
C1937 C1936 1.397 . S
C1937 C1938 1.334 . S
C1938 H1909 0.950 . S
C1938 C1937 1.334 . S
C1938 C1939 1.287 . S
C1939 C1938 1.287 . S
C1939 C1940 1.524 . S
C1939 H1942 0.999 . S
C1940 H1910 0.950 . S
C1940 C1939 1.524 . S
C1940 C1941 1.415 . S
C1941 H1911 0.950 . S
C1941 C1936 1.363 . S
C1941 C1940 1.415 . S
H1942 C1939 0.999 . S
H1943 C1924 0.913 . S
H1944 C1962 0.951 1_655 S
H1945 C1964 0.951 . S
H1946 C1966 0.950 . S
H1947 C1967 0.950 . S
H1948 C1969 0.950 . S
H1949 C1972 0.950 . S
H1950 C1973 0.985 . S
H1951 C1975 0.950 . S
H1952 C1976 0.950 . S
H1953 C1977 0.951 1_455 S
H1954 C1979 0.951 . S
H1955 C1981 0.950 . S
H1956 C1982 0.950 . S
H1957 C1984 0.950 . S
H1958 C1987 0.950 . S
H1959 C1988 0.985 . S
H1960 C1990 0.950 . S
H1961 C1991 0.950 . S
C1962 H1944 0.951 1_455 S
C1962 C1963 1.366 . S
C1962 C1964 1.388 1_455 S
C1963 C1962 1.366 . S
C1963 C1967 1.385 . S
C1964 H1945 0.951 . S
C1964 C1962 1.388 1_655 S
C1964 C1965 1.366 1_655 S
C1965 C1964 1.366 1_455 S
C1965 C1966 1.414 . S
C1965 C1968 1.499 . S
C1966 H1946 0.950 . S
C1966 C1965 1.414 . S
C1966 C1967 1.374 . S
C1967 H1947 0.950 . S
C1967 C1963 1.385 . S
C1967 C1966 1.374 . S
C1968 C1965 1.499 . S
C1968 C1969 1.373 . S
C1968 C1970 1.389 1_455 S
C1969 H1948 0.950 . S
C1969 C1968 1.373 . S
C1969 C1985 1.377 . S
C1970 C1968 1.389 1_655 S
C1970 C1971 1.524 . S
C1970 C1984 1.377 . S
C1971 C1970 1.524 . S
C1971 C1972 1.397 1_655 S
C1971 C1976 1.363 . S
C1972 H1949 0.950 . S
C1972 C1971 1.397 1_455 S
C1972 C1973 1.343 . S
C1973 H1950 0.985 . S
C1973 C1972 1.343 . S
C1973 C1974 1.243 1_455 S
C1974 C1973 1.243 1_655 S
C1974 C1975 1.524 . S
C1974 H1993 0.913 . S
C1975 H1951 0.950 . S
C1975 C1974 1.524 . S
C1975 C1976 1.415 . S
C1976 H1952 0.950 . S
C1976 C1971 1.363 . S
C1976 C1975 1.415 . S
C1977 H1953 0.951 1_655 S
C1977 C1978 1.366 . S
C1977 C1979 1.388 1_655 S
C1978 C1977 1.366 . S
C1978 C1982 1.385 . S
C1979 H1954 0.951 . S
C1979 C1977 1.388 1_455 S
C1979 C1980 1.366 1_455 S
C1980 C1979 1.366 1_655 S
C1980 C1981 1.414 . S
C1980 C1983 1.499 . S
C1981 H1955 0.950 . S
C1981 C1980 1.414 . S
C1981 C1982 1.374 . S
C1982 H1956 0.950 . S
C1982 C1978 1.385 . S
C1982 C1981 1.374 . S
C1983 C1980 1.499 . S
C1983 C1984 1.373 . S
C1983 C1985 1.389 1_655 S
C1984 H1957 0.950 . S
C1984 C1970 1.377 . S
C1984 C1983 1.373 . S
C1985 C1969 1.377 . S
C1985 C1983 1.389 1_455 S
C1985 C1986 1.524 . S
C1986 C1985 1.524 . S
C1986 C1987 1.397 1_455 S
C1986 C1991 1.363 . S
C1987 H1958 0.950 . S
C1987 C1986 1.397 1_655 S
C1987 C1988 1.343 . S
C1988 H1959 0.985 . S
C1988 C1987 1.343 . S
C1988 C1989 1.243 1_655 S
C1989 C1988 1.243 1_455 S
C1989 C1990 1.524 . S
C1989 H1992 0.999 . S
C1990 H1960 0.950 . S
C1990 C1989 1.524 . S
C1990 C1991 1.415 . S
C1991 H1961 0.950 . S
C1991 C1986 1.363 . S
C1991 C1990 1.415 . S
H1992 C1989 0.999 . S
H1993 C1974 0.913 . S
H1994 C2012 0.951 . S
H1995 C2014 0.951 . S
H1996 C2016 0.950 . S
H1997 C2017 0.950 . S
H1998 C2019 0.950 . S
H1999 C2022 0.950 . S
H2000 C2023 0.950 . S
H2001 C2025 0.950 . S
H2002 C2026 0.950 . S
H2003 C2027 0.951 . S
H2004 C2029 0.951 . S
H2005 C2031 0.950 . S
H2006 C2032 0.950 . S
H2007 C2034 0.950 . S
H2008 C2037 0.950 . S
H2009 C2038 0.950 . S
H2010 C2040 0.950 . S
H2011 C2041 0.950 . S
C2012 H1994 0.951 . S
C2012 C2013 1.366 . S
C2012 C2014 1.388 . S
C2013 C2012 1.366 . S
C2013 C2017 1.385 . S
C2014 H1995 0.951 . S
C2014 C2012 1.388 . S
C2014 C2015 1.366 . S
C2015 C2014 1.366 . S
C2015 C2016 1.414 . S
C2015 C2018 1.499 . S
C2016 H1996 0.950 . S
C2016 C2015 1.414 . S
C2016 C2017 1.374 . S
C2017 H1997 0.950 . S
C2017 C2013 1.385 . S
C2017 C2016 1.374 . S
C2018 C2015 1.499 . S
C2018 C2019 1.373 . S
C2018 C2020 1.389 . S
C2019 H1998 0.950 . S
C2019 C2018 1.373 . S
C2019 C2035 1.377 . S
C2020 C2018 1.389 . S
C2020 C2021 1.524 . S
C2020 C2034 1.377 . S
C2021 C2020 1.524 . S
C2021 C2022 1.397 . S
C2021 C2026 1.363 . S
C2022 H1999 0.950 . S
C2022 C2021 1.397 . S
C2022 C2023 1.334 . S
C2023 H2000 0.950 . S
C2023 C2022 1.334 . S
C2023 C2024 1.287 . S
C2024 C2023 1.287 . S
C2024 C2025 1.524 . S
C2024 H2043 0.913 . S
C2025 H2001 0.950 . S
C2025 C2024 1.524 . S
C2025 C2026 1.415 . S
C2026 H2002 0.950 . S
C2026 C2021 1.363 . S
C2026 C2025 1.415 . S
C2027 H2003 0.951 . S
C2027 C2028 1.366 . S
C2027 C2029 1.388 . S
C2028 C2027 1.366 . S
C2028 C2032 1.385 . S
C2029 H2004 0.951 . S
C2029 C2027 1.388 . S
C2029 C2030 1.366 . S
C2030 C2029 1.366 . S
C2030 C2031 1.414 . S
C2030 C2033 1.499 . S
C2031 H2005 0.950 . S
C2031 C2030 1.414 . S
C2031 C2032 1.374 . S
C2032 H2006 0.950 . S
C2032 C2028 1.385 . S
C2032 C2031 1.374 . S
C2033 C2030 1.499 . S
C2033 C2034 1.373 . S
C2033 C2035 1.389 . S
C2034 H2007 0.950 . S
C2034 C2020 1.377 . S
C2034 C2033 1.373 . S
C2035 C2019 1.377 . S
C2035 C2033 1.389 . S
C2035 C2036 1.524 . S
C2036 C2035 1.524 . S
C2036 C2037 1.397 . S
C2036 C2041 1.363 . S
C2037 H2008 0.950 . S
C2037 C2036 1.397 . S
C2037 C2038 1.334 . S
C2038 H2009 0.950 . S
C2038 C2037 1.334 . S
C2038 C2039 1.287 . S
C2039 C2038 1.287 . S
C2039 C2040 1.524 . S
C2039 H2042 0.999 . S
C2040 H2010 0.950 . S
C2040 C2039 1.524 . S
C2040 C2041 1.415 . S
C2041 H2011 0.950 . S
C2041 C2036 1.363 . S
C2041 C2040 1.415 . S
H2042 C2039 0.999 . S
H2043 C2024 0.913 . S
H2044 C2062 0.951 . S
H2045 C2064 0.951 . S
H2046 C2066 0.950 . S
H2047 C2067 0.950 . S
H2048 C2069 0.950 . S
H2049 C2072 0.950 . S
H2050 C2073 0.950 . S
H2051 C2075 0.950 . S
H2052 C2076 0.950 . S
H2053 C2077 0.951 . S
H2054 C2079 0.951 . S
H2055 C2081 0.950 . S
H2056 C2082 0.950 . S
H2057 C2084 0.950 . S
H2058 C2087 0.950 . S
H2059 C2088 0.950 . S
H2060 C2090 0.950 . S
H2061 C2091 0.950 . S
C2062 H2044 0.951 . S
C2062 C2063 1.366 . S
C2062 C2064 1.388 . S
C2063 C2062 1.366 . S
C2063 C2067 1.385 . S
C2064 H2045 0.951 . S
C2064 C2062 1.388 . S
C2064 C2065 1.366 . S
C2065 C2064 1.366 . S
C2065 C2066 1.414 . S
C2065 C2068 1.499 . S
C2066 H2046 0.950 . S
C2066 C2065 1.414 . S
C2066 C2067 1.374 . S
C2067 H2047 0.950 . S
C2067 C2063 1.385 . S
C2067 C2066 1.374 . S
C2068 C2065 1.499 . S
C2068 C2069 1.373 . S
C2068 C2070 1.389 . S
C2069 H2048 0.950 . S
C2069 C2068 1.373 . S
C2069 C2085 1.377 . S
C2070 C2068 1.389 . S
C2070 C2071 1.524 . S
C2070 C2084 1.377 . S
C2071 C2070 1.524 . S
C2071 C2072 1.397 . S
C2071 C2076 1.363 . S
C2072 H2049 0.950 . S
C2072 C2071 1.397 . S
C2072 C2073 1.334 . S
C2073 H2050 0.950 . S
C2073 C2072 1.334 . S
C2073 C2074 1.287 . S
C2074 C2073 1.287 . S
C2074 C2075 1.524 . S
C2074 H2093 0.913 . S
C2075 H2051 0.950 . S
C2075 C2074 1.524 . S
C2075 C2076 1.415 . S
C2076 H2052 0.950 . S
C2076 C2071 1.363 . S
C2076 C2075 1.415 . S
C2077 H2053 0.951 . S
C2077 C2078 1.366 . S
C2077 C2079 1.388 . S
C2078 C2077 1.366 . S
C2078 C2082 1.385 . S
C2079 H2054 0.951 . S
C2079 C2077 1.388 . S
C2079 C2080 1.366 . S
C2080 C2079 1.366 . S
C2080 C2081 1.414 . S
C2080 C2083 1.499 . S
C2081 H2055 0.950 . S
C2081 C2080 1.414 . S
C2081 C2082 1.374 . S
C2082 H2056 0.950 . S
C2082 C2078 1.385 . S
C2082 C2081 1.374 . S
C2083 C2080 1.499 . S
C2083 C2084 1.373 . S
C2083 C2085 1.389 . S
C2084 H2057 0.950 . S
C2084 C2070 1.377 . S
C2084 C2083 1.373 . S
C2085 C2069 1.377 . S
C2085 C2083 1.389 . S
C2085 C2086 1.524 . S
C2086 C2085 1.524 . S
C2086 C2087 1.397 . S
C2086 C2091 1.363 . S
C2087 H2058 0.950 . S
C2087 C2086 1.397 . S
C2087 C2088 1.334 . S
C2088 H2059 0.950 . S
C2088 C2087 1.334 . S
C2088 C2089 1.287 . S
C2089 C2088 1.287 . S
C2089 C2090 1.524 . S
C2089 H2092 0.999 . S
C2090 H2060 0.950 . S
C2090 C2089 1.524 . S
C2090 C2091 1.415 . S
C2091 H2061 0.950 . S
C2091 C2086 1.363 . S
C2091 C2090 1.415 . S
H2092 C2089 0.999 . S
H2093 C2074 0.913 . S
H2094 C2112 0.951 . S
H2095 C2114 0.951 . S
H2096 C2116 0.950 . S
H2097 C2117 0.950 . S
H2098 C2119 0.950 . S
H2099 C2122 0.950 . S
H2100 C2123 0.950 . S
H2101 C2125 0.950 . S
H2102 C2126 0.950 . S
H2103 C2127 0.951 . S
H2104 C2129 0.951 . S
H2105 C2131 0.950 . S
H2106 C2132 0.950 . S
H2107 C2134 0.950 . S
H2108 C2137 0.950 . S
H2109 C2138 0.950 . S
H2110 C2140 0.950 . S
H2111 C2141 0.950 . S
C2112 H2094 0.951 . S
C2112 C2113 1.366 . S
C2112 C2114 1.388 . S
C2113 C2112 1.366 . S
C2113 C2117 1.385 . S
C2114 H2095 0.951 . S
C2114 C2112 1.388 . S
C2114 C2115 1.366 . S
C2115 C2114 1.366 . S
C2115 C2116 1.414 . S
C2115 C2118 1.499 . S
C2116 H2096 0.950 . S
C2116 C2115 1.414 . S
C2116 C2117 1.374 . S
C2117 H2097 0.950 . S
C2117 C2113 1.385 . S
C2117 C2116 1.374 . S
C2118 C2115 1.499 . S
C2118 C2119 1.373 1_455 S
C2118 C2120 1.389 . S
C2119 H2098 0.950 . S
C2119 C2118 1.373 1_655 S
C2119 C2135 1.377 . S
C2120 C2118 1.389 . S
C2120 C2121 1.524 . S
C2120 C2134 1.377 . S
C2121 C2120 1.524 . S
C2121 C2122 1.397 . S
C2121 C2126 1.363 . S
C2122 H2099 0.950 . S
C2122 C2121 1.397 . S
C2122 C2123 1.334 . S
C2123 H2100 0.950 . S
C2123 C2122 1.334 . S
C2123 C2124 1.287 . S
C2124 C2123 1.287 . S
C2124 C2125 1.524 . S
C2124 H2143 0.913 . S
C2125 H2101 0.950 . S
C2125 C2124 1.524 . S
C2125 C2126 1.415 . S
C2126 H2102 0.950 . S
C2126 C2121 1.363 . S
C2126 C2125 1.415 . S
C2127 H2103 0.951 . S
C2127 C2128 1.366 . S
C2127 C2129 1.388 . S
C2128 C2127 1.366 . S
C2128 C2132 1.385 . S
C2129 H2104 0.951 . S
C2129 C2127 1.388 . S
C2129 C2130 1.366 . S
C2130 C2129 1.366 . S
C2130 C2131 1.414 . S
C2130 C2133 1.499 . S
C2131 H2105 0.950 . S
C2131 C2130 1.414 . S
C2131 C2132 1.374 . S
C2132 H2106 0.950 . S
C2132 C2128 1.385 . S
C2132 C2131 1.374 . S
C2133 C2130 1.499 . S
C2133 C2134 1.373 1_655 S
C2133 C2135 1.389 . S
C2134 H2107 0.950 . S
C2134 C2120 1.377 . S
C2134 C2133 1.373 1_455 S
C2135 C2119 1.377 . S
C2135 C2133 1.389 . S
C2135 C2136 1.524 . S
C2136 C2135 1.524 . S
C2136 C2137 1.397 . S
C2136 C2141 1.363 . S
C2137 H2108 0.950 . S
C2137 C2136 1.397 . S
C2137 C2138 1.334 . S
C2138 H2109 0.950 . S
C2138 C2137 1.334 . S
C2138 C2139 1.287 . S
C2139 C2138 1.287 . S
C2139 C2140 1.524 . S
C2139 H2142 0.999 . S
C2140 H2110 0.950 . S
C2140 C2139 1.524 . S
C2140 C2141 1.415 . S
C2141 H2111 0.950 . S
C2141 C2136 1.363 . S
C2141 C2140 1.415 . S
H2142 C2139 0.999 . S
H2143 C2124 0.913 . S
H2144 C2162 0.951 . S
H2145 C2164 0.951 . S
H2146 C2166 0.950 1_545 S
H2147 C2167 0.950 . S
H2148 C2169 0.950 . S
H2149 C2172 0.950 . S
H2150 C2173 0.950 . S
H2151 C2175 0.950 . S
H2152 C2176 0.950 . S
H2153 C2177 0.951 . S
H2154 C2179 0.951 . S
H2155 C2181 0.950 1_565 S
H2156 C2182 0.950 . S
H2157 C2184 0.950 . S
H2158 C2187 0.950 . S
H2159 C2188 0.950 . S
H2160 C2190 0.950 . S
H2161 C2191 0.950 . S
C2162 H2144 0.951 . S
C2162 C2163 1.366 . S
C2162 C2164 1.388 . S
C2163 C2162 1.366 . S
C2163 C2167 1.385 . S
C2164 H2145 0.951 . S
C2164 C2162 1.388 . S
C2164 C2165 1.366 . S
C2165 C2164 1.366 . S
C2165 C2166 1.414 . S
C2165 C2168 1.499 . S
C2166 H2146 0.950 1_565 S
C2166 C2165 1.414 . S
C2166 C2167 1.374 . S
C2167 H2147 0.950 . S
C2167 C2163 1.385 . S
C2167 C2166 1.374 . S
C2168 C2165 1.499 . S
C2168 C2169 1.373 1_665 S
C2168 C2170 1.393 . S
C2169 H2148 0.950 . S
C2169 C2168 1.373 1_445 S
C2169 C2185 1.373 1_556 S
C2170 C2168 1.393 . S
C2170 C2171 1.524 1_556 S
C2170 C2184 1.373 1_556 S
C2171 C2170 1.524 1_554 S
C2171 C2172 1.397 1_554 S
C2171 C2176 1.363 . S
C2172 H2149 0.950 . S
C2172 C2171 1.397 1_556 S
C2172 C2173 1.334 . S
C2173 H2150 0.950 . S
C2173 C2172 1.334 . S
C2173 C2174 1.287 1_556 S
C2174 C2173 1.287 1_554 S
C2174 C2175 1.524 . S
C2174 H2193 0.913 . S
C2175 H2151 0.950 . S
C2175 C2174 1.524 . S
C2175 C2176 1.415 . S
C2176 H2152 0.950 . S
C2176 C2171 1.363 . S
C2176 C2175 1.415 . S
C2177 H2153 0.951 . S
C2177 C2178 1.366 . S
C2177 C2179 1.388 . S
C2178 C2177 1.366 . S
C2178 C2182 1.385 . S
C2179 H2154 0.951 . S
C2179 C2177 1.388 . S
C2179 C2180 1.366 . S
C2180 C2179 1.366 . S
C2180 C2181 1.414 . S
C2180 C2183 1.499 . S
C2181 H2155 0.950 1_545 S
C2181 C2180 1.414 . S
C2181 C2182 1.374 . S
C2182 H2156 0.950 . S
C2182 C2178 1.385 . S
C2182 C2181 1.374 . S
C2183 C2180 1.499 . S
C2183 C2184 1.373 1_445 S
C2183 C2185 1.393 . S
C2184 H2157 0.950 . S
C2184 C2170 1.373 1_554 S
C2184 C2183 1.373 1_665 S
C2185 C2169 1.373 1_554 S
C2185 C2183 1.393 . S
C2185 C2186 1.524 1_554 S
C2186 C2185 1.524 1_556 S
C2186 C2187 1.397 1_556 S
C2186 C2191 1.363 . S
C2187 H2158 0.950 . S
C2187 C2186 1.397 1_554 S
C2187 C2188 1.334 . S
C2188 H2159 0.950 . S
C2188 C2187 1.334 . S
C2188 C2189 1.287 1_554 S
C2189 C2188 1.287 1_556 S
C2189 C2190 1.524 . S
C2189 H2192 0.999 . S
C2190 H2160 0.950 . S
C2190 C2189 1.524 . S
C2190 C2191 1.415 . S
C2191 H2161 0.950 . S
C2191 C2186 1.363 . S
C2191 C2190 1.415 . S
H2192 C2189 0.999 . S
H2193 C2174 0.913 . S
H2194 C2212 0.951 . S
H2195 C2214 0.951 1_565 S
H2196 C2216 0.950 . S
H2197 C2217 0.950 . S
H2198 C2219 0.950 . S
H2199 C2222 0.950 . S
H2200 C2223 0.950 . S
H2201 C2225 0.950 . S
H2202 C2226 0.950 . S
H2203 C2227 0.951 . S
H2204 C2229 0.951 1_545 S
H2205 C2231 0.950 . S
H2206 C2232 0.950 . S
H2207 C2234 0.950 . S
H2208 C2237 0.950 . S
H2209 C2238 0.950 . S
H2210 C2240 0.950 . S
H2211 C2241 0.950 . S
C2212 H2194 0.951 . S
C2212 C2213 1.366 . S
C2212 C2214 1.388 . S
C2213 C2212 1.366 . S
C2213 C2217 1.385 . S
C2214 H2195 0.951 1_545 S
C2214 C2212 1.388 . S
C2214 C2215 1.366 . S
C2215 C2214 1.366 . S
C2215 C2216 1.414 . S
C2215 C2218 1.499 . S
C2216 H2196 0.950 . S
C2216 C2215 1.414 . S
C2216 C2217 1.374 . S
C2217 H2197 0.950 . S
C2217 C2213 1.385 . S
C2217 C2216 1.374 . S
C2218 C2215 1.499 . S
C2218 C2219 1.373 . S
C2218 C2220 1.389 1_545 S
C2219 H2198 0.950 . S
C2219 C2218 1.373 . S
C2219 C2235 1.377 1_556 S
C2220 C2218 1.389 1_565 S
C2220 C2221 1.524 . S
C2220 C2234 1.377 1_556 S
C2221 C2220 1.524 . S
C2221 C2222 1.397 . S
C2221 C2226 1.363 . S
C2222 H2199 0.950 . S
C2222 C2221 1.397 . S
C2222 C2223 1.334 . S
C2223 H2200 0.950 . S
C2223 C2222 1.334 . S
C2223 C2224 1.287 . S
C2224 C2223 1.287 . S
C2224 C2225 1.524 . S
C2224 H2243 0.913 . S
C2225 H2201 0.950 . S
C2225 C2224 1.524 . S
C2225 C2226 1.415 . S
C2226 H2202 0.950 . S
C2226 C2221 1.363 . S
C2226 C2225 1.415 . S
C2227 H2203 0.951 . S
C2227 C2228 1.366 . S
C2227 C2229 1.388 . S
C2228 C2227 1.366 . S
C2228 C2232 1.385 . S
C2229 H2204 0.951 1_565 S
C2229 C2227 1.388 . S
C2229 C2230 1.366 . S
C2230 C2229 1.366 . S
C2230 C2231 1.414 . S
C2230 C2233 1.499 . S
C2231 H2205 0.950 . S
C2231 C2230 1.414 . S
C2231 C2232 1.374 . S
C2232 H2206 0.950 . S
C2232 C2228 1.385 . S
C2232 C2231 1.374 . S
C2233 C2230 1.499 . S
C2233 C2234 1.373 . S
C2233 C2235 1.389 1_565 S
C2234 H2207 0.950 . S
C2234 C2220 1.377 1_554 S
C2234 C2233 1.373 . S
C2235 C2219 1.377 1_554 S
C2235 C2233 1.389 1_545 S
C2235 C2236 1.524 . S
C2236 C2235 1.524 . S
C2236 C2237 1.397 . S
C2236 C2241 1.363 . S
C2237 H2208 0.950 . S
C2237 C2236 1.397 . S
C2237 C2238 1.334 . S
C2238 H2209 0.950 . S
C2238 C2237 1.334 . S
C2238 C2239 1.287 . S
C2239 C2238 1.287 . S
C2239 C2240 1.524 . S
C2239 H2242 0.999 . S
C2240 H2210 0.950 . S
C2240 C2239 1.524 . S
C2240 C2241 1.415 . S
C2241 H2211 0.950 . S
C2241 C2236 1.363 . S
C2241 C2240 1.415 . S
H2242 C2239 0.999 . S
H2243 C2224 0.913 . S
H2244 C2262 0.951 . S
H2245 C2264 0.951 . S
H2246 C2266 0.950 . S
H2247 C2267 0.950 . S
H2248 C2269 0.950 . S
H2249 C2272 0.950 . S
H2250 C2273 0.950 . S
H2251 C2275 0.950 . S
H2252 C2276 0.950 . S
H2253 C2277 0.951 . S
H2254 C2279 0.951 . S
H2255 C2281 0.950 . S
H2256 C2282 0.950 . S
H2257 C2284 0.950 . S
H2258 C2287 0.950 . S
H2259 C2288 0.950 . S
H2260 C2290 0.950 . S
H2261 C2291 0.950 . S
C2262 H2244 0.951 . S
C2262 C2263 1.366 . S
C2262 C2264 1.388 . S
C2263 C2262 1.366 . S
C2263 C2267 1.385 . S
C2264 H2245 0.951 . S
C2264 C2262 1.388 . S
C2264 C2265 1.366 . S
C2265 C2264 1.366 . S
C2265 C2266 1.414 . S
C2265 C2268 1.499 . S
C2266 H2246 0.950 . S
C2266 C2265 1.414 . S
C2266 C2267 1.374 . S
C2267 H2247 0.950 . S
C2267 C2263 1.385 . S
C2267 C2266 1.374 . S
C2268 C2265 1.499 . S
C2268 C2269 1.373 1_545 S
C2268 C2270 1.389 . S
C2269 H2248 0.950 . S
C2269 C2268 1.373 1_565 S
C2269 C2285 1.377 . S
C2270 C2268 1.389 . S
C2270 C2271 1.524 . S
C2270 C2284 1.377 . S
C2271 C2270 1.524 . S
C2271 C2272 1.397 . S
C2271 C2276 1.363 . S
C2272 H2249 0.950 . S
C2272 C2271 1.397 . S
C2272 C2273 1.334 . S
C2273 H2250 0.950 . S
C2273 C2272 1.334 . S
C2273 C2274 1.287 . S
C2274 C2273 1.287 . S
C2274 C2275 1.524 . S
C2274 H2293 0.913 . S
C2275 H2251 0.950 . S
C2275 C2274 1.524 . S
C2275 C2276 1.415 . S
C2276 H2252 0.950 . S
C2276 C2271 1.363 . S
C2276 C2275 1.415 . S
C2277 H2253 0.951 . S
C2277 C2278 1.366 . S
C2277 C2279 1.388 . S
C2278 C2277 1.366 . S
C2278 C2282 1.385 . S
C2279 H2254 0.951 . S
C2279 C2277 1.388 . S
C2279 C2280 1.366 . S
C2280 C2279 1.366 . S
C2280 C2281 1.414 . S
C2280 C2283 1.499 . S
C2281 H2255 0.950 . S
C2281 C2280 1.414 . S
C2281 C2282 1.374 . S
C2282 H2256 0.950 . S
C2282 C2278 1.385 . S
C2282 C2281 1.374 . S
C2283 C2280 1.499 . S
C2283 C2284 1.373 1_565 S
C2283 C2285 1.389 . S
C2284 H2257 0.950 . S
C2284 C2270 1.377 . S
C2284 C2283 1.373 1_545 S
C2285 C2269 1.377 . S
C2285 C2283 1.389 . S
C2285 C2286 1.524 . S
C2286 C2285 1.524 . S
C2286 C2287 1.397 . S
C2286 C2291 1.363 . S
C2287 H2258 0.950 . S
C2287 C2286 1.397 . S
C2287 C2288 1.334 . S
C2288 H2259 0.950 . S
C2288 C2287 1.334 . S
C2288 C2289 1.287 . S
C2289 C2288 1.287 . S
C2289 C2290 1.524 . S
C2289 H2292 0.999 . S
C2290 H2260 0.950 . S
C2290 C2289 1.524 . S
C2290 C2291 1.415 . S
C2291 H2261 0.950 . S
C2291 C2286 1.363 . S
C2291 C2290 1.415 . S
H2292 C2289 0.999 . S
H2293 C2274 0.913 . S
H2294 C2312 0.951 . S
H2295 C2314 0.951 . S
H2296 C2316 0.950 1_655 S
H2297 C2317 0.924 1_655 S
H2298 C2319 0.950 . S
H2299 C2322 0.950 1_655 S
H2300 C2323 0.933 1_655 S
H2301 C2325 0.950 . S
H2302 C2326 0.950 . S
H2303 C2327 0.951 . S
H2304 C2329 0.951 . S
H2305 C2331 0.950 1_455 S
H2306 C2332 0.924 1_455 S
H2307 C2334 0.950 . S
H2308 C2337 0.950 1_455 S
H2309 C2338 0.933 1_455 S
H2310 C2340 0.950 . S
H2311 C2341 0.950 . S
C2312 H2294 0.951 . S
C2312 C2313 1.366 . S
C2312 C2314 1.388 . S
C2313 C2312 1.366 . S
C2313 C2317 1.385 . S
C2314 H2295 0.951 . S
C2314 C2312 1.388 . S
C2314 C2315 1.366 . S
C2315 C2314 1.366 . S
C2315 C2316 1.414 . S
C2315 C2318 1.499 . S
C2316 H2296 0.950 1_455 S
C2316 C2315 1.414 . S
C2316 C2317 1.374 . S
C2317 H2297 0.924 1_455 S
C2317 C2313 1.385 . S
C2317 C2316 1.374 . S
C2318 C2315 1.499 . S
C2318 C2319 1.373 1_455 S
C2318 C2320 1.389 1_565 S
C2319 H2298 0.950 . S
C2319 C2318 1.373 1_655 S
C2319 C2335 1.377 . S
C2320 C2318 1.389 1_545 S
C2320 C2321 1.524 . S
C2320 C2334 1.377 . S
C2321 C2320 1.524 . S
C2321 C2322 1.397 . S
C2321 C2326 1.363 . S
C2322 H2299 0.950 1_455 S
C2322 C2321 1.397 . S
C2322 C2323 1.334 . S
C2323 H2300 0.933 1_455 S
C2323 C2322 1.334 . S
C2323 C2324 1.287 . S
C2324 C2323 1.287 . S
C2324 C2325 1.524 . S
C2324 H2343 0.913 . S
C2325 H2301 0.950 . S
C2325 C2324 1.524 . S
C2325 C2326 1.415 . S
C2326 H2302 0.950 . S
C2326 C2321 1.363 . S
C2326 C2325 1.415 . S
C2327 H2303 0.951 . S
C2327 C2328 1.366 . S
C2327 C2329 1.388 . S
C2328 C2327 1.366 . S
C2328 C2332 1.385 . S
C2329 H2304 0.951 . S
C2329 C2327 1.388 . S
C2329 C2330 1.366 . S
C2330 C2329 1.366 . S
C2330 C2331 1.414 . S
C2330 C2333 1.499 . S
C2331 H2305 0.950 1_655 S
C2331 C2330 1.414 . S
C2331 C2332 1.374 . S
C2332 H2306 0.924 1_655 S
C2332 C2328 1.385 . S
C2332 C2331 1.374 . S
C2333 C2330 1.499 . S
C2333 C2334 1.373 1_655 S
C2333 C2335 1.389 1_545 S
C2334 H2307 0.950 . S
C2334 C2320 1.377 . S
C2334 C2333 1.373 1_455 S
C2335 C2319 1.377 . S
C2335 C2333 1.389 1_565 S
C2335 C2336 1.524 . S
C2336 C2335 1.524 . S
C2336 C2337 1.397 . S
C2336 C2341 1.363 . S
C2337 H2308 0.950 1_655 S
C2337 C2336 1.397 . S
C2337 C2338 1.334 . S
C2338 H2309 0.933 1_655 S
C2338 C2337 1.334 . S
C2338 C2339 1.287 . S
C2339 C2338 1.287 . S
C2339 C2340 1.524 . S
C2339 H2342 0.999 . S
C2340 H2310 0.950 . S
C2340 C2339 1.524 . S
C2340 C2341 1.415 . S
C2341 H2311 0.950 . S
C2341 C2336 1.363 . S
C2341 C2340 1.415 . S
H2342 C2339 0.999 . S
H2343 C2324 0.913 . S
H2344 C2362 0.951 . S
H2345 C2364 0.951 . S
H2346 C2366 0.950 . S
H2347 C2367 0.950 . S
H2348 C2369 0.950 . S
H2349 C2372 0.950 . S
H2350 C2373 0.950 . S
H2351 C2375 0.950 . S
H2352 C2376 0.950 . S
H2353 C2377 0.951 . S
H2354 C2379 0.951 . S
H2355 C2381 0.950 . S
H2356 C2382 0.950 . S
H2357 C2384 0.950 . S
H2358 C2387 0.950 . S
H2359 C2388 0.950 . S
H2360 C2390 0.950 . S
H2361 C2391 0.950 . S
C2362 H2344 0.951 . S
C2362 C2363 1.366 . S
C2362 C2364 1.388 . S
C2363 C2362 1.366 . S
C2363 C2367 1.385 . S
C2364 H2345 0.951 . S
C2364 C2362 1.388 . S
C2364 C2365 1.366 . S
C2365 C2364 1.366 . S
C2365 C2366 1.414 . S
C2365 C2368 1.499 . S
C2366 H2346 0.950 . S
C2366 C2365 1.414 . S
C2366 C2367 1.374 . S
C2367 H2347 0.950 . S
C2367 C2363 1.385 . S
C2367 C2366 1.374 . S
C2368 C2365 1.499 . S
C2368 C2369 1.373 . S
C2368 C2370 1.389 . S
C2369 H2348 0.950 . S
C2369 C2368 1.373 . S
C2369 C2385 1.377 1_554 S
C2370 C2368 1.389 . S
C2370 C2371 1.524 . S
C2370 C2384 1.377 1_554 S
C2371 C2370 1.524 . S
C2371 C2372 1.397 . S
C2371 C2376 1.363 . S
C2372 H2349 0.950 . S
C2372 C2371 1.397 . S
C2372 C2373 1.334 . S
C2373 H2350 0.950 . S
C2373 C2372 1.334 . S
C2373 C2374 1.287 . S
C2374 C2373 1.287 . S
C2374 C2375 1.524 . S
C2374 H2393 0.913 . S
C2375 H2351 0.950 . S
C2375 C2374 1.524 . S
C2375 C2376 1.415 . S
C2376 H2352 0.950 . S
C2376 C2371 1.363 . S
C2376 C2375 1.415 . S
C2377 H2353 0.951 . S
C2377 C2378 1.366 . S
C2377 C2379 1.388 . S
C2378 C2377 1.366 . S
C2378 C2382 1.385 . S
C2379 H2354 0.951 . S
C2379 C2377 1.388 . S
C2379 C2380 1.366 . S
C2380 C2379 1.366 . S
C2380 C2381 1.414 . S
C2380 C2383 1.499 . S
C2381 H2355 0.950 . S
C2381 C2380 1.414 . S
C2381 C2382 1.374 . S
C2382 H2356 0.950 . S
C2382 C2378 1.385 . S
C2382 C2381 1.374 . S
C2383 C2380 1.499 . S
C2383 C2384 1.373 . S
C2383 C2385 1.389 . S
C2384 H2357 0.950 . S
C2384 C2370 1.377 1_556 S
C2384 C2383 1.373 . S
C2385 C2369 1.377 1_556 S
C2385 C2383 1.389 . S
C2385 C2386 1.524 . S
C2386 C2385 1.524 . S
C2386 C2387 1.397 . S
C2386 C2391 1.363 . S
C2387 H2358 0.950 . S
C2387 C2386 1.397 . S
C2387 C2388 1.334 . S
C2388 H2359 0.950 . S
C2388 C2387 1.334 . S
C2388 C2389 1.287 . S
C2389 C2388 1.287 . S
C2389 C2390 1.524 . S
C2389 H2392 0.999 . S
C2390 H2360 0.950 . S
C2390 C2389 1.524 . S
C2390 C2391 1.415 . S
C2391 H2361 0.950 . S
C2391 C2386 1.363 . S
C2391 C2390 1.415 . S
H2392 C2389 0.999 . S
H2393 C2374 0.913 . S
H2394 C2412 0.951 . S
H2395 C2414 0.951 . S
H2396 C2416 0.950 1_455 S
H2397 C2417 0.950 . S
H2398 C2419 0.950 . S
H2399 C2422 0.950 . S
H2400 C2423 0.950 . S
H2401 C2425 0.950 . S
H2402 C2426 0.950 . S
H2403 C2427 0.951 . S
H2404 C2429 0.951 . S
H2405 C2431 0.950 1_655 S
H2406 C2432 0.950 . S
H2407 C2434 0.950 . S
H2408 C2437 0.950 . S
H2409 C2438 0.950 . S
H2410 C2440 0.950 . S
H2411 C2441 0.950 . S
C2412 H2394 0.951 . S
C2412 C2413 1.366 . S
C2412 C2414 1.388 . S
C2413 C2412 1.366 . S
C2413 C2417 1.385 . S
C2414 H2395 0.951 . S
C2414 C2412 1.388 . S
C2414 C2415 1.366 . S
C2415 C2414 1.366 . S
C2415 C2416 1.414 . S
C2415 C2418 1.499 . S
C2416 H2396 0.950 1_655 S
C2416 C2415 1.414 . S
C2416 C2417 1.374 . S
C2417 H2397 0.950 . S
C2417 C2413 1.385 . S
C2417 C2416 1.374 . S
C2418 C2415 1.499 . S
C2418 C2419 1.373 1_655 S
C2418 C2420 1.389 . S
C2419 H2398 0.950 . S
C2419 C2418 1.373 1_455 S
C2419 C2435 1.377 1_554 S
C2420 C2418 1.389 . S
C2420 C2421 1.524 . S
C2420 C2434 1.377 1_554 S
C2421 C2420 1.524 . S
C2421 C2422 1.397 . S
C2421 C2426 1.363 1_554 S
C2422 H2399 0.950 . S
C2422 C2421 1.397 . S
C2422 C2423 1.334 . S
C2423 H2400 0.950 . S
C2423 C2422 1.334 . S
C2423 C2424 1.287 . S
C2424 C2423 1.287 . S
C2424 C2425 1.524 1_554 S
C2424 H2443 0.913 . S
C2425 H2401 0.950 . S
C2425 C2424 1.524 1_556 S
C2425 C2426 1.415 . S
C2426 H2402 0.950 . S
C2426 C2421 1.363 1_556 S
C2426 C2425 1.415 . S
C2427 H2403 0.951 . S
C2427 C2428 1.366 . S
C2427 C2429 1.388 . S
C2428 C2427 1.366 . S
C2428 C2432 1.385 . S
C2429 H2404 0.951 . S
C2429 C2427 1.388 . S
C2429 C2430 1.366 . S
C2430 C2429 1.366 . S
C2430 C2431 1.414 . S
C2430 C2433 1.499 . S
C2431 H2405 0.950 1_455 S
C2431 C2430 1.414 . S
C2431 C2432 1.374 . S
C2432 H2406 0.950 . S
C2432 C2428 1.385 . S
C2432 C2431 1.374 . S
C2433 C2430 1.499 . S
C2433 C2434 1.373 1_455 S
C2433 C2435 1.389 . S
C2434 H2407 0.950 . S
C2434 C2420 1.377 1_556 S
C2434 C2433 1.373 1_655 S
C2435 C2419 1.377 1_556 S
C2435 C2433 1.389 . S
C2435 C2436 1.524 . S
C2436 C2435 1.524 . S
C2436 C2437 1.397 . S
C2436 C2441 1.363 1_556 S
C2437 H2408 0.950 . S
C2437 C2436 1.397 . S
C2437 C2438 1.334 . S
C2438 H2409 0.950 . S
C2438 C2437 1.334 . S
C2438 C2439 1.287 . S
C2439 C2438 1.287 . S
C2439 C2440 1.524 1_556 S
C2439 H2442 0.999 . S
C2440 H2410 0.950 . S
C2440 C2439 1.524 1_554 S
C2440 C2441 1.415 . S
C2441 H2411 0.950 . S
C2441 C2436 1.363 1_554 S
C2441 C2440 1.415 . S
H2442 C2439 0.999 . S
H2443 C2424 0.913 . S
H2444 C2462 0.951 . S
H2445 C2464 0.951 1_455 S
H2446 C2466 0.950 . S
H2447 C2467 0.950 . S
H2448 C2469 0.950 . S
H2449 C2472 0.950 . S
H2450 C2473 0.950 . S
H2451 C2475 0.950 . S
H2452 C2476 0.950 . S
H2453 C2477 0.951 . S
H2454 C2479 0.951 1_655 S
H2455 C2481 0.950 . S
H2456 C2482 0.950 . S
H2457 C2484 0.950 . S
H2458 C2487 0.950 . S
H2459 C2488 0.950 . S
H2460 C2490 0.950 . S
H2461 C2491 0.950 . S
C2462 H2444 0.951 . S
C2462 C2463 1.366 . S
C2462 C2464 1.388 . S
C2463 C2462 1.366 . S
C2463 C2467 1.385 . S
C2464 H2445 0.951 1_655 S
C2464 C2462 1.388 . S
C2464 C2465 1.366 . S
C2465 C2464 1.366 . S
C2465 C2466 1.414 . S
C2465 C2468 1.499 . S
C2466 H2446 0.950 . S
C2466 C2465 1.414 . S
C2466 C2467 1.374 . S
C2467 H2447 0.950 . S
C2467 C2463 1.385 . S
C2467 C2466 1.374 . S
C2468 C2465 1.499 . S
C2468 C2469 1.373 . S
C2468 C2470 1.389 . S
C2469 H2448 0.950 . S
C2469 C2468 1.373 . S
C2469 C2485 1.377 1_655 S
C2470 C2468 1.389 . S
C2470 C2471 1.524 . S
C2470 C2484 1.377 1_655 S
C2471 C2470 1.524 . S
C2471 C2472 1.397 . S
C2471 C2476 1.363 1_655 S
C2472 H2449 0.950 . S
C2472 C2471 1.397 . S
C2472 C2473 1.334 . S
C2473 H2450 0.950 . S
C2473 C2472 1.334 . S
C2473 C2474 1.287 . S
C2474 C2473 1.287 . S
C2474 C2475 1.524 1_655 S
C2474 H2493 0.913 . S
C2475 H2451 0.950 . S
C2475 C2474 1.524 1_455 S
C2475 C2476 1.415 . S
C2476 H2452 0.950 . S
C2476 C2471 1.363 1_455 S
C2476 C2475 1.415 . S
C2477 H2453 0.951 . S
C2477 C2478 1.366 . S
C2477 C2479 1.388 . S
C2478 C2477 1.366 . S
C2478 C2482 1.385 . S
C2479 H2454 0.951 1_455 S
C2479 C2477 1.388 . S
C2479 C2480 1.366 . S
C2480 C2479 1.366 . S
C2480 C2481 1.414 . S
C2480 C2483 1.499 . S
C2481 H2455 0.950 . S
C2481 C2480 1.414 . S
C2481 C2482 1.374 . S
C2482 H2456 0.950 . S
C2482 C2478 1.385 . S
C2482 C2481 1.374 . S
C2483 C2480 1.499 . S
C2483 C2484 1.373 . S
C2483 C2485 1.389 . S
C2484 H2457 0.950 . S
C2484 C2470 1.377 1_455 S
C2484 C2483 1.373 . S
C2485 C2469 1.377 1_455 S
C2485 C2483 1.389 . S
C2485 C2486 1.524 . S
C2486 C2485 1.524 . S
C2486 C2487 1.397 . S
C2486 C2491 1.363 1_455 S
C2487 H2458 0.950 . S
C2487 C2486 1.397 . S
C2487 C2488 1.334 . S
C2488 H2459 0.950 . S
C2488 C2487 1.334 . S
C2488 C2489 1.287 . S
C2489 C2488 1.287 . S
C2489 C2490 1.524 1_455 S
C2489 H2492 0.999 . S
C2490 H2460 0.950 . S
C2490 C2489 1.524 1_655 S
C2490 C2491 1.415 . S
C2491 H2461 0.950 . S
C2491 C2486 1.363 1_655 S
C2491 C2490 1.415 . S
H2492 C2489 0.999 . S
H2493 C2474 0.913 . S
H2494 C2512 0.951 . S
H2495 C2514 0.951 . S
H2496 C2516 0.950 . S
H2497 C2517 0.950 . S
H2498 C2519 0.950 . S
H2499 C2522 0.950 . S
H2500 C2523 0.950 . S
H2501 C2525 0.950 . S
H2502 C2526 0.950 . S
H2503 C2527 0.951 . S
H2504 C2529 0.951 . S
H2505 C2531 0.950 . S
H2506 C2532 0.950 . S
H2507 C2534 0.950 . S
H2508 C2537 0.950 . S
H2509 C2538 0.950 . S
H2510 C2540 0.950 . S
H2511 C2541 0.950 . S
C2512 H2494 0.951 . S
C2512 C2513 1.366 . S
C2512 C2514 1.388 . S
C2513 C2512 1.366 . S
C2513 C2517 1.385 . S
C2514 H2495 0.951 . S
C2514 C2512 1.388 . S
C2514 C2515 1.366 . S
C2515 C2514 1.366 . S
C2515 C2516 1.414 . S
C2515 C2518 1.499 . S
C2516 H2496 0.950 . S
C2516 C2515 1.414 . S
C2516 C2517 1.374 . S
C2517 H2497 0.950 . S
C2517 C2513 1.385 . S
C2517 C2516 1.374 . S
C2518 C2515 1.499 . S
C2518 C2519 1.373 . S
C2518 C2520 1.389 . S
C2519 H2498 0.950 . S
C2519 C2518 1.373 . S
C2519 C2535 1.377 . S
C2520 C2518 1.389 . S
C2520 C2521 1.524 . S
C2520 C2534 1.377 . S
C2521 C2520 1.524 . S
C2521 C2522 1.397 . S
C2521 C2526 1.363 . S
C2522 H2499 0.950 . S
C2522 C2521 1.397 . S
C2522 C2523 1.334 . S
C2523 H2500 0.950 . S
C2523 C2522 1.334 . S
C2523 C2524 1.287 . S
C2524 C2523 1.287 . S
C2524 C2525 1.524 . S
C2524 H2543 0.913 . S
C2525 H2501 0.950 . S
C2525 C2524 1.524 . S
C2525 C2526 1.415 . S
C2526 H2502 0.950 . S
C2526 C2521 1.363 . S
C2526 C2525 1.415 . S
C2527 H2503 0.951 . S
C2527 C2528 1.366 . S
C2527 C2529 1.388 . S
C2528 C2527 1.366 . S
C2528 C2532 1.385 . S
C2529 H2504 0.951 . S
C2529 C2527 1.388 . S
C2529 C2530 1.366 . S
C2530 C2529 1.366 . S
C2530 C2531 1.414 . S
C2530 C2533 1.499 . S
C2531 H2505 0.950 . S
C2531 C2530 1.414 . S
C2531 C2532 1.374 . S
C2532 H2506 0.950 . S
C2532 C2528 1.385 . S
C2532 C2531 1.374 . S
C2533 C2530 1.499 . S
C2533 C2534 1.373 . S
C2533 C2535 1.389 . S
C2534 H2507 0.950 . S
C2534 C2520 1.377 . S
C2534 C2533 1.373 . S
C2535 C2519 1.377 . S
C2535 C2533 1.389 . S
C2535 C2536 1.524 . S
C2536 C2535 1.524 . S
C2536 C2537 1.397 . S
C2536 C2541 1.363 . S
C2537 H2508 0.950 . S
C2537 C2536 1.397 . S
C2537 C2538 1.334 . S
C2538 H2509 0.950 . S
C2538 C2537 1.334 . S
C2538 C2539 1.287 . S
C2539 C2538 1.287 . S
C2539 C2540 1.524 . S
C2539 H2542 0.999 . S
C2540 H2510 0.950 . S
C2540 C2539 1.524 . S
C2540 C2541 1.415 . S
C2541 H2511 0.950 . S
C2541 C2536 1.363 . S
C2541 C2540 1.415 . S
H2542 C2539 0.999 . S
H2543 C2524 0.913 . S
C963 C64 1.553 . S
C978 C5 1.553 . S
C1013 C123 1.553 . S
C1028 C182 1.553 . S
C1063 C241 1.553 . S
C1078 C300 1.553 . S
C1113 C418 1.553 . S
C1128 C359 1.553 . S
C1163 C536 1.553 . S
C1178 C477 1.553 . S
C1213 C654 1.553 . S
C1228 C595 1.553 . S
C1263 C772 1.553 . S
C1278 C713 1.553 . S
C1313 C890 1.553 . S
C1328 C831 1.553 . S
C1363 C210 1.587 . S
C1378 C33 1.587 . S
C1413 C92 1.587 . S
C1428 C151 1.587 . S
C1463 C446 1.587 . S
C1478 C269 1.587 . S
C1513 C387 1.587 . S
C1528 C328 1.587 . S
C1563 C505 1.587 . S
C1578 C682 1.587 . S
C1613 C623 1.587 . S
C1628 C564 1.587 . S
C1663 C918 1.587 . S
C1678 C741 1.587 . S
C1713 C800 1.587 . S
C1728 C859 1.587 . S
C1763 C52 1.578 . S
C1778 C583 1.578 . S
C1813 C111 1.578 . S
C1828 C524 1.578 . S
C1863 C701 1.578 . S
C1878 C170 1.578 . S
C1913 C642 1.578 . S
C1928 C229 1.578 . S
C1963 C819 1.578 . S
C1978 C288 1.578 . S
C2013 C760 1.578 . S
C2028 C347 1.578 . S
C2063 C406 1.578 . S
C2078 C937 1.578 . S
C2113 C465 1.578 . S
C2128 C878 1.578 . S
C2163 C239 1.564 . S
C2178 C3 1.564 . S
C2213 C298 1.564 . S
C2228 C62 1.564 . S
C2263 C357 1.564 . S
C2278 C121 1.564 . S
C2313 C416 1.564 . S
C2328 C180 1.564 . S
C2363 C475 1.564 . S
C2378 C711 1.564 . S
C2413 C534 1.564 . S
C2428 C770 1.564 . S
C2463 C829 1.564 . S
C2478 C593 1.564 . S
C2513 C888 1.564 . S
C2528 C652 1.564 . S
