# Generated by pormake.
# Topology umy, (4)-cn, num edge types: 1
# Building blocks:
#     Node 0, Type 0, BuildingBlock: TATPOV_clean_sbu_0, # of connection points: 4
#     Node 1, Type 0, BuildingBlock: TATPOV_clean_sbu_0, # of connection points: 4
#     Node 2, Type 0, BuildingBlock: TATPOV_clean_sbu_0, # of connection points: 4
#     Node 3, Type 0, BuildingBlock: TATPOV_clean_sbu_0, # of connection points: 4
#     Node 4, Type 0, BuildingBlock: TATPOV_clean_sbu_0, # of connection points: 4
#     Node 5, Type 0, BuildingBlock: TATPOV_clean_sbu_0, # of connection points: 4
#     Node 6, Type 0, BuildingBlock: TATPOV_clean_sbu_0, # of connection points: 4
#     Node 7, Type 0, BuildingBlock: TATPOV_clean_sbu_0, # of connection points: 4
#     Node 8, Type 0, BuildingBlock: TATPOV_clean_sbu_0, # of connection points: 4
#     Node 9, Type 0, BuildingBlock: TATPOV_clean_sbu_0, # of connection points: 4
#     Node 10, Type 0, BuildingBlock: TATPOV_clean_sbu_0, # of connection points: 4
#     Node 11, Type 0, BuildingBlock: TATPOV_clean_sbu_0, # of connection points: 4
#     Edge 12, Type (0, 0), BuildingBlock: UVAHIK_clean_linker_0, # of connection points: 2
#     Edge 13, Type (0, 0), BuildingBlock: UVAHIK_clean_linker_0, # of connection points: 2
#     Edge 14, Type (0, 0), BuildingBlock: UVAHIK_clean_linker_0, # of connection points: 2
#     Edge 15, Type (0, 0), BuildingBlock: UVAHIK_clean_linker_0, # of connection points: 2
#     Edge 16, Type (0, 0), BuildingBlock: UVAHIK_clean_linker_0, # of connection points: 2
#     Edge 17, Type (0, 0), BuildingBlock: UVAHIK_clean_linker_0, # of connection points: 2
#     Edge 18, Type (0, 0), BuildingBlock: UVAHIK_clean_linker_0, # of connection points: 2
#     Edge 19, Type (0, 0), BuildingBlock: UVAHIK_clean_linker_0, # of connection points: 2
#     Edge 20, Type (0, 0), BuildingBlock: UVAHIK_clean_linker_0, # of connection points: 2
#     Edge 21, Type (0, 0), BuildingBlock: UVAHIK_clean_linker_0, # of connection points: 2
#     Edge 22, Type (0, 0), BuildingBlock: UVAHIK_clean_linker_0, # of connection points: 2
#     Edge 23, Type (0, 0), BuildingBlock: UVAHIK_clean_linker_0, # of connection points: 2
#     Edge 24, Type (0, 0), BuildingBlock: UVAHIK_clean_linker_0, # of connection points: 2
#     Edge 25, Type (0, 0), BuildingBlock: UVAHIK_clean_linker_0, # of connection points: 2
#     Edge 26, Type (0, 0), BuildingBlock: UVAHIK_clean_linker_0, # of connection points: 2
#     Edge 27, Type (0, 0), BuildingBlock: UVAHIK_clean_linker_0, # of connection points: 2
#     Edge 28, Type (0, 0), BuildingBlock: UVAHIK_clean_linker_0, # of connection points: 2
#     Edge 29, Type (0, 0), BuildingBlock: UVAHIK_clean_linker_0, # of connection points: 2
#     Edge 30, Type (0, 0), BuildingBlock: UVAHIK_clean_linker_0, # of connection points: 2
#     Edge 31, Type (0, 0), BuildingBlock: UVAHIK_clean_linker_0, # of connection points: 2
#     Edge 32, Type (0, 0), BuildingBlock: UVAHIK_clean_linker_0, # of connection points: 2
#     Edge 33, Type (0, 0), BuildingBlock: UVAHIK_clean_linker_0, # of connection points: 2
#     Edge 34, Type (0, 0), BuildingBlock: UVAHIK_clean_linker_0, # of connection points: 2
#     Edge 35, Type (0, 0), BuildingBlock: UVAHIK_clean_linker_0, # of connection points: 2
# Relax obj value: 0.093
# Max RMSD: 0.113
# Mean RMSD: 0.113
data_MOF--net-umy--node1-TATPOV_clean_sbu_0--edge1-UVAHIK_clean_linker_0
_symmetry_space_group_name_H-M    P1
_symmetry_Int_Tables_number       1
_symmetry_cell_setting            triclinic
loop_
_symmetry_equiv_pos_as_xyz
'x, y, z'
_cell_length_a     50.37468
_cell_length_b     50.388467
_cell_length_c     62.650959
_cell_angle_alpha  90.011876
_cell_angle_beta   89.990504
_cell_angle_gamma 120.01058
loop_
_atom_site_label
_atom_site_type_symbol
_atom_site_fract_x
_atom_site_fract_y
_atom_site_fract_z
_atom_type_partial_charge
Zn0 Zn 0.0938 0.30624 0.10509 0.0
Zn1 Zn 0.09877 0.36159 0.10073 0.0
O2 O 0.05224 0.33237 0.10426 0.0
O3 O 0.04779 0.28663 0.10598 0.0
O4 O 0.10149 0.40219 0.09537 0.0
O5 O 0.11405 0.31058 0.07676 0.0
O6 O 0.12001 0.35683 0.07387 0.0
C7 C 0.03564 0.30336 0.10578 0.0
C8 C 0.12823 0.34938 0.13911 0.0
O9 O 0.12212 0.36735 0.12866 0.0
O10 O 0.11918 0.32247 0.13229 0.0
C11 C 0.09968 0.41862 0.11005 0.0
O12 O 0.0962 0.40917 0.12993 0.0
C13 C 0.12376 0.33535 0.06649 0.0
Zn14 Zn 0.78846 0.08084 0.27498 0.0
Zn15 Zn 0.74526 0.0954 0.27073 0.0
O16 O 0.72179 0.04801 0.27267 0.0
O17 O 0.75819 0.03602 0.27127 0.0
O18 O 0.71107 0.10422 0.26541 0.0
O19 O 0.81114 0.10594 0.24963 0.0
O20 O 0.77382 0.11594 0.24467 0.0
C21 C 0.73005 0.0279 0.2719 0.0
C22 C 0.78355 0.11405 0.31122 0.0
O23 O 0.76355 0.11563 0.29968 0.0
O24 O 0.79675 0.09987 0.30446 0.0
C25 C 0.69128 0.09958 0.27968 0.0
O26 O 0.69387 0.08979 0.29858 0.0
C27 C 0.79926 0.11852 0.23881 0.0
Zn28 Zn 0.70076 0.78525 0.44077 0.0
Zn29 Zn 0.64328 0.74104 0.43732 0.0
O30 O 0.66824 0.71859 0.43864 0.0
O31 O 0.71623 0.75581 0.43653 0.0
O32 O 0.60055 0.70629 0.43199 0.0
O33 O 0.69714 0.80757 0.41562 0.0
O34 O 0.65002 0.76946 0.41142 0.0
C35 C 0.69674 0.72751 0.43739 0.0
C36 C 0.6633 0.77902 0.47786 0.0
O37 O 0.64153 0.75874 0.46658 0.0
O38 O 0.69041 0.7929 0.47058 0.0
C39 C 0.58497 0.68612 0.44594 0.0
O40 O 0.59659 0.68833 0.46507 0.0
C41 C 0.6723 0.79507 0.40522 0.0
Zn42 Zn 0.8991 0.69832 0.61379 0.0
Zn43 Zn 0.89439 0.64387 0.60652 0.0
O44 O 0.94108 0.67286 0.60868 0.0
O45 O 0.94516 0.71783 0.61444 0.0
O46 O 0.8912 0.60343 0.59948 0.0
O47 O 0.87792 0.69579 0.58615 0.0
O48 O 0.87273 0.65032 0.58061 0.0
C49 C 0.95763 0.70159 0.61186 0.0
C50 C 0.86592 0.65397 0.64678 0.0
O51 O 0.87221 0.63683 0.63544 0.0
O52 O 0.87429 0.68104 0.64077 0.0
C53 C 0.89378 0.58649 0.61337 0.0
O54 O 0.8983 0.59522 0.63344 0.0
C55 C 0.86836 0.67205 0.5747 0.0
Zn56 Zn 0.20169 0.89141 0.77033 0.0
Zn57 Zn 0.25511 0.89311 0.7651 0.0
O58 O 0.26834 0.93873 0.76991 0.0
O59 O 0.22409 0.93715 0.77364 0.0
O60 O 0.29508 0.89439 0.75934 0.0
O61 O 0.18763 0.87365 0.74124 0.0
O62 O 0.23035 0.87212 0.73765 0.0
C63 C 0.25308 0.95235 0.77299 0.0
C64 C 0.21359 0.85791 0.80276 0.0
O65 O 0.23866 0.86766 0.79256 0.0
O66 O 0.19354 0.86415 0.79619 0.0
C67 C 0.31241 0.89397 0.77393 0.0
O68 O 0.30438 0.89283 0.79401 0.0
C69 C 0.20449 0.86678 0.73038 0.0
Zn70 Zn 0.29382 0.20008 0.94768 0.0
Zn71 Zn 0.34877 0.24926 0.94059 0.0
O72 O 0.32026 0.26759 0.9432 0.0
O73 O 0.27522 0.22717 0.9498 0.0
O74 O 0.38952 0.28631 0.93386 0.0
O75 O 0.29497 0.18283 0.91909 0.0
O76 O 0.34203 0.22125 0.91451 0.0
C77 C 0.29171 0.25581 0.94704 0.0
C78 C 0.33844 0.20966 0.98021 0.0
O79 O 0.35553 0.23351 0.96922 0.0
O80 O 0.31141 0.19104 0.97401 0.0
C81 C 0.40568 0.30598 0.94793 0.0
O82 O 0.39583 0.30192 0.96774 0.0
C83 C 0.31919 0.19628 0.90804 0.0
Zn84 Zn 0.7097 0.91795 0.72501 0.0
Zn85 Zn 0.65205 0.9051 0.72934 0.0
O86 O 0.67682 0.95232 0.72679 0.0
O87 O 0.72484 0.96319 0.72516 0.0
O88 O 0.60935 0.89736 0.73435 0.0
O89 O 0.70738 0.89632 0.75233 0.0
O90 O 0.65957 0.88545 0.75603 0.0
C91 C 0.70531 0.97199 0.72554 0.0
C92 C 0.67008 0.88144 0.69031 0.0
O93 O 0.64941 0.8831 0.701 0.0
O94 O 0.6974 0.89442 0.69718 0.0
C95 C 0.59526 0.90371 0.72024 0.0
O96 O 0.60853 0.91457 0.70172 0.0
C97 C 0.68261 0.8839 0.76284 0.0
Zn98 Zn 0.78795 0.69594 0.89413 0.0
Zn99 Zn 0.73827 0.64024 0.89897 0.0
O100 O 0.7201 0.66874 0.89546 0.0
O101 O 0.76093 0.71481 0.89332 0.0
O102 O 0.70088 0.59929 0.90464 0.0
O103 O 0.8045 0.69248 0.92237 0.0
O104 O 0.76476 0.64597 0.92578 0.0
C105 C 0.7321 0.6977 0.8938 0.0
C106 C 0.77976 0.65275 0.86036 0.0
O107 O 0.75589 0.63459 0.87095 0.0
O108 O 0.7973 0.67982 0.867 0.0
C109 C 0.68236 0.58285 0.89009 0.0
O110 O 0.68775 0.59251 0.87023 0.0
C111 C 0.78991 0.66789 0.9329 0.0
Zn112 Zn 0.09992 0.80337 0.04757 0.0
Zn113 Zn 0.10297 0.75336 0.0574 0.0
O114 O 0.05652 0.73647 0.05438 0.0
O115 O 0.05379 0.77766 0.04671 0.0
O116 O 0.10511 0.71588 0.06549 0.0
O117 O 0.12089 0.82322 0.07501 0.0
O118 O 0.12418 0.78245 0.08297 0.0
C119 C 0.04063 0.74908 0.05013 0.0
C120 C 0.13307 0.78939 0.0164 0.0
O121 O 0.12614 0.76675 0.02875 0.0
O122 O 0.12496 0.80878 0.02104 0.0
C123 C 0.09998 0.69523 0.05181 0.0
O124 O 0.09344 0.69869 0.03207 0.0
C125 C 0.1293 0.80923 0.08764 0.0
Zn126 Zn 0.30217 0.09528 0.22921 0.0
Zn127 Zn 0.35797 0.10137 0.23346 0.0
O128 O 0.32932 0.05468 0.2302 0.0
O129 O 0.28321 0.04939 0.22853 0.0
O130 O 0.39897 0.10491 0.23902 0.0
O131 O 0.30612 0.11569 0.25736 0.0
O132 O 0.35277 0.12268 0.26017 0.0
C133 C 0.30032 0.03766 0.22876 0.0
C134 C 0.34458 0.12957 0.19485 0.0
O135 O 0.36301 0.12405 0.20525 0.0
O136 O 0.31773 0.12031 0.20186 0.0
C137 C 0.41694 0.10563 0.2245 0.0
O138 O 0.40901 0.10435 0.20439 0.0
C139 C 0.33102 0.12599 0.26754 0.0
Zn140 Zn 0.19907 0.30217 0.38524 0.0
Zn141 Zn 0.24939 0.356 0.39287 0.0
O142 O 0.2665 0.3266 0.38984 0.0
O143 O 0.22505 0.28212 0.38382 0.0
O144 O 0.2871 0.39621 0.39986 0.0
O145 O 0.18092 0.30427 0.41316 0.0
O146 O 0.22175 0.34918 0.41922 0.0
C147 C 0.25383 0.29791 0.38627 0.0
C148 C 0.21038 0.34718 0.35294 0.0
O149 O 0.23397 0.36379 0.36431 0.0
O150 O 0.1914 0.32006 0.35868 0.0
C151 C 0.30567 0.41367 0.38567 0.0
O152 O 0.30016 0.40556 0.36551 0.0
C153 C 0.19551 0.32751 0.42501 0.0
Zn154 Zn 0.91458 0.21347 0.56089 0.0
Zn155 Zn 0.9034 0.2591 0.56286 0.0
O156 O 0.95067 0.27974 0.56223 0.0
O157 O 0.95974 0.24155 0.56575 0.0
O158 O 0.89703 0.295 0.5674 0.0
O159 O 0.88633 0.19163 0.58519 0.0
O160 O 0.87938 0.2312 0.58844 0.0
C161 C 0.96953 0.27 0.56424 0.0
C162 C 0.88461 0.21962 0.52305 0.0
O163 O 0.88407 0.24096 0.53364 0.0
O164 O 0.89718 0.20546 0.53094 0.0
C165 C 0.8997 0.31381 0.5529 0.0
O166 O 0.90632 0.3097 0.53333 0.0
C167 C 0.87404 0.2049 0.5947 0.0
C168 C 0.09846 0.64608 0.04271 0.0
C169 C 0.10103 0.66748 0.05814 0.0
C170 C 0.09931 0.61981 0.04871 0.0
C171 C 0.08605 0.56886 0.0943 0.0
H172 H 0.13457 0.54308 0.06159 0.0
C173 C 0.10163 0.46755 0.12072 0.0
C174 C 0.10094 0.4478 0.10461 0.0
C175 C 0.10257 0.49498 0.11545 0.0
C176 C 0.12062 0.54974 0.07076 0.0
H177 H 0.10649 0.67808 0.092 0.0
H178 H 0.10787 0.63214 0.10243 0.0
H179 H 0.13416 0.58958 0.05148 0.0
H180 H 0.10053 0.44129 0.07034 0.0
H181 H 0.10153 0.48867 0.0612 0.0
H182 H 0.07208 0.52881 0.11338 0.0
C183 C 0.10506 0.63565 0.08571 0.0
C184 C 0.12044 0.57642 0.06498 0.0
C185 C 0.10444 0.66203 0.07971 0.0
C186 C 0.10122 0.45606 0.08315 0.0
C187 C 0.10199 0.48336 0.0779 0.0
C188 C 0.08608 0.54206 0.10002 0.0
C189 C 0.10253 0.61428 0.07028 0.0
C190 C 0.10308 0.58621 0.07664 0.0
C191 C 0.1027 0.50318 0.09397 0.0
C192 C 0.10327 0.53211 0.08826 0.0
H193 H 0.09579 0.64959 0.02597 0.0
H194 H 0.09698 0.60357 0.03648 0.0
H195 H 0.07217 0.57565 0.10344 0.0
H196 H 0.10157 0.46191 0.1374 0.0
H197 H 0.10351 0.5099 0.12823 0.0
C198 C 0.65974 0.10985 0.25365 0.0
C199 C 0.66469 0.10342 0.27463 0.0
C200 C 0.63377 0.11184 0.2486 0.0
C201 C 0.55565 0.08749 0.2682 0.0
H202 H 0.55937 0.14652 0.22683 0.0
C203 C 0.45297 0.10524 0.25186 0.0
C204 C 0.44615 0.10717 0.23035 0.0
C205 C 0.48015 0.10594 0.25744 0.0
C206 C 0.55796 0.12975 0.23828 0.0
H207 H 0.64667 0.09487 0.30689 0.0
H208 H 0.60168 0.09894 0.29818 0.0
H209 H 0.60618 0.14634 0.23662 0.0
H210 H 0.46277 0.11177 0.19785 0.0
H211 H 0.51033 0.11304 0.20764 0.0
H212 H 0.50746 0.07104 0.26992 0.0
C213 C 0.61754 0.10181 0.28552 0.0
C214 C 0.58475 0.12962 0.24389 0.0
C215 C 0.64344 0.09967 0.29054 0.0
C216 C 0.46732 0.11021 0.21456 0.0
C217 C 0.49464 0.11111 0.22016 0.0
C218 C 0.52893 0.08775 0.26268 0.0
C219 C 0.61221 0.1076 0.26444 0.0
C220 C 0.58391 0.1084 0.25887 0.0
C221 C 0.50123 0.10877 0.24166 0.0
C222 C 0.52976 0.10882 0.24762 0.0
H223 H 0.67561 0.11277 0.24098 0.0
H224 H 0.63023 0.11593 0.23216 0.0
H225 H 0.55403 0.07045 0.27948 0.0
H226 H 0.4372 0.10294 0.26444 0.0
H227 H 0.48477 0.10446 0.27415 0.0
C228 C 0.54452 0.65514 0.41894 0.0
C229 C 0.55489 0.65951 0.44018 0.0
C230 C 0.51692 0.62926 0.41318 0.0
C231 C 0.44345 0.5685 0.43452 0.0
H232 H 0.44295 0.52402 0.38386 0.0
C233 C 0.34149 0.44924 0.41353 0.0
C234 C 0.33347 0.44253 0.39191 0.0
C235 C 0.36804 0.47618 0.41943 0.0
C236 C 0.44252 0.53639 0.39787 0.0
H237 H 0.54401 0.64041 0.47213 0.0
H238 H 0.49565 0.59521 0.46205 0.0
H239 H 0.48981 0.57039 0.39419 0.0
H240 H 0.34681 0.45912 0.35953 0.0
H241 H 0.39277 0.50642 0.36982 0.0
H242 H 0.3961 0.5347 0.43813 0.0
C243 C 0.50893 0.61191 0.44989 0.0
C244 C 0.46942 0.56293 0.40381 0.0
C245 C 0.53669 0.63772 0.45563 0.0
C246 C 0.35243 0.46351 0.37632 0.0
C247 C 0.37889 0.49056 0.38223 0.0
C248 C 0.41646 0.54205 0.4285 0.0
C249 C 0.49894 0.60726 0.42856 0.0
C250 C 0.4702 0.57924 0.42222 0.0
C251 C 0.38712 0.49717 0.40385 0.0
C252 C 0.41568 0.52561 0.41012 0.0
H253 H 0.55793 0.6715 0.40663 0.0
H254 H 0.50961 0.62649 0.39667 0.0
H255 H 0.44328 0.58081 0.44865 0.0
H256 H 0.32745 0.43349 0.42594 0.0
H257 H 0.37388 0.48027 0.4362 0.0
C258 C 0.89131 0.5502 0.58507 0.0
C259 C 0.89243 0.55762 0.60682 0.0
C260 C 0.89073 0.52331 0.5788 0.0
C261 C 0.872 0.44686 0.59784 0.0
H262 H 0.92577 0.45071 0.55214 0.0
C263 C 0.89326 0.34691 0.57978 0.0
C264 C 0.89664 0.34074 0.55838 0.0
C265 C 0.89141 0.37282 0.58516 0.0
C266 C 0.91026 0.4491 0.5647 0.0
H267 H 0.89349 0.54242 0.63904 0.0
H268 H 0.89238 0.49538 0.62805 0.0
H269 H 0.92497 0.49691 0.56259 0.0
H270 H 0.90016 0.35669 0.52579 0.0
H271 H 0.89632 0.40167 0.53516 0.0
H272 H 0.85711 0.39906 0.59991 0.0
C273 C 0.89183 0.51036 0.61588 0.0
C274 C 0.90988 0.47561 0.57072 0.0
C275 C 0.89263 0.53738 0.62216 0.0
C276 C 0.89771 0.36087 0.54244 0.0
C277 C 0.8957 0.38675 0.54783 0.0
C278 C 0.87223 0.4203 0.59173 0.0
C279 C 0.89104 0.50313 0.59413 0.0
C280 C 0.89089 0.47481 0.58744 0.0
C281 C 0.8927 0.39313 0.56928 0.0
C282 C 0.89153 0.42113 0.57519 0.0
H283 H 0.8911 0.56527 0.57283 0.0
H284 H 0.8898 0.51819 0.56193 0.0
H285 H 0.8568 0.44546 0.61057 0.0
H286 H 0.89251 0.33197 0.59248 0.0
H287 H 0.88962 0.37724 0.60187 0.0
C288 C 0.55265 0.89257 0.74577 0.0
C289 C 0.56502 0.90048 0.7251 0.0
C290 C 0.5248 0.8909 0.75067 0.0
C291 C 0.4728 0.91802 0.73194 0.0
H292 H 0.41502 0.8557 0.77055 0.0
C293 C 0.3513 0.89882 0.74694 0.0
C294 C 0.34119 0.89449 0.76825 0.0
C295 C 0.37838 0.8992 0.74151 0.0
C296 C 0.43107 0.8734 0.75989 0.0
H297 H 0.55746 0.91216 0.69323 0.0
H298 H 0.50856 0.90865 0.70166 0.0
H299 H 0.46219 0.85619 0.76097 0.0
H300 H 0.3516 0.88709 0.80055 0.0
H301 H 0.3989 0.88769 0.79103 0.0
H302 H 0.44148 0.93504 0.73076 0.0
C303 C 0.5207 0.90435 0.71421 0.0
C304 C 0.45811 0.87371 0.75441 0.0
C305 C 0.54865 0.90616 0.70934 0.0
C306 C 0.35874 0.89048 0.78399 0.0
C307 C 0.38573 0.89063 0.77853 0.0
C308 C 0.44567 0.91758 0.73733 0.0
C309 C 0.50855 0.89694 0.73499 0.0
C310 C 0.47938 0.8961 0.74042 0.0
C311 C 0.39586 0.89504 0.75723 0.0
C312 C 0.42457 0.89534 0.75142 0.0
H313 H 0.56473 0.88817 0.75833 0.0
H314 H 0.51638 0.88556 0.76691 0.0
H315 H 0.48889 0.93592 0.72143 0.0
H316 H 0.33831 0.90197 0.73441 0.0
H317 H 0.38543 0.90233 0.72494 0.0
C318 C 0.44356 0.33963 0.9203 0.0
C319 C 0.43486 0.33353 0.94187 0.0
C320 C 0.47072 0.36598 0.91448 0.0
C321 C 0.54586 0.42435 0.93521 0.0
H322 H 0.54455 0.47318 0.88782 0.0
C323 C 0.64729 0.54489 0.91713 0.0
C324 C 0.65466 0.5535 0.89565 0.0
C325 C 0.62085 0.51753 0.92248 0.0
C326 C 0.54546 0.45959 0.90089 0.0
H327 H 0.44808 0.35019 0.97426 0.0
H328 H 0.4956 0.3962 0.96407 0.0
H329 H 0.49782 0.42633 0.89773 0.0
H330 H 0.64024 0.53988 0.86292 0.0
H331 H 0.59437 0.49182 0.87225 0.0
H332 H 0.5935 0.45742 0.93832 0.0
C333 C 0.48141 0.38048 0.95169 0.0
C334 C 0.51864 0.43278 0.90659 0.0
C335 C 0.45411 0.35421 0.95751 0.0
C336 C 0.63514 0.53399 0.87962 0.0
C337 C 0.60874 0.50651 0.88498 0.0
C338 C 0.57273 0.45107 0.92944 0.0
C339 C 0.48991 0.38672 0.9301 0.0
C340 C 0.51853 0.41494 0.92387 0.0
C341 C 0.60122 0.498 0.90648 0.0
C342 C 0.57283 0.46911 0.91227 0.0
H343 H 0.42927 0.32416 0.90785 0.0
H344 H 0.47684 0.37001 0.89774 0.0
H345 H 0.54657 0.41083 0.94841 0.0
H346 H 0.66175 0.55946 0.92988 0.0
H347 H 0.61554 0.51196 0.9392 0.0
C348 C 0.13204 0.31347 0.03335 0.0
C349 C 0.14033 0.33915 0.04632 0.0
C350 C 0.14998 0.31543 0.01585 0.0
C351 C 0.18771 0.32794 0.97555 0.0
H352 H 0.26882 0.34865 0.99514 0.0
C353 C 0.2957 0.30695 0.95367 0.0
C354 C 0.27768 0.27533 0.94968 0.0
C355 C 0.28183 0.32412 0.95926 0.0
C356 C 0.24667 0.34362 0.98903 0.0
H357 H 0.17307 0.38738 0.05074 0.0
H358 H 0.20538 0.39056 0.0203 0.0
H359 H 0.23767 0.36306 0.01657 0.0
H360 H 0.23104 0.23748 0.94685 0.0
H361 H 0.20707 0.26703 0.95669 0.0
H362 H 0.19601 0.30712 0.94855 0.0
C363 C 0.18463 0.3691 0.02357 0.0
C364 C 0.2288 0.35188 0.00136 0.0
C365 C 0.16617 0.3673 0.04089 0.0
C366 C 0.24561 0.26173 0.95001 0.0
C367 C 0.23182 0.27883 0.95543 0.0
C368 C 0.20565 0.31994 0.96312 0.0
C369 C 0.17696 0.34298 0.01116 0.0
C370 C 0.19857 0.34264 0.99528 0.0
C371 C 0.24971 0.31003 0.96073 0.0
C372 C 0.23464 0.32612 0.97035 0.0
H373 H 0.11216 0.29154 0.03717 0.0
H374 H 0.14371 0.29483 0.00675 0.0
H375 H 0.16458 0.32091 0.97039 0.0
H376 H 0.32049 0.3181 0.95347 0.0
H377 H 0.29623 0.34817 0.9631 0.0
C378 C 0.8427 0.13728 0.21312 0.0
C379 C 0.81559 0.13643 0.21961 0.0
C380 C 0.85913 0.15466 0.19558 0.0
C381 C 0.87433 0.22146 0.16357 0.0
H382 H 0.91761 0.1911 0.12941 0.0
C383 C 0.98228 0.26083 0.1002 0.0
C384 C 0.00252 0.28893 0.10983 0.0
C385 C 0.95219 0.24343 0.10756 0.0
C386 C 0.9053 0.20002 0.13823 0.0
H387 H 0.78432 0.15309 0.21254 0.0
H388 H 0.81331 0.1837 0.18155 0.0
H389 H 0.8776 0.15673 0.15331 0.0
H390 H 0.007 0.32203 0.13361 0.0
H391 H 0.95524 0.29101 0.14748 0.0
H392 H 0.9021 0.26486 0.14838 0.0
C393 C 0.82174 0.17084 0.19025 0.0
C394 C 0.88256 0.18024 0.15229 0.0
C395 C 0.80512 0.15325 0.20792 0.0
C396 C 0.99166 0.30045 0.12588 0.0
C397 C 0.96183 0.2826 0.13374 0.0
C398 C 0.89691 0.24128 0.14921 0.0
C399 C 0.84894 0.17167 0.18391 0.0
C400 C 0.86787 0.19105 0.16587 0.0
C401 C 0.94213 0.25317 0.12533 0.0
C402 C 0.91366 0.23115 0.13702 0.0
H403 H 0.85158 0.12474 0.22173 0.0
H404 H 0.88035 0.15532 0.1915 0.0
H405 H 0.8633 0.23046 0.17374 0.0
H406 H 0.99015 0.25169 0.08761 0.0
H407 H 0.93743 0.2215 0.10007 0.0
C408 C 0.69591 0.83669 0.37811 0.0
C409 C 0.66971 0.81063 0.38593 0.0
C410 C 0.6941 0.85227 0.36036 0.0
C411 C 0.68879 0.87262 0.3166 0.0
H412 H 0.62791 0.89817 0.31586 0.0
C413 C 0.71147 0.97287 0.26455 0.0
C414 C 0.70773 0.99524 0.27522 0.0
C415 C 0.69642 0.94261 0.2718 0.0
C416 C 0.64505 0.8912 0.31575 0.0
H417 H 0.62094 0.78036 0.38105 0.0
H418 H 0.61778 0.80802 0.34975 0.0
H419 H 0.62333 0.85969 0.34162 0.0
H420 H 0.68352 0.00335 0.30059 0.0
H421 H 0.65868 0.95118 0.31413 0.0
H422 H 0.71215 0.90557 0.29231 0.0
C423 C 0.63971 0.8162 0.35754 0.0
C424 C 0.64218 0.86884 0.33036 0.0
C425 C 0.64155 0.80035 0.37538 0.0
C426 C 0.68662 0.9864 0.29204 0.0
C427 C 0.67228 0.95632 0.29974 0.0
C428 C 0.69186 0.89507 0.30223 0.0
C429 C 0.66606 0.8423 0.34984 0.0
C430 C 0.66484 0.8604 0.33155 0.0
C431 C 0.67836 0.93442 0.29043 0.0
C432 C 0.67075 0.90567 0.30217 0.0
H433 H 0.71798 0.84533 0.3858 0.0
H434 H 0.71472 0.87268 0.35516 0.0
H435 H 0.70627 0.86608 0.31681 0.0
H436 H 0.72744 0.97917 0.25137 0.0
H437 H 0.70072 0.92618 0.26365 0.0
C438 C 0.73495 0.711 0.43042 0.0
C439 C 0.70797 0.70585 0.44058 0.0
C440 C 0.75075 0.69662 0.43779 0.0
C441 C 0.7932 0.69291 0.46922 0.0
H442 H 0.76029 0.62256 0.50694 0.0
C443 C 0.85154 0.69594 0.54698 0.0
C444 C 0.85195 0.66994 0.5546 0.0
C445 C 0.83536 0.69437 0.52858 0.0
C446 C 0.76997 0.64196 0.49616 0.0
H447 H 0.67474 0.67967 0.46503 0.0
H448 H 0.70297 0.65589 0.47875 0.0
H449 H 0.72698 0.62662 0.4804 0.0
H450 H 0.83587 0.62184 0.54864 0.0
H451 H 0.80717 0.61907 0.51624 0.0
H452 H 0.83598 0.70842 0.48509 0.0
C453 C 0.71174 0.67019 0.4647 0.0
C454 C 0.75079 0.6445 0.4811 0.0
C455 C 0.69548 0.68391 0.45688 0.0
C456 C 0.83602 0.64229 0.54315 0.0
C457 C 0.81953 0.64066 0.52467 0.0
C458 C 0.81231 0.69019 0.48404 0.0
C459 C 0.7405 0.67774 0.45602 0.0
C460 C 0.76183 0.67076 0.46812 0.0
C461 C 0.81906 0.66675 0.51723 0.0
C462 C 0.80057 0.66553 0.49841 0.0
H463 H 0.74481 0.7276 0.41762 0.0
H464 H 0.77216 0.70208 0.43013 0.0
H465 H 0.80279 0.71365 0.45977 0.0
H466 H 0.86352 0.71763 0.55535 0.0
H467 H 0.83497 0.71475 0.52356 0.0
C468 C 0.0054 0.6983 0.61719 0.0
C469 C 0.99132 0.71606 0.61404 0.0
C470 C 0.03663 0.71238 0.62228 0.0
C471 C 0.09201 0.74713 0.65143 0.0
H472 H 0.15029 0.82991 0.63346 0.0
C473 C 0.1759 0.86046 0.69683 0.0
C474 C 0.19308 0.8517 0.7096 0.0
C475 C 0.16036 0.84328 0.67895 0.0
C476 C 0.13452 0.8066 0.63841 0.0
H477 H -0.00058 0.76253 0.61222 0.0
H478 H 0.05329 0.78687 0.62124 0.0
H479 H 0.10449 0.79882 0.61205 0.0
H480 H 0.20886 0.8191 0.71326 0.0
H481 H 0.18052 0.7881 0.68212 0.0
H482 H 0.12126 0.75557 0.6784 0.0
C483 C 0.04055 0.76215 0.61967 0.0
C484 C 0.10823 0.78885 0.62624 0.0
C485 C 0.00946 0.74814 0.61472 0.0
C486 C 0.19585 0.82635 0.70354 0.0
C487 C 0.17962 0.80863 0.68583 0.0
C488 C 0.11845 0.76481 0.66351 0.0
C489 C 0.05437 0.74446 0.62412 0.0
C490 C 0.08582 0.75958 0.63328 0.0
C491 C 0.16115 0.81659 0.67369 0.0
C492 C 0.13906 0.79529 0.65773 0.0
H493 H 0.99205 0.67351 0.61669 0.0
H494 H 0.04666 0.69813 0.62544 0.0
H495 H 0.07522 0.72474 0.65739 0.0
H496 H 0.1735 0.87997 0.70117 0.0
H497 H 0.146 0.84977 0.6701 0.0
C498 C 0.25271 0.00143 0.77492 0.0
C499 C 0.26858 0.98543 0.77794 0.0
C500 C 0.26373 0.03046 0.78373 0.0
C501 C 0.32779 0.09576 0.81175 0.0
H502 H 0.26136 0.09287 0.84484 0.0
C503 C 0.34439 0.17654 0.88335 0.0
C504 C 0.32036 0.18218 0.88778 0.0
C505 C 0.34199 0.15755 0.86621 0.0
C506 C 0.28016 0.09463 0.83537 0.0
H507 H 0.30983 0.9883 0.79091 0.0
H508 H 0.32893 0.03915 0.80678 0.0
H509 H 0.251 0.05138 0.8208 0.0
H510 H 0.27658 0.17527 0.87695 0.0
H511 H 0.27313 0.14388 0.84641 0.0
H512 H 0.35702 0.13917 0.82674 0.0
C513 C 0.30807 0.02925 0.7974 0.0
C514 C 0.27417 0.07065 0.82158 0.0
C515 C 0.29712 0.00014 0.78836 0.0
C516 C 0.2952 0.17085 0.87393 0.0
C517 C 0.29316 0.15264 0.85658 0.0
C518 C 0.3338 0.12013 0.82552 0.0
C519 C 0.29069 0.044 0.79599 0.0
C520 C 0.29783 0.07085 0.80962 0.0
C521 C 0.31573 0.14443 0.85311 0.0
C522 C 0.30997 0.1198 0.83751 0.0
H523 H 0.2309 0.99086 0.76665 0.0
H524 H 0.2502 0.0416 0.78198 0.0
H525 H 0.34647 0.09642 0.80274 0.0
H526 H 0.36396 0.18501 0.89394 0.0
H527 H 0.35978 0.1517 0.86408 0.0
C528 C 0.71971 0.73888 0.90053 0.0
C529 C 0.71295 0.71166 0.89003 0.0
C530 C 0.7068 0.75625 0.89354 0.0
C531 C 0.6553 0.75994 0.8512 0.0
H532 H 0.71915 0.84533 0.85052 0.0
C533 C 0.70711 0.86737 0.7903 0.0
C534 C 0.68066 0.8668 0.78255 0.0
C535 C 0.7056 0.84988 0.80792 0.0
C536 C 0.70099 0.82158 0.85057 0.0
H537 H 0.6861 0.67999 0.86501 0.0
H538 H 0.66507 0.71104 0.8518 0.0
H539 H 0.72432 0.80997 0.87366 0.0
H540 H 0.63189 0.84789 0.78767 0.0
H541 H 0.62929 0.8172 0.81884 0.0
H542 H 0.63357 0.7716 0.82644 0.0
C543 C 0.67928 0.71874 0.86594 0.0
C544 C 0.70366 0.80119 0.86419 0.0
C545 C 0.69144 0.70087 0.87343 0.0
C546 C 0.65268 0.84881 0.79326 0.0
C547 C 0.65116 0.83115 0.81102 0.0
C548 C 0.65291 0.78038 0.83725 0.0
C549 C 0.68794 0.74742 0.87529 0.0
C550 C 0.68146 0.7698 0.86415 0.0
C551 C 0.67763 0.83136 0.81845 0.0
C552 C 0.67644 0.81116 0.83616 0.0
H553 H 0.73607 0.74744 0.91354 0.0
H554 H 0.71311 0.77751 0.90173 0.0
H555 H 0.6373 0.73616 0.85109 0.0
H556 H 0.72906 0.88091 0.78249 0.0
H557 H 0.72634 0.85015 0.81285 0.0
C558 C 0.80089 0.637 0.95915 0.0
C559 C 0.80314 0.66491 0.95313 0.0
C560 C 0.81795 0.63594 0.97648 0.0
C561 C 0.87945 0.65334 0.99832 0.0
H562 H 0.89449 0.70219 0.04948 0.0
C563 C 0.98942 0.74503 0.04661 0.0
C564 C 0.00694 0.73045 0.04777 0.0
C565 C 0.95833 0.72842 0.04158 0.0
C566 C 0.89044 0.68823 0.03538 0.0
H567 H 0.82285 0.71291 0.96129 0.0
H568 H 0.8519 0.71096 0.99163 0.0
H569 H 0.84859 0.68769 0.02825 0.0
H570 H 0.00514 0.6866 0.0458 0.0
H571 H 0.95053 0.65745 0.03683 0.0
H572 H 0.92243 0.6559 0.00442 0.0
C573 C 0.83729 0.68995 0.98303 0.0
C574 C 0.86411 0.67984 0.0233 0.0
C575 C 0.82086 0.69114 0.96554 0.0
C576 C 0.99226 0.69851 0.04495 0.0
C577 C 0.96104 0.68184 0.03974 0.0
C578 C 0.90591 0.66191 0.01033 0.0
C579 C 0.83679 0.66261 0.98829 0.0
C580 C 0.85917 0.66364 0.00409 0.0
C581 C 0.94392 0.69678 0.0375 0.0
C582 C 0.91247 0.68081 0.02837 0.0
H583 H 0.78743 0.61649 0.94975 0.0
H584 H 0.81724 0.6146 0.98021 0.0
H585 H 0.87632 0.64099 0.98352 0.0
H586 H -5e-05 0.76956 0.04885 0.0
H587 H 0.94605 0.74081 0.0397 0.0
C588 C 0.29931 0.99404 0.20936 0.0
C589 C 0.28636 0.0046 0.22459 0.0
C590 C 0.28209 0.96448 0.20093 0.0
C591 C 0.20018 0.90981 0.19201 0.0
H592 H 0.23283 0.86734 0.1592 0.0
C593 C 0.1588 0.8122 0.12097 0.0
C594 C 0.1451 0.82452 0.1077 0.0
C595 C 0.17443 0.82773 0.13954 0.0
C596 C 0.22318 0.87852 0.16859 0.0
H597 H 0.2471 0.99176 0.24497 0.0
H598 H 0.21781 0.93953 0.23144 0.0
H599 H 0.26476 0.90461 0.1863 0.0
H600 H 0.1368 0.86258 0.10371 0.0
H601 H 0.1639 0.88939 0.13564 0.0
H602 H 0.15883 0.88406 0.17425 0.0
C603 C 0.24053 0.95437 0.22505 0.0
C604 C 0.2416 0.90017 0.18396 0.0
C605 C 0.25738 0.98417 0.233 0.0
C606 C 0.14702 0.85234 0.11352 0.0
C607 C 0.16236 0.86764 0.13199 0.0
C608 C 0.18182 0.88808 0.17689 0.0
C609 C 0.25184 0.94477 0.20793 0.0
C610 C 0.23075 0.91706 0.19523 0.0
C611 C 0.17627 0.8556 0.14523 0.0
C612 C 0.19355 0.87327 0.16431 0.0
H613 H 0.32161 0.00948 0.20256 0.0
H614 H 0.29169 0.95817 0.18774 0.0
H615 H 0.19084 0.92233 0.20007 0.0
H616 H 0.15776 0.79081 0.1169 0.0
H617 H 0.18495 0.81793 0.14946 0.0
C618 C 0.36271 0.16858 0.29312 0.0
C619 C 0.33462 0.14272 0.28762 0.0
C620 C 0.36432 0.18713 0.31033 0.0
C621 C 0.34743 0.23162 0.33223 0.0
H622 H 0.30117 0.19908 0.38454 0.0
C623 C 0.25804 0.25084 0.3829 0.0
C624 C 0.2725 0.28296 0.38351 0.0
C625 C 0.27446 0.23633 0.37745 0.0
C626 C 0.3144 0.20864 0.3701 0.0
H627 H 0.2869 0.1146 0.29657 0.0
H628 H 0.28982 0.14634 0.32673 0.0
H629 H 0.31475 0.16722 0.36301 0.0
H630 H 0.31606 0.32506 0.38015 0.0
H631 H 0.34492 0.29956 0.37049 0.0
H632 H 0.34498 0.27209 0.33831 0.0
C633 C 0.31055 0.15256 0.3178 0.0
C634 C 0.32227 0.19044 0.35786 0.0
C635 C 0.30879 0.13451 0.30042 0.0
C636 C 0.30424 0.30026 0.37973 0.0
C637 C 0.32073 0.28567 0.37412 0.0
C638 C 0.33935 0.24976 0.3444 0.0
C639 C 0.33804 0.17955 0.32255 0.0
C640 C 0.33755 0.20124 0.33829 0.0
C641 C 0.30582 0.25354 0.37241 0.0
C642 C 0.32136 0.23786 0.3629 0.0
H643 H 0.38291 0.17542 0.28341 0.0
H644 H 0.38576 0.20787 0.31366 0.0
H645 H 0.35906 0.24046 0.31715 0.0
H646 H 0.23366 0.2368 0.38587 0.0
H647 H 0.26207 0.21159 0.376 0.0
C648 C 0.19381 0.3561 0.45759 0.0
C649 C 0.18154 0.329 0.44545 0.0
C650 C 0.17925 0.35711 0.47643 0.0
C651 C 0.12202 0.30609 0.51641 0.0
H652 H 0.10202 0.37061 0.52268 0.0
C653 C 0.01281 0.31373 0.54542 0.0
C654 C 0.00266 0.2908 0.56108 0.0
C655 C 0.0428 0.32715 0.53763 0.0
C656 C 0.10745 0.35243 0.52124 0.0
H657 H 0.14477 0.28162 0.44383 0.0
H658 H 0.11963 0.28346 0.47619 0.0
H659 H 0.13918 0.3754 0.49571 0.0
H660 H 0.01666 0.2669 0.58299 0.0
H661 H 0.06955 0.29178 0.57052 0.0
H662 H 0.0887 0.2817 0.54031 0.0
C663 C 0.14059 0.30386 0.47147 0.0
C664 C 0.12906 0.35539 0.50594 0.0
C665 C 0.1549 0.30291 0.45273 0.0
C666 C 0.02389 0.28423 0.57066 0.0
C667 C 0.0541 0.29829 0.56332 0.0
C668 C 0.10027 0.30296 0.53145 0.0
C669 C 0.15245 0.33093 0.48353 0.0
C670 C 0.13545 0.33154 0.50272 0.0
C671 C 0.06337 0.31833 0.5457 0.0
C672 C 0.09164 0.32546 0.53347 0.0
H673 H 0.2143 0.3766 0.45238 0.0
H674 H 0.18889 0.37829 0.48541 0.0
H675 H 0.12698 0.28762 0.51462 0.0
H676 H 0.99684 0.31914 0.53773 0.0
H677 H 0.0488 0.34236 0.52405 0.0
C678 C 0.84421 0.20403 0.62729 0.0
C679 C 0.85184 0.18848 0.61199 0.0
C680 C 0.82292 0.18762 0.64345 0.0
C681 C 0.75822 0.11185 0.65552 0.0
H682 H 0.7874 0.12201 0.71385 0.0
C683 C 0.74709 0.02658 0.72349 0.0
C684 C 0.71577 0.00477 0.72185 0.0
C685 C 0.7584 0.05612 0.71546 0.0
C686 C 0.77865 0.1192 0.69772 0.0
H687 H 0.8427 0.14368 0.60134 0.0
H688 H 0.80545 0.11537 0.62903 0.0
H689 H 0.81765 0.16113 0.68713 0.0
H690 H 0.67123 0.99775 0.71256 0.0
H691 H 0.69108 0.04949 0.69839 0.0
H692 H 0.72059 0.06898 0.6654 0.0
C693 C 0.81595 0.14012 0.62868 0.0
C694 C 0.79585 0.14168 0.68251 0.0
C695 C 0.83752 0.15639 0.61294 0.0
C696 C 0.69554 0.01398 0.71389 0.0
C697 C 0.70691 0.04358 0.70572 0.0
C698 C 0.74097 0.08955 0.67069 0.0
C699 C 0.80844 0.15549 0.64407 0.0
C700 C 0.78652 0.13729 0.66108 0.0
C701 C 0.73865 0.06448 0.70552 0.0
C702 C 0.75184 0.09215 0.69169 0.0
H703 H 0.85494 0.22877 0.62693 0.0
H704 H 0.81758 0.19991 0.6553 0.0
H705 H 0.75054 0.10811 0.63907 0.0
H706 H 0.76323 0.0203 0.72979 0.0
H707 H 0.78297 0.07148 0.71548 0.0
C708 C 0.23059 0.38165 0.32092 0.0
C709 C 0.20572 0.35846 0.33228 0.0
C710 C 0.22648 0.38921 0.30014 0.0
C711 C 0.21247 0.37786 0.25213 0.0
H712 H 0.14086 0.38255 0.23517 0.0
C713 C 0.15605 0.34187 0.16948 0.0
C714 C 0.14432 0.35907 0.15988 0.0
C715 C 0.16868 0.34915 0.18995 0.0
C716 C 0.16124 0.38179 0.23964 0.0
H717 H 0.15681 0.32635 0.33131 0.0
H718 H 0.14961 0.33985 0.29533 0.0
H719 H 0.15273 0.38307 0.27303 0.0
H720 H 0.13758 0.39806 0.16396 0.0
H721 H 0.1593 0.41048 0.19994 0.0
H722 H 0.22023 0.37525 0.21875 0.0
C723 C 0.17228 0.35209 0.30236 0.0
C724 C 0.1679 0.38188 0.2613 0.0
C725 C 0.17645 0.34421 0.32293 0.0
C726 C 0.14642 0.38436 0.17092 0.0
C727 C 0.15873 0.39141 0.19154 0.0
C728 C 0.20562 0.37745 0.23046 0.0
C729 C 0.19734 0.37414 0.29056 0.0
C730 C 0.19314 0.37914 0.26777 0.0
C731 C 0.16959 0.37359 0.20137 0.0
C732 C 0.17951 0.37865 0.22402 0.0
H733 H 0.25343 0.39297 0.32771 0.0
H734 H 0.24616 0.40638 0.2914 0.0
H735 H 0.23194 0.37551 0.25664 0.0
H736 H 0.15489 0.32233 0.16138 0.0
H737 H 0.17656 0.3348 0.19718 0.0
C738 C 0.8562 0.22559 0.49192 0.0
C739 C 0.8704 0.2107 0.5016 0.0
C740 C 0.8426 0.21637 0.47171 0.0
C741 C 0.81215 0.15005 0.43485 0.0
H742 H 0.82847 0.20917 0.38987 0.0
C743 C 0.80728 0.11944 0.34705 0.0
C744 C 0.79065 0.12737 0.33297 0.0
C745 C 0.81312 0.13056 0.36788 0.0
C746 C 0.82333 0.19246 0.40239 0.0
H747 H 0.88177 0.17472 0.49745 0.0
H748 H 0.85858 0.15907 0.46254 0.0
H749 H 0.84578 0.22706 0.4264 0.0
H750 H 0.76767 0.15385 0.32965 0.0
H751 H 0.7786 0.17395 0.3663 0.0
H752 H 0.79095 0.11557 0.4108 0.0
C753 C 0.85735 0.17745 0.47059 0.0
C754 C 0.83317 0.20266 0.42327 0.0
C755 C 0.87089 0.18663 0.49061 0.0
C756 C 0.78049 0.14727 0.34014 0.0
C757 C 0.78678 0.15882 0.36104 0.0
C758 C 0.80256 0.13995 0.41408 0.0
C759 C 0.84283 0.19198 0.46094 0.0
C760 C 0.82853 0.18154 0.43957 0.0
C761 C 0.80278 0.15016 0.37515 0.0
C762 C 0.80886 0.16106 0.39753 0.0
H763 H 0.85548 0.24426 0.49995 0.0
H764 H 0.83157 0.22799 0.46466 0.0
H765 H 0.80752 0.13317 0.44715 0.0
H766 H 0.81546 0.10418 0.34211 0.0
H767 H 0.82589 0.12387 0.37835 0.0
C768 C 0.68585 0.86252 0.65865 0.0
C769 C 0.66283 0.86497 0.66962 0.0
C770 C 0.67995 0.84808 0.63885 0.0
C771 C 0.62963 0.82752 0.59203 0.0
H772 H 0.67015 0.78163 0.57763 0.0
C773 C 0.62794 0.7756 0.50761 0.0
C774 C 0.65773 0.78549 0.49997 0.0
C775 C 0.62333 0.78133 0.52882 0.0
C776 C 0.65853 0.79422 0.58147 0.0
H777 H 0.61532 0.85383 0.66834 0.0
H778 H 0.60492 0.82826 0.63354 0.0
H779 H 0.67079 0.7977 0.6144 0.0
H780 H 0.70594 0.80907 0.50863 0.0
H781 H 0.69779 0.81842 0.54542 0.0
H782 H 0.61785 0.82425 0.55878 0.0
C783 C 0.62763 0.83779 0.64036 0.0
C784 C 0.659 0.80356 0.60248 0.0
C785 C 0.63355 0.8523 0.66032 0.0
C786 C 0.6827 0.80119 0.51392 0.0
C787 C 0.67805 0.80639 0.53506 0.0
C788 C 0.62891 0.81787 0.57094 0.0
C789 C 0.65082 0.83555 0.62941 0.0
C790 C 0.64558 0.82131 0.60788 0.0
C791 C 0.64839 0.79642 0.54277 0.0
C792 C 0.64429 0.80207 0.5654 0.0
H793 H 0.70871 0.87208 0.66523 0.0
H794 H 0.69857 0.84739 0.63071 0.0
H795 H 0.61915 0.84124 0.59564 0.0
H796 H 0.60826 0.76349 0.49723 0.0
H797 H 0.60024 0.77347 0.53444 0.0
C798 C 0.83564 0.65799 0.67685 0.0
C799 C 0.85023 0.64326 0.66758 0.0
C800 C 0.8235 0.65038 0.69741 0.0
C801 C 0.83678 0.62423 0.74786 0.0
H802 H 0.7605 0.62009 0.76416 0.0
C803 C 0.81539 0.66026 0.8302 0.0
C804 C 0.78633 0.64307 0.83965 0.0
C805 C 0.82098 0.653 0.80979 0.0
C806 C 0.78163 0.6207 0.75987 0.0
H807 H 0.86272 0.60828 0.67235 0.0
H808 H 0.84194 0.59537 0.70868 0.0
H809 H 0.77242 0.61965 0.72639 0.0
H810 H 0.7406 0.60414 0.83536 0.0
H811 H 0.75031 0.5918 0.79944 0.0
H812 H 0.84659 0.62663 0.78132 0.0
C813 C 0.8398 0.61268 0.69986 0.0
C814 C 0.78853 0.62066 0.73827 0.0
C815 C 0.85154 0.61997 0.67907 0.0
C816 C 0.76324 0.61782 0.82851 0.0
C817 C 0.76873 0.61082 0.80793 0.0
C818 C 0.83003 0.62461 0.76947 0.0
C819 C 0.82603 0.62813 0.70931 0.0
C820 C 0.8165 0.62318 0.73204 0.0
C821 C 0.79755 0.62861 0.79827 0.0
C822 C 0.80272 0.62359 0.77567 0.0
H823 H 0.83415 0.67594 0.66837 0.0
H824 H 0.81332 0.6629 0.70435 0.0
H825 H 0.8586 0.6264 0.74352 0.0
H826 H 0.8337 0.67977 0.83838 0.0
H827 H 0.84332 0.66734 0.80268 0.0
C828 C 0.23344 0.84282 0.83454 0.0
C829 C 0.20867 0.84152 0.82328 0.0
C830 C 0.22935 0.83119 0.85532 0.0
C831 C 0.17049 0.78281 0.8954 0.0
H832 H 0.22635 0.84261 0.93617 0.0
C833 C 0.14894 0.76715 0.98643 0.0
C834 C 0.14914 0.79251 0.99598 0.0
C835 C 0.16107 0.7696 0.96593 0.0
C836 C 0.21075 0.82553 0.92497 0.0
H837 H 0.15984 0.82518 0.82442 0.0
H838 H 0.15274 0.80487 0.86047 0.0
H839 H 0.23729 0.85124 0.89806 0.0
H840 H 0.16371 0.84067 0.99207 0.0
H841 H 0.18502 0.84496 0.95658 0.0
H842 H 0.14313 0.75792 0.92231 0.0
C843 C 0.17531 0.81483 0.85333 0.0
C844 C 0.21714 0.83032 0.90316 0.0
C845 C 0.17944 0.8267 0.8327 0.0
C846 C 0.16306 0.82067 0.98511 0.0
C847 C 0.1755 0.8232 0.96482 0.0
C848 C 0.16421 0.77791 0.91724 0.0
C849 C 0.20036 0.81769 0.8651 0.0
C850 C 0.19653 0.80955 0.88811 0.0
C851 C 0.17408 0.79756 0.95481 0.0
C852 C 0.18373 0.79977 0.9322 0.0
H853 H 0.25625 0.85406 0.82771 0.0
H854 H 0.24902 0.8335 0.86396 0.0
H855 H 0.15435 0.76626 0.88417 0.0
H856 H 0.13834 0.74514 0.99442 0.0
H857 H 0.15979 0.74951 0.95861 0.0
C858 C 0.33635 0.15702 0.16459 0.0
C859 C 0.35358 0.14509 0.17386 0.0
C860 C 0.34275 0.16895 0.14391 0.0
C861 C 0.3699 0.20461 0.10272 0.0
H862 H 0.37135 0.14953 0.06007 0.0
C863 C 0.37298 0.22882 0.01222 0.0
C864 C 0.34908 0.20443 0.00096 0.0
C865 C 0.38034 0.2244 0.03298 0.0
C866 C 0.37128 0.16528 0.07182 0.0
H867 H 0.3917 0.13719 0.16893 0.0
H868 H 0.40254 0.15762 0.13253 0.0
H869 H 0.37205 0.13828 0.09796 0.0
H870 H 0.31535 0.15597 0.00214 0.0
H871 H 0.3285 0.14821 0.03812 0.0
H872 H 0.36802 0.23102 0.07658 0.0
C873 C 0.38416 0.1578 0.14139 0.0
C874 C 0.3719 0.15897 0.09348 0.0
C875 C 0.37803 0.14625 0.16224 0.0
C876 C 0.33378 0.17525 0.01044 0.0
C877 C 0.34144 0.17075 0.031 0.0
C878 C 0.36965 0.21111 0.08106 0.0
C879 C 0.36629 0.16887 0.13193 0.0
C880 C 0.37036 0.17812 0.10915 0.0
C881 C 0.36432 0.19539 0.04267 0.0
C882 C 0.36947 0.19105 0.0654 0.0
H883 H 0.31743 0.15656 0.17314 0.0
H884 H 0.32839 0.17704 0.13697 0.0
H885 H 0.3689 0.21986 0.11447 0.0
H886 H 0.38514 0.25159 0.00536 0.0
H887 H 0.39817 0.24375 0.0416 0.0
loop_
_geom_bond_atom_site_label_1
_geom_bond_atom_site_label_2
_geom_bond_distance
_geom_bond_site_symmetry_2
_ccdc_geom_bond_type
Zn0 O3 2.031 . S
Zn0 O5 2.049 . S
Zn0 O10 2.067 . S
Zn1 O2 1.962 . S
Zn1 O4 1.986 . S
Zn1 O6 1.996 . S
Zn1 O9 1.943 . S
O2 Zn1 1.962 . S
O2 C7 1.254 . S
O3 Zn0 2.031 . S
O3 C7 1.269 . S
O4 Zn1 1.986 . S
O4 C11 1.262 . S
O5 Zn0 2.049 . S
O5 C13 1.260 . S
O6 Zn1 1.996 . S
O6 C13 1.257 . S
C7 O2 1.254 . S
C7 O3 1.269 . S
C8 O9 1.249 . S
C8 O10 1.270 . S
O9 Zn1 1.943 . S
O9 C8 1.249 . S
O10 Zn0 2.067 . S
O10 C8 1.270 . S
C11 O4 1.262 . S
C11 O12 1.232 . S
O12 C11 1.232 . S
C13 O5 1.260 . S
C13 O6 1.257 . S
Zn14 O17 2.031 . S
Zn14 O19 2.049 . S
Zn14 O24 2.067 . S
Zn15 O16 1.962 . S
Zn15 O18 1.986 . S
Zn15 O20 1.996 . S
Zn15 O23 1.943 . S
O16 Zn15 1.962 . S
O16 C21 1.254 . S
O17 Zn14 2.031 . S
O17 C21 1.269 . S
O18 Zn15 1.986 . S
O18 C25 1.262 . S
O19 Zn14 2.049 . S
O19 C27 1.260 . S
O20 Zn15 1.996 . S
O20 C27 1.257 . S
C21 O16 1.254 . S
C21 O17 1.269 . S
C22 O23 1.249 . S
C22 O24 1.270 . S
O23 Zn15 1.943 . S
O23 C22 1.249 . S
O24 Zn14 2.067 . S
O24 C22 1.270 . S
C25 O18 1.262 . S
C25 O26 1.232 . S
O26 C25 1.232 . S
C27 O19 1.260 . S
C27 O20 1.257 . S
Zn28 O31 2.031 . S
Zn28 O33 2.049 . S
Zn28 O38 2.067 . S
Zn29 O30 1.962 . S
Zn29 O32 1.986 . S
Zn29 O34 1.996 . S
Zn29 O37 1.943 . S
O30 Zn29 1.962 . S
O30 C35 1.254 . S
O31 Zn28 2.031 . S
O31 C35 1.269 . S
O32 Zn29 1.986 . S
O32 C39 1.262 . S
O33 Zn28 2.049 . S
O33 C41 1.260 . S
O34 Zn29 1.996 . S
O34 C41 1.257 . S
C35 O30 1.254 . S
C35 O31 1.269 . S
C36 O37 1.249 . S
C36 O38 1.270 . S
O37 Zn29 1.943 . S
O37 C36 1.249 . S
O38 Zn28 2.067 . S
O38 C36 1.270 . S
C39 O32 1.262 . S
C39 O40 1.232 . S
O40 C39 1.232 . S
C41 O33 1.260 . S
C41 O34 1.257 . S
Zn42 O45 2.031 . S
Zn42 O47 2.049 . S
Zn42 O52 2.067 . S
Zn43 O44 1.962 . S
Zn43 O46 1.986 . S
Zn43 O48 1.996 . S
Zn43 O51 1.943 . S
O44 Zn43 1.962 . S
O44 C49 1.254 . S
O45 Zn42 2.031 . S
O45 C49 1.269 . S
O46 Zn43 1.986 . S
O46 C53 1.262 . S
O47 Zn42 2.049 . S
O47 C55 1.260 . S
O48 Zn43 1.996 . S
O48 C55 1.257 . S
C49 O44 1.254 . S
C49 O45 1.269 . S
C50 O51 1.249 . S
C50 O52 1.270 . S
O51 Zn43 1.943 . S
O51 C50 1.249 . S
O52 Zn42 2.067 . S
O52 C50 1.270 . S
C53 O46 1.262 . S
C53 O54 1.232 . S
O54 C53 1.232 . S
C55 O47 1.260 . S
C55 O48 1.257 . S
Zn56 O59 2.031 . S
Zn56 O61 2.049 . S
Zn56 O66 2.067 . S
Zn57 O58 1.962 . S
Zn57 O60 1.986 . S
Zn57 O62 1.996 . S
Zn57 O65 1.943 . S
O58 Zn57 1.962 . S
O58 C63 1.254 . S
O59 Zn56 2.031 . S
O59 C63 1.269 . S
O60 Zn57 1.986 . S
O60 C67 1.262 . S
O61 Zn56 2.049 . S
O61 C69 1.260 . S
O62 Zn57 1.996 . S
O62 C69 1.257 . S
C63 O58 1.254 . S
C63 O59 1.269 . S
C64 O65 1.249 . S
C64 O66 1.270 . S
O65 Zn57 1.943 . S
O65 C64 1.249 . S
O66 Zn56 2.067 . S
O66 C64 1.270 . S
C67 O60 1.262 . S
C67 O68 1.232 . S
O68 C67 1.232 . S
C69 O61 1.260 . S
C69 O62 1.257 . S
Zn70 O73 2.031 . S
Zn70 O75 2.049 . S
Zn70 O80 2.067 . S
Zn71 O72 1.962 . S
Zn71 O74 1.986 . S
Zn71 O76 1.996 . S
Zn71 O79 1.943 . S
O72 Zn71 1.962 . S
O72 C77 1.254 . S
O73 Zn70 2.031 . S
O73 C77 1.269 . S
O74 Zn71 1.986 . S
O74 C81 1.262 . S
O75 Zn70 2.049 . S
O75 C83 1.260 . S
O76 Zn71 1.996 . S
O76 C83 1.257 . S
C77 O72 1.254 . S
C77 O73 1.269 . S
C78 O79 1.249 . S
C78 O80 1.270 . S
O79 Zn71 1.943 . S
O79 C78 1.249 . S
O80 Zn70 2.067 . S
O80 C78 1.270 . S
C81 O74 1.262 . S
C81 O82 1.232 . S
O82 C81 1.232 . S
C83 O75 1.260 . S
C83 O76 1.257 . S
Zn84 O87 2.031 . S
Zn84 O89 2.049 . S
Zn84 O94 2.067 . S
Zn85 O86 1.962 . S
Zn85 O88 1.986 . S
Zn85 O90 1.996 . S
Zn85 O93 1.943 . S
O86 Zn85 1.962 . S
O86 C91 1.254 . S
O87 Zn84 2.031 . S
O87 C91 1.269 . S
O88 Zn85 1.986 . S
O88 C95 1.262 . S
O89 Zn84 2.049 . S
O89 C97 1.260 . S
O90 Zn85 1.996 . S
O90 C97 1.257 . S
C91 O86 1.254 . S
C91 O87 1.269 . S
C92 O93 1.249 . S
C92 O94 1.270 . S
O93 Zn85 1.943 . S
O93 C92 1.249 . S
O94 Zn84 2.067 . S
O94 C92 1.270 . S
C95 O88 1.262 . S
C95 O96 1.232 . S
O96 C95 1.232 . S
C97 O89 1.260 . S
C97 O90 1.257 . S
Zn98 O101 2.031 . S
Zn98 O103 2.049 . S
Zn98 O108 2.067 . S
Zn99 O100 1.962 . S
Zn99 O102 1.986 . S
Zn99 O104 1.996 . S
Zn99 O107 1.943 . S
O100 Zn99 1.962 . S
O100 C105 1.254 . S
O101 Zn98 2.031 . S
O101 C105 1.269 . S
O102 Zn99 1.986 . S
O102 C109 1.262 . S
O103 Zn98 2.049 . S
O103 C111 1.260 . S
O104 Zn99 1.996 . S
O104 C111 1.257 . S
C105 O100 1.254 . S
C105 O101 1.269 . S
C106 O107 1.249 . S
C106 O108 1.270 . S
O107 Zn99 1.943 . S
O107 C106 1.249 . S
O108 Zn98 2.067 . S
O108 C106 1.270 . S
C109 O102 1.262 . S
C109 O110 1.232 . S
O110 C109 1.232 . S
C111 O103 1.260 . S
C111 O104 1.257 . S
Zn112 O115 2.031 . S
Zn112 O117 2.049 . S
Zn112 O122 2.067 . S
Zn113 O114 1.962 . S
Zn113 O116 1.986 . S
Zn113 O118 1.996 . S
Zn113 O121 1.943 . S
O114 Zn113 1.962 . S
O114 C119 1.254 . S
O115 Zn112 2.031 . S
O115 C119 1.269 . S
O116 Zn113 1.986 . S
O116 C123 1.262 . S
O117 Zn112 2.049 . S
O117 C125 1.260 . S
O118 Zn113 1.996 . S
O118 C125 1.257 . S
C119 O114 1.254 . S
C119 O115 1.269 . S
C120 O121 1.249 . S
C120 O122 1.270 . S
O121 Zn113 1.943 . S
O121 C120 1.249 . S
O122 Zn112 2.067 . S
O122 C120 1.270 . S
C123 O116 1.262 . S
C123 O124 1.232 . S
O124 C123 1.232 . S
C125 O117 1.260 . S
C125 O118 1.257 . S
Zn126 O129 2.031 . S
Zn126 O131 2.049 . S
Zn126 O136 2.067 . S
Zn127 O128 1.962 . S
Zn127 O130 1.986 . S
Zn127 O132 1.996 . S
Zn127 O135 1.943 . S
O128 Zn127 1.962 . S
O128 C133 1.254 . S
O129 Zn126 2.031 . S
O129 C133 1.269 . S
O130 Zn127 1.986 . S
O130 C137 1.262 . S
O131 Zn126 2.049 . S
O131 C139 1.260 . S
O132 Zn127 1.996 . S
O132 C139 1.257 . S
C133 O128 1.254 . S
C133 O129 1.269 . S
C134 O135 1.249 . S
C134 O136 1.270 . S
O135 Zn127 1.943 . S
O135 C134 1.249 . S
O136 Zn126 2.067 . S
O136 C134 1.270 . S
C137 O130 1.262 . S
C137 O138 1.232 . S
O138 C137 1.232 . S
C139 O131 1.260 . S
C139 O132 1.257 . S
Zn140 O143 2.031 . S
Zn140 O145 2.049 . S
Zn140 O150 2.067 . S
Zn141 O142 1.962 . S
Zn141 O144 1.986 . S
Zn141 O146 1.996 . S
Zn141 O149 1.943 . S
O142 Zn141 1.962 . S
O142 C147 1.254 . S
O143 Zn140 2.031 . S
O143 C147 1.269 . S
O144 Zn141 1.986 . S
O144 C151 1.262 . S
O145 Zn140 2.049 . S
O145 C153 1.260 . S
O146 Zn141 1.996 . S
O146 C153 1.257 . S
C147 O142 1.254 . S
C147 O143 1.269 . S
C148 O149 1.249 . S
C148 O150 1.270 . S
O149 Zn141 1.943 . S
O149 C148 1.249 . S
O150 Zn140 2.067 . S
O150 C148 1.270 . S
C151 O144 1.262 . S
C151 O152 1.232 . S
O152 C151 1.232 . S
C153 O145 1.260 . S
C153 O146 1.257 . S
Zn154 O157 2.031 . S
Zn154 O159 2.049 . S
Zn154 O164 2.067 . S
Zn155 O156 1.962 . S
Zn155 O158 1.986 . S
Zn155 O160 1.996 . S
Zn155 O163 1.943 . S
O156 Zn155 1.962 . S
O156 C161 1.254 . S
O157 Zn154 2.031 . S
O157 C161 1.269 . S
O158 Zn155 1.986 . S
O158 C165 1.262 . S
O159 Zn154 2.049 . S
O159 C167 1.260 . S
O160 Zn155 1.996 . S
O160 C167 1.257 . S
C161 O156 1.254 . S
C161 O157 1.269 . S
C162 O163 1.249 . S
C162 O164 1.270 . S
O163 Zn155 1.943 . S
O163 C162 1.249 . S
O164 Zn154 2.067 . S
O164 C162 1.270 . S
C165 O158 1.262 . S
C165 O166 1.232 . S
O166 C165 1.232 . S
C167 O159 1.260 . S
C167 O160 1.257 . S
C168 C169 1.349 . S
C168 C170 1.327 . S
C168 H193 0.950 . S
C169 C168 1.349 . S
C169 C185 1.349 . S
C170 C168 1.327 . S
C170 C189 1.429 . S
C170 H194 0.950 . S
C171 C188 1.574 . S
C171 C190 1.368 . S
C171 H195 0.949 . S
H172 C176 0.949 . S
C173 C174 1.349 . S
C173 C175 1.327 . S
C173 H196 0.950 . S
C174 C173 1.349 . S
C174 C186 1.349 . S
C175 C173 1.327 . S
C175 C191 1.429 . S
C175 H197 0.950 . S
C176 H172 0.949 . S
C176 C184 1.574 . S
C176 C192 1.368 . S
H177 C185 0.950 . S
H178 C183 0.950 . S
H179 C184 0.949 . S
H180 C186 0.950 . S
H181 C187 0.950 . S
H182 C188 0.949 . S
C183 H178 0.950 . S
C183 C185 1.327 . S
C183 C189 1.429 . S
C184 C176 1.574 . S
C184 H179 0.949 . S
C184 C190 1.368 . S
C185 C169 1.349 . S
C185 H177 0.950 . S
C185 C183 1.327 . S
C186 C174 1.349 . S
C186 H180 0.950 . S
C186 C187 1.327 . S
C187 H181 0.950 . S
C187 C186 1.327 . S
C187 C191 1.429 . S
C188 C171 1.574 . S
C188 H182 0.949 . S
C188 C192 1.368 . S
C189 C170 1.429 . S
C189 C183 1.429 . S
C189 C190 1.523 . S
C190 C171 1.368 . S
C190 C184 1.368 . S
C190 C189 1.523 . S
C191 C175 1.429 . S
C191 C187 1.429 . S
C191 C192 1.523 . S
C192 C176 1.368 . S
C192 C188 1.368 . S
C192 C191 1.523 . S
H193 C168 0.950 . S
H194 C170 0.950 . S
H195 C171 0.949 . S
H196 C173 0.950 . S
H197 C175 0.950 . S
C198 C199 1.349 . S
C198 C200 1.327 . S
C198 H223 0.950 . S
C199 C198 1.349 . S
C199 C215 1.349 . S
C200 C198 1.327 . S
C200 C219 1.429 . S
C200 H224 0.950 . S
C201 C218 1.574 . S
C201 C220 1.368 . S
C201 H225 0.949 . S
H202 C206 0.949 . S
C203 C204 1.349 . S
C203 C205 1.327 . S
C203 H226 0.950 . S
C204 C203 1.349 . S
C204 C216 1.349 . S
C205 C203 1.327 . S
C205 C221 1.429 . S
C205 H227 0.950 . S
C206 H202 0.949 . S
C206 C214 1.574 . S
C206 C222 1.368 . S
H207 C215 0.950 . S
H208 C213 0.950 . S
H209 C214 0.949 . S
H210 C216 0.950 . S
H211 C217 0.950 . S
H212 C218 0.949 . S
C213 H208 0.950 . S
C213 C215 1.327 . S
C213 C219 1.429 . S
C214 C206 1.574 . S
C214 H209 0.949 . S
C214 C220 1.368 . S
C215 C199 1.349 . S
C215 H207 0.950 . S
C215 C213 1.327 . S
C216 C204 1.349 . S
C216 H210 0.950 . S
C216 C217 1.327 . S
C217 H211 0.950 . S
C217 C216 1.327 . S
C217 C221 1.429 . S
C218 C201 1.574 . S
C218 H212 0.949 . S
C218 C222 1.368 . S
C219 C200 1.429 . S
C219 C213 1.429 . S
C219 C220 1.523 . S
C220 C201 1.368 . S
C220 C214 1.368 . S
C220 C219 1.523 . S
C221 C205 1.429 . S
C221 C217 1.429 . S
C221 C222 1.523 . S
C222 C206 1.368 . S
C222 C218 1.368 . S
C222 C221 1.523 . S
H223 C198 0.950 . S
H224 C200 0.950 . S
H225 C201 0.949 . S
H226 C203 0.950 . S
H227 C205 0.950 . S
C228 C229 1.349 . S
C228 C230 1.327 . S
C228 H253 0.950 . S
C229 C228 1.349 . S
C229 C245 1.349 . S
C230 C228 1.327 . S
C230 C249 1.429 . S
C230 H254 0.950 . S
C231 C248 1.574 . S
C231 C250 1.368 . S
C231 H255 0.949 . S
H232 C236 0.949 . S
C233 C234 1.349 . S
C233 C235 1.327 . S
C233 H256 0.950 . S
C234 C233 1.349 . S
C234 C246 1.349 . S
C235 C233 1.327 . S
C235 C251 1.429 . S
C235 H257 0.950 . S
C236 H232 0.949 . S
C236 C244 1.574 . S
C236 C252 1.368 . S
H237 C245 0.950 . S
H238 C243 0.950 . S
H239 C244 0.949 . S
H240 C246 0.950 . S
H241 C247 0.950 . S
H242 C248 0.949 . S
C243 H238 0.950 . S
C243 C245 1.327 . S
C243 C249 1.429 . S
C244 C236 1.574 . S
C244 H239 0.949 . S
C244 C250 1.368 . S
C245 C229 1.349 . S
C245 H237 0.950 . S
C245 C243 1.327 . S
C246 C234 1.349 . S
C246 H240 0.950 . S
C246 C247 1.327 . S
C247 H241 0.950 . S
C247 C246 1.327 . S
C247 C251 1.429 . S
C248 C231 1.574 . S
C248 H242 0.949 . S
C248 C252 1.368 . S
C249 C230 1.429 . S
C249 C243 1.429 . S
C249 C250 1.523 . S
C250 C231 1.368 . S
C250 C244 1.368 . S
C250 C249 1.523 . S
C251 C235 1.429 . S
C251 C247 1.429 . S
C251 C252 1.523 . S
C252 C236 1.368 . S
C252 C248 1.368 . S
C252 C251 1.523 . S
H253 C228 0.950 . S
H254 C230 0.950 . S
H255 C231 0.949 . S
H256 C233 0.950 . S
H257 C235 0.950 . S
C258 C259 1.349 . S
C258 C260 1.327 . S
C258 H283 0.950 . S
C259 C258 1.349 . S
C259 C275 1.349 . S
C260 C258 1.327 . S
C260 C279 1.429 . S
C260 H284 0.950 . S
C261 C278 1.574 . S
C261 C280 1.368 . S
C261 H285 0.949 . S
H262 C266 0.949 . S
C263 C264 1.349 . S
C263 C265 1.327 . S
C263 H286 0.950 . S
C264 C263 1.349 . S
C264 C276 1.349 . S
C265 C263 1.327 . S
C265 C281 1.429 . S
C265 H287 0.950 . S
C266 H262 0.949 . S
C266 C274 1.574 . S
C266 C282 1.368 . S
H267 C275 0.950 . S
H268 C273 0.950 . S
H269 C274 0.949 . S
H270 C276 0.950 . S
H271 C277 0.950 . S
H272 C278 0.949 . S
C273 H268 0.950 . S
C273 C275 1.327 . S
C273 C279 1.429 . S
C274 C266 1.574 . S
C274 H269 0.949 . S
C274 C280 1.368 . S
C275 C259 1.349 . S
C275 H267 0.950 . S
C275 C273 1.327 . S
C276 C264 1.349 . S
C276 H270 0.950 . S
C276 C277 1.327 . S
C277 H271 0.950 . S
C277 C276 1.327 . S
C277 C281 1.429 . S
C278 C261 1.574 . S
C278 H272 0.949 . S
C278 C282 1.368 . S
C279 C260 1.429 . S
C279 C273 1.429 . S
C279 C280 1.523 . S
C280 C261 1.368 . S
C280 C274 1.368 . S
C280 C279 1.523 . S
C281 C265 1.429 . S
C281 C277 1.429 . S
C281 C282 1.523 . S
C282 C266 1.368 . S
C282 C278 1.368 . S
C282 C281 1.523 . S
H283 C258 0.950 . S
H284 C260 0.950 . S
H285 C261 0.949 . S
H286 C263 0.950 . S
H287 C265 0.950 . S
C288 C289 1.349 . S
C288 C290 1.327 . S
C288 H313 0.950 . S
C289 C288 1.349 . S
C289 C305 1.349 . S
C290 C288 1.327 . S
C290 C309 1.429 . S
C290 H314 0.950 . S
C291 C308 1.574 . S
C291 C310 1.368 . S
C291 H315 0.949 . S
H292 C296 0.949 . S
C293 C294 1.349 . S
C293 C295 1.327 . S
C293 H316 0.950 . S
C294 C293 1.349 . S
C294 C306 1.349 . S
C295 C293 1.327 . S
C295 C311 1.429 . S
C295 H317 0.950 . S
C296 H292 0.949 . S
C296 C304 1.574 . S
C296 C312 1.368 . S
H297 C305 0.950 . S
H298 C303 0.950 . S
H299 C304 0.949 . S
H300 C306 0.950 . S
H301 C307 0.950 . S
H302 C308 0.949 . S
C303 H298 0.950 . S
C303 C305 1.327 . S
C303 C309 1.429 . S
C304 C296 1.574 . S
C304 H299 0.949 . S
C304 C310 1.368 . S
C305 C289 1.349 . S
C305 H297 0.950 . S
C305 C303 1.327 . S
C306 C294 1.349 . S
C306 H300 0.950 . S
C306 C307 1.327 . S
C307 H301 0.950 . S
C307 C306 1.327 . S
C307 C311 1.429 . S
C308 C291 1.574 . S
C308 H302 0.949 . S
C308 C312 1.368 . S
C309 C290 1.429 . S
C309 C303 1.429 . S
C309 C310 1.523 . S
C310 C291 1.368 . S
C310 C304 1.368 . S
C310 C309 1.523 . S
C311 C295 1.429 . S
C311 C307 1.429 . S
C311 C312 1.523 . S
C312 C296 1.368 . S
C312 C308 1.368 . S
C312 C311 1.523 . S
H313 C288 0.950 . S
H314 C290 0.950 . S
H315 C291 0.949 . S
H316 C293 0.950 . S
H317 C295 0.950 . S
C318 C319 1.349 . S
C318 C320 1.327 . S
C318 H343 0.950 . S
C319 C318 1.349 . S
C319 C335 1.349 . S
C320 C318 1.327 . S
C320 C339 1.429 . S
C320 H344 0.950 . S
C321 C338 1.574 . S
C321 C340 1.368 . S
C321 H345 0.949 . S
H322 C326 0.949 . S
C323 C324 1.349 . S
C323 C325 1.327 . S
C323 H346 0.950 . S
C324 C323 1.349 . S
C324 C336 1.349 . S
C325 C323 1.327 . S
C325 C341 1.429 . S
C325 H347 0.950 . S
C326 H322 0.949 . S
C326 C334 1.574 . S
C326 C342 1.368 . S
H327 C335 0.950 . S
H328 C333 0.950 . S
H329 C334 0.949 . S
H330 C336 0.950 . S
H331 C337 0.950 . S
H332 C338 0.949 . S
C333 H328 0.950 . S
C333 C335 1.327 . S
C333 C339 1.429 . S
C334 C326 1.574 . S
C334 H329 0.949 . S
C334 C340 1.368 . S
C335 C319 1.349 . S
C335 H327 0.950 . S
C335 C333 1.327 . S
C336 C324 1.349 . S
C336 H330 0.950 . S
C336 C337 1.327 . S
C337 H331 0.950 . S
C337 C336 1.327 . S
C337 C341 1.429 . S
C338 C321 1.574 . S
C338 H332 0.949 . S
C338 C342 1.368 . S
C339 C320 1.429 . S
C339 C333 1.429 . S
C339 C340 1.523 . S
C340 C321 1.368 . S
C340 C334 1.368 . S
C340 C339 1.523 . S
C341 C325 1.429 . S
C341 C337 1.429 . S
C341 C342 1.523 . S
C342 C326 1.368 . S
C342 C338 1.368 . S
C342 C341 1.523 . S
H343 C318 0.950 . S
H344 C320 0.950 . S
H345 C321 0.949 . S
H346 C323 0.950 . S
H347 C325 0.950 . S
C348 C349 1.349 . S
C348 C350 1.327 . S
C348 H373 0.950 . S
C349 C348 1.349 . S
C349 C365 1.349 . S
C350 C348 1.327 . S
C350 C369 1.429 . S
C350 H374 0.950 . S
C351 C368 1.574 . S
C351 C370 1.368 . S
C351 H375 0.949 . S
H352 C356 0.949 . S
C353 C354 1.349 . S
C353 C355 1.327 . S
C353 H376 0.950 . S
C354 C353 1.349 . S
C354 C366 1.349 . S
C355 C353 1.327 . S
C355 C371 1.429 1_556 S
C355 H377 0.950 . S
C356 H352 0.949 . S
C356 C364 1.574 . S
C356 C372 1.368 . S
H357 C365 0.950 . S
H358 C363 0.950 . S
H359 C364 0.949 . S
H360 C366 0.950 . S
H361 C367 0.950 . S
H362 C368 0.949 . S
C363 H358 0.950 . S
C363 C365 1.327 . S
C363 C369 1.429 . S
C364 C356 1.574 . S
C364 H359 0.949 . S
C364 C370 1.368 . S
C365 C349 1.349 . S
C365 H357 0.950 . S
C365 C363 1.327 . S
C366 C354 1.349 . S
C366 H360 0.950 . S
C366 C367 1.327 1_556 S
C367 H361 0.950 . S
C367 C366 1.327 1_554 S
C367 C371 1.429 . S
C368 C351 1.574 . S
C368 H362 0.949 . S
C368 C372 1.368 . S
C369 C350 1.429 . S
C369 C363 1.429 . S
C369 C370 1.523 . S
C370 C351 1.368 . S
C370 C364 1.368 . S
C370 C369 1.523 . S
C371 C355 1.429 1_554 S
C371 C367 1.429 . S
C371 C372 1.523 . S
C372 C356 1.368 . S
C372 C368 1.368 . S
C372 C371 1.523 . S
H373 C348 0.950 . S
H374 C350 0.950 . S
H375 C351 0.949 . S
H376 C353 0.950 . S
H377 C355 0.950 . S
C378 C379 1.349 . S
C378 C380 1.327 . S
C378 H403 0.950 . S
C379 C378 1.349 . S
C379 C395 1.349 . S
C380 C378 1.327 . S
C380 C399 1.429 . S
C380 H404 0.950 . S
C381 C398 1.574 . S
C381 C400 1.368 . S
C381 H405 0.949 . S
H382 C386 0.949 . S
C383 C384 1.342 1_655 S
C383 C385 1.327 . S
C383 H406 0.950 . S
C384 C383 1.342 1_455 S
C384 C396 1.351 . S
C385 C383 1.327 . S
C385 C401 1.429 . S
C385 H407 0.950 . S
C386 H382 0.949 . S
C386 C394 1.574 . S
C386 C402 1.368 . S
H387 C395 0.950 . S
H388 C393 0.950 . S
H389 C394 0.949 . S
H390 C396 0.950 . S
H391 C397 0.950 . S
H392 C398 0.949 . S
C393 H388 0.950 . S
C393 C395 1.327 . S
C393 C399 1.429 . S
C394 C386 1.574 . S
C394 H389 0.949 . S
C394 C400 1.368 . S
C395 C379 1.349 . S
C395 H387 0.950 . S
C395 C393 1.327 . S
C396 C384 1.351 . S
C396 H390 0.950 . S
C396 C397 1.327 1_455 S
C397 H391 0.950 . S
C397 C396 1.327 1_655 S
C397 C401 1.429 . S
C398 C381 1.574 . S
C398 H392 0.949 . S
C398 C402 1.368 . S
C399 C380 1.429 . S
C399 C393 1.429 . S
C399 C400 1.523 . S
C400 C381 1.368 . S
C400 C394 1.368 . S
C400 C399 1.523 . S
C401 C385 1.429 . S
C401 C397 1.429 . S
C401 C402 1.523 . S
C402 C386 1.368 . S
C402 C398 1.368 . S
C402 C401 1.523 . S
H403 C378 0.950 . S
H404 C380 0.950 . S
H405 C381 0.949 . S
H406 C383 0.950 . S
H407 C385 0.950 . S
C408 C409 1.349 . S
C408 C410 1.327 . S
C408 H433 0.950 . S
C409 C408 1.349 . S
C409 C425 1.349 . S
C410 C408 1.327 . S
C410 C429 1.429 . S
C410 H434 0.950 . S
C411 C428 1.574 . S
C411 C430 1.368 . S
C411 H435 0.949 . S
H412 C416 0.949 . S
C413 C414 1.341 1_565 S
C413 C415 1.327 . S
C413 H436 0.950 . S
C414 C413 1.341 1_545 S
C414 C426 1.355 1_545 S
C415 C413 1.327 . S
C415 C431 1.429 . S
C415 H437 0.950 . S
C416 H412 0.949 . S
C416 C424 1.574 . S
C416 C432 1.368 . S
H417 C425 0.950 . S
H418 C423 0.950 . S
H419 C424 0.949 . S
H420 C426 0.911 1_545 S
H421 C427 0.950 . S
H422 C428 0.949 . S
C423 H418 0.950 . S
C423 C425 1.327 . S
C423 C429 1.429 . S
C424 C416 1.574 . S
C424 H419 0.949 . S
C424 C430 1.368 . S
C425 C409 1.349 . S
C425 H417 0.950 . S
C425 C423 1.327 . S
C426 C414 1.355 1_565 S
C426 H420 0.911 1_565 S
C426 C427 1.361 . S
C427 H421 0.950 . S
C427 C426 1.361 . S
C427 C431 1.429 . S
C428 C411 1.574 . S
C428 H422 0.949 . S
C428 C432 1.368 . S
C429 C410 1.429 . S
C429 C423 1.429 . S
C429 C430 1.523 . S
C430 C411 1.368 . S
C430 C424 1.368 . S
C430 C429 1.523 . S
C431 C415 1.429 . S
C431 C427 1.429 . S
C431 C432 1.523 . S
C432 C416 1.368 . S
C432 C428 1.368 . S
C432 C431 1.523 . S
H433 C408 0.950 . S
H434 C410 0.950 . S
H435 C411 0.949 . S
H436 C413 0.950 . S
H437 C415 0.950 . S
C438 C439 1.349 . S
C438 C440 1.327 . S
C438 H463 0.950 . S
C439 C438 1.349 . S
C439 C455 1.349 . S
C440 C438 1.327 . S
C440 C459 1.429 . S
C440 H464 0.950 . S
C441 C458 1.574 . S
C441 C460 1.368 . S
C441 H465 0.949 . S
H442 C446 0.949 . S
C443 C444 1.349 . S
C443 C445 1.327 . S
C443 H466 0.950 . S
C444 C443 1.349 . S
C444 C456 1.349 . S
C445 C443 1.327 . S
C445 C461 1.429 . S
C445 H467 0.950 . S
C446 H442 0.949 . S
C446 C454 1.574 . S
C446 C462 1.368 . S
H447 C455 0.950 . S
H448 C453 0.950 . S
H449 C454 0.949 . S
H450 C456 0.950 . S
H451 C457 0.950 . S
H452 C458 0.949 . S
C453 H448 0.950 . S
C453 C455 1.327 . S
C453 C459 1.429 . S
C454 C446 1.574 . S
C454 H449 0.949 . S
C454 C460 1.368 . S
C455 C439 1.349 . S
C455 H447 0.950 . S
C455 C453 1.327 . S
C456 C444 1.349 . S
C456 H450 0.950 . S
C456 C457 1.327 . S
C457 H451 0.950 . S
C457 C456 1.327 . S
C457 C461 1.429 . S
C458 C441 1.574 . S
C458 H452 0.949 . S
C458 C462 1.368 . S
C459 C440 1.429 . S
C459 C453 1.429 . S
C459 C460 1.523 . S
C460 C441 1.368 . S
C460 C454 1.368 . S
C460 C459 1.523 . S
C461 C445 1.429 . S
C461 C457 1.429 . S
C461 C462 1.523 . S
C462 C446 1.368 . S
C462 C458 1.368 . S
C462 C461 1.523 . S
H463 C438 0.950 . S
H464 C440 0.950 . S
H465 C441 0.949 . S
H466 C443 0.950 . S
H467 C445 0.950 . S
C468 C469 1.342 1_455 S
C468 C470 1.327 . S
C468 H493 0.950 . S
C469 C468 1.342 1_655 S
C469 C485 1.351 1_655 S
C470 C468 1.327 . S
C470 C489 1.429 . S
C470 H494 0.950 . S
C471 C488 1.574 . S
C471 C490 1.368 . S
C471 H495 0.949 . S
H472 C476 0.949 . S
C473 C474 1.349 . S
C473 C475 1.327 . S
C473 H496 0.950 . S
C474 C473 1.349 . S
C474 C486 1.349 . S
C475 C473 1.327 . S
C475 C491 1.429 . S
C475 H497 0.950 . S
C476 H472 0.949 . S
C476 C484 1.574 . S
C476 C492 1.368 . S
H477 C485 0.950 1_655 S
H478 C483 0.950 . S
H479 C484 0.949 . S
H480 C486 0.950 . S
H481 C487 0.950 . S
H482 C488 0.949 . S
C483 H478 0.950 . S
C483 C485 1.327 . S
C483 C489 1.429 . S
C484 C476 1.574 . S
C484 H479 0.949 . S
C484 C490 1.368 . S
C485 C469 1.351 1_455 S
C485 H477 0.950 1_455 S
C485 C483 1.327 . S
C486 C474 1.349 . S
C486 H480 0.950 . S
C486 C487 1.327 . S
C487 H481 0.950 . S
C487 C486 1.327 . S
C487 C491 1.429 . S
C488 C471 1.574 . S
C488 H482 0.949 . S
C488 C492 1.368 . S
C489 C470 1.429 . S
C489 C483 1.429 . S
C489 C490 1.523 . S
C490 C471 1.368 . S
C490 C484 1.368 . S
C490 C489 1.523 . S
C491 C475 1.429 . S
C491 C487 1.429 . S
C491 C492 1.523 . S
C492 C476 1.368 . S
C492 C488 1.368 . S
C492 C491 1.523 . S
H493 C468 0.950 . S
H494 C470 0.950 . S
H495 C471 0.949 . S
H496 C473 0.950 . S
H497 C475 0.950 . S
C498 C499 1.341 1_545 S
C498 C500 1.327 . S
C498 H523 0.950 . S
C499 C498 1.341 1_565 S
C499 C515 1.350 1_565 S
C500 C498 1.327 . S
C500 C519 1.429 . S
C500 H524 0.950 . S
C501 C518 1.574 . S
C501 C520 1.368 . S
C501 H525 0.949 . S
H502 C506 0.949 . S
C503 C504 1.349 . S
C503 C505 1.327 . S
C503 H526 0.950 . S
C504 C503 1.349 . S
C504 C516 1.349 . S
C505 C503 1.327 . S
C505 C521 1.429 . S
C505 H527 0.950 . S
C506 H502 0.949 . S
C506 C514 1.574 . S
C506 C522 1.368 . S
H507 C515 0.950 1_565 S
H508 C513 0.950 . S
H509 C514 0.949 . S
H510 C516 0.950 . S
H511 C517 0.950 . S
H512 C518 0.949 . S
C513 H508 0.950 . S
C513 C515 1.327 . S
C513 C519 1.429 . S
C514 C506 1.574 . S
C514 H509 0.949 . S
C514 C520 1.368 . S
C515 C499 1.350 1_545 S
C515 H507 0.950 1_545 S
C515 C513 1.327 . S
C516 C504 1.349 . S
C516 H510 0.950 . S
C516 C517 1.327 . S
C517 H511 0.950 . S
C517 C516 1.327 . S
C517 C521 1.429 . S
C518 C501 1.574 . S
C518 H512 0.949 . S
C518 C522 1.368 . S
C519 C500 1.429 . S
C519 C513 1.429 . S
C519 C520 1.523 . S
C520 C501 1.368 . S
C520 C514 1.368 . S
C520 C519 1.523 . S
C521 C505 1.429 . S
C521 C517 1.429 . S
C521 C522 1.523 . S
C522 C506 1.368 . S
C522 C518 1.368 . S
C522 C521 1.523 . S
H523 C498 0.950 . S
H524 C500 0.950 . S
H525 C501 0.949 . S
H526 C503 0.950 . S
H527 C505 0.950 . S
C528 C529 1.349 . S
C528 C530 1.327 . S
C528 H553 0.950 . S
C529 C528 1.349 . S
C529 C545 1.349 . S
C530 C528 1.327 . S
C530 C549 1.429 . S
C530 H554 0.950 . S
C531 C548 1.574 . S
C531 C550 1.368 . S
C531 H555 0.949 . S
H532 C536 0.949 . S
C533 C534 1.349 . S
C533 C535 1.327 . S
C533 H556 0.950 . S
C534 C533 1.349 . S
C534 C546 1.349 . S
C535 C533 1.327 . S
C535 C551 1.429 . S
C535 H557 0.950 . S
C536 H532 0.949 . S
C536 C544 1.574 . S
C536 C552 1.368 . S
H537 C545 0.950 . S
H538 C543 0.950 . S
H539 C544 0.949 . S
H540 C546 0.950 . S
H541 C547 0.950 . S
H542 C548 0.949 . S
C543 H538 0.950 . S
C543 C545 1.327 . S
C543 C549 1.429 . S
C544 C536 1.574 . S
C544 H539 0.949 . S
C544 C550 1.368 . S
C545 C529 1.349 . S
C545 H537 0.950 . S
C545 C543 1.327 . S
C546 C534 1.349 . S
C546 H540 0.950 . S
C546 C547 1.327 . S
C547 H541 0.950 . S
C547 C546 1.327 . S
C547 C551 1.429 . S
C548 C531 1.574 . S
C548 H542 0.949 . S
C548 C552 1.368 . S
C549 C530 1.429 . S
C549 C543 1.429 . S
C549 C550 1.523 . S
C550 C531 1.368 . S
C550 C544 1.368 . S
C550 C549 1.523 . S
C551 C535 1.429 . S
C551 C547 1.429 . S
C551 C552 1.523 . S
C552 C536 1.368 . S
C552 C548 1.368 . S
C552 C551 1.523 . S
H553 C528 0.950 . S
H554 C530 0.950 . S
H555 C531 0.949 . S
H556 C533 0.950 . S
H557 C535 0.950 . S
C558 C559 1.349 . S
C558 C560 1.327 . S
C558 H583 0.950 . S
C559 C558 1.349 . S
C559 C575 1.349 . S
C560 C558 1.327 . S
C560 C579 1.429 . S
C560 H584 0.950 . S
C561 C578 1.574 . S
C561 C580 1.368 . S
C561 H585 0.949 . S
H562 C566 0.949 . S
C563 C564 1.347 . S
C563 C565 1.327 1_454 S
C563 H586 0.950 . S
C564 C563 1.347 . S
C564 C576 1.344 1_455 S
C565 C563 1.327 1_656 S
C565 C581 1.429 . S
C565 H587 0.950 . S
C566 H562 0.949 . S
C566 C574 1.574 . S
C566 C582 1.368 . S
H567 C575 0.950 . S
H568 C573 0.950 . S
H569 C574 0.949 . S
H570 C576 0.950 . S
H571 C577 0.950 . S
H572 C578 0.949 . S
C573 H568 0.950 . S
C573 C575 1.327 . S
C573 C579 1.429 . S
C574 C566 1.574 . S
C574 H569 0.949 . S
C574 C580 1.368 . S
C575 C559 1.349 . S
C575 H567 0.950 . S
C575 C573 1.327 . S
C576 C564 1.344 1_655 S
C576 H570 0.950 . S
C576 C577 1.327 . S
C577 H571 0.950 . S
C577 C576 1.327 . S
C577 C581 1.429 1_554 S
C578 C561 1.574 . S
C578 H572 0.949 . S
C578 C582 1.368 . S
C579 C560 1.429 . S
C579 C573 1.429 . S
C579 C580 1.523 . S
C580 C561 1.368 . S
C580 C574 1.368 . S
C580 C579 1.523 . S
C581 C565 1.429 . S
C581 C577 1.429 1_556 S
C581 C582 1.523 . S
C582 C566 1.368 . S
C582 C578 1.368 . S
C582 C581 1.523 . S
H583 C558 0.950 . S
H584 C560 0.950 . S
H585 C561 0.949 . S
H586 C563 0.950 . S
H587 C565 0.950 . S
C588 C589 1.347 1_565 S
C588 C590 1.327 . S
C588 H613 0.950 1_565 S
C589 C588 1.347 1_545 S
C589 C605 1.346 1_545 S
C590 C588 1.327 . S
C590 C609 1.429 . S
C590 H614 0.950 . S
C591 C608 1.574 . S
C591 C610 1.368 . S
C591 H615 0.949 . S
H592 C596 0.949 . S
C593 C594 1.349 . S
C593 C595 1.327 . S
C593 H616 0.950 . S
C594 C593 1.349 . S
C594 C606 1.349 . S
C595 C593 1.327 . S
C595 C611 1.429 . S
C595 H617 0.950 . S
C596 H592 0.949 . S
C596 C604 1.574 . S
C596 C612 1.368 . S
H597 C605 0.950 . S
H598 C603 0.950 . S
H599 C604 0.949 . S
H600 C606 0.950 . S
H601 C607 0.950 . S
H602 C608 0.949 . S
C603 H598 0.950 . S
C603 C605 1.327 . S
C603 C609 1.429 . S
C604 C596 1.574 . S
C604 H599 0.949 . S
C604 C610 1.368 . S
C605 C589 1.346 1_565 S
C605 H597 0.950 . S
C605 C603 1.327 . S
C606 C594 1.349 . S
C606 H600 0.950 . S
C606 C607 1.327 . S
C607 H601 0.950 . S
C607 C606 1.327 . S
C607 C611 1.429 . S
C608 C591 1.574 . S
C608 H602 0.949 . S
C608 C612 1.368 . S
C609 C590 1.429 . S
C609 C603 1.429 . S
C609 C610 1.523 . S
C610 C591 1.368 . S
C610 C604 1.368 . S
C610 C609 1.523 . S
C611 C595 1.429 . S
C611 C607 1.429 . S
C611 C612 1.523 . S
C612 C596 1.368 . S
C612 C608 1.368 . S
C612 C611 1.523 . S
H613 C588 0.950 1_545 S
H614 C590 0.950 . S
H615 C591 0.949 . S
H616 C593 0.950 . S
H617 C595 0.950 . S
C618 C619 1.349 . S
C618 C620 1.327 . S
C618 H643 0.950 . S
C619 C618 1.349 . S
C619 C635 1.349 . S
C620 C618 1.327 . S
C620 C639 1.429 . S
C620 H644 0.950 . S
C621 C638 1.574 . S
C621 C640 1.368 . S
C621 H645 0.949 . S
H622 C626 0.949 . S
C623 C624 1.349 . S
C623 C625 1.327 . S
C623 H646 0.950 . S
C624 C623 1.349 . S
C624 C636 1.349 . S
C625 C623 1.327 . S
C625 C641 1.429 . S
C625 H647 0.950 . S
C626 H622 0.949 . S
C626 C634 1.574 . S
C626 C642 1.368 . S
H627 C635 0.950 . S
H628 C633 0.950 . S
H629 C634 0.949 . S
H630 C636 0.950 . S
H631 C637 0.950 . S
H632 C638 0.949 . S
C633 H628 0.950 . S
C633 C635 1.327 . S
C633 C639 1.429 . S
C634 C626 1.574 . S
C634 H629 0.949 . S
C634 C640 1.368 . S
C635 C619 1.349 . S
C635 H627 0.950 . S
C635 C633 1.327 . S
C636 C624 1.349 . S
C636 H630 0.950 . S
C636 C637 1.327 . S
C637 H631 0.950 . S
C637 C636 1.327 . S
C637 C641 1.429 . S
C638 C621 1.574 . S
C638 H632 0.949 . S
C638 C642 1.368 . S
C639 C620 1.429 . S
C639 C633 1.429 . S
C639 C640 1.523 . S
C640 C621 1.368 . S
C640 C634 1.368 . S
C640 C639 1.523 . S
C641 C625 1.429 . S
C641 C637 1.429 . S
C641 C642 1.523 . S
C642 C626 1.368 . S
C642 C638 1.368 . S
C642 C641 1.523 . S
H643 C618 0.950 . S
H644 C620 0.950 . S
H645 C621 0.949 . S
H646 C623 0.950 . S
H647 C625 0.950 . S
C648 C649 1.349 . S
C648 C650 1.327 . S
C648 H673 0.950 . S
C649 C648 1.349 . S
C649 C665 1.349 . S
C650 C648 1.327 . S
C650 C669 1.429 . S
C650 H674 0.950 . S
C651 C668 1.574 . S
C651 C670 1.368 . S
C651 H675 0.949 . S
H652 C656 0.949 . S
C653 C654 1.350 . S
C653 C655 1.327 1_655 S
C653 H676 0.950 . S
C654 C653 1.350 . S
C654 C666 1.341 1_655 S
C655 C653 1.327 1_455 S
C655 C671 1.429 . S
C655 H677 0.950 . S
C656 H652 0.949 . S
C656 C664 1.574 . S
C656 C672 1.368 . S
H657 C665 0.950 . S
H658 C663 0.950 . S
H659 C664 0.949 . S
H660 C666 0.950 . S
H661 C667 0.950 . S
H662 C668 0.949 . S
C663 H658 0.950 . S
C663 C665 1.327 . S
C663 C669 1.429 . S
C664 C656 1.574 . S
C664 H659 0.949 . S
C664 C670 1.368 . S
C665 C649 1.349 . S
C665 H657 0.950 . S
C665 C663 1.327 . S
C666 C654 1.341 1_455 S
C666 H660 0.950 . S
C666 C667 1.327 . S
C667 H661 0.950 . S
C667 C666 1.327 . S
C667 C671 1.429 . S
C668 C651 1.574 . S
C668 H662 0.949 . S
C668 C672 1.368 . S
C669 C650 1.429 . S
C669 C663 1.429 . S
C669 C670 1.523 . S
C670 C651 1.368 . S
C670 C664 1.368 . S
C670 C669 1.523 . S
C671 C655 1.429 . S
C671 C667 1.429 . S
C671 C672 1.523 . S
C672 C656 1.368 . S
C672 C668 1.368 . S
C672 C671 1.523 . S
H673 C648 0.950 . S
H674 C650 0.950 . S
H675 C651 0.949 . S
H676 C653 0.950 . S
H677 C655 0.950 . S
C678 C679 1.349 . S
C678 C680 1.327 . S
C678 H703 0.950 . S
C679 C678 1.349 . S
C679 C695 1.349 . S
C680 C678 1.327 . S
C680 C699 1.429 . S
C680 H704 0.950 . S
C681 C698 1.574 . S
C681 C700 1.368 . S
C681 H705 0.949 . S
H682 C686 0.949 . S
C683 C684 1.353 . S
C683 C685 1.327 1_565 S
C683 H706 0.950 . S
C684 C683 1.353 . S
C684 C696 1.340 1_565 S
C685 C683 1.327 1_545 S
C685 C701 1.429 . S
C685 H707 0.950 . S
C686 H682 0.949 . S
C686 C694 1.574 . S
C686 C702 1.368 . S
H687 C695 0.950 . S
H688 C693 0.950 . S
H689 C694 0.949 . S
H690 C696 0.950 . S
H691 C697 0.950 . S
H692 C698 0.949 . S
C693 H688 0.950 . S
C693 C695 1.327 . S
C693 C699 1.429 . S
C694 C686 1.574 . S
C694 H689 0.949 . S
C694 C700 1.368 . S
C695 C679 1.349 . S
C695 H687 0.950 . S
C695 C693 1.327 . S
C696 C684 1.340 1_545 S
C696 H690 0.950 . S
C696 C697 1.327 . S
C697 H691 0.950 . S
C697 C696 1.327 . S
C697 C701 1.429 . S
C698 C681 1.574 . S
C698 H692 0.949 . S
C698 C702 1.368 . S
C699 C680 1.429 . S
C699 C693 1.429 . S
C699 C700 1.523 . S
C700 C681 1.368 . S
C700 C694 1.368 . S
C700 C699 1.523 . S
C701 C685 1.429 . S
C701 C697 1.429 . S
C701 C702 1.523 . S
C702 C686 1.368 . S
C702 C698 1.368 . S
C702 C701 1.523 . S
H703 C678 0.950 . S
H704 C680 0.950 . S
H705 C681 0.949 . S
H706 C683 0.950 . S
H707 C685 0.950 . S
C708 C709 1.349 . S
C708 C710 1.327 . S
C708 H733 0.950 . S
C709 C708 1.349 . S
C709 C725 1.349 . S
C710 C708 1.327 . S
C710 C729 1.429 . S
C710 H734 0.950 . S
C711 C728 1.574 . S
C711 C730 1.368 . S
C711 H735 0.949 . S
H712 C716 0.949 . S
C713 C714 1.349 . S
C713 C715 1.327 . S
C713 H736 0.950 . S
C714 C713 1.349 . S
C714 C726 1.349 . S
C715 C713 1.327 . S
C715 C731 1.429 . S
C715 H737 0.950 . S
C716 H712 0.949 . S
C716 C724 1.574 . S
C716 C732 1.368 . S
H717 C725 0.950 . S
H718 C723 0.950 . S
H719 C724 0.949 . S
H720 C726 0.950 . S
H721 C727 0.950 . S
H722 C728 0.949 . S
C723 H718 0.950 . S
C723 C725 1.327 . S
C723 C729 1.429 . S
C724 C716 1.574 . S
C724 H719 0.949 . S
C724 C730 1.368 . S
C725 C709 1.349 . S
C725 H717 0.950 . S
C725 C723 1.327 . S
C726 C714 1.349 . S
C726 H720 0.950 . S
C726 C727 1.327 . S
C727 H721 0.950 . S
C727 C726 1.327 . S
C727 C731 1.429 . S
C728 C711 1.574 . S
C728 H722 0.949 . S
C728 C732 1.368 . S
C729 C710 1.429 . S
C729 C723 1.429 . S
C729 C730 1.523 . S
C730 C711 1.368 . S
C730 C724 1.368 . S
C730 C729 1.523 . S
C731 C715 1.429 . S
C731 C727 1.429 . S
C731 C732 1.523 . S
C732 C716 1.368 . S
C732 C728 1.368 . S
C732 C731 1.523 . S
H733 C708 0.950 . S
H734 C710 0.950 . S
H735 C711 0.949 . S
H736 C713 0.950 . S
H737 C715 0.950 . S
C738 C739 1.349 . S
C738 C740 1.327 . S
C738 H763 0.950 . S
C739 C738 1.349 . S
C739 C755 1.349 . S
C740 C738 1.327 . S
C740 C759 1.429 . S
C740 H764 0.950 . S
C741 C758 1.574 . S
C741 C760 1.368 . S
C741 H765 0.949 . S
H742 C746 0.949 . S
C743 C744 1.349 . S
C743 C745 1.327 . S
C743 H766 0.950 . S
C744 C743 1.349 . S
C744 C756 1.349 . S
C745 C743 1.327 . S
C745 C761 1.429 . S
C745 H767 0.950 . S
C746 H742 0.949 . S
C746 C754 1.574 . S
C746 C762 1.368 . S
H747 C755 0.950 . S
H748 C753 0.950 . S
H749 C754 0.949 . S
H750 C756 0.950 . S
H751 C757 0.950 . S
H752 C758 0.949 . S
C753 H748 0.950 . S
C753 C755 1.327 . S
C753 C759 1.429 . S
C754 C746 1.574 . S
C754 H749 0.949 . S
C754 C760 1.368 . S
C755 C739 1.349 . S
C755 H747 0.950 . S
C755 C753 1.327 . S
C756 C744 1.349 . S
C756 H750 0.950 . S
C756 C757 1.327 . S
C757 H751 0.950 . S
C757 C756 1.327 . S
C757 C761 1.429 . S
C758 C741 1.574 . S
C758 H752 0.949 . S
C758 C762 1.368 . S
C759 C740 1.429 . S
C759 C753 1.429 . S
C759 C760 1.523 . S
C760 C741 1.368 . S
C760 C754 1.368 . S
C760 C759 1.523 . S
C761 C745 1.429 . S
C761 C757 1.429 . S
C761 C762 1.523 . S
C762 C746 1.368 . S
C762 C758 1.368 . S
C762 C761 1.523 . S
H763 C738 0.950 . S
H764 C740 0.950 . S
H765 C741 0.949 . S
H766 C743 0.950 . S
H767 C745 0.950 . S
C768 C769 1.349 . S
C768 C770 1.327 . S
C768 H793 0.950 . S
C769 C768 1.349 . S
C769 C785 1.349 . S
C770 C768 1.327 . S
C770 C789 1.429 . S
C770 H794 0.950 . S
C771 C788 1.574 . S
C771 C790 1.368 . S
C771 H795 0.949 . S
H772 C776 0.949 . S
C773 C774 1.349 . S
C773 C775 1.327 . S
C773 H796 0.950 . S
C774 C773 1.349 . S
C774 C786 1.349 . S
C775 C773 1.327 . S
C775 C791 1.429 . S
C775 H797 0.950 . S
C776 H772 0.949 . S
C776 C784 1.574 . S
C776 C792 1.368 . S
H777 C785 0.950 . S
H778 C783 0.950 . S
H779 C784 0.949 . S
H780 C786 0.950 . S
H781 C787 0.950 . S
H782 C788 0.949 . S
C783 H778 0.950 . S
C783 C785 1.327 . S
C783 C789 1.429 . S
C784 C776 1.574 . S
C784 H779 0.949 . S
C784 C790 1.368 . S
C785 C769 1.349 . S
C785 H777 0.950 . S
C785 C783 1.327 . S
C786 C774 1.349 . S
C786 H780 0.950 . S
C786 C787 1.327 . S
C787 H781 0.950 . S
C787 C786 1.327 . S
C787 C791 1.429 . S
C788 C771 1.574 . S
C788 H782 0.949 . S
C788 C792 1.368 . S
C789 C770 1.429 . S
C789 C783 1.429 . S
C789 C790 1.523 . S
C790 C771 1.368 . S
C790 C784 1.368 . S
C790 C789 1.523 . S
C791 C775 1.429 . S
C791 C787 1.429 . S
C791 C792 1.523 . S
C792 C776 1.368 . S
C792 C788 1.368 . S
C792 C791 1.523 . S
H793 C768 0.950 . S
H794 C770 0.950 . S
H795 C771 0.949 . S
H796 C773 0.950 . S
H797 C775 0.950 . S
C798 C799 1.349 . S
C798 C800 1.327 . S
C798 H823 0.950 . S
C799 C798 1.349 . S
C799 C815 1.349 . S
C800 C798 1.327 . S
C800 C819 1.429 . S
C800 H824 0.950 . S
C801 C818 1.574 . S
C801 C820 1.368 . S
C801 H825 0.949 . S
H802 C806 0.949 . S
C803 C804 1.349 . S
C803 C805 1.327 . S
C803 H826 0.950 . S
C804 C803 1.349 . S
C804 C816 1.349 . S
C805 C803 1.327 . S
C805 C821 1.429 . S
C805 H827 0.950 . S
C806 H802 0.949 . S
C806 C814 1.574 . S
C806 C822 1.368 . S
H807 C815 0.950 . S
H808 C813 0.950 . S
H809 C814 0.949 . S
H810 C816 0.950 . S
H811 C817 0.950 . S
H812 C818 0.949 . S
C813 H808 0.950 . S
C813 C815 1.327 . S
C813 C819 1.429 . S
C814 C806 1.574 . S
C814 H809 0.949 . S
C814 C820 1.368 . S
C815 C799 1.349 . S
C815 H807 0.950 . S
C815 C813 1.327 . S
C816 C804 1.349 . S
C816 H810 0.950 . S
C816 C817 1.327 . S
C817 H811 0.950 . S
C817 C816 1.327 . S
C817 C821 1.429 . S
C818 C801 1.574 . S
C818 H812 0.949 . S
C818 C822 1.368 . S
C819 C800 1.429 . S
C819 C813 1.429 . S
C819 C820 1.523 . S
C820 C801 1.368 . S
C820 C814 1.368 . S
C820 C819 1.523 . S
C821 C805 1.429 . S
C821 C817 1.429 . S
C821 C822 1.523 . S
C822 C806 1.368 . S
C822 C818 1.368 . S
C822 C821 1.523 . S
H823 C798 0.950 . S
H824 C800 0.950 . S
H825 C801 0.949 . S
H826 C803 0.950 . S
H827 C805 0.950 . S
C828 C829 1.349 . S
C828 C830 1.327 . S
C828 H853 0.950 . S
C829 C828 1.349 . S
C829 C845 1.349 . S
C830 C828 1.327 . S
C830 C849 1.429 . S
C830 H854 0.950 . S
C831 C848 1.574 . S
C831 C850 1.368 . S
C831 H855 0.949 . S
H832 C836 0.949 . S
C833 C834 1.349 . S
C833 C835 1.327 . S
C833 H856 0.950 . S
C834 C833 1.349 . S
C834 C846 1.349 . S
C835 C833 1.327 . S
C835 C851 1.429 . S
C835 H857 0.950 . S
C836 H832 0.949 . S
C836 C844 1.574 . S
C836 C852 1.368 . S
H837 C845 0.950 . S
H838 C843 0.950 . S
H839 C844 0.949 . S
H840 C846 0.950 . S
H841 C847 0.950 . S
H842 C848 0.949 . S
C843 H838 0.950 . S
C843 C845 1.327 . S
C843 C849 1.429 . S
C844 C836 1.574 . S
C844 H839 0.949 . S
C844 C850 1.368 . S
C845 C829 1.349 . S
C845 H837 0.950 . S
C845 C843 1.327 . S
C846 C834 1.349 . S
C846 H840 0.950 . S
C846 C847 1.327 . S
C847 H841 0.950 . S
C847 C846 1.327 . S
C847 C851 1.429 . S
C848 C831 1.574 . S
C848 H842 0.949 . S
C848 C852 1.368 . S
C849 C830 1.429 . S
C849 C843 1.429 . S
C849 C850 1.523 . S
C850 C831 1.368 . S
C850 C844 1.368 . S
C850 C849 1.523 . S
C851 C835 1.429 . S
C851 C847 1.429 . S
C851 C852 1.523 . S
C852 C836 1.368 . S
C852 C848 1.368 . S
C852 C851 1.523 . S
H853 C828 0.950 . S
H854 C830 0.950 . S
H855 C831 0.949 . S
H856 C833 0.950 . S
H857 C835 0.950 . S
C858 C859 1.349 . S
C858 C860 1.327 . S
C858 H883 0.950 . S
C859 C858 1.349 . S
C859 C875 1.349 . S
C860 C858 1.327 . S
C860 C879 1.429 . S
C860 H884 0.950 . S
C861 C878 1.574 . S
C861 C880 1.368 . S
C861 H885 0.949 . S
H862 C866 0.949 . S
C863 C864 1.349 . S
C863 C865 1.327 . S
C863 H886 0.950 . S
C864 C863 1.349 . S
C864 C876 1.349 . S
C865 C863 1.327 . S
C865 C881 1.429 . S
C865 H887 0.950 . S
C866 H862 0.949 . S
C866 C874 1.574 . S
C866 C882 1.368 . S
H867 C875 0.950 . S
H868 C873 0.950 . S
H869 C874 0.949 . S
H870 C876 0.950 . S
H871 C877 0.950 . S
H872 C878 0.949 . S
C873 H868 0.950 . S
C873 C875 1.327 . S
C873 C879 1.429 . S
C874 C866 1.574 . S
C874 H869 0.949 . S
C874 C880 1.368 . S
C875 C859 1.349 . S
C875 H867 0.950 . S
C875 C873 1.327 . S
C876 C864 1.349 . S
C876 H870 0.950 . S
C876 C877 1.327 . S
C877 H871 0.950 . S
C877 C876 1.327 . S
C877 C881 1.429 . S
C878 C861 1.574 . S
C878 H872 0.949 . S
C878 C882 1.368 . S
C879 C860 1.429 . S
C879 C873 1.429 . S
C879 C880 1.523 . S
C880 C861 1.368 . S
C880 C874 1.368 . S
C880 C879 1.523 . S
C881 C865 1.429 . S
C881 C877 1.429 . S
C881 C882 1.523 . S
C882 C866 1.368 . S
C882 C878 1.368 . S
C882 C881 1.523 . S
H883 C858 0.950 . S
H884 C860 0.950 . S
H885 C861 0.949 . S
H886 C863 0.950 . S
H887 C865 0.950 . S
C169 C123 1.394 . S
C174 C11 1.394 . S
C199 C25 1.394 . S
C204 C137 1.394 . S
C229 C39 1.394 . S
C234 C151 1.394 . S
C259 C53 1.394 . S
C264 C165 1.394 . S
C289 C95 1.394 . S
C294 C67 1.394 . S
C319 C81 1.394 . S
C324 C109 1.394 . S
C349 C13 1.242 . S
C354 C77 1.313 . S
C379 C27 1.242 . S
C384 C7 1.319 . S
C409 C41 1.242 . S
C414 C21 1.320 . S
C439 C35 1.313 . S
C444 C55 1.242 . S
C469 C49 1.319 . S
C474 C69 1.242 . S
C499 C63 1.320 . S
C504 C83 1.242 . S
C529 C105 1.313 . S
C534 C97 1.242 . S
C559 C111 1.242 . S
C564 C119 1.320 . S
C589 C133 1.319 . S
C594 C125 1.242 . S
C619 C139 1.242 . S
C624 C147 1.313 . S
C649 C153 1.242 . S
C654 C161 1.320 . S
C679 C167 1.242 . S
C684 C91 1.319 . S
C709 C148 1.190 . S
C714 C8 1.190 . S
C739 C162 1.190 . S
C744 C22 1.190 . S
C769 C92 1.190 . S
C774 C36 1.190 . S
C799 C50 1.190 . S
C804 C106 1.190 . S
C829 C64 1.190 . S
C834 C120 1.190 1_556 S
C859 C134 1.190 . S
C864 C78 1.190 1_554 S
