# Generated by pormake.
# Topology sml, (6)-cn, num edge types: 1
# Building blocks:
#     Node 0, Type 0, BuildingBlock: UKALOJ_clean_sbu_0, # of connection points: 6
#     Node 1, Type 0, BuildingBlock: UKALOJ_clean_sbu_0, # of connection points: 6
#     Node 2, Type 0, BuildingBlock: UKALOJ_clean_sbu_0, # of connection points: 6
#     Node 3, Type 0, BuildingBlock: UKALOJ_clean_sbu_0, # of connection points: 6
#     Node 4, Type 0, BuildingBlock: UKALOJ_clean_sbu_0, # of connection points: 6
#     Node 5, Type 0, BuildingBlock: UKALOJ_clean_sbu_0, # of connection points: 6
#     Edge 6, Type (0, 0), BuildingBlock: KIFKEQ_clean_linker_1, # of connection points: 2
#     Edge 7, Type (0, 0), BuildingBlock: KIFKEQ_clean_linker_1, # of connection points: 2
#     Edge 8, Type (0, 0), BuildingBlock: KIFKEQ_clean_linker_1, # of connection points: 2
#     Edge 9, Type (0, 0), BuildingBlock: KIFKEQ_clean_linker_1, # of connection points: 2
#     Edge 10, Type (0, 0), BuildingBlock: KIFKEQ_clean_linker_1, # of connection points: 2
#     Edge 11, Type (0, 0), BuildingBlock: KIFKEQ_clean_linker_1, # of connection points: 2
#     Edge 12, Type (0, 0), BuildingBlock: KIFKEQ_clean_linker_1, # of connection points: 2
#     Edge 13, Type (0, 0), BuildingBlock: KIFKEQ_clean_linker_1, # of connection points: 2
#     Edge 14, Type (0, 0), BuildingBlock: KIFKEQ_clean_linker_1, # of connection points: 2
#     Edge 15, Type (0, 0), BuildingBlock: KIFKEQ_clean_linker_1, # of connection points: 2
#     Edge 16, Type (0, 0), BuildingBlock: KIFKEQ_clean_linker_1, # of connection points: 2
#     Edge 17, Type (0, 0), BuildingBlock: KIFKEQ_clean_linker_1, # of connection points: 2
#     Edge 18, Type (0, 0), BuildingBlock: KIFKEQ_clean_linker_1, # of connection points: 2
#     Edge 19, Type (0, 0), BuildingBlock: KIFKEQ_clean_linker_1, # of connection points: 2
#     Edge 20, Type (0, 0), BuildingBlock: KIFKEQ_clean_linker_1, # of connection points: 2
#     Edge 21, Type (0, 0), BuildingBlock: KIFKEQ_clean_linker_1, # of connection points: 2
#     Edge 22, Type (0, 0), BuildingBlock: KIFKEQ_clean_linker_1, # of connection points: 2
#     Edge 23, Type (0, 0), BuildingBlock: KIFKEQ_clean_linker_1, # of connection points: 2
# Relax obj value: 0.312
# Max RMSD: 0.225
# Mean RMSD: 0.225
data_MOF--net-sml--node1-UKALOJ_clean_sbu_0--edge1-KIFKEQ_clean_linker_1
_symmetry_space_group_name_H-M    P1
_symmetry_Int_Tables_number       1
_symmetry_cell_setting            triclinic
loop_
_symmetry_equiv_pos_as_xyz
'x, y, z'
_cell_length_a     37.408119
_cell_length_b     37.383218
_cell_length_c     19.44487
_cell_angle_alpha  89.999093
_cell_angle_beta   89.997219
_cell_angle_gamma 119.87483
loop_
_atom_site_label
_atom_site_type_symbol
_atom_site_fract_x
_atom_site_fract_y
_atom_site_fract_z
_atom_type_partial_charge
Zn0 Zn 0.21317 0.41189 0.04413 0.0
O1 O 0.20306 0.45991 0.07398 0.0
C2 C 0.1197 0.35346 0.04259 0.0
Zn3 Zn 0.17916 0.4121 0.95006 0.0
C4 C 0.18299 0.47404 0.04276 0.0
O5 O 0.16763 0.45965 0.98396 0.0
C6 C 0.20896 0.34938 0.95422 0.0
O7 O 0.23856 0.45699 0.91816 0.0
O8 O 0.2729 0.4562 0.00897 0.0
N9 N 0.15852 0.41285 0.85232 0.0
C10 C 0.17332 0.40828 0.79156 0.0
C11 C 0.12378 0.41915 0.76891 0.0
N12 N 0.12776 0.41968 0.83809 0.0
N13 N 0.15186 0.41168 0.73898 0.0
C14 C 0.21503 0.40883 0.2026 0.0
C15 C 0.27391 0.41597 0.2259 0.0
N16 N 0.23414 0.41212 0.14203 0.0
N17 N 0.27081 0.41668 0.15665 0.0
N18 N 0.23907 0.41072 0.25546 0.0
H19 H 0.16381 0.41634 0.16637 0.0
H20 H 0.17438 0.42447 0.25666 0.0
H21 H 0.15024 0.37334 0.22238 0.0
C22 C 0.17368 0.40585 0.21168 0.0
C23 C 0.21028 0.40293 0.78185 0.0
H24 H 0.22965 0.41027 0.82806 0.0
H25 H 0.22962 0.42288 0.73912 0.0
H26 H 0.19974 0.37059 0.76689 0.0
O27 O 0.1898 0.36361 0.9202 0.0
O28 O 0.22375 0.3645 0.01285 0.0
C29 C 0.27266 0.46976 0.94906 0.0
O30 O 0.15323 0.3666 0.0756 0.0
O31 O 0.12019 0.36786 0.98322 0.0
Zn32 Zn 0.7687 0.19542 0.30954 0.0
O33 O 0.78695 0.25632 0.28061 0.0
C34 C 0.8595 0.22203 0.30884 0.0
Zn35 Zn 0.80243 0.22365 0.40674 0.0
C36 C 0.80611 0.28801 0.31828 0.0
O37 O 0.81612 0.28437 0.37926 0.0
C38 C 0.76598 0.13108 0.3963 0.0
O39 O 0.74434 0.21134 0.44258 0.0
O40 O 0.71146 0.18744 0.34494 0.0
N41 N 0.82566 0.2426 0.50395 0.0
C42 C 0.81159 0.22295 0.56463 0.0
C43 C 0.86289 0.28223 0.58679 0.0
N44 N 0.85759 0.27944 0.51785 0.0
N45 N 0.83465 0.24691 0.61695 0.0
C46 C 0.76194 0.19308 0.15129 0.0
C47 C 0.7096 0.13427 0.13046 0.0
N48 N 0.74593 0.17538 0.21256 0.0
N49 N 0.71335 0.13881 0.19951 0.0
N50 N 0.7396 0.16815 0.09952 0.0
H51 H 0.78892 0.25824 0.14038 0.0
H52 H 0.81439 0.23706 0.09113 0.0
H53 H 0.82204 0.24304 0.18239 0.0
C54 C 0.79913 0.235 0.14102 0.0
C55 C 0.77345 0.18162 0.57435 0.0
H56 H 0.75541 0.18273 0.61879 0.0
H57 H 0.78261 0.15832 0.58619 0.0
H58 H 0.7533 0.17118 0.52887 0.0
O59 O 0.78907 0.16305 0.4314 0.0
O60 O 0.75088 0.13484 0.34009 0.0
C61 C 0.71126 0.19656 0.40792 0.0
O62 O 0.82554 0.20307 0.27671 0.0
O63 O 0.86029 0.23617 0.36863 0.0
Zn64 Zn 0.56931 0.79345 0.71064 0.0
O65 O 0.5263 0.73396 0.74209 0.0
C66 C 0.63269 0.76499 0.70622 0.0
Zn67 Zn 0.57119 0.76224 0.61437 0.0
C68 C 0.51253 0.70069 0.70833 0.0
O69 O 0.52503 0.70185 0.64705 0.0
C70 C 0.62857 0.85544 0.62002 0.0
O71 O 0.52471 0.7742 0.58194 0.0
O72 O 0.51999 0.80248 0.67793 0.0
N73 N 0.57235 0.74147 0.51717 0.0
C74 C 0.57668 0.76044 0.45616 0.0
C75 C 0.56852 0.70091 0.43464 0.0
N76 N 0.56722 0.70443 0.50368 0.0
N77 N 0.57485 0.73591 0.40413 0.0
C78 C 0.57368 0.7997 0.86886 0.0
C79 C 0.56055 0.84778 0.89147 0.0
N80 N 0.56798 0.81369 0.80817 0.0
N81 N 0.55973 0.84354 0.82234 0.0
N82 N 0.56964 0.82081 0.92136 0.0
H83 H 0.56221 0.74458 0.92241 0.0
H84 H 0.61366 0.77566 0.89157 0.0
H85 H 0.57318 0.744 0.83279 0.0
C86 C 0.58084 0.76383 0.87852 0.0
C87 C 0.58007 0.80187 0.44573 0.0
H88 H 0.57177 0.8133 0.49169 0.0
H89 H 0.55985 0.80023 0.40263 0.0
H90 H 0.61213 0.82455 0.43097 0.0
O91 O 0.61781 0.82272 0.58555 0.0
O92 O 0.61201 0.85303 0.67812 0.0
C93 C 0.5083 0.79104 0.61642 0.0
O94 O 0.61897 0.78468 0.74003 0.0
O95 O 0.61727 0.75005 0.64785 0.0
Zn96 Zn 0.79448 0.57133 0.96769 0.0
O97 O 0.73561 0.5247 0.93939 0.0
C98 C 0.76073 0.63031 0.9647 0.0
Zn99 Zn 0.76193 0.57301 0.06265 0.0
C100 C 0.70234 0.51011 0.97342 0.0
O101 O 0.70291 0.52378 0.03361 0.0
C102 C 0.85372 0.63443 0.05607 0.0
O103 O 0.77992 0.53158 0.10055 0.0
O104 O 0.80773 0.52578 0.00479 0.0
N105 N 0.7426 0.57805 0.15889 0.0
C106 C 0.73493 0.55397 0.21485 0.0
C107 C 0.7463 0.61263 0.24998 0.0
N108 N 0.74914 0.61435 0.18087 0.0
N109 N 0.73782 0.57517 0.2728 0.0
C110 C 0.79916 0.57129 0.80895 0.0
C111 C 0.84967 0.56169 0.78798 0.0
N112 N 0.81472 0.56871 0.87027 0.0
N113 N 0.84608 0.56263 0.85708 0.0
N114 N 0.82074 0.56743 0.75696 0.0
H115 H 0.74169 0.56711 0.84445 0.0
H116 H 0.7426 0.55491 0.75553 0.0
H117 H 0.7709 0.60728 0.78385 0.0
C118 C 0.76135 0.57512 0.79848 0.0
C119 C 0.72168 0.50897 0.21265 0.0
H120 H 0.70683 0.49533 0.16267 0.0
H121 H 0.69985 0.49246 0.25526 0.0
H122 H 0.74866 0.50465 0.21933 0.0
O123 O 0.82041 0.62185 0.0895 0.0
O124 O 0.85319 0.61779 0.99874 0.0
C125 C 0.79834 0.51622 0.06758 0.0
O126 O 0.78206 0.61763 0.93332 0.0
O127 O 0.74582 0.61549 0.02338 0.0
Zn128 Zn 0.17742 0.7611 0.3933 0.0
O129 O 0.23592 0.77081 0.42007 0.0
C130 C 0.21523 0.85369 0.39284 0.0
Zn131 Zn 0.20778 0.79224 0.29441 0.0
C132 C 0.26789 0.78775 0.38251 0.0
O133 O 0.26592 0.79979 0.32222 0.0
C134 C 0.11816 0.76693 0.30358 0.0
O135 O 0.18841 0.73135 0.26077 0.0
O136 O 0.16024 0.70089 0.35881 0.0
N137 N 0.22799 0.81618 0.19757 0.0
C138 C 0.21011 0.80037 0.1364 0.0
C139 C 0.25808 0.86202 0.11804 0.0
N140 N 0.25782 0.85454 0.18609 0.0
N141 N 0.22808 0.82855 0.08604 0.0
C142 C 0.17419 0.75528 0.55181 0.0
C143 C 0.10977 0.72254 0.57285 0.0
N144 N 0.15472 0.74118 0.49106 0.0
N145 N 0.11465 0.72056 0.50438 0.0
N146 N 0.14674 0.74464 0.60354 0.0
H147 H 0.23257 0.75836 0.54238 0.0
H148 H 0.22955 0.78499 0.61555 0.0
H149 H 0.23404 0.80708 0.5312 0.0
C150 C 0.22013 0.77799 0.56103 0.0
C151 C 0.17814 0.75609 0.12506 0.0
H152 H 0.19322 0.73731 0.13253 0.0
H153 H 0.16534 0.74957 0.07241 0.0
H154 H 0.15255 0.74621 0.16231 0.0
O155 O 0.15071 0.78514 0.26785 0.0
O156 O 0.11934 0.75231 0.36199 0.0
C157 C 0.16903 0.69861 0.29635 0.0
O158 O 0.19487 0.82081 0.42725 0.0
O159 O 0.22591 0.85185 0.33156 0.0
Zn160 Zn 0.40861 0.22022 0.63144 0.0
O161 O 0.45726 0.20991 0.60587 0.0
C162 C 0.35138 0.12745 0.62834 0.0
Zn163 Zn 0.40449 0.18654 0.72866 0.0
C164 C 0.47026 0.1909 0.64301 0.0
O165 O 0.45428 0.1772 0.70167 0.0
C166 C 0.34203 0.21479 0.71616 0.0
O167 O 0.4471 0.24536 0.76486 0.0
O168 O 0.45173 0.27954 0.67048 0.0
N169 N 0.4015 0.16389 0.82604 0.0
C170 C 0.39446 0.17719 0.88642 0.0
C171 C 0.40651 0.12845 0.90947 0.0
N172 N 0.40893 0.13355 0.8405 0.0
N173 N 0.39695 0.15517 0.93919 0.0
C174 C 0.41762 0.23133 0.47356 0.0
C175 C 0.39606 0.27333 0.45299 0.0
N176 N 0.41017 0.24324 0.53488 0.0
N177 N 0.39691 0.2695 0.52195 0.0
N178 N 0.40949 0.25008 0.42181 0.0
H179 H 0.46454 0.21474 0.4688 0.0
H180 H 0.4222 0.18542 0.41159 0.0
H181 H 0.41625 0.17476 0.50213 0.0
C182 C 0.43055 0.19956 0.46346 0.0
C183 C 0.3881 0.21365 0.89527 0.0
H184 H 0.39768 0.23416 0.85025 0.0
H185 H 0.40547 0.23209 0.9407 0.0
H186 H 0.35496 0.20243 0.90451 0.0
O187 O 0.35465 0.19528 0.75288 0.0
O188 O 0.35972 0.23013 0.65929 0.0
C189 C 0.46204 0.27934 0.73278 0.0
O190 O 0.36572 0.16093 0.5947 0.0
O191 O 0.36231 0.128 0.69039 0.0
H192 H 0.29502 0.18126 0.83056 0.0
H193 H 0.31669 0.26653 0.66428 0.0
H194 H 0.25293 0.20481 0.88919 0.0
H195 H 0.27388 0.28948 0.72268 0.0
H196 H 0.17896 0.30921 0.83245 0.0
H197 H 0.20163 0.26731 0.77048 0.0
H198 H 0.27845 0.27609 0.94274 0.0
H199 H 0.25664 0.3188 0.00426 0.0
C200 C 0.29031 0.20459 0.80601 0.0
C201 C 0.31003 0.22288 0.74368 0.0
C202 C 0.26612 0.21789 0.83954 0.0
C203 C 0.26068 0.24923 0.81078 0.0
C204 C 0.27752 0.26511 0.74575 0.0
C205 C 0.30211 0.25208 0.71246 0.0
C206 C 0.20051 0.30204 0.8573 0.0
C207 C 0.21689 0.31819 0.9225 0.0
C208 C 0.21327 0.27791 0.82189 0.0
C209 C 0.24196 0.26887 0.85168 0.0
C210 C 0.25605 0.28247 0.91883 0.0
C211 C 0.2437 0.30704 0.95393 0.0
H212 H 0.10966 0.30925 0.15945 0.0
H213 H 0.04145 0.3313 0.00175 0.0
H214 H 0.04636 0.26937 0.225 0.0
H215 H 0.97808 0.29107 0.06719 0.0
H216 H 0.86652 0.19754 0.18013 0.0
H217 H 0.92923 0.22113 0.11321 0.0
H218 H 0.00175 0.29106 0.28782 0.0
H219 H 0.93893 0.26727 0.3554 0.0
C220 C 0.0811 0.30532 0.13853 0.0
C221 C 0.08059 0.32412 0.07616 0.0
C222 C 0.04492 0.28244 0.17605 0.0
C223 C 0.0075 0.27753 0.15151 0.0
C224 C 0.00653 0.29416 0.08711 0.0
C225 C 0.0428 0.31728 0.04972 0.0
C226 C 0.89586 0.21737 0.20482 0.0
C227 C 0.89779 0.23097 0.27292 0.0
C228 C 0.9317 0.23096 0.16626 0.0
C229 C 0.9702 0.25821 0.1951 0.0
C230 C 0.97241 0.26981 0.26446 0.0
C231 C 0.93647 0.25634 0.30307 0.0
H232 H 0.79421 0.11343 0.51351 0.0
H233 H 0.7116 0.05566 0.34194 0.0
H234 H 0.76733 0.04636 0.5688 0.0
H235 H 0.68554 0.98843 0.39684 0.0
H236 H 0.65375 0.93173 0.67459 0.0
H237 H 0.69433 -0.00172 0.61778 0.0
H238 H 0.70892 0.93747 0.44013 0.0
H239 H 0.66936 0.87093 0.49747 0.0
C240 C 0.77059 0.08643 0.4873 0.0
C241 C 0.75432 0.08995 0.42408 0.0
C242 C 0.75537 0.04809 0.51892 0.0
C243 C 0.7242 0.01247 0.48728 0.0
C244 C 0.70975 0.01553 0.42209 0.0
C245 C 0.72457 0.05399 0.39083 0.0
C246 C 0.66618 0.93256 0.62393 0.0
C247 C 0.65758 0.89598 0.5899 0.0
C248 C 0.6895 0.97065 0.59155 0.0
C249 C 0.7043 0.97277 0.52442 0.0
C250 C 0.69733 0.93647 0.49158 0.0
C251 C 0.67456 0.89844 0.52435 0.0
H252 H 0.65915 0.71309 0.65978 0.0
H253 H 0.67482 0.79659 0.82587 0.0
H254 H 0.69894 0.68881 0.72414 0.0
H255 H 0.71364 0.77141 0.89074 0.0
H256 H 0.79244 0.67086 0.84393 0.0
H257 H 0.76988 0.7117 0.77864 0.0
H258 H 0.68676 0.69894 0.94308 0.0
H259 H 0.70853 0.65717 0.00806 0.0
C260 C 0.67169 0.72679 0.70939 0.0
C261 C 0.66298 0.75596 0.73855 0.0
C262 C 0.69451 0.71295 0.74614 0.0
C263 C 0.70874 0.7279 0.81269 0.0
C264 C 0.70239 0.759 0.83994 0.0
C265 C 0.68006 0.77323 0.80286 0.0
C266 C 0.7694 0.67679 0.86632 0.0
C267 C 0.75146 0.65994 0.93041 0.0
C268 C 0.75672 0.70033 0.82901 0.0
C269 C 0.72646 0.7081 0.8557 0.0
C270 C 0.71038 0.69352 0.92162 0.0
C271 C 0.7227 0.66951 0.95865 0.0
H272 H 0.1077 0.79651 0.18198 0.0
H273 H 0.04017 0.71958 0.35486 0.0
H274 H 0.04335 0.77403 0.1206 0.0
H275 H 0.97573 0.69683 0.29279 0.0
H276 H 0.86365 0.67479 0.17733 0.0
H277 H 0.92776 0.71687 0.23933 0.0
H278 H -0.00391 0.70532 0.06995 0.0
H279 H 0.932 0.66344 0.00741 0.0
C280 C 0.07906 0.77537 0.20746 0.0
C281 C 0.07896 0.75927 0.27293 0.0
C282 C 0.04229 0.76245 0.17208 0.0
C283 C 0.00472 0.73336 0.20157 0.0
C284 C 0.00431 0.71953 0.26901 0.0
C285 C 0.04119 0.7324 0.30446 0.0
C286 C 0.8924 0.68181 0.15268 0.0
C287 C 0.8928 0.66533 0.08781 0.0
C288 C 0.92903 0.70581 0.18839 0.0
C289 C 0.96674 0.71396 0.15975 0.0
C290 C 0.96741 0.69975 0.09304 0.0
C291 C 0.93072 0.67561 0.05734 0.0
H292 H 0.3513 0.11125 0.49267 0.0
H293 H 0.29163 0.05548 0.68466 0.0
H294 H 0.31376 0.04532 0.43553 0.0
H295 H 0.25074 0.98958 0.62636 0.0
H296 H 0.23004 0.87065 0.52828 0.0
H297 H 0.25793 0.93684 0.58436 0.0
H298 H 0.25511 -0.00751 0.39042 0.0
H299 H 0.23043 0.92616 0.33344 0.0
C300 C 0.32932 0.0849 0.52231 0.0
C301 C 0.32476 0.0882 0.59323 0.0
C302 C 0.30729 0.04698 0.48931 0.0
C303 C 0.27918 0.01164 0.52609 0.0
C304 C 0.27296 0.01568 0.59655 0.0
C305 C 0.29608 0.05346 0.63004 0.0
C306 C 0.23531 0.89706 0.49772 0.0
C307 C 0.22861 0.89354 0.42647 0.0
C308 C 0.2509 0.93513 0.53007 0.0
C309 C 0.25902 0.97047 0.49224 0.0
C310 C 0.25035 0.96635 0.42115 0.0
C311 C 0.23594 0.92834 0.38839 0.0
H312 H 0.17418 0.47173 0.64456 0.0
H313 H 0.14683 0.34641 0.67316 0.0
H314 H 0.19695 0.47077 0.5263 0.0
H315 H 0.17012 0.3452 0.55613 0.0
H316 H 0.17601 0.34717 0.31936 0.0
H317 H 0.15175 0.34661 0.43632 0.0
H318 H 0.25561 0.4687 0.46985 0.0
H319 H 0.27913 0.46907 0.35164 0.0
C320 C 0.17241 0.44382 0.62474 0.0
C321 C 0.15877 0.4091 0.66708 0.0
C322 C 0.18598 0.44338 0.55779 0.0
C323 C 0.18578 0.40804 0.53216 0.0
C324 C 0.17051 0.37282 0.5741 0.0
C325 C 0.1572 0.37341 0.6409 0.0
C326 C 0.19378 0.37352 0.35239 0.0
C327 C 0.22932 0.40811 0.32726 0.0
C328 C 0.18001 0.37329 0.41916 0.0
C329 C 0.20154 0.40779 0.46214 0.0
C330 C 0.23801 0.44193 0.43756 0.0
C331 C 0.25187 0.44199 0.37062 0.0
H332 H 0.71216 0.20143 0.00599 0.0
H333 H 0.79237 0.1511 0.03528 0.0
H334 H 0.73843 0.22211 0.88851 0.0
H335 H 0.82002 0.17262 0.91909 0.0
H336 H 0.82399 0.29287 0.71242 0.0
H337 H 0.80053 0.27235 0.8311 0.0
H338 H 0.80344 0.15926 0.80019 0.0
H339 H 0.82863 0.18107 0.68331 0.0
C340 C 0.73488 0.19418 0.98624 0.0
C341 C 0.74978 0.17402 0.02802 0.0
C342 C 0.75049 0.20657 0.9198 0.0
C343 C 0.78163 0.19934 0.89451 0.0
C344 C 0.79574 0.17824 0.93643 0.0
C345 C 0.77991 0.16571 0.00259 0.0
C346 C 0.82045 0.26417 0.73205 0.0
C347 C 0.82752 0.23823 0.68911 0.0
C348 C 0.80641 0.25204 0.79936 0.0
C349 C 0.79932 0.21375 0.82479 0.0
C350 C 0.80856 0.18892 0.7825 0.0
C351 C 0.82272 0.20118 0.7155 0.0
H352 H 0.51591 0.69518 0.30934 0.0
H353 H 0.63834 0.79797 0.33846 0.0
H354 H 0.51541 0.71812 0.1911 0.0
H355 H 0.63793 0.82187 0.22168 0.0
H356 H 0.63594 0.82745 0.9857 0.0
H357 H 0.63834 0.80433 0.10225 0.0
H358 H 0.51258 0.77594 0.13513 0.0
H359 H 0.51034 0.79825 0.01711 0.0
C360 C 0.54291 0.72224 0.28962 0.0
C361 C 0.57716 0.74493 0.33214 0.0
C362 C 0.54247 0.7358 0.22271 0.0
C363 C 0.57643 0.77216 0.19739 0.0
C364 C 0.61136 0.7937 0.23941 0.0
C365 C 0.61168 0.78016 0.30609 0.0
C366 C 0.60914 0.81674 0.01851 0.0
C367 C 0.57298 0.81447 0.99319 0.0
C368 C 0.61042 0.80354 0.08506 0.0
C369 C 0.57548 0.78785 0.12768 0.0
C370 C 0.53974 0.78717 0.10305 0.0
C371 C 0.53857 0.80051 0.03626 0.0
H372 H 0.80519 0.50799 0.6638 0.0
H373 H 0.81945 0.62891 0.68805 0.0
H374 H 0.78194 0.50543 0.54469 0.0
H375 H 0.79637 0.6268 0.56986 0.0
H376 H 0.71013 0.59247 0.38856 0.0
H377 H 0.73118 0.58889 0.50649 0.0
H378 H 0.80565 0.5387 0.43071 0.0
H379 H 0.78498 0.54281 0.31366 0.0
C380 C 0.80401 0.53424 0.64293 0.0
C381 C 0.81356 0.56844 0.68465 0.0
C382 C 0.79053 0.53277 0.57519 0.0
C383 C 0.78645 0.56556 0.54838 0.0
C384 C 0.79801 0.60055 0.58954 0.0
C385 C 0.81151 0.60198 0.65686 0.0
C386 C 0.73023 0.57984 0.39764 0.0
C387 C 0.74485 0.56677 0.3422 0.0
C388 C 0.74263 0.57814 0.46482 0.0
C389 C 0.77026 0.56366 0.47787 0.0
C390 C 0.78385 0.54937 0.42255 0.0
C391 C 0.77153 0.55121 0.35542 0.0
H392 H 0.193 0.82405 0.64235 0.0
H393 H 0.1158 0.70088 0.72019 0.0
H394 H 0.21288 0.84998 0.75993 0.0
H395 H 0.13409 0.72719 0.83859 0.0
H396 H 0.15249 0.80587 0.03714 0.0
H397 H 0.12919 0.78748 0.91775 0.0
H398 H 0.25413 0.82703 0.85526 0.0
H399 H 0.27699 0.84361 0.97556 0.0
C400 C 0.18026 0.80263 0.6849 0.0
C401 C 0.15419 0.76026 0.67269 0.0
C402 C 0.19142 0.81748 0.75181 0.0
C403 C 0.17537 0.79042 0.80772 0.0
C404 C 0.14693 0.74852 0.7959 0.0
C405 C 0.13647 0.7335 0.72866 0.0
C406 C 0.17485 0.81074 0.99755 0.0
C407 C 0.21621 0.8249 0.01508 0.0
C408 C 0.16158 0.80026 0.92971 0.0
C409 C 0.18984 0.80534 0.87805 0.0
C410 C 0.23184 0.82273 0.89463 0.0
C411 C 0.24493 0.83232 0.96293 0.0
H412 H 0.47169 0.27353 0.33227 0.0
H413 H 0.34004 0.2005 0.35388 0.0
H414 H 0.46695 0.24736 0.21514 0.0
H415 H 0.33465 0.17225 0.23853 0.0
H416 H 0.33662 0.16099 0.00478 0.0
H417 H 0.33941 0.18623 0.12114 0.0
H418 H 0.4543 0.18737 0.15503 0.0
H419 H 0.45246 0.16487 0.0362 0.0
C420 C 0.44171 0.25227 0.31097 0.0
C421 C 0.40612 0.23957 0.35046 0.0
C422 C 0.4389 0.23663 0.24467 0.0
C423 C 0.4004 0.20731 0.21728 0.0
C424 C 0.36473 0.1952 0.25715 0.0
C425 C 0.36762 0.21136 0.32299 0.0
C426 C 0.36246 0.16683 0.03729 0.0
C427 C 0.39486 0.16212 0.01138 0.0
C428 C 0.36392 0.18086 0.10427 0.0
C429 C 0.39748 0.18961 0.14747 0.0
C430 C 0.42857 0.18213 0.12269 0.0
C431 C 0.42728 0.16857 0.05519 0.0
H432 H 0.12494 0.49691 0.0155 0.0
H433 H 0.22564 0.52076 0.15186 0.0
H434 H 0.11167 0.54459 0.08251 0.0
H435 H 0.2135 0.56887 0.21672 0.0
H436 H 0.17197 0.63378 0.35526 0.0
H437 H 0.16801 0.57434 0.29536 0.0
H438 H 0.14078 0.61605 0.10532 0.0
H439 H 0.14185 0.67318 0.16642 0.0
C440 C 0.1445 0.5127 0.05913 0.0
C441 C 0.17638 0.50521 0.07822 0.0
C442 C 0.13686 0.53987 0.09771 0.0
C443 C 0.16118 0.56022 0.1557 0.0
C444 C 0.19335 0.55295 0.17378 0.0
C445 C 0.2007 0.52572 0.13583 0.0
C446 C 0.16411 0.62947 0.30112 0.0
C447 C 0.15883 0.65884 0.26469 0.0
C448 C 0.16231 0.59578 0.26653 0.0
C449 C 0.15532 0.59107 0.19495 0.0
C450 C 0.14654 0.6187 0.16016 0.0
C451 C 0.14803 0.65204 0.19487 0.0
H452 H 0.69409 0.1847 0.54413 0.0
H453 H 0.64312 0.19368 0.34999 0.0
H454 H 0.63372 0.17688 0.60378 0.0
H455 H 0.58334 0.18833 0.41007 0.0
H456 H 0.46668 0.15007 0.52685 0.0
H457 H 0.52288 0.14616 0.47076 0.0
H458 H 0.60389 0.21549 0.63875 0.0
H459 H 0.54659 0.21716 0.69595 0.0
C460 C 0.66994 0.18519 0.51419 0.0
C461 C 0.67333 0.18995 0.44239 0.0
C462 C 0.63538 0.18102 0.54854 0.0
C463 C 0.60365 0.18236 0.51213 0.0
C464 C 0.60679 0.18647 0.43991 0.0
C465 C 0.64113 0.18981 0.40532 0.0
C466 C 0.49646 0.16383 0.55196 0.0
C467 C 0.50265 0.18386 0.61541 0.0
C468 C 0.52878 0.16199 0.51964 0.0
C469 C 0.56824 0.18097 0.54954 0.0
C470 C 0.57388 0.19996 0.61445 0.0
C471 C 0.5412 0.20106 0.64737 0.0
H472 H 0.27985 0.49777 0.81799 0.0
H473 H 0.35231 0.50783 0.99778 0.0
H474 H 0.34147 0.54802 0.75858 0.0
H475 H 0.41468 0.5581 0.93713 0.0
H476 H 0.49454 0.68917 0.84425 0.0
H477 H 0.44042 0.62899 0.90097 0.0
H478 H 0.40738 0.5633 0.70761 0.0
H479 H 0.46194 0.6246 0.64975 0.0
C480 C 0.30905 0.51046 0.8448 0.0
C481 C 0.31108 0.49921 0.91317 0.0
C482 C 0.34452 0.53895 0.81018 0.0
C483 C 0.383 0.55703 0.84297 0.0
C484 C 0.38534 0.54492 0.91068 0.0
C485 C 0.3497 0.5162 0.94546 0.0
C486 C 0.47613 0.66184 0.81358 0.0
C487 C 0.48218 0.66186 0.74214 0.0
C488 C 0.44529 0.62708 0.84649 0.0
C489 C 0.4195 0.59137 0.8089 0.0
C490 C 0.42658 0.59061 0.73783 0.0
C491 C 0.45783 0.62556 0.70472 0.0
H492 H 0.84653 0.32117 0.19979 0.0
H493 H 0.78742 0.34425 0.37065 0.0
H494 H 0.85271 0.38123 0.13983 0.0
H495 H 0.79168 0.40348 0.3099 0.0
H496 H 0.82034 0.52007 0.2011 0.0
H497 H 0.83097 0.47031 0.26545 0.0
H498 H 0.80861 0.39797 0.08027 0.0
H499 H 0.79976 0.44901 0.01567 0.0
C500 C 0.83514 0.33948 0.22456 0.0
C501 C 0.8163 0.32823 0.28936 0.0
C502 C 0.83835 0.37368 0.19009 0.0
C503 C 0.82202 0.3969 0.21922 0.0
C504 C 0.80501 0.38668 0.28596 0.0
C505 C 0.80247 0.35277 0.32095 0.0
C506 C 0.81799 0.49359 0.17422 0.0
C507 C 0.80868 0.48795 0.1037 0.0
C508 C 0.82393 0.46498 0.21114 0.0
C509 C 0.82017 0.42972 0.17853 0.0
C510 C 0.81232 0.42497 0.10715 0.0
C511 C 0.80701 0.45404 0.06998 0.0
H512 H 0.31854 0.76125 0.33231 0.0
H513 H 0.30437 0.82946 0.49849 0.0
H514 H 0.37839 0.76511 0.38996 0.0
H515 H 0.36515 0.83534 0.55509 0.0
H516 H 0.4432 0.7935 0.67644 0.0
H517 H 0.38675 0.79596 0.61743 0.0
H518 H 0.44677 0.80678 0.4221 0.0
H519 H 0.50125 0.80183 0.48067 0.0
C520 C 0.32897 0.77787 0.38048 0.0
C521 C 0.30702 0.79479 0.41148 0.0
C522 C 0.36327 0.78026 0.41362 0.0
C523 C 0.37662 0.80036 0.47771 0.0
C524 C 0.3553 0.81874 0.50688 0.0
C525 C 0.32065 0.81565 0.47433 0.0
C526 C 0.44426 0.79672 0.62099 0.0
C527 C 0.47632 0.7971 0.58311 0.0
C528 C 0.41207 0.79831 0.58701 0.0
C529 C 0.41187 0.80116 0.51464 0.0
C530 C 0.44512 0.80342 0.47749 0.0
C531 C 0.47665 0.80096 0.51122 0.0
H532 H 0.69378 0.48081 0.84328 0.0
H533 H 0.62363 0.46954 0.02689 0.0
H534 H 0.63181 0.42992 0.78609 0.0
H535 H 0.5607 0.41831 0.96834 0.0
H536 H 0.47962 0.28807 0.8693 0.0
H537 H 0.53387 0.34739 0.92832 0.0
H538 H 0.56602 0.41676 0.73861 0.0
H539 H 0.51175 0.35659 0.67858 0.0
C540 C 0.66502 0.46763 0.87151 0.0
C541 C 0.66373 0.479 0.94008 0.0
C542 C 0.62931 0.43875 0.83817 0.0
C543 C 0.59127 0.42032 0.87238 0.0
C544 C 0.58969 0.43194 0.94075 0.0
C545 C 0.62564 0.46116 0.9743 0.0
C546 C 0.49791 0.31607 0.84005 0.0
C547 C 0.49185 0.31744 0.76887 0.0
C548 C 0.52878 0.35026 0.87425 0.0
C549 C 0.55443 0.38666 0.83812 0.0
C550 C 0.54702 0.38884 0.76761 0.0
C551 C 0.51592 0.35452 0.73326 0.0
loop_
_geom_bond_atom_site_label_1
_geom_bond_atom_site_label_2
_geom_bond_distance
_geom_bond_site_symmetry_2
_ccdc_geom_bond_type
Zn0 O1 2.055 . S
Zn0 O8 2.046 . S
Zn0 N16 2.036 . S
Zn0 O28 2.053 . S
Zn0 O30 2.066 . S
O1 Zn0 2.055 . S
O1 C4 1.259 . S
C2 O30 1.256 . S
C2 O31 1.244 1_554 S
Zn3 O5 2.046 . S
Zn3 O7 2.055 . S
Zn3 N9 2.036 . S
Zn3 O27 2.066 . S
Zn3 O31 2.053 . S
C4 O1 1.259 . S
C4 O5 1.254 1_554 S
O5 Zn3 2.046 . S
O5 C4 1.254 1_556 S
C6 O27 1.256 . S
C6 O28 1.244 1_556 S
O7 Zn3 2.055 . S
O7 C29 1.259 . S
O8 Zn0 2.046 . S
O8 C29 1.254 1_554 S
N9 Zn3 2.036 . S
N9 C10 1.298 . S
N9 N12 1.398 . S
C10 N9 1.298 . S
C10 N13 1.367 . S
C10 C23 1.481 . S
C11 N12 1.299 . S
C11 N13 1.379 . S
N12 N9 1.398 . S
N12 C11 1.299 . S
N13 C10 1.367 . S
N13 C11 1.379 . S
C14 N16 1.298 . S
C14 N18 1.367 . S
C14 C22 1.481 . S
C15 N17 1.299 . S
C15 N18 1.379 . S
N16 Zn0 2.036 . S
N16 C14 1.298 . S
N16 N17 1.398 . S
N17 C15 1.299 . S
N17 N16 1.398 . S
N18 C14 1.367 . S
N18 C15 1.379 . S
H19 C22 0.980 . S
H20 C22 0.981 . S
H21 C22 0.981 . S
C22 C14 1.481 . S
C22 H19 0.980 . S
C22 H20 0.981 . S
C22 H21 0.981 . S
C23 C10 1.481 . S
C23 H24 0.980 . S
C23 H25 0.981 . S
C23 H26 0.981 . S
H24 C23 0.980 . S
H25 C23 0.981 . S
H26 C23 0.981 . S
O27 Zn3 2.066 . S
O27 C6 1.256 . S
O28 Zn0 2.053 . S
O28 C6 1.244 1_554 S
C29 O7 1.259 . S
C29 O8 1.254 1_556 S
O30 Zn0 2.066 . S
O30 C2 1.256 . S
O31 C2 1.244 1_556 S
O31 Zn3 2.053 . S
Zn32 O33 2.055 . S
Zn32 O40 2.046 . S
Zn32 N48 2.036 . S
Zn32 O60 2.053 . S
Zn32 O62 2.066 . S
O33 Zn32 2.055 . S
O33 C36 1.259 . S
C34 O62 1.256 . S
C34 O63 1.244 . S
Zn35 O37 2.046 . S
Zn35 O39 2.055 . S
Zn35 N41 2.036 . S
Zn35 O59 2.066 . S
Zn35 O63 2.053 . S
C36 O33 1.259 . S
C36 O37 1.254 . S
O37 Zn35 2.046 . S
O37 C36 1.254 . S
C38 O59 1.256 . S
C38 O60 1.244 . S
O39 Zn35 2.055 . S
O39 C61 1.259 . S
O40 Zn32 2.046 . S
O40 C61 1.254 . S
N41 Zn35 2.036 . S
N41 C42 1.298 . S
N41 N44 1.398 . S
C42 N41 1.298 . S
C42 N45 1.367 . S
C42 C55 1.481 . S
C43 N44 1.299 . S
C43 N45 1.379 . S
N44 N41 1.398 . S
N44 C43 1.299 . S
N45 C42 1.367 . S
N45 C43 1.379 . S
C46 N48 1.298 . S
C46 N50 1.367 . S
C46 C54 1.481 . S
C47 N49 1.299 . S
C47 N50 1.379 . S
N48 Zn32 2.036 . S
N48 C46 1.298 . S
N48 N49 1.398 . S
N49 C47 1.299 . S
N49 N48 1.398 . S
N50 C46 1.367 . S
N50 C47 1.379 . S
H51 C54 0.980 . S
H52 C54 0.981 . S
H53 C54 0.981 . S
C54 C46 1.481 . S
C54 H51 0.980 . S
C54 H52 0.981 . S
C54 H53 0.981 . S
C55 C42 1.481 . S
C55 H56 0.980 . S
C55 H57 0.981 . S
C55 H58 0.981 . S
H56 C55 0.980 . S
H57 C55 0.981 . S
H58 C55 0.981 . S
O59 Zn35 2.066 . S
O59 C38 1.256 . S
O60 Zn32 2.053 . S
O60 C38 1.244 . S
C61 O39 1.259 . S
C61 O40 1.254 . S
O62 Zn32 2.066 . S
O62 C34 1.256 . S
O63 C34 1.244 . S
O63 Zn35 2.053 . S
Zn64 O65 2.055 . S
Zn64 O72 2.046 . S
Zn64 N80 2.036 . S
Zn64 O92 2.053 . S
Zn64 O94 2.066 . S
O65 Zn64 2.055 . S
O65 C68 1.259 . S
C66 O94 1.256 . S
C66 O95 1.244 . S
Zn67 O69 2.046 . S
Zn67 O71 2.055 . S
Zn67 N73 2.036 . S
Zn67 O91 2.066 . S
Zn67 O95 2.053 . S
C68 O65 1.259 . S
C68 O69 1.254 . S
O69 Zn67 2.046 . S
O69 C68 1.254 . S
C70 O91 1.256 . S
C70 O92 1.244 . S
O71 Zn67 2.055 . S
O71 C93 1.259 . S
O72 Zn64 2.046 . S
O72 C93 1.254 . S
N73 Zn67 2.036 . S
N73 C74 1.298 . S
N73 N76 1.398 . S
C74 N73 1.298 . S
C74 N77 1.367 . S
C74 C87 1.481 . S
C75 N76 1.299 . S
C75 N77 1.379 . S
N76 N73 1.398 . S
N76 C75 1.299 . S
N77 C74 1.367 . S
N77 C75 1.379 . S
C78 N80 1.298 . S
C78 N82 1.367 . S
C78 C86 1.481 . S
C79 N81 1.299 . S
C79 N82 1.379 . S
N80 Zn64 2.036 . S
N80 C78 1.298 . S
N80 N81 1.398 . S
N81 C79 1.299 . S
N81 N80 1.398 . S
N82 C78 1.367 . S
N82 C79 1.379 . S
H83 C86 0.980 . S
H84 C86 0.981 . S
H85 C86 0.981 . S
C86 C78 1.481 . S
C86 H83 0.980 . S
C86 H84 0.981 . S
C86 H85 0.981 . S
C87 C74 1.481 . S
C87 H88 0.980 . S
C87 H89 0.981 . S
C87 H90 0.981 . S
H88 C87 0.980 . S
H89 C87 0.981 . S
H90 C87 0.981 . S
O91 Zn67 2.066 . S
O91 C70 1.256 . S
O92 Zn64 2.053 . S
O92 C70 1.244 . S
C93 O71 1.259 . S
C93 O72 1.254 . S
O94 Zn64 2.066 . S
O94 C66 1.256 . S
O95 C66 1.244 . S
O95 Zn67 2.053 . S
Zn96 O97 2.055 . S
Zn96 O104 2.046 . S
Zn96 N112 2.036 . S
Zn96 O124 2.053 . S
Zn96 O126 2.066 . S
O97 Zn96 2.055 . S
O97 C100 1.259 . S
C98 O126 1.256 . S
C98 O127 1.244 1_556 S
Zn99 O101 2.046 . S
Zn99 O103 2.055 . S
Zn99 N105 2.036 . S
Zn99 O123 2.066 . S
Zn99 O127 2.053 . S
C100 O97 1.259 . S
C100 O101 1.254 1_556 S
O101 Zn99 2.046 . S
O101 C100 1.254 1_554 S
C102 O123 1.256 . S
C102 O124 1.244 1_554 S
O103 Zn99 2.055 . S
O103 C125 1.259 . S
O104 Zn96 2.046 . S
O104 C125 1.254 1_556 S
N105 Zn99 2.036 . S
N105 C106 1.298 . S
N105 N108 1.398 . S
C106 N105 1.298 . S
C106 N109 1.367 . S
C106 C119 1.481 . S
C107 N108 1.299 . S
C107 N109 1.379 . S
N108 N105 1.398 . S
N108 C107 1.299 . S
N109 C106 1.367 . S
N109 C107 1.379 . S
C110 N112 1.298 . S
C110 N114 1.367 . S
C110 C118 1.481 . S
C111 N113 1.299 . S
C111 N114 1.379 . S
N112 Zn96 2.036 . S
N112 C110 1.298 . S
N112 N113 1.398 . S
N113 C111 1.299 . S
N113 N112 1.398 . S
N114 C110 1.367 . S
N114 C111 1.379 . S
H115 C118 0.980 . S
H116 C118 0.981 . S
H117 C118 0.981 . S
C118 C110 1.481 . S
C118 H115 0.980 . S
C118 H116 0.981 . S
C118 H117 0.981 . S
C119 C106 1.481 . S
C119 H120 0.980 . S
C119 H121 0.981 . S
C119 H122 0.981 . S
H120 C119 0.980 . S
H121 C119 0.981 . S
H122 C119 0.981 . S
O123 Zn99 2.066 . S
O123 C102 1.256 . S
O124 Zn96 2.053 . S
O124 C102 1.244 1_556 S
C125 O103 1.259 . S
C125 O104 1.254 1_554 S
O126 Zn96 2.066 . S
O126 C98 1.256 . S
O127 C98 1.244 1_554 S
O127 Zn99 2.053 . S
Zn128 O129 2.055 . S
Zn128 O136 2.046 . S
Zn128 N144 2.036 . S
Zn128 O156 2.053 . S
Zn128 O158 2.066 . S
O129 Zn128 2.055 . S
O129 C132 1.259 . S
C130 O158 1.256 . S
C130 O159 1.244 . S
Zn131 O133 2.046 . S
Zn131 O135 2.055 . S
Zn131 N137 2.036 . S
Zn131 O155 2.066 . S
Zn131 O159 2.053 . S
C132 O129 1.259 . S
C132 O133 1.254 . S
O133 Zn131 2.046 . S
O133 C132 1.254 . S
C134 O155 1.256 . S
C134 O156 1.244 . S
O135 Zn131 2.055 . S
O135 C157 1.259 . S
O136 Zn128 2.046 . S
O136 C157 1.254 . S
N137 Zn131 2.036 . S
N137 C138 1.298 . S
N137 N140 1.398 . S
C138 N137 1.298 . S
C138 N141 1.367 . S
C138 C151 1.481 . S
C139 N140 1.299 . S
C139 N141 1.379 . S
N140 N137 1.398 . S
N140 C139 1.299 . S
N141 C138 1.367 . S
N141 C139 1.379 . S
C142 N144 1.298 . S
C142 N146 1.367 . S
C142 C150 1.481 . S
C143 N145 1.299 . S
C143 N146 1.379 . S
N144 Zn128 2.036 . S
N144 C142 1.298 . S
N144 N145 1.398 . S
N145 C143 1.299 . S
N145 N144 1.398 . S
N146 C142 1.367 . S
N146 C143 1.379 . S
H147 C150 0.980 . S
H148 C150 0.981 . S
H149 C150 0.981 . S
C150 C142 1.481 . S
C150 H147 0.980 . S
C150 H148 0.981 . S
C150 H149 0.981 . S
C151 C138 1.481 . S
C151 H152 0.980 . S
C151 H153 0.981 . S
C151 H154 0.981 . S
H152 C151 0.980 . S
H153 C151 0.981 . S
H154 C151 0.981 . S
O155 Zn131 2.066 . S
O155 C134 1.256 . S
O156 Zn128 2.053 . S
O156 C134 1.244 . S
C157 O135 1.259 . S
C157 O136 1.254 . S
O158 Zn128 2.066 . S
O158 C130 1.256 . S
O159 C130 1.244 . S
O159 Zn131 2.053 . S
Zn160 O161 2.055 . S
Zn160 O168 2.046 . S
Zn160 N176 2.036 . S
Zn160 O188 2.053 . S
Zn160 O190 2.066 . S
O161 Zn160 2.055 . S
O161 C164 1.259 . S
C162 O190 1.256 . S
C162 O191 1.244 . S
Zn163 O165 2.046 . S
Zn163 O167 2.055 . S
Zn163 N169 2.036 . S
Zn163 O187 2.066 . S
Zn163 O191 2.053 . S
C164 O161 1.259 . S
C164 O165 1.254 . S
O165 Zn163 2.046 . S
O165 C164 1.254 . S
C166 O187 1.256 . S
C166 O188 1.244 . S
O167 Zn163 2.055 . S
O167 C189 1.259 . S
O168 Zn160 2.046 . S
O168 C189 1.254 . S
N169 Zn163 2.036 . S
N169 C170 1.298 . S
N169 N172 1.398 . S
C170 N169 1.298 . S
C170 N173 1.367 . S
C170 C183 1.481 . S
C171 N172 1.299 . S
C171 N173 1.379 . S
N172 N169 1.398 . S
N172 C171 1.299 . S
N173 C170 1.367 . S
N173 C171 1.379 . S
C174 N176 1.298 . S
C174 N178 1.367 . S
C174 C182 1.481 . S
C175 N177 1.299 . S
C175 N178 1.379 . S
N176 Zn160 2.036 . S
N176 C174 1.298 . S
N176 N177 1.398 . S
N177 C175 1.299 . S
N177 N176 1.398 . S
N178 C174 1.367 . S
N178 C175 1.379 . S
H179 C182 0.980 . S
H180 C182 0.981 . S
H181 C182 0.981 . S
C182 C174 1.481 . S
C182 H179 0.980 . S
C182 H180 0.981 . S
C182 H181 0.981 . S
C183 C170 1.481 . S
C183 H184 0.980 . S
C183 H185 0.981 . S
C183 H186 0.981 . S
H184 C183 0.980 . S
H185 C183 0.981 . S
H186 C183 0.981 . S
O187 Zn163 2.066 . S
O187 C166 1.256 . S
O188 Zn160 2.053 . S
O188 C166 1.244 . S
C189 O167 1.259 . S
C189 O168 1.254 . S
O190 Zn160 2.066 . S
O190 C162 1.256 . S
O191 C162 1.244 . S
O191 Zn163 2.053 . S
H192 C200 0.950 . S
H193 C205 0.950 . S
H194 C202 0.950 . S
H195 C204 0.950 . S
H196 C206 0.950 . S
H197 C208 0.950 . S
H198 C210 0.950 . S
H199 C211 0.950 1_554 S
C200 H192 0.950 . S
C200 C201 1.386 . S
C200 C202 1.391 . S
C201 C200 1.386 . S
C201 C205 1.393 . S
C202 H194 0.950 . S
C202 C200 1.391 . S
C202 C203 1.400 . S
C203 C202 1.400 . S
C203 C204 1.398 . S
C203 C209 1.491 . S
C204 H195 0.950 . S
C204 C203 1.398 . S
C204 C205 1.391 . S
C205 H193 0.950 . S
C205 C201 1.393 . S
C205 C204 1.391 . S
C206 H196 0.950 . S
C206 C207 1.386 . S
C206 C208 1.391 . S
C207 C206 1.386 . S
C207 C211 1.393 . S
C208 H197 0.950 . S
C208 C206 1.391 . S
C208 C209 1.400 . S
C209 C203 1.491 . S
C209 C208 1.400 . S
C209 C210 1.398 . S
C210 H198 0.950 . S
C210 C209 1.398 . S
C210 C211 1.391 . S
C211 H199 0.950 1_556 S
C211 C207 1.393 . S
C211 C210 1.391 . S
H212 C220 0.950 . S
H213 C225 0.962 . S
H214 C222 0.950 . S
H215 C224 0.950 1_655 S
H216 C226 0.950 . S
H217 C228 0.950 . S
H218 C230 0.950 1_455 S
H219 C231 0.950 . S
C220 H212 0.950 . S
C220 C221 1.386 . S
C220 C222 1.391 . S
C221 C220 1.386 . S
C221 C225 1.393 . S
C222 H214 0.950 . S
C222 C220 1.391 . S
C222 C223 1.400 . S
C223 C222 1.400 . S
C223 C224 1.398 . S
C223 C229 1.491 1_455 S
C224 H215 0.950 1_455 S
C224 C223 1.398 . S
C224 C225 1.391 . S
C225 H213 0.962 . S
C225 C221 1.393 . S
C225 C224 1.391 . S
C226 H216 0.950 . S
C226 C227 1.386 . S
C226 C228 1.391 . S
C227 C226 1.386 . S
C227 C231 1.393 . S
C228 H217 0.950 . S
C228 C226 1.391 . S
C228 C229 1.400 . S
C229 C223 1.491 1_655 S
C229 C228 1.400 . S
C229 C230 1.398 . S
C230 H218 0.950 1_655 S
C230 C229 1.398 . S
C230 C231 1.391 . S
C231 H219 0.950 . S
C231 C227 1.393 . S
C231 C230 1.391 . S
H232 C240 0.950 . S
H233 C245 0.950 . S
H234 C242 0.950 . S
H235 C244 0.950 . S
H236 C246 0.950 . S
H237 C248 0.950 . S
H238 C250 0.950 . S
H239 C251 0.950 . S
C240 H232 0.950 . S
C240 C241 1.386 . S
C240 C242 1.391 . S
C241 C240 1.386 . S
C241 C245 1.393 . S
C242 H234 0.950 . S
C242 C240 1.391 . S
C242 C243 1.400 . S
C243 C242 1.400 . S
C243 C244 1.398 . S
C243 C249 1.491 1_545 S
C244 H235 0.950 . S
C244 C243 1.398 . S
C244 C245 1.391 . S
C245 H233 0.950 . S
C245 C241 1.393 . S
C245 C244 1.391 . S
C246 H236 0.950 . S
C246 C247 1.386 . S
C246 C248 1.391 . S
C247 C246 1.386 . S
C247 C251 1.393 . S
C248 H237 0.950 . S
C248 C246 1.391 . S
C248 C249 1.400 . S
C249 C243 1.491 1_565 S
C249 C248 1.400 . S
C249 C250 1.398 . S
C250 H238 0.950 . S
C250 C249 1.398 . S
C250 C251 1.391 . S
C251 H239 0.950 . S
C251 C247 1.393 . S
C251 C250 1.391 . S
H252 C260 0.950 . S
H253 C265 0.950 . S
H254 C262 0.950 . S
H255 C264 0.950 . S
H256 C266 0.950 . S
H257 C268 0.950 . S
H258 C270 0.950 . S
H259 C271 0.950 . S
C260 H252 0.950 . S
C260 C261 1.386 . S
C260 C262 1.391 . S
C261 C260 1.386 . S
C261 C265 1.393 . S
C262 H254 0.950 . S
C262 C260 1.391 . S
C262 C263 1.400 . S
C263 C262 1.400 . S
C263 C264 1.398 . S
C263 C269 1.491 . S
C264 H255 0.950 . S
C264 C263 1.398 . S
C264 C265 1.391 . S
C265 H253 0.950 . S
C265 C261 1.393 . S
C265 C264 1.391 . S
C266 H256 0.950 . S
C266 C267 1.386 . S
C266 C268 1.391 . S
C267 C266 1.386 . S
C267 C271 1.393 . S
C268 H257 0.950 . S
C268 C266 1.391 . S
C268 C269 1.400 . S
C269 C263 1.491 . S
C269 C268 1.400 . S
C269 C270 1.398 . S
C270 H258 0.950 . S
C270 C269 1.398 . S
C270 C271 1.391 . S
C271 H259 0.950 . S
C271 C267 1.393 . S
C271 C270 1.391 . S
H272 C280 0.950 . S
H273 C285 0.950 . S
H274 C282 0.950 . S
H275 C284 0.950 . S
H276 C286 0.950 . S
H277 C288 0.950 . S
H278 C290 0.950 . S
H279 C291 0.950 . S
C280 H272 0.950 . S
C280 C281 1.386 . S
C280 C282 1.391 . S
C281 C280 1.386 . S
C281 C285 1.393 . S
C282 H274 0.950 . S
C282 C280 1.391 . S
C282 C283 1.400 . S
C283 C282 1.400 . S
C283 C284 1.398 . S
C283 C289 1.491 1_455 S
C284 H275 0.950 . S
C284 C283 1.398 . S
C284 C285 1.391 . S
C285 H273 0.950 . S
C285 C281 1.393 . S
C285 C284 1.391 . S
C286 H276 0.950 . S
C286 C287 1.386 . S
C286 C288 1.391 . S
C287 C286 1.386 . S
C287 C291 1.393 . S
C288 H277 0.950 . S
C288 C286 1.391 . S
C288 C289 1.400 . S
C289 C283 1.491 1_655 S
C289 C288 1.400 . S
C289 C290 1.398 . S
C290 H278 0.950 . S
C290 C289 1.398 . S
C290 C291 1.391 . S
C291 H279 0.950 . S
C291 C287 1.393 . S
C291 C290 1.391 . S
H292 C300 0.950 . S
H293 C305 0.950 . S
H294 C302 0.950 . S
H295 C304 0.953 . S
H296 C306 0.950 . S
H297 C308 0.950 . S
H298 C310 0.953 . S
H299 C311 0.950 . S
C300 H292 0.950 . S
C300 C301 1.386 . S
C300 C302 1.391 . S
C301 C300 1.386 . S
C301 C305 1.393 . S
C302 H294 0.950 . S
C302 C300 1.391 . S
C302 C303 1.400 . S
C303 C302 1.400 . S
C303 C304 1.398 . S
C303 C309 1.491 1_545 S
C304 H295 0.953 . S
C304 C303 1.398 . S
C304 C305 1.391 . S
C305 H293 0.950 . S
C305 C301 1.393 . S
C305 C304 1.391 . S
C306 H296 0.950 . S
C306 C307 1.386 . S
C306 C308 1.391 . S
C307 C306 1.386 . S
C307 C311 1.393 . S
C308 H297 0.950 . S
C308 C306 1.391 . S
C308 C309 1.400 . S
C309 C303 1.491 1_565 S
C309 C308 1.400 . S
C309 C310 1.398 . S
C310 H298 0.953 . S
C310 C309 1.398 . S
C310 C311 1.391 . S
C311 H299 0.950 . S
C311 C307 1.393 . S
C311 C310 1.391 . S
H312 C320 0.950 . S
H313 C325 0.950 . S
H314 C322 0.950 . S
H315 C324 0.950 . S
H316 C326 0.950 . S
H317 C328 0.950 . S
H318 C330 0.950 . S
H319 C331 0.950 . S
C320 H312 0.950 . S
C320 C321 1.386 . S
C320 C322 1.391 . S
C321 C320 1.386 . S
C321 C325 1.393 . S
C322 H314 0.950 . S
C322 C320 1.391 . S
C322 C323 1.400 . S
C323 C322 1.400 . S
C323 C324 1.398 . S
C323 C329 1.491 . S
C324 H315 0.950 . S
C324 C323 1.398 . S
C324 C325 1.391 . S
C325 H313 0.950 . S
C325 C321 1.393 . S
C325 C324 1.391 . S
C326 H316 0.950 . S
C326 C327 1.386 . S
C326 C328 1.391 . S
C327 C326 1.386 . S
C327 C331 1.393 . S
C328 H317 0.950 . S
C328 C326 1.391 . S
C328 C329 1.400 . S
C329 C323 1.491 . S
C329 C328 1.400 . S
C329 C330 1.398 . S
C330 H318 0.950 . S
C330 C329 1.398 . S
C330 C331 1.391 . S
C331 H319 0.950 . S
C331 C327 1.393 . S
C331 C330 1.391 . S
H332 C340 0.950 . S
H333 C345 0.950 . S
H334 C342 0.950 . S
H335 C344 0.950 . S
H336 C346 0.950 . S
H337 C348 0.950 . S
H338 C350 0.950 . S
H339 C351 0.950 . S
C340 H332 0.950 . S
C340 C341 1.386 1_556 S
C340 C342 1.391 . S
C341 C340 1.386 1_554 S
C341 C345 1.393 . S
C342 H334 0.950 . S
C342 C340 1.391 . S
C342 C343 1.400 . S
C343 C342 1.400 . S
C343 C344 1.398 . S
C343 C349 1.491 . S
C344 H335 0.950 . S
C344 C343 1.398 . S
C344 C345 1.391 1_556 S
C345 H333 0.950 . S
C345 C341 1.393 . S
C345 C344 1.391 1_554 S
C346 H336 0.950 . S
C346 C347 1.386 . S
C346 C348 1.391 . S
C347 C346 1.386 . S
C347 C351 1.393 . S
C348 H337 0.950 . S
C348 C346 1.391 . S
C348 C349 1.400 . S
C349 C343 1.491 . S
C349 C348 1.400 . S
C349 C350 1.398 . S
C350 H338 0.950 . S
C350 C349 1.398 . S
C350 C351 1.391 . S
C351 H339 0.950 . S
C351 C347 1.393 . S
C351 C350 1.391 . S
H352 C360 0.950 . S
H353 C365 0.950 . S
H354 C362 0.950 . S
H355 C364 0.950 . S
H356 C366 0.950 1_556 S
H357 C368 0.950 . S
H358 C370 0.950 . S
H359 C371 0.950 . S
C360 H352 0.950 . S
C360 C361 1.386 . S
C360 C362 1.391 . S
C361 C360 1.386 . S
C361 C365 1.393 . S
C362 H354 0.950 . S
C362 C360 1.391 . S
C362 C363 1.400 . S
C363 C362 1.400 . S
C363 C364 1.398 . S
C363 C369 1.491 . S
C364 H355 0.950 . S
C364 C363 1.398 . S
C364 C365 1.391 . S
C365 H353 0.950 . S
C365 C361 1.393 . S
C365 C364 1.391 . S
C366 H356 0.950 1_554 S
C366 C367 1.386 . S
C366 C368 1.391 . S
C367 C366 1.386 . S
C367 C371 1.393 . S
C368 H357 0.950 . S
C368 C366 1.391 . S
C368 C369 1.400 . S
C369 C363 1.491 . S
C369 C368 1.400 . S
C369 C370 1.398 . S
C370 H358 0.950 . S
C370 C369 1.398 . S
C370 C371 1.391 . S
C371 H359 0.950 . S
C371 C367 1.393 . S
C371 C370 1.391 . S
H372 C380 0.950 . S
H373 C385 0.950 . S
H374 C382 0.950 . S
H375 C384 0.950 . S
H376 C386 0.950 . S
H377 C388 0.950 . S
H378 C390 0.950 . S
H379 C391 0.950 . S
C380 H372 0.950 . S
C380 C381 1.386 . S
C380 C382 1.391 . S
C381 C380 1.386 . S
C381 C385 1.393 . S
C382 H374 0.950 . S
C382 C380 1.391 . S
C382 C383 1.400 . S
C383 C382 1.400 . S
C383 C384 1.398 . S
C383 C389 1.491 . S
C384 H375 0.950 . S
C384 C383 1.398 . S
C384 C385 1.391 . S
C385 H373 0.950 . S
C385 C381 1.393 . S
C385 C384 1.391 . S
C386 H376 0.950 . S
C386 C387 1.386 . S
C386 C388 1.391 . S
C387 C386 1.386 . S
C387 C391 1.393 . S
C388 H377 0.950 . S
C388 C386 1.391 . S
C388 C389 1.400 . S
C389 C383 1.491 . S
C389 C388 1.400 . S
C389 C390 1.398 . S
C390 H378 0.950 . S
C390 C389 1.398 . S
C390 C391 1.391 . S
C391 H379 0.950 . S
C391 C387 1.393 . S
C391 C390 1.391 . S
H392 C400 0.950 . S
H393 C405 0.950 . S
H394 C402 0.950 . S
H395 C404 0.950 . S
H396 C406 0.950 . S
H397 C408 0.950 . S
H398 C410 0.950 . S
H399 C411 0.950 . S
C400 H392 0.950 . S
C400 C401 1.386 . S
C400 C402 1.391 . S
C401 C400 1.386 . S
C401 C405 1.393 . S
C402 H394 0.950 . S
C402 C400 1.391 . S
C402 C403 1.400 . S
C403 C402 1.400 . S
C403 C404 1.398 . S
C403 C409 1.491 . S
C404 H395 0.950 . S
C404 C403 1.398 . S
C404 C405 1.391 . S
C405 H393 0.950 . S
C405 C401 1.393 . S
C405 C404 1.391 . S
C406 H396 0.950 . S
C406 C407 1.386 . S
C406 C408 1.391 1_554 S
C407 C406 1.386 . S
C407 C411 1.393 1_554 S
C408 H397 0.950 . S
C408 C406 1.391 1_556 S
C408 C409 1.400 . S
C409 C403 1.491 . S
C409 C408 1.400 . S
C409 C410 1.398 . S
C410 H398 0.950 . S
C410 C409 1.398 . S
C410 C411 1.391 . S
C411 H399 0.950 . S
C411 C407 1.393 1_556 S
C411 C410 1.391 . S
H412 C420 0.950 . S
H413 C425 0.950 . S
H414 C422 0.950 . S
H415 C424 0.950 . S
H416 C426 0.950 . S
H417 C428 0.950 . S
H418 C430 0.950 . S
H419 C431 0.950 . S
C420 H412 0.950 . S
C420 C421 1.386 . S
C420 C422 1.391 . S
C421 C420 1.386 . S
C421 C425 1.393 . S
C422 H414 0.950 . S
C422 C420 1.391 . S
C422 C423 1.400 . S
C423 C422 1.400 . S
C423 C424 1.398 . S
C423 C429 1.491 . S
C424 H415 0.950 . S
C424 C423 1.398 . S
C424 C425 1.391 . S
C425 H413 0.950 . S
C425 C421 1.393 . S
C425 C424 1.391 . S
C426 H416 0.950 . S
C426 C427 1.386 . S
C426 C428 1.391 . S
C427 C426 1.386 . S
C427 C431 1.393 . S
C428 H417 0.950 . S
C428 C426 1.391 . S
C428 C429 1.400 . S
C429 C423 1.491 . S
C429 C428 1.400 . S
C429 C430 1.398 . S
C430 H418 0.950 . S
C430 C429 1.398 . S
C430 C431 1.391 . S
C431 H419 0.950 . S
C431 C427 1.393 . S
C431 C430 1.391 . S
H432 C440 0.950 . S
H433 C445 0.950 . S
H434 C442 0.950 . S
H435 C444 0.950 . S
H436 C446 0.950 . S
H437 C448 0.950 . S
H438 C450 0.950 . S
H439 C451 0.950 . S
C440 H432 0.950 . S
C440 C441 1.386 . S
C440 C442 1.391 . S
C441 C440 1.386 . S
C441 C445 1.393 . S
C442 H434 0.950 . S
C442 C440 1.391 . S
C442 C443 1.400 . S
C443 C442 1.400 . S
C443 C444 1.398 . S
C443 C449 1.491 . S
C444 H435 0.950 . S
C444 C443 1.398 . S
C444 C445 1.391 . S
C445 H433 0.950 . S
C445 C441 1.393 . S
C445 C444 1.391 . S
C446 H436 0.950 . S
C446 C447 1.386 . S
C446 C448 1.391 . S
C447 C446 1.386 . S
C447 C451 1.393 . S
C448 H437 0.950 . S
C448 C446 1.391 . S
C448 C449 1.400 . S
C449 C443 1.491 . S
C449 C448 1.400 . S
C449 C450 1.398 . S
C450 H438 0.950 . S
C450 C449 1.398 . S
C450 C451 1.391 . S
C451 H439 0.950 . S
C451 C447 1.393 . S
C451 C450 1.391 . S
H452 C460 0.950 . S
H453 C465 0.950 . S
H454 C462 0.950 . S
H455 C464 0.950 . S
H456 C466 0.950 . S
H457 C468 0.950 . S
H458 C470 0.950 . S
H459 C471 0.950 . S
C460 H452 0.950 . S
C460 C461 1.386 . S
C460 C462 1.391 . S
C461 C460 1.386 . S
C461 C465 1.393 . S
C462 H454 0.950 . S
C462 C460 1.391 . S
C462 C463 1.400 . S
C463 C462 1.400 . S
C463 C464 1.398 . S
C463 C469 1.491 . S
C464 H455 0.950 . S
C464 C463 1.398 . S
C464 C465 1.391 . S
C465 H453 0.950 . S
C465 C461 1.393 . S
C465 C464 1.391 . S
C466 H456 0.950 . S
C466 C467 1.386 . S
C466 C468 1.391 . S
C467 C466 1.386 . S
C467 C471 1.393 . S
C468 H457 0.950 . S
C468 C466 1.391 . S
C468 C469 1.400 . S
C469 C463 1.491 . S
C469 C468 1.400 . S
C469 C470 1.398 . S
C470 H458 0.950 . S
C470 C469 1.398 . S
C470 C471 1.391 . S
C471 H459 0.950 . S
C471 C467 1.393 . S
C471 C470 1.391 . S
H472 C480 0.950 . S
H473 C485 0.950 . S
H474 C482 0.950 . S
H475 C484 0.950 . S
H476 C486 0.950 . S
H477 C488 0.950 . S
H478 C490 0.950 . S
H479 C491 0.950 . S
C480 H472 0.950 . S
C480 C481 1.386 . S
C480 C482 1.391 . S
C481 C480 1.386 . S
C481 C485 1.393 . S
C482 H474 0.950 . S
C482 C480 1.391 . S
C482 C483 1.400 . S
C483 C482 1.400 . S
C483 C484 1.398 . S
C483 C489 1.491 . S
C484 H475 0.950 . S
C484 C483 1.398 . S
C484 C485 1.391 . S
C485 H473 0.950 . S
C485 C481 1.393 . S
C485 C484 1.391 . S
C486 H476 0.950 . S
C486 C487 1.386 . S
C486 C488 1.391 . S
C487 C486 1.386 . S
C487 C491 1.393 . S
C488 H477 0.950 . S
C488 C486 1.391 . S
C488 C489 1.400 . S
C489 C483 1.491 . S
C489 C488 1.400 . S
C489 C490 1.398 . S
C490 H478 0.950 . S
C490 C489 1.398 . S
C490 C491 1.391 . S
C491 H479 0.950 . S
C491 C487 1.393 . S
C491 C490 1.391 . S
H492 C500 0.950 . S
H493 C505 0.950 . S
H494 C502 0.950 . S
H495 C504 0.950 . S
H496 C506 0.950 . S
H497 C508 0.950 . S
H498 C510 0.950 . S
H499 C511 0.950 1_556 S
C500 H492 0.950 . S
C500 C501 1.386 . S
C500 C502 1.391 . S
C501 C500 1.386 . S
C501 C505 1.393 . S
C502 H494 0.950 . S
C502 C500 1.391 . S
C502 C503 1.400 . S
C503 C502 1.400 . S
C503 C504 1.398 . S
C503 C509 1.491 . S
C504 H495 0.950 . S
C504 C503 1.398 . S
C504 C505 1.391 . S
C505 H493 0.950 . S
C505 C501 1.393 . S
C505 C504 1.391 . S
C506 H496 0.950 . S
C506 C507 1.386 . S
C506 C508 1.391 . S
C507 C506 1.386 . S
C507 C511 1.393 . S
C508 H497 0.950 . S
C508 C506 1.391 . S
C508 C509 1.400 . S
C509 C503 1.491 . S
C509 C508 1.400 . S
C509 C510 1.398 . S
C510 H498 0.950 . S
C510 C509 1.398 . S
C510 C511 1.391 . S
C511 H499 0.950 1_554 S
C511 C507 1.393 . S
C511 C510 1.391 . S
H512 C520 0.950 . S
H513 C525 0.950 . S
H514 C522 0.950 . S
H515 C524 0.950 . S
H516 C526 0.950 . S
H517 C528 0.950 . S
H518 C530 0.950 . S
H519 C531 0.950 . S
C520 H512 0.950 . S
C520 C521 1.386 . S
C520 C522 1.391 . S
C521 C520 1.386 . S
C521 C525 1.393 . S
C522 H514 0.950 . S
C522 C520 1.391 . S
C522 C523 1.400 . S
C523 C522 1.400 . S
C523 C524 1.398 . S
C523 C529 1.491 . S
C524 H515 0.950 . S
C524 C523 1.398 . S
C524 C525 1.391 . S
C525 H513 0.950 . S
C525 C521 1.393 . S
C525 C524 1.391 . S
C526 H516 0.950 . S
C526 C527 1.386 . S
C526 C528 1.391 . S
C527 C526 1.386 . S
C527 C531 1.393 . S
C528 H517 0.950 . S
C528 C526 1.391 . S
C528 C529 1.400 . S
C529 C523 1.491 . S
C529 C528 1.400 . S
C529 C530 1.398 . S
C530 H518 0.950 . S
C530 C529 1.398 . S
C530 C531 1.391 . S
C531 H519 0.950 . S
C531 C527 1.393 . S
C531 C530 1.391 . S
H532 C540 0.950 . S
H533 C545 0.950 1_554 S
H534 C542 0.950 . S
H535 C544 0.950 . S
H536 C546 0.950 . S
H537 C548 0.950 . S
H538 C550 0.950 . S
H539 C551 0.950 . S
C540 H532 0.950 . S
C540 C541 1.386 . S
C540 C542 1.391 . S
C541 C540 1.386 . S
C541 C545 1.393 . S
C542 H534 0.950 . S
C542 C540 1.391 . S
C542 C543 1.400 . S
C543 C542 1.400 . S
C543 C544 1.398 . S
C543 C549 1.491 . S
C544 H535 0.950 . S
C544 C543 1.398 . S
C544 C545 1.391 . S
C545 H533 0.950 1_556 S
C545 C541 1.393 . S
C545 C544 1.391 . S
C546 H536 0.950 . S
C546 C547 1.386 . S
C546 C548 1.391 . S
C547 C546 1.386 . S
C547 C551 1.393 . S
C548 H537 0.950 . S
C548 C546 1.391 . S
C548 C549 1.400 . S
C549 C543 1.491 . S
C549 C548 1.400 . S
C549 C550 1.398 . S
C550 H538 0.950 . S
C550 C549 1.398 . S
C550 C551 1.391 . S
C551 H539 0.950 . S
C551 C547 1.393 . S
C551 C550 1.391 . S
C201 C166 1.468 . S
C207 C6 1.475 . S
C221 C2 1.467 . S
C227 C34 1.475 . S
C241 C38 1.464 . S
C247 C70 1.462 . S
C261 C66 1.474 . S
C267 C98 1.476 . S
C281 C134 1.463 . S
C287 C102 1.470 . S
C301 C162 1.470 . S
C307 C130 1.476 . S
C321 N13 1.066 . S
C327 N18 1.063 . S
C341 N50 1.067 . S
C347 N45 1.073 . S
C361 N77 1.070 . S
C367 N82 1.064 1_554 S
C381 N114 1.064 . S
C387 N109 1.070 . S
C401 N146 1.074 . S
C407 N141 1.067 . S
C421 N178 1.063 . S
C427 N173 1.065 1_554 S
C441 C4 1.541 . S
C447 C157 1.533 . S
C461 C61 1.533 . S
C467 C164 1.552 . S
C481 C29 1.540 . S
C487 C68 1.549 . S
C501 C36 1.533 . S
C507 C125 1.552 . S
C521 C132 1.550 . S
C527 C93 1.530 . S
C541 C100 1.534 . S
C547 C189 1.552 . S
