# Generated by pormake.
# Topology uol, (4)-cn, num edge types: 1
# Building blocks:
#     Node 0, Type 0, BuildingBlock: QUQFOY_clean_sbu_1, # of connection points: 4
#     Node 1, Type 0, BuildingBlock: QUQFOY_clean_sbu_1, # of connection points: 4
#     Node 2, Type 0, BuildingBlock: QUQFOY_clean_sbu_1, # of connection points: 4
#     Node 3, Type 0, BuildingBlock: QUQFOY_clean_sbu_1, # of connection points: 4
#     Node 4, Type 0, BuildingBlock: QUQFOY_clean_sbu_1, # of connection points: 4
#     Node 5, Type 0, BuildingBlock: QUQFOY_clean_sbu_1, # of connection points: 4
#     Node 6, Type 0, BuildingBlock: QUQFOY_clean_sbu_1, # of connection points: 4
#     Node 7, Type 0, BuildingBlock: QUQFOY_clean_sbu_1, # of connection points: 4
#     Node 8, Type 0, BuildingBlock: QUQFOY_clean_sbu_1, # of connection points: 4
#     Node 9, Type 0, BuildingBlock: QUQFOY_clean_sbu_1, # of connection points: 4
#     Node 10, Type 0, BuildingBlock: QUQFOY_clean_sbu_1, # of connection points: 4
#     Node 11, Type 0, BuildingBlock: QUQFOY_clean_sbu_1, # of connection points: 4
#     Edge 12, Type (0, 0), BuildingBlock: UVAHIK_clean_linker_0, # of connection points: 2
#     Edge 13, Type (0, 0), BuildingBlock: UVAHIK_clean_linker_0, # of connection points: 2
#     Edge 14, Type (0, 0), BuildingBlock: UVAHIK_clean_linker_0, # of connection points: 2
#     Edge 15, Type (0, 0), BuildingBlock: UVAHIK_clean_linker_0, # of connection points: 2
#     Edge 16, Type (0, 0), BuildingBlock: UVAHIK_clean_linker_0, # of connection points: 2
#     Edge 17, Type (0, 0), BuildingBlock: UVAHIK_clean_linker_0, # of connection points: 2
#     Edge 18, Type (0, 0), BuildingBlock: UVAHIK_clean_linker_0, # of connection points: 2
#     Edge 19, Type (0, 0), BuildingBlock: UVAHIK_clean_linker_0, # of connection points: 2
#     Edge 20, Type (0, 0), BuildingBlock: UVAHIK_clean_linker_0, # of connection points: 2
#     Edge 21, Type (0, 0), BuildingBlock: UVAHIK_clean_linker_0, # of connection points: 2
#     Edge 22, Type (0, 0), BuildingBlock: UVAHIK_clean_linker_0, # of connection points: 2
#     Edge 23, Type (0, 0), BuildingBlock: UVAHIK_clean_linker_0, # of connection points: 2
#     Edge 24, Type (0, 0), BuildingBlock: UVAHIK_clean_linker_0, # of connection points: 2
#     Edge 25, Type (0, 0), BuildingBlock: UVAHIK_clean_linker_0, # of connection points: 2
#     Edge 26, Type (0, 0), BuildingBlock: UVAHIK_clean_linker_0, # of connection points: 2
#     Edge 27, Type (0, 0), BuildingBlock: UVAHIK_clean_linker_0, # of connection points: 2
#     Edge 28, Type (0, 0), BuildingBlock: UVAHIK_clean_linker_0, # of connection points: 2
#     Edge 29, Type (0, 0), BuildingBlock: UVAHIK_clean_linker_0, # of connection points: 2
#     Edge 30, Type (0, 0), BuildingBlock: UVAHIK_clean_linker_0, # of connection points: 2
#     Edge 31, Type (0, 0), BuildingBlock: UVAHIK_clean_linker_0, # of connection points: 2
#     Edge 32, Type (0, 0), BuildingBlock: UVAHIK_clean_linker_0, # of connection points: 2
#     Edge 33, Type (0, 0), BuildingBlock: UVAHIK_clean_linker_0, # of connection points: 2
#     Edge 34, Type (0, 0), BuildingBlock: UVAHIK_clean_linker_0, # of connection points: 2
#     Edge 35, Type (0, 0), BuildingBlock: UVAHIK_clean_linker_0, # of connection points: 2
# Relax obj value: 0.043
# Max RMSD: 0.148
# Mean RMSD: 0.148
data_MOF--net-uol--node1-QUQFOY_clean_sbu_1--edge1-UVAHIK_clean_linker_0
_symmetry_space_group_name_H-M    P1
_symmetry_Int_Tables_number       1
_symmetry_cell_setting            triclinic
loop_
_symmetry_equiv_pos_as_xyz
'x, y, z'
_cell_length_a     42.346516
_cell_length_b     42.326193
_cell_length_c     92.257331
_cell_angle_alpha  90.015623
_cell_angle_beta   90.012171
_cell_angle_gamma 119.97743
loop_
_atom_site_label
_atom_site_type_symbol
_atom_site_fract_x
_atom_site_fract_y
_atom_site_fract_z
_atom_type_partial_charge
O0 O 0.18469 0.34454 0.09264 0.0
Cd1 Cd 0.18043 0.36233 0.11301 0.0
Cd2 Cd 0.12437 0.2934 0.11484 0.0
O3 O 0.13289 0.29215 0.09272 0.0
O4 O 0.20632 0.41661 0.11211 0.0
O5 O 0.14686 0.38275 0.11567 0.0
C6 C 0.17522 0.41468 0.11399 0.0
C7 C 0.0675 0.27189 0.12574 0.0
C8 C 0.16146 0.31569 0.08613 0.0
C9 C 0.18902 0.31516 0.13454 0.0
O10 O 0.16019 0.28964 0.12886 0.0
O11 O 0.20153 0.34791 0.13039 0.0
O12 O 0.07688 0.24984 0.12016 0.0
O13 O 0.08927 0.30649 0.12399 0.0
O14 O 0.84289 0.17613 0.26056 0.0
Cd15 Cd 0.81991 0.16992 0.28084 0.0
Cd16 Cd 0.83467 0.11512 0.28192 0.0
O17 O 0.84522 0.12524 0.25991 0.0
O18 O 0.7915 0.19579 0.27997 0.0
O19 O 0.76579 0.1361 0.2829 0.0
C20 C 0.76224 0.16451 0.28133 0.0
C21 C 0.7987 0.05771 0.29231 0.0
C22 C 0.84959 0.15404 0.25371 0.0
C23 C 0.87561 0.17842 0.3024 0.0
O24 O 0.87344 0.15047 0.29632 0.0
O25 O 0.85466 0.1903 0.29849 0.0
O26 O 0.83035 0.06726 0.28693 0.0
O27 O 0.78608 0.07969 0.29064 0.0
O28 O 0.66806 0.83166 0.42635 0.0
Cd29 Cd 0.65265 0.81024 0.44695 0.0
Cd30 Cd 0.72173 0.82458 0.44745 0.0
O31 O 0.72058 0.83268 0.42532 0.0
O32 O 0.59835 0.78213 0.44666 0.0
O33 O 0.63212 0.75619 0.44958 0.0
C34 C 0.6002 0.75281 0.44822 0.0
C35 C 0.74434 0.78992 0.4582 0.0
C36 C 0.69611 0.83719 0.41924 0.0
C37 C 0.70165 0.86844 0.46728 0.0
O38 O 0.72678 0.86559 0.46097 0.0
O39 O 0.66845 0.84665 0.46411 0.0
O40 O 0.76574 0.82083 0.45212 0.0
O41 O 0.7096 0.77722 0.45715 0.0
O42 O 0.8428 0.66179 0.5917 0.0
Cd43 Cd 0.84846 0.64552 0.61229 0.0
Cd44 Cd 0.90163 0.71456 0.61304 0.0
O45 O 0.89514 0.71347 0.59079 0.0
O46 O 0.82195 0.59115 0.61175 0.0
O47 O 0.88161 0.62447 0.61479 0.0
C48 C 0.85294 0.59267 0.61335 0.0
C49 C 0.95676 0.73523 0.62524 0.0
C50 C 0.86605 0.68953 0.58462 0.0
C51 C 0.83712 0.69389 0.63213 0.0
O52 O 0.86379 0.71939 0.62536 0.0
O53 O 0.82803 0.66084 0.62969 0.0
O54 O 0.94897 0.75765 0.61889 0.0
O55 O 0.93438 0.7007 0.62365 0.0
O56 O 0.18394 0.82662 0.75974 0.0
Cd57 Cd 0.20636 0.83103 0.77995 0.0
Cd58 Cd 0.1934 0.88778 0.78214 0.0
O59 O 0.18039 0.87689 0.76023 0.0
O60 O 0.23556 0.80607 0.77879 0.0
O61 O 0.26015 0.86539 0.78263 0.0
C62 C 0.26436 0.83744 0.78076 0.0
C63 C 0.22687 0.94638 0.79193 0.0
C64 C 0.17634 0.84879 0.75351 0.0
C65 C 0.15279 0.82293 0.80232 0.0
O66 O 0.15706 0.85277 0.79733 0.0
O67 O 0.17086 0.80892 0.79722 0.0
O68 O 0.19448 0.9343 0.78684 0.0
O69 O 0.24168 0.92631 0.79026 0.0
O70 O 0.35302 0.16988 0.926 0.0
Cd71 Cd 0.37062 0.19229 0.94632 0.0
Cd72 Cd 0.30139 0.17882 0.94806 0.0
O73 O 0.30056 0.16912 0.92594 0.0
O74 O 0.4248 0.22024 0.94529 0.0
O75 O 0.39141 0.24643 0.94872 0.0
C76 C 0.42317 0.24964 0.94698 0.0
C77 C 0.27818 0.21307 0.95872 0.0
C78 C 0.32425 0.16418 0.91942 0.0
C79 C 0.3238 0.1367 0.96793 0.0
O80 O 0.29807 0.13953 0.96216 0.0
O81 O 0.35649 0.1572 0.9638 0.0
O82 O 0.25699 0.18156 0.95303 0.0
O83 O 0.31295 0.22661 0.95726 0.0
O84 O 0.67258 0.83149 0.78777 0.0
Cd85 Cd 0.6584 0.8388 0.76705 0.0
Cd86 Cd 0.72801 0.89046 0.76724 0.0
O87 O 0.72535 0.88249 0.78943 0.0
O88 O 0.60408 0.81229 0.76703 0.0
O89 O 0.63752 0.87213 0.76458 0.0
C90 C 0.60568 0.84337 0.76567 0.0
C91 C 0.74975 0.94638 0.75553 0.0
C92 C 0.70016 0.85354 0.79523 0.0
C93 C 0.70717 0.82694 0.74758 0.0
O94 O 0.73268 0.85281 0.75468 0.0
O95 O 0.67425 0.81865 0.74973 0.0
O96 O 0.7716 0.93802 0.76202 0.0
O97 O 0.7151 0.92402 0.75669 0.0
O98 O 0.84286 0.65694 0.95454 0.0
Cd99 Cd 0.82116 0.63828 0.93428 0.0
Cd100 Cd 0.83179 0.7069 0.93169 0.0
O101 O 0.84455 0.70988 0.95366 0.0
O102 O 0.79226 0.58412 0.93542 0.0
O103 O 0.76747 0.61856 0.93127 0.0
C104 C 0.76342 0.58648 0.93321 0.0
C105 C 0.79634 0.72959 0.92172 0.0
C106 C 0.84937 0.68658 0.96059 0.0
C107 C 0.87439 0.6841 0.91191 0.0
O108 O 0.8689 0.70914 0.91664 0.0
O109 O 0.85719 0.65216 0.91719 0.0
O110 O 0.82868 0.75109 0.92662 0.0
O111 O 0.78281 0.69494 0.92362 0.0
O112 O 0.18434 0.83238 0.12182 0.0
Cd113 Cd 0.17985 0.81097 0.10128 0.0
Cd114 Cd 0.12448 0.8244 0.09995 0.0
O115 O 0.13201 0.83184 0.12217 0.0
O116 O 0.20607 0.7829 0.102 0.0
O117 O 0.14658 0.75696 0.09845 0.0
C118 C 0.17506 0.7536 0.10014 0.0
C119 C 0.06795 0.7908 0.08854 0.0
C120 C 0.16085 0.83708 0.1286 0.0
C121 C 0.18973 0.86899 0.08082 0.0
O122 O 0.16129 0.86581 0.08683 0.0
O123 O 0.20122 0.84737 0.08418 0.0
O124 O 0.07741 0.82158 0.09475 0.0
O125 O 0.08947 0.77754 0.08986 0.0
O126 O 0.35654 0.17496 0.28759 0.0
Cd127 Cd 0.3715 0.16888 0.26691 0.0
Cd128 Cd 0.30221 0.11462 0.26648 0.0
O129 O 0.30363 0.12388 0.28863 0.0
O130 O 0.42579 0.19466 0.26696 0.0
O131 O 0.39151 0.135 0.264 0.0
C132 C 0.4236 0.16339 0.26522 0.0
C133 C 0.2794 0.05745 0.25563 0.0
C134 C 0.32839 0.15268 0.2947 0.0
C135 C 0.32257 0.17871 0.24676 0.0
O136 O 0.29734 0.15078 0.25305 0.0
O137 O 0.35573 0.18985 0.24989 0.0
O138 O 0.25807 0.067 0.26177 0.0
O139 O 0.31416 0.07935 0.25671 0.0
O140 O 0.18399 0.34478 0.45521 0.0
Cd141 Cd 0.20474 0.36149 0.43459 0.0
Cd142 Cd 0.19202 0.29295 0.43327 0.0
O143 O 0.18429 0.29283 0.45549 0.0
O144 O 0.23284 0.41582 0.43513 0.0
O145 O 0.25859 0.38209 0.43151 0.0
C146 C 0.26204 0.414 0.43311 0.0
C147 C 0.2275 0.2721 0.42193 0.0
C148 C 0.17924 0.31652 0.46196 0.0
C149 C 0.1467 0.31283 0.41418 0.0
O150 O 0.15051 0.28778 0.42004 0.0
O151 O 0.16782 0.34597 0.41765 0.0
O152 O 0.19669 0.24979 0.42787 0.0
O153 O 0.23961 0.30665 0.42346 0.0
O154 O 0.84049 0.17206 0.62142 0.0
Cd155 Cd 0.84503 0.19447 0.6011 0.0
Cd156 Cd 0.90136 0.18171 0.59921 0.0
O157 O 0.89228 0.17145 0.62128 0.0
O158 O 0.81939 0.22311 0.60203 0.0
O159 O 0.87885 0.24845 0.59852 0.0
C160 C 0.85058 0.2522 0.60018 0.0
C161 C 0.9591 0.21579 0.58877 0.0
C162 C 0.86367 0.16628 0.62787 0.0
C163 C 0.83672 0.13917 0.57937 0.0
O164 O 0.86566 0.14258 0.58499 0.0
O165 O 0.824 0.15914 0.58365 0.0
O166 O 0.94843 0.18413 0.59437 0.0
O167 O 0.93803 0.22954 0.59017 0.0
C168 C 0.20419 0.71489 0.10186 0.0
C169 C 0.1724 0.71733 0.10067 0.0
C170 C 0.20206 0.68109 0.10351 0.0
C171 C 0.14125 0.58155 0.09903 0.0
H172 H 0.209 0.57706 0.1261 0.0
C173 C 0.13823 0.44628 0.11366 0.0
C174 C 0.17236 0.44819 0.11376 0.0
C175 C 0.13596 0.47814 0.11268 0.0
C176 C 0.19004 0.57788 0.11844 0.0
H177 H 0.11335 0.68597 0.0999 0.0
H178 H 0.1096 0.62675 0.1029 0.0
H179 H 0.20916 0.63417 0.12279 0.0
H180 H 0.23082 0.48509 0.11309 0.0
H181 H 0.22685 0.54033 0.11142 0.0
H182 H 0.12228 0.52506 0.09468 0.0
C183 C 0.13623 0.65107 0.10245 0.0
C184 C 0.19018 0.61067 0.11651 0.0
C185 C 0.13837 0.68501 0.10077 0.0
C186 C 0.20409 0.4826 0.11307 0.0
C187 C 0.20182 0.51434 0.11219 0.0
C188 C 0.14105 0.54861 0.101 0.0
C189 C 0.16808 0.64878 0.10407 0.0
C190 C 0.16623 0.61312 0.10661 0.0
C191 C 0.16777 0.51254 0.11191 0.0
C192 C 0.16585 0.54658 0.11057 0.0
H193 H 0.23087 0.73919 0.10172 0.0
H194 H 0.22717 0.68032 0.10438 0.0
H195 H 0.12259 0.58252 0.09126 0.0
H196 H 0.11327 0.42018 0.11415 0.0
H197 H 0.10933 0.47588 0.1126 0.0
C198 C 0.69377 0.12731 0.28011 0.0
C199 C 0.72589 0.16151 0.28035 0.0
C200 C 0.6598 0.12485 0.27804 0.0
C201 C 0.61935 0.17781 0.26308 0.0
H202 H 0.53345 0.11074 0.2849 0.0
C203 C 0.49148 0.19206 0.26559 0.0
C204 C 0.457 0.16037 0.26525 0.0
C205 C 0.52315 0.18971 0.26651 0.0
C206 C 0.55707 0.12924 0.27857 0.0
H207 H 0.74735 0.21993 0.27912 0.0
H208 H 0.68842 0.21565 0.27576 0.0
H209 H 0.59085 0.1113 0.2888 0.0
H210 H 0.42879 0.10124 0.26542 0.0
H211 H 0.48437 0.09714 0.26701 0.0
H212 H 0.58587 0.19612 0.25298 0.0
C213 C 0.68939 0.19067 0.27684 0.0
C214 C 0.58997 0.12959 0.28082 0.0
C215 C 0.72321 0.19313 0.27889 0.0
C216 C 0.45496 0.12618 0.26564 0.0
C217 C 0.48675 0.12382 0.26665 0.0
C218 C 0.58657 0.17749 0.26085 0.0
C219 C 0.6573 0.15652 0.27616 0.0
C220 C 0.62166 0.15433 0.27326 0.0
C221 C 0.52121 0.15561 0.26717 0.0
C222 C 0.55517 0.15363 0.26873 0.0
H223 H 0.69491 0.10242 0.28118 0.0
H224 H 0.63564 0.09811 0.27752 0.0
H225 H 0.64298 0.1966 0.25681 0.0
H226 H 0.49407 0.21885 0.26534 0.0
H227 H 0.54918 0.21474 0.26708 0.0
C228 C 0.5685 0.68426 0.44721 0.0
C229 C 0.56667 0.71653 0.44763 0.0
C230 C 0.53678 0.65036 0.44537 0.0
C231 C 0.44257 0.61041 0.43131 0.0
H232 H 0.42497 0.52393 0.45243 0.0
C233 C 0.30086 0.48194 0.43403 0.0
C234 C 0.29831 0.44758 0.43325 0.0
C235 C 0.33478 0.51371 0.43499 0.0
C236 C 0.42972 0.54773 0.4463 0.0
H237 H 0.52992 0.73829 0.44701 0.0
H238 H 0.47488 0.67947 0.44406 0.0
H239 H 0.48193 0.58129 0.4562 0.0
H240 H 0.32954 0.41971 0.43269 0.0
H241 H 0.38903 0.47545 0.43435 0.0
H242 H 0.39032 0.57713 0.42154 0.0
C243 C 0.5008 0.68028 0.44481 0.0
C244 C 0.46235 0.58061 0.44847 0.0
C245 C 0.53239 0.71404 0.44662 0.0
C246 C 0.33058 0.44577 0.43326 0.0
C247 C 0.36463 0.47766 0.43431 0.0
C248 C 0.41004 0.57766 0.42916 0.0
C249 C 0.5026 0.64806 0.44391 0.0
C250 C 0.4689 0.61249 0.44116 0.0
C251 C 0.36709 0.512 0.43524 0.0
C252 C 0.40296 0.54604 0.43678 0.0
H253 H 0.59451 0.68526 0.44792 0.0
H254 H 0.53917 0.6261 0.44466 0.0
H255 H 0.44708 0.63419 0.42522 0.0
H256 H 0.27657 0.48435 0.43409 0.0
H257 H 0.33563 0.53964 0.43589 0.0
C258 C 0.8234 0.52475 0.6118 0.0
C259 C 0.85535 0.55891 0.61282 0.0
C260 C 0.82527 0.49292 0.61022 0.0
C261 C 0.88576 0.45377 0.61468 0.0
H262 H 0.8171 0.38093 0.58802 0.0
C263 C 0.8878 0.32079 0.60041 0.0
C264 C 0.85361 0.28865 0.60041 0.0
C265 C 0.89023 0.355 0.60133 0.0
C266 C 0.83631 0.40087 0.59557 0.0
H267 H 0.91439 0.58629 0.61335 0.0
H268 H 0.91768 0.53053 0.61047 0.0
H269 H 0.81731 0.43813 0.59115 0.0
H270 H 0.7952 0.26733 0.60122 0.0
H271 H 0.79944 0.32667 0.6028 0.0
H272 H 0.9046 0.41619 0.61909 0.0
C273 C 0.89114 0.52841 0.611 0.0
C274 C 0.83638 0.43366 0.5974 0.0
C275 C 0.88927 0.56038 0.61261 0.0
C276 C 0.82198 0.2915 0.60115 0.0
C277 C 0.8244 0.32559 0.60198 0.0
C278 C 0.88573 0.42089 0.61281 0.0
C279 C 0.85913 0.49433 0.60957 0.0
C280 C 0.86069 0.46032 0.60715 0.0
C281 C 0.85851 0.35776 0.60215 0.0
C282 C 0.86061 0.39384 0.6034 0.0
H283 H 0.7968 0.52256 0.61203 0.0
H284 H 0.80004 0.4671 0.60949 0.0
H285 H 0.90468 0.47358 0.62234 0.0
H286 H 0.91269 0.31952 0.59988 0.0
H287 H 0.91691 0.3793 0.60132 0.0
C288 C 0.5378 0.81369 0.76689 0.0
C289 C 0.57193 0.84573 0.76618 0.0
C290 C 0.50595 0.81539 0.76865 0.0
C291 C 0.46643 0.8757 0.76534 0.0
H292 H 0.39451 0.80566 0.79188 0.0
C293 C 0.33285 0.87547 0.78053 0.0
C294 C 0.30101 0.84104 0.7804 0.0
C295 C 0.36725 0.87843 0.77942 0.0
C296 C 0.41419 0.82526 0.78437 0.0
H297 H 0.59924 0.90483 0.76632 0.0
H298 H 0.5434 0.90781 0.76948 0.0
H299 H 0.45183 0.80649 0.78826 0.0
H300 H 0.28041 0.78275 0.77919 0.0
H301 H 0.34005 0.78792 0.77729 0.0
H302 H 0.42842 0.89426 0.76142 0.0
C303 C 0.54136 0.88134 0.76859 0.0
C304 C 0.44704 0.82569 0.78226 0.0
C305 C 0.57335 0.87963 0.76681 0.0
C306 C 0.30434 0.8097 0.77936 0.0
C307 C 0.3386 0.81265 0.77835 0.0
C308 C 0.43346 0.87529 0.76747 0.0
C309 C 0.50733 0.84919 0.76979 0.0
C310 C 0.47334 0.85047 0.77254 0.0
C311 C 0.37048 0.84701 0.7783 0.0
C312 C 0.40672 0.84965 0.77684 0.0
H313 H 0.53563 0.78712 0.76633 0.0
H314 H 0.48015 0.7901 0.76919 0.0
H315 H 0.486 0.89501 0.75772 0.0
H316 H 0.3312 0.90014 0.78129 0.0
H317 H 0.39132 0.90529 0.77953 0.0
C318 C 0.49092 0.28808 0.94508 0.0
C319 C 0.45678 0.28582 0.94626 0.0
C320 C 0.52261 0.32177 0.94334 0.0
C321 C 0.56169 0.42134 0.94763 0.0
H322 H 0.63383 0.42505 0.92072 0.0
C323 C 0.69493 0.55572 0.93322 0.0
C324 C 0.72687 0.55329 0.93334 0.0
C325 C 0.66059 0.52414 0.93409 0.0
C326 C 0.61406 0.42444 0.92833 0.0
H327 H 0.42925 0.31738 0.94689 0.0
H328 H 0.48479 0.37643 0.94372 0.0
H329 H 0.57658 0.36824 0.92396 0.0
H330 H 0.74773 0.5158 0.93427 0.0
H331 H 0.68816 0.46105 0.93575 0.0
H332 H 0.59952 0.47772 0.952 0.0
C333 C 0.48699 0.35205 0.94425 0.0
C334 C 0.58126 0.39184 0.93023 0.0
C335 C 0.45516 0.31821 0.94603 0.0
C336 C 0.72371 0.51868 0.93412 0.0
C337 C 0.68951 0.48723 0.93489 0.0
C338 C 0.59457 0.45409 0.9457 0.0
C339 C 0.52105 0.35414 0.94267 0.0
C340 C 0.55491 0.38966 0.94009 0.0
C341 C 0.65754 0.48954 0.93496 0.0
C342 C 0.62137 0.45581 0.9362 0.0
H343 H 0.49323 0.26373 0.94532 0.0
H344 H 0.54844 0.3224 0.94249 0.0
H345 H 0.54209 0.42057 0.95537 0.0
H346 H 0.69645 0.582 0.93265 0.0
H347 H 0.63644 0.52679 0.93402 0.0
C348 C 0.33921 0.23085 0.22947 0.0
C349 C 0.31275 0.1978 0.23572 0.0
C350 C 0.32921 0.24858 0.21915 0.0
C351 C 0.24795 0.25122 0.20548 0.0
H352 H 0.30558 0.29252 0.17071 0.0
C353 C 0.18775 0.27244 0.15346 0.0
C354 C 0.20688 0.30632 0.14641 0.0
C355 C 0.2036 0.26386 0.16491 0.0
C356 C 0.28952 0.28155 0.18047 0.0
H357 H 0.25514 0.15721 0.2358 0.0
H358 H 0.23801 0.18746 0.21777 0.0
H359 H 0.32808 0.26869 0.18984 0.0
H360 H 0.25799 0.35759 0.14573 0.0
H361 H 0.28615 0.34206 0.16572 0.0
H362 H 0.20878 0.26269 0.19587 0.0
C363 C 0.26633 0.20032 0.22104 0.0
C364 C 0.30239 0.26796 0.19143 0.0
C365 C 0.27624 0.18278 0.23134 0.0
C366 C 0.24255 0.3313 0.15097 0.0
C367 C 0.25869 0.32242 0.16235 0.0
C368 C 0.23501 0.26442 0.1945 0.0
C369 C 0.29257 0.23357 0.21488 0.0
C370 C 0.28128 0.2518 0.20391 0.0
C371 C 0.23915 0.28873 0.16951 0.0
C372 C 0.25525 0.27895 0.18176 0.0
H373 H 0.36758 0.24317 0.23262 0.0
H374 H 0.35007 0.27424 0.21467 0.0
H375 H 0.23144 0.2399 0.2151 0.0
H376 H 0.16021 0.25257 0.15027 0.0
H377 H 0.18809 0.23752 0.17013 0.0
C378 C 0.91169 0.23127 0.31931 0.0
C379 C 0.90197 0.19608 0.31439 0.0
C380 C 0.93662 0.24734 0.33072 0.0
C381 C 0.97275 0.22354 0.36232 0.0
H382 H 0.05963 0.31835 0.35809 0.0
C383 C 0.09693 0.26644 0.39855 0.0
C384 C 0.1175 0.30279 0.40326 0.0
C385 C 0.06919 0.2563 0.38837 0.0
C386 C 0.0352 0.29214 0.35956 0.0
H387 H 0.9106 0.15015 0.31768 0.0
H388 H 0.95336 0.17788 0.3376 0.0
H389 H 0.01298 0.29559 0.33908 0.0
H390 H 0.12506 0.35712 0.40083 0.0
H391 H 0.07599 0.33919 0.38308 0.0
H392 H 0.99458 0.2197 0.38268 0.0
C393 C 0.94186 0.19308 0.33264 0.0
C394 C 0.00856 0.27914 0.34867 0.0
C395 C 0.91752 0.17731 0.32115 0.0
C396 C 0.10972 0.32888 0.39744 0.0
C397 C 0.08171 0.31864 0.38723 0.0
C398 C 0.99908 0.2366 0.37323 0.0
C399 C 0.95164 0.22818 0.33756 0.0
C400 C 0.97759 0.24428 0.34979 0.0
C401 C 0.06098 0.28213 0.38265 0.0
C402 C 0.03116 0.27058 0.37181 0.0
H403 H 0.90023 0.24643 0.31429 0.0
H404 H 0.94373 0.27445 0.33434 0.0
H405 H 0.9488 0.19683 0.36357 0.0
H406 H 0.10232 0.24563 0.40268 0.0
H407 H 0.05444 0.22812 0.38485 0.0
C408 C 0.7831 0.10168 0.56299 0.0
C409 C 0.81886 0.11253 0.56747 0.0
C410 C 0.76688 0.07658 0.55163 0.0
C411 C 0.79031 0.04189 0.51946 0.0
H412 H 0.69704 0.95343 0.52427 0.0
C413 C 0.7482 0.9186 0.48273 0.0
C414 C 0.71166 0.89733 0.47835 0.0
C415 C 0.75831 0.9461 0.49303 0.0
C416 C 0.7228 0.97829 0.52264 0.0
H417 H 0.86562 0.10567 0.56349 0.0
H418 H 0.83761 0.0626 0.54368 0.0
H419 H 0.71986 0.99997 0.54333 0.0
H420 H 0.65698 0.88826 0.48149 0.0
H421 H 0.67485 0.93691 0.49945 0.0
H422 H 0.79362 0.02062 0.49889 0.0
C423 C 0.82208 0.07337 0.54893 0.0
C424 C 0.73584 0.00486 0.53357 0.0
C425 C 0.83802 0.09789 0.56035 0.0
C426 C 0.68537 0.90415 0.48463 0.0
C427 C 0.69558 0.93192 0.49495 0.0
C428 C 0.77719 0.01562 0.50853 0.0
C429 C 0.78642 0.0625 0.54442 0.0
C430 C 0.77018 0.03644 0.53222 0.0
C431 C 0.73226 0.95336 0.4992 0.0
C432 C 0.74378 0.98299 0.51014 0.0
H433 H 0.76761 0.11242 0.56828 0.0
H434 H 0.73934 0.06863 0.54834 0.0
H435 H 0.81658 0.06631 0.51804 0.0
H436 H 0.76918 0.91395 0.47825 0.0
H437 H 0.78666 0.96141 0.49628 0.0
C438 C 0.82331 0.73894 0.64369 0.0
C439 C 0.81786 0.70337 0.64318 0.0
C440 C 0.8078 0.7493 0.6547 0.0
C441 C 0.79602 0.77166 0.68413 0.0
H442 H 0.69963 0.70951 0.70013 0.0
C443 C 0.75173 0.81232 0.73608 0.0
C444 C 0.71645 0.80757 0.73649 0.0
C445 C 0.76181 0.79647 0.7251 0.0
C446 C 0.72652 0.72726 0.69571 0.0
H447 H 0.79071 0.65036 0.65358 0.0
H448 H 0.76412 0.66875 0.67309 0.0
H449 H 0.72037 0.68814 0.67953 0.0
H450 H 0.66364 0.78137 0.72592 0.0
H451 H 0.68154 0.75423 0.70647 0.0
H452 H 0.80207 0.81114 0.69992 0.0
C453 C 0.78007 0.68848 0.66482 0.0
C454 C 0.73854 0.71487 0.68401 0.0
C455 C 0.79542 0.67797 0.65368 0.0
C456 C 0.69105 0.78555 0.7259 0.0
C457 C 0.70126 0.76987 0.7148 0.0
C458 C 0.78404 0.78402 0.69574 0.0
C459 C 0.78672 0.72451 0.66561 0.0
C460 C 0.77343 0.73703 0.67806 0.0
C461 C 0.73701 0.77574 0.71413 0.0
C462 C 0.74922 0.76199 0.70172 0.0
H463 H 0.84001 0.75906 0.63565 0.0
H464 H 0.81272 0.77699 0.65474 0.0
H465 H 0.82327 0.78926 0.68001 0.0
H466 H 0.77185 0.82869 0.74418 0.0
H467 H 0.78927 0.80082 0.72514 0.0
C468 C 0.90328 0.7169 0.88908 0.0
C469 C 0.90066 0.6927 0.90001 0.0
C470 C 0.92953 0.72736 0.87823 0.0
C471 C 0.99953 0.70792 0.86226 0.0
H472 H 0.03825 0.80685 0.8484 0.0
C473 C 0.125 0.82703 0.8254 0.0
C474 C 0.12704 0.80534 0.81437 0.0
C475 C 0.09901 0.81141 0.83635 0.0
C476 C 0.02844 0.77937 0.85228 0.0
H477 H 0.92279 0.65977 0.90808 0.0
H478 H 0.97036 0.6797 0.8896 0.0
H479 H 0.99094 0.78335 0.86642 0.0
H480 H 0.10423 0.7503 0.8062 0.0
H481 H 0.05706 0.72295 0.82486 0.0
H482 H 0.03904 0.70505 0.8487 0.0
C483 C 0.95138 0.68975 0.88906 0.0
C484 C 1.00039 0.76545 0.86246 0.0
C485 C 0.92428 0.67843 0.89972 0.0
C486 C 0.10318 0.76752 0.81465 0.0
C487 C 0.0763 0.75191 0.82541 0.0
C488 C 0.02832 0.72221 0.85227 0.0
C489 C 0.95476 0.71488 0.87829 0.0
C490 C 0.98517 0.7294 0.86751 0.0
C491 C 0.07344 0.77379 0.83628 0.0
C492 C 0.04315 0.75818 0.84711 0.0
H493 H 0.88494 0.7278 0.88893 0.0
H494 H 0.93015 0.7456 0.86987 0.0
H495 H 0.9884 0.67993 0.86574 0.0
H496 H 0.14356 0.85623 0.82554 0.0
H497 H 0.09882 0.8291 0.84478 0.0
C498 C 0.24214 0.90474 0.06368 0.0
C499 C 0.20891 0.89794 0.06981 0.0
C500 C 0.25982 0.93239 0.05333 0.0
C501 C 0.26172 0.01568 0.03931 0.0
H502 H 0.30311 0.99895 0.00465 0.0
C503 C 0.28142 0.09531 0.98693 0.0
C504 C 0.31529 0.11028 0.97987 0.0
C505 C 0.27322 0.07122 0.99848 0.0
C506 C 0.29211 0.00414 0.01438 0.0
H507 H 0.16798 0.91455 0.06967 0.0
H508 H 0.19816 0.96179 0.05161 0.0
H509 H 0.27985 0.95312 0.02397 0.0
H510 H 0.36693 0.11116 0.97927 0.0
H511 H 0.35206 0.06807 0.99942 0.0
H512 H 0.27255 0.0659 0.02948 0.0
C513 C 0.21119 0.94655 0.05499 0.0
C514 C 0.27886 0.97798 0.02545 0.0
C515 C 0.19369 0.91918 0.06531 0.0
C516 C 0.34064 0.10014 0.98452 0.0
C517 C 0.33214 0.07546 0.99599 0.0
C518 C 0.27458 0.04152 0.02823 0.0
C519 C 0.24458 0.95373 0.04892 0.0
C520 C 0.26265 0.98306 0.03789 0.0
C521 C 0.29847 0.06112 1.00316 0.0
C522 C 0.28911 0.03564 0.01552 0.0
H523 H 0.2546 0.88888 0.06693 0.0
H524 H 0.28559 0.93733 0.04892 0.0
H525 H 0.25034 0.02096 0.04891 0.0
H526 H 0.26128 0.10256 0.98367 0.0
H527 H 0.24688 0.06022 1.0037 0.0
C528 C 0.20319 0.33192 0.06471 0.0
C529 C 0.16907 0.3088 0.07109 0.0
C530 C 0.21175 0.32418 0.05102 0.0
C531 C 0.18477 0.247 0.02565 0.0
H532 H 0.24988 0.32354 0.99938 0.0
C533 C 0.22526 0.21273 0.97095 0.0
C534 C 0.26297 0.23048 0.96824 0.0
C535 C 0.21124 0.22501 0.98191 0.0
C536 C 0.23172 0.30189 0.00662 0.0
H537 H 0.11663 0.2601 0.06774 0.0
H538 H 0.13119 0.24704 0.04368 0.0
H539 H 0.2291 0.33938 0.02147 0.0
H540 H 0.31525 0.27652 0.97433 0.0
H541 H 0.29068 0.29816 0.99342 0.0
H542 H 0.18751 0.20957 0.01082 0.0
C543 C 0.15173 0.27075 0.04943 0.0
C544 C 0.21987 0.31093 0.01932 0.0
C545 C 0.14326 0.27835 0.06321 0.0
C546 C 0.28607 0.26223 0.97612 0.0
C547 C 0.27198 0.27466 0.98706 0.0
C548 C 0.19634 0.23799 0.01291 0.0
C549 C 0.18632 0.29325 0.04324 0.0
C550 C 0.19664 0.28363 0.02912 0.0
C551 C 0.23455 0.25547 0.99038 0.0
C552 C 0.2203 0.26532 1.00333 0.0
H553 H 0.22383 0.35557 0.07047 0.0
H554 H 0.23883 0.34187 0.04677 0.0
H555 H 0.1675 0.22523 0.03301 0.0
H556 H 0.20662 0.18828 0.96505 0.0
H557 H 0.18221 0.21001 0.98404 0.0
C558 C 0.87219 0.19679 0.23253 0.0
C559 C 0.86447 0.16332 0.23876 0.0
C560 C 0.88889 0.20725 0.21896 0.0
C561 C 0.90926 0.17366 0.1853 0.0
H562 H 0.99191 0.27186 0.18303 0.0
C563 C 0.01669 0.22097 0.13955 0.0
C564 C 0.03541 0.25794 0.13548 0.0
C565 C 0.99101 0.20876 0.15074 0.0
C566 C 0.96845 0.24462 0.1833 0.0
H567 H 0.86713 0.11402 0.23526 0.0
H568 H 0.89627 0.13236 0.21147 0.0
H569 H 0.95638 0.2514 0.20521 0.0
H570 H 0.03987 0.31055 0.13931 0.0
H571 H 0.99416 0.28904 0.15851 0.0
H572 H 0.92136 0.16684 0.16337 0.0
C573 C 0.88929 0.15042 0.21715 0.0
C574 C 0.94815 0.23282 0.19609 0.0
C575 C 0.87274 0.14 0.23081 0.0
C576 C 0.0261 0.28193 0.14223 0.0
C577 C 1.00015 0.26964 0.15336 0.0
C578 C 0.9294 0.18557 0.17243 0.0
C579 C 0.89813 0.18448 0.2112 0.0
C580 C 0.91853 0.19712 0.1973 0.0
C581 C 0.98312 0.23312 0.15809 0.0
C582 C 0.95955 0.22113 0.1713 0.0
H583 H 0.86607 0.21541 0.23827 0.0
H584 H 0.89487 0.23342 0.21459 0.0
H585 H 0.88631 0.14613 0.18585 0.0
H586 H 0.02322 0.20172 0.13461 0.0
H587 H 0.97882 0.18056 0.15411 0.0
C588 C 0.79787 0.00597 0.30579 0.0
C589 C 0.77999 0.02509 0.30176 0.0
C590 C 0.78379 0.97971 0.31676 0.0
C591 C 0.72419 0.95599 0.34897 0.0
H592 H 0.74001 0.87342 0.35117 0.0
C593 C 0.67537 0.8591 0.398 0.0
C594 C 0.70114 0.85133 0.40418 0.0
C595 C 0.68144 0.87567 0.38441 0.0
C596 C 0.73553 0.89646 0.35072 0.0
H597 H 0.73187 0.02967 0.30541 0.0
H598 H 0.70664 0.98298 0.32423 0.0
H599 H 0.75512 0.90934 0.32889 0.0
H600 H 0.75287 0.85364 0.40054 0.0
H601 H 0.76337 0.88257 0.37673 0.0
H602 H 0.70478 0.94323 0.37078 0.0
C603 C 0.73218 0.98908 0.31921 0.0
C604 C 0.74422 0.91711 0.33796 0.0
C605 C 0.74645 0.01561 0.30831 0.0
C606 C 0.73247 0.85927 0.39613 0.0
C607 C 0.73843 0.87571 0.38245 0.0
C608 C 0.71525 0.93521 0.36164 0.0
C609 C 0.75128 0.97163 0.32393 0.0
C610 C 0.73907 0.94745 0.33697 0.0
C611 C 0.71331 0.88476 0.37657 0.0
C612 C 0.72116 0.90544 0.36274 0.0
H613 H 0.82382 0.01262 0.30101 0.0
H614 H 0.79952 0.96721 0.32013 0.0
H615 H 0.72056 0.97956 0.3488 0.0
H616 H 0.65082 0.85321 0.40382 0.0
H617 H 0.6613 0.88179 0.38009 0.0
C618 C 0.88349 0.72444 0.56114 0.0
C619 C 0.85772 0.69511 0.56951 0.0
C620 C 0.87427 0.73139 0.54739 0.0
C621 C 0.80314 0.69131 0.5183 0.0
H622 H 0.83801 0.79285 0.50917 0.0
C623 C 0.73632 0.74119 0.47584 0.0
C624 C 0.75945 0.77226 0.46762 0.0
C625 C 0.75062 0.72856 0.48662 0.0
C626 C 0.82845 0.76436 0.51142 0.0
H627 H 0.80229 0.64945 0.56976 0.0
H628 H 0.78603 0.66205 0.54609 0.0
H629 H 0.85904 0.77732 0.53109 0.0
H630 H 0.81598 0.81298 0.46368 0.0
H631 H 0.84076 0.7909 0.48239 0.0
H632 H 0.77142 0.67856 0.49879 0.0
C633 C 0.81361 0.67937 0.54994 0.0
C634 C 0.8406 0.7554 0.52401 0.0
C635 C 0.82291 0.67225 0.56361 0.0
C636 C 0.79732 0.78908 0.46985 0.0
C637 C 0.81155 0.7766 0.48065 0.0
C638 C 0.79072 0.70029 0.50574 0.0
C639 C 0.83896 0.70937 0.54172 0.0
C640 C 0.82789 0.71875 0.52772 0.0
C641 C 0.78831 0.74686 0.48944 0.0
C642 C 0.80304 0.73693 0.50222 0.0
H643 H 0.91063 0.74244 0.56529 0.0
H644 H 0.89478 0.75431 0.54127 0.0
H645 H 0.79318 0.6628 0.52064 0.0
H646 H 0.70703 0.72761 0.47443 0.0
H647 H 0.73196 0.70565 0.49325 0.0
C648 C 0.15184 0.86387 0.73123 0.0
C649 C 0.16066 0.84026 0.73865 0.0
C650 C 0.13454 0.85406 0.71768 0.0
C651 C 0.07451 0.7727 0.69633 0.0
H652 H 0.10096 0.83939 0.6639 0.0
C653 C 0.9967 0.72463 0.64235 0.0
C654 C 0.98793 0.74884 0.63545 0.0
C655 C 0.02219 0.73667 0.65365 0.0
C656 C 0.09296 0.82048 0.67288 0.0
H657 H 0.15912 0.78827 0.73734 0.0
H658 H 0.12895 0.77129 0.71389 0.0
H659 H 0.13648 0.85949 0.6863 0.0
H660 H 1.00033 0.80512 0.63462 0.0
H661 H 0.04385 0.82586 0.65445 0.0
H662 H 0.03037 0.73407 0.6833 0.0
C663 C 0.13515 0.79724 0.71858 0.0
C664 C 0.1134 0.83204 0.68571 0.0
C665 C 0.15264 0.80711 0.73202 0.0
C666 C 0.00652 0.78572 0.63965 0.0
C667 C 0.03169 0.79768 0.65103 0.0
C668 C 0.0539 0.76127 0.6836 0.0
C669 C 0.12542 0.82031 0.71134 0.0
C670 C 0.10435 0.80826 0.69758 0.0
C671 C 0.03922 0.77315 0.65845 0.0
C672 C 0.06272 0.78498 0.67169 0.0
H673 H 0.15765 0.88962 0.73601 0.0
H674 H 0.12721 0.87234 0.71239 0.0
H675 H 0.06648 0.7539 0.70536 0.0
H676 H 0.98303 0.69607 0.63933 0.0
H677 H 0.02791 0.71714 0.65883 0.0
C678 C 0.34139 0.13962 0.89794 0.0
C679 C 0.31772 0.1499 0.90434 0.0
C680 C 0.33414 0.1237 0.88418 0.0
C681 C 0.25773 0.07302 0.85859 0.0
H682 H 0.33524 0.08698 0.83235 0.0
C683 C 0.22525 0.99862 0.80389 0.0
C684 C 0.2439 0.97951 0.80117 0.0
C685 C 0.23703 0.02504 0.81479 0.0
C686 C 0.31332 0.08278 0.83957 0.0
H687 H 0.26849 0.15269 0.90099 0.0
H688 H 0.25625 0.12567 0.87681 0.0
H689 H 0.35003 0.12298 0.85459 0.0
H690 H 0.29107 0.97508 0.80714 0.0
H691 H 0.31178 0.02146 0.82613 0.0
H692 H 0.22109 0.0327 0.84364 0.0
C693 C 0.28004 0.12916 0.88259 0.0
C694 C 0.32176 0.10332 0.85235 0.0
C695 C 0.28717 0.14488 0.89643 0.0
C696 C 0.27609 0.98929 0.80893 0.0
C697 C 0.28798 0.01591 0.81982 0.0
C698 C 0.2493 0.05276 0.84578 0.0
C699 C 0.30314 0.11784 0.87636 0.0
C700 C 0.2941 0.09832 0.86215 0.0
C701 C 0.26784 0.03316 0.8232 0.0
C702 C 0.27701 0.05704 0.8362 0.0
H703 H 0.36514 0.14295 0.90371 0.0
H704 H 0.35228 0.11489 0.87989 0.0
H705 H 0.23572 0.06783 0.86594 0.0
H706 H 0.20046 0.99195 0.79807 0.0
H707 H 0.2213 0.03833 0.81695 0.0
C708 C 0.67729 0.81035 0.81629 0.0
C709 C 0.70388 0.84383 0.81037 0.0
C710 C 0.68225 0.79921 0.82995 0.0
C711 C 0.73503 0.8307 0.86407 0.0
H712 H 0.71816 0.73192 0.86568 0.0
C713 C 0.79608 0.78115 0.90856 0.0
C714 C 0.77778 0.7441 0.91249 0.0
C715 C 0.78213 0.79388 0.89774 0.0
C716 C 0.72229 0.75931 0.8656 0.0
H717 H 0.75587 0.89253 0.81451 0.0
H718 H 0.76446 0.873 0.8384 0.0
H719 H 0.70341 0.7535 0.84373 0.0
H720 H 0.72904 0.69188 0.90885 0.0
H721 H 0.70407 0.71428 0.89027 0.0
H722 H 0.75419 0.8366 0.88593 0.0
C723 C 0.73972 0.85546 0.83245 0.0
C724 C 0.71394 0.77175 0.85294 0.0
C725 C 0.73486 0.86657 0.81872 0.0
C726 C 0.74394 0.72055 0.90603 0.0
C727 C 0.72982 0.73335 0.89526 0.0
C728 C 0.74314 0.81816 0.8768 0.0
C729 C 0.71381 0.82129 0.83808 0.0
C730 C 0.72063 0.80772 0.85194 0.0
C731 C 0.74934 0.76994 0.89062 0.0
C732 C 0.73736 0.78242 0.87767 0.0
H733 H 0.65297 0.7922 0.81023 0.0
H734 H 0.66152 0.77299 0.83407 0.0
H735 H 0.74008 0.85843 0.8637 0.0
H736 H 0.82225 0.80009 0.91329 0.0
H737 H 0.79818 0.82212 0.89443 0.0
C738 C 0.87501 0.67131 0.98222 0.0
C739 C 0.86445 0.69447 0.97554 0.0
C740 C 0.89153 0.67962 0.99586 0.0
C741 C 0.94274 0.75771 0.02076 0.0
H742 H 0.92981 0.68159 0.0476 0.0
C743 C 0.01641 0.79208 0.0758 0.0
C744 C 0.03591 0.77393 0.07872 0.0
C745 C 0.99053 0.78009 0.06468 0.0
C746 C 0.93372 0.70311 0.0402 0.0
H747 H 0.86192 0.74404 0.97829 0.0
H748 H 0.88993 0.75812 1.0023 0.0
H749 H 0.8933 0.66555 0.02548 0.0
H750 H 0.04183 0.72757 0.0728 0.0
H751 H 0.99625 0.70638 0.05347 0.0
H752 H 0.98316 0.79521 0.0355 0.0
C753 C 0.88621 0.73389 0.99681 0.0
C754 C 0.91291 0.69397 0.02748 0.0
C755 C 0.86991 0.7257 0.98307 0.0
C756 C 0.02729 0.74216 0.07085 0.0
C757 C 1.00113 0.72999 0.05978 0.0
C758 C 0.96325 0.76685 0.03353 0.0
C759 C 0.89769 0.71119 1.00332 0.0
C760 C 0.91754 0.72109 0.01747 0.0
C761 C 0.98328 0.74949 0.05629 0.0
C762 C 0.95934 0.73964 0.0433 0.0
H763 H 0.87141 0.64708 0.97674 0.0
H764 H 0.90049 0.66177 1.00034 0.0
H765 H 0.94764 0.77933 0.01324 0.0
H766 H 0.02224 0.81658 0.08166 0.0
H767 H 0.97682 0.79536 0.0624 0.0
C768 C 0.14265 0.85509 0.1518 0.0
C769 C 0.16858 0.85111 0.14371 0.0
C770 C 0.15133 0.87113 0.16558 0.0
C771 C 0.22081 0.90064 0.19528 0.0
H772 H 0.18701 0.96836 0.20406 0.0
C773 C 0.28733 0.0166 0.23803 0.0
C774 C 0.26422 0.02482 0.24612 0.0
C775 C 0.27311 0.98986 0.22717 0.0
C776 C 0.19625 0.94914 0.2019 0.0
H777 H 0.22374 0.86011 0.14399 0.0
H778 H 0.23908 0.88874 0.1677 0.0
H779 H 0.16655 0.93221 0.182 0.0
H780 H 0.20776 0.00976 0.24974 0.0
H781 H 0.18311 0.96325 0.23088 0.0
H782 H 0.25167 0.91889 0.21501 0.0
C783 C 0.21176 0.87888 0.1636 0.0
C784 C 0.18443 0.92827 0.18923 0.0
C785 C 0.203 0.86261 0.1499 0.0
C786 C 0.22641 0.00428 0.24368 0.0
C787 C 0.21225 0.97777 0.23279 0.0
C788 C 0.23291 0.92181 0.20791 0.0
C789 C 0.18625 0.88385 0.17157 0.0
C790 C 0.1968 0.90398 0.18565 0.0
C791 C 0.23552 0.97097 0.22414 0.0
C792 C 0.22099 0.94652 0.2113 0.0
H793 H 0.1158 0.84632 0.14741 0.0
H794 H 0.13072 0.87384 0.17148 0.0
H795 H 0.23046 0.88178 0.19304 0.0
H796 H 0.31658 0.03193 0.23961 0.0
H797 H 0.29178 0.98537 0.22066 0.0
C798 C 0.3493 0.19565 0.31584 0.0
C799 C 0.32354 0.16199 0.30976 0.0
C800 C 0.34331 0.2064 0.3294 0.0
C801 C 0.28983 0.17377 0.36321 0.0
H802 H 0.3037 0.27146 0.36471 0.0
C803 C 0.22812 0.22127 0.4083 0.0
C804 C 0.24582 0.25836 0.41218 0.0
C805 C 0.24192 0.20904 0.39723 0.0
C806 C 0.30039 0.24439 0.36466 0.0
H807 H 0.27192 0.11256 0.31355 0.0
H808 H 0.26158 0.13138 0.33732 0.0
H809 H 0.31938 0.25054 0.34279 0.0
H810 H 0.2933 0.31125 0.40811 0.0
H811 H 0.31809 0.28975 0.38913 0.0
H812 H 0.27076 0.16757 0.3851 0.0
C813 C 0.28644 0.14939 0.33153 0.0
C814 C 0.30925 0.23233 0.35202 0.0
C815 C 0.29232 0.13869 0.31788 0.0
C816 C 0.27886 0.28254 0.40533 0.0
C817 C 0.29288 0.27023 0.39433 0.0
C818 C 0.28125 0.18596 0.37594 0.0
C819 C 0.31154 0.18371 0.3373 0.0
C820 C 0.30374 0.19678 0.35109 0.0
C821 C 0.27399 0.23351 0.38982 0.0
C822 C 0.286 0.22133 0.37678 0.0
H823 H 0.37377 0.21426 0.30997 0.0
H824 H 0.36341 0.23278 0.33364 0.0
H825 H 0.28566 0.14636 0.36288 0.0
H826 H 0.20254 0.20188 0.41331 0.0
H827 H 0.22634 0.18068 0.39402 0.0
C828 C 0.1544 0.33353 0.48338 0.0
C829 C 0.16541 0.31029 0.47709 0.0
C830 C 0.13829 0.32612 0.4971 0.0
C831 C 0.08821 0.24933 0.52257 0.0
H832 H 0.09888 0.32611 0.54858 0.0
C833 C 0.01204 0.2154 0.5769 0.0
C834 C 0.99199 0.23317 0.57942 0.0
C835 C 0.03867 0.22766 0.56608 0.0
C836 C 0.09561 0.3044 0.54141 0.0
H837 H 0.16948 0.26181 0.48065 0.0
H838 H 0.14219 0.24935 0.50476 0.0
H839 H 0.1359 0.34177 0.52661 0.0
H840 H 0.98593 0.27923 0.57314 0.0
H841 H 0.03268 0.30079 0.55428 0.0
H842 H 0.04782 0.21203 0.53733 0.0
C843 C 0.1452 0.27288 0.49891 0.0
C844 C 0.11672 0.31333 0.52879 0.0
C845 C 0.16109 0.28015 0.48511 0.0
C846 C 1.00088 0.26493 0.57149 0.0
C847 C 0.02772 0.27731 0.56069 0.0
C848 C 0.06738 0.24042 0.53524 0.0
C849 C 0.13296 0.29541 0.50499 0.0
C850 C 0.11292 0.28593 0.51908 0.0
C851 C 0.04606 0.2581 0.55756 0.0
C852 C 0.07047 0.26785 0.54472 0.0
H853 H 0.15718 0.35696 0.47752 0.0
H854 H 0.1288 0.34384 0.50126 0.0
H855 H 0.0839 0.22749 0.51528 0.0
H856 H 0.00607 0.19097 0.58284 0.0
H857 H 0.05277 0.21263 0.5641 0.0
C858 C 0.7406 0.98582 0.7376 0.0
C859 C 0.76427 0.97826 0.74564 0.0
C860 C 0.75413 0.01203 0.72655 0.0
C861 C 0.82977 0.0525 0.70073 0.0
H862 H 0.79498 0.11957 0.69227 0.0
C863 C 0.88198 0.14703 0.65072 0.0
C864 C 0.85598 0.15138 0.64285 0.0
C865 C 0.8735 0.13056 0.66442 0.0
C866 C 0.80477 0.10077 0.69438 0.0
H867 H 0.82099 0.99381 0.74888 0.0
H868 H 0.84443 0.03935 0.72965 0.0
H869 H 0.77468 0.08264 0.71428 0.0
H870 H 0.80084 0.14238 0.64339 0.0
H871 H 0.78583 0.11296 0.66696 0.0
H872 H 0.85874 0.06933 0.68067 0.0
C873 C 0.81539 0.02477 0.73179 0.0
C874 C 0.79319 0.07971 0.70704 0.0
C875 C 0.80193 0.99881 0.74288 0.0
C876 C 0.82163 0.13964 0.64915 0.0
C877 C 0.81307 0.12291 0.66277 0.0
C878 C 0.84107 0.07325 0.68802 0.0
C879 C 0.79157 0.03101 0.72325 0.0
C880 C 0.80538 0.05515 0.7103 0.0
C881 C 0.83871 0.11773 0.67054 0.0
C882 C 0.82849 0.09747 0.68459 0.0
H883 H 0.71145 0.97046 0.73943 0.0
H884 H 0.73505 0.01609 0.72013 0.0
H885 H 0.83921 0.03339 0.7028 0.0
H886 H 0.90878 0.15597 0.64625 0.0
H887 H 0.89422 0.12768 0.67017 0.0
loop_
_geom_bond_atom_site_label_1
_geom_bond_atom_site_label_2
_geom_bond_distance
_geom_bond_site_symmetry_2
_ccdc_geom_bond_type
O0 Cd1 2.223 . S
O0 C8 1.315 . S
Cd1 O0 2.223 . S
Cd1 O4 2.297 . S
Cd1 O5 2.439 . S
Cd1 O11 2.240 . S
Cd2 O3 2.240 . S
Cd2 O10 2.223 . S
Cd2 O12 2.297 . S
Cd2 O13 2.439 . S
O3 Cd2 2.240 . S
O3 C8 1.279 . S
O4 Cd1 2.297 . S
O4 C6 1.247 . S
O5 Cd1 2.439 . S
O5 C6 1.208 . S
C6 O4 1.247 . S
C6 O5 1.208 . S
C7 O12 1.247 . S
C7 O13 1.208 . S
C8 O0 1.315 . S
C8 O3 1.279 . S
C9 O10 1.315 . S
C9 O11 1.279 . S
O10 Cd2 2.223 . S
O10 C9 1.315 . S
O11 Cd1 2.240 . S
O11 C9 1.279 . S
O12 Cd2 2.297 . S
O12 C7 1.247 . S
O13 Cd2 2.439 . S
O13 C7 1.208 . S
O14 Cd15 2.223 . S
O14 C22 1.315 . S
Cd15 O14 2.223 . S
Cd15 O18 2.297 . S
Cd15 O19 2.439 . S
Cd15 O25 2.240 . S
Cd16 O17 2.240 . S
Cd16 O24 2.223 . S
Cd16 O26 2.297 . S
Cd16 O27 2.439 . S
O17 Cd16 2.240 . S
O17 C22 1.279 . S
O18 Cd15 2.297 . S
O18 C20 1.247 . S
O19 Cd15 2.439 . S
O19 C20 1.208 . S
C20 O18 1.247 . S
C20 O19 1.208 . S
C21 O26 1.247 . S
C21 O27 1.208 . S
C22 O14 1.315 . S
C22 O17 1.279 . S
C23 O24 1.315 . S
C23 O25 1.279 . S
O24 Cd16 2.223 . S
O24 C23 1.315 . S
O25 Cd15 2.240 . S
O25 C23 1.279 . S
O26 Cd16 2.297 . S
O26 C21 1.247 . S
O27 Cd16 2.439 . S
O27 C21 1.208 . S
O28 Cd29 2.223 . S
O28 C36 1.315 . S
Cd29 O28 2.223 . S
Cd29 O32 2.297 . S
Cd29 O33 2.439 . S
Cd29 O39 2.240 . S
Cd30 O31 2.240 . S
Cd30 O38 2.223 . S
Cd30 O40 2.297 . S
Cd30 O41 2.439 . S
O31 Cd30 2.240 . S
O31 C36 1.279 . S
O32 Cd29 2.297 . S
O32 C34 1.247 . S
O33 Cd29 2.439 . S
O33 C34 1.208 . S
C34 O32 1.247 . S
C34 O33 1.208 . S
C35 O40 1.247 . S
C35 O41 1.208 . S
C36 O28 1.315 . S
C36 O31 1.279 . S
C37 O38 1.315 . S
C37 O39 1.279 . S
O38 Cd30 2.223 . S
O38 C37 1.315 . S
O39 Cd29 2.240 . S
O39 C37 1.279 . S
O40 Cd30 2.297 . S
O40 C35 1.247 . S
O41 Cd30 2.439 . S
O41 C35 1.208 . S
O42 Cd43 2.223 . S
O42 C50 1.315 . S
Cd43 O42 2.223 . S
Cd43 O46 2.297 . S
Cd43 O47 2.439 . S
Cd43 O53 2.240 . S
Cd44 O45 2.240 . S
Cd44 O52 2.223 . S
Cd44 O54 2.297 . S
Cd44 O55 2.439 . S
O45 Cd44 2.240 . S
O45 C50 1.279 . S
O46 Cd43 2.297 . S
O46 C48 1.247 . S
O47 Cd43 2.439 . S
O47 C48 1.208 . S
C48 O46 1.247 . S
C48 O47 1.208 . S
C49 O54 1.247 . S
C49 O55 1.208 . S
C50 O42 1.315 . S
C50 O45 1.279 . S
C51 O52 1.315 . S
C51 O53 1.279 . S
O52 Cd44 2.223 . S
O52 C51 1.315 . S
O53 Cd43 2.240 . S
O53 C51 1.279 . S
O54 Cd44 2.297 . S
O54 C49 1.247 . S
O55 Cd44 2.439 . S
O55 C49 1.208 . S
O56 Cd57 2.223 . S
O56 C64 1.315 . S
Cd57 O56 2.223 . S
Cd57 O60 2.297 . S
Cd57 O61 2.439 . S
Cd57 O67 2.240 . S
Cd58 O59 2.240 . S
Cd58 O66 2.223 . S
Cd58 O68 2.297 . S
Cd58 O69 2.439 . S
O59 Cd58 2.240 . S
O59 C64 1.279 . S
O60 Cd57 2.297 . S
O60 C62 1.247 . S
O61 Cd57 2.439 . S
O61 C62 1.208 . S
C62 O60 1.247 . S
C62 O61 1.208 . S
C63 O68 1.247 . S
C63 O69 1.208 . S
C64 O56 1.315 . S
C64 O59 1.279 . S
C65 O66 1.315 . S
C65 O67 1.279 . S
O66 Cd58 2.223 . S
O66 C65 1.315 . S
O67 Cd57 2.240 . S
O67 C65 1.279 . S
O68 Cd58 2.297 . S
O68 C63 1.247 . S
O69 Cd58 2.439 . S
O69 C63 1.208 . S
O70 Cd71 2.223 . S
O70 C78 1.315 . S
Cd71 O70 2.223 . S
Cd71 O74 2.297 . S
Cd71 O75 2.439 . S
Cd71 O81 2.240 . S
Cd72 O73 2.240 . S
Cd72 O80 2.223 . S
Cd72 O82 2.297 1_556 S
Cd72 O83 2.439 . S
O73 Cd72 2.240 . S
O73 C78 1.279 . S
O74 Cd71 2.297 . S
O74 C76 1.247 . S
O75 Cd71 2.439 . S
O75 C76 1.208 . S
C76 O74 1.247 . S
C76 O75 1.208 . S
C77 O82 1.247 . S
C77 O83 1.208 1_554 S
C78 O70 1.315 . S
C78 O73 1.279 . S
C79 O80 1.315 . S
C79 O81 1.279 . S
O80 Cd72 2.223 . S
O80 C79 1.315 . S
O81 Cd71 2.240 . S
O81 C79 1.279 . S
O82 Cd72 2.297 1_554 S
O82 C77 1.247 . S
O83 Cd72 2.439 . S
O83 C77 1.208 1_556 S
O84 Cd85 2.223 . S
O84 C92 1.315 . S
Cd85 O84 2.223 . S
Cd85 O88 2.297 . S
Cd85 O89 2.439 . S
Cd85 O95 2.240 . S
Cd86 O87 2.240 . S
Cd86 O94 2.223 . S
Cd86 O96 2.297 . S
Cd86 O97 2.439 . S
O87 Cd86 2.240 . S
O87 C92 1.279 . S
O88 Cd85 2.297 . S
O88 C90 1.247 . S
O89 Cd85 2.439 . S
O89 C90 1.208 . S
C90 O88 1.247 . S
C90 O89 1.208 . S
C91 O96 1.247 . S
C91 O97 1.208 . S
C92 O84 1.315 . S
C92 O87 1.279 . S
C93 O94 1.315 . S
C93 O95 1.279 . S
O94 Cd86 2.223 . S
O94 C93 1.315 . S
O95 Cd85 2.240 . S
O95 C93 1.279 . S
O96 Cd86 2.297 . S
O96 C91 1.247 . S
O97 Cd86 2.439 . S
O97 C91 1.208 . S
O98 Cd99 2.223 . S
O98 C106 1.315 . S
Cd99 O98 2.223 . S
Cd99 O102 2.297 . S
Cd99 O103 2.439 . S
Cd99 O109 2.240 . S
Cd100 O101 2.240 . S
Cd100 O108 2.223 . S
Cd100 O110 2.297 . S
Cd100 O111 2.439 . S
O101 Cd100 2.240 . S
O101 C106 1.279 . S
O102 Cd99 2.297 . S
O102 C104 1.247 . S
O103 Cd99 2.439 . S
O103 C104 1.208 . S
C104 O102 1.247 . S
C104 O103 1.208 . S
C105 O110 1.247 . S
C105 O111 1.208 . S
C106 O98 1.315 . S
C106 O101 1.279 . S
C107 O108 1.315 . S
C107 O109 1.279 . S
O108 Cd100 2.223 . S
O108 C107 1.315 . S
O109 Cd99 2.240 . S
O109 C107 1.279 . S
O110 Cd100 2.297 . S
O110 C105 1.247 . S
O111 Cd100 2.439 . S
O111 C105 1.208 . S
O112 Cd113 2.223 . S
O112 C120 1.315 . S
Cd113 O112 2.223 . S
Cd113 O116 2.297 . S
Cd113 O117 2.439 . S
Cd113 O123 2.240 . S
Cd114 O115 2.240 . S
Cd114 O122 2.223 . S
Cd114 O124 2.297 . S
Cd114 O125 2.439 . S
O115 Cd114 2.240 . S
O115 C120 1.279 . S
O116 Cd113 2.297 . S
O116 C118 1.247 . S
O117 Cd113 2.439 . S
O117 C118 1.208 . S
C118 O116 1.247 . S
C118 O117 1.208 . S
C119 O124 1.247 . S
C119 O125 1.208 . S
C120 O112 1.315 . S
C120 O115 1.279 . S
C121 O122 1.315 . S
C121 O123 1.279 . S
O122 Cd114 2.223 . S
O122 C121 1.315 . S
O123 Cd113 2.240 . S
O123 C121 1.279 . S
O124 Cd114 2.297 . S
O124 C119 1.247 . S
O125 Cd114 2.439 . S
O125 C119 1.208 . S
O126 Cd127 2.223 . S
O126 C134 1.315 . S
Cd127 O126 2.223 . S
Cd127 O130 2.297 . S
Cd127 O131 2.439 . S
Cd127 O137 2.240 . S
Cd128 O129 2.240 . S
Cd128 O136 2.223 . S
Cd128 O138 2.297 . S
Cd128 O139 2.439 . S
O129 Cd128 2.240 . S
O129 C134 1.279 . S
O130 Cd127 2.297 . S
O130 C132 1.247 . S
O131 Cd127 2.439 . S
O131 C132 1.208 . S
C132 O130 1.247 . S
C132 O131 1.208 . S
C133 O138 1.247 . S
C133 O139 1.208 . S
C134 O126 1.315 . S
C134 O129 1.279 . S
C135 O136 1.315 . S
C135 O137 1.279 . S
O136 Cd128 2.223 . S
O136 C135 1.315 . S
O137 Cd127 2.240 . S
O137 C135 1.279 . S
O138 Cd128 2.297 . S
O138 C133 1.247 . S
O139 Cd128 2.439 . S
O139 C133 1.208 . S
O140 Cd141 2.223 . S
O140 C148 1.315 . S
Cd141 O140 2.223 . S
Cd141 O144 2.297 . S
Cd141 O145 2.439 . S
Cd141 O151 2.240 . S
Cd142 O143 2.240 . S
Cd142 O150 2.223 . S
Cd142 O152 2.297 . S
Cd142 O153 2.439 . S
O143 Cd142 2.240 . S
O143 C148 1.279 . S
O144 Cd141 2.297 . S
O144 C146 1.247 . S
O145 Cd141 2.439 . S
O145 C146 1.208 . S
C146 O144 1.247 . S
C146 O145 1.208 . S
C147 O152 1.247 . S
C147 O153 1.208 . S
C148 O140 1.315 . S
C148 O143 1.279 . S
C149 O150 1.315 . S
C149 O151 1.279 . S
O150 Cd142 2.223 . S
O150 C149 1.315 . S
O151 Cd141 2.240 . S
O151 C149 1.279 . S
O152 Cd142 2.297 . S
O152 C147 1.247 . S
O153 Cd142 2.439 . S
O153 C147 1.208 . S
O154 Cd155 2.223 . S
O154 C162 1.315 . S
Cd155 O154 2.223 . S
Cd155 O158 2.297 . S
Cd155 O159 2.439 . S
Cd155 O165 2.240 . S
Cd156 O157 2.240 . S
Cd156 O164 2.223 . S
Cd156 O166 2.297 . S
Cd156 O167 2.439 . S
O157 Cd156 2.240 . S
O157 C162 1.279 . S
O158 Cd155 2.297 . S
O158 C160 1.247 . S
O159 Cd155 2.439 . S
O159 C160 1.208 . S
C160 O158 1.247 . S
C160 O159 1.208 . S
C161 O166 1.247 . S
C161 O167 1.208 . S
C162 O154 1.315 . S
C162 O157 1.279 . S
C163 O164 1.315 . S
C163 O165 1.279 . S
O164 Cd156 2.223 . S
O164 C163 1.315 . S
O165 Cd155 2.240 . S
O165 C163 1.279 . S
O166 Cd156 2.297 . S
O166 C161 1.247 . S
O167 Cd156 2.439 . S
O167 C161 1.208 . S
C168 C169 1.349 . S
C168 C170 1.327 . S
C168 H193 0.950 . S
C169 C168 1.349 . S
C169 C185 1.349 . S
C170 C168 1.327 . S
C170 C189 1.429 . S
C170 H194 0.950 . S
C171 C188 1.574 . S
C171 C190 1.368 . S
C171 H195 0.949 . S
H172 C176 0.949 . S
C173 C174 1.349 . S
C173 C175 1.327 . S
C173 H196 0.950 . S
C174 C173 1.349 . S
C174 C186 1.349 . S
C175 C173 1.327 . S
C175 C191 1.429 . S
C175 H197 0.950 . S
C176 H172 0.949 . S
C176 C184 1.574 . S
C176 C192 1.368 . S
H177 C185 0.950 . S
H178 C183 0.950 . S
H179 C184 0.949 . S
H180 C186 0.950 . S
H181 C187 0.950 . S
H182 C188 0.949 . S
C183 H178 0.950 . S
C183 C185 1.327 . S
C183 C189 1.429 . S
C184 C176 1.574 . S
C184 H179 0.949 . S
C184 C190 1.368 . S
C185 C169 1.349 . S
C185 H177 0.950 . S
C185 C183 1.327 . S
C186 C174 1.349 . S
C186 H180 0.950 . S
C186 C187 1.327 . S
C187 H181 0.950 . S
C187 C186 1.327 . S
C187 C191 1.429 . S
C188 C171 1.574 . S
C188 H182 0.949 . S
C188 C192 1.368 . S
C189 C170 1.429 . S
C189 C183 1.429 . S
C189 C190 1.523 . S
C190 C171 1.368 . S
C190 C184 1.368 . S
C190 C189 1.523 . S
C191 C175 1.429 . S
C191 C187 1.429 . S
C191 C192 1.523 . S
C192 C176 1.368 . S
C192 C188 1.368 . S
C192 C191 1.523 . S
H193 C168 0.950 . S
H194 C170 0.950 . S
H195 C171 0.949 . S
H196 C173 0.950 . S
H197 C175 0.950 . S
C198 C199 1.349 . S
C198 C200 1.327 . S
C198 H223 0.950 . S
C199 C198 1.349 . S
C199 C215 1.349 . S
C200 C198 1.327 . S
C200 C219 1.429 . S
C200 H224 0.950 . S
C201 C218 1.574 . S
C201 C220 1.368 . S
C201 H225 0.949 . S
H202 C206 0.949 . S
C203 C204 1.349 . S
C203 C205 1.327 . S
C203 H226 0.950 . S
C204 C203 1.349 . S
C204 C216 1.349 . S
C205 C203 1.327 . S
C205 C221 1.429 . S
C205 H227 0.950 . S
C206 H202 0.949 . S
C206 C214 1.574 . S
C206 C222 1.368 . S
H207 C215 0.950 . S
H208 C213 0.950 . S
H209 C214 0.949 . S
H210 C216 0.950 . S
H211 C217 0.950 . S
H212 C218 0.949 . S
C213 H208 0.950 . S
C213 C215 1.327 . S
C213 C219 1.429 . S
C214 C206 1.574 . S
C214 H209 0.949 . S
C214 C220 1.368 . S
C215 C199 1.349 . S
C215 H207 0.950 . S
C215 C213 1.327 . S
C216 C204 1.349 . S
C216 H210 0.950 . S
C216 C217 1.327 . S
C217 H211 0.950 . S
C217 C216 1.327 . S
C217 C221 1.429 . S
C218 C201 1.574 . S
C218 H212 0.949 . S
C218 C222 1.368 . S
C219 C200 1.429 . S
C219 C213 1.429 . S
C219 C220 1.523 . S
C220 C201 1.368 . S
C220 C214 1.368 . S
C220 C219 1.523 . S
C221 C205 1.429 . S
C221 C217 1.429 . S
C221 C222 1.523 . S
C222 C206 1.368 . S
C222 C218 1.368 . S
C222 C221 1.523 . S
H223 C198 0.950 . S
H224 C200 0.950 . S
H225 C201 0.949 . S
H226 C203 0.950 . S
H227 C205 0.950 . S
C228 C229 1.349 . S
C228 C230 1.327 . S
C228 H253 0.950 . S
C229 C228 1.349 . S
C229 C245 1.349 . S
C230 C228 1.327 . S
C230 C249 1.429 . S
C230 H254 0.950 . S
C231 C248 1.574 . S
C231 C250 1.368 . S
C231 H255 0.949 . S
H232 C236 0.949 . S
C233 C234 1.349 . S
C233 C235 1.327 . S
C233 H256 0.950 . S
C234 C233 1.349 . S
C234 C246 1.349 . S
C235 C233 1.327 . S
C235 C251 1.429 . S
C235 H257 0.950 . S
C236 H232 0.949 . S
C236 C244 1.574 . S
C236 C252 1.368 . S
H237 C245 0.950 . S
H238 C243 0.950 . S
H239 C244 0.949 . S
H240 C246 0.950 . S
H241 C247 0.950 . S
H242 C248 0.949 . S
C243 H238 0.950 . S
C243 C245 1.327 . S
C243 C249 1.429 . S
C244 C236 1.574 . S
C244 H239 0.949 . S
C244 C250 1.368 . S
C245 C229 1.349 . S
C245 H237 0.950 . S
C245 C243 1.327 . S
C246 C234 1.349 . S
C246 H240 0.950 . S
C246 C247 1.327 . S
C247 H241 0.950 . S
C247 C246 1.327 . S
C247 C251 1.429 . S
C248 C231 1.574 . S
C248 H242 0.949 . S
C248 C252 1.368 . S
C249 C230 1.429 . S
C249 C243 1.429 . S
C249 C250 1.523 . S
C250 C231 1.368 . S
C250 C244 1.368 . S
C250 C249 1.523 . S
C251 C235 1.429 . S
C251 C247 1.429 . S
C251 C252 1.523 . S
C252 C236 1.368 . S
C252 C248 1.368 . S
C252 C251 1.523 . S
H253 C228 0.950 . S
H254 C230 0.950 . S
H255 C231 0.949 . S
H256 C233 0.950 . S
H257 C235 0.950 . S
C258 C259 1.349 . S
C258 C260 1.327 . S
C258 H283 0.950 . S
C259 C258 1.349 . S
C259 C275 1.349 . S
C260 C258 1.327 . S
C260 C279 1.429 . S
C260 H284 0.950 . S
C261 C278 1.574 . S
C261 C280 1.368 . S
C261 H285 0.949 . S
H262 C266 0.949 . S
C263 C264 1.349 . S
C263 C265 1.327 . S
C263 H286 0.950 . S
C264 C263 1.349 . S
C264 C276 1.349 . S
C265 C263 1.327 . S
C265 C281 1.429 . S
C265 H287 0.950 . S
C266 H262 0.949 . S
C266 C274 1.574 . S
C266 C282 1.368 . S
H267 C275 0.950 . S
H268 C273 0.950 . S
H269 C274 0.949 . S
H270 C276 0.950 . S
H271 C277 0.950 . S
H272 C278 0.949 . S
C273 H268 0.950 . S
C273 C275 1.327 . S
C273 C279 1.429 . S
C274 C266 1.574 . S
C274 H269 0.949 . S
C274 C280 1.368 . S
C275 C259 1.349 . S
C275 H267 0.950 . S
C275 C273 1.327 . S
C276 C264 1.349 . S
C276 H270 0.950 . S
C276 C277 1.327 . S
C277 H271 0.950 . S
C277 C276 1.327 . S
C277 C281 1.429 . S
C278 C261 1.574 . S
C278 H272 0.949 . S
C278 C282 1.368 . S
C279 C260 1.429 . S
C279 C273 1.429 . S
C279 C280 1.523 . S
C280 C261 1.368 . S
C280 C274 1.368 . S
C280 C279 1.523 . S
C281 C265 1.429 . S
C281 C277 1.429 . S
C281 C282 1.523 . S
C282 C266 1.368 . S
C282 C278 1.368 . S
C282 C281 1.523 . S
H283 C258 0.950 . S
H284 C260 0.950 . S
H285 C261 0.949 . S
H286 C263 0.950 . S
H287 C265 0.950 . S
C288 C289 1.349 . S
C288 C290 1.327 . S
C288 H313 0.950 . S
C289 C288 1.349 . S
C289 C305 1.349 . S
C290 C288 1.327 . S
C290 C309 1.429 . S
C290 H314 0.950 . S
C291 C308 1.574 . S
C291 C310 1.368 . S
C291 H315 0.949 . S
H292 C296 0.949 . S
C293 C294 1.349 . S
C293 C295 1.327 . S
C293 H316 0.950 . S
C294 C293 1.349 . S
C294 C306 1.349 . S
C295 C293 1.327 . S
C295 C311 1.429 . S
C295 H317 0.950 . S
C296 H292 0.949 . S
C296 C304 1.574 . S
C296 C312 1.368 . S
H297 C305 0.950 . S
H298 C303 0.950 . S
H299 C304 0.949 . S
H300 C306 0.950 . S
H301 C307 0.950 . S
H302 C308 0.949 . S
C303 H298 0.950 . S
C303 C305 1.327 . S
C303 C309 1.429 . S
C304 C296 1.574 . S
C304 H299 0.949 . S
C304 C310 1.368 . S
C305 C289 1.349 . S
C305 H297 0.950 . S
C305 C303 1.327 . S
C306 C294 1.349 . S
C306 H300 0.950 . S
C306 C307 1.327 . S
C307 H301 0.950 . S
C307 C306 1.327 . S
C307 C311 1.429 . S
C308 C291 1.574 . S
C308 H302 0.949 . S
C308 C312 1.368 . S
C309 C290 1.429 . S
C309 C303 1.429 . S
C309 C310 1.523 . S
C310 C291 1.368 . S
C310 C304 1.368 . S
C310 C309 1.523 . S
C311 C295 1.429 . S
C311 C307 1.429 . S
C311 C312 1.523 . S
C312 C296 1.368 . S
C312 C308 1.368 . S
C312 C311 1.523 . S
H313 C288 0.950 . S
H314 C290 0.950 . S
H315 C291 0.949 . S
H316 C293 0.950 . S
H317 C295 0.950 . S
C318 C319 1.349 . S
C318 C320 1.327 . S
C318 H343 0.950 . S
C319 C318 1.349 . S
C319 C335 1.349 . S
C320 C318 1.327 . S
C320 C339 1.429 . S
C320 H344 0.950 . S
C321 C338 1.574 . S
C321 C340 1.368 . S
C321 H345 0.949 . S
H322 C326 0.949 . S
C323 C324 1.349 . S
C323 C325 1.327 . S
C323 H346 0.950 . S
C324 C323 1.349 . S
C324 C336 1.349 . S
C325 C323 1.327 . S
C325 C341 1.429 . S
C325 H347 0.950 . S
C326 H322 0.949 . S
C326 C334 1.574 . S
C326 C342 1.368 . S
H327 C335 0.950 . S
H328 C333 0.950 . S
H329 C334 0.949 . S
H330 C336 0.950 . S
H331 C337 0.950 . S
H332 C338 0.949 . S
C333 H328 0.950 . S
C333 C335 1.327 . S
C333 C339 1.429 . S
C334 C326 1.574 . S
C334 H329 0.949 . S
C334 C340 1.368 . S
C335 C319 1.349 . S
C335 H327 0.950 . S
C335 C333 1.327 . S
C336 C324 1.349 . S
C336 H330 0.950 . S
C336 C337 1.327 . S
C337 H331 0.950 . S
C337 C336 1.327 . S
C337 C341 1.429 . S
C338 C321 1.574 . S
C338 H332 0.949 . S
C338 C342 1.368 . S
C339 C320 1.429 . S
C339 C333 1.429 . S
C339 C340 1.523 . S
C340 C321 1.368 . S
C340 C334 1.368 . S
C340 C339 1.523 . S
C341 C325 1.429 . S
C341 C337 1.429 . S
C341 C342 1.523 . S
C342 C326 1.368 . S
C342 C338 1.368 . S
C342 C341 1.523 . S
H343 C318 0.950 . S
H344 C320 0.950 . S
H345 C321 0.949 . S
H346 C323 0.950 . S
H347 C325 0.950 . S
C348 C349 1.349 . S
C348 C350 1.327 . S
C348 H373 0.950 . S
C349 C348 1.349 . S
C349 C365 1.349 . S
C350 C348 1.327 . S
C350 C369 1.429 . S
C350 H374 0.950 . S
C351 C368 1.574 . S
C351 C370 1.368 . S
C351 H375 0.949 . S
H352 C356 0.949 . S
C353 C354 1.349 . S
C353 C355 1.327 . S
C353 H376 0.950 . S
C354 C353 1.349 . S
C354 C366 1.349 . S
C355 C353 1.327 . S
C355 C371 1.429 . S
C355 H377 0.950 . S
C356 H352 0.949 . S
C356 C364 1.574 . S
C356 C372 1.368 . S
H357 C365 0.950 . S
H358 C363 0.950 . S
H359 C364 0.949 . S
H360 C366 0.950 . S
H361 C367 0.950 . S
H362 C368 0.949 . S
C363 H358 0.950 . S
C363 C365 1.327 . S
C363 C369 1.429 . S
C364 C356 1.574 . S
C364 H359 0.949 . S
C364 C370 1.368 . S
C365 C349 1.349 . S
C365 H357 0.950 . S
C365 C363 1.327 . S
C366 C354 1.349 . S
C366 H360 0.950 . S
C366 C367 1.327 . S
C367 H361 0.950 . S
C367 C366 1.327 . S
C367 C371 1.429 . S
C368 C351 1.574 . S
C368 H362 0.949 . S
C368 C372 1.368 . S
C369 C350 1.429 . S
C369 C363 1.429 . S
C369 C370 1.523 . S
C370 C351 1.368 . S
C370 C364 1.368 . S
C370 C369 1.523 . S
C371 C355 1.429 . S
C371 C367 1.429 . S
C371 C372 1.523 . S
C372 C356 1.368 . S
C372 C368 1.368 . S
C372 C371 1.523 . S
H373 C348 0.950 . S
H374 C350 0.950 . S
H375 C351 0.949 . S
H376 C353 0.950 . S
H377 C355 0.950 . S
C378 C379 1.349 . S
C378 C380 1.327 . S
C378 H403 0.950 . S
C379 C378 1.349 . S
C379 C395 1.349 . S
C380 C378 1.327 . S
C380 C399 1.429 . S
C380 H404 0.950 . S
C381 C398 1.573 1_655 S
C381 C400 1.369 . S
C381 H405 0.949 . S
H382 C386 0.949 . S
C383 C384 1.349 . S
C383 C385 1.327 . S
C383 H406 0.950 . S
C384 C383 1.349 . S
C384 C396 1.349 . S
C385 C383 1.327 . S
C385 C401 1.429 . S
C385 H407 0.950 . S
C386 H382 0.949 . S
C386 C394 1.574 1_455 S
C386 C402 1.368 . S
H387 C395 0.950 . S
H388 C393 0.950 . S
H389 C394 0.949 . S
H390 C396 0.950 . S
H391 C397 0.950 . S
H392 C398 0.949 . S
C393 H388 0.950 . S
C393 C395 1.327 . S
C393 C399 1.429 . S
C394 C386 1.574 1_655 S
C394 H389 0.949 . S
C394 C400 1.368 . S
C395 C379 1.349 . S
C395 H387 0.950 . S
C395 C393 1.327 . S
C396 C384 1.349 . S
C396 H390 0.950 . S
C396 C397 1.327 . S
C397 H391 0.950 . S
C397 C396 1.327 . S
C397 C401 1.429 . S
C398 C381 1.573 1_455 S
C398 H392 0.949 . S
C398 C402 1.368 . S
C399 C380 1.429 . S
C399 C393 1.429 . S
C399 C400 1.523 . S
C400 C381 1.369 . S
C400 C394 1.368 . S
C400 C399 1.523 . S
C401 C385 1.429 . S
C401 C397 1.429 . S
C401 C402 1.523 . S
C402 C386 1.368 . S
C402 C398 1.368 . S
C402 C401 1.523 . S
H403 C378 0.950 . S
H404 C380 0.950 . S
H405 C381 0.949 . S
H406 C383 0.950 . S
H407 C385 0.950 . S
C408 C409 1.349 . S
C408 C410 1.327 . S
C408 H433 0.950 . S
C409 C408 1.349 . S
C409 C425 1.349 . S
C410 C408 1.327 . S
C410 C429 1.429 . S
C410 H434 0.950 . S
C411 C428 1.574 1_545 S
C411 C430 1.368 . S
C411 H435 0.949 . S
H412 C416 0.949 . S
C413 C414 1.349 . S
C413 C415 1.327 . S
C413 H436 0.950 . S
C414 C413 1.349 . S
C414 C426 1.349 . S
C415 C413 1.327 . S
C415 C431 1.429 . S
C415 H437 0.950 . S
C416 H412 0.949 . S
C416 C424 1.574 1_565 S
C416 C432 1.368 . S
H417 C425 0.950 . S
H418 C423 0.950 . S
H419 C424 0.949 . S
H420 C426 0.950 . S
H421 C427 0.950 . S
H422 C428 0.949 . S
C423 H418 0.950 . S
C423 C425 1.327 . S
C423 C429 1.429 . S
C424 C416 1.574 1_545 S
C424 H419 0.949 . S
C424 C430 1.368 . S
C425 C409 1.349 . S
C425 H417 0.950 . S
C425 C423 1.327 . S
C426 C414 1.349 . S
C426 H420 0.950 . S
C426 C427 1.327 . S
C427 H421 0.950 . S
C427 C426 1.327 . S
C427 C431 1.429 . S
C428 C411 1.574 1_565 S
C428 H422 0.949 . S
C428 C432 1.368 . S
C429 C410 1.429 . S
C429 C423 1.429 . S
C429 C430 1.523 . S
C430 C411 1.368 . S
C430 C424 1.368 . S
C430 C429 1.523 . S
C431 C415 1.429 . S
C431 C427 1.429 . S
C431 C432 1.523 . S
C432 C416 1.368 . S
C432 C428 1.368 . S
C432 C431 1.523 . S
H433 C408 0.950 . S
H434 C410 0.950 . S
H435 C411 0.949 . S
H436 C413 0.950 . S
H437 C415 0.950 . S
C438 C439 1.349 . S
C438 C440 1.327 . S
C438 H463 0.950 . S
C439 C438 1.349 . S
C439 C455 1.349 . S
C440 C438 1.327 . S
C440 C459 1.429 . S
C440 H464 0.950 . S
C441 C458 1.574 . S
C441 C460 1.368 . S
C441 H465 0.949 . S
H442 C446 0.949 . S
C443 C444 1.349 . S
C443 C445 1.327 . S
C443 H466 0.950 . S
C444 C443 1.349 . S
C444 C456 1.349 . S
C445 C443 1.327 . S
C445 C461 1.429 . S
C445 H467 0.950 . S
C446 H442 0.949 . S
C446 C454 1.574 . S
C446 C462 1.368 . S
H447 C455 0.950 . S
H448 C453 0.950 . S
H449 C454 0.949 . S
H450 C456 0.950 . S
H451 C457 0.950 . S
H452 C458 0.949 . S
C453 H448 0.950 . S
C453 C455 1.327 . S
C453 C459 1.429 . S
C454 C446 1.574 . S
C454 H449 0.949 . S
C454 C460 1.368 . S
C455 C439 1.349 . S
C455 H447 0.950 . S
C455 C453 1.327 . S
C456 C444 1.349 . S
C456 H450 0.950 . S
C456 C457 1.327 . S
C457 H451 0.950 . S
C457 C456 1.327 . S
C457 C461 1.429 . S
C458 C441 1.574 . S
C458 H452 0.949 . S
C458 C462 1.368 . S
C459 C440 1.429 . S
C459 C453 1.429 . S
C459 C460 1.523 . S
C460 C441 1.368 . S
C460 C454 1.368 . S
C460 C459 1.523 . S
C461 C445 1.429 . S
C461 C457 1.429 . S
C461 C462 1.523 . S
C462 C446 1.368 . S
C462 C458 1.368 . S
C462 C461 1.523 . S
H463 C438 0.950 . S
H464 C440 0.950 . S
H465 C441 0.949 . S
H466 C443 0.950 . S
H467 C445 0.950 . S
C468 C469 1.349 . S
C468 C470 1.327 . S
C468 H493 0.950 . S
C469 C468 1.349 . S
C469 C485 1.349 . S
C470 C468 1.327 . S
C470 C489 1.429 . S
C470 H494 0.950 . S
C471 C488 1.574 . S
C471 C490 1.368 1_455 S
C471 H495 0.949 1_455 S
H472 C476 0.949 . S
C473 C474 1.349 . S
C473 C475 1.327 . S
C473 H496 0.950 . S
C474 C473 1.349 . S
C474 C486 1.349 . S
C475 C473 1.327 . S
C475 C491 1.429 . S
C475 H497 0.950 . S
C476 H472 0.949 . S
C476 C484 1.574 1_455 S
C476 C492 1.368 . S
H477 C485 0.950 . S
H478 C483 0.950 . S
H479 C484 0.949 . S
H480 C486 0.950 . S
H481 C487 0.950 . S
H482 C488 0.949 . S
C483 H478 0.950 . S
C483 C485 1.327 . S
C483 C489 1.429 . S
C484 C476 1.574 1_655 S
C484 H479 0.949 . S
C484 C490 1.368 . S
C485 C469 1.349 . S
C485 H477 0.950 . S
C485 C483 1.327 . S
C486 C474 1.349 . S
C486 H480 0.950 . S
C486 C487 1.327 . S
C487 H481 0.950 . S
C487 C486 1.327 . S
C487 C491 1.429 . S
C488 C471 1.574 . S
C488 H482 0.949 . S
C488 C492 1.368 . S
C489 C470 1.429 . S
C489 C483 1.429 . S
C489 C490 1.523 . S
C490 C471 1.368 1_655 S
C490 C484 1.368 . S
C490 C489 1.523 . S
C491 C475 1.429 . S
C491 C487 1.429 . S
C491 C492 1.523 . S
C492 C476 1.368 . S
C492 C488 1.368 . S
C492 C491 1.523 . S
H493 C468 0.950 . S
H494 C470 0.950 . S
H495 C471 0.949 1_655 S
H496 C473 0.950 . S
H497 C475 0.950 . S
C498 C499 1.349 . S
C498 C500 1.327 . S
C498 H523 0.950 . S
C499 C498 1.349 . S
C499 C515 1.349 . S
C500 C498 1.327 . S
C500 C519 1.429 . S
C500 H524 0.950 . S
C501 C518 1.574 1_565 S
C501 C520 1.368 . S
C501 H525 0.949 . S
H502 C506 0.949 . S
C503 C504 1.349 . S
C503 C505 1.317 1_556 S
C503 H526 0.950 . S
C504 C503 1.349 . S
C504 C516 1.349 1_556 S
C505 C503 1.317 1_554 S
C505 C521 1.442 . S
C505 H527 0.945 1_554 S
C506 H502 0.949 . S
C506 C514 1.574 1_545 S
C506 C522 1.368 . S
H507 C515 0.950 . S
H508 C513 0.950 . S
H509 C514 0.949 . S
H510 C516 0.950 . S
H511 C517 0.950 . S
H512 C518 0.949 . S
C513 H508 0.950 . S
C513 C515 1.327 . S
C513 C519 1.429 . S
C514 C506 1.574 1_565 S
C514 H509 0.949 . S
C514 C520 1.368 . S
C515 C499 1.349 . S
C515 H507 0.950 . S
C515 C513 1.327 . S
C516 C504 1.349 1_554 S
C516 H510 0.950 . S
C516 C517 1.327 . S
C517 H511 0.950 . S
C517 C516 1.327 . S
C517 C521 1.429 . S
C518 C501 1.574 1_545 S
C518 H512 0.949 . S
C518 C522 1.368 . S
C519 C500 1.429 . S
C519 C513 1.429 . S
C519 C520 1.523 . S
C520 C501 1.368 . S
C520 C514 1.368 . S
C520 C519 1.523 . S
C521 C505 1.442 . S
C521 C517 1.429 . S
C521 C522 1.523 . S
C522 C506 1.368 . S
C522 C518 1.368 . S
C522 C521 1.523 . S
H523 C498 0.950 . S
H524 C500 0.950 . S
H525 C501 0.949 . S
H526 C503 0.950 . S
H527 C505 0.945 1_556 S
C528 C529 1.349 . S
C528 C530 1.327 . S
C528 H553 0.950 . S
C529 C528 1.349 . S
C529 C545 1.349 . S
C530 C528 1.327 . S
C530 C549 1.429 . S
C530 H554 0.950 . S
C531 C548 1.574 . S
C531 C550 1.368 . S
C531 H555 0.949 . S
H532 C536 0.949 . S
C533 C534 1.349 . S
C533 C535 1.327 . S
C533 H556 0.950 . S
C534 C533 1.349 . S
C534 C546 1.349 . S
C535 C533 1.327 . S
C535 C551 1.429 . S
C535 H557 0.950 . S
C536 H532 0.949 . S
C536 C544 1.574 . S
C536 C552 1.368 . S
H537 C545 0.950 . S
H538 C543 0.950 . S
H539 C544 0.949 . S
H540 C546 0.950 . S
H541 C547 0.950 . S
H542 C548 0.949 . S
C543 H538 0.950 . S
C543 C545 1.327 . S
C543 C549 1.429 . S
C544 C536 1.574 . S
C544 H539 0.949 . S
C544 C550 1.368 . S
C545 C529 1.349 . S
C545 H537 0.950 . S
C545 C543 1.327 . S
C546 C534 1.349 . S
C546 H540 0.950 . S
C546 C547 1.327 . S
C547 H541 0.950 . S
C547 C546 1.327 . S
C547 C551 1.429 . S
C548 C531 1.574 . S
C548 H542 0.949 . S
C548 C552 1.368 . S
C549 C530 1.429 . S
C549 C543 1.429 . S
C549 C550 1.523 . S
C550 C531 1.368 . S
C550 C544 1.368 . S
C550 C549 1.523 . S
C551 C535 1.429 . S
C551 C547 1.429 . S
C551 C552 1.523 . S
C552 C536 1.368 . S
C552 C548 1.368 . S
C552 C551 1.523 . S
H553 C528 0.950 . S
H554 C530 0.950 . S
H555 C531 0.949 . S
H556 C533 0.950 . S
H557 C535 0.950 . S
C558 C559 1.349 . S
C558 C560 1.327 . S
C558 H583 0.950 . S
C559 C558 1.349 . S
C559 C575 1.349 . S
C560 C558 1.327 . S
C560 C579 1.429 . S
C560 H584 0.950 . S
C561 C578 1.574 . S
C561 C580 1.368 . S
C561 H585 0.949 . S
H562 C566 0.949 . S
C563 C564 1.349 1_655 S
C563 C565 1.327 . S
C563 H586 0.950 . S
C564 C563 1.349 1_455 S
C564 C576 1.349 . S
C565 C563 1.327 . S
C565 C581 1.429 . S
C565 H587 0.950 . S
C566 H562 0.949 . S
C566 C574 1.574 . S
C566 C582 1.368 . S
H567 C575 0.950 . S
H568 C573 0.950 . S
H569 C574 0.949 . S
H570 C576 0.950 . S
H571 C577 0.950 . S
H572 C578 0.949 . S
C573 H568 0.950 . S
C573 C575 1.327 . S
C573 C579 1.429 . S
C574 C566 1.574 . S
C574 H569 0.949 . S
C574 C580 1.368 . S
C575 C559 1.349 . S
C575 H567 0.950 . S
C575 C573 1.327 . S
C576 C564 1.349 . S
C576 H570 0.950 . S
C576 C577 1.327 . S
C577 H571 0.950 . S
C577 C576 1.327 . S
C577 C581 1.429 1_455 S
C578 C561 1.574 . S
C578 H572 0.949 . S
C578 C582 1.368 . S
C579 C560 1.429 . S
C579 C573 1.429 . S
C579 C580 1.523 . S
C580 C561 1.368 . S
C580 C574 1.368 . S
C580 C579 1.523 . S
C581 C565 1.429 . S
C581 C577 1.429 1_655 S
C581 C582 1.523 . S
C582 C566 1.368 . S
C582 C578 1.368 . S
C582 C581 1.523 . S
H583 C558 0.950 . S
H584 C560 0.950 . S
H585 C561 0.949 . S
H586 C563 0.950 . S
H587 C565 0.950 . S
C588 C589 1.349 1_565 S
C588 C590 1.327 . S
C588 H613 0.950 . S
C589 C588 1.349 1_545 S
C589 C605 1.349 . S
C590 C588 1.327 . S
C590 C609 1.429 . S
C590 H614 0.950 . S
C591 C608 1.574 . S
C591 C610 1.368 . S
C591 H615 0.949 . S
H592 C596 0.949 . S
C593 C594 1.349 . S
C593 C595 1.327 . S
C593 H616 0.950 . S
C594 C593 1.349 . S
C594 C606 1.349 . S
C595 C593 1.327 . S
C595 C611 1.429 . S
C595 H617 0.950 . S
C596 H592 0.949 . S
C596 C604 1.574 . S
C596 C612 1.368 . S
H597 C605 0.950 . S
H598 C603 0.950 . S
H599 C604 0.949 . S
H600 C606 0.950 . S
H601 C607 0.950 . S
H602 C608 0.949 . S
C603 H598 0.950 . S
C603 C605 1.327 . S
C603 C609 1.429 1_545 S
C604 C596 1.574 . S
C604 H599 0.949 . S
C604 C610 1.368 . S
C605 C589 1.349 . S
C605 H597 0.950 . S
C605 C603 1.327 . S
C606 C594 1.349 . S
C606 H600 0.950 . S
C606 C607 1.327 . S
C607 H601 0.950 . S
C607 C606 1.327 . S
C607 C611 1.429 . S
C608 C591 1.574 . S
C608 H602 0.949 . S
C608 C612 1.368 . S
C609 C590 1.429 . S
C609 C603 1.429 1_565 S
C609 C610 1.523 . S
C610 C591 1.368 . S
C610 C604 1.368 . S
C610 C609 1.523 . S
C611 C595 1.429 . S
C611 C607 1.429 . S
C611 C612 1.523 . S
C612 C596 1.368 . S
C612 C608 1.368 . S
C612 C611 1.523 . S
H613 C588 0.950 . S
H614 C590 0.950 . S
H615 C591 0.949 . S
H616 C593 0.950 . S
H617 C595 0.950 . S
C618 C619 1.349 . S
C618 C620 1.327 . S
C618 H643 0.950 . S
C619 C618 1.349 . S
C619 C635 1.349 . S
C620 C618 1.327 . S
C620 C639 1.429 . S
C620 H644 0.950 . S
C621 C638 1.574 . S
C621 C640 1.368 . S
C621 H645 0.949 . S
H622 C626 0.949 . S
C623 C624 1.349 . S
C623 C625 1.327 . S
C623 H646 0.950 . S
C624 C623 1.349 . S
C624 C636 1.349 . S
C625 C623 1.327 . S
C625 C641 1.429 . S
C625 H647 0.950 . S
C626 H622 0.949 . S
C626 C634 1.574 . S
C626 C642 1.368 . S
H627 C635 0.950 . S
H628 C633 0.950 . S
H629 C634 0.949 . S
H630 C636 0.950 . S
H631 C637 0.950 . S
H632 C638 0.949 . S
C633 H628 0.950 . S
C633 C635 1.327 . S
C633 C639 1.429 . S
C634 C626 1.574 . S
C634 H629 0.949 . S
C634 C640 1.368 . S
C635 C619 1.349 . S
C635 H627 0.950 . S
C635 C633 1.327 . S
C636 C624 1.349 . S
C636 H630 0.950 . S
C636 C637 1.327 . S
C637 H631 0.950 . S
C637 C636 1.327 . S
C637 C641 1.429 . S
C638 C621 1.574 . S
C638 H632 0.949 . S
C638 C642 1.368 . S
C639 C620 1.429 . S
C639 C633 1.429 . S
C639 C640 1.523 . S
C640 C621 1.368 . S
C640 C634 1.368 . S
C640 C639 1.523 . S
C641 C625 1.429 . S
C641 C637 1.429 . S
C641 C642 1.523 . S
C642 C626 1.368 . S
C642 C638 1.368 . S
C642 C641 1.523 . S
H643 C618 0.950 . S
H644 C620 0.950 . S
H645 C621 0.949 . S
H646 C623 0.950 . S
H647 C625 0.950 . S
C648 C649 1.349 . S
C648 C650 1.327 . S
C648 H673 0.950 . S
C649 C648 1.349 . S
C649 C665 1.349 . S
C650 C648 1.327 . S
C650 C669 1.429 . S
C650 H674 0.950 . S
C651 C668 1.574 . S
C651 C670 1.368 . S
C651 H675 0.949 . S
H652 C656 0.949 . S
C653 C654 1.349 . S
C653 C655 1.327 1_655 S
C653 H676 0.950 . S
C654 C653 1.349 . S
C654 C666 1.349 1_655 S
C655 C653 1.327 1_455 S
C655 C671 1.429 . S
C655 H677 0.950 1_455 S
C656 H652 0.949 . S
C656 C664 1.574 . S
C656 C672 1.368 . S
H657 C665 0.950 . S
H658 C663 0.950 . S
H659 C664 0.949 . S
H660 C666 0.950 . S
H661 C667 0.950 . S
H662 C668 0.949 . S
C663 H658 0.950 . S
C663 C665 1.327 . S
C663 C669 1.429 . S
C664 C656 1.574 . S
C664 H659 0.949 . S
C664 C670 1.368 . S
C665 C649 1.349 . S
C665 H657 0.950 . S
C665 C663 1.327 . S
C666 C654 1.349 1_455 S
C666 H660 0.950 . S
C666 C667 1.327 . S
C667 H661 0.950 . S
C667 C666 1.327 . S
C667 C671 1.429 . S
C668 C651 1.574 . S
C668 H662 0.949 . S
C668 C672 1.368 . S
C669 C650 1.429 . S
C669 C663 1.429 . S
C669 C670 1.523 . S
C670 C651 1.368 . S
C670 C664 1.368 . S
C670 C669 1.523 . S
C671 C655 1.429 . S
C671 C667 1.429 . S
C671 C672 1.523 . S
C672 C656 1.368 . S
C672 C668 1.368 . S
C672 C671 1.523 . S
H673 C648 0.950 . S
H674 C650 0.950 . S
H675 C651 0.949 . S
H676 C653 0.950 . S
H677 C655 0.950 1_655 S
C678 C679 1.349 . S
C678 C680 1.327 . S
C678 H703 0.950 . S
C679 C678 1.349 . S
C679 C695 1.349 . S
C680 C678 1.327 . S
C680 C699 1.429 . S
C680 H704 0.950 . S
C681 C698 1.574 . S
C681 C700 1.368 . S
C681 H705 0.949 . S
H682 C686 0.949 . S
C683 C684 1.349 . S
C683 C685 1.327 1_565 S
C683 H706 0.950 . S
C684 C683 1.349 . S
C684 C696 1.349 1_565 S
C685 C683 1.327 1_545 S
C685 C701 1.429 . S
C685 H707 0.946 . S
C686 H682 0.949 . S
C686 C694 1.574 . S
C686 C702 1.368 . S
H687 C695 0.950 . S
H688 C693 0.950 . S
H689 C694 0.949 . S
H690 C696 0.950 . S
H691 C697 0.950 . S
H692 C698 0.949 . S
C693 H688 0.950 . S
C693 C695 1.327 . S
C693 C699 1.429 . S
C694 C686 1.574 . S
C694 H689 0.949 . S
C694 C700 1.368 . S
C695 C679 1.349 . S
C695 H687 0.950 . S
C695 C693 1.327 . S
C696 C684 1.349 1_545 S
C696 H690 0.950 . S
C696 C697 1.327 . S
C697 H691 0.950 . S
C697 C696 1.327 . S
C697 C701 1.429 . S
C698 C681 1.574 . S
C698 H692 0.949 . S
C698 C702 1.368 . S
C699 C680 1.429 . S
C699 C693 1.429 . S
C699 C700 1.523 . S
C700 C681 1.368 . S
C700 C694 1.368 . S
C700 C699 1.523 . S
C701 C685 1.429 . S
C701 C697 1.429 . S
C701 C702 1.523 . S
C702 C686 1.368 . S
C702 C698 1.368 . S
C702 C701 1.523 . S
H703 C678 0.950 . S
H704 C680 0.950 . S
H705 C681 0.949 . S
H706 C683 0.950 . S
H707 C685 0.946 . S
C708 C709 1.349 . S
C708 C710 1.327 . S
C708 H733 0.950 . S
C709 C708 1.349 . S
C709 C725 1.349 . S
C710 C708 1.327 . S
C710 C729 1.429 . S
C710 H734 0.950 . S
C711 C728 1.574 . S
C711 C730 1.368 . S
C711 H735 0.949 . S
H712 C716 0.949 . S
C713 C714 1.349 . S
C713 C715 1.327 . S
C713 H736 0.950 . S
C714 C713 1.349 . S
C714 C726 1.349 . S
C715 C713 1.327 . S
C715 C731 1.429 . S
C715 H737 0.950 . S
C716 H712 0.949 . S
C716 C724 1.574 . S
C716 C732 1.368 . S
H717 C725 0.950 . S
H718 C723 0.950 . S
H719 C724 0.949 . S
H720 C726 0.950 . S
H721 C727 0.950 . S
H722 C728 0.949 . S
C723 H718 0.950 . S
C723 C725 1.327 . S
C723 C729 1.429 . S
C724 C716 1.574 . S
C724 H719 0.949 . S
C724 C730 1.368 . S
C725 C709 1.349 . S
C725 H717 0.950 . S
C725 C723 1.327 . S
C726 C714 1.349 . S
C726 H720 0.950 . S
C726 C727 1.327 . S
C727 H721 0.950 . S
C727 C726 1.327 . S
C727 C731 1.429 . S
C728 C711 1.574 . S
C728 H722 0.949 . S
C728 C732 1.368 . S
C729 C710 1.429 . S
C729 C723 1.429 . S
C729 C730 1.523 . S
C730 C711 1.368 . S
C730 C724 1.368 . S
C730 C729 1.523 . S
C731 C715 1.429 . S
C731 C727 1.429 . S
C731 C732 1.523 . S
C732 C716 1.368 . S
C732 C728 1.368 . S
C732 C731 1.523 . S
H733 C708 0.950 . S
H734 C710 0.950 . S
H735 C711 0.949 . S
H736 C713 0.950 . S
H737 C715 0.950 . S
C738 C739 1.349 . S
C738 C740 1.327 . S
C738 H763 0.950 . S
C739 C738 1.349 . S
C739 C755 1.349 . S
C740 C738 1.327 . S
C740 C759 1.429 . S
C740 H764 0.950 . S
C741 C758 1.574 . S
C741 C760 1.368 . S
C741 H765 0.949 . S
H742 C746 0.949 . S
C743 C744 1.349 . S
C743 C745 1.327 1_455 S
C743 H766 0.950 . S
C744 C743 1.349 . S
C744 C756 1.349 . S
C745 C743 1.327 1_655 S
C745 C761 1.385 1_554 S
C745 H767 0.950 . S
C746 H742 0.949 . S
C746 C754 1.574 . S
C746 C762 1.368 . S
H747 C755 0.950 . S
H748 C753 0.950 . S
H749 C754 0.949 . S
H750 C756 0.950 . S
H751 C757 0.945 1_556 S
H752 C758 0.949 . S
C753 H748 0.950 . S
C753 C755 1.327 . S
C753 C759 1.429 . S
C754 C746 1.574 . S
C754 H749 0.949 . S
C754 C760 1.368 . S
C755 C739 1.349 . S
C755 H747 0.950 . S
C755 C753 1.327 . S
C756 C744 1.349 . S
C756 H750 0.950 . S
C756 C757 1.316 1_455 S
C757 H751 0.945 1_554 S
C757 C756 1.316 1_655 S
C757 C761 1.436 1_554 S
C758 C741 1.574 . S
C758 H752 0.949 . S
C758 C762 1.368 . S
C759 C740 1.429 . S
C759 C753 1.429 . S
C759 C760 1.523 . S
C760 C741 1.368 . S
C760 C754 1.368 . S
C760 C759 1.523 . S
C761 C745 1.385 1_556 S
C761 C757 1.436 1_556 S
C761 C762 1.574 . S
C762 C746 1.368 . S
C762 C758 1.368 . S
C762 C761 1.574 . S
H763 C738 0.950 . S
H764 C740 0.950 . S
H765 C741 0.949 . S
H766 C743 0.950 . S
H767 C745 0.950 . S
C768 C769 1.349 . S
C768 C770 1.327 . S
C768 H793 0.950 . S
C769 C768 1.349 . S
C769 C785 1.349 . S
C770 C768 1.327 . S
C770 C789 1.429 . S
C770 H794 0.950 . S
C771 C788 1.574 . S
C771 C790 1.368 . S
C771 H795 0.949 . S
H772 C776 0.949 . S
C773 C774 1.349 1_565 S
C773 C775 1.327 . S
C773 H796 0.950 . S
C774 C773 1.349 1_545 S
C774 C786 1.349 . S
C775 C773 1.327 . S
C775 C791 1.429 . S
C775 H797 0.950 . S
C776 H772 0.949 . S
C776 C784 1.574 . S
C776 C792 1.368 . S
H777 C785 0.950 . S
H778 C783 0.950 . S
H779 C784 0.949 . S
H780 C786 0.950 . S
H781 C787 0.950 . S
H782 C788 0.949 . S
C783 H778 0.950 . S
C783 C785 1.327 . S
C783 C789 1.429 . S
C784 C776 1.574 . S
C784 H779 0.949 . S
C784 C790 1.368 . S
C785 C769 1.349 . S
C785 H777 0.950 . S
C785 C783 1.327 . S
C786 C774 1.349 . S
C786 H780 0.950 . S
C786 C787 1.327 . S
C787 H781 0.950 . S
C787 C786 1.327 . S
C787 C791 1.429 1_545 S
C788 C771 1.574 . S
C788 H782 0.949 . S
C788 C792 1.368 . S
C789 C770 1.429 . S
C789 C783 1.429 . S
C789 C790 1.523 . S
C790 C771 1.368 . S
C790 C784 1.368 . S
C790 C789 1.523 . S
C791 C775 1.429 . S
C791 C787 1.429 1_565 S
C791 C792 1.523 . S
C792 C776 1.368 . S
C792 C788 1.368 . S
C792 C791 1.523 . S
H793 C768 0.950 . S
H794 C770 0.950 . S
H795 C771 0.949 . S
H796 C773 0.950 . S
H797 C775 0.950 . S
C798 C799 1.349 . S
C798 C800 1.327 . S
C798 H823 0.950 . S
C799 C798 1.349 . S
C799 C815 1.349 . S
C800 C798 1.327 . S
C800 C819 1.429 . S
C800 H824 0.950 . S
C801 C818 1.574 . S
C801 C820 1.368 . S
C801 H825 0.949 . S
H802 C806 0.949 . S
C803 C804 1.349 . S
C803 C805 1.327 . S
C803 H826 0.950 . S
C804 C803 1.349 . S
C804 C816 1.349 . S
C805 C803 1.327 . S
C805 C821 1.429 . S
C805 H827 0.950 . S
C806 H802 0.949 . S
C806 C814 1.574 . S
C806 C822 1.368 . S
H807 C815 0.950 . S
H808 C813 0.950 . S
H809 C814 0.949 . S
H810 C816 0.950 . S
H811 C817 0.950 . S
H812 C818 0.949 . S
C813 H808 0.950 . S
C813 C815 1.327 . S
C813 C819 1.429 . S
C814 C806 1.574 . S
C814 H809 0.949 . S
C814 C820 1.368 . S
C815 C799 1.349 . S
C815 H807 0.950 . S
C815 C813 1.327 . S
C816 C804 1.349 . S
C816 H810 0.950 . S
C816 C817 1.327 . S
C817 H811 0.950 . S
C817 C816 1.327 . S
C817 C821 1.429 . S
C818 C801 1.574 . S
C818 H812 0.949 . S
C818 C822 1.368 . S
C819 C800 1.429 . S
C819 C813 1.429 . S
C819 C820 1.523 . S
C820 C801 1.368 . S
C820 C814 1.368 . S
C820 C819 1.523 . S
C821 C805 1.429 . S
C821 C817 1.429 . S
C821 C822 1.523 . S
C822 C806 1.368 . S
C822 C818 1.368 . S
C822 C821 1.523 . S
H823 C798 0.950 . S
H824 C800 0.950 . S
H825 C801 0.949 . S
H826 C803 0.950 . S
H827 C805 0.950 . S
C828 C829 1.349 . S
C828 C830 1.327 . S
C828 H853 0.950 . S
C829 C828 1.349 . S
C829 C845 1.349 . S
C830 C828 1.327 . S
C830 C849 1.429 . S
C830 H854 0.950 . S
C831 C848 1.574 . S
C831 C850 1.368 . S
C831 H855 0.949 . S
H832 C836 0.949 . S
C833 C834 1.349 1_455 S
C833 C835 1.327 . S
C833 H856 0.955 1_455 S
C834 C833 1.349 1_655 S
C834 C846 1.352 1_655 S
C835 C833 1.327 . S
C835 C851 1.429 . S
C835 H857 0.950 . S
C836 H832 0.949 . S
C836 C844 1.574 . S
C836 C852 1.368 . S
H837 C845 0.950 . S
H838 C843 0.950 . S
H839 C844 0.949 . S
H840 C846 0.936 1_655 S
H841 C847 0.950 . S
H842 C848 0.949 . S
C843 H838 0.950 . S
C843 C845 1.327 . S
C843 C849 1.429 . S
C844 C836 1.574 . S
C844 H839 0.949 . S
C844 C850 1.368 . S
C845 C829 1.349 . S
C845 H837 0.950 . S
C845 C843 1.327 . S
C846 C834 1.352 1_455 S
C846 H840 0.936 1_455 S
C846 C847 1.337 . S
C847 H841 0.950 . S
C847 C846 1.337 . S
C847 C851 1.429 . S
C848 C831 1.574 . S
C848 H842 0.949 . S
C848 C852 1.368 . S
C849 C830 1.429 . S
C849 C843 1.429 . S
C849 C850 1.523 . S
C850 C831 1.368 . S
C850 C844 1.368 . S
C850 C849 1.523 . S
C851 C835 1.429 . S
C851 C847 1.429 . S
C851 C852 1.523 . S
C852 C836 1.368 . S
C852 C848 1.368 . S
C852 C851 1.523 . S
H853 C828 0.950 . S
H854 C830 0.950 . S
H855 C831 0.949 . S
H856 C833 0.955 1_655 S
H857 C835 0.950 . S
C858 C859 1.349 . S
C858 C860 1.327 1_565 S
C858 H883 0.950 . S
C859 C858 1.349 . S
C859 C875 1.349 1_565 S
C860 C858 1.327 1_545 S
C860 C879 1.429 . S
C860 H884 0.950 . S
C861 C878 1.574 . S
C861 C880 1.368 . S
C861 H885 0.949 . S
H862 C866 0.949 . S
C863 C864 1.349 . S
C863 C865 1.327 . S
C863 H886 0.950 . S
C864 C863 1.349 . S
C864 C876 1.349 . S
C865 C863 1.327 . S
C865 C881 1.429 . S
C865 H887 0.950 . S
C866 H862 0.949 . S
C866 C874 1.574 . S
C866 C882 1.368 . S
H867 C875 0.941 1_565 S
H868 C873 0.950 . S
H869 C874 0.949 . S
H870 C876 0.950 . S
H871 C877 0.950 . S
H872 C878 0.949 . S
C873 H868 0.950 . S
C873 C875 1.336 . S
C873 C879 1.429 . S
C874 C866 1.574 . S
C874 H869 0.949 . S
C874 C880 1.368 . S
C875 C859 1.349 1_545 S
C875 H867 0.941 1_545 S
C875 C873 1.336 . S
C876 C864 1.349 . S
C876 H870 0.950 . S
C876 C877 1.327 . S
C877 H871 0.950 . S
C877 C876 1.327 . S
C877 C881 1.429 . S
C878 C861 1.574 . S
C878 H872 0.949 . S
C878 C882 1.368 . S
C879 C860 1.429 . S
C879 C873 1.429 . S
C879 C880 1.523 . S
C880 C861 1.368 . S
C880 C874 1.368 . S
C880 C879 1.523 . S
C881 C865 1.429 . S
C881 C877 1.429 . S
C881 C882 1.523 . S
C882 C866 1.368 . S
C882 C878 1.368 . S
C882 C881 1.523 . S
H883 C858 0.950 . S
H884 C860 0.950 . S
H885 C861 0.949 . S
H886 C863 0.950 . S
H887 C865 0.950 . S
C169 C118 1.300 . S
C174 C6 1.300 . S
C199 C20 1.301 . S
C204 C132 1.301 . S
C229 C34 1.301 . S
C234 C146 1.301 . S
C259 C48 1.300 . S
C264 C160 1.300 . S
C289 C90 1.300 . S
C294 C62 1.300 . S
C319 C76 1.300 . S
C324 C104 1.300 . S
C349 C135 0.885 . S
C354 C9 0.885 . S
C379 C23 0.884 . S
C384 C149 0.884 . S
C409 C163 0.884 . S
C414 C37 0.884 . S
C439 C51 0.885 . S
C444 C93 0.885 . S
C469 C107 0.885 . S
C474 C65 0.885 . S
C499 C121 0.884 . S
C504 C79 0.884 . S
C529 C8 1.412 . S
C534 C77 1.426 . S
C559 C22 1.412 . S
C564 C7 1.426 . S
C589 C21 1.426 . S
C594 C36 1.412 . S
C619 C50 1.412 . S
C624 C35 1.426 . S
C649 C64 1.412 . S
C654 C49 1.426 . S
C679 C78 1.412 . S
C684 C63 1.426 . S
C709 C92 1.413 . S
C714 C105 1.427 . S
C739 C106 1.412 . S
C744 C119 1.426 . S
C769 C120 1.413 . S
C774 C133 1.427 . S
C799 C134 1.412 . S
C804 C147 1.426 . S
C829 C148 1.412 . S
C834 C161 1.426 . S
C859 C91 1.426 . S
C864 C162 1.412 . S
