# Generated by pormake.
# Topology qtz-e, (6)-cn, num edge types: 1
# Building blocks:
#     Node 0, Type 0, BuildingBlock: MIFKUJ_clean_sbu_0, # of connection points: 6
#     Node 1, Type 0, BuildingBlock: MIFKUJ_clean_sbu_0, # of connection points: 6
#     Node 2, Type 0, BuildingBlock: MIFKUJ_clean_sbu_0, # of connection points: 6
#     Node 3, Type 0, BuildingBlock: MIFKUJ_clean_sbu_0, # of connection points: 6
#     Node 4, Type 0, BuildingBlock: MIFKUJ_clean_sbu_0, # of connection points: 6
#     Node 5, Type 0, BuildingBlock: MIFKUJ_clean_sbu_0, # of connection points: 6
#     Edge 6, Type (0, 0), BuildingBlock: FUNLAD_clean_linker_0, # of connection points: 2
#     Edge 7, Type (0, 0), BuildingBlock: FUNLAD_clean_linker_0, # of connection points: 2
#     Edge 8, Type (0, 0), BuildingBlock: FUNLAD_clean_linker_0, # of connection points: 2
#     Edge 9, Type (0, 0), BuildingBlock: FUNLAD_clean_linker_0, # of connection points: 2
#     Edge 10, Type (0, 0), BuildingBlock: FUNLAD_clean_linker_0, # of connection points: 2
#     Edge 11, Type (0, 0), BuildingBlock: FUNLAD_clean_linker_0, # of connection points: 2
#     Edge 12, Type (0, 0), BuildingBlock: FUNLAD_clean_linker_0, # of connection points: 2
#     Edge 13, Type (0, 0), BuildingBlock: FUNLAD_clean_linker_0, # of connection points: 2
#     Edge 14, Type (0, 0), BuildingBlock: FUNLAD_clean_linker_0, # of connection points: 2
#     Edge 15, Type (0, 0), BuildingBlock: FUNLAD_clean_linker_0, # of connection points: 2
#     Edge 16, Type (0, 0), BuildingBlock: FUNLAD_clean_linker_0, # of connection points: 2
#     Edge 17, Type (0, 0), BuildingBlock: FUNLAD_clean_linker_0, # of connection points: 2
#     Edge 18, Type (0, 0), BuildingBlock: FUNLAD_clean_linker_0, # of connection points: 2
#     Edge 19, Type (0, 0), BuildingBlock: FUNLAD_clean_linker_0, # of connection points: 2
#     Edge 20, Type (0, 0), BuildingBlock: FUNLAD_clean_linker_0, # of connection points: 2
#     Edge 21, Type (0, 0), BuildingBlock: FUNLAD_clean_linker_0, # of connection points: 2
#     Edge 22, Type (0, 0), BuildingBlock: FUNLAD_clean_linker_0, # of connection points: 2
#     Edge 23, Type (0, 0), BuildingBlock: FUNLAD_clean_linker_0, # of connection points: 2
# Relax obj value: 0.220
# Max RMSD: 0.224
# Mean RMSD: 0.224
data_MOF--net-qtz-e--node1-MIFKUJ_clean_sbu_0--edge1-FUNLAD_clean_linker_0
_symmetry_space_group_name_H-M    P1
_symmetry_Int_Tables_number       1
_symmetry_cell_setting            triclinic
loop_
_symmetry_equiv_pos_as_xyz
'x, y, z'
_cell_length_a     28.340442
_cell_length_b     28.290914
_cell_length_c     48.646848
_cell_angle_alpha  89.805091
_cell_angle_beta   90.425679
_cell_angle_gamma 120.28724
loop_
_atom_site_label
_atom_site_type_symbol
_atom_site_fract_x
_atom_site_fract_y
_atom_site_fract_z
_atom_type_partial_charge
Zn0 Zn 0.19471 0.33174 0.97239 0.0
Zn1 Zn 0.17262 0.35505 0.0559 0.0
C2 C 0.25067 0.42335 0.93549 0.0
O3 O 0.20181 0.41774 0.93403 0.0
C4 C 0.15556 0.26572 0.09058 0.0
O5 O 0.20925 0.29295 0.09078 0.0
O6 O 0.16768 0.25921 0.95379 0.0
O7 O 0.21361 0.33064 0.01145 0.0
O8 O 0.25028 0.37569 0.04885 0.0
C9 C 0.18906 0.22993 0.95869 0.0
O10 O 0.22807 0.24641 0.97729 0.0
O11 O 0.25804 0.39106 0.9508 0.0
C12 C 0.13915 0.40386 0.09829 0.0
O13 O 0.09527 0.355 0.0993 0.0
O14 O 0.17655 0.41291 0.08124 0.0
O15 O 0.13844 0.3603 0.01948 0.0
O16 O 0.13445 0.34937 0.97427 0.0
O17 O 0.13042 0.28238 0.07521 0.0
C18 C 0.25612 0.36522 0.02428 0.0
C19 C 0.11888 0.36233 0.99608 0.0
Zn20 Zn 0.81998 0.19129 0.30868 0.0
Zn21 Zn 0.80713 0.19512 0.39428 0.0
C22 C 0.78587 0.22397 0.26252 0.0
O23 O 0.75985 0.17037 0.26022 0.0
C24 C 0.88449 0.18164 0.42632 0.0
O25 O 0.90618 0.23481 0.42913 0.0
O26 O 0.85554 0.15572 0.28852 0.0
O27 O 0.85373 0.22271 0.34473 0.0
O28 O 0.86096 0.27066 0.38062 0.0
C29 C 0.90605 0.17126 0.29 0.0
O30 O 0.93744 0.21076 0.30712 0.0
O31 O 0.81688 0.24594 0.28323 0.0
C32 C 0.72132 0.15711 0.43264 0.0
O33 O 0.71015 0.11059 0.42116 0.0
O34 O 0.76253 0.2012 0.42441 0.0
O35 O 0.75437 0.1515 0.363 0.0
O36 O 0.7428 0.13396 0.31834 0.0
O37 O 0.84342 0.15596 0.41046 0.0
C38 C 0.86894 0.26924 0.35513 0.0
C39 C 0.72365 0.12557 0.34264 0.0
Zn40 Zn 0.65467 0.86564 0.63698 0.0
Zn41 Zn 0.61802 0.82887 0.72019 0.0
C42 C 0.55368 0.83644 0.60825 0.0
O43 O 0.53346 0.79307 0.62419 0.0
C44 C 0.70028 0.89774 0.75865 0.0
O45 O 0.66176 0.90809 0.76577 0.0
O46 O 0.73072 0.90851 0.62187 0.0
O47 O 0.64729 0.88857 0.67443 0.0
O48 O 0.596 0.88314 0.7084 0.0
C49 C 0.76276 0.95883 0.6272 0.0
O50 O 0.74772 0.98323 0.64513 0.0
O51 O 0.60398 0.87237 0.61031 0.0
C52 C 0.575 0.74934 0.76417 0.0
O53 O 0.62437 0.75608 0.76365 0.0
O54 O 0.56271 0.77595 0.74728 0.0
O55 O 0.61766 0.78701 0.68594 0.0
O56 O 0.63304 0.78613 0.6415 0.0
O57 O 0.69185 0.86632 0.73831 0.0
C58 C 0.6118 0.89865 0.68403 0.0
C59 C 0.61758 0.76126 0.6645 0.0
Zn60 Zn 0.81846 0.66401 0.98034 0.0
Zn61 Zn 0.79336 0.60807 0.0416 0.0
C62 C 0.79886 0.58332 0.93886 0.0
O63 O 0.85122 0.6163 0.93436 0.0
C64 C 0.82861 0.70797 0.06946 0.0
O65 O 0.7755 0.68452 0.07269 0.0
O66 O 0.84828 0.72359 0.95155 0.0
O67 O 0.75961 0.67183 0.99995 0.0
O68 O 0.72447 0.6028 0.02956 0.0
C69 C 0.81403 0.71613 0.93263 0.0
O70 O 0.76423 0.6739 0.93414 0.0
O71 O 0.77642 0.59371 0.95863 0.0
C72 C 0.77305 0.51378 0.07389 0.0
O73 O 0.76956 0.49234 0.04952 0.0
O74 O 0.78017 0.56179 0.07553 0.0
O75 O 0.82428 0.5799 0.01403 0.0
O76 O 0.88235 0.66156 0.99849 0.0
O77 O 0.84716 0.68451 0.05435 0.0
C78 C 0.72019 0.63733 0.01467 0.0
C79 C 0.87021 0.6127 0.00368 0.0
Zn80 Zn 0.13066 0.79933 0.30362 0.0
Zn81 Zn 0.1544 0.80069 0.38966 0.0
C82 C 0.16806 0.74721 0.26548 0.0
O83 O 0.20828 0.79754 0.26165 0.0
C84 C 0.08756 0.81142 0.42909 0.0
O85 O 0.06689 0.75812 0.42948 0.0
O86 O 0.09149 0.82769 0.28023 0.0
O87 O 0.09774 0.77179 0.34068 0.0
O88 O 0.09557 0.72596 0.377 0.0
C89 C 0.0404 0.80945 0.28131 0.0
O90 O 0.01138 0.77304 0.30011 0.0
O91 O 0.13108 0.7384 0.28273 0.0
C92 C 0.24046 0.83527 0.42844 0.0
O93 O 0.24043 0.88129 0.42476 0.0
O94 O 0.20671 0.79315 0.41488 0.0
O95 O 0.19541 0.84094 0.35529 0.0
O96 O 0.20845 0.86094 0.31136 0.0
O97 O 0.12391 0.83958 0.4114 0.0
C98 C 0.08308 0.72582 0.35187 0.0
C99 C 0.22681 0.86961 0.33595 0.0
Zn100 Zn 0.34618 0.15364 0.65016 0.0
Zn101 Zn 0.38486 0.1856 0.73218 0.0
C102 C 0.38729 0.14744 0.59761 0.0
O103 O 0.34259 0.1465 0.58936 0.0
C104 C 0.29335 0.10293 0.7622 0.0
O105 O 0.3259 0.08278 0.76527 0.0
O106 O 0.27041 0.11345 0.63368 0.0
O107 O 0.35333 0.12768 0.68657 0.0
O108 O 0.40952 0.13479 0.71862 0.0
C109 C 0.24009 0.06172 0.63448 0.0
O110 O 0.25495 0.03326 0.64993 0.0
O111 O 0.39831 0.15117 0.62315 0.0
C112 C 0.48352 0.26664 0.76014 0.0
O113 O 0.50399 0.27577 0.73525 0.0
O114 O 0.43394 0.22981 0.76366 0.0
O115 O 0.39057 0.23884 0.70164 0.0
O116 O 0.36944 0.23232 0.65686 0.0
O117 O 0.30875 0.14501 0.7472 0.0
C118 C 0.39088 0.11895 0.69464 0.0
C119 C 0.38817 0.26034 0.67888 0.0
C120 C 0.20519 0.71071 0.23005 0.0
C121 C 0.16404 0.70162 0.24883 0.0
C122 C 0.20006 0.66818 0.21339 0.0
C123 C 0.15334 0.61563 0.21503 0.0
C124 C 0.11312 0.60624 0.23444 0.0
C125 C 0.11823 0.64877 0.25105 0.0
C126 C 0.14519 0.5696 0.19709 0.0
C127 C 0.16855 0.57692 0.17222 0.0
C128 C 0.15975 0.53129 0.15381 0.0
C129 C 0.19908 0.54147 0.13374 0.0
C130 C 0.19237 0.50017 0.11573 0.0
C131 C 0.14577 0.44771 0.1172 0.0
H132 H 0.0805 0.46978 0.16963 0.0
C133 C 0.10591 0.43759 0.13701 0.0
C134 C 0.1127 0.47893 0.1551 0.0
H135 H 0.06933 0.39774 0.13855 0.0
H136 H 0.24133 0.75078 0.22808 0.0
H137 H 0.23305 0.67675 0.1995 0.0
H138 H 0.07701 0.56609 0.23639 0.0
H139 H 0.08581 0.64041 0.26529 0.0
H140 H 0.11776 0.52847 0.20451 0.0
H141 H 0.19581 0.61809 0.1648 0.0
H142 H 0.23544 0.5815 0.13209 0.0
H143 H 0.22381 0.50945 0.10065 0.0
C144 C 0.47455 0.15025 0.58555 0.0
C145 C 0.42388 0.14366 0.57738 0.0
C146 C 0.5091 0.14704 0.56623 0.0
C147 C 0.4935 0.13706 0.53836 0.0
C148 C 0.44246 0.12938 0.53036 0.0
C149 C 0.40816 0.13305 0.5496 0.0
C150 C 0.52872 0.13311 0.5172 0.0
C151 C 0.58366 0.1615 0.51856 0.0
C152 C 0.61845 0.15935 0.49653 0.0
C153 C 0.66987 0.20553 0.49167 0.0
C154 C 0.70324 0.20506 0.47078 0.0
C155 C 0.68616 0.15795 0.45467 0.0
H156 H 0.56288 0.07512 0.48429 0.0
C157 C 0.63515 0.11135 0.4599 0.0
C158 C 0.60159 0.112 0.4806 0.0
H159 H 0.62093 0.07434 0.44792 0.0
H160 H 0.48762 0.15806 0.60685 0.0
H161 H 0.54751 0.15157 0.57324 0.0
H162 H 0.42931 0.12116 0.50907 0.0
H163 H 0.36922 0.12735 0.54266 0.0
H164 H 0.5086 0.10896 0.49899 0.0
H165 H 0.60393 0.19007 0.53536 0.0
H166 H 0.68397 0.24233 0.50382 0.0
H167 H 0.74253 0.24148 0.46737 0.0
C168 C 0.2868 0.50133 0.90225 0.0
C169 C 0.29567 0.4655 0.91864 0.0
C170 C 0.32804 0.53969 0.88533 0.0
C171 C 0.3792 0.5429 0.88421 0.0
C172 C 0.38871 0.50841 0.90134 0.0
C173 C 0.34732 0.46988 0.91827 0.0
C174 C 0.42351 0.58196 0.86569 0.0
C175 C 0.41368 0.60101 0.84213 0.0
C176 C 0.45671 0.63953 0.82287 0.0
C177 C 0.44263 0.66704 0.80329 0.0
C178 C 0.48095 0.70275 0.78432 0.0
C179 C 0.53437 0.71157 0.78432 0.0
H180 H 0.52268 0.62693 0.83695 0.0
C181 C 0.54855 0.68388 0.80377 0.0
C182 C 0.51021 0.64818 0.82281 0.0
H183 H 0.5893 0.68953 0.80426 0.0
H184 H 0.24778 0.49968 0.90234 0.0
H185 H 0.3196 0.56696 0.87342 0.0
H186 H 0.42794 0.51047 0.90122 0.0
H187 H 0.35556 0.44304 0.93071 0.0
H188 H 0.46506 0.59393 0.87152 0.0
H189 H 0.37179 0.58792 0.83636 0.0
H190 H 0.40171 0.66099 0.80267 0.0
H191 H 0.46855 0.72328 0.76959 0.0
C192 C 0.81184 0.31481 0.24091 0.0
C193 C 0.77991 0.25736 0.2408 0.0
C194 C 0.80721 0.34547 0.21944 0.0
C195 C 0.77013 0.31909 0.19758 0.0
C196 C 0.73794 0.26178 0.19786 0.0
C197 C 0.7427 0.23132 0.21913 0.0
C198 C 0.76497 0.34852 0.17336 0.0
C199 C 0.78627 0.40312 0.17164 0.0
C200 C 0.78113 0.43015 0.14639 0.0
C201 C 0.78418 0.4811 0.14859 0.0
C202 C 0.78037 0.50788 0.12516 0.0
C203 C 0.77385 0.48437 0.09897 0.0
H204 H 0.77471 0.36886 0.11726 0.0
C205 C 0.77113 0.43357 0.09675 0.0
C206 C 0.77508 0.40694 0.1201 0.0
H207 H 0.76699 0.41468 0.07687 0.0
H208 H 0.84109 0.33604 0.25729 0.0
H209 H 0.83363 0.38941 0.21991 0.0
H210 H 0.70919 0.2402 0.18133 0.0
H211 H 0.71738 0.18715 0.2184 0.0
H212 H 0.74099 0.32314 0.15619 0.0
H213 H 0.80642 0.42892 0.18932 0.0
H214 H 0.78946 0.50024 0.16851 0.0
H215 H 0.78315 0.54726 0.12757 0.0
C216 C 0.46484 0.80084 0.58296 0.0
C217 C 0.5188 0.84307 0.58766 0.0
C218 C 0.43268 0.80627 0.56269 0.0
C219 C 0.45396 0.8541 0.5466 0.0
C220 C 0.50728 0.89696 0.55197 0.0
C221 C 0.53948 0.89146 0.57217 0.0
C222 C 0.42147 0.86136 0.5246 0.0
C223 C 0.37963 0.81914 0.51126 0.0
C224 C 0.34634 0.82559 0.48935 0.0
C225 C 0.31359 0.78068 0.47224 0.0
C226 C 0.2798 0.78395 0.45217 0.0
C227 C 0.2779 0.83229 0.4488 0.0
H228 H 0.36772 0.90929 0.49898 0.0
C229 C 0.31096 0.87744 0.46571 0.0
C230 C 0.34454 0.87411 0.48586 0.0
H231 H 0.31016 0.91519 0.46378 0.0
H232 H 0.44748 0.76331 0.59478 0.0
H233 H 0.39109 0.77311 0.55997 0.0
H234 H 0.52444 0.93459 0.54022 0.0
H235 H 0.58069 0.92509 0.57552 0.0
H236 H 0.43458 0.90305 0.51843 0.0
H237 H 0.37007 0.77768 0.51587 0.0
H238 H 0.31384 0.7427 0.47452 0.0
H239 H 0.25483 0.7484 0.43948 0.0
C240 C 0.70763 0.51205 0.92028 0.0
C241 C 0.76495 0.53993 0.91872 0.0
C242 C 0.67542 0.47552 0.89958 0.0
C243 C 0.69989 0.46553 0.87691 0.0
C244 C 0.75722 0.49242 0.87584 0.0
C245 C 0.78937 0.52913 0.89646 0.0
C246 C 0.66786 0.43015 0.85323 0.0
C247 C 0.61324 0.39594 0.85319 0.0
C248 C 0.58167 0.36283 0.82887 0.0
C249 C 0.52949 0.31715 0.83301 0.0
C250 C 0.49775 0.28577 0.81076 0.0
C251 C 0.51744 0.29945 0.78376 0.0
H252 H 0.64016 0.41282 0.79744 0.0
C253 C 0.56948 0.34534 0.77952 0.0
C254 C 0.60113 0.3769 0.80177 0.0
H255 H 0.58555 0.35746 0.75895 0.0
H256 H 0.68746 0.51979 0.93704 0.0
H257 H 0.63162 0.45692 0.90121 0.0
H258 H 0.77738 0.48583 0.85868 0.0
H259 H 0.83342 0.54998 0.89458 0.0
H260 H 0.69097 0.43216 0.83514 0.0
H261 H 0.59025 0.39028 0.87182 0.0
H262 H 0.51313 0.30559 0.85357 0.0
H263 H 0.45776 0.25075 0.81476 0.0
C264 C 0.32176 0.46104 0.01178 0.0
C265 C 0.30513 0.40536 0.00965 0.0
C266 C 0.37255 0.50076 0.00194 0.0
C267 C 0.40808 0.48534 0.99039 0.0
C268 C 0.38944 0.42947 0.98617 0.0
C269 C 0.3381 0.38955 0.99577 0.0
C270 C 0.46652 0.52592 0.98589 0.0
C271 C 0.49444 0.5677 0.00357 0.0
C272 C 0.55454 0.59598 0.00586 0.0
C273 C 0.57795 0.60348 0.03214 0.0
C274 C 0.6332 0.62043 0.03514 0.0
C275 C 0.66618 0.63203 0.0119 0.0
H276 H 0.57103 0.60598 0.96214 0.0
C277 C 0.64394 0.62932 0.98566 0.0
C278 C 0.58817 0.61075 0.98261 0.0
H279 H 0.66869 0.63764 0.96745 0.0
H280 H 0.29618 0.47388 0.02196 0.0
H281 H 0.38493 0.54347 0.00458 0.0
H282 H 0.41593 0.41664 0.97703 0.0
H283 H 0.32561 0.34668 0.99379 0.0
H284 H 0.48874 0.51574 0.97118 0.0
H285 H 0.47301 0.57413 0.02026 0.0
H286 H 0.55271 0.59252 0.05033 0.0
H287 H 0.64964 0.62216 0.05554 0.0
C288 C 0.02059 0.6549 0.31809 0.0
C289 C 0.06643 0.67614 0.3355 0.0
C290 C -0.0005 0.60267 0.30656 0.0
C291 C 0.02444 0.57134 0.31219 0.0
C292 C 0.0731 0.59504 0.32761 0.0
C293 C 0.09348 0.64659 0.33946 0.0
C294 C -0.00188 0.51209 0.30554 0.0
C295 C 0.9435 0.47883 0.30616 0.0
C296 C 0.91826 0.42004 0.31346 0.0
C297 C 0.87394 0.3982 0.33158 0.0
C298 C 0.85634 0.34773 0.34412 0.0
C299 C 0.88164 0.3173 0.33817 0.0
H300 H 0.97442 0.40295 0.29144 0.0
C301 C 0.92245 0.33637 0.31807 0.0
C302 C 0.94102 0.38774 0.30588 0.0
H303 H 0.94215 0.31321 0.31304 0.0
H304 H -0.00078 0.67712 0.31473 0.0
H305 H 0.9628 0.58631 0.29409 0.0
H306 H 0.09348 0.57215 0.33207 0.0
H307 H 0.12937 0.66257 0.35257 0.0
H308 H 0.02413 0.49411 0.30627 0.0
H309 H 0.91751 0.49668 0.30774 0.0
H310 H 0.85539 0.42196 0.33762 0.0
H311 H 0.82421 0.33338 0.3593 0.0
C312 C 0.39379 0.06041 0.65694 0.0
C313 C 0.42123 0.10376 0.6756 0.0
C314 C 0.42277 0.04113 0.642 0.0
C315 C 0.47964 0.06487 0.64575 0.0
C316 C 0.50726 0.11112 0.6627 0.0
C317 C 0.47834 0.13 0.6777 0.0
C318 C 0.51071 0.03879 0.63596 0.0
C319 C 0.4877 0.98401 0.63407 0.0
C320 C 0.51915 0.95633 0.64062 0.0
C321 C 0.49283 0.90796 0.65609 0.0
C322 C 0.52303 0.88786 0.66916 0.0
C323 C 0.57999 0.91486 0.66637 0.0
H324 H 0.59697 0.01702 0.62324 0.0
C325 C 0.6059 0.95992 0.64862 0.0
C326 C 0.57567 0.98066 0.6358 0.0
H327 H 0.64975 0.98088 0.64592 0.0
H328 H 0.34981 0.0398 0.65487 0.0
H329 H 0.40027 0.00649 0.62843 0.0
H330 H 0.55104 0.13057 0.66583 0.0
H331 H 0.50055 0.16405 0.69169 0.0
H332 H 0.55495 0.06386 0.63699 0.0
H333 H 0.44351 0.9586 0.63474 0.0
H334 H 0.44931 0.88798 0.6599 0.0
H335 H 0.50203 0.85234 0.68237 0.0
C336 C 0.5587 0.67046 0.68647 0.0
C337 C 0.59648 0.7019 0.66604 0.0
C338 C 0.5364 0.61385 0.68726 0.0
C339 C 0.55236 0.58786 0.66799 0.0
C340 C 0.59131 0.61932 0.6481 0.0
C341 C 0.61258 0.67588 0.64682 0.0
C342 C 0.52969 0.52811 0.66893 0.0
C343 C 0.47609 0.49314 0.67259 0.0
C344 C 0.45362 0.43349 0.67433 0.0
C345 C 0.40505 0.39781 0.66033 0.0
C346 C 0.3837 0.34125 0.66163 0.0
C347 C 0.4096 0.31968 0.67782 0.0
H348 H 0.51658 0.43866 0.70185 0.0
C349 C 0.4573 0.35539 0.69247 0.0
C350 C 0.47954 0.41189 0.69048 0.0
H351 H 0.47809 0.33968 0.70497 0.0
H352 H 0.54553 0.68947 0.70153 0.0
H353 H 0.50716 0.59047 0.70313 0.0
H354 H 0.60444 0.59997 0.63322 0.0
H355 H 0.64185 0.69927 0.63096 0.0
H356 H 0.55719 0.51248 0.66539 0.0
H357 H 0.44776 0.50839 0.67319 0.0
H358 H 0.38425 0.41378 0.64798 0.0
H359 H 0.3467 0.31436 0.65026 0.0
C360 C 0.08097 0.41828 0.01512 0.0
C361 C 0.0837 0.38678 0.99357 0.0
C362 C 0.05309 0.44686 0.01151 0.0
C363 C 0.02708 0.44414 0.98633 0.0
C364 C 0.02787 0.41086 0.96526 0.0
C365 C 0.05636 0.38289 0.96872 0.0
C366 C -0.00371 0.47306 0.98202 0.0
C367 C 0.00981 0.52084 0.99437 0.0
C368 C 0.97476 0.54589 0.99291 0.0
C369 C -0.00234 0.60225 0.99792 0.0
C370 C 0.9642 0.6254 0.99985 0.0
C371 C 0.90731 0.59209 0.99737 0.0
H372 H 0.89833 0.46964 0.98601 0.0
C373 C 0.88472 0.53626 0.99139 0.0
C374 C 0.91792 0.51337 0.98919 0.0
H375 H 0.8409 0.5097 0.98928 0.0
H376 H 0.10158 0.42208 0.03453 0.0
H377 H 0.05159 0.47063 0.02852 0.0
H378 H 0.00728 0.40735 0.94587 0.0
H379 H 0.05755 0.35878 0.95177 0.0
H380 H 0.96198 0.45461 0.96777 0.0
H381 H 0.0474 0.54206 0.00631 0.0
H382 H 0.0413 0.62809 0.00106 0.0
H383 H 0.98245 0.6685 0.00466 0.0
C384 C 0.31268 0.89595 0.36192 0.0
C385 C 0.2851 0.90809 0.3415 0.0
C386 C 0.36897 0.92961 0.36567 0.0
C387 C 0.39839 0.97652 0.34937 0.0
C388 C 0.37047 0.99 0.3298 0.0
C389 C 0.31435 0.95551 0.32554 0.0
C390 C 0.45844 0.01088 0.35187 0.0
C391 C 0.49054 0.98856 0.35297 0.0
C392 C 0.55069 0.02247 0.35178 0.0
C393 C 0.57943 0.00759 0.33377 0.0
C394 C 0.63595 0.0409 0.33095 0.0
C395 C 0.66475 0.08852 0.34687 0.0
H396 H 0.55821 0.08159 0.38228 0.0
C397 C 0.63627 0.10221 0.36574 0.0
C398 C 0.57953 0.06974 0.36798 0.0
H399 H 0.6576 0.13905 0.37805 0.0
H400 H 0.29112 0.85928 0.37426 0.0
H401 H 0.38955 0.91878 0.38115 0.0
H402 H 0.39246 0.02615 0.31711 0.0
H403 H 0.29388 0.96573 0.30972 0.0
H404 H 0.47679 0.05498 0.34983 0.0
H405 H 0.47225 0.94435 0.35176 0.0
H406 H 0.55787 0.97113 0.3212 0.0
H407 H 0.65712 0.02956 0.31629 0.0
C408 C 0.23667 0.04836 0.80221 0.0
C409 C 0.24641 0.08572 0.78084 0.0
C410 C 0.20196 0.04269 0.82384 0.0
C411 C 0.17673 0.07465 0.82451 0.0
C412 C 0.18135 0.10677 0.8015 0.0
C413 C 0.21597 0.11244 0.77991 0.0
C414 C 0.15209 0.08202 0.84985 0.0
C415 C 0.16929 0.07812 0.87527 0.0
C416 C 0.16492 0.10753 0.89957 0.0
C417 C 0.20351 0.12163 0.92087 0.0
C418 C 0.20917 0.15893 0.94118 0.0
C419 C 0.17621 0.18289 0.94064 0.0
H420 H 0.09625 0.11567 0.88545 0.0
C421 C 0.13417 0.16494 0.92089 0.0
C422 C 0.12826 0.12732 0.90066 0.0
H423 H 0.10718 0.18165 0.92034 0.0
H424 H 0.2585 0.02612 0.8032 0.0
H425 H 0.19732 0.01542 0.84058 0.0
H426 H 0.16157 0.13106 0.80117 0.0
H427 H 0.22167 0.14071 0.76346 0.0
H428 H 0.12778 0.10147 0.84717 0.0
H429 H 0.19629 0.06156 0.87758 0.0
H430 H 0.23182 0.10648 0.92086 0.0
H431 H 0.24147 0.17127 0.95634 0.0
C432 C 0.98722 0.17781 0.26621 0.0
C433 C 0.93029 0.15203 0.2691 0.0
C434 C 0.00993 0.16751 0.2432 0.0
C435 C 0.97602 0.1307 0.22265 0.0
C436 C 0.91931 0.10171 0.22679 0.0
C437 C 0.89664 0.11215 0.24975 0.0
C438 C -0.00311 0.12837 0.19497 0.0
C439 C 0.05033 0.15104 0.18899 0.0
C440 C 0.0726 0.16764 0.16072 0.0
C441 C 0.12793 0.185 0.15636 0.0
C442 C 0.15412 0.21317 0.1324 0.0
C443 C 0.12552 0.22487 0.11234 0.0
H444 H 0.0005 0.16348 0.1419 0.0
C445 C 0.06911 0.20335 0.11555 0.0
C446 C 0.04292 0.17526 0.1395 0.0
H447 H 0.04577 0.21139 0.10043 0.0
H448 H 0.01431 0.20856 0.28082 0.0
H449 H 0.05377 0.19146 0.24092 0.0
H450 H 0.89211 0.07312 0.21142 0.0
H451 H 0.85256 0.09106 0.2515 0.0
H452 H 0.96693 0.1117 0.17845 0.0
H453 H 0.07997 0.16281 0.20557 0.0
H454 H 0.15186 0.17973 0.17227 0.0
H455 H 0.19756 0.22873 0.13047 0.0
C456 C 0.82586 0.96525 0.58973 0.0
C457 C 0.81037 0.99137 0.60924 0.0
C458 C 0.86235 -0.00462 0.56879 0.0
C459 C 0.88345 0.05221 0.56678 0.0
C460 C 0.87247 0.07882 0.58799 0.0
C461 C 0.83625 0.04875 0.60901 0.0
C462 C 0.91079 0.08411 0.54159 0.0
C463 C 0.90168 0.06103 0.51641 0.0
C464 C 0.90837 0.09223 0.49064 0.0
C465 C 0.87365 0.06436 0.46836 0.0
C466 C 0.86892 0.09327 0.44622 0.0
C467 C 0.89913 0.15076 0.44585 0.0
H468 H 0.97221 0.17212 0.50492 0.0
C469 C 0.93829 0.17831 0.46663 0.0
C470 C 0.94307 0.14933 0.4888 0.0
H471 H 0.96313 0.22255 0.46664 0.0
H472 H 0.80767 0.92115 0.58977 0.0
H473 H 0.87184 0.97354 0.55367 0.0
H474 H 0.88885 0.12266 0.58728 0.0
H475 H 0.82584 0.07025 0.62395 0.0
H476 H 0.93026 0.12828 0.54331 0.0
H477 H 0.87909 0.01678 0.51457 0.0
H478 H 0.84708 0.02031 0.46895 0.0
H479 H 0.83897 0.07065 0.43032 0.0
C480 C 0.78784 0.9004 0.76984 0.0
C481 C 0.7468 0.91173 0.7774 0.0
C482 C 0.8239 0.9005 0.7896 0.0
C483 C 0.81883 0.91103 0.81735 0.0
C484 C 0.78235 0.92894 0.82417 0.0
C485 C 0.74655 0.92927 0.80436 0.0
C486 C 0.84351 0.89511 0.84 0.0
C487 C 0.84917 0.85077 0.83774 0.0
C488 C 0.84786 0.81821 0.8619 0.0
C489 C 0.81696 0.76104 0.85967 0.0
C490 C 0.80726 0.72815 0.88269 0.0
C491 C 0.82965 0.75167 0.90829 0.0
H492 H 0.89697 0.88597 0.88948 0.0
C493 C 0.86368 0.80869 0.91035 0.0
C494 C 0.87226 0.84195 0.88731 0.0
H495 H 0.88148 0.82757 0.92995 0.0
H496 H 0.79001 0.88818 0.74902 0.0
H497 H 0.85335 0.88904 0.78336 0.0
H498 H 0.77821 0.93817 0.84531 0.0
H499 H 0.71599 0.93913 0.81076 0.0
H500 H 0.84531 0.91202 0.86027 0.0
H501 H 0.84251 0.83077 0.81791 0.0
H502 H 0.79785 0.74175 0.84032 0.0
H503 H 0.7814 0.68419 0.88056 0.0
C504 C 0.04424 0.85961 0.23805 0.0
C505 C 0.01315 0.82202 0.25872 0.0
C506 C 0.01902 0.86461 0.2143 0.0
C507 C 0.96214 0.83168 0.21066 0.0
C508 C 0.93079 0.79754 0.23232 0.0
C509 C 0.95597 0.79262 0.25608 0.0
C510 C 0.93437 0.82778 0.18399 0.0
C511 C 0.95978 0.83747 0.15951 0.0
C512 C 0.92924 0.81586 0.13325 0.0
C513 C 0.8756 0.80557 0.12947 0.0
C514 C 0.84404 0.77403 0.10724 0.0
C515 C 0.86559 0.75253 0.08831 0.0
H516 H -0.00584 0.80789 0.11476 0.0
C517 C 0.92106 0.76811 0.0904 0.0
C518 C 0.95259 0.79964 0.11264 0.0
H519 H 0.93918 0.75291 0.07595 0.0
H520 H 0.08836 0.8837 0.2397 0.0
H521 H 0.04444 0.89311 0.19861 0.0
H522 H 0.88682 0.77219 0.23025 0.0
H523 H 0.93074 0.76369 0.27172 0.0
H524 H 0.89012 0.80794 0.18446 0.0
H525 H 0.00347 0.85308 0.15896 0.0
H526 H 0.857 0.81961 0.14425 0.0
H527 H 0.80177 0.76385 0.10585 0.0
C528 C 0.17164 0.97712 0.60951 0.0
C529 C 0.19666 0.03394 0.61339 0.0
C530 C 0.14017 0.95245 0.58598 0.0
C531 C 0.1326 0.98413 0.56589 0.0
C532 C 0.15407 0.04017 0.57095 0.0
C533 C 0.18561 0.06482 0.59444 0.0
C534 C 0.11056 0.96254 0.53793 0.0
C535 C 0.08324 0.90888 0.53151 0.0
C536 C 0.07644 0.88758 0.50291 0.0
C537 C 0.11033 0.91973 0.48123 0.0
C538 C 0.11084 0.89553 0.45631 0.0
C539 C 0.07802 0.83871 0.45256 0.0
H540 H 0.01417 0.80568 0.51454 0.0
C541 C 0.04134 0.80732 0.4734 0.0
C542 C 0.04069 0.83151 0.4983 0.0
H543 H 0.0152 0.76346 0.47113 0.0
H544 H 0.17922 0.95209 0.62371 0.0
H545 H 0.12532 0.90936 0.58295 0.0
H546 H 0.14898 0.06565 0.55593 0.0
H547 H 0.20396 0.10868 0.59687 0.0
H548 H 0.12092 0.99261 0.52174 0.0
H549 H 0.06826 0.87871 0.54787 0.0
H550 H 0.13931 0.96285 0.48382 0.0
H551 H 0.13962 0.92093 0.44068 0.0
loop_
_geom_bond_atom_site_label_1
_geom_bond_atom_site_label_2
_geom_bond_distance
_geom_bond_site_symmetry_2
_ccdc_geom_bond_type
Zn0 O6 1.969 . S
Zn0 O7 1.965 1_556 S
Zn0 O11 2.024 . S
Zn0 O16 1.969 . S
Zn1 O8 1.969 . S
Zn1 O14 1.969 . S
Zn1 O15 1.965 . S
Zn1 O17 2.024 . S
C2 O3 1.229 . S
C2 O11 1.058 . S
O3 C2 1.229 . S
C4 O5 1.229 . S
C4 O17 1.058 . S
O5 C4 1.229 . S
O6 Zn0 1.969 . S
O6 C9 1.267 . S
O7 Zn0 1.965 1_554 S
O7 C18 1.260 . S
O8 Zn1 1.969 . S
O8 C18 1.258 . S
C9 O6 1.267 . S
C9 O10 1.228 . S
O10 C9 1.228 . S
O11 Zn0 2.024 . S
O11 C2 1.058 . S
C12 O13 1.228 . S
C12 O14 1.267 . S
O13 C12 1.228 . S
O14 Zn1 1.969 . S
O14 C12 1.267 . S
O15 Zn1 1.965 . S
O15 C19 1.260 . S
O16 Zn0 1.969 . S
O16 C19 1.258 1_556 S
O17 Zn1 2.024 . S
O17 C4 1.058 . S
C18 O7 1.260 . S
C18 O8 1.258 . S
C19 O15 1.260 . S
C19 O16 1.258 1_554 S
Zn20 O26 1.969 . S
Zn20 O27 1.965 . S
Zn20 O31 2.024 . S
Zn20 O36 1.969 . S
Zn21 O28 1.969 . S
Zn21 O34 1.969 . S
Zn21 O35 1.965 . S
Zn21 O37 2.024 . S
C22 O23 1.229 . S
C22 O31 1.058 . S
O23 C22 1.229 . S
C24 O25 1.229 . S
C24 O37 1.058 . S
O25 C24 1.229 . S
O26 Zn20 1.969 . S
O26 C29 1.267 . S
O27 Zn20 1.965 . S
O27 C38 1.260 . S
O28 Zn21 1.969 . S
O28 C38 1.258 . S
C29 O26 1.267 . S
C29 O30 1.228 . S
O30 C29 1.228 . S
O31 Zn20 2.024 . S
O31 C22 1.058 . S
C32 O33 1.228 . S
C32 O34 1.267 . S
O33 C32 1.228 . S
O34 Zn21 1.969 . S
O34 C32 1.267 . S
O35 Zn21 1.965 . S
O35 C39 1.260 . S
O36 Zn20 1.969 . S
O36 C39 1.258 . S
O37 Zn21 2.024 . S
O37 C24 1.058 . S
C38 O27 1.260 . S
C38 O28 1.258 . S
C39 O35 1.260 . S
C39 O36 1.258 . S
Zn40 O46 1.969 . S
Zn40 O47 1.965 . S
Zn40 O51 2.024 . S
Zn40 O56 1.969 . S
Zn41 O48 1.969 . S
Zn41 O54 1.969 . S
Zn41 O55 1.965 . S
Zn41 O57 2.024 . S
C42 O43 1.229 . S
C42 O51 1.058 . S
O43 C42 1.229 . S
C44 O45 1.229 . S
C44 O57 1.058 . S
O45 C44 1.229 . S
O46 Zn40 1.969 . S
O46 C49 1.267 . S
O47 Zn40 1.965 . S
O47 C58 1.260 . S
O48 Zn41 1.969 . S
O48 C58 1.258 . S
C49 O46 1.267 . S
C49 O50 1.228 . S
O50 C49 1.228 . S
O51 Zn40 2.024 . S
O51 C42 1.058 . S
C52 O53 1.228 . S
C52 O54 1.267 . S
O53 C52 1.228 . S
O54 Zn41 1.969 . S
O54 C52 1.267 . S
O55 Zn41 1.965 . S
O55 C59 1.260 . S
O56 Zn40 1.969 . S
O56 C59 1.258 . S
O57 Zn41 2.024 . S
O57 C44 1.058 . S
C58 O47 1.260 . S
C58 O48 1.258 . S
C59 O55 1.260 . S
C59 O56 1.258 . S
Zn60 O66 1.969 . S
Zn60 O67 1.965 1_556 S
Zn60 O71 2.024 . S
Zn60 O76 1.969 . S
Zn61 O68 1.969 . S
Zn61 O74 1.969 . S
Zn61 O75 1.965 . S
Zn61 O77 2.024 . S
C62 O63 1.229 . S
C62 O71 1.058 . S
O63 C62 1.229 . S
C64 O65 1.229 . S
C64 O77 1.058 . S
O65 C64 1.229 . S
O66 Zn60 1.969 . S
O66 C69 1.267 . S
O67 Zn60 1.965 1_554 S
O67 C78 1.260 . S
O68 Zn61 1.969 . S
O68 C78 1.258 . S
C69 O66 1.267 . S
C69 O70 1.228 . S
O70 C69 1.228 . S
O71 Zn60 2.024 . S
O71 C62 1.058 . S
C72 O73 1.228 . S
C72 O74 1.267 . S
O73 C72 1.228 . S
O74 Zn61 1.969 . S
O74 C72 1.267 . S
O75 Zn61 1.965 . S
O75 C79 1.260 . S
O76 Zn60 1.969 . S
O76 C79 1.258 1_556 S
O77 Zn61 2.024 . S
O77 C64 1.058 . S
C78 O67 1.260 . S
C78 O68 1.258 . S
C79 O75 1.260 . S
C79 O76 1.258 1_554 S
Zn80 O86 1.969 . S
Zn80 O87 1.965 . S
Zn80 O91 2.024 . S
Zn80 O96 1.969 . S
Zn81 O88 1.969 . S
Zn81 O94 1.969 . S
Zn81 O95 1.965 . S
Zn81 O97 2.024 . S
C82 O83 1.229 . S
C82 O91 1.058 . S
O83 C82 1.229 . S
C84 O85 1.229 . S
C84 O97 1.058 . S
O85 C84 1.229 . S
O86 Zn80 1.969 . S
O86 C89 1.267 . S
O87 Zn80 1.965 . S
O87 C98 1.260 . S
O88 Zn81 1.969 . S
O88 C98 1.258 . S
C89 O86 1.267 . S
C89 O90 1.228 . S
O90 C89 1.228 . S
O91 Zn80 2.024 . S
O91 C82 1.058 . S
C92 O93 1.228 . S
C92 O94 1.267 . S
O93 C92 1.228 . S
O94 Zn81 1.969 . S
O94 C92 1.267 . S
O95 Zn81 1.965 . S
O95 C99 1.260 . S
O96 Zn80 1.969 . S
O96 C99 1.258 . S
O97 Zn81 2.024 . S
O97 C84 1.058 . S
C98 O87 1.260 . S
C98 O88 1.258 . S
C99 O95 1.260 . S
C99 O96 1.258 . S
Zn100 O106 1.969 . S
Zn100 O107 1.965 . S
Zn100 O111 2.024 . S
Zn100 O116 1.969 . S
Zn101 O108 1.969 . S
Zn101 O114 1.969 . S
Zn101 O115 1.965 . S
Zn101 O117 2.024 . S
C102 O103 1.229 . S
C102 O111 1.058 . S
O103 C102 1.229 . S
C104 O105 1.229 . S
C104 O117 1.058 . S
O105 C104 1.229 . S
O106 Zn100 1.969 . S
O106 C109 1.267 . S
O107 Zn100 1.965 . S
O107 C118 1.260 . S
O108 Zn101 1.969 . S
O108 C118 1.258 . S
C109 O106 1.267 . S
C109 O110 1.228 . S
O110 C109 1.228 . S
O111 Zn100 2.024 . S
O111 C102 1.058 . S
C112 O113 1.228 . S
C112 O114 1.267 . S
O113 C112 1.228 . S
O114 Zn101 1.969 . S
O114 C112 1.267 . S
O115 Zn101 1.965 . S
O115 C119 1.260 . S
O116 Zn100 1.969 . S
O116 C119 1.258 . S
O117 Zn101 2.024 . S
O117 C104 1.058 . S
C118 O107 1.260 . S
C118 O108 1.258 . S
C119 O115 1.260 . S
C119 O116 1.258 . S
C120 C121 1.386 . S
C120 C122 1.383 . S
C120 H136 0.951 . S
C121 C120 1.386 . S
C121 C125 1.383 . S
C122 C120 1.383 . S
C122 C123 1.402 . S
C122 H137 0.951 . S
C123 C122 1.402 . S
C123 C124 1.375 . S
C123 C126 1.481 . S
C124 C123 1.375 . S
C124 C125 1.367 . S
C124 H138 0.951 . S
C125 C121 1.383 . S
C125 C124 1.367 . S
C125 H139 0.950 . S
C126 C123 1.481 . S
C126 C127 1.297 . S
C126 H140 0.950 . S
C127 C126 1.297 . S
C127 C128 1.479 . S
C127 H141 0.950 . S
C128 C127 1.479 . S
C128 C129 1.375 . S
C128 C134 1.404 . S
C129 C128 1.375 . S
C129 C130 1.369 . S
C129 H142 0.950 . S
C130 C129 1.369 . S
C130 C131 1.392 . S
C130 H143 0.951 . S
C131 C130 1.392 . S
C131 C133 1.384 . S
H132 C134 0.949 . S
C133 C131 1.384 . S
C133 C134 1.385 . S
C133 H135 0.950 . S
C134 C128 1.404 . S
C134 H132 0.949 . S
C134 C133 1.385 . S
H135 C133 0.950 . S
H136 C120 0.951 . S
H137 C122 0.951 . S
H138 C124 0.951 . S
H139 C125 0.950 . S
H140 C126 0.950 . S
H141 C127 0.950 . S
H142 C129 0.950 . S
H143 C130 0.951 . S
C144 C145 1.386 . S
C144 C146 1.383 . S
C144 H160 0.951 . S
C145 C144 1.386 . S
C145 C149 1.383 . S
C146 C144 1.383 . S
C146 C147 1.402 . S
C146 H161 0.951 . S
C147 C146 1.402 . S
C147 C148 1.375 . S
C147 C150 1.481 . S
C148 C147 1.375 . S
C148 C149 1.367 . S
C148 H162 0.951 . S
C149 C145 1.383 . S
C149 C148 1.367 . S
C149 H163 0.950 . S
C150 C147 1.481 . S
C150 C151 1.297 . S
C150 H164 0.950 . S
C151 C150 1.297 . S
C151 C152 1.479 . S
C151 H165 0.950 . S
C152 C151 1.479 . S
C152 C153 1.375 . S
C152 C158 1.404 . S
C153 C152 1.375 . S
C153 C154 1.369 . S
C153 H166 0.950 . S
C154 C153 1.369 . S
C154 C155 1.392 . S
C154 H167 0.951 . S
C155 C154 1.392 . S
C155 C157 1.384 . S
H156 C158 0.949 . S
C157 C155 1.384 . S
C157 C158 1.385 . S
C157 H159 0.950 . S
C158 C152 1.404 . S
C158 H156 0.949 . S
C158 C157 1.385 . S
H159 C157 0.950 . S
H160 C144 0.951 . S
H161 C146 0.951 . S
H162 C148 0.951 . S
H163 C149 0.950 . S
H164 C150 0.950 . S
H165 C151 0.950 . S
H166 C153 0.950 . S
H167 C154 0.951 . S
C168 C169 1.386 . S
C168 C170 1.383 . S
C168 H184 0.951 . S
C169 C168 1.386 . S
C169 C173 1.383 . S
C170 C168 1.383 . S
C170 C171 1.402 . S
C170 H185 0.951 . S
C171 C170 1.402 . S
C171 C172 1.375 . S
C171 C174 1.481 . S
C172 C171 1.375 . S
C172 C173 1.367 . S
C172 H186 0.951 . S
C173 C169 1.383 . S
C173 C172 1.367 . S
C173 H187 0.950 . S
C174 C171 1.481 . S
C174 C175 1.297 . S
C174 H188 0.950 . S
C175 C174 1.297 . S
C175 C176 1.479 . S
C175 H189 0.950 . S
C176 C175 1.479 . S
C176 C177 1.375 . S
C176 C182 1.404 . S
C177 C176 1.375 . S
C177 C178 1.369 . S
C177 H190 0.950 . S
C178 C177 1.369 . S
C178 C179 1.392 . S
C178 H191 0.951 . S
C179 C178 1.392 . S
C179 C181 1.384 . S
H180 C182 0.949 . S
C181 C179 1.384 . S
C181 C182 1.385 . S
C181 H183 0.950 . S
C182 C176 1.404 . S
C182 H180 0.949 . S
C182 C181 1.385 . S
H183 C181 0.950 . S
H184 C168 0.951 . S
H185 C170 0.951 . S
H186 C172 0.951 . S
H187 C173 0.950 . S
H188 C174 0.950 . S
H189 C175 0.950 . S
H190 C177 0.950 . S
H191 C178 0.951 . S
C192 C193 1.386 . S
C192 C194 1.383 . S
C192 H208 0.951 . S
C193 C192 1.386 . S
C193 C197 1.383 . S
C194 C192 1.383 . S
C194 C195 1.402 . S
C194 H209 0.951 . S
C195 C194 1.402 . S
C195 C196 1.375 . S
C195 C198 1.481 . S
C196 C195 1.375 . S
C196 C197 1.367 . S
C196 H210 0.951 . S
C197 C193 1.383 . S
C197 C196 1.367 . S
C197 H211 0.950 . S
C198 C195 1.481 . S
C198 C199 1.297 . S
C198 H212 0.950 . S
C199 C198 1.297 . S
C199 C200 1.479 . S
C199 H213 0.950 . S
C200 C199 1.479 . S
C200 C201 1.375 . S
C200 C206 1.404 . S
C201 C200 1.375 . S
C201 C202 1.369 . S
C201 H214 0.950 . S
C202 C201 1.369 . S
C202 C203 1.392 . S
C202 H215 0.951 . S
C203 C202 1.392 . S
C203 C205 1.384 . S
H204 C206 0.949 . S
C205 C203 1.384 . S
C205 C206 1.385 . S
C205 H207 0.950 . S
C206 C200 1.404 . S
C206 H204 0.949 . S
C206 C205 1.385 . S
H207 C205 0.950 . S
H208 C192 0.951 . S
H209 C194 0.951 . S
H210 C196 0.951 . S
H211 C197 0.950 . S
H212 C198 0.950 . S
H213 C199 0.950 . S
H214 C201 0.950 . S
H215 C202 0.951 . S
C216 C217 1.386 . S
C216 C218 1.383 . S
C216 H232 0.951 . S
C217 C216 1.386 . S
C217 C221 1.383 . S
C218 C216 1.383 . S
C218 C219 1.402 . S
C218 H233 0.951 . S
C219 C218 1.402 . S
C219 C220 1.375 . S
C219 C222 1.481 . S
C220 C219 1.375 . S
C220 C221 1.367 . S
C220 H234 0.951 . S
C221 C217 1.383 . S
C221 C220 1.367 . S
C221 H235 0.950 . S
C222 C219 1.481 . S
C222 C223 1.297 . S
C222 H236 0.950 . S
C223 C222 1.297 . S
C223 C224 1.479 . S
C223 H237 0.950 . S
C224 C223 1.479 . S
C224 C225 1.375 . S
C224 C230 1.404 . S
C225 C224 1.375 . S
C225 C226 1.369 . S
C225 H238 0.950 . S
C226 C225 1.369 . S
C226 C227 1.392 . S
C226 H239 0.951 . S
C227 C226 1.392 . S
C227 C229 1.384 . S
H228 C230 0.949 . S
C229 C227 1.384 . S
C229 C230 1.385 . S
C229 H231 0.950 . S
C230 C224 1.404 . S
C230 H228 0.949 . S
C230 C229 1.385 . S
H231 C229 0.950 . S
H232 C216 0.951 . S
H233 C218 0.951 . S
H234 C220 0.951 . S
H235 C221 0.950 . S
H236 C222 0.950 . S
H237 C223 0.950 . S
H238 C225 0.950 . S
H239 C226 0.951 . S
C240 C241 1.386 . S
C240 C242 1.383 . S
C240 H256 0.951 . S
C241 C240 1.386 . S
C241 C245 1.383 . S
C242 C240 1.383 . S
C242 C243 1.402 . S
C242 H257 0.951 . S
C243 C242 1.402 . S
C243 C244 1.375 . S
C243 C246 1.481 . S
C244 C243 1.375 . S
C244 C245 1.367 . S
C244 H258 0.951 . S
C245 C241 1.383 . S
C245 C244 1.367 . S
C245 H259 0.950 . S
C246 C243 1.481 . S
C246 C247 1.297 . S
C246 H260 0.950 . S
C247 C246 1.297 . S
C247 C248 1.479 . S
C247 H261 0.950 . S
C248 C247 1.479 . S
C248 C249 1.375 . S
C248 C254 1.404 . S
C249 C248 1.375 . S
C249 C250 1.369 . S
C249 H262 0.950 . S
C250 C249 1.369 . S
C250 C251 1.392 . S
C250 H263 0.951 . S
C251 C250 1.392 . S
C251 C253 1.384 . S
H252 C254 0.949 . S
C253 C251 1.384 . S
C253 C254 1.385 . S
C253 H255 0.950 . S
C254 C248 1.404 . S
C254 H252 0.949 . S
C254 C253 1.385 . S
H255 C253 0.950 . S
H256 C240 0.951 . S
H257 C242 0.951 . S
H258 C244 0.951 . S
H259 C245 0.950 . S
H260 C246 0.950 . S
H261 C247 0.950 . S
H262 C249 0.950 . S
H263 C250 0.951 . S
C264 C265 1.386 . S
C264 C266 1.383 . S
C264 H280 0.951 . S
C265 C264 1.386 . S
C265 C269 1.383 . S
C266 C264 1.383 . S
C266 C267 1.402 . S
C266 H281 0.951 . S
C267 C266 1.402 . S
C267 C268 1.375 . S
C267 C270 1.481 . S
C268 C267 1.375 . S
C268 C269 1.367 . S
C268 H282 0.951 1_554 S
C269 C265 1.383 . S
C269 C268 1.367 . S
C269 H283 0.950 1_554 S
C270 C267 1.481 . S
C270 C271 1.297 . S
C270 H284 0.950 . S
C271 C270 1.297 . S
C271 C272 1.479 . S
C271 H285 0.950 . S
C272 C271 1.479 . S
C272 C273 1.375 . S
C272 C278 1.404 . S
C273 C272 1.375 . S
C273 C274 1.369 . S
C273 H286 0.950 . S
C274 C273 1.369 . S
C274 C275 1.392 . S
C274 H287 0.951 . S
C275 C274 1.392 . S
C275 C277 1.384 . S
H276 C278 0.949 . S
C277 C275 1.384 . S
C277 C278 1.385 . S
C277 H279 0.950 . S
C278 C272 1.404 . S
C278 H276 0.949 . S
C278 C277 1.385 . S
H279 C277 0.950 . S
H280 C264 0.951 . S
H281 C266 0.951 . S
H282 C268 0.951 1_556 S
H283 C269 0.950 1_556 S
H284 C270 0.950 . S
H285 C271 0.950 . S
H286 C273 0.950 . S
H287 C274 0.951 . S
C288 C289 1.386 . S
C288 C290 1.383 . S
C288 H304 0.951 . S
C289 C288 1.386 . S
C289 C293 1.383 . S
C290 C288 1.383 . S
C290 C291 1.402 . S
C290 H305 0.951 1_455 S
C291 C290 1.402 . S
C291 C292 1.375 . S
C291 C294 1.481 . S
C292 C291 1.375 . S
C292 C293 1.367 . S
C292 H306 0.951 . S
C293 C289 1.383 . S
C293 C292 1.367 . S
C293 H307 0.950 . S
C294 C291 1.481 . S
C294 C295 1.297 1_455 S
C294 H308 0.950 . S
C295 C294 1.297 1_655 S
C295 C296 1.479 . S
C295 H309 0.950 . S
C296 C295 1.479 . S
C296 C297 1.375 . S
C296 C302 1.404 . S
C297 C296 1.375 . S
C297 C298 1.369 . S
C297 H310 0.950 . S
C298 C297 1.369 . S
C298 C299 1.392 . S
C298 H311 0.951 . S
C299 C298 1.392 . S
C299 C301 1.384 . S
H300 C302 0.949 . S
C301 C299 1.384 . S
C301 C302 1.385 . S
C301 H303 0.950 . S
C302 C296 1.404 . S
C302 H300 0.949 . S
C302 C301 1.385 . S
H303 C301 0.950 . S
H304 C288 0.951 . S
H305 C290 0.951 1_655 S
H306 C292 0.951 . S
H307 C293 0.950 . S
H308 C294 0.950 . S
H309 C295 0.950 . S
H310 C297 0.950 . S
H311 C298 0.951 . S
C312 C313 1.386 . S
C312 C314 1.383 . S
C312 H328 0.951 . S
C313 C312 1.386 . S
C313 C317 1.383 . S
C314 C312 1.383 . S
C314 C315 1.402 . S
C314 H329 0.951 1_545 S
C315 C314 1.402 . S
C315 C316 1.375 . S
C315 C318 1.481 . S
C316 C315 1.375 . S
C316 C317 1.367 . S
C316 H330 0.951 . S
C317 C313 1.383 . S
C317 C316 1.367 . S
C317 H331 0.950 . S
C318 C315 1.481 . S
C318 C319 1.297 1_545 S
C318 H332 0.950 . S
C319 C318 1.297 1_565 S
C319 C320 1.479 . S
C319 H333 0.950 . S
C320 C319 1.479 . S
C320 C321 1.375 . S
C320 C326 1.404 . S
C321 C320 1.375 . S
C321 C322 1.369 . S
C321 H334 0.950 . S
C322 C321 1.369 . S
C322 C323 1.392 . S
C322 H335 0.951 . S
C323 C322 1.392 . S
C323 C325 1.384 . S
H324 C326 0.949 1_545 S
C325 C323 1.384 . S
C325 C326 1.385 . S
C325 H327 0.950 . S
C326 C320 1.404 . S
C326 H324 0.949 1_565 S
C326 C325 1.385 . S
H327 C325 0.950 . S
H328 C312 0.951 . S
H329 C314 0.951 1_565 S
H330 C316 0.951 . S
H331 C317 0.950 . S
H332 C318 0.950 . S
H333 C319 0.950 . S
H334 C321 0.950 . S
H335 C322 0.951 . S
C336 C337 1.386 . S
C336 C338 1.383 . S
C336 H352 0.951 . S
C337 C336 1.386 . S
C337 C341 1.383 . S
C338 C336 1.383 . S
C338 C339 1.402 . S
C338 H353 0.951 . S
C339 C338 1.402 . S
C339 C340 1.375 . S
C339 C342 1.481 . S
C340 C339 1.375 . S
C340 C341 1.367 . S
C340 H354 0.951 . S
C341 C337 1.383 . S
C341 C340 1.367 . S
C341 H355 0.950 . S
C342 C339 1.481 . S
C342 C343 1.297 . S
C342 H356 0.950 . S
C343 C342 1.297 . S
C343 C344 1.479 . S
C343 H357 0.950 . S
C344 C343 1.479 . S
C344 C345 1.375 . S
C344 C350 1.404 . S
C345 C344 1.375 . S
C345 C346 1.369 . S
C345 H358 0.950 . S
C346 C345 1.369 . S
C346 C347 1.392 . S
C346 H359 0.951 . S
C347 C346 1.392 . S
C347 C349 1.384 . S
H348 C350 0.949 . S
C349 C347 1.384 . S
C349 C350 1.385 . S
C349 H351 0.950 . S
C350 C344 1.404 . S
C350 H348 0.949 . S
C350 C349 1.385 . S
H351 C349 0.950 . S
H352 C336 0.951 . S
H353 C338 0.951 . S
H354 C340 0.951 . S
H355 C341 0.950 . S
H356 C342 0.950 . S
H357 C343 0.950 . S
H358 C345 0.950 . S
H359 C346 0.951 . S
C360 C361 1.392 . S
C360 C362 1.383 . S
C360 H376 0.951 . S
C361 C360 1.392 . S
C361 C365 1.374 1_554 S
C362 C360 1.383 . S
C362 C363 1.402 1_554 S
C362 H377 0.951 . S
C363 C362 1.402 1_556 S
C363 C364 1.375 . S
C363 C366 1.481 . S
C364 C363 1.375 . S
C364 C365 1.367 . S
C364 H378 0.951 1_455 S
C365 C361 1.374 1_556 S
C365 C364 1.367 . S
C365 H379 0.950 . S
C366 C363 1.481 . S
C366 C367 1.297 . S
C366 H380 0.950 1_455 S
C367 C366 1.297 . S
C367 C368 1.479 1_455 S
C367 H381 0.950 1_556 S
C368 C367 1.479 1_655 S
C368 C369 1.375 1_556 S
C368 C374 1.404 . S
C369 C368 1.375 1_554 S
C369 C370 1.369 . S
C369 H382 0.950 1_655 S
C370 C369 1.369 . S
C370 C371 1.390 1_554 S
C370 H383 0.951 . S
C371 C370 1.390 1_556 S
C371 C373 1.387 . S
H372 C374 0.949 . S
C373 C371 1.387 . S
C373 C374 1.385 . S
C373 H375 0.950 . S
C374 C368 1.404 . S
C374 H372 0.949 . S
C374 C373 1.385 . S
H375 C373 0.950 . S
H376 C360 0.951 . S
H377 C362 0.951 . S
H378 C364 0.951 1_655 S
H379 C365 0.950 . S
H380 C366 0.950 1_655 S
H381 C367 0.950 1_554 S
H382 C369 0.950 1_455 S
H383 C370 0.951 . S
C384 C385 1.386 . S
C384 C386 1.383 . S
C384 H400 0.951 . S
C385 C384 1.386 . S
C385 C389 1.383 . S
C386 C384 1.383 . S
C386 C387 1.402 . S
C386 H401 0.951 . S
C387 C386 1.402 . S
C387 C388 1.375 . S
C387 C390 1.481 1_565 S
C388 C387 1.375 . S
C388 C389 1.367 . S
C388 H402 0.951 1_565 S
C389 C385 1.383 . S
C389 C388 1.367 . S
C389 H403 0.950 . S
C390 C387 1.481 1_545 S
C390 C391 1.297 . S
C390 H404 0.950 . S
C391 C390 1.297 . S
C391 C392 1.479 . S
C391 H405 0.950 1_545 S
C392 C391 1.479 . S
C392 C393 1.375 . S
C392 C398 1.404 . S
C393 C392 1.375 . S
C393 C394 1.369 . S
C393 H406 0.965 . S
C394 C393 1.369 . S
C394 C395 1.392 . S
C394 H407 0.951 . S
C395 C394 1.392 . S
C395 C397 1.384 . S
H396 C398 0.949 . S
C397 C395 1.384 . S
C397 C398 1.385 . S
C397 H399 0.950 . S
C398 C392 1.404 . S
C398 H396 0.949 . S
C398 C397 1.385 . S
H399 C397 0.950 . S
H400 C384 0.951 . S
H401 C386 0.951 . S
H402 C388 0.951 1_545 S
H403 C389 0.950 . S
H404 C390 0.950 . S
H405 C391 0.950 1_565 S
H406 C393 0.965 . S
H407 C394 0.951 . S
C408 C409 1.386 . S
C408 C410 1.383 . S
C408 H424 0.951 . S
C409 C408 1.386 . S
C409 C413 1.383 . S
C410 C408 1.383 . S
C410 C411 1.402 . S
C410 H425 0.951 . S
C411 C410 1.402 . S
C411 C412 1.375 . S
C411 C414 1.481 . S
C412 C411 1.375 . S
C412 C413 1.367 . S
C412 H426 0.951 . S
C413 C409 1.383 . S
C413 C412 1.367 . S
C413 H427 0.950 . S
C414 C411 1.481 . S
C414 C415 1.297 . S
C414 H428 0.950 . S
C415 C414 1.297 . S
C415 C416 1.479 . S
C415 H429 0.950 . S
C416 C415 1.479 . S
C416 C417 1.375 . S
C416 C422 1.404 . S
C417 C416 1.375 . S
C417 C418 1.369 . S
C417 H430 0.950 . S
C418 C417 1.369 . S
C418 C419 1.392 . S
C418 H431 0.951 . S
C419 C418 1.392 . S
C419 C421 1.384 . S
H420 C422 0.949 . S
C421 C419 1.384 . S
C421 C422 1.385 . S
C421 H423 0.950 . S
C422 C416 1.404 . S
C422 H420 0.949 . S
C422 C421 1.385 . S
H423 C421 0.950 . S
H424 C408 0.951 . S
H425 C410 0.951 . S
H426 C412 0.951 . S
H427 C413 0.950 . S
H428 C414 0.950 . S
H429 C415 0.950 . S
H430 C417 0.950 . S
H431 C418 0.951 . S
C432 C433 1.386 . S
C432 C434 1.383 . S
C432 H448 0.951 . S
C433 C432 1.386 . S
C433 C437 1.383 . S
C434 C432 1.383 . S
C434 C435 1.402 . S
C434 H449 0.951 1_655 S
C435 C434 1.402 . S
C435 C436 1.375 . S
C435 C438 1.481 . S
C436 C435 1.375 . S
C436 C437 1.367 . S
C436 H450 0.951 . S
C437 C433 1.383 . S
C437 C436 1.367 . S
C437 H451 0.950 . S
C438 C435 1.481 . S
C438 C439 1.297 1_655 S
C438 H452 0.950 . S
C439 C438 1.297 1_455 S
C439 C440 1.479 . S
C439 H453 0.950 . S
C440 C439 1.479 . S
C440 C441 1.375 . S
C440 C446 1.404 . S
C441 C440 1.375 . S
C441 C442 1.369 . S
C441 H454 0.950 . S
C442 C441 1.369 . S
C442 C443 1.392 . S
C442 H455 0.951 . S
C443 C442 1.392 . S
C443 C445 1.384 . S
H444 C446 0.949 . S
C445 C443 1.384 . S
C445 C446 1.385 . S
C445 H447 0.950 . S
C446 C440 1.404 . S
C446 H444 0.949 . S
C446 C445 1.385 . S
H447 C445 0.950 . S
H448 C432 0.951 . S
H449 C434 0.951 1_455 S
H450 C436 0.951 . S
H451 C437 0.950 . S
H452 C438 0.950 . S
H453 C439 0.950 . S
H454 C441 0.950 . S
H455 C442 0.951 . S
C456 C457 1.386 . S
C456 C458 1.383 . S
C456 H472 0.951 . S
C457 C456 1.386 . S
C457 C461 1.383 . S
C458 C456 1.383 . S
C458 C459 1.402 . S
C458 H473 0.951 . S
C459 C458 1.402 . S
C459 C460 1.375 1_565 S
C459 C462 1.481 1_565 S
C460 C459 1.375 1_545 S
C460 C461 1.367 1_545 S
C460 H474 0.951 . S
C461 C457 1.383 . S
C461 C460 1.367 1_565 S
C461 H475 0.950 . S
C462 C459 1.481 1_545 S
C462 C463 1.297 . S
C462 H476 0.950 . S
C463 C462 1.297 . S
C463 C464 1.479 . S
C463 H477 0.950 . S
C464 C463 1.479 . S
C464 C465 1.375 . S
C464 C470 1.404 . S
C465 C464 1.375 . S
C465 C466 1.369 . S
C465 H478 0.950 . S
C466 C465 1.369 . S
C466 C467 1.392 . S
C466 H479 0.951 . S
C467 C466 1.392 . S
C467 C469 1.384 . S
H468 C470 0.949 . S
C469 C467 1.384 . S
C469 C470 1.385 . S
C469 H471 0.950 . S
C470 C464 1.404 . S
C470 H468 0.949 . S
C470 C469 1.385 . S
H471 C469 0.950 . S
H472 C456 0.951 . S
H473 C458 0.951 . S
H474 C460 0.951 . S
H475 C461 0.950 . S
H476 C462 0.950 . S
H477 C463 0.950 . S
H478 C465 0.950 . S
H479 C466 0.951 . S
C480 C481 1.386 . S
C480 C482 1.383 . S
C480 H496 0.951 . S
C481 C480 1.386 . S
C481 C485 1.383 . S
C482 C480 1.383 . S
C482 C483 1.402 . S
C482 H497 0.951 . S
C483 C482 1.402 . S
C483 C484 1.375 . S
C483 C486 1.481 . S
C484 C483 1.375 . S
C484 C485 1.367 . S
C484 H498 0.951 . S
C485 C481 1.383 . S
C485 C484 1.367 . S
C485 H499 0.950 . S
C486 C483 1.481 . S
C486 C487 1.297 . S
C486 H500 0.950 . S
C487 C486 1.297 . S
C487 C488 1.479 . S
C487 H501 0.950 . S
C488 C487 1.479 . S
C488 C489 1.375 . S
C488 C494 1.404 . S
C489 C488 1.375 . S
C489 C490 1.369 . S
C489 H502 0.950 . S
C490 C489 1.369 . S
C490 C491 1.392 . S
C490 H503 0.951 . S
C491 C490 1.392 . S
C491 C493 1.384 . S
H492 C494 0.949 . S
C493 C491 1.384 . S
C493 C494 1.385 . S
C493 H495 0.950 . S
C494 C488 1.404 . S
C494 H492 0.949 . S
C494 C493 1.385 . S
H495 C493 0.950 . S
H496 C480 0.951 . S
H497 C482 0.951 . S
H498 C484 0.951 . S
H499 C485 0.950 . S
H500 C486 0.950 . S
H501 C487 0.950 . S
H502 C489 0.950 . S
H503 C490 0.951 . S
C504 C505 1.386 . S
C504 C506 1.383 . S
C504 H520 0.951 . S
C505 C504 1.386 . S
C505 C509 1.383 . S
C506 C504 1.383 . S
C506 C507 1.402 . S
C506 H521 0.951 . S
C507 C506 1.402 . S
C507 C508 1.375 . S
C507 C510 1.481 1_455 S
C508 C507 1.375 . S
C508 C509 1.367 . S
C508 H522 0.951 1_455 S
C509 C505 1.383 . S
C509 C508 1.367 . S
C509 H523 0.950 . S
C510 C507 1.481 1_655 S
C510 C511 1.297 . S
C510 H524 0.950 . S
C511 C510 1.297 . S
C511 C512 1.479 . S
C511 H525 0.950 1_655 S
C512 C511 1.479 . S
C512 C513 1.375 . S
C512 C518 1.404 . S
C513 C512 1.375 . S
C513 C514 1.369 . S
C513 H526 0.950 . S
C514 C513 1.369 . S
C514 C515 1.392 . S
C514 H527 0.951 . S
C515 C514 1.392 . S
C515 C517 1.384 . S
H516 C518 0.949 . S
C517 C515 1.384 . S
C517 C518 1.385 . S
C517 H519 0.950 . S
C518 C512 1.404 . S
C518 H516 0.949 . S
C518 C517 1.385 . S
H519 C517 0.950 . S
H520 C504 0.951 . S
H521 C506 0.951 . S
H522 C508 0.951 1_655 S
H523 C509 0.950 . S
H524 C510 0.950 . S
H525 C511 0.950 1_455 S
H526 C513 0.950 . S
H527 C514 0.951 . S
C528 C529 1.386 . S
C528 C530 1.383 . S
C528 H544 0.951 . S
C529 C528 1.386 . S
C529 C533 1.383 . S
C530 C528 1.383 . S
C530 C531 1.402 . S
C530 H545 0.951 . S
C531 C530 1.402 . S
C531 C532 1.375 . S
C531 C534 1.481 1_545 S
C532 C531 1.375 . S
C532 C533 1.367 . S
C532 H546 0.951 . S
C533 C529 1.383 . S
C533 C532 1.367 . S
C533 H547 0.950 . S
C534 C531 1.481 1_565 S
C534 C535 1.297 . S
C534 H548 0.950 . S
C535 C534 1.297 . S
C535 C536 1.479 . S
C535 H549 0.950 . S
C536 C535 1.479 . S
C536 C537 1.375 . S
C536 C542 1.404 . S
C537 C536 1.375 . S
C537 C538 1.369 . S
C537 H550 0.950 . S
C538 C537 1.369 . S
C538 C539 1.392 . S
C538 H551 0.951 . S
C539 C538 1.392 . S
C539 C541 1.384 . S
H540 C542 0.949 . S
C541 C539 1.384 . S
C541 C542 1.385 . S
C541 H543 0.950 . S
C542 C536 1.404 . S
C542 H540 0.949 . S
C542 C541 1.385 . S
H543 C541 0.950 . S
H544 C528 0.951 . S
H545 C530 0.951 . S
H546 C532 0.951 . S
H547 C533 0.950 . S
H548 C534 0.950 . S
H549 C535 0.950 . S
H550 C537 0.950 . S
H551 C538 0.951 . S
C121 C82 1.026 . S
C131 C12 1.012 . S
C145 C102 0.940 . S
C155 C32 0.946 . S
C169 C2 1.025 . S
C179 C52 1.009 . S
C193 C22 0.930 . S
C203 C72 0.997 . S
C217 C42 0.947 . S
C227 C92 0.945 . S
C241 C62 0.925 . S
C251 C112 0.965 . S
C265 C18 0.913 . S
C275 C78 0.831 . S
C289 C98 0.879 . S
C299 C38 0.847 . S
C313 C118 0.858 . S
C323 C58 0.884 . S
C337 C59 0.963 . S
C347 C119 1.012 . S
C361 C19 0.967 . S
C371 C79 1.007 1_556 S
C385 C99 1.009 . S
C395 C39 0.908 . S
C409 C104 0.890 . S
C419 C9 0.878 . S
C433 C29 1.001 . S
C443 C4 1.020 . S
C457 C49 0.968 . S
C467 C24 0.793 . S
C481 C44 0.955 . S
C491 C69 1.051 . S
C505 C89 0.907 . S
C515 C64 0.919 . S
C529 C109 1.018 . S
C539 C84 0.868 . S
