# Generated by pormake.
# Topology vby, (6)-cn, num edge types: 1
# Building blocks:
#     Node 0, Type 0, BuildingBlock: INOVEN_clean_sbu_0, # of connection points: 6
#     Node 1, Type 0, BuildingBlock: INOVEN_clean_sbu_0, # of connection points: 6
#     Node 2, Type 0, BuildingBlock: INOVEN_clean_sbu_0, # of connection points: 6
#     Node 3, Type 0, BuildingBlock: INOVEN_clean_sbu_0, # of connection points: 6
#     Node 4, Type 0, BuildingBlock: INOVEN_clean_sbu_0, # of connection points: 6
#     Node 5, Type 0, BuildingBlock: INOVEN_clean_sbu_0, # of connection points: 6
#     Node 6, Type 0, BuildingBlock: INOVEN_clean_sbu_0, # of connection points: 6
#     Node 7, Type 0, BuildingBlock: INOVEN_clean_sbu_0, # of connection points: 6
#     Edge 8, Type (0, 0), BuildingBlock: ZUJKAS_clean_linker_0, # of connection points: 2
#     Edge 9, Type (0, 0), BuildingBlock: ZUJKAS_clean_linker_0, # of connection points: 2
#     Edge 10, Type (0, 0), BuildingBlock: ZUJKAS_clean_linker_0, # of connection points: 2
#     Edge 11, Type (0, 0), BuildingBlock: ZUJKAS_clean_linker_0, # of connection points: 2
#     Edge 12, Type (0, 0), BuildingBlock: ZUJKAS_clean_linker_0, # of connection points: 2
#     Edge 13, Type (0, 0), BuildingBlock: ZUJKAS_clean_linker_0, # of connection points: 2
#     Edge 14, Type (0, 0), BuildingBlock: ZUJKAS_clean_linker_0, # of connection points: 2
#     Edge 15, Type (0, 0), BuildingBlock: ZUJKAS_clean_linker_0, # of connection points: 2
#     Edge 16, Type (0, 0), BuildingBlock: ZUJKAS_clean_linker_0, # of connection points: 2
#     Edge 17, Type (0, 0), BuildingBlock: ZUJKAS_clean_linker_0, # of connection points: 2
#     Edge 18, Type (0, 0), BuildingBlock: ZUJKAS_clean_linker_0, # of connection points: 2
#     Edge 19, Type (0, 0), BuildingBlock: ZUJKAS_clean_linker_0, # of connection points: 2
#     Edge 20, Type (0, 0), BuildingBlock: ZUJKAS_clean_linker_0, # of connection points: 2
#     Edge 21, Type (0, 0), BuildingBlock: ZUJKAS_clean_linker_0, # of connection points: 2
#     Edge 22, Type (0, 0), BuildingBlock: ZUJKAS_clean_linker_0, # of connection points: 2
#     Edge 23, Type (0, 0), BuildingBlock: ZUJKAS_clean_linker_0, # of connection points: 2
#     Edge 24, Type (0, 0), BuildingBlock: ZUJKAS_clean_linker_0, # of connection points: 2
#     Edge 25, Type (0, 0), BuildingBlock: ZUJKAS_clean_linker_0, # of connection points: 2
#     Edge 26, Type (0, 0), BuildingBlock: ZUJKAS_clean_linker_0, # of connection points: 2
#     Edge 27, Type (0, 0), BuildingBlock: ZUJKAS_clean_linker_0, # of connection points: 2
#     Edge 28, Type (0, 0), BuildingBlock: ZUJKAS_clean_linker_0, # of connection points: 2
#     Edge 29, Type (0, 0), BuildingBlock: ZUJKAS_clean_linker_0, # of connection points: 2
#     Edge 30, Type (0, 0), BuildingBlock: ZUJKAS_clean_linker_0, # of connection points: 2
#     Edge 31, Type (0, 0), BuildingBlock: ZUJKAS_clean_linker_0, # of connection points: 2
# Relax obj value: 0.194
# Max RMSD: 0.215
# Mean RMSD: 0.215
data_MOF--net-vby--node1-INOVEN_clean_sbu_0--edge1-ZUJKAS_clean_linker_0
_symmetry_space_group_name_H-M    P1
_symmetry_Int_Tables_number       1
_symmetry_cell_setting            triclinic
loop_
_symmetry_equiv_pos_as_xyz
'x, y, z'
_cell_length_a     20.198647
_cell_length_b     121.09994
_cell_length_c     38.269267
_cell_angle_alpha  90.126272
_cell_angle_beta   83.747496
_cell_angle_gamma 90.104528
loop_
_atom_site_label
_atom_site_type_symbol
_atom_site_fract_x
_atom_site_fract_y
_atom_site_fract_z
_atom_type_partial_charge
Gd0 Gd 0.08004 0.39737 0.01373 0.0
Gd1 Gd 0.07001 0.37307 0.02364 0.0
C2 C 0.93337 0.38587 0.02472 0.0
C3 C 0.07755 0.41802 0.99438 0.0
C4 C 0.05828 0.42968 0.00305 0.0
C5 C 0.08132 0.43529 0.03165 0.0
C6 C 1.02424 0.43576 0.97941 0.0
C7 C 0.04074 0.45295 0.0112 0.0
C8 C 1.01545 0.44721 0.98343 0.0
C9 C 0.07251 0.44676 0.03571 0.0
C10 C 0.07882 0.39102 0.08247 0.0
C11 C 0.21669 0.3843 0.0098 0.0
C12 C 0.07631 0.3524 0.04234 0.0
C13 C 0.11433 0.34184 0.03787 0.0
C14 C 0.12422 0.33632 0.00528 0.0
C15 C 0.13406 0.3365 0.06761 0.0
C16 C 0.16909 0.3201 0.03281 0.0
C17 C 0.16116 0.32581 0.06514 0.0
C18 C 0.15135 0.32562 0.00278 0.0
C19 C 0.06249 0.37959 0.95607 0.0
O20 O 0.96989 0.39405 0.00988 0.0
O21 O 0.96226 0.37742 0.03883 0.0
O22 O 0.12473 0.41363 0.01046 0.0
O23 O 0.03198 0.41085 0.98784 0.0
O24 O 0.11138 0.39935 0.06833 0.0
O25 O 0.0439 0.38689 0.06038 0.0
O26 O 0.18094 0.37608 0.0246 0.0
O27 O 0.18693 0.39282 0.99678 0.0
O28 O 0.04564 0.35586 0.01611 0.0
O29 O 0.1005 0.36052 0.0597 0.0
O30 O 0.02936 0.37151 0.97154 0.0
O31 O 0.10237 0.38355 0.97622 0.0
H32 H 0.10836 0.43091 0.05023 0.0
H33 H 1.00643 0.43171 0.95694 0.0
H34 H 0.98962 0.45159 0.96435 0.0
H35 H 0.09321 0.45083 0.05728 0.0
H36 H 0.10911 0.34012 0.98182 0.0
H37 H 0.12666 0.34047 0.09313 0.0
H38 H 0.17522 0.32199 0.08877 0.0
H39 H 0.15597 0.32153 0.97747 0.0
Gd40 Gd 0.98722 0.65284 0.01842 0.0
Gd41 Gd 0.97787 0.62845 0.03031 0.0
C42 C 0.84089 0.6415 0.03337 0.0
C43 C 0.98052 0.67324 0.99727 0.0
C44 C 0.94362 0.6839 0.00188 0.0
C45 C 0.92954 0.68896 0.03501 0.0
C46 C 0.92871 0.68971 0.972 0.0
C47 C 0.89013 0.7057 0.00786 0.0
C48 C 0.90229 0.70043 0.9749 0.0
C49 C 0.90301 0.6997 0.03796 0.0
C50 C 0.99427 0.64697 0.08655 0.0
C51 C 0.12393 0.6401 0.01898 0.0
C52 C 0.98115 0.60794 0.05108 0.0
C53 C 0.99928 0.59625 0.04235 0.0
C54 C 0.97542 0.59069 0.01387 0.0
C55 C 0.03355 0.59011 0.06575 0.0
C56 C 1.01578 0.57297 0.03398 0.0
C57 C 0.04182 0.57866 0.06163 0.0
C58 C 0.98373 0.57922 0.0097 0.0
C59 C 0.97856 0.63439 0.96123 0.0
O60 O 0.87639 0.64968 0.01803 0.0
O61 O 0.87081 0.63308 0.04686 0.0
O62 O 1.01445 0.67005 0.02259 0.0
O63 O 0.95308 0.66498 0.98209 0.0
O64 O 1.02492 0.65526 0.07088 0.0
O65 O 0.95576 0.64257 0.06647 0.0
O66 O 0.08744 0.63204 0.0346 0.0
O67 O 0.09508 0.64836 0.00388 0.0
O68 O 0.93219 0.6123 0.03629 0.0
O69 O 1.028 0.6151 0.05567 0.0
O70 O 0.94679 0.62604 0.97578 0.0
O71 O 1.01342 0.63867 0.98306 0.0
H72 H 0.9408 0.68476 0.0586 0.0
H73 H 0.93931 0.68606 0.94612 0.0
H74 H 0.89199 0.70463 0.95115 0.0
H75 H 0.89493 0.70345 0.06378 0.0
H76 H 0.94824 0.59513 0.99548 0.0
H77 H 0.05203 0.59413 0.08809 0.0
H78 H 0.06789 0.57423 0.08051 0.0
H79 H 0.96249 0.57518 0.98822 0.0
Gd80 Gd 0.06084 0.65314 0.52465 0.0
Gd81 Gd 0.069 0.62878 0.51264 0.0
C82 C 0.20655 0.64165 0.50996 0.0
C83 C 0.06947 0.67358 0.54557 0.0
C84 C 0.10695 0.68417 0.53985 0.0
C85 C 0.11429 0.6895 0.50699 0.0
C86 C 0.12956 0.68965 0.56871 0.0
C87 C 0.16296 0.7058 0.53253 0.0
C88 C 0.15729 0.70029 0.56513 0.0
C89 C 0.14191 0.70016 0.5034 0.0
C90 C 0.05425 0.64727 0.45641 0.0
C91 C 0.92324 0.64047 0.52481 0.0
C92 C 0.06523 0.60829 0.49162 0.0
C93 C 0.04232 0.59677 0.49925 0.0
C94 C 0.04377 0.59196 0.53257 0.0
C95 C 1.02664 0.59006 0.47136 0.0
C96 C 1.01817 0.57374 0.50924 0.0
C97 C 1.01475 0.57872 0.47622 0.0
C98 C 0.0317 0.58059 0.53751 0.0
C99 C 0.06867 0.63476 0.58173 0.0
O100 O 0.17136 0.64984 0.52544 0.0
O101 O 0.1763 0.63328 0.49619 0.0
O102 O 0.03309 0.67034 0.52127 0.0
O103 O 0.09784 0.66533 0.56015 0.0
O104 O 1.02388 0.65558 0.47205 0.0
O105 O 0.09231 0.64285 0.47659 0.0
O106 O 0.95907 0.63228 0.50953 0.0
O107 O 0.95273 0.6488 0.5394 0.0
O108 O 0.11038 0.61231 0.51003 0.0
O109 O 1.02239 0.61574 0.48386 0.0
O110 O 0.10057 0.62645 0.56701 0.0
O111 O 0.03376 0.63905 0.56 0.0
H112 H 0.09732 0.68555 0.48415 0.0
H113 H 0.12383 0.68584 0.59445 0.0
H114 H 0.17204 0.70435 0.58831 0.0
H115 H 0.14633 0.70401 0.47774 0.0
H116 H 0.056 0.59691 0.55459 0.0
H117 H 1.02612 0.59351 0.44529 0.0
H118 H 1.00552 0.57379 0.45362 0.0
H119 H 0.03372 0.57716 0.56348 0.0
Gd120 Gd 0.99329 0.39826 0.5285 0.0
Gd121 Gd 0.99343 0.3722 0.51767 0.0
C122 C 0.13281 0.38441 0.52337 0.0
C123 C 1.01292 0.41863 0.54641 0.0
C124 C 0.99742 0.43055 0.54257 0.0
C125 C 0.99707 0.4356 0.50949 0.0
C126 C 0.99082 0.43728 0.57268 0.0
C127 C 0.98834 0.45394 0.53681 0.0
C128 C 0.98633 0.44879 0.56989 0.0
C129 C 0.9923 0.44715 0.50667 0.0
C130 C 0.98424 0.39111 0.46162 0.0
C131 C 0.85212 0.38589 0.52967 0.0
C132 C 0.98738 0.35247 0.49132 0.0
C133 C 0.95464 0.34149 0.49782 0.0
C134 C 0.95589 0.33581 0.52979 0.0
C135 C 0.92532 0.33626 0.47052 0.0
C136 C 0.90105 0.31973 0.50646 0.0
C137 C 0.89882 0.32556 0.47476 0.0
C138 C 0.92951 0.32508 0.53403 0.0
C139 C 0.98553 0.37736 0.588 0.0
O140 O 0.09803 0.39296 0.53702 0.0
O141 O 0.10363 0.37596 0.50907 0.0
O142 O 0.96878 0.41219 0.56396 0.0
O143 O 0.04693 0.41365 0.51984 0.0
O144 O 0.95643 0.4 0.4753 0.0
O145 O 1.01917 0.38673 0.48338 0.0
O146 O 0.88492 0.37695 0.51733 0.0
O147 O 0.88314 0.39481 0.53996 0.0
O148 O 0.03172 0.35551 0.51205 0.0
O149 O 0.95042 0.36069 0.48249 0.0
O150 O 0.98527 0.36737 0.57571 0.0
O151 O 0.98725 0.38376 0.56209 0.0
H152 H 1.00257 0.43066 0.48573 0.0
H153 H 0.99136 0.43364 0.59849 0.0
H154 H 0.98214 0.45368 0.59375 0.0
H155 H 0.9944 0.45077 0.48073 0.0
H156 H 0.97801 0.33959 0.55142 0.0
H157 H 0.92415 0.34037 0.44549 0.0
H158 H 0.87827 0.32173 0.45272 0.0
H159 H 0.93139 0.32098 0.55901 0.0
Gd160 Gd 0.57926 0.89732 0.01229 0.0
Gd161 Gd 0.56986 0.87296 0.02416 0.0
C162 C 0.43316 0.88569 0.0237 0.0
C163 C 0.57602 0.91782 0.99139 0.0
C164 C 0.55804 0.92952 1.00013 0.0
C165 C 0.58177 0.93505 0.02869 0.0
C166 C 0.52401 0.93568 0.97669 0.0
C167 C 0.54169 0.95279 0.00861 0.0
C168 C 0.51583 0.94713 0.98086 0.0
C169 C 0.57354 0.94653 0.03291 0.0
C170 C 0.57831 0.89146 0.08139 0.0
C171 C 0.71623 0.88428 0.00931 0.0
C172 C 0.57646 0.85252 0.04504 0.0
C173 C 0.61355 0.84188 0.04047 0.0
C174 C 0.62785 0.83682 0.00735 0.0
C175 C 0.6284 0.83607 0.07038 0.0
C176 C 0.6673 0.8201 0.03455 0.0
C177 C 0.65494 0.82536 0.0675 0.0
C178 C 0.6545 0.82609 0.00443 0.0
C179 C 0.56251 0.87889 0.95609 0.0
O180 O 0.46965 0.89374 0.00802 0.0
O181 O 0.46203 0.87744 0.03881 0.0
O182 O 0.62509 0.91346 0.00607 0.0
O183 O 0.52904 0.91067 0.98695 0.0
O184 O 0.60998 0.89982 0.06679 0.0
O185 O 0.54368 0.8871 0.05957 0.0
O186 O 0.68069 0.8761 0.0246 0.0
O187 O 0.68635 0.89271 0.99584 0.0
O188 O 0.54304 0.85573 0.01955 0.0
O189 O 0.60341 0.86077 0.06053 0.0
O190 O 0.53151 0.87064 0.97178 0.0
O191 O 0.6014 0.8832 0.97612 0.0
H192 H 0.60877 0.93059 0.04712 0.0
H193 H 0.50564 0.93168 0.95428 0.0
H194 H 0.48993 0.95158 0.96195 0.0
H195 H 0.59464 0.95054 0.05447 0.0
H196 H 0.61665 0.84102 0.98374 0.0
H197 H 0.61764 0.83972 0.09626 0.0
H198 H 0.66518 0.82116 0.09127 0.0
H199 H 0.66272 0.82235 0.97861 0.0
Gd200 Gd 0.49048 0.15267 0.01999 0.0
Gd201 Gd 0.47952 0.12845 0.02981 0.0
C202 C 0.34342 0.14157 0.03431 0.0
C203 C 0.4844 0.17334 1.00127 0.0
C204 C 0.44651 0.18392 0.00575 0.0
C205 C 0.4367 0.18943 0.03834 0.0
C206 C 0.42681 0.18927 0.97602 0.0
C207 C 0.39196 0.20566 0.01084 0.0
C208 C 0.39982 0.19996 0.9785 0.0
C209 C 0.40967 0.20013 0.04085 0.0
C210 C 0.49804 0.1462 0.08752 0.0
C211 C 0.62682 0.13978 0.0186 0.0
C212 C 0.48123 0.10771 0.04841 0.0
C213 C 0.5013 0.09608 0.03984 0.0
C214 C 0.47915 0.09044 0.01106 0.0
C215 C 0.53496 0.09004 0.06374 0.0
C216 C 0.51983 0.07283 0.03181 0.0
C217 C 0.54425 0.0786 0.05978 0.0
C218 C 0.48844 0.07898 0.00707 0.0
C219 C 0.48009 0.13497 0.96124 0.0
O220 O 0.37934 0.14973 0.01917 0.0
O221 O 0.37313 0.13308 0.04752 0.0
O222 O 0.5151 0.16987 0.02747 0.0
O223 O 0.46004 0.16523 0.98394 0.0
O224 O 0.5314 0.15423 0.07196 0.0
O225 O 0.45799 0.14222 0.06748 0.0
O226 O 0.59009 0.13159 0.03324 0.0
O227 O 0.59811 0.14828 0.00472 0.0
O228 O 0.43549 0.11214 0.03136 0.0
O229 O 0.52581 0.11489 0.05626 0.0
O230 O 0.44563 0.12687 0.97559 0.0
O231 O 0.5163 0.13885 0.98313 0.0
H232 H 0.45179 0.18563 0.0618 0.0
H233 H 0.43416 0.1853 0.9505 0.0
H234 H 0.38578 0.20379 0.95487 0.0
H235 H 0.4051 0.20423 0.06617 0.0
H236 H 0.45239 0.09478 0.99229 0.0
H237 H 0.55204 0.09412 0.08636 0.0
H238 H 0.56975 0.07425 0.07905 0.0
H239 H 0.46838 0.07489 0.98534 0.0
Gd240 Gd 0.56933 0.15368 0.52535 0.0
Gd241 Gd 0.56983 0.12763 0.51454 0.0
C242 C 0.71086 0.14001 0.51293 0.0
C243 C 0.57573 0.1734 0.55173 0.0
C244 C 0.60863 0.18436 0.54521 0.0
C245 C 0.60743 0.19005 0.51323 0.0
C246 C 0.63804 0.18959 0.57249 0.0
C247 C 0.66248 0.20611 0.53654 0.0
C248 C 0.66466 0.20028 0.56824 0.0
C249 C 0.63394 0.20077 0.50898 0.0
C250 C 0.57689 0.14852 0.45506 0.0
C251 C 0.43008 0.14146 0.5198 0.0
C252 C 0.54905 0.10726 0.49711 0.0
C253 C 0.56364 0.09529 0.50027 0.0
C254 C 0.57135 0.09029 0.53274 0.0
C255 C 0.56187 0.08851 0.47057 0.0
C256 C 0.57083 0.07189 0.50589 0.0
C257 C 0.56535 0.07699 0.4733 0.0
C258 C 0.57526 0.07872 0.53547 0.0
C259 C 0.57965 0.13493 0.5812 0.0
O260 O 0.678 0.14893 0.52537 0.0
O261 O 0.67987 0.13108 0.50268 0.0
O262 O 0.53129 0.17038 0.53102 0.0
O263 O 0.61257 0.16516 0.56053 0.0
O264 O 0.57694 0.15851 0.46733 0.0
O265 O 0.57559 0.14212 0.48095 0.0
O266 O 0.46495 0.13292 0.50616 0.0
O267 O 0.45918 0.14992 0.53407 0.0
O268 O 0.59261 0.11366 0.47898 0.0
O269 O 0.51687 0.11223 0.52427 0.0
O270 O 0.60858 0.12614 0.56743 0.0
O271 O 0.54377 0.13913 0.5596 0.0
H272 H 0.58525 0.18627 0.49161 0.0
H273 H 0.63918 0.18547 0.59753 0.0
H274 H 0.68527 0.2041 0.59028 0.0
H275 H 0.63209 0.20487 0.484 0.0
H276 H 0.57235 0.09529 0.55618 0.0
H277 H 0.55552 0.09213 0.44528 0.0
H278 H 0.56292 0.07206 0.44983 0.0
H279 H 0.57916 0.07511 0.56103 0.0
Gd280 Gd 0.48511 0.89704 0.53073 0.0
Gd281 Gd 0.49306 0.87269 0.5185 0.0
C282 C 0.63064 0.8853 0.51868 0.0
C283 C 0.48955 0.91751 0.55195 0.0
C284 C 0.5116 0.92905 0.54377 0.0
C285 C 0.50262 0.93411 0.51156 0.0
C286 C 0.53437 0.93555 0.57045 0.0
C287 C 0.53497 0.95211 0.53386 0.0
C288 C 0.54594 0.9469 0.56562 0.0
C289 C 0.51427 0.94548 0.50666 0.0
C290 C 0.48579 0.8912 0.46154 0.0
C291 C 0.34743 0.88419 0.53321 0.0
C292 C 0.48437 0.85226 0.4975 0.0
C293 C 0.44682 0.84167 0.50318 0.0
C294 C 0.43937 0.83633 0.53603 0.0
C295 C 0.42425 0.8362 0.47429 0.0
C296 C 0.39068 0.82005 0.51042 0.0
C297 C 0.39645 0.82557 0.47784 0.0
C298 C 0.41168 0.82568 0.53959 0.0
C299 C 0.49986 0.87855 0.58676 0.0
O300 O 0.59477 0.89343 0.53426 0.0
O301 O 0.60116 0.87703 0.50375 0.0
O302 O 0.4427 0.91344 0.53479 0.0
O303 O 0.53352 0.91011 0.55856 0.0
O304 O 0.45431 0.89955 0.47632 0.0
O305 O 0.52026 0.8868 0.48327 0.0
O306 O 0.38259 0.87601 0.5177 0.0
O307 O 0.37771 0.89256 0.54703 0.0
O308 O 0.52072 0.85548 0.52184 0.0
O309 O 0.45609 0.86052 0.48293 0.0
O310 O 0.5302 0.87024 0.57108 0.0
O311 O 0.46165 0.88294 0.56663 0.0
H312 H 0.48487 0.92934 0.49048 0.0
H313 H 0.54083 0.93191 0.59571 0.0
H314 H 0.56095 0.95166 0.58741 0.0
H315 H 0.50631 0.9491 0.48161 0.0
H316 H 0.4563 0.84028 0.55889 0.0
H317 H 0.43005 0.84002 0.44856 0.0
H318 H 0.38173 0.82152 0.45463 0.0
H319 H 0.40719 0.82183 0.56524 0.0
H320 H 0.30713 0.40009 0.98377 0.0
H321 H 0.42803 0.40021 0.98543 0.0
H322 H 0.41597 0.3685 0.03667 0.0
H323 H 0.29537 0.36824 0.03469 0.0
H324 H 0.49999 0.3998 0.04222 0.0
H325 H 0.56484 0.3631 0.95883 0.0
H326 H 0.48423 0.36963 0.96111 0.0
H327 H 0.50328 0.36033 0.9952 0.0
C328 C 0.33015 0.39307 0.99503 0.0
C329 C 0.29104 0.38412 0.00886 0.0
C330 C 0.39952 0.39316 0.99608 0.0
C331 C 0.43184 0.3843 0.01073 0.0
C332 C 0.39291 0.37534 0.02448 0.0
H333 H 0.84202 0.37018 0.05034 0.0
H334 H 0.7214 0.37011 0.04768 0.0
C335 C 0.32358 0.37524 0.02346 0.0
C336 C 0.50566 0.3846 0.01279 0.0
H337 H 0.65076 0.37046 0.98983 0.0
C338 C 0.53292 0.39341 0.03055 0.0
C339 C 0.54914 0.37627 0.99773 0.0
C340 C 0.52412 0.36685 0.97686 0.0
C341 C 0.60162 0.394 0.03425 0.0
C342 C 0.64505 0.38566 0.01926 0.0
C343 C 0.61782 0.37686 1.00146 0.0
C344 C 0.71876 0.38591 0.02162 0.0
C345 C 0.62673 0.40343 0.05505 0.0
C346 C 0.75824 0.39478 0.00772 0.0
C347 C 0.82744 0.39485 0.00926 0.0
C348 C 0.85923 0.38603 0.02461 0.0
C349 C 0.81957 0.37716 0.03851 0.0
C350 C 0.75037 0.37708 0.0369 0.0
H351 H 0.58594 0.40729 0.07275 0.0
H352 H 0.66603 0.40061 0.07113 0.0
H353 H 0.64844 0.40987 0.03664 0.0
H354 H 0.73569 0.40159 0.99508 0.0
H355 H 0.85611 0.40179 0.99798 0.0
H356 H 0.21561 0.65564 0.99246 0.0
H357 H 0.33628 0.65569 0.99512 0.0
H358 H 0.32126 0.62455 0.04971 0.0
H359 H 0.20088 0.62436 0.04684 0.0
H360 H 0.40717 0.65561 0.05315 0.0
H361 H 0.47053 0.61833 0.9721 0.0
H362 H 0.39072 0.62509 0.97337 0.0
H363 H 0.40791 0.61599 0.00834 0.0
C364 C 0.23792 0.64873 0.00475 0.0
C365 C 0.19806 0.63996 0.01921 0.0
C366 C 0.30713 0.6488 0.00635 0.0
C367 C 0.33856 0.64006 0.02218 0.0
C368 C 0.29887 0.63129 0.03666 0.0
H369 H 0.75034 0.62581 0.06018 0.0
H370 H 0.62933 0.62572 0.05873 0.0
C371 C 0.22967 0.63123 0.03514 0.0
C372 C 0.41229 0.64027 0.02446 0.0
H373 H 0.55682 0.62592 0.00219 0.0
C374 C 0.43987 0.64913 0.04183 0.0
C375 C 0.45541 0.63183 0.00989 0.0
C376 C 0.4299 0.62232 0.98959 0.0
C377 C 0.50857 0.64968 0.04554 0.0
C378 C 0.55175 0.64125 0.03087 0.0
C379 C 0.52413 0.63238 0.01356 0.0
C380 C 0.62562 0.64153 0.0328 0.0
C381 C 0.53394 0.65918 0.06596 0.0
C382 C 0.66464 0.65041 0.01861 0.0
C383 C 0.73399 0.6505 0.0195 0.0
C384 C 0.76651 0.64168 0.03443 0.0
C385 C 0.72733 0.6328 0.04868 0.0
C386 C 0.65791 0.63271 0.04775 0.0
H387 H 0.49339 0.66301 0.0839 0.0
H388 H 0.57389 0.65645 0.08174 0.0
H389 H 0.55477 0.66562 0.04731 0.0
H390 H 0.64162 0.65721 0.00617 0.0
H391 H 0.76222 0.65745 0.00795 0.0
H392 H 0.84513 0.6247 0.49755 0.0
H393 H 0.72472 0.62507 0.49451 0.0
H394 H 0.71208 0.65634 0.54875 0.0
H395 H 0.8326 0.65611 0.55155 0.0
H396 H 0.61838 0.62584 0.54646 0.0
H397 H 0.61755 0.66312 0.4627 0.0
H398 H 0.69309 0.65586 0.46933 0.0
H399 H 0.65595 0.66521 0.50236 0.0
C400 C 0.81689 0.63167 0.50892 0.0
C401 C 0.84911 0.6404 0.52469 0.0
C402 C 0.74779 0.63186 0.50714 0.0
C403 C 0.70898 0.64082 0.52079 0.0
C404 C 0.74077 0.64944 0.53724 0.0
H405 H 0.2859 0.65752 0.53578 0.0
H406 H 0.4065 0.6571 0.53801 0.0
C407 C 0.80988 0.64925 0.53909 0.0
C408 C 0.63542 0.64108 0.5181 0.0
H409 H 0.51205 0.6562 0.48617 0.0
C410 C 0.59525 0.63246 0.53311 0.0
C411 C 0.60475 0.6497 0.50072 0.0
C412 C 0.64502 0.65895 0.48255 0.0
C413 C 0.52566 0.63233 0.53191 0.0
C414 C 0.49496 0.64096 0.51455 0.0
C415 C 0.53516 0.64958 0.4995 0.0
C416 C 0.4213 0.64126 0.51211 0.0
C417 C 0.48543 0.62309 0.55014 0.0
C418 C 0.38889 0.63263 0.49608 0.0
C419 C 0.31963 0.63284 0.49473 0.0
C420 C 0.28087 0.64174 0.50917 0.0
C421 C 0.31375 0.65051 0.52439 0.0
C422 C 0.38297 0.65029 0.52571 0.0
H423 H 0.51295 0.61892 0.56998 0.0
H424 H 0.4374 0.62619 0.56341 0.0
H425 H 0.47443 0.61682 0.53038 0.0
H426 H 0.41719 0.62568 0.4846 0.0
H427 H 0.2964 0.62595 0.48268 0.0
H428 H 0.7714 0.36929 0.50959 0.0
H429 H 0.65067 0.36935 0.50915 0.0
H430 H 0.64168 0.4023 0.55212 0.0
H431 H 0.76305 0.4024 0.55209 0.0
H432 H 0.54947 0.3713 0.56159 0.0
H433 H 0.5372 0.40609 0.4686 0.0
H434 H 0.6146 0.39948 0.47566 0.0
H435 H 0.57791 0.40952 0.5066 0.0
C436 C 0.74407 0.37659 0.51894 0.0
C437 C 0.77768 0.38588 0.53071 0.0
C438 C 0.67464 0.3766 0.51869 0.0
C439 C 0.63656 0.38589 0.53 0.0
C440 C 0.6697 0.39511 0.54241 0.0
H441 H 0.21063 0.40071 0.54785 0.0
H442 H 0.33115 0.40081 0.54982 0.0
C443 C 0.73933 0.39512 0.54264 0.0
C444 C 0.56239 0.38581 0.52915 0.0
H445 H 0.43413 0.39928 0.49583 0.0
C446 C 0.5244 0.37741 0.54708 0.0
C447 C 0.5291 0.39374 0.51023 0.0
C448 C 0.56674 0.40266 0.48889 0.0
C449 C 0.45459 0.37683 0.54712 0.0
C450 C 0.42136 0.38477 0.52821 0.0
C451 C 0.45926 0.39319 0.51036 0.0
C452 C 0.34738 0.38457 0.52691 0.0
C453 C 0.41685 0.36787 0.56816 0.0
C454 C 0.31564 0.37545 0.51299 0.0
C455 C 0.24628 0.37537 0.51177 0.0
C456 C 0.20679 0.38441 0.52437 0.0
C457 C 0.23893 0.39356 0.538 0.0
C458 C 0.30817 0.39365 0.5391 0.0
H459 H 0.44643 0.36431 0.58823 0.0
H460 H 0.36916 0.37105 0.58158 0.0
H461 H 0.40522 0.3611 0.55018 0.0
H462 H 0.34462 0.36842 0.50272 0.0
H463 H 0.22368 0.3682 0.50092 0.0
H464 H 0.80679 0.89997 0.98258 0.0
H465 H 0.92779 0.90006 0.98403 0.0
H466 H 0.91548 0.86855 0.03648 0.0
H467 H 0.79488 0.86831 0.03469 0.0
H468 H 1.00025 0.89984 0.04059 0.0
H469 H 0.06377 0.86278 0.95875 0.0
H470 H 0.98326 0.86934 0.96092 0.0
H471 H 1.00238 0.86016 0.99532 0.0
C472 C 0.82979 0.89298 0.99405 0.0
C473 C 0.79061 0.88409 0.00827 0.0
C474 C 0.89921 0.89307 0.99499 0.0
C475 C 0.93149 0.88424 0.00991 0.0
C476 C 0.89247 0.87535 0.02406 0.0
H477 H 0.34153 0.87015 0.05024 0.0
H478 H 0.22086 0.87009 0.04759 0.0
C479 C 0.82312 0.87526 0.02316 0.0
C480 C 1.00536 0.88452 0.01185 0.0
H481 H 0.14997 0.87018 0.98952 0.0
C482 C 0.03295 0.89338 0.02919 0.0
C483 C 0.04855 0.87609 0.99715 0.0
C484 C 1.02321 0.86661 0.9767 0.0
C485 C 0.10168 0.89394 0.03286 0.0
C486 C 0.14481 0.8855 0.01825 0.0
C487 C 0.11726 0.87664 1.00086 0.0
C488 C 0.21854 0.88572 0.02054 0.0
C489 C 0.12716 0.90344 0.05319 0.0
C490 C 0.2582 0.89449 0.00605 0.0
C491 C 0.3274 0.89456 0.00756 0.0
C492 C 0.35903 0.88583 0.02349 0.0
C493 C 0.3192 0.87705 0.03796 0.0
C494 C 0.24999 0.87698 0.03636 0.0
H495 H 0.08653 0.90742 0.07068 0.0
H496 H 0.16634 0.90067 0.06941 0.0
H497 H 0.14917 0.90978 0.03446 0.0
H498 H 0.23579 0.90123 0.99301 0.0
H499 H 0.35618 0.90142 0.99585 0.0
H500 H 0.26472 0.15755 0.009 0.0
H501 H 0.14412 0.15725 0.0069 0.0
H502 H 0.13211 0.12568 0.05898 0.0
H503 H 0.25297 0.12584 0.06077 0.0
H504 H 0.06048 0.1259 0.00202 0.0
H505 H 0.99473 0.16278 0.08442 0.0
H506 H 0.05646 0.16548 0.04806 0.0
H507 H 0.07539 0.15628 0.08244 0.0
C508 C 0.23651 0.15058 0.02039 0.0
C509 C 0.26905 0.14175 0.03527 0.0
C510 C 0.16718 0.15045 0.0193 0.0
C511 C 0.12826 0.14152 0.03323 0.0
C512 C 0.1606 0.13271 0.04818 0.0
H513 H 0.70397 0.12385 0.0455 0.0
H514 H 0.82437 0.12408 0.04859 0.0
C515 C 0.22994 0.13283 0.04931 0.0
C516 C 0.05446 0.14117 0.03107 0.0
H517 H 0.90908 0.15528 0.05352 0.0
C518 C 1.0274 0.1323 0.0135 0.0
C519 C 1.01079 0.14951 0.04589 0.0
C520 C 0.03558 0.159 0.06655 0.0
C521 C 0.95875 0.13166 0.00971 0.0
C522 C 0.91511 0.14002 0.02445 0.0
C523 C 0.94215 0.14888 0.04208 0.0
C524 C 0.84143 0.13974 0.02194 0.0
C525 C 0.9339 0.12217 0.98908 0.0
C526 C 0.80987 0.14854 0.00652 0.0
C527 C 0.74071 0.14846 0.00482 0.0
C528 C 0.70098 0.13959 0.01873 0.0
C529 C 0.7327 0.13078 0.03419 0.0
C530 C 0.80189 0.13087 0.03585 0.0
H531 H 0.97482 0.1183 0.97151 0.0
H532 H 0.91224 0.11576 0.00761 0.0
H533 H 0.89462 0.12493 0.9729 0.0
H534 H 0.83886 0.15551 0.99573 0.0
H535 H 0.71834 0.15542 0.99289 0.0
H536 H 0.35238 0.12516 0.49518 0.0
H537 H 0.23188 0.12507 0.49308 0.0
H538 H 0.21821 0.15743 0.54034 0.0
H539 H 0.33911 0.15765 0.54227 0.0
H540 H 0.12865 0.12657 0.54691 0.0
H541 H 0.11682 0.16161 0.45473 0.0
H542 H 0.19404 0.15486 0.46145 0.0
H543 H 0.15782 0.16479 0.49287 0.0
C544 C 0.32403 0.13231 0.50505 0.0
C545 C 0.3561 0.14145 0.51876 0.0
C546 C 0.2548 0.13223 0.50386 0.0
C547 C 0.21555 0.1413 0.51605 0.0
C548 C 0.24722 0.15041 0.53006 0.0
H549 H 0.79156 0.15661 0.53304 0.0
H550 H 0.91228 0.15654 0.53354 0.0
C551 C 0.31656 0.15049 0.53136 0.0
C552 C 0.14159 0.14111 0.51465 0.0
H553 H 1.01367 0.15462 0.48123 0.0
C554 C 0.1036 0.13268 0.5324 0.0
C555 C 0.10846 0.14906 0.49576 0.0
C556 C 0.1463 0.15804 0.47483 0.0
C557 C 0.03377 0.13213 0.53245 0.0
C558 C 1.00058 0.14009 0.51355 0.0
C559 C 0.03866 0.1485 0.49572 0.0
C560 C 0.92642 0.14001 0.51262 0.0
C561 C 0.99604 0.1232 0.55368 0.0
C562 C 0.89331 0.1308 0.50013 0.0
C563 C 0.82368 0.13079 0.49987 0.0
C564 C 0.78531 0.14003 0.51184 0.0
C565 C 0.81891 0.14931 0.52366 0.0
C566 C 0.88833 0.1493 0.52395 0.0
H567 H 1.02549 0.11976 0.57399 0.0
H568 H 0.94814 0.12638 0.56688 0.0
H569 H 0.98495 0.11635 0.53591 0.0
H570 H 0.92133 0.12361 0.49041 0.0
H571 H 0.79998 0.12351 0.49038 0.0
H572 H 0.7214 0.86973 0.49152 0.0
H573 H 0.84194 0.86951 0.4943 0.0
H574 H 0.829 0.90062 0.54948 0.0
H575 H 0.70859 0.90098 0.54647 0.0
H576 H 0.9352 0.90001 0.49738 0.0
H577 H 0.93682 0.86251 0.58011 0.0
H578 H 0.8983 0.86053 0.54044 0.0
H579 H 0.86115 0.86978 0.57377 0.0
C580 C 0.74406 0.87655 0.50419 0.0
C581 C 0.70475 0.88536 0.51886 0.0
C582 C 0.81318 0.87637 0.50602 0.0
C583 C 0.84489 0.88494 0.52271 0.0
C584 C 0.806 0.89386 0.53666 0.0
H585 H 0.25751 0.89985 0.56078 0.0
H586 H 0.13669 0.9001 0.55897 0.0
C587 C 0.73689 0.89405 0.53489 0.0
C588 C 0.91847 0.8847 0.52534 0.0
H589 H 0.04216 0.86954 0.55681 0.0
C590 C 0.95847 0.89337 0.51054 0.0
C591 C 0.94932 0.87604 0.54248 0.0
C592 C 0.90923 0.86673 0.56041 0.0
C593 C 1.02807 0.89352 0.5117 0.0
C594 C 0.05895 0.88486 0.52883 0.0
C595 C 1.01891 0.87619 0.54368 0.0
C596 C 0.13264 0.88456 0.5312 0.0
C597 C 0.06811 0.90281 0.49367 0.0
C598 C 0.17102 0.87557 0.51742 0.0
C599 C 0.24026 0.87535 0.5187 0.0
C600 C 0.27311 0.88411 0.53403 0.0
C601 C 0.23431 0.89298 0.54864 0.0
C602 C 0.16502 0.89318 0.54734 0.0
H603 H 0.04048 0.90701 0.47393 0.0
H604 H 0.07898 0.90904 0.51357 0.0
H605 H 0.1162 0.89976 0.48033 0.0
H606 H 0.14753 0.86877 0.50503 0.0
H607 H 0.26813 0.86837 0.50718 0.0
H608 H 0.03746 0.55991 0.97453 0.0
H609 H 0.03995 0.5397 0.97084 0.0
H610 H 1.00706 0.53766 0.0838 0.0
H611 H 1.00239 0.55778 0.08771 0.0
H612 H 0.12347 0.52451 0.99799 0.0
H613 H 0.86283 0.51721 0.05479 0.0
H614 H 0.89281 0.53067 0.04033 0.0
H615 H 0.91019 0.52541 0.08229 0.0
C616 C 0.03005 0.55518 0.99862 0.0
C617 C 1.01952 0.56058 0.03143 0.0
C618 C 0.0319 0.54359 0.99647 0.0
C619 C 1.02261 0.53707 0.02699 0.0
C620 C 1.01305 0.54243 0.05977 0.0
H621 H 1.01811 0.46606 0.07049 0.0
H622 H 1.01548 0.48627 0.07401 0.0
C623 C 1.01132 0.554 0.06196 0.0
C624 C 1.02403 0.52471 0.02464 0.0
H625 H 0.93247 0.50142 0.04678 0.0
C626 C 0.08152 0.51948 0.00849 0.0
C627 C 0.96948 0.51806 0.03841 0.0
C628 C 0.90508 0.5231 0.05464 0.0
C629 C 0.08647 0.50787 0.00637 0.0
C630 C 0.03193 0.50122 0.02014 0.0
C631 C 0.97442 0.50645 0.03627 0.0
C632 C 0.03338 0.48885 0.01786 0.0
C633 C 0.15092 0.50283 0.99017 0.0
C634 C 0.04328 0.48347 0.98514 0.0
C635 C 0.04513 0.4719 0.98303 0.0
C636 C 0.03668 0.46534 0.01361 0.0
C637 C 1.02574 0.47077 0.04637 0.0
C638 C 1.0238 0.48236 0.04843 0.0
H639 H 0.19315 0.50873 0.99007 0.0
H640 H 0.16315 0.49526 0.00448 0.0
H641 H 0.14589 0.50053 0.9625 0.0
H642 H 0.04947 0.48822 0.96107 0.0
H643 H 0.05438 0.4681 0.95733 0.0
H644 H 0.92416 0.46718 0.49245 0.0
H645 H 0.92765 0.48739 0.48755 0.0
H646 H 0.05685 0.489 0.56989 0.0
H647 H 0.05471 0.46888 0.57451 0.0
H648 H 0.89042 0.5038 0.54015 0.0
H649 H 0.15802 0.50714 0.49022 0.0
H650 H 0.11247 0.49431 0.48985 0.0
H651 H 0.14138 0.49923 0.52986 0.0
C652 C 0.95378 0.47182 0.50934 0.0
C653 C 0.98915 0.46632 0.53388 0.0
C654 C 0.95542 0.4834 0.50664 0.0
C655 C 0.99318 0.48976 0.52804 0.0
C656 C 1.02811 0.48431 0.55269 0.0
H657 H 0.08495 0.55974 0.55007 0.0
H658 H 0.07531 0.53968 0.55544 0.0
C659 C 1.02619 0.47276 0.55557 0.0
C660 C 0.9956 0.50209 0.52498 0.0
H661 H 0.10199 0.52386 0.50653 0.0
C662 C 0.93661 0.50818 0.53259 0.0
C663 C 0.05586 0.50786 0.51529 0.0
C664 C 0.12052 0.50183 0.50552 0.0
C665 C 0.93647 0.51983 0.53161 0.0
C666 C 0.99679 0.52562 0.52188 0.0
C667 C 0.0557 0.5195 0.51408 0.0
C668 C 1.00014 0.53799 0.51959 0.0
C669 C 0.8719 0.52582 0.54211 0.0
C670 C 0.96129 0.54386 0.4976 0.0
C671 C 0.96605 0.5554 0.49481 0.0
C672 C 1.01041 0.56143 0.51363 0.0
C673 C 0.04929 0.55551 0.53562 0.0
C674 C 0.04431 0.54396 0.53848 0.0
H675 H 0.83595 0.52056 0.55867 0.0
H676 H 0.88034 0.53352 0.5568 0.0
H677 H 0.84872 0.52805 0.51811 0.0
H678 H 0.92786 0.5395 0.48208 0.0
H679 H 0.9348 0.5596 0.47781 0.0
H680 H 0.52009 0.96583 0.06816 0.0
H681 H 0.51616 0.98602 0.07193 0.0
H682 H 0.55183 0.98814 0.95906 0.0
H683 H 0.55613 0.96802 0.95504 0.0
H684 H 0.61084 1.00167 0.05069 0.0
H685 H 0.39041 1.00786 0.9786 0.0
H686 H 0.41306 0.99449 0.99423 0.0
H687 H 0.45535 1.00004 0.95428 0.0
C688 C 0.52722 0.97056 0.04409 0.0
C689 C 0.53783 0.96518 0.01125 0.0
C690 C 0.52471 0.98215 0.04629 0.0
C691 C 0.53243 0.98868 0.01577 0.0
C692 C 0.54381 0.98335 0.98301 0.0
H693 H 0.54336 0.05972 0.97253 0.0
H694 H 0.54759 0.03952 0.96906 0.0
C695 C 0.54622 0.97178 0.98077 0.0
C696 C 0.53044 1.00105 0.01818 0.0
H697 H 0.45177 0.02395 0.99044 0.0
C698 C 0.57574 1.00652 0.03768 0.0
C699 C 0.48488 1.00747 1.00114 0.0
C700 C 0.43273 1.00218 0.98116 0.0
C701 C 0.57766 0.01815 0.04002 0.0
C702 C 0.53219 0.02457 0.02294 0.0
C703 C 0.48685 0.0191 0.00346 0.0
C704 C 0.53033 0.03693 0.02522 0.0
C705 C 0.62968 0.02345 0.06008 0.0
C706 C 0.5184 0.04231 0.05789 0.0
C707 C 0.51573 0.05388 0.05997 0.0
C708 C 0.52448 0.06044 0.0294 0.0
C709 C 0.53587 0.05501 0.99667 0.0
C710 C 0.53857 0.04343 0.99463 0.0
H711 H 0.67182 0.01775 0.0629 0.0
H712 H 0.64964 0.0311 0.04689 0.0
H713 H 0.6068 0.02566 0.08685 0.0
H714 H 0.51004 0.03755 0.08188 0.0
H715 H 0.50524 0.05766 0.08562 0.0
H716 H 0.64582 0.05842 0.54441 0.0
H717 H 0.64325 0.0382 0.54848 0.0
H718 H 0.48835 0.03713 0.47946 0.0
H719 H 0.49121 0.05723 0.47496 0.0
H720 H 0.54681 0.02384 0.57244 0.0
H721 H 0.61634 0.01528 0.43112 0.0
H722 H 0.62303 0.02888 0.44976 0.0
H723 H 0.54395 0.02386 0.43867 0.0
C724 C 0.61119 0.05388 0.53008 0.0
C725 C 0.56936 0.05952 0.50897 0.0
C726 C 0.60988 0.04229 0.53235 0.0
C727 C 0.56671 0.03602 0.51362 0.0
C728 C 0.52378 0.04166 0.49326 0.0
H729 H 0.45887 0.96651 0.49928 0.0
H730 H 0.46861 0.9866 0.49468 0.0
C731 C 0.52538 0.05322 0.49078 0.0
C732 C 0.56528 0.02365 0.51598 0.0
H733 H 0.57553 1.0 0.46635 0.0
C734 C 0.55368 0.01864 0.54922 0.0
C735 C 0.57419 0.01677 0.48577 0.0
C736 C 0.59074 0.02146 0.44936 0.0
C737 C 0.54904 1.00707 0.55301 0.0
C738 C 0.55705 1.00022 0.52277 0.0
C739 C 0.56908 1.0052 0.48956 0.0
C740 C 0.55259 0.98788 0.52501 0.0
C741 C 0.53374 1.00229 0.58936 0.0
C742 C 0.59739 0.98178 0.54296 0.0
C743 C 0.59239 0.97023 0.54538 0.0
C744 C 0.5425 0.96443 0.52981 0.0
C745 C 0.49852 0.97058 0.51126 0.0
C746 C 0.50371 0.98212 0.50878 0.0
H747 H 0.51297 1.00859 0.60864 0.0
H748 H 0.49775 0.99534 0.58927 0.0
H749 H 0.58033 0.99905 0.59839 0.0
H750 H 0.6366 0.98596 0.55501 0.0
H751 H 0.62808 0.96585 0.5593 0.0
H752 H 0.25183 0.30997 0.98 0.0
H753 H 0.28773 0.29065 0.9762 0.0
H754 H 0.17921 0.28423 0.0774 0.0
H755 H 0.14126 0.30338 0.08091 0.0
H756 H 0.36131 0.27841 0.01891 0.0
H757 H 0.11074 0.25972 0.01849 0.0
H758 H 0.12571 0.27429 0.01168 0.0
H759 H 0.11805 0.26864 0.05538 0.0
C760 C 0.23487 0.30444 1.00133 0.0
C761 C 0.19321 0.30834 0.03072 0.0
C762 C 0.25588 0.29337 0.9992 0.0
C763 C 0.23541 0.28585 0.02621 0.0
C764 C 0.19473 0.28975 0.05581 0.0
H765 H 0.30931 0.21581 0.06366 0.0
H766 H 0.27348 0.23513 0.06747 0.0
C767 C 0.17376 0.3008 0.05799 0.0
C768 C 0.25744 0.27402 0.02374 0.0
H769 H 0.19992 0.24737 0.02476 0.0
C770 C 0.32595 0.27163 0.01999 0.0
C771 C 0.21156 0.26511 0.02524 0.0
C772 C 0.13743 0.26703 0.02758 0.0
C773 C 0.34966 0.26067 0.01842 0.0
C774 C 0.30378 0.25175 0.01993 0.0
C775 C 0.23528 0.25414 0.02367 0.0
C776 C 0.32581 0.23992 0.01745 0.0
C777 C 0.42379 0.25874 0.01608 0.0
C778 C 0.36648 0.23603 0.98786 0.0
C779 C 0.38741 0.22497 0.98568 0.0
C780 C 0.36792 0.21743 0.01293 0.0
C781 C 0.32628 0.22133 0.04234 0.0
C782 C 0.30531 0.2324 0.04447 0.0
H783 H 0.45048 0.26606 0.02517 0.0
H784 H 0.43552 0.25149 0.03198 0.0
H785 H 0.44317 0.25714 0.98829 0.0
H786 H 0.38202 0.24154 0.96627 0.0
H787 H 0.4199 0.22239 0.96275 0.0
H788 H 0.75717 0.81053 0.98376 0.0
H789 H 0.7932 0.79122 0.97905 0.0
H790 H 0.6693 0.78363 0.07488 0.0
H791 H 0.63143 0.80277 0.07921 0.0
H792 H 0.85874 0.77836 0.02414 0.0
H793 H 0.61199 0.75996 0.00914 0.0
H794 H 0.62788 0.77459 0.00478 0.0
H795 H 0.61265 0.76843 0.04764 0.0
C796 C 0.7369 0.80475 0.00367 0.0
C797 C 0.69103 0.80831 0.03184 0.0
C798 C 0.75796 0.79368 1.00105 0.0
C799 C 0.7333 0.78585 0.02628 0.0
C800 C 0.68822 0.7894 0.05463 0.0
H801 H 0.80044 0.71528 0.05871 0.0
H802 H 0.76448 0.73459 0.06342 0.0
C803 C 0.66724 0.80045 0.05732 0.0
C804 C 0.75556 0.77403 0.02334 0.0
H805 H 0.69886 0.74744 0.01829 0.0
C806 C 0.82375 0.77161 0.02266 0.0
C807 C 0.71014 0.76515 0.02151 0.0
C808 C 0.63666 0.76713 0.02046 0.0
C809 C 0.84747 0.76065 0.0209 0.0
C810 C 0.80205 0.75177 0.01908 0.0
C811 C 0.73385 0.75419 0.01977 0.0
C812 C 0.8243 0.73996 0.01615 0.0
C813 C 0.92095 0.75867 0.02194 0.0
C814 C 0.86932 0.73639 0.98778 0.0
C815 C 0.89026 0.72534 0.98509 0.0
C816 C 0.86648 0.71748 0.01059 0.0
C817 C 0.82069 0.72106 0.03878 0.0
C818 C 0.79967 0.73212 0.04141 0.0
H819 H 0.94564 0.76585 0.03324 0.0
H820 H 0.92973 0.75122 0.03765 0.0
H821 H 0.94494 0.75736 0.99477 0.0
H822 H 0.88822 0.74216 0.96752 0.0
H823 H 0.926 0.72301 0.96318 0.0
H824 H 0.11876 0.72285 0.49351 0.0
H825 H 0.15855 0.74195 0.48932 0.0
H826 H 0.30252 0.73465 0.5612 0.0
H827 H 0.26453 0.71546 0.5647 0.0
H828 H 0.15978 0.75777 0.54107 0.0
H829 H 0.41812 0.74979 0.48194 0.0
H830 H 0.3537 0.7394 0.48367 0.0
H831 H 0.39533 0.74231 0.52189 0.0
C832 C 0.15971 0.72522 0.50799 0.0
C833 C 0.18853 0.71748 0.52929 0.0
C834 C 0.18209 0.73621 0.50578 0.0
C835 C 0.2343 0.73979 0.52454 0.0
C836 C 0.26309 0.73212 0.54589 0.0
H837 H 0.43475 0.80299 0.54944 0.0
H838 H 0.39492 0.7839 0.55357 0.0
C839 C 0.24067 0.72112 0.54818 0.0
C840 C 0.25716 0.75159 0.52252 0.0
H841 H 0.39374 0.76808 0.50175 0.0
C842 C 0.21088 0.76002 0.53228 0.0
C843 C 0.3239 0.7546 0.51116 0.0
C844 C 0.37557 0.74607 0.49874 0.0
C845 C 0.22961 0.77125 0.53165 0.0
C846 C 0.29636 0.77426 0.5203 0.0
C847 C 0.34263 0.76584 0.51053 0.0
C848 C 0.31923 0.78606 0.51831 0.0
C849 C 0.17794 0.77978 0.54406 0.0
C850 C 0.2905 0.79375 0.49696 0.0
C851 C 0.31296 0.80474 0.4947 0.0
C852 C 0.36507 0.80837 0.51363 0.0
C853 C 0.39382 0.80063 0.53493 0.0
C854 C 0.37141 0.78963 0.5371 0.0
H855 H 0.13535 0.77607 0.56083 0.0
H856 H 0.1998 0.78645 0.55915 0.0
H857 H 0.15823 0.78355 0.52091 0.0
H858 H 0.25109 0.79122 0.48162 0.0
H859 H 0.28914 0.81041 0.47818 0.0
H860 H 0.95316 0.3022 0.54036 0.0
H861 H 0.91277 0.28314 0.54507 0.0
H862 H 0.75007 0.29161 0.48618 0.0
H863 H 0.78987 0.31068 0.48145 0.0
H864 H 0.79459 0.27423 0.57443 0.0
H865 H 0.82687 0.26502 0.43168 0.0
H866 H 0.86223 0.27714 0.44999 0.0
H867 H 0.77561 0.27686 0.44298 0.0
C868 C 0.90844 0.30007 0.52861 0.0
C869 C 0.87522 0.30807 0.5103 0.0
C870 C 0.88554 0.2891 0.53118 0.0
C871 C 0.82898 0.28579 0.5154 0.0
C872 C 0.79487 0.2938 0.49777 0.0
H873 H 0.6105 0.22365 0.50264 0.0
H874 H 0.65103 0.24271 0.49793 0.0
C875 C 0.81776 0.30476 0.49513 0.0
C876 C 0.80523 0.27403 0.51788 0.0
H877 H 0.76928 0.25159 0.46856 0.0
C878 C 0.78942 0.26928 0.55125 0.0
C879 C 0.79819 0.26749 0.48771 0.0
C880 C 0.81718 0.27183 0.45106 0.0
C881 C 0.76569 0.25833 0.55528 0.0
C882 C 0.75863 0.25179 0.52511 0.0
C883 C 0.77445 0.25654 0.49174 0.0
C884 C 0.73481 0.24004 0.52759 0.0
C885 C 0.7467 0.25399 0.59193 0.0
C886 C 0.76887 0.23201 0.54522 0.0
C887 C 0.7459 0.22106 0.54786 0.0
C888 C 0.68841 0.21776 0.53269 0.0
C889 C 0.65524 0.22578 0.51439 0.0
C890 C 0.67822 0.23674 0.51182 0.0
H891 H 0.73707 0.2608 0.61132 0.0
H892 H 0.70162 0.24869 0.593 0.0
H893 H 0.78826 0.24895 0.6 0.0
H894 H 0.81369 0.2342 0.5568 0.0
H895 H 0.77374 0.21513 0.56154 0.0
H896 H 0.13205 0.40279 0.13329 0.0
H897 H 0.11504 0.40029 0.19685 0.0
H898 H 0.98905 0.37215 0.18353 0.0
H899 H 1.00441 0.37487 0.11942 0.0
H900 H 0.93429 0.38457 0.23558 0.0
H901 H 0.19715 0.37882 0.25774 0.0
H902 H 0.18671 0.39158 0.2354 0.0
H903 H 0.17039 0.37868 0.21429 0.0
C904 C 0.10101 0.39601 0.14379 0.0
C905 C 0.06973 0.38901 0.12117 0.0
C906 C 0.09177 0.39452 0.18031 0.0
C907 C 0.05197 0.38586 0.19537 0.0
C908 C 1.02047 0.37885 0.17278 0.0
H909 H 0.0532 0.37438 0.42431 0.0
H910 H 0.06632 0.37159 0.36016 0.0
C911 C 0.02932 0.38039 0.13608 0.0
C912 C 0.04108 0.38454 0.23463 0.0
H913 H 0.1226 0.38403 0.30859 0.0
C914 C 0.97561 0.38432 0.25144 0.0
C915 C 0.09455 0.38394 0.25576 0.0
C916 C 0.16606 0.38314 0.23981 0.0
C917 C 0.9623 0.38406 0.2884 0.0
C918 C 1.01583 0.38434 0.30955 0.0
C919 C 0.08126 0.38401 0.29273 0.0
C920 C 1.00515 0.38554 0.34888 0.0
C921 C 0.89069 0.38341 0.30429 0.0
C922 C 0.96675 0.39431 0.36427 0.0
C923 C 0.95875 0.39583 0.40079 0.0
C924 C 0.98988 0.38876 0.42311 0.0
C925 C 1.02835 0.37996 0.4079 0.0
C926 C 0.036 0.37838 0.37118 0.0
H927 H 0.85914 0.37925 0.28616 0.0
H928 H 0.88579 0.37887 0.32962 0.0
H929 H 0.87103 0.39189 0.30907 0.0
H930 H 0.94401 0.40018 0.34796 0.0
H931 H 0.92921 0.40275 0.41148 0.0
H932 H 0.06472 0.65824 0.13113 0.0
H933 H 0.07478 0.65476 0.19282 0.0
H934 H 0.94607 0.62639 0.19026 0.0
H935 H 0.93443 0.63006 0.12776 0.0
H936 H 0.91351 0.63831 0.24898 0.0
H937 H 0.18526 0.63233 0.23626 0.0
H938 H 0.16571 0.64526 0.21718 0.0
H939 H 0.13881 0.63253 0.19856 0.0
C940 C 0.03857 0.65121 0.14348 0.0
C941 C 0.99879 0.64442 0.12435 0.0
C942 C 0.04501 0.64916 0.17888 0.0
C943 C 1.01278 0.64013 0.19632 0.0
C944 C 0.97219 0.63335 0.17744 0.0
H945 H 0.11195 0.63008 0.41554 0.0
H946 H 0.10017 0.62632 0.35304 0.0
C947 C 0.96544 0.63545 0.14172 0.0
C948 C 1.01954 0.63828 0.23456 0.0
H949 H 0.13475 0.63795 0.29401 0.0
C950 C 0.96194 0.63804 0.25871 0.0
C951 C 0.08253 0.63764 0.24769 0.0
C952 C 0.14647 0.63682 0.22348 0.0
C953 C 0.96567 0.63793 0.2953 0.0
C954 C 0.02874 0.63837 0.30842 0.0
C955 C 0.08628 0.63784 0.28428 0.0
C956 C 0.03578 0.6403 0.34662 0.0
C957 C 0.90161 0.63743 0.31952 0.0
C958 C 1.00498 0.64949 0.36384 0.0
C959 C 1.01148 0.6516 0.39924 0.0
C960 C 0.04993 0.64469 0.41858 0.0
C961 C 0.082 0.63556 0.4014 0.0
C962 C 0.07515 0.63341 0.3657 0.0
H963 H 0.86208 0.63306 0.30685 0.0
H964 H 0.90855 0.63319 0.34455 0.0
H965 H 0.88378 0.64596 0.32563 0.0
H966 H 0.97623 0.65517 0.34975 0.0
H967 H 0.98638 0.65875 0.41143 0.0
H968 H 0.05058 0.65066 0.92359 0.0
H969 H 0.06405 0.65328 0.85943 0.0
H970 H 0.94055 0.62472 0.8475 0.0
H971 H 0.92539 0.62233 0.91111 0.0
H972 H 0.11882 0.64083 0.80733 0.0
H973 H 0.85447 0.64586 0.78707 0.0
H974 H 0.88246 0.64619 0.83024 0.0
H975 H 0.86671 0.63319 0.80955 0.0
C976 C 1.02583 0.64502 0.90722 0.0
C977 C 0.98666 0.63632 0.92253 0.0
C978 C 0.03358 0.64651 0.87051 0.0
C979 C 1.00219 0.63935 0.84831 0.0
C980 C 0.96366 0.6306 0.86376 0.0
H981 H 0.12233 0.62272 0.63147 0.0
H982 H 0.10711 0.62499 0.69514 0.0
C983 C 0.95551 0.62917 0.9003 0.0
C984 C 1.01191 0.6406 0.80904 0.0
H985 H 0.92825 0.64075 0.73583 0.0
C986 C 0.07701 0.64094 0.79179 0.0
C987 C 0.95773 0.64102 0.78836 0.0
C988 C 0.88649 0.64168 0.80481 0.0
C989 C 0.08932 0.64116 0.7548 0.0
C990 C 0.03516 0.6407 0.73411 0.0
C991 C 0.97006 0.64091 0.75136 0.0
C992 C 0.04494 0.63953 0.6948 0.0
C993 C 0.16054 0.64195 0.73838 0.0
C994 C 1.01329 0.64668 0.67283 0.0
C995 C 1.02109 0.64526 0.63607 0.0
C996 C 0.06056 0.63664 0.62049 0.0
C997 C 0.09198 0.6295 0.64249 0.0
C998 C 0.08379 0.63086 0.67907 0.0
H999 H 0.19239 0.64616 0.75627 0.0
H1000 H 0.18067 0.63351 0.73335 0.0
H1001 H 0.16439 0.64652 0.71311 0.0
H1002 H 0.98258 0.65339 0.68413 0.0
H1003 H 0.99614 0.65089 0.61987 0.0
H1004 H 0.98609 0.36299 0.64191 0.0
H1005 H 1.0051 0.36663 0.70271 0.0
H1006 H 1.02254 0.40144 0.68036 0.0
H1007 H 1.00342 0.3978 0.61874 0.0
H1008 H 0.11894 0.37673 0.72716 0.0
H1009 H 0.88584 0.39974 0.77014 0.0
H1010 H 0.89461 0.39132 0.73092 0.0
H1011 H 0.93536 0.40449 0.73108 0.0
C1012 C 0.99344 0.37146 0.64985 0.0
C1013 C 0.99287 0.38011 0.62541 0.0
C1014 C 1.0046 0.37352 0.68473 0.0
C1015 C 1.01508 0.38431 0.69641 0.0
C1016 C 1.01387 0.39305 0.6722 0.0
H1017 H 0.14916 0.39205 0.9104 0.0
H1018 H 0.14293 0.39498 0.84697 0.0
C1019 C 1.00292 0.39097 0.63697 0.0
C1020 C 1.02815 0.38613 0.73382 0.0
H1021 H 0.95732 0.39598 0.81316 0.0
C1022 C 0.08417 0.3811 0.74586 0.0
C1023 C 0.98261 0.39175 0.7584 0.0
C1024 C 0.9209 0.3971 0.74728 0.0
C1025 C 0.09478 0.38126 0.7817 0.0
C1026 C 0.04834 0.38664 0.80643 0.0
C1027 C 0.9933 0.39194 0.79426 0.0
C1028 C 0.05165 0.38568 0.84526 0.0
C1029 C 0.15382 0.37518 0.79314 0.0
C1030 C 1.00198 0.37971 0.86566 0.0
C1031 C 1.0057 0.378 0.90154 0.0
C1032 C 0.05887 0.38229 0.91831 0.0
C1033 C 0.10771 0.3886 0.89827 0.0
C1034 C 0.10428 0.39024 0.862 0.0
H1035 H 0.17986 0.37014 0.77156 0.0
H1036 H 0.18986 0.38122 0.80197 0.0
H1037 H 0.13783 0.36966 0.81564 0.0
H1038 H 0.96087 0.37611 0.85358 0.0
H1039 H 0.9669 0.37317 0.91616 0.0
H1040 H 0.50702 0.87514 0.11911 0.0
H1041 H 0.49182 0.87277 0.1833 0.0
H1042 H 0.61328 0.90158 0.19522 0.0
H1043 H 0.63029 0.90372 0.13148 0.0
H1044 H 0.64466 0.88606 0.23855 0.0
H1045 H 0.36946 0.88994 0.25258 0.0
H1046 H 0.40045 0.87877 0.22463 0.0
H1047 H 0.41998 0.89279 0.2118 0.0
C1048 C 0.53046 0.88095 0.1355 0.0
C1049 C 0.56941 0.88967 0.12015 0.0
C1050 C 0.52136 0.87964 0.17227 0.0
C1051 C 0.55023 0.88713 0.1945 0.0
C1052 C 0.59015 0.8957 0.17895 0.0
H1053 H 0.43458 0.9036 0.41177 0.0
H1054 H 0.45149 0.90154 0.34798 0.0
C1055 C 0.59971 0.89694 0.14236 0.0
C1056 C 0.53944 0.88619 0.23384 0.0
H1057 H 0.41921 0.88615 0.30423 0.0
C1058 C 0.59527 0.88603 0.25287 0.0
C1059 C 0.4751 0.88627 0.25284 0.0
C1060 C 0.41279 0.88706 0.23451 0.0
C1061 C 0.58878 0.88616 0.28995 0.0
C1062 C 0.52443 0.88613 0.30895 0.0
C1063 C 0.46859 0.88609 0.28992 0.0
C1064 C 0.5137 0.88702 0.34832 0.0
C1065 C 0.65113 0.88682 0.3083 0.0
C1066 C 0.54212 0.87946 0.37035 0.0
C1067 C 0.53309 0.88071 0.40716 0.0
C1068 C 0.49464 0.88946 0.42274 0.0
C1069 C 0.46477 0.89679 0.40071 0.0
C1070 C 0.47427 0.8956 0.36409 0.0
H1071 H 0.69465 0.88968 0.29031 0.0
H1072 H 0.64433 0.89251 0.33118 0.0
H1073 H 0.66293 0.87849 0.31794 0.0
H1074 H 0.57125 0.87257 0.35914 0.0
H1075 H 0.55618 0.87486 0.4234 0.0
H1076 H 0.41155 0.13374 0.13321 0.0
H1077 H 0.41803 0.13078 0.19659 0.0
H1078 H 0.60011 0.14965 0.18985 0.0
H1079 H 0.59383 0.15262 0.12731 0.0
H1080 H 0.60365 0.12974 0.23018 0.0
H1081 H 0.38152 0.15565 0.27198 0.0
H1082 H 0.37134 0.14458 0.24156 0.0
H1083 H 0.42346 0.15613 0.22787 0.0
C1084 C 0.45305 0.13718 0.1453 0.0
C1085 C 0.50183 0.1435 0.12525 0.0
C1086 C 0.45663 0.13553 0.18154 0.0
C1087 C 0.50934 0.14008 0.19822 0.0
C1088 C 0.55895 0.14606 0.1778 0.0
H1089 H 0.57608 0.16286 0.4011 0.0
H1090 H 0.5567 0.15917 0.34037 0.0
C1091 C 0.55509 0.14778 0.14195 0.0
C1092 C 0.51276 0.13911 0.23701 0.0
H1093 H 0.44265 0.14907 0.31629 0.0
C1094 C 0.5678 0.1338 0.24911 0.0
C1095 C 0.46648 0.14451 0.26176 0.0
C1096 C 0.40746 0.15062 0.25037 0.0
C1097 C 0.57868 0.13399 0.28494 0.0
C1098 C 0.53333 0.13965 0.30952 0.0
C1099 C 0.47728 0.14468 0.29757 0.0
C1100 C 0.54666 0.1415 0.34686 0.0
C1101 C 0.64041 0.12863 0.29599 0.0
C1102 C 0.54797 0.13278 0.37112 0.0
C1103 C 0.55915 0.13488 0.40628 0.0
C1104 C 0.56931 0.14575 0.41773 0.0
C1105 C 0.56864 0.15438 0.39323 0.0
C1106 C 0.55727 0.1523 0.35841 0.0
H1107 H 0.67533 0.12597 0.2731 0.0
H1108 H 0.66686 0.13441 0.31227 0.0
H1109 H 0.62595 0.12126 0.31224 0.0
H1110 H 0.53919 0.12437 0.36305 0.0
H1111 H 0.55872 0.12807 0.42457 0.0
H1112 H 0.57822 0.14688 0.92192 0.0
H1113 H 0.59592 0.14854 0.85757 0.0
H1114 H 0.41878 0.12921 0.84903 0.0
H1115 H 0.40237 0.12726 0.91291 0.0
H1116 H 0.51535 0.12174 0.80461 0.0
H1117 H 0.5098 0.16715 0.78884 0.0
H1118 H 0.57137 0.16268 0.81614 0.0
H1119 H 0.48443 0.16047 0.83026 0.0
C1120 C 0.54275 0.14309 0.90627 0.0
C1121 C 0.48897 0.13691 0.92256 0.0
C1122 C 0.5526 0.14411 0.86941 0.0
C1123 C 0.50827 0.13912 0.84807 0.0
C1124 C 0.45385 0.13315 0.8646 0.0
H1125 H 0.48781 0.14793 0.62105 0.0
H1126 H 0.47141 0.14944 0.68559 0.0
C1127 C 0.44441 0.13205 0.90125 0.0
C1128 C 0.52014 0.13945 0.80863 0.0
H1129 H 0.54582 0.15667 0.73739 0.0
C1130 C 0.52177 0.12941 0.79004 0.0
C1131 C 0.52771 0.14943 0.78919 0.0
C1132 C 0.52259 0.16055 0.80707 0.0
C1133 C 0.53124 0.12902 0.75306 0.0
C1134 C 0.54146 0.13895 0.73363 0.0
C1135 C 0.53889 0.14903 0.75209 0.0
C1136 C 0.5547 0.13894 0.69427 0.0
C1137 C 0.52857 0.11793 0.73518 0.0
C1138 C 0.60832 0.1329 0.67736 0.0
C1139 C 0.61732 0.13196 0.64065 0.0
C1140 C 0.57365 0.13718 0.61972 0.0
C1141 C 0.52221 0.14377 0.63641 0.0
C1142 C 0.51281 0.14463 0.67334 0.0
H1143 H 0.50084 0.11175 0.75255 0.0
H1144 H 0.50452 0.11855 0.71052 0.0
H1145 H 0.58002 0.1148 0.72858 0.0
H1146 H 0.64264 0.12869 0.69264 0.0
H1147 H 0.65793 0.12692 0.62864 0.0
H1148 H 0.4443 0.89596 0.62732 0.0
H1149 H 0.45684 0.89978 0.68969 0.0
H1150 H 0.5767 0.87047 0.69356 0.0
H1151 H 0.56589 0.86684 0.63198 0.0
H1152 H 0.42111 0.88845 0.7491 0.0
H1153 H 0.69442 0.89219 0.73553 0.0
H1154 H 0.64766 0.89216 0.69795 0.0
H1155 H 0.6707 0.87934 0.71721 0.0
C1156 C 0.47349 0.89039 0.64156 0.0
C1157 C 0.5043 0.88112 0.62457 0.0
C1158 C 0.48079 0.89257 0.67719 0.0
C1159 C 0.51931 0.88557 0.69637 0.0
C1160 C 0.5487 0.87623 0.67937 0.0
H1161 H 0.48964 0.86795 0.91191 0.0
H1162 H 0.47935 0.8715 0.85029 0.0
C1163 C 0.54181 0.8741 0.64403 0.0
C1164 C 0.52694 0.88755 0.73448 0.0
H1165 H 0.64268 0.88722 0.79362 0.0
C1166 C 0.46968 0.88837 0.75871 0.0
C1167 C 0.5902 0.88775 0.74743 0.0
C1168 C 0.65416 0.88794 0.72308 0.0
C1169 C 0.47376 0.88861 0.79527 0.0
C1170 C 0.53676 0.88772 0.80826 0.0
C1171 C 0.59421 0.88768 0.784 0.0
C1172 C 0.54353 0.88586 0.84649 0.0
C1173 C 0.41015 0.88974 0.81959 0.0
C1174 C 0.58533 0.89248 0.86517 0.0
C1175 C 0.59218 0.89034 0.90085 0.0
C1176 C 0.55774 0.8815 0.91837 0.0
C1177 C 0.51669 0.87488 0.89943 0.0
C1178 C 0.51012 0.87697 0.86407 0.0
H1179 H 0.37199 0.89438 0.80682 0.0
H1180 H 0.38958 0.8814 0.82611 0.0
H1181 H 0.41872 0.89401 0.8444 0.0
H1182 H 0.61236 0.89933 0.85222 0.0
H1183 H 0.62418 0.8956 0.91467 0.0
loop_
_geom_bond_atom_site_label_1
_geom_bond_atom_site_label_2
_geom_bond_distance
_geom_bond_site_symmetry_2
_ccdc_geom_bond_type
Gd0 C3 2.818 . S
Gd0 O20 2.377 1_455 S
Gd0 O22 2.448 . S
Gd0 O23 2.506 1_554 S
Gd0 O24 2.435 . S
Gd0 O25 2.717 . S
Gd0 O27 2.395 . S
Gd0 O31 2.327 1_554 S
Gd1 C12 2.818 . S
Gd1 O21 2.395 1_455 S
Gd1 O25 2.327 . S
Gd1 O26 2.377 . S
Gd1 O28 2.448 1_554 S
Gd1 O29 2.506 . S
Gd1 O30 2.435 1_554 S
Gd1 O31 2.717 1_554 S
C2 O20 1.240 . S
C2 O21 1.240 . S
C3 Gd0 2.818 . S
C3 C4 1.510 1_455 S
C3 O22 1.249 . S
C3 O23 1.252 1_554 S
C4 C3 1.510 1_655 S
C4 C5 1.404 . S
C4 C6 1.352 1_554 S
C5 C4 1.404 . S
C5 C9 1.389 . S
C5 H32 0.930 . S
C6 C4 1.352 1_556 S
C6 C8 1.374 . S
C6 H33 0.931 . S
C7 C8 1.359 1_554 S
C7 C9 1.364 . S
C8 C6 1.374 . S
C8 C7 1.359 1_556 S
C8 H34 0.931 . S
C9 C5 1.389 . S
C9 C7 1.364 . S
C9 H35 0.931 . S
C10 O24 1.256 . S
C10 O25 1.257 . S
C11 O26 1.240 . S
C11 O27 1.240 . S
C12 Gd1 2.818 . S
C12 C13 1.510 . S
C12 O28 1.249 1_554 S
C12 O29 1.252 . S
C13 C12 1.510 . S
C13 C14 1.404 1_554 S
C13 C15 1.352 . S
C14 C13 1.404 1_556 S
C14 C18 1.386 1_556 S
C14 H36 0.930 . S
C15 C13 1.352 . S
C15 C17 1.374 . S
C15 H37 0.931 . S
C16 C17 1.359 . S
C16 C18 1.381 . S
C17 C15 1.374 . S
C17 C16 1.359 . S
C17 H38 0.931 . S
C18 C14 1.386 1_554 S
C18 C16 1.381 . S
C18 H39 0.917 1_554 S
C19 O30 1.256 . S
C19 O31 1.257 . S
O20 Gd0 2.377 1_655 S
O20 C2 1.240 . S
O21 Gd1 2.395 1_655 S
O21 C2 1.240 . S
O22 Gd0 2.448 . S
O22 C3 1.249 . S
O23 Gd0 2.506 1_556 S
O23 C3 1.252 1_556 S
O24 Gd0 2.435 . S
O24 C10 1.256 . S
O25 Gd0 2.717 . S
O25 Gd1 2.327 . S
O25 C10 1.257 . S
O26 Gd1 2.377 . S
O26 C11 1.240 . S
O27 Gd0 2.395 . S
O27 C11 1.240 . S
O28 Gd1 2.448 1_556 S
O28 C12 1.249 1_556 S
O29 Gd1 2.506 . S
O29 C12 1.252 . S
O30 Gd1 2.435 1_556 S
O30 C19 1.256 . S
O31 Gd0 2.327 1_556 S
O31 Gd1 2.717 1_556 S
O31 C19 1.257 . S
H32 C5 0.930 . S
H33 C6 0.931 . S
H34 C8 0.931 . S
H35 C9 0.931 . S
H36 C14 0.930 . S
H37 C15 0.931 . S
H38 C17 0.931 . S
H39 C18 0.917 1_556 S
Gd40 C43 2.818 . S
Gd40 O60 2.377 . S
Gd40 O62 2.448 . S
Gd40 O63 2.506 1_554 S
Gd40 O64 2.435 . S
Gd40 O65 2.717 . S
Gd40 O67 2.395 1_655 S
Gd40 O71 2.327 1_554 S
Gd41 C52 2.818 . S
Gd41 O61 2.395 . S
Gd41 O65 2.327 . S
Gd41 O66 2.377 1_655 S
Gd41 O68 2.448 1_554 S
Gd41 O69 2.506 . S
Gd41 O70 2.435 1_554 S
Gd41 O71 2.717 1_554 S
C42 O60 1.240 . S
C42 O61 1.240 . S
C43 Gd40 2.818 . S
C43 C44 1.510 . S
C43 O62 1.249 . S
C43 O63 1.252 1_554 S
C44 C43 1.510 . S
C44 C45 1.404 . S
C44 C46 1.352 1_554 S
C45 C44 1.404 . S
C45 C49 1.389 . S
C45 H72 0.930 . S
C46 C44 1.352 1_556 S
C46 C48 1.374 . S
C46 H73 0.931 . S
C47 C48 1.359 1_554 S
C47 C49 1.364 . S
C48 C46 1.374 . S
C48 C47 1.359 1_556 S
C48 H74 0.931 . S
C49 C45 1.389 . S
C49 C47 1.364 . S
C49 H75 0.931 . S
C50 O64 1.256 . S
C50 O65 1.257 . S
C51 O66 1.240 . S
C51 O67 1.240 . S
C52 Gd41 2.818 . S
C52 C53 1.510 1_655 S
C52 O68 1.249 1_554 S
C52 O69 1.252 . S
C53 C52 1.510 1_455 S
C53 C54 1.397 1_554 S
C53 C55 1.352 . S
C54 C53 1.397 1_556 S
C54 C58 1.387 1_556 S
C54 H76 0.939 . S
C55 C53 1.352 . S
C55 C57 1.374 . S
C55 H77 0.931 . S
C56 C57 1.359 . S
C56 C58 1.364 . S
C57 C55 1.374 . S
C57 C56 1.359 . S
C57 H78 0.931 . S
C58 C54 1.387 1_554 S
C58 C56 1.364 . S
C58 H79 0.931 1_554 S
C59 O70 1.256 . S
C59 O71 1.257 . S
O60 Gd40 2.377 . S
O60 C42 1.240 . S
O61 Gd41 2.395 . S
O61 C42 1.240 . S
O62 Gd40 2.448 . S
O62 C43 1.249 . S
O63 Gd40 2.506 1_556 S
O63 C43 1.252 1_556 S
O64 Gd40 2.435 . S
O64 C50 1.256 . S
O65 Gd40 2.717 . S
O65 Gd41 2.327 . S
O65 C50 1.257 . S
O66 Gd41 2.377 1_455 S
O66 C51 1.240 . S
O67 Gd40 2.395 1_455 S
O67 C51 1.240 . S
O68 Gd41 2.448 1_556 S
O68 C52 1.249 1_556 S
O69 Gd41 2.506 . S
O69 C52 1.252 . S
O70 Gd41 2.435 1_556 S
O70 C59 1.256 . S
O71 Gd40 2.327 1_556 S
O71 Gd41 2.717 1_556 S
O71 C59 1.257 . S
H72 C45 0.930 . S
H73 C46 0.931 . S
H74 C48 0.931 . S
H75 C49 0.931 . S
H76 C54 0.939 . S
H77 C55 0.931 . S
H78 C57 0.931 . S
H79 C58 0.931 1_556 S
Gd80 C83 2.818 . S
Gd80 O100 2.377 . S
Gd80 O102 2.448 . S
Gd80 O103 2.506 . S
Gd80 O104 2.435 . S
Gd80 O105 2.717 . S
Gd80 O107 2.395 1_455 S
Gd80 O111 2.327 . S
Gd81 C92 2.818 . S
Gd81 O101 2.395 . S
Gd81 O105 2.327 . S
Gd81 O106 2.377 1_455 S
Gd81 O108 2.448 . S
Gd81 O109 2.506 . S
Gd81 O110 2.435 . S
Gd81 O111 2.717 . S
C82 O100 1.240 . S
C82 O101 1.240 . S
C83 Gd80 2.818 . S
C83 C84 1.510 . S
C83 O102 1.249 . S
C83 O103 1.252 . S
C84 C83 1.510 . S
C84 C85 1.404 . S
C84 C86 1.352 . S
C85 C84 1.404 . S
C85 C89 1.389 . S
C85 H112 0.930 . S
C86 C84 1.352 . S
C86 C88 1.374 . S
C86 H113 0.931 . S
C87 C88 1.359 . S
C87 C89 1.364 . S
C88 C86 1.374 . S
C88 C87 1.359 . S
C88 H114 0.931 . S
C89 C85 1.389 . S
C89 C87 1.364 . S
C89 H115 0.931 . S
C90 O104 1.256 . S
C90 O105 1.257 . S
C91 O106 1.240 . S
C91 O107 1.240 . S
C92 Gd81 2.818 . S
C92 C93 1.510 1_455 S
C92 O108 1.249 . S
C92 O109 1.252 . S
C93 C92 1.510 1_655 S
C93 C94 1.404 . S
C93 C95 1.352 . S
C94 C93 1.404 . S
C94 C98 1.389 . S
C94 H116 0.930 . S
C95 C93 1.352 . S
C95 C97 1.374 . S
C95 H117 0.931 . S
C96 C97 1.359 . S
C96 C98 1.364 . S
C97 C95 1.374 . S
C97 C96 1.359 . S
C97 H118 0.931 . S
C98 C94 1.389 . S
C98 C96 1.364 . S
C98 H119 0.931 . S
C99 O110 1.256 . S
C99 O111 1.257 . S
O100 Gd80 2.377 . S
O100 C82 1.240 . S
O101 Gd81 2.395 . S
O101 C82 1.240 . S
O102 Gd80 2.448 . S
O102 C83 1.249 . S
O103 Gd80 2.506 . S
O103 C83 1.252 . S
O104 Gd80 2.435 . S
O104 C90 1.256 . S
O105 Gd80 2.717 . S
O105 Gd81 2.327 . S
O105 C90 1.257 . S
O106 Gd81 2.377 1_655 S
O106 C91 1.240 . S
O107 Gd80 2.395 1_655 S
O107 C91 1.240 . S
O108 Gd81 2.448 . S
O108 C92 1.249 . S
O109 Gd81 2.506 . S
O109 C92 1.252 . S
O110 Gd81 2.435 . S
O110 C99 1.256 . S
O111 Gd80 2.327 . S
O111 Gd81 2.717 . S
O111 C99 1.257 . S
H112 C85 0.930 . S
H113 C86 0.931 . S
H114 C88 0.931 . S
H115 C89 0.931 . S
H116 C94 0.930 . S
H117 C95 0.931 . S
H118 C97 0.931 . S
H119 C98 0.931 . S
Gd120 C123 2.818 . S
Gd120 O140 2.377 1_655 S
Gd120 O142 2.448 . S
Gd120 O143 2.506 . S
Gd120 O144 2.435 . S
Gd120 O145 2.717 . S
Gd120 O147 2.395 . S
Gd120 O151 2.327 . S
Gd121 C132 2.818 . S
Gd121 O141 2.395 1_655 S
Gd121 O145 2.327 . S
Gd121 O146 2.377 . S
Gd121 O148 2.448 . S
Gd121 O149 2.506 . S
Gd121 O150 2.435 . S
Gd121 O151 2.717 . S
C122 O140 1.240 . S
C122 O141 1.240 . S
C123 Gd120 2.818 . S
C123 C124 1.510 1_655 S
C123 O142 1.249 . S
C123 O143 1.252 . S
C124 C123 1.510 1_455 S
C124 C125 1.404 . S
C124 C126 1.352 . S
C125 C124 1.404 . S
C125 C129 1.389 . S
C125 H152 0.930 . S
C126 C124 1.352 . S
C126 C128 1.374 . S
C126 H153 0.931 . S
C127 C128 1.359 . S
C127 C129 1.364 . S
C128 C126 1.374 . S
C128 C127 1.359 . S
C128 H154 0.931 . S
C129 C125 1.389 . S
C129 C127 1.364 . S
C129 H155 0.931 . S
C130 O144 1.256 . S
C130 O145 1.257 . S
C131 O146 1.240 . S
C131 O147 1.240 . S
C132 Gd121 2.818 . S
C132 C133 1.510 . S
C132 O148 1.249 . S
C132 O149 1.252 . S
C133 C132 1.510 . S
C133 C134 1.404 . S
C133 C135 1.352 . S
C134 C133 1.404 . S
C134 C138 1.389 . S
C134 H156 0.930 . S
C135 C133 1.352 . S
C135 C137 1.374 . S
C135 H157 0.931 . S
C136 C137 1.359 . S
C136 C138 1.364 . S
C137 C135 1.374 . S
C137 C136 1.359 . S
C137 H158 0.931 . S
C138 C134 1.389 . S
C138 C136 1.364 . S
C138 H159 0.931 . S
C139 O150 1.256 . S
C139 O151 1.257 . S
O140 Gd120 2.377 1_455 S
O140 C122 1.240 . S
O141 Gd121 2.395 1_455 S
O141 C122 1.240 . S
O142 Gd120 2.448 . S
O142 C123 1.249 . S
O143 Gd120 2.506 . S
O143 C123 1.252 . S
O144 Gd120 2.435 . S
O144 C130 1.256 . S
O145 Gd120 2.717 . S
O145 Gd121 2.327 . S
O145 C130 1.257 . S
O146 Gd121 2.377 . S
O146 C131 1.240 . S
O147 Gd120 2.395 . S
O147 C131 1.240 . S
O148 Gd121 2.448 . S
O148 C132 1.249 . S
O149 Gd121 2.506 . S
O149 C132 1.252 . S
O150 Gd121 2.435 . S
O150 C139 1.256 . S
O151 Gd120 2.327 . S
O151 Gd121 2.717 . S
O151 C139 1.257 . S
H152 C125 0.930 . S
H153 C126 0.931 . S
H154 C128 0.931 . S
H155 C129 0.931 . S
H156 C134 0.930 . S
H157 C135 0.931 . S
H158 C137 0.931 . S
H159 C138 0.931 . S
Gd160 C163 2.818 . S
Gd160 O180 2.377 . S
Gd160 O182 2.448 . S
Gd160 O183 2.506 1_554 S
Gd160 O184 2.435 . S
Gd160 O185 2.717 . S
Gd160 O187 2.395 . S
Gd160 O191 2.327 1_554 S
Gd161 C172 2.818 . S
Gd161 O181 2.395 . S
Gd161 O185 2.327 . S
Gd161 O186 2.377 . S
Gd161 O188 2.448 1_554 S
Gd161 O189 2.506 . S
Gd161 O190 2.435 1_554 S
Gd161 O191 2.717 1_554 S
C162 O180 1.240 . S
C162 O181 1.240 . S
C163 Gd160 2.818 . S
C163 C164 1.510 . S
C163 O182 1.249 . S
C163 O183 1.252 1_554 S
C164 C163 1.510 . S
C164 C165 1.404 . S
C164 C166 1.352 1_554 S
C165 C164 1.404 . S
C165 C169 1.389 . S
C165 H192 0.930 . S
C166 C164 1.352 1_556 S
C166 C168 1.374 . S
C166 H193 0.931 . S
C167 C168 1.359 1_554 S
C167 C169 1.364 . S
C168 C166 1.374 . S
C168 C167 1.359 1_556 S
C168 H194 0.931 . S
C169 C165 1.389 . S
C169 C167 1.364 . S
C169 H195 0.931 . S
C170 O184 1.256 . S
C170 O185 1.257 . S
C171 O186 1.240 . S
C171 O187 1.240 . S
C172 Gd161 2.818 . S
C172 C173 1.510 . S
C172 O188 1.249 1_554 S
C172 O189 1.252 . S
C173 C172 1.510 . S
C173 C174 1.404 1_554 S
C173 C175 1.352 . S
C174 C173 1.404 1_556 S
C174 C178 1.386 1_556 S
C174 H196 0.930 . S
C175 C173 1.352 . S
C175 C177 1.374 . S
C175 H197 0.931 . S
C176 C177 1.359 . S
C176 C178 1.379 . S
C177 C175 1.374 . S
C177 C176 1.359 . S
C177 H198 0.931 . S
C178 C174 1.386 1_554 S
C178 C176 1.379 . S
C178 H199 0.919 1_554 S
C179 O190 1.256 . S
C179 O191 1.257 . S
O180 Gd160 2.377 . S
O180 C162 1.240 . S
O181 Gd161 2.395 . S
O181 C162 1.240 . S
O182 Gd160 2.448 . S
O182 C163 1.249 . S
O183 Gd160 2.506 1_556 S
O183 C163 1.252 1_556 S
O184 Gd160 2.435 . S
O184 C170 1.256 . S
O185 Gd160 2.717 . S
O185 Gd161 2.327 . S
O185 C170 1.257 . S
O186 Gd161 2.377 . S
O186 C171 1.240 . S
O187 Gd160 2.395 . S
O187 C171 1.240 . S
O188 Gd161 2.448 1_556 S
O188 C172 1.249 1_556 S
O189 Gd161 2.506 . S
O189 C172 1.252 . S
O190 Gd161 2.435 1_556 S
O190 C179 1.256 . S
O191 Gd160 2.327 1_556 S
O191 Gd161 2.717 1_556 S
O191 C179 1.257 . S
H192 C165 0.930 . S
H193 C166 0.931 . S
H194 C168 0.931 . S
H195 C169 0.931 . S
H196 C174 0.930 . S
H197 C175 0.931 . S
H198 C177 0.931 . S
H199 C178 0.919 1_556 S
Gd200 C203 2.818 . S
Gd200 O220 2.377 . S
Gd200 O222 2.448 . S
Gd200 O223 2.506 1_554 S
Gd200 O224 2.435 . S
Gd200 O225 2.717 . S
Gd200 O227 2.395 . S
Gd200 O231 2.327 1_554 S
Gd201 C212 2.818 . S
Gd201 O221 2.395 . S
Gd201 O225 2.327 . S
Gd201 O226 2.377 . S
Gd201 O228 2.448 1_554 S
Gd201 O229 2.506 . S
Gd201 O230 2.435 1_554 S
Gd201 O231 2.717 1_554 S
C202 O220 1.240 . S
C202 O221 1.240 . S
C203 Gd200 2.818 . S
C203 C204 1.510 . S
C203 O222 1.249 . S
C203 O223 1.252 1_554 S
C204 C203 1.510 . S
C204 C205 1.404 . S
C204 C206 1.352 1_554 S
C205 C204 1.404 . S
C205 C209 1.389 . S
C205 H232 0.930 . S
C206 C204 1.352 1_556 S
C206 C208 1.374 . S
C206 H233 0.931 . S
C207 C208 1.359 1_554 S
C207 C209 1.364 . S
C208 C206 1.374 . S
C208 C207 1.359 1_556 S
C208 H234 0.931 . S
C209 C205 1.389 . S
C209 C207 1.364 . S
C209 H235 0.931 . S
C210 O224 1.256 . S
C210 O225 1.257 . S
C211 O226 1.240 . S
C211 O227 1.240 . S
C212 Gd201 2.818 . S
C212 C213 1.510 . S
C212 O228 1.249 1_554 S
C212 O229 1.252 . S
C213 C212 1.510 . S
C213 C214 1.398 1_554 S
C213 C215 1.352 . S
C214 C213 1.398 1_556 S
C214 C218 1.388 1_556 S
C214 H236 0.937 . S
C215 C213 1.352 . S
C215 C217 1.374 . S
C215 H237 0.931 . S
C216 C217 1.359 . S
C216 C218 1.364 . S
C217 C215 1.374 . S
C217 C216 1.359 . S
C217 H238 0.931 . S
C218 C214 1.388 1_554 S
C218 C216 1.364 . S
C218 H239 0.931 1_554 S
C219 O230 1.256 . S
C219 O231 1.257 . S
O220 Gd200 2.377 . S
O220 C202 1.240 . S
O221 Gd201 2.395 . S
O221 C202 1.240 . S
O222 Gd200 2.448 . S
O222 C203 1.249 . S
O223 Gd200 2.506 1_556 S
O223 C203 1.252 1_556 S
O224 Gd200 2.435 . S
O224 C210 1.256 . S
O225 Gd200 2.717 . S
O225 Gd201 2.327 . S
O225 C210 1.257 . S
O226 Gd201 2.377 . S
O226 C211 1.240 . S
O227 Gd200 2.395 . S
O227 C211 1.240 . S
O228 Gd201 2.448 1_556 S
O228 C212 1.249 1_556 S
O229 Gd201 2.506 . S
O229 C212 1.252 . S
O230 Gd201 2.435 1_556 S
O230 C219 1.256 . S
O231 Gd200 2.327 1_556 S
O231 Gd201 2.717 1_556 S
O231 C219 1.257 . S
H232 C205 0.930 . S
H233 C206 0.931 . S
H234 C208 0.931 . S
H235 C209 0.931 . S
H236 C214 0.937 . S
H237 C215 0.931 . S
H238 C217 0.931 . S
H239 C218 0.931 1_556 S
Gd240 C243 2.818 . S
Gd240 O260 2.377 . S
Gd240 O262 2.448 . S
Gd240 O263 2.506 . S
Gd240 O264 2.435 . S
Gd240 O265 2.717 . S
Gd240 O267 2.395 . S
Gd240 O271 2.327 . S
Gd241 C252 2.818 . S
Gd241 O261 2.395 . S
Gd241 O265 2.327 . S
Gd241 O266 2.377 . S
Gd241 O268 2.448 . S
Gd241 O269 2.506 . S
Gd241 O270 2.435 . S
Gd241 O271 2.717 . S
C242 O260 1.240 . S
C242 O261 1.240 . S
C243 Gd240 2.818 . S
C243 C244 1.510 . S
C243 O262 1.249 . S
C243 O263 1.252 . S
C244 C243 1.510 . S
C244 C245 1.404 . S
C244 C246 1.352 . S
C245 C244 1.404 . S
C245 C249 1.389 . S
C245 H272 0.930 . S
C246 C244 1.352 . S
C246 C248 1.374 . S
C246 H273 0.931 . S
C247 C248 1.359 . S
C247 C249 1.364 . S
C248 C246 1.374 . S
C248 C247 1.359 . S
C248 H274 0.931 . S
C249 C245 1.389 . S
C249 C247 1.364 . S
C249 H275 0.931 . S
C250 O264 1.256 . S
C250 O265 1.257 . S
C251 O266 1.240 . S
C251 O267 1.240 . S
C252 Gd241 2.818 . S
C252 C253 1.510 . S
C252 O268 1.249 . S
C252 O269 1.252 . S
C253 C252 1.510 . S
C253 C254 1.404 . S
C253 C255 1.352 . S
C254 C253 1.404 . S
C254 C258 1.389 . S
C254 H276 0.930 . S
C255 C253 1.352 . S
C255 C257 1.374 . S
C255 H277 0.931 . S
C256 C257 1.359 . S
C256 C258 1.364 . S
C257 C255 1.374 . S
C257 C256 1.359 . S
C257 H278 0.931 . S
C258 C254 1.389 . S
C258 C256 1.364 . S
C258 H279 0.931 . S
C259 O270 1.256 . S
C259 O271 1.257 . S
O260 Gd240 2.377 . S
O260 C242 1.240 . S
O261 Gd241 2.395 . S
O261 C242 1.240 . S
O262 Gd240 2.448 . S
O262 C243 1.249 . S
O263 Gd240 2.506 . S
O263 C243 1.252 . S
O264 Gd240 2.435 . S
O264 C250 1.256 . S
O265 Gd240 2.717 . S
O265 Gd241 2.327 . S
O265 C250 1.257 . S
O266 Gd241 2.377 . S
O266 C251 1.240 . S
O267 Gd240 2.395 . S
O267 C251 1.240 . S
O268 Gd241 2.448 . S
O268 C252 1.249 . S
O269 Gd241 2.506 . S
O269 C252 1.252 . S
O270 Gd241 2.435 . S
O270 C259 1.256 . S
O271 Gd240 2.327 . S
O271 Gd241 2.717 . S
O271 C259 1.257 . S
H272 C245 0.930 . S
H273 C246 0.931 . S
H274 C248 0.931 . S
H275 C249 0.931 . S
H276 C254 0.930 . S
H277 C255 0.931 . S
H278 C257 0.931 . S
H279 C258 0.931 . S
Gd280 C283 2.818 . S
Gd280 O300 2.377 . S
Gd280 O302 2.448 . S
Gd280 O303 2.506 . S
Gd280 O304 2.435 . S
Gd280 O305 2.717 . S
Gd280 O307 2.395 . S
Gd280 O311 2.327 . S
Gd281 C292 2.818 . S
Gd281 O301 2.395 . S
Gd281 O305 2.327 . S
Gd281 O306 2.377 . S
Gd281 O308 2.448 . S
Gd281 O309 2.506 . S
Gd281 O310 2.435 . S
Gd281 O311 2.717 . S
C282 O300 1.240 . S
C282 O301 1.240 . S
C283 Gd280 2.818 . S
C283 C284 1.510 . S
C283 O302 1.249 . S
C283 O303 1.252 . S
C284 C283 1.510 . S
C284 C285 1.404 . S
C284 C286 1.352 . S
C285 C284 1.404 . S
C285 C289 1.389 . S
C285 H312 0.930 . S
C286 C284 1.352 . S
C286 C288 1.374 . S
C286 H313 0.931 . S
C287 C288 1.359 . S
C287 C289 1.364 . S
C288 C286 1.374 . S
C288 C287 1.359 . S
C288 H314 0.931 . S
C289 C285 1.389 . S
C289 C287 1.364 . S
C289 H315 0.931 . S
C290 O304 1.256 . S
C290 O305 1.257 . S
C291 O306 1.240 . S
C291 O307 1.240 . S
C292 Gd281 2.818 . S
C292 C293 1.510 . S
C292 O308 1.249 . S
C292 O309 1.252 . S
C293 C292 1.510 . S
C293 C294 1.404 . S
C293 C295 1.352 . S
C294 C293 1.404 . S
C294 C298 1.389 . S
C294 H316 0.930 . S
C295 C293 1.352 . S
C295 C297 1.374 . S
C295 H317 0.931 . S
C296 C297 1.359 . S
C296 C298 1.364 . S
C297 C295 1.374 . S
C297 C296 1.359 . S
C297 H318 0.931 . S
C298 C294 1.389 . S
C298 C296 1.364 . S
C298 H319 0.931 . S
C299 O310 1.256 . S
C299 O311 1.257 . S
O300 Gd280 2.377 . S
O300 C282 1.240 . S
O301 Gd281 2.395 . S
O301 C282 1.240 . S
O302 Gd280 2.448 . S
O302 C283 1.249 . S
O303 Gd280 2.506 . S
O303 C283 1.252 . S
O304 Gd280 2.435 . S
O304 C290 1.256 . S
O305 Gd280 2.717 . S
O305 Gd281 2.327 . S
O305 C290 1.257 . S
O306 Gd281 2.377 . S
O306 C291 1.240 . S
O307 Gd280 2.395 . S
O307 C291 1.240 . S
O308 Gd281 2.448 . S
O308 C292 1.249 . S
O309 Gd281 2.506 . S
O309 C292 1.252 . S
O310 Gd281 2.435 . S
O310 C299 1.256 . S
O311 Gd280 2.327 . S
O311 Gd281 2.717 . S
O311 C299 1.257 . S
H312 C285 0.930 . S
H313 C286 0.931 . S
H314 C288 0.931 . S
H315 C289 0.931 . S
H316 C294 0.930 . S
H317 C295 0.931 . S
H318 C297 0.931 . S
H319 C298 0.931 . S
H320 C328 0.929 . S
H321 C330 0.930 . S
H322 C332 0.930 . S
H323 C335 0.929 . S
H324 C338 0.930 . S
H325 C340 0.960 . S
H326 C340 0.960 1_556 S
H327 C340 0.960 . S
C328 H320 0.929 . S
C328 C329 1.377 1_556 S
C328 C330 1.384 . S
C329 C328 1.377 1_554 S
C329 C335 1.390 . S
C330 H321 0.930 . S
C330 C328 1.384 . S
C330 C331 1.372 1_556 S
C331 C330 1.372 1_554 S
C331 C332 1.400 . S
C331 C336 1.490 . S
C332 H322 0.930 . S
C332 C331 1.400 . S
C332 C335 1.386 . S
H333 C349 0.930 . S
H334 C350 0.931 . S
C335 H323 0.929 . S
C335 C329 1.390 . S
C335 C332 1.386 . S
C336 C331 1.490 . S
C336 C338 1.395 . S
C336 C339 1.403 . S
H337 C343 0.930 . S
C338 H324 0.930 . S
C338 C336 1.395 . S
C338 C341 1.403 . S
C339 C336 1.403 . S
C339 C340 1.524 . S
C339 C343 1.400 . S
C340 H325 0.960 . S
C340 H326 0.960 1_554 S
C340 H327 0.960 . S
C340 C339 1.524 . S
C341 C338 1.403 . S
C341 C342 1.392 . S
C341 C345 1.495 . S
C342 C341 1.392 . S
C342 C343 1.385 . S
C342 C344 1.478 . S
C343 H337 0.930 . S
C343 C339 1.400 . S
C343 C342 1.385 . S
C344 C342 1.478 . S
C344 C346 1.381 1_554 S
C344 C350 1.383 . S
C345 C341 1.495 . S
C345 H351 0.959 . S
C345 H352 0.961 . S
C345 H353 0.960 . S
C346 C344 1.381 1_556 S
C346 C347 1.394 . S
C346 H354 0.930 . S
C347 C346 1.394 . S
C347 C348 1.383 1_556 S
C347 H355 0.929 . S
C348 C347 1.383 1_554 S
C348 C349 1.377 . S
C349 H333 0.930 . S
C349 C348 1.377 . S
C349 C350 1.379 . S
C350 H334 0.931 . S
C350 C344 1.383 . S
C350 C349 1.379 . S
H351 C345 0.959 . S
H352 C345 0.961 . S
H353 C345 0.960 . S
H354 C346 0.930 . S
H355 C347 0.929 . S
H356 C364 0.929 . S
H357 C366 0.930 . S
H358 C368 0.930 . S
H359 C371 0.929 . S
H360 C374 0.930 . S
H361 C376 0.960 . S
H362 C376 0.960 . S
H363 C376 0.960 . S
C364 H356 0.929 . S
C364 C365 1.377 1_556 S
C364 C366 1.384 . S
C365 C364 1.377 1_554 S
C365 C371 1.390 . S
C366 H357 0.930 . S
C366 C364 1.384 . S
C366 C367 1.372 1_556 S
C367 C366 1.372 1_554 S
C367 C368 1.400 . S
C367 C372 1.490 . S
C368 H358 0.930 . S
C368 C367 1.400 . S
C368 C371 1.386 . S
H369 C385 0.930 . S
H370 C386 0.931 . S
C371 H359 0.929 . S
C371 C365 1.390 . S
C371 C368 1.386 . S
C372 C367 1.490 . S
C372 C374 1.395 . S
C372 C375 1.403 . S
H373 C379 0.930 . S
C374 H360 0.930 . S
C374 C372 1.395 . S
C374 C377 1.403 . S
C375 C372 1.403 . S
C375 C376 1.524 . S
C375 C379 1.400 . S
C376 H361 0.960 . S
C376 H362 0.960 . S
C376 H363 0.960 . S
C376 C375 1.524 . S
C377 C374 1.403 . S
C377 C378 1.392 . S
C377 C381 1.495 . S
C378 C377 1.392 . S
C378 C379 1.385 . S
C378 C380 1.478 . S
C379 H373 0.930 . S
C379 C375 1.400 . S
C379 C378 1.385 . S
C380 C378 1.478 . S
C380 C382 1.381 1_554 S
C380 C386 1.383 . S
C381 C377 1.495 . S
C381 H387 0.959 . S
C381 H388 0.961 . S
C381 H389 0.960 1_554 S
C382 C380 1.381 1_556 S
C382 C383 1.394 . S
C382 H390 0.930 . S
C383 C382 1.394 . S
C383 C384 1.383 1_556 S
C383 H391 0.929 . S
C384 C383 1.383 1_554 S
C384 C385 1.377 . S
C385 H369 0.930 . S
C385 C384 1.377 . S
C385 C386 1.379 . S
C386 H370 0.931 . S
C386 C380 1.383 . S
C386 C385 1.379 . S
H387 C381 0.959 . S
H388 C381 0.961 . S
H389 C381 0.960 1_556 S
H390 C382 0.930 . S
H391 C383 0.929 . S
H392 C400 0.929 . S
H393 C402 0.930 . S
H394 C404 0.930 . S
H395 C407 0.929 . S
H396 C410 0.930 . S
H397 C412 0.960 . S
H398 C412 0.960 . S
H399 C412 0.960 . S
C400 H392 0.929 . S
C400 C401 1.377 . S
C400 C402 1.384 . S
C401 C400 1.377 . S
C401 C407 1.390 . S
C402 H393 0.930 . S
C402 C400 1.384 . S
C402 C403 1.372 . S
C403 C402 1.372 . S
C403 C404 1.400 . S
C403 C408 1.490 . S
C404 H394 0.930 . S
C404 C403 1.400 . S
C404 C407 1.386 . S
H405 C421 0.930 . S
H406 C422 0.931 . S
C407 H395 0.929 . S
C407 C401 1.390 . S
C407 C404 1.386 . S
C408 C403 1.490 . S
C408 C410 1.395 . S
C408 C411 1.403 . S
H409 C415 0.930 . S
C410 H396 0.930 . S
C410 C408 1.395 . S
C410 C413 1.403 . S
C411 C408 1.403 . S
C411 C412 1.524 . S
C411 C415 1.400 . S
C412 H397 0.960 . S
C412 H398 0.960 . S
C412 H399 0.960 . S
C412 C411 1.524 . S
C413 C410 1.403 . S
C413 C414 1.392 . S
C413 C417 1.495 . S
C414 C413 1.392 . S
C414 C415 1.385 . S
C414 C416 1.478 . S
C415 H409 0.930 . S
C415 C411 1.400 . S
C415 C414 1.385 . S
C416 C414 1.478 . S
C416 C418 1.381 . S
C416 C422 1.383 . S
C417 C413 1.495 . S
C417 H423 0.959 . S
C417 H424 0.961 . S
C417 H425 0.960 . S
C418 C416 1.381 . S
C418 C419 1.394 . S
C418 H426 0.930 . S
C419 C418 1.394 . S
C419 C420 1.383 . S
C419 H427 0.929 . S
C420 C419 1.383 . S
C420 C421 1.377 . S
C421 H405 0.930 . S
C421 C420 1.377 . S
C421 C422 1.379 . S
C422 H406 0.931 . S
C422 C416 1.383 . S
C422 C421 1.379 . S
H423 C417 0.959 . S
H424 C417 0.961 . S
H425 C417 0.960 . S
H426 C418 0.930 . S
H427 C419 0.929 . S
H428 C436 0.929 . S
H429 C438 0.930 . S
H430 C440 0.930 . S
H431 C443 0.929 . S
H432 C446 0.930 . S
H433 C448 0.960 . S
H434 C448 0.960 . S
H435 C448 0.960 . S
C436 H428 0.929 . S
C436 C437 1.377 . S
C436 C438 1.384 . S
C437 C436 1.377 . S
C437 C443 1.390 . S
C438 H429 0.930 . S
C438 C436 1.384 . S
C438 C439 1.372 . S
C439 C438 1.372 . S
C439 C440 1.400 . S
C439 C444 1.490 . S
C440 H430 0.930 . S
C440 C439 1.400 . S
C440 C443 1.386 . S
H441 C457 0.930 . S
H442 C458 0.931 . S
C443 H431 0.929 . S
C443 C437 1.390 . S
C443 C440 1.386 . S
C444 C439 1.490 . S
C444 C446 1.395 . S
C444 C447 1.403 . S
H445 C451 0.930 . S
C446 H432 0.930 . S
C446 C444 1.395 . S
C446 C449 1.403 . S
C447 C444 1.403 . S
C447 C448 1.524 . S
C447 C451 1.400 . S
C448 H433 0.960 . S
C448 H434 0.960 . S
C448 H435 0.960 . S
C448 C447 1.524 . S
C449 C446 1.403 . S
C449 C450 1.392 . S
C449 C453 1.495 . S
C450 C449 1.392 . S
C450 C451 1.385 . S
C450 C452 1.478 . S
C451 H445 0.930 . S
C451 C447 1.400 . S
C451 C450 1.385 . S
C452 C450 1.478 . S
C452 C454 1.381 . S
C452 C458 1.383 . S
C453 C449 1.495 . S
C453 H459 0.959 . S
C453 H460 0.961 . S
C453 H461 0.960 . S
C454 C452 1.381 . S
C454 C455 1.394 . S
C454 H462 0.930 . S
C455 C454 1.394 . S
C455 C456 1.383 . S
C455 H463 0.929 . S
C456 C455 1.383 . S
C456 C457 1.377 . S
C457 H441 0.930 . S
C457 C456 1.377 . S
C457 C458 1.379 . S
C458 H442 0.931 . S
C458 C452 1.383 . S
C458 C457 1.379 . S
H459 C453 0.959 . S
H460 C453 0.961 . S
H461 C453 0.960 . S
H462 C454 0.930 . S
H463 C455 0.929 . S
H464 C472 0.929 . S
H465 C474 0.930 . S
H466 C476 0.930 . S
H467 C479 0.929 . S
H468 C482 0.930 1_656 S
H469 C484 0.960 . S
H470 C484 0.960 1_655 S
H471 C484 0.960 1_655 S
C472 H464 0.929 . S
C472 C473 1.377 1_556 S
C472 C474 1.384 . S
C473 C472 1.377 1_554 S
C473 C479 1.390 . S
C474 H465 0.930 . S
C474 C472 1.384 . S
C474 C475 1.372 1_556 S
C475 C474 1.372 1_554 S
C475 C476 1.400 . S
C475 C480 1.490 . S
C476 H466 0.930 . S
C476 C475 1.400 . S
C476 C479 1.386 . S
H477 C493 0.930 . S
H478 C494 0.931 . S
C479 H467 0.929 . S
C479 C473 1.390 . S
C479 C476 1.386 . S
C480 C475 1.490 . S
C480 C482 1.395 1_655 S
C480 C483 1.403 1_655 S
H481 C487 0.930 . S
C482 H468 0.930 1_454 S
C482 C480 1.395 1_455 S
C482 C485 1.403 . S
C483 C480 1.403 1_455 S
C483 C484 1.524 . S
C483 C487 1.400 . S
C484 H469 0.960 . S
C484 H470 0.960 1_455 S
C484 H471 0.960 1_455 S
C484 C483 1.524 . S
C485 C482 1.403 . S
C485 C486 1.392 . S
C485 C489 1.495 1_554 S
C486 C485 1.392 . S
C486 C487 1.385 . S
C486 C488 1.478 . S
C487 H481 0.930 . S
C487 C483 1.400 . S
C487 C486 1.385 . S
C488 C486 1.478 . S
C488 C490 1.381 1_554 S
C488 C494 1.383 . S
C489 C485 1.495 1_556 S
C489 H495 0.959 . S
C489 H496 0.961 1_556 S
C489 H497 0.960 . S
C490 C488 1.381 1_556 S
C490 C491 1.394 . S
C490 H498 0.930 . S
C491 C490 1.394 . S
C491 C492 1.383 1_556 S
C491 H499 0.929 . S
C492 C491 1.383 1_554 S
C492 C493 1.377 . S
C493 H477 0.930 . S
C493 C492 1.377 . S
C493 C494 1.379 . S
C494 H478 0.931 . S
C494 C488 1.383 . S
C494 C493 1.379 . S
H495 C489 0.959 . S
H496 C489 0.961 1_554 S
H497 C489 0.960 . S
H498 C490 0.930 . S
H499 C491 0.929 . S
H500 C508 0.929 . S
H501 C510 0.930 . S
H502 C512 0.930 . S
H503 C515 0.929 . S
H504 C518 0.930 1_456 S
H505 C520 0.960 . S
H506 C520 0.960 1_455 S
H507 C520 0.960 1_455 S
C508 H500 0.929 . S
C508 C509 1.377 1_556 S
C508 C510 1.384 . S
C509 C508 1.377 1_554 S
C509 C515 1.390 . S
C510 H501 0.930 . S
C510 C508 1.384 . S
C510 C511 1.372 1_556 S
C511 C510 1.372 1_554 S
C511 C512 1.400 . S
C511 C516 1.490 . S
C512 H502 0.930 . S
C512 C511 1.400 . S
C512 C515 1.386 . S
H513 C529 0.930 . S
H514 C530 0.931 . S
C515 H503 0.929 . S
C515 C509 1.390 . S
C515 C512 1.386 . S
C516 C511 1.490 . S
C516 C518 1.395 1_455 S
C516 C519 1.403 1_455 S
H517 C523 0.930 . S
C518 H504 0.930 1_654 S
C518 C516 1.395 1_655 S
C518 C521 1.402 1_554 S
C519 C516 1.403 1_655 S
C519 C520 1.524 . S
C519 C523 1.400 . S
C520 H505 0.960 . S
C520 H506 0.960 1_655 S
C520 H507 0.960 1_655 S
C520 C519 1.524 . S
C521 C518 1.402 1_556 S
C521 C522 1.389 1_556 S
C521 C525 1.499 . S
C522 C521 1.389 1_554 S
C522 C523 1.385 . S
C522 C524 1.478 . S
C523 H517 0.930 . S
C523 C519 1.400 . S
C523 C522 1.385 . S
C524 C522 1.478 . S
C524 C526 1.381 1_554 S
C524 C530 1.383 . S
C525 C521 1.499 . S
C525 H531 0.959 . S
C525 H532 0.961 . S
C525 H533 0.960 . S
C526 C524 1.381 1_556 S
C526 C527 1.394 . S
C526 H534 0.930 . S
C527 C526 1.394 . S
C527 C528 1.383 1_556 S
C527 H535 0.929 . S
C528 C527 1.383 1_554 S
C528 C529 1.377 . S
C529 H513 0.930 . S
C529 C528 1.377 . S
C529 C530 1.379 . S
C530 H514 0.931 . S
C530 C524 1.383 . S
C530 C529 1.379 . S
H531 C525 0.959 . S
H532 C525 0.961 . S
H533 C525 0.960 . S
H534 C526 0.930 . S
H535 C527 0.929 . S
H536 C544 0.929 . S
H537 C546 0.930 . S
H538 C548 0.930 . S
H539 C551 0.929 . S
H540 C554 0.930 . S
H541 C556 0.960 . S
H542 C556 0.960 . S
H543 C556 0.960 . S
C544 H536 0.929 . S
C544 C545 1.377 . S
C544 C546 1.384 . S
C545 C544 1.377 . S
C545 C551 1.390 . S
C546 H537 0.930 . S
C546 C544 1.384 . S
C546 C547 1.372 . S
C547 C546 1.372 . S
C547 C548 1.400 . S
C547 C552 1.490 . S
C548 H538 0.930 . S
C548 C547 1.400 . S
C548 C551 1.386 . S
H549 C565 0.930 . S
H550 C566 0.931 . S
C551 H539 0.929 . S
C551 C545 1.390 . S
C551 C548 1.386 . S
C552 C547 1.490 . S
C552 C554 1.395 . S
C552 C555 1.403 . S
H553 C559 0.930 . S
C554 H540 0.930 . S
C554 C552 1.395 . S
C554 C557 1.403 . S
C555 C552 1.403 . S
C555 C556 1.524 . S
C555 C559 1.400 . S
C556 H541 0.960 . S
C556 H542 0.960 . S
C556 H543 0.960 . S
C556 C555 1.524 . S
C557 C554 1.403 . S
C557 C558 1.392 1_455 S
C557 C561 1.495 1_455 S
C558 C557 1.392 1_655 S
C558 C559 1.385 1_655 S
C558 C560 1.478 . S
C559 H553 0.930 . S
C559 C555 1.400 . S
C559 C558 1.385 1_455 S
C560 C558 1.478 . S
C560 C562 1.381 . S
C560 C566 1.383 . S
C561 C557 1.495 1_655 S
C561 H567 0.959 1_655 S
C561 H568 0.961 . S
C561 H569 0.960 . S
C562 C560 1.381 . S
C562 C563 1.394 . S
C562 H570 0.930 . S
C563 C562 1.394 . S
C563 C564 1.383 . S
C563 H571 0.929 . S
C564 C563 1.383 . S
C564 C565 1.377 . S
C565 H549 0.930 . S
C565 C564 1.377 . S
C565 C566 1.379 . S
C566 H550 0.931 . S
C566 C560 1.383 . S
C566 C565 1.379 . S
H567 C561 0.959 1_455 S
H568 C561 0.961 . S
H569 C561 0.960 . S
H570 C562 0.930 . S
H571 C563 0.929 . S
H572 C580 0.929 . S
H573 C582 0.930 . S
H574 C584 0.930 . S
H575 C587 0.929 . S
H576 C590 0.930 . S
H577 C592 0.960 . S
H578 C592 0.960 . S
H579 C592 0.960 . S
C580 H572 0.929 . S
C580 C581 1.377 . S
C580 C582 1.384 . S
C581 C580 1.377 . S
C581 C587 1.390 . S
C582 H573 0.930 . S
C582 C580 1.384 . S
C582 C583 1.372 . S
C583 C582 1.372 . S
C583 C584 1.400 . S
C583 C588 1.490 . S
C584 H574 0.930 . S
C584 C583 1.400 . S
C584 C587 1.386 . S
H585 C601 0.930 . S
H586 C602 0.931 . S
C587 H575 0.929 . S
C587 C581 1.390 . S
C587 C584 1.386 . S
C588 C583 1.490 . S
C588 C590 1.395 . S
C588 C591 1.403 . S
H589 C595 0.930 . S
C590 H576 0.930 . S
C590 C588 1.395 . S
C590 C593 1.403 . S
C591 C588 1.403 . S
C591 C592 1.524 . S
C591 C595 1.400 . S
C592 H577 0.960 . S
C592 H578 0.960 . S
C592 H579 0.960 . S
C592 C591 1.524 . S
C593 C590 1.403 . S
C593 C594 1.392 1_655 S
C593 C597 1.495 1_655 S
C594 C593 1.392 1_455 S
C594 C595 1.385 1_455 S
C594 C596 1.478 . S
C595 H589 0.930 . S
C595 C591 1.400 . S
C595 C594 1.385 1_655 S
C596 C594 1.478 . S
C596 C598 1.381 . S
C596 C602 1.383 . S
C597 C593 1.495 1_455 S
C597 H603 0.959 1_455 S
C597 H604 0.961 . S
C597 H605 0.960 . S
C598 C596 1.381 . S
C598 C599 1.394 . S
C598 H606 0.930 . S
C599 C598 1.394 . S
C599 C600 1.383 . S
C599 H607 0.929 . S
C600 C599 1.383 . S
C600 C601 1.377 . S
C601 H585 0.930 . S
C601 C600 1.377 . S
C601 C602 1.379 . S
C602 H586 0.931 . S
C602 C596 1.383 . S
C602 C601 1.379 . S
H603 C597 0.959 1_655 S
H604 C597 0.961 . S
H605 C597 0.960 . S
H606 C598 0.930 . S
H607 C599 0.929 . S
H608 C616 0.928 . S
H609 C618 0.930 . S
H610 C620 0.930 1_655 S
H611 C623 0.929 . S
H612 C626 0.930 . S
H613 C628 0.960 . S
H614 C628 0.960 1_556 S
H615 C628 0.960 . S
C616 H608 0.928 . S
C616 C617 1.379 1_556 S
C616 C618 1.384 . S
C617 C616 1.379 1_554 S
C617 C623 1.390 . S
C618 H609 0.930 . S
C618 C616 1.384 . S
C618 C619 1.372 1_556 S
C619 C618 1.372 1_554 S
C619 C620 1.400 . S
C619 C624 1.490 . S
C620 H610 0.930 1_455 S
C620 C619 1.400 . S
C620 C623 1.386 . S
H621 C637 0.930 . S
H622 C638 0.931 . S
C623 H611 0.929 . S
C623 C617 1.390 . S
C623 C620 1.386 . S
C624 C619 1.490 . S
C624 C626 1.395 . S
C624 C627 1.403 1_455 S
H625 C631 0.930 . S
C626 H612 0.930 . S
C626 C624 1.395 . S
C626 C629 1.403 . S
C627 C624 1.403 1_655 S
C627 C628 1.524 . S
C627 C631 1.400 . S
C628 H613 0.960 . S
C628 H614 0.960 1_554 S
C628 H615 0.960 . S
C628 C627 1.524 . S
C629 C626 1.403 . S
C629 C630 1.392 1_455 S
C629 C633 1.495 . S
C630 C629 1.392 1_655 S
C630 C631 1.385 . S
C630 C632 1.478 . S
C631 H625 0.930 . S
C631 C627 1.400 . S
C631 C630 1.385 . S
C632 C630 1.478 . S
C632 C634 1.381 1_554 S
C632 C638 1.383 . S
C633 C629 1.495 . S
C633 H639 0.959 . S
C633 H640 0.961 . S
C633 H641 0.960 1_554 S
C634 C632 1.381 1_556 S
C634 C635 1.394 . S
C634 H642 0.930 1_655 S
C635 C634 1.394 . S
C635 C636 1.383 1_556 S
C635 H643 0.929 . S
C636 C635 1.383 1_554 S
C636 C637 1.377 . S
C637 H621 0.930 . S
C637 C636 1.377 . S
C637 C638 1.379 . S
C638 H622 0.931 . S
C638 C632 1.383 . S
C638 C637 1.379 . S
H639 C633 0.959 . S
H640 C633 0.961 . S
H641 C633 0.960 1_556 S
H642 C634 0.930 1_455 S
H643 C635 0.929 . S
H644 C652 0.929 . S
H645 C654 0.930 1_655 S
H646 C656 0.930 . S
H647 C659 0.929 . S
H648 C662 0.930 . S
H649 C664 0.960 . S
H650 C664 0.960 . S
H651 C664 0.960 . S
C652 H644 0.929 . S
C652 C653 1.377 . S
C652 C654 1.384 . S
C653 C652 1.377 . S
C653 C659 1.390 . S
C654 H645 0.930 1_455 S
C654 C652 1.384 . S
C654 C655 1.372 . S
C655 C654 1.372 . S
C655 C656 1.400 . S
C655 C660 1.490 . S
C656 H646 0.930 . S
C656 C655 1.400 . S
C656 C659 1.386 . S
H657 C673 0.930 . S
H658 C674 0.931 . S
C659 H647 0.929 . S
C659 C653 1.390 . S
C659 C656 1.386 . S
C660 C655 1.490 . S
C660 C662 1.395 1_455 S
C660 C663 1.403 . S
H661 C667 0.930 . S
C662 H648 0.930 . S
C662 C660 1.395 1_655 S
C662 C665 1.403 . S
C663 C660 1.403 . S
C663 C664 1.524 . S
C663 C667 1.400 . S
C664 H649 0.960 . S
C664 H650 0.960 . S
C664 H651 0.960 . S
C664 C663 1.524 . S
C665 C662 1.403 . S
C665 C666 1.392 . S
C665 C669 1.495 . S
C666 C665 1.392 . S
C666 C667 1.385 1_655 S
C666 C668 1.478 . S
C667 H661 0.930 . S
C667 C663 1.400 . S
C667 C666 1.385 1_455 S
C668 C666 1.478 . S
C668 C670 1.381 . S
C668 C674 1.383 . S
C669 C665 1.495 . S
C669 H675 0.959 . S
C669 H676 0.961 . S
C669 H677 0.960 . S
C670 C668 1.381 . S
C670 C671 1.394 . S
C670 H678 0.930 . S
C671 C670 1.394 . S
C671 C672 1.383 . S
C671 H679 0.929 . S
C672 C671 1.383 . S
C672 C673 1.377 . S
C673 H657 0.930 . S
C673 C672 1.377 . S
C673 C674 1.379 . S
C674 H658 0.931 . S
C674 C668 1.383 . S
C674 C673 1.379 . S
H675 C669 0.959 . S
H676 C669 0.961 . S
H677 C669 0.960 . S
H678 C670 0.930 . S
H679 C671 0.929 . S
H680 C688 0.929 . S
H681 C690 0.930 . S
H682 C692 0.930 . S
H683 C695 0.929 . S
H684 C698 0.930 . S
H685 C700 0.960 1_545 S
H686 C700 0.960 . S
H687 C700 0.960 . S
C688 H680 0.929 . S
C688 C689 1.377 . S
C688 C690 1.384 . S
C689 C688 1.377 . S
C689 C695 1.390 1_554 S
C690 H681 0.930 . S
C690 C688 1.384 . S
C690 C691 1.372 . S
C691 C690 1.372 . S
C691 C692 1.400 1_554 S
C691 C696 1.490 . S
C692 H682 0.930 . S
C692 C691 1.400 1_556 S
C692 C695 1.386 . S
H693 C709 0.930 1_556 S
H694 C710 0.931 1_556 S
C695 H683 0.929 . S
C695 C689 1.390 1_556 S
C695 C692 1.386 . S
C696 C691 1.490 . S
C696 C698 1.395 . S
C696 C699 1.383 1_554 S
H697 C703 0.930 1_556 S
C698 H684 0.930 . S
C698 C696 1.395 . S
C698 C701 1.403 1_565 S
C699 C696 1.383 1_556 S
C699 C700 1.548 . S
C699 C703 1.395 1_566 S
C700 H685 0.960 1_565 S
C700 H686 0.960 . S
C700 H687 0.960 . S
C700 C699 1.548 . S
C701 C698 1.403 1_545 S
C701 C702 1.392 . S
C701 C705 1.495 . S
C702 C701 1.392 . S
C702 C703 1.385 . S
C702 C704 1.478 . S
C703 H697 0.930 1_554 S
C703 C699 1.395 1_544 S
C703 C702 1.385 . S
C704 C702 1.478 . S
C704 C706 1.381 . S
C704 C710 1.383 . S
C705 C701 1.495 . S
C705 H711 0.959 1_545 S
C705 H712 0.961 . S
C705 H713 0.960 . S
C706 C704 1.381 . S
C706 C707 1.394 . S
C706 H714 0.930 . S
C707 C706 1.394 . S
C707 C708 1.383 . S
C707 H715 0.929 . S
C708 C707 1.383 . S
C708 C709 1.377 . S
C709 H693 0.930 1_554 S
C709 C708 1.377 . S
C709 C710 1.379 . S
C710 H694 0.931 1_554 S
C710 C704 1.383 . S
C710 C709 1.379 . S
H711 C705 0.959 1_565 S
H712 C705 0.961 . S
H713 C705 0.960 . S
H714 C706 0.930 . S
H715 C707 0.929 . S
H716 C724 0.929 . S
H717 C726 0.930 . S
H718 C728 0.930 . S
H719 C731 0.929 . S
H720 C734 0.930 . S
H721 C736 0.960 . S
H722 C736 0.960 . S
H723 C736 0.960 . S
C724 H716 0.929 . S
C724 C725 1.377 . S
C724 C726 1.384 . S
C725 C724 1.377 . S
C725 C731 1.390 . S
C726 H717 0.930 . S
C726 C724 1.384 . S
C726 C727 1.372 . S
C727 C726 1.372 . S
C727 C728 1.400 . S
C727 C732 1.490 . S
C728 H718 0.930 . S
C728 C727 1.400 . S
C728 C731 1.386 . S
H729 C745 0.930 . S
H730 C746 0.931 . S
C731 H719 0.929 . S
C731 C725 1.390 . S
C731 C728 1.386 . S
C732 C727 1.490 . S
C732 C734 1.395 . S
C732 C735 1.403 . S
H733 C739 0.930 . S
C734 H720 0.930 . S
C734 C732 1.395 . S
C734 C737 1.403 1_545 S
C735 C732 1.403 . S
C735 C736 1.524 . S
C735 C739 1.400 1_545 S
C736 H721 0.960 . S
C736 H722 0.960 . S
C736 H723 0.960 . S
C736 C735 1.524 . S
C737 C734 1.403 1_565 S
C737 C738 1.392 . S
C737 C741 1.495 . S
C738 C737 1.392 . S
C738 C739 1.385 . S
C738 C740 1.478 . S
C739 H733 0.930 . S
C739 C735 1.400 1_565 S
C739 C738 1.385 . S
C740 C738 1.478 . S
C740 C742 1.381 . S
C740 C746 1.383 . S
C741 C737 1.495 . S
C741 H747 0.959 . S
C741 H748 0.961 . S
C741 H749 0.960 . S
C742 C740 1.381 . S
C742 C743 1.394 . S
C742 H750 0.930 . S
C743 C742 1.394 . S
C743 C744 1.383 . S
C743 H751 0.929 . S
C744 C743 1.383 . S
C744 C745 1.377 . S
C745 H729 0.930 . S
C745 C744 1.377 . S
C745 C746 1.379 . S
C746 H730 0.931 . S
C746 C740 1.383 . S
C746 C745 1.379 . S
H747 C741 0.959 . S
H748 C741 0.961 . S
H749 C741 0.960 . S
H750 C742 0.930 . S
H751 C743 0.929 . S
H752 C760 0.929 1_556 S
H753 C762 0.940 . S
H754 C764 0.930 . S
H755 C767 0.929 . S
H756 C770 0.930 . S
H757 C772 0.960 . S
H758 C772 0.960 1_556 S
H759 C772 0.960 . S
C760 H752 0.929 1_554 S
C760 C761 1.377 . S
C760 C762 1.383 1_554 S
C761 C760 1.377 . S
C761 C767 1.390 . S
C762 H753 0.940 . S
C762 C760 1.383 1_556 S
C762 C763 1.363 1_556 S
C763 C762 1.363 1_554 S
C763 C764 1.400 . S
C763 C768 1.490 . S
C764 H754 0.930 . S
C764 C763 1.400 . S
C764 C767 1.386 . S
H765 C781 0.930 . S
H766 C782 0.931 . S
C767 H755 0.929 . S
C767 C761 1.390 . S
C767 C764 1.386 . S
C768 C763 1.490 . S
C768 C770 1.395 . S
C768 C771 1.403 . S
H769 C775 0.930 . S
C770 H756 0.930 . S
C770 C768 1.395 . S
C770 C773 1.403 . S
C771 C768 1.403 . S
C771 C772 1.524 . S
C771 C775 1.400 . S
C772 H757 0.960 . S
C772 H758 0.960 1_554 S
C772 H759 0.960 . S
C772 C771 1.524 . S
C773 C770 1.403 . S
C773 C774 1.392 . S
C773 C777 1.495 . S
C774 C773 1.392 . S
C774 C775 1.385 . S
C774 C776 1.478 . S
C775 H769 0.930 . S
C775 C771 1.400 . S
C775 C774 1.385 . S
C776 C774 1.478 . S
C776 C778 1.381 1_554 S
C776 C782 1.383 . S
C777 C773 1.495 . S
C777 H783 0.959 . S
C777 H784 0.961 . S
C777 H785 0.960 . S
C778 C776 1.381 1_556 S
C778 C779 1.394 . S
C778 H786 0.930 . S
C779 C778 1.394 . S
C779 C780 1.383 1_556 S
C779 H787 0.929 . S
C780 C779 1.383 1_554 S
C780 C781 1.377 . S
C781 H765 0.930 . S
C781 C780 1.377 . S
C781 C782 1.379 . S
C782 H766 0.931 . S
C782 C776 1.383 . S
C782 C781 1.379 . S
H783 C777 0.959 . S
H784 C777 0.961 . S
H785 C777 0.960 . S
H786 C778 0.930 . S
H787 C779 0.929 . S
H788 C796 0.929 . S
H789 C798 0.930 . S
H790 C800 0.930 . S
H791 C803 0.929 . S
H792 C806 0.930 . S
H793 C808 0.960 . S
H794 C808 0.960 . S
H795 C808 0.960 . S
C796 H788 0.929 . S
C796 C797 1.377 . S
C796 C798 1.384 . S
C797 C796 1.377 . S
C797 C803 1.390 . S
C798 H789 0.930 . S
C798 C796 1.384 . S
C798 C799 1.372 . S
C799 C798 1.372 . S
C799 C800 1.400 . S
C799 C804 1.490 . S
C800 H790 0.930 . S
C800 C799 1.400 . S
C800 C803 1.386 . S
H801 C817 0.930 . S
H802 C818 0.931 . S
C803 H791 0.929 . S
C803 C797 1.390 . S
C803 C800 1.386 . S
C804 C799 1.490 . S
C804 C806 1.395 . S
C804 C807 1.403 . S
H805 C811 0.930 1_556 S
C806 H792 0.930 . S
C806 C804 1.395 . S
C806 C809 1.403 . S
C807 C804 1.403 . S
C807 C808 1.524 1_554 S
C807 C811 1.400 . S
C808 H793 0.960 . S
C808 H794 0.960 . S
C808 H795 0.960 . S
C808 C807 1.524 1_556 S
C809 C806 1.403 . S
C809 C810 1.392 . S
C809 C813 1.495 . S
C810 C809 1.392 . S
C810 C811 1.385 . S
C810 C812 1.478 . S
C811 H805 0.930 1_554 S
C811 C807 1.400 . S
C811 C810 1.385 . S
C812 C810 1.478 . S
C812 C814 1.381 . S
C812 C818 1.383 . S
C813 C809 1.495 . S
C813 H819 0.959 . S
C813 H820 0.961 . S
C813 H821 0.960 . S
C814 C812 1.381 . S
C814 C815 1.394 1_554 S
C814 H822 0.930 1_554 S
C815 C814 1.394 1_556 S
C815 C816 1.383 1_556 S
C815 H823 0.929 . S
C816 C815 1.383 1_554 S
C816 C817 1.377 . S
C817 H801 0.930 . S
C817 C816 1.377 . S
C817 C818 1.379 . S
C818 H802 0.931 . S
C818 C812 1.383 . S
C818 C817 1.379 . S
H819 C813 0.959 . S
H820 C813 0.961 . S
H821 C813 0.960 . S
H822 C814 0.930 1_556 S
H823 C815 0.929 . S
H824 C832 0.929 . S
H825 C834 0.930 . S
H826 C836 0.930 . S
H827 C839 0.929 . S
H828 C842 0.930 . S
H829 C844 0.960 . S
H830 C844 0.960 . S
H831 C844 0.960 . S
C832 H824 0.929 . S
C832 C833 1.377 . S
C832 C834 1.384 . S
C833 C832 1.377 . S
C833 C839 1.390 . S
C834 H825 0.930 . S
C834 C832 1.384 . S
C834 C835 1.372 . S
C835 C834 1.372 . S
C835 C836 1.400 . S
C835 C840 1.490 . S
C836 H826 0.930 . S
C836 C835 1.400 . S
C836 C839 1.386 . S
H837 C853 0.930 . S
H838 C854 0.931 . S
C839 H827 0.929 . S
C839 C833 1.390 . S
C839 C836 1.386 . S
C840 C835 1.490 . S
C840 C842 1.395 . S
C840 C843 1.403 . S
H841 C847 0.930 . S
C842 H828 0.930 . S
C842 C840 1.395 . S
C842 C845 1.403 . S
C843 C840 1.403 . S
C843 C844 1.524 . S
C843 C847 1.400 . S
C844 H829 0.960 . S
C844 H830 0.960 . S
C844 H831 0.960 . S
C844 C843 1.524 . S
C845 C842 1.403 . S
C845 C846 1.392 . S
C845 C849 1.495 . S
C846 C845 1.392 . S
C846 C847 1.385 . S
C846 C848 1.478 . S
C847 H841 0.930 . S
C847 C843 1.400 . S
C847 C846 1.385 . S
C848 C846 1.478 . S
C848 C850 1.381 . S
C848 C854 1.383 . S
C849 C845 1.495 . S
C849 H855 0.959 . S
C849 H856 0.961 . S
C849 H857 0.960 . S
C850 C848 1.381 . S
C850 C851 1.394 . S
C850 H858 0.930 . S
C851 C850 1.394 . S
C851 C852 1.383 . S
C851 H859 0.929 . S
C852 C851 1.383 . S
C852 C853 1.377 . S
C853 H837 0.930 . S
C853 C852 1.377 . S
C853 C854 1.379 . S
C854 H838 0.931 . S
C854 C848 1.383 . S
C854 C853 1.379 . S
H855 C849 0.959 . S
H856 C849 0.961 . S
H857 C849 0.960 . S
H858 C850 0.930 . S
H859 C851 0.929 . S
H860 C868 0.929 . S
H861 C870 0.930 . S
H862 C872 0.930 . S
H863 C875 0.929 . S
H864 C878 0.930 . S
H865 C880 0.960 . S
H866 C880 0.960 . S
H867 C880 0.960 . S
C868 H860 0.929 . S
C868 C869 1.377 . S
C868 C870 1.384 . S
C869 C868 1.377 . S
C869 C875 1.390 . S
C870 H861 0.930 . S
C870 C868 1.384 . S
C870 C871 1.372 . S
C871 C870 1.372 . S
C871 C872 1.400 . S
C871 C876 1.490 . S
C872 H862 0.930 . S
C872 C871 1.400 . S
C872 C875 1.386 . S
H873 C889 0.930 . S
H874 C890 0.931 . S
C875 H863 0.929 . S
C875 C869 1.390 . S
C875 C872 1.386 . S
C876 C871 1.490 . S
C876 C878 1.395 . S
C876 C879 1.403 . S
H877 C883 0.930 . S
C878 H864 0.930 . S
C878 C876 1.395 . S
C878 C881 1.403 . S
C879 C876 1.403 . S
C879 C880 1.524 . S
C879 C883 1.400 . S
C880 H865 0.960 . S
C880 H866 0.960 . S
C880 H867 0.960 . S
C880 C879 1.524 . S
C881 C878 1.403 . S
C881 C882 1.392 . S
C881 C885 1.495 . S
C882 C881 1.392 . S
C882 C883 1.385 . S
C882 C884 1.478 . S
C883 H877 0.930 . S
C883 C879 1.400 . S
C883 C882 1.385 . S
C884 C882 1.478 . S
C884 C886 1.381 . S
C884 C890 1.383 . S
C885 C881 1.495 . S
C885 H891 0.959 . S
C885 H892 0.961 . S
C885 H893 0.960 . S
C886 C884 1.381 . S
C886 C887 1.394 . S
C886 H894 0.930 . S
C887 C886 1.394 . S
C887 C888 1.383 . S
C887 H895 0.929 . S
C888 C887 1.383 . S
C888 C889 1.377 . S
C889 H873 0.930 . S
C889 C888 1.377 . S
C889 C890 1.379 . S
C890 H874 0.931 . S
C890 C884 1.383 . S
C890 C889 1.379 . S
H891 C885 0.959 . S
H892 C885 0.961 . S
H893 C885 0.960 . S
H894 C886 0.930 . S
H895 C887 0.929 . S
H896 C904 0.929 . S
H897 C906 0.930 . S
H898 C908 0.930 . S
H899 C911 0.929 . S
H900 C914 0.930 . S
H901 C916 0.960 . S
H902 C916 0.960 . S
H903 C916 0.960 . S
C904 H896 0.929 . S
C904 C905 1.377 . S
C904 C906 1.384 . S
C905 C904 1.377 . S
C905 C911 1.390 . S
C906 H897 0.930 . S
C906 C904 1.384 . S
C906 C907 1.372 . S
C907 C906 1.372 . S
C907 C908 1.400 . S
C907 C912 1.490 . S
C908 H898 0.930 . S
C908 C907 1.400 . S
C908 C911 1.386 . S
H909 C925 0.930 . S
H910 C926 0.931 . S
C911 H899 0.929 . S
C911 C905 1.390 . S
C911 C908 1.386 . S
C912 C907 1.490 . S
C912 C914 1.395 1_455 S
C912 C915 1.403 . S
H913 C919 0.930 . S
C914 H900 0.930 . S
C914 C912 1.395 1_655 S
C914 C917 1.403 . S
C915 C912 1.403 . S
C915 C916 1.524 . S
C915 C919 1.400 . S
C916 H901 0.960 . S
C916 H902 0.960 . S
C916 H903 0.960 . S
C916 C915 1.524 . S
C917 C914 1.403 . S
C917 C918 1.392 . S
C917 C921 1.495 . S
C918 C917 1.392 . S
C918 C919 1.385 1_655 S
C918 C920 1.478 . S
C919 H913 0.930 . S
C919 C915 1.400 . S
C919 C918 1.385 1_455 S
C920 C918 1.478 . S
C920 C922 1.381 . S
C920 C926 1.383 . S
C921 C917 1.495 . S
C921 H927 0.959 . S
C921 H928 0.961 . S
C921 H929 0.960 . S
C922 C920 1.381 . S
C922 C923 1.394 . S
C922 H930 0.930 . S
C923 C922 1.394 . S
C923 C924 1.383 . S
C923 H931 0.929 . S
C924 C923 1.383 . S
C924 C925 1.377 . S
C925 H909 0.930 . S
C925 C924 1.377 . S
C925 C926 1.379 . S
C926 H910 0.931 . S
C926 C920 1.383 . S
C926 C925 1.379 . S
H927 C921 0.959 . S
H928 C921 0.961 . S
H929 C921 0.960 . S
H930 C922 0.930 . S
H931 C923 0.929 . S
H932 C940 0.929 . S
H933 C942 0.930 . S
H934 C944 0.930 1_455 S
H935 C947 0.929 . S
H936 C950 0.930 . S
H937 C952 0.960 . S
H938 C952 0.960 . S
H939 C952 0.960 . S
C940 H932 0.929 . S
C940 C941 1.377 . S
C940 C942 1.384 . S
C941 C940 1.377 . S
C941 C947 1.390 . S
C942 H933 0.930 . S
C942 C940 1.384 . S
C942 C943 1.372 . S
C943 C942 1.372 . S
C943 C944 1.400 . S
C943 C948 1.490 . S
C944 H934 0.930 1_655 S
C944 C943 1.400 . S
C944 C947 1.386 . S
H945 C961 0.930 . S
H946 C962 0.931 . S
C947 H935 0.929 . S
C947 C941 1.390 . S
C947 C944 1.386 . S
C948 C943 1.490 . S
C948 C950 1.395 . S
C948 C951 1.403 1_655 S
H949 C955 0.930 . S
C950 H936 0.930 . S
C950 C948 1.395 . S
C950 C953 1.403 . S
C951 C948 1.403 1_455 S
C951 C952 1.524 . S
C951 C955 1.400 . S
C952 H937 0.960 . S
C952 H938 0.960 . S
C952 H939 0.960 . S
C952 C951 1.524 . S
C953 C950 1.403 . S
C953 C954 1.392 1_655 S
C953 C957 1.495 . S
C954 C953 1.392 1_455 S
C954 C955 1.385 . S
C954 C956 1.478 . S
C955 H949 0.930 . S
C955 C951 1.400 . S
C955 C954 1.385 . S
C956 C954 1.478 . S
C956 C958 1.381 . S
C956 C962 1.383 . S
C957 C953 1.495 . S
C957 H963 0.959 . S
C957 H964 0.961 . S
C957 H965 0.960 . S
C958 C956 1.381 . S
C958 C959 1.394 . S
C958 H966 0.930 1_455 S
C959 C958 1.394 . S
C959 C960 1.383 . S
C959 H967 0.929 . S
C960 C959 1.383 . S
C960 C961 1.377 . S
C961 H945 0.930 . S
C961 C960 1.377 . S
C961 C962 1.379 . S
C962 H946 0.931 . S
C962 C956 1.383 . S
C962 C961 1.379 . S
H963 C957 0.959 . S
H964 C957 0.961 . S
H965 C957 0.960 . S
H966 C958 0.930 1_655 S
H967 C959 0.929 . S
H968 C976 0.929 . S
H969 C978 0.930 . S
H970 C980 0.930 1_455 S
H971 C983 0.929 . S
H972 C986 0.930 . S
H973 C988 0.960 . S
H974 C988 0.960 . S
H975 C988 0.960 . S
C976 H968 0.929 . S
C976 C977 1.377 . S
C976 C978 1.384 . S
C977 C976 1.377 . S
C977 C983 1.390 . S
C978 H969 0.930 . S
C978 C976 1.384 . S
C978 C979 1.372 . S
C979 C978 1.372 . S
C979 C980 1.400 . S
C979 C984 1.490 . S
C980 H970 0.930 1_655 S
C980 C979 1.400 . S
C980 C983 1.386 . S
H981 C997 0.930 . S
H982 C998 0.931 . S
C983 H971 0.929 . S
C983 C977 1.390 . S
C983 C980 1.386 . S
C984 C979 1.490 . S
C984 C986 1.395 1_655 S
C984 C987 1.403 . S
H985 C991 0.930 . S
C986 H972 0.930 . S
C986 C984 1.395 1_455 S
C986 C989 1.403 . S
C987 C984 1.403 . S
C987 C988 1.524 . S
C987 C991 1.400 . S
C988 H973 0.960 . S
C988 H974 0.960 . S
C988 H975 0.960 . S
C988 C987 1.524 . S
C989 C986 1.403 . S
C989 C990 1.392 . S
C989 C993 1.495 . S
C990 C989 1.392 . S
C990 C991 1.385 1_455 S
C990 C992 1.478 . S
C991 H985 0.930 . S
C991 C987 1.400 . S
C991 C990 1.385 1_655 S
C992 C990 1.478 . S
C992 C994 1.381 . S
C992 C998 1.383 . S
C993 C989 1.495 . S
C993 H999 0.959 . S
C993 H1000 0.961 . S
C993 H1001 0.960 . S
C994 C992 1.381 . S
C994 C995 1.394 . S
C994 H1002 0.930 1_455 S
C995 C994 1.394 . S
C995 C996 1.383 . S
C995 H1003 0.929 1_455 S
C996 C995 1.383 . S
C996 C997 1.377 . S
C997 H981 0.930 . S
C997 C996 1.377 . S
C997 C998 1.379 . S
C998 H982 0.931 . S
C998 C992 1.383 . S
C998 C997 1.379 . S
H999 C993 0.959 . S
H1000 C993 0.961 . S
H1001 C993 0.960 . S
H1002 C994 0.930 1_655 S
H1003 C995 0.929 1_655 S
H1004 C1012 0.929 . S
H1005 C1014 0.930 1_455 S
H1006 C1016 0.930 . S
H1007 C1019 0.929 . S
H1008 C1022 0.930 . S
H1009 C1024 0.960 . S
H1010 C1024 0.960 . S
H1011 C1024 0.960 . S
C1012 H1004 0.929 . S
C1012 C1013 1.377 . S
C1012 C1014 1.384 . S
C1013 C1012 1.377 . S
C1013 C1019 1.390 . S
C1014 H1005 0.930 1_655 S
C1014 C1012 1.384 . S
C1014 C1015 1.372 . S
C1015 C1014 1.372 . S
C1015 C1016 1.400 . S
C1015 C1020 1.490 . S
C1016 H1006 0.930 . S
C1016 C1015 1.400 . S
C1016 C1019 1.386 . S
H1017 C1033 0.930 . S
H1018 C1034 0.931 . S
C1019 H1007 0.929 . S
C1019 C1013 1.390 . S
C1019 C1016 1.386 . S
C1020 C1015 1.490 . S
C1020 C1022 1.395 1_655 S
C1020 C1023 1.403 . S
H1021 C1027 0.930 . S
C1022 H1008 0.930 . S
C1022 C1020 1.395 1_455 S
C1022 C1025 1.403 . S
C1023 C1020 1.403 . S
C1023 C1024 1.524 . S
C1023 C1027 1.400 . S
C1024 H1009 0.960 . S
C1024 H1010 0.960 . S
C1024 H1011 0.960 . S
C1024 C1023 1.524 . S
C1025 C1022 1.403 . S
C1025 C1026 1.392 . S
C1025 C1029 1.495 . S
C1026 C1025 1.392 . S
C1026 C1027 1.385 1_455 S
C1026 C1028 1.478 . S
C1027 H1021 0.930 . S
C1027 C1023 1.400 . S
C1027 C1026 1.385 1_655 S
C1028 C1026 1.478 . S
C1028 C1030 1.381 . S
C1028 C1034 1.383 . S
C1029 C1025 1.495 . S
C1029 H1035 0.959 . S
C1029 H1036 0.961 . S
C1029 H1037 0.960 . S
C1030 C1028 1.381 . S
C1030 C1031 1.394 . S
C1030 H1038 0.930 . S
C1031 C1030 1.394 . S
C1031 C1032 1.383 . S
C1031 H1039 0.929 . S
C1032 C1031 1.383 . S
C1032 C1033 1.377 . S
C1033 H1017 0.930 . S
C1033 C1032 1.377 . S
C1033 C1034 1.379 . S
C1034 H1018 0.931 . S
C1034 C1028 1.383 . S
C1034 C1033 1.379 . S
H1035 C1029 0.959 . S
H1036 C1029 0.961 . S
H1037 C1029 0.960 . S
H1038 C1030 0.930 . S
H1039 C1031 0.929 . S
H1040 C1048 0.929 . S
H1041 C1050 0.930 . S
H1042 C1052 0.930 . S
H1043 C1055 0.929 . S
H1044 C1058 0.930 . S
H1045 C1060 0.960 . S
H1046 C1060 0.960 . S
H1047 C1060 0.960 . S
C1048 H1040 0.929 . S
C1048 C1049 1.377 . S
C1048 C1050 1.384 . S
C1049 C1048 1.377 . S
C1049 C1055 1.390 . S
C1050 H1041 0.930 . S
C1050 C1048 1.384 . S
C1050 C1051 1.372 . S
C1051 C1050 1.372 . S
C1051 C1052 1.400 . S
C1051 C1056 1.490 . S
C1052 H1042 0.930 . S
C1052 C1051 1.400 . S
C1052 C1055 1.386 . S
H1053 C1069 0.930 . S
H1054 C1070 0.931 . S
C1055 H1043 0.929 . S
C1055 C1049 1.390 . S
C1055 C1052 1.386 . S
C1056 C1051 1.490 . S
C1056 C1058 1.395 . S
C1056 C1059 1.403 . S
H1057 C1063 0.930 . S
C1058 H1044 0.930 . S
C1058 C1056 1.395 . S
C1058 C1061 1.403 . S
C1059 C1056 1.403 . S
C1059 C1060 1.524 . S
C1059 C1063 1.400 . S
C1060 H1045 0.960 . S
C1060 H1046 0.960 . S
C1060 H1047 0.960 . S
C1060 C1059 1.524 . S
C1061 C1058 1.403 . S
C1061 C1062 1.392 . S
C1061 C1065 1.495 . S
C1062 C1061 1.392 . S
C1062 C1063 1.385 . S
C1062 C1064 1.478 . S
C1063 H1057 0.930 . S
C1063 C1059 1.400 . S
C1063 C1062 1.385 . S
C1064 C1062 1.478 . S
C1064 C1066 1.381 . S
C1064 C1070 1.383 . S
C1065 C1061 1.495 . S
C1065 H1071 0.959 . S
C1065 H1072 0.961 . S
C1065 H1073 0.960 . S
C1066 C1064 1.381 . S
C1066 C1067 1.394 . S
C1066 H1074 0.930 . S
C1067 C1066 1.394 . S
C1067 C1068 1.383 . S
C1067 H1075 0.929 . S
C1068 C1067 1.383 . S
C1068 C1069 1.377 . S
C1069 H1053 0.930 . S
C1069 C1068 1.377 . S
C1069 C1070 1.379 . S
C1070 H1054 0.931 . S
C1070 C1064 1.383 . S
C1070 C1069 1.379 . S
H1071 C1065 0.959 . S
H1072 C1065 0.961 . S
H1073 C1065 0.960 . S
H1074 C1066 0.930 . S
H1075 C1067 0.929 . S
H1076 C1084 0.929 . S
H1077 C1086 0.930 . S
H1078 C1088 0.930 . S
H1079 C1091 0.929 . S
H1080 C1094 0.930 . S
H1081 C1096 0.960 . S
H1082 C1096 0.960 . S
H1083 C1096 0.960 . S
C1084 H1076 0.929 . S
C1084 C1085 1.377 . S
C1084 C1086 1.384 . S
C1085 C1084 1.377 . S
C1085 C1091 1.390 . S
C1086 H1077 0.930 . S
C1086 C1084 1.384 . S
C1086 C1087 1.372 . S
C1087 C1086 1.372 . S
C1087 C1088 1.400 . S
C1087 C1092 1.490 . S
C1088 H1078 0.930 . S
C1088 C1087 1.400 . S
C1088 C1091 1.386 . S
H1089 C1105 0.930 . S
H1090 C1106 0.931 . S
C1091 H1079 0.929 . S
C1091 C1085 1.390 . S
C1091 C1088 1.386 . S
C1092 C1087 1.490 . S
C1092 C1094 1.395 . S
C1092 C1095 1.403 . S
H1093 C1099 0.930 . S
C1094 H1080 0.930 . S
C1094 C1092 1.395 . S
C1094 C1097 1.403 . S
C1095 C1092 1.403 . S
C1095 C1096 1.524 . S
C1095 C1099 1.400 . S
C1096 H1081 0.960 . S
C1096 H1082 0.960 . S
C1096 H1083 0.960 . S
C1096 C1095 1.524 . S
C1097 C1094 1.403 . S
C1097 C1098 1.392 . S
C1097 C1101 1.495 . S
C1098 C1097 1.392 . S
C1098 C1099 1.385 . S
C1098 C1100 1.478 . S
C1099 H1093 0.930 . S
C1099 C1095 1.400 . S
C1099 C1098 1.385 . S
C1100 C1098 1.478 . S
C1100 C1102 1.381 . S
C1100 C1106 1.383 . S
C1101 C1097 1.495 . S
C1101 H1107 0.959 . S
C1101 H1108 0.961 . S
C1101 H1109 0.960 . S
C1102 C1100 1.381 . S
C1102 C1103 1.394 . S
C1102 H1110 0.930 . S
C1103 C1102 1.394 . S
C1103 C1104 1.383 . S
C1103 H1111 0.929 . S
C1104 C1103 1.383 . S
C1104 C1105 1.377 . S
C1105 H1089 0.930 . S
C1105 C1104 1.377 . S
C1105 C1106 1.379 . S
C1106 H1090 0.931 . S
C1106 C1100 1.383 . S
C1106 C1105 1.379 . S
H1107 C1101 0.959 . S
H1108 C1101 0.961 . S
H1109 C1101 0.960 . S
H1110 C1102 0.930 . S
H1111 C1103 0.929 . S
H1112 C1120 0.929 . S
H1113 C1122 0.930 . S
H1114 C1124 0.930 . S
H1115 C1127 0.929 . S
H1116 C1130 0.930 . S
H1117 C1132 0.960 . S
H1118 C1132 0.960 . S
H1119 C1132 0.960 . S
C1120 H1112 0.929 . S
C1120 C1121 1.377 . S
C1120 C1122 1.384 . S
C1121 C1120 1.377 . S
C1121 C1127 1.390 . S
C1122 H1113 0.930 . S
C1122 C1120 1.384 . S
C1122 C1123 1.372 . S
C1123 C1122 1.372 . S
C1123 C1124 1.400 . S
C1123 C1128 1.490 . S
C1124 H1114 0.930 . S
C1124 C1123 1.400 . S
C1124 C1127 1.386 . S
H1125 C1141 0.930 . S
H1126 C1142 0.931 . S
C1127 H1115 0.929 . S
C1127 C1121 1.390 . S
C1127 C1124 1.386 . S
C1128 C1123 1.490 . S
C1128 C1130 1.395 . S
C1128 C1131 1.403 . S
H1129 C1135 0.930 . S
C1130 H1116 0.930 . S
C1130 C1128 1.395 . S
C1130 C1133 1.403 . S
C1131 C1128 1.403 . S
C1131 C1132 1.524 . S
C1131 C1135 1.400 . S
C1132 H1117 0.960 . S
C1132 H1118 0.960 . S
C1132 H1119 0.960 . S
C1132 C1131 1.524 . S
C1133 C1130 1.403 . S
C1133 C1134 1.392 . S
C1133 C1137 1.495 . S
C1134 C1133 1.392 . S
C1134 C1135 1.385 . S
C1134 C1136 1.478 . S
C1135 H1129 0.930 . S
C1135 C1131 1.400 . S
C1135 C1134 1.385 . S
C1136 C1134 1.478 . S
C1136 C1138 1.381 . S
C1136 C1142 1.383 . S
C1137 C1133 1.495 . S
C1137 H1143 0.959 . S
C1137 H1144 0.961 . S
C1137 H1145 0.960 . S
C1138 C1136 1.381 . S
C1138 C1139 1.394 . S
C1138 H1146 0.930 . S
C1139 C1138 1.394 . S
C1139 C1140 1.383 . S
C1139 H1147 0.929 . S
C1140 C1139 1.383 . S
C1140 C1141 1.377 . S
C1141 H1125 0.930 . S
C1141 C1140 1.377 . S
C1141 C1142 1.379 . S
C1142 H1126 0.931 . S
C1142 C1136 1.383 . S
C1142 C1141 1.379 . S
H1143 C1137 0.959 . S
H1144 C1137 0.961 . S
H1145 C1137 0.960 . S
H1146 C1138 0.930 . S
H1147 C1139 0.929 . S
H1148 C1156 0.929 . S
H1149 C1158 0.930 . S
H1150 C1160 0.930 . S
H1151 C1163 0.929 . S
H1152 C1166 0.930 . S
H1153 C1168 0.960 . S
H1154 C1168 0.960 . S
H1155 C1168 0.960 . S
C1156 H1148 0.929 . S
C1156 C1157 1.377 . S
C1156 C1158 1.384 . S
C1157 C1156 1.377 . S
C1157 C1163 1.390 . S
C1158 H1149 0.930 . S
C1158 C1156 1.384 . S
C1158 C1159 1.372 . S
C1159 C1158 1.372 . S
C1159 C1160 1.400 . S
C1159 C1164 1.490 . S
C1160 H1150 0.930 . S
C1160 C1159 1.400 . S
C1160 C1163 1.386 . S
H1161 C1177 0.930 . S
H1162 C1178 0.931 . S
C1163 H1151 0.929 . S
C1163 C1157 1.390 . S
C1163 C1160 1.386 . S
C1164 C1159 1.490 . S
C1164 C1166 1.395 . S
C1164 C1167 1.403 . S
H1165 C1171 0.930 . S
C1166 H1152 0.930 . S
C1166 C1164 1.395 . S
C1166 C1169 1.403 . S
C1167 C1164 1.403 . S
C1167 C1168 1.524 . S
C1167 C1171 1.400 . S
C1168 H1153 0.960 . S
C1168 H1154 0.960 . S
C1168 H1155 0.960 . S
C1168 C1167 1.524 . S
C1169 C1166 1.403 . S
C1169 C1170 1.392 . S
C1169 C1173 1.495 . S
C1170 C1169 1.392 . S
C1170 C1171 1.385 . S
C1170 C1172 1.478 . S
C1171 H1165 0.930 . S
C1171 C1167 1.400 . S
C1171 C1170 1.385 . S
C1172 C1170 1.478 . S
C1172 C1174 1.381 . S
C1172 C1178 1.383 . S
C1173 C1169 1.495 . S
C1173 H1179 0.959 . S
C1173 H1180 0.961 . S
C1173 H1181 0.960 . S
C1174 C1172 1.381 . S
C1174 C1175 1.394 . S
C1174 H1182 0.930 . S
C1175 C1174 1.394 . S
C1175 C1176 1.383 . S
C1175 H1183 0.929 . S
C1176 C1175 1.383 . S
C1176 C1177 1.377 . S
C1177 H1161 0.930 . S
C1177 C1176 1.377 . S
C1177 C1178 1.379 . S
C1178 H1162 0.931 . S
C1178 C1172 1.383 . S
C1178 C1177 1.379 . S
H1179 C1173 0.959 . S
H1180 C1173 0.961 . S
H1181 C1173 0.960 . S
H1182 C1174 0.930 . S
H1183 C1175 0.929 . S
C329 C11 2.379 . S
C348 C2 2.386 . S
C365 C51 2.380 . S
C384 C42 2.388 . S
C401 C91 2.380 . S
C420 C82 2.364 . S
C437 C131 2.382 . S
C456 C122 2.376 . S
C473 C171 2.381 . S
C492 C162 2.388 . S
C509 C202 2.382 . S
C528 C211 2.385 . S
C545 C251 2.382 . S
C564 C242 2.376 . S
C581 C282 2.377 . S
C600 C291 2.365 . S
C617 C56 2.492 . S
C636 C7 2.468 . S
C653 C127 2.493 . S
C672 C96 2.508 . S
C689 C167 2.497 . S
C708 C216 2.506 . S
C725 C256 2.489 . S
C744 C287 2.478 . S
C761 C16 1.766 . S
C780 C207 1.747 . S
C797 C176 1.768 . S
C816 C47 1.749 . S
C833 C87 1.766 . S
C852 C296 1.774 . S
C869 C136 1.764 . S
C888 C247 1.759 . S
C905 C10 1.436 . S
C924 C130 1.435 . S
C941 C50 1.641 . S
C960 C90 1.634 . S
C977 C59 1.441 . S
C996 C99 1.461 . S
C1013 C139 1.644 . S
C1032 C19 1.654 . S
C1049 C170 1.445 . S
C1068 C290 1.427 . S
C1085 C210 1.651 . S
C1104 C250 1.656 . S
C1121 C219 1.446 . S
C1140 C259 1.429 . S
C1157 C299 1.647 . S
C1176 C179 1.648 . S
