# Generated by pormake.
# Topology eta, (3)-cn, num edge types: 1
# Building blocks:
#     Node 0, Type 0, BuildingBlock: OLANEW_clean_sbu_2, # of connection points: 3
#     Node 1, Type 0, BuildingBlock: OLANEW_clean_sbu_2, # of connection points: 3
#     Node 2, Type 0, BuildingBlock: OLANEW_clean_sbu_2, # of connection points: 3
#     Node 3, Type 0, BuildingBlock: OLANEW_clean_sbu_2, # of connection points: 3
#     Node 4, Type 0, BuildingBlock: OLANEW_clean_sbu_2, # of connection points: 3
#     Node 5, Type 0, BuildingBlock: OLANEW_clean_sbu_2, # of connection points: 3
#     Edge 6, Type (0, 0), BuildingBlock: MIFKUJ_clean_linker_0, # of connection points: 2
#     Edge 7, Type (0, 0), BuildingBlock: MIFKUJ_clean_linker_0, # of connection points: 2
#     Edge 8, Type (0, 0), BuildingBlock: MIFKUJ_clean_linker_0, # of connection points: 2
#     Edge 9, Type (0, 0), BuildingBlock: MIFKUJ_clean_linker_0, # of connection points: 2
#     Edge 10, Type (0, 0), BuildingBlock: MIFKUJ_clean_linker_0, # of connection points: 2
#     Edge 11, Type (0, 0), BuildingBlock: MIFKUJ_clean_linker_0, # of connection points: 2
#     Edge 12, Type (0, 0), BuildingBlock: MIFKUJ_clean_linker_0, # of connection points: 2
#     Edge 13, Type (0, 0), BuildingBlock: MIFKUJ_clean_linker_0, # of connection points: 2
#     Edge 14, Type (0, 0), BuildingBlock: MIFKUJ_clean_linker_0, # of connection points: 2
# Relax obj value: 0.000
# Max RMSD: 0.067
# Mean RMSD: 0.059
data_MOF--net-eta--node1-OLANEW_clean_sbu_2--edge1-MIFKUJ_clean_linker_0
_symmetry_space_group_name_H-M    P1
_symmetry_Int_Tables_number       1
_symmetry_cell_setting            triclinic
loop_
_symmetry_equiv_pos_as_xyz
'x, y, z'
_cell_length_a     73.220201
_cell_length_b     69.487573
_cell_length_c     39.098942
_cell_angle_alpha  79.632626
_cell_angle_beta   94.80794
_cell_angle_gamma 126.85883
loop_
_atom_site_label
_atom_site_type_symbol
_atom_site_fract_x
_atom_site_fract_y
_atom_site_fract_z
_atom_type_partial_charge
O0 O 0.18223 0.57013 0.23094 0.0
Cd1 Cd 0.15727 0.53483 0.2015 0.0
O2 O 0.20526 0.59184 0.18493 0.0
Cd3 Cd 0.18956 0.5618 0.15558 0.0
O4 O 0.19406 0.54226 0.12339 0.0
C5 C 0.208 0.53748 0.1343 0.0
O6 O 0.21718 0.54293 0.16466 0.0
C7 C 0.19959 0.59022 0.21575 0.0
C8 C 0.1137 0.52341 0.19718 0.0
O9 O 0.11862 0.51266 0.22216 0.0
O10 O 0.12929 0.53929 0.17404 0.0
O11 O 0.60352 0.20089 0.42982 0.0
Cd12 Cd 0.57268 0.17153 0.47311 0.0
O13 O 0.62777 0.21721 0.47135 0.0
Cd14 Cd 0.60211 0.19758 0.51356 0.0
O15 O 0.58543 0.20124 0.55289 0.0
C16 C 0.57269 0.20778 0.54268 0.0
O17 O 0.56856 0.20991 0.50938 0.0
C18 C 0.62375 0.21623 0.43919 0.0
C19 C 0.55045 0.12305 0.46569 0.0
O20 O 0.54222 0.13461 0.45294 0.0
O21 O 0.56931 0.13449 0.48161 0.0
O22 O 0.44134 0.63359 0.8026 0.0
Cd23 Cd 0.43955 0.60664 0.85411 0.0
O24 O 0.40696 0.62245 0.81352 0.0
Cd25 Cd 0.39806 0.59513 0.85961 0.0
O26 O 0.3724 0.57124 0.90146 0.0
C27 C 0.35176 0.55869 0.89222 0.0
O28 O 0.3476 0.55951 0.85884 0.0
C29 C 0.42522 0.6355 0.79482 0.0
C30 C 0.45479 0.58045 0.8399 0.0
O31 O 0.43347 0.57111 0.83974 0.0
O32 O 0.46888 0.60217 0.8467 0.0
O33 O 0.82231 0.43399 0.22176 0.0
Cd34 Cd 0.85235 0.47095 0.18459 0.0
O35 O 0.79898 0.43304 0.18223 0.0
Cd36 Cd 0.76644 0.42111 0.15835 0.0
O37 O 0.73977 0.4166 0.12336 0.0
C38 C 0.73434 0.43107 0.1208 0.0
O39 O 0.74438 0.44813 0.14048 0.0
C40 C 0.80211 0.42352 0.2109 0.0
C41 C 0.894 0.47784 0.18918 0.0
O42 O 0.88936 0.48772 0.20816 0.0
O43 O 0.87887 0.46458 0.16822 0.0
O44 O 0.4124 0.79808 0.50214 0.0
Cd45 Cd 0.40446 0.81821 0.45159 0.0
O46 O 0.43462 0.79545 0.47189 0.0
Cd47 Cd 0.42182 0.80343 0.42323 0.0
O48 O 0.39305 0.78801 0.38851 0.0
C49 C 0.37335 0.77343 0.40327 0.0
O50 O 0.37174 0.76985 0.43739 0.0
C51 C 0.42607 0.79259 0.50101 0.0
C52 C 0.42824 0.86784 0.45278 0.0
O53 O 0.40754 0.85249 0.46441 0.0
O54 O 0.43766 0.85971 0.44057 0.0
O55 O 0.58072 0.42521 0.83221 0.0
Cd56 Cd 0.55702 0.42141 0.78221 0.0
O57 O 0.5801 0.39417 0.82478 0.0
Cd58 Cd 0.5596 0.38419 0.77852 0.0
O59 O 0.55159 0.35962 0.74251 0.0
C60 C 0.55777 0.34604 0.7537 0.0
O61 O 0.56716 0.34798 0.78426 0.0
C62 C 0.58659 0.41119 0.84165 0.0
C63 C 0.5385 0.44625 0.78624 0.0
O64 O 0.52748 0.4235 0.79853 0.0
O65 O 0.55816 0.45717 0.77171 0.0
H66 H 0.30635 0.53522 0.87991 0.0
H67 H 0.27611 0.52151 0.92146 0.0
H68 H 0.32378 0.5412 0.00459 0.0
H69 H 0.35424 0.55502 0.9632 0.0
H70 H 0.27881 0.49774 0.02422 0.0
H71 H 0.3166 0.58151 0.96677 0.0
H72 H 0.33018 0.6138 0.91549 0.0
H73 H 0.26148 0.57818 0.88039 0.0
H74 H 0.24755 0.54547 0.93127 0.0
H75 H 0.24202 0.53204 0.14656 0.0
H76 H 0.26 0.5253 0.10531 0.0
H77 H 0.21103 0.51768 0.02859 0.0
H78 H 0.19328 0.52513 0.06958 0.0
H79 H 0.25199 0.54953 0.00218 0.0
H80 H 0.21307 0.46907 0.06463 0.0
H81 H 0.19924 0.43667 0.11576 0.0
H82 H 0.26831 0.46456 0.14147 0.0
H83 H 0.2826 0.49736 0.09076 0.0
C84 C 0.31036 0.53621 0.90713 0.0
C85 C 0.3328 0.54658 0.91817 0.0
C86 C 0.29302 0.52833 0.93082 0.0
C87 C 0.29782 0.53064 0.96596 0.0
C88 C 0.31977 0.53929 0.97754 0.0
C89 C 0.33717 0.54729 0.95382 0.0
C90 C 0.2808 0.52683 -0.01032 0.0
C91 C 0.27294 0.50906 0.01962 0.0
C92 C 0.27274 0.54119 0.98302 0.0
C93 C 0.28108 0.56091 0.95256 0.0
C94 C 0.30443 0.58046 0.94795 0.0
C95 C 0.31218 0.59885 0.919 0.0
C96 C 0.29671 0.598 0.89463 0.0
C97 C 0.27345 0.57879 0.89924 0.0
C98 C 0.26561 0.56032 0.92813 0.0
C99 C 0.23476 0.52847 0.12115 0.0
C100 C 0.21636 0.52939 0.11124 0.0
C101 C 0.24499 0.52442 0.09761 0.0
C102 C 0.23682 0.52083 0.06384 0.0
C103 C 0.21766 0.52043 0.05449 0.0
C104 C 0.20751 0.52467 0.07797 0.0
C105 C 0.24996 0.5205 0.03728 0.0
C106 C 0.25731 0.53771 0.0067 0.0
C107 C 0.2574 0.50551 0.0434 0.0
C108 C 0.24891 0.4858 0.07398 0.0
C109 C 0.22533 0.46842 0.08133 0.0
C110 C 0.2174 0.44995 0.11022 0.0
C111 C 0.23288 0.44858 0.13188 0.0
C112 C 0.25633 0.46565 0.12466 0.0
C113 C 0.26436 0.48416 0.09581 0.0
H114 H 0.22671 0.43426 0.15424 0.0
H115 H 0.30275 0.61226 0.87223 0.0
H116 H 0.62183 0.221 0.36785 0.0
H117 H 0.65154 0.25434 0.32552 0.0
H118 H 0.69697 0.28619 0.40911 0.0
H119 H 0.66765 0.25314 0.4514 0.0
H120 H 0.69247 0.31863 0.3644 0.0
H121 H 0.70676 0.26004 0.35794 0.0
H122 H 0.69654 0.22051 0.34874 0.0
H123 H 0.67739 0.23189 0.24443 0.0
H124 H 0.6872 0.27137 0.25318 0.0
H125 H 0.7991 0.41069 0.28116 0.0
H126 H 0.76753 0.37373 0.31636 0.0
H127 H 0.73024 0.34855 0.22344 0.0
H128 H 0.76213 0.38525 0.18798 0.0
H129 H 0.72794 0.31212 0.26865 0.0
H130 H 0.71502 0.37113 0.27338 0.0
H131 H 0.72468 0.41056 0.28183 0.0
H132 H 0.73996 0.39814 0.38839 0.0
H133 H 0.73072 0.35877 0.38044 0.0
C134 C 0.63827 0.23491 0.37717 0.0
C135 C 0.64229 0.23446 0.41304 0.0
C136 C 0.65521 0.25392 0.35295 0.0
C137 C 0.67639 0.27276 0.36425 0.0
C138 C 0.68069 0.27189 0.39989 0.0
C139 C 0.66389 0.25289 0.42402 0.0
C140 C 0.6937 0.29423 0.33937 0.0
C141 C 0.7004 0.31724 0.34368 0.0
C142 C 0.70341 0.29226 0.31162 0.0
C143 C 0.69745 0.26852 0.30636 0.0
C144 C 0.70015 0.254 0.33316 0.0
C145 C 0.69448 0.23163 0.328 0.0
C146 C 0.68625 0.22365 0.29606 0.0
C147 C 0.68372 0.23807 0.26918 0.0
C148 C 0.68935 0.26045 0.27421 0.0
C149 C 0.78416 0.3973 0.26822 0.0
C150 C 0.78282 0.40116 0.23187 0.0
C151 C 0.7661 0.37624 0.28836 0.0
C152 C 0.74638 0.35859 0.27254 0.0
C153 C 0.74521 0.36208 0.23617 0.0
C154 C 0.76328 0.38323 0.21598 0.0
C155 C 0.72706 0.33657 0.29422 0.0
C156 C 0.7199 0.31349 0.28923 0.0
C157 C 0.71677 0.33841 0.32129 0.0
C158 C 0.72237 0.36209 0.32621 0.0
C159 C 0.72063 0.3769 0.29853 0.0
C160 C 0.726 0.39922 0.30325 0.0
C161 C 0.73298 0.40687 0.3356 0.0
C162 C 0.73457 0.39219 0.36333 0.0
C163 C 0.72925 0.36986 0.35874 0.0
H164 H 0.73712 0.42416 0.33921 0.0
H165 H 0.68188 0.20633 0.29211 0.0
H166 H 0.45919 0.66272 0.74392 0.0
H167 H 0.4624 0.69148 0.69373 0.0
H168 H 0.40018 0.67724 0.72762 0.0
H169 H 0.39654 0.64817 0.77704 0.0
H170 H 0.39922 0.67675 0.66113 0.0
H171 H 0.45412 0.73036 0.73814 0.0
H172 H 0.48777 0.74747 0.77512 0.0
H173 H 0.53051 0.76755 0.68704 0.0
H174 H 0.49704 0.75026 0.64961 0.0
H175 H 0.40375 0.77496 0.56419 0.0
H176 H 0.40707 0.75055 0.61409 0.0
H177 H 0.4609 0.75873 0.56012 0.0
H178 H 0.45761 0.78307 0.50978 0.0
H179 H 0.46798 0.76255 0.63384 0.0
H180 H 0.41212 0.70955 0.55693 0.0
H181 H 0.37808 0.69332 0.5209 0.0
H182 H 0.33661 0.67277 0.61097 0.0
H183 H 0.3705 0.68924 0.64745 0.0
C184 C 0.44622 0.66575 0.74066 0.0
C185 C 0.42759 0.65311 0.76446 0.0
C186 C 0.44813 0.68229 0.71206 0.0
C187 C 0.43163 0.6867 0.70706 0.0
C188 C 0.41309 0.6741 0.73085 0.0
C189 C 0.41106 0.65748 0.75917 0.0
C190 C 0.43318 0.70395 0.67672 0.0
C191 C 0.4142 0.69557 0.65547 0.0
C192 C 0.45291 0.72837 0.66872 0.0
C193 C 0.47304 0.73877 0.69117 0.0
C194 C 0.47066 0.73824 0.72672 0.0
C195 C 0.48971 0.74801 0.74775 0.0
C196 C 0.51125 0.75852 0.73346 0.0
C197 C 0.51381 0.75936 0.69809 0.0
C198 C 0.49481 0.74959 0.67695 0.0
C199 C 0.41657 0.77194 0.56306 0.0
C200 C 0.43029 0.78079 0.53287 0.0
C201 C 0.41839 0.75794 0.59159 0.0
C202 C 0.43406 0.75268 0.59055 0.0
C203 C 0.44869 0.7626 0.56132 0.0
C204 C 0.44672 0.77642 0.53258 0.0
C205 C 0.4339 0.73536 0.61898 0.0
C206 C 0.45311 0.74369 0.63962 0.0
C207 C 0.41432 0.71091 0.62669 0.0
C208 C 0.39389 0.70085 0.60485 0.0
C209 C 0.39578 0.70177 0.569 0.0
C210 C 0.3765 0.69249 0.5485 0.0
C211 C 0.3552 0.68208 0.56362 0.0
C212 C 0.35312 0.68087 0.59928 0.0
C213 C 0.37236 0.69015 0.61989 0.0
H214 H 0.3403 0.6749 0.54771 0.0
H215 H 0.52598 0.76608 0.74978 0.0
H216 H 0.71295 0.39998 0.07331 0.0
H217 H 0.68811 0.39947 0.02722 0.0
H218 H 0.69423 0.45865 0.06163 0.0
H219 H 0.71906 0.45922 0.10813 0.0
H220 H 0.65013 0.42324 0.04528 0.0
H221 H 0.72451 0.47088 -0.00788 0.0
H222 H 0.76147 0.48057 0.97676 0.0
H223 H 0.72692 0.41879 0.92367 0.0
H224 H 0.68971 0.4085 0.93916 0.0
H225 H 0.60278 0.44434 0.88621 0.0
H226 H 0.62808 0.45034 0.93504 0.0
H227 H 0.62911 0.39219 0.91383 0.0
H228 H 0.60412 0.38616 0.86519 0.0
H229 H 0.67165 0.43225 0.92329 0.0
H230 H 0.59715 0.38314 0.9807 0.0
H231 H 0.56032 0.37373 -0.00383 0.0
H232 H 0.59554 0.43923 0.04083 0.0
H233 H 0.63261 0.44919 0.02518 0.0
C234 C 0.70894 0.41282 0.07127 0.0
C235 C 0.71813 0.42976 0.09427 0.0
C236 C 0.6948 0.41256 0.04481 0.0
C237 C 0.68962 0.42927 0.04072 0.0
C238 C 0.69812 0.44568 0.06428 0.0
C239 C 0.71234 0.446 0.09077 0.0
C240 C 0.67565 0.42976 0.01136 0.0
C241 C 0.65499 0.42562 0.01854 0.0
C242 C 0.68194 0.43266 0.97653 0.0
C243 C 0.7043 0.4388 0.96707 0.0
C244 C 0.72478 0.45924 0.97741 0.0
C245 C 0.74578 0.46486 0.96864 0.0
C246 C 0.74654 0.45027 0.94932 0.0
C247 C 0.7263 0.43006 0.93867 0.0
C248 C 0.70525 0.42434 0.94741 0.0
C249 C 0.60836 0.4328 0.89202 0.0
C250 C 0.6014 0.41476 0.87179 0.0
C251 C 0.62275 0.43621 0.91997 0.0
C252 C 0.63039 0.42164 0.9281 0.0
C253 C 0.62346 0.40367 0.90794 0.0
C254 C 0.60908 0.4002 0.88019 0.0
C255 C 0.64584 0.42509 0.95727 0.0
C256 C 0.66687 0.43009 0.95 0.0
C257 C 0.6399 0.42305 -0.00806 0.0
C258 C 0.61764 0.41706 0.0014 0.0
C259 C 0.59704 0.39564 -0.00646 0.0
C260 C 0.57613 0.39019 0.0024 0.0
C261 C 0.57559 0.40591 0.01937 0.0
C262 C 0.59598 0.42709 0.02762 0.0
C263 C 0.61695 0.43265 0.01878 0.0
H264 H 0.55938 0.40165 0.02622 0.0
H265 H 0.76282 0.45466 0.94255 0.0
H266 H 0.37102 0.77181 0.33342 0.0
H267 H 0.3376 0.74346 0.30191 0.0
H268 H 0.29576 0.71307 0.39565 0.0
H269 H 0.32912 0.74109 0.42745 0.0
H270 H 0.29036 0.67828 0.36693 0.0
H271 H 0.28921 0.74658 0.32665 0.0
H272 H 0.30494 0.78897 0.30077 0.0
H273 H 0.32061 0.77861 0.20533 0.0
H274 H 0.30527 0.73625 0.23079 0.0
H275 H 0.19166 0.5947 0.28021 0.0
H276 H 0.21726 0.62852 0.31228 0.0
H277 H 0.26587 0.66697 0.22572 0.0
H278 H 0.24023 0.63368 0.19324 0.0
H279 H 0.26438 0.69808 0.25383 0.0
H280 H 0.27065 0.63245 0.29637 0.0
H281 H 0.25599 0.59029 0.32185 0.0
H282 H 0.23177 0.59624 0.41285 0.0
H283 H 0.24606 0.63837 0.38768 0.0
C284 C 0.35464 0.75937 0.34721 0.0
C285 C 0.35277 0.75859 0.38301 0.0
C286 C 0.33551 0.74324 0.32911 0.0
C287 C 0.31414 0.7262 0.34639 0.0
C288 C 0.31208 0.72604 0.38181 0.0
C289 C 0.33119 0.74211 0.39993 0.0
C290 C 0.29449 0.70713 0.32836 0.0
C291 C 0.28435 0.68264 0.34257 0.0
C292 C 0.28701 0.7128 0.29618 0.0
C293 C 0.29624 0.73827 0.28075 0.0
C294 C 0.29617 0.75339 0.30023 0.0
C295 C 0.30499 0.77741 0.28562 0.0
C296 C 0.31381 0.78649 0.25145 0.0
C297 C 0.31378 0.77155 0.2318 0.0
C298 C 0.305 0.74752 0.2463 0.0
C299 C 0.2077 0.61047 0.26787 0.0
C300 C 0.214 0.61137 0.2343 0.0
C301 C 0.22233 0.62976 0.28626 0.0
C302 C 0.24365 0.65011 0.27161 0.0
C303 C 0.24953 0.65147 0.23757 0.0
C304 C 0.23486 0.63232 0.21908 0.0
C305 C 0.26051 0.66933 0.29225 0.0
C306 C 0.27017 0.6938 0.27849 0.0
C307 C 0.26769 0.66371 0.3248 0.0
C308 C 0.25918 0.63843 0.33999 0.0
C309 C 0.26205 0.6247 0.3217 0.0
C310 C 0.25383 0.60082 0.3361 0.0
C311 C 0.24289 0.59056 0.3689 0.0
C312 C 0.2402 0.60419 0.38742 0.0
C313 C 0.24837 0.62807 0.37311 0.0
H314 H 0.23654 0.57208 0.38001 0.0
H315 H 0.32062 0.80508 0.24018 0.0
H316 H 0.57189 0.31721 0.77002 0.0
H317 H 0.57067 0.29118 0.73424 0.0
H318 H 0.53796 0.31059 0.6535 0.0
H319 H 0.53904 0.33684 0.68938 0.0
H320 H 0.51889 0.26057 0.66504 0.0
H321 H 0.5924 0.33754 0.64338 0.0
H322 H 0.62928 0.37358 0.65872 0.0
H323 H 0.6477 0.32776 0.71054 0.0
H324 H 0.61077 0.29138 0.69593 0.0
H325 H 0.54689 0.22462 0.52868 0.0
H326 H 0.54018 0.24459 0.56605 0.0
H327 H 0.57603 0.23108 0.64845 0.0
H328 H 0.58297 0.21122 0.61123 0.0
H329 H 0.59266 0.27852 0.63445 0.0
H330 H 0.51897 0.20136 0.65555 0.0
H331 H 0.48213 0.1655 0.63976 0.0
H332 H 0.46409 0.2117 0.58809 0.0
H333 H 0.50098 0.2479 0.60317 0.0
C334 C 0.5643 0.3159 0.74475 0.0
C335 C 0.55571 0.32926 0.73243 0.0
C336 C 0.56366 0.30102 0.72431 0.0
C337 C 0.55447 0.2992 0.6911 0.0
C338 C 0.54517 0.31183 0.67907 0.0
C339 C 0.54587 0.32686 0.69953 0.0
C340 C 0.55545 0.28474 0.66871 0.0
C341 C 0.535 0.26465 0.65788 0.0
C342 C 0.57648 0.28987 0.65999 0.0
C343 C 0.59872 0.31171 0.66885 0.0
C344 C 0.60423 0.33512 0.65831 0.0
C345 C 0.62516 0.35562 0.66682 0.0
C346 C 0.6408 0.35296 0.68567 0.0
C347 C 0.63555 0.32979 0.69598 0.0
C348 C 0.61463 0.30923 0.68756 0.0
C349 C 0.55302 0.22551 0.55496 0.0
C350 C 0.56564 0.2165 0.56687 0.0
C351 C 0.54909 0.23687 0.57633 0.0
C352 C 0.55762 0.23933 0.61001 0.0
C353 C 0.56936 0.22942 0.62248 0.0
C354 C 0.57325 0.21801 0.60119 0.0
C355 C 0.55607 0.25404 0.63113 0.0
C356 C 0.57649 0.27434 0.6416 0.0
C357 C 0.53503 0.2491 0.63935 0.0
C358 C 0.51285 0.22737 0.63018 0.0
C359 C 0.50725 0.20391 0.64054 0.0
C360 C 0.48633 0.18351 0.63178 0.0
C361 C 0.47081 0.18633 0.61285 0.0
C362 C 0.47614 0.20955 0.60271 0.0
C363 C 0.49705 0.23001 0.61138 0.0
H364 H 0.45462 0.17051 0.6061 0.0
H365 H 0.657 0.36885 0.69222 0.0
H366 H 0.10085 0.54934 0.1561 0.0
H367 H 0.06364 0.54172 0.15541 0.0
H368 H 0.03749 0.47743 0.23285 0.0
H369 H 0.07494 0.48549 0.23459 0.0
H370 H 0.02338 0.50755 0.13869 0.0
H371 H -0.00256 0.46798 0.28474 0.0
H372 H 0.01575 0.47169 0.34154 0.0
H373 H 0.074 0.54357 0.30028 0.0
H374 H 0.05591 0.54042 0.24339 0.0
H375 H 0.90634 0.45384 0.16083 0.0
H376 H 0.94349 0.46126 0.16278 0.0
H377 H 0.96946 0.51897 0.22251 0.0
H378 H 0.93211 0.51107 0.22166 0.0
H379 H 0.98443 0.49401 0.24788 0.0
H380 H 0.98181 0.53068 0.1337 0.0
H381 H 0.96584 0.5326 0.07618 0.0
H382 H 0.96907 0.47671 0.0524 0.0
H383 H 0.9848 0.47424 0.10999 0.0
C384 C 0.08717 0.53356 0.17297 0.0
C385 C 0.09086 0.5181 0.19557 0.0
C386 C 0.06588 0.5292 0.1725 0.0
C387 C 0.04782 0.50919 0.19442 0.0
C388 C 0.05129 0.4933 0.21627 0.0
C389 C 0.07267 0.49785 0.21711 0.0
C390 C 0.02542 0.50506 0.19444 0.0
C391 C 0.01487 0.50457 0.16259 0.0
C392 C 0.01447 0.50166 0.22551 0.0
C393 C 0.02541 0.50383 0.25972 0.0
C394 C 0.01412 0.4846 0.28783 0.0
C395 C 0.02446 0.48661 0.32004 0.0
C396 C 0.04605 0.50782 0.32448 0.0
C397 C 0.05731 0.52711 0.29676 0.0
C398 C 0.04704 0.52521 0.26452 0.0
C399 C 0.91995 0.46807 0.17445 0.0
C400 C 0.91633 0.48195 0.19096 0.0
C401 C 0.94122 0.47237 0.17541 0.0
C402 C 0.95941 0.49095 0.19231 0.0
C403 C 0.9557 0.50455 0.20929 0.0
C404 C 0.93436 0.50006 0.20871 0.0
C405 C 0.98232 0.49629 0.19217 0.0
C406 C -0.00707 0.49695 0.224 0.0
C407 C -0.00633 0.50064 0.16097 0.0
C408 C 0.98428 0.50211 0.12628 0.0
C409 C 0.97896 0.51868 0.1163 0.0
C410 C 0.96998 0.51988 0.08367 0.0
C411 C 0.96639 0.50474 0.06069 0.0
C412 C 0.97183 0.48841 0.07025 0.0
C413 C 0.9808 0.48711 0.10287 0.0
H414 H 0.95943 0.5057 0.03544 0.0
H415 H 0.05404 0.50933 0.34942 0.0
H416 H 0.50549 0.09028 0.45225 0.0
H417 H 0.48507 0.0469 0.44974 0.0
H418 H 0.54749 0.05395 0.46938 0.0
H419 H 0.56797 0.09724 0.47278 0.0
H420 H 0.51916 0.0277 0.41098 0.0
H421 H 0.51513 0.02959 0.53315 0.0
H422 H 0.50655 0.04071 0.58276 0.0
H423 H 0.43631 0.00201 0.55438 0.0
H424 H 0.44456 0.99096 0.50425 0.0
H425 H 0.4743 0.90309 0.44541 0.0
H426 H 0.49522 0.94652 0.44703 0.0
H427 H 0.4317 0.93571 0.46189 0.0
H428 H 0.41079 0.89206 0.46181 0.0
H429 H 0.46095 0.96467 0.50231 0.0
H430 H 0.46295 0.96218 0.38147 0.0
H431 H 0.46989 0.95158 0.32956 0.0
H432 H 0.54127 0.99169 0.35133 0.0
H433 H 0.5347 0.00228 0.40366 0.0
C434 C 0.51489 0.08262 0.45591 0.0
C435 C 0.53831 0.09712 0.46278 0.0
C436 C 0.50319 0.05786 0.45454 0.0
C437 C 0.51481 0.04732 0.45946 0.0
C438 C 0.53829 0.06183 0.46552 0.0
C439 C 0.54991 0.08649 0.46756 0.0
C440 C 0.50231 0.021 0.45884 0.0
C441 C 0.50662 0.01383 0.43112 0.0
C442 C 0.4855 0.0031 0.48459 0.0
C443 C 0.48052 0.00969 0.51473 0.0
C444 C 0.49791 0.02366 0.53728 0.0
C445 C 0.49309 0.02991 0.56553 0.0
C446 C 0.47092 0.02214 0.57165 0.0
C447 C 0.45349 0.00805 0.54957 0.0
C448 C 0.45822 0.00178 0.52125 0.0
C449 C 0.46479 0.90998 0.44897 0.0
C450 C 0.4409 0.89418 0.45337 0.0
C451 C 0.47677 0.93486 0.44969 0.0
C452 C 0.46505 0.94455 0.45395 0.0
C453 C 0.44116 0.92873 0.45852 0.0
C454 C 0.42921 0.90378 0.4584 0.0
C455 C 0.47768 0.97107 0.45429 0.0
C456 C 0.47342 0.97838 0.48202 0.0
C457 C 0.49426 0.98911 0.42815 0.0
C458 C 0.49829 0.98282 0.39667 0.0
C459 C 0.4801 0.96859 0.37533 0.0
C460 C 0.48397 0.96261 0.34581 0.0
C461 C 0.506 0.9709 0.33721 0.0
C462 C 0.52421 0.98525 0.35806 0.0
C463 C 0.52043 0.99127 0.38763 0.0
H464 H 0.50896 0.96625 0.31434 0.0
H465 H 0.46722 0.02698 0.59356 0.0
H466 H 0.42963 0.53142 0.84011 0.0
H467 H 0.44338 0.50833 0.82962 0.0
H468 H 0.51186 0.57481 0.81257 0.0
H469 H 0.49834 0.59802 0.82355 0.0
H470 H 0.49685 0.5431 0.76155 0.0
H471 H 0.50121 0.5411 0.88576 0.0
H472 H 0.48606 0.53347 0.94456 0.0
H473 H 0.43547 0.45792 0.93666 0.0
H474 H 0.45012 0.46519 0.87756 0.0
H475 H 0.55995 0.49537 0.77061 0.0
H476 H 0.54478 0.51757 0.77789 0.0
H477 H 0.4804 0.44973 0.81561 0.0
H478 H 0.4957 0.42744 0.8093 0.0
H479 H 0.49225 0.48168 0.85535 0.0
H480 H 0.48741 0.48226 0.73267 0.0
H481 H 0.50107 0.48894 0.67313 0.0
H482 H 0.5503 0.56541 0.67643 0.0
H483 H 0.53714 0.55914 0.73621 0.0
C484 C 0.4476 0.54113 0.83405 0.0
C485 C 0.46293 0.56652 0.83275 0.0
C486 C 0.45542 0.52791 0.82815 0.0
C487 C 0.47862 0.5399 0.82046 0.0
C488 C 0.49389 0.56528 0.81846 0.0
C489 C 0.48615 0.57847 0.82488 0.0
C490 C 0.48703 0.52588 0.81495 0.0
C491 C 0.49612 0.52985 0.7821 0.0
C492 C 0.48541 0.50816 0.84156 0.0
C493 C 0.47659 0.50375 0.87709 0.0
C494 C 0.48671 0.52291 0.89642 0.0
C495 C 0.47825 0.51864 0.92983 0.0
C496 C 0.45977 0.49524 0.9443 0.0
C497 C 0.44976 0.47604 0.9254 0.0
C498 C 0.45814 0.48023 0.89196 0.0
C499 C 0.54252 0.48515 0.78028 0.0
C500 C 0.52901 0.45963 0.78934 0.0
C501 C 0.53382 0.49787 0.78428 0.0
C502 C 0.51133 0.48531 0.79688 0.0
C503 C 0.49779 0.45981 0.80581 0.0
C504 C 0.50654 0.44709 0.80211 0.0
C505 C 0.5022 0.49883 0.8018 0.0
C506 C 0.49294 0.49481 0.83462 0.0
C507 C 0.50345 0.51633 0.775 0.0
C508 C 0.51144 0.52018 0.73906 0.0
C509 C 0.50128 0.50047 0.72082 0.0
C510 C 0.5089 0.50419 0.687 0.0
C511 C 0.52658 0.52757 0.67104 0.0
C512 C 0.53663 0.5473 0.68884 0.0
C513 C 0.52908 0.54368 0.72268 0.0
H514 H 0.53245 0.53042 0.64486 0.0
H515 H 0.45325 0.49197 0.97017 0.0
loop_
_geom_bond_atom_site_label_1
_geom_bond_atom_site_label_2
_geom_bond_distance
_geom_bond_site_symmetry_2
_ccdc_geom_bond_type
O0 Cd1 2.300 . S
O0 C7 1.275 . S
Cd1 O0 2.300 . S
Cd1 O9 2.381 . S
Cd1 O10 2.378 . S
O2 Cd3 2.385 . S
O2 C7 1.255 . S
Cd3 O2 2.385 . S
Cd3 O4 2.317 . S
O4 Cd3 2.317 . S
O4 C5 1.232 . S
C5 O4 1.232 . S
C5 O6 1.218 . S
O6 C5 1.218 . S
C7 O0 1.275 . S
C7 O2 1.255 . S
C8 O9 1.258 . S
C8 O10 1.256 . S
O9 Cd1 2.381 . S
O9 C8 1.258 . S
O10 Cd1 2.378 . S
O10 C8 1.256 . S
O11 Cd12 2.300 . S
O11 C18 1.275 . S
Cd12 O11 2.300 . S
Cd12 O20 2.381 . S
Cd12 O21 2.378 . S
O13 Cd14 2.385 . S
O13 C18 1.255 . S
Cd14 O13 2.385 . S
Cd14 O15 2.317 . S
O15 Cd14 2.317 . S
O15 C16 1.232 . S
C16 O15 1.232 . S
C16 O17 1.218 . S
O17 C16 1.218 . S
C18 O11 1.275 . S
C18 O13 1.255 . S
C19 O20 1.258 . S
C19 O21 1.256 . S
O20 Cd12 2.381 . S
O20 C19 1.258 . S
O21 Cd12 2.378 . S
O21 C19 1.256 . S
O22 Cd23 2.300 . S
O22 C29 1.275 . S
Cd23 O22 2.300 . S
Cd23 O31 2.381 . S
Cd23 O32 2.378 . S
O24 Cd25 2.385 . S
O24 C29 1.255 . S
Cd25 O24 2.385 . S
Cd25 O26 2.317 . S
O26 Cd25 2.317 . S
O26 C27 1.232 . S
C27 O26 1.232 . S
C27 O28 1.218 . S
O28 C27 1.218 . S
C29 O22 1.275 . S
C29 O24 1.255 . S
C30 O31 1.258 . S
C30 O32 1.256 . S
O31 Cd23 2.381 . S
O31 C30 1.258 . S
O32 Cd23 2.378 . S
O32 C30 1.256 . S
O33 Cd34 2.300 . S
O33 C40 1.275 . S
Cd34 O33 2.300 . S
Cd34 O42 2.381 . S
Cd34 O43 2.378 . S
O35 Cd36 2.385 . S
O35 C40 1.255 . S
Cd36 O35 2.385 . S
Cd36 O37 2.317 . S
O37 Cd36 2.317 . S
O37 C38 1.232 . S
C38 O37 1.232 . S
C38 O39 1.218 . S
O39 C38 1.218 . S
C40 O33 1.275 . S
C40 O35 1.255 . S
C41 O42 1.258 . S
C41 O43 1.256 . S
O42 Cd34 2.381 . S
O42 C41 1.258 . S
O43 Cd34 2.378 . S
O43 C41 1.256 . S
O44 Cd45 2.300 . S
O44 C51 1.275 . S
Cd45 O44 2.300 . S
Cd45 O53 2.381 . S
Cd45 O54 2.378 . S
O46 Cd47 2.385 . S
O46 C51 1.255 . S
Cd47 O46 2.385 . S
Cd47 O48 2.317 . S
O48 Cd47 2.317 . S
O48 C49 1.232 . S
C49 O48 1.232 . S
C49 O50 1.218 . S
O50 C49 1.218 . S
C51 O44 1.275 . S
C51 O46 1.255 . S
C52 O53 1.258 . S
C52 O54 1.256 . S
O53 Cd45 2.381 . S
O53 C52 1.258 . S
O54 Cd45 2.378 . S
O54 C52 1.256 . S
O55 Cd56 2.300 . S
O55 C62 1.275 . S
Cd56 O55 2.300 . S
Cd56 O64 2.381 . S
Cd56 O65 2.378 . S
O57 Cd58 2.385 . S
O57 C62 1.255 . S
Cd58 O57 2.385 . S
Cd58 O59 2.317 . S
O59 Cd58 2.317 . S
O59 C60 1.232 . S
C60 O59 1.232 . S
C60 O61 1.218 . S
O61 C60 1.218 . S
C62 O55 1.275 . S
C62 O57 1.255 . S
C63 O64 1.258 . S
C63 O65 1.256 . S
O64 Cd56 2.381 . S
O64 C63 1.258 . S
O65 Cd56 2.378 . S
O65 C63 1.256 . S
H66 C84 0.951 . S
H67 C86 0.951 . S
H68 C88 0.950 1_554 S
H69 C89 0.950 . S
H70 C91 0.950 . S
H71 C94 0.950 . S
H72 C95 0.950 . S
H73 C97 0.950 . S
H74 C98 0.950 . S
H75 C99 0.951 . S
H76 C101 0.951 . S
H77 C103 0.950 . S
H78 C104 0.950 . S
H79 C106 0.950 . S
H80 C109 0.950 . S
H81 C110 0.950 . S
H82 C112 0.950 . S
H83 C113 0.950 . S
C84 H66 0.951 . S
C84 C85 1.366 . S
C84 C86 1.388 . S
C85 C84 1.366 . S
C85 C89 1.385 . S
C86 H67 0.951 . S
C86 C84 1.388 . S
C86 C87 1.366 . S
C87 C86 1.366 . S
C87 C88 1.414 . S
C87 C90 1.499 1_556 S
C88 H68 0.950 1_556 S
C88 C87 1.414 . S
C88 C89 1.374 . S
C89 H69 0.950 . S
C89 C85 1.385 . S
C89 C88 1.374 . S
C90 C87 1.499 1_554 S
C90 C91 1.373 . S
C90 C92 1.389 1_554 S
C91 H70 0.950 . S
C91 C90 1.373 . S
C91 C107 1.377 . S
C92 C90 1.389 1_556 S
C92 C93 1.524 . S
C92 C106 1.377 1_556 S
C93 C92 1.524 . S
C93 C94 1.397 . S
C93 C98 1.363 . S
C94 H71 0.950 . S
C94 C93 1.397 . S
C94 C95 1.334 . S
C95 H72 0.950 . S
C95 C94 1.334 . S
C95 C96 1.287 . S
C96 C95 1.287 . S
C96 C97 1.524 . S
C96 H115 0.913 . S
C97 H73 0.950 . S
C97 C96 1.524 . S
C97 C98 1.415 . S
C98 H74 0.950 . S
C98 C93 1.363 . S
C98 C97 1.415 . S
C99 H75 0.951 . S
C99 C100 1.366 . S
C99 C101 1.388 . S
C100 C99 1.366 . S
C100 C104 1.385 . S
C101 H76 0.951 . S
C101 C99 1.388 . S
C101 C102 1.366 . S
C102 C101 1.366 . S
C102 C103 1.414 . S
C102 C105 1.499 . S
C103 H77 0.950 . S
C103 C102 1.414 . S
C103 C104 1.374 . S
C104 H78 0.950 . S
C104 C100 1.385 . S
C104 C103 1.374 . S
C105 C102 1.499 . S
C105 C106 1.373 . S
C105 C107 1.389 . S
C106 H79 0.950 . S
C106 C92 1.377 1_554 S
C106 C105 1.373 . S
C107 C91 1.377 . S
C107 C105 1.389 . S
C107 C108 1.524 . S
C108 C107 1.524 . S
C108 C109 1.397 . S
C108 C113 1.363 . S
C109 H80 0.950 . S
C109 C108 1.397 . S
C109 C110 1.334 . S
C110 H81 0.950 . S
C110 C109 1.334 . S
C110 C111 1.287 . S
C111 C110 1.287 . S
C111 C112 1.524 . S
C111 H114 0.999 . S
C112 H82 0.950 . S
C112 C111 1.524 . S
C112 C113 1.415 . S
C113 H83 0.950 . S
C113 C108 1.363 . S
C113 C112 1.415 . S
H114 C111 0.999 . S
H115 C96 0.913 . S
H116 C134 0.951 . S
H117 C136 0.951 . S
H118 C138 0.950 . S
H119 C139 0.950 . S
H120 C141 0.950 . S
H121 C144 0.950 . S
H122 C145 0.950 . S
H123 C147 0.950 . S
H124 C148 0.950 . S
H125 C149 0.951 . S
H126 C151 0.951 . S
H127 C153 0.950 . S
H128 C154 0.950 . S
H129 C156 0.950 . S
H130 C159 0.950 . S
H131 C160 0.950 . S
H132 C162 0.950 . S
H133 C163 0.950 . S
C134 H116 0.951 . S
C134 C135 1.366 . S
C134 C136 1.388 . S
C135 C134 1.366 . S
C135 C139 1.385 . S
C136 H117 0.951 . S
C136 C134 1.388 . S
C136 C137 1.366 . S
C137 C136 1.366 . S
C137 C138 1.414 . S
C137 C140 1.499 . S
C138 H118 0.950 . S
C138 C137 1.414 . S
C138 C139 1.374 . S
C139 H119 0.950 . S
C139 C135 1.385 . S
C139 C138 1.374 . S
C140 C137 1.499 . S
C140 C141 1.373 . S
C140 C142 1.389 . S
C141 H120 0.950 . S
C141 C140 1.373 . S
C141 C157 1.377 . S
C142 C140 1.389 . S
C142 C143 1.524 . S
C142 C156 1.377 . S
C143 C142 1.524 . S
C143 C144 1.397 . S
C143 C148 1.363 . S
C144 H121 0.950 . S
C144 C143 1.397 . S
C144 C145 1.334 . S
C145 H122 0.950 . S
C145 C144 1.334 . S
C145 C146 1.287 . S
C146 C145 1.287 . S
C146 C147 1.524 . S
C146 H165 0.913 . S
C147 H123 0.950 . S
C147 C146 1.524 . S
C147 C148 1.415 . S
C148 H124 0.950 . S
C148 C143 1.363 . S
C148 C147 1.415 . S
C149 H125 0.951 . S
C149 C150 1.366 . S
C149 C151 1.388 . S
C150 C149 1.366 . S
C150 C154 1.385 . S
C151 H126 0.951 . S
C151 C149 1.388 . S
C151 C152 1.366 . S
C152 C151 1.366 . S
C152 C153 1.414 . S
C152 C155 1.499 . S
C153 H127 0.950 . S
C153 C152 1.414 . S
C153 C154 1.374 . S
C154 H128 0.950 . S
C154 C150 1.385 . S
C154 C153 1.374 . S
C155 C152 1.499 . S
C155 C156 1.373 . S
C155 C157 1.389 . S
C156 H129 0.950 . S
C156 C142 1.377 . S
C156 C155 1.373 . S
C157 C141 1.377 . S
C157 C155 1.389 . S
C157 C158 1.524 . S
C158 C157 1.524 . S
C158 C159 1.397 . S
C158 C163 1.363 . S
C159 H130 0.950 . S
C159 C158 1.397 . S
C159 C160 1.334 . S
C160 H131 0.950 . S
C160 C159 1.334 . S
C160 C161 1.287 . S
C161 C160 1.287 . S
C161 C162 1.524 . S
C161 H164 0.999 . S
C162 H132 0.950 . S
C162 C161 1.524 . S
C162 C163 1.415 . S
C163 H133 0.950 . S
C163 C158 1.363 . S
C163 C162 1.415 . S
H164 C161 0.999 . S
H165 C146 0.913 . S
H166 C184 0.951 . S
H167 C186 0.951 . S
H168 C188 0.950 . S
H169 C189 0.950 . S
H170 C191 0.950 . S
H171 C194 0.950 . S
H172 C195 0.950 . S
H173 C197 0.950 . S
H174 C198 0.950 . S
H175 C199 0.951 . S
H176 C201 0.951 . S
H177 C203 0.950 . S
H178 C204 0.950 . S
H179 C206 0.950 . S
H180 C209 0.950 . S
H181 C210 0.950 . S
H182 C212 0.950 . S
H183 C213 0.950 . S
C184 H166 0.951 . S
C184 C185 1.366 . S
C184 C186 1.388 . S
C185 C184 1.366 . S
C185 C189 1.385 . S
C186 H167 0.951 . S
C186 C184 1.388 . S
C186 C187 1.366 . S
C187 C186 1.366 . S
C187 C188 1.414 . S
C187 C190 1.499 . S
C188 H168 0.950 . S
C188 C187 1.414 . S
C188 C189 1.374 . S
C189 H169 0.950 . S
C189 C185 1.385 . S
C189 C188 1.374 . S
C190 C187 1.499 . S
C190 C191 1.373 . S
C190 C192 1.389 . S
C191 H170 0.950 . S
C191 C190 1.373 . S
C191 C207 1.377 . S
C192 C190 1.389 . S
C192 C193 1.524 . S
C192 C206 1.377 . S
C193 C192 1.524 . S
C193 C194 1.397 . S
C193 C198 1.363 . S
C194 H171 0.950 . S
C194 C193 1.397 . S
C194 C195 1.334 . S
C195 H172 0.950 . S
C195 C194 1.334 . S
C195 C196 1.287 . S
C196 C195 1.287 . S
C196 C197 1.524 . S
C196 H215 0.913 . S
C197 H173 0.950 . S
C197 C196 1.524 . S
C197 C198 1.415 . S
C198 H174 0.950 . S
C198 C193 1.363 . S
C198 C197 1.415 . S
C199 H175 0.951 . S
C199 C200 1.366 . S
C199 C201 1.388 . S
C200 C199 1.366 . S
C200 C204 1.385 . S
C201 H176 0.951 . S
C201 C199 1.388 . S
C201 C202 1.366 . S
C202 C201 1.366 . S
C202 C203 1.414 . S
C202 C205 1.499 . S
C203 H177 0.950 . S
C203 C202 1.414 . S
C203 C204 1.374 . S
C204 H178 0.950 . S
C204 C200 1.385 . S
C204 C203 1.374 . S
C205 C202 1.499 . S
C205 C206 1.373 . S
C205 C207 1.389 . S
C206 H179 0.950 . S
C206 C192 1.377 . S
C206 C205 1.373 . S
C207 C191 1.377 . S
C207 C205 1.389 . S
C207 C208 1.524 . S
C208 C207 1.524 . S
C208 C209 1.397 . S
C208 C213 1.363 . S
C209 H180 0.950 . S
C209 C208 1.397 . S
C209 C210 1.334 . S
C210 H181 0.950 . S
C210 C209 1.334 . S
C210 C211 1.287 . S
C211 C210 1.287 . S
C211 C212 1.524 . S
C211 H214 0.999 . S
C212 H182 0.950 . S
C212 C211 1.524 . S
C212 C213 1.415 . S
C213 H183 0.950 . S
C213 C208 1.363 . S
C213 C212 1.415 . S
H214 C211 0.999 . S
H215 C196 0.913 . S
H216 C234 0.951 . S
H217 C236 0.951 . S
H218 C238 0.950 . S
H219 C239 0.950 . S
H220 C241 0.950 . S
H221 C244 0.950 . S
H222 C245 0.950 . S
H223 C247 0.950 . S
H224 C248 0.950 . S
H225 C249 0.951 . S
H226 C251 0.951 . S
H227 C253 0.950 . S
H228 C254 0.950 . S
H229 C256 0.950 . S
H230 C259 0.950 . S
H231 C260 0.950 . S
H232 C262 0.950 . S
H233 C263 0.950 . S
C234 H216 0.951 . S
C234 C235 1.366 . S
C234 C236 1.388 . S
C235 C234 1.366 . S
C235 C239 1.385 . S
C236 H217 0.951 . S
C236 C234 1.388 . S
C236 C237 1.366 . S
C237 C236 1.366 . S
C237 C238 1.414 . S
C237 C240 1.499 . S
C238 H218 0.950 . S
C238 C237 1.414 . S
C238 C239 1.374 . S
C239 H219 0.950 . S
C239 C235 1.385 . S
C239 C238 1.374 . S
C240 C237 1.499 . S
C240 C241 1.373 . S
C240 C242 1.389 1_554 S
C241 H220 0.950 . S
C241 C240 1.373 . S
C241 C257 1.377 1_554 S
C242 C240 1.389 1_556 S
C242 C243 1.524 . S
C242 C256 1.377 . S
C243 C242 1.524 . S
C243 C244 1.397 . S
C243 C248 1.363 . S
C244 H221 0.950 . S
C244 C243 1.397 . S
C244 C245 1.334 . S
C245 H222 0.950 . S
C245 C244 1.334 . S
C245 C246 1.287 . S
C246 C245 1.287 . S
C246 C247 1.524 . S
C246 H265 0.913 . S
C247 H223 0.950 . S
C247 C246 1.524 . S
C247 C248 1.415 . S
C248 H224 0.950 . S
C248 C243 1.363 . S
C248 C247 1.415 . S
C249 H225 0.951 . S
C249 C250 1.366 . S
C249 C251 1.388 . S
C250 C249 1.366 . S
C250 C254 1.385 . S
C251 H226 0.951 . S
C251 C249 1.388 . S
C251 C252 1.366 . S
C252 C251 1.366 . S
C252 C253 1.414 . S
C252 C255 1.499 . S
C253 H227 0.950 . S
C253 C252 1.414 . S
C253 C254 1.374 . S
C254 H228 0.950 . S
C254 C250 1.385 . S
C254 C253 1.374 . S
C255 C252 1.499 . S
C255 C256 1.373 . S
C255 C257 1.389 . S
C256 H229 0.950 . S
C256 C242 1.377 . S
C256 C255 1.373 . S
C257 C241 1.377 1_556 S
C257 C255 1.389 . S
C257 C258 1.524 . S
C258 C257 1.524 . S
C258 C259 1.397 . S
C258 C263 1.363 1_556 S
C259 H230 0.950 . S
C259 C258 1.397 . S
C259 C260 1.334 1_556 S
C260 H231 0.950 . S
C260 C259 1.334 1_554 S
C260 C261 1.287 . S
C261 C260 1.287 . S
C261 C262 1.524 . S
C261 H264 0.999 . S
C262 H232 0.950 . S
C262 C261 1.524 . S
C262 C263 1.415 . S
C263 H233 0.950 . S
C263 C258 1.363 1_554 S
C263 C262 1.415 . S
H264 C261 0.999 . S
H265 C246 0.913 . S
H266 C284 0.951 . S
H267 C286 0.951 . S
H268 C288 0.950 . S
H269 C289 0.950 . S
H270 C291 0.950 . S
H271 C294 0.950 . S
H272 C295 0.950 . S
H273 C297 0.950 . S
H274 C298 0.950 . S
H275 C299 0.951 . S
H276 C301 0.951 . S
H277 C303 0.950 . S
H278 C304 0.950 . S
H279 C306 0.950 . S
H280 C309 0.950 . S
H281 C310 0.950 . S
H282 C312 0.950 . S
H283 C313 0.950 . S
C284 H266 0.951 . S
C284 C285 1.366 . S
C284 C286 1.388 . S
C285 C284 1.366 . S
C285 C289 1.385 . S
C286 H267 0.951 . S
C286 C284 1.388 . S
C286 C287 1.366 . S
C287 C286 1.366 . S
C287 C288 1.414 . S
C287 C290 1.499 . S
C288 H268 0.950 . S
C288 C287 1.414 . S
C288 C289 1.374 . S
C289 H269 0.950 . S
C289 C285 1.385 . S
C289 C288 1.374 . S
C290 C287 1.499 . S
C290 C291 1.373 . S
C290 C292 1.389 . S
C291 H270 0.950 . S
C291 C290 1.373 . S
C291 C307 1.377 . S
C292 C290 1.389 . S
C292 C293 1.524 . S
C292 C306 1.377 . S
C293 C292 1.524 . S
C293 C294 1.397 . S
C293 C298 1.363 . S
C294 H271 0.950 . S
C294 C293 1.397 . S
C294 C295 1.334 . S
C295 H272 0.950 . S
C295 C294 1.334 . S
C295 C296 1.287 . S
C296 C295 1.287 . S
C296 C297 1.524 . S
C296 H315 0.913 . S
C297 H273 0.950 . S
C297 C296 1.524 . S
C297 C298 1.415 . S
C298 H274 0.950 . S
C298 C293 1.363 . S
C298 C297 1.415 . S
C299 H275 0.951 . S
C299 C300 1.366 . S
C299 C301 1.388 . S
C300 C299 1.366 . S
C300 C304 1.385 . S
C301 H276 0.951 . S
C301 C299 1.388 . S
C301 C302 1.366 . S
C302 C301 1.366 . S
C302 C303 1.414 . S
C302 C305 1.499 . S
C303 H277 0.950 . S
C303 C302 1.414 . S
C303 C304 1.374 . S
C304 H278 0.950 . S
C304 C300 1.385 . S
C304 C303 1.374 . S
C305 C302 1.499 . S
C305 C306 1.373 . S
C305 C307 1.389 . S
C306 H279 0.950 . S
C306 C292 1.377 . S
C306 C305 1.373 . S
C307 C291 1.377 . S
C307 C305 1.389 . S
C307 C308 1.524 . S
C308 C307 1.524 . S
C308 C309 1.397 . S
C308 C313 1.363 . S
C309 H280 0.950 . S
C309 C308 1.397 . S
C309 C310 1.334 . S
C310 H281 0.950 . S
C310 C309 1.334 . S
C310 C311 1.287 . S
C311 C310 1.287 . S
C311 C312 1.524 . S
C311 H314 0.999 . S
C312 H282 0.950 . S
C312 C311 1.524 . S
C312 C313 1.415 . S
C313 H283 0.950 . S
C313 C308 1.363 . S
C313 C312 1.415 . S
H314 C311 0.999 . S
H315 C296 0.913 . S
H316 C334 0.951 . S
H317 C336 0.951 . S
H318 C338 0.950 . S
H319 C339 0.950 . S
H320 C341 0.950 . S
H321 C344 0.950 . S
H322 C345 0.950 . S
H323 C347 0.950 . S
H324 C348 0.950 . S
H325 C349 0.951 . S
H326 C351 0.951 . S
H327 C353 0.950 . S
H328 C354 0.950 . S
H329 C356 0.950 . S
H330 C359 0.950 . S
H331 C360 0.950 . S
H332 C362 0.950 . S
H333 C363 0.950 . S
C334 H316 0.951 . S
C334 C335 1.366 . S
C334 C336 1.388 . S
C335 C334 1.366 . S
C335 C339 1.385 . S
C336 H317 0.951 . S
C336 C334 1.388 . S
C336 C337 1.366 . S
C337 C336 1.366 . S
C337 C338 1.414 . S
C337 C340 1.499 . S
C338 H318 0.950 . S
C338 C337 1.414 . S
C338 C339 1.374 . S
C339 H319 0.950 . S
C339 C335 1.385 . S
C339 C338 1.374 . S
C340 C337 1.499 . S
C340 C341 1.373 . S
C340 C342 1.389 . S
C341 H320 0.950 . S
C341 C340 1.373 . S
C341 C357 1.377 . S
C342 C340 1.389 . S
C342 C343 1.524 . S
C342 C356 1.377 . S
C343 C342 1.524 . S
C343 C344 1.397 . S
C343 C348 1.363 . S
C344 H321 0.950 . S
C344 C343 1.397 . S
C344 C345 1.334 . S
C345 H322 0.950 . S
C345 C344 1.334 . S
C345 C346 1.287 . S
C346 C345 1.287 . S
C346 C347 1.524 . S
C346 H365 0.913 . S
C347 H323 0.950 . S
C347 C346 1.524 . S
C347 C348 1.415 . S
C348 H324 0.950 . S
C348 C343 1.363 . S
C348 C347 1.415 . S
C349 H325 0.951 . S
C349 C350 1.366 . S
C349 C351 1.388 . S
C350 C349 1.366 . S
C350 C354 1.385 . S
C351 H326 0.951 . S
C351 C349 1.388 . S
C351 C352 1.366 . S
C352 C351 1.366 . S
C352 C353 1.414 . S
C352 C355 1.499 . S
C353 H327 0.950 . S
C353 C352 1.414 . S
C353 C354 1.374 . S
C354 H328 0.950 . S
C354 C350 1.385 . S
C354 C353 1.374 . S
C355 C352 1.499 . S
C355 C356 1.373 . S
C355 C357 1.389 . S
C356 H329 0.950 . S
C356 C342 1.377 . S
C356 C355 1.373 . S
C357 C341 1.377 . S
C357 C355 1.389 . S
C357 C358 1.524 . S
C358 C357 1.524 . S
C358 C359 1.397 . S
C358 C363 1.363 . S
C359 H330 0.950 . S
C359 C358 1.397 . S
C359 C360 1.334 . S
C360 H331 0.950 . S
C360 C359 1.334 . S
C360 C361 1.287 . S
C361 C360 1.287 . S
C361 C362 1.524 . S
C361 H364 0.999 . S
C362 H332 0.950 . S
C362 C361 1.524 . S
C362 C363 1.415 . S
C363 H333 0.950 . S
C363 C358 1.363 . S
C363 C362 1.415 . S
H364 C361 0.999 . S
H365 C346 0.913 . S
H366 C384 0.951 . S
H367 C386 0.951 . S
H368 C388 0.950 . S
H369 C389 0.950 . S
H370 C391 0.950 . S
H371 C394 0.950 . S
H372 C395 0.950 . S
H373 C397 0.950 . S
H374 C398 0.950 . S
H375 C399 0.951 . S
H376 C401 0.951 . S
H377 C403 0.950 . S
H378 C404 0.950 . S
H379 C406 0.950 . S
H380 C409 0.950 . S
H381 C410 0.950 . S
H382 C412 0.950 . S
H383 C413 0.950 . S
C384 H366 0.951 . S
C384 C385 1.366 . S
C384 C386 1.388 . S
C385 C384 1.366 . S
C385 C389 1.385 . S
C386 H367 0.951 . S
C386 C384 1.388 . S
C386 C387 1.366 . S
C387 C386 1.366 . S
C387 C388 1.414 . S
C387 C390 1.499 . S
C388 H368 0.950 . S
C388 C387 1.414 . S
C388 C389 1.374 . S
C389 H369 0.950 . S
C389 C385 1.385 . S
C389 C388 1.374 . S
C390 C387 1.499 . S
C390 C391 1.373 . S
C390 C392 1.389 . S
C391 H370 0.950 . S
C391 C390 1.373 . S
C391 C407 1.377 1_455 S
C392 C390 1.389 . S
C392 C393 1.524 . S
C392 C406 1.377 1_455 S
C393 C392 1.524 . S
C393 C394 1.397 . S
C393 C398 1.363 . S
C394 H371 0.950 . S
C394 C393 1.397 . S
C394 C395 1.334 . S
C395 H372 0.950 . S
C395 C394 1.334 . S
C395 C396 1.287 . S
C396 C395 1.287 . S
C396 C397 1.524 . S
C396 H415 0.913 . S
C397 H373 0.950 . S
C397 C396 1.524 . S
C397 C398 1.415 . S
C398 H374 0.950 . S
C398 C393 1.363 . S
C398 C397 1.415 . S
C399 H375 0.951 . S
C399 C400 1.366 . S
C399 C401 1.388 . S
C400 C399 1.366 . S
C400 C404 1.385 . S
C401 H376 0.951 . S
C401 C399 1.388 . S
C401 C402 1.366 . S
C402 C401 1.366 . S
C402 C403 1.414 . S
C402 C405 1.499 . S
C403 H377 0.950 . S
C403 C402 1.414 . S
C403 C404 1.374 . S
C404 H378 0.950 . S
C404 C400 1.385 . S
C404 C403 1.374 . S
C405 C402 1.499 . S
C405 C406 1.373 . S
C405 C407 1.389 . S
C406 H379 0.950 . S
C406 C392 1.377 1_655 S
C406 C405 1.373 . S
C407 C391 1.377 1_655 S
C407 C405 1.389 . S
C407 C408 1.524 . S
C408 C407 1.524 . S
C408 C409 1.397 . S
C408 C413 1.363 . S
C409 H380 0.950 . S
C409 C408 1.397 . S
C409 C410 1.334 . S
C410 H381 0.950 . S
C410 C409 1.334 . S
C410 C411 1.287 . S
C411 C410 1.287 . S
C411 C412 1.524 . S
C411 H414 0.999 . S
C412 H382 0.950 . S
C412 C411 1.524 . S
C412 C413 1.415 . S
C413 H383 0.950 . S
C413 C408 1.363 . S
C413 C412 1.415 . S
H414 C411 0.999 . S
H415 C396 0.913 . S
H416 C434 0.951 . S
H417 C436 0.951 . S
H418 C438 0.950 . S
H419 C439 0.950 . S
H420 C441 0.950 . S
H421 C444 0.950 . S
H422 C445 0.950 . S
H423 C447 0.960 1_565 S
H424 C448 0.950 . S
H425 C449 0.951 . S
H426 C451 0.951 . S
H427 C453 0.950 . S
H428 C454 0.950 . S
H429 C456 0.950 . S
H430 C459 0.950 . S
H431 C460 0.950 . S
H432 C462 0.950 1_545 S
H433 C463 0.952 . S
C434 H416 0.951 . S
C434 C435 1.366 . S
C434 C436 1.388 . S
C435 C434 1.366 . S
C435 C439 1.385 . S
C436 H417 0.951 . S
C436 C434 1.388 . S
C436 C437 1.366 . S
C437 C436 1.366 . S
C437 C438 1.414 . S
C437 C440 1.499 . S
C438 H418 0.950 . S
C438 C437 1.414 . S
C438 C439 1.374 . S
C439 H419 0.950 . S
C439 C435 1.385 . S
C439 C438 1.374 . S
C440 C437 1.499 . S
C440 C441 1.373 . S
C440 C442 1.389 . S
C441 H420 0.950 . S
C441 C440 1.373 . S
C441 C457 1.377 1_545 S
C442 C440 1.389 . S
C442 C443 1.524 . S
C442 C456 1.377 1_545 S
C443 C442 1.524 . S
C443 C444 1.397 . S
C443 C448 1.363 1_545 S
C444 H421 0.950 . S
C444 C443 1.397 . S
C444 C445 1.334 . S
C445 H422 0.950 . S
C445 C444 1.334 . S
C445 C446 1.287 . S
C446 C445 1.287 . S
C446 C447 1.528 . S
C446 H465 0.913 . S
C447 H423 0.960 1_545 S
C447 C446 1.528 . S
C447 C448 1.400 1_545 S
C448 H424 0.950 . S
C448 C443 1.363 1_565 S
C448 C447 1.400 1_565 S
C449 H425 0.951 . S
C449 C450 1.366 . S
C449 C451 1.388 . S
C450 C449 1.366 . S
C450 C454 1.385 . S
C451 H426 0.951 . S
C451 C449 1.388 . S
C451 C452 1.366 . S
C452 C451 1.366 . S
C452 C453 1.414 . S
C452 C455 1.499 . S
C453 H427 0.950 . S
C453 C452 1.414 . S
C453 C454 1.374 . S
C454 H428 0.950 . S
C454 C450 1.385 . S
C454 C453 1.374 . S
C455 C452 1.499 . S
C455 C456 1.373 . S
C455 C457 1.389 . S
C456 H429 0.950 . S
C456 C442 1.377 1_565 S
C456 C455 1.373 . S
C457 C441 1.377 1_565 S
C457 C455 1.389 . S
C457 C458 1.524 . S
C458 C457 1.524 . S
C458 C459 1.397 . S
C458 C463 1.364 1_565 S
C459 H430 0.950 . S
C459 C458 1.397 . S
C459 C460 1.334 . S
C460 H431 0.950 . S
C460 C459 1.334 . S
C460 C461 1.287 . S
C461 C460 1.287 . S
C461 C462 1.524 . S
C461 H464 0.999 . S
C462 H432 0.950 1_565 S
C462 C461 1.524 . S
C462 C463 1.413 1_565 S
C463 H433 0.952 . S
C463 C458 1.364 1_545 S
C463 C462 1.413 1_545 S
H464 C461 0.999 . S
H465 C446 0.913 . S
H466 C484 0.951 . S
H467 C486 0.951 . S
H468 C488 0.950 . S
H469 C489 0.950 . S
H470 C491 0.950 . S
H471 C494 0.950 . S
H472 C495 0.950 . S
H473 C497 0.950 . S
H474 C498 0.950 . S
H475 C499 0.951 . S
H476 C501 0.951 . S
H477 C503 0.950 . S
H478 C504 0.950 . S
H479 C506 0.950 . S
H480 C509 0.950 . S
H481 C510 0.950 . S
H482 C512 0.950 . S
H483 C513 0.950 . S
C484 H466 0.951 . S
C484 C485 1.366 . S
C484 C486 1.388 . S
C485 C484 1.366 . S
C485 C489 1.385 . S
C486 H467 0.951 . S
C486 C484 1.388 . S
C486 C487 1.366 . S
C487 C486 1.366 . S
C487 C488 1.414 . S
C487 C490 1.499 . S
C488 H468 0.950 . S
C488 C487 1.414 . S
C488 C489 1.374 . S
C489 H469 0.950 . S
C489 C485 1.385 . S
C489 C488 1.374 . S
C490 C487 1.499 . S
C490 C491 1.373 . S
C490 C492 1.389 . S
C491 H470 0.950 . S
C491 C490 1.373 . S
C491 C507 1.377 . S
C492 C490 1.389 . S
C492 C493 1.524 . S
C492 C506 1.377 . S
C493 C492 1.524 . S
C493 C494 1.397 . S
C493 C498 1.363 . S
C494 H471 0.950 . S
C494 C493 1.397 . S
C494 C495 1.334 . S
C495 H472 0.950 . S
C495 C494 1.334 . S
C495 C496 1.287 . S
C496 C495 1.287 . S
C496 C497 1.524 . S
C496 H515 0.913 . S
C497 H473 0.950 . S
C497 C496 1.524 . S
C497 C498 1.415 . S
C498 H474 0.950 . S
C498 C493 1.363 . S
C498 C497 1.415 . S
C499 H475 0.951 . S
C499 C500 1.366 . S
C499 C501 1.388 . S
C500 C499 1.366 . S
C500 C504 1.385 . S
C501 H476 0.951 . S
C501 C499 1.388 . S
C501 C502 1.366 . S
C502 C501 1.366 . S
C502 C503 1.414 . S
C502 C505 1.499 . S
C503 H477 0.950 . S
C503 C502 1.414 . S
C503 C504 1.374 . S
C504 H478 0.950 . S
C504 C500 1.385 . S
C504 C503 1.374 . S
C505 C502 1.499 . S
C505 C506 1.373 . S
C505 C507 1.389 . S
C506 H479 0.950 . S
C506 C492 1.377 . S
C506 C505 1.373 . S
C507 C491 1.377 . S
C507 C505 1.389 . S
C507 C508 1.524 . S
C508 C507 1.524 . S
C508 C509 1.397 . S
C508 C513 1.363 . S
C509 H480 0.950 . S
C509 C508 1.397 . S
C509 C510 1.334 . S
C510 H481 0.950 . S
C510 C509 1.334 . S
C510 C511 1.287 . S
C511 C510 1.287 . S
C511 C512 1.524 . S
C511 H514 0.999 . S
C512 H482 0.950 . S
C512 C511 1.524 . S
C512 C513 1.415 . S
C513 H483 0.950 . S
C513 C508 1.363 . S
C513 C512 1.415 . S
H514 C511 0.999 . S
H515 C496 0.913 . S
C85 C27 1.361 . S
C100 C5 1.273 . S
C135 C18 1.501 . S
C150 C40 1.464 . S
C185 C29 1.475 . S
C200 C51 1.476 . S
C235 C38 1.280 . S
C250 C62 1.507 . S
C285 C49 1.354 . S
C300 C7 1.475 . S
C335 C60 1.323 . S
C350 C16 1.321 . S
C385 C8 1.570 . S
C400 C41 1.570 . S
C435 C19 1.507 . S
C450 C52 1.509 . S
C485 C30 1.494 . S
C500 C63 1.495 . S
