# Generated by pormake.
# Topology crs, (6)-cn, num edge types: 1
# Building blocks:
#     Node 0, Type 0, BuildingBlock: JUFBIX_clean_sbu_0, # of connection points: 6
#     Node 1, Type 0, BuildingBlock: JUFBIX_clean_sbu_0, # of connection points: 6
#     Node 2, Type 0, BuildingBlock: JUFBIX_clean_sbu_0, # of connection points: 6
#     Node 3, Type 0, BuildingBlock: JUFBIX_clean_sbu_0, # of connection points: 6
#     Node 4, Type 0, BuildingBlock: JUFBIX_clean_sbu_0, # of connection points: 6
#     Node 5, Type 0, BuildingBlock: JUFBIX_clean_sbu_0, # of connection points: 6
#     Node 6, Type 0, BuildingBlock: JUFBIX_clean_sbu_0, # of connection points: 6
#     Node 7, Type 0, BuildingBlock: JUFBIX_clean_sbu_0, # of connection points: 6
#     Node 8, Type 0, BuildingBlock: JUFBIX_clean_sbu_0, # of connection points: 6
#     Node 9, Type 0, BuildingBlock: JUFBIX_clean_sbu_0, # of connection points: 6
#     Node 10, Type 0, BuildingBlock: JUFBIX_clean_sbu_0, # of connection points: 6
#     Node 11, Type 0, BuildingBlock: JUFBIX_clean_sbu_0, # of connection points: 6
#     Node 12, Type 0, BuildingBlock: JUFBIX_clean_sbu_0, # of connection points: 6
#     Node 13, Type 0, BuildingBlock: JUFBIX_clean_sbu_0, # of connection points: 6
#     Node 14, Type 0, BuildingBlock: JUFBIX_clean_sbu_0, # of connection points: 6
#     Node 15, Type 0, BuildingBlock: JUFBIX_clean_sbu_0, # of connection points: 6
#     Edge 16, Type (0, 0), BuildingBlock: UVAHIK_clean_linker_0, # of connection points: 2
#     Edge 17, Type (0, 0), BuildingBlock: UVAHIK_clean_linker_0, # of connection points: 2
#     Edge 18, Type (0, 0), BuildingBlock: UVAHIK_clean_linker_0, # of connection points: 2
#     Edge 19, Type (0, 0), BuildingBlock: UVAHIK_clean_linker_0, # of connection points: 2
#     Edge 20, Type (0, 0), BuildingBlock: UVAHIK_clean_linker_0, # of connection points: 2
#     Edge 21, Type (0, 0), BuildingBlock: UVAHIK_clean_linker_0, # of connection points: 2
#     Edge 22, Type (0, 0), BuildingBlock: UVAHIK_clean_linker_0, # of connection points: 2
#     Edge 23, Type (0, 0), BuildingBlock: UVAHIK_clean_linker_0, # of connection points: 2
#     Edge 24, Type (0, 0), BuildingBlock: UVAHIK_clean_linker_0, # of connection points: 2
#     Edge 25, Type (0, 0), BuildingBlock: UVAHIK_clean_linker_0, # of connection points: 2
#     Edge 26, Type (0, 0), BuildingBlock: UVAHIK_clean_linker_0, # of connection points: 2
#     Edge 27, Type (0, 0), BuildingBlock: UVAHIK_clean_linker_0, # of connection points: 2
#     Edge 28, Type (0, 0), BuildingBlock: UVAHIK_clean_linker_0, # of connection points: 2
#     Edge 29, Type (0, 0), BuildingBlock: UVAHIK_clean_linker_0, # of connection points: 2
#     Edge 30, Type (0, 0), BuildingBlock: UVAHIK_clean_linker_0, # of connection points: 2
#     Edge 31, Type (0, 0), BuildingBlock: UVAHIK_clean_linker_0, # of connection points: 2
#     Edge 32, Type (0, 0), BuildingBlock: UVAHIK_clean_linker_0, # of connection points: 2
#     Edge 33, Type (0, 0), BuildingBlock: UVAHIK_clean_linker_0, # of connection points: 2
#     Edge 34, Type (0, 0), BuildingBlock: UVAHIK_clean_linker_0, # of connection points: 2
#     Edge 35, Type (0, 0), BuildingBlock: UVAHIK_clean_linker_0, # of connection points: 2
#     Edge 36, Type (0, 0), BuildingBlock: UVAHIK_clean_linker_0, # of connection points: 2
#     Edge 37, Type (0, 0), BuildingBlock: UVAHIK_clean_linker_0, # of connection points: 2
#     Edge 38, Type (0, 0), BuildingBlock: UVAHIK_clean_linker_0, # of connection points: 2
#     Edge 39, Type (0, 0), BuildingBlock: UVAHIK_clean_linker_0, # of connection points: 2
#     Edge 40, Type (0, 0), BuildingBlock: UVAHIK_clean_linker_0, # of connection points: 2
#     Edge 41, Type (0, 0), BuildingBlock: UVAHIK_clean_linker_0, # of connection points: 2
#     Edge 42, Type (0, 0), BuildingBlock: UVAHIK_clean_linker_0, # of connection points: 2
#     Edge 43, Type (0, 0), BuildingBlock: UVAHIK_clean_linker_0, # of connection points: 2
#     Edge 44, Type (0, 0), BuildingBlock: UVAHIK_clean_linker_0, # of connection points: 2
#     Edge 45, Type (0, 0), BuildingBlock: UVAHIK_clean_linker_0, # of connection points: 2
#     Edge 46, Type (0, 0), BuildingBlock: UVAHIK_clean_linker_0, # of connection points: 2
#     Edge 47, Type (0, 0), BuildingBlock: UVAHIK_clean_linker_0, # of connection points: 2
#     Edge 48, Type (0, 0), BuildingBlock: UVAHIK_clean_linker_0, # of connection points: 2
#     Edge 49, Type (0, 0), BuildingBlock: UVAHIK_clean_linker_0, # of connection points: 2
#     Edge 50, Type (0, 0), BuildingBlock: UVAHIK_clean_linker_0, # of connection points: 2
#     Edge 51, Type (0, 0), BuildingBlock: UVAHIK_clean_linker_0, # of connection points: 2
#     Edge 52, Type (0, 0), BuildingBlock: UVAHIK_clean_linker_0, # of connection points: 2
#     Edge 53, Type (0, 0), BuildingBlock: UVAHIK_clean_linker_0, # of connection points: 2
#     Edge 54, Type (0, 0), BuildingBlock: UVAHIK_clean_linker_0, # of connection points: 2
#     Edge 55, Type (0, 0), BuildingBlock: UVAHIK_clean_linker_0, # of connection points: 2
#     Edge 56, Type (0, 0), BuildingBlock: UVAHIK_clean_linker_0, # of connection points: 2
#     Edge 57, Type (0, 0), BuildingBlock: UVAHIK_clean_linker_0, # of connection points: 2
#     Edge 58, Type (0, 0), BuildingBlock: UVAHIK_clean_linker_0, # of connection points: 2
#     Edge 59, Type (0, 0), BuildingBlock: UVAHIK_clean_linker_0, # of connection points: 2
#     Edge 60, Type (0, 0), BuildingBlock: UVAHIK_clean_linker_0, # of connection points: 2
#     Edge 61, Type (0, 0), BuildingBlock: UVAHIK_clean_linker_0, # of connection points: 2
#     Edge 62, Type (0, 0), BuildingBlock: UVAHIK_clean_linker_0, # of connection points: 2
#     Edge 63, Type (0, 0), BuildingBlock: UVAHIK_clean_linker_0, # of connection points: 2
# Relax obj value: 0.643
# Max RMSD: 0.332
# Mean RMSD: 0.288
data_MOF--net-crs--node1-JUFBIX_clean_sbu_0--edge1-UVAHIK_clean_linker_0
_symmetry_space_group_name_H-M    P1
_symmetry_Int_Tables_number       1
_symmetry_cell_setting            triclinic
loop_
_symmetry_equiv_pos_as_xyz
'x, y, z'
_cell_length_a     50.874251
_cell_length_b     51.570147
_cell_length_c     60.998354
_cell_angle_alpha  100.17145
_cell_angle_beta   90.078958
_cell_angle_gamma 90.059893
loop_
_atom_site_label
_atom_site_type_symbol
_atom_site_fract_x
_atom_site_fract_y
_atom_site_fract_z
_atom_type_partial_charge
Co0 Co 0.97706 0.01391 -0.0049 0.0
C1 C 0.9932 0.01808 0.03897 0.0
Co2 Co 0.99346 0.97722 0.00355 0.0
C3 C 0.93966 0.04799 0.9803 0.0
C4 C 0.9756 0.06865 0.98936 0.0
N5 N 0.96382 0.04501 0.9885 0.0
N6 N 0.9358 0.07237 0.97596 0.0
C7 C 0.95843 0.0855 0.98134 0.0
H8 H 0.9255 0.03214 0.97647 0.0
H9 H 0.99558 0.07314 -0.00512 0.0
C10 C 0.97676 0.97293 0.95974 0.0
N11 N 0.00619 0.94562 0.00991 0.0
C12 C 0.02169 0.94249 0.02716 0.0
C13 C 0.00166 0.92083 -0.00107 0.0
N14 N 0.0269 0.91699 0.02738 0.0
C15 C 0.01469 0.90314 0.00956 0.0
C16 C 0.93984 0.98275 0.01044 0.0
O17 O 0.97026 -0.00308 0.96542 0.0
O18 O 0.98755 0.9611 0.97392 0.0
O19 O 0.95939 0.96768 0.01133 0.0
O20 O 0.9431 0.00439 0.00366 0.0
O21 O -0.00094 0.99399 0.0331 0.0
H22 H 0.98944 0.91579 0.98428 0.0
H23 H 0.02932 0.95855 0.03935 0.0
O24 O 0.98358 0.03075 0.02478 0.0
O25 O 0.01132 0.02288 0.98667 0.0
O26 O 0.02769 0.98694 -0.00398 0.0
C27 C 0.03101 0.00829 0.98869 0.0
H28 H 0.96238 0.10553 0.9792 0.0
H29 H 0.01478 0.88188 0.00491 0.0
Co30 Co 0.00112 0.25935 0.23852 0.0
C31 C 0.94785 0.25037 0.24163 0.0
Co32 Co 0.99072 0.23972 0.26653 0.0
C33 C 0.02976 0.26901 0.20061 0.0
C34 C -0.00161 0.29665 0.20862 0.0
N35 N 0.00973 0.27548 0.21491 0.0
N36 N 0.03154 0.28532 0.18569 0.0
C37 C 0.01187 0.30283 0.19066 0.0
H38 H 0.04324 0.25301 0.20155 0.0
H39 H 0.9816 0.30705 0.21673 0.0
C40 C 0.04413 0.24848 0.26295 0.0
N41 N 0.98189 0.22381 0.29025 0.0
C42 C 0.96079 0.22969 0.30346 0.0
C43 C 0.99404 0.20408 0.29799 0.0
N44 N 0.95896 0.21439 0.31923 0.0
C45 C 0.98004 0.19825 0.31581 0.0
C46 C 0.00208 0.2049 0.22839 0.0
O47 O 0.03694 0.25937 0.24683 0.0
O48 O 0.0268 0.23907 0.27435 0.0
O49 O 0.99449 0.20645 0.24837 0.0
O50 O 0.00592 0.22585 0.22058 0.0
O51 O 0.95461 0.24059 0.25847 0.0
H52 H 0.01182 0.19448 0.29106 0.0
H53 H 0.94702 0.24492 0.30121 0.0
O54 O 0.96544 0.25907 0.23009 0.0
O55 O -0.0039 0.29277 0.25665 0.0
O56 O 0.98678 0.27294 0.28461 0.0
C57 C 0.9891 0.29402 0.27676 0.0
H58 H 0.0075 0.31884 0.18191 0.0
H59 H 0.98518 0.18321 0.32536 0.0
Co60 Co 0.7654 0.26864 0.5425 0.0
C61 C 0.77461 0.25998 0.497 0.0
Co62 Co 0.73493 0.28489 0.52312 0.0
C63 C 0.79087 0.23651 0.57027 0.0
C64 C 0.81803 0.26159 0.55725 0.0
N65 N 0.79224 0.2556 0.55783 0.0
N66 N 0.81479 0.23014 0.5773 0.0
C67 C 0.83193 0.24603 0.56928 0.0
H68 H 0.77269 0.22712 0.57377 0.0
H69 H 0.82633 0.27568 0.54799 0.0
C70 C 0.72642 0.29393 0.56882 0.0
N71 N 0.70854 0.298 0.50748 0.0
C72 C 0.71177 0.31022 0.48992 0.0
C73 C 0.68234 0.29773 0.51082 0.0
N74 N 0.68869 0.31761 0.48206 0.0
C75 C 0.67005 0.30993 0.49523 0.0
C76 C 0.72579 0.23314 0.52835 0.0
O77 O 0.747 0.28012 0.56935 0.0
O78 O 0.71773 0.29822 0.55025 0.0
O79 O 0.71639 0.25263 0.52083 0.0
O80 O 0.7477 0.2356 0.53852 0.0
O81 O 0.75278 0.27165 0.49605 0.0
H82 H 0.67283 0.28923 0.52374 0.0
H83 H 0.73083 0.31404 0.48327 0.0
O84 O 0.78374 0.25717 0.51578 0.0
O85 O 0.78269 0.30186 0.54621 0.0
O86 O 0.75337 0.31707 0.52542 0.0
C87 C 0.77412 0.32052 0.53711 0.0
H88 H 0.85308 0.24563 0.57113 0.0
H89 H 0.6491 0.31266 0.49357 0.0
Co90 Co 0.73551 0.99106 0.76726 0.0
C91 C 0.72671 0.04057 0.75649 0.0
Co92 Co 0.7687 0.00669 0.75046 0.0
C93 C 0.70729 0.96725 0.79905 0.0
C94 C 0.68152 0.97775 0.77429 0.0
N95 N 0.70692 0.9786 0.7808 0.0
N96 N 0.68321 0.9592 0.80417 0.0
C97 C 0.66688 0.96565 0.7886 0.0
H98 H 0.7251 0.96416 0.80797 0.0
H99 H 0.67422 0.98509 0.75989 0.0
C100 C 0.77669 0.95631 0.75958 0.0
N101 N 0.79734 0.01894 0.73692 0.0
C102 C 0.79718 0.03161 0.71944 0.0
C103 C 0.82289 0.01762 0.74256 0.0
N104 N 0.82159 0.03841 0.71394 0.0
C105 C 0.83787 0.02969 0.72848 0.0
C106 C 0.77046 0.01989 0.79649 0.0
O107 O 0.75409 0.9594 0.76846 0.0
O108 O 0.78682 0.975 0.75141 0.0
O109 O 0.78237 0.02191 0.7786 0.0
O110 O 0.74919 0.00681 0.79547 0.0
O111 O 0.75009 0.03823 0.74914 0.0
H112 H 0.8301 0.00869 0.75617 0.0
H113 H 0.77935 0.03643 0.71132 0.0
O114 O 0.7169 0.02236 0.76549 0.0
O115 O 0.72207 0.97561 0.73912 0.0
O116 O 0.75479 0.99156 0.7223 0.0
C117 C 0.73359 0.97838 0.72124 0.0
H118 H 0.64595 0.9618 0.78758 0.0
H119 H 0.85903 0.03191 0.72896 0.0
Co120 Co 0.49653 0.75637 0.22095 0.0
C121 C 0.44514 0.76249 0.23668 0.0
Co122 Co 0.48043 0.72198 0.23336 0.0
C123 C 0.53419 0.79384 0.21048 0.0
C124 C 0.49515 0.80371 0.20196 0.0
N125 N 0.50897 0.78605 0.21116 0.0
N126 N 0.53684 0.81529 0.20081 0.0
C127 C 0.51222 0.82167 0.19554 0.0
H128 H 0.55053 0.78294 0.21567 0.0
H129 H 0.47413 0.80298 0.19921 0.0
C130 C 0.53186 0.71567 0.21801 0.0
N131 N 0.46799 0.69249 0.24309 0.0
C132 C 0.45652 0.6919 0.26283 0.0
C133 C 0.46786 0.66725 0.23236 0.0
N134 N 0.44917 0.66736 0.26493 0.0
C135 C 0.45606 0.65171 0.24574 0.0
C136 C 0.47153 0.72099 0.18852 0.0
O137 O 0.52914 0.73892 0.21419 0.0
O138 O 0.51277 0.70458 0.22605 0.0
O139 O 0.46753 0.7089 0.20461 0.0
O140 O 0.48422 0.74255 0.19184 0.0
O141 O 0.44791 0.73928 0.24056 0.0
H142 H 0.47564 0.66063 0.21582 0.0
H143 H 0.45296 0.70933 0.27521 0.0
O144 O 0.46399 0.7734 0.22816 0.0
O145 O 0.50895 0.76984 0.2496 0.0
O146 O 0.4937 0.73566 0.26241 0.0
C147 C 0.506 0.75747 0.26566 0.0
H148 H 0.50699 0.83739 0.18674 0.0
H149 H 0.45282 0.63066 0.24173 0.0
Co150 Co 0.26552 0.72739 0.48782 0.0
C151 C 0.27916 0.71463 0.44314 0.0
Co152 Co 0.23668 0.73965 0.46469 0.0
C153 C 0.2875 0.70074 0.52086 0.0
C154 C 0.31656 0.72369 0.50764 0.0
N155 N 0.29079 0.71733 0.50634 0.0
N156 N 0.31014 0.69627 0.53103 0.0
C157 C 0.32852 0.71083 0.52294 0.0
H158 H 0.2688 0.69195 0.52384 0.0
H159 H 0.32615 0.73638 0.49775 0.0
C160 C 0.22282 0.75195 0.50947 0.0
N161 N 0.21098 0.74957 0.44643 0.0
C162 C 0.21303 0.76709 0.43258 0.0
C163 C 0.18524 0.74317 0.44618 0.0
N164 N 0.18956 0.77224 0.42394 0.0
C165 C 0.17201 0.75709 0.43238 0.0
C166 C 0.22907 0.68882 0.47262 0.0
O167 O 0.24439 0.74083 0.51272 0.0
O168 O 0.21587 0.75333 0.48971 0.0
O169 O 0.22038 0.70655 0.46257 0.0
O170 O 0.24891 0.69379 0.48529 0.0
O171 O 0.25767 0.72586 0.43973 0.0
H172 H 0.17642 0.73012 0.45617 0.0
H173 H 0.23116 0.77707 0.42993 0.0
O174 O 0.28634 0.71383 0.46295 0.0
O175 O 0.28201 0.76092 0.48996 0.0
O176 O 0.25347 0.77277 0.46671 0.0
C177 C 0.27355 0.77803 0.47905 0.0
H178 H 0.34919 0.71143 0.52721 0.0
H179 H 0.15104 0.75668 0.42936 0.0
Co180 Co 0.20578 0.48456 0.74793 0.0
C181 C 0.20236 0.53639 0.74153 0.0
Co182 Co 0.237 0.49617 0.72659 0.0
C183 C 0.18081 0.4617 0.78184 0.0
C184 C 0.15258 0.47841 0.76235 0.0
N185 N 0.17865 0.47517 0.76493 0.0
N186 N 0.15718 0.45614 0.78984 0.0
C187 C 0.13928 0.46654 0.7776 0.0
H188 H 0.1994 0.45507 0.78752 0.0
H189 H 0.14382 0.48816 0.74983 0.0
C190 C 0.24063 0.44451 0.73402 0.0
N191 N 0.2645 0.50536 0.70981 0.0
C192 C 0.26427 0.52229 0.69534 0.0
C193 C 0.28974 0.49746 0.7104 0.0
N194 N 0.28836 0.52536 0.68693 0.0
C195 C 0.30444 0.50965 0.69626 0.0
C196 C 0.24901 0.50552 0.77167 0.0
O197 O 0.21998 0.45042 0.7454 0.0
O198 O 0.25117 0.46162 0.72418 0.0
O199 O 0.25684 0.50731 0.75229 0.0
O200 O 0.22651 0.49569 0.77412 0.0
O201 O 0.22251 0.53072 0.72934 0.0
H202 H 0.2971 0.48416 0.72083 0.0
H203 H 0.24675 0.53228 0.69114 0.0
O204 O 0.19184 0.51877 0.75078 0.0
O205 O 0.18554 0.47331 0.7214 0.0
O206 O 0.21723 0.48499 0.70081 0.0
C207 C 0.19464 0.47501 0.70228 0.0
H208 H 0.11817 0.46535 0.77937 0.0
H209 H 0.32544 0.50776 0.69362 0.0
Co210 Co 0.99114 0.52773 0.48255 0.0
C211 C 0.02099 0.53125 0.52071 0.0
Co212 Co 0.00385 0.48915 0.48968 0.0
C213 C 0.95697 0.56598 0.46986 0.0
C214 C -0.00376 0.58092 0.47377 0.0
N215 N 0.98122 0.56003 0.47623 0.0
N216 N 0.95618 0.58944 0.46311 0.0
C217 C 0.98089 0.59894 0.46536 0.0
H218 H 0.94063 0.5523 0.46834 0.0
H219 H 0.01724 0.5822 0.47657 0.0
C220 C 0.97418 0.48597 0.4513 0.0
N221 N 0.0135 0.45678 0.49602 0.0
C222 C 0.03657 0.45114 0.50491 0.0
C223 C -0.00182 0.43552 0.49653 0.0
N224 N 0.03615 0.42757 0.51153 0.0
C225 C 0.012 0.41761 0.50633 0.0
C226 C 0.956 0.50622 0.50851 0.0
O227 O 0.97425 0.51087 0.45643 0.0
O228 O 0.98605 0.47238 0.46371 0.0
O229 O 0.97311 0.48813 0.50642 0.0
O230 O 0.95936 0.52596 0.49898 0.0
O231 O 0.02138 0.50632 0.51562 0.0
H232 H 0.97772 0.43399 0.49159 0.0
H233 H 0.05256 0.46515 0.50839 0.0
O234 O 0.00835 0.54454 0.50855 0.0
O235 O 0.02276 0.529 0.46629 0.0
O236 O 0.03502 0.49045 0.47317 0.0
C237 C 0.0396 0.51054 0.46439 0.0
H238 H 0.98761 0.61683 0.46015 0.0
H239 H 0.00439 0.39954 0.51061 0.0
Co240 Co 0.26433 0.22559 0.98896 0.0
C241 C 0.27689 0.21313 0.94395 0.0
Co242 Co 0.23352 0.23534 0.9663 0.0
C243 C 0.29008 0.20629 0.02489 0.0
C244 C 0.31692 0.22505 0.00568 0.0
N245 N 0.29141 0.21845 0.00712 0.0
N246 N 0.31377 0.20506 0.03471 0.0
C247 C 0.33072 0.21684 0.0226 0.0
H248 H 0.27206 0.19822 0.03028 0.0
H249 H 0.32493 0.23532 -0.00681 0.0
C250 C 0.22072 0.24727 0.01128 0.0
N251 N 0.20643 0.24302 0.94825 0.0
C252 C 0.2069 0.26037 0.93414 0.0
C253 C 0.18117 0.23506 0.94839 0.0
N254 N 0.18288 0.26403 0.92579 0.0
C255 C 0.16665 0.24791 0.93454 0.0
C256 C 0.23011 0.18455 0.97572 0.0
O257 O 0.24341 0.2382 0.01415 0.0
O258 O 0.21267 0.24772 0.99164 0.0
O259 O 0.21996 0.20113 0.96511 0.0
O260 O 0.25025 0.19109 0.9878 0.0
O261 O 0.25441 0.22272 0.94105 0.0
H262 H 0.17353 0.22181 0.95875 0.0
H263 H 0.22443 0.27079 0.93063 0.0
O264 O 0.28501 0.21293 0.96362 0.0
O265 O 0.27805 0.2599 0.99012 0.0
O266 O 0.24754 0.26972 0.96766 0.0
C267 C 0.26767 0.27641 0.97961 0.0
H268 H 0.35154 0.21961 0.02581 0.0
H269 H 0.14556 0.24666 0.93219 0.0
Co270 Co 0.21885 0.99062 0.24051 0.0
C271 C 0.21514 0.04045 0.23013 0.0
Co272 Co 0.24761 -0.00194 0.21539 0.0
C273 C 0.19994 0.97296 0.27898 0.0
C274 C 0.16846 0.98821 0.26183 0.0
N275 N 0.19472 0.9848 0.26153 0.0
N276 N 0.178 0.96805 0.28997 0.0
C277 C 0.15809 0.97787 0.2793 0.0
H278 H 0.2196 0.96731 0.28295 0.0
H279 H 0.15748 -0.00348 0.24954 0.0
C280 C 0.25162 0.9485 0.22727 0.0
N281 N 0.2719 0.00326 0.19411 0.0
C282 C 0.28314 0.02602 0.191 0.0
C283 C 0.28137 0.98483 0.17755 0.0
N284 N 0.29907 0.02258 0.17303 0.0
C285 C 0.29806 -0.00338 0.1646 0.0
C286 C 0.26569 0.01223 0.2584 0.0
O287 O 0.23211 0.95638 0.23949 0.0
O288 O 0.26166 0.96373 0.21531 0.0
O289 O 0.27144 0.01195 0.23811 0.0
O290 O 0.24338 0.00372 0.26327 0.0
O291 O 0.23321 0.03273 0.21608 0.0
H292 H 0.27595 0.96422 0.17471 0.0
H293 H 0.27881 0.04492 0.20117 0.0
O294 O 0.20591 0.02464 0.24189 0.0
O295 O 0.19473 0.97731 0.21752 0.0
O296 O 0.22399 0.98374 0.19266 0.0
C297 C 0.20162 0.97528 0.19729 0.0
H298 H 0.13741 0.97647 0.28301 0.0
H299 H 0.3082 0.98687 0.14985 0.0
Co300 Co 0.4865 0.24603 0.72164 0.0
C301 C 0.43462 0.25369 0.73596 0.0
Co302 Co 0.46688 0.21066 0.72951 0.0
C303 C 0.52684 0.28434 0.71978 0.0
C304 C 0.49067 0.29505 0.70587 0.0
N305 N 0.50178 0.27644 0.7158 0.0
N306 N 0.53209 0.30699 0.7124 0.0
C307 C 0.50923 0.31381 0.70371 0.0
H308 H 0.54108 0.27319 0.72747 0.0
H309 H 0.47062 0.29451 0.69988 0.0
C310 C 0.5188 0.2028 0.71548 0.0
N311 N 0.45137 0.1802 0.73544 0.0
C312 C 0.44128 0.17679 0.75511 0.0
C313 C 0.44658 0.15724 0.72147 0.0
N314 N 0.43045 0.15283 0.754 0.0
C315 C 0.43329 0.14041 0.73286 0.0
C316 C 0.46122 0.21702 0.68555 0.0
O317 O 0.51786 0.22687 0.71346 0.0
O318 O 0.49856 0.19204 0.72219 0.0
O319 O 0.45577 0.20221 0.69949 0.0
O320 O 0.47452 0.23782 0.69188 0.0
O321 O 0.43518 0.22927 0.73673 0.0
H322 H 0.45193 0.15315 0.70405 0.0
H323 H 0.44094 0.19193 0.76988 0.0
O324 O 0.45507 0.26485 0.73011 0.0
O325 O 0.49875 0.25404 0.75101 0.0
O326 O 0.4784 0.21977 0.75978 0.0
C327 C 0.49303 0.23982 0.76527 0.0
H328 H 0.50642 0.33028 0.69516 0.0
H329 H 0.42607 0.12086 0.72618 0.0
Co330 Co 0.00219 0.7663 0.72515 0.0
C331 C 0.949 0.75504 0.71793 0.0
Co332 Co 0.98597 0.73861 0.74516 0.0
C333 C 0.0372 0.78786 0.69648 0.0
C334 C 0.00358 0.81251 0.7048 0.0
N335 N 0.01479 0.78993 0.70836 0.0
N336 N 0.04044 0.80816 0.68552 0.0
C337 C 0.01928 0.82373 0.69064 0.0
H338 H 0.05044 0.77125 0.69533 0.0
H339 H 0.98502 0.82011 0.7118 0.0
C340 C 0.03893 0.74985 0.75275 0.0
N341 N 0.97337 0.71498 0.76196 0.0
C342 C 0.95102 0.71694 0.77394 0.0
C343 C 0.98475 0.69247 0.76549 0.0
N344 N 0.94802 0.69667 0.78498 0.0
C345 C 0.96923 0.68119 0.77971 0.0
C346 C 0.00774 0.71443 0.70537 0.0
O347 O 0.03611 0.76377 0.7377 0.0
O348 O 0.01909 0.73816 0.75907 0.0
O349 O -0.00325 0.71035 0.7231 0.0
O350 O 0.01089 0.73791 0.70222 0.0
O351 O 0.95283 0.73924 0.73137 0.0
H352 H 0.00335 0.685 0.75849 0.0
H353 H 0.93771 0.7335 0.77515 0.0
O354 O 0.9682 0.76851 0.7127 0.0
O355 O 0.99356 0.7946 0.74815 0.0
O356 O 0.97525 0.76707 0.76715 0.0
C357 C 0.98063 0.79051 0.76498 0.0
H358 H 0.01535 0.84179 0.6845 0.0
H359 H 0.9734 0.6632 0.78589 0.0
Co360 Co 0.74015 0.49744 0.26545 0.0
C361 C 0.73462 0.54693 0.25409 0.0
Co362 Co 0.77159 0.50765 0.24365 0.0
C363 C 0.71624 0.4747 0.29967 0.0
C364 C 0.68732 0.49294 0.28197 0.0
N365 N 0.7134 0.48868 0.28317 0.0
N366 N 0.69304 0.46965 0.30868 0.0
C367 C 0.67471 0.48129 0.29775 0.0
H368 H 0.73509 0.46813 0.30484 0.0
H369 H 0.67806 0.50324 0.27004 0.0
C370 C 0.77655 0.45768 0.25371 0.0
N371 N 0.79878 0.51611 0.22618 0.0
C372 C 0.79796 0.53224 0.21108 0.0
C373 C 0.82424 0.50894 0.22692 0.0
N374 N 0.82188 0.53564 0.20253 0.0
C375 C 0.83849 0.52084 0.21229 0.0
C376 C 0.78187 0.52242 0.2889 0.0
O377 O 0.75626 0.46393 0.26553 0.0
O378 O 0.78654 0.47429 0.24312 0.0
O379 O 0.7912 0.5218 0.2695 0.0
O380 O 0.75941 0.51244 0.29104 0.0
O381 O 0.75607 0.54089 0.24389 0.0
H382 H 0.83209 0.4965 0.23789 0.0
H383 H 0.78019 0.54162 0.20666 0.0
O384 O 0.72414 0.53073 0.26495 0.0
O385 O 0.72099 0.48262 0.23979 0.0
O386 O 0.75175 0.49367 0.21794 0.0
C387 C 0.72956 0.48314 0.22032 0.0
H388 H 0.65371 0.48064 0.30042 0.0
H389 H 0.85954 0.51962 0.20973 0.0
Co390 Co 0.76341 0.73973 0.01479 0.0
C391 C 0.77325 0.73386 0.96943 0.0
Co392 Co 0.7302 0.75075 -0.0049 0.0
C393 C 0.793 0.71218 0.04357 0.0
C394 C 0.81688 0.73949 0.02984 0.0
N395 N 0.79201 0.73044 0.03031 0.0
N396 N 0.81748 0.70936 0.0513 0.0
C397 C 0.83258 0.72663 0.04285 0.0
H398 H 0.77606 0.7011 0.04742 0.0
H399 H 0.8233 0.75409 0.02027 0.0
C400 C 0.72081 0.7572 0.04061 0.0
N401 N 0.70206 0.76052 0.97922 0.0
C402 C 0.70295 0.77912 0.9663 0.0
C403 C 0.67667 0.75277 0.9787 0.0
N404 N 0.67922 0.78372 0.95802 0.0
C405 C 0.66254 0.76698 0.9655 0.0
C406 C 0.72999 0.69822 -0.001 0.0
O407 O 0.74404 0.74841 0.04141 0.0
O408 O 0.71071 0.75896 0.02184 0.0
O409 O 0.71787 0.71566 0.99061 0.0
O410 O 0.75049 0.7046 0.01061 0.0
O411 O 0.75006 0.74268 0.96845 0.0
H412 H 0.66885 0.73824 0.98775 0.0
H413 H 0.72075 0.78937 0.96316 0.0
O414 O 0.7827 0.73121 0.98817 0.0
O415 O 0.77592 0.77482 0.01894 0.0
O416 O 0.74271 0.78588 -0.00021 0.0
C417 C 0.76333 0.79233 0.01108 0.0
H418 H 0.85355 0.72921 0.04535 0.0
H419 H 0.64159 0.76581 0.96233 0.0
Co420 Co 0.51095 -0.0034 0.46236 0.0
C421 C 0.50206 0.02853 0.50342 0.0
Co422 Co 0.52218 0.97894 0.49139 0.0
C423 C 0.48279 0.00667 0.42362 0.0
C424 C 0.51075 0.0369 0.43555 0.0
N425 N 0.50183 0.01328 0.43898 0.0
N426 N 0.4792 0.02539 0.41099 0.0
C427 C 0.49689 0.04437 0.41836 0.0
H428 H 0.4707 0.98922 0.4226 0.0
H429 H 0.5255 0.0486 0.44559 0.0
C430 C 0.53089 0.94694 0.4503 0.0
N431 N 0.53131 0.96242 0.51479 0.0
C432 C 0.55049 0.96941 0.52992 0.0
C433 C 0.5225 0.93896 0.51872 0.0
N434 N 0.55436 0.95108 0.54284 0.0
C435 C 0.53659 0.93199 0.53603 0.0
C436 C 0.47057 0.96867 0.47767 0.0
O437 O 0.52225 0.96648 0.44235 0.0
O438 O 0.53235 0.9484 0.47126 0.0
O439 O 0.48783 0.96548 0.49196 0.0
O440 O 0.47642 0.98179 0.46258 0.0
O441 O 0.51192 0.00953 0.51137 0.0
H442 H 0.50771 0.92704 0.50891 0.0
H443 H 0.562 0.98724 0.53099 0.0
O444 O 0.49963 0.02662 0.48249 0.0
O445 O 0.54535 0.01117 0.4625 0.0
O446 O 0.55661 0.99294 0.49088 0.0
C447 C 0.56242 0.00739 0.47679 0.0
H448 H 0.4991 0.06274 0.41228 0.0
H449 H 0.53494 0.91364 0.54223 0.0
Co450 Co 0.50324 0.48702 0.96474 0.0
C451 C 0.50035 0.51666 0.00729 0.0
Co452 Co 0.5154 0.46574 0.99131 0.0
C453 C 0.47376 0.49925 0.92801 0.0
C454 C 0.49952 0.53082 0.94176 0.0
N455 N 0.49287 0.50586 0.94327 0.0
N456 N 0.46775 0.51926 0.9174 0.0
C457 C 0.48394 0.53919 0.92592 0.0
H458 H 0.46311 0.48079 0.92588 0.0
H459 H 0.51368 0.54266 0.9524 0.0
C460 C 0.51777 0.43599 0.94875 0.0
N461 N 0.52561 0.44698 0.0129 0.0
C462 C 0.54463 0.45348 0.02825 0.0
C463 C 0.51682 0.4232 0.01601 0.0
N464 N 0.54827 0.43466 0.04073 0.0
C465 C 0.53068 0.41561 0.03321 0.0
C466 C 0.46225 0.46144 0.98171 0.0
O467 O 0.50981 0.45705 0.9428 0.0
O468 O 0.52155 0.43565 0.96927 0.0
O469 O 0.48021 0.45482 -0.00591 0.0
O470 O 0.46812 0.47559 0.96741 0.0
O471 O 0.50908 0.49592 0.01331 0.0
H472 H 0.50174 0.41187 0.00608 0.0
H473 H 0.5557 0.47168 0.03016 0.0
O474 O 0.49655 0.5168 0.98676 0.0
O475 O 0.53823 0.49836 0.96222 0.0
O476 O 0.55064 0.47697 0.98844 0.0
C477 C 0.55629 0.49166 0.97446 0.0
H478 H 0.48377 0.55869 0.92164 0.0
H479 H 0.52856 0.39719 0.03923 0.0
C480 C 0.98222 0.05364 0.07067 0.0
C481 C -0.00338 0.0309 0.06226 0.0
C482 C 0.9848 0.06545 0.0929 0.0
C483 C 0.03079 0.07851 0.13708 0.0
H484 H 0.96895 0.10114 0.17247 0.0
C485 C -0.0037 0.15607 0.22058 0.0
C486 C 0.00652 0.17905 0.21439 0.0
C487 C -0.00105 0.13183 0.20642 0.0
C488 C 0.98649 0.09445 0.1631 0.0
H489 H 0.02511 0.00267 0.07028 0.0
H490 H 0.0303 0.02415 0.10925 0.0
H491 H 0.96449 0.06881 0.13827 0.0
H492 H 0.02904 0.19458 0.18942 0.0
H493 H 0.03359 0.15229 0.1647 0.0
H494 H 0.05249 0.10569 0.16105 0.0
C495 C 0.01672 0.03237 0.09862 0.0
C496 C 0.98389 0.07614 0.14352 0.0
C497 C 0.01376 0.02021 0.07642 0.0
C498 C 0.02067 0.17721 0.19445 0.0
C499 C 0.0236 0.15297 0.18047 0.0
C500 C 0.03336 0.0971 0.15657 0.0
C501 C 0.00211 0.05496 0.10699 0.0
C502 C 0.00584 0.06894 0.12994 0.0
C503 C 0.01221 0.13021 0.18607 0.0
C504 C 0.01103 0.10601 0.16918 0.0
H505 H 0.96877 0.06218 0.06014 0.0
H506 H 0.97367 0.08316 0.099 0.0
H507 H 0.04794 0.0732 0.12676 0.0
H508 H 0.98546 0.15694 0.23597 0.0
H509 H 0.98999 0.1145 0.21103 0.0
C510 C 0.7865 0.2611 0.45741 0.0
C511 C 0.78978 0.25016 0.47672 0.0
C512 C 0.80288 0.25339 0.43904 0.0
C513 C 0.83384 0.22707 0.3988 0.0
H514 H 0.90721 0.21693 0.41255 0.0
C515 C 0.93825 0.19687 0.35054 0.0
C516 C 0.93858 0.21515 0.33587 0.0
C517 C 0.91872 0.19795 0.36676 0.0
C518 C 0.88673 0.21932 0.40844 0.0
H519 H 0.81144 0.22144 0.49156 0.0
H520 H 0.83927 0.20728 0.45932 0.0
H521 H 0.87521 0.22478 0.44254 0.0
H522 H 0.91777 0.24893 0.32722 0.0
H523 H 0.88412 0.25042 0.35515 0.0
H524 H 0.84586 0.22273 0.36469 0.0
C525 C 0.82482 0.22249 0.45855 0.0
C526 C 0.86832 0.22374 0.4256 0.0
C527 C 0.80877 0.23049 0.47698 0.0
C528 C 0.91851 0.23427 0.33782 0.0
C529 C 0.89893 0.23515 0.35387 0.0
C530 C 0.85234 0.22293 0.38165 0.0
C531 C 0.82256 0.23432 0.43957 0.0
C532 C 0.84168 0.22793 0.42103 0.0
C533 C 0.89893 0.21712 0.36856 0.0
C534 C 0.87898 0.21929 0.38637 0.0
H535 H 0.77201 0.27636 0.45683 0.0
H536 H 0.80076 0.26314 0.42481 0.0
H537 H 0.81344 0.22976 0.39464 0.0
H538 H 0.95301 0.18169 0.34969 0.0
H539 H 0.91905 0.18372 0.37787 0.0
C540 C 0.85008 0.07066 0.6999 0.0
C541 C 0.8283 0.0536 0.69712 0.0
C542 C 0.85485 0.08747 0.68472 0.0
C543 C 0.83629 0.10079 0.6289 0.0
H544 H 0.84607 0.17396 0.65632 0.0
C545 C 0.80495 0.18665 0.58681 0.0
C546 C 0.82094 0.20919 0.58918 0.0
C547 C 0.81087 0.16627 0.59826 0.0
C548 C 0.84386 0.15357 0.64834 0.0
H549 H 0.79555 0.03947 0.67551 0.0
H550 H 0.8035 0.06907 0.6493 0.0
H551 H 0.84835 0.13981 0.67919 0.0
H552 H 0.85576 0.228 0.60527 0.0
H553 H 0.86616 0.19224 0.62535 0.0
H554 H 0.8308 0.11475 0.59819 0.0
C555 C 0.81699 0.06944 0.66311 0.0
C556 C 0.84522 0.13399 0.66143 0.0
C557 C 0.81221 0.05272 0.67829 0.0
C558 C 0.84316 0.21081 0.60307 0.0
C559 C 0.84902 0.19044 0.61464 0.0
C560 C 0.8349 0.12038 0.61583 0.0
C561 C 0.83801 0.08741 0.66643 0.0
C562 C 0.84072 0.10748 0.65195 0.0
C563 C 0.83287 0.16801 0.61238 0.0
C564 C 0.83795 0.14702 0.62554 0.0
H565 H 0.86278 0.07184 0.71428 0.0
H566 H 0.87135 0.10094 0.68757 0.0
H567 H 0.8332 0.08047 0.62108 0.0
H568 H 0.78795 0.18462 0.57596 0.0
H569 H 0.79785 0.14939 0.59642 0.0
C570 C 0.91663 0.09184 0.9456 0.0
C571 C 0.91336 0.08036 0.96461 0.0
C572 C 0.89538 0.0933 0.93131 0.0
C573 C 0.83592 0.05497 0.91494 0.0
H574 H 0.8282 0.10321 0.87332 0.0
C575 C 0.7691 0.02982 0.8382 0.0
C576 C 0.78135 0.03274 0.81814 0.0
C577 C 0.78016 0.04119 0.85862 0.0
C578 C 0.83007 0.08964 0.8849 0.0
H579 H 0.88526 0.06421 0.9851 0.0
H580 H 0.84783 0.06767 0.96069 0.0
H581 H 0.85648 0.11521 0.906 0.0
H582 H 0.81427 0.05065 0.80376 0.0
H583 H 0.83371 0.07005 0.8393 0.0
H584 H 0.81045 0.02897 0.89353 0.0
C585 C 0.86685 0.07468 0.9563 0.0
C586 C 0.84624 0.09649 0.90359 0.0
C587 C 0.88814 0.07285 0.97034 0.0
C588 C 0.8044 0.04792 0.81891 0.0
C589 C 0.8154 0.05931 0.8393 0.0
C590 C 0.81974 0.04819 0.89637 0.0
C591 C 0.87052 0.08357 0.93601 0.0
C592 C 0.84994 0.07888 0.91847 0.0
C593 C 0.80363 0.05575 0.85937 0.0
C594 C 0.81726 0.06508 0.8808 0.0
H595 H 0.93599 0.09757 0.94085 0.0
H596 H 0.89899 0.10011 0.91578 0.0
H597 H 0.83864 0.04065 0.92577 0.0
H598 H 0.75121 0.01839 0.83814 0.0
H599 H 0.77056 0.03829 0.87384 0.0
C600 C 0.03708 0.91601 0.06632 0.0
C601 C 0.04245 0.90735 0.0437 0.0
C602 C 0.05508 0.91157 0.08244 0.0
C603 C 0.09625 0.89617 0.11403 0.0
H604 H 0.15885 0.93349 0.10091 0.0
C605 C 0.19622 0.94964 0.15899 0.0
C606 C 0.18492 0.96112 0.17938 0.0
C607 C 0.18084 0.93512 0.14224 0.0
C608 C 0.14195 0.92238 0.10482 0.0
H609 H 0.06954 0.88592 0.01993 0.0
H610 H 0.10187 0.87876 0.0483 0.0
H611 H 0.12768 0.91805 0.07142 0.0
H612 H 0.14881 0.96637 0.19841 0.0
H613 H 0.12153 0.94235 0.16873 0.0
H614 H 0.11016 0.90111 0.14761 0.0
C615 C 0.0835 0.88853 0.05352 0.0
C616 C 0.12408 0.91347 0.08783 0.0
C617 C 0.06514 0.89254 0.03739 0.0
C618 C 0.15797 0.95777 0.18279 0.0
C619 C 0.14245 0.94367 0.16587 0.0
C620 C 0.11435 0.90472 0.13101 0.0
C621 C 0.07898 0.89887 0.07611 0.0
C622 C 0.10059 0.90128 0.09249 0.0
C623 C 0.15369 0.93221 0.14535 0.0
C624 C 0.13685 0.91895 0.12679 0.0
H625 H 0.01961 0.9275 0.07135 0.0
H626 H 0.05126 0.92004 0.09969 0.0
H627 H 0.07826 0.88671 0.11796 0.0
H628 H 0.21709 0.95147 0.15608 0.0
H629 H 0.19028 0.9262 0.12686 0.0
C630 C 0.9581 0.48697 0.41281 0.0
C631 C 0.96188 0.47305 0.43041 0.0
C632 C 0.95023 0.4737 0.39187 0.0
C633 C 0.9633 0.43315 0.35028 0.0
H634 H 0.91597 0.37325 0.34083 0.0
C635 C 0.97046 0.31945 0.31162 0.0
C636 C 0.98069 0.31918 0.29023 0.0
C637 C 0.96026 0.34251 0.32386 0.0
C638 C 0.92904 0.39012 0.34305 0.0
H639 H 0.95815 0.43507 0.44067 0.0
H640 H 0.94417 0.41195 0.40426 0.0
H641 H 0.90956 0.40836 0.37288 0.0
H642 H 0.98824 0.34288 0.26482 0.0
H643 H 0.97078 0.38366 0.28667 0.0
H644 H 0.98431 0.41376 0.32172 0.0
C645 C 0.94734 0.43304 0.40653 0.0
C646 C 0.92527 0.41021 0.36128 0.0
C647 C 0.95565 0.44617 0.4273 0.0
C648 C 0.98069 0.34258 0.28137 0.0
C649 C 0.97054 0.36582 0.29375 0.0
C650 C 0.96719 0.41295 0.33212 0.0
C651 C 0.9455 0.44648 0.38845 0.0
C652 C 0.94338 0.431 0.36578 0.0
C653 C 0.96005 0.36589 0.31504 0.0
C654 C 0.9511 0.39048 0.32926 0.0
H655 H 0.96268 0.50779 0.41484 0.0
H656 H 0.949 0.4844 0.37813 0.0
H657 H 0.97759 0.44898 0.35345 0.0
H658 H 0.97007 0.30176 0.31892 0.0
H659 H 0.95301 0.34211 0.34049 0.0
C660 C 0.69861 0.32899 0.59047 0.0
C661 C 0.71312 0.30571 0.58956 0.0
C662 C 0.68504 0.33976 0.60976 0.0
C663 C 0.67306 0.33205 0.66897 0.0
H664 H 0.60223 0.35139 0.65488 0.0
C665 C 0.58046 0.30301 0.70975 0.0
C666 C 0.5576 0.31838 0.70994 0.0
C667 C 0.60424 0.31174 0.70235 0.0
C668 C 0.6221 0.34685 0.65936 0.0
H669 H 0.72585 0.27594 0.60822 0.0
H670 H 0.70083 0.29369 0.64149 0.0
H671 H 0.6355 0.3467 0.62636 0.0
H672 H 0.54283 0.35664 0.70566 0.0
H673 H 0.5843 0.37154 0.69211 0.0
H674 H 0.65855 0.32997 0.7016 0.0
C675 C 0.70056 0.30428 0.62767 0.0
C676 C 0.64132 0.34411 0.64291 0.0
C677 C 0.71466 0.29387 0.60851 0.0
C678 C 0.55981 0.34391 0.70496 0.0
C679 C 0.5836 0.35257 0.69741 0.0
C680 C 0.65365 0.33449 0.6854 0.0
C681 C 0.68512 0.32707 0.62837 0.0
C682 C 0.66675 0.33553 0.6472 0.0
C683 C 0.60564 0.33595 0.69491 0.0
C684 C 0.62773 0.3408 0.68042 0.0
H685 H 0.69764 0.33884 0.57619 0.0
H686 H 0.67393 0.35767 0.60986 0.0
H687 H 0.69263 0.32612 0.67302 0.0
H688 H 0.57977 0.28332 0.71353 0.0
H689 H 0.62083 0.29839 0.70049 0.0
C690 C 0.69143 0.94972 0.84168 0.0
C691 C 0.67704 0.94496 0.82174 0.0
C692 C 0.68767 0.93405 0.85781 0.0
C693 C 0.64432 0.88446 0.8764 0.0
H694 H 0.70978 0.86233 0.89999 0.0
C695 C 0.65524 0.79921 0.92749 0.0
C696 C 0.67342 0.80373 0.9451 0.0
C697 C 0.65225 0.81769 0.91337 0.0
C698 C 0.69129 0.86856 0.89379 0.0
H699 H 0.64658 0.9209 0.80341 0.0
H700 H 0.6402 0.89308 0.83158 0.0
H701 H 0.71076 0.89264 0.87382 0.0
H702 H 0.70086 0.83192 0.96308 0.0
H703 H 0.69556 0.86412 0.93873 0.0
H704 H 0.62499 0.85979 0.89637 0.0
C705 C 0.65419 0.90916 0.83482 0.0
C706 C 0.69185 0.88599 0.87881 0.0
C707 C 0.65785 0.92503 0.81869 0.0
C708 C 0.68725 0.82765 0.94925 0.0
C709 C 0.6842 0.84607 0.93532 0.0
C710 C 0.64377 0.86686 0.89146 0.0
C711 C 0.66959 0.91309 0.85428 0.0
C712 C 0.6684 0.89438 0.87012 0.0
C713 C 0.66734 0.84094 0.91682 0.0
C714 C 0.66728 0.85901 0.90047 0.0
H715 H 0.70594 0.96533 0.84462 0.0
H716 H 0.69937 0.93799 0.87289 0.0
H717 H 0.62594 0.89062 0.86997 0.0
H718 H 0.64435 0.78089 0.92404 0.0
H719 H 0.63913 0.81325 0.89921 0.0
C720 C 0.17704 0.26257 0.027 0.0
C721 C 0.20343 0.2564 0.03046 0.0
C722 C 0.16013 0.26957 0.04504 0.0
C723 C 0.13013 0.29404 0.08619 0.0
H724 H 0.13525 0.25209 0.13287 0.0
C725 C 0.05986 0.30768 0.16194 0.0
C726 C 0.05108 0.28444 0.1686 0.0
C727 C 0.07976 0.30678 0.14605 0.0
C728 C 0.13349 0.26389 0.11991 0.0
H729 H 0.23314 0.2538 0.05552 0.0
H730 H 0.2037 0.26655 0.08709 0.0
H731 H 0.16781 0.24664 0.10332 0.0
H732 H 0.05545 0.242 0.16333 0.0
H733 H 0.08978 0.24031 0.13542 0.0
H734 H 0.09499 0.31031 0.10225 0.0
C735 C 0.19594 0.26542 0.07041 0.0
C736 C 0.15239 0.26106 0.10314 0.0
C737 C 0.21283 0.25823 0.05234 0.0
C738 C 0.06218 0.26027 0.15881 0.0
C739 C 0.08191 0.25933 0.14288 0.0
C740 C 0.1111 0.29676 0.10291 0.0
C741 C 0.1693 0.27074 0.06693 0.0
C742 C 0.15069 0.27578 0.08588 0.0
C743 C 0.09112 0.28258 0.13648 0.0
C744 C 0.11233 0.28135 0.11972 0.0
H745 H 0.16919 0.2613 0.01032 0.0
H746 H 0.13965 0.27314 0.04174 0.0
H747 H 0.12848 0.30594 0.07329 0.0
H748 H 0.05182 0.3266 0.16941 0.0
H749 H 0.08658 0.32505 0.1416 0.0
C750 C 0.70674 0.43325 0.32727 0.0
C751 C 0.68906 0.45366 0.32546 0.0
C752 C 0.70403 0.41856 0.3442 0.0
C753 C 0.65838 0.39903 0.38485 0.0
H754 H 0.72312 0.38672 0.41508 0.0
C755 C 0.66436 0.34912 0.46341 0.0
C756 C 0.68524 0.33134 0.4637 0.0
C757 C 0.66251 0.36405 0.44641 0.0
C758 C 0.7049 0.38977 0.40667 0.0
H759 H 0.65409 0.47407 0.33948 0.0
H760 H 0.64934 0.44821 0.36937 0.0
H761 H 0.72397 0.41312 0.38581 0.0
H762 H 0.71941 0.31391 0.44567 0.0
H763 H 0.7162 0.33981 0.41612 0.0
H764 H 0.63941 0.37541 0.40584 0.0
C765 C 0.66525 0.44366 0.35754 0.0
C766 C 0.70539 0.40491 0.38993 0.0
C767 C 0.66797 0.45843 0.3405 0.0
C768 C 0.70351 0.32794 0.44621 0.0
C769 C 0.70165 0.34276 0.42928 0.0
C770 C 0.65789 0.38379 0.4017 0.0
C771 C 0.68359 0.42391 0.35976 0.0
C772 C 0.68226 0.40931 0.37856 0.0
C773 C 0.6815 0.36139 0.42947 0.0
C774 C 0.68127 0.37865 0.41247 0.0
H775 H 0.72272 0.42855 0.31556 0.0
H776 H 0.71807 0.40301 0.34514 0.0
H777 H 0.64028 0.40208 0.3763 0.0
H778 H 0.65006 0.3522 0.47673 0.0
H779 H 0.64682 0.37833 0.44699 0.0
C780 C 0.57207 0.93763 0.57675 0.0
C781 C 0.57539 0.95041 0.55845 0.0
C782 C 0.59261 0.93693 0.59184 0.0
C783 C 0.65286 0.97255 0.61214 0.0
H784 H 0.66519 0.91165 0.64005 0.0
C785 C 0.731 0.97536 0.67996 0.0
C786 C 0.7212 0.96824 0.69959 0.0
C787 C 0.71701 0.96891 0.66004 0.0
C788 C 0.66199 0.92874 0.63232 0.0
H789 H 0.60307 0.9715 0.54103 0.0
H790 H 0.6389 0.97019 0.56724 0.0
H791 H 0.63262 0.90909 0.61025 0.0
H792 H 0.69015 0.94722 0.71348 0.0
H793 H 0.66571 0.93619 0.6788 0.0
H794 H 0.6817 0.99242 0.63448 0.0
C795 C 0.62029 0.96123 0.57025 0.0
C796 C 0.6433 0.92734 0.61537 0.0
C797 C 0.59973 0.96206 0.55528 0.0
C798 C 0.6981 0.95313 0.69864 0.0
C799 C 0.6842 0.94662 0.67873 0.0
C800 C 0.67158 0.97392 0.62899 0.0
C801 C 0.61689 0.94884 0.58879 0.0
C802 C 0.6382 0.9494 0.60541 0.0
C803 C 0.6931 0.95515 0.65941 0.0
C804 C 0.67597 0.95221 0.63953 0.0
H805 H 0.55345 0.92863 0.57962 0.0
H806 H 0.58925 0.9276 0.60617 0.0
H807 H 0.64914 0.99001 0.60503 0.0
H808 H 0.74885 0.98687 0.68015 0.0
H809 H 0.72444 0.97544 0.64529 0.0
C810 C 0.9553 0.96903 0.92218 0.0
C811 C 0.97084 0.95816 0.93736 0.0
C812 C 0.94844 0.95381 0.90163 0.0
C813 C 0.94274 0.88443 0.8745 0.0
H814 H 0.95759 0.90869 0.81919 0.0
C815 C 0.98421 0.8371 0.78434 0.0
C816 C 0.97117 0.81277 0.78142 0.0
C817 C 0.97603 0.85776 0.80084 0.0
C818 C 0.95322 0.90166 0.8345 0.0
H819 H 0.99214 0.92328 0.94263 0.0
H820 H 0.98046 0.89713 0.90706 0.0
H821 H 0.95932 0.93985 0.85437 0.0
H822 H 0.93806 0.79146 0.79189 0.0
H823 H 0.92316 0.82781 0.82019 0.0
H824 H 0.9389 0.846 0.85534 0.0
C825 C 0.97301 0.91708 0.91112 0.0
C826 C 0.9539 0.91958 0.85457 0.0
C827 C 0.97988 0.93217 0.93146 0.0
C828 C 0.94885 0.80988 0.79425 0.0
C829 C 0.94031 0.83072 0.81041 0.0
C830 C 0.94232 0.86654 0.85458 0.0
C831 C 0.95691 0.92755 0.89616 0.0
C832 C 0.94993 0.91075 0.87479 0.0
C833 C 0.95433 0.85462 0.81442 0.0
C834 C 0.94875 0.8747 0.83445 0.0
H835 H 0.94807 0.98904 0.92634 0.0
H836 H 0.93616 0.96233 0.89024 0.0
H837 H 0.93908 0.87728 0.88989 0.0
H838 H 0.00137 0.83982 0.7745 0.0
H839 H 0.9876 0.87568 0.80362 0.0
C840 C 0.06085 0.03536 0.9695 0.0
C841 C 0.0576 0.01686 0.98361 0.0
C842 C 0.08572 0.0453 0.96614 0.0
C843 C 0.14563 0.06331 -0.00458 0.0
H844 H 0.1699 0.07568 0.93792 0.0
C845 C 0.22552 0.14088 0.9883 0.0
C846 C 0.21792 0.1583 0.97414 0.0
C847 C 0.21214 0.117 0.98767 0.0
C848 C 0.16349 0.07229 0.9541 0.0
H849 H 0.07778 0.99373 0.00489 0.0
H850 H 0.12139 0.01191 -0.0005 0.0
H851 H 0.13375 0.04499 0.93982 0.0
H852 H 0.19118 0.16385 0.94758 0.0
H853 H 0.16784 0.12286 0.94675 0.0
H854 H 0.17387 0.09211 0.00984 0.0
C855 C 0.10466 0.0183 0.99083 0.0
C856 C 0.14291 0.05467 0.95515 0.0
C857 C 0.07979 0.00792 -0.00615 0.0
C858 C 0.19749 0.15095 0.9588 0.0
C859 C 0.18426 0.12721 0.95813 0.0
C860 C 0.16605 0.08121 -0.0056 0.0
C861 C 0.10775 0.03728 0.97713 0.0
C862 C 0.13312 0.05086 0.97584 0.0
C863 C 0.1911 0.11012 0.97278 0.0
C864 C 0.17436 0.08676 0.97374 0.0
H865 H 0.04409 0.04252 0.96137 0.0
H866 H 0.08754 0.06019 0.95572 0.0
H867 H 0.13832 0.06079 0.01159 0.0
H868 H 0.24127 0.146 0.00025 0.0
H869 H 0.21793 0.10417 -0.0009 0.0
C870 C 0.69903 0.5802 0.2647 0.0
C871 C 0.72067 0.57117 0.25123 0.0
C872 C 0.68374 0.60102 0.25997 0.0
C873 C 0.66033 0.62661 0.21287 0.0
H874 H 0.63443 0.68533 0.25607 0.0
C875 C 0.58086 0.71717 0.21932 0.0
C876 C 0.55754 0.70245 0.2154 0.0
C877 C 0.60486 0.70442 0.22086 0.0
C878 C 0.64184 0.66927 0.24375 0.0
H879 H 0.74395 0.57756 0.22283 0.0
H880 H 0.71672 0.61346 0.21429 0.0
H881 H 0.66994 0.65772 0.26646 0.0
H882 H 0.54104 0.66309 0.2085 0.0
H883 H 0.58314 0.64081 0.21037 0.0
H884 H 0.63103 0.63706 0.19068 0.0
C885 C 0.71183 0.60456 0.22858 0.0
C886 C 0.66196 0.65345 0.24973 0.0
C887 C 0.7274 0.58409 0.23354 0.0
C888 C 0.55877 0.67483 0.21156 0.0
C889 C 0.5828 0.66212 0.21255 0.0
C890 C 0.63987 0.64209 0.20705 0.0
C891 C 0.6896 0.61283 0.24149 0.0
C892 C 0.671 0.63172 0.23446 0.0
C893 C 0.60588 0.67683 0.21788 0.0
C894 C 0.63017 0.66322 0.22259 0.0
H895 H 0.69342 0.57065 0.27845 0.0
H896 H 0.66654 0.60697 0.27005 0.0
H897 H 0.66685 0.60979 0.20089 0.0
H898 H 0.58034 0.73851 0.2225 0.0
H899 H 0.62248 0.71608 0.22501 0.0
C900 C 0.28242 0.81944 0.46415 0.0
C901 C 0.28754 0.80331 0.48001 0.0
C902 C 0.29706 0.84239 0.4641 0.0
C903 C 0.34037 0.89043 0.49868 0.0
H904 H 0.37527 0.89585 0.44318 0.0
C905 C 0.43839 0.94324 0.4962 0.0
C906 C 0.44447 0.95624 0.47845 0.0
C907 C 0.4148 0.92961 0.49647 0.0
C908 C 0.36524 0.89508 0.4587 0.0
H909 H 0.31133 0.79904 0.50869 0.0
H910 H 0.33666 0.83919 0.50872 0.0
H911 H 0.34142 0.86244 0.4437 0.0
H912 H 0.43007 0.96595 0.44742 0.0
H913 H 0.38847 0.94206 0.44794 0.0
H914 H 0.36453 0.92261 0.51383 0.0
C915 C 0.32133 0.83411 0.49635 0.0
C916 C 0.34589 0.87588 0.459 0.0
C917 C 0.30696 0.81103 0.49624 0.0
C918 C 0.42596 0.95605 0.46129 0.0
C919 C 0.40223 0.94229 0.46155 0.0
C920 C 0.35952 0.90975 0.49836 0.0
C921 C 0.3168 0.84981 0.4801 0.0
C922 C 0.33394 0.87281 0.47913 0.0
C923 C 0.39656 0.92864 0.47903 0.0
C924 C 0.37288 0.91166 0.47853 0.0
H925 H 0.26757 0.814 0.45142 0.0
H926 H 0.29313 0.85421 0.45145 0.0
H927 H 0.33111 0.88876 0.51436 0.0
H928 H 0.45217 0.94301 0.50972 0.0
H929 H 0.41136 0.91896 0.50999 0.0
C930 C 0.06822 0.73212 0.7791 0.0
C931 C 0.06526 0.7423 0.75939 0.0
C932 C 0.08979 0.71639 0.78189 0.0
C933 C 0.15157 0.68623 0.75641 0.0
H934 H 0.11911 0.62261 0.76945 0.0
C935 C 0.19664 0.58139 0.73176 0.0
C936 C 0.19179 0.5634 0.7461 0.0
C937 C 0.18534 0.60655 0.73604 0.0
C938 C 0.1288 0.64027 0.76622 0.0
H939 H 0.08399 0.74689 0.72839 0.0
H940 H 0.12139 0.71881 0.73301 0.0
H941 H 0.09411 0.66293 0.7743 0.0
H942 H 0.17298 0.55813 0.7769 0.0
H943 H 0.15416 0.60192 0.78472 0.0
H944 H 0.18623 0.66295 0.74782 0.0
C945 C 0.10727 0.72316 0.74642 0.0
C946 C 0.11441 0.6635 0.76907 0.0
C947 C 0.08582 0.73927 0.74378 0.0
C948 C 0.17657 0.57136 0.76526 0.0
C949 C 0.16573 0.59649 0.76973 0.0
C950 C 0.16616 0.66282 0.75369 0.0
C951 C 0.10848 0.71018 0.76482 0.0
C952 C 0.1255 0.68673 0.76411 0.0
C953 C 0.16935 0.61417 0.7549 0.0
C954 C 0.15482 0.63954 0.75847 0.0
H955 H 0.05276 0.73445 0.79151 0.0
H956 H 0.09062 0.70719 0.79653 0.0
H957 H 0.16055 0.70382 0.75234 0.0
H958 H 0.20847 0.57576 0.71693 0.0
H959 H 0.18838 0.61963 0.72421 0.0
C960 C 0.80726 0.35192 0.55691 0.0
C961 C 0.78814 0.34594 0.54018 0.0
C962 C 0.82135 0.37546 0.55928 0.0
C963 C 0.82495 0.44067 0.54094 0.0
H964 H 0.89968 0.43073 0.54845 0.0
C965 C 0.90747 0.50167 0.50961 0.0
C966 C 0.9318 0.50251 0.52052 0.0
C967 C 0.88599 0.48934 0.51778 0.0
C968 C 0.87882 0.4342 0.54691 0.0
H969 H 0.76809 0.36024 0.51326 0.0
H970 H 0.79345 0.40092 0.51682 0.0
H971 H 0.8698 0.39516 0.55134 0.0
H972 H 0.95233 0.49446 0.54965 0.0
H973 H 0.91461 0.47418 0.56457 0.0
H974 H 0.83453 0.47954 0.53538 0.0
C975 C 0.79715 0.38775 0.52847 0.0
C976 C 0.86161 0.41368 0.54854 0.0
C977 C 0.7828 0.36432 0.52628 0.0
C978 C 0.93367 0.49385 0.54098 0.0
C979 C 0.91216 0.48208 0.54937 0.0
C980 C 0.8423 0.46131 0.53921 0.0
C981 C 0.81693 0.39336 0.54474 0.0
C982 C 0.83452 0.41645 0.54524 0.0
C983 C 0.88869 0.47803 0.53706 0.0
C984 C 0.86948 0.45813 0.54188 0.0
H985 H 0.81151 0.33832 0.56811 0.0
H986 H 0.83608 0.37941 0.57229 0.0
H987 H 0.80412 0.44352 0.53855 0.0
H988 H 0.90578 0.50806 0.49367 0.0
H989 H 0.86819 0.48651 0.50789 0.0
C990 C 0.25797 0.90988 0.24625 0.0
C991 C 0.26364 0.92276 0.22831 0.0
C992 C 0.27164 0.88716 0.2488 0.0
C993 C 0.32156 0.85767 0.25798 0.0
H994 H 0.33825 0.80014 0.20994 0.0
C995 C 0.42003 0.80417 0.24607 0.0
C996 C 0.42009 0.77655 0.24109 0.0
C997 C 0.39638 0.81793 0.24803 0.0
C998 C 0.33335 0.81579 0.22362 0.0
H999 H 0.2868 0.92116 0.19829 0.0
H1000 H 0.31045 0.88116 0.20263 0.0
H1001 H 0.30348 0.8314 0.2048 0.0
H1002 H 0.39572 0.74152 0.23477 0.0
H1003 H 0.35402 0.76591 0.23735 0.0
H1004 H 0.35272 0.8432 0.27619 0.0
C1005 C 0.2955 0.88874 0.2147 0.0
C1006 C 0.31366 0.8337 0.22064 0.0
C1007 C 0.28214 0.9117 0.21232 0.0
C1008 C 0.39609 0.76284 0.23874 0.0
C1009 C 0.37235 0.77669 0.24015 0.0
C1010 C 0.34154 0.84004 0.26081 0.0
C1011 C 0.29085 0.87669 0.23327 0.0
C1012 C 0.30813 0.85518 0.23758 0.0
C1013 C 0.37241 0.80434 0.24457 0.0
C1014 C 0.34803 0.81943 0.24343 0.0
H1015 H 0.24378 0.91796 0.25885 0.0
H1016 H 0.26773 0.87815 0.26323 0.0
H1017 H 0.31779 0.8742 0.27122 0.0
H1018 H 0.43831 0.81515 0.24801 0.0
H1019 H 0.39686 0.83928 0.25121 0.0
C1020 C 0.24807 0.40426 0.75066 0.0
C1021 C 0.25346 0.41888 0.73379 0.0
C1022 C 0.26263 0.38171 0.75217 0.0
C1023 C 0.3057 0.33101 0.72187 0.0
H1024 H 0.34483 0.3368 0.7772 0.0
C1025 C 0.3856 0.25627 0.73681 0.0
C1026 C 0.41014 0.26882 0.7405 0.0
C1027 C 0.36252 0.27117 0.73847 0.0
C1028 C 0.3337 0.33474 0.76183 0.0
H1029 H 0.27714 0.42064 0.70456 0.0
H1030 H 0.30219 0.38081 0.70693 0.0
H1031 H 0.30996 0.36854 0.77377 0.0
H1032 H 0.42987 0.30642 0.75004 0.0
H1033 H 0.38947 0.33234 0.75358 0.0
H1034 H 0.33003 0.29769 0.70973 0.0
C1035 C 0.28684 0.38695 0.71903 0.0
C1036 C 0.31376 0.35275 0.75989 0.0
C1037 C 0.27265 0.40977 0.71776 0.0
C1038 C 0.41118 0.2963 0.74703 0.0
C1039 C 0.38812 0.31109 0.74918 0.0
C1040 C 0.32532 0.31269 0.72396 0.0
C1041 C 0.28239 0.37313 0.73656 0.0
C1042 C 0.30016 0.35149 0.73967 0.0
C1043 C 0.36369 0.2987 0.74441 0.0
C1044 C 0.33998 0.31494 0.74373 0.0
H1045 H 0.23343 0.41088 0.76329 0.0
H1046 H 0.25889 0.37131 0.76581 0.0
H1047 H 0.29541 0.3297 0.70615 0.0
H1048 H 0.38431 0.2351 0.73166 0.0
H1049 H 0.34383 0.26129 0.73471 0.0
C1050 C 0.21156 0.75921 0.55002 0.0
C1051 C 0.20592 0.76331 0.52835 0.0
C1052 C 0.19499 0.76937 0.56768 0.0
C1053 C 0.12668 0.7907 0.57861 0.0
H1054 H 0.15292 0.81671 0.63817 0.0
C1055 C 0.056 0.82276 0.65137 0.0
C1056 C 0.06102 0.81088 0.66997 0.0
C1057 C 0.07503 0.8224 0.63485 0.0
C1058 C 0.14535 0.80952 0.62161 0.0
H1059 H 0.17903 0.78201 0.50828 0.0
H1060 H 0.1504 0.80002 0.53912 0.0
H1061 H 0.1839 0.80538 0.60739 0.0
H1062 H 0.09049 0.79109 0.6867 0.0
H1063 H 0.12357 0.79009 0.65774 0.0
H1064 H 0.08822 0.79428 0.59282 0.0
C1065 C 0.16731 0.78854 0.54242 0.0
C1066 C 0.16305 0.80295 0.60402 0.0
C1067 C 0.18377 0.77828 0.52477 0.0
C1068 C 0.08594 0.79999 0.67235 0.0
C1069 C 0.10498 0.79972 0.6559 0.0
C1070 C 0.10902 0.79735 0.59614 0.0
C1071 C 0.17254 0.78393 0.56402 0.0
C1072 C 0.1539 0.79305 0.58241 0.0
C1073 C 0.09947 0.81029 0.63671 0.0
C1074 C 0.11819 0.80639 0.61788 0.0
H1075 H 0.2285 0.74775 0.55329 0.0
H1076 H 0.19936 0.76517 0.58408 0.0
H1077 H 0.11899 0.78274 0.56224 0.0
H1078 H 0.03696 0.83122 0.64905 0.0
H1079 H 0.07037 0.83094 0.62032 0.0
C1080 C 0.15328 0.95236 0.32021 0.0
C1081 C 0.17624 0.95242 0.30733 0.0
C1082 C 0.15136 0.93605 0.33621 0.0
C1083 C 0.19205 0.89937 0.37 0.0
H1084 H 0.13489 0.8488 0.36503 0.0
C1085 C 0.2041 0.80087 0.39802 0.0
C1086 C 0.18425 0.79256 0.41116 0.0
C1087 C 0.20013 0.82245 0.38757 0.0
C1088 C 0.15071 0.8631 0.36686 0.0
H1089 H 0.21506 0.93481 0.30134 0.0
H1090 H 0.21186 0.90739 0.32926 0.0
H1091 H 0.13312 0.88502 0.34388 0.0
H1092 H 0.14423 0.79985 0.42297 0.0
H1093 H 0.13717 0.83744 0.40427 0.0
H1094 H 0.21017 0.87705 0.39222 0.0
C1095 C 0.19548 0.92015 0.32718 0.0
C1096 C 0.14965 0.88381 0.35487 0.0
C1097 C 0.19729 0.93607 0.31112 0.0
C1098 C 0.15986 0.80561 0.41282 0.0
C1099 C 0.15583 0.8272 0.40223 0.0
C1100 C 0.19312 0.87875 0.38191 0.0
C1101 C 0.17252 0.91986 0.3398 0.0
C1102 C 0.17079 0.90151 0.35575 0.0
C1103 C 0.17617 0.83614 0.38995 0.0
C1104 C 0.17293 0.8599 0.37981 0.0
H1105 H 0.13676 0.9648 0.31793 0.0
H1106 H 0.13344 0.93611 0.34579 0.0
H1107 H 0.20839 0.91305 0.37121 0.0
H1108 H 0.22287 0.79088 0.396 0.0
H1109 H 0.21592 0.82856 0.3777 0.0
C1110 C 0.02793 0.696 0.6687 0.0
C1111 C 0.01849 0.69219 0.68948 0.0
C1112 C 0.03851 0.67497 0.65384 0.0
C1113 C 0.03386 0.60337 0.64003 0.0
H1114 H 0.08555 0.61392 0.59576 0.0
C1115 C 0.04017 0.5312 0.55843 0.0
C1116 C 0.03415 0.54476 0.541 0.0
C1117 C 0.04902 0.54503 0.57887 0.0
C1118 C 0.07146 0.61052 0.60825 0.0
H1119 H 0.01378 0.66372 0.71151 0.0
H1120 H 0.03248 0.62704 0.68562 0.0
H1121 H 0.08007 0.64738 0.62916 0.0
H1122 H 0.03508 0.58272 0.53038 0.0
H1123 H 0.05045 0.60678 0.56593 0.0
H1124 H 0.02425 0.56724 0.61862 0.0
C1125 C 0.03128 0.64615 0.68063 0.0
C1126 C 0.06816 0.62971 0.62724 0.0
C1127 C 0.02047 0.66714 0.69541 0.0
C1128 C 0.0392 0.57187 0.54367 0.0
C1129 C 0.04836 0.58558 0.56394 0.0
C1130 C 0.0373 0.58413 0.62115 0.0
C1131 C 0.04009 0.64976 0.65957 0.0
C1132 C 0.0483 0.62697 0.64267 0.0
C1133 C 0.05236 0.57247 0.58199 0.0
C1134 C 0.05509 0.58823 0.60453 0.0
H1135 H 0.0268 0.71514 0.66375 0.0
H1136 H 0.0446 0.67833 0.63757 0.0
H1137 H 0.01831 0.60065 0.65152 0.0
H1138 H 0.03663 0.51021 0.55669 0.0
H1139 H 0.05202 0.53452 0.59256 0.0
C1140 C 0.31373 0.68237 0.42791 0.0
C1141 C 0.29522 0.70143 0.42442 0.0
C1142 C 0.32925 0.66985 0.41041 0.0
C1143 C 0.37224 0.66252 0.37614 0.0
H1144 H 0.34903 0.65176 0.31465 0.0
C1145 C 0.43976 0.6744 0.30494 0.0
C1146 C 0.43519 0.66033 0.28342 0.0
C1147 C 0.42359 0.67076 0.3225 0.0
C1148 C 0.35576 0.65399 0.33173 0.0
H1149 H 0.27793 0.72195 0.39987 0.0
H1150 H 0.3059 0.70098 0.36943 0.0
H1151 H 0.31683 0.66156 0.34443 0.0
H1152 H 0.41138 0.6301 0.26357 0.0
H1153 H 0.38295 0.62349 0.29451 0.0
H1154 H 0.41116 0.65519 0.36345 0.0
C1155 C 0.30795 0.69511 0.38553 0.0
C1156 C 0.33735 0.66006 0.3488 0.0
C1157 C 0.29211 0.70736 0.403 0.0
C1158 C 0.41526 0.64118 0.28005 0.0
C1159 C 0.39892 0.63756 0.29768 0.0
C1160 C 0.39059 0.65621 0.3591 0.0
C1161 C 0.3269 0.6764 0.3891 0.0
C1162 C 0.34553 0.66546 0.37116 0.0
C1163 C 0.40248 0.65291 0.31894 0.0
C1164 C 0.38268 0.65305 0.33672 0.0
H1165 H 0.31621 0.67704 0.44419 0.0
H1166 H 0.34328 0.6552 0.41365 0.0
H1167 H 0.37932 0.66662 0.39315 0.0
H1168 H 0.45528 0.68897 0.30801 0.0
H1169 H 0.42675 0.68313 0.33858 0.0
C1170 C 0.31763 0.06744 0.17607 0.0
C1171 C 0.31122 0.04291 0.1631 0.0
C1172 C 0.32644 0.08816 0.16597 0.0
C1173 C 0.34913 0.10422 0.11178 0.0
H1174 H 0.31039 0.16897 0.13074 0.0
C1175 C 0.34525 0.18367 0.05685 0.0
C1176 C 0.31973 0.1928 0.05361 0.0
C1177 C 0.35045 0.16987 0.07412 0.0
C1178 C 0.32145 0.15106 0.12528 0.0
H1179 H 0.31008 0.02069 0.12941 0.0
H1180 H 0.32508 0.05657 0.11189 0.0
H1181 H 0.30935 0.13469 0.15346 0.0
H1182 H 0.28015 0.19608 0.06699 0.0
H1183 H 0.28888 0.17118 0.09637 0.0
H1184 H 0.35948 0.11965 0.08272 0.0
C1185 C 0.32383 0.05981 0.12989 0.0
C1186 C 0.32116 0.13153 0.13847 0.0
C1187 C 0.31511 0.03916 0.13996 0.0
C1188 C 0.29987 0.18885 0.06866 0.0
C1189 C 0.30502 0.17494 0.08581 0.0
C1190 C 0.34923 0.12364 0.0985 0.0
C1191 C 0.329 0.08474 0.1427 0.0
C1192 C 0.33411 0.10745 0.13139 0.0
C1193 C 0.33025 0.16481 0.08848 0.0
C1194 C 0.33451 0.14684 0.10466 0.0
H1195 H 0.31532 0.07079 0.19398 0.0
H1196 H 0.33061 0.10703 0.17632 0.0
H1197 H 0.35974 0.08609 0.1061 0.0
H1198 H 0.36104 0.1863 0.04559 0.0
H1199 H 0.37017 0.16261 0.07588 0.0
C1200 C 0.78124 0.73304 0.92879 0.0
C1201 C 0.7892 0.72643 0.94916 0.0
C1202 C 0.79703 0.72654 0.90988 0.0
C1203 C 0.86589 0.71113 0.89431 0.0
H1204 H 0.8372 0.68813 0.83511 0.0
C1205 C 0.93345 0.68179 0.81927 0.0
C1206 C 0.92791 0.69409 0.801 0.0
C1207 C 0.91503 0.68212 0.83622 0.0
C1208 C 0.84542 0.69459 0.85156 0.0
H1209 H 0.81939 0.70699 0.96554 0.0
H1210 H 0.84653 0.69528 0.93259 0.0
H1211 H 0.80765 0.6961 0.86721 0.0
H1212 H 0.89806 0.71471 0.78538 0.0
H1213 H 0.86599 0.71563 0.81519 0.0
H1214 H 0.90356 0.70985 0.87877 0.0
C1215 C 0.82848 0.70602 0.93128 0.0
C1216 C 0.82854 0.69924 0.8699 0.0
C1217 C 0.81286 0.71266 0.95015 0.0
C1218 C 0.90304 0.70547 0.79945 0.0
C1219 C 0.88457 0.70574 0.81638 0.0
C1220 C 0.88271 0.70637 0.87606 0.0
C1221 C 0.82096 0.7132 0.91101 0.0
C1222 C 0.83863 0.70765 0.89146 0.0
C1223 C 0.89068 0.69468 0.8352 0.0
C1224 C 0.87267 0.69815 0.8545 0.0
H1225 H 0.76308 0.74364 0.92754 0.0
H1226 H 0.79082 0.73257 0.89455 0.0
H1227 H 0.87425 0.71814 0.91062 0.0
H1228 H 0.95244 0.67295 0.82101 0.0
H1229 H 0.92009 0.67315 0.85044 0.0
C1230 C 0.28193 0.56647 0.67226 0.0
C1231 C 0.29563 0.54279 0.67199 0.0
C1232 C 0.28881 0.58334 0.65768 0.0
C1233 C 0.31631 0.62144 0.63262 0.0
H1234 H 0.32223 0.59034 0.57012 0.0
C1235 C 0.33218 0.68391 0.56376 0.0
C1236 C 0.3139 0.67835 0.54628 0.0
C1237 C 0.33479 0.66693 0.57915 0.0
C1238 C 0.32081 0.59925 0.58754 0.0
H1239 H 0.32734 0.51824 0.65636 0.0
H1240 H 0.33935 0.54777 0.63071 0.0
H1241 H 0.31757 0.56183 0.59787 0.0
H1242 H 0.28493 0.65024 0.53053 0.0
H1243 H 0.28937 0.6207 0.55735 0.0
H1244 H 0.31854 0.65889 0.62218 0.0
C1245 C 0.32331 0.55322 0.64226 0.0
C1246 C 0.31835 0.58297 0.60342 0.0
C1247 C 0.31655 0.53644 0.65699 0.0
C1248 C 0.29888 0.65517 0.54405 0.0
C1249 C 0.30168 0.63812 0.55922 0.0
C1250 C 0.31896 0.63773 0.61675 0.0
C1251 C 0.30944 0.57679 0.64244 0.0
C1252 C 0.3154 0.59393 0.62604 0.0
C1253 C 0.31942 0.64396 0.57706 0.0
C1254 C 0.32054 0.62678 0.59402 0.0
H1255 H 0.26597 0.57206 0.68385 0.0
H1256 H 0.27758 0.60123 0.658 0.0
H1257 H 0.31436 0.63037 0.65 0.0
H1258 H 0.34391 0.7017 0.56583 0.0
H1259 H 0.34866 0.67182 0.59274 0.0
C1260 C 0.28015 0.01873 0.29819 0.0
C1261 C 0.2856 0.02021 0.27587 0.0
C1262 C 0.30004 0.02309 0.3142 0.0
C1263 C 0.34924 0.01164 0.33863 0.0
H1264 H 0.40509 0.06283 0.33842 0.0
C1265 C 0.44735 0.00323 0.38336 0.0
C1266 C 0.45824 0.02651 0.39535 0.0
C1267 C 0.42587 0.00425 0.3693 0.0
C1268 C 0.38952 0.04859 0.33884 0.0
H1269 H 0.31579 0.02875 0.25304 0.0
H1270 H 0.3505 0.03591 0.28086 0.0
H1271 H 0.36701 0.06365 0.31422 0.0
H1272 H 0.45517 0.06914 0.40196 0.0
H1273 H 0.41767 0.07092 0.37747 0.0
H1274 H 0.37155 -0.00327 0.36338 0.0
C1275 C 0.33085 0.03167 0.28608 0.0
C1276 C 0.36783 0.04892 0.32485 0.0
C1277 C 0.31097 0.0274 0.2701 0.0
C1278 C 0.44751 0.05087 0.39268 0.0
C1279 C 0.42597 0.05189 0.37868 0.0
C1280 C 0.37087 0.01134 0.35264 0.0
C1281 C 0.32575 0.02895 0.30819 0.0
C1282 C 0.34761 0.03025 0.32441 0.0
C1283 C 0.41477 0.02858 0.36701 0.0
C1284 C 0.3914 0.02959 0.35268 0.0
H1285 H 0.26073 0.01341 0.30318 0.0
H1286 H 0.29543 0.0213 0.3312 0.0
H1287 H 0.33416 -0.00323 0.33849 0.0
H1288 H 0.45544 0.98422 0.38486 0.0
H1289 H 0.41799 0.98596 0.36017 0.0
C1290 C 0.79341 0.82745 0.02997 0.0
C1291 C 0.77229 0.81994 0.01542 0.0
C1292 C 0.80243 0.85335 0.03374 0.0
C1293 C 0.80837 0.90869 0.00526 0.0
H1294 H 0.84068 0.94009 0.06133 0.0
C1295 C 0.89081 0.9848 0.00827 0.0
C1296 C 0.91359 0.97468 0.01672 0.0
C1297 C 0.86612 0.97461 0.01222 0.0
C1298 C 0.83135 0.93188 0.04566 0.0
H1299 H 0.7434 0.83383 -0.00604 0.0
H1300 H 0.75954 0.87923 0.00036 0.0
H1301 H 0.80897 0.90434 0.06042 0.0
H1302 H 0.92847 0.94762 0.03722 0.0
H1303 H 0.8856 0.93003 0.0442 0.0
H1304 H 0.8321 0.93496 0.99026 0.0
C1305 C 0.76902 0.86499 0.00884 0.0
C1306 C 0.81332 0.9114 0.04512 0.0
C1307 C 0.75987 0.83903 0.00516 0.0
C1308 C 0.91123 0.95557 0.03033 0.0
C1309 C 0.88663 0.94574 0.03456 0.0
C1310 C 0.82635 0.92925 0.00583 0.0
C1311 C 0.79058 0.87232 0.023 0.0
C1312 C 0.80294 0.89857 0.0247 0.0
C1313 C 0.86393 0.9546 0.02503 0.0
C1314 C 0.83915 0.93987 0.02581 0.0
H1315 H 0.8033 0.81324 0.03822 0.0
H1316 H 0.81944 0.85824 0.04438 0.0
H1317 H 0.80071 0.89918 0.98928 0.0
H1318 H 0.89216 -0.00036 -0.00223 0.0
H1319 H 0.84889 0.98168 0.00466 0.0
C1320 C 0.72542 0.18395 0.52464 0.0
C1321 C 0.71192 0.20758 0.5241 0.0
C1322 C 0.71267 0.15968 0.5185 0.0
C1323 C 0.67782 0.11092 0.51446 0.0
H1324 H 0.62421 0.10671 0.46878 0.0
C1325 C 0.59944 0.02894 0.49999 0.0
C1326 C 0.58692 0.02297 0.47917 0.0
C1327 C 0.61901 0.04824 0.50376 0.0
C1328 C 0.63948 0.10717 0.48122 0.0
H1329 H 0.67424 0.22447 0.51784 0.0
H1330 H 0.65175 0.18245 0.50815 0.0
H1331 H 0.64948 0.14672 0.47882 0.0
H1332 H 0.58676 0.03055 0.44536 0.0
H1333 H 0.62193 0.06312 0.45149 0.0
H1334 H 0.66834 0.07091 0.51625 0.0
C1335 C 0.67242 0.1824 0.51238 0.0
C1336 C 0.65365 0.13047 0.48735 0.0
C1337 C 0.68524 0.20656 0.51816 0.0
C1338 C 0.59588 0.03499 0.46166 0.0
C1339 C 0.61586 0.05388 0.46528 0.0
C1340 C 0.66388 0.08738 0.50806 0.0
C1341 C 0.68608 0.1586 0.51198 0.0
C1342 C 0.67254 0.13293 0.50444 0.0
C1343 C 0.62684 0.06166 0.48665 0.0
C1344 C 0.64411 0.08536 0.49166 0.0
H1345 H 0.74606 0.18417 0.52907 0.0
H1346 H 0.72389 0.1418 0.51825 0.0
H1347 H 0.69218 0.11205 0.52771 0.0
H1348 H 0.59287 0.02007 0.51386 0.0
H1349 H 0.62673 0.05371 0.52048 0.0
C1350 C 0.80025 0.42087 0.23051 0.0
C1351 C 0.78744 0.43086 0.25056 0.0
C1352 C 0.81141 0.39591 0.22715 0.0
C1353 C 0.81668 0.33332 0.24933 0.0
H1354 H 0.88471 0.33154 0.22054 0.0
C1355 C 0.90291 0.26188 0.25636 0.0
C1356 C 0.92015 0.25681 0.23811 0.0
C1357 C 0.88018 0.27677 0.25511 0.0
C1358 C 0.86549 0.33142 0.22815 0.0
H1359 H 0.77523 0.42232 0.28253 0.0
H1360 H 0.79621 0.37881 0.27718 0.0
H1361 H 0.85875 0.37119 0.22483 0.0
H1362 H 0.92526 0.25957 0.20334 0.0
H1363 H 0.88527 0.28491 0.201 0.0
H1364 H 0.82465 0.29358 0.25366 0.0
C1365 C 0.79703 0.39011 0.26382 0.0
C1366 C 0.85054 0.35426 0.23066 0.0
C1367 C 0.78524 0.41506 0.267 0.0
C1368 C 0.91249 0.26358 0.21775 0.0
C1369 C 0.88967 0.27815 0.21644 0.0
C1370 C 0.83193 0.31036 0.24702 0.0
C1371 C 0.81071 0.38051 0.24399 0.0
C1372 C 0.82592 0.35557 0.24121 0.0
C1373 C 0.87438 0.28649 0.23555 0.0
C1374 C 0.85647 0.30924 0.23634 0.0
H1375 H 0.80163 0.43238 0.21731 0.0
H1376 H 0.82101 0.38885 0.21139 0.0
H1377 H 0.79774 0.33365 0.25745 0.0
H1378 H 0.90831 0.25683 0.27227 0.0
H1379 H 0.86871 0.28285 0.27009 0.0
C1380 C 0.06948 0.53411 0.44227 0.0
C1381 C 0.06578 0.51451 0.45525 0.0
C1382 C 0.09476 0.54255 0.43821 0.0
C1383 C 0.15408 0.55415 0.46939 0.0
H1384 H 0.17615 0.58436 0.41854 0.0
C1385 C 0.19599 0.65738 0.45314 0.0
C1386 C 0.21697 0.66239 0.46828 0.0
C1387 C 0.18478 0.63244 0.44818 0.0
C1388 C 0.17042 0.57586 0.43284 0.0
H1389 H 0.08552 0.4866 0.47243 0.0
H1390 H 0.1298 0.50185 0.46568 0.0
H1391 H 0.14267 0.54985 0.41376 0.0
H1392 H 0.24287 0.64501 0.48998 0.0
H1393 H 0.22284 0.60111 0.48144 0.0
H1394 H 0.18011 0.58163 0.48886 0.0
C1395 C 0.11315 0.51054 0.4586 0.0
C1396 C 0.15139 0.55604 0.43005 0.0
C1397 C 0.08783 0.5018 0.46238 0.0
C1398 C 0.22661 0.64177 0.47833 0.0
C1399 C 0.21524 0.61666 0.4734 0.0
C1400 C 0.17298 0.57411 0.47221 0.0
C1401 C 0.11674 0.53175 0.4473 0.0
C1402 C 0.14206 0.54603 0.44853 0.0
C1403 C 0.19421 0.61178 0.45823 0.0
C1404 C 0.18021 0.58616 0.45419 0.0
H1405 H 0.05282 0.54411 0.43647 0.0
H1406 H 0.09689 0.55909 0.42959 0.0
H1407 H 0.14713 0.54691 0.48397 0.0
H1408 H 0.18807 0.67279 0.44507 0.0
H1409 H 0.16815 0.62957 0.43689 0.0
C1410 C 0.68254 0.0609 0.7551 0.0
C1411 C 0.70982 0.06228 0.75194 0.0
C1412 C 0.66581 0.07878 0.74756 0.0
C1413 C 0.65634 0.14279 0.73597 0.0
H1414 H 0.60458 0.10974 0.69314 0.0
C1415 C 0.56774 0.20081 0.71042 0.0
C1416 C 0.54365 0.1879 0.71207 0.0
C1417 C 0.59144 0.18705 0.71039 0.0
C1418 C 0.61892 0.11931 0.70504 0.0
H1419 H 0.74108 0.08444 0.73952 0.0
H1420 H 0.71145 0.11645 0.72689 0.0
H1421 H 0.64027 0.08346 0.70456 0.0
H1422 H 0.52541 0.15025 0.71371 0.0
H1423 H 0.56641 0.12648 0.71387 0.0
H1424 H 0.63399 0.17825 0.73772 0.0
C1425 C 0.70329 0.10113 0.73493 0.0
C1426 C 0.63935 0.1043 0.71146 0.0
C1427 C 0.72013 0.0829 0.74218 0.0
C1428 C 0.54364 0.16078 0.71249 0.0
C1429 C 0.56721 0.14708 0.71239 0.0
C1430 C 0.63564 0.15782 0.72975 0.0
C1431 C 0.676 0.09865 0.73703 0.0
C1432 C 0.65766 0.11574 0.7275 0.0
C1433 C 0.59141 0.16014 0.71184 0.0
C1434 C 0.61616 0.14595 0.71484 0.0
H1435 H 0.67392 0.04528 0.76252 0.0
H1436 H 0.64478 0.07676 0.74953 0.0
H1437 H 0.67031 0.1519 0.74842 0.0
H1438 H 0.56834 0.22174 0.71007 0.0
H1439 H 0.60978 0.19758 0.70975 0.0
C1440 C 0.84902 0.54727 0.17216 0.0
C1441 C 0.82853 0.5533 0.18764 0.0
C1442 C 0.85496 0.56429 0.15739 0.0
C1443 C 0.846 0.63257 0.1484 0.0
H1444 H 0.84597 0.60223 0.08552 0.0
C1445 C 0.8131 0.66648 0.06335 0.0
C1446 C 0.82578 0.69093 0.06502 0.0
C1447 C 0.82021 0.64901 0.07732 0.0
C1448 C 0.84629 0.61093 0.10303 0.0
H1449 H 0.79895 0.58222 0.20046 0.0
H1450 H 0.80914 0.61179 0.17465 0.0
H1451 H 0.846 0.57327 0.1132 0.0
H1452 H 0.85626 0.71608 0.08217 0.0
H1453 H 0.86864 0.68549 0.10688 0.0
H1454 H 0.84492 0.67019 0.13829 0.0
C1455 C 0.82066 0.59399 0.17392 0.0
C1456 C 0.84652 0.5944 0.11884 0.0
C1457 C 0.81456 0.5769 0.18847 0.0
C1458 C 0.84624 0.69731 0.08052 0.0
C1459 C 0.85323 0.6799 0.09468 0.0
C1460 C 0.84593 0.64909 0.13261 0.0
C1461 C 0.84076 0.58777 0.15813 0.0
C1462 C 0.84543 0.60509 0.14164 0.0
C1463 C 0.84006 0.65571 0.09336 0.0
C1464 C 0.84514 0.6384 0.10979 0.0
H1465 H 0.86001 0.52914 0.17118 0.0
H1466 H 0.87055 0.55908 0.14534 0.0
H1467 H 0.84546 0.64127 0.16591 0.0
H1468 H 0.79755 0.66089 0.0513 0.0
H1469 H 0.80949 0.63065 0.07611 0.0
C1470 C 0.93991 0.604 0.42935 0.0
C1471 C 0.93505 0.5978 0.45046 0.0
C1472 C 0.91926 0.60427 0.41426 0.0
C1473 C 0.85704 0.56944 0.40282 0.0
H1474 H 0.85407 0.6063 0.35273 0.0
C1475 C 0.78557 0.53755 0.33005 0.0
C1476 C 0.79653 0.53555 0.30869 0.0
C1477 C 0.79924 0.55029 0.34874 0.0
C1478 C 0.8547 0.59585 0.36664 0.0
H1479 H 0.90493 0.59021 0.47346 0.0
H1480 H 0.8686 0.59166 0.44748 0.0
H1481 H 0.88312 0.6225 0.38418 0.0
H1482 H 0.83027 0.54564 0.29013 0.0
H1483 H 0.85436 0.5674 0.32282 0.0
H1484 H 0.82945 0.54231 0.38511 0.0
C1485 C 0.88836 0.59542 0.44222 0.0
C1486 C 0.87125 0.60516 0.38465 0.0
C1487 C 0.90903 0.5948 0.45715 0.0
C1488 C 0.82132 0.5468 0.30637 0.0
C1489 C 0.835 0.55952 0.32508 0.0
C1490 C 0.84052 0.56022 0.38492 0.0
C1491 C 0.89344 0.59858 0.42019 0.0
C1492 C 0.87301 0.59171 0.40273 0.0
C1493 C 0.82418 0.56125 0.34647 0.0
C1494 C 0.83959 0.57296 0.36642 0.0
H1495 H 0.95987 0.60614 0.42379 0.0
H1496 H 0.92391 0.60667 0.39742 0.0
H1497 H 0.8583 0.55819 0.41619 0.0
H1498 H 0.7664 0.52929 0.33238 0.0
H1499 H 0.79029 0.55153 0.36499 0.0
C1500 C 0.19125 0.46507 0.66089 0.0
C1501 C 0.17972 0.46485 0.68178 0.0
C1502 C 0.17753 0.45556 0.64136 0.0
C1503 C 0.12106 0.41472 0.61808 0.0
H1504 H 0.12393 0.45889 0.57288 0.0
C1505 C 0.04605 0.41182 0.54642 0.0
C1506 C 0.05475 0.41953 0.52669 0.0
C1507 C 0.06363 0.41106 0.56391 0.0
C1508 C 0.12334 0.44594 0.58506 0.0
H1509 H 0.14491 0.45399 0.69857 0.0
H1510 H 0.1206 0.43775 0.66423 0.0
H1511 H 0.1494 0.47086 0.60673 0.0
H1512 H 0.08873 0.42957 0.50867 0.0
H1513 H 0.11973 0.4274 0.5389 0.0
H1514 H 0.09437 0.39012 0.59639 0.0
C1515 C 0.14044 0.44501 0.66307 0.0
C1516 C 0.13788 0.45291 0.60455 0.0
C1517 C 0.15426 0.45451 0.68271 0.0
C1518 C 0.08164 0.42384 0.52386 0.0
C1519 C 0.09926 0.42278 0.5412 0.0
C1520 C 0.10646 0.40769 0.59846 0.0
C1521 C 0.15188 0.44571 0.64221 0.0
C1522 C 0.13683 0.43749 0.62133 0.0
C1523 C 0.09019 0.41781 0.56183 0.0
C1524 C 0.10736 0.42334 0.58179 0.0
H1525 H 0.21095 0.47262 0.65956 0.0
H1526 H 0.18702 0.45597 0.62554 0.0
H1527 H 0.12008 0.40233 0.63066 0.0
H1528 H 0.02534 0.40864 0.54904 0.0
H1529 H 0.05598 0.40725 0.5796 0.0
C1530 C 0.58506 0.82028 0.20308 0.0
C1531 C 0.56111 0.82433 0.19266 0.0
C1532 C 0.60886 0.82222 0.19211 0.0
C1533 C 0.64628 0.79895 0.15566 0.0
H1534 H 0.65898 0.84106 0.11001 0.0
C1535 C 0.6828 0.78125 0.06038 0.0
C1536 C 0.70667 0.76784 0.06134 0.0
C1537 C 0.67048 0.79344 0.07987 0.0
C1538 C 0.65578 0.82924 0.12279 0.0
H1539 H 0.54361 0.8367 0.16373 0.0
H1540 H 0.58476 0.83996 0.14467 0.0
H1541 H 0.62845 0.85693 0.14026 0.0
H1542 H 0.73622 0.75642 0.08351 0.0
H1543 H 0.71429 0.77743 0.11769 0.0
H1544 H 0.67258 0.77067 0.1376 0.0
C1545 C 0.58537 0.83533 0.16131 0.0
C1546 C 0.6384 0.83834 0.14011 0.0
C1547 C 0.56162 0.83339 0.17226 0.0
C1548 C 0.71776 0.76651 0.08224 0.0
C1549 C 0.70531 0.77859 0.10179 0.0
C1550 C 0.66373 0.78991 0.13839 0.0
C1551 C 0.60908 0.82832 0.17056 0.0
C1552 C 0.63253 0.8227 0.15613 0.0
C1553 C 0.68168 0.79238 0.10075 0.0
C1554 C 0.66769 0.80441 0.12126 0.0
H1555 H 0.5853 0.814 0.2191 0.0
H1556 H 0.6269 0.81729 0.19987 0.0
H1557 H 0.64201 0.78624 0.16757 0.0
H1558 H 0.67376 0.7827 0.04455 0.0
H1559 H 0.65196 0.80341 0.07859 0.0
C1560 C 0.69099 0.45713 0.20343 0.0
C1561 C 0.71333 0.47232 0.20082 0.0
C1562 C 0.67445 0.4484 0.1854 0.0
C1563 C 0.66943 0.43995 0.12388 0.0
H1564 H 0.59486 0.44875 0.13617 0.0
C1565 C 0.59188 0.4475 0.05663 0.0
C1566 C 0.56773 0.43457 0.05779 0.0
C1567 C 0.61053 0.44816 0.07348 0.0
C1568 C 0.61559 0.44576 0.13252 0.0
H1569 H 0.73635 0.48962 0.17718 0.0
H1570 H 0.70707 0.47491 0.14576 0.0
H1571 H 0.62622 0.45704 0.16674 0.0
H1572 H 0.54431 0.41185 0.07724 0.0
H1573 H 0.57701 0.41302 0.10684 0.0
H1574 H 0.65864 0.42954 0.08949 0.0
C1575 C 0.70258 0.46934 0.16165 0.0
C1576 C 0.63358 0.45047 0.15003 0.0
C1577 C 0.71928 0.47791 0.17967 0.0
C1578 C 0.5628 0.42186 0.07591 0.0
C1579 C 0.5814 0.42268 0.09288 0.0
C1580 C 0.65141 0.43538 0.10634 0.0
C1581 C 0.67975 0.45486 0.16442 0.0
C1582 C 0.66072 0.44792 0.14589 0.0
C1583 C 0.60535 0.43601 0.09188 0.0
C1584 C 0.62435 0.43856 0.11049 0.0
H1585 H 0.68606 0.45225 0.21949 0.0
H1586 H 0.6573 0.43684 0.18798 0.0
H1587 H 0.69019 0.43742 0.12019 0.0
H1588 H 0.59638 0.45711 0.04268 0.0
H1589 H 0.62872 0.45879 0.07238 0.0
C1590 C 0.41609 0.45529 0.96738 0.0
C1591 C 0.43514 0.45181 0.98333 0.0
C1592 C 0.39116 0.44398 0.96784 0.0
C1593 C 0.35177 0.39872 0.96303 0.0
H1594 H 0.31763 0.39035 0.01816 0.0
C1595 C 0.29787 0.31169 -0.00213 0.0
C1596 C 0.27923 0.3029 0.98123 0.0
C1597 C 0.31017 0.33599 -0.00116 0.0
C1598 C 0.32677 0.39272 0.00261 0.0
H1599 H 0.44262 0.43493 0.01289 0.0
H1600 H 0.39938 0.41511 0.01359 0.0
H1601 H 0.35209 0.42345 0.01872 0.0
H1602 H 0.25815 0.31298 0.95296 0.0
H1603 H 0.28023 0.35553 0.95442 0.0
H1604 H 0.32741 0.36706 0.9471 0.0
C1605 C 0.40352 0.42673 0.00084 0.0
C1606 C 0.34649 0.4116 0.00293 0.0
C1607 C 0.42841 0.43787 0.00031 0.0
C1608 C 0.27252 0.31926 0.96593 0.0
C1609 C 0.28512 0.34355 0.96675 0.0
C1610 C 0.33199 0.37986 0.9627 0.0
C1611 C 0.3848 0.42919 0.98436 0.0
C1612 C 0.36001 0.41393 0.9833 0.0
C1613 C 0.30427 0.35197 0.98309 0.0
C1614 C 0.32018 0.3759 0.98265 0.0
H1615 H 0.42067 0.46605 0.95413 0.0
H1616 H 0.37706 0.4463 0.95501 0.0
H1617 H 0.36192 0.39994 0.94764 0.0
H1618 H 0.30335 0.2996 0.00997 0.0
H1619 H 0.32516 0.34175 0.0114 0.0
C1620 C 0.08849 0.23869 0.24639 0.0
C1621 C 0.07195 0.24133 0.26511 0.0
C1622 C 0.11136 0.22358 0.24552 0.0
C1623 C 0.13041 0.16583 0.26828 0.0
H1624 H 0.19306 0.1668 0.23225 0.0
C1625 C 0.199 0.07863 0.25685 0.0
C1626 C 0.20639 0.06806 0.23494 0.0
C1627 C 0.18843 0.10377 0.26197 0.0
C1628 C 0.17558 0.16632 0.2423 0.0
H1629 H 0.0683 0.23385 0.29881 0.0
H1630 H 0.10885 0.20855 0.29772 0.0
H1631 H 0.16544 0.20636 0.24065 0.0
H1632 H 0.21021 0.076 0.20141 0.0
H1633 H 0.19042 0.12021 0.21025 0.0
H1634 H 0.1397 0.12589 0.26945 0.0
C1635 C 0.10359 0.21708 0.28332 0.0
C1636 C 0.15987 0.18894 0.24719 0.0
C1637 C 0.08048 0.23175 0.28404 0.0
C1638 C 0.20438 0.08372 0.21838 0.0
C1639 C 0.19327 0.10898 0.22348 0.0
C1640 C 0.14598 0.14346 0.26345 0.0
C1641 C 0.11821 0.21123 0.26349 0.0
C1642 C 0.13702 0.18886 0.2602 0.0
C1643 C 0.18444 0.11885 0.24524 0.0
C1644 C 0.16871 0.14335 0.2504 0.0
H1645 H 0.08248 0.24595 0.23154 0.0
H1646 H 0.12218 0.21958 0.23001 0.0
H1647 H 0.11251 0.16462 0.27764 0.0
H1648 H 0.20101 0.06724 0.27009 0.0
H1649 H 0.18254 0.11109 0.27901 0.0
C1650 C 0.19015 0.30723 0.91475 0.0
C1651 C 0.17554 0.28381 0.91298 0.0
C1652 C 0.18269 0.32683 0.90296 0.0
C1653 C 0.14631 0.33782 0.85369 0.0
H1654 H 0.15399 0.41117 0.8814 0.0
C1655 C 0.13116 0.42261 0.80456 0.0
C1656 C 0.15254 0.44014 0.80647 0.0
C1657 C 0.12854 0.40489 0.81933 0.0
C1658 C 0.15167 0.39077 0.87348 0.0
H1659 H 0.1417 0.26258 0.89733 0.0
H1660 H 0.1285 0.29708 0.87671 0.0
H1661 H 0.15971 0.37673 0.90374 0.0
H1662 H 0.18698 0.45403 0.82596 0.0
H1663 H 0.18249 0.42318 0.85171 0.0
H1664 H 0.13902 0.3519 0.82327 0.0
C1665 C 0.1458 0.30011 0.88722 0.0
C1666 C 0.15501 0.37107 0.88622 0.0
C1667 C 0.15326 0.28046 0.8991 0.0
C1668 C 0.17049 0.44053 0.82401 0.0
C1669 C 0.16775 0.42305 0.83886 0.0
C1670 C 0.1429 0.35756 0.84093 0.0
C1671 C 0.16041 0.32356 0.88913 0.0
C1672 C 0.15318 0.34437 0.87631 0.0
C1673 C 0.14707 0.40468 0.8364 0.0
C1674 C 0.14632 0.38418 0.85058 0.0
H1675 H 0.20716 0.31069 0.92554 0.0
H1676 H 0.19462 0.34448 0.90451 0.0
H1677 H 0.14493 0.31742 0.84556 0.0
H1678 H 0.11715 0.42182 0.79109 0.0
H1679 H 0.11234 0.39101 0.81714 0.0
C1680 C 0.31868 0.19253 0.92818 0.0
C1681 C 0.29307 0.20121 0.92478 0.0
C1682 C 0.33389 0.1807 0.91019 0.0
C1683 C 0.33074 0.14731 0.85175 0.0
H1684 H 0.40071 0.1761 0.8484 0.0
C1685 C 0.38878 0.14236 0.77035 0.0
C1686 C 0.41619 0.14442 0.77161 0.0
C1687 C 0.37412 0.14173 0.78959 0.0
C1688 C 0.38153 0.16721 0.84924 0.0
H1689 H 0.26314 0.20394 0.8999 0.0
H1690 H 0.28993 0.18339 0.86838 0.0
H1691 H 0.37414 0.19055 0.88118 0.0
H1692 H 0.4502 0.14498 0.79285 0.0
H1693 H 0.42486 0.14232 0.8264 0.0
H1694 H 0.33804 0.12424 0.81955 0.0
C1695 C 0.29807 0.18557 0.88503 0.0
C1696 C 0.36623 0.17568 0.86803 0.0
C1697 C 0.28287 0.19758 0.90303 0.0
C1698 C 0.42899 0.14334 0.79174 0.0
C1699 C 0.41445 0.14215 0.81087 0.0
C1700 C 0.34618 0.1386 0.83295 0.0
C1701 C 0.32377 0.17718 0.88845 0.0
C1702 C 0.34054 0.16621 0.8693 0.0
C1703 C 0.38681 0.14288 0.81028 0.0
C1704 C 0.37159 0.14885 0.83131 0.0
H1705 H 0.32706 0.19492 0.94476 0.0
H1706 H 0.35361 0.17427 0.91329 0.0
H1707 H 0.31105 0.13948 0.85247 0.0
H1708 H 0.37871 0.14356 0.7549 0.0
H1709 H 0.3529 0.14249 0.78849 0.0
C1710 C 0.43026 0.5431 0.90483 0.0
C1711 C 0.4456 0.52019 0.903 0.0
C1712 C 0.40742 0.54321 0.89213 0.0
C1713 C 0.3773 0.51158 0.84043 0.0
H1714 H 0.31082 0.53606 0.86772 0.0
C1715 C 0.28963 0.52807 0.78739 0.0
C1716 C 0.26721 0.51321 0.79049 0.0
C1717 C 0.30959 0.53164 0.8032 0.0
C1718 C 0.32928 0.52917 0.85999 0.0
H1719 H 0.44961 0.47973 0.88632 0.0
H1720 H 0.40993 0.48004 0.86368 0.0
H1721 H 0.35038 0.53636 0.89098 0.0
H1722 H 0.24708 0.49221 0.81336 0.0
H1723 H 0.28239 0.49865 0.84135 0.0
H1724 H 0.3565 0.50454 0.8095 0.0
C1725 C 0.41545 0.49779 0.87507 0.0
C1726 C 0.35183 0.52949 0.87318 0.0
C1727 C 0.43804 0.49758 0.88799 0.0
C1728 C 0.2642 0.5037 0.81056 0.0
C1729 C 0.28432 0.50738 0.82652 0.0
C1730 C 0.35495 0.51161 0.82727 0.0
C1731 C 0.39985 0.52053 0.87718 0.0
C1732 C 0.37598 0.52061 0.86346 0.0
C1733 C 0.30755 0.52052 0.82248 0.0
C1734 C 0.33079 0.52045 0.83691 0.0
H1735 H 0.43551 0.56066 0.91653 0.0
H1736 H 0.39577 0.56103 0.89387 0.0
H1737 H 0.39571 0.50476 0.83256 0.0
H1738 H 0.29233 0.53603 0.77225 0.0
H1739 H 0.32716 0.54224 0.79993 0.0
C1740 C 0.70207 0.66257 0.97797 0.0
C1741 C 0.72038 0.67081 -0.00498 0.0
C1742 C 0.6923 0.63692 0.9744 0.0
C1743 C 0.6835 0.57794 0.96416 0.0
H1744 H 0.64918 0.55838 0.01556 0.0
C1745 C 0.60181 0.49975 0.98994 0.0
C1746 C 0.58293 0.50282 0.97374 0.0
C1747 C 0.62553 0.51367 0.99115 0.0
C1748 C 0.65923 0.56303 0.0011 0.0
H1749 H 0.74325 0.65859 0.02147 0.0
H1750 H 0.72548 0.61367 0.01552 0.0
H1751 H 0.67895 0.59597 0.02056 0.0
H1752 H 0.57483 0.52138 0.94518 0.0
H1753 H 0.61576 0.54578 0.94746 0.0
H1754 H 0.66298 0.54569 0.94456 0.0
C1755 C 0.71898 0.62711 0.00484 0.0
C1756 C 0.67625 0.58463 0.00399 0.0
C1757 C 0.72909 0.65275 0.00822 0.0
C1758 C 0.58891 0.51869 0.95793 0.0
C1759 C 0.61255 0.53252 0.95912 0.0
C1760 C 0.66666 0.55623 0.96127 0.0
C1761 C 0.70041 0.61905 0.98795 0.0
C1762 C 0.68757 0.59296 0.98543 0.0
C1763 C 0.6308 0.5308 0.97613 0.0
C1764 C 0.65337 0.54931 0.9796 0.0
H1765 H 0.69509 0.67599 0.96745 0.0
H1766 H 0.67768 0.63135 0.9615 0.0
H1767 H 0.69237 0.58375 0.94962 0.0
H1768 H 0.59782 0.48753 0.00229 0.0
H1769 H 0.63934 0.51173 0.00429 0.0
C1770 C 0.91775 0.78184 0.69981 0.0
C1771 C 0.92191 0.76212 0.71261 0.0
C1772 C 0.89369 0.79489 0.70068 0.0
C1773 C 0.84421 0.81463 0.74305 0.0
H1774 H 0.81927 0.85533 0.69956 0.0
C1775 C 0.81154 0.92599 0.74167 0.0
C1776 C 0.78947 0.9302 0.75566 0.0
C1777 C 0.8215 0.90072 0.73494 0.0
C1778 C 0.82583 0.84389 0.71181 0.0
H1779 H 0.90302 0.73803 0.73387 0.0
H1780 H 0.86087 0.76065 0.73512 0.0
H1781 H 0.84566 0.81593 0.68732 0.0
H1782 H 0.76124 0.9113 0.77439 0.0
H1783 H 0.77949 0.86689 0.7631 0.0
H1784 H 0.82518 0.84333 0.76761 0.0
C1785 C 0.87642 0.76649 0.72488 0.0
C1786 C 0.84091 0.82138 0.70483 0.0
C1787 C 0.90054 0.75341 0.72401 0.0
C1788 C 0.7783 0.90867 0.76362 0.0
C1789 C 0.78859 0.8833 0.75709 0.0
C1790 C 0.82889 0.83703 0.74999 0.0
C1791 C 0.87329 0.78839 0.71431 0.0
C1792 C 0.8514 0.80727 0.72051 0.0
C1793 C 0.80986 0.87911 0.74225 0.0
C1794 C 0.82069 0.85251 0.73455 0.0
H1795 H 0.93374 0.78883 0.69068 0.0
H1796 H 0.89206 0.81168 0.69232 0.0
H1797 H 0.85214 0.80441 0.75564 0.0
H1798 H 0.82067 0.94209 0.73523 0.0
H1799 H 0.83833 0.89805 0.72391 0.0
C1800 C 0.46779 0.21998 0.64552 0.0
C1801 C 0.4552 0.20821 0.66177 0.0
C1802 C 0.46729 0.20772 0.62321 0.0
C1803 C 0.43993 0.15143 0.58314 0.0
H1804 H 0.51322 0.13732 0.56804 0.0
C1805 C 0.50422 0.05909 0.53989 0.0
C1806 C 0.4941 0.05296 0.51819 0.0
C1807 C 0.49751 0.08273 0.55357 0.0
C1808 C 0.49268 0.14137 0.57186 0.0
H1809 H 0.42951 0.17633 0.66717 0.0
H1810 H 0.42873 0.15495 0.62834 0.0
H1811 H 0.50191 0.17325 0.59807 0.0
H1812 H 0.4687 0.06638 0.49384 0.0
H1813 H 0.45635 0.10755 0.51823 0.0
H1814 H 0.431 0.11841 0.55754 0.0
C1815 C 0.43905 0.17353 0.63274 0.0
C1816 C 0.48615 0.16209 0.58886 0.0
C1817 C 0.43971 0.18566 0.65504 0.0
C1818 C 0.47683 0.07069 0.51052 0.0
C1819 C 0.46974 0.09416 0.52438 0.0
C1820 C 0.44649 0.13083 0.5659 0.0
C1821 C 0.454 0.18368 0.61684 0.0
C1822 C 0.4598 0.16663 0.59528 0.0
C1823 C 0.48026 0.10043 0.54592 0.0
C1824 C 0.47297 0.12502 0.56083 0.0
H1825 H 0.47966 0.23755 0.6502 0.0
H1826 H 0.47873 0.21608 0.6112 0.0
H1827 H 0.41948 0.1546 0.58776 0.0
H1828 H 0.51763 0.04583 0.54618 0.0
H1829 H 0.50558 0.08707 0.57027 0.0
C1830 C 0.52872 0.25667 0.79138 0.0
C1831 C 0.50276 0.24773 0.78805 0.0
C1832 C 0.53667 0.27026 0.81211 0.0
C1833 C 0.538 0.3196 0.84583 0.0
H1834 H 0.50684 0.31671 0.90329 0.0
C1835 C 0.51776 0.41226 0.9094 0.0
C1836 C 0.52172 0.41187 0.93211 0.0
C1837 C 0.52031 0.38924 0.89373 0.0
C1838 C 0.51608 0.31758 0.88745 0.0
H1839 H 0.46524 0.24381 0.80376 0.0
H1840 H 0.4786 0.26882 0.83987 0.0
H1841 H 0.50389 0.27835 0.87345 0.0
H1842 H 0.5318 0.38712 0.95622 0.0
H1843 H 0.53633 0.34681 0.92866 0.0
H1844 H 0.54988 0.35881 0.85962 0.0
C1845 C 0.49316 0.26478 0.82679 0.0
C1846 C 0.51418 0.29572 0.87032 0.0
C1847 C 0.48541 0.25054 0.80611 0.0
C1848 C 0.52862 0.38803 0.93881 0.0
C1849 C 0.53111 0.36494 0.92309 0.0
C1850 C 0.53998 0.34129 0.86291 0.0
C1851 C 0.5185 0.27594 0.82964 0.0
C1852 C 0.52445 0.29678 0.8491 0.0
C1853 C 0.52688 0.36532 0.90041 0.0
C1854 C 0.52827 0.34085 0.88363 0.0
H1855 H 0.54247 0.25436 0.77762 0.0
H1856 H 0.55656 0.27785 0.81394 0.0
H1857 H 0.54585 0.32141 0.82968 0.0
H1858 H 0.51232 0.43028 0.90372 0.0
H1859 H 0.51648 0.39006 0.87639 0.0
C1860 C 0.53209 0.79177 0.29009 0.0
C1861 C 0.51665 0.76887 0.28776 0.0
C1862 C 0.54074 0.80408 0.31097 0.0
C1863 C 0.52093 0.81308 0.36905 0.0
H1864 H 0.58349 0.8569 0.37575 0.0
C1865 C 0.53639 0.89811 0.44326 0.0
C1866 C 0.53758 0.92216 0.43544 0.0
C1867 C 0.53999 0.87433 0.42862 0.0
C1868 C 0.56618 0.84445 0.37425 0.0
H1869 H 0.49926 0.74008 0.30537 0.0
H1870 H 0.51456 0.76174 0.34218 0.0
H1871 H 0.57914 0.82163 0.34348 0.0
H1872 H 0.54482 0.9404 0.40662 0.0
H1873 H 0.55172 0.89882 0.38112 0.0
H1874 H 0.5077 0.83659 0.39952 0.0
C1875 C 0.5197 0.77024 0.32775 0.0
C1876 C 0.56359 0.82439 0.35578 0.0
C1877 C 0.51099 0.75783 0.30671 0.0
C1878 C 0.54371 0.92213 0.41303 0.0
C1879 C 0.54786 0.8984 0.39852 0.0
C1880 C 0.52374 0.8329 0.38771 0.0
C1881 C 0.53429 0.79378 0.33011 0.0
C1882 C 0.54027 0.8095 0.35235 0.0
C1883 C 0.54546 0.87432 0.4061 0.0
C1884 C 0.54578 0.84954 0.38983 0.0
H1885 H 0.53697 0.80071 0.27582 0.0
H1886 H 0.55144 0.82243 0.31214 0.0
H1887 H 0.50268 0.8021 0.3669 0.0
H1888 H 0.53158 0.89761 0.46048 0.0
H1889 H 0.53793 0.85594 0.43473 0.0
C1890 C 0.48058 0.56147 0.0173 0.0
C1891 C 0.49376 0.54013 0.02388 0.0
C1892 C 0.47335 0.5833 0.03305 0.0
C1893 C 0.47394 0.63307 0.06828 0.0
H1894 H 0.45135 0.62117 0.12633 0.0
C1895 C 0.48063 0.71077 0.14788 0.0
C1896 C 0.46441 0.70805 0.1659 0.0
C1897 C 0.47811 0.69334 0.12769 0.0
C1898 C 0.457 0.62498 0.11008 0.0
H1899 H 0.51023 0.52515 0.05197 0.0
H1900 H 0.49821 0.56352 0.07941 0.0
H1901 H 0.45948 0.58385 0.09706 0.0
H1902 H 0.43081 0.68752 0.17638 0.0
H1903 H 0.42549 0.65794 0.14082 0.0
H1904 H 0.47124 0.67432 0.08137 0.0
C1905 C 0.49286 0.56311 0.06216 0.0
C1906 C 0.46217 0.60348 0.09341 0.0
C1907 C 0.49993 0.54121 0.04644 0.0
C1908 C 0.44381 0.68967 0.16276 0.0
C1909 C 0.44092 0.67264 0.14247 0.0
C1910 C 0.46853 0.65467 0.08496 0.0
C1911 C 0.47927 0.58428 0.05567 0.0
C1912 C 0.4714 0.60726 0.07253 0.0
C1913 C 0.45903 0.67324 0.12516 0.0
C1914 C 0.46062 0.65085 0.10624 0.0
H1915 H 0.47547 0.56117 1e-05 0.0
H1916 H 0.46272 0.59918 0.02755 0.0
H1917 H 0.48105 0.63662 0.05234 0.0
H1918 H 0.49669 0.72481 0.14994 0.0
H1919 H 0.49247 0.69437 0.11479 0.0
loop_
_geom_bond_atom_site_label_1
_geom_bond_atom_site_label_2
_geom_bond_distance
_geom_bond_site_symmetry_2
_ccdc_geom_bond_type
Co0 N5 2.057 . S
Co0 O17 2.021 1_545 S
Co0 O20 2.062 1_545 S
Co0 O24 2.117 1_556 S
Co0 O25 2.020 1_655 S
C1 O21 1.259 1_655 S
C1 O24 1.258 . S
Co2 N11 2.057 . S
Co2 O18 2.117 1_554 S
Co2 O19 2.020 1_455 S
Co2 O21 2.021 1_565 S
Co2 O26 2.062 1_565 S
C3 N5 1.316 . S
C3 N6 1.347 . S
C3 H8 0.931 . S
C4 N5 1.375 . S
C4 C7 1.350 . S
C4 H9 0.930 . S
N5 Co0 2.057 . S
N5 C3 1.316 . S
N5 C4 1.375 . S
N6 C3 1.347 . S
N6 C7 1.373 . S
C7 C4 1.350 . S
C7 N6 1.373 . S
C7 H28 0.931 . S
H8 C3 0.931 . S
H9 C4 0.930 . S
C10 O17 1.259 1_455 S
C10 O18 1.258 . S
N11 Co2 2.057 . S
N11 C12 1.316 . S
N11 C13 1.375 . S
C12 N11 1.316 . S
C12 N14 1.347 . S
C12 H23 0.931 . S
C13 N11 1.375 . S
C13 C15 1.350 . S
C13 H22 0.930 . S
N14 C12 1.347 . S
N14 C15 1.373 . S
C15 C13 1.350 . S
C15 N14 1.373 . S
C15 H29 0.931 . S
C16 O19 1.256 . S
C16 O20 1.255 1_554 S
O17 Co0 2.021 1_565 S
O17 C10 1.259 1_655 S
O18 Co2 2.117 1_556 S
O18 C10 1.258 . S
O19 Co2 2.020 1_655 S
O19 C16 1.256 . S
O20 Co0 2.062 1_565 S
O20 C16 1.255 1_556 S
O21 C1 1.259 1_455 S
O21 Co2 2.021 1_545 S
H22 C13 0.930 . S
H23 C12 0.931 . S
O24 Co0 2.117 1_554 S
O24 C1 1.258 . S
O25 Co0 2.020 1_455 S
O25 C27 1.256 . S
O26 Co2 2.062 1_545 S
O26 C27 1.255 1_554 S
C27 O25 1.256 . S
C27 O26 1.255 1_556 S
H28 C7 0.931 . S
H29 C15 0.931 . S
Co30 N35 2.057 . S
Co30 O47 2.021 . S
Co30 O50 2.062 . S
Co30 O54 2.117 1_455 S
Co30 O55 2.020 . S
C31 O51 1.259 . S
C31 O54 1.258 . S
Co32 N41 2.057 . S
Co32 O48 2.117 1_655 S
Co32 O49 2.020 . S
Co32 O51 2.021 . S
Co32 O56 2.062 . S
C33 N35 1.316 . S
C33 N36 1.347 . S
C33 H38 0.931 . S
C34 N35 1.375 . S
C34 C37 1.350 . S
C34 H39 0.930 . S
N35 Co30 2.057 . S
N35 C33 1.316 . S
N35 C34 1.375 . S
N36 C33 1.347 . S
N36 C37 1.373 . S
C37 C34 1.350 . S
C37 N36 1.373 . S
C37 H58 0.931 . S
H38 C33 0.931 . S
H39 C34 0.930 . S
C40 O47 1.259 . S
C40 O48 1.258 . S
N41 Co32 2.057 . S
N41 C42 1.316 . S
N41 C43 1.375 . S
C42 N41 1.316 . S
C42 N44 1.347 . S
C42 H53 0.931 . S
C43 N41 1.375 . S
C43 C45 1.350 . S
C43 H52 0.930 . S
N44 C42 1.347 . S
N44 C45 1.373 . S
C45 C43 1.350 . S
C45 N44 1.373 . S
C45 H59 0.931 . S
C46 O49 1.256 . S
C46 O50 1.255 1_655 S
O47 Co30 2.021 . S
O47 C40 1.259 . S
O48 Co32 2.117 1_455 S
O48 C40 1.258 . S
O49 Co32 2.020 . S
O49 C46 1.256 . S
O50 Co30 2.062 . S
O50 C46 1.255 1_455 S
O51 C31 1.259 . S
O51 Co32 2.021 . S
H52 C43 0.930 . S
H53 C42 0.931 . S
O54 Co30 2.117 1_655 S
O54 C31 1.258 . S
O55 Co30 2.020 . S
O55 C57 1.256 . S
O56 Co32 2.062 . S
O56 C57 1.255 1_655 S
C57 O55 1.256 . S
C57 O56 1.255 1_455 S
H58 C37 0.931 . S
H59 C45 0.931 . S
Co60 N65 2.057 . S
Co60 O77 2.021 . S
Co60 O80 2.062 . S
Co60 O84 2.117 . S
Co60 O85 2.020 . S
C61 O81 1.259 . S
C61 O84 1.258 . S
Co62 N71 2.057 . S
Co62 O78 2.117 . S
Co62 O79 2.020 . S
Co62 O81 2.021 . S
Co62 O86 2.062 . S
C63 N65 1.316 . S
C63 N66 1.347 . S
C63 H68 0.931 . S
C64 N65 1.375 . S
C64 C67 1.350 . S
C64 H69 0.930 . S
N65 Co60 2.057 . S
N65 C63 1.316 . S
N65 C64 1.375 . S
N66 C63 1.347 . S
N66 C67 1.373 . S
C67 C64 1.350 . S
C67 N66 1.373 . S
C67 H88 0.931 . S
H68 C63 0.931 . S
H69 C64 0.930 . S
C70 O77 1.259 . S
C70 O78 1.258 . S
N71 Co62 2.057 . S
N71 C72 1.316 . S
N71 C73 1.375 . S
C72 N71 1.316 . S
C72 N74 1.347 . S
C72 H83 0.931 . S
C73 N71 1.375 . S
C73 C75 1.350 . S
C73 H82 0.930 . S
N74 C72 1.347 . S
N74 C75 1.373 . S
C75 C73 1.350 . S
C75 N74 1.373 . S
C75 H89 0.931 . S
C76 O79 1.256 . S
C76 O80 1.255 . S
O77 Co60 2.021 . S
O77 C70 1.259 . S
O78 Co62 2.117 . S
O78 C70 1.258 . S
O79 Co62 2.020 . S
O79 C76 1.256 . S
O80 Co60 2.062 . S
O80 C76 1.255 . S
O81 C61 1.259 . S
O81 Co62 2.021 . S
H82 C73 0.930 . S
H83 C72 0.931 . S
O84 Co60 2.117 . S
O84 C61 1.258 . S
O85 Co60 2.020 . S
O85 C87 1.256 . S
O86 Co62 2.062 . S
O86 C87 1.255 . S
C87 O85 1.256 . S
C87 O86 1.255 . S
H88 C67 0.931 . S
H89 C75 0.931 . S
Co90 N95 2.057 . S
Co90 O107 2.021 . S
Co90 O110 2.062 . S
Co90 O114 2.117 1_565 S
Co90 O115 2.020 . S
C91 O111 1.259 . S
C91 O114 1.258 . S
Co92 N101 2.057 . S
Co92 O108 2.117 1_545 S
Co92 O109 2.020 . S
Co92 O111 2.021 . S
Co92 O116 2.062 . S
C93 N95 1.316 . S
C93 N96 1.347 . S
C93 H98 0.931 . S
C94 N95 1.375 . S
C94 C97 1.350 . S
C94 H99 0.930 . S
N95 Co90 2.057 . S
N95 C93 1.316 . S
N95 C94 1.375 . S
N96 C93 1.347 . S
N96 C97 1.373 . S
C97 C94 1.350 . S
C97 N96 1.373 . S
C97 H118 0.931 . S
H98 C93 0.931 . S
H99 C94 0.930 . S
C100 O107 1.259 . S
C100 O108 1.258 . S
N101 Co92 2.057 . S
N101 C102 1.316 . S
N101 C103 1.375 . S
C102 N101 1.316 . S
C102 N104 1.347 . S
C102 H113 0.931 . S
C103 N101 1.375 . S
C103 C105 1.350 . S
C103 H112 0.930 . S
N104 C102 1.347 . S
N104 C105 1.373 . S
C105 C103 1.350 . S
C105 N104 1.373 . S
C105 H119 0.931 . S
C106 O109 1.256 . S
C106 O110 1.255 1_545 S
O107 Co90 2.021 . S
O107 C100 1.259 . S
O108 Co92 2.117 1_565 S
O108 C100 1.258 . S
O109 Co92 2.020 . S
O109 C106 1.256 . S
O110 Co90 2.062 . S
O110 C106 1.255 1_565 S
O111 C91 1.259 . S
O111 Co92 2.021 . S
H112 C103 0.930 . S
H113 C102 0.931 . S
O114 Co90 2.117 1_545 S
O114 C91 1.258 . S
O115 Co90 2.020 . S
O115 C117 1.256 . S
O116 Co92 2.062 . S
O116 C117 1.255 1_545 S
C117 O115 1.256 . S
C117 O116 1.255 1_565 S
H118 C97 0.931 . S
H119 C105 0.931 . S
Co120 N125 2.057 . S
Co120 O137 2.021 . S
Co120 O140 2.062 . S
Co120 O144 2.117 . S
Co120 O145 2.020 . S
C121 O141 1.259 . S
C121 O144 1.258 . S
Co122 N131 2.057 . S
Co122 O138 2.117 . S
Co122 O139 2.020 . S
Co122 O141 2.021 . S
Co122 O146 2.062 . S
C123 N125 1.316 . S
C123 N126 1.347 . S
C123 H128 0.931 . S
C124 N125 1.375 . S
C124 C127 1.350 . S
C124 H129 0.930 . S
N125 Co120 2.057 . S
N125 C123 1.316 . S
N125 C124 1.375 . S
N126 C123 1.347 . S
N126 C127 1.373 . S
C127 C124 1.350 . S
C127 N126 1.373 . S
C127 H148 0.931 . S
H128 C123 0.931 . S
H129 C124 0.930 . S
C130 O137 1.259 . S
C130 O138 1.258 . S
N131 Co122 2.057 . S
N131 C132 1.316 . S
N131 C133 1.375 . S
C132 N131 1.316 . S
C132 N134 1.347 . S
C132 H143 0.931 . S
C133 N131 1.375 . S
C133 C135 1.350 . S
C133 H142 0.930 . S
N134 C132 1.347 . S
N134 C135 1.373 . S
C135 C133 1.350 . S
C135 N134 1.373 . S
C135 H149 0.931 . S
C136 O139 1.256 . S
C136 O140 1.255 . S
O137 Co120 2.021 . S
O137 C130 1.259 . S
O138 Co122 2.117 . S
O138 C130 1.258 . S
O139 Co122 2.020 . S
O139 C136 1.256 . S
O140 Co120 2.062 . S
O140 C136 1.255 . S
O141 C121 1.259 . S
O141 Co122 2.021 . S
H142 C133 0.930 . S
H143 C132 0.931 . S
O144 Co120 2.117 . S
O144 C121 1.258 . S
O145 Co120 2.020 . S
O145 C147 1.256 . S
O146 Co122 2.062 . S
O146 C147 1.255 . S
C147 O145 1.256 . S
C147 O146 1.255 . S
H148 C127 0.931 . S
H149 C135 0.931 . S
Co150 N155 2.057 . S
Co150 O167 2.021 . S
Co150 O170 2.062 . S
Co150 O174 2.117 . S
Co150 O175 2.020 . S
C151 O171 1.259 . S
C151 O174 1.258 . S
Co152 N161 2.057 . S
Co152 O168 2.117 . S
Co152 O169 2.020 . S
Co152 O171 2.021 . S
Co152 O176 2.062 . S
C153 N155 1.316 . S
C153 N156 1.347 . S
C153 H158 0.931 . S
C154 N155 1.375 . S
C154 C157 1.350 . S
C154 H159 0.930 . S
N155 Co150 2.057 . S
N155 C153 1.316 . S
N155 C154 1.375 . S
N156 C153 1.347 . S
N156 C157 1.373 . S
C157 C154 1.350 . S
C157 N156 1.373 . S
C157 H178 0.931 . S
H158 C153 0.931 . S
H159 C154 0.930 . S
C160 O167 1.259 . S
C160 O168 1.258 . S
N161 Co152 2.057 . S
N161 C162 1.316 . S
N161 C163 1.375 . S
C162 N161 1.316 . S
C162 N164 1.347 . S
C162 H173 0.931 . S
C163 N161 1.375 . S
C163 C165 1.350 . S
C163 H172 0.930 . S
N164 C162 1.347 . S
N164 C165 1.373 . S
C165 C163 1.350 . S
C165 N164 1.373 . S
C165 H179 0.931 . S
C166 O169 1.256 . S
C166 O170 1.255 . S
O167 Co150 2.021 . S
O167 C160 1.259 . S
O168 Co152 2.117 . S
O168 C160 1.258 . S
O169 Co152 2.020 . S
O169 C166 1.256 . S
O170 Co150 2.062 . S
O170 C166 1.255 . S
O171 C151 1.259 . S
O171 Co152 2.021 . S
H172 C163 0.930 . S
H173 C162 0.931 . S
O174 Co150 2.117 . S
O174 C151 1.258 . S
O175 Co150 2.020 . S
O175 C177 1.256 . S
O176 Co152 2.062 . S
O176 C177 1.255 . S
C177 O175 1.256 . S
C177 O176 1.255 . S
H178 C157 0.931 . S
H179 C165 0.931 . S
Co180 N185 2.057 . S
Co180 O197 2.021 . S
Co180 O200 2.062 . S
Co180 O204 2.117 . S
Co180 O205 2.020 . S
C181 O201 1.259 . S
C181 O204 1.258 . S
Co182 N191 2.057 . S
Co182 O198 2.117 . S
Co182 O199 2.020 . S
Co182 O201 2.021 . S
Co182 O206 2.062 . S
C183 N185 1.316 . S
C183 N186 1.347 . S
C183 H188 0.931 . S
C184 N185 1.375 . S
C184 C187 1.350 . S
C184 H189 0.930 . S
N185 Co180 2.057 . S
N185 C183 1.316 . S
N185 C184 1.375 . S
N186 C183 1.347 . S
N186 C187 1.373 . S
C187 C184 1.350 . S
C187 N186 1.373 . S
C187 H208 0.931 . S
H188 C183 0.931 . S
H189 C184 0.930 . S
C190 O197 1.259 . S
C190 O198 1.258 . S
N191 Co182 2.057 . S
N191 C192 1.316 . S
N191 C193 1.375 . S
C192 N191 1.316 . S
C192 N194 1.347 . S
C192 H203 0.931 . S
C193 N191 1.375 . S
C193 C195 1.350 . S
C193 H202 0.930 . S
N194 C192 1.347 . S
N194 C195 1.373 . S
C195 C193 1.350 . S
C195 N194 1.373 . S
C195 H209 0.931 . S
C196 O199 1.256 . S
C196 O200 1.255 . S
O197 Co180 2.021 . S
O197 C190 1.259 . S
O198 Co182 2.117 . S
O198 C190 1.258 . S
O199 Co182 2.020 . S
O199 C196 1.256 . S
O200 Co180 2.062 . S
O200 C196 1.255 . S
O201 C181 1.259 . S
O201 Co182 2.021 . S
H202 C193 0.930 . S
H203 C192 0.931 . S
O204 Co180 2.117 . S
O204 C181 1.258 . S
O205 Co180 2.020 . S
O205 C207 1.256 . S
O206 Co182 2.062 . S
O206 C207 1.255 . S
C207 O205 1.256 . S
C207 O206 1.255 . S
H208 C187 0.931 . S
H209 C195 0.931 . S
Co210 N215 2.057 . S
Co210 O227 2.021 . S
Co210 O230 2.062 . S
Co210 O234 2.117 . S
Co210 O235 2.020 1_655 S
C211 O231 1.259 1_655 S
C211 O234 1.258 . S
Co212 N221 2.057 . S
Co212 O228 2.117 . S
Co212 O229 2.020 1_455 S
Co212 O231 2.021 . S
Co212 O236 2.062 . S
C213 N215 1.316 . S
C213 N216 1.347 . S
C213 H218 0.931 . S
C214 N215 1.375 . S
C214 C217 1.350 . S
C214 H219 0.930 . S
N215 Co210 2.057 . S
N215 C213 1.316 . S
N215 C214 1.375 . S
N216 C213 1.347 . S
N216 C217 1.373 . S
C217 C214 1.350 . S
C217 N216 1.373 . S
C217 H238 0.931 . S
H218 C213 0.931 . S
H219 C214 0.930 . S
C220 O227 1.259 1_455 S
C220 O228 1.258 . S
N221 Co212 2.057 . S
N221 C222 1.316 . S
N221 C223 1.375 . S
C222 N221 1.316 . S
C222 N224 1.347 . S
C222 H233 0.931 . S
C223 N221 1.375 . S
C223 C225 1.350 . S
C223 H232 0.930 . S
N224 C222 1.347 . S
N224 C225 1.373 . S
C225 C223 1.350 . S
C225 N224 1.373 . S
C225 H239 0.931 . S
C226 O229 1.256 . S
C226 O230 1.255 . S
O227 Co210 2.021 . S
O227 C220 1.259 1_655 S
O228 Co212 2.117 . S
O228 C220 1.258 . S
O229 Co212 2.020 1_655 S
O229 C226 1.256 . S
O230 Co210 2.062 . S
O230 C226 1.255 . S
O231 C211 1.259 1_455 S
O231 Co212 2.021 . S
H232 C223 0.930 . S
H233 C222 0.931 . S
O234 Co210 2.117 . S
O234 C211 1.258 . S
O235 Co210 2.020 1_455 S
O235 C237 1.256 . S
O236 Co212 2.062 . S
O236 C237 1.255 . S
C237 O235 1.256 . S
C237 O236 1.255 . S
H238 C217 0.931 . S
H239 C225 0.931 . S
Co240 N245 2.057 . S
Co240 O257 2.021 . S
Co240 O260 2.062 . S
Co240 O264 2.117 1_554 S
Co240 O265 2.020 . S
C241 O261 1.259 . S
C241 O264 1.258 . S
Co242 N251 2.057 . S
Co242 O258 2.117 1_556 S
Co242 O259 2.020 . S
Co242 O261 2.021 . S
Co242 O266 2.062 . S
C243 N245 1.316 . S
C243 N246 1.347 . S
C243 H248 0.931 . S
C244 N245 1.375 . S
C244 C247 1.350 . S
C244 H249 0.930 . S
N245 Co240 2.057 . S
N245 C243 1.316 . S
N245 C244 1.375 . S
N246 C243 1.347 . S
N246 C247 1.373 . S
C247 C244 1.350 . S
C247 N246 1.373 . S
C247 H268 0.931 . S
H248 C243 0.931 . S
H249 C244 0.930 . S
C250 O257 1.259 . S
C250 O258 1.258 . S
N251 Co242 2.057 . S
N251 C252 1.316 . S
N251 C253 1.375 . S
C252 N251 1.316 . S
C252 N254 1.347 . S
C252 H263 0.931 . S
C253 N251 1.375 . S
C253 C255 1.350 . S
C253 H262 0.930 . S
N254 C252 1.347 . S
N254 C255 1.373 . S
C255 C253 1.350 . S
C255 N254 1.373 . S
C255 H269 0.931 . S
C256 O259 1.256 . S
C256 O260 1.255 1_556 S
O257 Co240 2.021 . S
O257 C250 1.259 . S
O258 Co242 2.117 1_554 S
O258 C250 1.258 . S
O259 Co242 2.020 . S
O259 C256 1.256 . S
O260 Co240 2.062 . S
O260 C256 1.255 1_554 S
O261 C241 1.259 . S
O261 Co242 2.021 . S
H262 C253 0.930 . S
H263 C252 0.931 . S
O264 Co240 2.117 1_556 S
O264 C241 1.258 . S
O265 Co240 2.020 . S
O265 C267 1.256 . S
O266 Co242 2.062 . S
O266 C267 1.255 1_556 S
C267 O265 1.256 . S
C267 O266 1.255 1_554 S
H268 C247 0.931 . S
H269 C255 0.931 . S
Co270 N275 2.057 . S
Co270 O287 2.021 . S
Co270 O290 2.062 . S
Co270 O294 2.117 1_565 S
Co270 O295 2.020 . S
C271 O291 1.259 . S
C271 O294 1.258 . S
Co272 N281 2.057 . S
Co272 O288 2.117 1_545 S
Co272 O289 2.020 . S
Co272 O291 2.021 . S
Co272 O296 2.062 . S
C273 N275 1.316 . S
C273 N276 1.347 . S
C273 H278 0.931 . S
C274 N275 1.375 . S
C274 C277 1.350 . S
C274 H279 0.930 . S
N275 Co270 2.057 . S
N275 C273 1.316 . S
N275 C274 1.375 . S
N276 C273 1.347 . S
N276 C277 1.373 . S
C277 C274 1.350 . S
C277 N276 1.373 . S
C277 H298 0.931 . S
H278 C273 0.931 . S
H279 C274 0.930 . S
C280 O287 1.259 . S
C280 O288 1.258 . S
N281 Co272 2.057 . S
N281 C282 1.316 . S
N281 C283 1.375 . S
C282 N281 1.316 . S
C282 N284 1.347 . S
C282 H293 0.931 . S
C283 N281 1.375 . S
C283 C285 1.350 . S
C283 H292 0.930 . S
N284 C282 1.347 . S
N284 C285 1.373 . S
C285 C283 1.350 . S
C285 N284 1.373 . S
C285 H299 0.931 . S
C286 O289 1.256 . S
C286 O290 1.255 1_545 S
O287 Co270 2.021 . S
O287 C280 1.259 . S
O288 Co272 2.117 1_565 S
O288 C280 1.258 . S
O289 Co272 2.020 . S
O289 C286 1.256 . S
O290 Co270 2.062 . S
O290 C286 1.255 1_565 S
O291 C271 1.259 . S
O291 Co272 2.021 . S
H292 C283 0.930 . S
H293 C282 0.931 . S
O294 Co270 2.117 1_545 S
O294 C271 1.258 . S
O295 Co270 2.020 . S
O295 C297 1.256 . S
O296 Co272 2.062 . S
O296 C297 1.255 1_545 S
C297 O295 1.256 . S
C297 O296 1.255 1_565 S
H298 C277 0.931 . S
H299 C285 0.931 . S
Co300 N305 2.057 . S
Co300 O317 2.021 . S
Co300 O320 2.062 . S
Co300 O324 2.117 . S
Co300 O325 2.020 . S
C301 O321 1.259 . S
C301 O324 1.258 . S
Co302 N311 2.057 . S
Co302 O318 2.117 . S
Co302 O319 2.020 . S
Co302 O321 2.021 . S
Co302 O326 2.062 . S
C303 N305 1.316 . S
C303 N306 1.347 . S
C303 H308 0.931 . S
C304 N305 1.375 . S
C304 C307 1.350 . S
C304 H309 0.930 . S
N305 Co300 2.057 . S
N305 C303 1.316 . S
N305 C304 1.375 . S
N306 C303 1.347 . S
N306 C307 1.373 . S
C307 C304 1.350 . S
C307 N306 1.373 . S
C307 H328 0.931 . S
H308 C303 0.931 . S
H309 C304 0.930 . S
C310 O317 1.259 . S
C310 O318 1.258 . S
N311 Co302 2.057 . S
N311 C312 1.316 . S
N311 C313 1.375 . S
C312 N311 1.316 . S
C312 N314 1.347 . S
C312 H323 0.931 . S
C313 N311 1.375 . S
C313 C315 1.350 . S
C313 H322 0.930 . S
N314 C312 1.347 . S
N314 C315 1.373 . S
C315 C313 1.350 . S
C315 N314 1.373 . S
C315 H329 0.931 . S
C316 O319 1.256 . S
C316 O320 1.255 . S
O317 Co300 2.021 . S
O317 C310 1.259 . S
O318 Co302 2.117 . S
O318 C310 1.258 . S
O319 Co302 2.020 . S
O319 C316 1.256 . S
O320 Co300 2.062 . S
O320 C316 1.255 . S
O321 C301 1.259 . S
O321 Co302 2.021 . S
H322 C313 0.930 . S
H323 C312 0.931 . S
O324 Co300 2.117 . S
O324 C301 1.258 . S
O325 Co300 2.020 . S
O325 C327 1.256 . S
O326 Co302 2.062 . S
O326 C327 1.255 . S
C327 O325 1.256 . S
C327 O326 1.255 . S
H328 C307 0.931 . S
H329 C315 0.931 . S
Co330 N335 2.057 . S
Co330 O347 2.021 . S
Co330 O350 2.062 . S
Co330 O354 2.117 1_455 S
Co330 O355 2.020 . S
C331 O351 1.259 . S
C331 O354 1.258 . S
Co332 N341 2.057 . S
Co332 O348 2.117 1_655 S
Co332 O349 2.020 . S
Co332 O351 2.021 . S
Co332 O356 2.062 . S
C333 N335 1.316 . S
C333 N336 1.347 . S
C333 H338 0.931 . S
C334 N335 1.375 . S
C334 C337 1.350 . S
C334 H339 0.930 . S
N335 Co330 2.057 . S
N335 C333 1.316 . S
N335 C334 1.375 . S
N336 C333 1.347 . S
N336 C337 1.373 . S
C337 C334 1.350 . S
C337 N336 1.373 . S
C337 H358 0.931 . S
H338 C333 0.931 . S
H339 C334 0.930 . S
C340 O347 1.259 . S
C340 O348 1.258 . S
N341 Co332 2.057 . S
N341 C342 1.316 . S
N341 C343 1.375 . S
C342 N341 1.316 . S
C342 N344 1.347 . S
C342 H353 0.931 . S
C343 N341 1.375 . S
C343 C345 1.350 . S
C343 H352 0.930 . S
N344 C342 1.347 . S
N344 C345 1.373 . S
C345 C343 1.350 . S
C345 N344 1.373 . S
C345 H359 0.931 . S
C346 O349 1.256 . S
C346 O350 1.255 1_655 S
O347 Co330 2.021 . S
O347 C340 1.259 . S
O348 Co332 2.117 1_455 S
O348 C340 1.258 . S
O349 Co332 2.020 . S
O349 C346 1.256 . S
O350 Co330 2.062 . S
O350 C346 1.255 1_455 S
O351 C331 1.259 . S
O351 Co332 2.021 . S
H352 C343 0.930 . S
H353 C342 0.931 . S
O354 Co330 2.117 1_655 S
O354 C331 1.258 . S
O355 Co330 2.020 . S
O355 C357 1.256 . S
O356 Co332 2.062 . S
O356 C357 1.255 1_655 S
C357 O355 1.256 . S
C357 O356 1.255 1_455 S
H358 C337 0.931 . S
H359 C345 0.931 . S
Co360 N365 2.057 . S
Co360 O377 2.021 . S
Co360 O380 2.062 . S
Co360 O384 2.117 . S
Co360 O385 2.020 . S
C361 O381 1.259 . S
C361 O384 1.258 . S
Co362 N371 2.057 . S
Co362 O378 2.117 . S
Co362 O379 2.020 . S
Co362 O381 2.021 . S
Co362 O386 2.062 . S
C363 N365 1.316 . S
C363 N366 1.347 . S
C363 H368 0.931 . S
C364 N365 1.375 . S
C364 C367 1.350 . S
C364 H369 0.930 . S
N365 Co360 2.057 . S
N365 C363 1.316 . S
N365 C364 1.375 . S
N366 C363 1.347 . S
N366 C367 1.373 . S
C367 C364 1.350 . S
C367 N366 1.373 . S
C367 H388 0.931 . S
H368 C363 0.931 . S
H369 C364 0.930 . S
C370 O377 1.259 . S
C370 O378 1.258 . S
N371 Co362 2.057 . S
N371 C372 1.316 . S
N371 C373 1.375 . S
C372 N371 1.316 . S
C372 N374 1.347 . S
C372 H383 0.931 . S
C373 N371 1.375 . S
C373 C375 1.350 . S
C373 H382 0.930 . S
N374 C372 1.347 . S
N374 C375 1.373 . S
C375 C373 1.350 . S
C375 N374 1.373 . S
C375 H389 0.931 . S
C376 O379 1.256 . S
C376 O380 1.255 . S
O377 Co360 2.021 . S
O377 C370 1.259 . S
O378 Co362 2.117 . S
O378 C370 1.258 . S
O379 Co362 2.020 . S
O379 C376 1.256 . S
O380 Co360 2.062 . S
O380 C376 1.255 . S
O381 C361 1.259 . S
O381 Co362 2.021 . S
H382 C373 0.930 . S
H383 C372 0.931 . S
O384 Co360 2.117 . S
O384 C361 1.258 . S
O385 Co360 2.020 . S
O385 C387 1.256 . S
O386 Co362 2.062 . S
O386 C387 1.255 . S
C387 O385 1.256 . S
C387 O386 1.255 . S
H388 C367 0.931 . S
H389 C375 0.931 . S
Co390 N395 2.057 . S
Co390 O407 2.021 . S
Co390 O410 2.062 . S
Co390 O414 2.117 1_554 S
Co390 O415 2.020 . S
C391 O411 1.259 . S
C391 O414 1.258 . S
Co392 N401 2.057 . S
Co392 O408 2.117 1_556 S
Co392 O409 2.020 . S
Co392 O411 2.021 . S
Co392 O416 2.062 . S
C393 N395 1.316 . S
C393 N396 1.347 . S
C393 H398 0.931 . S
C394 N395 1.375 . S
C394 C397 1.350 . S
C394 H399 0.930 . S
N395 Co390 2.057 . S
N395 C393 1.316 . S
N395 C394 1.375 . S
N396 C393 1.347 . S
N396 C397 1.373 . S
C397 C394 1.350 . S
C397 N396 1.373 . S
C397 H418 0.931 . S
H398 C393 0.931 . S
H399 C394 0.930 . S
C400 O407 1.259 . S
C400 O408 1.258 . S
N401 Co392 2.057 . S
N401 C402 1.316 . S
N401 C403 1.375 . S
C402 N401 1.316 . S
C402 N404 1.347 . S
C402 H413 0.931 . S
C403 N401 1.375 . S
C403 C405 1.350 . S
C403 H412 0.930 . S
N404 C402 1.347 . S
N404 C405 1.373 . S
C405 C403 1.350 . S
C405 N404 1.373 . S
C405 H419 0.931 . S
C406 O409 1.256 . S
C406 O410 1.255 1_556 S
O407 Co390 2.021 . S
O407 C400 1.259 . S
O408 Co392 2.117 1_554 S
O408 C400 1.258 . S
O409 Co392 2.020 . S
O409 C406 1.256 . S
O410 Co390 2.062 . S
O410 C406 1.255 1_554 S
O411 C391 1.259 . S
O411 Co392 2.021 . S
H412 C403 0.930 . S
H413 C402 0.931 . S
O414 Co390 2.117 1_556 S
O414 C391 1.258 . S
O415 Co390 2.020 . S
O415 C417 1.256 . S
O416 Co392 2.062 . S
O416 C417 1.255 1_556 S
C417 O415 1.256 . S
C417 O416 1.255 1_554 S
H418 C397 0.931 . S
H419 C405 0.931 . S
Co420 N425 2.057 . S
Co420 O437 2.021 1_545 S
Co420 O440 2.062 1_545 S
Co420 O444 2.117 . S
Co420 O445 2.020 . S
C421 O441 1.259 . S
C421 O444 1.258 . S
Co422 N431 2.057 . S
Co422 O438 2.117 . S
Co422 O439 2.020 . S
Co422 O441 2.021 1_565 S
Co422 O446 2.062 1_565 S
C423 N425 1.316 . S
C423 N426 1.347 . S
C423 H428 0.931 . S
C424 N425 1.375 . S
C424 C427 1.350 . S
C424 H429 0.930 . S
N425 Co420 2.057 . S
N425 C423 1.316 . S
N425 C424 1.375 . S
N426 C423 1.347 . S
N426 C427 1.373 . S
C427 C424 1.350 . S
C427 N426 1.373 . S
C427 H448 0.931 . S
H428 C423 0.931 . S
H429 C424 0.930 . S
C430 O437 1.259 . S
C430 O438 1.258 . S
N431 Co422 2.057 . S
N431 C432 1.316 . S
N431 C433 1.375 . S
C432 N431 1.316 . S
C432 N434 1.347 . S
C432 H443 0.931 . S
C433 N431 1.375 . S
C433 C435 1.350 . S
C433 H442 0.930 . S
N434 C432 1.347 . S
N434 C435 1.373 . S
C435 C433 1.350 . S
C435 N434 1.373 . S
C435 H449 0.931 . S
C436 O439 1.256 . S
C436 O440 1.255 . S
O437 Co420 2.021 1_565 S
O437 C430 1.259 . S
O438 Co422 2.117 . S
O438 C430 1.258 . S
O439 Co422 2.020 . S
O439 C436 1.256 . S
O440 Co420 2.062 1_565 S
O440 C436 1.255 . S
O441 C421 1.259 . S
O441 Co422 2.021 1_545 S
H442 C433 0.930 . S
H443 C432 0.931 . S
O444 Co420 2.117 . S
O444 C421 1.258 . S
O445 Co420 2.020 . S
O445 C447 1.256 . S
O446 Co422 2.062 1_545 S
O446 C447 1.255 . S
C447 O445 1.256 . S
C447 O446 1.255 . S
H448 C427 0.931 . S
H449 C435 0.931 . S
Co450 N455 2.057 . S
Co450 O467 2.021 . S
Co450 O470 2.062 . S
Co450 O474 2.117 1_556 S
Co450 O475 2.020 . S
C451 O471 1.259 . S
C451 O474 1.258 . S
Co452 N461 2.057 . S
Co452 O468 2.117 1_554 S
Co452 O469 2.020 . S
Co452 O471 2.021 . S
Co452 O476 2.062 . S
C453 N455 1.316 . S
C453 N456 1.347 . S
C453 H458 0.931 . S
C454 N455 1.375 . S
C454 C457 1.350 . S
C454 H459 0.930 . S
N455 Co450 2.057 . S
N455 C453 1.316 . S
N455 C454 1.375 . S
N456 C453 1.347 . S
N456 C457 1.373 . S
C457 C454 1.350 . S
C457 N456 1.373 . S
C457 H478 0.931 . S
H458 C453 0.931 . S
H459 C454 0.930 . S
C460 O467 1.259 . S
C460 O468 1.258 . S
N461 Co452 2.057 . S
N461 C462 1.316 . S
N461 C463 1.375 . S
C462 N461 1.316 . S
C462 N464 1.347 . S
C462 H473 0.931 . S
C463 N461 1.375 . S
C463 C465 1.350 . S
C463 H472 0.930 . S
N464 C462 1.347 . S
N464 C465 1.373 . S
C465 C463 1.350 . S
C465 N464 1.373 . S
C465 H479 0.931 . S
C466 O469 1.256 . S
C466 O470 1.255 1_554 S
O467 Co450 2.021 . S
O467 C460 1.259 . S
O468 Co452 2.117 1_556 S
O468 C460 1.258 . S
O469 Co452 2.020 . S
O469 C466 1.256 . S
O470 Co450 2.062 . S
O470 C466 1.255 1_556 S
O471 C451 1.259 . S
O471 Co452 2.021 . S
H472 C463 0.930 . S
H473 C462 0.931 . S
O474 Co450 2.117 1_554 S
O474 C451 1.258 . S
O475 Co450 2.020 . S
O475 C477 1.256 . S
O476 Co452 2.062 . S
O476 C477 1.255 1_554 S
C477 O475 1.256 . S
C477 O476 1.255 1_556 S
H478 C457 0.931 . S
H479 C465 0.931 . S
C480 C481 1.349 . S
C480 C482 1.327 . S
C480 H505 0.950 . S
C481 C480 1.349 . S
C481 C497 1.349 . S
C482 C480 1.327 . S
C482 C501 1.429 . S
C482 H506 0.950 . S
C483 C500 1.574 . S
C483 C502 1.368 . S
C483 H507 0.949 1_655 S
H484 C488 0.949 . S
C485 C486 1.349 . S
C485 C487 1.327 . S
C485 H508 0.950 1_655 S
C486 C485 1.349 . S
C486 C498 1.349 . S
C487 C485 1.327 . S
C487 C503 1.429 . S
C487 H509 0.950 1_655 S
C488 H484 0.949 . S
C488 C496 1.574 . S
C488 C504 1.368 . S
H489 C497 0.950 1_455 S
H490 C495 0.950 1_455 S
H491 C496 0.949 . S
H492 C498 0.950 . S
H493 C499 0.950 . S
H494 C500 0.949 1_455 S
C495 H490 0.950 1_655 S
C495 C497 1.327 . S
C495 C501 1.429 . S
C496 C488 1.574 . S
C496 H491 0.949 . S
C496 C502 1.368 . S
C497 C481 1.349 . S
C497 H489 0.950 1_655 S
C497 C495 1.327 . S
C498 C486 1.349 . S
C498 H492 0.950 . S
C498 C499 1.327 . S
C499 H493 0.950 . S
C499 C498 1.327 . S
C499 C503 1.429 . S
C500 C483 1.574 . S
C500 H494 0.949 1_655 S
C500 C504 1.368 . S
C501 C482 1.429 . S
C501 C495 1.429 . S
C501 C502 1.523 . S
C502 C483 1.368 . S
C502 C496 1.368 . S
C502 C501 1.523 . S
C503 C487 1.429 . S
C503 C499 1.429 . S
C503 C504 1.523 . S
C504 C488 1.368 . S
C504 C500 1.368 . S
C504 C503 1.523 . S
H505 C480 0.950 . S
H506 C482 0.950 . S
H507 C483 0.949 1_455 S
H508 C485 0.950 1_455 S
H509 C487 0.950 1_455 S
C510 C511 1.349 . S
C510 C512 1.327 . S
C510 H535 0.950 . S
C511 C510 1.349 . S
C511 C527 1.349 . S
C512 C510 1.327 . S
C512 C531 1.429 . S
C512 H536 0.950 . S
C513 C530 1.574 . S
C513 C532 1.368 . S
C513 H537 0.949 . S
H514 C518 0.949 . S
C515 C516 1.349 . S
C515 C517 1.327 . S
C515 H538 0.950 . S
C516 C515 1.349 . S
C516 C528 1.349 . S
C517 C515 1.327 . S
C517 C533 1.429 . S
C517 H539 0.950 . S
C518 H514 0.949 . S
C518 C526 1.574 . S
C518 C534 1.368 . S
H519 C527 0.950 . S
H520 C525 0.950 . S
H521 C526 0.949 . S
H522 C528 0.950 . S
H523 C529 0.950 . S
H524 C530 0.949 . S
C525 H520 0.950 . S
C525 C527 1.327 . S
C525 C531 1.429 . S
C526 C518 1.574 . S
C526 H521 0.949 . S
C526 C532 1.368 . S
C527 C511 1.349 . S
C527 H519 0.950 . S
C527 C525 1.327 . S
C528 C516 1.349 . S
C528 H522 0.950 . S
C528 C529 1.327 . S
C529 H523 0.950 . S
C529 C528 1.327 . S
C529 C533 1.429 . S
C530 C513 1.574 . S
C530 H524 0.949 . S
C530 C534 1.368 . S
C531 C512 1.429 . S
C531 C525 1.429 . S
C531 C532 1.523 . S
C532 C513 1.368 . S
C532 C526 1.368 . S
C532 C531 1.523 . S
C533 C517 1.429 . S
C533 C529 1.429 . S
C533 C534 1.523 . S
C534 C518 1.368 . S
C534 C530 1.368 . S
C534 C533 1.523 . S
H535 C510 0.950 . S
H536 C512 0.950 . S
H537 C513 0.949 . S
H538 C515 0.950 . S
H539 C517 0.950 . S
C540 C541 1.349 . S
C540 C542 1.327 . S
C540 H565 0.950 . S
C541 C540 1.349 . S
C541 C557 1.349 . S
C542 C540 1.327 . S
C542 C561 1.429 . S
C542 H566 0.950 . S
C543 C560 1.574 . S
C543 C562 1.368 . S
C543 H567 0.949 . S
H544 C548 0.949 . S
C545 C546 1.349 . S
C545 C547 1.327 . S
C545 H568 0.950 . S
C546 C545 1.349 . S
C546 C558 1.349 . S
C547 C545 1.327 . S
C547 C563 1.429 . S
C547 H569 0.950 . S
C548 H544 0.949 . S
C548 C556 1.574 . S
C548 C564 1.368 . S
H549 C557 0.950 . S
H550 C555 0.950 . S
H551 C556 0.949 . S
H552 C558 0.950 . S
H553 C559 0.950 . S
H554 C560 0.949 . S
C555 H550 0.950 . S
C555 C557 1.327 . S
C555 C561 1.429 . S
C556 C548 1.574 . S
C556 H551 0.949 . S
C556 C562 1.368 . S
C557 C541 1.349 . S
C557 H549 0.950 . S
C557 C555 1.327 . S
C558 C546 1.349 . S
C558 H552 0.950 . S
C558 C559 1.327 . S
C559 H553 0.950 . S
C559 C558 1.327 . S
C559 C563 1.429 . S
C560 C543 1.574 . S
C560 H554 0.949 . S
C560 C564 1.368 . S
C561 C542 1.429 . S
C561 C555 1.429 . S
C561 C562 1.523 . S
C562 C543 1.368 . S
C562 C556 1.368 . S
C562 C561 1.523 . S
C563 C547 1.429 . S
C563 C559 1.429 . S
C563 C564 1.523 . S
C564 C548 1.368 . S
C564 C560 1.368 . S
C564 C563 1.523 . S
H565 C540 0.950 . S
H566 C542 0.950 . S
H567 C543 0.949 . S
H568 C545 0.950 . S
H569 C547 0.950 . S
C570 C571 1.349 . S
C570 C572 1.327 . S
C570 H595 0.950 . S
C571 C570 1.349 . S
C571 C587 1.349 . S
C572 C570 1.327 . S
C572 C591 1.429 . S
C572 H596 0.950 . S
C573 C590 1.574 . S
C573 C592 1.368 . S
C573 H597 0.949 1_545 S
H574 C578 0.949 . S
C575 C576 1.349 . S
C575 C577 1.327 . S
C575 H598 0.950 1_545 S
C576 C575 1.349 . S
C576 C588 1.349 . S
C577 C575 1.327 . S
C577 C593 1.429 . S
C577 H599 0.950 1_545 S
C578 H574 0.949 . S
C578 C586 1.574 . S
C578 C594 1.368 . S
H579 C587 0.928 1_565 S
H580 C585 0.950 1_565 S
H581 C586 0.949 . S
H582 C588 0.950 . S
H583 C589 0.950 . S
H584 C590 0.949 1_565 S
C585 H580 0.950 1_545 S
C585 C587 1.327 . S
C585 C591 1.429 . S
C586 C578 1.574 . S
C586 H581 0.949 . S
C586 C592 1.368 . S
C587 C571 1.349 . S
C587 H579 0.928 1_545 S
C587 C585 1.327 . S
C588 C576 1.349 . S
C588 H582 0.950 . S
C588 C589 1.327 . S
C589 H583 0.950 . S
C589 C588 1.327 . S
C589 C593 1.429 . S
C590 C573 1.574 . S
C590 H584 0.949 1_545 S
C590 C594 1.368 . S
C591 C572 1.429 . S
C591 C585 1.429 . S
C591 C592 1.523 . S
C592 C573 1.368 . S
C592 C586 1.368 . S
C592 C591 1.523 . S
C593 C577 1.429 . S
C593 C589 1.429 . S
C593 C594 1.523 . S
C594 C578 1.368 . S
C594 C590 1.368 . S
C594 C593 1.523 . S
H595 C570 0.950 . S
H596 C572 0.950 . S
H597 C573 0.949 1_565 S
H598 C575 0.950 1_565 S
H599 C577 0.950 1_565 S
C600 C601 1.349 . S
C600 C602 1.327 . S
C600 H625 0.950 1_565 S
C601 C600 1.349 . S
C601 C617 1.349 . S
C602 C600 1.327 . S
C602 C621 1.429 . S
C602 H626 0.950 1_565 S
C603 C620 1.574 . S
C603 C622 1.368 . S
C603 H627 0.949 . S
H604 C608 0.949 1_545 S
C605 C606 1.349 . S
C605 C607 1.327 . S
C605 H628 0.950 . S
C606 C605 1.349 . S
C606 C618 1.349 . S
C607 C605 1.327 . S
C607 C623 1.429 . S
C607 H629 0.950 . S
C608 H604 0.949 1_565 S
C608 C616 1.574 . S
C608 C624 1.368 . S
H609 C617 0.950 . S
H610 C615 0.950 . S
H611 C616 0.949 1_545 S
H612 C618 0.950 1_545 S
H613 C619 0.950 1_545 S
H614 C620 0.949 . S
C615 H610 0.950 . S
C615 C617 1.327 . S
C615 C621 1.429 . S
C616 C608 1.574 . S
C616 H611 0.949 1_565 S
C616 C622 1.368 . S
C617 C601 1.349 . S
C617 H609 0.950 . S
C617 C615 1.327 . S
C618 C606 1.349 . S
C618 H612 0.950 1_565 S
C618 C619 1.327 . S
C619 H613 0.950 1_565 S
C619 C618 1.327 . S
C619 C623 1.429 . S
C620 C603 1.574 . S
C620 H614 0.949 . S
C620 C624 1.368 . S
C621 C602 1.429 . S
C621 C615 1.429 . S
C621 C622 1.523 . S
C622 C603 1.368 . S
C622 C616 1.368 . S
C622 C621 1.523 . S
C623 C607 1.429 . S
C623 C619 1.429 . S
C623 C624 1.523 . S
C624 C608 1.368 . S
C624 C620 1.368 . S
C624 C623 1.523 . S
H625 C600 0.950 1_545 S
H626 C602 0.950 1_545 S
H627 C603 0.949 . S
H628 C605 0.950 . S
H629 C607 0.950 . S
C630 C631 1.349 . S
C630 C632 1.327 . S
C630 H655 0.950 . S
C631 C630 1.349 . S
C631 C647 1.349 . S
C632 C630 1.327 . S
C632 C651 1.429 . S
C632 H656 0.950 . S
C633 C650 1.574 . S
C633 C652 1.368 . S
C633 H657 0.949 . S
H634 C638 0.949 . S
C635 C636 1.349 . S
C635 C637 1.327 . S
C635 H658 0.950 . S
C636 C635 1.349 . S
C636 C648 1.349 . S
C637 C635 1.327 . S
C637 C653 1.429 . S
C637 H659 0.950 . S
C638 H634 0.949 . S
C638 C646 1.574 . S
C638 C654 1.368 . S
H639 C647 0.950 . S
H640 C645 0.950 . S
H641 C646 0.949 . S
H642 C648 0.950 . S
H643 C649 0.950 . S
H644 C650 0.949 . S
C645 H640 0.950 . S
C645 C647 1.327 . S
C645 C651 1.429 . S
C646 C638 1.574 . S
C646 H641 0.949 . S
C646 C652 1.368 . S
C647 C631 1.349 . S
C647 H639 0.950 . S
C647 C645 1.327 . S
C648 C636 1.349 . S
C648 H642 0.950 . S
C648 C649 1.327 . S
C649 H643 0.950 . S
C649 C648 1.327 . S
C649 C653 1.429 . S
C650 C633 1.574 . S
C650 H644 0.949 . S
C650 C654 1.368 . S
C651 C632 1.429 . S
C651 C645 1.429 . S
C651 C652 1.523 . S
C652 C633 1.368 . S
C652 C646 1.368 . S
C652 C651 1.523 . S
C653 C637 1.429 . S
C653 C649 1.429 . S
C653 C654 1.523 . S
C654 C638 1.368 . S
C654 C650 1.368 . S
C654 C653 1.523 . S
H655 C630 0.950 . S
H656 C632 0.950 . S
H657 C633 0.949 . S
H658 C635 0.950 . S
H659 C637 0.950 . S
C660 C661 1.349 . S
C660 C662 1.327 . S
C660 H685 0.950 . S
C661 C660 1.349 . S
C661 C677 1.349 . S
C662 C660 1.327 . S
C662 C681 1.429 . S
C662 H686 0.950 . S
C663 C680 1.574 . S
C663 C682 1.368 . S
C663 H687 0.949 . S
H664 C668 0.949 . S
C665 C666 1.349 . S
C665 C667 1.327 . S
C665 H688 0.950 . S
C666 C665 1.349 . S
C666 C678 1.349 . S
C667 C665 1.327 . S
C667 C683 1.429 . S
C667 H689 0.950 . S
C668 H664 0.949 . S
C668 C676 1.574 . S
C668 C684 1.368 . S
H669 C677 0.950 . S
H670 C675 0.950 . S
H671 C676 0.949 . S
H672 C678 0.950 . S
H673 C679 0.950 . S
H674 C680 0.949 . S
C675 H670 0.950 . S
C675 C677 1.327 . S
C675 C681 1.429 . S
C676 C668 1.574 . S
C676 H671 0.949 . S
C676 C682 1.368 . S
C677 C661 1.349 . S
C677 H669 0.950 . S
C677 C675 1.327 . S
C678 C666 1.349 . S
C678 H672 0.950 . S
C678 C679 1.327 . S
C679 H673 0.950 . S
C679 C678 1.327 . S
C679 C683 1.429 . S
C680 C663 1.574 . S
C680 H674 0.949 . S
C680 C684 1.368 . S
C681 C662 1.429 . S
C681 C675 1.429 . S
C681 C682 1.523 . S
C682 C663 1.368 . S
C682 C676 1.368 . S
C682 C681 1.523 . S
C683 C667 1.429 . S
C683 C679 1.429 . S
C683 C684 1.523 . S
C684 C668 1.368 . S
C684 C680 1.368 . S
C684 C683 1.523 . S
H685 C660 0.950 . S
H686 C662 0.950 . S
H687 C663 0.949 . S
H688 C665 0.950 . S
H689 C667 0.950 . S
C690 C691 1.349 . S
C690 C692 1.327 . S
C690 H715 0.950 . S
C691 C690 1.349 . S
C691 C707 1.349 . S
C692 C690 1.327 . S
C692 C711 1.429 . S
C692 H716 0.950 . S
C693 C710 1.574 . S
C693 C712 1.368 . S
C693 H717 0.949 . S
H694 C698 0.949 . S
C695 C696 1.349 . S
C695 C697 1.327 . S
C695 H718 0.950 . S
C696 C695 1.349 . S
C696 C708 1.349 . S
C697 C695 1.327 . S
C697 C713 1.429 . S
C697 H719 0.950 . S
C698 H694 0.949 . S
C698 C706 1.574 . S
C698 C714 1.368 . S
H699 C707 0.950 . S
H700 C705 0.950 . S
H701 C706 0.949 . S
H702 C708 0.950 . S
H703 C709 0.950 . S
H704 C710 0.949 . S
C705 H700 0.950 . S
C705 C707 1.327 . S
C705 C711 1.429 . S
C706 C698 1.574 . S
C706 H701 0.949 . S
C706 C712 1.368 . S
C707 C691 1.349 . S
C707 H699 0.950 . S
C707 C705 1.327 . S
C708 C696 1.349 . S
C708 H702 0.950 . S
C708 C709 1.327 . S
C709 H703 0.950 . S
C709 C708 1.327 . S
C709 C713 1.429 . S
C710 C693 1.574 . S
C710 H704 0.949 . S
C710 C714 1.368 . S
C711 C692 1.429 . S
C711 C705 1.429 . S
C711 C712 1.523 . S
C712 C693 1.368 . S
C712 C706 1.368 . S
C712 C711 1.523 . S
C713 C697 1.429 . S
C713 C709 1.429 . S
C713 C714 1.523 . S
C714 C698 1.368 . S
C714 C710 1.368 . S
C714 C713 1.523 . S
H715 C690 0.950 . S
H716 C692 0.950 . S
H717 C693 0.949 . S
H718 C695 0.950 . S
H719 C697 0.950 . S
C720 C721 1.349 . S
C720 C722 1.327 . S
C720 H745 0.950 . S
C721 C720 1.349 . S
C721 C737 1.349 . S
C722 C720 1.327 . S
C722 C741 1.429 . S
C722 H746 0.950 . S
C723 C740 1.574 . S
C723 C742 1.368 . S
C723 H747 0.949 . S
H724 C728 0.949 . S
C725 C726 1.349 . S
C725 C727 1.327 . S
C725 H748 0.950 . S
C726 C725 1.349 . S
C726 C738 1.349 . S
C727 C725 1.327 . S
C727 C743 1.429 . S
C727 H749 0.950 . S
C728 H724 0.949 . S
C728 C736 1.574 . S
C728 C744 1.368 . S
H729 C737 0.950 . S
H730 C735 0.950 . S
H731 C736 0.949 . S
H732 C738 0.950 . S
H733 C739 0.950 . S
H734 C740 0.949 . S
C735 H730 0.950 . S
C735 C737 1.327 . S
C735 C741 1.429 . S
C736 C728 1.574 . S
C736 H731 0.949 . S
C736 C742 1.368 . S
C737 C721 1.349 . S
C737 H729 0.950 . S
C737 C735 1.327 . S
C738 C726 1.349 . S
C738 H732 0.950 . S
C738 C739 1.327 . S
C739 H733 0.950 . S
C739 C738 1.327 . S
C739 C743 1.429 . S
C740 C723 1.574 . S
C740 H734 0.949 . S
C740 C744 1.368 . S
C741 C722 1.429 . S
C741 C735 1.429 . S
C741 C742 1.523 . S
C742 C723 1.368 . S
C742 C736 1.368 . S
C742 C741 1.523 . S
C743 C727 1.429 . S
C743 C739 1.429 . S
C743 C744 1.523 . S
C744 C728 1.368 . S
C744 C740 1.368 . S
C744 C743 1.523 . S
H745 C720 0.950 . S
H746 C722 0.950 . S
H747 C723 0.949 . S
H748 C725 0.950 . S
H749 C727 0.950 . S
C750 C751 1.349 . S
C750 C752 1.327 . S
C750 H775 0.950 . S
C751 C750 1.349 . S
C751 C767 1.349 . S
C752 C750 1.327 . S
C752 C771 1.429 . S
C752 H776 0.950 . S
C753 C770 1.574 . S
C753 C772 1.368 . S
C753 H777 0.949 . S
H754 C758 0.949 . S
C755 C756 1.349 . S
C755 C757 1.327 . S
C755 H778 0.950 . S
C756 C755 1.349 . S
C756 C768 1.349 . S
C757 C755 1.327 . S
C757 C773 1.429 . S
C757 H779 0.950 . S
C758 H754 0.949 . S
C758 C766 1.574 . S
C758 C774 1.368 . S
H759 C767 0.950 . S
H760 C765 0.950 . S
H761 C766 0.949 . S
H762 C768 0.950 . S
H763 C769 0.950 . S
H764 C770 0.949 . S
C765 H760 0.950 . S
C765 C767 1.327 . S
C765 C771 1.429 . S
C766 C758 1.574 . S
C766 H761 0.949 . S
C766 C772 1.368 . S
C767 C751 1.349 . S
C767 H759 0.950 . S
C767 C765 1.327 . S
C768 C756 1.349 . S
C768 H762 0.950 . S
C768 C769 1.327 . S
C769 H763 0.950 . S
C769 C768 1.327 . S
C769 C773 1.429 . S
C770 C753 1.574 . S
C770 H764 0.949 . S
C770 C774 1.368 . S
C771 C752 1.429 . S
C771 C765 1.429 . S
C771 C772 1.523 . S
C772 C753 1.368 . S
C772 C766 1.368 . S
C772 C771 1.523 . S
C773 C757 1.429 . S
C773 C769 1.429 . S
C773 C774 1.523 . S
C774 C758 1.368 . S
C774 C770 1.368 . S
C774 C773 1.523 . S
H775 C750 0.950 . S
H776 C752 0.950 . S
H777 C753 0.949 . S
H778 C755 0.950 . S
H779 C757 0.950 . S
C780 C781 1.349 . S
C780 C782 1.327 . S
C780 H805 0.950 . S
C781 C780 1.349 . S
C781 C797 1.349 . S
C782 C780 1.327 . S
C782 C801 1.429 . S
C782 H806 0.950 . S
C783 C800 1.570 . S
C783 C802 1.368 . S
C783 H807 0.949 1_565 S
H784 C788 0.949 . S
C785 C786 1.328 1_545 S
C785 C787 1.330 . S
C785 H808 0.968 . S
C786 C785 1.328 1_565 S
C786 C798 1.349 . S
C787 C785 1.330 . S
C787 C803 1.428 1_545 S
C787 H809 0.950 . S
C788 H784 0.949 . S
C788 C796 1.574 . S
C788 C804 1.368 . S
H789 C797 0.950 1_545 S
H790 C795 0.950 1_545 S
H791 C796 0.949 . S
H792 C798 0.950 . S
H793 C799 0.950 . S
H794 C800 0.921 1_545 S
C795 H790 0.950 1_565 S
C795 C797 1.327 . S
C795 C801 1.429 . S
C796 C788 1.574 . S
C796 H791 0.949 . S
C796 C802 1.368 . S
C797 C781 1.349 . S
C797 H789 0.950 1_565 S
C797 C795 1.327 . S
C798 C786 1.349 . S
C798 H792 0.950 . S
C798 C799 1.327 . S
C799 H793 0.950 . S
C799 C798 1.327 . S
C799 C803 1.429 . S
C800 C783 1.570 . S
C800 H794 0.921 1_565 S
C800 C804 1.404 . S
C801 C782 1.429 . S
C801 C795 1.429 . S
C801 C802 1.523 . S
C802 C783 1.368 . S
C802 C796 1.368 . S
C802 C801 1.523 . S
C803 C787 1.428 1_565 S
C803 C799 1.429 . S
C803 C804 1.523 . S
C804 C788 1.368 . S
C804 C800 1.404 . S
C804 C803 1.523 . S
H805 C780 0.950 . S
H806 C782 0.950 . S
H807 C783 0.949 1_545 S
H808 C785 0.968 . S
H809 C787 0.950 . S
C810 C811 1.349 . S
C810 C812 1.327 . S
C810 H835 0.950 1_455 S
C811 C810 1.349 . S
C811 C827 1.349 . S
C812 C810 1.327 . S
C812 C831 1.429 . S
C812 H836 0.950 1_455 S
C813 C830 1.574 . S
C813 C832 1.368 . S
C813 H837 0.949 . S
H814 C818 0.943 1_655 S
C815 C816 1.349 . S
C815 C817 1.327 . S
C815 H838 0.950 . S
C816 C815 1.349 . S
C816 C828 1.362 . S
C817 C815 1.327 . S
C817 C833 1.429 . S
C817 H839 0.950 . S
C818 H814 0.943 1_455 S
C818 C826 1.574 . S
C818 C834 1.375 . S
H819 C827 0.950 . S
H820 C825 0.950 . S
H821 C826 0.931 1_655 S
H822 C828 0.936 1_655 S
H823 C829 0.939 1_655 S
H824 C830 0.949 . S
C825 H820 0.950 . S
C825 C827 1.327 . S
C825 C831 1.429 . S
C826 C818 1.574 . S
C826 H821 0.931 1_455 S
C826 C832 1.389 . S
C827 C811 1.349 . S
C827 H819 0.950 . S
C827 C825 1.327 . S
C828 C816 1.362 . S
C828 H822 0.936 1_455 S
C828 C829 1.327 . S
C829 H823 0.939 1_455 S
C829 C828 1.327 . S
C829 C833 1.439 . S
C830 C813 1.574 . S
C830 H824 0.949 . S
C830 C834 1.368 . S
C831 C812 1.429 . S
C831 C825 1.429 . S
C831 C832 1.523 . S
C832 C813 1.368 . S
C832 C826 1.389 . S
C832 C831 1.523 . S
C833 C817 1.429 . S
C833 C829 1.439 . S
C833 C834 1.523 . S
C834 C818 1.375 . S
C834 C830 1.368 . S
C834 C833 1.523 . S
H835 C810 0.950 1_655 S
H836 C812 0.950 1_655 S
H837 C813 0.949 . S
H838 C815 0.950 . S
H839 C817 0.950 . S
C840 C841 1.349 . S
C840 C842 1.327 . S
C840 H865 0.950 . S
C841 C840 1.349 . S
C841 C857 1.349 1_556 S
C842 C840 1.327 . S
C842 C861 1.429 . S
C842 H866 0.950 . S
C843 C860 1.574 . S
C843 C862 1.368 1_554 S
C843 H867 0.949 . S
H844 C848 0.949 . S
C845 C846 1.340 1_554 S
C845 C847 1.329 . S
C845 H868 0.957 . S
C846 C845 1.340 1_556 S
C846 C858 1.349 . S
C847 C845 1.329 . S
C847 C863 1.429 1_554 S
C847 H869 0.950 . S
C848 H844 0.949 . S
C848 C856 1.574 . S
C848 C864 1.368 . S
H849 C857 0.950 . S
H850 C855 0.950 . S
H851 C856 0.949 . S
H852 C858 0.950 . S
H853 C859 0.950 . S
H854 C860 0.949 . S
C855 H850 0.950 . S
C855 C857 1.327 . S
C855 C861 1.429 1_554 S
C856 C848 1.574 . S
C856 H851 0.949 . S
C856 C862 1.368 . S
C857 C841 1.349 1_554 S
C857 H849 0.950 . S
C857 C855 1.327 . S
C858 C846 1.349 . S
C858 H852 0.950 . S
C858 C859 1.327 . S
C859 H853 0.950 . S
C859 C858 1.327 . S
C859 C863 1.429 . S
C860 C843 1.574 . S
C860 H854 0.949 . S
C860 C864 1.368 1_554 S
C861 C842 1.429 . S
C861 C855 1.429 1_556 S
C861 C862 1.523 . S
C862 C843 1.368 1_556 S
C862 C856 1.368 . S
C862 C861 1.523 . S
C863 C847 1.429 1_556 S
C863 C859 1.429 . S
C863 C864 1.523 . S
C864 C848 1.368 . S
C864 C860 1.368 1_556 S
C864 C863 1.523 . S
H865 C840 0.950 . S
H866 C842 0.950 . S
H867 C843 0.949 . S
H868 C845 0.957 . S
H869 C847 0.950 . S
C870 C871 1.349 . S
C870 C872 1.327 . S
C870 H895 0.950 . S
C871 C870 1.349 . S
C871 C887 1.349 . S
C872 C870 1.327 . S
C872 C891 1.429 . S
C872 H896 0.950 . S
C873 C890 1.574 . S
C873 C892 1.368 . S
C873 H897 0.949 . S
H874 C878 0.949 . S
C875 C876 1.349 . S
C875 C877 1.327 . S
C875 H898 0.950 . S
C876 C875 1.349 . S
C876 C888 1.349 . S
C877 C875 1.327 . S
C877 C893 1.429 . S
C877 H899 0.950 . S
C878 H874 0.949 . S
C878 C886 1.574 . S
C878 C894 1.368 . S
H879 C887 0.950 . S
H880 C885 0.950 . S
H881 C886 0.949 . S
H882 C888 0.950 . S
H883 C889 0.950 . S
H884 C890 0.949 . S
C885 H880 0.950 . S
C885 C887 1.327 . S
C885 C891 1.429 . S
C886 C878 1.574 . S
C886 H881 0.949 . S
C886 C892 1.368 . S
C887 C871 1.349 . S
C887 H879 0.950 . S
C887 C885 1.327 . S
C888 C876 1.349 . S
C888 H882 0.950 . S
C888 C889 1.327 . S
C889 H883 0.950 . S
C889 C888 1.327 . S
C889 C893 1.429 . S
C890 C873 1.574 . S
C890 H884 0.949 . S
C890 C894 1.368 . S
C891 C872 1.429 . S
C891 C885 1.429 . S
C891 C892 1.523 . S
C892 C873 1.368 . S
C892 C886 1.368 . S
C892 C891 1.523 . S
C893 C877 1.429 . S
C893 C889 1.429 . S
C893 C894 1.523 . S
C894 C878 1.368 . S
C894 C890 1.368 . S
C894 C893 1.523 . S
H895 C870 0.950 . S
H896 C872 0.950 . S
H897 C873 0.949 . S
H898 C875 0.950 . S
H899 C877 0.950 . S
C900 C901 1.349 . S
C900 C902 1.327 . S
C900 H925 0.950 . S
C901 C900 1.349 . S
C901 C917 1.349 . S
C902 C900 1.327 . S
C902 C921 1.429 . S
C902 H926 0.950 . S
C903 C920 1.574 . S
C903 C922 1.368 . S
C903 H927 0.949 . S
H904 C908 0.949 . S
C905 C906 1.349 . S
C905 C907 1.327 . S
C905 H928 0.950 . S
C906 C905 1.349 . S
C906 C918 1.349 . S
C907 C905 1.327 . S
C907 C923 1.429 . S
C907 H929 0.950 . S
C908 H904 0.949 . S
C908 C916 1.574 . S
C908 C924 1.368 . S
H909 C917 0.950 . S
H910 C915 0.950 . S
H911 C916 0.949 . S
H912 C918 0.950 . S
H913 C919 0.950 . S
H914 C920 0.949 . S
C915 H910 0.950 . S
C915 C917 1.327 . S
C915 C921 1.429 . S
C916 C908 1.574 . S
C916 H911 0.949 . S
C916 C922 1.368 . S
C917 C901 1.349 . S
C917 H909 0.950 . S
C917 C915 1.327 . S
C918 C906 1.349 . S
C918 H912 0.950 . S
C918 C919 1.327 . S
C919 H913 0.950 . S
C919 C918 1.327 . S
C919 C923 1.429 . S
C920 C903 1.574 . S
C920 H914 0.949 . S
C920 C924 1.368 . S
C921 C902 1.429 . S
C921 C915 1.429 . S
C921 C922 1.523 . S
C922 C903 1.368 . S
C922 C916 1.368 . S
C922 C921 1.523 . S
C923 C907 1.429 . S
C923 C919 1.429 . S
C923 C924 1.523 . S
C924 C908 1.368 . S
C924 C920 1.368 . S
C924 C923 1.523 . S
H925 C900 0.950 . S
H926 C902 0.950 . S
H927 C903 0.949 . S
H928 C905 0.950 . S
H929 C907 0.950 . S
C930 C931 1.349 . S
C930 C932 1.327 . S
C930 H955 0.950 . S
C931 C930 1.349 . S
C931 C947 1.349 . S
C932 C930 1.327 . S
C932 C951 1.429 . S
C932 H956 0.950 . S
C933 C950 1.574 . S
C933 C952 1.368 . S
C933 H957 0.949 . S
H934 C938 0.949 . S
C935 C936 1.349 . S
C935 C937 1.327 . S
C935 H958 0.950 . S
C936 C935 1.349 . S
C936 C948 1.349 . S
C937 C935 1.327 . S
C937 C953 1.429 . S
C937 H959 0.950 . S
C938 H934 0.949 . S
C938 C946 1.574 . S
C938 C954 1.368 . S
H939 C947 0.950 . S
H940 C945 0.950 . S
H941 C946 0.949 . S
H942 C948 0.950 . S
H943 C949 0.950 . S
H944 C950 0.949 . S
C945 H940 0.950 . S
C945 C947 1.327 . S
C945 C951 1.429 . S
C946 C938 1.574 . S
C946 H941 0.949 . S
C946 C952 1.368 . S
C947 C931 1.349 . S
C947 H939 0.950 . S
C947 C945 1.327 . S
C948 C936 1.349 . S
C948 H942 0.950 . S
C948 C949 1.327 . S
C949 H943 0.950 . S
C949 C948 1.327 . S
C949 C953 1.429 . S
C950 C933 1.574 . S
C950 H944 0.949 . S
C950 C954 1.368 . S
C951 C932 1.429 . S
C951 C945 1.429 . S
C951 C952 1.523 . S
C952 C933 1.368 . S
C952 C946 1.368 . S
C952 C951 1.523 . S
C953 C937 1.429 . S
C953 C949 1.429 . S
C953 C954 1.523 . S
C954 C938 1.368 . S
C954 C950 1.368 . S
C954 C953 1.523 . S
H955 C930 0.950 . S
H956 C932 0.950 . S
H957 C933 0.949 . S
H958 C935 0.950 . S
H959 C937 0.950 . S
C960 C961 1.349 . S
C960 C962 1.327 . S
C960 H985 0.950 . S
C961 C960 1.349 . S
C961 C977 1.349 . S
C962 C960 1.327 . S
C962 C981 1.429 . S
C962 H986 0.950 . S
C963 C980 1.574 . S
C963 C982 1.368 . S
C963 H987 0.949 . S
H964 C968 0.949 . S
C965 C966 1.349 . S
C965 C967 1.327 . S
C965 H988 0.950 . S
C966 C965 1.349 . S
C966 C978 1.349 . S
C967 C965 1.327 . S
C967 C983 1.429 . S
C967 H989 0.950 . S
C968 H964 0.949 . S
C968 C976 1.574 . S
C968 C984 1.368 . S
H969 C977 0.950 . S
H970 C975 0.950 . S
H971 C976 0.949 . S
H972 C978 0.950 . S
H973 C979 0.950 . S
H974 C980 0.949 . S
C975 H970 0.950 . S
C975 C977 1.327 . S
C975 C981 1.429 . S
C976 C968 1.574 . S
C976 H971 0.949 . S
C976 C982 1.368 . S
C977 C961 1.349 . S
C977 H969 0.950 . S
C977 C975 1.327 . S
C978 C966 1.349 . S
C978 H972 0.950 . S
C978 C979 1.327 . S
C979 H973 0.950 . S
C979 C978 1.327 . S
C979 C983 1.429 . S
C980 C963 1.574 . S
C980 H974 0.949 . S
C980 C984 1.368 . S
C981 C962 1.429 . S
C981 C975 1.429 . S
C981 C982 1.523 . S
C982 C963 1.368 . S
C982 C976 1.368 . S
C982 C981 1.523 . S
C983 C967 1.429 . S
C983 C979 1.429 . S
C983 C984 1.523 . S
C984 C968 1.368 . S
C984 C980 1.368 . S
C984 C983 1.523 . S
H985 C960 0.950 . S
H986 C962 0.950 . S
H987 C963 0.949 . S
H988 C965 0.950 . S
H989 C967 0.950 . S
C990 C991 1.349 . S
C990 C992 1.327 . S
C990 H1015 0.950 . S
C991 C990 1.349 . S
C991 C1007 1.349 . S
C992 C990 1.327 . S
C992 C1011 1.429 . S
C992 H1016 0.950 . S
C993 C1010 1.574 . S
C993 C1012 1.368 . S
C993 H1017 0.949 . S
H994 C998 0.949 . S
C995 C996 1.349 . S
C995 C997 1.327 . S
C995 H1018 0.950 . S
C996 C995 1.349 . S
C996 C1008 1.349 . S
C997 C995 1.327 . S
C997 C1013 1.429 . S
C997 H1019 0.950 . S
C998 H994 0.949 . S
C998 C1006 1.574 . S
C998 C1014 1.368 . S
H999 C1007 0.950 . S
H1000 C1005 0.950 . S
H1001 C1006 0.949 . S
H1002 C1008 0.950 . S
H1003 C1009 0.950 . S
H1004 C1010 0.949 . S
C1005 H1000 0.950 . S
C1005 C1007 1.327 . S
C1005 C1011 1.429 . S
C1006 C998 1.574 . S
C1006 H1001 0.949 . S
C1006 C1012 1.368 . S
C1007 C991 1.349 . S
C1007 H999 0.950 . S
C1007 C1005 1.327 . S
C1008 C996 1.349 . S
C1008 H1002 0.950 . S
C1008 C1009 1.327 . S
C1009 H1003 0.950 . S
C1009 C1008 1.327 . S
C1009 C1013 1.429 . S
C1010 C993 1.574 . S
C1010 H1004 0.949 . S
C1010 C1014 1.368 . S
C1011 C992 1.429 . S
C1011 C1005 1.429 . S
C1011 C1012 1.523 . S
C1012 C993 1.368 . S
C1012 C1006 1.368 . S
C1012 C1011 1.523 . S
C1013 C997 1.429 . S
C1013 C1009 1.429 . S
C1013 C1014 1.523 . S
C1014 C998 1.368 . S
C1014 C1010 1.368 . S
C1014 C1013 1.523 . S
H1015 C990 0.950 . S
H1016 C992 0.950 . S
H1017 C993 0.949 . S
H1018 C995 0.950 . S
H1019 C997 0.950 . S
C1020 C1021 1.349 . S
C1020 C1022 1.327 . S
C1020 H1045 0.950 . S
C1021 C1020 1.349 . S
C1021 C1037 1.349 . S
C1022 C1020 1.327 . S
C1022 C1041 1.429 . S
C1022 H1046 0.950 . S
C1023 C1040 1.574 . S
C1023 C1042 1.368 . S
C1023 H1047 0.949 . S
H1024 C1028 0.949 . S
C1025 C1026 1.349 . S
C1025 C1027 1.327 . S
C1025 H1048 0.950 . S
C1026 C1025 1.349 . S
C1026 C1038 1.349 . S
C1027 C1025 1.327 . S
C1027 C1043 1.429 . S
C1027 H1049 0.950 . S
C1028 H1024 0.949 . S
C1028 C1036 1.574 . S
C1028 C1044 1.368 . S
H1029 C1037 0.950 . S
H1030 C1035 0.950 . S
H1031 C1036 0.949 . S
H1032 C1038 0.950 . S
H1033 C1039 0.950 . S
H1034 C1040 0.949 . S
C1035 H1030 0.950 . S
C1035 C1037 1.327 . S
C1035 C1041 1.429 . S
C1036 C1028 1.574 . S
C1036 H1031 0.949 . S
C1036 C1042 1.368 . S
C1037 C1021 1.349 . S
C1037 H1029 0.950 . S
C1037 C1035 1.327 . S
C1038 C1026 1.349 . S
C1038 H1032 0.950 . S
C1038 C1039 1.327 . S
C1039 H1033 0.950 . S
C1039 C1038 1.327 . S
C1039 C1043 1.429 . S
C1040 C1023 1.574 . S
C1040 H1034 0.949 . S
C1040 C1044 1.368 . S
C1041 C1022 1.429 . S
C1041 C1035 1.429 . S
C1041 C1042 1.523 . S
C1042 C1023 1.368 . S
C1042 C1036 1.368 . S
C1042 C1041 1.523 . S
C1043 C1027 1.429 . S
C1043 C1039 1.429 . S
C1043 C1044 1.523 . S
C1044 C1028 1.368 . S
C1044 C1040 1.368 . S
C1044 C1043 1.523 . S
H1045 C1020 0.950 . S
H1046 C1022 0.950 . S
H1047 C1023 0.949 . S
H1048 C1025 0.950 . S
H1049 C1027 0.950 . S
C1050 C1051 1.349 . S
C1050 C1052 1.327 . S
C1050 H1075 0.950 . S
C1051 C1050 1.349 . S
C1051 C1067 1.349 . S
C1052 C1050 1.327 . S
C1052 C1071 1.429 . S
C1052 H1076 0.950 . S
C1053 C1070 1.574 . S
C1053 C1072 1.368 . S
C1053 H1077 0.949 . S
H1054 C1058 0.949 . S
C1055 C1056 1.349 . S
C1055 C1057 1.327 . S
C1055 H1078 0.950 . S
C1056 C1055 1.349 . S
C1056 C1068 1.349 . S
C1057 C1055 1.327 . S
C1057 C1073 1.429 . S
C1057 H1079 0.950 . S
C1058 H1054 0.949 . S
C1058 C1066 1.574 . S
C1058 C1074 1.368 . S
H1059 C1067 0.950 . S
H1060 C1065 0.950 . S
H1061 C1066 0.949 . S
H1062 C1068 0.950 . S
H1063 C1069 0.950 . S
H1064 C1070 0.949 . S
C1065 H1060 0.950 . S
C1065 C1067 1.327 . S
C1065 C1071 1.429 . S
C1066 C1058 1.574 . S
C1066 H1061 0.949 . S
C1066 C1072 1.368 . S
C1067 C1051 1.349 . S
C1067 H1059 0.950 . S
C1067 C1065 1.327 . S
C1068 C1056 1.349 . S
C1068 H1062 0.950 . S
C1068 C1069 1.327 . S
C1069 H1063 0.950 . S
C1069 C1068 1.327 . S
C1069 C1073 1.429 . S
C1070 C1053 1.574 . S
C1070 H1064 0.949 . S
C1070 C1074 1.368 . S
C1071 C1052 1.429 . S
C1071 C1065 1.429 . S
C1071 C1072 1.523 . S
C1072 C1053 1.368 . S
C1072 C1066 1.368 . S
C1072 C1071 1.523 . S
C1073 C1057 1.429 . S
C1073 C1069 1.429 . S
C1073 C1074 1.523 . S
C1074 C1058 1.368 . S
C1074 C1070 1.368 . S
C1074 C1073 1.523 . S
H1075 C1050 0.950 . S
H1076 C1052 0.950 . S
H1077 C1053 0.949 . S
H1078 C1055 0.950 . S
H1079 C1057 0.950 . S
C1080 C1081 1.349 . S
C1080 C1082 1.327 . S
C1080 H1105 0.950 . S
C1081 C1080 1.349 . S
C1081 C1097 1.349 . S
C1082 C1080 1.327 . S
C1082 C1101 1.429 . S
C1082 H1106 0.950 . S
C1083 C1100 1.574 . S
C1083 C1102 1.368 . S
C1083 H1107 0.949 . S
H1084 C1088 0.949 . S
C1085 C1086 1.349 . S
C1085 C1087 1.327 . S
C1085 H1108 0.950 . S
C1086 C1085 1.349 . S
C1086 C1098 1.349 . S
C1087 C1085 1.327 . S
C1087 C1103 1.429 . S
C1087 H1109 0.950 . S
C1088 H1084 0.949 . S
C1088 C1096 1.574 . S
C1088 C1104 1.368 . S
H1089 C1097 0.950 . S
H1090 C1095 0.950 . S
H1091 C1096 0.949 . S
H1092 C1098 0.950 . S
H1093 C1099 0.950 . S
H1094 C1100 0.949 . S
C1095 H1090 0.950 . S
C1095 C1097 1.327 . S
C1095 C1101 1.429 . S
C1096 C1088 1.574 . S
C1096 H1091 0.949 . S
C1096 C1102 1.368 . S
C1097 C1081 1.349 . S
C1097 H1089 0.950 . S
C1097 C1095 1.327 . S
C1098 C1086 1.349 . S
C1098 H1092 0.950 . S
C1098 C1099 1.327 . S
C1099 H1093 0.950 . S
C1099 C1098 1.327 . S
C1099 C1103 1.429 . S
C1100 C1083 1.574 . S
C1100 H1094 0.949 . S
C1100 C1104 1.368 . S
C1101 C1082 1.429 . S
C1101 C1095 1.429 . S
C1101 C1102 1.523 . S
C1102 C1083 1.368 . S
C1102 C1096 1.368 . S
C1102 C1101 1.523 . S
C1103 C1087 1.429 . S
C1103 C1099 1.429 . S
C1103 C1104 1.523 . S
C1104 C1088 1.368 . S
C1104 C1100 1.368 . S
C1104 C1103 1.523 . S
H1105 C1080 0.950 . S
H1106 C1082 0.950 . S
H1107 C1083 0.949 . S
H1108 C1085 0.950 . S
H1109 C1087 0.950 . S
C1110 C1111 1.349 1_455 S
C1110 C1112 1.327 . S
C1110 H1135 0.950 . S
C1111 C1110 1.349 1_655 S
C1111 C1127 1.349 . S
C1112 C1110 1.327 . S
C1112 C1131 1.429 1_455 S
C1112 H1136 0.950 . S
C1113 C1130 1.574 . S
C1113 C1132 1.368 . S
C1113 H1137 0.949 . S
H1114 C1118 0.949 . S
C1115 C1116 1.349 . S
C1115 C1117 1.327 . S
C1115 H1138 0.950 . S
C1116 C1115 1.349 . S
C1116 C1128 1.349 1_655 S
C1117 C1115 1.327 . S
C1117 C1133 1.429 . S
C1117 H1139 0.950 . S
C1118 H1114 0.949 . S
C1118 C1126 1.574 . S
C1118 C1134 1.368 1_455 S
H1119 C1127 0.950 . S
H1120 C1125 0.950 . S
H1121 C1126 0.949 . S
H1122 C1128 0.950 . S
H1123 C1129 0.950 . S
H1124 C1130 0.949 . S
C1125 H1120 0.950 . S
C1125 C1127 1.327 . S
C1125 C1131 1.429 . S
C1126 C1118 1.574 . S
C1126 H1121 0.949 . S
C1126 C1132 1.368 1_455 S
C1127 C1111 1.349 . S
C1127 H1119 0.950 . S
C1127 C1125 1.327 . S
C1128 C1116 1.349 1_455 S
C1128 H1122 0.950 . S
C1128 C1129 1.327 . S
C1129 H1123 0.950 . S
C1129 C1128 1.327 . S
C1129 C1133 1.429 1_455 S
C1130 C1113 1.574 . S
C1130 H1124 0.949 . S
C1130 C1134 1.368 . S
C1131 C1112 1.429 1_655 S
C1131 C1125 1.429 . S
C1131 C1132 1.523 . S
C1132 C1113 1.368 . S
C1132 C1126 1.368 1_655 S
C1132 C1131 1.523 . S
C1133 C1117 1.429 . S
C1133 C1129 1.429 1_655 S
C1133 C1134 1.523 . S
C1134 C1118 1.368 1_655 S
C1134 C1130 1.368 . S
C1134 C1133 1.523 . S
H1135 C1110 0.950 . S
H1136 C1112 0.950 . S
H1137 C1113 0.949 . S
H1138 C1115 0.950 . S
H1139 C1117 0.950 . S
C1140 C1141 1.349 . S
C1140 C1142 1.327 . S
C1140 H1165 0.950 . S
C1141 C1140 1.349 . S
C1141 C1157 1.349 . S
C1142 C1140 1.327 . S
C1142 C1161 1.429 . S
C1142 H1166 0.950 . S
C1143 C1160 1.574 . S
C1143 C1162 1.368 . S
C1143 H1167 0.949 . S
H1144 C1148 0.949 . S
C1145 C1146 1.349 . S
C1145 C1147 1.327 . S
C1145 H1168 0.950 . S
C1146 C1145 1.349 . S
C1146 C1158 1.349 . S
C1147 C1145 1.327 . S
C1147 C1163 1.429 . S
C1147 H1169 0.950 . S
C1148 H1144 0.949 . S
C1148 C1156 1.574 . S
C1148 C1164 1.368 . S
H1149 C1157 0.950 . S
H1150 C1155 0.950 . S
H1151 C1156 0.949 . S
H1152 C1158 0.950 . S
H1153 C1159 0.950 . S
H1154 C1160 0.949 . S
C1155 H1150 0.950 . S
C1155 C1157 1.327 . S
C1155 C1161 1.429 . S
C1156 C1148 1.574 . S
C1156 H1151 0.949 . S
C1156 C1162 1.368 . S
C1157 C1141 1.349 . S
C1157 H1149 0.950 . S
C1157 C1155 1.327 . S
C1158 C1146 1.349 . S
C1158 H1152 0.950 . S
C1158 C1159 1.327 . S
C1159 H1153 0.950 . S
C1159 C1158 1.327 . S
C1159 C1163 1.429 . S
C1160 C1143 1.574 . S
C1160 H1154 0.949 . S
C1160 C1164 1.368 . S
C1161 C1142 1.429 . S
C1161 C1155 1.429 . S
C1161 C1162 1.523 . S
C1162 C1143 1.368 . S
C1162 C1156 1.368 . S
C1162 C1161 1.523 . S
C1163 C1147 1.429 . S
C1163 C1159 1.429 . S
C1163 C1164 1.523 . S
C1164 C1148 1.368 . S
C1164 C1160 1.368 . S
C1164 C1163 1.523 . S
H1165 C1140 0.950 . S
H1166 C1142 0.950 . S
H1167 C1143 0.949 . S
H1168 C1145 0.950 . S
H1169 C1147 0.950 . S
C1170 C1171 1.349 . S
C1170 C1172 1.327 . S
C1170 H1195 0.950 . S
C1171 C1170 1.349 . S
C1171 C1187 1.349 . S
C1172 C1170 1.327 . S
C1172 C1191 1.429 . S
C1172 H1196 0.950 . S
C1173 C1190 1.574 . S
C1173 C1192 1.368 . S
C1173 H1197 0.949 . S
H1174 C1178 0.949 . S
C1175 C1176 1.349 . S
C1175 C1177 1.327 . S
C1175 H1198 0.950 . S
C1176 C1175 1.349 . S
C1176 C1188 1.349 . S
C1177 C1175 1.327 . S
C1177 C1193 1.429 . S
C1177 H1199 0.950 . S
C1178 H1174 0.949 . S
C1178 C1186 1.574 . S
C1178 C1194 1.368 . S
H1179 C1187 0.950 . S
H1180 C1185 0.950 . S
H1181 C1186 0.949 . S
H1182 C1188 0.950 . S
H1183 C1189 0.950 . S
H1184 C1190 0.949 . S
C1185 H1180 0.950 . S
C1185 C1187 1.327 . S
C1185 C1191 1.429 . S
C1186 C1178 1.574 . S
C1186 H1181 0.949 . S
C1186 C1192 1.368 . S
C1187 C1171 1.349 . S
C1187 H1179 0.950 . S
C1187 C1185 1.327 . S
C1188 C1176 1.349 . S
C1188 H1182 0.950 . S
C1188 C1189 1.327 . S
C1189 H1183 0.950 . S
C1189 C1188 1.327 . S
C1189 C1193 1.429 . S
C1190 C1173 1.574 . S
C1190 H1184 0.949 . S
C1190 C1194 1.368 . S
C1191 C1172 1.429 . S
C1191 C1185 1.429 . S
C1191 C1192 1.523 . S
C1192 C1173 1.368 . S
C1192 C1186 1.368 . S
C1192 C1191 1.523 . S
C1193 C1177 1.429 . S
C1193 C1189 1.429 . S
C1193 C1194 1.523 . S
C1194 C1178 1.368 . S
C1194 C1190 1.368 . S
C1194 C1193 1.523 . S
H1195 C1170 0.950 . S
H1196 C1172 0.950 . S
H1197 C1173 0.949 . S
H1198 C1175 0.950 . S
H1199 C1177 0.950 . S
C1200 C1201 1.349 . S
C1200 C1202 1.327 . S
C1200 H1225 0.950 . S
C1201 C1200 1.349 . S
C1201 C1217 1.349 . S
C1202 C1200 1.327 . S
C1202 C1221 1.429 . S
C1202 H1226 0.950 . S
C1203 C1220 1.574 . S
C1203 C1222 1.368 . S
C1203 H1227 0.949 . S
H1204 C1208 0.949 . S
C1205 C1206 1.349 . S
C1205 C1207 1.327 . S
C1205 H1228 0.950 . S
C1206 C1205 1.349 . S
C1206 C1218 1.349 . S
C1207 C1205 1.327 . S
C1207 C1223 1.429 . S
C1207 H1229 0.950 . S
C1208 H1204 0.949 . S
C1208 C1216 1.574 . S
C1208 C1224 1.368 . S
H1209 C1217 0.950 . S
H1210 C1215 0.950 . S
H1211 C1216 0.949 . S
H1212 C1218 0.950 . S
H1213 C1219 0.950 . S
H1214 C1220 0.949 . S
C1215 H1210 0.950 . S
C1215 C1217 1.327 . S
C1215 C1221 1.429 . S
C1216 C1208 1.574 . S
C1216 H1211 0.949 . S
C1216 C1222 1.368 . S
C1217 C1201 1.349 . S
C1217 H1209 0.950 . S
C1217 C1215 1.327 . S
C1218 C1206 1.349 . S
C1218 H1212 0.950 . S
C1218 C1219 1.327 . S
C1219 H1213 0.950 . S
C1219 C1218 1.327 . S
C1219 C1223 1.429 . S
C1220 C1203 1.574 . S
C1220 H1214 0.949 . S
C1220 C1224 1.368 . S
C1221 C1202 1.429 . S
C1221 C1215 1.429 . S
C1221 C1222 1.523 . S
C1222 C1203 1.368 . S
C1222 C1216 1.368 . S
C1222 C1221 1.523 . S
C1223 C1207 1.429 . S
C1223 C1219 1.429 . S
C1223 C1224 1.523 . S
C1224 C1208 1.368 . S
C1224 C1220 1.368 . S
C1224 C1223 1.523 . S
H1225 C1200 0.950 . S
H1226 C1202 0.950 . S
H1227 C1203 0.949 . S
H1228 C1205 0.950 . S
H1229 C1207 0.950 . S
C1230 C1231 1.349 . S
C1230 C1232 1.327 . S
C1230 H1255 0.950 . S
C1231 C1230 1.349 . S
C1231 C1247 1.349 . S
C1232 C1230 1.327 . S
C1232 C1251 1.429 . S
C1232 H1256 0.950 . S
C1233 C1250 1.574 . S
C1233 C1252 1.368 . S
C1233 H1257 0.949 . S
H1234 C1238 0.949 . S
C1235 C1236 1.349 . S
C1235 C1237 1.327 . S
C1235 H1258 0.950 . S
C1236 C1235 1.349 . S
C1236 C1248 1.349 . S
C1237 C1235 1.327 . S
C1237 C1253 1.429 . S
C1237 H1259 0.950 . S
C1238 H1234 0.949 . S
C1238 C1246 1.574 . S
C1238 C1254 1.368 . S
H1239 C1247 0.950 . S
H1240 C1245 0.950 . S
H1241 C1246 0.949 . S
H1242 C1248 0.950 . S
H1243 C1249 0.950 . S
H1244 C1250 0.949 . S
C1245 H1240 0.950 . S
C1245 C1247 1.327 . S
C1245 C1251 1.429 . S
C1246 C1238 1.574 . S
C1246 H1241 0.949 . S
C1246 C1252 1.368 . S
C1247 C1231 1.349 . S
C1247 H1239 0.950 . S
C1247 C1245 1.327 . S
C1248 C1236 1.349 . S
C1248 H1242 0.950 . S
C1248 C1249 1.327 . S
C1249 H1243 0.950 . S
C1249 C1248 1.327 . S
C1249 C1253 1.429 . S
C1250 C1233 1.574 . S
C1250 H1244 0.949 . S
C1250 C1254 1.368 . S
C1251 C1232 1.429 . S
C1251 C1245 1.429 . S
C1251 C1252 1.523 . S
C1252 C1233 1.368 . S
C1252 C1246 1.368 . S
C1252 C1251 1.523 . S
C1253 C1237 1.429 . S
C1253 C1249 1.429 . S
C1253 C1254 1.523 . S
C1254 C1238 1.368 . S
C1254 C1250 1.368 . S
C1254 C1253 1.523 . S
H1255 C1230 0.950 . S
H1256 C1232 0.950 . S
H1257 C1233 0.949 . S
H1258 C1235 0.950 . S
H1259 C1237 0.950 . S
C1260 C1261 1.349 . S
C1260 C1262 1.327 . S
C1260 H1285 0.950 . S
C1261 C1260 1.349 . S
C1261 C1277 1.349 . S
C1262 C1260 1.327 . S
C1262 C1281 1.429 . S
C1262 H1286 0.950 . S
C1263 C1280 1.574 . S
C1263 C1282 1.368 . S
C1263 H1287 0.949 1_545 S
H1264 C1268 0.949 . S
C1265 C1266 1.349 . S
C1265 C1267 1.327 . S
C1265 H1288 0.933 1_545 S
C1266 C1265 1.349 . S
C1266 C1278 1.349 . S
C1267 C1265 1.327 . S
C1267 C1283 1.429 . S
C1267 H1289 0.950 1_545 S
C1268 H1264 0.949 . S
C1268 C1276 1.574 . S
C1268 C1284 1.368 . S
H1269 C1277 0.950 1_565 S
H1270 C1275 0.950 1_565 S
H1271 C1276 0.949 . S
H1272 C1278 0.950 . S
H1273 C1279 0.950 . S
H1274 C1280 0.949 1_565 S
C1275 H1270 0.950 1_545 S
C1275 C1277 1.327 . S
C1275 C1281 1.429 . S
C1276 C1268 1.574 . S
C1276 H1271 0.949 . S
C1276 C1282 1.368 . S
C1277 C1261 1.349 . S
C1277 H1269 0.950 1_545 S
C1277 C1275 1.327 . S
C1278 C1266 1.349 . S
C1278 H1272 0.950 . S
C1278 C1279 1.327 . S
C1279 H1273 0.950 . S
C1279 C1278 1.327 . S
C1279 C1283 1.429 . S
C1280 C1263 1.574 . S
C1280 H1274 0.949 1_545 S
C1280 C1284 1.368 . S
C1281 C1262 1.429 . S
C1281 C1275 1.429 . S
C1281 C1282 1.523 . S
C1282 C1263 1.368 . S
C1282 C1276 1.368 . S
C1282 C1281 1.523 . S
C1283 C1267 1.429 . S
C1283 C1279 1.429 . S
C1283 C1284 1.523 . S
C1284 C1268 1.368 . S
C1284 C1280 1.368 . S
C1284 C1283 1.523 . S
H1285 C1260 0.950 . S
H1286 C1262 0.950 . S
H1287 C1263 0.949 1_565 S
H1288 C1265 0.933 1_565 S
H1289 C1267 0.950 1_565 S
C1290 C1291 1.349 . S
C1290 C1292 1.327 . S
C1290 H1315 0.950 . S
C1291 C1290 1.349 . S
C1291 C1307 1.349 1_554 S
C1292 C1290 1.327 . S
C1292 C1311 1.429 . S
C1292 H1316 0.950 . S
C1293 C1310 1.574 . S
C1293 C1312 1.368 1_556 S
C1293 H1317 0.949 . S
H1294 C1298 0.949 . S
C1295 C1296 1.349 1_556 S
C1295 C1297 1.327 . S
C1295 H1318 0.950 . S
C1296 C1295 1.349 1_554 S
C1296 C1308 1.349 . S
C1297 C1295 1.327 . S
C1297 C1313 1.429 1_556 S
C1297 H1319 0.950 . S
C1298 H1294 0.949 . S
C1298 C1306 1.574 . S
C1298 C1314 1.368 . S
H1299 C1307 0.950 . S
H1300 C1305 0.950 . S
H1301 C1306 0.949 . S
H1302 C1308 0.950 . S
H1303 C1309 0.950 . S
H1304 C1310 0.949 . S
C1305 H1300 0.950 . S
C1305 C1307 1.327 . S
C1305 C1311 1.429 1_556 S
C1306 C1298 1.574 . S
C1306 H1301 0.949 . S
C1306 C1312 1.368 . S
C1307 C1291 1.349 1_556 S
C1307 H1299 0.950 . S
C1307 C1305 1.327 . S
C1308 C1296 1.349 . S
C1308 H1302 0.950 . S
C1308 C1309 1.327 . S
C1309 H1303 0.950 . S
C1309 C1308 1.327 . S
C1309 C1313 1.429 . S
C1310 C1293 1.574 . S
C1310 H1304 0.949 . S
C1310 C1314 1.368 1_556 S
C1311 C1292 1.429 . S
C1311 C1305 1.429 1_554 S
C1311 C1312 1.523 . S
C1312 C1293 1.368 1_554 S
C1312 C1306 1.368 . S
C1312 C1311 1.523 . S
C1313 C1297 1.429 1_554 S
C1313 C1309 1.429 . S
C1313 C1314 1.523 . S
C1314 C1298 1.368 . S
C1314 C1310 1.368 1_554 S
C1314 C1313 1.523 . S
H1315 C1290 0.950 . S
H1316 C1292 0.950 . S
H1317 C1293 0.949 . S
H1318 C1295 0.950 . S
H1319 C1297 0.950 . S
C1320 C1321 1.349 . S
C1320 C1322 1.327 . S
C1320 H1345 0.950 . S
C1321 C1320 1.349 . S
C1321 C1337 1.349 . S
C1322 C1320 1.327 . S
C1322 C1341 1.429 . S
C1322 H1346 0.950 . S
C1323 C1340 1.574 . S
C1323 C1342 1.368 . S
C1323 H1347 0.949 . S
H1324 C1328 0.949 . S
C1325 C1326 1.349 . S
C1325 C1327 1.327 . S
C1325 H1348 0.950 . S
C1326 C1325 1.349 . S
C1326 C1338 1.349 . S
C1327 C1325 1.327 . S
C1327 C1343 1.429 . S
C1327 H1349 0.950 . S
C1328 H1324 0.949 . S
C1328 C1336 1.574 . S
C1328 C1344 1.368 . S
H1329 C1337 0.950 . S
H1330 C1335 0.950 . S
H1331 C1336 0.949 . S
H1332 C1338 0.950 . S
H1333 C1339 0.950 . S
H1334 C1340 0.949 . S
C1335 H1330 0.950 . S
C1335 C1337 1.327 . S
C1335 C1341 1.429 . S
C1336 C1328 1.574 . S
C1336 H1331 0.949 . S
C1336 C1342 1.368 . S
C1337 C1321 1.349 . S
C1337 H1329 0.950 . S
C1337 C1335 1.327 . S
C1338 C1326 1.349 . S
C1338 H1332 0.950 . S
C1338 C1339 1.327 . S
C1339 H1333 0.950 . S
C1339 C1338 1.327 . S
C1339 C1343 1.429 . S
C1340 C1323 1.574 . S
C1340 H1334 0.949 . S
C1340 C1344 1.368 . S
C1341 C1322 1.429 . S
C1341 C1335 1.429 . S
C1341 C1342 1.523 . S
C1342 C1323 1.368 . S
C1342 C1336 1.368 . S
C1342 C1341 1.523 . S
C1343 C1327 1.429 . S
C1343 C1339 1.429 . S
C1343 C1344 1.523 . S
C1344 C1328 1.368 . S
C1344 C1340 1.368 . S
C1344 C1343 1.523 . S
H1345 C1320 0.950 . S
H1346 C1322 0.950 . S
H1347 C1323 0.949 . S
H1348 C1325 0.950 . S
H1349 C1327 0.950 . S
C1350 C1351 1.349 . S
C1350 C1352 1.327 . S
C1350 H1375 0.950 . S
C1351 C1350 1.349 . S
C1351 C1367 1.349 . S
C1352 C1350 1.327 . S
C1352 C1371 1.429 . S
C1352 H1376 0.950 . S
C1353 C1370 1.574 . S
C1353 C1372 1.368 . S
C1353 H1377 0.949 . S
H1354 C1358 0.949 . S
C1355 C1356 1.349 . S
C1355 C1357 1.327 . S
C1355 H1378 0.950 . S
C1356 C1355 1.349 . S
C1356 C1368 1.349 . S
C1357 C1355 1.327 . S
C1357 C1373 1.429 . S
C1357 H1379 0.950 . S
C1358 H1354 0.949 . S
C1358 C1366 1.574 . S
C1358 C1374 1.368 . S
H1359 C1367 0.950 . S
H1360 C1365 0.950 . S
H1361 C1366 0.949 . S
H1362 C1368 0.950 . S
H1363 C1369 0.950 . S
H1364 C1370 0.949 . S
C1365 H1360 0.950 . S
C1365 C1367 1.327 . S
C1365 C1371 1.429 . S
C1366 C1358 1.574 . S
C1366 H1361 0.949 . S
C1366 C1372 1.368 . S
C1367 C1351 1.349 . S
C1367 H1359 0.950 . S
C1367 C1365 1.327 . S
C1368 C1356 1.349 . S
C1368 H1362 0.950 . S
C1368 C1369 1.327 . S
C1369 H1363 0.950 . S
C1369 C1368 1.327 . S
C1369 C1373 1.429 . S
C1370 C1353 1.574 . S
C1370 H1364 0.949 . S
C1370 C1374 1.368 . S
C1371 C1352 1.429 . S
C1371 C1365 1.429 . S
C1371 C1372 1.523 . S
C1372 C1353 1.368 . S
C1372 C1366 1.368 . S
C1372 C1371 1.523 . S
C1373 C1357 1.429 . S
C1373 C1369 1.429 . S
C1373 C1374 1.523 . S
C1374 C1358 1.368 . S
C1374 C1370 1.368 . S
C1374 C1373 1.523 . S
H1375 C1350 0.950 . S
H1376 C1352 0.950 . S
H1377 C1353 0.949 . S
H1378 C1355 0.950 . S
H1379 C1357 0.950 . S
C1380 C1381 1.349 . S
C1380 C1382 1.327 . S
C1380 H1405 0.950 . S
C1381 C1380 1.349 . S
C1381 C1397 1.349 . S
C1382 C1380 1.327 . S
C1382 C1401 1.429 . S
C1382 H1406 0.950 . S
C1383 C1400 1.574 . S
C1383 C1402 1.368 . S
C1383 H1407 0.949 . S
H1384 C1388 0.949 . S
C1385 C1386 1.349 . S
C1385 C1387 1.327 . S
C1385 H1408 0.950 . S
C1386 C1385 1.349 . S
C1386 C1398 1.349 . S
C1387 C1385 1.327 . S
C1387 C1403 1.429 . S
C1387 H1409 0.950 . S
C1388 H1384 0.949 . S
C1388 C1396 1.574 . S
C1388 C1404 1.368 . S
H1389 C1397 0.950 . S
H1390 C1395 0.950 . S
H1391 C1396 0.949 . S
H1392 C1398 0.950 . S
H1393 C1399 0.950 . S
H1394 C1400 0.949 . S
C1395 H1390 0.950 . S
C1395 C1397 1.327 . S
C1395 C1401 1.429 . S
C1396 C1388 1.574 . S
C1396 H1391 0.949 . S
C1396 C1402 1.368 . S
C1397 C1381 1.349 . S
C1397 H1389 0.950 . S
C1397 C1395 1.327 . S
C1398 C1386 1.349 . S
C1398 H1392 0.950 . S
C1398 C1399 1.327 . S
C1399 H1393 0.950 . S
C1399 C1398 1.327 . S
C1399 C1403 1.429 . S
C1400 C1383 1.574 . S
C1400 H1394 0.949 . S
C1400 C1404 1.368 . S
C1401 C1382 1.429 . S
C1401 C1395 1.429 . S
C1401 C1402 1.523 . S
C1402 C1383 1.368 . S
C1402 C1396 1.368 . S
C1402 C1401 1.523 . S
C1403 C1387 1.429 . S
C1403 C1399 1.429 . S
C1403 C1404 1.523 . S
C1404 C1388 1.368 . S
C1404 C1400 1.368 . S
C1404 C1403 1.523 . S
H1405 C1380 0.950 . S
H1406 C1382 0.950 . S
H1407 C1383 0.949 . S
H1408 C1385 0.950 . S
H1409 C1387 0.950 . S
C1410 C1411 1.349 . S
C1410 C1412 1.327 . S
C1410 H1435 0.950 . S
C1411 C1410 1.349 . S
C1411 C1427 1.349 . S
C1412 C1410 1.327 . S
C1412 C1431 1.429 . S
C1412 H1436 0.950 . S
C1413 C1430 1.574 . S
C1413 C1432 1.368 . S
C1413 H1437 0.949 . S
H1414 C1418 0.949 . S
C1415 C1416 1.349 . S
C1415 C1417 1.327 . S
C1415 H1438 0.950 . S
C1416 C1415 1.349 . S
C1416 C1428 1.349 . S
C1417 C1415 1.327 . S
C1417 C1433 1.429 . S
C1417 H1439 0.950 . S
C1418 H1414 0.949 . S
C1418 C1426 1.574 . S
C1418 C1434 1.368 . S
H1419 C1427 0.950 . S
H1420 C1425 0.950 . S
H1421 C1426 0.949 . S
H1422 C1428 0.950 . S
H1423 C1429 0.950 . S
H1424 C1430 0.949 . S
C1425 H1420 0.950 . S
C1425 C1427 1.327 . S
C1425 C1431 1.429 . S
C1426 C1418 1.574 . S
C1426 H1421 0.949 . S
C1426 C1432 1.368 . S
C1427 C1411 1.349 . S
C1427 H1419 0.950 . S
C1427 C1425 1.327 . S
C1428 C1416 1.349 . S
C1428 H1422 0.950 . S
C1428 C1429 1.327 . S
C1429 H1423 0.950 . S
C1429 C1428 1.327 . S
C1429 C1433 1.429 . S
C1430 C1413 1.574 . S
C1430 H1424 0.949 . S
C1430 C1434 1.368 . S
C1431 C1412 1.429 . S
C1431 C1425 1.429 . S
C1431 C1432 1.523 . S
C1432 C1413 1.368 . S
C1432 C1426 1.368 . S
C1432 C1431 1.523 . S
C1433 C1417 1.429 . S
C1433 C1429 1.429 . S
C1433 C1434 1.523 . S
C1434 C1418 1.368 . S
C1434 C1430 1.368 . S
C1434 C1433 1.523 . S
H1435 C1410 0.950 . S
H1436 C1412 0.950 . S
H1437 C1413 0.949 . S
H1438 C1415 0.950 . S
H1439 C1417 0.950 . S
C1440 C1441 1.349 . S
C1440 C1442 1.327 . S
C1440 H1465 0.950 . S
C1441 C1440 1.349 . S
C1441 C1457 1.349 . S
C1442 C1440 1.327 . S
C1442 C1461 1.429 . S
C1442 H1466 0.950 . S
C1443 C1460 1.574 . S
C1443 C1462 1.368 . S
C1443 H1467 0.949 . S
H1444 C1448 0.949 . S
C1445 C1446 1.349 . S
C1445 C1447 1.327 . S
C1445 H1468 0.950 . S
C1446 C1445 1.349 . S
C1446 C1458 1.349 . S
C1447 C1445 1.327 . S
C1447 C1463 1.429 . S
C1447 H1469 0.950 . S
C1448 H1444 0.949 . S
C1448 C1456 1.574 . S
C1448 C1464 1.368 . S
H1449 C1457 0.950 . S
H1450 C1455 0.950 . S
H1451 C1456 0.949 . S
H1452 C1458 0.950 . S
H1453 C1459 0.950 . S
H1454 C1460 0.949 . S
C1455 H1450 0.950 . S
C1455 C1457 1.327 . S
C1455 C1461 1.429 . S
C1456 C1448 1.574 . S
C1456 H1451 0.949 . S
C1456 C1462 1.368 . S
C1457 C1441 1.349 . S
C1457 H1449 0.950 . S
C1457 C1455 1.327 . S
C1458 C1446 1.349 . S
C1458 H1452 0.950 . S
C1458 C1459 1.327 . S
C1459 H1453 0.950 . S
C1459 C1458 1.327 . S
C1459 C1463 1.429 . S
C1460 C1443 1.574 . S
C1460 H1454 0.949 . S
C1460 C1464 1.368 . S
C1461 C1442 1.429 . S
C1461 C1455 1.429 . S
C1461 C1462 1.523 . S
C1462 C1443 1.368 . S
C1462 C1456 1.368 . S
C1462 C1461 1.523 . S
C1463 C1447 1.429 . S
C1463 C1459 1.429 . S
C1463 C1464 1.523 . S
C1464 C1448 1.368 . S
C1464 C1460 1.368 . S
C1464 C1463 1.523 . S
H1465 C1440 0.950 . S
H1466 C1442 0.950 . S
H1467 C1443 0.949 . S
H1468 C1445 0.950 . S
H1469 C1447 0.950 . S
C1470 C1471 1.349 . S
C1470 C1472 1.327 . S
C1470 H1495 0.950 . S
C1471 C1470 1.349 . S
C1471 C1487 1.349 . S
C1472 C1470 1.327 . S
C1472 C1491 1.429 . S
C1472 H1496 0.950 . S
C1473 C1490 1.574 . S
C1473 C1492 1.368 . S
C1473 H1497 0.949 . S
H1474 C1478 0.949 . S
C1475 C1476 1.349 . S
C1475 C1477 1.327 . S
C1475 H1498 0.950 . S
C1476 C1475 1.349 . S
C1476 C1488 1.349 . S
C1477 C1475 1.327 . S
C1477 C1493 1.429 . S
C1477 H1499 0.950 . S
C1478 H1474 0.949 . S
C1478 C1486 1.574 . S
C1478 C1494 1.368 . S
H1479 C1487 0.950 . S
H1480 C1485 0.950 . S
H1481 C1486 0.949 . S
H1482 C1488 0.950 . S
H1483 C1489 0.950 . S
H1484 C1490 0.949 . S
C1485 H1480 0.950 . S
C1485 C1487 1.327 . S
C1485 C1491 1.429 . S
C1486 C1478 1.574 . S
C1486 H1481 0.949 . S
C1486 C1492 1.368 . S
C1487 C1471 1.349 . S
C1487 H1479 0.950 . S
C1487 C1485 1.327 . S
C1488 C1476 1.349 . S
C1488 H1482 0.950 . S
C1488 C1489 1.327 . S
C1489 H1483 0.950 . S
C1489 C1488 1.327 . S
C1489 C1493 1.429 . S
C1490 C1473 1.574 . S
C1490 H1484 0.949 . S
C1490 C1494 1.368 . S
C1491 C1472 1.429 . S
C1491 C1485 1.429 . S
C1491 C1492 1.523 . S
C1492 C1473 1.368 . S
C1492 C1486 1.368 . S
C1492 C1491 1.523 . S
C1493 C1477 1.429 . S
C1493 C1489 1.429 . S
C1493 C1494 1.523 . S
C1494 C1478 1.368 . S
C1494 C1490 1.368 . S
C1494 C1493 1.523 . S
H1495 C1470 0.950 . S
H1496 C1472 0.950 . S
H1497 C1473 0.949 . S
H1498 C1475 0.950 . S
H1499 C1477 0.950 . S
C1500 C1501 1.349 . S
C1500 C1502 1.327 . S
C1500 H1525 0.950 . S
C1501 C1500 1.349 . S
C1501 C1517 1.349 . S
C1502 C1500 1.327 . S
C1502 C1521 1.429 . S
C1502 H1526 0.950 . S
C1503 C1520 1.574 . S
C1503 C1522 1.368 . S
C1503 H1527 0.949 . S
H1504 C1508 0.949 . S
C1505 C1506 1.349 . S
C1505 C1507 1.327 . S
C1505 H1528 0.950 . S
C1506 C1505 1.349 . S
C1506 C1518 1.349 . S
C1507 C1505 1.327 . S
C1507 C1523 1.429 . S
C1507 H1529 0.950 . S
C1508 H1504 0.949 . S
C1508 C1516 1.574 . S
C1508 C1524 1.368 . S
H1509 C1517 0.950 . S
H1510 C1515 0.950 . S
H1511 C1516 0.949 . S
H1512 C1518 0.950 . S
H1513 C1519 0.950 . S
H1514 C1520 0.949 . S
C1515 H1510 0.950 . S
C1515 C1517 1.327 . S
C1515 C1521 1.429 . S
C1516 C1508 1.574 . S
C1516 H1511 0.949 . S
C1516 C1522 1.368 . S
C1517 C1501 1.349 . S
C1517 H1509 0.950 . S
C1517 C1515 1.327 . S
C1518 C1506 1.349 . S
C1518 H1512 0.950 . S
C1518 C1519 1.327 . S
C1519 H1513 0.950 . S
C1519 C1518 1.327 . S
C1519 C1523 1.429 . S
C1520 C1503 1.574 . S
C1520 H1514 0.949 . S
C1520 C1524 1.368 . S
C1521 C1502 1.429 . S
C1521 C1515 1.429 . S
C1521 C1522 1.523 . S
C1522 C1503 1.368 . S
C1522 C1516 1.368 . S
C1522 C1521 1.523 . S
C1523 C1507 1.429 . S
C1523 C1519 1.429 . S
C1523 C1524 1.523 . S
C1524 C1508 1.368 . S
C1524 C1520 1.368 . S
C1524 C1523 1.523 . S
H1525 C1500 0.950 . S
H1526 C1502 0.950 . S
H1527 C1503 0.949 . S
H1528 C1505 0.950 . S
H1529 C1507 0.950 . S
C1530 C1531 1.349 . S
C1530 C1532 1.327 . S
C1530 H1555 0.950 . S
C1531 C1530 1.349 . S
C1531 C1547 1.349 . S
C1532 C1530 1.327 . S
C1532 C1551 1.429 . S
C1532 H1556 0.950 . S
C1533 C1550 1.574 . S
C1533 C1552 1.368 . S
C1533 H1557 0.949 . S
H1534 C1538 0.949 . S
C1535 C1536 1.349 . S
C1535 C1537 1.327 . S
C1535 H1558 0.950 . S
C1536 C1535 1.349 . S
C1536 C1548 1.349 . S
C1537 C1535 1.327 . S
C1537 C1553 1.429 . S
C1537 H1559 0.950 . S
C1538 H1534 0.949 . S
C1538 C1546 1.574 . S
C1538 C1554 1.368 . S
H1539 C1547 0.950 . S
H1540 C1545 0.950 . S
H1541 C1546 0.949 . S
H1542 C1548 0.950 . S
H1543 C1549 0.950 . S
H1544 C1550 0.949 . S
C1545 H1540 0.950 . S
C1545 C1547 1.327 . S
C1545 C1551 1.429 . S
C1546 C1538 1.574 . S
C1546 H1541 0.949 . S
C1546 C1552 1.368 . S
C1547 C1531 1.349 . S
C1547 H1539 0.950 . S
C1547 C1545 1.327 . S
C1548 C1536 1.349 . S
C1548 H1542 0.950 . S
C1548 C1549 1.327 . S
C1549 H1543 0.950 . S
C1549 C1548 1.327 . S
C1549 C1553 1.429 . S
C1550 C1533 1.574 . S
C1550 H1544 0.949 . S
C1550 C1554 1.368 . S
C1551 C1532 1.429 . S
C1551 C1545 1.429 . S
C1551 C1552 1.523 . S
C1552 C1533 1.368 . S
C1552 C1546 1.368 . S
C1552 C1551 1.523 . S
C1553 C1537 1.429 . S
C1553 C1549 1.429 . S
C1553 C1554 1.523 . S
C1554 C1538 1.368 . S
C1554 C1550 1.368 . S
C1554 C1553 1.523 . S
H1555 C1530 0.950 . S
H1556 C1532 0.950 . S
H1557 C1533 0.949 . S
H1558 C1535 0.950 . S
H1559 C1537 0.950 . S
C1560 C1561 1.349 . S
C1560 C1562 1.327 . S
C1560 H1585 0.950 . S
C1561 C1560 1.349 . S
C1561 C1577 1.349 . S
C1562 C1560 1.327 . S
C1562 C1581 1.429 . S
C1562 H1586 0.950 . S
C1563 C1580 1.574 . S
C1563 C1582 1.368 . S
C1563 H1587 0.949 . S
H1564 C1568 0.949 . S
C1565 C1566 1.349 . S
C1565 C1567 1.327 . S
C1565 H1588 0.950 . S
C1566 C1565 1.349 . S
C1566 C1578 1.349 . S
C1567 C1565 1.327 . S
C1567 C1583 1.429 . S
C1567 H1589 0.950 . S
C1568 H1564 0.949 . S
C1568 C1576 1.574 . S
C1568 C1584 1.368 . S
H1569 C1577 0.950 . S
H1570 C1575 0.950 . S
H1571 C1576 0.949 . S
H1572 C1578 0.950 . S
H1573 C1579 0.950 . S
H1574 C1580 0.949 . S
C1575 H1570 0.950 . S
C1575 C1577 1.327 . S
C1575 C1581 1.429 . S
C1576 C1568 1.574 . S
C1576 H1571 0.949 . S
C1576 C1582 1.368 . S
C1577 C1561 1.349 . S
C1577 H1569 0.950 . S
C1577 C1575 1.327 . S
C1578 C1566 1.349 . S
C1578 H1572 0.950 . S
C1578 C1579 1.327 . S
C1579 H1573 0.950 . S
C1579 C1578 1.327 . S
C1579 C1583 1.429 . S
C1580 C1563 1.574 . S
C1580 H1574 0.949 . S
C1580 C1584 1.368 . S
C1581 C1562 1.429 . S
C1581 C1575 1.429 . S
C1581 C1582 1.523 . S
C1582 C1563 1.368 . S
C1582 C1576 1.368 . S
C1582 C1581 1.523 . S
C1583 C1567 1.429 . S
C1583 C1579 1.429 . S
C1583 C1584 1.523 . S
C1584 C1568 1.368 . S
C1584 C1580 1.368 . S
C1584 C1583 1.523 . S
H1585 C1560 0.950 . S
H1586 C1562 0.950 . S
H1587 C1563 0.949 . S
H1588 C1565 0.950 . S
H1589 C1567 0.950 . S
C1590 C1591 1.349 . S
C1590 C1592 1.327 . S
C1590 H1615 0.950 . S
C1591 C1590 1.349 . S
C1591 C1607 1.349 1_554 S
C1592 C1590 1.327 . S
C1592 C1611 1.429 . S
C1592 H1616 0.950 . S
C1593 C1610 1.574 . S
C1593 C1612 1.368 1_556 S
C1593 H1617 0.949 . S
H1594 C1598 0.949 . S
C1595 C1596 1.328 1_556 S
C1595 C1597 1.333 . S
C1595 H1618 0.966 . S
C1596 C1595 1.328 1_554 S
C1596 C1608 1.349 . S
C1597 C1595 1.333 . S
C1597 C1613 1.429 1_556 S
C1597 H1619 0.950 . S
C1598 H1594 0.949 . S
C1598 C1606 1.574 . S
C1598 C1614 1.368 . S
H1599 C1607 0.950 . S
H1600 C1605 0.950 . S
H1601 C1606 0.949 . S
H1602 C1608 0.950 . S
H1603 C1609 0.950 . S
H1604 C1610 0.949 . S
C1605 H1600 0.950 . S
C1605 C1607 1.327 . S
C1605 C1611 1.429 1_556 S
C1606 C1598 1.574 . S
C1606 H1601 0.949 . S
C1606 C1612 1.368 . S
C1607 C1591 1.349 1_556 S
C1607 H1599 0.950 . S
C1607 C1605 1.327 . S
C1608 C1596 1.349 . S
C1608 H1602 0.950 . S
C1608 C1609 1.327 . S
C1609 H1603 0.950 . S
C1609 C1608 1.327 . S
C1609 C1613 1.429 . S
C1610 C1593 1.574 . S
C1610 H1604 0.949 . S
C1610 C1614 1.368 1_556 S
C1611 C1592 1.429 . S
C1611 C1605 1.429 1_554 S
C1611 C1612 1.523 . S
C1612 C1593 1.368 1_554 S
C1612 C1606 1.368 . S
C1612 C1611 1.523 . S
C1613 C1597 1.429 1_554 S
C1613 C1609 1.429 . S
C1613 C1614 1.523 . S
C1614 C1598 1.368 . S
C1614 C1610 1.368 1_554 S
C1614 C1613 1.523 . S
H1615 C1590 0.950 . S
H1616 C1592 0.950 . S
H1617 C1593 0.949 . S
H1618 C1595 0.966 . S
H1619 C1597 0.950 . S
C1620 C1621 1.349 . S
C1620 C1622 1.327 . S
C1620 H1645 0.950 . S
C1621 C1620 1.349 . S
C1621 C1637 1.349 . S
C1622 C1620 1.327 . S
C1622 C1641 1.429 . S
C1622 H1646 0.950 . S
C1623 C1640 1.574 . S
C1623 C1642 1.368 . S
C1623 H1647 0.949 . S
H1624 C1628 0.949 . S
C1625 C1626 1.349 . S
C1625 C1627 1.327 . S
C1625 H1648 0.950 . S
C1626 C1625 1.349 . S
C1626 C1638 1.349 . S
C1627 C1625 1.327 . S
C1627 C1643 1.429 . S
C1627 H1649 0.950 . S
C1628 H1624 0.949 . S
C1628 C1636 1.574 . S
C1628 C1644 1.368 . S
H1629 C1637 0.950 . S
H1630 C1635 0.950 . S
H1631 C1636 0.949 . S
H1632 C1638 0.950 . S
H1633 C1639 0.950 . S
H1634 C1640 0.949 . S
C1635 H1630 0.950 . S
C1635 C1637 1.327 . S
C1635 C1641 1.429 . S
C1636 C1628 1.574 . S
C1636 H1631 0.949 . S
C1636 C1642 1.368 . S
C1637 C1621 1.349 . S
C1637 H1629 0.950 . S
C1637 C1635 1.327 . S
C1638 C1626 1.349 . S
C1638 H1632 0.950 . S
C1638 C1639 1.327 . S
C1639 H1633 0.950 . S
C1639 C1638 1.327 . S
C1639 C1643 1.429 . S
C1640 C1623 1.574 . S
C1640 H1634 0.949 . S
C1640 C1644 1.368 . S
C1641 C1622 1.429 . S
C1641 C1635 1.429 . S
C1641 C1642 1.523 . S
C1642 C1623 1.368 . S
C1642 C1636 1.368 . S
C1642 C1641 1.523 . S
C1643 C1627 1.429 . S
C1643 C1639 1.429 . S
C1643 C1644 1.523 . S
C1644 C1628 1.368 . S
C1644 C1640 1.368 . S
C1644 C1643 1.523 . S
H1645 C1620 0.950 . S
H1646 C1622 0.950 . S
H1647 C1623 0.949 . S
H1648 C1625 0.950 . S
H1649 C1627 0.950 . S
C1650 C1651 1.349 . S
C1650 C1652 1.327 . S
C1650 H1675 0.950 . S
C1651 C1650 1.349 . S
C1651 C1667 1.349 . S
C1652 C1650 1.327 . S
C1652 C1671 1.429 . S
C1652 H1676 0.950 . S
C1653 C1670 1.574 . S
C1653 C1672 1.368 . S
C1653 H1677 0.949 . S
H1654 C1658 0.949 . S
C1655 C1656 1.349 . S
C1655 C1657 1.327 . S
C1655 H1678 0.950 . S
C1656 C1655 1.349 . S
C1656 C1668 1.349 . S
C1657 C1655 1.327 . S
C1657 C1673 1.429 . S
C1657 H1679 0.950 . S
C1658 H1654 0.949 . S
C1658 C1666 1.574 . S
C1658 C1674 1.368 . S
H1659 C1667 0.950 . S
H1660 C1665 0.950 . S
H1661 C1666 0.949 . S
H1662 C1668 0.950 . S
H1663 C1669 0.950 . S
H1664 C1670 0.949 . S
C1665 H1660 0.950 . S
C1665 C1667 1.327 . S
C1665 C1671 1.429 . S
C1666 C1658 1.574 . S
C1666 H1661 0.949 . S
C1666 C1672 1.368 . S
C1667 C1651 1.349 . S
C1667 H1659 0.950 . S
C1667 C1665 1.327 . S
C1668 C1656 1.349 . S
C1668 H1662 0.950 . S
C1668 C1669 1.327 . S
C1669 H1663 0.950 . S
C1669 C1668 1.327 . S
C1669 C1673 1.429 . S
C1670 C1653 1.574 . S
C1670 H1664 0.949 . S
C1670 C1674 1.368 . S
C1671 C1652 1.429 . S
C1671 C1665 1.429 . S
C1671 C1672 1.523 . S
C1672 C1653 1.368 . S
C1672 C1666 1.368 . S
C1672 C1671 1.523 . S
C1673 C1657 1.429 . S
C1673 C1669 1.429 . S
C1673 C1674 1.523 . S
C1674 C1658 1.368 . S
C1674 C1670 1.368 . S
C1674 C1673 1.523 . S
H1675 C1650 0.950 . S
H1676 C1652 0.950 . S
H1677 C1653 0.949 . S
H1678 C1655 0.950 . S
H1679 C1657 0.950 . S
C1680 C1681 1.349 . S
C1680 C1682 1.327 . S
C1680 H1705 0.950 . S
C1681 C1680 1.349 . S
C1681 C1697 1.349 . S
C1682 C1680 1.327 . S
C1682 C1701 1.429 . S
C1682 H1706 0.950 . S
C1683 C1700 1.574 . S
C1683 C1702 1.368 . S
C1683 H1707 0.949 . S
H1684 C1688 0.949 . S
C1685 C1686 1.349 . S
C1685 C1687 1.327 . S
C1685 H1708 0.950 . S
C1686 C1685 1.349 . S
C1686 C1698 1.349 . S
C1687 C1685 1.327 . S
C1687 C1703 1.429 . S
C1687 H1709 0.950 . S
C1688 H1684 0.949 . S
C1688 C1696 1.574 . S
C1688 C1704 1.368 . S
H1689 C1697 0.950 . S
H1690 C1695 0.950 . S
H1691 C1696 0.949 . S
H1692 C1698 0.950 . S
H1693 C1699 0.950 . S
H1694 C1700 0.949 . S
C1695 H1690 0.950 . S
C1695 C1697 1.327 . S
C1695 C1701 1.429 . S
C1696 C1688 1.574 . S
C1696 H1691 0.949 . S
C1696 C1702 1.368 . S
C1697 C1681 1.349 . S
C1697 H1689 0.950 . S
C1697 C1695 1.327 . S
C1698 C1686 1.349 . S
C1698 H1692 0.950 . S
C1698 C1699 1.327 . S
C1699 H1693 0.950 . S
C1699 C1698 1.327 . S
C1699 C1703 1.429 . S
C1700 C1683 1.574 . S
C1700 H1694 0.949 . S
C1700 C1704 1.368 . S
C1701 C1682 1.429 . S
C1701 C1695 1.429 . S
C1701 C1702 1.523 . S
C1702 C1683 1.368 . S
C1702 C1696 1.368 . S
C1702 C1701 1.523 . S
C1703 C1687 1.429 . S
C1703 C1699 1.429 . S
C1703 C1704 1.523 . S
C1704 C1688 1.368 . S
C1704 C1700 1.368 . S
C1704 C1703 1.523 . S
H1705 C1680 0.950 . S
H1706 C1682 0.950 . S
H1707 C1683 0.949 . S
H1708 C1685 0.950 . S
H1709 C1687 0.950 . S
C1710 C1711 1.349 . S
C1710 C1712 1.327 . S
C1710 H1735 0.950 . S
C1711 C1710 1.349 . S
C1711 C1727 1.349 . S
C1712 C1710 1.327 . S
C1712 C1731 1.429 . S
C1712 H1736 0.950 . S
C1713 C1730 1.574 . S
C1713 C1732 1.368 . S
C1713 H1737 0.949 . S
H1714 C1718 0.949 . S
C1715 C1716 1.349 . S
C1715 C1717 1.327 . S
C1715 H1738 0.950 . S
C1716 C1715 1.349 . S
C1716 C1728 1.349 . S
C1717 C1715 1.327 . S
C1717 C1733 1.429 . S
C1717 H1739 0.950 . S
C1718 H1714 0.949 . S
C1718 C1726 1.574 . S
C1718 C1734 1.368 . S
H1719 C1727 0.950 . S
H1720 C1725 0.950 . S
H1721 C1726 0.949 . S
H1722 C1728 0.950 . S
H1723 C1729 0.950 . S
H1724 C1730 0.949 . S
C1725 H1720 0.950 . S
C1725 C1727 1.327 . S
C1725 C1731 1.429 . S
C1726 C1718 1.574 . S
C1726 H1721 0.949 . S
C1726 C1732 1.368 . S
C1727 C1711 1.349 . S
C1727 H1719 0.950 . S
C1727 C1725 1.327 . S
C1728 C1716 1.349 . S
C1728 H1722 0.950 . S
C1728 C1729 1.327 . S
C1729 H1723 0.950 . S
C1729 C1728 1.327 . S
C1729 C1733 1.429 . S
C1730 C1713 1.574 . S
C1730 H1724 0.949 . S
C1730 C1734 1.368 . S
C1731 C1712 1.429 . S
C1731 C1725 1.429 . S
C1731 C1732 1.523 . S
C1732 C1713 1.368 . S
C1732 C1726 1.368 . S
C1732 C1731 1.523 . S
C1733 C1717 1.429 . S
C1733 C1729 1.429 . S
C1733 C1734 1.523 . S
C1734 C1718 1.368 . S
C1734 C1730 1.368 . S
C1734 C1733 1.523 . S
H1735 C1710 0.950 . S
H1736 C1712 0.950 . S
H1737 C1713 0.949 . S
H1738 C1715 0.950 . S
H1739 C1717 0.950 . S
C1740 C1741 1.333 1_554 S
C1740 C1742 1.331 . S
C1740 H1765 0.962 . S
C1741 C1740 1.333 1_556 S
C1741 C1757 1.349 . S
C1742 C1740 1.331 . S
C1742 C1761 1.429 1_554 S
C1742 H1766 0.950 . S
C1743 C1760 1.574 . S
C1743 C1762 1.368 . S
C1743 H1767 0.949 . S
H1744 C1748 0.949 . S
C1745 C1746 1.349 . S
C1745 C1747 1.327 . S
C1745 H1768 0.950 . S
C1746 C1745 1.349 . S
C1746 C1758 1.349 1_556 S
C1747 C1745 1.327 . S
C1747 C1763 1.429 . S
C1747 H1769 0.950 . S
C1748 H1744 0.949 . S
C1748 C1756 1.574 . S
C1748 C1764 1.368 1_554 S
H1749 C1757 0.950 . S
H1750 C1755 0.950 . S
H1751 C1756 0.949 . S
H1752 C1758 0.950 . S
H1753 C1759 0.950 . S
H1754 C1760 0.949 . S
C1755 H1750 0.950 . S
C1755 C1757 1.327 . S
C1755 C1761 1.429 . S
C1756 C1748 1.574 . S
C1756 H1751 0.949 . S
C1756 C1762 1.368 1_554 S
C1757 C1741 1.349 . S
C1757 H1749 0.950 . S
C1757 C1755 1.327 . S
C1758 C1746 1.349 1_554 S
C1758 H1752 0.950 . S
C1758 C1759 1.327 . S
C1759 H1753 0.950 . S
C1759 C1758 1.327 . S
C1759 C1763 1.429 1_554 S
C1760 C1743 1.574 . S
C1760 H1754 0.949 . S
C1760 C1764 1.368 . S
C1761 C1742 1.429 1_556 S
C1761 C1755 1.429 . S
C1761 C1762 1.523 . S
C1762 C1743 1.368 . S
C1762 C1756 1.368 1_556 S
C1762 C1761 1.523 . S
C1763 C1747 1.429 . S
C1763 C1759 1.429 1_556 S
C1763 C1764 1.523 . S
C1764 C1748 1.368 1_556 S
C1764 C1760 1.368 . S
C1764 C1763 1.523 . S
H1765 C1740 0.962 . S
H1766 C1742 0.950 . S
H1767 C1743 0.949 . S
H1768 C1745 0.950 . S
H1769 C1747 0.950 . S
C1770 C1771 1.349 . S
C1770 C1772 1.327 . S
C1770 H1795 0.950 . S
C1771 C1770 1.349 . S
C1771 C1787 1.349 . S
C1772 C1770 1.327 . S
C1772 C1791 1.429 . S
C1772 H1796 0.950 . S
C1773 C1790 1.574 . S
C1773 C1792 1.368 . S
C1773 H1797 0.949 . S
H1774 C1778 0.949 . S
C1775 C1776 1.349 . S
C1775 C1777 1.327 . S
C1775 H1798 0.950 . S
C1776 C1775 1.349 . S
C1776 C1788 1.349 . S
C1777 C1775 1.327 . S
C1777 C1793 1.429 . S
C1777 H1799 0.950 . S
C1778 H1774 0.949 . S
C1778 C1786 1.574 . S
C1778 C1794 1.368 . S
H1779 C1787 0.950 . S
H1780 C1785 0.950 . S
H1781 C1786 0.949 . S
H1782 C1788 0.950 . S
H1783 C1789 0.950 . S
H1784 C1790 0.949 . S
C1785 H1780 0.950 . S
C1785 C1787 1.327 . S
C1785 C1791 1.429 . S
C1786 C1778 1.574 . S
C1786 H1781 0.949 . S
C1786 C1792 1.368 . S
C1787 C1771 1.349 . S
C1787 H1779 0.950 . S
C1787 C1785 1.327 . S
C1788 C1776 1.349 . S
C1788 H1782 0.950 . S
C1788 C1789 1.327 . S
C1789 H1783 0.950 . S
C1789 C1788 1.327 . S
C1789 C1793 1.429 . S
C1790 C1773 1.574 . S
C1790 H1784 0.949 . S
C1790 C1794 1.368 . S
C1791 C1772 1.429 . S
C1791 C1785 1.429 . S
C1791 C1792 1.523 . S
C1792 C1773 1.368 . S
C1792 C1786 1.368 . S
C1792 C1791 1.523 . S
C1793 C1777 1.429 . S
C1793 C1789 1.429 . S
C1793 C1794 1.523 . S
C1794 C1778 1.368 . S
C1794 C1790 1.368 . S
C1794 C1793 1.523 . S
H1795 C1770 0.950 . S
H1796 C1772 0.950 . S
H1797 C1773 0.949 . S
H1798 C1775 0.950 . S
H1799 C1777 0.950 . S
C1800 C1801 1.349 . S
C1800 C1802 1.327 . S
C1800 H1825 0.950 . S
C1801 C1800 1.349 . S
C1801 C1817 1.349 . S
C1802 C1800 1.327 . S
C1802 C1821 1.429 . S
C1802 H1826 0.950 . S
C1803 C1820 1.574 . S
C1803 C1822 1.368 . S
C1803 H1827 0.949 . S
H1804 C1808 0.949 . S
C1805 C1806 1.349 . S
C1805 C1807 1.327 . S
C1805 H1828 0.950 . S
C1806 C1805 1.349 . S
C1806 C1818 1.349 . S
C1807 C1805 1.327 . S
C1807 C1823 1.429 . S
C1807 H1829 0.950 . S
C1808 H1804 0.949 . S
C1808 C1816 1.574 . S
C1808 C1824 1.368 . S
H1809 C1817 0.950 . S
H1810 C1815 0.950 . S
H1811 C1816 0.949 . S
H1812 C1818 0.950 . S
H1813 C1819 0.950 . S
H1814 C1820 0.949 . S
C1815 H1810 0.950 . S
C1815 C1817 1.327 . S
C1815 C1821 1.429 . S
C1816 C1808 1.574 . S
C1816 H1811 0.949 . S
C1816 C1822 1.368 . S
C1817 C1801 1.349 . S
C1817 H1809 0.950 . S
C1817 C1815 1.327 . S
C1818 C1806 1.349 . S
C1818 H1812 0.950 . S
C1818 C1819 1.327 . S
C1819 H1813 0.950 . S
C1819 C1818 1.327 . S
C1819 C1823 1.429 . S
C1820 C1803 1.574 . S
C1820 H1814 0.949 . S
C1820 C1824 1.368 . S
C1821 C1802 1.429 . S
C1821 C1815 1.429 . S
C1821 C1822 1.523 . S
C1822 C1803 1.368 . S
C1822 C1816 1.368 . S
C1822 C1821 1.523 . S
C1823 C1807 1.429 . S
C1823 C1819 1.429 . S
C1823 C1824 1.523 . S
C1824 C1808 1.368 . S
C1824 C1820 1.368 . S
C1824 C1823 1.523 . S
H1825 C1800 0.950 . S
H1826 C1802 0.950 . S
H1827 C1803 0.949 . S
H1828 C1805 0.950 . S
H1829 C1807 0.950 . S
C1830 C1831 1.349 . S
C1830 C1832 1.327 . S
C1830 H1855 0.950 . S
C1831 C1830 1.349 . S
C1831 C1847 1.349 . S
C1832 C1830 1.327 . S
C1832 C1851 1.429 . S
C1832 H1856 0.950 . S
C1833 C1850 1.574 . S
C1833 C1852 1.368 . S
C1833 H1857 0.949 . S
H1834 C1838 0.949 . S
C1835 C1836 1.349 . S
C1835 C1837 1.327 . S
C1835 H1858 0.950 . S
C1836 C1835 1.349 . S
C1836 C1848 1.349 . S
C1837 C1835 1.327 . S
C1837 C1853 1.429 . S
C1837 H1859 0.950 . S
C1838 H1834 0.949 . S
C1838 C1846 1.574 . S
C1838 C1854 1.368 . S
H1839 C1847 0.950 . S
H1840 C1845 0.950 . S
H1841 C1846 0.949 . S
H1842 C1848 0.950 . S
H1843 C1849 0.950 . S
H1844 C1850 0.949 . S
C1845 H1840 0.950 . S
C1845 C1847 1.327 . S
C1845 C1851 1.429 . S
C1846 C1838 1.574 . S
C1846 H1841 0.949 . S
C1846 C1852 1.368 . S
C1847 C1831 1.349 . S
C1847 H1839 0.950 . S
C1847 C1845 1.327 . S
C1848 C1836 1.349 . S
C1848 H1842 0.950 . S
C1848 C1849 1.327 . S
C1849 H1843 0.950 . S
C1849 C1848 1.327 . S
C1849 C1853 1.429 . S
C1850 C1833 1.574 . S
C1850 H1844 0.949 . S
C1850 C1854 1.368 . S
C1851 C1832 1.429 . S
C1851 C1845 1.429 . S
C1851 C1852 1.523 . S
C1852 C1833 1.368 . S
C1852 C1846 1.368 . S
C1852 C1851 1.523 . S
C1853 C1837 1.429 . S
C1853 C1849 1.429 . S
C1853 C1854 1.523 . S
C1854 C1838 1.368 . S
C1854 C1850 1.368 . S
C1854 C1853 1.523 . S
H1855 C1830 0.950 . S
H1856 C1832 0.950 . S
H1857 C1833 0.949 . S
H1858 C1835 0.950 . S
H1859 C1837 0.950 . S
C1860 C1861 1.349 . S
C1860 C1862 1.327 . S
C1860 H1885 0.950 . S
C1861 C1860 1.349 . S
C1861 C1877 1.349 . S
C1862 C1860 1.327 . S
C1862 C1881 1.429 . S
C1862 H1886 0.950 . S
C1863 C1880 1.574 . S
C1863 C1882 1.368 . S
C1863 H1887 0.949 . S
H1864 C1868 0.949 . S
C1865 C1866 1.349 . S
C1865 C1867 1.327 . S
C1865 H1888 0.950 . S
C1866 C1865 1.349 . S
C1866 C1878 1.349 . S
C1867 C1865 1.327 . S
C1867 C1883 1.429 . S
C1867 H1889 0.950 . S
C1868 H1864 0.949 . S
C1868 C1876 1.574 . S
C1868 C1884 1.368 . S
H1869 C1877 0.950 . S
H1870 C1875 0.950 . S
H1871 C1876 0.949 . S
H1872 C1878 0.950 . S
H1873 C1879 0.950 . S
H1874 C1880 0.949 . S
C1875 H1870 0.950 . S
C1875 C1877 1.327 . S
C1875 C1881 1.429 . S
C1876 C1868 1.574 . S
C1876 H1871 0.949 . S
C1876 C1882 1.368 . S
C1877 C1861 1.349 . S
C1877 H1869 0.950 . S
C1877 C1875 1.327 . S
C1878 C1866 1.349 . S
C1878 H1872 0.950 . S
C1878 C1879 1.327 . S
C1879 H1873 0.950 . S
C1879 C1878 1.327 . S
C1879 C1883 1.429 . S
C1880 C1863 1.574 . S
C1880 H1874 0.949 . S
C1880 C1884 1.368 . S
C1881 C1862 1.429 . S
C1881 C1875 1.429 . S
C1881 C1882 1.523 . S
C1882 C1863 1.368 . S
C1882 C1876 1.368 . S
C1882 C1881 1.523 . S
C1883 C1867 1.429 . S
C1883 C1879 1.429 . S
C1883 C1884 1.523 . S
C1884 C1868 1.368 . S
C1884 C1880 1.368 . S
C1884 C1883 1.523 . S
H1885 C1860 0.950 . S
H1886 C1862 0.950 . S
H1887 C1863 0.949 . S
H1888 C1865 0.950 . S
H1889 C1867 0.950 . S
C1890 C1891 1.349 . S
C1890 C1892 1.327 . S
C1890 H1915 0.950 . S
C1891 C1890 1.349 . S
C1891 C1907 1.349 . S
C1892 C1890 1.327 . S
C1892 C1911 1.429 . S
C1892 H1916 0.950 . S
C1893 C1910 1.574 . S
C1893 C1912 1.368 . S
C1893 H1917 0.949 . S
H1894 C1898 0.949 . S
C1895 C1896 1.349 . S
C1895 C1897 1.327 . S
C1895 H1918 0.950 . S
C1896 C1895 1.349 . S
C1896 C1908 1.349 . S
C1897 C1895 1.327 . S
C1897 C1913 1.429 . S
C1897 H1919 0.950 . S
C1898 H1894 0.949 . S
C1898 C1906 1.574 . S
C1898 C1914 1.368 . S
H1899 C1907 0.950 . S
H1900 C1905 0.950 . S
H1901 C1906 0.949 . S
H1902 C1908 0.950 . S
H1903 C1909 0.950 . S
H1904 C1910 0.949 . S
C1905 H1900 0.950 . S
C1905 C1907 1.327 . S
C1905 C1911 1.429 . S
C1906 C1898 1.574 . S
C1906 H1901 0.949 . S
C1906 C1912 1.368 . S
C1907 C1891 1.349 . S
C1907 H1899 0.950 . S
C1907 C1905 1.327 . S
C1908 C1896 1.349 . S
C1908 H1902 0.950 . S
C1908 C1909 1.327 . S
C1909 H1903 0.950 . S
C1909 C1908 1.327 . S
C1909 C1913 1.429 . S
C1910 C1893 1.574 . S
C1910 H1904 0.949 . S
C1910 C1914 1.368 . S
C1911 C1892 1.429 . S
C1911 C1905 1.429 . S
C1911 C1912 1.523 . S
C1912 C1893 1.368 . S
C1912 C1906 1.368 . S
C1912 C1911 1.523 . S
C1913 C1897 1.429 . S
C1913 C1909 1.429 . S
C1913 C1914 1.523 . S
C1914 C1898 1.368 . S
C1914 C1910 1.368 . S
C1914 C1913 1.523 . S
H1915 C1890 0.950 . S
H1916 C1892 0.950 . S
H1917 C1893 0.949 . S
H1918 C1895 0.950 . S
H1919 C1897 0.950 . S
C481 C1 0.866 . S
C486 C46 0.865 . S
C511 C61 0.426 . S
C516 N44 0.373 . S
C541 N104 0.201 . S
C546 N66 0.140 . S
C571 N6 0.368 . S
C576 C106 0.401 . S
C601 N14 0.368 . S
C606 C297 0.389 . S
C631 C220 0.866 . S
C636 C57 0.872 . S
C661 C70 0.426 . S
C666 N306 0.368 . S
C691 N96 0.201 . S
C696 N404 0.131 . S
C721 C250 0.426 . S
C726 N36 0.362 . S
C751 N366 0.201 . S
C756 N74 0.138 . S
C781 N434 0.368 . S
C786 C117 0.395 . S
C811 C10 0.866 . S
C816 C357 0.879 . S
C841 C27 0.869 . S
C846 C256 0.858 . S
C871 C361 0.908 . S
C876 C130 0.916 . S
C901 C177 0.865 . S
C906 C436 0.872 . S
C931 C340 0.916 . S
C936 C181 0.904 . S
C961 C87 0.865 . S
C966 C226 0.872 . S
C991 C280 0.908 . S
C996 C121 0.920 . S
C1021 C190 0.908 . S
C1026 C301 0.916 . S
C1051 C160 0.426 . S
C1056 N336 0.364 . S
C1081 N276 0.201 . S
C1086 N164 0.136 . S
C1111 C346 0.872 . S
C1116 C211 0.866 . S
C1141 C151 0.426 . S
C1146 N134 0.368 . S
C1171 N284 0.201 . S
C1176 N246 0.145 . S
C1201 C391 0.426 . S
C1206 N344 0.375 . S
C1231 N194 0.201 . S
C1236 N156 0.138 . S
C1261 C286 0.395 . S
C1266 N426 0.368 . S
C1291 C417 0.865 . S
C1296 C16 0.876 . S
C1321 C76 0.865 . S
C1326 C447 0.865 . S
C1351 C370 0.908 . S
C1356 C31 0.919 . S
C1381 C237 0.869 . S
C1386 C166 0.861 . S
C1411 C91 0.908 . S
C1416 C310 0.912 . S
C1441 N374 0.201 . S
C1446 N396 0.143 . S
C1471 N216 0.368 . S
C1476 C376 0.398 . S
C1501 C207 0.395 . S
C1506 N224 0.364 . S
C1531 N126 0.368 . S
C1536 C400 0.425 . S
C1561 C387 0.395 . S
C1566 N464 0.364 . S
C1591 C466 0.869 . S
C1596 C267 0.865 . S
C1621 C40 0.916 . S
C1626 C271 0.901 . S
C1651 N254 0.138 . S
C1656 N186 0.196 . S
C1681 C241 0.426 . S
C1686 N314 0.371 . S
C1711 N456 0.368 . S
C1716 C196 0.398 . S
C1741 C406 0.865 . S
C1746 C477 0.869 . S
C1771 C331 0.916 . S
C1776 C100 0.915 . S
C1801 C316 0.872 . S
C1806 C421 0.862 . S
C1831 C327 0.872 . S
C1836 C460 0.869 . S
C1861 C147 0.872 . S
C1866 C430 0.869 . S
C1891 C451 0.866 . S
C1896 C136 0.868 . S
