# Generated by pormake.
# Topology lta, (4)-cn, num edge types: 1
# Building blocks:
#     Node 0, Type 0, BuildingBlock: ICAMEG_clean_sbu_1, # of connection points: 4
#     Node 1, Type 0, BuildingBlock: ICAMEG_clean_sbu_1, # of connection points: 4
#     Node 2, Type 0, BuildingBlock: ICAMEG_clean_sbu_1, # of connection points: 4
#     Node 3, Type 0, BuildingBlock: ICAMEG_clean_sbu_1, # of connection points: 4
#     Node 4, Type 0, BuildingBlock: ICAMEG_clean_sbu_1, # of connection points: 4
#     Node 5, Type 0, BuildingBlock: ICAMEG_clean_sbu_1, # of connection points: 4
#     Node 6, Type 0, BuildingBlock: ICAMEG_clean_sbu_1, # of connection points: 4
#     Node 7, Type 0, BuildingBlock: ICAMEG_clean_sbu_1, # of connection points: 4
#     Node 8, Type 0, BuildingBlock: ICAMEG_clean_sbu_1, # of connection points: 4
#     Node 9, Type 0, BuildingBlock: ICAMEG_clean_sbu_1, # of connection points: 4
#     Node 10, Type 0, BuildingBlock: ICAMEG_clean_sbu_1, # of connection points: 4
#     Node 11, Type 0, BuildingBlock: ICAMEG_clean_sbu_1, # of connection points: 4
#     Node 12, Type 0, BuildingBlock: ICAMEG_clean_sbu_1, # of connection points: 4
#     Node 13, Type 0, BuildingBlock: ICAMEG_clean_sbu_1, # of connection points: 4
#     Node 14, Type 0, BuildingBlock: ICAMEG_clean_sbu_1, # of connection points: 4
#     Node 15, Type 0, BuildingBlock: ICAMEG_clean_sbu_1, # of connection points: 4
#     Node 16, Type 0, BuildingBlock: ICAMEG_clean_sbu_1, # of connection points: 4
#     Node 17, Type 0, BuildingBlock: ICAMEG_clean_sbu_1, # of connection points: 4
#     Node 18, Type 0, BuildingBlock: ICAMEG_clean_sbu_1, # of connection points: 4
#     Node 19, Type 0, BuildingBlock: ICAMEG_clean_sbu_1, # of connection points: 4
#     Node 20, Type 0, BuildingBlock: ICAMEG_clean_sbu_1, # of connection points: 4
#     Node 21, Type 0, BuildingBlock: ICAMEG_clean_sbu_1, # of connection points: 4
#     Node 22, Type 0, BuildingBlock: ICAMEG_clean_sbu_1, # of connection points: 4
#     Node 23, Type 0, BuildingBlock: ICAMEG_clean_sbu_1, # of connection points: 4
#     Edge 24, Type (0, 0), BuildingBlock: AJUNOK_clean_linker_0, # of connection points: 2
#     Edge 25, Type (0, 0), BuildingBlock: AJUNOK_clean_linker_0, # of connection points: 2
#     Edge 26, Type (0, 0), BuildingBlock: AJUNOK_clean_linker_0, # of connection points: 2
#     Edge 27, Type (0, 0), BuildingBlock: AJUNOK_clean_linker_0, # of connection points: 2
#     Edge 28, Type (0, 0), BuildingBlock: AJUNOK_clean_linker_0, # of connection points: 2
#     Edge 29, Type (0, 0), BuildingBlock: AJUNOK_clean_linker_0, # of connection points: 2
#     Edge 30, Type (0, 0), BuildingBlock: AJUNOK_clean_linker_0, # of connection points: 2
#     Edge 31, Type (0, 0), BuildingBlock: AJUNOK_clean_linker_0, # of connection points: 2
#     Edge 32, Type (0, 0), BuildingBlock: AJUNOK_clean_linker_0, # of connection points: 2
#     Edge 33, Type (0, 0), BuildingBlock: AJUNOK_clean_linker_0, # of connection points: 2
#     Edge 34, Type (0, 0), BuildingBlock: AJUNOK_clean_linker_0, # of connection points: 2
#     Edge 35, Type (0, 0), BuildingBlock: AJUNOK_clean_linker_0, # of connection points: 2
#     Edge 36, Type (0, 0), BuildingBlock: AJUNOK_clean_linker_0, # of connection points: 2
#     Edge 37, Type (0, 0), BuildingBlock: AJUNOK_clean_linker_0, # of connection points: 2
#     Edge 38, Type (0, 0), BuildingBlock: AJUNOK_clean_linker_0, # of connection points: 2
#     Edge 39, Type (0, 0), BuildingBlock: AJUNOK_clean_linker_0, # of connection points: 2
#     Edge 40, Type (0, 0), BuildingBlock: AJUNOK_clean_linker_0, # of connection points: 2
#     Edge 41, Type (0, 0), BuildingBlock: AJUNOK_clean_linker_0, # of connection points: 2
#     Edge 42, Type (0, 0), BuildingBlock: AJUNOK_clean_linker_0, # of connection points: 2
#     Edge 43, Type (0, 0), BuildingBlock: AJUNOK_clean_linker_0, # of connection points: 2
#     Edge 44, Type (0, 0), BuildingBlock: AJUNOK_clean_linker_0, # of connection points: 2
#     Edge 45, Type (0, 0), BuildingBlock: AJUNOK_clean_linker_0, # of connection points: 2
#     Edge 46, Type (0, 0), BuildingBlock: AJUNOK_clean_linker_0, # of connection points: 2
#     Edge 47, Type (0, 0), BuildingBlock: AJUNOK_clean_linker_0, # of connection points: 2
#     Edge 48, Type (0, 0), BuildingBlock: AJUNOK_clean_linker_0, # of connection points: 2
#     Edge 49, Type (0, 0), BuildingBlock: AJUNOK_clean_linker_0, # of connection points: 2
#     Edge 50, Type (0, 0), BuildingBlock: AJUNOK_clean_linker_0, # of connection points: 2
#     Edge 51, Type (0, 0), BuildingBlock: AJUNOK_clean_linker_0, # of connection points: 2
#     Edge 52, Type (0, 0), BuildingBlock: AJUNOK_clean_linker_0, # of connection points: 2
#     Edge 53, Type (0, 0), BuildingBlock: AJUNOK_clean_linker_0, # of connection points: 2
#     Edge 54, Type (0, 0), BuildingBlock: AJUNOK_clean_linker_0, # of connection points: 2
#     Edge 55, Type (0, 0), BuildingBlock: AJUNOK_clean_linker_0, # of connection points: 2
#     Edge 56, Type (0, 0), BuildingBlock: AJUNOK_clean_linker_0, # of connection points: 2
#     Edge 57, Type (0, 0), BuildingBlock: AJUNOK_clean_linker_0, # of connection points: 2
#     Edge 58, Type (0, 0), BuildingBlock: AJUNOK_clean_linker_0, # of connection points: 2
#     Edge 59, Type (0, 0), BuildingBlock: AJUNOK_clean_linker_0, # of connection points: 2
#     Edge 60, Type (0, 0), BuildingBlock: AJUNOK_clean_linker_0, # of connection points: 2
#     Edge 61, Type (0, 0), BuildingBlock: AJUNOK_clean_linker_0, # of connection points: 2
#     Edge 62, Type (0, 0), BuildingBlock: AJUNOK_clean_linker_0, # of connection points: 2
#     Edge 63, Type (0, 0), BuildingBlock: AJUNOK_clean_linker_0, # of connection points: 2
#     Edge 64, Type (0, 0), BuildingBlock: AJUNOK_clean_linker_0, # of connection points: 2
#     Edge 65, Type (0, 0), BuildingBlock: AJUNOK_clean_linker_0, # of connection points: 2
#     Edge 66, Type (0, 0), BuildingBlock: AJUNOK_clean_linker_0, # of connection points: 2
#     Edge 67, Type (0, 0), BuildingBlock: AJUNOK_clean_linker_0, # of connection points: 2
#     Edge 68, Type (0, 0), BuildingBlock: AJUNOK_clean_linker_0, # of connection points: 2
#     Edge 69, Type (0, 0), BuildingBlock: AJUNOK_clean_linker_0, # of connection points: 2
#     Edge 70, Type (0, 0), BuildingBlock: AJUNOK_clean_linker_0, # of connection points: 2
#     Edge 71, Type (0, 0), BuildingBlock: AJUNOK_clean_linker_0, # of connection points: 2
# Relax obj value: 0.362
# Max RMSD: 0.251
# Mean RMSD: 0.251
data_MOF--net-lta--node1-ICAMEG_clean_sbu_1--edge1-AJUNOK_clean_linker_0
_symmetry_space_group_name_H-M    P1
_symmetry_Int_Tables_number       1
_symmetry_cell_setting            triclinic
loop_
_symmetry_equiv_pos_as_xyz
'x, y, z'
_cell_length_a     45.087878
_cell_length_b     45.115234
_cell_length_c     45.076508
_cell_angle_alpha  89.99157
_cell_angle_beta   90.001303
_cell_angle_gamma 90.013454
loop_
_atom_site_label
_atom_site_type_symbol
_atom_site_fract_x
_atom_site_fract_y
_atom_site_fract_z
_atom_type_partial_charge
Co0 Co 0.11235 0.35083 0.48211 0.0
Co1 Co 0.12272 0.28215 0.51063 0.0
O2 O 0.13292 0.31271 0.48129 0.0
C3 C 0.09832 0.35923 0.41849 0.0
O4 O 0.07027 0.35712 0.42604 0.0
C5 C 0.18857 0.27551 0.49825 0.0
O6 O 0.18957 0.30093 0.48422 0.0
O7 O 0.13391 0.31023 0.54277 0.0
O8 O 0.10701 0.3486 0.52634 0.0
H9 H 0.0764 0.24504 0.605 0.0
H10 H 0.17173 0.34822 0.45388 0.0
O11 O 0.11827 0.3544 0.43796 0.0
H12 H 0.18032 0.42401 0.53222 0.0
H13 H 0.09179 0.45623 0.45066 0.0
H14 H 0.05762 0.37206 0.5115 0.0
H15 H 0.13305 0.39795 0.52387 0.0
H16 H 0.12094 0.41004 0.45292 0.0
O17 O 0.16446 0.2663 0.50984 0.0
H18 H 0.08805 0.28215 0.56655 0.0
H19 H 0.13784 0.21816 0.51859 0.0
H20 H 0.02796 0.41786 0.51002 0.0
H21 H 0.21935 0.37418 0.46108 0.0
H22 H 0.04464 0.46006 0.47915 0.0
H23 H 0.22389 0.41232 0.50057 0.0
O24 O 0.07446 0.32926 0.47642 0.0
H25 H 0.13579 0.23204 0.41176 0.0
H26 H 0.07149 0.2417 0.49969 0.0
H27 H 0.0567 0.20821 0.45912 0.0
H28 H 0.08903 0.20308 0.41481 0.0
H29 H 0.14953 0.26556 0.45261 0.0
H30 H 0.12704 0.1805 0.55672 0.0
H31 H 0.09598 0.19381 0.60024 0.0
O32 O 0.08006 0.29595 0.51262 0.0
C33 C 0.12159 0.33535 0.54671 0.0
C34 C 0.08988 0.23895 0.58609 0.0
C35 C 0.11832 0.20273 0.55901 0.0
N36 N 0.11344 0.25232 0.54025 0.0
C37 C 0.09648 0.25985 0.5642 0.0
C38 C 0.12443 0.2242 0.53754 0.0
C39 C 0.1009 0.21021 0.58342 0.0
C40 C 0.17351 0.3649 0.47098 0.0
N41 N 0.14965 0.37147 0.4884 0.0
C42 C 0.20054 0.37948 0.47501 0.0
C43 C 0.20308 0.40087 0.49718 0.0
C44 C 0.17866 0.40742 0.51496 0.0
C45 C 0.15197 0.39245 0.5102 0.0
C46 C 0.08412 0.43784 0.46405 0.0
C47 C 0.06526 0.39044 0.49817 0.0
C48 C 0.10057 0.41165 0.46547 0.0
N49 N 0.0909 0.38823 0.48216 0.0
C50 C 0.04828 0.41628 0.49733 0.0
C51 C 0.05769 0.44 0.47995 0.0
C52 C 0.0638 0.31048 0.49455 0.0
C53 C 0.1216 0.23394 0.43104 0.0
C54 C 0.08571 0.23962 0.4805 0.0
C55 C 0.07721 0.2206 0.45759 0.0
C56 C 0.09535 0.21773 0.43274 0.0
N57 N 0.11164 0.25527 0.47881 0.0
C58 C 0.12938 0.25278 0.45436 0.0
Co59 Co 0.64029 0.11148 0.48862 0.0
Co60 Co 0.71038 0.12546 0.51227 0.0
O61 O 0.67699 0.13469 0.48549 0.0
C62 C 0.64418 0.12603 0.42208 0.0
O63 O 0.66764 0.14317 0.42387 0.0
C64 C 0.71489 0.19206 0.50071 0.0
O65 O 0.68896 0.19334 0.48756 0.0
O66 O 0.68452 0.13463 0.54694 0.0
O67 O 0.64566 0.10713 0.53264 0.0
H68 H 0.75698 0.08007 0.60283 0.0
H69 H 0.63808 0.17201 0.46152 0.0
O70 O 0.63282 0.11413 0.44501 0.0
H71 H 0.56467 0.17343 0.54245 0.0
H72 H 0.53609 0.0827 0.4612 0.0
H73 H 0.62412 0.05592 0.52018 0.0
H74 H 0.59379 0.12841 0.53228 0.0
H75 H 0.57982 0.11518 0.46187 0.0
O76 O 0.72446 0.16768 0.51134 0.0
H77 H 0.71623 0.09114 0.56812 0.0
H78 H 0.77446 0.14234 0.51463 0.0
H79 H 0.58059 0.02293 0.52049 0.0
H80 H 0.60917 0.21733 0.47062 0.0
H81 H 0.53641 0.03568 0.49003 0.0
H82 H 0.57211 0.2183 0.51138 0.0
O83 O 0.66338 0.07495 0.48119 0.0
H84 H 0.75207 0.14283 0.41015 0.0
H85 H 0.75172 0.07612 0.49678 0.0
H86 H 0.78238 0.06361 0.45331 0.0
H87 H 0.78281 0.09716 0.40962 0.0
H88 H 0.7215 0.15431 0.4539 0.0
H89 H 0.81576 0.13217 0.54899 0.0
H90 H 0.8072 0.10067 0.59338 0.0
O91 O 0.69887 0.08233 0.51476 0.0
C92 C 0.6604 0.12095 0.5525 0.0
C93 C 0.76103 0.09371 0.5835 0.0
C94 C 0.794 0.12298 0.5533 0.0
N95 N 0.74298 0.11705 0.53916 0.0
C96 C 0.73805 0.09995 0.56369 0.0
C97 C 0.7705 0.12871 0.53396 0.0
C98 C 0.78919 0.1053 0.5782 0.0
C99 C 0.62184 0.17202 0.479 0.0
N100 N 0.61749 0.14734 0.49599 0.0
C101 C 0.6056 0.19787 0.4842 0.0
C102 C 0.58485 0.19842 0.5071 0.0
C103 C 0.58067 0.17327 0.52454 0.0
C104 C 0.59731 0.14784 0.51867 0.0
C105 C 0.55526 0.07655 0.47419 0.0
C106 C 0.60478 0.06199 0.50742 0.0
C107 C 0.58012 0.09498 0.47478 0.0
N108 N 0.60457 0.08751 0.4911 0.0
C109 C 0.58031 0.043 0.50736 0.0
C110 C 0.55551 0.05022 0.49036 0.0
C111 C 0.68378 0.06529 0.498 0.0
C112 C 0.75221 0.12812 0.42912 0.0
C113 C 0.75171 0.09084 0.47787 0.0
C114 C 0.76917 0.08364 0.45331 0.0
C115 C 0.76941 0.10247 0.42881 0.0
N116 N 0.73505 0.11618 0.47812 0.0
C117 C 0.73502 0.1346 0.45407 0.0
Co118 Co 0.88832 0.64786 0.48501 0.0
Co119 Co 0.8774 0.71669 0.51314 0.0
O120 O 0.86675 0.6854 0.48474 0.0
C121 C 0.90048 0.63937 0.42109 0.0
O122 O 0.92872 0.64172 0.4278 0.0
C123 C 0.81093 0.72099 0.50397 0.0
O124 O 0.80999 0.69523 0.49056 0.0
O125 O 0.8688 0.68891 0.54633 0.0
O126 O 0.89523 0.65058 0.529 0.0
H127 H 0.92698 0.75695 0.60453 0.0
H128 H 0.82828 0.64785 0.4579 0.0
O129 O 0.88104 0.64391 0.44114 0.0
H130 H 0.82374 0.57393 0.5384 0.0
H131 H 0.91036 0.54277 0.45371 0.0
H132 H 0.94435 0.62812 0.51292 0.0
H133 H 0.86997 0.60124 0.52838 0.0
H134 H 0.88019 0.58824 0.45659 0.0
O135 O 0.83527 0.73119 0.51412 0.0
H136 H 0.91456 0.71877 0.56743 0.0
H137 H 0.86072 0.78033 0.52069 0.0
H138 H 0.97491 0.58298 0.51104 0.0
H139 H 0.78167 0.62066 0.46687 0.0
H140 H 0.95851 0.54031 0.48067 0.0
H141 H 0.77917 0.58346 0.50743 0.0
O142 O 0.92543 0.67021 0.47771 0.0
H143 H 0.8578 0.76501 0.41442 0.0
H144 H 0.92684 0.75832 0.49897 0.0
H145 H 0.9385 0.79171 0.45731 0.0
H146 H 0.90376 0.79536 0.4147 0.0
H147 H 0.84719 0.73163 0.45632 0.0
H148 H 0.87223 0.81905 0.55752 0.0
H149 H 0.90572 0.80751 0.59973 0.0
O150 O 0.92037 0.70416 0.51338 0.0
C151 C 0.88213 0.66428 0.55007 0.0
C152 C 0.91245 0.76228 0.58618 0.0
C153 C 0.8817 0.79712 0.55981 0.0
N154 N 0.88715 0.74734 0.54176 0.0
C155 C 0.90542 0.74077 0.56504 0.0
C156 C 0.8752 0.77507 0.53907 0.0
C157 C 0.90049 0.79063 0.58349 0.0
C158 C 0.8274 0.63164 0.47553 0.0
N159 N 0.85178 0.62636 0.4927 0.0
C160 C 0.80093 0.61634 0.48054 0.0
C161 C 0.79953 0.59548 0.50331 0.0
C162 C 0.82451 0.59016 0.52072 0.0
C163 C 0.85059 0.60585 0.51504 0.0
C164 C 0.918 0.56142 0.46674 0.0
C165 C 0.93675 0.60948 0.49995 0.0
C166 C 0.90098 0.58722 0.46848 0.0
N167 N 0.91063 0.611 0.48465 0.0
C168 C 0.95426 0.58402 0.49885 0.0
C169 C 0.94494 0.56 0.48185 0.0
C170 C 0.93628 0.68938 0.49525 0.0
C171 C 0.87301 0.76376 0.43295 0.0
C172 C 0.91159 0.75973 0.48052 0.0
C173 C 0.91832 0.77872 0.45699 0.0
C174 C 0.89883 0.78075 0.43309 0.0
N175 N 0.88607 0.74333 0.48038 0.0
C176 C 0.86703 0.74499 0.45686 0.0
Co177 Co 0.35396 0.88321 0.4849 0.0
Co178 Co 0.28516 0.87469 0.51357 0.0
O179 O 0.31546 0.86357 0.48431 0.0
C180 C 0.36215 0.89932 0.42194 0.0
O181 O 0.36115 0.92699 0.43088 0.0
C182 C 0.27942 0.80803 0.51255 0.0
O183 O 0.30749 0.8044 0.5194 0.0
O184 O 0.31269 0.86271 0.54618 0.0
O185 O 0.35241 0.88745 0.52923 0.0
H186 H 0.24779 0.92047 0.6081 0.0
H187 H 0.34838 0.82474 0.45564 0.0
O188 O 0.35698 0.87858 0.44052 0.0
H189 H 0.42545 0.81153 0.53215 0.0
H190 H 0.46057 0.9011 0.45516 0.0
H191 H 0.37603 0.93754 0.51404 0.0
H192 H 0.40109 0.85995 0.52533 0.0
H193 H 0.4133 0.8734 0.45599 0.0
O194 O 0.26828 0.83387 0.5106 0.0
H195 H 0.28534 0.90781 0.57044 0.0
H196 H 0.22056 0.86157 0.52005 0.0
H197 H 0.42245 0.96616 0.5132 0.0
H198 H 0.37241 0.77594 0.46151 0.0
H199 H 0.46513 0.94786 0.48403 0.0
H200 H 0.41124 0.76912 0.5 0.0
O201 O 0.33327 0.92171 0.48029 0.0
H202 H 0.2356 0.86363 0.4143 0.0
H203 H 0.24668 0.92748 0.50239 0.0
H204 H 0.21423 0.94352 0.46141 0.0
H205 H 0.20841 0.91143 0.41701 0.0
H206 H 0.26809 0.84858 0.45566 0.0
H207 H 0.18237 0.87342 0.55737 0.0
H208 H 0.19586 0.90323 0.60169 0.0
O209 O 0.30009 0.9167 0.5166 0.0
C210 C 0.33805 0.87471 0.5501 0.0
C211 C 0.24161 0.90758 0.58882 0.0
C212 C 0.2049 0.88113 0.56037 0.0
N213 N 0.25512 0.88428 0.54288 0.0
C214 C 0.26276 0.90044 0.56735 0.0
C215 C 0.22665 0.87444 0.53935 0.0
C216 C 0.21248 0.89787 0.58523 0.0
C217 C 0.3654 0.82196 0.47229 0.0
N218 N 0.37347 0.84521 0.48993 0.0
C219 C 0.37886 0.79427 0.47558 0.0
C220 C 0.40063 0.79045 0.4972 0.0
C221 C 0.40861 0.81423 0.51526 0.0
C222 C 0.39466 0.84158 0.51134 0.0
C223 C 0.44202 0.90927 0.46801 0.0
C224 C 0.39441 0.92945 0.50102 0.0
C225 C 0.41528 0.89362 0.4687 0.0
N226 N 0.39187 0.90379 0.48511 0.0
C227 C 0.42063 0.94584 0.50055 0.0
C228 C 0.44458 0.93557 0.48402 0.0
C229 C 0.31504 0.93273 0.49873 0.0
C230 C 0.23788 0.87776 0.43357 0.0
C231 C 0.24436 0.91342 0.48311 0.0
C232 C 0.2259 0.92261 0.46 0.0
C233 C 0.22265 0.90459 0.4351 0.0
N234 N 0.25911 0.88698 0.48153 0.0
C235 C 0.25618 0.86931 0.4571 0.0
Co236 Co 0.11172 0.64282 0.51186 0.0
Co237 Co 0.12326 0.7128 0.48725 0.0
O238 O 0.13408 0.68 0.51412 0.0
C239 C 0.12767 0.64779 0.57793 0.0
O240 O 0.14433 0.67152 0.57545 0.0
C241 C 0.1902 0.71687 0.49433 0.0
O242 O 0.19248 0.6889 0.50193 0.0
O243 O 0.13253 0.68697 0.45261 0.0
O244 O 0.10626 0.64767 0.46792 0.0
H245 H 0.07413 0.75754 0.39771 0.0
H246 H 0.17287 0.64199 0.53778 0.0
O247 O 0.11549 0.63585 0.55545 0.0
H248 H 0.17408 0.56787 0.45754 0.0
H249 H 0.08623 0.53854 0.54082 0.0
H250 H 0.05571 0.62527 0.48189 0.0
H251 H 0.1288 0.59645 0.46812 0.0
H252 H 0.11762 0.58279 0.53879 0.0
O253 O 0.16508 0.72797 0.48767 0.0
H254 H 0.08696 0.71739 0.43251 0.0
H255 H 0.13849 0.77718 0.48395 0.0
H256 H 0.02338 0.58123 0.48332 0.0
H257 H 0.21843 0.61357 0.52833 0.0
H258 H 0.03798 0.53775 0.51373 0.0
H259 H 0.21931 0.57615 0.48792 0.0
O260 O 0.07492 0.66509 0.52003 0.0
H261 H 0.14221 0.75587 0.58833 0.0
H262 H 0.07283 0.75254 0.50385 0.0
H263 H 0.06047 0.78281 0.54763 0.0
H264 H 0.09533 0.7847 0.59026 0.0
H265 H 0.15356 0.72562 0.54425 0.0
H266 H 0.12644 0.8179 0.44952 0.0
H267 H 0.09393 0.80823 0.4061 0.0
O268 O 0.08036 0.70006 0.48563 0.0
C269 C 0.11942 0.66242 0.44764 0.0
C270 C 0.08828 0.76204 0.41658 0.0
C271 C 0.11766 0.79591 0.44563 0.0
N272 N 0.11336 0.74492 0.46032 0.0
C273 C 0.09558 0.7394 0.4364 0.0
C274 C 0.12448 0.77273 0.465 0.0
C275 C 0.09941 0.79047 0.42128 0.0
C276 C 0.17282 0.62557 0.52048 0.0
N277 N 0.14794 0.62074 0.50389 0.0
C278 C 0.19881 0.60961 0.51507 0.0
C279 C 0.19932 0.58867 0.49236 0.0
C280 C 0.17397 0.58403 0.4753 0.0
C281 C 0.1484 0.60038 0.48138 0.0
C282 C 0.07914 0.5574 0.5279 0.0
C283 C 0.06252 0.6062 0.49466 0.0
C284 C 0.09702 0.58255 0.52651 0.0
N285 N 0.08853 0.60665 0.51022 0.0
C286 C 0.04397 0.58143 0.49564 0.0
C287 C 0.05222 0.55702 0.51269 0.0
C288 C 0.06428 0.68517 0.50347 0.0
C289 C 0.12688 0.7553 0.56987 0.0
C290 C 0.0881 0.75314 0.52233 0.0
C291 C 0.08099 0.77039 0.54704 0.0
C292 C 0.10056 0.77144 0.57095 0.0
N293 N 0.11401 0.73741 0.52138 0.0
C294 C 0.13325 0.73828 0.54478 0.0
Co295 Co 0.36352 0.10699 0.5171 0.0
Co296 Co 0.29299 0.12014 0.49515 0.0
O297 O 0.32681 0.12947 0.5209 0.0
C298 C 0.35928 0.1223 0.58297 0.0
O299 O 0.33523 0.13841 0.58016 0.0
C300 C 0.27378 0.18124 0.4791 0.0
O301 O 0.27905 0.17473 0.4512 0.0
O302 O 0.31803 0.12977 0.45989 0.0
O303 O 0.35751 0.10261 0.47326 0.0
H304 H 0.24336 0.07658 0.40534 0.0
H305 H 0.36424 0.1681 0.54331 0.0
O306 O 0.37145 0.10989 0.56071 0.0
H307 H 0.43749 0.1701 0.46225 0.0
H308 H 0.46923 0.08162 0.54092 0.0
H309 H 0.38 0.05158 0.48541 0.0
H310 H 0.40929 0.12465 0.47297 0.0
H311 H 0.42431 0.11221 0.54231 0.0
O312 O 0.28004 0.16254 0.49935 0.0
H313 H 0.28525 0.08682 0.43898 0.0
H314 H 0.22872 0.13648 0.49565 0.0
H315 H 0.42441 0.01964 0.48415 0.0
H316 H 0.3923 0.21383 0.53373 0.0
H317 H 0.46926 0.03424 0.51253 0.0
H318 H 0.42929 0.21512 0.49291 0.0
O319 O 0.34087 0.0702 0.52465 0.0
H320 H 0.25457 0.13549 0.59872 0.0
H321 H 0.25284 0.06988 0.51128 0.0
H322 H 0.22422 0.05615 0.55578 0.0
H323 H 0.22485 0.08913 0.5999 0.0
H324 H 0.28316 0.14817 0.55385 0.0
H325 H 0.18627 0.12692 0.46253 0.0
H326 H 0.19344 0.09672 0.41702 0.0
O327 O 0.30477 0.07716 0.49137 0.0
C328 C 0.34231 0.11655 0.4539 0.0
C329 C 0.23995 0.08976 0.42511 0.0
C330 C 0.20791 0.11801 0.4572 0.0
N331 N 0.25946 0.11221 0.46927 0.0
C332 C 0.26359 0.09561 0.44426 0.0
C333 C 0.23205 0.12339 0.47584 0.0
C334 C 0.21195 0.10107 0.43167 0.0
C335 C 0.38059 0.16815 0.52593 0.0
N336 N 0.38557 0.14332 0.50935 0.0
C337 C 0.3963 0.19427 0.52041 0.0
C338 C 0.41701 0.19501 0.49747 0.0
C339 C 0.42164 0.16978 0.48029 0.0
C340 C 0.40556 0.14407 0.4865 0.0
C341 C 0.44976 0.07459 0.52888 0.0
C342 C 0.39953 0.05818 0.49763 0.0
C343 C 0.42424 0.09199 0.52943 0.0
N344 N 0.39952 0.08369 0.51396 0.0
C345 C 0.42457 0.03996 0.49691 0.0
C346 C 0.44975 0.04818 0.51285 0.0
C347 C 0.32005 0.06044 0.50834 0.0
C348 C 0.25406 0.12096 0.57963 0.0
C349 C 0.25335 0.08432 0.5304 0.0
C350 C 0.23703 0.07644 0.55553 0.0
C351 C 0.2374 0.09495 0.58028 0.0
N352 N 0.26956 0.10994 0.52988 0.0
C353 C 0.27016 0.12807 0.55413 0.0
Co354 Co 0.88728 0.35007 0.51796 0.0
Co355 Co 0.87686 0.28096 0.49153 0.0
O356 O 0.86604 0.31248 0.51932 0.0
C357 C 0.89883 0.35925 0.5823 0.0
O358 O 0.92717 0.35573 0.57659 0.0
C359 C 0.81015 0.27758 0.4878 0.0
O360 O 0.80846 0.30473 0.47746 0.0
O361 O 0.8669 0.30796 0.45788 0.0
O362 O 0.89388 0.34644 0.47402 0.0
H363 H 0.92448 0.23906 0.39989 0.0
H364 H 0.82664 0.34755 0.5433 0.0
O365 O 0.87982 0.3552 0.56173 0.0
H366 H 0.8215 0.42189 0.46321 0.0
H367 H 0.90826 0.45612 0.54629 0.0
H368 H 0.94321 0.36953 0.48959 0.0
H369 H 0.86859 0.39669 0.47472 0.0
H370 H 0.8786 0.41032 0.54465 0.0
O371 O 0.83518 0.26587 0.49361 0.0
H372 H 0.91216 0.27812 0.43608 0.0
H373 H 0.86117 0.21688 0.4863 0.0
H374 H 0.97363 0.4148 0.4907 0.0
H375 H 0.7791 0.37251 0.53275 0.0
H376 H 0.95659 0.45829 0.51943 0.0
H377 H 0.77632 0.40992 0.49241 0.0
O378 O 0.92483 0.32817 0.5254 0.0
H379 H 0.86047 0.2347 0.59163 0.0
H380 H 0.92779 0.24097 0.50563 0.0
H381 H 0.94115 0.20911 0.54802 0.0
H382 H 0.90731 0.20573 0.59137 0.0
H383 H 0.84811 0.26654 0.5489 0.0
H384 H 0.87266 0.17722 0.45046 0.0
H385 H 0.90466 0.18816 0.40696 0.0
O386 O 0.91952 0.29435 0.48962 0.0
C387 C 0.87982 0.33278 0.45356 0.0
C388 C 0.9106 0.23398 0.41881 0.0
C389 C 0.88149 0.19929 0.44717 0.0
N390 N 0.88623 0.24974 0.46345 0.0
C391 C 0.90364 0.256 0.43945 0.0
C392 C 0.875 0.22186 0.46736 0.0
C393 C 0.89945 0.20544 0.42278 0.0
C394 C 0.82565 0.36399 0.52589 0.0
N395 N 0.85041 0.37077 0.50981 0.0
C396 C 0.79865 0.37799 0.51995 0.0
C397 C 0.7971 0.39895 0.49729 0.0
C398 C 0.82243 0.40568 0.4809 0.0
C399 C 0.84903 0.39129 0.4875 0.0
C400 C 0.91624 0.43716 0.53395 0.0
C401 C 0.93549 0.38839 0.50215 0.0
C402 C 0.89947 0.41117 0.53291 0.0
N403 N 0.90932 0.38708 0.51738 0.0
C404 C 0.9529 0.41395 0.50276 0.0
C405 C 0.94328 0.43838 0.51898 0.0
C406 C 0.93569 0.3093 0.50743 0.0
C407 C 0.87536 0.23591 0.57283 0.0
C408 C 0.91298 0.2397 0.52445 0.0
C409 C 0.92065 0.22158 0.54837 0.0
C410 C 0.90165 0.21969 0.57268 0.0
N411 N 0.88706 0.25544 0.52468 0.0
C412 C 0.86843 0.25384 0.54853 0.0
Co413 Co 0.63919 0.89263 0.52027 0.0
Co414 Co 0.70927 0.8773 0.49881 0.0
O415 O 0.67525 0.86931 0.52475 0.0
C416 C 0.64248 0.87847 0.58659 0.0
O417 O 0.66561 0.86097 0.58443 0.0
C418 C 0.72661 0.81536 0.48434 0.0
O419 O 0.72127 0.82133 0.45632 0.0
O420 O 0.68405 0.86709 0.46395 0.0
O421 O 0.64545 0.89581 0.47632 0.0
H422 H 0.75981 0.91708 0.40775 0.0
H423 H 0.63704 0.83188 0.54726 0.0
O424 O 0.63113 0.89087 0.56389 0.0
H425 H 0.56298 0.83094 0.46693 0.0
H426 H 0.53519 0.92317 0.54527 0.0
H427 H 0.62402 0.94707 0.48631 0.0
H428 H 0.59249 0.87575 0.47684 0.0
H429 H 0.57857 0.89054 0.54645 0.0
O430 O 0.72124 0.83478 0.50414 0.0
H431 H 0.71773 0.90883 0.44171 0.0
H432 H 0.77311 0.85945 0.49975 0.0
H433 H 0.58081 0.98046 0.48433 0.0
H434 H 0.60764 0.78684 0.53851 0.0
H435 H 0.53628 0.96931 0.51484 0.0
H436 H 0.57024 0.78609 0.49807 0.0
O437 O 0.66277 0.92887 0.52714 0.0
H438 H 0.74727 0.86407 0.60282 0.0
H439 H 0.75062 0.92704 0.51347 0.0
H440 H 0.77959 0.94133 0.55756 0.0
H441 H 0.77815 0.90967 0.60263 0.0
H442 H 0.71835 0.8508 0.55833 0.0
H443 H 0.81574 0.86702 0.46633 0.0
H444 H 0.80925 0.89608 0.41997 0.0
O445 O 0.69842 0.92049 0.49378 0.0
C446 C 0.66013 0.88068 0.45742 0.0
C447 C 0.76293 0.90441 0.4279 0.0
C448 C 0.79432 0.87631 0.46076 0.0
N449 N 0.74295 0.88375 0.47272 0.0
C450 C 0.73919 0.8997 0.44724 0.0
C451 C 0.77009 0.87206 0.47958 0.0
C452 C 0.79066 0.89261 0.43476 0.0
C453 C 0.62052 0.83208 0.53006 0.0
N454 N 0.61606 0.85685 0.51323 0.0
C455 C 0.60405 0.80634 0.525 0.0
C456 C 0.58311 0.8059 0.50226 0.0
C457 C 0.57902 0.83104 0.48481 0.0
C458 C 0.59584 0.85639 0.49057 0.0
C459 C 0.55456 0.92887 0.53241 0.0
C460 C 0.60454 0.94176 0.4992 0.0
C461 C 0.57924 0.91029 0.53288 0.0
N462 N 0.60391 0.91696 0.51658 0.0
C463 C 0.58023 0.96092 0.49823 0.0
C464 C 0.55523 0.9546 0.5153 0.0
C465 C 0.68355 0.93791 0.5104 0.0
C466 C 0.74815 0.87801 0.5833 0.0
C467 C 0.74976 0.91317 0.53301 0.0
C468 C 0.76628 0.92137 0.55791 0.0
C469 C 0.76546 0.9036 0.58318 0.0
N470 N 0.73292 0.88795 0.53324 0.0
C471 C 0.73187 0.87057 0.55801 0.0
Co472 Co 0.48515 0.1139 0.35099 0.0
Co473 Co 0.51595 0.12468 0.28317 0.0
O474 O 0.48587 0.13517 0.3131 0.0
C475 C 0.42151 0.09955 0.35808 0.0
O476 O 0.42911 0.07162 0.35495 0.0
C477 C 0.50987 0.19143 0.27917 0.0
O478 O 0.50248 0.19337 0.30724 0.0
O479 O 0.54782 0.13467 0.3122 0.0
O480 O 0.52935 0.10846 0.35016 0.0
H481 H 0.61026 0.07706 0.24767 0.0
H482 H 0.45738 0.1733 0.34772 0.0
O483 O 0.44086 0.11972 0.35357 0.0
H484 H 0.53244 0.18092 0.42693 0.0
H485 H 0.45286 0.09246 0.45625 0.0
H486 H 0.51348 0.05867 0.37182 0.0
H487 H 0.52539 0.13407 0.39975 0.0
H488 H 0.4548 0.1217 0.40999 0.0
O489 O 0.51616 0.1664 0.26769 0.0
H490 H 0.57165 0.08971 0.28424 0.0
H491 H 0.52518 0.13958 0.21923 0.0
H492 H 0.51263 0.02922 0.4177 0.0
H493 H 0.46332 0.2205 0.37472 0.0
H494 H 0.48194 0.0457 0.46005 0.0
H495 H 0.50111 0.22452 0.41463 0.0
O496 O 0.47989 0.07628 0.32876 0.0
H497 H 0.41941 0.14193 0.2302 0.0
H498 H 0.50404 0.0738 0.24235 0.0
H499 H 0.46376 0.06078 0.20776 0.0
H500 H 0.42111 0.09503 0.2014 0.0
H501 H 0.46002 0.15394 0.26482 0.0
H502 H 0.56349 0.12778 0.18204 0.0
H503 H 0.60634 0.09617 0.19613 0.0
O504 O 0.51689 0.08191 0.29642 0.0
C505 C 0.55075 0.12174 0.33719 0.0
C506 C 0.59164 0.09077 0.24122 0.0
C507 C 0.56541 0.11927 0.2044 0.0
N508 N 0.54601 0.1151 0.25384 0.0
C509 C 0.56964 0.09792 0.26182 0.0
C510 C 0.54382 0.12593 0.22559 0.0
C511 C 0.58944 0.10152 0.21232 0.0
C512 C 0.47367 0.17483 0.36524 0.0
N513 N 0.49082 0.1509 0.37225 0.0
C514 C 0.47703 0.20164 0.38036 0.0
C515 C 0.49826 0.20389 0.40272 0.0
C516 C 0.51586 0.17945 0.40962 0.0
C517 C 0.51184 0.153 0.39404 0.0
C518 C 0.4662 0.08491 0.43777 0.0
C519 C 0.50022 0.06626 0.39024 0.0
C520 C 0.4674 0.10137 0.41154 0.0
N521 N 0.48419 0.09189 0.38811 0.0
C522 C 0.49968 0.04936 0.41613 0.0
C523 C 0.4824 0.05868 0.43994 0.0
C524 C 0.49849 0.06564 0.31046 0.0
C525 C 0.43793 0.12688 0.2327 0.0
C526 C 0.48551 0.08879 0.23982 0.0
C527 C 0.46279 0.08131 0.22014 0.0
C528 C 0.43887 0.10054 0.21657 0.0
N529 N 0.48451 0.11474 0.25545 0.0
C530 C 0.46104 0.13361 0.2522 0.0
Co531 Co 0.88897 0.48286 0.36223 0.0
Co532 Co 0.87271 0.50452 0.29182 0.0
O533 O 0.865 0.47893 0.32631 0.0
C534 C 0.87467 0.41645 0.35919 0.0
O535 O 0.8576 0.41842 0.3357 0.0
C536 C 0.81118 0.5221 0.2758 0.0
O537 O 0.81904 0.5497 0.28068 0.0
O538 O 0.86496 0.54014 0.31696 0.0
O539 O 0.89239 0.52672 0.3563 0.0
H540 H 0.91494 0.59311 0.23894 0.0
H541 H 0.82836 0.45575 0.36484 0.0
O542 O 0.88714 0.43923 0.37028 0.0
H543 H 0.82784 0.53574 0.43922 0.0
H544 H 0.91946 0.45818 0.46646 0.0
H545 H 0.94405 0.51606 0.37706 0.0
H546 H 0.87241 0.52615 0.40921 0.0
H547 H 0.88691 0.45679 0.42292 0.0
O548 O 0.82949 0.50117 0.28103 0.0
H549 H 0.90637 0.56008 0.28167 0.0
H550 H 0.85307 0.50359 0.22846 0.0
H551 H 0.97743 0.51807 0.42038 0.0
H552 H 0.78355 0.46418 0.39474 0.0
H553 H 0.96573 0.4882 0.46525 0.0
H554 H 0.78302 0.50444 0.43231 0.0
O555 O 0.92512 0.47598 0.33828 0.0
H556 H 0.85246 0.40175 0.25378 0.0
H557 H 0.92109 0.48677 0.25007 0.0
H558 H 0.93236 0.44189 0.22105 0.0
H559 H 0.89786 0.39899 0.22269 0.0
H560 H 0.84223 0.44694 0.28278 0.0
H561 H 0.86092 0.53605 0.18516 0.0
H562 H 0.8921 0.58117 0.19023 0.0
O563 O 0.91634 0.50792 0.30136 0.0
C564 C 0.87848 0.54607 0.34109 0.0
C565 C 0.90132 0.57351 0.23644 0.0
C566 C 0.871 0.5415 0.20626 0.0
N567 N 0.87925 0.52994 0.25762 0.0
C568 C 0.8964 0.55473 0.26058 0.0
C569 C 0.8666 0.52322 0.23088 0.0
C570 C 0.88849 0.56681 0.20912 0.0
C571 C 0.82863 0.47292 0.3814 0.0
N572 N 0.85338 0.48984 0.38567 0.0
C573 C 0.80303 0.47778 0.39817 0.0
C574 C 0.80272 0.50041 0.4192 0.0
C575 C 0.82784 0.51795 0.4231 0.0
C576 C 0.85305 0.51238 0.40599 0.0
C577 C 0.92521 0.47088 0.44699 0.0
C578 C 0.93857 0.50342 0.39667 0.0
C579 C 0.90675 0.47024 0.4222 0.0
N580 N 0.9136 0.48627 0.39738 0.0
C581 C 0.95765 0.5045 0.42107 0.0
C582 C 0.95103 0.48783 0.44627 0.0
C583 C 0.93389 0.49187 0.31671 0.0
C584 C 0.86765 0.42031 0.25284 0.0
C585 C 0.90605 0.46815 0.2511 0.0
C586 C 0.91251 0.44282 0.23451 0.0
C587 C 0.89313 0.41876 0.23543 0.0
N588 N 0.88099 0.46951 0.26814 0.0
C589 C 0.86193 0.446 0.26917 0.0
Co590 Co 0.51659 0.89271 0.36068 0.0
Co591 Co 0.49555 0.87674 0.29035 0.0
O592 O 0.52093 0.8688 0.32489 0.0
C593 C 0.58269 0.87735 0.35869 0.0
O594 O 0.58069 0.86012 0.33533 0.0
C595 C 0.47909 0.81497 0.27357 0.0
O596 O 0.45125 0.82221 0.2782 0.0
O597 O 0.45994 0.86819 0.3153 0.0
O598 O 0.47288 0.89659 0.35401 0.0
H599 H 0.40662 0.91852 0.23774 0.0
H600 H 0.54288 0.8317 0.36399 0.0
O601 O 0.56005 0.89035 0.36941 0.0
H602 H 0.46173 0.83264 0.43713 0.0
H603 H 0.53988 0.92333 0.46511 0.0
H604 H 0.48368 0.94807 0.37471 0.0
H605 H 0.4722 0.87676 0.40678 0.0
H606 H 0.54154 0.89054 0.42183 0.0
O607 O 0.49957 0.83367 0.2792 0.0
H608 H 0.4397 0.90995 0.28044 0.0
H609 H 0.49674 0.85759 0.22686 0.0
H610 H 0.48152 0.98179 0.4177 0.0
H611 H 0.53359 0.78731 0.39421 0.0
H612 H 0.51066 0.97017 0.46298 0.0
H613 H 0.49275 0.78752 0.43119 0.0
O614 O 0.5243 0.92864 0.33677 0.0
H615 H 0.59935 0.85903 0.25377 0.0
H616 H 0.51247 0.92516 0.24828 0.0
H617 H 0.55732 0.93723 0.21945 0.0
H618 H 0.60114 0.90397 0.22196 0.0
H619 H 0.55415 0.84802 0.28254 0.0
H620 H 0.46421 0.86545 0.1836 0.0
H621 H 0.41879 0.89617 0.18887 0.0
O622 O 0.4918 0.92039 0.30025 0.0
C623 C 0.45377 0.88192 0.33924 0.0
C624 C 0.42635 0.90512 0.23515 0.0
C625 C 0.45867 0.87533 0.20476 0.0
N626 N 0.47014 0.88333 0.25617 0.0
C627 C 0.44518 0.90021 0.25926 0.0
C628 C 0.47698 0.87092 0.22935 0.0
C629 C 0.43319 0.89256 0.20774 0.0
C630 C 0.52549 0.83232 0.3803 0.0
N631 N 0.50877 0.85727 0.3841 0.0
C632 C 0.52013 0.80694 0.39724 0.0
C633 C 0.49717 0.80704 0.41794 0.0
C634 C 0.47979 0.83233 0.4213 0.0
C635 C 0.48587 0.85729 0.40403 0.0
C636 C 0.52762 0.92918 0.4454 0.0
C637 C 0.49598 0.94257 0.39454 0.0
C638 C 0.52838 0.91054 0.42077 0.0
N639 N 0.51284 0.91744 0.39567 0.0
C640 C 0.49481 0.96185 0.41875 0.0
C641 C 0.51111 0.95526 0.44418 0.0
C642 C 0.50834 0.93773 0.31538 0.0
C643 C 0.58037 0.87366 0.25242 0.0
C644 C 0.53147 0.91062 0.24962 0.0
C645 C 0.55679 0.91755 0.23317 0.0
C646 C 0.58137 0.89888 0.23459 0.0
N647 N 0.5306 0.88574 0.26694 0.0
C648 C 0.55469 0.86748 0.26859 0.0
Co649 Co 0.10797 0.51556 0.35633 0.0
Co650 Co 0.1216 0.49159 0.2861 0.0
O651 O 0.13043 0.51879 0.31925 0.0
C652 C 0.12138 0.58211 0.3514 0.0
O653 O 0.13809 0.58011 0.32765 0.0
C654 C 0.18786 0.50339 0.28337 0.0
O655 O 0.18799 0.51448 0.31025 0.0
O656 O 0.13104 0.45713 0.31215 0.0
O657 O 0.10418 0.47161 0.35142 0.0
H658 H 0.07663 0.4007 0.2399 0.0
H659 H 0.16784 0.54453 0.3583 0.0
O660 O 0.10991 0.55928 0.36337 0.0
H661 H 0.17236 0.4631 0.43094 0.0
H662 H 0.0824 0.54179 0.46142 0.0
H663 H 0.05353 0.48272 0.37412 0.0
H664 H 0.12683 0.47207 0.40226 0.0
H665 H 0.11271 0.54269 0.41634 0.0
O666 O 0.16404 0.4931 0.27212 0.0
H667 H 0.08735 0.43573 0.28046 0.0
H668 H 0.13908 0.48871 0.22222 0.0
H669 H 0.02229 0.48127 0.41902 0.0
H670 H 0.2136 0.5367 0.38686 0.0
H671 H 0.03611 0.51166 0.46284 0.0
H672 H 0.21618 0.49567 0.42351 0.0
O673 O 0.0709 0.52193 0.33379 0.0
H674 H 0.1383 0.59328 0.24336 0.0
H675 H 0.07197 0.5064 0.24486 0.0
H676 H 0.05907 0.54951 0.21387 0.0
H677 H 0.09242 0.59332 0.21287 0.0
H678 H 0.15017 0.54989 0.27427 0.0
H679 H 0.12922 0.45404 0.1811 0.0
H680 H 0.09765 0.40975 0.18976 0.0
O681 O 0.07841 0.48879 0.29778 0.0
C682 C 0.11785 0.45183 0.33659 0.0
C683 C 0.09032 0.41999 0.2358 0.0
C684 C 0.11986 0.4499 0.20282 0.0
N685 N 0.11352 0.46443 0.25368 0.0
C686 C 0.09636 0.43997 0.25868 0.0
C687 C 0.12542 0.46942 0.22622 0.0
C688 C 0.10214 0.42506 0.20769 0.0
C689 C 0.16849 0.52691 0.37435 0.0
N690 N 0.14442 0.50905 0.37861 0.0
C691 C 0.19462 0.52244 0.39041 0.0
C692 C 0.19607 0.49939 0.41093 0.0
C693 C 0.17153 0.48112 0.41509 0.0
C694 C 0.1458 0.48628 0.39865 0.0
C695 C 0.07567 0.52886 0.44243 0.0
C696 C 0.05992 0.49565 0.39326 0.0
C697 C 0.09289 0.5292 0.41676 0.0
N698 N 0.08488 0.51282 0.39254 0.0
C699 C 0.04206 0.49487 0.41856 0.0
C700 C 0.04989 0.51185 0.44319 0.0
C701 C 0.06129 0.50507 0.31336 0.0
C702 C 0.12366 0.57426 0.24349 0.0
C703 C 0.08659 0.52538 0.24463 0.0
C704 C 0.07918 0.54972 0.22698 0.0
C705 C 0.0979 0.57429 0.22642 0.0
N706 N 0.11202 0.52542 0.26117 0.0
C707 C 0.13036 0.54952 0.26087 0.0
Co708 Co 0.48332 0.89138 0.6475 0.0
Co709 Co 0.50656 0.8751 0.71712 0.0
O710 O 0.47978 0.86707 0.68342 0.0
C711 C 0.41701 0.87493 0.64885 0.0
O712 O 0.41863 0.85677 0.67155 0.0
C713 C 0.4931 0.80888 0.71996 0.0
O714 O 0.47719 0.80941 0.6956 0.0
O715 O 0.54118 0.8666 0.69094 0.0
O716 O 0.52709 0.89611 0.65367 0.0
H717 H 0.59737 0.91853 0.76507 0.0
H718 H 0.45764 0.83019 0.6431 0.0
O719 O 0.43986 0.88832 0.63908 0.0
H720 H 0.53911 0.83306 0.57039 0.0
H721 H 0.45764 0.92327 0.5439 0.0
H722 H 0.51564 0.94704 0.63331 0.0
H723 H 0.52769 0.87683 0.60087 0.0
H724 H 0.45703 0.88985 0.58675 0.0
O725 O 0.5056 0.83231 0.72964 0.0
H726 H 0.56222 0.90948 0.72418 0.0
H727 H 0.50947 0.85528 0.78034 0.0
H728 H 0.51803 0.98045 0.59025 0.0
H729 H 0.468 0.78609 0.61283 0.0
H730 H 0.48759 0.96958 0.54551 0.0
H731 H 0.50904 0.78727 0.57609 0.0
O732 O 0.47528 0.92701 0.67175 0.0
H733 H 0.404 0.85798 0.75817 0.0
H734 H 0.49208 0.92267 0.76064 0.0
H735 H 0.44906 0.93462 0.7921 0.0
H736 H 0.40464 0.90207 0.79114 0.0
H737 H 0.44727 0.84707 0.72686 0.0
H738 H 0.54432 0.86332 0.82169 0.0
H739 H 0.58856 0.89531 0.81426 0.0
O740 O 0.50901 0.91869 0.70696 0.0
C741 C 0.54684 0.88138 0.66753 0.0
C742 C 0.57809 0.90468 0.76864 0.0
C743 C 0.54834 0.87367 0.8004 0.0
N744 N 0.53359 0.88222 0.74992 0.0
C745 C 0.55803 0.8996 0.74559 0.0
C746 C 0.52872 0.86915 0.77686 0.0
C747 C 0.57316 0.89161 0.79622 0.0
C748 C 0.47521 0.83116 0.62703 0.0
N749 N 0.4916 0.85637 0.62361 0.0
C750 C 0.48114 0.80598 0.60999 0.0
C751 C 0.50419 0.80662 0.58942 0.0
C752 C 0.52106 0.83229 0.58621 0.0
C753 C 0.51446 0.85702 0.60362 0.0
C754 C 0.47039 0.92882 0.56336 0.0
C755 C 0.50313 0.9416 0.61364 0.0
C756 C 0.47018 0.90986 0.58779 0.0
N757 N 0.48623 0.91649 0.61265 0.0
C758 C 0.50419 0.96088 0.58944 0.0
C759 C 0.48723 0.95469 0.56434 0.0
C760 C 0.49222 0.93617 0.69232 0.0
C761 C 0.42331 0.87221 0.75897 0.0
C762 C 0.47288 0.90832 0.76007 0.0
C763 C 0.44857 0.91523 0.77797 0.0
C764 C 0.42366 0.89697 0.77742 0.0
N765 N 0.47256 0.88378 0.74224 0.0
C766 C 0.44804 0.866 0.74137 0.0
Co767 Co 0.11814 0.48691 0.63472 0.0
Co768 Co 0.13119 0.50905 0.70543 0.0
O769 O 0.14102 0.48353 0.67139 0.0
C770 C 0.13259 0.42064 0.63876 0.0
O771 O 0.14907 0.4225 0.66269 0.0
C772 C 0.19188 0.52708 0.72431 0.0
O773 O 0.18437 0.55468 0.71891 0.0
O774 O 0.13985 0.54452 0.68043 0.0
O775 O 0.11351 0.53072 0.64052 0.0
H776 H 0.08553 0.5976 0.75531 0.0
H777 H 0.17899 0.46077 0.63356 0.0
O778 O 0.12099 0.44346 0.62696 0.0
H779 H 0.18028 0.54115 0.55952 0.0
H780 H 0.08919 0.45822 0.53108 0.0
H781 H 0.06165 0.51708 0.61895 0.0
H782 H 0.13502 0.53061 0.58825 0.0
H783 H 0.12273 0.46131 0.57389 0.0
O784 O 0.17383 0.50615 0.71828 0.0
H785 H 0.09657 0.56435 0.71333 0.0
H786 H 0.14771 0.50886 0.76971 0.0
H787 H 0.02697 0.514 0.57675 0.0
H788 H 0.22457 0.47021 0.60502 0.0
H789 H 0.04032 0.48383 0.53264 0.0
H790 H 0.22545 0.51068 0.56765 0.0
O791 O 0.08184 0.47904 0.65754 0.0
H792 H 0.15072 0.40667 0.74487 0.0
H793 H 0.08134 0.49112 0.74538 0.0
H794 H 0.06941 0.44639 0.7744 0.0
H795 H 0.10427 0.40377 0.77435 0.0
H796 H 0.16166 0.45173 0.7159 0.0
H797 H 0.13737 0.54161 0.81226 0.0
H798 H 0.10601 0.58632 0.80521 0.0
O799 O 0.08783 0.5118 0.69401 0.0
C800 C 0.12667 0.55038 0.65609 0.0
C801 C 0.0992 0.57817 0.75867 0.0
C802 C 0.1283 0.54675 0.79063 0.0
N803 N 0.12272 0.53465 0.73905 0.0
C804 C 0.10551 0.55924 0.73498 0.0
C805 C 0.13411 0.52831 0.76644 0.0
C806 C 0.11071 0.57183 0.78666 0.0
C807 C 0.17898 0.47809 0.61712 0.0
N808 N 0.15411 0.49465 0.61225 0.0
C809 C 0.20496 0.48349 0.60111 0.0
C810 C 0.20546 0.50623 0.58019 0.0
C811 C 0.18014 0.52333 0.57561 0.0
C812 C 0.15457 0.51724 0.59199 0.0
C813 C 0.08287 0.4712 0.55021 0.0
C814 C 0.06786 0.50436 0.59963 0.0
C815 C 0.10195 0.47326 0.57448 0.0
N816 N 0.0942 0.48939 0.59896 0.0
C817 C 0.04802 0.5025 0.57589 0.0
C818 C 0.05552 0.48555 0.55114 0.0
C819 C 0.07139 0.49506 0.67814 0.0
C820 C 0.13537 0.4251 0.7451 0.0
C821 C 0.09656 0.47262 0.74506 0.0
C822 C 0.08972 0.44737 0.76164 0.0
C823 C 0.10929 0.42348 0.76161 0.0
N824 N 0.12221 0.47407 0.72893 0.0
C825 C 0.14147 0.45071 0.72878 0.0
Co826 Co 0.51663 0.1087 0.64763 0.0
Co827 Co 0.49217 0.12429 0.71693 0.0
O828 O 0.5198 0.13226 0.68397 0.0
C829 C 0.58319 0.1232 0.65146 0.0
O830 O 0.58138 0.14099 0.67443 0.0
C831 C 0.50581 0.1903 0.71961 0.0
O832 O 0.52109 0.18964 0.69487 0.0
O833 O 0.45831 0.13381 0.69023 0.0
O834 O 0.47265 0.10473 0.6527 0.0
H835 H 0.40011 0.08117 0.76273 0.0
H836 H 0.54444 0.16901 0.6442 0.0
O837 O 0.56029 0.11087 0.64051 0.0
H838 H 0.46372 0.16975 0.57059 0.0
H839 H 0.54519 0.07813 0.54458 0.0
H840 H 0.48305 0.05432 0.63125 0.0
H841 H 0.47337 0.12525 0.60062 0.0
H842 H 0.54475 0.11083 0.58787 0.0
O843 O 0.49368 0.16691 0.72984 0.0
H844 H 0.43626 0.09002 0.72265 0.0
H845 H 0.48811 0.14372 0.78015 0.0
H846 H 0.48185 0.02149 0.58764 0.0
H847 H 0.53593 0.21377 0.61431 0.0
H848 H 0.51445 0.03219 0.54448 0.0
H849 H 0.49526 0.21443 0.57715 0.0
O850 O 0.5234 0.07256 0.67139 0.0
H851 H 0.59398 0.13961 0.76027 0.0
H852 H 0.50529 0.0757 0.75984 0.0
H853 H 0.54774 0.06255 0.79161 0.0
H854 H 0.59247 0.09468 0.79209 0.0
H855 H 0.55124 0.15172 0.7286 0.0
H856 H 0.45232 0.13575 0.82071 0.0
H857 H 0.40801 0.10415 0.81217 0.0
O858 O 0.48913 0.08088 0.70612 0.0
C859 C 0.45299 0.11985 0.66626 0.0
C860 C 0.41938 0.0949 0.76675 0.0
C861 C 0.44866 0.12556 0.79928 0.0
N862 N 0.46439 0.11719 0.74907 0.0
C863 C 0.43998 0.09992 0.74416 0.0
C864 C 0.46882 0.13005 0.77619 0.0
C865 C 0.42381 0.10783 0.79448 0.0
C866 C 0.52698 0.16885 0.62797 0.0
N867 N 0.50974 0.14428 0.62414 0.0
C868 C 0.52213 0.1944 0.61114 0.0
C869 C 0.49928 0.19478 0.59033 0.0
C870 C 0.48159 0.16974 0.58664 0.0
C871 C 0.48715 0.1446 0.60383 0.0
C872 C 0.53157 0.0725 0.56344 0.0
C873 C 0.49654 0.0597 0.61219 0.0
C874 C 0.53117 0.09108 0.58811 0.0
N875 N 0.51411 0.08437 0.61226 0.0
C876 C 0.49608 0.04078 0.58769 0.0
C877 C 0.51424 0.04692 0.56342 0.0
C878 C 0.50629 0.0635 0.69184 0.0
C879 C 0.57454 0.12553 0.76041 0.0
C880 C 0.52464 0.08985 0.75988 0.0
C881 C 0.54862 0.08227 0.77796 0.0
C882 C 0.57371 0.1003 0.77821 0.0
N883 N 0.5255 0.11476 0.7426 0.0
C884 C 0.55014 0.13239 0.7426 0.0
Co885 Co 0.89272 0.51668 0.64099 0.0
Co886 Co 0.88595 0.49494 0.71331 0.0
O887 O 0.87437 0.52073 0.68005 0.0
C888 C 0.88243 0.58366 0.6468 0.0
O889 O 0.86778 0.5824 0.67193 0.0
C890 C 0.81918 0.49312 0.71957 0.0
O891 O 0.81595 0.48231 0.69272 0.0
O892 O 0.87487 0.45903 0.68963 0.0
O893 O 0.89413 0.47249 0.6455 0.0
H894 H 0.93577 0.40792 0.76208 0.0
H895 H 0.83356 0.54581 0.64934 0.0
O896 O 0.89234 0.56042 0.63429 0.0
H897 H 0.81851 0.47108 0.57115 0.0
H898 H 0.91082 0.54444 0.53441 0.0
H899 H 0.9435 0.48195 0.61789 0.0
H900 H 0.86744 0.47713 0.59462 0.0
H901 H 0.88344 0.54465 0.58157 0.0
O902 O 0.8449 0.49861 0.72981 0.0
H903 H 0.92276 0.44089 0.72048 0.0
H904 H 0.8715 0.49487 0.77798 0.0
H905 H 0.97227 0.48176 0.57138 0.0
H906 H 0.78445 0.54076 0.62628 0.0
H907 H 0.95614 0.51338 0.52928 0.0
H908 H 0.77658 0.50319 0.5868 0.0
O909 O 0.93248 0.52108 0.65931 0.0
H910 H 0.87171 0.59799 0.75324 0.0
H911 H 0.93904 0.51197 0.74913 0.0
H912 H 0.95417 0.55662 0.77676 0.0
H913 H 0.92036 0.60003 0.77901 0.0
H914 H 0.85758 0.55299 0.72559 0.0
H915 H 0.88379 0.46249 0.82024 0.0
H916 H 0.9162 0.41866 0.81247 0.0
O917 O 0.92781 0.49111 0.69857 0.0
C918 C 0.88338 0.45316 0.6632 0.0
C919 C 0.92156 0.4269 0.76576 0.0
C920 C 0.89237 0.45751 0.79838 0.0
N921 N 0.89619 0.46959 0.74661 0.0
C922 C 0.91408 0.44559 0.74222 0.0
C923 C 0.88537 0.47569 0.77429 0.0
C924 C 0.91057 0.43293 0.79401 0.0
C925 C 0.83065 0.5298 0.6319 0.0
N926 N 0.85375 0.51243 0.62287 0.0
C927 C 0.80261 0.52685 0.61904 0.0
C928 C 0.79819 0.50573 0.59693 0.0
C929 C 0.8217 0.48775 0.58813 0.0
C930 C 0.8494 0.49133 0.6015 0.0
C931 C 0.91826 0.53068 0.55259 0.0
C932 C 0.93627 0.49557 0.59962 0.0
C933 C 0.90272 0.53057 0.57936 0.0
N934 N 0.91188 0.51327 0.60254 0.0
C935 C 0.95268 0.49548 0.57336 0.0
C936 C 0.94362 0.51326 0.54975 0.0
C937 C 0.94347 0.50599 0.6804 0.0
C938 C 0.88663 0.57921 0.75244 0.0
C939 C 0.92426 0.53082 0.74984 0.0
C940 C 0.93292 0.55601 0.76561 0.0
C941 C 0.91394 0.58035 0.76688 0.0
N942 N 0.89744 0.52987 0.73571 0.0
C943 C 0.87872 0.55365 0.73686 0.0
Co944 Co 0.36149 0.48548 0.11306 0.0
Co945 Co 0.29186 0.50774 0.12999 0.0
O946 O 0.32599 0.48172 0.13757 0.0
C947 C 0.35915 0.41942 0.129 0.0
O948 O 0.33628 0.42175 0.14685 0.0
C949 C 0.27558 0.5244 0.1918 0.0
O950 O 0.28062 0.55216 0.18463 0.0
O951 O 0.31759 0.54282 0.13839 0.0
O952 O 0.35539 0.52936 0.1091 0.0
H953 H 0.24086 0.59783 0.08876 0.0
H954 H 0.36512 0.4598 0.17436 0.0
O955 O 0.36967 0.44188 0.11548 0.0
H956 H 0.4398 0.53946 0.17153 0.0
H957 H 0.46494 0.4603 0.08082 0.0
H958 H 0.3752 0.5179 0.05727 0.0
H959 H 0.4088 0.52905 0.12782 0.0
H960 H 0.4222 0.45947 0.11429 0.0
O961 O 0.28094 0.50388 0.17308 0.0
H962 H 0.28294 0.56391 0.09704 0.0
H963 H 0.22839 0.50768 0.14936 0.0
H964 H 0.4179 0.51985 0.02324 0.0
H965 H 0.39601 0.46907 0.21831 0.0
H966 H 0.46278 0.48973 0.03405 0.0
H967 H 0.43375 0.50916 0.21715 0.0
O968 O 0.33692 0.47801 0.07747 0.0
H969 H 0.25261 0.40514 0.14874 0.0
H970 H 0.24947 0.49139 0.08162 0.0
H971 H 0.21963 0.44715 0.0699 0.0
H972 H 0.22099 0.40363 0.10364 0.0
H973 H 0.28236 0.44974 0.15947 0.0
H974 H 0.18577 0.54106 0.14178 0.0
H975 H 0.19185 0.5865 0.11124 0.0
O976 O 0.30142 0.51136 0.08627 0.0
C977 C 0.3411 0.54884 0.12384 0.0
C978 C 0.23793 0.57809 0.1021 0.0
C979 C 0.20701 0.54624 0.13186 0.0
N980 N 0.25815 0.53382 0.12365 0.0
C981 C 0.26168 0.55879 0.10685 0.0
C982 C 0.23124 0.52744 0.1361 0.0
C983 C 0.21044 0.57173 0.11473 0.0
C984 C 0.38176 0.47685 0.17332 0.0
N985 N 0.38559 0.49317 0.14809 0.0
C986 C 0.39908 0.48221 0.19846 0.0
C987 C 0.4202 0.50475 0.19782 0.0
C988 C 0.42362 0.52174 0.17225 0.0
C989 C 0.40595 0.51569 0.14754 0.0
C990 C 0.44538 0.47288 0.07521 0.0
C991 C 0.39492 0.50539 0.06256 0.0
C992 C 0.42105 0.4726 0.09426 0.0
N993 N 0.39614 0.48857 0.08773 0.0
C994 C 0.41891 0.50627 0.04299 0.0
C995 C 0.44413 0.48948 0.04916 0.0
C996 C 0.31586 0.49454 0.06865 0.0
C997 C 0.25179 0.42398 0.13389 0.0
C998 C 0.25035 0.4725 0.09634 0.0
C999 C 0.23331 0.44753 0.08963 0.0
C1000 C 0.23408 0.42313 0.10857 0.0
N1001 N 0.26766 0.47319 0.12125 0.0
C1002 C 0.26855 0.44932 0.13988 0.0
Co1003 Co 0.35431 0.51889 0.8954 0.0
Co1004 Co 0.28435 0.49574 0.88059 0.0
O1005 O 0.31769 0.5229 0.87225 0.0
C1006 C 0.35143 0.58549 0.8815 0.0
O1007 O 0.32818 0.58409 0.86403 0.0
C1008 C 0.28175 0.50836 0.81443 0.0
O1009 O 0.30867 0.51935 0.81443 0.0
O1010 O 0.31035 0.46157 0.87019 0.0
O1011 O 0.34845 0.47496 0.899 0.0
H1012 H 0.23801 0.40424 0.92416 0.0
H1013 H 0.3576 0.54716 0.83524 0.0
O1014 O 0.36227 0.5624 0.89353 0.0
H1015 H 0.42982 0.46531 0.83305 0.0
H1016 H 0.45844 0.54474 0.92524 0.0
H1017 H 0.37048 0.48456 0.94934 0.0
H1018 H 0.40033 0.47496 0.87792 0.0
H1019 H 0.41472 0.54579 0.89297 0.0
O1020 O 0.27038 0.49804 0.83819 0.0
H1021 H 0.27857 0.43951 0.91418 0.0
H1022 H 0.22052 0.49308 0.86285 0.0
H1023 H 0.41425 0.48216 0.98188 0.0
H1024 H 0.38701 0.53868 0.79013 0.0
H1025 H 0.4582 0.51343 0.97083 0.0
H1026 H 0.42346 0.49744 0.78874 0.0
O1027 O 0.33116 0.52586 0.93193 0.0
H1028 H 0.24226 0.59792 0.86589 0.0
H1029 H 0.24285 0.50962 0.93035 0.0
H1030 H 0.21201 0.5526 0.94398 0.0
H1031 H 0.21147 0.59713 0.91157 0.0
H1032 H 0.273 0.55461 0.85326 0.0
H1033 H 0.17941 0.45822 0.87202 0.0
H1034 H 0.18799 0.41349 0.903 0.0
O1035 O 0.29595 0.49212 0.92386 0.0
C1036 C 0.33454 0.45575 0.8836 0.0
C1037 C 0.23397 0.4237 0.91071 0.0
C1038 C 0.20109 0.45397 0.88141 0.0
N1039 N 0.2519 0.46847 0.88817 0.0
C1040 C 0.25684 0.4438 0.90505 0.0
C1041 C 0.22449 0.4736 0.87624 0.0
C1042 C 0.20592 0.42889 0.8988 0.0
C1043 C 0.37355 0.52947 0.8351 0.0
N1044 N 0.37728 0.51189 0.85947 0.0
C1045 C 0.3901 0.52462 0.80934 0.0
C1046 C 0.41051 0.50145 0.80855 0.0
C1047 C 0.41408 0.48343 0.83338 0.0
C1048 C 0.39719 0.48899 0.85873 0.0
C1049 C 0.43928 0.53153 0.93089 0.0
C1050 C 0.38979 0.49765 0.94389 0.0
C1051 C 0.41438 0.53199 0.91258 0.0
N1052 N 0.3899 0.51544 0.91936 0.0
C1053 C 0.41443 0.49642 0.96259 0.0
C1054 C 0.43913 0.5139 0.95629 0.0
C1055 C 0.31085 0.50877 0.94125 0.0
C1056 C 0.24219 0.57859 0.88011 0.0
C1057 C 0.24281 0.52891 0.91613 0.0
C1058 C 0.22525 0.55318 0.92396 0.0
C1059 C 0.22495 0.57815 0.90577 0.0
N1060 N 0.25952 0.52942 0.89081 0.0
C1061 C 0.25948 0.55391 0.873 0.0
Co1062 Co 0.48377 0.36487 0.88937 0.0
Co1063 Co 0.5046 0.29417 0.87383 0.0
O1064 O 0.47933 0.32877 0.86595 0.0
C1065 C 0.41732 0.36159 0.87579 0.0
O1066 O 0.4193 0.33799 0.85891 0.0
C1067 C 0.52148 0.27724 0.81241 0.0
O1068 O 0.54923 0.28187 0.81997 0.0
O1069 O 0.54043 0.31888 0.86556 0.0
O1070 O 0.52762 0.35867 0.89252 0.0
H1071 H 0.59363 0.24117 0.91492 0.0
H1072 H 0.45571 0.36738 0.8291 0.0
O1073 O 0.44013 0.37307 0.88787 0.0
H1074 H 0.53702 0.44028 0.82663 0.0
H1075 H 0.46039 0.46967 0.91866 0.0
H1076 H 0.51714 0.37986 0.94421 0.0
H1077 H 0.52769 0.41071 0.87156 0.0
H1078 H 0.45845 0.4258 0.88655 0.0
O1079 O 0.50079 0.28317 0.83077 0.0
H1080 H 0.56103 0.2841 0.90604 0.0
H1081 H 0.50266 0.23057 0.85514 0.0
H1082 H 0.51937 0.4233 0.97736 0.0
H1083 H 0.46383 0.39684 0.78395 0.0
H1084 H 0.49028 0.46838 0.96512 0.0
H1085 H 0.50475 0.43367 0.78244 0.0
O1086 O 0.47714 0.34147 0.92587 0.0
H1087 H 0.40092 0.25761 0.85529 0.0
H1088 H 0.48722 0.25233 0.92227 0.0
H1089 H 0.44234 0.22338 0.93391 0.0
H1090 H 0.39881 0.22578 0.90022 0.0
H1091 H 0.44615 0.28645 0.84468 0.0
H1092 H 0.53477 0.18708 0.86318 0.0
H1093 H 0.58058 0.19219 0.89337 0.0
O1094 O 0.50827 0.3039 0.9174 0.0
C1095 C 0.54675 0.34304 0.8788 0.0
C1096 C 0.57369 0.23862 0.9018 0.0
C1097 C 0.54066 0.20827 0.87277 0.0
N1098 N 0.52981 0.25984 0.88038 0.0
C1099 C 0.55509 0.26286 0.89679 0.0
C1100 C 0.52256 0.23299 0.86829 0.0
C1101 C 0.56636 0.21116 0.8897 0.0
C1102 C 0.47315 0.38364 0.82897 0.0
N1103 N 0.49059 0.38778 0.85339 0.0
C1104 C 0.47784 0.40015 0.80316 0.0
C1105 C 0.50084 0.42077 0.8023 0.0
C1106 C 0.51893 0.42449 0.82707 0.0
C1107 C 0.51352 0.40765 0.85248 0.0
C1108 C 0.47279 0.45007 0.92465 0.0
C1109 C 0.50471 0.39954 0.93854 0.0
C1110 C 0.47189 0.42514 0.9064 0.0
N1111 N 0.48764 0.40025 0.91351 0.0
C1112 C 0.50592 0.424 0.95748 0.0
C1113 C 0.4896 0.44932 0.95057 0.0
C1114 C 0.4929 0.31993 0.935 0.0
C1115 C 0.41976 0.25631 0.87011 0.0
C1116 C 0.46833 0.25364 0.90756 0.0
C1117 C 0.443 0.23712 0.91424 0.0
C1118 C 0.41859 0.23847 0.89532 0.0
N1119 N 0.4694 0.27093 0.88265 0.0
C1120 C 0.44546 0.27253 0.86417 0.0
Co1121 Co 0.65318 0.48154 0.88505 0.0
Co1122 Co 0.72125 0.51226 0.87578 0.0
O1123 O 0.69138 0.48239 0.86433 0.0
C1124 C 0.64486 0.4183 0.89911 0.0
O1125 O 0.64686 0.42632 0.92703 0.0
C1126 C 0.72691 0.50641 0.80893 0.0
O1127 O 0.69914 0.49819 0.80622 0.0
O1128 O 0.69254 0.54439 0.86576 0.0
O1129 O 0.65416 0.52554 0.89105 0.0
H1130 H 0.75633 0.60552 0.92573 0.0
H1131 H 0.65648 0.45356 0.8257 0.0
O1132 O 0.65044 0.43734 0.8789 0.0
H1133 H 0.57923 0.53046 0.81697 0.0
H1134 H 0.54729 0.45022 0.90482 0.0
H1135 H 0.63204 0.50925 0.94044 0.0
H1136 H 0.60543 0.52265 0.86429 0.0
H1137 H 0.59379 0.45221 0.87594 0.0
O1138 O 0.7375 0.513 0.8343 0.0
H1139 H 0.71989 0.56714 0.91208 0.0
H1140 H 0.78541 0.52158 0.862 0.0
H1141 H 0.58595 0.50835 0.96948 0.0
H1142 H 0.6305 0.46034 0.778 0.0
H1143 H 0.54348 0.47839 0.95214 0.0
H1144 H 0.59159 0.49905 0.77342 0.0
O1145 O 0.67484 0.47576 0.9229 0.0
H1146 H 0.77396 0.41567 0.85835 0.0
H1147 H 0.76115 0.49959 0.92723 0.0
H1148 H 0.79522 0.45897 0.94044 0.0
H1149 H 0.80191 0.41667 0.90582 0.0
H1150 H 0.73982 0.45659 0.84616 0.0
H1151 H 0.82247 0.55964 0.87489 0.0
H1152 H 0.80805 0.60193 0.90709 0.0
O1153 O 0.70728 0.51275 0.91833 0.0
C1154 C 0.66741 0.54712 0.87845 0.0
C1155 C 0.7629 0.58717 0.91172 0.0
C1156 C 0.80001 0.56145 0.88316 0.0
N1157 N 0.7505 0.54206 0.88634 0.0
C1158 C 0.74236 0.56533 0.90395 0.0
C1159 C 0.77888 0.54001 0.87585 0.0
C1160 C 0.7919 0.58516 0.90124 0.0
C1161 C 0.63944 0.47031 0.82391 0.0
N1162 N 0.6325 0.48763 0.84776 0.0
C1163 C 0.62487 0.47412 0.79683 0.0
C1164 C 0.60307 0.49587 0.79426 0.0
C1165 C 0.59615 0.51352 0.81867 0.0
C1166 C 0.61119 0.50908 0.84539 0.0
C1167 C 0.56585 0.46316 0.91276 0.0
C1168 C 0.61358 0.49628 0.93245 0.0
C1169 C 0.59222 0.4644 0.89652 0.0
N1170 N 0.61577 0.48068 0.90656 0.0
C1171 C 0.58757 0.49571 0.94915 0.0
C1172 C 0.56369 0.47885 0.93932 0.0
C1173 C 0.69313 0.49402 0.93409 0.0
C1174 C 0.77132 0.43403 0.87357 0.0
C1175 C 0.76384 0.48123 0.91207 0.0
C1176 C 0.78322 0.45831 0.91966 0.0
C1177 C 0.78697 0.43459 0.90022 0.0
N1178 N 0.74866 0.48061 0.8858 0.0
C1179 C 0.7521 0.45733 0.86673 0.0
Co1180 Co 0.51499 0.63724 0.89341 0.0
Co1181 Co 0.49487 0.70756 0.87644 0.0
O1182 O 0.5194 0.6724 0.86852 0.0
C1183 C 0.58091 0.63883 0.87738 0.0
O1184 O 0.57857 0.66186 0.85978 0.0
C1185 C 0.47751 0.72397 0.81487 0.0
O1186 O 0.44979 0.71967 0.82271 0.0
O1187 O 0.45878 0.68317 0.86881 0.0
O1188 O 0.47129 0.64477 0.8978 0.0
H1189 H 0.40746 0.7622 0.91882 0.0
H1190 H 0.5401 0.63205 0.83212 0.0
O1191 O 0.55835 0.62794 0.89045 0.0
H1192 H 0.45773 0.56036 0.83627 0.0
H1193 H 0.53841 0.53384 0.92783 0.0
H1194 H 0.4826 0.62514 0.94947 0.0
H1195 H 0.46978 0.59123 0.87966 0.0
H1196 H 0.53971 0.57582 0.89311 0.0
O1197 O 0.49831 0.71811 0.83316 0.0
H1198 H 0.43963 0.71883 0.9103 0.0
H1199 H 0.49698 0.77079 0.85657 0.0
H1200 H 0.47999 0.58328 0.98442 0.0
H1201 H 0.52913 0.60131 0.7884 0.0
H1202 H 0.50908 0.53753 0.97437 0.0
H1203 H 0.48766 0.5651 0.79025 0.0
O1204 O 0.52383 0.66179 0.92855 0.0
H1205 H 0.59888 0.74226 0.85631 0.0
H1206 H 0.51338 0.74985 0.92408 0.0
H1207 H 0.55888 0.77813 0.93493 0.0
H1208 H 0.60202 0.77455 0.90084 0.0
H1209 H 0.55303 0.7141 0.84651 0.0
H1210 H 0.46535 0.81467 0.86437 0.0
H1211 H 0.42025 0.81055 0.89575 0.0
O1212 O 0.49157 0.69836 0.92027 0.0
C1213 C 0.45213 0.65991 0.88343 0.0
C1214 C 0.42707 0.76428 0.90513 0.0
C1215 C 0.45955 0.79373 0.87456 0.0
N1216 N 0.47019 0.74225 0.883 0.0
C1217 C 0.44539 0.7398 0.90024 0.0
C1218 C 0.47736 0.76879 0.8702 0.0
C1219 C 0.43425 0.7914 0.89217 0.0
C1220 C 0.52239 0.6161 0.83338 0.0
N1221 N 0.50616 0.61306 0.85877 0.0
C1222 C 0.5161 0.59885 0.80841 0.0
C1223 C 0.4928 0.57858 0.80944 0.0
C1224 C 0.47601 0.5759 0.83524 0.0
C1225 C 0.48298 0.59347 0.85976 0.0
C1226 C 0.52611 0.55374 0.93283 0.0
C1227 C 0.49462 0.60506 0.94449 0.0
C1228 C 0.52669 0.57762 0.91317 0.0
N1229 N 0.51123 0.60298 0.91923 0.0
C1230 C 0.49338 0.58153 0.96458 0.0
C1231 C 0.5096 0.55585 0.95887 0.0
C1232 C 0.50817 0.68334 0.93762 0.0
C1233 C 0.58022 0.74406 0.87131 0.0
C1234 C 0.53209 0.74803 0.9092 0.0
C1235 C 0.55778 0.76417 0.91543 0.0
C1236 C 0.58197 0.76216 0.8963 0.0
N1237 N 0.53048 0.73043 0.88455 0.0
C1238 C 0.55418 0.72821 0.86583 0.0
Co1239 Co 0.64536 0.5148 0.10758 0.0
Co1240 Co 0.71531 0.49168 0.12266 0.0
O1241 O 0.68175 0.51845 0.13122 0.0
C1242 C 0.64767 0.58093 0.12374 0.0
O1243 O 0.67121 0.57889 0.14076 0.0
C1244 C 0.71819 0.50407 0.18894 0.0
O1245 O 0.69197 0.51664 0.18891 0.0
O1246 O 0.68932 0.4572 0.13198 0.0
O1247 O 0.65151 0.47094 0.1029 0.0
H1248 H 0.7624 0.40128 0.07769 0.0
H1249 H 0.64154 0.54129 0.16854 0.0
O1250 O 0.63701 0.55833 0.1106 0.0
H1251 H 0.56992 0.45886 0.16796 0.0
H1252 H 0.54117 0.54046 0.07821 0.0
H1253 H 0.63013 0.48285 0.05183 0.0
H1254 H 0.59946 0.47014 0.12349 0.0
H1255 H 0.58457 0.54042 0.11087 0.0
O1256 O 0.72891 0.49303 0.16522 0.0
H1257 H 0.72162 0.43617 0.08799 0.0
H1258 H 0.77899 0.48891 0.14093 0.0
H1259 H 0.58694 0.48228 0.0183 0.0
H1260 H 0.61208 0.53118 0.21326 0.0
H1261 H 0.54236 0.5122 0.03075 0.0
H1262 H 0.57594 0.48962 0.21327 0.0
O1263 O 0.6689 0.52277 0.07142 0.0
H1264 H 0.75682 0.59387 0.13949 0.0
H1265 H 0.75737 0.50657 0.07373 0.0
H1266 H 0.7883 0.54982 0.06118 0.0
H1267 H 0.78828 0.59385 0.09426 0.0
H1268 H 0.72601 0.55033 0.15101 0.0
H1269 H 0.8203 0.45438 0.13148 0.0
H1270 H 0.81218 0.41027 0.09952 0.0
O1271 O 0.70416 0.489 0.07928 0.0
C1272 C 0.66541 0.45146 0.11803 0.0
C1273 C 0.76624 0.42047 0.09157 0.0
C1274 C 0.79873 0.45026 0.12179 0.0
N1275 N 0.74794 0.46471 0.11481 0.0
C1276 C 0.74325 0.44037 0.0974 0.0
C1277 C 0.77521 0.46969 0.12712 0.0
C1278 C 0.79416 0.42552 0.10385 0.0
C1279 C 0.62571 0.52349 0.16806 0.0
N1280 N 0.62216 0.50667 0.14314 0.0
C1281 C 0.60914 0.5177 0.19361 0.0
C1282 C 0.5889 0.49436 0.19362 0.0
C1283 C 0.58552 0.4771 0.16823 0.0
C1284 C 0.60242 0.48359 0.14311 0.0
C1285 C 0.56056 0.5279 0.07199 0.0
C1286 C 0.61062 0.49545 0.05769 0.0
C1287 C 0.58526 0.52767 0.09057 0.0
N1288 N 0.61001 0.51182 0.08319 0.0
C1289 C 0.5863 0.49523 0.03849 0.0
C1290 C 0.56127 0.51194 0.04553 0.0
C1291 C 0.68938 0.50589 0.06203 0.0
C1292 C 0.75716 0.57475 0.12499 0.0
C1293 C 0.75718 0.52563 0.08825 0.0
C1294 C 0.77479 0.55006 0.08103 0.0
C1295 C 0.77477 0.57475 0.09959 0.0
N1296 N 0.74013 0.52568 0.11335 0.0
C1297 C 0.73984 0.54992 0.1315 0.0
Co1298 Co 0.48651 0.64266 0.11128 0.0
Co1299 Co 0.5112 0.71214 0.12551 0.0
O1300 O 0.4835 0.67941 0.13436 0.0
C1301 C 0.42008 0.6464 0.12647 0.0
O1302 O 0.42214 0.66954 0.144 0.0
C1303 C 0.4968 0.71772 0.19141 0.0
O1304 O 0.48077 0.69344 0.19152 0.0
O1305 O 0.54507 0.68548 0.13551 0.0
O1306 O 0.53054 0.64768 0.10692 0.0
H1307 H 0.60335 0.75631 0.08094 0.0
H1308 H 0.4597 0.64072 0.17213 0.0
O1309 O 0.4428 0.63536 0.11389 0.0
H1310 H 0.53983 0.56657 0.17315 0.0
H1311 H 0.45943 0.53848 0.08292 0.0
H1312 H 0.51916 0.62604 0.05648 0.0
H1313 H 0.52974 0.59575 0.12816 0.0
H1314 H 0.45909 0.58256 0.11467 0.0
O1315 O 0.50987 0.72631 0.16784 0.0
H1316 H 0.56707 0.71669 0.09102 0.0
H1317 H 0.51562 0.77584 0.14325 0.0
H1318 H 0.52052 0.58206 0.02419 0.0
H1319 H 0.46865 0.61169 0.21739 0.0
H1320 H 0.48972 0.53816 0.03661 0.0
H1321 H 0.50901 0.57425 0.21818 0.0
O1322 O 0.47934 0.66586 0.07476 0.0
H1323 H 0.40936 0.75598 0.13957 0.0
H1324 H 0.49842 0.75429 0.07618 0.0
H1325 H 0.4563 0.7862 0.06244 0.0
H1326 H 0.41138 0.78734 0.09432 0.0
H1327 H 0.45176 0.72419 0.15227 0.0
H1328 H 0.55158 0.81595 0.1341 0.0
H1329 H 0.59576 0.80637 0.1026 0.0
O1330 O 0.51394 0.70036 0.08231 0.0
C1331 C 0.55033 0.6613 0.12186 0.0
C1332 C 0.58414 0.7608 0.09462 0.0
C1333 C 0.55511 0.79426 0.12447 0.0
N1334 N 0.53911 0.74395 0.11751 0.0
C1335 C 0.56346 0.73846 0.10032 0.0
C1336 C 0.53486 0.77141 0.12965 0.0
C1337 C 0.57988 0.78887 0.1068 0.0
C1338 C 0.47698 0.62432 0.17201 0.0
N1339 N 0.49376 0.6198 0.14722 0.0
C1340 C 0.48211 0.608 0.19785 0.0
C1341 C 0.50478 0.58703 0.19831 0.0
C1342 C 0.52206 0.58271 0.17307 0.0
C1343 C 0.51624 0.5994 0.14764 0.0
C1344 C 0.47248 0.55757 0.07671 0.0
C1345 C 0.50609 0.60686 0.06237 0.0
C1346 C 0.47244 0.58266 0.09474 0.0
N1347 N 0.48897 0.60698 0.08738 0.0
C1348 C 0.50672 0.5821 0.04382 0.0
C1349 C 0.48947 0.55744 0.05087 0.0
C1350 C 0.49657 0.68597 0.06522 0.0
C1351 C 0.4289 0.75587 0.12562 0.0
C1352 C 0.47902 0.75465 0.09025 0.0
C1353 C 0.45521 0.77278 0.08232 0.0
C1354 C 0.43002 0.77341 0.1002 0.0
N1355 N 0.47793 0.73771 0.11541 0.0
C1356 C 0.45314 0.73799 0.13284 0.0
Co1357 Co 0.51865 0.35886 0.10945 0.0
Co1358 Co 0.49559 0.28872 0.12214 0.0
O1359 O 0.52288 0.32155 0.13109 0.0
C1360 C 0.58535 0.35457 0.12205 0.0
O1361 O 0.58356 0.33063 0.1385 0.0
C1362 C 0.49437 0.28244 0.18916 0.0
O1363 O 0.48051 0.3078 0.19258 0.0
O1364 O 0.46167 0.31426 0.13469 0.0
O1365 O 0.47449 0.35368 0.10723 0.0
H1366 H 0.40239 0.24312 0.08139 0.0
H1367 H 0.54679 0.35706 0.16972 0.0
O1368 O 0.56243 0.36618 0.11035 0.0
H1369 H 0.46876 0.43317 0.17607 0.0
H1370 H 0.54606 0.46325 0.08189 0.0
H1371 H 0.48392 0.37709 0.05652 0.0
H1372 H 0.47702 0.40588 0.12954 0.0
H1373 H 0.54601 0.41902 0.1136 0.0
O1374 O 0.50143 0.27331 0.16339 0.0
H1375 H 0.43788 0.2836 0.09091 0.0
H1376 H 0.49426 0.22438 0.13771 0.0
H1377 H 0.48356 0.42086 0.0238 0.0
H1378 H 0.53967 0.38417 0.21645 0.0
H1379 H 0.51534 0.4641 0.03591 0.0
H1380 H 0.50039 0.4226 0.21994 0.0
O1381 O 0.52404 0.33686 0.07186 0.0
H1382 H 0.5984 0.24658 0.13077 0.0
H1383 H 0.50759 0.24963 0.0699 0.0
H1384 H 0.5503 0.22005 0.05298 0.0
H1385 H 0.59612 0.21834 0.08352 0.0
H1386 H 0.55523 0.27609 0.14676 0.0
H1387 H 0.45924 0.18334 0.12891 0.0
H1388 H 0.41297 0.19256 0.10045 0.0
O1389 O 0.4898 0.30203 0.07976 0.0
C1390 C 0.45557 0.33899 0.12235 0.0
C1391 C 0.42251 0.23881 0.09375 0.0
C1392 C 0.4544 0.20527 0.12044 0.0
N1393 N 0.46822 0.25636 0.11467 0.0
C1394 C 0.44274 0.26164 0.09915 0.0
C1395 C 0.47411 0.22863 0.12542 0.0
C1396 C 0.42845 0.21045 0.10447 0.0
C1397 C 0.53012 0.37408 0.17069 0.0
N1398 N 0.51305 0.38038 0.14647 0.0
C1399 C 0.52597 0.38923 0.19739 0.0
C1400 C 0.50389 0.41074 0.19936 0.0
C1401 C 0.48616 0.4167 0.17477 0.0
C1402 C 0.49101 0.40116 0.14843 0.0
C1403 C 0.53245 0.44445 0.07595 0.0
C1404 C 0.49753 0.39594 0.06214 0.0
C1405 C 0.53221 0.41932 0.09398 0.0
N1406 N 0.51515 0.39531 0.08678 0.0
C1407 C 0.49739 0.42061 0.04342 0.0
C1408 C 0.51525 0.44488 0.05025 0.0
C1409 C 0.5066 0.31683 0.0625 0.0
C1410 C 0.57855 0.24713 0.11727 0.0
C1411 C 0.52746 0.2491 0.08329 0.0
C1412 C 0.55156 0.23224 0.07362 0.0
C1413 C 0.57726 0.23129 0.09076 0.0
N1414 N 0.52891 0.26462 0.10931 0.0
C1415 C 0.55403 0.26378 0.12623 0.0
C1416 C 0.08814 0.40858 0.35178 0.0
C1417 C 0.11621 0.42162 0.34857 0.0
C1418 C 0.08325 0.38584 0.37232 0.0
C1419 C 0.10619 0.37571 0.39095 0.0
H1420 H 0.06928 0.4177 0.34009 0.0
H1421 H 0.06073 0.37801 0.37528 0.0
S1422 S 0.18497 0.39996 0.38767 0.0
N1423 N 0.168 0.42072 0.36272 0.0
N1424 N 0.15924 0.37783 0.40146 0.0
C1425 C 0.13512 0.3866 0.3857 0.0
C1426 C 0.14001 0.40971 0.36455 0.0
C1427 C 0.62015 0.1479 0.3768 0.0
C1428 C 0.62705 0.12298 0.3943 0.0
C1429 C 0.59682 0.14687 0.35599 0.0
C1430 C 0.57983 0.12093 0.35231 0.0
H1431 H 0.63109 0.16888 0.38092 0.0
H1432 H 0.59054 0.16704 0.34456 0.0
S1433 S 0.59267 0.04847 0.38901 0.0
N1434 N 0.61784 0.07072 0.40354 0.0
N1435 N 0.57427 0.06885 0.36482 0.0
C1436 C 0.58845 0.09528 0.36772 0.0
C1437 C 0.61204 0.09629 0.38862 0.0
C1438 C 0.86358 0.60902 0.3926 0.0
C1439 C 0.89171 0.62273 0.39399 0.0
C1440 C 0.85783 0.58612 0.37231 0.0
C1441 C 0.87979 0.57654 0.35247 0.0
H1442 H 0.84673 0.61401 0.40898 0.0
H1443 H 0.83711 0.57406 0.37404 0.0
S1444 S 0.95467 0.60881 0.3428 0.0
N1445 N 0.93997 0.62797 0.37032 0.0
N1446 N 0.92894 0.58489 0.33249 0.0
C1447 C 0.90667 0.59211 0.35143 0.0
C1448 C 0.91265 0.61533 0.37205 0.0
C1449 C 0.39094 0.86402 0.38996 0.0
C1450 C 0.378 0.89225 0.39386 0.0
C1451 C 0.41341 0.85941 0.36886 0.0
C1452 C 0.42336 0.88274 0.35083 0.0
H1453 H 0.38577 0.84606 0.40505 0.0
H1454 H 0.425 0.83837 0.36873 0.0
S1455 S 0.39306 0.95891 0.34793 0.0
N1456 N 0.37372 0.94241 0.37431 0.0
N1457 N 0.4162 0.93358 0.3352 0.0
C1458 C 0.40849 0.90996 0.35224 0.0
C1459 C 0.38564 0.91474 0.37357 0.0
C1460 C 0.15194 0.59697 0.63957 0.0
C1461 C 0.12563 0.58096 0.64463 0.0
C1462 C 0.15217 0.62156 0.62027 0.0
C1463 C 0.12607 0.63062 0.60573 0.0
H1464 H 0.17281 0.58886 0.64827 0.0
H1465 H 0.17324 0.63157 0.61452 0.0
S1466 S 0.05078 0.59925 0.61605 0.0
N1467 N 0.07237 0.57848 0.63711 0.0
N1468 N 0.07277 0.62436 0.60101 0.0
C1469 C 0.09926 0.61663 0.6132 0.0
C1470 C 0.09905 0.59181 0.63262 0.0
C1471 C 0.38965 0.09454 0.61899 0.0
C1472 C 0.37594 0.12134 0.61105 0.0
C1473 C 0.41281 0.09394 0.63954 0.0
C1474 C 0.42321 0.12015 0.65282 0.0
H1475 H 0.38389 0.07417 0.60762 0.0
H1476 H 0.42411 0.07309 0.64343 0.0
S1477 S 0.39295 0.19563 0.64165 0.0
N1478 N 0.37258 0.17436 0.61983 0.0
N1479 N 0.41648 0.17323 0.65863 0.0
C1480 C 0.40806 0.14673 0.64708 0.0
C1481 C 0.38428 0.14733 0.62607 0.0
C1482 C 0.86037 0.41757 0.62847 0.0
C1483 C 0.88111 0.42286 0.6511 0.0
C1484 C 0.8645 0.39458 0.60794 0.0
C1485 C 0.88988 0.37636 0.60905 0.0
H1486 H 0.84209 0.43277 0.62516 0.0
H1487 H 0.84905 0.39292 0.58961 0.0
S1488 S 0.94636 0.37621 0.66881 0.0
N1489 N 0.92465 0.40458 0.67687 0.0
N1490 N 0.93257 0.36132 0.63832 0.0
C1491 C 0.90878 0.37922 0.63369 0.0
C1492 C 0.9044 0.40254 0.6547 0.0
C1493 C 0.59286 0.85572 0.64994 0.0
C1494 C 0.57703 0.88214 0.65488 0.0
C1495 C 0.6168 0.85502 0.62987 0.0
C1496 C 0.62537 0.88072 0.61436 0.0
H1497 H 0.58509 0.83509 0.65946 0.0
H1498 H 0.62674 0.83384 0.62445 0.0
S1499 S 0.59462 0.95628 0.62393 0.0
N1500 N 0.57453 0.93523 0.64615 0.0
N1501 N 0.6191 0.93385 0.60852 0.0
C1502 C 0.61164 0.90768 0.62154 0.0
C1503 C 0.58753 0.9084 0.64181 0.0
C1504 C 0.35694 0.08744 0.40997 0.0
C1505 C 0.35363 0.11532 0.42337 0.0
C1506 C 0.37669 0.08324 0.38636 0.0
C1507 C 0.39443 0.10668 0.37571 0.0
H1508 H 0.34591 0.06824 0.41934 0.0
H1509 H 0.3798 0.06088 0.37818 0.0
S1510 S 0.3905 0.18504 0.40094 0.0
N1511 N 0.36669 0.16737 0.42245 0.0
N1512 N 0.40397 0.15985 0.37803 0.0
C1513 C 0.38904 0.13534 0.38714 0.0
C1514 C 0.36868 0.13954 0.4111 0.0
C1515 C 0.90488 0.36257 0.41486 0.0
C1516 C 0.87945 0.34706 0.42408 0.0
C1517 C 0.90362 0.383 0.3916 0.0
C1518 C 0.87688 0.38879 0.37663 0.0
H1519 H 0.92552 0.36031 0.42697 0.0
H1520 H 0.92332 0.39584 0.38663 0.0
S1521 S 0.80465 0.35205 0.39046 0.0
N1522 N 0.82734 0.33695 0.41497 0.0
N1523 N 0.8249 0.37565 0.37104 0.0
C1524 C 0.85183 0.37171 0.38395 0.0
C1525 C 0.85314 0.35074 0.40778 0.0
C1526 C 0.61685 0.90541 0.39094 0.0
C1527 C 0.60985 0.8785 0.37688 0.0
C1528 C 0.6357 0.90619 0.41551 0.0
C1529 C 0.64829 0.88009 0.42695 0.0
H1530 H 0.60587 0.92573 0.38429 0.0
H1531 H 0.63879 0.92712 0.42691 0.0
S1532 S 0.63941 0.8044 0.39645 0.0
N1533 N 0.61895 0.82547 0.37451 0.0
N1534 N 0.65469 0.82699 0.42093 0.0
C1535 C 0.64366 0.8534 0.41159 0.0
C1536 C 0.62431 0.85259 0.38642 0.0
C1537 C 0.14447 0.64528 0.40107 0.0
C1538 C 0.11829 0.64984 0.41744 0.0
C1539 C 0.14491 0.62547 0.37689 0.0
C1540 C 0.11918 0.60985 0.3686 0.0
H1541 H 0.16517 0.65492 0.40856 0.0
H1542 H 0.16597 0.62032 0.36653 0.0
S1543 S 0.04412 0.61837 0.40109 0.0
N1544 N 0.06534 0.64061 0.42098 0.0
N1545 N 0.06621 0.60342 0.37599 0.0
C1546 C 0.09241 0.61662 0.38301 0.0
C1547 C 0.09196 0.63663 0.40736 0.0
C1548 C 0.35508 0.85071 0.59751 0.0
C1549 C 0.35136 0.87629 0.58003 0.0
C1550 C 0.37434 0.85085 0.62218 0.0
C1551 C 0.39021 0.87663 0.62997 0.0
H1552 H 0.34499 0.82999 0.59074 0.0
H1553 H 0.37868 0.83017 0.63359 0.0
S1554 S 0.38385 0.95046 0.59429 0.0
N1555 N 0.36193 0.92879 0.57457 0.0
N1556 N 0.39761 0.92918 0.6207 0.0
C1557 C 0.38431 0.90289 0.61427 0.0
C1558 C 0.36503 0.90268 0.58931 0.0
C1559 C 0.10154 0.38742 0.60839 0.0
C1560 C 0.12896 0.39263 0.6223 0.0
C1561 C 0.09885 0.36677 0.5855 0.0
C1562 C 0.12347 0.35041 0.57569 0.0
H1563 H 0.08242 0.40095 0.61383 0.0
H1564 H 0.07773 0.36492 0.57415 0.0
S1565 S 0.19951 0.35357 0.60672 0.0
N1566 N 0.18066 0.37808 0.6264 0.0
N1567 N 0.17555 0.33881 0.58322 0.0
C1568 C 0.15045 0.35348 0.59104 0.0
C1569 C 0.15322 0.37474 0.61445 0.0
C1570 C 0.62577 0.14662 0.62451 0.0
C1571 C 0.61044 0.12093 0.63346 0.0
C1572 C 0.64462 0.14611 0.59956 0.0
C1573 C 0.64841 0.11995 0.58298 0.0
H1574 H 0.62107 0.16769 0.63503 0.0
H1575 H 0.65411 0.16675 0.59176 0.0
S1576 S 0.61739 0.04589 0.60066 0.0
N1577 N 0.6037 0.06798 0.62644 0.0
N1578 N 0.63873 0.06709 0.57979 0.0
C1579 C 0.63549 0.09368 0.59358 0.0
C1580 C 0.61662 0.09415 0.61883 0.0
C1581 C 0.90968 0.61569 0.61184 0.0
C1582 C 0.88411 0.6111 0.62909 0.0
C1583 C 0.90942 0.63496 0.58761 0.0
C1584 C 0.88361 0.65054 0.57975 0.0
H1585 H 0.92944 0.60256 0.61574 0.0
H1586 H 0.92907 0.63625 0.57384 0.0
S1587 S 0.81176 0.64886 0.6196 0.0
N1588 N 0.83304 0.62561 0.6383 0.0
N1589 N 0.83265 0.66236 0.59267 0.0
C1590 C 0.85866 0.64826 0.59831 0.0
C1591 C 0.85889 0.62839 0.62308 0.0
C1592 C 0.38986 0.38462 0.0999 0.0
C1593 C 0.37684 0.39193 0.12726 0.0
C1594 C 0.41369 0.36488 0.09828 0.0
C1595 C 0.42545 0.35169 0.12397 0.0
H1596 H 0.38297 0.3959 0.07981 0.0
H1597 H 0.42434 0.36154 0.07698 0.0
S1598 S 0.39773 0.36137 0.20068 0.0
N1599 N 0.37587 0.38266 0.18037 0.0
N1600 N 0.42092 0.34534 0.17725 0.0
C1601 C 0.41114 0.3568 0.15116 0.0
C1602 C 0.38671 0.37702 0.15283 0.0
C1603 C 0.40488 0.64521 0.85809 0.0
C1604 C 0.42123 0.64912 0.8844 0.0
C1605 C 0.37947 0.62701 0.85765 0.0
C1606 C 0.36986 0.61243 0.88354 0.0
H1607 H 0.41321 0.65399 0.83733 0.0
H1608 H 0.36912 0.62211 0.83653 0.0
S1609 S 0.40183 0.62026 0.95892 0.0
N1610 N 0.42342 0.64074 0.93758 0.0
N1611 N 0.37609 0.60659 0.93674 0.0
C1612 C 0.3843 0.61881 0.91041 0.0
C1613 C 0.40994 0.63715 0.91084 0.0
C1614 C 0.38277 0.39183 0.9056 0.0
C1615 C 0.38948 0.37857 0.87822 0.0
C1616 C 0.36237 0.41503 0.90753 0.0
C1617 C 0.34797 0.42597 0.88212 0.0
H1618 H 0.39497 0.38563 0.92538 0.0
H1619 H 0.35945 0.42592 0.92877 0.0
S1620 S 0.35578 0.39712 0.8056 0.0
N1621 N 0.3784 0.37628 0.82553 0.0
N1622 N 0.33989 0.42026 0.82916 0.0
C1623 C 0.35253 0.41131 0.85501 0.0
C1624 C 0.3734 0.38748 0.85304 0.0
C1625 C 0.61403 0.38915 0.86298 0.0
C1626 C 0.62669 0.39179 0.89153 0.0
C1627 C 0.58973 0.37033 0.8578 0.0
C1628 C 0.5776 0.35331 0.88086 0.0
H1629 H 0.62111 0.40358 0.84513 0.0
H1630 H 0.57879 0.37111 0.83641 0.0
S1631 S 0.60541 0.34791 0.95793 0.0
N1632 N 0.62772 0.37207 0.94184 0.0
N1633 N 0.58175 0.33747 0.93201 0.0
C1634 C 0.59174 0.3535 0.90853 0.0
C1635 C 0.6165 0.37243 0.91385 0.0
C1636 C 0.64713 0.59279 0.85412 0.0
C1637 C 0.65236 0.57611 0.87996 0.0
C1638 C 0.62562 0.61545 0.85387 0.0
C1639 C 0.60881 0.62181 0.87943 0.0
H1640 H 0.65785 0.58671 0.83349 0.0
H1641 H 0.62044 0.62625 0.83304 0.0
S1642 S 0.61822 0.58805 0.95385 0.0
N1643 N 0.64227 0.57044 0.9326 0.0
N1644 N 0.60184 0.61249 0.93207 0.0
C1645 C 0.61594 0.60709 0.90594 0.0
C1646 C 0.63775 0.58435 0.90622 0.0
C1647 C 0.61433 0.61464 0.09618 0.0
C1648 C 0.62941 0.60814 0.1227 0.0
C1649 C 0.59029 0.63416 0.09576 0.0
C1650 C 0.58031 0.64803 0.12185 0.0
H1651 H 0.61988 0.60294 0.07592 0.0
H1652 H 0.57821 0.63692 0.07516 0.0
S1653 S 0.61374 0.64068 0.19655 0.0
N1654 N 0.63417 0.6189 0.17531 0.0
N1655 N 0.58875 0.6559 0.17446 0.0
C1656 C 0.59661 0.64371 0.14806 0.0
C1657 C 0.62126 0.62366 0.14851 0.0
C1658 C 0.35824 0.59499 0.14975 0.0
C1659 C 0.35323 0.57927 0.12325 0.0
C1660 C 0.37772 0.61945 0.15037 0.0
C1661 C 0.39259 0.6287 0.12449 0.0
H1662 H 0.34923 0.58682 0.17047 0.0
H1663 H 0.38322 0.62931 0.17157 0.0
S1664 S 0.38257 0.59821 0.04877 0.0
N1665 N 0.36114 0.57744 0.06997 0.0
N1666 N 0.39776 0.62286 0.07118 0.0
C1667 C 0.38534 0.61492 0.09751 0.0
C1668 C 0.36563 0.59031 0.09688 0.0
C1669 C 0.6386 0.4109 0.09253 0.0
C1670 C 0.65252 0.42137 0.1184 0.0
C1671 C 0.61915 0.38681 0.09346 0.0
C1672 C 0.61285 0.37222 0.12028 0.0
H1673 H 0.6412 0.42269 0.07173 0.0
H1674 H 0.60723 0.38096 0.07341 0.0
S1675 S 0.64566 0.38921 0.1937 0.0
N1676 N 0.66072 0.41384 0.17111 0.0
N1677 N 0.62387 0.36834 0.17289 0.0
C1678 C 0.62851 0.38078 0.14585 0.0
C1679 C 0.64846 0.40546 0.1449 0.0
C1680 C 0.01791 0.30706 0.52557 0.0
C1681 C 0.0312 0.30833 0.49732 0.0
C1682 C 0.98692 0.30737 0.52879 0.0
C1683 C 0.96823 0.30804 0.50384 0.0
H1684 H 0.03157 0.30675 0.54535 0.0
H1685 H 0.97751 0.307 0.5509 0.0
S1686 S 0.99196 0.311 0.4251 0.0
N1687 N 0.0233 0.31021 0.44406 0.0
N1688 N 0.96516 0.30995 0.45004 0.0
C1689 C 0.98125 0.30872 0.47551 0.0
C1690 C 0.01272 0.3091 0.47227 0.0
C1691 C 0.68387 0.01434 0.47625 0.0
C1692 C 0.68712 0.03288 0.50114 0.0
C1693 C 0.68444 0.98339 0.47918 0.0
C1694 C 0.68737 0.97008 0.50721 0.0
H1695 H 0.6805 0.02385 0.45443 0.0
H1696 H 0.6812 0.9698 0.45962 0.0
S1697 S 0.69699 0.00845 0.57915 0.0
N1698 N 0.69447 0.03547 0.55456 0.0
N1699 N 0.69415 0.97732 0.56008 0.0
C1700 C 0.69103 0.98823 0.53215 0.0
C1701 C 0.6913 0.01967 0.52911 0.0
C1702 C 0.98657 0.69336 0.47252 0.0
C1703 C 0.96878 0.69087 0.49797 0.0
C1704 C 0.01762 0.69271 0.47462 0.0
C1705 C 0.03176 0.68856 0.50215 0.0
H1706 H 0.97641 0.69566 0.45085 0.0
H1707 H 0.03058 0.69438 0.45445 0.0
S1708 S 0.99493 0.68027 0.57521 0.0
N1709 N 0.96735 0.68436 0.55145 0.0
N1710 N 0.02564 0.68198 0.55531 0.0
C1711 C 0.01416 0.68604 0.52773 0.0
C1712 C 0.98264 0.68752 0.52567 0.0
C1713 C 0.31822 0.01419 0.47844 0.0
C1714 C 0.31619 0.0282 0.50618 0.0
C1715 C 0.31741 0.98321 0.47617 0.0
C1716 C 0.31368 0.96533 0.50149 0.0
H1717 H 0.32151 0.02722 0.45851 0.0
H1718 H 0.31989 0.97318 0.45448 0.0
S1719 S 0.30554 0.99182 0.57901 0.0
N1720 N 0.30964 0.02239 0.55927 0.0
N1721 N 0.30673 0.96418 0.55502 0.0
C1722 C 0.31049 0.97928 0.52922 0.0
C1723 C 0.31216 0.01075 0.53158 0.0
C1724 C 0.47839 0.98391 0.30946 0.0
C1725 C 0.50627 0.97001 0.31066 0.0
C1726 C 0.47599 0.01494 0.30896 0.0
C1727 C 0.50141 0.03303 0.30858 0.0
H1728 H 0.45832 0.97077 0.31017 0.0
H1729 H 0.4541 0.02486 0.30912 0.0
S1730 S 0.57952 0.0072 0.3095 0.0
N1731 N 0.55971 0.97642 0.31063 0.0
N1732 N 0.55532 0.03463 0.30817 0.0
C1733 C 0.5294 0.01928 0.30845 0.0
C1734 C 0.5318 0.98778 0.30989 0.0
C1735 C 0.97927 0.52308 0.3134 0.0
C1736 C 0.96606 0.49491 0.31216 0.0
C1737 C 0.01019 0.5263 0.31312 0.0
C1738 C 0.02887 0.50149 0.31048 0.0
H1739 H 0.96566 0.54263 0.31589 0.0
H1740 H 0.01957 0.54831 0.31536 0.0
S1741 S 0.00487 0.42308 0.30416 0.0
N1742 N 0.97362 0.44192 0.30722 0.0
N1743 N 0.03175 0.44795 0.30499 0.0
C1744 C 0.01579 0.47332 0.30771 0.0
C1745 C 0.98435 0.47001 0.30901 0.0
C1746 C 0.47121 0.98741 0.69296 0.0
C1747 C 0.49587 0.96853 0.69588 0.0
C1748 C 0.4746 0.01833 0.69328 0.0
C1749 C 0.50285 0.0313 0.69559 0.0
H1750 H 0.44921 0.97821 0.68998 0.0
H1751 H 0.45516 0.03215 0.69034 0.0
S1752 S 0.57435 0.99192 0.70425 0.0
N1753 N 0.54934 0.96524 0.70234 0.0
N1754 N 0.55571 0.02331 0.70151 0.0
C1755 C 0.52758 0.01279 0.69893 0.0
C1756 C 0.52408 0.98138 0.69949 0.0
C1757 C 0.99395 0.52529 0.69229 0.0
C1758 C 0.9758 0.50242 0.6815 0.0
C1759 C 0.02498 0.52233 0.69237 0.0
C1760 C 0.03871 0.49661 0.68113 0.0
H1761 H 0.98411 0.54561 0.70048 0.0
H1762 H 0.03826 0.54068 0.70035 0.0
S1763 S 1.00029 0.43048 0.65067 0.0
N1764 N 0.97321 0.45318 0.66019 0.0
N1765 N 0.03134 0.44772 0.65944 0.0
C1766 C 0.02049 0.4735 0.67066 0.0
C1767 C 0.98905 0.47638 0.67108 0.0
C1768 C 0.30717 0.52917 0.99259 0.0
C1769 C 0.30837 0.5045 0.97359 0.0
C1770 C 0.30801 0.52564 0.02352 0.0
C1771 C 0.31109 0.49739 0.03637 0.0
H1772 H 0.30602 0.55135 0.98345 0.0
H1773 H 0.30762 0.54525 0.03741 0.0
S1774 S 0.3152 0.42581 0.99621 0.0
N1775 N 0.31203 0.45092 0.96973 0.0
N1776 N 0.31482 0.44436 0.02781 0.0
C1777 C 0.31198 0.47256 0.0176 0.0
C1778 C 0.31029 0.47609 0.98619 0.0
C1779 C 0.47319 0.32644 0.98644 0.0
C1780 C 0.49554 0.31552 0.96751 0.0
C1781 C 0.47634 0.32546 0.01734 0.0
C1782 C 0.50228 0.31426 0.03036 0.0
H1783 H 0.45325 0.33627 0.97732 0.0
H1784 H 0.45886 0.33451 0.03112 0.0
S1785 S 0.5663 0.28077 0.99155 0.0
N1786 N 0.54352 0.29078 0.96466 0.0
N1787 N 0.54986 0.29053 0.02279 0.0
C1788 C 0.52438 0.30248 0.01204 0.0
C1789 C 0.52088 0.30266 0.98057 0.0
C1790 C 0.69514 0.52454 0.98025 0.0
C1791 C 0.69468 0.49642 0.96673 0.0
C1792 C 0.69375 0.52749 0.01121 0.0
C1793 C 0.6928 0.50242 0.02968 0.0
H1794 H 0.69549 0.54443 0.96677 0.0
H1795 H 0.69329 0.54952 0.02077 0.0
S1796 S 0.69198 0.42392 0.00536 0.0
N1797 N 0.69349 0.4431 0.97418 0.0
N1798 N 0.69178 0.44863 0.03238 0.0
C1799 C 0.69315 0.4742 0.01649 0.0
C1800 C 0.69384 0.47121 0.98499 0.0
C1801 C 0.47804 0.69118 0.9834 0.0
C1802 C 0.506 0.68789 0.96995 0.0
C1803 C 0.47513 0.69118 0.01441 0.0
C1804 C 0.50016 0.68885 0.03286 0.0
H1805 H 0.45819 0.69232 0.96991 0.0
H1806 H 0.45315 0.69258 0.02404 0.0
S1807 S 0.57827 0.68093 0.00853 0.0
N1808 N 0.55912 0.68269 0.97734 0.0
N1809 N 0.55374 0.68392 0.03557 0.0
C1810 C 0.52828 0.68672 0.01967 0.0
C1811 C 0.53118 0.6859 0.98819 0.0
C1812 C 0.23177 0.25395 0.4707 0.0
C1813 C 0.21374 0.25452 0.49618 0.0
C1814 C 0.25211 0.23083 0.46589 0.0
C1815 C 0.25552 0.2077 0.4866 0.0
H1816 H 0.22903 0.27056 0.45356 0.0
H1817 H 0.26456 0.23062 0.44534 0.0
S1818 S 0.21554 0.20089 0.5585 0.0
N1819 N 0.20212 0.23137 0.54339 0.0
N1820 N 0.24037 0.18831 0.53476 0.0
C1821 C 0.23881 0.20912 0.51304 0.0
C1822 C 0.2179 0.2324 0.5177 0.0
C1823 C 0.76161 0.21614 0.51763 0.0
C1824 C 0.73595 0.21747 0.49987 0.0
C1825 C 0.78471 0.23647 0.51423 0.0
C1826 C 0.78322 0.2594 0.49314 0.0
H1827 H 0.76449 0.19853 0.53372 0.0
H1828 H 0.80431 0.23364 0.52785 0.0
S1829 S 0.71987 0.27483 0.443 0.0
N1830 N 0.70952 0.24509 0.46173 0.0
N1831 N 0.75307 0.28376 0.45568 0.0
C1832 C 0.757 0.26232 0.47647 0.0
C1833 C 0.73335 0.24128 0.47977 0.0
C1834 C 0.76724 0.74189 0.47685 0.0
C1835 C 0.78541 0.7415 0.50221 0.0
C1836 C 0.74713 0.76515 0.47187 0.0
C1837 C 0.74416 0.7886 0.4923 0.0
H1838 H 0.76985 0.72514 0.45982 0.0
H1839 H 0.73466 0.76531 0.45134 0.0
S1840 S 0.78438 0.79568 0.56402 0.0
N1841 N 0.79744 0.76492 0.54917 0.0
N1842 N 0.75957 0.80828 0.54027 0.0
C1843 C 0.76083 0.78722 0.51875 0.0
C1844 C 0.78149 0.76378 0.52358 0.0
C1845 C 0.21334 0.76566 0.4832 0.0
C1846 C 0.21592 0.73746 0.49629 0.0
C1847 C 0.23457 0.78765 0.48791 0.0
C1848 C 0.25967 0.78256 0.50575 0.0
H1849 H 0.19424 0.77125 0.46975 0.0
H1850 H 0.23082 0.80914 0.47787 0.0
S1851 S 0.27865 0.71181 0.54309 0.0
N1852 N 0.24673 0.70495 0.52643 0.0
N1853 N 0.28709 0.74652 0.53497 0.0
C1854 C 0.2636 0.75401 0.51767 0.0
C1855 C 0.24165 0.73142 0.51301 0.0
C1856 C 0.52377 0.21641 0.23193 0.0
C1857 C 0.50855 0.2176 0.25914 0.0
C1858 C 0.51998 0.23826 0.2103 0.0
C1859 C 0.50068 0.26242 0.21469 0.0
H1860 H 0.53824 0.19792 0.22685 0.0
H1861 H 0.53176 0.23558 0.18952 0.0
S1862 S 0.45731 0.27739 0.28307 0.0
N1863 N 0.47484 0.24603 0.29021 0.0
N1864 N 0.4676 0.28728 0.24931 0.0
C1865 C 0.48646 0.26484 0.24241 0.0
C1866 C 0.49042 0.24242 0.26467 0.0
C1867 C 0.78331 0.48998 0.24014 0.0
C1868 C 0.78423 0.51569 0.25786 0.0
C1869 C 0.76094 0.48575 0.21896 0.0
C1870 C 0.73816 0.50669 0.215 0.0
H1871 H 0.80092 0.47369 0.24137 0.0
H1872 H 0.76209 0.46634 0.20484 0.0
S1873 S 0.72842 0.57616 0.25798 0.0
N1874 N 0.75902 0.56131 0.27158 0.0
N1875 N 0.71661 0.55302 0.23215 0.0
C1876 C 0.73765 0.53153 0.23387 0.0
C1877 C 0.76078 0.53612 0.25516 0.0
C1878 C 0.46893 0.74135 0.2334 0.0
C1879 C 0.49505 0.73897 0.21649 0.0
C1880 C 0.46451 0.76524 0.25295 0.0
C1881 C 0.4862 0.78746 0.25665 0.0
H1882 H 0.45101 0.72566 0.23024 0.0
H1883 H 0.44346 0.76686 0.26442 0.0
S1884 S 0.56005 0.7893 0.21991 0.0
N1885 N 0.54394 0.75929 0.20657 0.0
N1886 N 0.53596 0.8038 0.24332 0.0
C1887 C 0.51324 0.78413 0.24127 0.0
C1888 C 0.51756 0.76002 0.22119 0.0
C1889 C 0.21811 0.48661 0.24021 0.0
C1890 C 0.21396 0.50678 0.26362 0.0
C1891 C 0.2395 0.49157 0.21821 0.0
C1892 C 0.25723 0.5173 0.21829 0.0
H1893 H 0.20403 0.46724 0.23831 0.0
H1894 H 0.24092 0.47582 0.20013 0.0
S1895 S 0.25669 0.57601 0.27595 0.0
N1896 N 0.2308 0.55246 0.28679 0.0
N1897 N 0.2706 0.56217 0.24502 0.0
C1898 C 0.25425 0.53701 0.24231 0.0
C1899 C 0.23276 0.53165 0.26509 0.0
C1900 C 0.46201 0.74564 0.76587 0.0
C1901 C 0.48418 0.7413 0.7875 0.0
C1902 C 0.46589 0.76593 0.7425 0.0
C1903 C 0.49193 0.78295 0.74014 0.0
H1904 H 0.44098 0.73418 0.76764 0.0
H1905 H 0.44762 0.76964 0.72734 0.0
S1906 S 0.55808 0.77795 0.7888 0.0
N1907 N 0.53435 0.75404 0.80308 0.0
N1908 N 0.54126 0.79227 0.75962 0.0
C1909 C 0.51494 0.77757 0.76047 0.0
C1910 C 0.51118 0.75672 0.784 0.0
C1911 C 0.23896 0.491 0.78394 0.0
C1912 C 0.2623 0.51128 0.78803 0.0
C1913 C 0.21741 0.49537 0.76197 0.0
C1914 C 0.21788 0.52061 0.74356 0.0
H1915 H 0.2368 0.47196 0.79845 0.0
H1916 H 0.19938 0.47955 0.76054 0.0
S1917 S 0.2755 0.57935 0.74373 0.0
N1918 N 0.2858 0.55651 0.77046 0.0
N1919 N 0.24483 0.56514 0.72958 0.0
C1920 C 0.24179 0.54044 0.74656 0.0
C1921 C 0.26412 0.53567 0.76864 0.0
C1922 C 0.53296 0.23378 0.74101 0.0
C1923 C 0.50701 0.21657 0.73923 0.0
C1924 C 0.53683 0.25465 0.76384 0.0
C1925 C 0.51474 0.25935 0.78547 0.0
H1926 H 0.55116 0.22983 0.72583 0.0
H1927 H 0.55781 0.26626 0.76524 0.0
S1928 S 0.44102 0.22238 0.78798 0.0
N1929 N 0.45781 0.20744 0.75911 0.0
N1930 N 0.46468 0.24676 0.80156 0.0
C1931 C 0.4878 0.24372 0.78248 0.0
C1932 C 0.48407 0.22229 0.75951 0.0
C1933 C 0.7753 0.52001 0.78598 0.0
C1934 C 0.74777 0.50555 0.78333 0.0
C1935 C 0.79749 0.51664 0.76462 0.0
C1936 C 0.79335 0.49866 0.73942 0.0
H1937 H 0.78018 0.53358 0.80519 0.0
H1938 H 0.81843 0.52782 0.7684 0.0
S1939 S 0.72446 0.45784 0.72038 0.0
N1940 N 0.71681 0.47399 0.75237 0.0
N1941 N 0.75873 0.46772 0.71197 0.0
C1942 C 0.7654 0.48526 0.73553 0.0
C1943 C 0.7426 0.48869 0.75751 0.0
loop_
_geom_bond_atom_site_label_1
_geom_bond_atom_site_label_2
_geom_bond_distance
_geom_bond_site_symmetry_2
_ccdc_geom_bond_type
Co0 O2 2.143 . S
Co0 O8 2.074 . S
Co0 O11 2.093 . S
Co0 O24 2.097 . S
Co0 N41 2.151 . S
Co0 N49 2.214 . S
Co1 O2 2.160 . S
Co1 O7 2.058 . S
Co1 O17 2.057 . S
Co1 O32 2.037 . S
Co1 N36 2.145 . S
Co1 N57 2.257 . S
O2 Co0 2.143 . S
O2 Co1 2.160 . S
C3 O4 1.278 . S
C3 O11 1.224 . S
O4 C3 1.278 . S
C5 O6 1.245 . S
C5 O17 1.232 . S
O6 C5 1.245 . S
O7 Co1 2.058 . S
O7 C33 1.269 . S
O8 Co0 2.074 . S
O8 C33 1.257 . S
H9 C34 0.930 . S
H10 C40 0.930 . S
O11 Co0 2.093 . S
O11 C3 1.224 . S
H12 C44 0.929 . S
H13 C46 0.930 . S
H14 C47 0.930 . S
H15 C45 0.929 . S
H16 C48 0.928 . S
O17 Co1 2.057 . S
O17 C5 1.232 . S
H18 C37 0.929 . S
H19 C38 0.929 . S
H20 C50 0.931 . S
H21 C42 0.929 . S
H22 C51 0.930 . S
H23 C43 0.931 . S
O24 Co0 2.097 . S
O24 C52 1.214 . S
H25 C53 0.929 . S
H26 C54 0.929 . S
H27 C55 0.930 . S
H28 C56 0.929 . S
H29 C58 0.930 . S
H30 C35 0.930 . S
H31 C39 0.930 . S
O32 Co1 2.037 . S
O32 C52 1.234 . S
C33 O7 1.269 . S
C33 O8 1.257 . S
C34 H9 0.930 . S
C34 C37 1.388 . S
C34 C39 1.418 . S
C35 H30 0.930 . S
C35 C38 1.404 . S
C35 C39 1.353 . S
N36 Co1 2.145 . S
N36 C37 1.397 . S
N36 C38 1.334 . S
C37 H18 0.929 . S
C37 C34 1.388 . S
C37 N36 1.397 . S
C38 H19 0.929 . S
C38 C35 1.404 . S
C38 N36 1.334 . S
C39 H31 0.930 . S
C39 C34 1.418 . S
C39 C35 1.353 . S
C40 H10 0.930 . S
C40 N41 1.330 . S
C40 C42 1.446 . S
N41 Co0 2.151 . S
N41 C40 1.330 . S
N41 C45 1.418 . S
C42 H21 0.929 . S
C42 C40 1.446 . S
C42 C43 1.332 . S
C43 H23 0.931 . S
C43 C42 1.332 . S
C43 C44 1.267 . S
C44 H12 0.929 . S
C44 C43 1.267 . S
C44 C45 1.251 . S
C45 H15 0.929 . S
C45 N41 1.418 . S
C45 C44 1.251 . S
C46 H13 0.930 . S
C46 C48 1.406 . S
C46 C51 1.261 . S
C47 H14 0.930 . S
C47 N49 1.325 . S
C47 C50 1.357 . S
C48 H16 0.928 . S
C48 C46 1.406 . S
C48 N49 1.261 . S
N49 Co0 2.214 . S
N49 C47 1.325 . S
N49 C48 1.261 . S
C50 H20 0.931 . S
C50 C47 1.357 . S
C50 C51 1.312 . S
C51 H22 0.930 . S
C51 C46 1.261 . S
C51 C50 1.312 . S
C52 O24 1.214 . S
C52 O32 1.234 . S
C53 H25 0.929 . S
C53 C56 1.391 . S
C53 C58 1.391 . S
C54 H26 0.929 . S
C54 C55 1.390 . S
C54 N57 1.391 . S
C55 H27 0.930 . S
C55 C54 1.390 . S
C55 C56 1.392 . S
C56 H28 0.929 . S
C56 C53 1.391 . S
C56 C55 1.392 . S
N57 Co1 2.257 . S
N57 C54 1.391 . S
N57 C58 1.388 . S
C58 H29 0.930 . S
C58 C53 1.391 . S
C58 N57 1.388 . S
Co59 O61 2.143 . S
Co59 O67 2.074 . S
Co59 O70 2.093 . S
Co59 O83 2.097 . S
Co59 N100 2.151 . S
Co59 N108 2.214 . S
Co60 O61 2.160 . S
Co60 O66 2.058 . S
Co60 O76 2.057 . S
Co60 O91 2.037 . S
Co60 N95 2.145 . S
Co60 N116 2.257 . S
O61 Co59 2.143 . S
O61 Co60 2.160 . S
C62 O63 1.278 . S
C62 O70 1.224 . S
O63 C62 1.278 . S
C64 O65 1.245 . S
C64 O76 1.232 . S
O65 C64 1.245 . S
O66 Co60 2.058 . S
O66 C92 1.269 . S
O67 Co59 2.074 . S
O67 C92 1.257 . S
H68 C93 0.930 . S
H69 C99 0.930 . S
O70 Co59 2.093 . S
O70 C62 1.224 . S
H71 C103 0.929 . S
H72 C105 0.930 . S
H73 C106 0.930 . S
H74 C104 0.929 . S
H75 C107 0.928 . S
O76 Co60 2.057 . S
O76 C64 1.232 . S
H77 C96 0.929 . S
H78 C97 0.929 . S
H79 C109 0.931 . S
H80 C101 0.929 . S
H81 C110 0.930 . S
H82 C102 0.931 . S
O83 Co59 2.097 . S
O83 C111 1.214 . S
H84 C112 0.929 . S
H85 C113 0.929 . S
H86 C114 0.930 . S
H87 C115 0.929 . S
H88 C117 0.930 . S
H89 C94 0.930 . S
H90 C98 0.930 . S
O91 Co60 2.037 . S
O91 C111 1.234 . S
C92 O66 1.269 . S
C92 O67 1.257 . S
C93 H68 0.930 . S
C93 C96 1.388 . S
C93 C98 1.418 . S
C94 H89 0.930 . S
C94 C97 1.404 . S
C94 C98 1.353 . S
N95 Co60 2.145 . S
N95 C96 1.397 . S
N95 C97 1.334 . S
C96 H77 0.929 . S
C96 C93 1.388 . S
C96 N95 1.397 . S
C97 H78 0.929 . S
C97 C94 1.404 . S
C97 N95 1.334 . S
C98 H90 0.930 . S
C98 C93 1.418 . S
C98 C94 1.353 . S
C99 H69 0.930 . S
C99 N100 1.330 . S
C99 C101 1.446 . S
N100 Co59 2.151 . S
N100 C99 1.330 . S
N100 C104 1.418 . S
C101 H80 0.929 . S
C101 C99 1.446 . S
C101 C102 1.332 . S
C102 H82 0.931 . S
C102 C101 1.332 . S
C102 C103 1.267 . S
C103 H71 0.929 . S
C103 C102 1.267 . S
C103 C104 1.251 . S
C104 H74 0.929 . S
C104 N100 1.418 . S
C104 C103 1.251 . S
C105 H72 0.930 . S
C105 C107 1.406 . S
C105 C110 1.261 . S
C106 H73 0.930 . S
C106 N108 1.325 . S
C106 C109 1.357 . S
C107 H75 0.928 . S
C107 C105 1.406 . S
C107 N108 1.261 . S
N108 Co59 2.214 . S
N108 C106 1.325 . S
N108 C107 1.261 . S
C109 H79 0.931 . S
C109 C106 1.357 . S
C109 C110 1.312 . S
C110 H81 0.930 . S
C110 C105 1.261 . S
C110 C109 1.312 . S
C111 O83 1.214 . S
C111 O91 1.234 . S
C112 H84 0.929 . S
C112 C115 1.391 . S
C112 C117 1.391 . S
C113 H85 0.929 . S
C113 C114 1.390 . S
C113 N116 1.391 . S
C114 H86 0.930 . S
C114 C113 1.390 . S
C114 C115 1.392 . S
C115 H87 0.929 . S
C115 C112 1.391 . S
C115 C114 1.392 . S
N116 Co60 2.257 . S
N116 C113 1.391 . S
N116 C117 1.388 . S
C117 H88 0.930 . S
C117 C112 1.391 . S
C117 N116 1.388 . S
Co118 O120 2.143 . S
Co118 O126 2.074 . S
Co118 O129 2.093 . S
Co118 O142 2.097 . S
Co118 N159 2.151 . S
Co118 N167 2.214 . S
Co119 O120 2.160 . S
Co119 O125 2.058 . S
Co119 O135 2.057 . S
Co119 O150 2.037 . S
Co119 N154 2.145 . S
Co119 N175 2.257 . S
O120 Co118 2.143 . S
O120 Co119 2.160 . S
C121 O122 1.278 . S
C121 O129 1.224 . S
O122 C121 1.278 . S
C123 O124 1.245 . S
C123 O135 1.232 . S
O124 C123 1.245 . S
O125 Co119 2.058 . S
O125 C151 1.269 . S
O126 Co118 2.074 . S
O126 C151 1.257 . S
H127 C152 0.930 . S
H128 C158 0.930 . S
O129 Co118 2.093 . S
O129 C121 1.224 . S
H130 C162 0.929 . S
H131 C164 0.930 . S
H132 C165 0.930 . S
H133 C163 0.929 . S
H134 C166 0.928 . S
O135 Co119 2.057 . S
O135 C123 1.232 . S
H136 C155 0.929 . S
H137 C156 0.929 . S
H138 C168 0.931 . S
H139 C160 0.929 . S
H140 C169 0.930 . S
H141 C161 0.931 . S
O142 Co118 2.097 . S
O142 C170 1.214 . S
H143 C171 0.929 . S
H144 C172 0.929 . S
H145 C173 0.930 . S
H146 C174 0.929 . S
H147 C176 0.930 . S
H148 C153 0.930 . S
H149 C157 0.930 . S
O150 Co119 2.037 . S
O150 C170 1.234 . S
C151 O125 1.269 . S
C151 O126 1.257 . S
C152 H127 0.930 . S
C152 C155 1.388 . S
C152 C157 1.418 . S
C153 H148 0.930 . S
C153 C156 1.404 . S
C153 C157 1.353 . S
N154 Co119 2.145 . S
N154 C155 1.397 . S
N154 C156 1.334 . S
C155 H136 0.929 . S
C155 C152 1.388 . S
C155 N154 1.397 . S
C156 H137 0.929 . S
C156 C153 1.404 . S
C156 N154 1.334 . S
C157 H149 0.930 . S
C157 C152 1.418 . S
C157 C153 1.353 . S
C158 H128 0.930 . S
C158 N159 1.330 . S
C158 C160 1.446 . S
N159 Co118 2.151 . S
N159 C158 1.330 . S
N159 C163 1.418 . S
C160 H139 0.929 . S
C160 C158 1.446 . S
C160 C161 1.332 . S
C161 H141 0.931 . S
C161 C160 1.332 . S
C161 C162 1.267 . S
C162 H130 0.929 . S
C162 C161 1.267 . S
C162 C163 1.251 . S
C163 H133 0.929 . S
C163 N159 1.418 . S
C163 C162 1.251 . S
C164 H131 0.930 . S
C164 C166 1.406 . S
C164 C169 1.261 . S
C165 H132 0.930 . S
C165 N167 1.325 . S
C165 C168 1.357 . S
C166 H134 0.928 . S
C166 C164 1.406 . S
C166 N167 1.261 . S
N167 Co118 2.214 . S
N167 C165 1.325 . S
N167 C166 1.261 . S
C168 H138 0.931 . S
C168 C165 1.357 . S
C168 C169 1.312 . S
C169 H140 0.930 . S
C169 C164 1.261 . S
C169 C168 1.312 . S
C170 O142 1.214 . S
C170 O150 1.234 . S
C171 H143 0.929 . S
C171 C174 1.391 . S
C171 C176 1.391 . S
C172 H144 0.929 . S
C172 C173 1.390 . S
C172 N175 1.391 . S
C173 H145 0.930 . S
C173 C172 1.390 . S
C173 C174 1.392 . S
C174 H146 0.929 . S
C174 C171 1.391 . S
C174 C173 1.392 . S
N175 Co119 2.257 . S
N175 C172 1.391 . S
N175 C176 1.388 . S
C176 H147 0.930 . S
C176 C171 1.391 . S
C176 N175 1.388 . S
Co177 O179 2.143 . S
Co177 O185 2.074 . S
Co177 O188 2.093 . S
Co177 O201 2.097 . S
Co177 N218 2.151 . S
Co177 N226 2.214 . S
Co178 O179 2.160 . S
Co178 O184 2.058 . S
Co178 O194 2.057 . S
Co178 O209 2.037 . S
Co178 N213 2.145 . S
Co178 N234 2.257 . S
O179 Co177 2.143 . S
O179 Co178 2.160 . S
C180 O181 1.278 . S
C180 O188 1.224 . S
O181 C180 1.278 . S
C182 O183 1.245 . S
C182 O194 1.232 . S
O183 C182 1.245 . S
O184 Co178 2.058 . S
O184 C210 1.269 . S
O185 Co177 2.074 . S
O185 C210 1.257 . S
H186 C211 0.930 . S
H187 C217 0.930 . S
O188 Co177 2.093 . S
O188 C180 1.224 . S
H189 C221 0.929 . S
H190 C223 0.930 . S
H191 C224 0.930 . S
H192 C222 0.929 . S
H193 C225 0.928 . S
O194 Co178 2.057 . S
O194 C182 1.232 . S
H195 C214 0.929 . S
H196 C215 0.929 . S
H197 C227 0.931 . S
H198 C219 0.929 . S
H199 C228 0.930 . S
H200 C220 0.931 . S
O201 Co177 2.097 . S
O201 C229 1.214 . S
H202 C230 0.929 . S
H203 C231 0.929 . S
H204 C232 0.930 . S
H205 C233 0.929 . S
H206 C235 0.930 . S
H207 C212 0.930 . S
H208 C216 0.930 . S
O209 Co178 2.037 . S
O209 C229 1.234 . S
C210 O184 1.269 . S
C210 O185 1.257 . S
C211 H186 0.930 . S
C211 C214 1.388 . S
C211 C216 1.418 . S
C212 H207 0.930 . S
C212 C215 1.404 . S
C212 C216 1.353 . S
N213 Co178 2.145 . S
N213 C214 1.397 . S
N213 C215 1.334 . S
C214 H195 0.929 . S
C214 C211 1.388 . S
C214 N213 1.397 . S
C215 H196 0.929 . S
C215 C212 1.404 . S
C215 N213 1.334 . S
C216 H208 0.930 . S
C216 C211 1.418 . S
C216 C212 1.353 . S
C217 H187 0.930 . S
C217 N218 1.330 . S
C217 C219 1.446 . S
N218 Co177 2.151 . S
N218 C217 1.330 . S
N218 C222 1.418 . S
C219 H198 0.929 . S
C219 C217 1.446 . S
C219 C220 1.332 . S
C220 H200 0.931 . S
C220 C219 1.332 . S
C220 C221 1.267 . S
C221 H189 0.929 . S
C221 C220 1.267 . S
C221 C222 1.251 . S
C222 H192 0.929 . S
C222 N218 1.418 . S
C222 C221 1.251 . S
C223 H190 0.930 . S
C223 C225 1.406 . S
C223 C228 1.261 . S
C224 H191 0.930 . S
C224 N226 1.325 . S
C224 C227 1.357 . S
C225 H193 0.928 . S
C225 C223 1.406 . S
C225 N226 1.261 . S
N226 Co177 2.214 . S
N226 C224 1.325 . S
N226 C225 1.261 . S
C227 H197 0.931 . S
C227 C224 1.357 . S
C227 C228 1.312 . S
C228 H199 0.930 . S
C228 C223 1.261 . S
C228 C227 1.312 . S
C229 O201 1.214 . S
C229 O209 1.234 . S
C230 H202 0.929 . S
C230 C233 1.391 . S
C230 C235 1.391 . S
C231 H203 0.929 . S
C231 C232 1.390 . S
C231 N234 1.391 . S
C232 H204 0.930 . S
C232 C231 1.390 . S
C232 C233 1.392 . S
C233 H205 0.929 . S
C233 C230 1.391 . S
C233 C232 1.392 . S
N234 Co178 2.257 . S
N234 C231 1.391 . S
N234 C235 1.388 . S
C235 H206 0.930 . S
C235 C230 1.391 . S
C235 N234 1.388 . S
Co236 O238 2.143 . S
Co236 O244 2.074 . S
Co236 O247 2.093 . S
Co236 O260 2.097 . S
Co236 N277 2.151 . S
Co236 N285 2.214 . S
Co237 O238 2.160 . S
Co237 O243 2.058 . S
Co237 O253 2.057 . S
Co237 O268 2.037 . S
Co237 N272 2.145 . S
Co237 N293 2.257 . S
O238 Co236 2.143 . S
O238 Co237 2.160 . S
C239 O240 1.278 . S
C239 O247 1.224 . S
O240 C239 1.278 . S
C241 O242 1.245 . S
C241 O253 1.232 . S
O242 C241 1.245 . S
O243 Co237 2.058 . S
O243 C269 1.269 . S
O244 Co236 2.074 . S
O244 C269 1.257 . S
H245 C270 0.930 . S
H246 C276 0.930 . S
O247 Co236 2.093 . S
O247 C239 1.224 . S
H248 C280 0.929 . S
H249 C282 0.930 . S
H250 C283 0.930 . S
H251 C281 0.929 . S
H252 C284 0.928 . S
O253 Co237 2.057 . S
O253 C241 1.232 . S
H254 C273 0.929 . S
H255 C274 0.929 . S
H256 C286 0.931 . S
H257 C278 0.929 . S
H258 C287 0.930 . S
H259 C279 0.931 . S
O260 Co236 2.097 . S
O260 C288 1.214 . S
H261 C289 0.929 . S
H262 C290 0.929 . S
H263 C291 0.930 . S
H264 C292 0.929 . S
H265 C294 0.930 . S
H266 C271 0.930 . S
H267 C275 0.930 . S
O268 Co237 2.037 . S
O268 C288 1.234 . S
C269 O243 1.269 . S
C269 O244 1.257 . S
C270 H245 0.930 . S
C270 C273 1.388 . S
C270 C275 1.418 . S
C271 H266 0.930 . S
C271 C274 1.404 . S
C271 C275 1.353 . S
N272 Co237 2.145 . S
N272 C273 1.397 . S
N272 C274 1.334 . S
C273 H254 0.929 . S
C273 C270 1.388 . S
C273 N272 1.397 . S
C274 H255 0.929 . S
C274 C271 1.404 . S
C274 N272 1.334 . S
C275 H267 0.930 . S
C275 C270 1.418 . S
C275 C271 1.353 . S
C276 H246 0.930 . S
C276 N277 1.330 . S
C276 C278 1.446 . S
N277 Co236 2.151 . S
N277 C276 1.330 . S
N277 C281 1.418 . S
C278 H257 0.929 . S
C278 C276 1.446 . S
C278 C279 1.332 . S
C279 H259 0.931 . S
C279 C278 1.332 . S
C279 C280 1.267 . S
C280 H248 0.929 . S
C280 C279 1.267 . S
C280 C281 1.251 . S
C281 H251 0.929 . S
C281 N277 1.418 . S
C281 C280 1.251 . S
C282 H249 0.930 . S
C282 C284 1.406 . S
C282 C287 1.261 . S
C283 H250 0.930 . S
C283 N285 1.325 . S
C283 C286 1.357 . S
C284 H252 0.928 . S
C284 C282 1.406 . S
C284 N285 1.261 . S
N285 Co236 2.214 . S
N285 C283 1.325 . S
N285 C284 1.261 . S
C286 H256 0.931 . S
C286 C283 1.357 . S
C286 C287 1.312 . S
C287 H258 0.930 . S
C287 C282 1.261 . S
C287 C286 1.312 . S
C288 O260 1.214 . S
C288 O268 1.234 . S
C289 H261 0.929 . S
C289 C292 1.391 . S
C289 C294 1.391 . S
C290 H262 0.929 . S
C290 C291 1.390 . S
C290 N293 1.391 . S
C291 H263 0.930 . S
C291 C290 1.390 . S
C291 C292 1.392 . S
C292 H264 0.929 . S
C292 C289 1.391 . S
C292 C291 1.392 . S
N293 Co237 2.257 . S
N293 C290 1.391 . S
N293 C294 1.388 . S
C294 H265 0.930 . S
C294 C289 1.391 . S
C294 N293 1.388 . S
Co295 O297 2.143 . S
Co295 O303 2.074 . S
Co295 O306 2.093 . S
Co295 O319 2.097 . S
Co295 N336 2.151 . S
Co295 N344 2.214 . S
Co296 O297 2.160 . S
Co296 O302 2.058 . S
Co296 O312 2.057 . S
Co296 O327 2.037 . S
Co296 N331 2.145 . S
Co296 N352 2.257 . S
O297 Co295 2.143 . S
O297 Co296 2.160 . S
C298 O299 1.278 . S
C298 O306 1.224 . S
O299 C298 1.278 . S
C300 O301 1.245 . S
C300 O312 1.232 . S
O301 C300 1.245 . S
O302 Co296 2.058 . S
O302 C328 1.269 . S
O303 Co295 2.074 . S
O303 C328 1.257 . S
H304 C329 0.930 . S
H305 C335 0.930 . S
O306 Co295 2.093 . S
O306 C298 1.224 . S
H307 C339 0.929 . S
H308 C341 0.930 . S
H309 C342 0.930 . S
H310 C340 0.929 . S
H311 C343 0.928 . S
O312 Co296 2.057 . S
O312 C300 1.232 . S
H313 C332 0.929 . S
H314 C333 0.929 . S
H315 C345 0.931 . S
H316 C337 0.929 . S
H317 C346 0.930 . S
H318 C338 0.931 . S
O319 Co295 2.097 . S
O319 C347 1.214 . S
H320 C348 0.929 . S
H321 C349 0.929 . S
H322 C350 0.930 . S
H323 C351 0.929 . S
H324 C353 0.930 . S
H325 C330 0.930 . S
H326 C334 0.930 . S
O327 Co296 2.037 . S
O327 C347 1.234 . S
C328 O302 1.269 . S
C328 O303 1.257 . S
C329 H304 0.930 . S
C329 C332 1.388 . S
C329 C334 1.418 . S
C330 H325 0.930 . S
C330 C333 1.404 . S
C330 C334 1.353 . S
N331 Co296 2.145 . S
N331 C332 1.397 . S
N331 C333 1.334 . S
C332 H313 0.929 . S
C332 C329 1.388 . S
C332 N331 1.397 . S
C333 H314 0.929 . S
C333 C330 1.404 . S
C333 N331 1.334 . S
C334 H326 0.930 . S
C334 C329 1.418 . S
C334 C330 1.353 . S
C335 H305 0.930 . S
C335 N336 1.330 . S
C335 C337 1.446 . S
N336 Co295 2.151 . S
N336 C335 1.330 . S
N336 C340 1.418 . S
C337 H316 0.929 . S
C337 C335 1.446 . S
C337 C338 1.332 . S
C338 H318 0.931 . S
C338 C337 1.332 . S
C338 C339 1.267 . S
C339 H307 0.929 . S
C339 C338 1.267 . S
C339 C340 1.251 . S
C340 H310 0.929 . S
C340 N336 1.418 . S
C340 C339 1.251 . S
C341 H308 0.930 . S
C341 C343 1.406 . S
C341 C346 1.261 . S
C342 H309 0.930 . S
C342 N344 1.325 . S
C342 C345 1.357 . S
C343 H311 0.928 . S
C343 C341 1.406 . S
C343 N344 1.261 . S
N344 Co295 2.214 . S
N344 C342 1.325 . S
N344 C343 1.261 . S
C345 H315 0.931 . S
C345 C342 1.357 . S
C345 C346 1.312 . S
C346 H317 0.930 . S
C346 C341 1.261 . S
C346 C345 1.312 . S
C347 O319 1.214 . S
C347 O327 1.234 . S
C348 H320 0.929 . S
C348 C351 1.391 . S
C348 C353 1.391 . S
C349 H321 0.929 . S
C349 C350 1.390 . S
C349 N352 1.391 . S
C350 H322 0.930 . S
C350 C349 1.390 . S
C350 C351 1.392 . S
C351 H323 0.929 . S
C351 C348 1.391 . S
C351 C350 1.392 . S
N352 Co296 2.257 . S
N352 C349 1.391 . S
N352 C353 1.388 . S
C353 H324 0.930 . S
C353 C348 1.391 . S
C353 N352 1.388 . S
Co354 O356 2.143 . S
Co354 O362 2.074 . S
Co354 O365 2.093 . S
Co354 O378 2.097 . S
Co354 N395 2.151 . S
Co354 N403 2.214 . S
Co355 O356 2.160 . S
Co355 O361 2.058 . S
Co355 O371 2.057 . S
Co355 O386 2.037 . S
Co355 N390 2.145 . S
Co355 N411 2.257 . S
O356 Co354 2.143 . S
O356 Co355 2.160 . S
C357 O358 1.278 . S
C357 O365 1.224 . S
O358 C357 1.278 . S
C359 O360 1.245 . S
C359 O371 1.232 . S
O360 C359 1.245 . S
O361 Co355 2.058 . S
O361 C387 1.269 . S
O362 Co354 2.074 . S
O362 C387 1.257 . S
H363 C388 0.930 . S
H364 C394 0.930 . S
O365 Co354 2.093 . S
O365 C357 1.224 . S
H366 C398 0.929 . S
H367 C400 0.930 . S
H368 C401 0.930 . S
H369 C399 0.929 . S
H370 C402 0.928 . S
O371 Co355 2.057 . S
O371 C359 1.232 . S
H372 C391 0.929 . S
H373 C392 0.929 . S
H374 C404 0.931 . S
H375 C396 0.929 . S
H376 C405 0.930 . S
H377 C397 0.931 . S
O378 Co354 2.097 . S
O378 C406 1.214 . S
H379 C407 0.929 . S
H380 C408 0.929 . S
H381 C409 0.930 . S
H382 C410 0.929 . S
H383 C412 0.930 . S
H384 C389 0.930 . S
H385 C393 0.930 . S
O386 Co355 2.037 . S
O386 C406 1.234 . S
C387 O361 1.269 . S
C387 O362 1.257 . S
C388 H363 0.930 . S
C388 C391 1.388 . S
C388 C393 1.418 . S
C389 H384 0.930 . S
C389 C392 1.404 . S
C389 C393 1.353 . S
N390 Co355 2.145 . S
N390 C391 1.397 . S
N390 C392 1.334 . S
C391 H372 0.929 . S
C391 C388 1.388 . S
C391 N390 1.397 . S
C392 H373 0.929 . S
C392 C389 1.404 . S
C392 N390 1.334 . S
C393 H385 0.930 . S
C393 C388 1.418 . S
C393 C389 1.353 . S
C394 H364 0.930 . S
C394 N395 1.330 . S
C394 C396 1.446 . S
N395 Co354 2.151 . S
N395 C394 1.330 . S
N395 C399 1.418 . S
C396 H375 0.929 . S
C396 C394 1.446 . S
C396 C397 1.332 . S
C397 H377 0.931 . S
C397 C396 1.332 . S
C397 C398 1.267 . S
C398 H366 0.929 . S
C398 C397 1.267 . S
C398 C399 1.251 . S
C399 H369 0.929 . S
C399 N395 1.418 . S
C399 C398 1.251 . S
C400 H367 0.930 . S
C400 C402 1.406 . S
C400 C405 1.261 . S
C401 H368 0.930 . S
C401 N403 1.325 . S
C401 C404 1.357 . S
C402 H370 0.928 . S
C402 C400 1.406 . S
C402 N403 1.261 . S
N403 Co354 2.214 . S
N403 C401 1.325 . S
N403 C402 1.261 . S
C404 H374 0.931 . S
C404 C401 1.357 . S
C404 C405 1.312 . S
C405 H376 0.930 . S
C405 C400 1.261 . S
C405 C404 1.312 . S
C406 O378 1.214 . S
C406 O386 1.234 . S
C407 H379 0.929 . S
C407 C410 1.391 . S
C407 C412 1.391 . S
C408 H380 0.929 . S
C408 C409 1.390 . S
C408 N411 1.391 . S
C409 H381 0.930 . S
C409 C408 1.390 . S
C409 C410 1.392 . S
C410 H382 0.929 . S
C410 C407 1.391 . S
C410 C409 1.392 . S
N411 Co355 2.257 . S
N411 C408 1.391 . S
N411 C412 1.388 . S
C412 H383 0.930 . S
C412 C407 1.391 . S
C412 N411 1.388 . S
Co413 O415 2.143 . S
Co413 O421 2.074 . S
Co413 O424 2.093 . S
Co413 O437 2.097 . S
Co413 N454 2.151 . S
Co413 N462 2.214 . S
Co414 O415 2.160 . S
Co414 O420 2.058 . S
Co414 O430 2.057 . S
Co414 O445 2.037 . S
Co414 N449 2.145 . S
Co414 N470 2.257 . S
O415 Co413 2.143 . S
O415 Co414 2.160 . S
C416 O417 1.278 . S
C416 O424 1.224 . S
O417 C416 1.278 . S
C418 O419 1.245 . S
C418 O430 1.232 . S
O419 C418 1.245 . S
O420 Co414 2.058 . S
O420 C446 1.269 . S
O421 Co413 2.074 . S
O421 C446 1.257 . S
H422 C447 0.930 . S
H423 C453 0.930 . S
O424 Co413 2.093 . S
O424 C416 1.224 . S
H425 C457 0.929 . S
H426 C459 0.930 . S
H427 C460 0.930 . S
H428 C458 0.929 . S
H429 C461 0.928 . S
O430 Co414 2.057 . S
O430 C418 1.232 . S
H431 C450 0.929 . S
H432 C451 0.929 . S
H433 C463 0.931 . S
H434 C455 0.929 . S
H435 C464 0.930 . S
H436 C456 0.931 . S
O437 Co413 2.097 . S
O437 C465 1.214 . S
H438 C466 0.929 . S
H439 C467 0.929 . S
H440 C468 0.930 . S
H441 C469 0.929 . S
H442 C471 0.930 . S
H443 C448 0.930 . S
H444 C452 0.930 . S
O445 Co414 2.037 . S
O445 C465 1.234 . S
C446 O420 1.269 . S
C446 O421 1.257 . S
C447 H422 0.930 . S
C447 C450 1.388 . S
C447 C452 1.418 . S
C448 H443 0.930 . S
C448 C451 1.404 . S
C448 C452 1.353 . S
N449 Co414 2.145 . S
N449 C450 1.397 . S
N449 C451 1.334 . S
C450 H431 0.929 . S
C450 C447 1.388 . S
C450 N449 1.397 . S
C451 H432 0.929 . S
C451 C448 1.404 . S
C451 N449 1.334 . S
C452 H444 0.930 . S
C452 C447 1.418 . S
C452 C448 1.353 . S
C453 H423 0.930 . S
C453 N454 1.330 . S
C453 C455 1.446 . S
N454 Co413 2.151 . S
N454 C453 1.330 . S
N454 C458 1.418 . S
C455 H434 0.929 . S
C455 C453 1.446 . S
C455 C456 1.332 . S
C456 H436 0.931 . S
C456 C455 1.332 . S
C456 C457 1.267 . S
C457 H425 0.929 . S
C457 C456 1.267 . S
C457 C458 1.251 . S
C458 H428 0.929 . S
C458 N454 1.418 . S
C458 C457 1.251 . S
C459 H426 0.930 . S
C459 C461 1.406 . S
C459 C464 1.261 . S
C460 H427 0.930 . S
C460 N462 1.325 . S
C460 C463 1.357 . S
C461 H429 0.928 . S
C461 C459 1.406 . S
C461 N462 1.261 . S
N462 Co413 2.214 . S
N462 C460 1.325 . S
N462 C461 1.261 . S
C463 H433 0.931 . S
C463 C460 1.357 . S
C463 C464 1.312 . S
C464 H435 0.930 . S
C464 C459 1.261 . S
C464 C463 1.312 . S
C465 O437 1.214 . S
C465 O445 1.234 . S
C466 H438 0.929 . S
C466 C469 1.391 . S
C466 C471 1.391 . S
C467 H439 0.929 . S
C467 C468 1.390 . S
C467 N470 1.391 . S
C468 H440 0.930 . S
C468 C467 1.390 . S
C468 C469 1.392 . S
C469 H441 0.929 . S
C469 C466 1.391 . S
C469 C468 1.392 . S
N470 Co414 2.257 . S
N470 C467 1.391 . S
N470 C471 1.388 . S
C471 H442 0.930 . S
C471 C466 1.391 . S
C471 N470 1.388 . S
Co472 O474 2.143 . S
Co472 O480 2.074 . S
Co472 O483 2.093 . S
Co472 O496 2.097 . S
Co472 N513 2.151 . S
Co472 N521 2.214 . S
Co473 O474 2.160 . S
Co473 O479 2.058 . S
Co473 O489 2.057 . S
Co473 O504 2.037 . S
Co473 N508 2.145 . S
Co473 N529 2.257 . S
O474 Co472 2.143 . S
O474 Co473 2.160 . S
C475 O476 1.278 . S
C475 O483 1.224 . S
O476 C475 1.278 . S
C477 O478 1.245 . S
C477 O489 1.232 . S
O478 C477 1.245 . S
O479 Co473 2.058 . S
O479 C505 1.269 . S
O480 Co472 2.074 . S
O480 C505 1.257 . S
H481 C506 0.930 . S
H482 C512 0.930 . S
O483 Co472 2.093 . S
O483 C475 1.224 . S
H484 C516 0.929 . S
H485 C518 0.930 . S
H486 C519 0.930 . S
H487 C517 0.929 . S
H488 C520 0.928 . S
O489 Co473 2.057 . S
O489 C477 1.232 . S
H490 C509 0.929 . S
H491 C510 0.929 . S
H492 C522 0.931 . S
H493 C514 0.929 . S
H494 C523 0.930 . S
H495 C515 0.931 . S
O496 Co472 2.097 . S
O496 C524 1.214 . S
H497 C525 0.929 . S
H498 C526 0.929 . S
H499 C527 0.930 . S
H500 C528 0.929 . S
H501 C530 0.930 . S
H502 C507 0.930 . S
H503 C511 0.930 . S
O504 Co473 2.037 . S
O504 C524 1.234 . S
C505 O479 1.269 . S
C505 O480 1.257 . S
C506 H481 0.930 . S
C506 C509 1.388 . S
C506 C511 1.418 . S
C507 H502 0.930 . S
C507 C510 1.404 . S
C507 C511 1.353 . S
N508 Co473 2.145 . S
N508 C509 1.397 . S
N508 C510 1.334 . S
C509 H490 0.929 . S
C509 C506 1.388 . S
C509 N508 1.397 . S
C510 H491 0.929 . S
C510 C507 1.404 . S
C510 N508 1.334 . S
C511 H503 0.930 . S
C511 C506 1.418 . S
C511 C507 1.353 . S
C512 H482 0.930 . S
C512 N513 1.330 . S
C512 C514 1.446 . S
N513 Co472 2.151 . S
N513 C512 1.330 . S
N513 C517 1.418 . S
C514 H493 0.929 . S
C514 C512 1.446 . S
C514 C515 1.332 . S
C515 H495 0.931 . S
C515 C514 1.332 . S
C515 C516 1.267 . S
C516 H484 0.929 . S
C516 C515 1.267 . S
C516 C517 1.251 . S
C517 H487 0.929 . S
C517 N513 1.418 . S
C517 C516 1.251 . S
C518 H485 0.930 . S
C518 C520 1.406 . S
C518 C523 1.261 . S
C519 H486 0.930 . S
C519 N521 1.325 . S
C519 C522 1.357 . S
C520 H488 0.928 . S
C520 C518 1.406 . S
C520 N521 1.261 . S
N521 Co472 2.214 . S
N521 C519 1.325 . S
N521 C520 1.261 . S
C522 H492 0.931 . S
C522 C519 1.357 . S
C522 C523 1.312 . S
C523 H494 0.930 . S
C523 C518 1.261 . S
C523 C522 1.312 . S
C524 O496 1.214 . S
C524 O504 1.234 . S
C525 H497 0.929 . S
C525 C528 1.391 . S
C525 C530 1.391 . S
C526 H498 0.929 . S
C526 C527 1.390 . S
C526 N529 1.391 . S
C527 H499 0.930 . S
C527 C526 1.390 . S
C527 C528 1.392 . S
C528 H500 0.929 . S
C528 C525 1.391 . S
C528 C527 1.392 . S
N529 Co473 2.257 . S
N529 C526 1.391 . S
N529 C530 1.388 . S
C530 H501 0.930 . S
C530 C525 1.391 . S
C530 N529 1.388 . S
Co531 O533 2.143 . S
Co531 O539 2.074 . S
Co531 O542 2.093 . S
Co531 O555 2.097 . S
Co531 N572 2.151 . S
Co531 N580 2.214 . S
Co532 O533 2.160 . S
Co532 O538 2.058 . S
Co532 O548 2.057 . S
Co532 O563 2.037 . S
Co532 N567 2.145 . S
Co532 N588 2.257 . S
O533 Co531 2.143 . S
O533 Co532 2.160 . S
C534 O535 1.278 . S
C534 O542 1.224 . S
O535 C534 1.278 . S
C536 O537 1.245 . S
C536 O548 1.232 . S
O537 C536 1.245 . S
O538 Co532 2.058 . S
O538 C564 1.269 . S
O539 Co531 2.074 . S
O539 C564 1.257 . S
H540 C565 0.930 . S
H541 C571 0.930 . S
O542 Co531 2.093 . S
O542 C534 1.224 . S
H543 C575 0.929 . S
H544 C577 0.930 . S
H545 C578 0.930 . S
H546 C576 0.929 . S
H547 C579 0.928 . S
O548 Co532 2.057 . S
O548 C536 1.232 . S
H549 C568 0.929 . S
H550 C569 0.929 . S
H551 C581 0.931 . S
H552 C573 0.929 . S
H553 C582 0.930 . S
H554 C574 0.931 . S
O555 Co531 2.097 . S
O555 C583 1.214 . S
H556 C584 0.929 . S
H557 C585 0.929 . S
H558 C586 0.930 . S
H559 C587 0.929 . S
H560 C589 0.930 . S
H561 C566 0.930 . S
H562 C570 0.930 . S
O563 Co532 2.037 . S
O563 C583 1.234 . S
C564 O538 1.269 . S
C564 O539 1.257 . S
C565 H540 0.930 . S
C565 C568 1.388 . S
C565 C570 1.418 . S
C566 H561 0.930 . S
C566 C569 1.404 . S
C566 C570 1.353 . S
N567 Co532 2.145 . S
N567 C568 1.397 . S
N567 C569 1.334 . S
C568 H549 0.929 . S
C568 C565 1.388 . S
C568 N567 1.397 . S
C569 H550 0.929 . S
C569 C566 1.404 . S
C569 N567 1.334 . S
C570 H562 0.930 . S
C570 C565 1.418 . S
C570 C566 1.353 . S
C571 H541 0.930 . S
C571 N572 1.330 . S
C571 C573 1.446 . S
N572 Co531 2.151 . S
N572 C571 1.330 . S
N572 C576 1.418 . S
C573 H552 0.929 . S
C573 C571 1.446 . S
C573 C574 1.332 . S
C574 H554 0.931 . S
C574 C573 1.332 . S
C574 C575 1.267 . S
C575 H543 0.929 . S
C575 C574 1.267 . S
C575 C576 1.251 . S
C576 H546 0.929 . S
C576 N572 1.418 . S
C576 C575 1.251 . S
C577 H544 0.930 . S
C577 C579 1.406 . S
C577 C582 1.261 . S
C578 H545 0.930 . S
C578 N580 1.325 . S
C578 C581 1.357 . S
C579 H547 0.928 . S
C579 C577 1.406 . S
C579 N580 1.261 . S
N580 Co531 2.214 . S
N580 C578 1.325 . S
N580 C579 1.261 . S
C581 H551 0.931 . S
C581 C578 1.357 . S
C581 C582 1.312 . S
C582 H553 0.930 . S
C582 C577 1.261 . S
C582 C581 1.312 . S
C583 O555 1.214 . S
C583 O563 1.234 . S
C584 H556 0.929 . S
C584 C587 1.391 . S
C584 C589 1.391 . S
C585 H557 0.929 . S
C585 C586 1.390 . S
C585 N588 1.391 . S
C586 H558 0.930 . S
C586 C585 1.390 . S
C586 C587 1.392 . S
C587 H559 0.929 . S
C587 C584 1.391 . S
C587 C586 1.392 . S
N588 Co532 2.257 . S
N588 C585 1.391 . S
N588 C589 1.388 . S
C589 H560 0.930 . S
C589 C584 1.391 . S
C589 N588 1.388 . S
Co590 O592 2.143 . S
Co590 O598 2.074 . S
Co590 O601 2.093 . S
Co590 O614 2.097 . S
Co590 N631 2.151 . S
Co590 N639 2.214 . S
Co591 O592 2.160 . S
Co591 O597 2.058 . S
Co591 O607 2.057 . S
Co591 O622 2.037 . S
Co591 N626 2.145 . S
Co591 N647 2.257 . S
O592 Co590 2.143 . S
O592 Co591 2.160 . S
C593 O594 1.278 . S
C593 O601 1.224 . S
O594 C593 1.278 . S
C595 O596 1.245 . S
C595 O607 1.232 . S
O596 C595 1.245 . S
O597 Co591 2.058 . S
O597 C623 1.269 . S
O598 Co590 2.074 . S
O598 C623 1.257 . S
H599 C624 0.930 . S
H600 C630 0.930 . S
O601 Co590 2.093 . S
O601 C593 1.224 . S
H602 C634 0.929 . S
H603 C636 0.930 . S
H604 C637 0.930 . S
H605 C635 0.929 . S
H606 C638 0.928 . S
O607 Co591 2.057 . S
O607 C595 1.232 . S
H608 C627 0.929 . S
H609 C628 0.929 . S
H610 C640 0.931 . S
H611 C632 0.929 . S
H612 C641 0.930 . S
H613 C633 0.931 . S
O614 Co590 2.097 . S
O614 C642 1.214 . S
H615 C643 0.929 . S
H616 C644 0.929 . S
H617 C645 0.930 . S
H618 C646 0.929 . S
H619 C648 0.930 . S
H620 C625 0.930 . S
H621 C629 0.930 . S
O622 Co591 2.037 . S
O622 C642 1.234 . S
C623 O597 1.269 . S
C623 O598 1.257 . S
C624 H599 0.930 . S
C624 C627 1.388 . S
C624 C629 1.418 . S
C625 H620 0.930 . S
C625 C628 1.404 . S
C625 C629 1.353 . S
N626 Co591 2.145 . S
N626 C627 1.397 . S
N626 C628 1.334 . S
C627 H608 0.929 . S
C627 C624 1.388 . S
C627 N626 1.397 . S
C628 H609 0.929 . S
C628 C625 1.404 . S
C628 N626 1.334 . S
C629 H621 0.930 . S
C629 C624 1.418 . S
C629 C625 1.353 . S
C630 H600 0.930 . S
C630 N631 1.330 . S
C630 C632 1.446 . S
N631 Co590 2.151 . S
N631 C630 1.330 . S
N631 C635 1.418 . S
C632 H611 0.929 . S
C632 C630 1.446 . S
C632 C633 1.332 . S
C633 H613 0.931 . S
C633 C632 1.332 . S
C633 C634 1.267 . S
C634 H602 0.929 . S
C634 C633 1.267 . S
C634 C635 1.251 . S
C635 H605 0.929 . S
C635 N631 1.418 . S
C635 C634 1.251 . S
C636 H603 0.930 . S
C636 C638 1.406 . S
C636 C641 1.261 . S
C637 H604 0.930 . S
C637 N639 1.325 . S
C637 C640 1.357 . S
C638 H606 0.928 . S
C638 C636 1.406 . S
C638 N639 1.261 . S
N639 Co590 2.214 . S
N639 C637 1.325 . S
N639 C638 1.261 . S
C640 H610 0.931 . S
C640 C637 1.357 . S
C640 C641 1.312 . S
C641 H612 0.930 . S
C641 C636 1.261 . S
C641 C640 1.312 . S
C642 O614 1.214 . S
C642 O622 1.234 . S
C643 H615 0.929 . S
C643 C646 1.391 . S
C643 C648 1.391 . S
C644 H616 0.929 . S
C644 C645 1.390 . S
C644 N647 1.391 . S
C645 H617 0.930 . S
C645 C644 1.390 . S
C645 C646 1.392 . S
C646 H618 0.929 . S
C646 C643 1.391 . S
C646 C645 1.392 . S
N647 Co591 2.257 . S
N647 C644 1.391 . S
N647 C648 1.388 . S
C648 H619 0.930 . S
C648 C643 1.391 . S
C648 N647 1.388 . S
Co649 O651 2.143 . S
Co649 O657 2.074 . S
Co649 O660 2.093 . S
Co649 O673 2.097 . S
Co649 N690 2.151 . S
Co649 N698 2.214 . S
Co650 O651 2.160 . S
Co650 O656 2.058 . S
Co650 O666 2.057 . S
Co650 O681 2.037 . S
Co650 N685 2.145 . S
Co650 N706 2.257 . S
O651 Co649 2.143 . S
O651 Co650 2.160 . S
C652 O653 1.278 . S
C652 O660 1.224 . S
O653 C652 1.278 . S
C654 O655 1.245 . S
C654 O666 1.232 . S
O655 C654 1.245 . S
O656 Co650 2.058 . S
O656 C682 1.269 . S
O657 Co649 2.074 . S
O657 C682 1.257 . S
H658 C683 0.930 . S
H659 C689 0.930 . S
O660 Co649 2.093 . S
O660 C652 1.224 . S
H661 C693 0.929 . S
H662 C695 0.930 . S
H663 C696 0.930 . S
H664 C694 0.929 . S
H665 C697 0.928 . S
O666 Co650 2.057 . S
O666 C654 1.232 . S
H667 C686 0.929 . S
H668 C687 0.929 . S
H669 C699 0.931 . S
H670 C691 0.929 . S
H671 C700 0.930 . S
H672 C692 0.931 . S
O673 Co649 2.097 . S
O673 C701 1.214 . S
H674 C702 0.929 . S
H675 C703 0.929 . S
H676 C704 0.930 . S
H677 C705 0.929 . S
H678 C707 0.930 . S
H679 C684 0.930 . S
H680 C688 0.930 . S
O681 Co650 2.037 . S
O681 C701 1.234 . S
C682 O656 1.269 . S
C682 O657 1.257 . S
C683 H658 0.930 . S
C683 C686 1.388 . S
C683 C688 1.418 . S
C684 H679 0.930 . S
C684 C687 1.404 . S
C684 C688 1.353 . S
N685 Co650 2.145 . S
N685 C686 1.397 . S
N685 C687 1.334 . S
C686 H667 0.929 . S
C686 C683 1.388 . S
C686 N685 1.397 . S
C687 H668 0.929 . S
C687 C684 1.404 . S
C687 N685 1.334 . S
C688 H680 0.930 . S
C688 C683 1.418 . S
C688 C684 1.353 . S
C689 H659 0.930 . S
C689 N690 1.330 . S
C689 C691 1.446 . S
N690 Co649 2.151 . S
N690 C689 1.330 . S
N690 C694 1.418 . S
C691 H670 0.929 . S
C691 C689 1.446 . S
C691 C692 1.332 . S
C692 H672 0.931 . S
C692 C691 1.332 . S
C692 C693 1.267 . S
C693 H661 0.929 . S
C693 C692 1.267 . S
C693 C694 1.251 . S
C694 H664 0.929 . S
C694 N690 1.418 . S
C694 C693 1.251 . S
C695 H662 0.930 . S
C695 C697 1.406 . S
C695 C700 1.261 . S
C696 H663 0.930 . S
C696 N698 1.325 . S
C696 C699 1.357 . S
C697 H665 0.928 . S
C697 C695 1.406 . S
C697 N698 1.261 . S
N698 Co649 2.214 . S
N698 C696 1.325 . S
N698 C697 1.261 . S
C699 H669 0.931 . S
C699 C696 1.357 . S
C699 C700 1.312 . S
C700 H671 0.930 . S
C700 C695 1.261 . S
C700 C699 1.312 . S
C701 O673 1.214 . S
C701 O681 1.234 . S
C702 H674 0.929 . S
C702 C705 1.391 . S
C702 C707 1.391 . S
C703 H675 0.929 . S
C703 C704 1.390 . S
C703 N706 1.391 . S
C704 H676 0.930 . S
C704 C703 1.390 . S
C704 C705 1.392 . S
C705 H677 0.929 . S
C705 C702 1.391 . S
C705 C704 1.392 . S
N706 Co650 2.257 . S
N706 C703 1.391 . S
N706 C707 1.388 . S
C707 H678 0.930 . S
C707 C702 1.391 . S
C707 N706 1.388 . S
Co708 O710 2.143 . S
Co708 O716 2.074 . S
Co708 O719 2.093 . S
Co708 O732 2.097 . S
Co708 N749 2.151 . S
Co708 N757 2.214 . S
Co709 O710 2.160 . S
Co709 O715 2.058 . S
Co709 O725 2.057 . S
Co709 O740 2.037 . S
Co709 N744 2.145 . S
Co709 N765 2.257 . S
O710 Co708 2.143 . S
O710 Co709 2.160 . S
C711 O712 1.278 . S
C711 O719 1.224 . S
O712 C711 1.278 . S
C713 O714 1.245 . S
C713 O725 1.232 . S
O714 C713 1.245 . S
O715 Co709 2.058 . S
O715 C741 1.269 . S
O716 Co708 2.074 . S
O716 C741 1.257 . S
H717 C742 0.930 . S
H718 C748 0.930 . S
O719 Co708 2.093 . S
O719 C711 1.224 . S
H720 C752 0.929 . S
H721 C754 0.930 . S
H722 C755 0.930 . S
H723 C753 0.929 . S
H724 C756 0.928 . S
O725 Co709 2.057 . S
O725 C713 1.232 . S
H726 C745 0.929 . S
H727 C746 0.929 . S
H728 C758 0.931 . S
H729 C750 0.929 . S
H730 C759 0.930 . S
H731 C751 0.931 . S
O732 Co708 2.097 . S
O732 C760 1.214 . S
H733 C761 0.929 . S
H734 C762 0.929 . S
H735 C763 0.930 . S
H736 C764 0.929 . S
H737 C766 0.930 . S
H738 C743 0.930 . S
H739 C747 0.930 . S
O740 Co709 2.037 . S
O740 C760 1.234 . S
C741 O715 1.269 . S
C741 O716 1.257 . S
C742 H717 0.930 . S
C742 C745 1.388 . S
C742 C747 1.418 . S
C743 H738 0.930 . S
C743 C746 1.404 . S
C743 C747 1.353 . S
N744 Co709 2.145 . S
N744 C745 1.397 . S
N744 C746 1.334 . S
C745 H726 0.929 . S
C745 C742 1.388 . S
C745 N744 1.397 . S
C746 H727 0.929 . S
C746 C743 1.404 . S
C746 N744 1.334 . S
C747 H739 0.930 . S
C747 C742 1.418 . S
C747 C743 1.353 . S
C748 H718 0.930 . S
C748 N749 1.330 . S
C748 C750 1.446 . S
N749 Co708 2.151 . S
N749 C748 1.330 . S
N749 C753 1.418 . S
C750 H729 0.929 . S
C750 C748 1.446 . S
C750 C751 1.332 . S
C751 H731 0.931 . S
C751 C750 1.332 . S
C751 C752 1.267 . S
C752 H720 0.929 . S
C752 C751 1.267 . S
C752 C753 1.251 . S
C753 H723 0.929 . S
C753 N749 1.418 . S
C753 C752 1.251 . S
C754 H721 0.930 . S
C754 C756 1.406 . S
C754 C759 1.261 . S
C755 H722 0.930 . S
C755 N757 1.325 . S
C755 C758 1.357 . S
C756 H724 0.928 . S
C756 C754 1.406 . S
C756 N757 1.261 . S
N757 Co708 2.214 . S
N757 C755 1.325 . S
N757 C756 1.261 . S
C758 H728 0.931 . S
C758 C755 1.357 . S
C758 C759 1.312 . S
C759 H730 0.930 . S
C759 C754 1.261 . S
C759 C758 1.312 . S
C760 O732 1.214 . S
C760 O740 1.234 . S
C761 H733 0.929 . S
C761 C764 1.391 . S
C761 C766 1.391 . S
C762 H734 0.929 . S
C762 C763 1.390 . S
C762 N765 1.391 . S
C763 H735 0.930 . S
C763 C762 1.390 . S
C763 C764 1.392 . S
C764 H736 0.929 . S
C764 C761 1.391 . S
C764 C763 1.392 . S
N765 Co709 2.257 . S
N765 C762 1.391 . S
N765 C766 1.388 . S
C766 H737 0.930 . S
C766 C761 1.391 . S
C766 N765 1.388 . S
Co767 O769 2.143 . S
Co767 O775 2.074 . S
Co767 O778 2.093 . S
Co767 O791 2.097 . S
Co767 N808 2.151 . S
Co767 N816 2.214 . S
Co768 O769 2.160 . S
Co768 O774 2.058 . S
Co768 O784 2.057 . S
Co768 O799 2.037 . S
Co768 N803 2.145 . S
Co768 N824 2.257 . S
O769 Co767 2.143 . S
O769 Co768 2.160 . S
C770 O771 1.278 . S
C770 O778 1.224 . S
O771 C770 1.278 . S
C772 O773 1.245 . S
C772 O784 1.232 . S
O773 C772 1.245 . S
O774 Co768 2.058 . S
O774 C800 1.269 . S
O775 Co767 2.074 . S
O775 C800 1.257 . S
H776 C801 0.930 . S
H777 C807 0.930 . S
O778 Co767 2.093 . S
O778 C770 1.224 . S
H779 C811 0.929 . S
H780 C813 0.930 . S
H781 C814 0.930 . S
H782 C812 0.929 . S
H783 C815 0.928 . S
O784 Co768 2.057 . S
O784 C772 1.232 . S
H785 C804 0.929 . S
H786 C805 0.929 . S
H787 C817 0.931 . S
H788 C809 0.929 . S
H789 C818 0.930 . S
H790 C810 0.931 . S
O791 Co767 2.097 . S
O791 C819 1.214 . S
H792 C820 0.929 . S
H793 C821 0.929 . S
H794 C822 0.930 . S
H795 C823 0.929 . S
H796 C825 0.930 . S
H797 C802 0.930 . S
H798 C806 0.930 . S
O799 Co768 2.037 . S
O799 C819 1.234 . S
C800 O774 1.269 . S
C800 O775 1.257 . S
C801 H776 0.930 . S
C801 C804 1.388 . S
C801 C806 1.418 . S
C802 H797 0.930 . S
C802 C805 1.404 . S
C802 C806 1.353 . S
N803 Co768 2.145 . S
N803 C804 1.397 . S
N803 C805 1.334 . S
C804 H785 0.929 . S
C804 C801 1.388 . S
C804 N803 1.397 . S
C805 H786 0.929 . S
C805 C802 1.404 . S
C805 N803 1.334 . S
C806 H798 0.930 . S
C806 C801 1.418 . S
C806 C802 1.353 . S
C807 H777 0.930 . S
C807 N808 1.330 . S
C807 C809 1.446 . S
N808 Co767 2.151 . S
N808 C807 1.330 . S
N808 C812 1.418 . S
C809 H788 0.929 . S
C809 C807 1.446 . S
C809 C810 1.332 . S
C810 H790 0.931 . S
C810 C809 1.332 . S
C810 C811 1.267 . S
C811 H779 0.929 . S
C811 C810 1.267 . S
C811 C812 1.251 . S
C812 H782 0.929 . S
C812 N808 1.418 . S
C812 C811 1.251 . S
C813 H780 0.930 . S
C813 C815 1.406 . S
C813 C818 1.261 . S
C814 H781 0.930 . S
C814 N816 1.325 . S
C814 C817 1.357 . S
C815 H783 0.928 . S
C815 C813 1.406 . S
C815 N816 1.261 . S
N816 Co767 2.214 . S
N816 C814 1.325 . S
N816 C815 1.261 . S
C817 H787 0.931 . S
C817 C814 1.357 . S
C817 C818 1.312 . S
C818 H789 0.930 . S
C818 C813 1.261 . S
C818 C817 1.312 . S
C819 O791 1.214 . S
C819 O799 1.234 . S
C820 H792 0.929 . S
C820 C823 1.391 . S
C820 C825 1.391 . S
C821 H793 0.929 . S
C821 C822 1.390 . S
C821 N824 1.391 . S
C822 H794 0.930 . S
C822 C821 1.390 . S
C822 C823 1.392 . S
C823 H795 0.929 . S
C823 C820 1.391 . S
C823 C822 1.392 . S
N824 Co768 2.257 . S
N824 C821 1.391 . S
N824 C825 1.388 . S
C825 H796 0.930 . S
C825 C820 1.391 . S
C825 N824 1.388 . S
Co826 O828 2.143 . S
Co826 O834 2.074 . S
Co826 O837 2.093 . S
Co826 O850 2.097 . S
Co826 N867 2.151 . S
Co826 N875 2.214 . S
Co827 O828 2.160 . S
Co827 O833 2.058 . S
Co827 O843 2.057 . S
Co827 O858 2.037 . S
Co827 N862 2.145 . S
Co827 N883 2.257 . S
O828 Co826 2.143 . S
O828 Co827 2.160 . S
C829 O830 1.278 . S
C829 O837 1.224 . S
O830 C829 1.278 . S
C831 O832 1.245 . S
C831 O843 1.232 . S
O832 C831 1.245 . S
O833 Co827 2.058 . S
O833 C859 1.269 . S
O834 Co826 2.074 . S
O834 C859 1.257 . S
H835 C860 0.930 . S
H836 C866 0.930 . S
O837 Co826 2.093 . S
O837 C829 1.224 . S
H838 C870 0.929 . S
H839 C872 0.930 . S
H840 C873 0.930 . S
H841 C871 0.929 . S
H842 C874 0.928 . S
O843 Co827 2.057 . S
O843 C831 1.232 . S
H844 C863 0.929 . S
H845 C864 0.929 . S
H846 C876 0.931 . S
H847 C868 0.929 . S
H848 C877 0.930 . S
H849 C869 0.931 . S
O850 Co826 2.097 . S
O850 C878 1.214 . S
H851 C879 0.929 . S
H852 C880 0.929 . S
H853 C881 0.930 . S
H854 C882 0.929 . S
H855 C884 0.930 . S
H856 C861 0.930 . S
H857 C865 0.930 . S
O858 Co827 2.037 . S
O858 C878 1.234 . S
C859 O833 1.269 . S
C859 O834 1.257 . S
C860 H835 0.930 . S
C860 C863 1.388 . S
C860 C865 1.418 . S
C861 H856 0.930 . S
C861 C864 1.404 . S
C861 C865 1.353 . S
N862 Co827 2.145 . S
N862 C863 1.397 . S
N862 C864 1.334 . S
C863 H844 0.929 . S
C863 C860 1.388 . S
C863 N862 1.397 . S
C864 H845 0.929 . S
C864 C861 1.404 . S
C864 N862 1.334 . S
C865 H857 0.930 . S
C865 C860 1.418 . S
C865 C861 1.353 . S
C866 H836 0.930 . S
C866 N867 1.330 . S
C866 C868 1.446 . S
N867 Co826 2.151 . S
N867 C866 1.330 . S
N867 C871 1.418 . S
C868 H847 0.929 . S
C868 C866 1.446 . S
C868 C869 1.332 . S
C869 H849 0.931 . S
C869 C868 1.332 . S
C869 C870 1.267 . S
C870 H838 0.929 . S
C870 C869 1.267 . S
C870 C871 1.251 . S
C871 H841 0.929 . S
C871 N867 1.418 . S
C871 C870 1.251 . S
C872 H839 0.930 . S
C872 C874 1.406 . S
C872 C877 1.261 . S
C873 H840 0.930 . S
C873 N875 1.325 . S
C873 C876 1.357 . S
C874 H842 0.928 . S
C874 C872 1.406 . S
C874 N875 1.261 . S
N875 Co826 2.214 . S
N875 C873 1.325 . S
N875 C874 1.261 . S
C876 H846 0.931 . S
C876 C873 1.357 . S
C876 C877 1.312 . S
C877 H848 0.930 . S
C877 C872 1.261 . S
C877 C876 1.312 . S
C878 O850 1.214 . S
C878 O858 1.234 . S
C879 H851 0.929 . S
C879 C882 1.391 . S
C879 C884 1.391 . S
C880 H852 0.929 . S
C880 C881 1.390 . S
C880 N883 1.391 . S
C881 H853 0.930 . S
C881 C880 1.390 . S
C881 C882 1.392 . S
C882 H854 0.929 . S
C882 C879 1.391 . S
C882 C881 1.392 . S
N883 Co827 2.257 . S
N883 C880 1.391 . S
N883 C884 1.388 . S
C884 H855 0.930 . S
C884 C879 1.391 . S
C884 N883 1.388 . S
Co885 O887 2.143 . S
Co885 O893 2.074 . S
Co885 O896 2.093 . S
Co885 O909 2.097 . S
Co885 N926 2.151 . S
Co885 N934 2.214 . S
Co886 O887 2.160 . S
Co886 O892 2.058 . S
Co886 O902 2.057 . S
Co886 O917 2.037 . S
Co886 N921 2.145 . S
Co886 N942 2.257 . S
O887 Co885 2.143 . S
O887 Co886 2.160 . S
C888 O889 1.278 . S
C888 O896 1.224 . S
O889 C888 1.278 . S
C890 O891 1.245 . S
C890 O902 1.232 . S
O891 C890 1.245 . S
O892 Co886 2.058 . S
O892 C918 1.269 . S
O893 Co885 2.074 . S
O893 C918 1.257 . S
H894 C919 0.930 . S
H895 C925 0.930 . S
O896 Co885 2.093 . S
O896 C888 1.224 . S
H897 C929 0.929 . S
H898 C931 0.930 . S
H899 C932 0.930 . S
H900 C930 0.929 . S
H901 C933 0.928 . S
O902 Co886 2.057 . S
O902 C890 1.232 . S
H903 C922 0.929 . S
H904 C923 0.929 . S
H905 C935 0.931 . S
H906 C927 0.929 . S
H907 C936 0.930 . S
H908 C928 0.931 . S
O909 Co885 2.097 . S
O909 C937 1.214 . S
H910 C938 0.929 . S
H911 C939 0.929 . S
H912 C940 0.930 . S
H913 C941 0.929 . S
H914 C943 0.930 . S
H915 C920 0.930 . S
H916 C924 0.930 . S
O917 Co886 2.037 . S
O917 C937 1.234 . S
C918 O892 1.269 . S
C918 O893 1.257 . S
C919 H894 0.930 . S
C919 C922 1.388 . S
C919 C924 1.418 . S
C920 H915 0.930 . S
C920 C923 1.404 . S
C920 C924 1.353 . S
N921 Co886 2.145 . S
N921 C922 1.397 . S
N921 C923 1.334 . S
C922 H903 0.929 . S
C922 C919 1.388 . S
C922 N921 1.397 . S
C923 H904 0.929 . S
C923 C920 1.404 . S
C923 N921 1.334 . S
C924 H916 0.930 . S
C924 C919 1.418 . S
C924 C920 1.353 . S
C925 H895 0.930 . S
C925 N926 1.330 . S
C925 C927 1.446 . S
N926 Co885 2.151 . S
N926 C925 1.330 . S
N926 C930 1.418 . S
C927 H906 0.929 . S
C927 C925 1.446 . S
C927 C928 1.332 . S
C928 H908 0.931 . S
C928 C927 1.332 . S
C928 C929 1.267 . S
C929 H897 0.929 . S
C929 C928 1.267 . S
C929 C930 1.251 . S
C930 H900 0.929 . S
C930 N926 1.418 . S
C930 C929 1.251 . S
C931 H898 0.930 . S
C931 C933 1.406 . S
C931 C936 1.261 . S
C932 H899 0.930 . S
C932 N934 1.325 . S
C932 C935 1.357 . S
C933 H901 0.928 . S
C933 C931 1.406 . S
C933 N934 1.261 . S
N934 Co885 2.214 . S
N934 C932 1.325 . S
N934 C933 1.261 . S
C935 H905 0.931 . S
C935 C932 1.357 . S
C935 C936 1.312 . S
C936 H907 0.930 . S
C936 C931 1.261 . S
C936 C935 1.312 . S
C937 O909 1.214 . S
C937 O917 1.234 . S
C938 H910 0.929 . S
C938 C941 1.391 . S
C938 C943 1.391 . S
C939 H911 0.929 . S
C939 C940 1.390 . S
C939 N942 1.391 . S
C940 H912 0.930 . S
C940 C939 1.390 . S
C940 C941 1.392 . S
C941 H913 0.929 . S
C941 C938 1.391 . S
C941 C940 1.392 . S
N942 Co886 2.257 . S
N942 C939 1.391 . S
N942 C943 1.388 . S
C943 H914 0.930 . S
C943 C938 1.391 . S
C943 N942 1.388 . S
Co944 O946 2.143 . S
Co944 O952 2.074 . S
Co944 O955 2.093 . S
Co944 O968 2.097 . S
Co944 N985 2.151 . S
Co944 N993 2.214 . S
Co945 O946 2.160 . S
Co945 O951 2.058 . S
Co945 O961 2.057 . S
Co945 O976 2.037 . S
Co945 N980 2.145 . S
Co945 N1001 2.257 . S
O946 Co944 2.143 . S
O946 Co945 2.160 . S
C947 O948 1.278 . S
C947 O955 1.224 . S
O948 C947 1.278 . S
C949 O950 1.245 . S
C949 O961 1.232 . S
O950 C949 1.245 . S
O951 Co945 2.058 . S
O951 C977 1.269 . S
O952 Co944 2.074 . S
O952 C977 1.257 . S
H953 C978 0.930 . S
H954 C984 0.930 . S
O955 Co944 2.093 . S
O955 C947 1.224 . S
H956 C988 0.929 . S
H957 C990 0.930 . S
H958 C991 0.930 . S
H959 C989 0.929 . S
H960 C992 0.928 . S
O961 Co945 2.057 . S
O961 C949 1.232 . S
H962 C981 0.929 . S
H963 C982 0.929 . S
H964 C994 0.931 . S
H965 C986 0.929 . S
H966 C995 0.930 . S
H967 C987 0.931 . S
O968 Co944 2.097 . S
O968 C996 1.214 . S
H969 C997 0.929 . S
H970 C998 0.929 . S
H971 C999 0.930 . S
H972 C1000 0.929 . S
H973 C1002 0.930 . S
H974 C979 0.930 . S
H975 C983 0.930 . S
O976 Co945 2.037 . S
O976 C996 1.234 . S
C977 O951 1.269 . S
C977 O952 1.257 . S
C978 H953 0.930 . S
C978 C981 1.388 . S
C978 C983 1.418 . S
C979 H974 0.930 . S
C979 C982 1.404 . S
C979 C983 1.353 . S
N980 Co945 2.145 . S
N980 C981 1.397 . S
N980 C982 1.334 . S
C981 H962 0.929 . S
C981 C978 1.388 . S
C981 N980 1.397 . S
C982 H963 0.929 . S
C982 C979 1.404 . S
C982 N980 1.334 . S
C983 H975 0.930 . S
C983 C978 1.418 . S
C983 C979 1.353 . S
C984 H954 0.930 . S
C984 N985 1.330 . S
C984 C986 1.446 . S
N985 Co944 2.151 . S
N985 C984 1.330 . S
N985 C989 1.418 . S
C986 H965 0.929 . S
C986 C984 1.446 . S
C986 C987 1.332 . S
C987 H967 0.931 . S
C987 C986 1.332 . S
C987 C988 1.267 . S
C988 H956 0.929 . S
C988 C987 1.267 . S
C988 C989 1.251 . S
C989 H959 0.929 . S
C989 N985 1.418 . S
C989 C988 1.251 . S
C990 H957 0.930 . S
C990 C992 1.406 . S
C990 C995 1.261 . S
C991 H958 0.930 . S
C991 N993 1.325 . S
C991 C994 1.357 . S
C992 H960 0.928 . S
C992 C990 1.406 . S
C992 N993 1.261 . S
N993 Co944 2.214 . S
N993 C991 1.325 . S
N993 C992 1.261 . S
C994 H964 0.931 . S
C994 C991 1.357 . S
C994 C995 1.312 . S
C995 H966 0.930 . S
C995 C990 1.261 . S
C995 C994 1.312 . S
C996 O968 1.214 . S
C996 O976 1.234 . S
C997 H969 0.929 . S
C997 C1000 1.391 . S
C997 C1002 1.391 . S
C998 H970 0.929 . S
C998 C999 1.390 . S
C998 N1001 1.391 . S
C999 H971 0.930 . S
C999 C998 1.390 . S
C999 C1000 1.392 . S
C1000 H972 0.929 . S
C1000 C997 1.391 . S
C1000 C999 1.392 . S
N1001 Co945 2.257 . S
N1001 C998 1.391 . S
N1001 C1002 1.388 . S
C1002 H973 0.930 . S
C1002 C997 1.391 . S
C1002 N1001 1.388 . S
Co1003 O1005 2.143 . S
Co1003 O1011 2.074 . S
Co1003 O1014 2.093 . S
Co1003 O1027 2.097 . S
Co1003 N1044 2.151 . S
Co1003 N1052 2.214 . S
Co1004 O1005 2.160 . S
Co1004 O1010 2.058 . S
Co1004 O1020 2.057 . S
Co1004 O1035 2.037 . S
Co1004 N1039 2.145 . S
Co1004 N1060 2.257 . S
O1005 Co1003 2.143 . S
O1005 Co1004 2.160 . S
C1006 O1007 1.278 . S
C1006 O1014 1.224 . S
O1007 C1006 1.278 . S
C1008 O1009 1.245 . S
C1008 O1020 1.232 . S
O1009 C1008 1.245 . S
O1010 Co1004 2.058 . S
O1010 C1036 1.269 . S
O1011 Co1003 2.074 . S
O1011 C1036 1.257 . S
H1012 C1037 0.930 . S
H1013 C1043 0.930 . S
O1014 Co1003 2.093 . S
O1014 C1006 1.224 . S
H1015 C1047 0.929 . S
H1016 C1049 0.930 . S
H1017 C1050 0.930 . S
H1018 C1048 0.929 . S
H1019 C1051 0.928 . S
O1020 Co1004 2.057 . S
O1020 C1008 1.232 . S
H1021 C1040 0.929 . S
H1022 C1041 0.929 . S
H1023 C1053 0.931 . S
H1024 C1045 0.929 . S
H1025 C1054 0.930 . S
H1026 C1046 0.931 . S
O1027 Co1003 2.097 . S
O1027 C1055 1.214 . S
H1028 C1056 0.929 . S
H1029 C1057 0.929 . S
H1030 C1058 0.930 . S
H1031 C1059 0.929 . S
H1032 C1061 0.930 . S
H1033 C1038 0.930 . S
H1034 C1042 0.930 . S
O1035 Co1004 2.037 . S
O1035 C1055 1.234 . S
C1036 O1010 1.269 . S
C1036 O1011 1.257 . S
C1037 H1012 0.930 . S
C1037 C1040 1.388 . S
C1037 C1042 1.418 . S
C1038 H1033 0.930 . S
C1038 C1041 1.404 . S
C1038 C1042 1.353 . S
N1039 Co1004 2.145 . S
N1039 C1040 1.397 . S
N1039 C1041 1.334 . S
C1040 H1021 0.929 . S
C1040 C1037 1.388 . S
C1040 N1039 1.397 . S
C1041 H1022 0.929 . S
C1041 C1038 1.404 . S
C1041 N1039 1.334 . S
C1042 H1034 0.930 . S
C1042 C1037 1.418 . S
C1042 C1038 1.353 . S
C1043 H1013 0.930 . S
C1043 N1044 1.330 . S
C1043 C1045 1.446 . S
N1044 Co1003 2.151 . S
N1044 C1043 1.330 . S
N1044 C1048 1.418 . S
C1045 H1024 0.929 . S
C1045 C1043 1.446 . S
C1045 C1046 1.332 . S
C1046 H1026 0.931 . S
C1046 C1045 1.332 . S
C1046 C1047 1.267 . S
C1047 H1015 0.929 . S
C1047 C1046 1.267 . S
C1047 C1048 1.251 . S
C1048 H1018 0.929 . S
C1048 N1044 1.418 . S
C1048 C1047 1.251 . S
C1049 H1016 0.930 . S
C1049 C1051 1.406 . S
C1049 C1054 1.261 . S
C1050 H1017 0.930 . S
C1050 N1052 1.325 . S
C1050 C1053 1.357 . S
C1051 H1019 0.928 . S
C1051 C1049 1.406 . S
C1051 N1052 1.261 . S
N1052 Co1003 2.214 . S
N1052 C1050 1.325 . S
N1052 C1051 1.261 . S
C1053 H1023 0.931 . S
C1053 C1050 1.357 . S
C1053 C1054 1.312 . S
C1054 H1025 0.930 . S
C1054 C1049 1.261 . S
C1054 C1053 1.312 . S
C1055 O1027 1.214 . S
C1055 O1035 1.234 . S
C1056 H1028 0.929 . S
C1056 C1059 1.391 . S
C1056 C1061 1.391 . S
C1057 H1029 0.929 . S
C1057 C1058 1.390 . S
C1057 N1060 1.391 . S
C1058 H1030 0.930 . S
C1058 C1057 1.390 . S
C1058 C1059 1.392 . S
C1059 H1031 0.929 . S
C1059 C1056 1.391 . S
C1059 C1058 1.392 . S
N1060 Co1004 2.257 . S
N1060 C1057 1.391 . S
N1060 C1061 1.388 . S
C1061 H1032 0.930 . S
C1061 C1056 1.391 . S
C1061 N1060 1.388 . S
Co1062 O1064 2.143 . S
Co1062 O1070 2.074 . S
Co1062 O1073 2.093 . S
Co1062 O1086 2.097 . S
Co1062 N1103 2.151 . S
Co1062 N1111 2.214 . S
Co1063 O1064 2.160 . S
Co1063 O1069 2.058 . S
Co1063 O1079 2.057 . S
Co1063 O1094 2.037 . S
Co1063 N1098 2.145 . S
Co1063 N1119 2.257 . S
O1064 Co1062 2.143 . S
O1064 Co1063 2.160 . S
C1065 O1066 1.278 . S
C1065 O1073 1.224 . S
O1066 C1065 1.278 . S
C1067 O1068 1.245 . S
C1067 O1079 1.232 . S
O1068 C1067 1.245 . S
O1069 Co1063 2.058 . S
O1069 C1095 1.269 . S
O1070 Co1062 2.074 . S
O1070 C1095 1.257 . S
H1071 C1096 0.930 . S
H1072 C1102 0.930 . S
O1073 Co1062 2.093 . S
O1073 C1065 1.224 . S
H1074 C1106 0.929 . S
H1075 C1108 0.930 . S
H1076 C1109 0.930 . S
H1077 C1107 0.929 . S
H1078 C1110 0.928 . S
O1079 Co1063 2.057 . S
O1079 C1067 1.232 . S
H1080 C1099 0.929 . S
H1081 C1100 0.929 . S
H1082 C1112 0.931 . S
H1083 C1104 0.929 . S
H1084 C1113 0.930 . S
H1085 C1105 0.931 . S
O1086 Co1062 2.097 . S
O1086 C1114 1.214 . S
H1087 C1115 0.929 . S
H1088 C1116 0.929 . S
H1089 C1117 0.930 . S
H1090 C1118 0.929 . S
H1091 C1120 0.930 . S
H1092 C1097 0.930 . S
H1093 C1101 0.930 . S
O1094 Co1063 2.037 . S
O1094 C1114 1.234 . S
C1095 O1069 1.269 . S
C1095 O1070 1.257 . S
C1096 H1071 0.930 . S
C1096 C1099 1.388 . S
C1096 C1101 1.418 . S
C1097 H1092 0.930 . S
C1097 C1100 1.404 . S
C1097 C1101 1.353 . S
N1098 Co1063 2.145 . S
N1098 C1099 1.397 . S
N1098 C1100 1.334 . S
C1099 H1080 0.929 . S
C1099 C1096 1.388 . S
C1099 N1098 1.397 . S
C1100 H1081 0.929 . S
C1100 C1097 1.404 . S
C1100 N1098 1.334 . S
C1101 H1093 0.930 . S
C1101 C1096 1.418 . S
C1101 C1097 1.353 . S
C1102 H1072 0.930 . S
C1102 N1103 1.330 . S
C1102 C1104 1.446 . S
N1103 Co1062 2.151 . S
N1103 C1102 1.330 . S
N1103 C1107 1.418 . S
C1104 H1083 0.929 . S
C1104 C1102 1.446 . S
C1104 C1105 1.332 . S
C1105 H1085 0.931 . S
C1105 C1104 1.332 . S
C1105 C1106 1.267 . S
C1106 H1074 0.929 . S
C1106 C1105 1.267 . S
C1106 C1107 1.251 . S
C1107 H1077 0.929 . S
C1107 N1103 1.418 . S
C1107 C1106 1.251 . S
C1108 H1075 0.930 . S
C1108 C1110 1.406 . S
C1108 C1113 1.261 . S
C1109 H1076 0.930 . S
C1109 N1111 1.325 . S
C1109 C1112 1.357 . S
C1110 H1078 0.928 . S
C1110 C1108 1.406 . S
C1110 N1111 1.261 . S
N1111 Co1062 2.214 . S
N1111 C1109 1.325 . S
N1111 C1110 1.261 . S
C1112 H1082 0.931 . S
C1112 C1109 1.357 . S
C1112 C1113 1.312 . S
C1113 H1084 0.930 . S
C1113 C1108 1.261 . S
C1113 C1112 1.312 . S
C1114 O1086 1.214 . S
C1114 O1094 1.234 . S
C1115 H1087 0.929 . S
C1115 C1118 1.391 . S
C1115 C1120 1.391 . S
C1116 H1088 0.929 . S
C1116 C1117 1.390 . S
C1116 N1119 1.391 . S
C1117 H1089 0.930 . S
C1117 C1116 1.390 . S
C1117 C1118 1.392 . S
C1118 H1090 0.929 . S
C1118 C1115 1.391 . S
C1118 C1117 1.392 . S
N1119 Co1063 2.257 . S
N1119 C1116 1.391 . S
N1119 C1120 1.388 . S
C1120 H1091 0.930 . S
C1120 C1115 1.391 . S
C1120 N1119 1.388 . S
Co1121 O1123 2.143 . S
Co1121 O1129 2.074 . S
Co1121 O1132 2.093 . S
Co1121 O1145 2.097 . S
Co1121 N1162 2.151 . S
Co1121 N1170 2.214 . S
Co1122 O1123 2.160 . S
Co1122 O1128 2.058 . S
Co1122 O1138 2.057 . S
Co1122 O1153 2.037 . S
Co1122 N1157 2.145 . S
Co1122 N1178 2.257 . S
O1123 Co1121 2.143 . S
O1123 Co1122 2.160 . S
C1124 O1125 1.278 . S
C1124 O1132 1.224 . S
O1125 C1124 1.278 . S
C1126 O1127 1.245 . S
C1126 O1138 1.232 . S
O1127 C1126 1.245 . S
O1128 Co1122 2.058 . S
O1128 C1154 1.269 . S
O1129 Co1121 2.074 . S
O1129 C1154 1.257 . S
H1130 C1155 0.930 . S
H1131 C1161 0.930 . S
O1132 Co1121 2.093 . S
O1132 C1124 1.224 . S
H1133 C1165 0.929 . S
H1134 C1167 0.930 . S
H1135 C1168 0.930 . S
H1136 C1166 0.929 . S
H1137 C1169 0.928 . S
O1138 Co1122 2.057 . S
O1138 C1126 1.232 . S
H1139 C1158 0.929 . S
H1140 C1159 0.929 . S
H1141 C1171 0.931 . S
H1142 C1163 0.929 . S
H1143 C1172 0.930 . S
H1144 C1164 0.931 . S
O1145 Co1121 2.097 . S
O1145 C1173 1.214 . S
H1146 C1174 0.929 . S
H1147 C1175 0.929 . S
H1148 C1176 0.930 . S
H1149 C1177 0.929 . S
H1150 C1179 0.930 . S
H1151 C1156 0.930 . S
H1152 C1160 0.930 . S
O1153 Co1122 2.037 . S
O1153 C1173 1.234 . S
C1154 O1128 1.269 . S
C1154 O1129 1.257 . S
C1155 H1130 0.930 . S
C1155 C1158 1.388 . S
C1155 C1160 1.418 . S
C1156 H1151 0.930 . S
C1156 C1159 1.404 . S
C1156 C1160 1.353 . S
N1157 Co1122 2.145 . S
N1157 C1158 1.397 . S
N1157 C1159 1.334 . S
C1158 H1139 0.929 . S
C1158 C1155 1.388 . S
C1158 N1157 1.397 . S
C1159 H1140 0.929 . S
C1159 C1156 1.404 . S
C1159 N1157 1.334 . S
C1160 H1152 0.930 . S
C1160 C1155 1.418 . S
C1160 C1156 1.353 . S
C1161 H1131 0.930 . S
C1161 N1162 1.330 . S
C1161 C1163 1.446 . S
N1162 Co1121 2.151 . S
N1162 C1161 1.330 . S
N1162 C1166 1.418 . S
C1163 H1142 0.929 . S
C1163 C1161 1.446 . S
C1163 C1164 1.332 . S
C1164 H1144 0.931 . S
C1164 C1163 1.332 . S
C1164 C1165 1.267 . S
C1165 H1133 0.929 . S
C1165 C1164 1.267 . S
C1165 C1166 1.251 . S
C1166 H1136 0.929 . S
C1166 N1162 1.418 . S
C1166 C1165 1.251 . S
C1167 H1134 0.930 . S
C1167 C1169 1.406 . S
C1167 C1172 1.261 . S
C1168 H1135 0.930 . S
C1168 N1170 1.325 . S
C1168 C1171 1.357 . S
C1169 H1137 0.928 . S
C1169 C1167 1.406 . S
C1169 N1170 1.261 . S
N1170 Co1121 2.214 . S
N1170 C1168 1.325 . S
N1170 C1169 1.261 . S
C1171 H1141 0.931 . S
C1171 C1168 1.357 . S
C1171 C1172 1.312 . S
C1172 H1143 0.930 . S
C1172 C1167 1.261 . S
C1172 C1171 1.312 . S
C1173 O1145 1.214 . S
C1173 O1153 1.234 . S
C1174 H1146 0.929 . S
C1174 C1177 1.391 . S
C1174 C1179 1.391 . S
C1175 H1147 0.929 . S
C1175 C1176 1.390 . S
C1175 N1178 1.391 . S
C1176 H1148 0.930 . S
C1176 C1175 1.390 . S
C1176 C1177 1.392 . S
C1177 H1149 0.929 . S
C1177 C1174 1.391 . S
C1177 C1176 1.392 . S
N1178 Co1122 2.257 . S
N1178 C1175 1.391 . S
N1178 C1179 1.388 . S
C1179 H1150 0.930 . S
C1179 C1174 1.391 . S
C1179 N1178 1.388 . S
Co1180 O1182 2.143 . S
Co1180 O1188 2.074 . S
Co1180 O1191 2.093 . S
Co1180 O1204 2.097 . S
Co1180 N1221 2.151 . S
Co1180 N1229 2.214 . S
Co1181 O1182 2.160 . S
Co1181 O1187 2.058 . S
Co1181 O1197 2.057 . S
Co1181 O1212 2.037 . S
Co1181 N1216 2.145 . S
Co1181 N1237 2.257 . S
O1182 Co1180 2.143 . S
O1182 Co1181 2.160 . S
C1183 O1184 1.278 . S
C1183 O1191 1.224 . S
O1184 C1183 1.278 . S
C1185 O1186 1.245 . S
C1185 O1197 1.232 . S
O1186 C1185 1.245 . S
O1187 Co1181 2.058 . S
O1187 C1213 1.269 . S
O1188 Co1180 2.074 . S
O1188 C1213 1.257 . S
H1189 C1214 0.930 . S
H1190 C1220 0.930 . S
O1191 Co1180 2.093 . S
O1191 C1183 1.224 . S
H1192 C1224 0.929 . S
H1193 C1226 0.930 . S
H1194 C1227 0.930 . S
H1195 C1225 0.929 . S
H1196 C1228 0.928 . S
O1197 Co1181 2.057 . S
O1197 C1185 1.232 . S
H1198 C1217 0.929 . S
H1199 C1218 0.929 . S
H1200 C1230 0.931 . S
H1201 C1222 0.929 . S
H1202 C1231 0.930 . S
H1203 C1223 0.931 . S
O1204 Co1180 2.097 . S
O1204 C1232 1.214 . S
H1205 C1233 0.929 . S
H1206 C1234 0.929 . S
H1207 C1235 0.930 . S
H1208 C1236 0.929 . S
H1209 C1238 0.930 . S
H1210 C1215 0.930 . S
H1211 C1219 0.930 . S
O1212 Co1181 2.037 . S
O1212 C1232 1.234 . S
C1213 O1187 1.269 . S
C1213 O1188 1.257 . S
C1214 H1189 0.930 . S
C1214 C1217 1.388 . S
C1214 C1219 1.418 . S
C1215 H1210 0.930 . S
C1215 C1218 1.404 . S
C1215 C1219 1.353 . S
N1216 Co1181 2.145 . S
N1216 C1217 1.397 . S
N1216 C1218 1.334 . S
C1217 H1198 0.929 . S
C1217 C1214 1.388 . S
C1217 N1216 1.397 . S
C1218 H1199 0.929 . S
C1218 C1215 1.404 . S
C1218 N1216 1.334 . S
C1219 H1211 0.930 . S
C1219 C1214 1.418 . S
C1219 C1215 1.353 . S
C1220 H1190 0.930 . S
C1220 N1221 1.330 . S
C1220 C1222 1.446 . S
N1221 Co1180 2.151 . S
N1221 C1220 1.330 . S
N1221 C1225 1.418 . S
C1222 H1201 0.929 . S
C1222 C1220 1.446 . S
C1222 C1223 1.332 . S
C1223 H1203 0.931 . S
C1223 C1222 1.332 . S
C1223 C1224 1.267 . S
C1224 H1192 0.929 . S
C1224 C1223 1.267 . S
C1224 C1225 1.251 . S
C1225 H1195 0.929 . S
C1225 N1221 1.418 . S
C1225 C1224 1.251 . S
C1226 H1193 0.930 . S
C1226 C1228 1.406 . S
C1226 C1231 1.261 . S
C1227 H1194 0.930 . S
C1227 N1229 1.325 . S
C1227 C1230 1.357 . S
C1228 H1196 0.928 . S
C1228 C1226 1.406 . S
C1228 N1229 1.261 . S
N1229 Co1180 2.214 . S
N1229 C1227 1.325 . S
N1229 C1228 1.261 . S
C1230 H1200 0.931 . S
C1230 C1227 1.357 . S
C1230 C1231 1.312 . S
C1231 H1202 0.930 . S
C1231 C1226 1.261 . S
C1231 C1230 1.312 . S
C1232 O1204 1.214 . S
C1232 O1212 1.234 . S
C1233 H1205 0.929 . S
C1233 C1236 1.391 . S
C1233 C1238 1.391 . S
C1234 H1206 0.929 . S
C1234 C1235 1.390 . S
C1234 N1237 1.391 . S
C1235 H1207 0.930 . S
C1235 C1234 1.390 . S
C1235 C1236 1.392 . S
C1236 H1208 0.929 . S
C1236 C1233 1.391 . S
C1236 C1235 1.392 . S
N1237 Co1181 2.257 . S
N1237 C1234 1.391 . S
N1237 C1238 1.388 . S
C1238 H1209 0.930 . S
C1238 C1233 1.391 . S
C1238 N1237 1.388 . S
Co1239 O1241 2.143 . S
Co1239 O1247 2.074 . S
Co1239 O1250 2.093 . S
Co1239 O1263 2.097 . S
Co1239 N1280 2.151 . S
Co1239 N1288 2.214 . S
Co1240 O1241 2.160 . S
Co1240 O1246 2.058 . S
Co1240 O1256 2.057 . S
Co1240 O1271 2.037 . S
Co1240 N1275 2.145 . S
Co1240 N1296 2.257 . S
O1241 Co1239 2.143 . S
O1241 Co1240 2.160 . S
C1242 O1243 1.278 . S
C1242 O1250 1.224 . S
O1243 C1242 1.278 . S
C1244 O1245 1.245 . S
C1244 O1256 1.232 . S
O1245 C1244 1.245 . S
O1246 Co1240 2.058 . S
O1246 C1272 1.269 . S
O1247 Co1239 2.074 . S
O1247 C1272 1.257 . S
H1248 C1273 0.930 . S
H1249 C1279 0.930 . S
O1250 Co1239 2.093 . S
O1250 C1242 1.224 . S
H1251 C1283 0.929 . S
H1252 C1285 0.930 . S
H1253 C1286 0.930 . S
H1254 C1284 0.929 . S
H1255 C1287 0.928 . S
O1256 Co1240 2.057 . S
O1256 C1244 1.232 . S
H1257 C1276 0.929 . S
H1258 C1277 0.929 . S
H1259 C1289 0.931 . S
H1260 C1281 0.929 . S
H1261 C1290 0.930 . S
H1262 C1282 0.931 . S
O1263 Co1239 2.097 . S
O1263 C1291 1.214 . S
H1264 C1292 0.929 . S
H1265 C1293 0.929 . S
H1266 C1294 0.930 . S
H1267 C1295 0.929 . S
H1268 C1297 0.930 . S
H1269 C1274 0.930 . S
H1270 C1278 0.930 . S
O1271 Co1240 2.037 . S
O1271 C1291 1.234 . S
C1272 O1246 1.269 . S
C1272 O1247 1.257 . S
C1273 H1248 0.930 . S
C1273 C1276 1.388 . S
C1273 C1278 1.418 . S
C1274 H1269 0.930 . S
C1274 C1277 1.404 . S
C1274 C1278 1.353 . S
N1275 Co1240 2.145 . S
N1275 C1276 1.397 . S
N1275 C1277 1.334 . S
C1276 H1257 0.929 . S
C1276 C1273 1.388 . S
C1276 N1275 1.397 . S
C1277 H1258 0.929 . S
C1277 C1274 1.404 . S
C1277 N1275 1.334 . S
C1278 H1270 0.930 . S
C1278 C1273 1.418 . S
C1278 C1274 1.353 . S
C1279 H1249 0.930 . S
C1279 N1280 1.330 . S
C1279 C1281 1.446 . S
N1280 Co1239 2.151 . S
N1280 C1279 1.330 . S
N1280 C1284 1.418 . S
C1281 H1260 0.929 . S
C1281 C1279 1.446 . S
C1281 C1282 1.332 . S
C1282 H1262 0.931 . S
C1282 C1281 1.332 . S
C1282 C1283 1.267 . S
C1283 H1251 0.929 . S
C1283 C1282 1.267 . S
C1283 C1284 1.251 . S
C1284 H1254 0.929 . S
C1284 N1280 1.418 . S
C1284 C1283 1.251 . S
C1285 H1252 0.930 . S
C1285 C1287 1.406 . S
C1285 C1290 1.261 . S
C1286 H1253 0.930 . S
C1286 N1288 1.325 . S
C1286 C1289 1.357 . S
C1287 H1255 0.928 . S
C1287 C1285 1.406 . S
C1287 N1288 1.261 . S
N1288 Co1239 2.214 . S
N1288 C1286 1.325 . S
N1288 C1287 1.261 . S
C1289 H1259 0.931 . S
C1289 C1286 1.357 . S
C1289 C1290 1.312 . S
C1290 H1261 0.930 . S
C1290 C1285 1.261 . S
C1290 C1289 1.312 . S
C1291 O1263 1.214 . S
C1291 O1271 1.234 . S
C1292 H1264 0.929 . S
C1292 C1295 1.391 . S
C1292 C1297 1.391 . S
C1293 H1265 0.929 . S
C1293 C1294 1.390 . S
C1293 N1296 1.391 . S
C1294 H1266 0.930 . S
C1294 C1293 1.390 . S
C1294 C1295 1.392 . S
C1295 H1267 0.929 . S
C1295 C1292 1.391 . S
C1295 C1294 1.392 . S
N1296 Co1240 2.257 . S
N1296 C1293 1.391 . S
N1296 C1297 1.388 . S
C1297 H1268 0.930 . S
C1297 C1292 1.391 . S
C1297 N1296 1.388 . S
Co1298 O1300 2.143 . S
Co1298 O1306 2.074 . S
Co1298 O1309 2.093 . S
Co1298 O1322 2.097 . S
Co1298 N1339 2.151 . S
Co1298 N1347 2.214 . S
Co1299 O1300 2.160 . S
Co1299 O1305 2.058 . S
Co1299 O1315 2.057 . S
Co1299 O1330 2.037 . S
Co1299 N1334 2.145 . S
Co1299 N1355 2.257 . S
O1300 Co1298 2.143 . S
O1300 Co1299 2.160 . S
C1301 O1302 1.278 . S
C1301 O1309 1.224 . S
O1302 C1301 1.278 . S
C1303 O1304 1.245 . S
C1303 O1315 1.232 . S
O1304 C1303 1.245 . S
O1305 Co1299 2.058 . S
O1305 C1331 1.269 . S
O1306 Co1298 2.074 . S
O1306 C1331 1.257 . S
H1307 C1332 0.930 . S
H1308 C1338 0.930 . S
O1309 Co1298 2.093 . S
O1309 C1301 1.224 . S
H1310 C1342 0.929 . S
H1311 C1344 0.930 . S
H1312 C1345 0.930 . S
H1313 C1343 0.929 . S
H1314 C1346 0.928 . S
O1315 Co1299 2.057 . S
O1315 C1303 1.232 . S
H1316 C1335 0.929 . S
H1317 C1336 0.929 . S
H1318 C1348 0.931 . S
H1319 C1340 0.929 . S
H1320 C1349 0.930 . S
H1321 C1341 0.931 . S
O1322 Co1298 2.097 . S
O1322 C1350 1.214 . S
H1323 C1351 0.929 . S
H1324 C1352 0.929 . S
H1325 C1353 0.930 . S
H1326 C1354 0.929 . S
H1327 C1356 0.930 . S
H1328 C1333 0.930 . S
H1329 C1337 0.930 . S
O1330 Co1299 2.037 . S
O1330 C1350 1.234 . S
C1331 O1305 1.269 . S
C1331 O1306 1.257 . S
C1332 H1307 0.930 . S
C1332 C1335 1.388 . S
C1332 C1337 1.418 . S
C1333 H1328 0.930 . S
C1333 C1336 1.404 . S
C1333 C1337 1.353 . S
N1334 Co1299 2.145 . S
N1334 C1335 1.397 . S
N1334 C1336 1.334 . S
C1335 H1316 0.929 . S
C1335 C1332 1.388 . S
C1335 N1334 1.397 . S
C1336 H1317 0.929 . S
C1336 C1333 1.404 . S
C1336 N1334 1.334 . S
C1337 H1329 0.930 . S
C1337 C1332 1.418 . S
C1337 C1333 1.353 . S
C1338 H1308 0.930 . S
C1338 N1339 1.330 . S
C1338 C1340 1.446 . S
N1339 Co1298 2.151 . S
N1339 C1338 1.330 . S
N1339 C1343 1.418 . S
C1340 H1319 0.929 . S
C1340 C1338 1.446 . S
C1340 C1341 1.332 . S
C1341 H1321 0.931 . S
C1341 C1340 1.332 . S
C1341 C1342 1.267 . S
C1342 H1310 0.929 . S
C1342 C1341 1.267 . S
C1342 C1343 1.251 . S
C1343 H1313 0.929 . S
C1343 N1339 1.418 . S
C1343 C1342 1.251 . S
C1344 H1311 0.930 . S
C1344 C1346 1.406 . S
C1344 C1349 1.261 . S
C1345 H1312 0.930 . S
C1345 N1347 1.325 . S
C1345 C1348 1.357 . S
C1346 H1314 0.928 . S
C1346 C1344 1.406 . S
C1346 N1347 1.261 . S
N1347 Co1298 2.214 . S
N1347 C1345 1.325 . S
N1347 C1346 1.261 . S
C1348 H1318 0.931 . S
C1348 C1345 1.357 . S
C1348 C1349 1.312 . S
C1349 H1320 0.930 . S
C1349 C1344 1.261 . S
C1349 C1348 1.312 . S
C1350 O1322 1.214 . S
C1350 O1330 1.234 . S
C1351 H1323 0.929 . S
C1351 C1354 1.391 . S
C1351 C1356 1.391 . S
C1352 H1324 0.929 . S
C1352 C1353 1.390 . S
C1352 N1355 1.391 . S
C1353 H1325 0.930 . S
C1353 C1352 1.390 . S
C1353 C1354 1.392 . S
C1354 H1326 0.929 . S
C1354 C1351 1.391 . S
C1354 C1353 1.392 . S
N1355 Co1299 2.257 . S
N1355 C1352 1.391 . S
N1355 C1356 1.388 . S
C1356 H1327 0.930 . S
C1356 C1351 1.391 . S
C1356 N1355 1.388 . S
Co1357 O1359 2.143 . S
Co1357 O1365 2.074 . S
Co1357 O1368 2.093 . S
Co1357 O1381 2.097 . S
Co1357 N1398 2.151 . S
Co1357 N1406 2.214 . S
Co1358 O1359 2.160 . S
Co1358 O1364 2.058 . S
Co1358 O1374 2.057 . S
Co1358 O1389 2.037 . S
Co1358 N1393 2.145 . S
Co1358 N1414 2.257 . S
O1359 Co1357 2.143 . S
O1359 Co1358 2.160 . S
C1360 O1361 1.278 . S
C1360 O1368 1.224 . S
O1361 C1360 1.278 . S
C1362 O1363 1.245 . S
C1362 O1374 1.232 . S
O1363 C1362 1.245 . S
O1364 Co1358 2.058 . S
O1364 C1390 1.269 . S
O1365 Co1357 2.074 . S
O1365 C1390 1.257 . S
H1366 C1391 0.930 . S
H1367 C1397 0.930 . S
O1368 Co1357 2.093 . S
O1368 C1360 1.224 . S
H1369 C1401 0.929 . S
H1370 C1403 0.930 . S
H1371 C1404 0.930 . S
H1372 C1402 0.929 . S
H1373 C1405 0.928 . S
O1374 Co1358 2.057 . S
O1374 C1362 1.232 . S
H1375 C1394 0.929 . S
H1376 C1395 0.929 . S
H1377 C1407 0.931 . S
H1378 C1399 0.929 . S
H1379 C1408 0.930 . S
H1380 C1400 0.931 . S
O1381 Co1357 2.097 . S
O1381 C1409 1.214 . S
H1382 C1410 0.929 . S
H1383 C1411 0.929 . S
H1384 C1412 0.930 . S
H1385 C1413 0.929 . S
H1386 C1415 0.930 . S
H1387 C1392 0.930 . S
H1388 C1396 0.930 . S
O1389 Co1358 2.037 . S
O1389 C1409 1.234 . S
C1390 O1364 1.269 . S
C1390 O1365 1.257 . S
C1391 H1366 0.930 . S
C1391 C1394 1.388 . S
C1391 C1396 1.418 . S
C1392 H1387 0.930 . S
C1392 C1395 1.404 . S
C1392 C1396 1.353 . S
N1393 Co1358 2.145 . S
N1393 C1394 1.397 . S
N1393 C1395 1.334 . S
C1394 H1375 0.929 . S
C1394 C1391 1.388 . S
C1394 N1393 1.397 . S
C1395 H1376 0.929 . S
C1395 C1392 1.404 . S
C1395 N1393 1.334 . S
C1396 H1388 0.930 . S
C1396 C1391 1.418 . S
C1396 C1392 1.353 . S
C1397 H1367 0.930 . S
C1397 N1398 1.330 . S
C1397 C1399 1.446 . S
N1398 Co1357 2.151 . S
N1398 C1397 1.330 . S
N1398 C1402 1.418 . S
C1399 H1378 0.929 . S
C1399 C1397 1.446 . S
C1399 C1400 1.332 . S
C1400 H1380 0.931 . S
C1400 C1399 1.332 . S
C1400 C1401 1.267 . S
C1401 H1369 0.929 . S
C1401 C1400 1.267 . S
C1401 C1402 1.251 . S
C1402 H1372 0.929 . S
C1402 N1398 1.418 . S
C1402 C1401 1.251 . S
C1403 H1370 0.930 . S
C1403 C1405 1.406 . S
C1403 C1408 1.261 . S
C1404 H1371 0.930 . S
C1404 N1406 1.325 . S
C1404 C1407 1.357 . S
C1405 H1373 0.928 . S
C1405 C1403 1.406 . S
C1405 N1406 1.261 . S
N1406 Co1357 2.214 . S
N1406 C1404 1.325 . S
N1406 C1405 1.261 . S
C1407 H1377 0.931 . S
C1407 C1404 1.357 . S
C1407 C1408 1.312 . S
C1408 H1379 0.930 . S
C1408 C1403 1.261 . S
C1408 C1407 1.312 . S
C1409 O1381 1.214 . S
C1409 O1389 1.234 . S
C1410 H1382 0.929 . S
C1410 C1413 1.391 . S
C1410 C1415 1.391 . S
C1411 H1383 0.929 . S
C1411 C1412 1.390 . S
C1411 N1414 1.391 . S
C1412 H1384 0.930 . S
C1412 C1411 1.390 . S
C1412 C1413 1.392 . S
C1413 H1385 0.929 . S
C1413 C1410 1.391 . S
C1413 C1412 1.392 . S
N1414 Co1358 2.257 . S
N1414 C1411 1.391 . S
N1414 C1415 1.388 . S
C1415 H1386 0.930 . S
C1415 C1410 1.391 . S
C1415 N1414 1.388 . S
C1416 C1417 1.369 . S
C1416 C1418 1.419 . S
C1416 H1420 0.930 . S
C1417 C1416 1.369 . S
C1417 C1426 1.429 . S
C1418 C1416 1.419 . S
C1418 C1419 1.363 . S
C1418 H1421 0.929 . S
C1419 C1418 1.363 . S
C1419 C1425 1.428 . S
H1420 C1416 0.930 . S
H1421 C1418 0.929 . S
S1422 N1423 1.613 . S
S1422 N1424 1.610 . S
N1423 S1422 1.613 . S
N1423 C1426 1.350 . S
N1424 S1422 1.610 . S
N1424 C1425 1.351 . S
C1425 C1419 1.428 . S
C1425 N1424 1.351 . S
C1425 C1426 1.434 . S
C1426 C1417 1.429 . S
C1426 N1423 1.350 . S
C1426 C1425 1.434 . S
C1427 C1428 1.369 . S
C1427 C1429 1.419 . S
C1427 H1431 0.930 . S
C1428 C1427 1.369 . S
C1428 C1437 1.429 . S
C1429 C1427 1.419 . S
C1429 C1430 1.363 . S
C1429 H1432 0.929 . S
C1430 C1429 1.363 . S
C1430 C1436 1.428 . S
H1431 C1427 0.930 . S
H1432 C1429 0.929 . S
S1433 N1434 1.613 . S
S1433 N1435 1.610 . S
N1434 S1433 1.613 . S
N1434 C1437 1.350 . S
N1435 S1433 1.610 . S
N1435 C1436 1.351 . S
C1436 C1430 1.428 . S
C1436 N1435 1.351 . S
C1436 C1437 1.434 . S
C1437 C1428 1.429 . S
C1437 N1434 1.350 . S
C1437 C1436 1.434 . S
C1438 C1439 1.369 . S
C1438 C1440 1.419 . S
C1438 H1442 0.930 . S
C1439 C1438 1.369 . S
C1439 C1448 1.429 . S
C1440 C1438 1.419 . S
C1440 C1441 1.363 . S
C1440 H1443 0.929 . S
C1441 C1440 1.363 . S
C1441 C1447 1.428 . S
H1442 C1438 0.930 . S
H1443 C1440 0.929 . S
S1444 N1445 1.613 . S
S1444 N1446 1.610 . S
N1445 S1444 1.613 . S
N1445 C1448 1.350 . S
N1446 S1444 1.610 . S
N1446 C1447 1.351 . S
C1447 C1441 1.428 . S
C1447 N1446 1.351 . S
C1447 C1448 1.434 . S
C1448 C1439 1.429 . S
C1448 N1445 1.350 . S
C1448 C1447 1.434 . S
C1449 C1450 1.369 . S
C1449 C1451 1.419 . S
C1449 H1453 0.930 . S
C1450 C1449 1.369 . S
C1450 C1459 1.429 . S
C1451 C1449 1.419 . S
C1451 C1452 1.363 . S
C1451 H1454 0.929 . S
C1452 C1451 1.363 . S
C1452 C1458 1.428 . S
H1453 C1449 0.930 . S
H1454 C1451 0.929 . S
S1455 N1456 1.613 . S
S1455 N1457 1.610 . S
N1456 S1455 1.613 . S
N1456 C1459 1.350 . S
N1457 S1455 1.610 . S
N1457 C1458 1.351 . S
C1458 C1452 1.428 . S
C1458 N1457 1.351 . S
C1458 C1459 1.434 . S
C1459 C1450 1.429 . S
C1459 N1456 1.350 . S
C1459 C1458 1.434 . S
C1460 C1461 1.369 . S
C1460 C1462 1.419 . S
C1460 H1464 0.930 . S
C1461 C1460 1.369 . S
C1461 C1470 1.429 . S
C1462 C1460 1.419 . S
C1462 C1463 1.363 . S
C1462 H1465 0.929 . S
C1463 C1462 1.363 . S
C1463 C1469 1.428 . S
H1464 C1460 0.930 . S
H1465 C1462 0.929 . S
S1466 N1467 1.613 . S
S1466 N1468 1.610 . S
N1467 S1466 1.613 . S
N1467 C1470 1.350 . S
N1468 S1466 1.610 . S
N1468 C1469 1.351 . S
C1469 C1463 1.428 . S
C1469 N1468 1.351 . S
C1469 C1470 1.434 . S
C1470 C1461 1.429 . S
C1470 N1467 1.350 . S
C1470 C1469 1.434 . S
C1471 C1472 1.369 . S
C1471 C1473 1.419 . S
C1471 H1475 0.930 . S
C1472 C1471 1.369 . S
C1472 C1481 1.429 . S
C1473 C1471 1.419 . S
C1473 C1474 1.363 . S
C1473 H1476 0.929 . S
C1474 C1473 1.363 . S
C1474 C1480 1.428 . S
H1475 C1471 0.930 . S
H1476 C1473 0.929 . S
S1477 N1478 1.613 . S
S1477 N1479 1.610 . S
N1478 S1477 1.613 . S
N1478 C1481 1.350 . S
N1479 S1477 1.610 . S
N1479 C1480 1.351 . S
C1480 C1474 1.428 . S
C1480 N1479 1.351 . S
C1480 C1481 1.434 . S
C1481 C1472 1.429 . S
C1481 N1478 1.350 . S
C1481 C1480 1.434 . S
C1482 C1483 1.369 . S
C1482 C1484 1.419 . S
C1482 H1486 0.930 . S
C1483 C1482 1.369 . S
C1483 C1492 1.429 . S
C1484 C1482 1.419 . S
C1484 C1485 1.363 . S
C1484 H1487 0.929 . S
C1485 C1484 1.363 . S
C1485 C1491 1.428 . S
H1486 C1482 0.930 . S
H1487 C1484 0.929 . S
S1488 N1489 1.613 . S
S1488 N1490 1.610 . S
N1489 S1488 1.613 . S
N1489 C1492 1.350 . S
N1490 S1488 1.610 . S
N1490 C1491 1.351 . S
C1491 C1485 1.428 . S
C1491 N1490 1.351 . S
C1491 C1492 1.434 . S
C1492 C1483 1.429 . S
C1492 N1489 1.350 . S
C1492 C1491 1.434 . S
C1493 C1494 1.369 . S
C1493 C1495 1.419 . S
C1493 H1497 0.930 . S
C1494 C1493 1.369 . S
C1494 C1503 1.429 . S
C1495 C1493 1.419 . S
C1495 C1496 1.363 . S
C1495 H1498 0.929 . S
C1496 C1495 1.363 . S
C1496 C1502 1.428 . S
H1497 C1493 0.930 . S
H1498 C1495 0.929 . S
S1499 N1500 1.613 . S
S1499 N1501 1.610 . S
N1500 S1499 1.613 . S
N1500 C1503 1.350 . S
N1501 S1499 1.610 . S
N1501 C1502 1.351 . S
C1502 C1496 1.428 . S
C1502 N1501 1.351 . S
C1502 C1503 1.434 . S
C1503 C1494 1.429 . S
C1503 N1500 1.350 . S
C1503 C1502 1.434 . S
C1504 C1505 1.369 . S
C1504 C1506 1.419 . S
C1504 H1508 0.930 . S
C1505 C1504 1.369 . S
C1505 C1514 1.429 . S
C1506 C1504 1.419 . S
C1506 C1507 1.363 . S
C1506 H1509 0.929 . S
C1507 C1506 1.363 . S
C1507 C1513 1.428 . S
H1508 C1504 0.930 . S
H1509 C1506 0.929 . S
S1510 N1511 1.613 . S
S1510 N1512 1.610 . S
N1511 S1510 1.613 . S
N1511 C1514 1.350 . S
N1512 S1510 1.610 . S
N1512 C1513 1.351 . S
C1513 C1507 1.428 . S
C1513 N1512 1.351 . S
C1513 C1514 1.434 . S
C1514 C1505 1.429 . S
C1514 N1511 1.350 . S
C1514 C1513 1.434 . S
C1515 C1516 1.369 . S
C1515 C1517 1.419 . S
C1515 H1519 0.930 . S
C1516 C1515 1.369 . S
C1516 C1525 1.429 . S
C1517 C1515 1.419 . S
C1517 C1518 1.363 . S
C1517 H1520 0.929 . S
C1518 C1517 1.363 . S
C1518 C1524 1.428 . S
H1519 C1515 0.930 . S
H1520 C1517 0.929 . S
S1521 N1522 1.613 . S
S1521 N1523 1.610 . S
N1522 S1521 1.613 . S
N1522 C1525 1.350 . S
N1523 S1521 1.610 . S
N1523 C1524 1.351 . S
C1524 C1518 1.428 . S
C1524 N1523 1.351 . S
C1524 C1525 1.434 . S
C1525 C1516 1.429 . S
C1525 N1522 1.350 . S
C1525 C1524 1.434 . S
C1526 C1527 1.369 . S
C1526 C1528 1.419 . S
C1526 H1530 0.930 . S
C1527 C1526 1.369 . S
C1527 C1536 1.429 . S
C1528 C1526 1.419 . S
C1528 C1529 1.363 . S
C1528 H1531 0.929 . S
C1529 C1528 1.363 . S
C1529 C1535 1.428 . S
H1530 C1526 0.930 . S
H1531 C1528 0.929 . S
S1532 N1533 1.613 . S
S1532 N1534 1.610 . S
N1533 S1532 1.613 . S
N1533 C1536 1.350 . S
N1534 S1532 1.610 . S
N1534 C1535 1.351 . S
C1535 C1529 1.428 . S
C1535 N1534 1.351 . S
C1535 C1536 1.434 . S
C1536 C1527 1.429 . S
C1536 N1533 1.350 . S
C1536 C1535 1.434 . S
C1537 C1538 1.369 . S
C1537 C1539 1.419 . S
C1537 H1541 0.930 . S
C1538 C1537 1.369 . S
C1538 C1547 1.429 . S
C1539 C1537 1.419 . S
C1539 C1540 1.363 . S
C1539 H1542 0.929 . S
C1540 C1539 1.363 . S
C1540 C1546 1.428 . S
H1541 C1537 0.930 . S
H1542 C1539 0.929 . S
S1543 N1544 1.613 . S
S1543 N1545 1.610 . S
N1544 S1543 1.613 . S
N1544 C1547 1.350 . S
N1545 S1543 1.610 . S
N1545 C1546 1.351 . S
C1546 C1540 1.428 . S
C1546 N1545 1.351 . S
C1546 C1547 1.434 . S
C1547 C1538 1.429 . S
C1547 N1544 1.350 . S
C1547 C1546 1.434 . S
C1548 C1549 1.369 . S
C1548 C1550 1.419 . S
C1548 H1552 0.930 . S
C1549 C1548 1.369 . S
C1549 C1558 1.429 . S
C1550 C1548 1.419 . S
C1550 C1551 1.363 . S
C1550 H1553 0.929 . S
C1551 C1550 1.363 . S
C1551 C1557 1.428 . S
H1552 C1548 0.930 . S
H1553 C1550 0.929 . S
S1554 N1555 1.613 . S
S1554 N1556 1.610 . S
N1555 S1554 1.613 . S
N1555 C1558 1.350 . S
N1556 S1554 1.610 . S
N1556 C1557 1.351 . S
C1557 C1551 1.428 . S
C1557 N1556 1.351 . S
C1557 C1558 1.434 . S
C1558 C1549 1.429 . S
C1558 N1555 1.350 . S
C1558 C1557 1.434 . S
C1559 C1560 1.369 . S
C1559 C1561 1.419 . S
C1559 H1563 0.930 . S
C1560 C1559 1.369 . S
C1560 C1569 1.429 . S
C1561 C1559 1.419 . S
C1561 C1562 1.363 . S
C1561 H1564 0.929 . S
C1562 C1561 1.363 . S
C1562 C1568 1.428 . S
H1563 C1559 0.930 . S
H1564 C1561 0.929 . S
S1565 N1566 1.613 . S
S1565 N1567 1.610 . S
N1566 S1565 1.613 . S
N1566 C1569 1.350 . S
N1567 S1565 1.610 . S
N1567 C1568 1.351 . S
C1568 C1562 1.428 . S
C1568 N1567 1.351 . S
C1568 C1569 1.434 . S
C1569 C1560 1.429 . S
C1569 N1566 1.350 . S
C1569 C1568 1.434 . S
C1570 C1571 1.369 . S
C1570 C1572 1.419 . S
C1570 H1574 0.930 . S
C1571 C1570 1.369 . S
C1571 C1580 1.429 . S
C1572 C1570 1.419 . S
C1572 C1573 1.363 . S
C1572 H1575 0.929 . S
C1573 C1572 1.363 . S
C1573 C1579 1.428 . S
H1574 C1570 0.930 . S
H1575 C1572 0.929 . S
S1576 N1577 1.613 . S
S1576 N1578 1.610 . S
N1577 S1576 1.613 . S
N1577 C1580 1.350 . S
N1578 S1576 1.610 . S
N1578 C1579 1.351 . S
C1579 C1573 1.428 . S
C1579 N1578 1.351 . S
C1579 C1580 1.434 . S
C1580 C1571 1.429 . S
C1580 N1577 1.350 . S
C1580 C1579 1.434 . S
C1581 C1582 1.369 . S
C1581 C1583 1.419 . S
C1581 H1585 0.930 . S
C1582 C1581 1.369 . S
C1582 C1591 1.429 . S
C1583 C1581 1.419 . S
C1583 C1584 1.363 . S
C1583 H1586 0.929 . S
C1584 C1583 1.363 . S
C1584 C1590 1.428 . S
H1585 C1581 0.930 . S
H1586 C1583 0.929 . S
S1587 N1588 1.613 . S
S1587 N1589 1.610 . S
N1588 S1587 1.613 . S
N1588 C1591 1.350 . S
N1589 S1587 1.610 . S
N1589 C1590 1.351 . S
C1590 C1584 1.428 . S
C1590 N1589 1.351 . S
C1590 C1591 1.434 . S
C1591 C1582 1.429 . S
C1591 N1588 1.350 . S
C1591 C1590 1.434 . S
C1592 C1593 1.369 . S
C1592 C1594 1.419 . S
C1592 H1596 0.930 . S
C1593 C1592 1.369 . S
C1593 C1602 1.429 . S
C1594 C1592 1.419 . S
C1594 C1595 1.363 . S
C1594 H1597 0.929 . S
C1595 C1594 1.363 . S
C1595 C1601 1.428 . S
H1596 C1592 0.930 . S
H1597 C1594 0.929 . S
S1598 N1599 1.613 . S
S1598 N1600 1.610 . S
N1599 S1598 1.613 . S
N1599 C1602 1.350 . S
N1600 S1598 1.610 . S
N1600 C1601 1.351 . S
C1601 C1595 1.428 . S
C1601 N1600 1.351 . S
C1601 C1602 1.434 . S
C1602 C1593 1.429 . S
C1602 N1599 1.350 . S
C1602 C1601 1.434 . S
C1603 C1604 1.369 . S
C1603 C1605 1.419 . S
C1603 H1607 0.930 . S
C1604 C1603 1.369 . S
C1604 C1613 1.429 . S
C1605 C1603 1.419 . S
C1605 C1606 1.363 . S
C1605 H1608 0.929 . S
C1606 C1605 1.363 . S
C1606 C1612 1.428 . S
H1607 C1603 0.930 . S
H1608 C1605 0.929 . S
S1609 N1610 1.613 . S
S1609 N1611 1.610 . S
N1610 S1609 1.613 . S
N1610 C1613 1.350 . S
N1611 S1609 1.610 . S
N1611 C1612 1.351 . S
C1612 C1606 1.428 . S
C1612 N1611 1.351 . S
C1612 C1613 1.434 . S
C1613 C1604 1.429 . S
C1613 N1610 1.350 . S
C1613 C1612 1.434 . S
C1614 C1615 1.369 . S
C1614 C1616 1.419 . S
C1614 H1618 0.930 . S
C1615 C1614 1.369 . S
C1615 C1624 1.429 . S
C1616 C1614 1.419 . S
C1616 C1617 1.363 . S
C1616 H1619 0.929 . S
C1617 C1616 1.363 . S
C1617 C1623 1.428 . S
H1618 C1614 0.930 . S
H1619 C1616 0.929 . S
S1620 N1621 1.613 . S
S1620 N1622 1.610 . S
N1621 S1620 1.613 . S
N1621 C1624 1.350 . S
N1622 S1620 1.610 . S
N1622 C1623 1.351 . S
C1623 C1617 1.428 . S
C1623 N1622 1.351 . S
C1623 C1624 1.434 . S
C1624 C1615 1.429 . S
C1624 N1621 1.350 . S
C1624 C1623 1.434 . S
C1625 C1626 1.369 . S
C1625 C1627 1.419 . S
C1625 H1629 0.930 . S
C1626 C1625 1.369 . S
C1626 C1635 1.429 . S
C1627 C1625 1.419 . S
C1627 C1628 1.363 . S
C1627 H1630 0.929 . S
C1628 C1627 1.363 . S
C1628 C1634 1.428 . S
H1629 C1625 0.930 . S
H1630 C1627 0.929 . S
S1631 N1632 1.613 . S
S1631 N1633 1.610 . S
N1632 S1631 1.613 . S
N1632 C1635 1.350 . S
N1633 S1631 1.610 . S
N1633 C1634 1.351 . S
C1634 C1628 1.428 . S
C1634 N1633 1.351 . S
C1634 C1635 1.434 . S
C1635 C1626 1.429 . S
C1635 N1632 1.350 . S
C1635 C1634 1.434 . S
C1636 C1637 1.369 . S
C1636 C1638 1.419 . S
C1636 H1640 0.930 . S
C1637 C1636 1.369 . S
C1637 C1646 1.429 . S
C1638 C1636 1.419 . S
C1638 C1639 1.363 . S
C1638 H1641 0.929 . S
C1639 C1638 1.363 . S
C1639 C1645 1.428 . S
H1640 C1636 0.930 . S
H1641 C1638 0.929 . S
S1642 N1643 1.613 . S
S1642 N1644 1.610 . S
N1643 S1642 1.613 . S
N1643 C1646 1.350 . S
N1644 S1642 1.610 . S
N1644 C1645 1.351 . S
C1645 C1639 1.428 . S
C1645 N1644 1.351 . S
C1645 C1646 1.434 . S
C1646 C1637 1.429 . S
C1646 N1643 1.350 . S
C1646 C1645 1.434 . S
C1647 C1648 1.369 . S
C1647 C1649 1.419 . S
C1647 H1651 0.930 . S
C1648 C1647 1.369 . S
C1648 C1657 1.429 . S
C1649 C1647 1.419 . S
C1649 C1650 1.363 . S
C1649 H1652 0.929 . S
C1650 C1649 1.363 . S
C1650 C1656 1.428 . S
H1651 C1647 0.930 . S
H1652 C1649 0.929 . S
S1653 N1654 1.613 . S
S1653 N1655 1.610 . S
N1654 S1653 1.613 . S
N1654 C1657 1.350 . S
N1655 S1653 1.610 . S
N1655 C1656 1.351 . S
C1656 C1650 1.428 . S
C1656 N1655 1.351 . S
C1656 C1657 1.434 . S
C1657 C1648 1.429 . S
C1657 N1654 1.350 . S
C1657 C1656 1.434 . S
C1658 C1659 1.369 . S
C1658 C1660 1.419 . S
C1658 H1662 0.930 . S
C1659 C1658 1.369 . S
C1659 C1668 1.429 . S
C1660 C1658 1.419 . S
C1660 C1661 1.363 . S
C1660 H1663 0.929 . S
C1661 C1660 1.363 . S
C1661 C1667 1.428 . S
H1662 C1658 0.930 . S
H1663 C1660 0.929 . S
S1664 N1665 1.613 . S
S1664 N1666 1.610 . S
N1665 S1664 1.613 . S
N1665 C1668 1.350 . S
N1666 S1664 1.610 . S
N1666 C1667 1.351 . S
C1667 C1661 1.428 . S
C1667 N1666 1.351 . S
C1667 C1668 1.434 . S
C1668 C1659 1.429 . S
C1668 N1665 1.350 . S
C1668 C1667 1.434 . S
C1669 C1670 1.369 . S
C1669 C1671 1.419 . S
C1669 H1673 0.930 . S
C1670 C1669 1.369 . S
C1670 C1679 1.429 . S
C1671 C1669 1.419 . S
C1671 C1672 1.363 . S
C1671 H1674 0.929 . S
C1672 C1671 1.363 . S
C1672 C1678 1.428 . S
H1673 C1669 0.930 . S
H1674 C1671 0.929 . S
S1675 N1676 1.613 . S
S1675 N1677 1.610 . S
N1676 S1675 1.613 . S
N1676 C1679 1.350 . S
N1677 S1675 1.610 . S
N1677 C1678 1.351 . S
C1678 C1672 1.428 . S
C1678 N1677 1.351 . S
C1678 C1679 1.434 . S
C1679 C1670 1.429 . S
C1679 N1676 1.350 . S
C1679 C1678 1.434 . S
C1680 C1681 1.369 . S
C1680 C1682 1.419 1_455 S
C1680 H1684 0.930 . S
C1681 C1680 1.369 . S
C1681 C1690 1.429 . S
C1682 C1680 1.419 1_655 S
C1682 C1683 1.363 . S
C1682 H1685 0.929 . S
C1683 C1682 1.363 . S
C1683 C1689 1.428 . S
H1684 C1680 0.930 . S
H1685 C1682 0.929 . S
S1686 N1687 1.613 1_655 S
S1686 N1688 1.610 . S
N1687 S1686 1.613 1_455 S
N1687 C1690 1.350 . S
N1688 S1686 1.610 . S
N1688 C1689 1.351 . S
C1689 C1683 1.428 . S
C1689 N1688 1.351 . S
C1689 C1690 1.434 1_655 S
C1690 C1681 1.429 . S
C1690 N1687 1.350 . S
C1690 C1689 1.434 1_455 S
C1691 C1692 1.369 . S
C1691 C1693 1.419 1_545 S
C1691 H1695 0.930 . S
C1692 C1691 1.369 . S
C1692 C1701 1.429 . S
C1693 C1691 1.419 1_565 S
C1693 C1694 1.363 . S
C1693 H1696 0.929 . S
C1694 C1693 1.363 . S
C1694 C1700 1.428 . S
H1695 C1691 0.930 . S
H1696 C1693 0.929 . S
S1697 N1698 1.613 . S
S1697 N1699 1.610 1_545 S
N1698 S1697 1.613 . S
N1698 C1701 1.350 . S
N1699 S1697 1.610 1_565 S
N1699 C1700 1.351 . S
C1700 C1694 1.428 . S
C1700 N1699 1.351 . S
C1700 C1701 1.434 1_565 S
C1701 C1692 1.429 . S
C1701 N1698 1.350 . S
C1701 C1700 1.434 1_545 S
C1702 C1703 1.369 . S
C1702 C1704 1.419 1_655 S
C1702 H1706 0.930 . S
C1703 C1702 1.369 . S
C1703 C1712 1.429 . S
C1704 C1702 1.419 1_455 S
C1704 C1705 1.363 . S
C1704 H1707 0.929 . S
C1705 C1704 1.363 . S
C1705 C1711 1.428 . S
H1706 C1702 0.930 . S
H1707 C1704 0.929 . S
S1708 N1709 1.613 . S
S1708 N1710 1.610 1_655 S
N1709 S1708 1.613 . S
N1709 C1712 1.350 . S
N1710 S1708 1.610 1_455 S
N1710 C1711 1.351 . S
C1711 C1705 1.428 . S
C1711 N1710 1.351 . S
C1711 C1712 1.434 1_455 S
C1712 C1703 1.429 . S
C1712 N1709 1.350 . S
C1712 C1711 1.434 1_655 S
C1713 C1714 1.369 . S
C1713 C1715 1.419 1_545 S
C1713 H1717 0.930 . S
C1714 C1713 1.369 . S
C1714 C1723 1.429 . S
C1715 C1713 1.419 1_565 S
C1715 C1716 1.363 . S
C1715 H1718 0.929 . S
C1716 C1715 1.363 . S
C1716 C1722 1.428 . S
H1717 C1713 0.930 . S
H1718 C1715 0.929 . S
S1719 N1720 1.613 1_565 S
S1719 N1721 1.610 . S
N1720 S1719 1.613 1_545 S
N1720 C1723 1.350 . S
N1721 S1719 1.610 . S
N1721 C1722 1.351 . S
C1722 C1716 1.428 . S
C1722 N1721 1.351 . S
C1722 C1723 1.434 1_565 S
C1723 C1714 1.429 . S
C1723 N1720 1.350 . S
C1723 C1722 1.434 1_545 S
C1724 C1725 1.369 . S
C1724 C1726 1.419 1_565 S
C1724 H1728 0.930 . S
C1725 C1724 1.369 . S
C1725 C1734 1.429 . S
C1726 C1724 1.419 1_545 S
C1726 C1727 1.363 . S
C1726 H1729 0.929 . S
C1727 C1726 1.363 . S
C1727 C1733 1.428 . S
H1728 C1724 0.930 . S
H1729 C1726 0.929 . S
S1730 N1731 1.613 1_545 S
S1730 N1732 1.610 . S
N1731 S1730 1.613 1_565 S
N1731 C1734 1.350 . S
N1732 S1730 1.610 . S
N1732 C1733 1.351 . S
C1733 C1727 1.428 . S
C1733 N1732 1.351 . S
C1733 C1734 1.434 1_545 S
C1734 C1725 1.429 . S
C1734 N1731 1.350 . S
C1734 C1733 1.434 1_565 S
C1735 C1736 1.369 . S
C1735 C1737 1.419 1_655 S
C1735 H1739 0.930 . S
C1736 C1735 1.369 . S
C1736 C1745 1.429 . S
C1737 C1735 1.419 1_455 S
C1737 C1738 1.363 . S
C1737 H1740 0.929 . S
C1738 C1737 1.363 . S
C1738 C1744 1.428 . S
H1739 C1735 0.930 . S
H1740 C1737 0.929 . S
S1741 N1742 1.592 1_455 S
S1741 N1743 1.632 . S
N1742 S1741 1.592 1_655 S
N1742 C1745 1.350 . S
N1743 S1741 1.632 . S
N1743 C1744 1.351 . S
C1744 C1738 1.428 . S
C1744 N1743 1.351 . S
C1744 C1745 1.434 1_455 S
C1745 C1736 1.429 . S
C1745 N1742 1.350 . S
C1745 C1744 1.434 1_655 S
C1746 C1747 1.369 . S
C1746 C1748 1.419 1_565 S
C1746 H1750 0.930 . S
C1747 C1746 1.369 . S
C1747 C1756 1.429 . S
C1748 C1746 1.419 1_545 S
C1748 C1749 1.363 . S
C1748 H1751 0.929 . S
C1749 C1748 1.363 . S
C1749 C1755 1.428 . S
H1750 C1746 0.930 . S
H1751 C1748 0.929 . S
S1752 N1753 1.613 . S
S1752 N1754 1.610 1_565 S
N1753 S1752 1.613 . S
N1753 C1756 1.350 . S
N1754 S1752 1.610 1_545 S
N1754 C1755 1.351 . S
C1755 C1749 1.428 . S
C1755 N1754 1.351 . S
C1755 C1756 1.434 1_545 S
C1756 C1747 1.429 . S
C1756 N1753 1.350 . S
C1756 C1755 1.434 1_565 S
C1757 C1758 1.369 . S
C1757 C1759 1.419 1_655 S
C1757 H1761 0.930 . S
C1758 C1757 1.369 . S
C1758 C1767 1.429 . S
C1759 C1757 1.419 1_455 S
C1759 C1760 1.363 . S
C1759 H1762 0.929 . S
C1760 C1759 1.363 . S
C1760 C1766 1.428 . S
H1761 C1757 0.930 . S
H1762 C1759 0.929 . S
S1763 N1764 1.613 . S
S1763 N1765 1.610 1_655 S
N1764 S1763 1.613 . S
N1764 C1767 1.350 . S
N1765 S1763 1.610 1_455 S
N1765 C1766 1.351 . S
C1766 C1760 1.428 . S
C1766 N1765 1.351 . S
C1766 C1767 1.434 1_455 S
C1767 C1758 1.429 . S
C1767 N1764 1.350 . S
C1767 C1766 1.434 1_655 S
C1768 C1769 1.369 . S
C1768 C1770 1.419 1_556 S
C1768 H1772 0.930 . S
C1769 C1768 1.369 . S
C1769 C1778 1.429 . S
C1770 C1768 1.419 1_554 S
C1770 C1771 1.363 . S
C1770 H1773 0.929 . S
C1771 C1770 1.363 . S
C1771 C1777 1.428 . S
H1772 C1768 0.930 . S
H1773 C1770 0.929 . S
S1774 N1775 1.613 . S
S1774 N1776 1.610 1_556 S
N1775 S1774 1.613 . S
N1775 C1778 1.350 . S
N1776 S1774 1.610 1_554 S
N1776 C1777 1.351 . S
C1777 C1771 1.428 . S
C1777 N1776 1.351 . S
C1777 C1778 1.434 1_554 S
C1778 C1769 1.429 . S
C1778 N1775 1.350 . S
C1778 C1777 1.434 1_556 S
C1779 C1780 1.369 . S
C1779 C1781 1.419 1_556 S
C1779 H1783 0.930 . S
C1780 C1779 1.369 . S
C1780 C1789 1.429 . S
C1781 C1779 1.419 1_554 S
C1781 C1782 1.363 . S
C1781 H1784 0.929 . S
C1782 C1781 1.363 . S
C1782 C1788 1.428 . S
H1783 C1779 0.930 . S
H1784 C1781 0.929 . S
S1785 N1786 1.613 . S
S1785 N1787 1.610 1_556 S
N1786 S1785 1.613 . S
N1786 C1789 1.350 . S
N1787 S1785 1.610 1_554 S
N1787 C1788 1.351 . S
C1788 C1782 1.428 . S
C1788 N1787 1.351 . S
C1788 C1789 1.434 1_554 S
C1789 C1780 1.429 . S
C1789 N1786 1.350 . S
C1789 C1788 1.434 1_556 S
C1790 C1791 1.369 . S
C1790 C1792 1.419 1_556 S
C1790 H1794 0.930 . S
C1791 C1790 1.369 . S
C1791 C1800 1.429 . S
C1792 C1790 1.419 1_554 S
C1792 C1793 1.363 . S
C1792 H1795 0.929 . S
C1793 C1792 1.363 . S
C1793 C1799 1.428 . S
H1794 C1790 0.930 . S
H1795 C1792 0.929 . S
S1796 N1797 1.613 1_554 S
S1796 N1798 1.610 . S
N1797 S1796 1.613 1_556 S
N1797 C1800 1.350 . S
N1798 S1796 1.610 . S
N1798 C1799 1.351 . S
C1799 C1793 1.428 . S
C1799 N1798 1.351 . S
C1799 C1800 1.434 1_554 S
C1800 C1791 1.429 . S
C1800 N1797 1.350 . S
C1800 C1799 1.434 1_556 S
C1801 C1802 1.369 . S
C1801 C1803 1.419 1_556 S
C1801 H1805 0.930 . S
C1802 C1801 1.369 . S
C1802 C1811 1.429 . S
C1803 C1801 1.419 1_554 S
C1803 C1804 1.363 . S
C1803 H1806 0.929 . S
C1804 C1803 1.363 . S
C1804 C1810 1.428 . S
H1805 C1801 0.930 . S
H1806 C1803 0.929 . S
S1807 N1808 1.613 1_554 S
S1807 N1809 1.610 . S
N1808 S1807 1.613 1_556 S
N1808 C1811 1.350 . S
N1809 S1807 1.610 . S
N1809 C1810 1.351 . S
C1810 C1804 1.428 . S
C1810 N1809 1.351 . S
C1810 C1811 1.434 1_554 S
C1811 C1802 1.429 . S
C1811 N1808 1.350 . S
C1811 C1810 1.434 1_556 S
C1812 C1813 1.369 . S
C1812 C1814 1.419 . S
C1812 H1816 0.930 . S
C1813 C1812 1.369 . S
C1813 C1822 1.429 . S
C1814 C1812 1.419 . S
C1814 C1815 1.363 . S
C1814 H1817 0.929 . S
C1815 C1814 1.363 . S
C1815 C1821 1.428 . S
H1816 C1812 0.930 . S
H1817 C1814 0.929 . S
S1818 N1819 1.613 . S
S1818 N1820 1.610 . S
N1819 S1818 1.613 . S
N1819 C1822 1.350 . S
N1820 S1818 1.610 . S
N1820 C1821 1.351 . S
C1821 C1815 1.428 . S
C1821 N1820 1.351 . S
C1821 C1822 1.434 . S
C1822 C1813 1.429 . S
C1822 N1819 1.350 . S
C1822 C1821 1.434 . S
C1823 C1824 1.369 . S
C1823 C1825 1.419 . S
C1823 H1827 0.930 . S
C1824 C1823 1.369 . S
C1824 C1833 1.429 . S
C1825 C1823 1.419 . S
C1825 C1826 1.363 . S
C1825 H1828 0.929 . S
C1826 C1825 1.363 . S
C1826 C1832 1.428 . S
H1827 C1823 0.930 . S
H1828 C1825 0.929 . S
S1829 N1830 1.613 . S
S1829 N1831 1.610 . S
N1830 S1829 1.613 . S
N1830 C1833 1.350 . S
N1831 S1829 1.610 . S
N1831 C1832 1.351 . S
C1832 C1826 1.428 . S
C1832 N1831 1.351 . S
C1832 C1833 1.434 . S
C1833 C1824 1.429 . S
C1833 N1830 1.350 . S
C1833 C1832 1.434 . S
C1834 C1835 1.369 . S
C1834 C1836 1.419 . S
C1834 H1838 0.930 . S
C1835 C1834 1.369 . S
C1835 C1844 1.429 . S
C1836 C1834 1.419 . S
C1836 C1837 1.363 . S
C1836 H1839 0.929 . S
C1837 C1836 1.363 . S
C1837 C1843 1.428 . S
H1838 C1834 0.930 . S
H1839 C1836 0.929 . S
S1840 N1841 1.613 . S
S1840 N1842 1.610 . S
N1841 S1840 1.613 . S
N1841 C1844 1.350 . S
N1842 S1840 1.610 . S
N1842 C1843 1.351 . S
C1843 C1837 1.428 . S
C1843 N1842 1.351 . S
C1843 C1844 1.434 . S
C1844 C1835 1.429 . S
C1844 N1841 1.350 . S
C1844 C1843 1.434 . S
C1845 C1846 1.369 . S
C1845 C1847 1.419 . S
C1845 H1849 0.930 . S
C1846 C1845 1.369 . S
C1846 C1855 1.429 . S
C1847 C1845 1.419 . S
C1847 C1848 1.363 . S
C1847 H1850 0.929 . S
C1848 C1847 1.363 . S
C1848 C1854 1.428 . S
H1849 C1845 0.930 . S
H1850 C1847 0.929 . S
S1851 N1852 1.613 . S
S1851 N1853 1.610 . S
N1852 S1851 1.613 . S
N1852 C1855 1.350 . S
N1853 S1851 1.610 . S
N1853 C1854 1.351 . S
C1854 C1848 1.428 . S
C1854 N1853 1.351 . S
C1854 C1855 1.434 . S
C1855 C1846 1.429 . S
C1855 N1852 1.350 . S
C1855 C1854 1.434 . S
C1856 C1857 1.369 . S
C1856 C1858 1.419 . S
C1856 H1860 0.930 . S
C1857 C1856 1.369 . S
C1857 C1866 1.429 . S
C1858 C1856 1.419 . S
C1858 C1859 1.363 . S
C1858 H1861 0.929 . S
C1859 C1858 1.363 . S
C1859 C1865 1.428 . S
H1860 C1856 0.930 . S
H1861 C1858 0.929 . S
S1862 N1863 1.613 . S
S1862 N1864 1.610 . S
N1863 S1862 1.613 . S
N1863 C1866 1.350 . S
N1864 S1862 1.610 . S
N1864 C1865 1.351 . S
C1865 C1859 1.428 . S
C1865 N1864 1.351 . S
C1865 C1866 1.434 . S
C1866 C1857 1.429 . S
C1866 N1863 1.350 . S
C1866 C1865 1.434 . S
C1867 C1868 1.369 . S
C1867 C1869 1.419 . S
C1867 H1871 0.930 . S
C1868 C1867 1.369 . S
C1868 C1877 1.429 . S
C1869 C1867 1.419 . S
C1869 C1870 1.363 . S
C1869 H1872 0.929 . S
C1870 C1869 1.363 . S
C1870 C1876 1.428 . S
H1871 C1867 0.930 . S
H1872 C1869 0.929 . S
S1873 N1874 1.613 . S
S1873 N1875 1.610 . S
N1874 S1873 1.613 . S
N1874 C1877 1.350 . S
N1875 S1873 1.610 . S
N1875 C1876 1.351 . S
C1876 C1870 1.428 . S
C1876 N1875 1.351 . S
C1876 C1877 1.434 . S
C1877 C1868 1.429 . S
C1877 N1874 1.350 . S
C1877 C1876 1.434 . S
C1878 C1879 1.369 . S
C1878 C1880 1.419 . S
C1878 H1882 0.930 . S
C1879 C1878 1.369 . S
C1879 C1888 1.429 . S
C1880 C1878 1.419 . S
C1880 C1881 1.363 . S
C1880 H1883 0.929 . S
C1881 C1880 1.363 . S
C1881 C1887 1.428 . S
H1882 C1878 0.930 . S
H1883 C1880 0.929 . S
S1884 N1885 1.613 . S
S1884 N1886 1.610 . S
N1885 S1884 1.613 . S
N1885 C1888 1.350 . S
N1886 S1884 1.610 . S
N1886 C1887 1.351 . S
C1887 C1881 1.428 . S
C1887 N1886 1.351 . S
C1887 C1888 1.434 . S
C1888 C1879 1.429 . S
C1888 N1885 1.350 . S
C1888 C1887 1.434 . S
C1889 C1890 1.369 . S
C1889 C1891 1.419 . S
C1889 H1893 0.930 . S
C1890 C1889 1.369 . S
C1890 C1899 1.429 . S
C1891 C1889 1.419 . S
C1891 C1892 1.363 . S
C1891 H1894 0.929 . S
C1892 C1891 1.363 . S
C1892 C1898 1.428 . S
H1893 C1889 0.930 . S
H1894 C1891 0.929 . S
S1895 N1896 1.613 . S
S1895 N1897 1.610 . S
N1896 S1895 1.613 . S
N1896 C1899 1.350 . S
N1897 S1895 1.610 . S
N1897 C1898 1.351 . S
C1898 C1892 1.428 . S
C1898 N1897 1.351 . S
C1898 C1899 1.434 . S
C1899 C1890 1.429 . S
C1899 N1896 1.350 . S
C1899 C1898 1.434 . S
C1900 C1901 1.369 . S
C1900 C1902 1.419 . S
C1900 H1904 0.930 . S
C1901 C1900 1.369 . S
C1901 C1910 1.429 . S
C1902 C1900 1.419 . S
C1902 C1903 1.363 . S
C1902 H1905 0.929 . S
C1903 C1902 1.363 . S
C1903 C1909 1.428 . S
H1904 C1900 0.930 . S
H1905 C1902 0.929 . S
S1906 N1907 1.613 . S
S1906 N1908 1.610 . S
N1907 S1906 1.613 . S
N1907 C1910 1.350 . S
N1908 S1906 1.610 . S
N1908 C1909 1.351 . S
C1909 C1903 1.428 . S
C1909 N1908 1.351 . S
C1909 C1910 1.434 . S
C1910 C1901 1.429 . S
C1910 N1907 1.350 . S
C1910 C1909 1.434 . S
C1911 C1912 1.369 . S
C1911 C1913 1.419 . S
C1911 H1915 0.930 . S
C1912 C1911 1.369 . S
C1912 C1921 1.429 . S
C1913 C1911 1.419 . S
C1913 C1914 1.363 . S
C1913 H1916 0.929 . S
C1914 C1913 1.363 . S
C1914 C1920 1.428 . S
H1915 C1911 0.930 . S
H1916 C1913 0.929 . S
S1917 N1918 1.613 . S
S1917 N1919 1.610 . S
N1918 S1917 1.613 . S
N1918 C1921 1.350 . S
N1919 S1917 1.610 . S
N1919 C1920 1.351 . S
C1920 C1914 1.428 . S
C1920 N1919 1.351 . S
C1920 C1921 1.434 . S
C1921 C1912 1.429 . S
C1921 N1918 1.350 . S
C1921 C1920 1.434 . S
C1922 C1923 1.369 . S
C1922 C1924 1.419 . S
C1922 H1926 0.930 . S
C1923 C1922 1.369 . S
C1923 C1932 1.429 . S
C1924 C1922 1.419 . S
C1924 C1925 1.363 . S
C1924 H1927 0.929 . S
C1925 C1924 1.363 . S
C1925 C1931 1.428 . S
H1926 C1922 0.930 . S
H1927 C1924 0.929 . S
S1928 N1929 1.613 . S
S1928 N1930 1.610 . S
N1929 S1928 1.613 . S
N1929 C1932 1.350 . S
N1930 S1928 1.610 . S
N1930 C1931 1.351 . S
C1931 C1925 1.428 . S
C1931 N1930 1.351 . S
C1931 C1932 1.434 . S
C1932 C1923 1.429 . S
C1932 N1929 1.350 . S
C1932 C1931 1.434 . S
C1933 C1934 1.369 . S
C1933 C1935 1.419 . S
C1933 H1937 0.930 . S
C1934 C1933 1.369 . S
C1934 C1943 1.429 . S
C1935 C1933 1.419 . S
C1935 C1936 1.363 . S
C1935 H1938 0.929 . S
C1936 C1935 1.363 . S
C1936 C1942 1.428 . S
H1937 C1933 0.930 . S
H1938 C1935 0.929 . S
S1939 N1940 1.613 . S
S1939 N1941 1.610 . S
N1940 S1939 1.613 . S
N1940 C1943 1.350 . S
N1941 S1939 1.610 . S
N1941 C1942 1.351 . S
C1942 C1936 1.428 . S
C1942 N1941 1.351 . S
C1942 C1943 1.434 . S
C1943 C1934 1.429 . S
C1943 N1940 1.350 . S
C1943 C1942 1.434 . S
C1417 C682 1.646 . S
C1419 C3 1.563 . S
C1428 C62 1.562 . S
C1430 C505 1.647 . S
C1439 C121 1.566 . S
C1441 C564 1.648 . S
C1450 C180 1.567 . S
C1452 C623 1.648 . S
C1461 C800 1.645 . S
C1463 C239 1.560 . S
C1472 C298 1.564 . S
C1474 C859 1.646 . S
C1483 C918 1.647 . S
C1485 C357 1.563 . S
C1494 C741 1.645 . S
C1496 C416 1.559 . S
C1505 C328 1.645 . S
C1507 C475 1.562 . S
C1516 C387 1.648 . S
C1518 C534 1.567 . S
C1527 C593 1.566 . S
C1529 C446 1.647 . S
C1538 C269 1.644 . S
C1540 C652 1.559 . S
C1549 C210 1.645 . S
C1551 C711 1.560 . S
C1560 C770 1.569 . S
C1562 C33 1.648 . S
C1571 C829 1.561 . S
C1573 C92 1.646 . S
C1582 C888 1.569 . S
C1584 C151 1.648 . S
C1593 C947 1.568 . S
C1595 C1390 1.648 . S
C1604 C1213 1.644 . S
C1606 C1006 1.560 . S
C1615 C1065 1.563 . S
C1617 C1036 1.646 . S
C1626 C1124 1.568 . S
C1628 C1095 1.648 . S
C1637 C1154 1.646 . S
C1639 C1183 1.561 . S
C1648 C1242 1.569 . S
C1650 C1331 1.648 . S
C1659 C977 1.644 . S
C1661 C1301 1.560 . S
C1670 C1272 1.648 . S
C1672 C1360 1.567 . S
C1681 C52 1.615 . S
C1683 C406 1.615 . S
C1692 C111 1.615 . S
C1694 C465 1.615 . S
C1703 C170 1.615 . S
C1705 C288 1.615 . S
C1714 C347 1.615 . S
C1716 C229 1.615 . S
C1725 C642 1.615 . S
C1727 C524 1.615 . S
C1736 C583 1.615 . S
C1738 C701 1.615 . S
C1747 C760 1.615 . S
C1749 C878 1.615 . S
C1758 C937 1.615 . S
C1760 C819 1.615 . S
C1769 C1055 1.615 . S
C1771 C996 1.615 . S
C1780 C1114 1.615 . S
C1782 C1409 1.615 . S
C1791 C1173 1.615 . S
C1793 C1291 1.615 . S
C1802 C1232 1.615 . S
C1804 C1350 1.615 . S
C1813 C5 1.235 . S
C1815 C300 1.239 . S
C1824 C64 1.241 . S
C1826 C359 1.237 . S
C1835 C123 1.236 . S
C1837 C418 1.239 . S
C1846 C241 1.241 . S
C1848 C182 1.237 . S
C1857 C477 1.240 . S
C1859 C1362 1.238 . S
C1868 C536 1.239 . S
C1870 C1244 1.239 . S
C1879 C1303 1.235 . S
C1881 C595 1.240 . S
C1890 C654 1.240 . S
C1892 C949 1.237 . S
C1901 C1185 1.238 . S
C1903 C713 1.237 . S
C1912 C1008 1.241 . S
C1914 C772 1.237 . S
C1923 C831 1.236 . S
C1925 C1067 1.239 . S
C1934 C1126 1.240 . S
C1936 C890 1.237 . S
