# Generated by pormake.
# Topology wmp, (6)-cn, num edge types: 1
# Building blocks:
#     Node 0, Type 0, BuildingBlock: IZENUY_clean_sbu_0, # of connection points: 6
#     Node 1, Type 0, BuildingBlock: IZENUY_clean_sbu_0, # of connection points: 6
#     Node 2, Type 0, BuildingBlock: IZENUY_clean_sbu_0, # of connection points: 6
#     Node 3, Type 0, BuildingBlock: IZENUY_clean_sbu_0, # of connection points: 6
#     Node 4, Type 0, BuildingBlock: IZENUY_clean_sbu_0, # of connection points: 6
#     Node 5, Type 0, BuildingBlock: IZENUY_clean_sbu_0, # of connection points: 6
#     Node 6, Type 0, BuildingBlock: IZENUY_clean_sbu_0, # of connection points: 6
#     Node 7, Type 0, BuildingBlock: IZENUY_clean_sbu_0, # of connection points: 6
#     Node 8, Type 0, BuildingBlock: IZENUY_clean_sbu_0, # of connection points: 6
#     Node 9, Type 0, BuildingBlock: IZENUY_clean_sbu_0, # of connection points: 6
#     Node 10, Type 0, BuildingBlock: IZENUY_clean_sbu_0, # of connection points: 6
#     Node 11, Type 0, BuildingBlock: IZENUY_clean_sbu_0, # of connection points: 6
#     Node 12, Type 0, BuildingBlock: IZENUY_clean_sbu_0, # of connection points: 6
#     Node 13, Type 0, BuildingBlock: IZENUY_clean_sbu_0, # of connection points: 6
#     Node 14, Type 0, BuildingBlock: IZENUY_clean_sbu_0, # of connection points: 6
#     Node 15, Type 0, BuildingBlock: IZENUY_clean_sbu_0, # of connection points: 6
#     Node 16, Type 0, BuildingBlock: IZENUY_clean_sbu_0, # of connection points: 6
#     Node 17, Type 0, BuildingBlock: IZENUY_clean_sbu_0, # of connection points: 6
#     Node 18, Type 0, BuildingBlock: IZENUY_clean_sbu_0, # of connection points: 6
#     Node 19, Type 0, BuildingBlock: IZENUY_clean_sbu_0, # of connection points: 6
#     Node 20, Type 0, BuildingBlock: IZENUY_clean_sbu_0, # of connection points: 6
#     Node 21, Type 0, BuildingBlock: IZENUY_clean_sbu_0, # of connection points: 6
#     Node 22, Type 0, BuildingBlock: IZENUY_clean_sbu_0, # of connection points: 6
#     Node 23, Type 0, BuildingBlock: IZENUY_clean_sbu_0, # of connection points: 6
#     Node 24, Type 0, BuildingBlock: IZENUY_clean_sbu_0, # of connection points: 6
#     Node 25, Type 0, BuildingBlock: IZENUY_clean_sbu_0, # of connection points: 6
#     Node 26, Type 0, BuildingBlock: IZENUY_clean_sbu_0, # of connection points: 6
#     Node 27, Type 0, BuildingBlock: IZENUY_clean_sbu_0, # of connection points: 6
#     Node 28, Type 0, BuildingBlock: IZENUY_clean_sbu_0, # of connection points: 6
#     Node 29, Type 0, BuildingBlock: IZENUY_clean_sbu_0, # of connection points: 6
#     Node 30, Type 0, BuildingBlock: IZENUY_clean_sbu_0, # of connection points: 6
#     Node 31, Type 0, BuildingBlock: IZENUY_clean_sbu_0, # of connection points: 6
#     Node 32, Type 0, BuildingBlock: IZENUY_clean_sbu_0, # of connection points: 6
#     Node 33, Type 0, BuildingBlock: IZENUY_clean_sbu_0, # of connection points: 6
#     Node 34, Type 0, BuildingBlock: IZENUY_clean_sbu_0, # of connection points: 6
#     Node 35, Type 0, BuildingBlock: IZENUY_clean_sbu_0, # of connection points: 6
#     Edge 36, Type (0, 0), BuildingBlock: XIVTED_clean_linker_0, # of connection points: 2
#     Edge 37, Type (0, 0), BuildingBlock: XIVTED_clean_linker_0, # of connection points: 2
#     Edge 38, Type (0, 0), BuildingBlock: XIVTED_clean_linker_0, # of connection points: 2
#     Edge 39, Type (0, 0), BuildingBlock: XIVTED_clean_linker_0, # of connection points: 2
#     Edge 40, Type (0, 0), BuildingBlock: XIVTED_clean_linker_0, # of connection points: 2
#     Edge 41, Type (0, 0), BuildingBlock: XIVTED_clean_linker_0, # of connection points: 2
#     Edge 42, Type (0, 0), BuildingBlock: XIVTED_clean_linker_0, # of connection points: 2
#     Edge 43, Type (0, 0), BuildingBlock: XIVTED_clean_linker_0, # of connection points: 2
#     Edge 44, Type (0, 0), BuildingBlock: XIVTED_clean_linker_0, # of connection points: 2
#     Edge 45, Type (0, 0), BuildingBlock: XIVTED_clean_linker_0, # of connection points: 2
#     Edge 46, Type (0, 0), BuildingBlock: XIVTED_clean_linker_0, # of connection points: 2
#     Edge 47, Type (0, 0), BuildingBlock: XIVTED_clean_linker_0, # of connection points: 2
#     Edge 48, Type (0, 0), BuildingBlock: XIVTED_clean_linker_0, # of connection points: 2
#     Edge 49, Type (0, 0), BuildingBlock: XIVTED_clean_linker_0, # of connection points: 2
#     Edge 50, Type (0, 0), BuildingBlock: XIVTED_clean_linker_0, # of connection points: 2
#     Edge 51, Type (0, 0), BuildingBlock: XIVTED_clean_linker_0, # of connection points: 2
#     Edge 52, Type (0, 0), BuildingBlock: XIVTED_clean_linker_0, # of connection points: 2
#     Edge 53, Type (0, 0), BuildingBlock: XIVTED_clean_linker_0, # of connection points: 2
#     Edge 54, Type (0, 0), BuildingBlock: XIVTED_clean_linker_0, # of connection points: 2
#     Edge 55, Type (0, 0), BuildingBlock: XIVTED_clean_linker_0, # of connection points: 2
#     Edge 56, Type (0, 0), BuildingBlock: XIVTED_clean_linker_0, # of connection points: 2
#     Edge 57, Type (0, 0), BuildingBlock: XIVTED_clean_linker_0, # of connection points: 2
#     Edge 58, Type (0, 0), BuildingBlock: XIVTED_clean_linker_0, # of connection points: 2
#     Edge 59, Type (0, 0), BuildingBlock: XIVTED_clean_linker_0, # of connection points: 2
#     Edge 60, Type (0, 0), BuildingBlock: XIVTED_clean_linker_0, # of connection points: 2
#     Edge 61, Type (0, 0), BuildingBlock: XIVTED_clean_linker_0, # of connection points: 2
#     Edge 62, Type (0, 0), BuildingBlock: XIVTED_clean_linker_0, # of connection points: 2
#     Edge 63, Type (0, 0), BuildingBlock: XIVTED_clean_linker_0, # of connection points: 2
#     Edge 64, Type (0, 0), BuildingBlock: XIVTED_clean_linker_0, # of connection points: 2
#     Edge 65, Type (0, 0), BuildingBlock: XIVTED_clean_linker_0, # of connection points: 2
#     Edge 66, Type (0, 0), BuildingBlock: XIVTED_clean_linker_0, # of connection points: 2
#     Edge 67, Type (0, 0), BuildingBlock: XIVTED_clean_linker_0, # of connection points: 2
#     Edge 68, Type (0, 0), BuildingBlock: XIVTED_clean_linker_0, # of connection points: 2
#     Edge 69, Type (0, 0), BuildingBlock: XIVTED_clean_linker_0, # of connection points: 2
#     Edge 70, Type (0, 0), BuildingBlock: XIVTED_clean_linker_0, # of connection points: 2
#     Edge 71, Type (0, 0), BuildingBlock: XIVTED_clean_linker_0, # of connection points: 2
#     Edge 72, Type (0, 0), BuildingBlock: XIVTED_clean_linker_0, # of connection points: 2
#     Edge 73, Type (0, 0), BuildingBlock: XIVTED_clean_linker_0, # of connection points: 2
#     Edge 74, Type (0, 0), BuildingBlock: XIVTED_clean_linker_0, # of connection points: 2
#     Edge 75, Type (0, 0), BuildingBlock: XIVTED_clean_linker_0, # of connection points: 2
#     Edge 76, Type (0, 0), BuildingBlock: XIVTED_clean_linker_0, # of connection points: 2
#     Edge 77, Type (0, 0), BuildingBlock: XIVTED_clean_linker_0, # of connection points: 2
#     Edge 78, Type (0, 0), BuildingBlock: XIVTED_clean_linker_0, # of connection points: 2
#     Edge 79, Type (0, 0), BuildingBlock: XIVTED_clean_linker_0, # of connection points: 2
#     Edge 80, Type (0, 0), BuildingBlock: XIVTED_clean_linker_0, # of connection points: 2
#     Edge 81, Type (0, 0), BuildingBlock: XIVTED_clean_linker_0, # of connection points: 2
#     Edge 82, Type (0, 0), BuildingBlock: XIVTED_clean_linker_0, # of connection points: 2
#     Edge 83, Type (0, 0), BuildingBlock: XIVTED_clean_linker_0, # of connection points: 2
#     Edge 84, Type (0, 0), BuildingBlock: XIVTED_clean_linker_0, # of connection points: 2
#     Edge 85, Type (0, 0), BuildingBlock: XIVTED_clean_linker_0, # of connection points: 2
#     Edge 86, Type (0, 0), BuildingBlock: XIVTED_clean_linker_0, # of connection points: 2
#     Edge 87, Type (0, 0), BuildingBlock: XIVTED_clean_linker_0, # of connection points: 2
#     Edge 88, Type (0, 0), BuildingBlock: XIVTED_clean_linker_0, # of connection points: 2
#     Edge 89, Type (0, 0), BuildingBlock: XIVTED_clean_linker_0, # of connection points: 2
#     Edge 90, Type (0, 0), BuildingBlock: XIVTED_clean_linker_0, # of connection points: 2
#     Edge 91, Type (0, 0), BuildingBlock: XIVTED_clean_linker_0, # of connection points: 2
#     Edge 92, Type (0, 0), BuildingBlock: XIVTED_clean_linker_0, # of connection points: 2
#     Edge 93, Type (0, 0), BuildingBlock: XIVTED_clean_linker_0, # of connection points: 2
#     Edge 94, Type (0, 0), BuildingBlock: XIVTED_clean_linker_0, # of connection points: 2
#     Edge 95, Type (0, 0), BuildingBlock: XIVTED_clean_linker_0, # of connection points: 2
#     Edge 96, Type (0, 0), BuildingBlock: XIVTED_clean_linker_0, # of connection points: 2
#     Edge 97, Type (0, 0), BuildingBlock: XIVTED_clean_linker_0, # of connection points: 2
#     Edge 98, Type (0, 0), BuildingBlock: XIVTED_clean_linker_0, # of connection points: 2
#     Edge 99, Type (0, 0), BuildingBlock: XIVTED_clean_linker_0, # of connection points: 2
#     Edge 100, Type (0, 0), BuildingBlock: XIVTED_clean_linker_0, # of connection points: 2
#     Edge 101, Type (0, 0), BuildingBlock: XIVTED_clean_linker_0, # of connection points: 2
#     Edge 102, Type (0, 0), BuildingBlock: XIVTED_clean_linker_0, # of connection points: 2
#     Edge 103, Type (0, 0), BuildingBlock: XIVTED_clean_linker_0, # of connection points: 2
#     Edge 104, Type (0, 0), BuildingBlock: XIVTED_clean_linker_0, # of connection points: 2
#     Edge 105, Type (0, 0), BuildingBlock: XIVTED_clean_linker_0, # of connection points: 2
#     Edge 106, Type (0, 0), BuildingBlock: XIVTED_clean_linker_0, # of connection points: 2
#     Edge 107, Type (0, 0), BuildingBlock: XIVTED_clean_linker_0, # of connection points: 2
#     Edge 108, Type (0, 0), BuildingBlock: XIVTED_clean_linker_0, # of connection points: 2
#     Edge 109, Type (0, 0), BuildingBlock: XIVTED_clean_linker_0, # of connection points: 2
#     Edge 110, Type (0, 0), BuildingBlock: XIVTED_clean_linker_0, # of connection points: 2
#     Edge 111, Type (0, 0), BuildingBlock: XIVTED_clean_linker_0, # of connection points: 2
#     Edge 112, Type (0, 0), BuildingBlock: XIVTED_clean_linker_0, # of connection points: 2
#     Edge 113, Type (0, 0), BuildingBlock: XIVTED_clean_linker_0, # of connection points: 2
#     Edge 114, Type (0, 0), BuildingBlock: XIVTED_clean_linker_0, # of connection points: 2
#     Edge 115, Type (0, 0), BuildingBlock: XIVTED_clean_linker_0, # of connection points: 2
#     Edge 116, Type (0, 0), BuildingBlock: XIVTED_clean_linker_0, # of connection points: 2
#     Edge 117, Type (0, 0), BuildingBlock: XIVTED_clean_linker_0, # of connection points: 2
#     Edge 118, Type (0, 0), BuildingBlock: XIVTED_clean_linker_0, # of connection points: 2
#     Edge 119, Type (0, 0), BuildingBlock: XIVTED_clean_linker_0, # of connection points: 2
#     Edge 120, Type (0, 0), BuildingBlock: XIVTED_clean_linker_0, # of connection points: 2
#     Edge 121, Type (0, 0), BuildingBlock: XIVTED_clean_linker_0, # of connection points: 2
#     Edge 122, Type (0, 0), BuildingBlock: XIVTED_clean_linker_0, # of connection points: 2
#     Edge 123, Type (0, 0), BuildingBlock: XIVTED_clean_linker_0, # of connection points: 2
#     Edge 124, Type (0, 0), BuildingBlock: XIVTED_clean_linker_0, # of connection points: 2
#     Edge 125, Type (0, 0), BuildingBlock: XIVTED_clean_linker_0, # of connection points: 2
#     Edge 126, Type (0, 0), BuildingBlock: XIVTED_clean_linker_0, # of connection points: 2
#     Edge 127, Type (0, 0), BuildingBlock: XIVTED_clean_linker_0, # of connection points: 2
#     Edge 128, Type (0, 0), BuildingBlock: XIVTED_clean_linker_0, # of connection points: 2
#     Edge 129, Type (0, 0), BuildingBlock: XIVTED_clean_linker_0, # of connection points: 2
#     Edge 130, Type (0, 0), BuildingBlock: XIVTED_clean_linker_0, # of connection points: 2
#     Edge 131, Type (0, 0), BuildingBlock: XIVTED_clean_linker_0, # of connection points: 2
#     Edge 132, Type (0, 0), BuildingBlock: XIVTED_clean_linker_0, # of connection points: 2
#     Edge 133, Type (0, 0), BuildingBlock: XIVTED_clean_linker_0, # of connection points: 2
#     Edge 134, Type (0, 0), BuildingBlock: XIVTED_clean_linker_0, # of connection points: 2
#     Edge 135, Type (0, 0), BuildingBlock: XIVTED_clean_linker_0, # of connection points: 2
#     Edge 136, Type (0, 0), BuildingBlock: XIVTED_clean_linker_0, # of connection points: 2
#     Edge 137, Type (0, 0), BuildingBlock: XIVTED_clean_linker_0, # of connection points: 2
#     Edge 138, Type (0, 0), BuildingBlock: XIVTED_clean_linker_0, # of connection points: 2
#     Edge 139, Type (0, 0), BuildingBlock: XIVTED_clean_linker_0, # of connection points: 2
#     Edge 140, Type (0, 0), BuildingBlock: XIVTED_clean_linker_0, # of connection points: 2
#     Edge 141, Type (0, 0), BuildingBlock: XIVTED_clean_linker_0, # of connection points: 2
#     Edge 142, Type (0, 0), BuildingBlock: XIVTED_clean_linker_0, # of connection points: 2
#     Edge 143, Type (0, 0), BuildingBlock: XIVTED_clean_linker_0, # of connection points: 2
# Relax obj value: 0.389
# Max RMSD: 0.289
# Mean RMSD: 0.288
data_MOF--net-wmp--node1-IZENUY_clean_sbu_0--edge1-XIVTED_clean_linker_0
_symmetry_space_group_name_H-M    P1
_symmetry_Int_Tables_number       1
_symmetry_cell_setting            triclinic
loop_
_symmetry_equiv_pos_as_xyz
'x, y, z'
_cell_length_a     124.73358
_cell_length_b     124.71472
_cell_length_c     15.177893
_cell_angle_alpha  89.987452
_cell_angle_beta   90.006576
_cell_angle_gamma 119.99415
loop_
_atom_site_label
_atom_site_type_symbol
_atom_site_fract_x
_atom_site_fract_y
_atom_site_fract_z
_atom_type_partial_charge
Fe0 Fe 0.13367 0.38203 0.17504 0.0
Fe1 Fe 0.14178 0.4084 0.11406 0.0
O2 O 0.13096 0.39235 0.11248 0.0
Fe3 Fe 0.11746 0.38659 0.04735 0.0
O4 O 0.10783 0.37343 0.12033 0.0
O5 O 0.11946 0.37675 0.23692 0.0
O6 O 0.14179 0.39307 0.26474 0.0
C7 C 0.14134 0.40258 0.28826 0.0
C8 C 0.12389 0.36912 0.01502 0.0
O9 O 0.1398 0.40918 0.23219 0.0
C10 C 0.13582 0.40485 0.93907 0.0
O11 O 0.14784 0.38653 0.11625 0.0
O12 O 0.15546 0.40658 0.12906 0.0
O13 O 0.12195 0.3773 0.98235 0.0
O14 O 0.12612 0.36916 0.09647 0.0
C15 C 0.11849 0.4072 0.11558 0.0
O16 O 0.14433 0.40844 0.99582 0.0
O17 O 0.12458 0.39857 0.96184 0.0
C18 C 0.15678 0.39742 0.11031 0.0
O19 O 0.13002 0.41305 0.09959 0.0
O20 O 0.11229 0.39557 0.10875 0.0
C21 C 0.10896 0.37138 0.20062 0.0
Fe22 Fe 0.58375 0.7318 0.10636 0.0
Fe23 Fe 0.60589 0.72924 0.04693 0.0
O24 O 0.59992 0.7373 0.10593 0.0
Fe25 Fe 0.61012 0.75092 0.16344 0.0
O26 O 0.59909 0.74843 0.25159 0.0
O27 O 0.58306 0.73 0.22605 0.0
O28 O 0.57939 0.7154 0.09906 0.0
C29 C 0.58539 0.71001 0.11945 0.0
C30 C 0.59429 0.75767 0.09224 0.0
O31 O 0.59703 0.71557 0.11352 0.0
C32 C 0.6231 0.75295 0.00571 0.0
O33 O 0.58364 0.73335 0.98646 0.0
O34 O 0.59393 0.72363 0.96167 0.0
O35 O 0.60525 0.75985 0.09862 0.0
O36 O 0.58528 0.74724 0.11404 0.0
C37 C 0.62119 0.73745 0.19957 0.0
O38 O 0.61508 0.7425 0.97675 0.0
O39 O 0.62296 0.75585 0.08542 0.0
C40 C 0.58785 0.72854 0.93337 0.0
O41 O 0.61907 0.73351 0.12102 0.0
O42 O 0.61578 0.74282 0.23144 0.0
C43 C 0.58992 0.7385 0.27925 0.0
Fe44 Fe 0.24297 0.85897 0.16105 0.0
Fe45 Fe 0.26225 0.85193 0.10409 0.0
O46 O 0.25663 0.8625 0.10368 0.0
Fe47 Fe 0.26462 0.87656 0.04485 0.0
O48 O 0.26022 0.88537 0.11896 0.0
O49 O 0.25097 0.87272 0.22927 0.0
O50 O 0.24551 0.85045 0.24914 0.0
C51 C 0.25547 0.85129 0.27693 0.0
C52 C 0.24087 0.8699 1.00341 0.0
O53 O 0.264 0.853 0.2238 0.0
C54 C 0.26551 0.85934 0.93116 0.0
O55 O 0.23415 0.8452 0.09589 0.0
O56 O 0.24686 0.83795 0.11142 0.0
O57 O 0.25135 0.87241 0.97448 0.0
O58 O 0.23799 0.86684 0.08311 0.0
C59 C 0.28388 0.87542 0.11828 0.0
O60 O 0.26075 0.8503 0.98415 0.0
O61 O 0.27034 0.87032 0.95962 0.0
C62 C 0.23642 0.83647 0.08917 0.0
O63 O 0.27861 0.86407 0.09721 0.0
O64 O 0.27827 0.88145 0.11172 0.0
C65 C 0.25628 0.88351 0.19752 0.0
Fe66 Fe 0.38047 0.13491 0.83664 0.0
Fe67 Fe 0.40691 0.14301 0.89617 0.0
O68 O 0.39086 0.13219 0.89838 0.0
Fe69 Fe 0.38518 0.11869 0.96349 0.0
O70 O 0.37192 0.10906 0.89131 0.0
O71 O 0.3751 0.12067 0.77485 0.0
O72 O 0.39143 0.14297 0.74625 0.0
C73 C 0.40093 0.14252 0.72227 0.0
C74 C 0.36779 0.12519 0.99752 0.0
O75 O 0.40757 0.14101 0.77801 0.0
C76 C 0.40348 0.13707 0.07119 0.0
O77 O 0.38507 0.14911 0.89533 0.0
O78 O 0.4051 0.15669 0.88145 0.0
O79 O 0.37599 0.12321 0.02929 0.0
O80 O 0.3677 0.1274 0.91613 0.0
C81 C 0.4057 0.11972 0.89401 0.0
O82 O 0.40702 0.14558 0.01445 0.0
O83 O 0.39726 0.12582 0.04834 0.0
C84 C 0.39597 0.15805 0.90085 0.0
O85 O 0.41156 0.13125 0.91021 0.0
O86 O 0.39408 0.11352 0.90121 0.0
C87 C 0.36977 0.11018 0.81124 0.0
Fe88 Fe 0.85034 0.26307 0.89704 0.0
Fe89 Fe 0.87453 0.26503 0.96168 0.0
O90 O 0.86088 0.25748 0.89795 0.0
Fe91 Fe 0.85774 0.24428 0.83581 0.0
O92 O 0.84956 0.24729 0.74707 0.0
O93 O 0.85214 0.26564 0.77847 0.0
O94 O 0.86239 0.27941 0.90997 0.0
C95 C 0.87389 0.28481 0.89293 0.0
C96 C 0.83488 0.23714 0.90307 0.0
O97 O 0.87986 0.27915 0.89976 0.0
C98 C 0.86786 0.24109 0.99416 0.0
O99 O 0.84799 0.26078 0.01569 0.0
O100 O 0.8678 0.2702 0.04794 0.0
O101 O 0.84366 0.23494 0.89648 0.0
O102 O 0.83642 0.2477 0.88375 0.0
C103 C 0.88242 0.25788 0.80747 0.0
O104 O 0.86993 0.25123 0.02711 0.0
O105 O 0.86528 0.23882 0.91318 0.0
C106 C 0.85662 0.26557 0.07167 0.0
O107 O 0.88378 0.26117 0.88758 0.0
O108 O 0.87185 0.25291 0.77222 0.0
C109 C 0.85027 0.25735 0.72289 0.0
Fe110 Fe 0.74935 0.61254 0.84421 0.0
Fe111 Fe 0.73036 0.58647 0.90617 0.0
O112 O 0.73614 0.60263 0.90676 0.0
Fe113 Fe 0.72877 0.60891 0.97068 0.0
O114 O 0.73275 0.62205 0.89629 0.0
O115 O 0.74083 0.61815 0.78083 0.0
O116 O 0.74611 0.60125 0.7556 0.0
C117 C 0.73593 0.59202 0.73193 0.0
C118 C 0.75282 0.62591 1.00251 0.0
O119 O 0.72767 0.5857 0.78794 0.0
C120 C 0.72814 0.59042 0.08074 0.0
O121 O 0.75858 0.60764 0.90473 0.0
O122 O 0.74561 0.58769 0.89204 0.0
O123 O 0.74263 0.61796 0.03557 0.0
O124 O 0.75502 0.62559 0.92139 0.0
C125 C 0.70881 0.58859 0.90266 0.0
O126 O 0.73277 0.58645 0.02448 0.0
O127 O 0.72354 0.59701 0.05725 0.0
C128 C 0.75621 0.59661 0.91163 0.0
O129 O 0.71412 0.58242 0.92003 0.0
O130 O 0.71457 0.60023 0.90928 0.0
C131 C 0.73597 0.62386 0.81598 0.0
Fe132 Fe 0.85675 0.61148 0.83656 0.0
Fe133 Fe 0.87456 0.60787 0.95351 0.0
O134 O 0.86047 0.60156 0.89491 0.0
Fe135 Fe 0.85006 0.58533 0.89538 0.0
O136 O 0.85114 0.58455 0.77567 0.0
O137 O 0.84822 0.60024 0.74962 0.0
O138 O 0.87046 0.61722 0.76791 0.0
C139 C 0.88126 0.62289 0.79945 0.0
C140 C 0.83437 0.59547 0.90939 0.0
O141 O 0.88321 0.62095 0.87815 0.0
C142 C 0.85749 0.58972 0.06821 0.0
O143 O 0.8646 0.62451 0.91298 0.0
O144 O 0.87033 0.61704 0.02274 0.0
O145 O 0.83596 0.58655 0.88778 0.0
O146 O 0.84302 0.6065 0.90219 0.0
C147 C 0.8737 0.58747 0.8823 0.0
O148 O 0.86846 0.59605 0.03987 0.0
O149 O 0.84845 0.58529 0.01524 0.0
C150 C 0.86784 0.62496 0.99248 0.0
O151 O 0.87958 0.59912 0.88783 0.0
O152 O 0.86233 0.58129 0.90289 0.0
C153 C 0.84926 0.59122 0.72219 0.0
Fe154 Fe 0.38621 0.26667 0.95304 0.0
Fe155 Fe 0.40806 0.26372 0.89253 0.0
O156 O 0.39193 0.25841 0.89376 0.0
Fe157 Fe 0.38153 0.24483 0.83679 0.0
O158 O 0.37594 0.25304 0.76943 0.0
O159 O 0.37294 0.26249 0.88015 0.0
O160 O 0.39508 0.28021 0.88546 0.0
C161 C 0.40671 0.28565 0.87852 0.0
C162 C 0.36879 0.24311 0.99546 0.0
O163 O 0.41264 0.2802 0.89934 0.0
C164 C 0.39722 0.23777 0.90631 0.0
O165 O 0.3983 0.27225 0.03732 0.0
O166 O 0.40825 0.2622 0.01247 0.0
O167 O 0.36882 0.24009 0.91586 0.0
O168 O 0.37699 0.25352 0.02396 0.0
C169 C 0.40168 0.25698 0.71987 0.0
O170 O 0.40631 0.24818 0.88491 0.0
O171 O 0.38631 0.23577 0.90089 0.0
C172 C 0.4042 0.26715 0.06564 0.0
O173 O 0.40867 0.26544 0.77284 0.0
O174 O 0.39239 0.24715 0.74772 0.0
C175 C 0.37062 0.25846 0.80189 0.0
Fe176 Fe 0.73005 0.14252 0.89058 0.0
Fe177 Fe 0.74897 0.13521 0.83077 0.0
O178 O 0.73571 0.13204 0.89226 0.0
Fe179 Fe 0.72816 0.11842 0.95643 0.0
O180 O 0.71408 0.11297 0.89379 0.0
O181 O 0.71375 0.1304 0.9034 0.0
O182 O 0.72754 0.14065 0.77202 0.0
C183 C 0.73584 0.1425 0.71664 0.0
C184 C 0.72749 0.13633 0.06536 0.0
O185 O 0.7459 0.14322 0.74105 0.0
C186 C 0.75216 0.1254 0.99063 0.0
O187 O 0.74536 0.15649 0.87717 0.0
O188 O 0.75823 0.14939 0.89062 0.0
O189 O 0.72285 0.12515 0.04178 0.0
O190 O 0.73231 0.14494 0.00924 0.0
C191 C 0.73548 0.11047 0.80345 0.0
O192 O 0.75447 0.12784 0.90949 0.0
O193 O 0.74191 0.12318 0.02259 0.0
C194 C 0.75596 0.15813 0.89647 0.0
O195 O 0.74047 0.12101 0.76782 0.0
O196 O 0.73216 0.10916 0.88348 0.0
C197 C 0.70839 0.11891 0.88647 0.0
Fe198 Fe 0.60698 0.87695 0.0464 0.0
Fe199 Fe 0.58489 0.85238 0.10825 0.0
O200 O 0.60107 0.86297 0.10611 0.0
Fe201 Fe 0.61133 0.85955 0.16264 0.0
O202 O 0.61713 0.87336 0.23013 0.0
O203 O 0.62032 0.88588 0.1193 0.0
O204 O 0.59832 0.88191 0.1137 0.0
C205 C 0.58669 0.87588 0.12093 0.0
C206 C 0.62403 0.87029 0.00374 0.0
O207 O 0.5806 0.86447 0.10129 0.0
C208 C 0.5953 0.83696 0.09254 0.0
O209 O 0.59486 0.87056 0.96223 0.0
O210 O 0.58452 0.85058 0.98841 0.0
O211 O 0.62404 0.86737 0.08354 0.0
O212 O 0.61598 0.87273 0.97547 0.0
C213 C 0.5914 0.85199 0.28048 0.0
O214 O 0.58637 0.83843 0.11579 0.0
O215 O 0.6063 0.84571 0.0981 0.0
C216 C 0.58866 0.85953 0.93472 0.0
O217 O 0.58446 0.85362 0.22803 0.0
O218 O 0.60045 0.85111 0.25175 0.0
C219 C 0.62252 0.88411 0.1978 0.0
Fe220 Fe 0.13546 0.75087 0.16502 0.0
Fe221 Fe 0.11794 0.72929 0.04794 0.0
O222 O 0.13196 0.73725 0.10721 0.0
Fe223 Fe 0.14254 0.73163 0.10816 0.0
O224 O 0.14133 0.72981 0.22794 0.0
O225 O 0.14401 0.74835 0.25272 0.0
O226 O 0.1217 0.74282 0.23313 0.0
C227 C 0.11092 0.73749 0.20116 0.0
C228 C 0.15798 0.75748 0.09353 0.0
O229 O 0.10907 0.73353 0.12267 0.0
C230 C 0.13531 0.72843 0.93478 0.0
O231 O 0.12757 0.75588 0.08783 0.0
O232 O 0.12198 0.74265 0.97843 0.0
O233 O 0.1565 0.74704 0.11596 0.0
O234 O 0.14923 0.75973 0.09987 0.0
C235 C 0.11906 0.70992 0.12019 0.0
O236 O 0.12429 0.72375 0.96213 0.0
O237 O 0.14427 0.73315 0.9884 0.0
C238 C 0.12433 0.75303 0.00842 0.0
O239 O 0.11304 0.71554 0.11372 0.0
O240 O 0.13046 0.71526 0.10051 0.0
C241 C 0.14303 0.73835 0.28091 0.0
Fe242 Fe 0.26426 0.3862 0.04708 0.0
Fe243 Fe 0.26191 0.4081 0.11395 0.0
O244 O 0.25655 0.39201 0.11201 0.0
Fe245 Fe 0.24342 0.38174 0.17399 0.0
O246 O 0.25218 0.37625 0.23587 0.0
O247 O 0.26059 0.37298 0.11972 0.0
O248 O 0.27837 0.39505 0.10916 0.0
C249 C 0.28386 0.40668 0.11639 0.0
C250 C 0.24032 0.3689 0.01351 0.0
O251 O 0.27828 0.41261 0.09976 0.0
C252 C 0.23594 0.39738 0.11022 0.0
O253 O 0.26925 0.39825 0.96189 0.0
O254 O 0.25944 0.4082 0.99569 0.0
O255 O 0.23803 0.36892 0.09482 0.0
O256 O 0.25051 0.37702 0.98146 0.0
C257 C 0.25644 0.4022 0.28798 0.0
O258 O 0.2465 0.40645 0.12887 0.0
O259 O 0.2339 0.38644 0.11534 0.0
C260 C 0.26433 0.40456 0.93899 0.0
O261 O 0.26461 0.40878 0.23211 0.0
O262 O 0.24644 0.39275 0.26418 0.0
C263 C 0.25729 0.37085 0.19978 0.0
Fe264 Fe 0.80884 0.74308 0.44579 0.0
Fe265 Fe 0.78425 0.72077 0.38672 0.0
O266 O 0.79832 0.72688 0.44543 0.0
Fe267 Fe 0.80192 0.71678 0.5027 0.0
O268 O 0.8104 0.72785 0.59081 0.0
O269 O 0.80777 0.74374 0.56551 0.0
O270 O 0.79666 0.74726 0.43891 0.0
C271 C 0.7853 0.74114 0.45977 0.0
C272 C 0.8244 0.73282 0.43078 0.0
O273 O 0.77932 0.7295 0.45353 0.0
C274 C 0.79099 0.70374 0.34511 0.0
O275 O 0.81046 0.74322 0.32586 0.0
O276 O 0.79046 0.73272 0.30135 0.0
O277 O 0.8157 0.72181 0.43751 0.0
O278 O 0.82287 0.74175 0.45303 0.0
C279 C 0.77737 0.70548 0.53948 0.0
O280 O 0.78842 0.71167 0.31634 0.0
O281 O 0.7941 0.70393 0.42472 0.0
C282 C 0.80143 0.73891 0.27288 0.0
O283 O 0.77548 0.70757 0.46102 0.0
O284 O 0.78818 0.71096 0.57099 0.0
C285 C 0.80951 0.73694 0.61862 0.0
Fe286 Fe 0.25147 0.06497 0.44456 0.0
Fe287 Fe 0.27355 0.06278 0.37949 0.0
O288 O 0.26757 0.0704 0.44379 0.0
Fe289 Fe 0.2777 0.08351 0.5065 0.0
O290 O 0.26652 0.08045 0.59549 0.0
O291 O 0.25064 0.06223 0.56275 0.0
O292 O 0.24704 0.04863 0.43043 0.0
C293 C 0.25299 0.04308 0.44747 0.0
C294 C 0.26213 0.09089 0.43969 0.0
O295 O 0.26462 0.0486 0.44078 0.0
C296 C 0.29088 0.08678 0.34754 0.0
O297 O 0.2515 0.06744 0.32627 0.0
O298 O 0.26167 0.05783 0.29311 0.0
O299 O 0.27306 0.093 0.44671 0.0
O300 O 0.25305 0.08037 0.45896 0.0
C301 C 0.28859 0.06967 0.53375 0.0
O302 O 0.28286 0.0766 0.31464 0.0
O303 O 0.29065 0.08897 0.42878 0.0
C304 C 0.25527 0.06264 0.26987 0.0
O305 O 0.28663 0.06644 0.45352 0.0
O306 O 0.28311 0.07475 0.5693 0.0
C307 C 0.25711 0.0704 0.61891 0.0
Fe308 Fe 0.9286 0.18476 0.44069 0.0
Fe309 Fe 0.93097 0.20943 0.38234 0.0
O310 O 0.92301 0.19535 0.44094 0.0
Fe311 Fe 0.9094 0.19182 0.49905 0.0
O312 O 0.91196 0.18321 0.5863 0.0
O313 O 0.93045 0.18582 0.5604 0.0
O314 O 0.94497 0.19685 0.43324 0.0
C315 C 0.9503 0.20822 0.45408 0.0
C316 C 0.90274 0.16933 0.42685 0.0
O317 O 0.94469 0.21426 0.4483 0.0
C318 C 0.90722 0.20294 0.34257 0.0
O319 O 0.92703 0.18315 0.32082 0.0
O320 O 0.93656 0.20318 0.29622 0.0
O321 O 0.90051 0.17809 0.43364 0.0
O322 O 0.9132 0.1708 0.44834 0.0
C323 C 0.92283 0.21633 0.53626 0.0
O324 O 0.91764 0.20538 0.31282 0.0
O325 O 0.90439 0.19978 0.42218 0.0
C326 C 0.93176 0.19219 0.26785 0.0
O327 O 0.9267 0.21824 0.45751 0.0
O328 O 0.9175 0.20551 0.5676 0.0
C329 C 0.92194 0.18409 0.61381 0.0
Fe330 Fe 0.07462 0.47656 0.23153 0.0
Fe331 Fe 0.05252 0.45199 0.29343 0.0
O332 O 0.05843 0.46596 0.23378 0.0
Fe333 Fe 0.04816 0.46937 0.17721 0.0
O334 O 0.05903 0.4778 0.08802 0.0
O335 O 0.07504 0.47531 0.11176 0.0
O336 O 0.07892 0.46446 0.2385 0.0
C337 C 0.07281 0.45306 0.21861 0.0
C338 C 0.06419 0.49203 0.24619 0.0
O339 O 0.06119 0.44705 0.226 0.0
C340 C 0.03541 0.45855 0.33613 0.0
O341 O 0.07498 0.47837 0.35136 0.0
O342 O 0.06465 0.45839 0.37756 0.0
O343 O 0.0532 0.48323 0.24151 0.0
O344 O 0.07313 0.49051 0.22381 0.0
C345 C 0.03707 0.4448 0.1418 0.0
O346 O 0.0435 0.45617 0.36443 0.0
O347 O 0.03544 0.46154 0.25638 0.0
C348 C 0.07084 0.46942 0.40505 0.0
O349 O 0.0392 0.44303 0.22047 0.0
O350 O 0.04238 0.45556 0.10974 0.0
C351 C 0.06809 0.47692 0.05931 0.0
Fe352 Fe 0.51683 0.59661 0.23273 0.0
Fe353 Fe 0.54148 0.59932 0.295 0.0
O354 O 0.52754 0.59116 0.23525 0.0
Fe355 Fe 0.52425 0.5775 0.17898 0.0
O356 O 0.51578 0.57984 0.08953 0.0
O357 O 0.5181 0.59828 0.11297 0.0
O358 O 0.52883 0.61305 0.23968 0.0
C359 C 0.54025 0.61844 0.2201 0.0
C360 C 0.50156 0.57072 0.24781 0.0
O361 O 0.54633 0.61289 0.22736 0.0
C362 C 0.53508 0.57571 0.33823 0.0
O363 O 0.51501 0.59517 0.35257 0.0
O364 O 0.53498 0.60499 0.37882 0.0
O365 O 0.51041 0.5686 0.24327 0.0
O366 O 0.50297 0.58112 0.22497 0.0
C367 C 0.54881 0.59109 0.14388 0.0
O368 O 0.53737 0.58617 0.36621 0.0
O369 O 0.53215 0.57271 0.25848 0.0
C370 C 0.52395 0.60005 0.40631 0.0
O371 O 0.55054 0.59502 0.22243 0.0
O372 O 0.53806 0.5856 0.11162 0.0
C373 C 0.51657 0.58973 0.06065 0.0
Fe374 Fe 0.41566 0.94569 0.17779 0.0
Fe375 Fe 0.39669 0.91963 0.23976 0.0
O376 O 0.4024 0.93577 0.23985 0.0
Fe377 Fe 0.39492 0.94203 0.30273 0.0
O378 O 0.3989 0.9551 0.22764 0.0
O379 O 0.40715 0.9512 0.11317 0.0
O380 O 0.4126 0.93438 0.08981 0.0
C381 C 0.40248 0.92513 0.06556 0.0
C382 C 0.41891 0.95914 0.33528 0.0
O383 O 0.39415 0.9188 0.12113 0.0
C384 C 0.39422 0.9236 0.41405 0.0
O385 O 0.42488 0.9409 0.23962 0.0
O386 O 0.41199 0.92093 0.22709 0.0
O387 O 0.40871 0.95117 0.36811 0.0
O388 O 0.42118 0.95879 0.25437 0.0
C389 C 0.37506 0.92162 0.23479 0.0
O390 O 0.39895 0.91964 0.35846 0.0
O391 O 0.38966 0.9302 0.38973 0.0
C392 C 0.42255 0.92989 0.24715 0.0
O393 O 0.38041 0.9155 0.25239 0.0
O394 O 0.38077 0.93326 0.24092 0.0
C395 C 0.40219 0.95687 0.14746 0.0
Fe396 Fe 0.51637 0.91868 0.23706 0.0
Fe397 Fe 0.52325 0.94492 0.17927 0.0
O398 O 0.52688 0.93488 0.23692 0.0
Fe399 Fe 0.54098 0.94105 0.29531 0.0
O400 O 0.54588 0.93225 0.22905 0.0
O401 O 0.52854 0.91451 0.24433 0.0
O402 O 0.51744 0.91795 0.11734 0.0
C403 C 0.51565 0.92471 0.06411 0.0
C404 C 0.52382 0.92297 0.40983 0.0
O405 O 0.51469 0.93377 0.09185 0.0
C406 C 0.53429 0.95813 0.33607 0.0
O407 O 0.50235 0.92002 0.22957 0.0
O408 O 0.50952 0.93997 0.24492 0.0
O409 O 0.5348 0.92918 0.38131 0.0
O410 O 0.51477 0.91862 0.35695 0.0
C411 C 0.54776 0.9561 0.14147 0.0
O412 O 0.53117 0.95788 0.25644 0.0
O413 O 0.53683 0.9502 0.3652 0.0
C414 C 0.50081 0.92896 0.25151 0.0
O415 O 0.53693 0.95061 0.1105 0.0
O416 O 0.54972 0.95419 0.22023 0.0
C417 C 0.53991 0.9206 0.2236 0.0
Fe418 Fe 0.07407 0.59659 0.23053 0.0
Fe419 Fe 0.04775 0.57789 0.1709 0.0
O420 O 0.05796 0.59112 0.2322 0.0
Fe421 Fe 0.05205 0.59882 0.2962 0.0
O422 O 0.06082 0.61287 0.23346 0.0
O423 O 0.07846 0.61296 0.24308 0.0
O424 O 0.07473 0.59908 0.11194 0.0
C425 C 0.06819 0.59078 0.05667 0.0
C426 C 0.0705 0.59925 0.40527 0.0
O427 O 0.0588 0.58079 0.08126 0.0
C428 C 0.03483 0.5749 0.33069 0.0
O429 O 0.0725 0.58117 0.21748 0.0
O430 O 0.0525 0.56852 0.23116 0.0
O431 O 0.06408 0.60401 0.38159 0.0
O432 O 0.07421 0.59434 0.34921 0.0
C433 C 0.03679 0.59164 0.14311 0.0
O434 O 0.0349 0.57256 0.24955 0.0
O435 O 0.04294 0.58511 0.3625 0.0
C436 C 0.06345 0.57065 0.23739 0.0
O437 O 0.04224 0.58652 0.10766 0.0
O438 O 0.03883 0.59496 0.22313 0.0
C439 C 0.07244 0.61845 0.2263 0.0
Fe440 Fe 0.397 0.47589 0.22602 0.0
Fe441 Fe 0.41585 0.46848 0.16627 0.0
O442 O 0.40264 0.4654 0.22807 0.0
Fe443 Fe 0.39512 0.45185 0.29299 0.0
O444 O 0.381 0.44635 0.2306 0.0
O445 O 0.3807 0.4638 0.23971 0.0
O446 O 0.39438 0.47389 0.10782 0.0
C447 C 0.40261 0.47563 0.05208 0.0
C448 C 0.39461 0.46991 0.40096 0.0
O449 O 0.41269 0.47637 0.07606 0.0
C450 C 0.41915 0.45894 0.32695 0.0
O451 O 0.41231 0.48984 0.21167 0.0
O452 O 0.42517 0.48273 0.22516 0.0
O453 O 0.38987 0.45869 0.37797 0.0
O454 O 0.39938 0.47845 0.34433 0.0
C455 C 0.40232 0.44371 0.14043 0.0
O456 O 0.42141 0.46121 0.24557 0.0
O457 O 0.40889 0.4567 0.35881 0.0
C458 C 0.42291 0.49147 0.23094 0.0
O459 O 0.40728 0.45422 0.10425 0.0
O460 O 0.39908 0.4425 0.22061 0.0
C461 C 0.37532 0.45229 0.22306 0.0
Fe462 Fe 0.27742 0.19195 0.49589 0.0
Fe463 Fe 0.27354 0.20959 0.37896 0.0
O464 O 0.26738 0.19554 0.43801 0.0
Fe465 Fe 0.25117 0.18504 0.43883 0.0
O466 O 0.25055 0.18625 0.5586 0.0
O467 O 0.2663 0.18341 0.58337 0.0
O468 O 0.28312 0.20567 0.56422 0.0
C469 C 0.28859 0.21648 0.53273 0.0
C470 C 0.26145 0.16945 0.42486 0.0
O471 O 0.28663 0.21839 0.45398 0.0
C472 C 0.25527 0.1923 0.26554 0.0
O473 O 0.29037 0.19983 0.41894 0.0
O474 O 0.28278 0.20548 0.30951 0.0
O475 O 0.25252 0.17102 0.44679 0.0
O476 O 0.27246 0.17819 0.4306 0.0
C477 C 0.2531 0.20859 0.45102 0.0
O478 O 0.26166 0.20331 0.293 0.0
O479 O 0.25097 0.18332 0.31907 0.0
C480 C 0.29079 0.20309 0.33951 0.0
O481 O 0.26473 0.21455 0.44472 0.0
O482 O 0.24698 0.1972 0.4311 0.0
C483 C 0.25734 0.18449 0.61159 0.0
Fe484 Fe 0.8007 0.0835 0.49596 0.0
Fe485 Fe 0.78402 0.06252 0.37114 0.0
O486 O 0.79768 0.07027 0.43472 0.0
Fe487 Fe 0.80835 0.06484 0.43612 0.0
O488 O 0.80658 0.06237 0.55474 0.0
O489 O 0.80891 0.08065 0.58539 0.0
O490 O 0.7866 0.07486 0.55956 0.0
C491 C 0.77602 0.06974 0.52439 0.0
C492 C 0.8236 0.09076 0.4288 0.0
O493 O 0.77468 0.06637 0.44446 0.0
C494 C 0.80203 0.06213 0.26156 0.0
O495 O 0.79311 0.08878 0.41751 0.0
O496 O 0.78853 0.0762 0.30466 0.0
O497 O 0.82217 0.08027 0.44889 0.0
O498 O 0.81478 0.09289 0.43531 0.0
C499 C 0.78495 0.04299 0.44172 0.0
O500 O 0.79084 0.05733 0.28557 0.0
O501 O 0.81067 0.06707 0.31739 0.0
C502 C 0.79066 0.08642 0.33645 0.0
O503 O 0.77883 0.04849 0.4342 0.0
O504 O 0.79642 0.04847 0.42387 0.0
C505 C 0.80832 0.07066 0.61001 0.0
Fe506 Fe 0.93075 0.72021 0.37345 0.0
Fe507 Fe 0.92876 0.74274 0.43137 0.0
O508 O 0.92296 0.72652 0.43193 0.0
Fe509 Fe 0.90932 0.7166 0.49026 0.0
O510 O 0.91729 0.71088 0.55912 0.0
O511 O 0.92635 0.70716 0.44907 0.0
O512 O 0.94453 0.729 0.43897 0.0
C513 C 0.95029 0.74065 0.44427 0.0
C514 C 0.90695 0.70308 0.33463 0.0
O515 O 0.94507 0.7468 0.42379 0.0
C516 C 0.90294 0.73258 0.4171 0.0
O517 O 0.93643 0.732 0.2869 0.0
O518 O 0.92718 0.74277 0.31152 0.0
O519 O 0.90416 0.70355 0.41408 0.0
O520 O 0.91735 0.71101 0.30431 0.0
C521 C 0.92207 0.73686 0.60454 0.0
O522 O 0.91343 0.7415 0.43899 0.0
O523 O 0.90057 0.72155 0.42435 0.0
C524 C 0.93179 0.73833 0.25857 0.0
O525 O 0.93062 0.74353 0.55108 0.0
O526 O 0.91201 0.72786 0.57704 0.0
C527 C 0.92245 0.70523 0.52774 0.0
Fe528 Fe 0.47539 0.07619 0.78234 0.0
Fe529 Fe 0.45089 0.054 0.72032 0.0
O530 O 0.46486 0.05999 0.78019 0.0
Fe531 Fe 0.46833 0.04977 0.83694 0.0
O532 O 0.4767 0.06067 0.92607 0.0
O533 O 0.47412 0.07662 0.9021 0.0
O534 O 0.46323 0.0804 0.77516 0.0
C535 C 0.45182 0.07424 0.79472 0.0
C536 C 0.49094 0.06589 0.76761 0.0
O537 O 0.44587 0.06261 0.78744 0.0
C538 C 0.45762 0.03699 0.67812 0.0
O539 O 0.47722 0.07656 0.66253 0.0
O540 O 0.45725 0.06611 0.63609 0.0
O541 O 0.48219 0.05487 0.77269 0.0
O542 O 0.48939 0.0748 0.79018 0.0
C543 C 0.44374 0.03847 0.87186 0.0
O544 O 0.45516 0.04501 0.64956 0.0
O545 O 0.46059 0.03705 0.7579 0.0
C546 C 0.46828 0.07238 0.60874 0.0
O547 O 0.44198 0.04068 0.79334 0.0
O548 O 0.45449 0.04388 0.90423 0.0
C549 C 0.47578 0.06971 0.95465 0.0
Fe550 Fe 0.91848 0.39834 0.78235 0.0
Fe551 Fe 0.94033 0.39581 0.71662 0.0
O552 O 0.93454 0.40357 0.78119 0.0
Fe553 Fe 0.94482 0.4166 0.84387 0.0
O554 O 0.93371 0.41372 0.93303 0.0
O555 O 0.91766 0.39561 0.90053 0.0
O556 O 0.91383 0.38193 0.76822 0.0
C557 C 0.91968 0.37626 0.7849 0.0
C558 C 0.9295 0.42434 0.77807 0.0
O559 O 0.9313 0.38168 0.77805 0.0
C560 C 0.95792 0.41967 0.6847 0.0
O561 O 0.9185 0.40084 0.66408 0.0
O562 O 0.92841 0.39097 0.63062 0.0
O563 O 0.94038 0.42627 0.7844 0.0
O564 O 0.92032 0.41385 0.79689 0.0
C565 C 0.95541 0.40251 0.87055 0.0
O566 O 0.94971 0.4096 0.6517 0.0
O567 O 0.95776 0.42189 0.766 0.0
C568 C 0.92214 0.39593 0.60755 0.0
O569 O 0.95342 0.39933 0.79024 0.0
O570 O 0.94999 0.40763 0.90638 0.0
C571 C 0.92422 0.40374 0.9566 0.0
Fe572 Fe 0.59584 0.51928 0.77995 0.0
Fe573 Fe 0.59791 0.5436 0.71687 0.0
O574 O 0.59031 0.52988 0.77995 0.0
Fe575 Fe 0.57714 0.52671 0.84249 0.0
O576 O 0.58013 0.51841 0.93048 0.0
O577 O 0.59846 0.521 0.89853 0.0
O578 O 0.61217 0.53128 0.76692 0.0
C579 C 0.61764 0.54275 0.78463 0.0
C580 C 0.56992 0.50392 0.77384 0.0
O581 O 0.61206 0.54881 0.77834 0.0
C582 C 0.57394 0.53702 0.68509 0.0
O583 O 0.59352 0.51704 0.6613 0.0
O584 O 0.60297 0.53688 0.62972 0.0
O585 O 0.56775 0.5127 0.78122 0.0
O586 O 0.58046 0.50539 0.79308 0.0
C587 C 0.59085 0.55137 0.87216 0.0
O588 O 0.5841 0.53916 0.65186 0.0
O589 O 0.5717 0.53435 0.76596 0.0
C590 C 0.59832 0.52571 0.6056 0.0
O591 O 0.59414 0.55282 0.79202 0.0
O592 O 0.58581 0.54075 0.90671 0.0
C593 C 0.59019 0.51912 0.95435 0.0
Fe594 Fe 0.71404 0.80187 0.50264 0.0
Fe595 Fe 0.74024 0.80934 0.56394 0.0
O596 O 0.72411 0.79881 0.56534 0.0
Fe597 Fe 0.71805 0.78528 0.63044 0.0
O598 O 0.70485 0.7759 0.55724 0.0
O599 O 0.70844 0.78761 0.44067 0.0
O600 O 0.72518 0.80981 0.41313 0.0
C601 C 0.73454 0.80907 0.38969 0.0
C602 C 0.70089 0.79215 0.6621 0.0
O603 O 0.74097 0.8073 0.44583 0.0
C604 C 0.73652 0.8034 0.73894 0.0
O605 O 0.71886 0.81609 0.56164 0.0
O606 O 0.73884 0.82325 0.54872 0.0
O607 O 0.70895 0.79006 0.69517 0.0
O608 O 0.70111 0.79454 0.58082 0.0
C609 C 0.73843 0.78578 0.56264 0.0
O610 O 0.74032 0.81193 0.68216 0.0
O611 O 0.73002 0.79217 0.7162 0.0
C612 C 0.72985 0.82485 0.56773 0.0
O613 O 0.74449 0.79731 0.5787 0.0
O614 O 0.72679 0.7798 0.56931 0.0
C615 C 0.70281 0.77711 0.4771 0.0
Fe616 Fe 0.18383 0.93005 0.56239 0.0
Fe617 Fe 0.20787 0.93188 0.62894 0.0
O618 O 0.19434 0.92443 0.56383 0.0
Fe619 Fe 0.1913 0.91131 0.5011 0.0
O620 O 0.18336 0.9145 0.41156 0.0
O621 O 0.18582 0.93277 0.44423 0.0
O622 O 0.1959 0.94635 0.57654 0.0
C623 C 0.20741 0.95174 0.56015 0.0
C624 C 0.16832 0.90412 0.56643 0.0
O625 O 0.21336 0.94607 0.56751 0.0
C626 C 0.20099 0.90787 0.6607 0.0
O627 O 0.18127 0.92759 0.68065 0.0
O628 O 0.20101 0.93702 0.71454 0.0
O629 O 0.17708 0.9019 0.55999 0.0
O630 O 0.16991 0.91472 0.54775 0.0
C631 C 0.21605 0.92483 0.4757 0.0
O632 O 0.20305 0.91801 0.69381 0.0
O633 O 0.19862 0.9057 0.57937 0.0
C634 C 0.18979 0.93232 0.73736 0.0
O635 O 0.21724 0.92803 0.55594 0.0
O636 O 0.20557 0.91998 0.43918 0.0
C637 C 0.18407 0.92458 0.38812 0.0
Fe638 Fe 0.08226 0.2791 0.50572 0.0
Fe639 Fe 0.06347 0.25281 0.56523 0.0
O640 O 0.06903 0.26893 0.56713 0.0
Fe641 Fe 0.0614 0.2749 0.63149 0.0
O642 O 0.06532 0.28817 0.55878 0.0
O643 O 0.07368 0.28473 0.44299 0.0
O644 O 0.07925 0.26807 0.41576 0.0
C645 C 0.06924 0.25869 0.39133 0.0
C646 C 0.08537 0.29198 0.66596 0.0
O647 O 0.06095 0.25217 0.44669 0.0
C648 C 0.06087 0.25635 0.74009 0.0
O649 O 0.09159 0.27425 0.56528 0.0
O650 O 0.07883 0.25427 0.55165 0.0
O651 O 0.07513 0.28391 0.69772 0.0
O652 O 0.08769 0.29193 0.58474 0.0
C653 C 0.04171 0.25458 0.5615 0.0
O654 O 0.06575 0.25263 0.68388 0.0
O655 O 0.05615 0.26283 0.71661 0.0
C656 C 0.08941 0.26327 0.57081 0.0
O657 O 0.04714 0.2485 0.57817 0.0
O658 O 0.04733 0.26621 0.5688 0.0
C659 C 0.06862 0.29021 0.47872 0.0
Fe660 Fe 0.18367 0.25255 0.56371 0.0
Fe661 Fe 0.19135 0.27884 0.50343 0.0
O662 O 0.19437 0.26863 0.56476 0.0
Fe663 Fe 0.20806 0.27454 0.628 0.0
O664 O 0.21318 0.26563 0.56539 0.0
O665 O 0.19557 0.24806 0.57617 0.0
O666 O 0.18542 0.25181 0.44509 0.0
C667 C 0.18366 0.25834 0.3898 0.0
C668 C 0.19004 0.25623 0.73818 0.0
O669 O 0.18305 0.26772 0.41443 0.0
C670 C 0.20151 0.29188 0.66243 0.0
O671 O 0.16987 0.2542 0.55087 0.0
O672 O 0.17733 0.27422 0.56452 0.0
O673 O 0.20123 0.26259 0.71407 0.0
O674 O 0.18139 0.2525 0.68242 0.0
C675 C 0.216 0.28957 0.47379 0.0
O676 O 0.19905 0.29178 0.58137 0.0
O677 O 0.20362 0.28377 0.69421 0.0
C678 C 0.16846 0.26329 0.57078 0.0
O679 O 0.20538 0.28418 0.43934 0.0
O680 O 0.21741 0.28767 0.55394 0.0
C681 C 0.20706 0.25399 0.55882 0.0
Fe682 Fe 0.7189 0.93193 0.63101 0.0
Fe683 Fe 0.74127 0.93027 0.56546 0.0
O684 O 0.72512 0.9246 0.56603 0.0
Fe685 Fe 0.71516 0.91153 0.50232 0.0
O686 O 0.70961 0.92023 0.44023 0.0
O687 O 0.70582 0.92818 0.55689 0.0
O688 O 0.72766 0.94621 0.57071 0.0
C689 C 0.73929 0.95192 0.56394 0.0
C690 C 0.70172 0.90786 0.66073 0.0
O691 O 0.74543 0.94654 0.58036 0.0
C692 C 0.73093 0.90436 0.56814 0.0
O693 O 0.73075 0.93696 0.71758 0.0
O694 O 0.74126 0.92772 0.68365 0.0
O695 O 0.70214 0.9058 0.57947 0.0
O696 O 0.70971 0.91796 0.69481 0.0
C697 C 0.73579 0.92496 0.3908 0.0
O698 O 0.73994 0.91499 0.55025 0.0
O699 O 0.71995 0.90211 0.56132 0.0
C700 C 0.73737 0.93237 0.74035 0.0
O701 O 0.74212 0.93312 0.44737 0.0
O702 O 0.72643 0.91484 0.41361 0.0
C703 C 0.70393 0.92506 0.47646 0.0
Fe704 Fe 0.06085 0.78516 0.6247 0.0
Fe705 Fe 0.06359 0.80983 0.56251 0.0
O706 O 0.06902 0.79911 0.56487 0.0
Fe707 Fe 0.08266 0.80238 0.50834 0.0
O708 O 0.07455 0.78855 0.44114 0.0
O709 O 0.06512 0.7761 0.55209 0.0
O710 O 0.04725 0.78033 0.55733 0.0
C711 C 0.04174 0.78646 0.55006 0.0
C712 C 0.08444 0.79143 0.66713 0.0
O713 O 0.04717 0.79787 0.5697 0.0
C714 C 0.08947 0.82509 0.57732 0.0
O715 O 0.05524 0.79168 0.7087 0.0
O716 O 0.06506 0.81166 0.68233 0.0
O717 O 0.08745 0.79448 0.58757 0.0
O718 O 0.07403 0.78922 0.69564 0.0
C719 C 0.07042 0.81009 0.39029 0.0
O720 O 0.07908 0.82368 0.55455 0.0
O721 O 0.09159 0.81624 0.57254 0.0
C722 C 0.06018 0.80272 0.7361 0.0
O723 O 0.06189 0.80856 0.44276 0.0
O724 O 0.08031 0.81086 0.419 0.0
C725 C 0.06919 0.77782 0.47389 0.0
Fe726 Fe 0.94022 0.54286 0.71316 0.0
Fe727 Fe 0.91836 0.51853 0.77947 0.0
O728 O 0.93443 0.52929 0.77765 0.0
Fe729 Fe 0.94474 0.52645 0.83934 0.0
O730 O 0.95014 0.54064 0.90182 0.0
O731 O 0.95344 0.55237 0.78587 0.0
O732 O 0.93134 0.54805 0.77557 0.0
C733 C 0.91972 0.54189 0.78266 0.0
C734 C 0.95758 0.53632 0.67916 0.0
O735 O 0.91381 0.53038 0.76618 0.0
C736 C 0.92918 0.50337 0.77469 0.0
O737 O 0.92819 0.53588 0.62796 0.0
O738 O 0.91825 0.51608 0.66087 0.0
O739 O 0.95755 0.53398 0.7604 0.0
O740 O 0.94943 0.53835 0.64717 0.0
C741 C 0.92426 0.51878 0.95349 0.0
O742 O 0.92008 0.50479 0.79341 0.0
O743 O 0.9401 0.51228 0.78008 0.0
C744 C 0.92185 0.52466 0.60459 0.0
O745 O 0.91766 0.52041 0.89798 0.0
O746 O 0.93374 0.51832 0.92925 0.0
C747 C 0.95554 0.55117 0.8659 0.0
Fe748 Fe 0.45153 0.39702 0.7041 0.0
Fe749 Fe 0.4756 0.3988 0.76988 0.0
O750 O 0.46509 0.40442 0.76905 0.0
Fe751 Fe 0.46816 0.41751 0.83241 0.0
O752 O 0.45392 0.40881 0.89452 0.0
O753 O 0.44216 0.40074 0.77812 0.0
O754 O 0.44608 0.38275 0.76452 0.0
C755 C 0.45204 0.37707 0.77085 0.0
C756 C 0.45846 0.42111 0.67346 0.0
O757 O 0.46356 0.38252 0.75481 0.0
C758 C 0.49115 0.42473 0.76728 0.0
O759 O 0.45841 0.39203 0.61768 0.0
O760 O 0.47817 0.40136 0.6517 0.0
O761 O 0.46085 0.42319 0.75482 0.0
O762 O 0.45626 0.41095 0.64001 0.0
C763 C 0.47538 0.40413 0.94441 0.0
O764 O 0.48953 0.4141 0.78528 0.0
O765 O 0.48238 0.42694 0.77351 0.0
C766 C 0.46963 0.39668 0.59495 0.0
O767 O 0.47359 0.39596 0.88797 0.0
O768 O 0.47611 0.41424 0.92141 0.0
C769 C 0.4434 0.40385 0.85859 0.0
Fe770 Fe 0.5764 0.0489 0.84013 0.0
Fe771 Fe 0.59715 0.05305 0.71342 0.0
O772 O 0.58956 0.05904 0.77794 0.0
Fe773 Fe 0.59508 0.07515 0.77929 0.0
O774 O 0.59777 0.07587 0.89747 0.0
O775 O 0.5795 0.06003 0.92965 0.0
O776 O 0.58504 0.04334 0.90264 0.0
C777 C 0.59 0.03777 0.86674 0.0
C778 C 0.56919 0.06466 0.77428 0.0
O779 O 0.59337 0.03987 0.7868 0.0
C780 C 0.59742 0.07145 0.60447 0.0
O781 O 0.57091 0.036 0.76186 0.0
O782 O 0.58335 0.04388 0.64813 0.0
O783 O 0.57973 0.07367 0.79387 0.0
O784 O 0.567 0.05368 0.78053 0.0
C785 C 0.61689 0.0735 0.78195 0.0
O786 O 0.60222 0.06502 0.62759 0.0
O787 O 0.59263 0.07521 0.661 0.0
C788 C 0.57317 0.03581 0.68072 0.0
O789 O 0.61131 0.06186 0.77514 0.0
O790 O 0.6114 0.0795 0.76516 0.0
C791 C 0.58957 0.06939 0.9534 0.0
H792 H 0.09014 0.35113 0.12003 0.0
H793 H 0.0696 0.31034 0.55798 0.0
H794 H 0.10535 0.36573 0.3767 0.0
H795 H 0.07111 0.29592 0.30257 0.0
H796 H 0.07622 0.33051 0.49055 0.0
H797 H 0.07673 0.33089 0.18699 0.0
C798 C 0.09041 0.35019 0.19084 0.0
C799 C 0.09897 0.36012 0.2429 0.0
C800 C 0.07484 0.32284 0.44919 0.0
C801 C 0.08362 0.337 0.31935 0.0
C802 C 0.07098 0.3113 0.48733 0.0
C803 C 0.06992 0.30145 0.43582 0.0
C804 C 0.07744 0.32449 0.35879 0.0
C805 C 0.07193 0.30329 0.34474 0.0
C806 C 0.08281 0.33861 0.2287 0.0
C807 C 0.09896 0.3583 0.33415 0.0
N808 N 0.07568 0.31463 0.30912 0.0
N809 N 0.09147 0.34692 0.36949 0.0
H810 H 0.68218 0.75919 0.55986 0.0
H811 H 0.64106 0.73745 0.12416 0.0
H812 H 0.69694 0.77329 0.30134 0.0
H813 H 0.62715 0.74142 0.37529 0.0
H814 H 0.66119 0.74414 0.19227 0.0
H815 H 0.66175 0.74625 0.49432 0.0
C816 C 0.68123 0.7593 0.48898 0.0
C817 C 0.69128 0.76739 0.43586 0.0
C818 C 0.65364 0.7433 0.23261 0.0
C819 C 0.66793 0.75259 0.36108 0.0
C820 C 0.64212 0.7394 0.19416 0.0
C821 C 0.63242 0.73897 0.2441 0.0
C822 C 0.65542 0.74657 0.32191 0.0
C823 C 0.6344 0.74172 0.33432 0.0
C824 C 0.66953 0.75199 0.45195 0.0
C825 C 0.68942 0.76724 0.34461 0.0
N826 N 0.64572 0.74547 0.37035 0.0
N827 N 0.67794 0.76 0.31004 0.0
H828 H 0.23409 0.9223 0.55828 0.0
H829 H 0.25613 0.90331 0.12235 0.0
H830 H 0.21988 0.92283 0.29989 0.0
H831 H 0.25228 0.8854 0.37328 0.0
H832 H 0.24928 0.91661 0.19065 0.0
H833 H 0.24717 0.91499 0.49259 0.0
C834 C 0.23397 0.92123 0.4874 0.0
C835 C 0.22581 0.92311 0.43436 0.0
C836 C 0.25018 0.90993 0.2309 0.0
C837 C 0.24078 0.91478 0.35941 0.0
C838 C 0.25417 0.90238 0.19235 0.0
C839 C 0.25468 0.89315 0.24218 0.0
C840 C 0.2469 0.90839 0.32018 0.0
C841 C 0.25192 0.89234 0.3324 0.0
C842 C 0.24137 0.91696 0.45028 0.0
C843 C 0.22598 0.92142 0.3431 0.0
N844 N 0.24808 0.89982 0.36853 0.0
N845 N 0.2333 0.91728 0.30844 0.0
H846 H 0.34954 0.09145 0.89266 0.0
H847 H 0.30866 0.07042 0.45528 0.0
H848 H 0.36404 0.10644 0.63536 0.0
H849 H 0.29428 0.07229 0.71002 0.0
H850 H 0.32881 0.07708 0.52288 0.0
H851 H 0.32928 0.07796 0.82624 0.0
C852 C 0.34857 0.09166 0.82184 0.0
C853 C 0.35848 0.10017 0.76941 0.0
C854 C 0.32116 0.07577 0.56408 0.0
C855 C 0.33534 0.08474 0.69357 0.0
C856 C 0.30962 0.07188 0.52585 0.0
C857 C 0.29978 0.07092 0.57706 0.0
C858 C 0.32282 0.0785 0.65429 0.0
C859 C 0.30164 0.07303 0.66806 0.0
C860 C 0.33698 0.08402 0.78428 0.0
C861 C 0.35663 0.10009 0.67817 0.0
N862 N 0.31298 0.07682 0.70377 0.0
N863 N 0.34524 0.09255 0.64313 0.0
H864 H 0.88581 0.25575 0.63124 0.0
H865 H 0.91901 0.21809 0.71237 0.0
H866 H 0.90075 0.25559 0.88751 0.0
H867 H 0.92257 0.23614 0.46254 0.0
H868 H 0.91232 0.23167 0.77942 0.0
H869 H 0.89917 0.24862 0.56651 0.0
C870 C 0.89209 0.25448 0.6735 0.0
C871 C 0.89214 0.25622 0.76479 0.0
C872 C 0.91484 0.23282 0.71034 0.0
C873 C 0.90713 0.24778 0.69186 0.0
C874 C 0.91863 0.22507 0.67213 0.0
C875 C 0.92128 0.22594 0.58174 0.0
C876 C 0.91337 0.24123 0.65722 0.0
C877 C 0.92063 0.23515 0.53252 0.0
C878 C 0.89971 0.25043 0.63664 0.0
C879 C 0.90044 0.2544 0.81672 0.0
N880 N 0.91648 0.24226 0.57046 0.0
N881 N 0.9074 0.25002 0.77979 0.0
H882 H 0.73724 0.6287 0.63918 0.0
H883 H 0.75589 0.68687 0.46923 0.0
H884 H 0.73919 0.64499 0.89377 0.0
H885 H 0.77684 0.69833 0.71149 0.0
H886 H 0.74233 0.66656 0.5342 0.0
H887 H 0.74426 0.64891 0.57081 0.0
C888 C 0.73882 0.63645 0.68033 0.0
C889 C 0.7376 0.63516 0.77211 0.0
C890 C 0.74984 0.67357 0.57322 0.0
C891 C 0.74576 0.6583 0.69481 0.0
C892 C 0.75752 0.68522 0.53668 0.0
C893 C 0.76768 0.69427 0.5845 0.0
C894 C 0.75226 0.67098 0.65841 0.0
C895 C 0.76924 0.69157 0.6718 0.0
C896 C 0.74277 0.64797 0.64133 0.0
C897 C 0.7399 0.64554 0.82263 0.0
N898 N 0.76166 0.68012 0.7058 0.0
N899 N 0.74416 0.65675 0.78349 0.0
H900 H 0.88331 0.62858 0.62335 0.0
H901 H 0.91876 0.69955 0.70386 0.0
H902 H 0.90027 0.64337 0.87567 0.0
H903 H 0.92105 0.68476 0.45186 0.0
H904 H 0.91152 0.67909 0.76981 0.0
H905 H 0.89654 0.64904 0.55753 0.0
C906 C 0.88998 0.63605 0.66441 0.0
C907 C 0.89067 0.63428 0.75501 0.0
C908 C 0.91387 0.68043 0.70044 0.0
C909 C 0.90551 0.65767 0.68101 0.0
C910 C 0.91799 0.69208 0.6629 0.0
C911 C 0.92049 0.69385 0.57234 0.0
C912 C 0.91191 0.67046 0.64648 0.0
C913 C 0.91928 0.68383 0.52207 0.0
C914 C 0.89752 0.6477 0.62694 0.0
C915 C 0.89945 0.6443 0.80543 0.0
N916 N 0.91482 0.6725 0.55943 0.0
N917 N 0.90634 0.65564 0.76813 0.0
H918 H 0.35158 0.25991 0.87901 0.0
H919 H 0.29384 0.21862 0.70938 0.0
H920 H 0.36334 0.25262 0.62947 0.0
H921 H 0.309 0.23579 0.45824 0.0
H922 H 0.314 0.23221 0.77758 0.0
H923 H 0.33093 0.25244 0.81778 0.0
C924 C 0.34992 0.25701 0.81072 0.0
C925 C 0.35917 0.25671 0.75956 0.0
C926 C 0.31279 0.23324 0.70805 0.0
C927 C 0.33553 0.24805 0.69 0.0
C928 C 0.30132 0.22546 0.66913 0.0
C929 C 0.29975 0.22609 0.57817 0.0
C930 C 0.32279 0.2415 0.65515 0.0
C931 C 0.30977 0.23504 0.52876 0.0
C932 C 0.33809 0.25262 0.77635 0.0
C933 C 0.35645 0.25286 0.6715 0.0
N934 N 0.32096 0.24219 0.56752 0.0
N935 N 0.34482 0.2486 0.63957 0.0
H936 H 0.73682 0.09154 0.88305 0.0
H937 H 0.75704 0.07102 0.4451 0.0
H938 H 0.73797 0.10725 0.62731 0.0
H939 H 0.77284 0.07224 0.70056 0.0
H940 H 0.74371 0.07791 0.51252 0.0
H941 H 0.74364 0.07814 0.81576 0.0
C942 C 0.73817 0.09194 0.81235 0.0
C943 C 0.73693 0.10062 0.76068 0.0
C944 C 0.74992 0.07641 0.55389 0.0
C945 C 0.74468 0.08528 0.68384 0.0
C946 C 0.75747 0.07239 0.51577 0.0
C947 C 0.76616 0.07116 0.56732 0.0
C948 C 0.7509 0.079 0.6443 0.0
C949 C 0.76635 0.07317 0.6584 0.0
C950 C 0.74214 0.08435 0.77432 0.0
C951 C 0.73891 0.10077 0.66957 0.0
N952 N 0.75889 0.07708 0.69401 0.0
N953 N 0.74277 0.09326 0.63403 0.0
H954 H 0.64256 0.9036 0.12085 0.0
H955 H 0.68352 0.92318 0.55722 0.0
H956 H 0.6284 0.88641 0.37359 0.0
H957 H 0.69818 0.92277 0.30031 0.0
H958 H 0.66322 0.91607 0.49069 0.0
H959 H 0.66276 0.91691 0.18859 0.0
C960 C 0.64359 0.90285 0.19108 0.0
C961 C 0.6338 0.89381 0.24168 0.0
C962 C 0.67096 0.9178 0.44886 0.0
C963 C 0.65685 0.90905 0.31901 0.0
C964 C 0.68258 0.92195 0.48644 0.0
C965 C 0.69255 0.92348 0.43416 0.0
C966 C 0.66936 0.91539 0.35825 0.0
C967 C 0.69072 0.92162 0.34299 0.0
C968 C 0.65514 0.91039 0.22933 0.0
C969 C 0.63572 0.8932 0.33217 0.0
N970 N 0.6793 0.91759 0.30787 0.0
N971 N 0.64707 0.90068 0.36798 0.0
H972 H 0.09139 0.7379 0.12383 0.0
H973 H 0.07099 0.75931 0.55544 0.0
H974 H 0.10881 0.74158 0.37658 0.0
H975 H 0.07246 0.77488 0.29861 0.0
H976 H 0.07855 0.74637 0.49076 0.0
H977 H 0.07816 0.74497 0.19006 0.0
C978 C 0.09222 0.73986 0.19381 0.0
C979 C 0.1013 0.73923 0.24479 0.0
C980 C 0.07695 0.75244 0.44851 0.0
C981 C 0.08612 0.74725 0.32038 0.0
C982 C 0.07255 0.75976 0.48498 0.0
C983 C 0.07114 0.76823 0.43218 0.0
C984 C 0.07972 0.75341 0.35845 0.0
C985 C 0.07347 0.76851 0.34157 0.0
C986 C 0.08472 0.74398 0.23115 0.0
C987 C 0.10199 0.74201 0.3349 0.0
N988 N 0.0777 0.76123 0.30748 0.0
N989 N 0.09453 0.74596 0.36988 0.0
H990 H 0.21903 0.2943 0.29671 0.0
H991 H 0.25884 0.35186 0.12196 0.0
H992 H 0.23515 0.31012 0.54895 0.0
H993 H 0.25256 0.36395 0.37352 0.0
H994 H 0.25203 0.33141 0.18488 0.0
H995 H 0.23276 0.31426 0.22718 0.0
C996 C 0.2257 0.30189 0.33704 0.0
C997 C 0.22593 0.30056 0.42866 0.0
C998 C 0.25226 0.33859 0.22638 0.0
C999 C 0.2416 0.32343 0.3499 0.0
C1000 C 0.25628 0.35032 0.19093 0.0
C1001 C 0.25604 0.35958 0.24217 0.0
C1002 C 0.24805 0.33614 0.31376 0.0
C1003 C 0.25269 0.35702 0.33126 0.0
C1004 C 0.23359 0.31326 0.29731 0.0
C1005 C 0.2347 0.31071 0.478 0.0
N1006 N 0.24872 0.34549 0.36406 0.0
N1007 N 0.24197 0.32181 0.43827 0.0
H1008 H 0.96078 0.40414 0.04673 0.0
H1009 H 0.03149 0.44274 0.96569 0.0
H1010 H 0.97604 0.40489 0.79008 0.0
H1011 H 0.01719 0.42482 0.21613 0.0
H1012 H 0.01136 0.42877 0.89852 0.0
H1013 H 0.98125 0.41131 0.11164 0.0
C1014 C 0.96836 0.40553 0.00441 0.0
C1015 C 0.96672 0.40398 0.91296 0.0
C1016 C 0.01274 0.42773 0.96777 0.0
C1017 C 0.99015 0.41248 0.98614 0.0
C1018 C 0.0242 0.43571 0.00607 0.0
C1019 C 0.02599 0.435 0.09665 0.0
C1020 C 0.00293 0.41923 0.02095 0.0
C1021 C 0.01623 0.4257 0.14602 0.0
C1022 C 0.98003 0.40961 0.04137 0.0
C1023 C 0.97687 0.40594 0.86098 0.0
N1024 N 0.00503 0.41836 0.10794 0.0
N1025 N 0.98823 0.41037 0.89804 0.0
H1026 H 0.5512 0.5879 0.96779 0.0
H1027 H 0.58843 0.55435 0.04869 0.0
H1028 H 0.56838 0.5906 0.22002 0.0
H1029 H 0.5891 0.57015 0.79425 0.0
H1030 H 0.58131 0.56765 0.1145 0.0
H1031 H 0.56506 0.58152 0.90144 0.0
C1032 C 0.55806 0.5874 0.00875 0.0
C1033 C 0.5586 0.58972 0.09951 0.0
C1034 C 0.5833 0.56839 0.04458 0.0
C1035 C 0.5742 0.58216 0.02479 0.0
C1036 C 0.58735 0.56081 0.00709 0.0
C1037 C 0.58929 0.56109 0.9159 0.0
C1038 C 0.58086 0.57603 0.99006 0.0
C1039 C 0.58773 0.56963 0.86491 0.0
C1040 C 0.56596 0.58378 0.97094 0.0
C1041 C 0.56765 0.58892 0.1497 0.0
N1042 N 0.58333 0.57655 0.90236 0.0
N1043 N 0.57491 0.58493 0.11205 0.0
H1044 H 0.42252 0.0198 0.7991 0.0
H1045 H 0.40381 0.96168 0.97044 0.0
H1046 H 0.44278 0.03129 0.04417 0.0
H1047 H 0.40496 0.97789 0.22395 0.0
H1048 H 0.41082 0.98187 0.90159 0.0
H1049 H 0.40887 -0.00055 0.86319 0.0
C1050 C 0.42397 0.01815 0.86696 0.0
C1051 C 0.43397 0.02722 0.91592 0.0
C1052 C 0.40915 0.98091 0.97193 0.0
C1053 C 0.41845 0.00389 0.98881 0.0
C1054 C 0.40521 0.96941 0.01121 0.0
C1055 C 0.40378 0.96811 0.10289 0.0
C1056 C 0.41192 0.99121 0.02506 0.0
C1057 C 0.40584 0.97845 0.1529 0.0
C1058 C 0.41624 0.00648 0.903 0.0
C1059 C 0.43531 0.02452 1.00366 0.0
N1060 N 0.4101 0.98965 0.11356 0.0
N1061 N 0.42769 0.01305 0.03717 0.0
H1062 H 0.54953 0.96108 0.96455 0.0
H1063 H 0.5904 0.01831 0.78694 0.0
H1064 H 0.56748 0.9765 0.21307 0.0
H1065 H 0.58534 0.03084 0.04055 0.0
H1066 H 0.5829 -0.00232 0.84884 0.0
H1067 H 0.56316 0.98102 0.89403 0.0
C1068 C 0.55655 0.96857 0.00375 0.0
C1069 C 0.55737 0.96713 0.0947 0.0
C1070 C 0.58356 0.00499 0.89099 0.0
C1071 C 0.5729 0.98996 0.01491 0.0
C1072 C 0.58798 0.01682 0.85616 0.0
C1073 C 0.58831 0.02629 0.90839 0.0
C1074 C 0.57955 0.00265 0.97881 0.0
C1075 C 0.58508 0.02378 0.99766 0.0
C1076 C 0.56437 0.97992 0.96345 0.0
C1077 C 0.56657 0.97717 0.14263 0.0
N1078 N 0.58074 0.01216 0.02995 0.0
N1079 N 0.57378 0.98825 0.10254 0.0
H1080 H 0.01668 0.59068 0.22237 0.0
H1081 H 0.97575 0.57001 0.78527 0.0
H1082 H 0.03105 0.58906 0.96699 0.0
H1083 H 0.96127 0.55466 0.04189 0.0
H1084 H 0.99601 0.58343 0.85192 0.0
H1085 H -0.00351 0.58398 0.15517 0.0
C1086 C 0.0157 0.58926 0.15175 0.0
C1087 C 0.02555 0.59031 0.1002 0.0
C1088 C 0.98831 0.57731 0.89369 0.0
C1089 C 0.00248 0.58269 0.02346 0.0
C1090 C 0.97672 0.5697 0.85602 0.0
C1091 C 0.96682 0.56111 0.90815 0.0
C1092 C 0.98996 0.57647 0.98425 0.0
C1093 C 0.96868 0.56107 0.9993 0.0
C1094 C 0.00415 0.58535 0.11377 0.0
C1095 C 0.02368 0.58825 0.00918 0.0
N1096 N 0.98007 0.56858 0.03447 0.0
N1097 N 0.01232 0.58445 0.9737 0.0
H1098 H 0.42411 0.40472 0.7806 0.0
H1099 H 0.40406 0.42503 0.22047 0.0
H1100 H 0.44027 0.40622 0.03511 0.0
H1101 H 0.40436 0.44021 0.96423 0.0
H1102 H 0.41097 0.41172 0.15275 0.0
H1103 H 0.41056 0.41125 0.84915 0.0
C1104 C 0.42459 0.40608 0.85129 0.0
C1105 C 0.43345 0.40505 0.90219 0.0
C1106 C 0.40926 0.41778 0.11132 0.0
C1107 C 0.41793 0.41247 0.98051 0.0
C1108 C 0.40523 0.42532 0.14962 0.0
C1109 C 0.40375 0.43384 0.09787 0.0
C1110 C 0.4116 0.41861 0.02055 0.0
C1111 C 0.40551 0.43386 0.00655 0.0
C1112 C 0.4169 0.40989 0.89006 0.0
C1113 C 0.43367 0.40702 0.99337 0.0
N1114 N 0.40943 0.42642 0.97078 0.0
N1115 N 0.42608 0.41073 0.02962 0.0
H1116 H 0.15634 0.40817 0.84981 0.0
H1117 H 0.13202 0.41524 0.37727 0.0
H1118 H 0.12188 0.40786 0.81351 0.0
H1119 H 0.15364 0.39731 0.41449 0.0
H1120 H 0.13233 0.41833 0.53733 0.0
H1121 H 0.15949 0.40999 0.68941 0.0
C1122 C 0.14958 0.40875 0.80827 0.0
C1123 C 0.1388 0.4078 0.84474 0.0
C1124 C 0.13713 0.41386 0.51006 0.0
C1125 C 0.14238 0.40995 0.66221 0.0
C1126 C 0.13702 0.41216 0.41892 0.0
C1127 C 0.14274 0.40593 0.38276 0.0
C1128 C 0.14321 0.40953 0.56501 0.0
C1129 C 0.14901 0.40205 0.4398 0.0
C1130 C 0.15134 0.4097 0.71696 0.0
C1131 C 0.13027 0.40847 0.78791 0.0
N1132 N 0.14908 0.40391 0.5281 0.0
N1133 N 0.13223 0.40949 0.69945 0.0
H1134 H 0.60303 0.72806 0.80858 0.0
H1135 H 0.56842 0.72281 0.37119 0.0
H1136 H 0.56988 0.7305 0.83765 0.0
H1137 H 0.60681 0.7506 0.40743 0.0
H1138 H 0.56634 0.72004 0.53306 0.0
H1139 H 0.60209 0.73023 0.64987 0.0
C1140 C 0.59542 0.72887 0.78156 0.0
C1141 C 0.5865 0.72908 0.83669 0.0
C1142 C 0.57512 0.72683 0.50479 0.0
C1143 C 0.58536 0.73142 0.65424 0.0
C1144 C 0.57634 0.72837 0.4129 0.0
C1145 C 0.5878 0.73697 0.37572 0.0
C1146 C 0.58552 0.73367 0.55861 0.0
C1147 C 0.59777 0.74393 0.43282 0.0
C1148 C 0.59495 0.73016 0.69098 0.0
C1149 C 0.57695 0.73032 0.79743 0.0
N1150 N 0.59645 0.74198 0.52097 0.0
N1151 N 0.57657 0.73138 0.70799 0.0
H1152 H 0.27122 0.84559 0.36911 0.0
H1153 H 0.26578 0.87493 0.80651 0.0
H1154 H 0.24338 0.85613 0.40493 0.0
H1155 H 0.26377 0.83953 0.83526 0.0
H1156 H 0.2636 0.87183 0.64777 0.0
H1157 H 0.27402 0.84637 0.53097 0.0
C1158 C 0.26565 0.84796 0.41074 0.0
C1159 C 0.25702 0.85076 0.37344 0.0
C1160 C 0.26376 0.8648 0.68882 0.0
C1161 C 0.26037 0.8519 0.55632 0.0
C1162 C 0.26507 0.86656 0.7794 0.0
C1163 C 0.26497 0.85747 0.83446 0.0
C1164 C 0.26261 0.85399 0.65198 0.0
C1165 C 0.26385 0.84674 0.79511 0.0
C1166 C 0.26722 0.84833 0.50262 0.0
C1167 C 0.25007 0.8538 0.43043 0.0
N1168 N 0.26277 0.8453 0.70567 0.0
N1169 N 0.25204 0.85448 0.51857 0.0
H1170 H 0.41373 0.13337 0.63331 0.0
H1171 H 0.40652 0.15748 0.16041 0.0
H1172 H 0.39536 0.15457 0.59564 0.0
H1173 H 0.4066 0.12321 0.19693 0.0
H1174 H 0.40818 0.16058 0.32087 0.0
H1175 H 0.41684 0.13369 0.47331 0.0
C1176 C 0.41055 0.13827 0.59157 0.0
C1177 C 0.4042 0.14388 0.62762 0.0
C1178 C 0.40801 0.15249 0.29337 0.0
C1179 C 0.40784 0.14437 0.44538 0.0
C1180 C 0.40716 0.15076 0.20202 0.0
C1181 C 0.40636 0.14005 0.16558 0.0
C1182 C 0.40832 0.14357 0.34819 0.0
C1183 C 0.40709 0.13155 0.2225 0.0
C1184 C 0.41227 0.13839 0.50046 0.0
C1185 C 0.4002 0.15003 0.57044 0.0
N1186 N 0.40802 0.13349 0.31099 0.0
N1187 N 0.40208 0.15011 0.48214 0.0
H1188 H 0.8372 0.23965 0.59921 0.0
H1189 H 0.87119 0.28256 0.19503 0.0
H1190 H 0.8603 0.27915 0.63067 0.0
H1191 H 0.83605 0.24902 0.16398 0.0
H1192 H 0.86788 0.2814 0.35452 0.0
H1193 H 0.83699 0.24255 0.43983 0.0
C1194 C 0.84211 0.24895 0.57259 0.0
C1195 C 0.84881 0.25918 0.62819 0.0
C1196 C 0.8608 0.2744 0.31274 0.0
C1197 C 0.84879 0.26253 0.44575 0.0
C1198 C 0.8627 0.27503 0.22177 0.0
C1199 C 0.85388 0.26585 0.16626 0.0
C1200 C 0.85017 0.26434 0.34883 0.0
C1201 C 0.84304 0.25631 0.20442 0.0
C1202 C 0.84195 0.2506 0.4817 0.0
C1203 C 0.85498 0.27103 0.59018 0.0
N1204 N 0.84159 0.25568 0.29357 0.0
N1205 N 0.85501 0.27236 0.5011 0.0
H1206 H 0.74458 0.58594 0.16987 0.0
H1207 H 0.7139 0.58042 0.64292 0.0
H1208 H 0.71169 0.58859 0.20693 0.0
H1209 H 0.75327 0.59646 0.60552 0.0
H1210 H 0.71101 0.57758 0.48275 0.0
H1211 H 0.74581 0.58398 0.33017 0.0
C1212 C 0.73749 0.58586 0.21156 0.0
C1213 C 0.72805 0.58749 0.17528 0.0
C1214 C 0.72025 0.58157 0.50999 0.0
C1215 C 0.72936 0.58517 0.35778 0.0
C1216 C 0.7219 0.58312 0.60119 0.0
C1217 C 0.73385 0.58875 0.63734 0.0
C1218 C 0.7306 0.58545 0.45496 0.0
C1219 C 0.74391 0.59218 0.58021 0.0
C1220 C 0.73824 0.58482 0.30282 0.0
C1221 C 0.71916 0.58744 0.23234 0.0
N1222 N 0.74206 0.59048 0.49184 0.0
N1223 N 0.72003 0.58631 0.32077 0.0
H1224 H 0.84417 0.56991 0.63032 0.0
H1225 H 0.87298 0.60499 0.19347 0.0
H1226 H 0.85357 0.60798 0.59398 0.0
H1227 H 0.83779 0.57139 0.16343 0.0
H1228 H 0.86985 0.60385 0.35224 0.0
H1229 H 0.84501 0.56792 0.46845 0.0
C1230 C 0.8463 0.57778 0.58859 0.0
C1231 C 0.84877 0.58912 0.62574 0.0
C1232 C 0.86288 0.59666 0.31087 0.0
C1233 C 0.84997 0.58695 0.44291 0.0
C1234 C 0.86466 0.59725 0.22028 0.0
C1235 C 0.85562 0.58826 0.16487 0.0
C1236 C 0.85213 0.58688 0.34733 0.0
C1237 C 0.84495 0.57852 0.20386 0.0
C1238 C 0.84671 0.5766 0.49672 0.0
C1239 C 0.85151 0.59903 0.56862 0.0
N1240 N 0.8435 0.57804 0.2933 0.0
N1241 N 0.85222 0.59776 0.48052 0.0
H1242 H 0.38908 0.26783 0.1901 0.0
H1243 H 0.4233 0.2723 0.62797 0.0
H1244 H 0.4219 0.26477 0.16175 0.0
H1245 H 0.38471 0.24512 0.59159 0.0
H1246 H 0.42544 0.27503 0.46612 0.0
H1247 H 0.38985 0.26551 0.34877 0.0
C1248 C 0.39658 0.26685 0.21728 0.0
C1249 C 0.40546 0.26651 0.16235 0.0
C1250 C 0.4166 0.26838 0.49435 0.0
C1251 C 0.40641 0.26399 0.34479 0.0
C1252 C 0.41534 0.26686 0.58623 0.0
C1253 C 0.40381 0.25845 0.62337 0.0
C1254 C 0.40617 0.26172 0.44046 0.0
C1255 C 0.3938 0.25165 0.56622 0.0
C1256 C 0.39695 0.26547 0.30783 0.0
C1257 C 0.41486 0.26506 0.2018 0.0
N1258 N 0.39517 0.25358 0.47806 0.0
N1259 N 0.41516 0.26391 0.29124 0.0
H1260 H 0.75358 0.1554 0.59271 0.0
H1261 H 0.71043 0.12186 0.18864 0.0
H1262 H 0.71405 0.13263 0.6245 0.0
H1263 H 0.74419 0.15682 0.15772 0.0
H1264 H 0.71166 0.12512 0.3482 0.0
H1265 H 0.75066 0.15567 0.43339 0.0
C1266 C 0.74427 0.15057 0.56619 0.0
C1267 C 0.73403 0.14395 0.62187 0.0
C1268 C 0.71869 0.13217 0.30644 0.0
C1269 C 0.73067 0.14405 0.43949 0.0
C1270 C 0.71802 0.13031 0.21543 0.0
C1271 C 0.72723 0.13909 0.15994 0.0
C1272 C 0.72883 0.14272 0.34258 0.0
C1273 C 0.73685 0.14986 0.19815 0.0
C1274 C 0.74262 0.15077 0.47532 0.0
C1275 C 0.72218 0.13788 0.58396 0.0
N1276 N 0.73753 0.15128 0.28733 0.0
N1277 N 0.72084 0.1379 0.49492 0.0
H1278 H 0.57074 0.83926 0.84183 0.0
H1279 H 0.60878 0.85757 0.40609 0.0
H1280 H 0.60332 0.87517 0.80751 0.0
H1281 H 0.57003 0.8458 0.37556 0.0
H1282 H 0.60664 0.85846 0.56499 0.0
H1283 H 0.56984 0.83638 0.67993 0.0
C1284 C 0.57761 0.84653 0.80052 0.0
C1285 C 0.58708 0.85749 0.83821 0.0
C1286 C 0.59858 0.85555 0.52347 0.0
C1287 C 0.58624 0.85413 0.65542 0.0
C1288 C 0.59975 0.85498 0.4328 0.0
C1289 C 0.58956 0.85161 0.37721 0.0
C1290 C 0.58709 0.85249 0.55979 0.0
C1291 C 0.57812 0.8485 0.4161 0.0
C1292 C 0.57705 0.8449 0.70863 0.0
C1293 C 0.59578 0.86662 0.78167 0.0
N1294 N 0.57715 0.84896 0.50555 0.0
N1295 N 0.59526 0.86465 0.69359 0.0
H1296 H 0.13782 0.75038 0.40681 0.0
H1297 H 0.15567 0.73081 0.84302 0.0
H1298 H 0.14879 0.72278 0.37557 0.0
H1299 H 0.11958 0.72697 0.80652 0.0
H1300 H 0.15859 0.73254 0.68114 0.0
H1301 H 0.13688 0.74729 0.56556 0.0
C1302 C 0.14022 0.74379 0.43331 0.0
C1303 C 0.14339 0.73682 0.37756 0.0
C1304 C 0.15001 0.73115 0.70939 0.0
C1305 C 0.14245 0.7334 0.56003 0.0
C1306 C 0.14836 0.73023 0.80126 0.0
C1307 C 0.13735 0.7287 0.83835 0.0
C1308 C 0.14074 0.73091 0.65555 0.0
C1309 C 0.12818 0.72804 0.7812 0.0
C1310 C 0.13963 0.74202 0.52392 0.0
C1311 C 0.14626 0.7283 0.41624 0.0
N1312 N 0.13016 0.72934 0.69311 0.0
N1313 N 0.14577 0.72684 0.50569 0.0
H1314 H 0.27841 0.41478 0.37698 0.0
H1315 H 0.24717 0.40793 0.84968 0.0
H1316 H 0.23888 0.39691 0.4144 0.0
H1317 H 0.28122 0.40745 0.81333 0.0
H1318 H 0.24579 0.40967 0.68924 0.0
H1319 H 0.28122 0.41786 0.53702 0.0
C1320 C 0.27034 0.41171 0.41868 0.0
C1321 C 0.25839 0.4055 0.38256 0.0
C1322 C 0.25364 0.40936 0.71678 0.0
C1323 C 0.26154 0.4091 0.56481 0.0
C1324 C 0.25448 0.40846 0.80812 0.0
C1325 C 0.26429 0.40748 0.8446 0.0
C1326 C 0.26281 0.40954 0.662 0.0
C1327 C 0.27346 0.40808 0.78773 0.0
C1328 C 0.27195 0.41341 0.5098 0.0
C1329 C 0.24825 0.40164 0.43966 0.0
N1330 N 0.27249 0.40907 0.69924 0.0
N1331 N 0.25005 0.40349 0.52797 0.0
H1332 H 0.78588 0.72354 0.14825 0.0
H1333 H 0.81513 0.75837 0.71078 0.0
H1334 H 0.8212 0.75703 0.17691 0.0
H1335 H 0.80475 0.72003 0.74665 0.0
H1336 H 0.81435 0.76039 0.87263 0.0
H1337 H 0.789 0.72446 0.98952 0.0
C1338 C 0.79423 0.73122 0.12113 0.0
C1339 C 0.8033 0.74024 0.17616 0.0
C1340 C 0.81242 0.75163 0.84429 0.0
C1341 C 0.80679 0.74136 0.99368 0.0
C1342 C 0.8128 0.75045 0.75242 0.0
C1343 C 0.81004 0.73902 0.71513 0.0
C1344 C 0.80889 0.74122 0.89802 0.0
C1345 C 0.80704 0.72904 0.77214 0.0
C1346 C 0.796 0.73168 0.03055 0.0
C1347 C 0.81401 0.74987 0.13679 0.0
N1348 N 0.80636 0.73032 0.86029 0.0
N1349 N 0.81546 0.75024 0.04735 0.0
H1350 H 0.25131 0.07943 0.18066 0.0
H1351 H 0.24498 0.04839 0.70789 0.0
H1352 H 0.25289 0.04595 0.14397 0.0
H1353 H 0.26194 0.08785 0.74515 0.0
H1354 H 0.24203 0.04554 0.86805 0.0
H1355 H 0.24937 0.08069 0.02035 0.0
C1356 C 0.25099 0.07222 0.13906 0.0
C1357 C 0.25233 0.06261 0.17542 0.0
C1358 C 0.24625 0.0548 0.84077 0.0
C1359 C 0.25003 0.06395 0.99294 0.0
C1360 C 0.24786 0.05642 0.74958 0.0
C1361 C 0.25378 0.06838 0.71341 0.0
C1362 C 0.25035 0.06518 0.89575 0.0
C1363 C 0.25743 0.07849 0.77048 0.0
C1364 C 0.24997 0.07299 0.04779 0.0
C1365 C 0.25198 0.05356 0.11848 0.0
N1366 N 0.25566 0.07666 0.85883 0.0
N1367 N 0.25087 0.05445 0.03005 0.0
H1368 H 0.93783 0.17854 0.70583 0.0
H1369 H 0.93227 0.20784 0.14267 0.0
H1370 H 0.90978 0.18879 0.74187 0.0
H1371 H 0.93001 0.17233 0.17253 0.0
H1372 H 0.93022 0.20473 0.98391 0.0
H1373 H 0.94064 0.17934 0.86772 0.0
C1374 C 0.93222 0.18085 0.7475 0.0
C1375 C 0.92353 0.18357 0.71027 0.0
C1376 C 0.93031 0.19768 0.02523 0.0
C1377 C 0.92689 0.18472 0.89311 0.0
C1378 C 0.93153 0.19944 0.11582 0.0
C1379 C 0.93132 0.19032 0.17118 0.0
C1380 C 0.92912 0.18684 0.98871 0.0
C1381 C 0.93017 0.17957 0.13214 0.0
C1382 C 0.93379 0.18123 0.83938 0.0
C1383 C 0.91652 0.18653 0.7673 0.0
N1384 N 0.92917 0.17812 0.0427 0.0
N1385 N 0.91849 0.18722 0.85542 0.0
H1386 H 0.05066 0.47118 0.93382 0.0
H1387 H 0.08871 0.48972 0.498 0.0
H1388 H 0.08949 0.48325 0.96418 0.0
H1389 H 0.05623 0.45374 0.53224 0.0
H1390 H 0.08961 0.49259 0.65991 0.0
H1391 H 0.05281 0.47031 0.77492 0.0
C1392 C 0.05971 0.47384 0.90706 0.0
C1393 C 0.06992 0.4773 0.96259 0.0
C1394 C 0.08242 0.48405 0.63119 0.0
C1395 C 0.0724 0.47642 0.78002 0.0
C1396 C 0.08187 0.48243 0.53929 0.0
C1397 C 0.07242 0.47145 0.50158 0.0
C1398 C 0.07325 0.4748 0.68438 0.0
C1399 C 0.06374 0.46231 0.5581 0.0
C1400 C 0.06088 0.47327 0.81639 0.0
C1401 C 0.08138 0.48049 0.92367 0.0
N1402 N 0.06426 0.46427 0.64618 0.0
N1403 N 0.08235 0.48003 0.83421 0.0
H1404 H 0.50359 0.59745 0.49942 0.0
H1405 H 0.5224 0.57811 0.93516 0.0
H1406 H 0.53965 0.60115 0.53335 0.0
H1407 H 0.51006 0.60466 0.96547 0.0
H1408 H 0.52322 0.5811 0.77621 0.0
H1409 H 0.50073 0.59542 0.66133 0.0
C1410 C 0.5109 0.59793 0.54064 0.0
C1411 C 0.5219 0.59954 0.50284 0.0
C1412 C 0.5202 0.58617 0.81769 0.0
C1413 C 0.51856 0.59695 0.68564 0.0
C1414 C 0.51967 0.58445 0.90838 0.0
C1415 C 0.51615 0.59115 0.96391 0.0
C1416 C 0.51696 0.59447 0.7813 0.0
C1417 C 0.51286 0.59935 0.92497 0.0
C1418 C 0.50928 0.59683 0.63253 0.0
C1419 C 0.53107 0.60004 0.55928 0.0
N1420 N 0.5133 0.60076 0.8355 0.0
N1421 N 0.52911 0.59857 0.64735 0.0
H1422 H 0.37748 0.92173 0.53788 0.0
H1423 H 0.42007 0.92946 0.9417 0.0
H1424 H 0.4105 0.91917 0.5063 0.0
H1425 H 0.38067 0.9138 0.97338 0.0
H1426 H 0.41713 0.92651 0.78222 0.0
H1427 H 0.37862 0.91954 0.69738 0.0
C1428 C 0.38489 0.92055 0.5645 0.0
C1429 C 0.39393 0.92065 0.50882 0.0
C1430 C 0.40911 0.92355 0.82416 0.0
C1431 C 0.39541 0.9184 0.69138 0.0
C1432 C 0.41078 0.92526 0.91511 0.0
C1433 C 0.4006 0.92189 0.9708 0.0
C1434 C 0.39721 0.91873 0.78827 0.0
C1435 C 0.38876 0.91648 0.93282 0.0
C1436 C 0.38551 0.91927 0.65546 0.0
C1437 C 0.40331 0.91908 0.54684 0.0
N1438 N 0.38741 0.91526 0.8437 0.0
N1439 N 0.40394 0.91823 0.63597 0.0
H1440 H 0.5101 0.90331 0.97175 0.0
H1441 H 0.53935 0.93834 0.53453 0.0
H1442 H 0.52047 0.94165 0.93631 0.0
H1443 H 0.50411 0.90477 0.50569 0.0
H1444 H 0.53625 0.93735 0.69331 0.0
H1445 H 0.51094 0.90134 0.80987 0.0
C1446 C 0.51244 0.91125 0.9302 0.0
C1447 C 0.51517 0.92265 0.9676 0.0
C1448 C 0.52926 0.93013 0.65223 0.0
C1449 C 0.51639 0.92051 0.78472 0.0
C1450 C 0.53102 0.93063 0.56162 0.0
C1451 C 0.52197 0.9216 0.50654 0.0
C1452 C 0.5185 0.92041 0.68905 0.0
C1453 C 0.51129 0.91193 0.54587 0.0
C1454 C 0.51285 0.91009 0.83831 0.0
C1455 C 0.51819 0.93266 0.91072 0.0
N1456 N 0.50985 0.91152 0.63531 0.0
N1457 N 0.5189 0.9314 0.82258 0.0
H1458 H 0.06305 0.57298 0.9326 0.0
H1459 H 0.07331 0.61638 0.52863 0.0
H1460 H 0.08037 0.61256 0.96452 0.0
H1461 H 0.07397 0.58234 0.49761 0.0
H1462 H 0.07527 0.61508 0.68822 0.0
H1463 H 0.06624 0.57588 0.77325 0.0
C1464 C 0.06765 0.5823 0.90611 0.0
C1465 C 0.07143 0.59256 0.96184 0.0
C1466 C 0.07519 0.608 0.64643 0.0
C1467 C 0.07488 0.5959 0.77944 0.0
C1468 C 0.07404 0.60871 0.55541 0.0
C1469 C 0.07347 0.59944 0.49988 0.0
C1470 C 0.07543 0.59776 0.68253 0.0
C1471 C 0.07445 0.58971 0.53807 0.0
C1472 C 0.0695 0.58394 0.81523 0.0
C1473 C 0.07736 0.60441 0.92395 0.0
N1474 N 0.07516 0.589 0.62725 0.0
N1475 N 0.07872 0.60575 0.8349 0.0
H1476 H 0.41155 0.49057 0.49012 0.0
H1477 H 0.38061 0.46589 0.96317 0.0
H1478 H 0.37787 0.45569 0.52686 0.0
H1479 H 0.42009 0.48804 0.9254 0.0
H1480 H 0.37774 0.46606 0.80315 0.0
H1481 H 0.41294 0.49368 0.65055 0.0
C1482 C 0.40432 0.4837 0.53177 0.0
C1483 C 0.39461 0.47283 0.49539 0.0
C1484 C 0.38701 0.471 0.83027 0.0
C1485 C 0.3961 0.47637 0.67799 0.0
C1486 C 0.38865 0.47097 0.9214 0.0
C1487 C 0.40061 0.47689 0.95743 0.0
C1488 C 0.39738 0.47722 0.77516 0.0
C1489 C 0.41072 0.48327 0.90022 0.0
C1490 C 0.40516 0.48545 0.6231 0.0
C1491 C 0.38555 0.46417 0.55237 0.0
N1492 N 0.40888 0.48326 0.8119 0.0
N1493 N 0.38651 0.46611 0.64086 0.0
H1494 H 0.23722 0.17202 0.17353 0.0
H1495 H 0.27469 0.18996 0.73705 0.0
H1496 H 0.26963 0.20801 0.1375 0.0
H1497 H 0.23604 0.17866 0.70659 0.0
H1498 H 0.27261 0.19097 0.89581 0.0
H1499 H 0.23604 0.16914 0.01163 0.0
C1500 C 0.24399 0.17931 0.13187 0.0
C1501 C 0.25351 0.19029 0.1691 0.0
C1502 C 0.26456 0.18814 0.85435 0.0
C1503 C 0.25235 0.18693 0.98627 0.0
C1504 C 0.26569 0.1875 0.76376 0.0
C1505 C 0.25551 0.18421 0.70823 0.0
C1506 C 0.25312 0.18524 0.89069 0.0
C1507 C 0.24412 0.18128 0.74711 0.0
C1508 C 0.24327 0.17769 0.03998 0.0
C1509 C 0.26207 0.19944 0.11207 0.0
N1510 N 0.24319 0.18181 0.83656 0.0
N1511 N 0.26139 0.19747 0.02396 0.0
H1512 H 0.78762 0.04509 0.13792 0.0
H1513 H 0.82099 0.08844 0.73418 0.0
H1514 H 0.82243 0.07899 0.16926 0.0
H1515 H 0.79863 0.04887 0.7021 0.0
H1516 H 0.82121 0.08553 0.89358 0.0
H1517 H 0.79089 0.04641 0.97833 0.0
C1518 C 0.79603 0.05273 0.11122 0.0
C1519 C 0.80477 0.06196 0.16685 0.0
C1520 C 0.8164 0.07747 0.85156 0.0
C1521 C 0.80842 0.06365 0.9842 0.0
C1522 C 0.81624 0.07912 0.76066 0.0
C1523 C 0.80975 0.06888 0.70486 0.0
C1524 C 0.80977 0.06551 0.88731 0.0
C1525 C 0.80378 0.05702 0.74272 0.0
C1526 C 0.7979 0.05345 0.0202 0.0
C1527 C 0.8155 0.07165 0.12873 0.0
N1528 N 0.80375 0.05567 0.83179 0.0
N1529 N 0.81693 0.07237 0.03956 0.0
H1530 H 0.93829 0.75816 0.69652 0.0
H1531 H 0.93195 0.72303 0.13334 0.0
H1532 H 0.90961 0.7201 0.73267 0.0
H1533 H 0.93045 0.75669 0.16333 0.0
H1534 H 0.92997 0.72418 0.97457 0.0
H1535 H 0.94111 0.76014 0.85841 0.0
C1536 C 0.93255 0.7503 0.73821 0.0
C1537 C 0.92368 0.73896 0.701 0.0
C1538 C 0.93021 0.73138 0.01592 0.0
C1539 C 0.92704 0.74111 0.88385 0.0
C1540 C 0.93139 0.73079 0.10652 0.0
C1541 C 0.93138 0.73979 0.16191 0.0
C1542 C 0.92925 0.74117 0.97945 0.0
C1543 C 0.93046 0.74954 0.12291 0.0
C1544 C 0.93412 0.75146 0.83009 0.0
C1545 C 0.9165 0.72905 0.75807 0.0
N1546 N 0.92949 0.75003 0.03347 0.0
N1547 N 0.91847 0.7303 0.84619 0.0
H1548 H 0.47054 0.05243 0.08056 0.0
H1549 H 0.48854 0.09038 0.51609 0.0
H1550 H 0.48173 0.09105 0.04938 0.0
H1551 H 0.45269 0.05774 0.48132 0.0
H1552 H 0.49144 0.09135 0.35419 0.0
H1553 H 0.4697 0.05461 0.23943 0.0
C1554 C 0.47301 0.06144 0.1071 0.0
C1555 C 0.47621 0.07159 0.05134 0.0
C1556 C 0.48292 0.08411 0.38281 0.0
C1557 C 0.47538 0.07409 0.23389 0.0
C1558 C 0.48128 0.08351 0.47469 0.0
C1559 C 0.47033 0.074 0.51225 0.0
C1560 C 0.47372 0.07492 0.32948 0.0
C1561 C 0.46123 0.0653 0.45559 0.0
C1562 C 0.47247 0.06263 0.19777 0.0
C1563 C 0.47917 0.083 0.09005 0.0
N1564 N 0.46321 0.06587 0.36753 0.0
N1565 N 0.47874 0.08398 0.1795 0.0
H1566 H 0.91171 0.38177 0.04563 0.0
H1567 H 0.91865 0.41302 0.51834 0.0
H1568 H 0.92941 0.42129 0.08286 0.0
H1569 H 0.91935 0.37908 0.48175 0.0
H1570 H 0.91679 0.41435 0.358 0.0
H1571 H 0.9087 0.37896 0.20575 0.0
C1572 C 0.91475 0.38983 0.0873 0.0
C1573 C 0.92089 0.40178 0.05113 0.0
C1574 C 0.91718 0.40654 0.38546 0.0
C1575 C 0.91739 0.39863 0.23344 0.0
C1576 C 0.91815 0.40573 0.47675 0.0
C1577 C 0.91922 0.39596 0.51314 0.0
C1578 C 0.91702 0.39739 0.33063 0.0
C1579 C 0.91865 0.38681 0.45622 0.0
C1580 C 0.9131 0.38822 0.17847 0.0
C1581 C 0.92473 0.41192 0.10818 0.0
N1582 N 0.9176 0.38775 0.36778 0.0
N1583 N 0.92292 0.41012 0.19653 0.0
H1584 H 0.61518 0.54045 0.482 0.0
H1585 H 0.57256 0.50587 0.07793 0.0
H1586 H 0.58194 0.50505 0.51332 0.0
H1587 H 0.61199 0.52939 0.04653 0.0
H1588 H 0.57546 0.50578 0.23737 0.0
H1589 H 0.61408 0.5371 0.32255 0.0
C1590 C 0.60773 0.5319 0.45534 0.0
C1591 C 0.59861 0.52302 0.51092 0.0
C1592 C 0.5835 0.51081 0.19552 0.0
C1593 C 0.59718 0.51926 0.32841 0.0
C1594 C 0.58185 0.5109 0.10459 0.0
C1595 C 0.59206 0.51768 0.04899 0.0
C1596 C 0.5954 0.51781 0.2315 0.0
C1597 C 0.60389 0.524 0.08704 0.0
C1598 C 0.60713 0.52998 0.36441 0.0
C1599 C 0.58918 0.5121 0.47285 0.0
N1600 N 0.60522 0.5241 0.17616 0.0
N1601 N 0.58858 0.51062 0.38374 0.0
H1602 H 0.74047 0.82414 0.82818 0.0
H1603 H 0.74669 0.79921 0.30063 0.0
H1604 H 0.73906 0.78915 0.86447 0.0
H1605 H 0.72978 0.82178 0.2636 0.0
H1606 H 0.74974 0.79943 0.14055 0.0
H1607 H 0.74241 0.82731 0.98856 0.0
C1608 C 0.74083 0.81726 0.86971 0.0
C1609 C 0.73954 0.80634 0.83325 0.0
C1610 C 0.74551 0.80446 0.16787 0.0
C1611 C 0.74182 0.80993 0.01576 0.0
C1612 C 0.74383 0.80439 0.25902 0.0
C1613 C 0.73789 0.81041 0.29522 0.0
C1614 C 0.74145 0.81079 0.11296 0.0
C1615 C 0.73429 0.81692 0.23825 0.0
C1616 C 0.74185 0.81903 0.96101 0.0
C1617 C 0.73994 0.79766 0.89007 0.0
N1618 N 0.73612 0.81693 0.14993 0.0
N1619 N 0.74103 0.79963 0.97851 0.0
H1620 H 0.19393 0.9466 0.29917 0.0
H1621 H 0.16903 0.91556 0.82654 0.0
H1622 H 0.17139 0.90713 0.26191 0.0
H1623 H 0.20408 0.94906 0.86302 0.0
H1624 H 0.16586 0.91431 0.98691 0.0
H1625 H 0.19374 0.94945 0.1391 0.0
C1626 C 0.18876 0.93856 0.2575 0.0
C1627 C 0.18274 0.9266 0.29364 0.0
C1628 C 0.17415 0.92201 0.9594 0.0
C1629 C 0.18239 0.92981 0.11139 0.0
C1630 C 0.17593 0.92278 0.86811 0.0
C1631 C 0.18686 0.93239 0.83169 0.0
C1632 C 0.18327 0.93105 0.0142 0.0
C1633 C 0.19556 0.94145 0.88857 0.0
C1634 C 0.18871 0.94019 0.16636 0.0
C1635 C 0.17624 0.9165 0.2366 0.0
N1636 N 0.19358 0.94055 0.97701 0.0
N1637 N 0.17625 0.91833 0.14829 0.0
H1638 H 0.08702 0.26372 0.26742 0.0
H1639 H 0.04371 0.2535 0.8632 0.0
H1640 H 0.04746 0.24654 0.29918 0.0
H1641 H 0.07774 0.25282 0.83252 0.0
H1642 H 0.04497 0.25151 0.02279 0.0
H1643 H 0.08414 0.26049 0.10813 0.0
C1644 C 0.07771 0.25915 0.2409 0.0
C1645 C 0.06746 0.25543 0.29657 0.0
C1646 C 0.05205 0.2516 0.98108 0.0
C1647 C 0.06412 0.25191 0.11421 0.0
C1648 C 0.05136 0.25276 0.89006 0.0
C1649 C 0.06064 0.25333 0.83463 0.0
C1650 C 0.06228 0.25135 0.01729 0.0
C1651 C 0.07035 0.25234 0.87291 0.0
C1652 C 0.07608 0.25726 0.15005 0.0
C1653 C 0.05561 0.24951 0.25866 0.0
N1654 N 0.07104 0.25161 0.9621 0.0
N1655 N 0.05427 0.24812 0.16962 0.0
H1656 H 0.17096 0.26342 0.26563 0.0
H1657 H 0.20448 0.25365 0.86193 0.0
H1658 H 0.19341 0.24631 0.29767 0.0
H1659 H 0.16963 0.25265 0.83045 0.0
H1660 H 0.2012 0.25167 0.02151 0.0
H1661 H 0.17079 0.26034 0.1062 0.0
C1662 C 0.17574 0.25889 0.23914 0.0
C1663 C 0.18224 0.25513 0.29493 0.0
C1664 C 0.19418 0.25169 0.97961 0.0
C1665 C 0.18227 0.25181 0.11245 0.0
C1666 C 0.19606 0.25285 0.8886 0.0
C1667 C 0.18731 0.25333 0.83293 0.0
C1668 C 0.18364 0.25133 0.01556 0.0
C1669 C 0.17656 0.25225 0.871 0.0
C1670 C 0.1756 0.2571 0.14822 0.0
C1671 C 0.18825 0.24929 0.25705 0.0
N1672 N 0.17512 0.25152 0.96016 0.0
N1673 N 0.1883 0.248 0.16797 0.0
H1674 H 0.74187 0.91594 0.82965 0.0
H1675 H 0.74759 0.947 0.30174 0.0
H1676 H 0.73956 0.94903 0.86576 0.0
H1677 H 0.73152 0.90761 0.26516 0.0
H1678 H 0.75059 0.94984 0.14158 0.0
H1679 H 0.74401 0.91486 0.98992 0.0
C1680 C 0.74207 0.92311 0.8711 0.0
C1681 C 0.74045 0.93254 0.83462 0.0
C1682 C 0.74657 0.94061 0.16903 0.0
C1683 C 0.74298 0.93142 0.01703 0.0
C1684 C 0.74492 0.93899 0.26021 0.0
C1685 C 0.73922 0.92704 0.29652 0.0
C1686 C 0.74271 0.93024 0.11424 0.0
C1687 C 0.73585 0.91697 0.23969 0.0
C1688 C 0.74321 0.92244 0.96235 0.0
C1689 C 0.74067 0.94154 0.89136 0.0
N1690 N 0.73763 0.91878 0.15136 0.0
N1691 N 0.74189 0.94076 0.97976 0.0
H1692 H 0.06275 0.8231 0.82893 0.0
H1693 H 0.0822 0.8045 0.26453 0.0
H1694 H 0.05903 0.78702 0.86335 0.0
H1695 H 0.05532 0.81642 0.2954 0.0
H1696 H 0.0792 0.8037 0.10563 0.0
H1697 H 0.06473 0.82597 0.99084 0.0
C1698 C 0.06226 0.81579 0.87026 0.0
C1699 C 0.06066 0.80478 0.8326 0.0
C1700 C 0.07407 0.80662 0.14722 0.0
C1701 C 0.06319 0.80813 0.01538 0.0
C1702 C 0.07579 0.80714 0.2379 0.0
C1703 C 0.06899 0.81053 0.29358 0.0
C1704 C 0.06567 0.80975 0.111 0.0
C1705 C 0.06071 0.81371 0.25479 0.0
C1706 C 0.06333 0.81741 0.96215 0.0
C1707 C 0.06013 0.79561 0.88917 0.0
N1708 N 0.05929 0.81329 0.16533 0.0
N1709 N 0.06158 0.79757 0.97724 0.0
H1710 H 0.92948 0.50615 0.07725 0.0
H1711 H 0.91869 0.5388 0.48162 0.0
H1712 H 0.91185 0.52813 0.04565 0.0
H1713 H 0.91861 0.50438 0.51213 0.0
H1714 H 0.9167 0.53555 0.32206 0.0
H1715 H 0.92622 0.50573 0.23651 0.0
C1716 C 0.9248 0.51078 0.1038 0.0
C1717 C 0.92096 0.51722 0.04819 0.0
C1718 C 0.91692 0.52861 0.36373 0.0
C1719 C 0.91741 0.51696 0.23053 0.0
C1720 C 0.91808 0.53047 0.45473 0.0
C1721 C 0.91883 0.52184 0.5101 0.0
C1722 C 0.91683 0.51822 0.32746 0.0
C1723 C 0.91799 0.51121 0.47179 0.0
C1724 C 0.9229 0.51049 0.19464 0.0
C1725 C 0.91491 0.52302 0.08614 0.0
N1726 N 0.91726 0.5098 0.3826 0.0
N1727 N 0.91351 0.52293 0.17518 0.0
H1728 H 0.49048 0.41326 0.50564 0.0
H1729 H 0.46531 0.38211 0.03356 0.0
H1730 H 0.45526 0.37995 0.46959 0.0
H1731 H 0.48833 0.42153 0.07012 0.0
H1732 H 0.46551 0.37928 0.19371 0.0
H1733 H 0.49368 0.41437 0.34533 0.0
C1734 C 0.48355 0.40605 0.46419 0.0
C1735 C 0.47256 0.39654 0.50069 0.0
C1736 C 0.47064 0.38852 0.16626 0.0
C1737 C 0.47619 0.39772 0.31826 0.0
C1738 C 0.47059 0.39013 0.07508 0.0
C1739 C 0.47674 0.40207 0.03876 0.0
C1740 C 0.47708 0.3989 0.22104 0.0
C1741 C 0.48337 0.41217 0.09559 0.0
C1742 C 0.48535 0.40674 0.37292 0.0
C1743 C 0.46382 0.3875 0.44397 0.0
N1744 N 0.48336 0.41036 0.18392 0.0
N1745 N 0.46581 0.38831 0.35555 0.0
H1746 H 0.61157 0.08159 0.04242 0.0
H1747 H 0.58053 0.07525 0.51524 0.0
H1748 H 0.57209 0.06444 0.0798 0.0
H1749 H 0.61415 0.07393 0.47861 0.0
H1750 H 0.57921 0.07708 0.35485 0.0
H1751 H 0.61441 0.08458 0.20251 0.0
C1752 C 0.60352 0.07867 0.08412 0.0
C1753 C 0.59157 0.07268 0.04798 0.0
C1754 C 0.58696 0.07656 0.38232 0.0
C1755 C 0.59476 0.07617 0.23029 0.0
C1756 C 0.58776 0.0756 0.47363 0.0
C1757 C 0.59743 0.07437 0.51003 0.0
C1758 C 0.59602 0.07654 0.32748 0.0
C1759 C 0.60649 0.07476 0.45309 0.0
C1760 C 0.60515 0.08031 0.17528 0.0
C1761 C 0.58146 0.06899 0.10508 0.0
N1762 N 0.60557 0.07581 0.36463 0.0
N1763 N 0.58328 0.07078 0.19342 0.0
H1764 H 0.06287 0.42829 0.18642 0.0
H1765 H 0.12854 0.43228 0.13255 0.0
H1766 H 0.09784 0.46244 0.20474 0.0
H1767 H 0.09358 0.39798 0.13496 0.0
H1768 H 0.11747 0.4436 0.15434 0.0
H1769 H 0.07401 0.41716 0.16079 0.0
C1770 C 0.07289 0.43347 0.18478 0.0
C1771 C 0.07943 0.44632 0.1983 0.0
C1772 C 0.11223 0.4336 0.15016 0.0
C1773 C 0.09224 0.43361 0.16915 0.0
C1774 C 0.11854 0.42712 0.13777 0.0
C1775 C 0.11197 0.41415 0.13166 0.0
C1776 C 0.09927 0.42706 0.15633 0.0
C1777 C 0.09903 0.40797 0.13916 0.0
C1778 C 0.07925 0.42709 0.17032 0.0
C1779 C 0.09241 0.45253 0.19506 0.0
N1780 N 0.0931 0.41449 0.15091 0.0
N1781 N 0.0984 0.4461 0.18102 0.0
H1782 H 0.56507 0.63353 0.19135 0.0
H1783 H 0.56036 0.69478 0.13596 0.0
H1784 H 0.53067 0.6339 0.20593 0.0
H1785 H 0.59492 0.69465 0.14454 0.0
H1786 H 0.54925 0.67241 0.15838 0.0
H1787 H 0.57607 0.65585 0.16836 0.0
C1788 C 0.55981 0.63829 0.1894 0.0
C1789 C 0.54693 0.63183 0.20105 0.0
C1790 C 0.55926 0.67729 0.15554 0.0
C1791 C 0.55949 0.65742 0.17503 0.0
C1792 C 0.56562 0.69006 0.14283 0.0
C1793 C 0.57859 0.6966 0.13797 0.0
C1794 C 0.56592 0.671 0.16322 0.0
C1795 C 0.58491 0.69 0.14767 0.0
C1796 C 0.56611 0.65105 0.17654 0.0
C1797 C 0.54061 0.6385 0.19762 0.0
N1798 N 0.57851 0.67755 0.1595 0.0
N1799 N 0.54696 0.65094 0.18508 0.0
H1800 H 0.35997 0.93147 0.20996 0.0
H1801 H 0.2991 0.86567 0.13795 0.0
H1802 H 0.35956 0.89664 0.21874 0.0
H1803 H 0.29904 0.90026 0.14704 0.0
H1804 H 0.3213 0.87689 0.16661 0.0
H1805 H 0.33769 0.92022 0.18422 0.0
C1806 C 0.35521 0.92146 0.20637 0.0
C1807 C 0.36165 0.91498 0.21681 0.0
C1808 C 0.31643 0.88202 0.16251 0.0
C1809 C 0.33614 0.90206 0.18747 0.0
C1810 C 0.30374 0.87562 0.14616 0.0
C1811 C 0.2972 0.88204 0.13962 0.0
C1812 C 0.32263 0.89495 0.17221 0.0
C1813 C 0.3037 0.89493 0.15129 0.0
C1814 C 0.34248 0.91504 0.19186 0.0
C1815 C 0.35498 0.90202 0.21136 0.0
N1816 N 0.31608 0.90097 0.1667 0.0
N1817 N 0.34259 0.89598 0.19708 0.0
H1818 H 0.43076 0.12981 0.87679 0.0
H1819 H 0.427 0.06421 0.82524 0.0
H1820 H 0.39651 0.0948 0.87466 0.0
H1821 H 0.46111 0.09924 0.80846 0.0
H1822 H 0.41578 0.07529 0.84944 0.0
H1823 H 0.44212 0.11878 0.85561 0.0
C1824 C 0.42562 0.11981 0.87173 0.0
C1825 C 0.41266 0.11322 0.87782 0.0
C1826 C 0.42572 0.08056 0.84056 0.0
C1827 C 0.42562 0.10055 0.85386 0.0
C1828 C 0.43215 0.07424 0.82695 0.0
C1829 C 0.44501 0.08081 0.8143 0.0
C1830 C 0.4322 0.09355 0.84175 0.0
C1831 C 0.45118 0.09379 0.81751 0.0
C1832 C 0.43212 0.11352 0.8597 0.0
C1833 C 0.40649 0.10027 0.87049 0.0
N1834 N 0.44471 0.09974 0.83072 0.0
N1835 N 0.41304 0.09436 0.85911 0.0
H1836 H 0.8946 0.36124 0.80198 0.0
H1837 H 0.89876 0.29979 0.86631 0.0
H1838 H 0.92894 0.36067 0.80818 0.0
H1839 H 0.86448 0.30043 0.87811 0.0
H1840 H 0.90988 0.32205 0.84076 0.0
H1841 H 0.88332 0.33892 0.82714 0.0
C1842 C 0.89977 0.35643 0.80871 0.0
C1843 C 0.91273 0.36283 0.80261 0.0
C1844 C 0.89992 0.31733 0.84895 0.0
C1845 C 0.89988 0.3373 0.83125 0.0
C1846 C 0.89356 0.3046 0.86342 0.0
C1847 C 0.88067 0.29823 0.87477 0.0
C1848 C 0.89336 0.32376 0.84555 0.0
C1849 C 0.87443 0.30497 0.87005 0.0
C1850 C 0.89332 0.34369 0.82306 0.0
C1851 C 0.91895 0.35612 0.81219 0.0
N1852 N 0.88084 0.31738 0.85588 0.0
N1853 N 0.91245 0.34372 0.82582 0.0
H1854 H 0.63281 0.53292 0.80258 0.0
H1855 H 0.69385 0.59856 0.8767 0.0
H1856 H 0.63299 0.56763 0.80995 0.0
H1857 H 0.69325 0.56364 0.88534 0.0
H1858 H 0.67162 0.58742 0.84866 0.0
H1859 H 0.65504 0.54406 0.8305 0.0
C1860 C 0.63752 0.54288 0.8101 0.0
C1861 C 0.63103 0.54935 0.80358 0.0
C1862 C 0.67635 0.5822 0.85674 0.0
C1863 C 0.65648 0.56217 0.83549 0.0
C1864 C 0.68905 0.58855 0.87263 0.0
C1865 C 0.69542 0.58202 0.88375 0.0
C1866 C 0.66997 0.56922 0.85167 0.0
C1867 C 0.68872 0.56906 0.87755 0.0
C1868 C 0.65021 0.54924 0.82608 0.0
C1869 C 0.63761 0.56226 0.81428 0.0
N1870 N 0.67635 0.56308 0.86197 0.0
N1871 N 0.64999 0.56825 0.82952 0.0
H1872 H 0.89854 0.59752 0.85174 0.0
H1873 H 0.89469 0.53188 0.80055 0.0
H1874 H 0.86446 0.56248 0.86954 0.0
H1875 H 0.929 0.56684 0.80201 0.0
H1876 H 0.88339 0.54296 0.82214 0.0
H1877 H 0.90977 0.58644 0.82769 0.0
C1878 C 0.8934 0.5875 0.8503 0.0
C1879 C 0.88054 0.58092 0.86316 0.0
C1880 C 0.89339 0.5482 0.81783 0.0
C1881 C 0.89336 0.56818 0.83586 0.0
C1882 C 0.89985 0.54188 0.80556 0.0
C1883 C 0.91281 0.54844 0.79916 0.0
C1884 C 0.89992 0.56117 0.8236 0.0
C1885 C 0.91901 0.56139 0.80643 0.0
C1886 C 0.89983 0.58117 0.83678 0.0
C1887 C 0.87438 0.56794 0.86035 0.0
N1888 N 0.9125 0.56733 0.81805 0.0
N1889 N 0.88086 0.56199 0.84717 0.0
H1890 H 0.42707 0.36187 0.79199 0.0
H1891 H 0.43177 0.30081 0.86211 0.0
H1892 H 0.46156 0.36158 0.78668 0.0
H1893 H 0.39723 0.30091 0.84775 0.0
H1894 H 0.4429 0.32309 0.83515 0.0
H1895 H 0.41603 0.33954 0.81497 0.0
C1896 C 0.43233 0.35712 0.79576 0.0
C1897 C 0.44527 0.36361 0.78712 0.0
C1898 C 0.43289 0.31823 0.83769 0.0
C1899 C 0.43266 0.33803 0.81333 0.0
C1900 C 0.42652 0.3055 0.85303 0.0
C1901 C 0.41355 0.29899 0.8577 0.0
C1902 C 0.42623 0.32448 0.82715 0.0
C1903 C 0.40723 0.30555 0.84503 0.0
C1904 C 0.42601 0.34436 0.80869 0.0
C1905 C 0.45158 0.35695 0.79271 0.0
N1906 N 0.41364 0.31794 0.83068 0.0
N1907 N 0.44521 0.34452 0.80547 0.0
H1908 H 0.63209 0.0985 0.79946 0.0
H1909 H 0.69336 0.09397 0.86134 0.0
H1910 H 0.63232 0.06398 0.80402 0.0
H1911 H 0.69281 0.12832 0.87076 0.0
H1912 H 0.67106 0.08286 0.83672 0.0
H1913 H 0.6544 0.10961 0.82357 0.0
C1914 C 0.63682 0.09325 0.80563 0.0
C1915 C 0.63033 0.08029 0.79936 0.0
C1916 C 0.67582 0.09283 0.84416 0.0
C1917 C 0.65588 0.09296 0.82681 0.0
C1918 C 0.68856 0.09919 0.85807 0.0
C1919 C 0.69497 0.1121 0.86852 0.0
C1920 C 0.66942 0.09942 0.84045 0.0
C1921 C 0.68826 0.11836 0.86341 0.0
C1922 C 0.64957 0.09961 0.81937 0.0
C1923 C 0.63695 0.07398 0.80823 0.0
N1924 N 0.67584 0.11196 0.84984 0.0
N1925 N 0.64937 0.08038 0.8213 0.0
H1926 H 0.53032 0.8956 0.20784 0.0
H1927 H 0.59641 0.90078 0.14753 0.0
H1928 H 0.56481 0.93034 0.19757 0.0
H1929 H 0.5617 0.86625 0.13784 0.0
H1930 H 0.58503 0.91172 0.17118 0.0
H1931 H 0.54171 0.88465 0.18501 0.0
C1932 C 0.54028 0.90094 0.20052 0.0
C1933 C 0.54662 0.91391 0.20501 0.0
C1934 C 0.57991 0.90175 0.16394 0.0
C1935 C 0.55972 0.90142 0.17923 0.0
C1936 C 0.5864 0.89548 0.15071 0.0
C1937 C 0.58 0.88257 0.14022 0.0
C1938 C 0.56692 0.89506 0.16698 0.0
C1939 C 0.56703 0.87621 0.14516 0.0
C1940 C 0.54678 0.89467 0.18758 0.0
C1941 C 0.55954 0.92033 0.19473 0.0
N1942 N 0.56092 0.88253 0.15802 0.0
N1943 N 0.56566 0.91401 0.18263 0.0
H1944 H 0.12876 0.69461 0.13773 0.0
H1945 H 0.06277 0.63369 0.20237 0.0
H1946 H 0.09419 0.69472 0.14711 0.0
H1947 H 0.09747 0.63385 0.2108 0.0
H1948 H 0.07414 0.65601 0.17886 0.0
H1949 H 0.11746 0.67232 0.16318 0.0
C1950 C 0.1188 0.68996 0.14537 0.0
C1951 C 0.11241 0.69654 0.13985 0.0
C1952 C 0.07927 0.65117 0.18588 0.0
C1953 C 0.09942 0.67101 0.16871 0.0
C1954 C 0.07278 0.63841 0.19912 0.0
C1955 C 0.07918 0.63189 0.20892 0.0
C1956 C 0.09225 0.65746 0.18214 0.0
C1957 C 0.09215 0.6385 0.2039 0.0
C1958 C 0.11235 0.67722 0.15985 0.0
C1959 C 0.0995 0.69003 0.15064 0.0
N1960 N 0.09826 0.65093 0.19092 0.0
N1961 N 0.09343 0.67761 0.16424 0.0
H1962 H 0.29898 0.43172 0.13375 0.0
H1963 H 0.36032 0.42736 0.19788 0.0
H1964 H 0.29936 0.39728 0.13922 0.0
H1965 H 0.35973 0.46169 0.20707 0.0
H1966 H 0.33803 0.41624 0.1727 0.0
H1967 H 0.32129 0.44291 0.15849 0.0
C1968 C 0.30374 0.4265 0.14025 0.0
C1969 C 0.29729 0.41354 0.13406 0.0
C1970 C 0.34278 0.42621 0.18024 0.0
C1971 C 0.32283 0.4263 0.16222 0.0
C1972 C 0.35551 0.43258 0.19448 0.0
C1973 C 0.3619 0.44548 0.20501 0.0
C1974 C 0.33637 0.43279 0.17626 0.0
C1975 C 0.35518 0.45174 0.19968 0.0
C1976 C 0.31649 0.4329 0.15435 0.0
C1977 C 0.30395 0.40727 0.14333 0.0
N1978 N 0.34277 0.44532 0.18577 0.0
N1979 N 0.31637 0.41372 0.15675 0.0
H1980 H 0.79487 0.76613 0.47698 0.0
H1981 H 0.72877 0.7608 0.54194 0.0
H1982 H 0.76043 0.73134 0.48794 0.0
H1983 H 0.76342 0.79541 0.54685 0.0
H1984 H 0.74019 0.74985 0.51998 0.0
H1985 H 0.78348 0.77702 0.50237 0.0
C1986 C 0.78492 0.76077 0.48498 0.0
C1987 C 0.77859 0.7478 0.47984 0.0
C1988 C 0.74529 0.75984 0.52592 0.0
C1989 C 0.76549 0.76022 0.50862 0.0
C1990 C 0.73878 0.7661 0.53825 0.0
C1991 C 0.74515 0.77904 0.54654 0.0
C1992 C 0.75827 0.76656 0.52157 0.0
C1993 C 0.75812 0.78542 0.5411 0.0
C1994 C 0.77842 0.767 0.49943 0.0
C1995 C 0.7657 0.74135 0.49114 0.0
N1996 N 0.76425 0.77911 0.52899 0.0
N1997 N 0.75957 0.74764 0.50466 0.0
H1998 H 0.22796 0.02798 0.46527 0.0
H1999 H 0.23233 0.96673 0.5349 0.0
H2000 H 0.2624 0.0276 0.47151 0.0
H2001 H 0.19802 0.96734 0.54359 0.0
H2002 H 0.24345 0.98899 0.5083 0.0
H2003 H 0.21678 0.00571 0.49188 0.0
C2004 C 0.23318 0.02322 0.47228 0.0
C2005 C 0.24614 0.02967 0.46579 0.0
C2006 C 0.23349 0.98425 0.51606 0.0
C2007 C 0.23339 0.00417 0.49617 0.0
C2008 C 0.22712 0.97154 0.53113 0.0
C2009 C 0.21422 0.96516 0.54186 0.0
C2010 C 0.22691 0.99065 0.51142 0.0
C2011 C 0.20797 0.97188 0.53605 0.0
C2012 C 0.22678 0.0105 0.48749 0.0
C2013 C 0.25241 0.02302 0.47581 0.0
N2014 N 0.21438 0.98427 0.52128 0.0
N2015 N 0.24596 0.01063 0.49031 0.0
H2016 H 0.96557 0.19847 0.47071 0.0
H2017 H 0.02652 0.26434 0.53865 0.0
H2018 H 0.9655 0.23305 0.48264 0.0
H2019 H 0.02626 0.22958 0.54497 0.0
H2020 H 0.0042 0.25304 0.51495 0.0
H2021 H 0.98785 0.20972 0.49666 0.0
C2022 C 0.97023 0.20843 0.47901 0.0
C2023 C 0.96366 0.21484 0.47404 0.0
C2024 C 0.00902 0.24788 0.52157 0.0
C2025 C 0.98917 0.22776 0.50348 0.0
C2026 C 0.02178 0.25433 0.53489 0.0
C2027 C 0.02827 0.2479 0.54413 0.0
C2028 C 0.00271 0.2349 0.51716 0.0
C2029 C 0.02164 0.23493 0.5385 0.0
C2030 C 0.98295 0.21484 0.49378 0.0
C2031 C 0.97018 0.22773 0.48571 0.0
N2032 N 0.00921 0.22886 0.52543 0.0
N2033 N 0.98259 0.23377 0.49957 0.0
H2034 H 0.26298 0.23342 0.48118 0.0
H2035 H 0.19718 0.22895 0.54173 0.0
H2036 H 0.22809 0.19914 0.46606 0.0
H2037 H 0.23197 0.26342 0.53642 0.0
H2038 H 0.20836 0.21779 0.51792 0.0
H2039 H 0.25177 0.24448 0.5073 0.0
C2040 C 0.25297 0.2282 0.4836 0.0
C2041 C 0.24647 0.21533 0.47094 0.0
C2042 C 0.21354 0.22779 0.52189 0.0
C2043 C 0.23358 0.22795 0.50066 0.0
C2044 C 0.20717 0.23418 0.53543 0.0
C2045 C 0.21365 0.24714 0.54137 0.0
C2046 C 0.22649 0.23442 0.51438 0.0
C2047 C 0.22658 0.25343 0.53243 0.0
C2048 C 0.24657 0.23453 0.49832 0.0
C2049 C 0.23349 0.20907 0.47506 0.0
N2050 N 0.23258 0.247 0.51959 0.0
N2051 N 0.22747 0.21545 0.48942 0.0
H2052 H 0.79489 0.02793 0.46184 0.0
H2053 H 0.72935 0.9669 0.53856 0.0
H2054 H 0.7601 0.02761 0.46809 0.0
H2055 H 0.76427 0.96749 0.54702 0.0
H2056 H 0.74047 0.98911 0.51032 0.0
H2057 H 0.78382 0.00574 0.49174 0.0
C2058 C 0.78493 0.0232 0.46954 0.0
C2059 C 0.77841 0.02963 0.46205 0.0
C2060 C 0.7457 0.98438 0.51844 0.0
C2061 C 0.76569 0.00424 0.49621 0.0
C2062 C 0.73936 0.97169 0.53447 0.0
C2063 C 0.74589 0.96532 0.54547 0.0
C2064 C 0.75867 0.99076 0.5131 0.0
C2065 C 0.75885 0.97203 0.53924 0.0
C2066 C 0.77861 0.01053 0.48665 0.0
C2067 C 0.76551 0.02303 0.47307 0.0
N2068 N 0.76482 0.98439 0.52348 0.0
N2069 N 0.75957 0.01068 0.48939 0.0
H2070 H 0.96518 0.73067 0.47339 0.0
H2071 H 0.02668 0.79639 0.53038 0.0
H2072 H 0.96596 0.76564 0.45755 0.0
H2073 H 0.02629 0.76156 0.52578 0.0
H2074 H 0.00437 0.78526 0.50599 0.0
H2075 H 0.9875 0.74182 0.49726 0.0
C2076 C 0.97003 0.74069 0.4752 0.0
C2077 C 0.96369 0.74723 0.46305 0.0
C2078 C 0.00917 0.78006 0.51013 0.0
C2079 C 0.98925 0.76005 0.49011 0.0
C2080 C 0.02192 0.78641 0.52398 0.0
C2081 C 0.02837 0.7799 0.53054 0.0
C2082 C 0.00281 0.7671 0.50298 0.0
C2083 C 0.02171 0.76697 0.52136 0.0
C2084 C 0.98279 0.74705 0.48858 0.0
C2085 C 0.97047 0.76022 0.46625 0.0
N2086 N 0.00928 0.76099 0.50837 0.0
N2087 N 0.98289 0.7662 0.47936 0.0
H2088 H 0.23375 0.41783 0.14622 0.0
H2089 H 0.16192 0.38151 0.02392 0.0
H2090 H 0.21417 0.38125 0.03221 0.0
H2091 H 0.17964 0.41722 0.15138 0.0
H2092 H 0.18199 0.38306 0.00562 0.0
H2093 H 0.21506 0.4195 0.12896 0.0
C2094 C 0.22558 0.41023 0.11662 0.0
C2095 C 0.22542 0.3993 0.09204 0.0
C2096 C 0.18156 0.39063 0.03713 0.0
C2097 C 0.20415 0.40114 0.07199 0.0
C2098 C 0.17008 0.38972 0.04774 0.0
C2099 C 0.16911 0.39915 0.0907 0.0
C2100 C 0.19219 0.40096 0.07069 0.0
C2101 C 0.18 0.40971 0.11857 0.0
C2102 C 0.21494 0.41118 0.10694 0.0
C2103 C 0.21464 0.38975 0.05364 0.0
N2104 N 0.19112 0.41026 0.10926 0.0
N2105 N 0.20443 0.39087 0.04544 0.0
H2106 H 0.57388 0.75998 0.12674 0.0
H2107 H 0.61056 0.83155 0.99951 0.0
H2108 H 0.61016 0.77899 0.00766 0.0
H2109 H 0.57527 0.81425 0.13279 0.0
H2110 H 0.6085 0.81129 0.97783 0.0
H2111 H 0.57225 0.77863 0.10638 0.0
C2112 C 0.58141 0.768 0.09518 0.0
C2113 C 0.59227 0.76805 0.07041 0.0
C2114 C 0.60113 0.81186 0.0112 0.0
C2115 C 0.59047 0.78929 0.04693 0.0
C2116 C 0.60232 0.82344 0.02373 0.0
C2117 C 0.59319 0.82458 0.06957 0.0
C2118 C 0.59081 0.80131 0.04582 0.0
C2119 C 0.58258 0.81377 0.09787 0.0
C2120 C 0.58049 0.77863 0.08375 0.0
C2121 C 0.60172 0.77864 0.02939 0.0
N2122 N 0.58176 0.80256 0.08681 0.0
N2123 N 0.60064 0.78885 0.0197 0.0
H2124 H 0.18066 0.75967 0.12747 0.0
H2125 H 0.21574 0.83109 0.99644 0.0
H2126 H 0.16346 0.77872 0.00769 0.0
H2127 H 0.23372 0.81376 0.12945 0.0
H2128 H 0.19748 0.81086 0.97563 0.0
H2129 H 0.20097 0.77821 0.10553 0.0
C2130 C 0.18117 0.76768 0.09545 0.0
C2131 C 0.17037 0.76777 0.07095 0.0
C2132 C 0.20543 0.81142 0.00872 0.0
C2133 C 0.19345 0.78888 0.04562 0.0
C2134 C 0.21586 0.82298 0.02073 0.0
C2135 C 0.22614 0.8241 0.06628 0.0
C2136 C 0.20518 0.80087 0.04364 0.0
C2137 C 0.22592 0.81328 0.09472 0.0
C2138 C 0.19275 0.77824 0.0831 0.0
C2139 C 0.17154 0.77834 0.02926 0.0
N2140 N 0.21549 0.80209 0.08425 0.0
N2141 N 0.18286 0.78849 0.01869 0.0
H2142 H 0.38001 0.16328 0.98587 0.0
H2143 H 0.41748 0.23527 0.87041 0.0
H2144 H 0.41606 0.18086 0.86329 0.0
H2145 H 0.38106 0.21624 0.98732 0.0
H2146 H 0.4188 0.21638 0.88689 0.0
H2147 H 0.38192 0.18347 0.00684 0.0
C2148 C 0.38837 0.17143 0.96362 0.0
C2149 C 0.3978 0.1704 0.92129 0.0
C2150 C 0.4106 0.21642 0.90985 0.0
C2151 C 0.40002 0.19361 0.94453 0.0
C2152 C 0.40985 0.22719 0.90069 0.0
C2153 C 0.39905 0.22722 0.92607 0.0
C2154 C 0.40048 0.20571 0.94495 0.0
C2155 C 0.38947 0.21654 0.96527 0.0
C2156 C 0.38948 0.18298 0.97584 0.0
C2157 C 0.40854 0.18127 0.89551 0.0
N2158 N 0.39037 0.20621 0.97274 0.0
N2159 N 0.40929 0.19246 0.90638 0.0
H2160 H 0.82942 0.21639 0.99474 0.0
H2161 H 0.75809 0.18071 0.85886 0.0
H2162 H 0.8122 0.2342 0.85795 0.0
H2163 H 0.77735 0.16387 0.98054 0.0
H2164 H 0.77662 0.20113 0.87902 0.0
H2165 H 0.80925 0.19798 0.01262 0.0
C2166 C 0.82134 0.21643 0.9689 0.0
C2167 C 0.82248 0.22672 0.92335 0.0
C2168 C 0.7767 0.19296 0.90213 0.0
C2169 C 0.7993 0.20557 0.9426 0.0
C2170 C 0.76615 0.18133 0.8908 0.0
C2171 C 0.7663 0.1706 0.91659 0.0
C2172 C 0.78737 0.19378 0.94002 0.0
C2173 C 0.77692 0.17189 0.95805 0.0
C2174 C 0.8098 0.20591 0.97921 0.0
C2175 C 0.81169 0.22639 0.89284 0.0
N2176 N 0.78704 0.18324 0.96781 0.0
N2177 N 0.80053 0.21587 0.90175 0.0
H2178 H 0.81173 0.57516 0.87139 0.0
H2179 H 0.77688 0.61163 0.00486 0.0
H2180 H 0.8288 0.61089 0.99852 0.0
H2181 H 0.75878 0.57659 0.86847 0.0
H2182 H 0.79498 0.60941 0.02603 0.0
H2183 H 0.79141 0.57347 0.89183 0.0
C2184 C 0.81118 0.58254 0.90481 0.0
C2185 C 0.82195 0.59329 0.93176 0.0
C2186 C 0.78705 0.60212 0.99202 0.0
C2187 C 0.79889 0.59143 0.95527 0.0
C2188 C 0.77671 0.60341 0.97975 0.0
C2189 C 0.76645 0.5944 0.93331 0.0
C2190 C 0.78722 0.59182 0.95641 0.0
C2191 C 0.76659 0.5838 0.9039 0.0
C2192 C 0.7996 0.58159 0.91625 0.0
C2193 C 0.82074 0.60255 0.97508 0.0
N2194 N 0.77694 0.58289 0.91464 0.0
N2195 N 0.80945 0.60145 0.98471 0.0
H2196 H 0.84707 0.75336 0.46386 0.0
H2197 H 0.88228 0.71749 0.32352 0.0
H2198 H 0.82987 0.71719 0.34322 0.0
H2199 H 0.90026 0.75253 0.46002 0.0
H2200 H 0.86397 0.71944 0.305 0.0
H2201 H 0.86741 0.75529 0.43934 0.0
C2202 C 0.84759 0.74592 0.43114 0.0
C2203 C 0.83678 0.73499 0.4071 0.0
C2204 C 0.87193 0.72678 0.33834 0.0
C2205 C 0.85989 0.73714 0.37876 0.0
C2206 C 0.88239 0.72566 0.34898 0.0
C2207 C 0.89268 0.73474 0.39489 0.0
C2208 C 0.87166 0.73698 0.37502 0.0
C2209 C 0.89244 0.74526 0.42493 0.0
C2210 C 0.85918 0.74701 0.4173 0.0
C2211 C 0.83795 0.72566 0.36447 0.0
N2212 N 0.88198 0.746 0.41582 0.0
N2213 N 0.84928 0.72691 0.35241 0.0
H2214 H 0.27778 0.11164 0.34936 0.0
H2215 H 0.2411 0.14691 0.46437 0.0
H2216 H 0.24212 0.09375 0.47756 0.0
H2217 H 0.27705 0.16363 0.3406 0.0
H2218 H 0.23948 0.12656 0.44933 0.0
H2219 H 0.27583 0.12984 0.32487 0.0
C2220 C 0.2695 0.11154 0.37208 0.0
C2221 C 0.2602 0.10128 0.41707 0.0
C2222 C 0.24764 0.13468 0.42445 0.0
C2223 C 0.25793 0.12218 0.38991 0.0
C2224 C 0.24855 0.14627 0.43279 0.0
C2225 C 0.25933 0.15697 0.40519 0.0
C2226 C 0.25755 0.13385 0.38797 0.0
C2227 C 0.26868 0.15564 0.36438 0.0
C2228 C 0.26836 0.12193 0.35785 0.0
C2229 C 0.24955 0.10154 0.44333 0.0
N2230 N 0.26762 0.14432 0.35781 0.0
N2231 N 0.24878 0.11193 0.43059 0.0
H2232 H 0.82883 0.11159 0.33878 0.0
H2233 H 0.90054 0.14667 0.46163 0.0
H2234 H 0.84639 0.09356 0.46823 0.0
H2235 H 0.88135 0.16379 0.34311 0.0
H2236 H 0.88189 0.12636 0.44253 0.0
H2237 H 0.84901 0.12987 0.31707 0.0
C2238 C 0.83698 0.11148 0.36228 0.0
C2239 C 0.83594 0.10117 0.40693 0.0
C2240 C 0.88184 0.13456 0.41975 0.0
C2241 C 0.85913 0.12214 0.38305 0.0
C2242 C 0.89247 0.14613 0.43043 0.0
C2243 C 0.89238 0.15692 0.40546 0.0
C2244 C 0.87114 0.13385 0.38349 0.0
C2245 C 0.88174 0.15573 0.36495 0.0
C2246 C 0.84852 0.12191 0.34968 0.0
C2247 C 0.8468 0.1014 0.43424 0.0
N2248 N 0.87153 0.14442 0.35601 0.0
N2249 N 0.85798 0.11183 0.42312 0.0
H2250 H 0.04793 0.54986 0.32797 0.0
H2251 H 0.08447 0.51462 0.20649 0.0
H2252 H 0.0834 0.56779 0.19707 0.0
H2253 H 0.04855 0.49778 0.33076 0.0
H2254 H 0.08607 0.53495 0.22263 0.0
H2255 H 0.04986 0.53161 0.35024 0.0
C2256 C 0.05617 0.54996 0.30424 0.0
C2257 C 0.06541 0.56025 0.25916 0.0
C2258 C 0.07792 0.52681 0.24732 0.0
C2259 C 0.06766 0.53929 0.2837 0.0
C2260 C 0.07702 0.51522 0.23834 0.0
C2261 C 0.06626 0.5045 0.26587 0.0
C2262 C 0.06802 0.5276 0.28441 0.0
C2263 C 0.05691 0.50579 0.30704 0.0
C2264 C 0.0573 0.53954 0.31716 0.0
C2265 C 0.07601 0.55999 0.23148 0.0
N2266 N 0.05796 0.5171 0.31429 0.0
N2267 N 0.07678 0.54956 0.24299 0.0
H2268 H 0.49603 0.54993 0.33973 0.0
H2269 H 0.42497 0.5141 0.19609 0.0
H2270 H 0.4789 0.56769 0.20124 0.0
H2271 H 0.44431 0.49713 0.3146 0.0
H2272 H 0.44337 0.53452 0.21929 0.0
H2273 H 0.47588 0.53138 0.35481 0.0
C2274 C 0.48798 0.54994 0.31307 0.0
C2275 C 0.48915 0.56026 0.26773 0.0
C2276 C 0.4435 0.52632 0.24098 0.0
C2277 C 0.46601 0.53896 0.28371 0.0
C2278 C 0.43302 0.51468 0.22788 0.0
C2279 C 0.43323 0.50392 0.25198 0.0
C2280 C 0.45415 0.52711 0.279 0.0
C2281 C 0.44384 0.50518 0.29337 0.0
C2282 C 0.47646 0.53934 0.32171 0.0
C2283 C 0.47839 0.55987 0.23602 0.0
N2284 N 0.45388 0.51654 0.30494 0.0
N2285 N 0.46725 0.54928 0.24334 0.0
H2286 H 0.4782 0.90858 0.21436 0.0
H2287 H 0.44315 0.94511 0.34041 0.0
H2288 H 0.49519 0.94455 0.33811 0.0
H2289 H 0.42523 0.90986 0.20662 0.0
H2290 H 0.46129 0.94299 0.36338 0.0
H2291 H 0.45787 0.90688 0.23343 0.0
C2292 C 0.47763 0.91602 0.24674 0.0
C2293 C 0.48839 0.92683 0.27313 0.0
C2294 C 0.45338 0.93564 0.32956 0.0
C2295 C 0.4653 0.92496 0.29507 0.0
C2296 C 0.44303 0.93687 0.31626 0.0
C2297 C 0.4328 0.92776 0.27 0.0
C2298 C 0.45361 0.92531 0.2952 0.0
C2299 C 0.433 0.91715 0.24186 0.0
C2300 C 0.46605 0.91506 0.25741 0.0
C2301 C 0.48715 0.93616 0.31513 0.0
N2302 N 0.44337 0.9163 0.25361 0.0
N2303 N 0.47584 0.93505 0.324 0.0
H2304 H 0.54836 0.04927 0.68358 0.0
H2305 H 0.51355 0.08606 0.80838 0.0
H2306 H 0.56653 0.08471 0.81484 0.0
H2307 H 0.49661 0.05044 0.67966 0.0
H2308 H 0.53384 0.08761 0.79113 0.0
H2309 H 0.53025 0.05142 0.661 0.0
C2310 C 0.54854 0.05755 0.70735 0.0
C2311 C 0.55885 0.06671 0.75264 0.0
C2312 C 0.52569 0.07955 0.76566 0.0
C2313 C 0.53805 0.06922 0.72775 0.0
C2314 C 0.51413 0.07868 0.77528 0.0
C2315 C 0.50339 0.068 0.74695 0.0
C2316 C 0.52643 0.06969 0.72716 0.0
C2317 C 0.50464 0.05873 0.70412 0.0
C2318 C 0.5382 0.0588 0.69421 0.0
C2319 C 0.5587 0.07737 0.78032 0.0
N2320 N 0.51592 0.05974 0.69634 0.0
N2321 N 0.54835 0.07826 0.76868 0.0
H2322 H 0.94552 0.44545 0.69274 0.0
H2323 H 0.90877 0.48068 0.81025 0.0
H2324 H 0.90958 0.42731 0.817 0.0
H2325 H 0.94542 0.49781 0.69734 0.0
H2326 H 0.90723 0.46038 0.79371 0.0
H2327 H 0.94391 0.46393 0.67343 0.0
C2328 C 0.93724 0.44535 0.71565 0.0
C2329 C 0.92777 0.43493 0.75799 0.0
C2330 C 0.91554 0.46859 0.77175 0.0
C2331 C 0.92588 0.45614 0.73678 0.0
C2332 C 0.91641 0.48015 0.78101 0.0
C2333 C 0.92733 0.49094 0.75657 0.0
C2334 C 0.92563 0.46788 0.7374 0.0
C2335 C 0.93693 0.48975 0.71864 0.0
C2336 C 0.93631 0.45591 0.70445 0.0
C2337 C 0.91714 0.43521 0.78469 0.0
N2338 N 0.93588 0.47845 0.71089 0.0
N2339 N 0.91655 0.44575 0.77481 0.0
H2340 H 0.54918 0.49868 0.68309 0.0
H2341 H 0.51372 0.4269 0.80583 0.0
H2342 H 0.56703 0.48112 0.8147 0.0
H2343 H 0.49691 0.44631 0.68595 0.0
H2344 H 0.5341 0.44558 0.78907 0.0
H2345 H 0.53086 0.47853 0.66188 0.0
C2346 C 0.54925 0.49054 0.70716 0.0
C2347 C 0.55952 0.49156 0.75218 0.0
C2348 C 0.52595 0.44566 0.76557 0.0
C2349 C 0.53849 0.4684 0.729 0.0
C2350 C 0.51434 0.43502 0.77494 0.0
C2351 C 0.50362 0.43516 0.74873 0.0
C2352 C 0.52676 0.45641 0.72926 0.0
C2353 C 0.50492 0.44588 0.70871 0.0
C2354 C 0.53879 0.47901 0.69489 0.0
C2355 C 0.55923 0.4807 0.78031 0.0
N2356 N 0.51625 0.45608 0.70089 0.0
N2357 N 0.54876 0.46954 0.7695 0.0
H2358 H 0.71463 0.83045 0.6588 0.0
H2359 H 0.75118 0.90196 0.52838 0.0
H2360 H 0.74979 0.84747 0.52387 0.0
H2361 H 0.71528 0.88307 0.6529 0.0
H2362 H 0.75277 0.88322 0.54655 0.0
H2363 H 0.71671 0.85073 0.67866 0.0
C2364 C 0.72284 0.8385 0.63367 0.0
C2365 C 0.73194 0.83729 0.58815 0.0
C2366 C 0.74463 0.88327 0.57077 0.0
C2367 C 0.73435 0.8606 0.60977 0.0
C2368 C 0.74373 0.89394 0.5606 0.0
C2369 C 0.73298 0.89395 0.58766 0.0
C2370 C 0.73473 0.87264 0.60874 0.0
C2371 C 0.72362 0.88337 0.62941 0.0
C2372 C 0.72405 0.8501 0.64518 0.0
C2373 C 0.74251 0.84804 0.55865 0.0
N2374 N 0.72468 0.87314 0.63797 0.0
N2375 N 0.74335 0.85928 0.56873 0.0
H2376 H 0.11033 0.83059 0.66832 0.0
H2377 H 0.14563 0.9019 0.53124 0.0
H2378 H 0.09232 0.84776 0.53338 0.0
H2379 H 0.16278 0.88274 0.64989 0.0
H2380 H 0.12528 0.88335 0.55315 0.0
H2381 H 0.12874 0.8508 0.68538 0.0
C2382 C 0.11023 0.83866 0.6428 0.0
C2383 C 0.09989 0.83749 0.5979 0.0
C2384 C 0.13351 0.88329 0.5752 0.0
C2385 C 0.12103 0.8607 0.61621 0.0
C2386 C 0.1451 0.89386 0.56283 0.0
C2387 C 0.15589 0.89374 0.58724 0.0
C2388 C 0.1328 0.87265 0.61273 0.0
C2389 C 0.15471 0.88314 0.62838 0.0
C2390 C 0.12075 0.85022 0.65261 0.0
C2391 C 0.10017 0.84827 0.56773 0.0
N2392 N 0.1434 0.87301 0.63916 0.0
N2393 N 0.11068 0.85945 0.57617 0.0
H2394 H 0.16321 0.27887 0.66062 0.0
H2395 H 0.09157 0.24283 0.53331 0.0
H2396 H 0.14567 0.24349 0.5285 0.0
H2397 H 0.11097 0.27909 0.65243 0.0
H2398 H 0.11019 0.24106 0.55147 0.0
H2399 H 0.14308 0.27717 0.67983 0.0
C2400 C 0.15507 0.27069 0.63604 0.0
C2401 C 0.15611 0.26141 0.59145 0.0
C2402 C 0.11029 0.24933 0.57446 0.0
C2403 C 0.13298 0.25944 0.61236 0.0
C2404 C 0.09968 0.25033 0.56428 0.0
C2405 C 0.09983 0.26122 0.58994 0.0
C2406 C 0.12102 0.25926 0.61101 0.0
C2407 C 0.11053 0.27063 0.6301 0.0
C2408 C 0.14356 0.26971 0.64715 0.0
C2409 C 0.14526 0.2509 0.56259 0.0
N2410 N 0.1207 0.26947 0.63873 0.0
N2411 N 0.13411 0.25027 0.57232 0.0
H2412 H 0.08616 0.29409 0.84556 0.0
H2413 H 0.12291 0.36697 0.83543 0.0
H2414 H 0.10317 0.31473 0.60814 0.0
H2415 H 0.11846 0.34627 0.074 0.0
H2416 H 0.11585 0.34796 0.75016 0.0
H2417 H 0.09805 0.31306 0.93131 0.0
C2418 C 0.0925 0.30258 0.81166 0.0
C2419 C 0.09359 0.30288 0.71965 0.0
C2420 C 0.1166 0.34763 0.82108 0.0
C2421 C 0.10707 0.32457 0.81684 0.0
C2422 C 0.12057 0.35845 0.8697 0.0
C2423 C 0.12115 0.35815 0.96185 0.0
C2424 C 0.11297 0.33643 0.86518 0.0
C2425 C 0.11812 0.3469 1.00302 0.0
C2426 C 0.0993 0.31338 0.86056 0.0
C2427 C 0.10201 0.3141 0.67899 0.0
N2428 N 0.11397 0.33644 0.95445 0.0
N2429 N 0.10828 0.32455 0.72777 0.0
H2430 H 0.62563 0.75239 0.82671 0.0
H2431 H 0.69841 0.79138 0.84138 0.0
H2432 H 0.64553 0.77151 0.06175 0.0
H2433 H 0.67798 0.78586 0.59987 0.0
H2434 H 0.67913 0.78383 0.92435 0.0
H2435 H 0.6447 0.76422 0.74147 0.0
C2436 C 0.63397 0.75916 0.86014 0.0
C2437 C 0.63404 0.7609 0.95143 0.0
C2438 C 0.67892 0.78446 0.85326 0.0
C2439 C 0.65581 0.77431 0.85495 0.0
C2440 C 0.68989 0.78872 0.80601 0.0
C2441 C 0.68976 0.78917 0.71378 0.0
C2442 C 0.66774 0.78039 0.80769 0.0
C2443 C 0.67849 0.78567 0.67102 0.0
C2444 C 0.64482 0.76593 0.81153 0.0
C2445 C 0.64507 0.76985 0.99148 0.0
N2446 N 0.66788 0.78123 0.7183 0.0
N2447 N 0.65557 0.77609 0.94316 0.0
H2448 H 0.20175 0.9061 0.83994 0.0
H2449 H 0.24145 0.87308 0.82446 0.0
H2450 H 0.20745 0.89138 0.59816 0.0
H2451 H 0.22211 0.87344 0.0595 0.0
H2452 H 0.22944 0.88013 0.73939 0.0
H2453 H 0.20949 0.8945 0.92265 0.0
C2454 C 0.20449 0.90032 0.80446 0.0
C2455 C 0.20404 0.89975 0.71224 0.0
C2456 C 0.22773 0.87849 0.8094 0.0
C2457 C 0.21303 0.88667 0.80582 0.0
C2458 C 0.23461 0.87453 0.85792 0.0
C2459 C 0.23285 0.87279 0.94917 0.0
C2460 C 0.21924 0.88093 0.8529 0.0
C2461 C 0.22379 0.8747 0.98926 0.0
C2462 C 0.20886 0.89368 0.85156 0.0
C2463 C 0.20764 0.89207 0.66932 0.0
N2464 N 0.21745 0.87885 0.94105 0.0
N2465 N 0.21217 0.88597 0.71644 0.0
H2466 H 0.31202 0.10713 0.40547 0.0
H2467 H 0.36624 0.12464 0.1771 0.0
H2468 H 0.29493 0.08569 0.17091 0.0
H2469 H 0.34471 0.1195 0.9419 0.0
H2470 H 0.34758 0.11772 0.26544 0.0
H2471 H 0.33117 0.1193 0.32327 0.0
C2472 C 0.31226 0.10501 0.33653 0.0
C2473 C 0.30193 0.09518 0.29543 0.0
C2474 C 0.34699 0.11843 0.19473 0.0
C2475 C 0.3239 0.10894 0.20175 0.0
C2476 C 0.35762 0.12226 0.14425 0.0
C2477 C 0.357 0.12259 0.05216 0.0
C2478 C 0.33565 0.11481 0.15258 0.0
C2479 C 0.3456 0.11941 0.01281 0.0
C2480 C 0.32325 0.1119 0.28998 0.0
C2481 C 0.30274 0.09303 0.20561 0.0
N2482 N 0.33531 0.11543 0.06324 0.0
N2483 N 0.31359 0.09981 0.16182 0.0
H2484 H 0.87396 0.22439 0.93024 0.0
H2485 H 0.8888 0.20684 0.4016 0.0
H2486 H 0.86934 0.23962 0.17336 0.0
H2487 H 0.90751 0.20623 0.16376 0.0
H2488 H 0.87713 0.21415 0.31614 0.0
H2489 H 0.88175 0.21298 0.01405 0.0
C2490 C 0.87438 0.22518 1.00139 0.0
C2491 C 0.87108 0.23303 0.04506 0.0
C2492 C 0.88371 0.2123 0.28271 0.0
C2493 C 0.87994 0.21999 0.14072 0.0
C2494 C 0.89034 0.20807 0.33117 0.0
C2495 C 0.89923 0.20604 0.28969 0.0
C2496 C 0.88586 0.21433 0.19204 0.0
C2497 C 0.90084 0.20781 0.19835 0.0
C2498 C 0.8789 0.21872 0.04892 0.0
C2499 C 0.87189 0.23374 0.13721 0.0
N2500 N 0.89422 0.2119 0.15245 0.0
N2501 N 0.87628 0.22732 0.18212 0.0
H2502 H 0.75466 0.62847 0.18162 0.0
H2503 H 0.78777 0.70116 0.16617 0.0
H2504 H 0.76937 0.64882 0.9396 0.0
H2505 H 0.78755 0.68144 0.40085 0.0
H2506 H 0.78072 0.68211 0.08096 0.0
H2507 H 0.76635 0.64779 0.26415 0.0
C2508 C 0.76046 0.63698 0.14604 0.0
C2509 C 0.761 0.63708 0.05381 0.0
C2510 C 0.78239 0.68203 0.15092 0.0
C2511 C 0.77419 0.65915 0.14722 0.0
C2512 C 0.78636 0.69286 0.19952 0.0
C2513 C 0.78813 0.69284 0.29074 0.0
C2514 C 0.77997 0.6711 0.19428 0.0
C2515 C 0.78626 0.68187 0.33066 0.0
C2516 C 0.76715 0.64798 0.19304 0.0
C2517 C 0.76871 0.64834 0.01076 0.0
N2518 N 0.7821 0.67138 0.28238 0.0
N2519 N 0.77486 0.65898 0.05781 0.0
H2520 H 0.88938 0.68062 0.39756 0.0
H2521 H 0.8727 0.64743 0.92974 0.0
H2522 H 0.90664 0.6998 0.15588 0.0
H2523 H 0.87084 0.62823 0.17123 0.0
H2524 H 0.88052 0.66667 0.01277 0.0
H2525 H 0.87792 0.66137 0.3146 0.0
C2526 C 0.89062 0.68083 0.32681 0.0
C2527 C 0.89904 0.69181 0.28341 0.0
C2528 C 0.87828 0.65821 0.04749 0.0
C2529 C 0.88592 0.66985 0.18874 0.0
C2530 C 0.87375 0.64721 1.00047 0.0
C2531 C 0.8712 0.63623 0.04378 0.0
C2532 C 0.88008 0.65818 0.13853 0.0
C2533 C 0.8728 0.63652 0.13535 0.0
C2534 C 0.88413 0.66983 0.27982 0.0
C2535 C 0.90032 0.69151 0.19182 0.0
N2536 N 0.87716 0.64736 0.17986 0.0
N2537 N 0.89382 0.68067 0.14735 0.0
H2538 H 0.36675 0.24331 0.17488 0.0
H2539 H 0.31228 0.20481 0.3982 0.0
H2540 H 0.34582 0.22562 0.93985 0.0
H2541 H 0.29515 0.20925 0.16418 0.0
H2542 H 0.33176 0.21297 0.31828 0.0
H2543 H 0.34784 0.23181 0.26195 0.0
C2544 C 0.35822 0.23687 0.14189 0.0
C2545 C 0.35784 0.23539 0.05021 0.0
C2546 C 0.32374 0.21219 0.28463 0.0
C2547 C 0.33626 0.2222 0.14895 0.0
C2548 C 0.31257 0.20741 0.32977 0.0
C2549 C 0.3021 0.20653 0.28811 0.0
C2550 C 0.32444 0.21605 0.19711 0.0
C2551 C 0.30303 0.20994 0.19914 0.0
C2552 C 0.34746 0.23024 0.19159 0.0
C2553 C 0.34653 0.22697 0.01053 0.0
N2554 N 0.31405 0.21459 0.15651 0.0
N2555 N 0.33614 0.22082 0.06006 0.0
H2556 H 0.75312 0.12406 0.17014 0.0
H2557 H 0.78909 0.08719 0.1569 0.0
H2558 H 0.76973 0.12023 0.93133 0.0
H2559 H 0.78572 0.10417 0.39532 0.0
H2560 H 0.78201 0.09918 0.07214 0.0
H2561 H 0.76497 0.1168 0.25474 0.0
C2562 C 0.75936 0.12183 0.13571 0.0
C2563 C 0.76037 0.12263 0.04366 0.0
C2564 C 0.783 0.1004 0.14289 0.0
C2565 C 0.77378 0.11421 0.13949 0.0
C2566 C 0.78699 0.09354 0.19122 0.0
C2567 C 0.78788 0.09461 0.28321 0.0
C2568 C 0.77967 0.10819 0.18719 0.0
C2569 C 0.78513 0.10303 0.32445 0.0
C2570 C 0.76615 0.11773 0.18393 0.0
C2571 C 0.76866 0.11972 1.00225 0.0
N2572 N 0.78096 0.10937 0.27624 0.0
N2573 N 0.7749 0.11544 0.05038 0.0
H2574 H 0.68008 0.8888 0.59663 0.0
H2575 H 0.62603 0.87293 0.82446 0.0
H2576 H 0.69747 0.90804 0.83793 0.0
H2577 H 0.64661 0.87426 0.05708 0.0
H2578 H 0.64475 0.87977 0.73644 0.0
H2579 H 0.66054 0.87712 0.67536 0.0
C2580 C 0.67983 0.89051 0.66637 0.0
C2581 C 0.69039 0.89958 0.71054 0.0
C2582 C 0.64508 0.87826 0.80638 0.0
C2583 C 0.66799 0.8864 0.80021 0.0
C2584 C 0.63443 0.87447 0.85669 0.0
C2585 C 0.63479 0.87306 0.94809 0.0
C2586 C 0.65616 0.88076 0.84814 0.0
C2587 C 0.64592 0.8752 0.9867 0.0
C2588 C 0.66863 0.88392 0.71089 0.0
C2589 C 0.68952 0.90127 0.80107 0.0
N2590 N 0.65623 0.87915 0.93666 0.0
N2591 N 0.67847 0.89476 0.84295 0.0
H2592 H 0.12281 0.77291 0.0671 0.0
H2593 H 0.08431 0.78913 0.84651 0.0
H2594 H 0.1179 0.75112 0.83347 0.0
H2595 H 0.10175 0.78576 0.61054 0.0
H2596 H 0.09574 0.78155 0.93278 0.0
H2597 H 0.11465 0.78426 0.98782 0.0
C2598 C 0.1201 0.77055 0.99888 0.0
C2599 C 0.12086 0.76089 0.95717 0.0
C2600 C 0.09727 0.78275 0.86238 0.0
C2601 C 0.11133 0.77376 0.8669 0.0
C2602 C 0.09068 0.78697 0.81316 0.0
C2603 C 0.09212 0.78811 0.72147 0.0
C2604 C 0.10521 0.77951 0.81922 0.0
C2605 C 0.10044 0.78512 0.68127 0.0
C2606 C 0.11532 0.77697 0.95413 0.0
C2607 C 0.11732 0.75837 0.86846 0.0
N2608 N 0.10654 0.78077 0.73032 0.0
N2609 N 0.11267 0.76477 0.82618 0.0
H2610 H 0.23939 0.36686 0.83384 0.0
H2611 H 0.2027 0.29396 0.84197 0.0
H2612 H 0.22264 0.34608 0.07123 0.0
H2613 H 0.20685 0.31476 0.60445 0.0
H2614 H 0.20986 0.31293 0.92791 0.0
H2615 H 0.22746 0.34792 0.74776 0.0
C2616 C 0.23311 0.35834 0.86768 0.0
C2617 C 0.23209 0.358 0.95977 0.0
C2618 C 0.20903 0.31329 0.85709 0.0
C2619 C 0.21856 0.33635 0.86215 0.0
C2620 C 0.20499 0.30249 0.80808 0.0
C2621 C 0.2043 0.30283 0.716 0.0
C2622 C 0.2126 0.32451 0.81346 0.0
C2623 C 0.20728 0.31409 0.67535 0.0
C2624 C 0.22627 0.34756 0.81859 0.0
C2625 C 0.22373 0.34675 1.00033 0.0
N2626 N 0.21149 0.32454 0.72427 0.0
N2627 N 0.21743 0.33632 0.95134 0.0
H2628 H 0.03314 0.4555 0.51524 0.0
H2629 H 0.96025 0.42137 0.50535 0.0
H2630 H 0.01283 0.4545 0.28192 0.0
H2631 H 0.98097 0.43612 0.74593 0.0
H2632 H 0.97944 0.4331 0.42135 0.0
H2633 H 0.01416 0.44808 0.60184 0.0
C2634 C 0.02473 0.45384 0.48247 0.0
C2635 C 0.02453 0.45551 0.39124 0.0
C2636 C 0.97974 0.43389 0.49248 0.0
C2637 C 0.00285 0.44692 0.48931 0.0
C2638 C 0.96881 0.42718 0.54033 0.0
C2639 C 0.96905 0.42773 0.63258 0.0
C2640 C 0.99097 0.44099 0.53742 0.0
C2641 C 0.98038 0.43544 0.67479 0.0
C2642 C 0.01393 0.44966 0.53187 0.0
C2643 C 0.0134 0.45331 0.3521 0.0
N2644 N 0.99093 0.44163 0.6269 0.0
N2645 N 0.00296 0.44895 0.40117 0.0
H2646 H 0.55457 0.5392 0.74743 0.0
H2647 H 0.53749 0.57634 0.51757 0.0
H2648 H 0.5745 0.54181 0.50812 0.0
H2649 H 0.53988 0.55762 0.28545 0.0
H2650 H 0.54484 0.56495 0.6063 0.0
H2651 H 0.54269 0.54674 0.66756 0.0
C2652 C 0.5564 0.54127 0.67791 0.0
C2653 C 0.56571 0.54008 0.63464 0.0
C2654 C 0.54345 0.5631 0.53631 0.0
C2655 C 0.55227 0.5489 0.5436 0.0
C2656 C 0.53937 0.56968 0.48559 0.0
C2657 C 0.5381 0.56793 0.39414 0.0
C2658 C 0.5464 0.55482 0.49494 0.0
C2659 C 0.54068 0.55921 0.35587 0.0
C2660 C 0.54969 0.54569 0.63272 0.0
C2661 C 0.56755 0.54277 0.54432 0.0
N2662 N 0.54492 0.55313 0.40633 0.0
N2663 N 0.56091 0.54711 0.50175 0.0
H2664 H 0.42067 0.96174 0.51438 0.0
H2665 H 0.45434 0.03447 0.49912 0.0
H2666 H 0.4355 0.98203 0.27226 0.0
H2667 H 0.45406 0.01463 0.73328 0.0
H2668 H 0.44707 0.0154 0.41373 0.0
H2669 H 0.43246 0.98106 0.59679 0.0
C2670 C 0.42651 0.97024 0.47877 0.0
C2671 C 0.42707 0.97032 0.38655 0.0
C2672 C 0.44878 0.0153 0.48361 0.0
C2673 C 0.44038 0.99239 0.4798 0.0
C2674 C 0.45287 0.02615 0.53231 0.0
C2675 C 0.45469 0.02609 0.62345 0.0
C2676 C 0.44629 0.00433 0.52683 0.0
C2677 C 0.45275 0.01509 0.66316 0.0
C2678 C 0.43326 0.98123 0.52569 0.0
C2679 C 0.43482 0.98156 0.34343 0.0
N2680 N 0.44846 0.00459 0.61481 0.0
N2681 N 0.44104 0.99219 0.39039 0.0
H2682 H 0.57176 0.03339 0.5013 0.0
H2683 H 0.53707 0.9606 0.51511 0.0
H2684 H 0.55618 0.01295 0.74185 0.0
H2685 H 0.53846 0.98065 0.27931 0.0
H2686 H 0.54437 0.97968 0.60027 0.0
H2687 H 0.55993 0.01418 0.4177 0.0
C2688 C 0.56575 0.02489 0.53633 0.0
C2689 C 0.56501 0.02473 0.6285 0.0
C2690 C 0.5429 0.97983 0.53006 0.0
C2691 C 0.55164 0.00279 0.53386 0.0
C2692 C 0.53879 0.96898 0.4815 0.0
C2693 C 0.53726 0.96909 0.39004 0.0
C2694 C 0.54572 0.99087 0.48644 0.0
C2695 C 0.53953 0.98017 0.34973 0.0
C2696 C 0.55898 0.01396 0.4887 0.0
C2697 C 0.55703 0.01349 0.67077 0.0
N2698 N 0.54384 0.99067 0.39803 0.0
N2699 N 0.55079 0.00292 0.62317 0.0
H2700 H 0.95977 0.53765 0.49955 0.0
H2701 H 0.03265 0.57404 0.51026 0.0
H2702 H 0.98038 0.54153 0.7376 0.0
H2703 H 0.01204 0.5573 0.27225 0.0
H2704 H 0.01362 0.56219 0.5956 0.0
H2705 H 0.97879 0.54479 0.41421 0.0
C2706 C 0.96827 0.53988 0.53368 0.0
C2707 C 0.96854 0.53911 0.62573 0.0
C2708 C 0.01332 0.56098 0.5248 0.0
C2709 C 0.99027 0.54738 0.52901 0.0
C2710 C 0.02415 0.56777 0.47615 0.0
C2711 C 0.02388 0.56673 0.38411 0.0
C2712 C 0.00214 0.5533 0.48082 0.0
C2713 C 0.01266 0.5584 0.34314 0.0
C2714 C 0.97909 0.5439 0.48501 0.0
C2715 C 0.97976 0.54201 0.66671 0.0
N2716 N 0.00218 0.55215 0.3917 0.0
N2717 N 0.99024 0.54621 0.61814 0.0
H2718 H 0.45743 0.44126 0.73304 0.0
H2719 H 0.42015 0.45825 0.50652 0.0
H2720 H 0.45353 0.42031 0.49667 0.0
H2721 H 0.43693 0.45384 0.27068 0.0
H2722 H 0.43218 0.45159 0.59416 0.0
H2723 H 0.45028 0.45339 0.65189 0.0
C2724 C 0.45515 0.43926 0.66391 0.0
C2725 C 0.45582 0.42957 0.62199 0.0
C2726 C 0.4335 0.45241 0.52349 0.0
C2727 C 0.44742 0.44327 0.52951 0.0
C2728 C 0.42654 0.45609 0.4734 0.0
C2729 C 0.42751 0.45654 0.38131 0.0
C2730 C 0.44139 0.44905 0.48093 0.0
C2731 C 0.43592 0.45365 0.3416 0.0
C2732 C 0.45096 0.44612 0.61795 0.0
C2733 C 0.45293 0.42754 0.53198 0.0
N2734 N 0.44238 0.4498 0.39162 0.0
N2735 N 0.44878 0.43429 0.48879 0.0
loop_
_geom_bond_atom_site_label_1
_geom_bond_atom_site_label_2
_geom_bond_distance
_geom_bond_site_symmetry_2
_ccdc_geom_bond_type
Fe0 O2 1.918 . S
Fe0 O5 1.997 . S
Fe0 O6 2.002 . S
Fe0 O11 1.976 . S
Fe0 O14 1.996 . S
Fe1 O2 1.918 . S
Fe1 O9 1.997 . S
Fe1 O12 1.996 . S
Fe1 O16 1.976 1_554 S
Fe1 O19 2.002 . S
O2 Fe0 1.918 . S
O2 Fe1 1.918 . S
O2 Fe3 1.918 . S
Fe3 O2 1.918 . S
Fe3 O4 2.002 . S
Fe3 O13 1.976 1_554 S
Fe3 O17 1.996 1_554 S
Fe3 O20 1.997 . S
O4 Fe3 2.002 . S
O4 C21 1.295 . S
O5 Fe0 1.997 . S
O5 C21 1.235 . S
O6 Fe0 2.002 . S
O6 C7 1.295 . S
C7 O6 1.295 . S
C7 O9 1.235 . S
C8 O13 1.287 . S
C8 O14 1.255 1_556 S
O9 Fe1 1.997 . S
O9 C7 1.235 . S
C10 O16 1.287 . S
C10 O17 1.255 . S
O11 Fe0 1.976 . S
O11 C18 1.287 . S
O12 Fe1 1.996 . S
O12 C18 1.255 . S
O13 Fe3 1.976 1_556 S
O13 C8 1.287 . S
O14 Fe0 1.996 . S
O14 C8 1.255 1_554 S
C15 O19 1.295 . S
C15 O20 1.235 . S
O16 Fe1 1.976 1_556 S
O16 C10 1.287 . S
O17 Fe3 1.996 1_556 S
O17 C10 1.255 . S
C18 O11 1.287 . S
C18 O12 1.255 . S
O19 Fe1 2.002 . S
O19 C15 1.295 . S
O20 Fe3 1.997 . S
O20 C15 1.235 . S
C21 O4 1.295 . S
C21 O5 1.235 . S
Fe22 O24 1.918 . S
Fe22 O27 1.997 . S
Fe22 O28 2.002 . S
Fe22 O33 1.976 1_554 S
Fe22 O36 1.996 . S
Fe23 O24 1.918 . S
Fe23 O31 1.997 . S
Fe23 O34 1.996 1_554 S
Fe23 O38 1.976 1_554 S
Fe23 O41 2.002 . S
O24 Fe22 1.918 . S
O24 Fe23 1.918 . S
O24 Fe25 1.918 . S
Fe25 O24 1.918 . S
Fe25 O26 2.002 . S
Fe25 O35 1.976 . S
Fe25 O39 1.996 . S
Fe25 O42 1.997 . S
O26 Fe25 2.002 . S
O26 C43 1.295 . S
O27 Fe22 1.997 . S
O27 C43 1.235 . S
O28 Fe22 2.002 . S
O28 C29 1.295 . S
C29 O28 1.295 . S
C29 O31 1.235 . S
C30 O35 1.287 . S
C30 O36 1.255 . S
O31 Fe23 1.997 . S
O31 C29 1.235 . S
C32 O38 1.287 . S
C32 O39 1.255 1_556 S
O33 Fe22 1.976 1_556 S
O33 C40 1.287 . S
O34 Fe23 1.996 1_556 S
O34 C40 1.255 . S
O35 Fe25 1.976 . S
O35 C30 1.287 . S
O36 Fe22 1.996 . S
O36 C30 1.255 . S
C37 O41 1.295 . S
C37 O42 1.235 . S
O38 Fe23 1.976 1_556 S
O38 C32 1.287 . S
O39 Fe25 1.996 . S
O39 C32 1.255 1_554 S
C40 O33 1.287 . S
C40 O34 1.255 . S
O41 Fe23 2.002 . S
O41 C37 1.295 . S
O42 Fe25 1.997 . S
O42 C37 1.235 . S
C43 O26 1.295 . S
C43 O27 1.235 . S
Fe44 O46 1.918 . S
Fe44 O49 1.997 . S
Fe44 O50 2.002 . S
Fe44 O55 1.976 . S
Fe44 O58 1.996 . S
Fe45 O46 1.918 . S
Fe45 O53 1.997 . S
Fe45 O56 1.996 . S
Fe45 O60 1.976 1_554 S
Fe45 O63 2.002 . S
O46 Fe44 1.918 . S
O46 Fe45 1.918 . S
O46 Fe47 1.918 . S
Fe47 O46 1.918 . S
Fe47 O48 2.002 . S
Fe47 O57 1.976 1_554 S
Fe47 O61 1.996 1_554 S
Fe47 O64 1.997 . S
O48 Fe47 2.002 . S
O48 C65 1.295 . S
O49 Fe44 1.997 . S
O49 C65 1.235 . S
O50 Fe44 2.002 . S
O50 C51 1.295 . S
C51 O50 1.295 . S
C51 O53 1.235 . S
C52 O57 1.287 . S
C52 O58 1.255 1_556 S
O53 Fe45 1.997 . S
O53 C51 1.235 . S
C54 O60 1.287 . S
C54 O61 1.255 . S
O55 Fe44 1.976 . S
O55 C62 1.287 . S
O56 Fe45 1.996 . S
O56 C62 1.255 . S
O57 Fe47 1.976 1_556 S
O57 C52 1.287 . S
O58 Fe44 1.996 . S
O58 C52 1.255 1_554 S
C59 O63 1.295 . S
C59 O64 1.235 . S
O60 Fe45 1.976 1_556 S
O60 C54 1.287 . S
O61 Fe47 1.996 1_556 S
O61 C54 1.255 . S
C62 O55 1.287 . S
C62 O56 1.255 . S
O63 Fe45 2.002 . S
O63 C59 1.295 . S
O64 Fe47 1.997 . S
O64 C59 1.235 . S
C65 O48 1.295 . S
C65 O49 1.235 . S
Fe66 O68 1.918 . S
Fe66 O71 1.997 . S
Fe66 O72 2.002 . S
Fe66 O77 1.976 . S
Fe66 O80 1.996 . S
Fe67 O68 1.918 . S
Fe67 O75 1.997 . S
Fe67 O78 1.996 . S
Fe67 O82 1.976 1_556 S
Fe67 O85 2.002 . S
O68 Fe66 1.918 . S
O68 Fe67 1.918 . S
O68 Fe69 1.918 . S
Fe69 O68 1.918 . S
Fe69 O70 2.002 . S
Fe69 O79 1.976 1_556 S
Fe69 O83 1.996 1_556 S
Fe69 O86 1.997 . S
O70 Fe69 2.002 . S
O70 C87 1.295 . S
O71 Fe66 1.997 . S
O71 C87 1.235 . S
O72 Fe66 2.002 . S
O72 C73 1.295 . S
C73 O72 1.295 . S
C73 O75 1.235 . S
C74 O79 1.287 . S
C74 O80 1.255 1_554 S
O75 Fe67 1.997 . S
O75 C73 1.235 . S
C76 O82 1.287 . S
C76 O83 1.255 . S
O77 Fe66 1.976 . S
O77 C84 1.287 . S
O78 Fe67 1.996 . S
O78 C84 1.255 . S
O79 Fe69 1.976 1_554 S
O79 C74 1.287 . S
O80 Fe66 1.996 . S
O80 C74 1.255 1_556 S
C81 O85 1.295 . S
C81 O86 1.235 . S
O82 Fe67 1.976 1_554 S
O82 C76 1.287 . S
O83 Fe69 1.996 1_554 S
O83 C76 1.255 . S
C84 O77 1.287 . S
C84 O78 1.255 . S
O85 Fe67 2.002 . S
O85 C81 1.295 . S
O86 Fe69 1.997 . S
O86 C81 1.235 . S
C87 O70 1.295 . S
C87 O71 1.235 . S
Fe88 O90 1.918 . S
Fe88 O93 1.997 . S
Fe88 O94 2.002 . S
Fe88 O99 1.976 1_556 S
Fe88 O102 1.996 . S
Fe89 O90 1.918 . S
Fe89 O97 1.997 . S
Fe89 O100 1.996 1_556 S
Fe89 O104 1.976 1_556 S
Fe89 O107 2.002 . S
O90 Fe88 1.918 . S
O90 Fe89 1.918 . S
O90 Fe91 1.918 . S
Fe91 O90 1.918 . S
Fe91 O92 2.002 . S
Fe91 O101 1.976 . S
Fe91 O105 1.996 . S
Fe91 O108 1.997 . S
O92 Fe91 2.002 . S
O92 C109 1.295 . S
O93 Fe88 1.997 . S
O93 C109 1.235 . S
O94 Fe88 2.002 . S
O94 C95 1.295 . S
C95 O94 1.295 . S
C95 O97 1.235 . S
C96 O101 1.287 . S
C96 O102 1.255 . S
O97 Fe89 1.997 . S
O97 C95 1.235 . S
C98 O104 1.287 . S
C98 O105 1.255 1_554 S
O99 Fe88 1.976 1_554 S
O99 C106 1.287 . S
O100 Fe89 1.996 1_554 S
O100 C106 1.255 . S
O101 Fe91 1.976 . S
O101 C96 1.287 . S
O102 Fe88 1.996 . S
O102 C96 1.255 . S
C103 O107 1.295 . S
C103 O108 1.235 . S
O104 Fe89 1.976 1_554 S
O104 C98 1.287 . S
O105 Fe91 1.996 . S
O105 C98 1.255 1_556 S
C106 O99 1.287 . S
C106 O100 1.255 . S
O107 Fe89 2.002 . S
O107 C103 1.295 . S
O108 Fe91 1.997 . S
O108 C103 1.235 . S
C109 O92 1.295 . S
C109 O93 1.235 . S
Fe110 O112 1.918 . S
Fe110 O115 1.997 . S
Fe110 O116 2.002 . S
Fe110 O121 1.976 . S
Fe110 O124 1.996 . S
Fe111 O112 1.918 . S
Fe111 O119 1.997 . S
Fe111 O122 1.996 . S
Fe111 O126 1.976 1_556 S
Fe111 O129 2.002 . S
O112 Fe110 1.918 . S
O112 Fe111 1.918 . S
O112 Fe113 1.918 . S
Fe113 O112 1.918 . S
Fe113 O114 2.002 . S
Fe113 O123 1.976 1_556 S
Fe113 O127 1.996 1_556 S
Fe113 O130 1.997 . S
O114 Fe113 2.002 . S
O114 C131 1.295 . S
O115 Fe110 1.997 . S
O115 C131 1.235 . S
O116 Fe110 2.002 . S
O116 C117 1.295 . S
C117 O116 1.295 . S
C117 O119 1.235 . S
C118 O123 1.287 . S
C118 O124 1.255 1_554 S
O119 Fe111 1.997 . S
O119 C117 1.235 . S
C120 O126 1.287 . S
C120 O127 1.255 . S
O121 Fe110 1.976 . S
O121 C128 1.287 . S
O122 Fe111 1.996 . S
O122 C128 1.255 . S
O123 Fe113 1.976 1_554 S
O123 C118 1.287 . S
O124 Fe110 1.996 . S
O124 C118 1.255 1_556 S
C125 O129 1.295 . S
C125 O130 1.235 . S
O126 Fe111 1.976 1_554 S
O126 C120 1.287 . S
O127 Fe113 1.996 1_554 S
O127 C120 1.255 . S
C128 O121 1.287 . S
C128 O122 1.255 . S
O129 Fe111 2.002 . S
O129 C125 1.295 . S
O130 Fe113 1.997 . S
O130 C125 1.235 . S
C131 O114 1.295 . S
C131 O115 1.235 . S
Fe132 O134 1.918 . S
Fe132 O137 1.997 . S
Fe132 O138 2.002 . S
Fe132 O143 1.976 . S
Fe132 O146 1.996 . S
Fe133 O134 1.918 . S
Fe133 O141 1.997 . S
Fe133 O144 1.996 1_556 S
Fe133 O148 1.976 1_556 S
Fe133 O151 2.002 . S
O134 Fe132 1.918 . S
O134 Fe133 1.918 . S
O134 Fe135 1.918 . S
Fe135 O134 1.918 . S
Fe135 O136 2.002 . S
Fe135 O145 1.976 . S
Fe135 O149 1.996 1_556 S
Fe135 O152 1.997 . S
O136 Fe135 2.002 . S
O136 C153 1.295 . S
O137 Fe132 1.997 . S
O137 C153 1.235 . S
O138 Fe132 2.002 . S
O138 C139 1.295 . S
C139 O138 1.295 . S
C139 O141 1.235 . S
C140 O145 1.287 . S
C140 O146 1.255 . S
O141 Fe133 1.997 . S
O141 C139 1.235 . S
C142 O148 1.287 . S
C142 O149 1.255 . S
O143 Fe132 1.976 . S
O143 C150 1.287 1_556 S
O144 Fe133 1.996 1_554 S
O144 C150 1.255 . S
O145 Fe135 1.976 . S
O145 C140 1.287 . S
O146 Fe132 1.996 . S
O146 C140 1.255 . S
C147 O151 1.295 . S
C147 O152 1.235 . S
O148 Fe133 1.976 1_554 S
O148 C142 1.287 . S
O149 Fe135 1.996 1_554 S
O149 C142 1.255 . S
C150 O143 1.287 1_554 S
C150 O144 1.255 . S
O151 Fe133 2.002 . S
O151 C147 1.295 . S
O152 Fe135 1.997 . S
O152 C147 1.235 . S
C153 O136 1.295 . S
C153 O137 1.235 . S
Fe154 O156 1.918 . S
Fe154 O159 1.997 . S
Fe154 O160 2.002 . S
Fe154 O165 1.976 1_556 S
Fe154 O168 1.996 1_556 S
Fe155 O156 1.918 . S
Fe155 O163 1.997 . S
Fe155 O166 1.996 1_556 S
Fe155 O170 1.976 . S
Fe155 O173 2.002 . S
O156 Fe154 1.918 . S
O156 Fe155 1.918 . S
O156 Fe157 1.918 . S
Fe157 O156 1.918 . S
Fe157 O158 2.002 . S
Fe157 O167 1.976 . S
Fe157 O171 1.996 . S
Fe157 O174 1.997 . S
O158 Fe157 2.002 . S
O158 C175 1.295 . S
O159 Fe154 1.997 . S
O159 C175 1.235 . S
O160 Fe154 2.002 . S
O160 C161 1.295 . S
C161 O160 1.295 . S
C161 O163 1.235 . S
C162 O167 1.287 1_554 S
C162 O168 1.255 . S
O163 Fe155 1.997 . S
O163 C161 1.235 . S
C164 O170 1.287 . S
C164 O171 1.255 . S
O165 Fe154 1.976 1_554 S
O165 C172 1.287 . S
O166 Fe155 1.996 1_554 S
O166 C172 1.255 . S
O167 Fe157 1.976 . S
O167 C162 1.287 1_556 S
O168 Fe154 1.996 1_554 S
O168 C162 1.255 . S
C169 O173 1.295 . S
C169 O174 1.235 . S
O170 Fe155 1.976 . S
O170 C164 1.287 . S
O171 Fe157 1.996 . S
O171 C164 1.255 . S
C172 O165 1.287 . S
C172 O166 1.255 . S
O173 Fe155 2.002 . S
O173 C169 1.295 . S
O174 Fe157 1.997 . S
O174 C169 1.235 . S
C175 O158 1.295 . S
C175 O159 1.235 . S
Fe176 O178 1.918 . S
Fe176 O181 1.997 . S
Fe176 O182 2.002 . S
Fe176 O187 1.976 . S
Fe176 O190 1.996 1_556 S
Fe177 O178 1.918 . S
Fe177 O185 1.997 . S
Fe177 O188 1.996 . S
Fe177 O192 1.976 . S
Fe177 O195 2.002 . S
O178 Fe176 1.918 . S
O178 Fe177 1.918 . S
O178 Fe179 1.918 . S
Fe179 O178 1.918 . S
Fe179 O180 2.002 . S
Fe179 O189 1.976 1_556 S
Fe179 O193 1.996 1_556 S
Fe179 O196 1.997 . S
O180 Fe179 2.002 . S
O180 C197 1.295 . S
O181 Fe176 1.997 . S
O181 C197 1.235 . S
O182 Fe176 2.002 . S
O182 C183 1.295 . S
C183 O182 1.295 . S
C183 O185 1.235 . S
C184 O189 1.287 . S
C184 O190 1.255 . S
O185 Fe177 1.997 . S
O185 C183 1.235 . S
C186 O192 1.287 1_554 S
C186 O193 1.255 . S
O187 Fe176 1.976 . S
O187 C194 1.287 . S
O188 Fe177 1.996 . S
O188 C194 1.255 . S
O189 Fe179 1.976 1_554 S
O189 C184 1.287 . S
O190 Fe176 1.996 1_554 S
O190 C184 1.255 . S
C191 O195 1.295 . S
C191 O196 1.235 . S
O192 Fe177 1.976 . S
O192 C186 1.287 1_556 S
O193 Fe179 1.996 1_554 S
O193 C186 1.255 . S
C194 O187 1.287 . S
C194 O188 1.255 . S
O195 Fe177 2.002 . S
O195 C191 1.295 . S
O196 Fe179 1.997 . S
O196 C191 1.235 . S
C197 O180 1.295 . S
C197 O181 1.235 . S
Fe198 O200 1.918 . S
Fe198 O203 1.997 . S
Fe198 O204 2.002 . S
Fe198 O209 1.976 1_554 S
Fe198 O212 1.996 1_554 S
Fe199 O200 1.918 . S
Fe199 O207 1.997 . S
Fe199 O210 1.996 1_554 S
Fe199 O214 1.976 . S
Fe199 O217 2.002 . S
O200 Fe198 1.918 . S
O200 Fe199 1.918 . S
O200 Fe201 1.918 . S
Fe201 O200 1.918 . S
Fe201 O202 2.002 . S
Fe201 O211 1.976 . S
Fe201 O215 1.996 . S
Fe201 O218 1.997 . S
O202 Fe201 2.002 . S
O202 C219 1.295 . S
O203 Fe198 1.997 . S
O203 C219 1.235 . S
O204 Fe198 2.002 . S
O204 C205 1.295 . S
C205 O204 1.295 . S
C205 O207 1.235 . S
C206 O211 1.287 1_556 S
C206 O212 1.255 . S
O207 Fe199 1.997 . S
O207 C205 1.235 . S
C208 O214 1.287 . S
C208 O215 1.255 . S
O209 Fe198 1.976 1_556 S
O209 C216 1.287 . S
O210 Fe199 1.996 1_556 S
O210 C216 1.255 . S
O211 Fe201 1.976 . S
O211 C206 1.287 1_554 S
O212 Fe198 1.996 1_556 S
O212 C206 1.255 . S
C213 O217 1.295 . S
C213 O218 1.235 . S
O214 Fe199 1.976 . S
O214 C208 1.287 . S
O215 Fe201 1.996 . S
O215 C208 1.255 . S
C216 O209 1.287 . S
C216 O210 1.255 . S
O217 Fe199 2.002 . S
O217 C213 1.295 . S
O218 Fe201 1.997 . S
O218 C213 1.235 . S
C219 O202 1.295 . S
C219 O203 1.235 . S
Fe220 O222 1.918 . S
Fe220 O225 1.997 . S
Fe220 O226 2.002 . S
Fe220 O231 1.976 . S
Fe220 O234 1.996 . S
Fe221 O222 1.918 . S
Fe221 O229 1.997 . S
Fe221 O232 1.996 1_554 S
Fe221 O236 1.976 1_554 S
Fe221 O239 2.002 . S
O222 Fe220 1.918 . S
O222 Fe221 1.918 . S
O222 Fe223 1.918 . S
Fe223 O222 1.918 . S
Fe223 O224 2.002 . S
Fe223 O233 1.976 . S
Fe223 O237 1.996 1_554 S
Fe223 O240 1.997 . S
O224 Fe223 2.002 . S
O224 C241 1.295 . S
O225 Fe220 1.997 . S
O225 C241 1.235 . S
O226 Fe220 2.002 . S
O226 C227 1.295 . S
C227 O226 1.295 . S
C227 O229 1.235 . S
C228 O233 1.287 . S
C228 O234 1.255 . S
O229 Fe221 1.997 . S
O229 C227 1.235 . S
C230 O236 1.287 . S
C230 O237 1.255 . S
O231 Fe220 1.976 . S
O231 C238 1.287 1_554 S
O232 Fe221 1.996 1_556 S
O232 C238 1.255 . S
O233 Fe223 1.976 . S
O233 C228 1.287 . S
O234 Fe220 1.996 . S
O234 C228 1.255 . S
C235 O239 1.295 . S
C235 O240 1.235 . S
O236 Fe221 1.976 1_556 S
O236 C230 1.287 . S
O237 Fe223 1.996 1_556 S
O237 C230 1.255 . S
C238 O231 1.287 1_556 S
C238 O232 1.255 . S
O239 Fe221 2.002 . S
O239 C235 1.295 . S
O240 Fe223 1.997 . S
O240 C235 1.235 . S
C241 O224 1.295 . S
C241 O225 1.235 . S
Fe242 O244 1.918 . S
Fe242 O247 1.997 . S
Fe242 O248 2.002 . S
Fe242 O253 1.976 1_554 S
Fe242 O256 1.996 1_554 S
Fe243 O244 1.918 . S
Fe243 O251 1.997 . S
Fe243 O254 1.996 1_554 S
Fe243 O258 1.976 . S
Fe243 O261 2.002 . S
O244 Fe242 1.918 . S
O244 Fe243 1.918 . S
O244 Fe245 1.918 . S
Fe245 O244 1.918 . S
Fe245 O246 2.002 . S
Fe245 O255 1.976 . S
Fe245 O259 1.996 . S
Fe245 O262 1.997 . S
O246 Fe245 2.002 . S
O246 C263 1.295 . S
O247 Fe242 1.997 . S
O247 C263 1.235 . S
O248 Fe242 2.002 . S
O248 C249 1.295 . S
C249 O248 1.295 . S
C249 O251 1.235 . S
C250 O255 1.287 1_556 S
C250 O256 1.255 . S
O251 Fe243 1.997 . S
O251 C249 1.235 . S
C252 O258 1.287 . S
C252 O259 1.255 . S
O253 Fe242 1.976 1_556 S
O253 C260 1.287 . S
O254 Fe243 1.996 1_556 S
O254 C260 1.255 . S
O255 Fe245 1.976 . S
O255 C250 1.287 1_554 S
O256 Fe242 1.996 1_556 S
O256 C250 1.255 . S
C257 O261 1.295 . S
C257 O262 1.235 . S
O258 Fe243 1.976 . S
O258 C252 1.287 . S
O259 Fe245 1.996 . S
O259 C252 1.255 . S
C260 O253 1.287 . S
C260 O254 1.255 . S
O261 Fe243 2.002 . S
O261 C257 1.295 . S
O262 Fe245 1.997 . S
O262 C257 1.235 . S
C263 O246 1.295 . S
C263 O247 1.235 . S
Fe264 O266 1.918 . S
Fe264 O269 1.997 . S
Fe264 O270 2.002 . S
Fe264 O275 1.976 . S
Fe264 O278 1.996 . S
Fe265 O266 1.918 . S
Fe265 O273 1.997 . S
Fe265 O276 1.996 . S
Fe265 O280 1.976 . S
Fe265 O283 2.002 . S
O266 Fe264 1.918 . S
O266 Fe265 1.918 . S
O266 Fe267 1.918 . S
Fe267 O266 1.918 . S
Fe267 O268 2.002 . S
Fe267 O277 1.976 . S
Fe267 O281 1.996 . S
Fe267 O284 1.997 . S
O268 Fe267 2.002 . S
O268 C285 1.295 . S
O269 Fe264 1.997 . S
O269 C285 1.235 . S
O270 Fe264 2.002 . S
O270 C271 1.295 . S
C271 O270 1.295 . S
C271 O273 1.235 . S
C272 O277 1.287 . S
C272 O278 1.255 . S
O273 Fe265 1.997 . S
O273 C271 1.235 . S
C274 O280 1.287 . S
C274 O281 1.255 . S
O275 Fe264 1.976 . S
O275 C282 1.287 . S
O276 Fe265 1.996 . S
O276 C282 1.255 . S
O277 Fe267 1.976 . S
O277 C272 1.287 . S
O278 Fe264 1.996 . S
O278 C272 1.255 . S
C279 O283 1.295 . S
C279 O284 1.235 . S
O280 Fe265 1.976 . S
O280 C274 1.287 . S
O281 Fe267 1.996 . S
O281 C274 1.255 . S
C282 O275 1.287 . S
C282 O276 1.255 . S
O283 Fe265 2.002 . S
O283 C279 1.295 . S
O284 Fe267 1.997 . S
O284 C279 1.235 . S
C285 O268 1.295 . S
C285 O269 1.235 . S
Fe286 O288 1.918 . S
Fe286 O291 1.997 . S
Fe286 O292 2.002 . S
Fe286 O297 1.976 . S
Fe286 O300 1.996 . S
Fe287 O288 1.918 . S
Fe287 O295 1.997 . S
Fe287 O298 1.996 . S
Fe287 O302 1.976 . S
Fe287 O305 2.002 . S
O288 Fe286 1.918 . S
O288 Fe287 1.918 . S
O288 Fe289 1.918 . S
Fe289 O288 1.918 . S
Fe289 O290 2.002 . S
Fe289 O299 1.976 . S
Fe289 O303 1.996 . S
Fe289 O306 1.997 . S
O290 Fe289 2.002 . S
O290 C307 1.295 . S
O291 Fe286 1.997 . S
O291 C307 1.235 . S
O292 Fe286 2.002 . S
O292 C293 1.295 . S
C293 O292 1.295 . S
C293 O295 1.235 . S
C294 O299 1.287 . S
C294 O300 1.255 . S
O295 Fe287 1.997 . S
O295 C293 1.235 . S
C296 O302 1.287 . S
C296 O303 1.255 . S
O297 Fe286 1.976 . S
O297 C304 1.287 . S
O298 Fe287 1.996 . S
O298 C304 1.255 . S
O299 Fe289 1.976 . S
O299 C294 1.287 . S
O300 Fe286 1.996 . S
O300 C294 1.255 . S
C301 O305 1.295 . S
C301 O306 1.235 . S
O302 Fe287 1.976 . S
O302 C296 1.287 . S
O303 Fe289 1.996 . S
O303 C296 1.255 . S
C304 O297 1.287 . S
C304 O298 1.255 . S
O305 Fe287 2.002 . S
O305 C301 1.295 . S
O306 Fe289 1.997 . S
O306 C301 1.235 . S
C307 O290 1.295 . S
C307 O291 1.235 . S
Fe308 O310 1.918 . S
Fe308 O313 1.997 . S
Fe308 O314 2.002 . S
Fe308 O319 1.976 . S
Fe308 O322 1.996 . S
Fe309 O310 1.918 . S
Fe309 O317 1.997 . S
Fe309 O320 1.996 . S
Fe309 O324 1.976 . S
Fe309 O327 2.002 . S
O310 Fe308 1.918 . S
O310 Fe309 1.918 . S
O310 Fe311 1.918 . S
Fe311 O310 1.918 . S
Fe311 O312 2.002 . S
Fe311 O321 1.976 . S
Fe311 O325 1.996 . S
Fe311 O328 1.997 . S
O312 Fe311 2.002 . S
O312 C329 1.295 . S
O313 Fe308 1.997 . S
O313 C329 1.235 . S
O314 Fe308 2.002 . S
O314 C315 1.295 . S
C315 O314 1.295 . S
C315 O317 1.235 . S
C316 O321 1.287 . S
C316 O322 1.255 . S
O317 Fe309 1.997 . S
O317 C315 1.235 . S
C318 O324 1.287 . S
C318 O325 1.255 . S
O319 Fe308 1.976 . S
O319 C326 1.287 . S
O320 Fe309 1.996 . S
O320 C326 1.255 . S
O321 Fe311 1.976 . S
O321 C316 1.287 . S
O322 Fe308 1.996 . S
O322 C316 1.255 . S
C323 O327 1.295 . S
C323 O328 1.235 . S
O324 Fe309 1.976 . S
O324 C318 1.287 . S
O325 Fe311 1.996 . S
O325 C318 1.255 . S
C326 O319 1.287 . S
C326 O320 1.255 . S
O327 Fe309 2.002 . S
O327 C323 1.295 . S
O328 Fe311 1.997 . S
O328 C323 1.235 . S
C329 O312 1.295 . S
C329 O313 1.235 . S
Fe330 O332 1.918 . S
Fe330 O335 1.997 . S
Fe330 O336 2.002 . S
Fe330 O341 1.976 . S
Fe330 O344 1.996 . S
Fe331 O332 1.918 . S
Fe331 O339 1.997 . S
Fe331 O342 1.996 . S
Fe331 O346 1.976 . S
Fe331 O349 2.002 . S
O332 Fe330 1.918 . S
O332 Fe331 1.918 . S
O332 Fe333 1.918 . S
Fe333 O332 1.918 . S
Fe333 O334 2.002 . S
Fe333 O343 1.976 . S
Fe333 O347 1.996 . S
Fe333 O350 1.997 . S
O334 Fe333 2.002 . S
O334 C351 1.295 . S
O335 Fe330 1.997 . S
O335 C351 1.235 . S
O336 Fe330 2.002 . S
O336 C337 1.295 . S
C337 O336 1.295 . S
C337 O339 1.235 . S
C338 O343 1.287 . S
C338 O344 1.255 . S
O339 Fe331 1.997 . S
O339 C337 1.235 . S
C340 O346 1.287 . S
C340 O347 1.255 . S
O341 Fe330 1.976 . S
O341 C348 1.287 . S
O342 Fe331 1.996 . S
O342 C348 1.255 . S
O343 Fe333 1.976 . S
O343 C338 1.287 . S
O344 Fe330 1.996 . S
O344 C338 1.255 . S
C345 O349 1.295 . S
C345 O350 1.235 . S
O346 Fe331 1.976 . S
O346 C340 1.287 . S
O347 Fe333 1.996 . S
O347 C340 1.255 . S
C348 O341 1.287 . S
C348 O342 1.255 . S
O349 Fe331 2.002 . S
O349 C345 1.295 . S
O350 Fe333 1.997 . S
O350 C345 1.235 . S
C351 O334 1.295 . S
C351 O335 1.235 . S
Fe352 O354 1.918 . S
Fe352 O357 1.997 . S
Fe352 O358 2.002 . S
Fe352 O363 1.976 . S
Fe352 O366 1.996 . S
Fe353 O354 1.918 . S
Fe353 O361 1.997 . S
Fe353 O364 1.996 . S
Fe353 O368 1.976 . S
Fe353 O371 2.002 . S
O354 Fe352 1.918 . S
O354 Fe353 1.918 . S
O354 Fe355 1.918 . S
Fe355 O354 1.918 . S
Fe355 O356 2.002 . S
Fe355 O365 1.976 . S
Fe355 O369 1.996 . S
Fe355 O372 1.997 . S
O356 Fe355 2.002 . S
O356 C373 1.295 . S
O357 Fe352 1.997 . S
O357 C373 1.235 . S
O358 Fe352 2.002 . S
O358 C359 1.295 . S
C359 O358 1.295 . S
C359 O361 1.235 . S
C360 O365 1.287 . S
C360 O366 1.255 . S
O361 Fe353 1.997 . S
O361 C359 1.235 . S
C362 O368 1.287 . S
C362 O369 1.255 . S
O363 Fe352 1.976 . S
O363 C370 1.287 . S
O364 Fe353 1.996 . S
O364 C370 1.255 . S
O365 Fe355 1.976 . S
O365 C360 1.287 . S
O366 Fe352 1.996 . S
O366 C360 1.255 . S
C367 O371 1.295 . S
C367 O372 1.235 . S
O368 Fe353 1.976 . S
O368 C362 1.287 . S
O369 Fe355 1.996 . S
O369 C362 1.255 . S
C370 O363 1.287 . S
C370 O364 1.255 . S
O371 Fe353 2.002 . S
O371 C367 1.295 . S
O372 Fe355 1.997 . S
O372 C367 1.235 . S
C373 O356 1.295 . S
C373 O357 1.235 . S
Fe374 O376 1.918 . S
Fe374 O379 1.997 . S
Fe374 O380 2.002 . S
Fe374 O385 1.976 . S
Fe374 O388 1.996 . S
Fe375 O376 1.918 . S
Fe375 O383 1.997 . S
Fe375 O386 1.996 . S
Fe375 O390 1.976 . S
Fe375 O393 2.002 . S
O376 Fe374 1.918 . S
O376 Fe375 1.918 . S
O376 Fe377 1.918 . S
Fe377 O376 1.918 . S
Fe377 O378 2.002 . S
Fe377 O387 1.976 . S
Fe377 O391 1.996 . S
Fe377 O394 1.997 . S
O378 Fe377 2.002 . S
O378 C395 1.295 . S
O379 Fe374 1.997 . S
O379 C395 1.235 . S
O380 Fe374 2.002 . S
O380 C381 1.295 . S
C381 O380 1.295 . S
C381 O383 1.235 . S
C382 O387 1.287 . S
C382 O388 1.255 . S
O383 Fe375 1.997 . S
O383 C381 1.235 . S
C384 O390 1.287 . S
C384 O391 1.255 . S
O385 Fe374 1.976 . S
O385 C392 1.287 . S
O386 Fe375 1.996 . S
O386 C392 1.255 . S
O387 Fe377 1.976 . S
O387 C382 1.287 . S
O388 Fe374 1.996 . S
O388 C382 1.255 . S
C389 O393 1.295 . S
C389 O394 1.235 . S
O390 Fe375 1.976 . S
O390 C384 1.287 . S
O391 Fe377 1.996 . S
O391 C384 1.255 . S
C392 O385 1.287 . S
C392 O386 1.255 . S
O393 Fe375 2.002 . S
O393 C389 1.295 . S
O394 Fe377 1.997 . S
O394 C389 1.235 . S
C395 O378 1.295 . S
C395 O379 1.235 . S
Fe396 O398 1.918 . S
Fe396 O401 1.997 . S
Fe396 O402 2.002 . S
Fe396 O407 1.976 . S
Fe396 O410 1.996 . S
Fe397 O398 1.918 . S
Fe397 O405 1.997 . S
Fe397 O408 1.996 . S
Fe397 O412 1.976 . S
Fe397 O415 2.002 . S
O398 Fe396 1.918 . S
O398 Fe397 1.918 . S
O398 Fe399 1.918 . S
Fe399 O398 1.918 . S
Fe399 O400 2.002 . S
Fe399 O409 1.976 . S
Fe399 O413 1.996 . S
Fe399 O416 1.997 . S
O400 Fe399 2.002 . S
O400 C417 1.295 . S
O401 Fe396 1.997 . S
O401 C417 1.235 . S
O402 Fe396 2.002 . S
O402 C403 1.295 . S
C403 O402 1.295 . S
C403 O405 1.235 . S
C404 O409 1.287 . S
C404 O410 1.255 . S
O405 Fe397 1.997 . S
O405 C403 1.235 . S
C406 O412 1.287 . S
C406 O413 1.255 . S
O407 Fe396 1.976 . S
O407 C414 1.287 . S
O408 Fe397 1.996 . S
O408 C414 1.255 . S
O409 Fe399 1.976 . S
O409 C404 1.287 . S
O410 Fe396 1.996 . S
O410 C404 1.255 . S
C411 O415 1.295 . S
C411 O416 1.235 . S
O412 Fe397 1.976 . S
O412 C406 1.287 . S
O413 Fe399 1.996 . S
O413 C406 1.255 . S
C414 O407 1.287 . S
C414 O408 1.255 . S
O415 Fe397 2.002 . S
O415 C411 1.295 . S
O416 Fe399 1.997 . S
O416 C411 1.235 . S
C417 O400 1.295 . S
C417 O401 1.235 . S
Fe418 O420 1.918 . S
Fe418 O423 1.997 . S
Fe418 O424 2.002 . S
Fe418 O429 1.976 . S
Fe418 O432 1.996 . S
Fe419 O420 1.918 . S
Fe419 O427 1.997 . S
Fe419 O430 1.996 . S
Fe419 O434 1.976 . S
Fe419 O437 2.002 . S
O420 Fe418 1.918 . S
O420 Fe419 1.918 . S
O420 Fe421 1.918 . S
Fe421 O420 1.918 . S
Fe421 O422 2.002 . S
Fe421 O431 1.976 . S
Fe421 O435 1.996 . S
Fe421 O438 1.997 . S
O422 Fe421 2.002 . S
O422 C439 1.295 . S
O423 Fe418 1.997 . S
O423 C439 1.235 . S
O424 Fe418 2.002 . S
O424 C425 1.295 . S
C425 O424 1.295 . S
C425 O427 1.235 . S
C426 O431 1.287 . S
C426 O432 1.255 . S
O427 Fe419 1.997 . S
O427 C425 1.235 . S
C428 O434 1.287 . S
C428 O435 1.255 . S
O429 Fe418 1.976 . S
O429 C436 1.287 . S
O430 Fe419 1.996 . S
O430 C436 1.255 . S
O431 Fe421 1.976 . S
O431 C426 1.287 . S
O432 Fe418 1.996 . S
O432 C426 1.255 . S
C433 O437 1.295 . S
C433 O438 1.235 . S
O434 Fe419 1.976 . S
O434 C428 1.287 . S
O435 Fe421 1.996 . S
O435 C428 1.255 . S
C436 O429 1.287 . S
C436 O430 1.255 . S
O437 Fe419 2.002 . S
O437 C433 1.295 . S
O438 Fe421 1.997 . S
O438 C433 1.235 . S
C439 O422 1.295 . S
C439 O423 1.235 . S
Fe440 O442 1.918 . S
Fe440 O445 1.997 . S
Fe440 O446 2.002 . S
Fe440 O451 1.976 . S
Fe440 O454 1.996 . S
Fe441 O442 1.918 . S
Fe441 O449 1.997 . S
Fe441 O452 1.996 . S
Fe441 O456 1.976 . S
Fe441 O459 2.002 . S
O442 Fe440 1.918 . S
O442 Fe441 1.918 . S
O442 Fe443 1.918 . S
Fe443 O442 1.918 . S
Fe443 O444 2.002 . S
Fe443 O453 1.976 . S
Fe443 O457 1.996 . S
Fe443 O460 1.997 . S
O444 Fe443 2.002 . S
O444 C461 1.295 . S
O445 Fe440 1.997 . S
O445 C461 1.235 . S
O446 Fe440 2.002 . S
O446 C447 1.295 . S
C447 O446 1.295 . S
C447 O449 1.235 . S
C448 O453 1.287 . S
C448 O454 1.255 . S
O449 Fe441 1.997 . S
O449 C447 1.235 . S
C450 O456 1.287 . S
C450 O457 1.255 . S
O451 Fe440 1.976 . S
O451 C458 1.287 . S
O452 Fe441 1.996 . S
O452 C458 1.255 . S
O453 Fe443 1.976 . S
O453 C448 1.287 . S
O454 Fe440 1.996 . S
O454 C448 1.255 . S
C455 O459 1.295 . S
C455 O460 1.235 . S
O456 Fe441 1.976 . S
O456 C450 1.287 . S
O457 Fe443 1.996 . S
O457 C450 1.255 . S
C458 O451 1.287 . S
C458 O452 1.255 . S
O459 Fe441 2.002 . S
O459 C455 1.295 . S
O460 Fe443 1.997 . S
O460 C455 1.235 . S
C461 O444 1.295 . S
C461 O445 1.235 . S
Fe462 O464 1.918 . S
Fe462 O467 1.997 . S
Fe462 O468 2.002 . S
Fe462 O473 1.976 . S
Fe462 O476 1.996 . S
Fe463 O464 1.918 . S
Fe463 O471 1.997 . S
Fe463 O474 1.996 . S
Fe463 O478 1.976 . S
Fe463 O481 2.002 . S
O464 Fe462 1.918 . S
O464 Fe463 1.918 . S
O464 Fe465 1.918 . S
Fe465 O464 1.918 . S
Fe465 O466 2.002 . S
Fe465 O475 1.976 . S
Fe465 O479 1.996 . S
Fe465 O482 1.997 . S
O466 Fe465 2.002 . S
O466 C483 1.295 . S
O467 Fe462 1.997 . S
O467 C483 1.235 . S
O468 Fe462 2.002 . S
O468 C469 1.295 . S
C469 O468 1.295 . S
C469 O471 1.235 . S
C470 O475 1.287 . S
C470 O476 1.255 . S
O471 Fe463 1.997 . S
O471 C469 1.235 . S
C472 O478 1.287 . S
C472 O479 1.255 . S
O473 Fe462 1.976 . S
O473 C480 1.287 . S
O474 Fe463 1.996 . S
O474 C480 1.255 . S
O475 Fe465 1.976 . S
O475 C470 1.287 . S
O476 Fe462 1.996 . S
O476 C470 1.255 . S
C477 O481 1.295 . S
C477 O482 1.235 . S
O478 Fe463 1.976 . S
O478 C472 1.287 . S
O479 Fe465 1.996 . S
O479 C472 1.255 . S
C480 O473 1.287 . S
C480 O474 1.255 . S
O481 Fe463 2.002 . S
O481 C477 1.295 . S
O482 Fe465 1.997 . S
O482 C477 1.235 . S
C483 O466 1.295 . S
C483 O467 1.235 . S
Fe484 O486 1.918 . S
Fe484 O489 1.997 . S
Fe484 O490 2.002 . S
Fe484 O495 1.976 . S
Fe484 O498 1.996 . S
Fe485 O486 1.918 . S
Fe485 O493 1.997 . S
Fe485 O496 1.996 . S
Fe485 O500 1.976 . S
Fe485 O503 2.002 . S
O486 Fe484 1.918 . S
O486 Fe485 1.918 . S
O486 Fe487 1.918 . S
Fe487 O486 1.918 . S
Fe487 O488 2.002 . S
Fe487 O497 1.976 . S
Fe487 O501 1.996 . S
Fe487 O504 1.997 . S
O488 Fe487 2.002 . S
O488 C505 1.295 . S
O489 Fe484 1.997 . S
O489 C505 1.235 . S
O490 Fe484 2.002 . S
O490 C491 1.295 . S
C491 O490 1.295 . S
C491 O493 1.235 . S
C492 O497 1.287 . S
C492 O498 1.255 . S
O493 Fe485 1.997 . S
O493 C491 1.235 . S
C494 O500 1.287 . S
C494 O501 1.255 . S
O495 Fe484 1.976 . S
O495 C502 1.287 . S
O496 Fe485 1.996 . S
O496 C502 1.255 . S
O497 Fe487 1.976 . S
O497 C492 1.287 . S
O498 Fe484 1.996 . S
O498 C492 1.255 . S
C499 O503 1.295 . S
C499 O504 1.235 . S
O500 Fe485 1.976 . S
O500 C494 1.287 . S
O501 Fe487 1.996 . S
O501 C494 1.255 . S
C502 O495 1.287 . S
C502 O496 1.255 . S
O503 Fe485 2.002 . S
O503 C499 1.295 . S
O504 Fe487 1.997 . S
O504 C499 1.235 . S
C505 O488 1.295 . S
C505 O489 1.235 . S
Fe506 O508 1.918 . S
Fe506 O511 1.997 . S
Fe506 O512 2.002 . S
Fe506 O517 1.976 . S
Fe506 O520 1.996 . S
Fe507 O508 1.918 . S
Fe507 O515 1.997 . S
Fe507 O518 1.996 . S
Fe507 O522 1.976 . S
Fe507 O525 2.002 . S
O508 Fe506 1.918 . S
O508 Fe507 1.918 . S
O508 Fe509 1.918 . S
Fe509 O508 1.918 . S
Fe509 O510 2.002 . S
Fe509 O519 1.976 . S
Fe509 O523 1.996 . S
Fe509 O526 1.997 . S
O510 Fe509 2.002 . S
O510 C527 1.295 . S
O511 Fe506 1.997 . S
O511 C527 1.235 . S
O512 Fe506 2.002 . S
O512 C513 1.295 . S
C513 O512 1.295 . S
C513 O515 1.235 . S
C514 O519 1.287 . S
C514 O520 1.255 . S
O515 Fe507 1.997 . S
O515 C513 1.235 . S
C516 O522 1.287 . S
C516 O523 1.255 . S
O517 Fe506 1.976 . S
O517 C524 1.287 . S
O518 Fe507 1.996 . S
O518 C524 1.255 . S
O519 Fe509 1.976 . S
O519 C514 1.287 . S
O520 Fe506 1.996 . S
O520 C514 1.255 . S
C521 O525 1.295 . S
C521 O526 1.235 . S
O522 Fe507 1.976 . S
O522 C516 1.287 . S
O523 Fe509 1.996 . S
O523 C516 1.255 . S
C524 O517 1.287 . S
C524 O518 1.255 . S
O525 Fe507 2.002 . S
O525 C521 1.295 . S
O526 Fe509 1.997 . S
O526 C521 1.235 . S
C527 O510 1.295 . S
C527 O511 1.235 . S
Fe528 O530 1.918 . S
Fe528 O533 1.997 . S
Fe528 O534 2.002 . S
Fe528 O539 1.976 . S
Fe528 O542 1.996 . S
Fe529 O530 1.918 . S
Fe529 O537 1.997 . S
Fe529 O540 1.996 . S
Fe529 O544 1.976 . S
Fe529 O547 2.002 . S
O530 Fe528 1.918 . S
O530 Fe529 1.918 . S
O530 Fe531 1.918 . S
Fe531 O530 1.918 . S
Fe531 O532 2.002 . S
Fe531 O541 1.976 . S
Fe531 O545 1.996 . S
Fe531 O548 1.997 . S
O532 Fe531 2.002 . S
O532 C549 1.295 . S
O533 Fe528 1.997 . S
O533 C549 1.235 . S
O534 Fe528 2.002 . S
O534 C535 1.295 . S
C535 O534 1.295 . S
C535 O537 1.235 . S
C536 O541 1.287 . S
C536 O542 1.255 . S
O537 Fe529 1.997 . S
O537 C535 1.235 . S
C538 O544 1.287 . S
C538 O545 1.255 . S
O539 Fe528 1.976 . S
O539 C546 1.287 . S
O540 Fe529 1.996 . S
O540 C546 1.255 . S
O541 Fe531 1.976 . S
O541 C536 1.287 . S
O542 Fe528 1.996 . S
O542 C536 1.255 . S
C543 O547 1.295 . S
C543 O548 1.235 . S
O544 Fe529 1.976 . S
O544 C538 1.287 . S
O545 Fe531 1.996 . S
O545 C538 1.255 . S
C546 O539 1.287 . S
C546 O540 1.255 . S
O547 Fe529 2.002 . S
O547 C543 1.295 . S
O548 Fe531 1.997 . S
O548 C543 1.235 . S
C549 O532 1.295 . S
C549 O533 1.235 . S
Fe550 O552 1.918 . S
Fe550 O555 1.997 . S
Fe550 O556 2.002 . S
Fe550 O561 1.976 . S
Fe550 O564 1.996 . S
Fe551 O552 1.918 . S
Fe551 O559 1.997 . S
Fe551 O562 1.996 . S
Fe551 O566 1.976 . S
Fe551 O569 2.002 . S
O552 Fe550 1.918 . S
O552 Fe551 1.918 . S
O552 Fe553 1.918 . S
Fe553 O552 1.918 . S
Fe553 O554 2.002 . S
Fe553 O563 1.976 . S
Fe553 O567 1.996 . S
Fe553 O570 1.997 . S
O554 Fe553 2.002 . S
O554 C571 1.295 . S
O555 Fe550 1.997 . S
O555 C571 1.235 . S
O556 Fe550 2.002 . S
O556 C557 1.295 . S
C557 O556 1.295 . S
C557 O559 1.235 . S
C558 O563 1.287 . S
C558 O564 1.255 . S
O559 Fe551 1.997 . S
O559 C557 1.235 . S
C560 O566 1.287 . S
C560 O567 1.255 . S
O561 Fe550 1.976 . S
O561 C568 1.287 . S
O562 Fe551 1.996 . S
O562 C568 1.255 . S
O563 Fe553 1.976 . S
O563 C558 1.287 . S
O564 Fe550 1.996 . S
O564 C558 1.255 . S
C565 O569 1.295 . S
C565 O570 1.235 . S
O566 Fe551 1.976 . S
O566 C560 1.287 . S
O567 Fe553 1.996 . S
O567 C560 1.255 . S
C568 O561 1.287 . S
C568 O562 1.255 . S
O569 Fe551 2.002 . S
O569 C565 1.295 . S
O570 Fe553 1.997 . S
O570 C565 1.235 . S
C571 O554 1.295 . S
C571 O555 1.235 . S
Fe572 O574 1.918 . S
Fe572 O577 1.997 . S
Fe572 O578 2.002 . S
Fe572 O583 1.976 . S
Fe572 O586 1.996 . S
Fe573 O574 1.918 . S
Fe573 O581 1.997 . S
Fe573 O584 1.996 . S
Fe573 O588 1.976 . S
Fe573 O591 2.002 . S
O574 Fe572 1.918 . S
O574 Fe573 1.918 . S
O574 Fe575 1.918 . S
Fe575 O574 1.918 . S
Fe575 O576 2.002 . S
Fe575 O585 1.976 . S
Fe575 O589 1.996 . S
Fe575 O592 1.997 . S
O576 Fe575 2.002 . S
O576 C593 1.295 . S
O577 Fe572 1.997 . S
O577 C593 1.235 . S
O578 Fe572 2.002 . S
O578 C579 1.295 . S
C579 O578 1.295 . S
C579 O581 1.235 . S
C580 O585 1.287 . S
C580 O586 1.255 . S
O581 Fe573 1.997 . S
O581 C579 1.235 . S
C582 O588 1.287 . S
C582 O589 1.255 . S
O583 Fe572 1.976 . S
O583 C590 1.287 . S
O584 Fe573 1.996 . S
O584 C590 1.255 . S
O585 Fe575 1.976 . S
O585 C580 1.287 . S
O586 Fe572 1.996 . S
O586 C580 1.255 . S
C587 O591 1.295 . S
C587 O592 1.235 . S
O588 Fe573 1.976 . S
O588 C582 1.287 . S
O589 Fe575 1.996 . S
O589 C582 1.255 . S
C590 O583 1.287 . S
C590 O584 1.255 . S
O591 Fe573 2.002 . S
O591 C587 1.295 . S
O592 Fe575 1.997 . S
O592 C587 1.235 . S
C593 O576 1.295 . S
C593 O577 1.235 . S
Fe594 O596 1.918 . S
Fe594 O599 1.997 . S
Fe594 O600 2.002 . S
Fe594 O605 1.976 . S
Fe594 O608 1.996 . S
Fe595 O596 1.918 . S
Fe595 O603 1.997 . S
Fe595 O606 1.996 . S
Fe595 O610 1.976 . S
Fe595 O613 2.002 . S
O596 Fe594 1.918 . S
O596 Fe595 1.918 . S
O596 Fe597 1.918 . S
Fe597 O596 1.918 . S
Fe597 O598 2.002 . S
Fe597 O607 1.976 . S
Fe597 O611 1.996 . S
Fe597 O614 1.997 . S
O598 Fe597 2.002 . S
O598 C615 1.295 . S
O599 Fe594 1.997 . S
O599 C615 1.235 . S
O600 Fe594 2.002 . S
O600 C601 1.295 . S
C601 O600 1.295 . S
C601 O603 1.235 . S
C602 O607 1.287 . S
C602 O608 1.255 . S
O603 Fe595 1.997 . S
O603 C601 1.235 . S
C604 O610 1.287 . S
C604 O611 1.255 . S
O605 Fe594 1.976 . S
O605 C612 1.287 . S
O606 Fe595 1.996 . S
O606 C612 1.255 . S
O607 Fe597 1.976 . S
O607 C602 1.287 . S
O608 Fe594 1.996 . S
O608 C602 1.255 . S
C609 O613 1.295 . S
C609 O614 1.235 . S
O610 Fe595 1.976 . S
O610 C604 1.287 . S
O611 Fe597 1.996 . S
O611 C604 1.255 . S
C612 O605 1.287 . S
C612 O606 1.255 . S
O613 Fe595 2.002 . S
O613 C609 1.295 . S
O614 Fe597 1.997 . S
O614 C609 1.235 . S
C615 O598 1.295 . S
C615 O599 1.235 . S
Fe616 O618 1.918 . S
Fe616 O621 1.997 . S
Fe616 O622 2.002 . S
Fe616 O627 1.976 . S
Fe616 O630 1.996 . S
Fe617 O618 1.918 . S
Fe617 O625 1.997 . S
Fe617 O628 1.996 . S
Fe617 O632 1.976 . S
Fe617 O635 2.002 . S
O618 Fe616 1.918 . S
O618 Fe617 1.918 . S
O618 Fe619 1.918 . S
Fe619 O618 1.918 . S
Fe619 O620 2.002 . S
Fe619 O629 1.976 . S
Fe619 O633 1.996 . S
Fe619 O636 1.997 . S
O620 Fe619 2.002 . S
O620 C637 1.295 . S
O621 Fe616 1.997 . S
O621 C637 1.235 . S
O622 Fe616 2.002 . S
O622 C623 1.295 . S
C623 O622 1.295 . S
C623 O625 1.235 . S
C624 O629 1.287 . S
C624 O630 1.255 . S
O625 Fe617 1.997 . S
O625 C623 1.235 . S
C626 O632 1.287 . S
C626 O633 1.255 . S
O627 Fe616 1.976 . S
O627 C634 1.287 . S
O628 Fe617 1.996 . S
O628 C634 1.255 . S
O629 Fe619 1.976 . S
O629 C624 1.287 . S
O630 Fe616 1.996 . S
O630 C624 1.255 . S
C631 O635 1.295 . S
C631 O636 1.235 . S
O632 Fe617 1.976 . S
O632 C626 1.287 . S
O633 Fe619 1.996 . S
O633 C626 1.255 . S
C634 O627 1.287 . S
C634 O628 1.255 . S
O635 Fe617 2.002 . S
O635 C631 1.295 . S
O636 Fe619 1.997 . S
O636 C631 1.235 . S
C637 O620 1.295 . S
C637 O621 1.235 . S
Fe638 O640 1.918 . S
Fe638 O643 1.997 . S
Fe638 O644 2.002 . S
Fe638 O649 1.976 . S
Fe638 O652 1.996 . S
Fe639 O640 1.918 . S
Fe639 O647 1.997 . S
Fe639 O650 1.996 . S
Fe639 O654 1.976 . S
Fe639 O657 2.002 . S
O640 Fe638 1.918 . S
O640 Fe639 1.918 . S
O640 Fe641 1.918 . S
Fe641 O640 1.918 . S
Fe641 O642 2.002 . S
Fe641 O651 1.976 . S
Fe641 O655 1.996 . S
Fe641 O658 1.997 . S
O642 Fe641 2.002 . S
O642 C659 1.295 . S
O643 Fe638 1.997 . S
O643 C659 1.235 . S
O644 Fe638 2.002 . S
O644 C645 1.295 . S
C645 O644 1.295 . S
C645 O647 1.235 . S
C646 O651 1.287 . S
C646 O652 1.255 . S
O647 Fe639 1.997 . S
O647 C645 1.235 . S
C648 O654 1.287 . S
C648 O655 1.255 . S
O649 Fe638 1.976 . S
O649 C656 1.287 . S
O650 Fe639 1.996 . S
O650 C656 1.255 . S
O651 Fe641 1.976 . S
O651 C646 1.287 . S
O652 Fe638 1.996 . S
O652 C646 1.255 . S
C653 O657 1.295 . S
C653 O658 1.235 . S
O654 Fe639 1.976 . S
O654 C648 1.287 . S
O655 Fe641 1.996 . S
O655 C648 1.255 . S
C656 O649 1.287 . S
C656 O650 1.255 . S
O657 Fe639 2.002 . S
O657 C653 1.295 . S
O658 Fe641 1.997 . S
O658 C653 1.235 . S
C659 O642 1.295 . S
C659 O643 1.235 . S
Fe660 O662 1.918 . S
Fe660 O665 1.997 . S
Fe660 O666 2.002 . S
Fe660 O671 1.976 . S
Fe660 O674 1.996 . S
Fe661 O662 1.918 . S
Fe661 O669 1.997 . S
Fe661 O672 1.996 . S
Fe661 O676 1.976 . S
Fe661 O679 2.002 . S
O662 Fe660 1.918 . S
O662 Fe661 1.918 . S
O662 Fe663 1.918 . S
Fe663 O662 1.918 . S
Fe663 O664 2.002 . S
Fe663 O673 1.976 . S
Fe663 O677 1.996 . S
Fe663 O680 1.997 . S
O664 Fe663 2.002 . S
O664 C681 1.295 . S
O665 Fe660 1.997 . S
O665 C681 1.235 . S
O666 Fe660 2.002 . S
O666 C667 1.295 . S
C667 O666 1.295 . S
C667 O669 1.235 . S
C668 O673 1.287 . S
C668 O674 1.255 . S
O669 Fe661 1.997 . S
O669 C667 1.235 . S
C670 O676 1.287 . S
C670 O677 1.255 . S
O671 Fe660 1.976 . S
O671 C678 1.287 . S
O672 Fe661 1.996 . S
O672 C678 1.255 . S
O673 Fe663 1.976 . S
O673 C668 1.287 . S
O674 Fe660 1.996 . S
O674 C668 1.255 . S
C675 O679 1.295 . S
C675 O680 1.235 . S
O676 Fe661 1.976 . S
O676 C670 1.287 . S
O677 Fe663 1.996 . S
O677 C670 1.255 . S
C678 O671 1.287 . S
C678 O672 1.255 . S
O679 Fe661 2.002 . S
O679 C675 1.295 . S
O680 Fe663 1.997 . S
O680 C675 1.235 . S
C681 O664 1.295 . S
C681 O665 1.235 . S
Fe682 O684 1.918 . S
Fe682 O687 1.997 . S
Fe682 O688 2.002 . S
Fe682 O693 1.976 . S
Fe682 O696 1.996 . S
Fe683 O684 1.918 . S
Fe683 O691 1.997 . S
Fe683 O694 1.996 . S
Fe683 O698 1.976 . S
Fe683 O701 2.002 . S
O684 Fe682 1.918 . S
O684 Fe683 1.918 . S
O684 Fe685 1.918 . S
Fe685 O684 1.918 . S
Fe685 O686 2.002 . S
Fe685 O695 1.976 . S
Fe685 O699 1.996 . S
Fe685 O702 1.997 . S
O686 Fe685 2.002 . S
O686 C703 1.295 . S
O687 Fe682 1.997 . S
O687 C703 1.235 . S
O688 Fe682 2.002 . S
O688 C689 1.295 . S
C689 O688 1.295 . S
C689 O691 1.235 . S
C690 O695 1.287 . S
C690 O696 1.255 . S
O691 Fe683 1.997 . S
O691 C689 1.235 . S
C692 O698 1.287 . S
C692 O699 1.255 . S
O693 Fe682 1.976 . S
O693 C700 1.287 . S
O694 Fe683 1.996 . S
O694 C700 1.255 . S
O695 Fe685 1.976 . S
O695 C690 1.287 . S
O696 Fe682 1.996 . S
O696 C690 1.255 . S
C697 O701 1.295 . S
C697 O702 1.235 . S
O698 Fe683 1.976 . S
O698 C692 1.287 . S
O699 Fe685 1.996 . S
O699 C692 1.255 . S
C700 O693 1.287 . S
C700 O694 1.255 . S
O701 Fe683 2.002 . S
O701 C697 1.295 . S
O702 Fe685 1.997 . S
O702 C697 1.235 . S
C703 O686 1.295 . S
C703 O687 1.235 . S
Fe704 O706 1.918 . S
Fe704 O709 1.997 . S
Fe704 O710 2.002 . S
Fe704 O715 1.976 . S
Fe704 O718 1.996 . S
Fe705 O706 1.918 . S
Fe705 O713 1.997 . S
Fe705 O716 1.996 . S
Fe705 O720 1.976 . S
Fe705 O723 2.002 . S
O706 Fe704 1.918 . S
O706 Fe705 1.918 . S
O706 Fe707 1.918 . S
Fe707 O706 1.918 . S
Fe707 O708 2.002 . S
Fe707 O717 1.976 . S
Fe707 O721 1.996 . S
Fe707 O724 1.997 . S
O708 Fe707 2.002 . S
O708 C725 1.295 . S
O709 Fe704 1.997 . S
O709 C725 1.235 . S
O710 Fe704 2.002 . S
O710 C711 1.295 . S
C711 O710 1.295 . S
C711 O713 1.235 . S
C712 O717 1.287 . S
C712 O718 1.255 . S
O713 Fe705 1.997 . S
O713 C711 1.235 . S
C714 O720 1.287 . S
C714 O721 1.255 . S
O715 Fe704 1.976 . S
O715 C722 1.287 . S
O716 Fe705 1.996 . S
O716 C722 1.255 . S
O717 Fe707 1.976 . S
O717 C712 1.287 . S
O718 Fe704 1.996 . S
O718 C712 1.255 . S
C719 O723 1.295 . S
C719 O724 1.235 . S
O720 Fe705 1.976 . S
O720 C714 1.287 . S
O721 Fe707 1.996 . S
O721 C714 1.255 . S
C722 O715 1.287 . S
C722 O716 1.255 . S
O723 Fe705 2.002 . S
O723 C719 1.295 . S
O724 Fe707 1.997 . S
O724 C719 1.235 . S
C725 O708 1.295 . S
C725 O709 1.235 . S
Fe726 O728 1.918 . S
Fe726 O731 1.997 . S
Fe726 O732 2.002 . S
Fe726 O737 1.976 . S
Fe726 O740 1.996 . S
Fe727 O728 1.918 . S
Fe727 O735 1.997 . S
Fe727 O738 1.996 . S
Fe727 O742 1.976 . S
Fe727 O745 2.002 . S
O728 Fe726 1.918 . S
O728 Fe727 1.918 . S
O728 Fe729 1.918 . S
Fe729 O728 1.918 . S
Fe729 O730 2.002 . S
Fe729 O739 1.976 . S
Fe729 O743 1.996 . S
Fe729 O746 1.997 . S
O730 Fe729 2.002 . S
O730 C747 1.295 . S
O731 Fe726 1.997 . S
O731 C747 1.235 . S
O732 Fe726 2.002 . S
O732 C733 1.295 . S
C733 O732 1.295 . S
C733 O735 1.235 . S
C734 O739 1.287 . S
C734 O740 1.255 . S
O735 Fe727 1.997 . S
O735 C733 1.235 . S
C736 O742 1.287 . S
C736 O743 1.255 . S
O737 Fe726 1.976 . S
O737 C744 1.287 . S
O738 Fe727 1.996 . S
O738 C744 1.255 . S
O739 Fe729 1.976 . S
O739 C734 1.287 . S
O740 Fe726 1.996 . S
O740 C734 1.255 . S
C741 O745 1.295 . S
C741 O746 1.235 . S
O742 Fe727 1.976 . S
O742 C736 1.287 . S
O743 Fe729 1.996 . S
O743 C736 1.255 . S
C744 O737 1.287 . S
C744 O738 1.255 . S
O745 Fe727 2.002 . S
O745 C741 1.295 . S
O746 Fe729 1.997 . S
O746 C741 1.235 . S
C747 O730 1.295 . S
C747 O731 1.235 . S
Fe748 O750 1.918 . S
Fe748 O753 1.997 . S
Fe748 O754 2.002 . S
Fe748 O759 1.976 . S
Fe748 O762 1.996 . S
Fe749 O750 1.918 . S
Fe749 O757 1.997 . S
Fe749 O760 1.996 . S
Fe749 O764 1.976 . S
Fe749 O767 2.002 . S
O750 Fe748 1.918 . S
O750 Fe749 1.918 . S
O750 Fe751 1.918 . S
Fe751 O750 1.918 . S
Fe751 O752 2.002 . S
Fe751 O761 1.976 . S
Fe751 O765 1.996 . S
Fe751 O768 1.997 . S
O752 Fe751 2.002 . S
O752 C769 1.295 . S
O753 Fe748 1.997 . S
O753 C769 1.235 . S
O754 Fe748 2.002 . S
O754 C755 1.295 . S
C755 O754 1.295 . S
C755 O757 1.235 . S
C756 O761 1.287 . S
C756 O762 1.255 . S
O757 Fe749 1.997 . S
O757 C755 1.235 . S
C758 O764 1.287 . S
C758 O765 1.255 . S
O759 Fe748 1.976 . S
O759 C766 1.287 . S
O760 Fe749 1.996 . S
O760 C766 1.255 . S
O761 Fe751 1.976 . S
O761 C756 1.287 . S
O762 Fe748 1.996 . S
O762 C756 1.255 . S
C763 O767 1.295 . S
C763 O768 1.235 . S
O764 Fe749 1.976 . S
O764 C758 1.287 . S
O765 Fe751 1.996 . S
O765 C758 1.255 . S
C766 O759 1.287 . S
C766 O760 1.255 . S
O767 Fe749 2.002 . S
O767 C763 1.295 . S
O768 Fe751 1.997 . S
O768 C763 1.235 . S
C769 O752 1.295 . S
C769 O753 1.235 . S
Fe770 O772 1.918 . S
Fe770 O775 1.997 . S
Fe770 O776 2.002 . S
Fe770 O781 1.976 . S
Fe770 O784 1.996 . S
Fe771 O772 1.918 . S
Fe771 O779 1.997 . S
Fe771 O782 1.996 . S
Fe771 O786 1.976 . S
Fe771 O789 2.002 . S
O772 Fe770 1.918 . S
O772 Fe771 1.918 . S
O772 Fe773 1.918 . S
Fe773 O772 1.918 . S
Fe773 O774 2.002 . S
Fe773 O783 1.976 . S
Fe773 O787 1.996 . S
Fe773 O790 1.997 . S
O774 Fe773 2.002 . S
O774 C791 1.295 . S
O775 Fe770 1.997 . S
O775 C791 1.235 . S
O776 Fe770 2.002 . S
O776 C777 1.295 . S
C777 O776 1.295 . S
C777 O779 1.235 . S
C778 O783 1.287 . S
C778 O784 1.255 . S
O779 Fe771 1.997 . S
O779 C777 1.235 . S
C780 O786 1.287 . S
C780 O787 1.255 . S
O781 Fe770 1.976 . S
O781 C788 1.287 . S
O782 Fe771 1.996 . S
O782 C788 1.255 . S
O783 Fe773 1.976 . S
O783 C778 1.287 . S
O784 Fe770 1.996 . S
O784 C778 1.255 . S
C785 O789 1.295 . S
C785 O790 1.235 . S
O786 Fe771 1.976 . S
O786 C780 1.287 . S
O787 Fe773 1.996 . S
O787 C780 1.255 . S
C788 O781 1.287 . S
C788 O782 1.255 . S
O789 Fe771 2.002 . S
O789 C785 1.295 . S
O790 Fe773 1.997 . S
O790 C785 1.235 . S
C791 O774 1.295 . S
C791 O775 1.235 . S
H792 C798 0.930 . S
H793 C802 0.930 . S
H794 C807 0.929 . S
H795 C805 0.929 . S
H796 C800 0.929 . S
H797 C806 0.929 . S
C798 H792 0.930 . S
C798 C799 1.367 . S
C798 C806 1.378 . S
C799 C798 1.367 . S
C799 C807 1.433 . S
C800 H796 0.929 . S
C800 C802 1.378 . S
C800 C804 1.350 . S
C801 C804 1.463 . S
C801 C806 1.350 . S
C801 N809 1.427 . S
C802 H793 0.930 . S
C802 C800 1.378 . S
C802 C803 1.367 . S
C803 C802 1.367 . S
C803 C805 1.433 . S
C804 C800 1.350 . S
C804 C801 1.463 . S
C804 N808 1.427 . S
C805 H795 0.929 . S
C805 C803 1.433 . S
C805 N808 1.384 . S
C806 H797 0.929 . S
C806 C798 1.378 . S
C806 C801 1.350 . S
C807 H794 0.929 . S
C807 C799 1.433 . S
C807 N809 1.384 . S
N808 C804 1.427 . S
N808 C805 1.384 . S
N809 C801 1.427 . S
N809 C807 1.384 . S
H810 C816 0.930 . S
H811 C820 0.930 . S
H812 C825 0.929 . S
H813 C823 0.929 . S
H814 C818 0.929 . S
H815 C824 0.929 . S
C816 H810 0.930 . S
C816 C817 1.367 . S
C816 C824 1.378 . S
C817 C816 1.367 . S
C817 C825 1.433 . S
C818 H814 0.929 . S
C818 C820 1.378 . S
C818 C822 1.350 . S
C819 C822 1.463 . S
C819 C824 1.350 . S
C819 N827 1.427 . S
C820 H811 0.930 . S
C820 C818 1.378 . S
C820 C821 1.367 . S
C821 C820 1.367 . S
C821 C823 1.433 . S
C822 C818 1.350 . S
C822 C819 1.463 . S
C822 N826 1.427 . S
C823 H813 0.929 . S
C823 C821 1.433 . S
C823 N826 1.384 . S
C824 H815 0.929 . S
C824 C816 1.378 . S
C824 C819 1.350 . S
C825 H812 0.929 . S
C825 C817 1.433 . S
C825 N827 1.384 . S
N826 C822 1.427 . S
N826 C823 1.384 . S
N827 C819 1.427 . S
N827 C825 1.384 . S
H828 C834 0.930 . S
H829 C838 0.930 . S
H830 C843 0.929 . S
H831 C841 0.929 . S
H832 C836 0.929 . S
H833 C842 0.929 . S
C834 H828 0.930 . S
C834 C835 1.367 . S
C834 C842 1.378 . S
C835 C834 1.367 . S
C835 C843 1.433 . S
C836 H832 0.929 . S
C836 C838 1.378 . S
C836 C840 1.350 . S
C837 C840 1.463 . S
C837 C842 1.350 . S
C837 N845 1.427 . S
C838 H829 0.930 . S
C838 C836 1.378 . S
C838 C839 1.367 . S
C839 C838 1.367 . S
C839 C841 1.433 . S
C840 C836 1.350 . S
C840 C837 1.463 . S
C840 N844 1.427 . S
C841 H831 0.929 . S
C841 C839 1.433 . S
C841 N844 1.384 . S
C842 H833 0.929 . S
C842 C834 1.378 . S
C842 C837 1.350 . S
C843 H830 0.929 . S
C843 C835 1.433 . S
C843 N845 1.384 . S
N844 C840 1.427 . S
N844 C841 1.384 . S
N845 C837 1.427 . S
N845 C843 1.384 . S
H846 C852 0.930 . S
H847 C856 0.930 . S
H848 C861 0.929 . S
H849 C859 0.929 . S
H850 C854 0.929 . S
H851 C860 0.929 . S
C852 H846 0.930 . S
C852 C853 1.367 . S
C852 C860 1.378 . S
C853 C852 1.367 . S
C853 C861 1.433 . S
C854 H850 0.929 . S
C854 C856 1.378 . S
C854 C858 1.350 . S
C855 C858 1.463 . S
C855 C860 1.350 . S
C855 N863 1.427 . S
C856 H847 0.930 . S
C856 C854 1.378 . S
C856 C857 1.367 . S
C857 C856 1.367 . S
C857 C859 1.433 . S
C858 C854 1.350 . S
C858 C855 1.463 . S
C858 N862 1.427 . S
C859 H849 0.929 . S
C859 C857 1.433 . S
C859 N862 1.384 . S
C860 H851 0.929 . S
C860 C852 1.378 . S
C860 C855 1.350 . S
C861 H848 0.929 . S
C861 C853 1.433 . S
C861 N863 1.384 . S
N862 C858 1.427 . S
N862 C859 1.384 . S
N863 C855 1.427 . S
N863 C861 1.384 . S
H864 C870 0.930 . S
H865 C874 0.930 . S
H866 C879 0.929 . S
H867 C877 0.929 . S
H868 C872 0.929 . S
H869 C878 0.929 . S
C870 H864 0.930 . S
C870 C871 1.367 . S
C870 C878 1.378 . S
C871 C870 1.367 . S
C871 C879 1.433 . S
C872 H868 0.929 . S
C872 C874 1.378 . S
C872 C876 1.350 . S
C873 C876 1.463 . S
C873 C878 1.350 . S
C873 N881 1.427 . S
C874 H865 0.930 . S
C874 C872 1.378 . S
C874 C875 1.367 . S
C875 C874 1.367 . S
C875 C877 1.433 . S
C876 C872 1.350 . S
C876 C873 1.463 . S
C876 N880 1.427 . S
C877 H867 0.929 . S
C877 C875 1.433 . S
C877 N880 1.384 . S
C878 H869 0.929 . S
C878 C870 1.378 . S
C878 C873 1.350 . S
C879 H866 0.929 . S
C879 C871 1.433 . S
C879 N881 1.384 . S
N880 C876 1.427 . S
N880 C877 1.384 . S
N881 C873 1.427 . S
N881 C879 1.384 . S
H882 C888 0.930 . S
H883 C892 0.930 . S
H884 C897 0.929 . S
H885 C895 0.929 . S
H886 C890 0.929 . S
H887 C896 0.929 . S
C888 H882 0.930 . S
C888 C889 1.367 . S
C888 C896 1.378 . S
C889 C888 1.367 . S
C889 C897 1.433 . S
C890 H886 0.929 . S
C890 C892 1.378 . S
C890 C894 1.350 . S
C891 C894 1.463 . S
C891 C896 1.350 . S
C891 N899 1.427 . S
C892 H883 0.930 . S
C892 C890 1.378 . S
C892 C893 1.367 . S
C893 C892 1.367 . S
C893 C895 1.433 . S
C894 C890 1.350 . S
C894 C891 1.463 . S
C894 N898 1.427 . S
C895 H885 0.929 . S
C895 C893 1.433 . S
C895 N898 1.384 . S
C896 H887 0.929 . S
C896 C888 1.378 . S
C896 C891 1.350 . S
C897 H884 0.929 . S
C897 C889 1.433 . S
C897 N899 1.384 . S
N898 C894 1.427 . S
N898 C895 1.384 . S
N899 C891 1.427 . S
N899 C897 1.384 . S
H900 C906 0.930 . S
H901 C910 0.930 . S
H902 C915 0.929 . S
H903 C913 0.929 . S
H904 C908 0.929 . S
H905 C914 0.929 . S
C906 H900 0.930 . S
C906 C907 1.367 . S
C906 C914 1.378 . S
C907 C906 1.367 . S
C907 C915 1.433 . S
C908 H904 0.929 . S
C908 C910 1.378 . S
C908 C912 1.350 . S
C909 C912 1.463 . S
C909 C914 1.350 . S
C909 N917 1.427 . S
C910 H901 0.930 . S
C910 C908 1.378 . S
C910 C911 1.367 . S
C911 C910 1.367 . S
C911 C913 1.433 . S
C912 C908 1.350 . S
C912 C909 1.463 . S
C912 N916 1.427 . S
C913 H903 0.929 . S
C913 C911 1.433 . S
C913 N916 1.384 . S
C914 H905 0.929 . S
C914 C906 1.378 . S
C914 C909 1.350 . S
C915 H902 0.929 . S
C915 C907 1.433 . S
C915 N917 1.384 . S
N916 C912 1.427 . S
N916 C913 1.384 . S
N917 C909 1.427 . S
N917 C915 1.384 . S
H918 C924 0.930 . S
H919 C928 0.930 . S
H920 C933 0.929 . S
H921 C931 0.929 . S
H922 C926 0.929 . S
H923 C932 0.929 . S
C924 H918 0.930 . S
C924 C925 1.367 . S
C924 C932 1.378 . S
C925 C924 1.367 . S
C925 C933 1.433 . S
C926 H922 0.929 . S
C926 C928 1.378 . S
C926 C930 1.350 . S
C927 C930 1.463 . S
C927 C932 1.350 . S
C927 N935 1.427 . S
C928 H919 0.930 . S
C928 C926 1.378 . S
C928 C929 1.367 . S
C929 C928 1.367 . S
C929 C931 1.433 . S
C930 C926 1.350 . S
C930 C927 1.463 . S
C930 N934 1.427 . S
C931 H921 0.929 . S
C931 C929 1.433 . S
C931 N934 1.384 . S
C932 H923 0.929 . S
C932 C924 1.378 . S
C932 C927 1.350 . S
C933 H920 0.929 . S
C933 C925 1.433 . S
C933 N935 1.384 . S
N934 C930 1.427 . S
N934 C931 1.384 . S
N935 C927 1.427 . S
N935 C933 1.384 . S
H936 C942 0.930 . S
H937 C946 0.930 . S
H938 C951 0.929 . S
H939 C949 0.929 . S
H940 C944 0.929 . S
H941 C950 0.929 . S
C942 H936 0.930 . S
C942 C943 1.367 . S
C942 C950 1.378 . S
C943 C942 1.367 . S
C943 C951 1.433 . S
C944 H940 0.929 . S
C944 C946 1.378 . S
C944 C948 1.350 . S
C945 C948 1.463 . S
C945 C950 1.350 . S
C945 N953 1.427 . S
C946 H937 0.930 . S
C946 C944 1.378 . S
C946 C947 1.367 . S
C947 C946 1.367 . S
C947 C949 1.433 . S
C948 C944 1.350 . S
C948 C945 1.463 . S
C948 N952 1.427 . S
C949 H939 0.929 . S
C949 C947 1.433 . S
C949 N952 1.384 . S
C950 H941 0.929 . S
C950 C942 1.378 . S
C950 C945 1.350 . S
C951 H938 0.929 . S
C951 C943 1.433 . S
C951 N953 1.384 . S
N952 C948 1.427 . S
N952 C949 1.384 . S
N953 C945 1.427 . S
N953 C951 1.384 . S
H954 C960 0.930 . S
H955 C964 0.930 . S
H956 C969 0.929 . S
H957 C967 0.929 . S
H958 C962 0.929 . S
H959 C968 0.929 . S
C960 H954 0.930 . S
C960 C961 1.367 . S
C960 C968 1.378 . S
C961 C960 1.367 . S
C961 C969 1.433 . S
C962 H958 0.929 . S
C962 C964 1.378 . S
C962 C966 1.350 . S
C963 C966 1.463 . S
C963 C968 1.350 . S
C963 N971 1.427 . S
C964 H955 0.930 . S
C964 C962 1.378 . S
C964 C965 1.367 . S
C965 C964 1.367 . S
C965 C967 1.433 . S
C966 C962 1.350 . S
C966 C963 1.463 . S
C966 N970 1.427 . S
C967 H957 0.929 . S
C967 C965 1.433 . S
C967 N970 1.384 . S
C968 H959 0.929 . S
C968 C960 1.378 . S
C968 C963 1.350 . S
C969 H956 0.929 . S
C969 C961 1.433 . S
C969 N971 1.384 . S
N970 C966 1.427 . S
N970 C967 1.384 . S
N971 C963 1.427 . S
N971 C969 1.384 . S
H972 C978 0.930 . S
H973 C982 0.930 . S
H974 C987 0.929 . S
H975 C985 0.929 . S
H976 C980 0.929 . S
H977 C986 0.929 . S
C978 H972 0.930 . S
C978 C979 1.367 . S
C978 C986 1.378 . S
C979 C978 1.367 . S
C979 C987 1.433 . S
C980 H976 0.929 . S
C980 C982 1.378 . S
C980 C984 1.350 . S
C981 C984 1.463 . S
C981 C986 1.350 . S
C981 N989 1.427 . S
C982 H973 0.930 . S
C982 C980 1.378 . S
C982 C983 1.367 . S
C983 C982 1.367 . S
C983 C985 1.433 . S
C984 C980 1.350 . S
C984 C981 1.463 . S
C984 N988 1.427 . S
C985 H975 0.929 . S
C985 C983 1.433 . S
C985 N988 1.384 . S
C986 H977 0.929 . S
C986 C978 1.378 . S
C986 C981 1.350 . S
C987 H974 0.929 . S
C987 C979 1.433 . S
C987 N989 1.384 . S
N988 C984 1.427 . S
N988 C985 1.384 . S
N989 C981 1.427 . S
N989 C987 1.384 . S
H990 C996 0.930 . S
H991 C1000 0.930 . S
H992 C1005 0.929 . S
H993 C1003 0.929 . S
H994 C998 0.929 . S
H995 C1004 0.929 . S
C996 H990 0.930 . S
C996 C997 1.367 . S
C996 C1004 1.378 . S
C997 C996 1.367 . S
C997 C1005 1.433 . S
C998 H994 0.929 . S
C998 C1000 1.378 . S
C998 C1002 1.350 . S
C999 C1002 1.463 . S
C999 C1004 1.350 . S
C999 N1007 1.427 . S
C1000 H991 0.930 . S
C1000 C998 1.378 . S
C1000 C1001 1.367 . S
C1001 C1000 1.367 . S
C1001 C1003 1.433 . S
C1002 C998 1.350 . S
C1002 C999 1.463 . S
C1002 N1006 1.427 . S
C1003 H993 0.929 . S
C1003 C1001 1.433 . S
C1003 N1006 1.384 . S
C1004 H995 0.929 . S
C1004 C996 1.378 . S
C1004 C999 1.350 . S
C1005 H992 0.929 . S
C1005 C997 1.433 . S
C1005 N1007 1.384 . S
N1006 C1002 1.427 . S
N1006 C1003 1.384 . S
N1007 C999 1.427 . S
N1007 C1005 1.384 . S
H1008 C1014 0.930 . S
H1009 C1018 0.930 . S
H1010 C1023 0.929 . S
H1011 C1021 0.929 . S
H1012 C1016 0.929 1_556 S
H1013 C1022 0.929 1_554 S
C1014 H1008 0.930 . S
C1014 C1015 1.367 . S
C1014 C1022 1.378 . S
C1015 C1014 1.367 . S
C1015 C1023 1.433 . S
C1016 H1012 0.929 1_554 S
C1016 C1018 1.378 . S
C1016 C1020 1.350 . S
C1017 C1020 1.463 1_656 S
C1017 C1022 1.350 . S
C1017 N1025 1.427 . S
C1018 H1009 0.930 . S
C1018 C1016 1.378 . S
C1018 C1019 1.367 . S
C1019 C1018 1.367 . S
C1019 C1021 1.433 . S
C1020 C1016 1.350 . S
C1020 C1017 1.463 1_454 S
C1020 N1024 1.427 . S
C1021 H1011 0.929 . S
C1021 C1019 1.433 . S
C1021 N1024 1.384 . S
C1022 H1013 0.929 1_556 S
C1022 C1014 1.378 . S
C1022 C1017 1.350 . S
C1023 H1010 0.929 . S
C1023 C1015 1.433 . S
C1023 N1025 1.384 . S
N1024 C1020 1.427 . S
N1024 C1021 1.384 . S
N1025 C1017 1.427 . S
N1025 C1023 1.384 . S
H1026 C1032 0.930 . S
H1027 C1036 0.930 . S
H1028 C1041 0.929 . S
H1029 C1039 0.929 . S
H1030 C1034 0.929 1_554 S
H1031 C1040 0.929 1_556 S
C1032 H1026 0.930 . S
C1032 C1033 1.367 . S
C1032 C1040 1.378 . S
C1033 C1032 1.367 . S
C1033 C1041 1.433 . S
C1034 H1030 0.929 1_556 S
C1034 C1036 1.378 . S
C1034 C1038 1.350 . S
C1035 C1038 1.463 1_554 S
C1035 C1040 1.350 . S
C1035 N1043 1.427 . S
C1036 H1027 0.930 . S
C1036 C1034 1.378 . S
C1036 C1037 1.367 . S
C1037 C1036 1.367 . S
C1037 C1039 1.433 . S
C1038 C1034 1.350 . S
C1038 C1035 1.463 1_556 S
C1038 N1042 1.427 . S
C1039 H1029 0.929 . S
C1039 C1037 1.433 . S
C1039 N1042 1.384 . S
C1040 H1031 0.929 1_554 S
C1040 C1032 1.378 . S
C1040 C1035 1.350 . S
C1041 H1028 0.929 . S
C1041 C1033 1.433 . S
C1041 N1043 1.384 . S
N1042 C1038 1.427 . S
N1042 C1039 1.384 . S
N1043 C1035 1.427 . S
N1043 C1041 1.384 . S
H1044 C1050 0.930 . S
H1045 C1054 0.930 . S
H1046 C1059 0.929 . S
H1047 C1057 0.929 . S
H1048 C1052 0.929 . S
H1049 C1058 0.929 . S
C1050 H1044 0.930 . S
C1050 C1051 1.367 . S
C1050 C1058 1.378 . S
C1051 C1050 1.367 . S
C1051 C1059 1.433 . S
C1052 H1048 0.929 . S
C1052 C1054 1.378 . S
C1052 C1056 1.350 . S
C1053 C1056 1.463 1_546 S
C1053 C1058 1.350 . S
C1053 N1061 1.427 1_556 S
C1054 H1045 0.930 . S
C1054 C1052 1.378 . S
C1054 C1055 1.367 . S
C1055 C1054 1.367 . S
C1055 C1057 1.433 . S
C1056 C1052 1.350 . S
C1056 C1053 1.463 1_564 S
C1056 N1060 1.427 1_554 S
C1057 H1047 0.929 . S
C1057 C1055 1.433 . S
C1057 N1060 1.384 1_554 S
C1058 H1049 0.929 . S
C1058 C1050 1.378 . S
C1058 C1053 1.350 . S
C1059 H1046 0.929 . S
C1059 C1051 1.433 . S
C1059 N1061 1.384 1_556 S
N1060 C1056 1.427 1_556 S
N1060 C1057 1.384 1_556 S
N1061 C1053 1.427 1_554 S
N1061 C1059 1.384 1_554 S
H1062 C1068 0.930 . S
H1063 C1072 0.930 . S
H1064 C1077 0.929 . S
H1065 C1075 0.929 . S
H1066 C1070 0.929 . S
H1067 C1076 0.929 . S
C1068 H1062 0.930 . S
C1068 C1069 1.367 . S
C1068 C1076 1.378 . S
C1069 C1068 1.367 . S
C1069 C1077 1.433 . S
C1070 H1066 0.929 . S
C1070 C1072 1.378 . S
C1070 C1074 1.350 . S
C1071 C1074 1.463 1_564 S
C1071 C1076 1.350 . S
C1071 N1079 1.427 . S
C1072 H1063 0.930 . S
C1072 C1070 1.378 . S
C1072 C1073 1.367 . S
C1073 C1072 1.367 . S
C1073 C1075 1.433 . S
C1074 C1070 1.350 . S
C1074 C1071 1.463 1_546 S
C1074 N1078 1.427 . S
C1075 H1065 0.929 . S
C1075 C1073 1.433 . S
C1075 N1078 1.384 . S
C1076 H1067 0.929 . S
C1076 C1068 1.378 . S
C1076 C1071 1.350 . S
C1077 H1064 0.929 . S
C1077 C1069 1.433 . S
C1077 N1079 1.384 . S
N1078 C1074 1.427 . S
N1078 C1075 1.384 . S
N1079 C1071 1.427 . S
N1079 C1077 1.384 . S
H1080 C1086 0.930 . S
H1081 C1090 0.930 . S
H1082 C1095 0.929 1_556 S
H1083 C1093 0.929 1_554 S
H1084 C1088 0.919 . S
H1085 C1094 0.919 . S
C1086 H1080 0.930 . S
C1086 C1087 1.367 . S
C1086 C1094 1.378 . S
C1087 C1086 1.367 . S
C1087 C1095 1.433 . S
C1088 H1084 0.919 . S
C1088 C1090 1.378 . S
C1088 C1092 1.350 . S
C1089 C1092 1.463 1_454 S
C1089 C1094 1.350 . S
C1089 N1097 1.427 1_554 S
C1090 H1081 0.930 . S
C1090 C1088 1.378 . S
C1090 C1091 1.367 . S
C1091 C1090 1.367 . S
C1091 C1093 1.433 . S
C1092 C1088 1.350 . S
C1092 C1089 1.463 1_656 S
C1092 N1096 1.427 1_556 S
C1093 H1083 0.929 1_556 S
C1093 C1091 1.433 . S
C1093 N1096 1.384 1_556 S
C1094 H1085 0.919 . S
C1094 C1086 1.378 . S
C1094 C1089 1.350 . S
C1095 H1082 0.929 1_554 S
C1095 C1087 1.433 . S
C1095 N1097 1.384 1_554 S
N1096 C1092 1.427 1_554 S
N1096 C1093 1.384 1_554 S
N1097 C1089 1.427 1_556 S
N1097 C1095 1.384 1_556 S
H1098 C1104 0.930 . S
H1099 C1108 0.930 . S
H1100 C1113 0.929 1_554 S
H1101 C1111 0.929 1_556 S
H1102 C1106 0.929 . S
H1103 C1112 0.929 . S
C1104 H1098 0.930 . S
C1104 C1105 1.367 . S
C1104 C1112 1.378 . S
C1105 C1104 1.367 . S
C1105 C1113 1.433 . S
C1106 H1102 0.929 . S
C1106 C1108 1.378 . S
C1106 C1110 1.350 . S
C1107 C1110 1.463 1_556 S
C1107 C1112 1.350 . S
C1107 N1115 1.427 1_556 S
C1108 H1099 0.930 . S
C1108 C1106 1.378 . S
C1108 C1109 1.367 . S
C1109 C1108 1.367 . S
C1109 C1111 1.433 . S
C1110 C1106 1.350 . S
C1110 C1107 1.463 1_554 S
C1110 N1114 1.427 1_554 S
C1111 H1101 0.929 1_554 S
C1111 C1109 1.433 . S
C1111 N1114 1.384 1_554 S
C1112 H1103 0.929 . S
C1112 C1104 1.378 . S
C1112 C1107 1.350 . S
C1113 H1100 0.929 1_556 S
C1113 C1105 1.433 . S
C1113 N1115 1.384 1_556 S
N1114 C1110 1.427 1_556 S
N1114 C1111 1.384 1_556 S
N1115 C1107 1.427 1_554 S
N1115 C1113 1.384 1_554 S
H1116 C1122 0.930 . S
H1117 C1126 0.930 . S
H1118 C1131 0.929 . S
H1119 C1129 0.929 . S
H1120 C1124 0.929 . S
H1121 C1130 0.929 . S
C1122 H1116 0.930 . S
C1122 C1123 1.367 . S
C1122 C1130 1.378 . S
C1123 C1122 1.367 . S
C1123 C1131 1.433 . S
C1124 H1120 0.929 . S
C1124 C1126 1.378 . S
C1124 C1128 1.350 . S
C1125 C1128 1.463 . S
C1125 C1130 1.350 . S
C1125 N1133 1.427 . S
C1126 H1117 0.930 . S
C1126 C1124 1.378 . S
C1126 C1127 1.367 . S
C1127 C1126 1.367 . S
C1127 C1129 1.433 . S
C1128 C1124 1.350 . S
C1128 C1125 1.463 . S
C1128 N1132 1.427 . S
C1129 H1119 0.929 . S
C1129 C1127 1.433 . S
C1129 N1132 1.384 . S
C1130 H1121 0.929 . S
C1130 C1122 1.378 . S
C1130 C1125 1.350 . S
C1131 H1118 0.929 . S
C1131 C1123 1.433 . S
C1131 N1133 1.384 . S
N1132 C1128 1.427 . S
N1132 C1129 1.384 . S
N1133 C1125 1.427 . S
N1133 C1131 1.384 . S
H1134 C1140 0.930 . S
H1135 C1144 0.930 . S
H1136 C1149 0.929 . S
H1137 C1147 0.929 . S
H1138 C1142 0.929 . S
H1139 C1148 0.929 . S
C1140 H1134 0.930 . S
C1140 C1141 1.367 . S
C1140 C1148 1.378 . S
C1141 C1140 1.367 . S
C1141 C1149 1.433 . S
C1142 H1138 0.929 . S
C1142 C1144 1.378 . S
C1142 C1146 1.350 . S
C1143 C1146 1.463 . S
C1143 C1148 1.350 . S
C1143 N1151 1.427 . S
C1144 H1135 0.930 . S
C1144 C1142 1.378 . S
C1144 C1145 1.367 . S
C1145 C1144 1.367 . S
C1145 C1147 1.433 . S
C1146 C1142 1.350 . S
C1146 C1143 1.463 . S
C1146 N1150 1.427 . S
C1147 H1137 0.929 . S
C1147 C1145 1.433 . S
C1147 N1150 1.384 . S
C1148 H1139 0.929 . S
C1148 C1140 1.378 . S
C1148 C1143 1.350 . S
C1149 H1136 0.929 . S
C1149 C1141 1.433 . S
C1149 N1151 1.384 . S
N1150 C1146 1.427 . S
N1150 C1147 1.384 . S
N1151 C1143 1.427 . S
N1151 C1149 1.384 . S
H1152 C1158 0.930 . S
H1153 C1162 0.930 . S
H1154 C1167 0.929 . S
H1155 C1165 0.929 . S
H1156 C1160 0.929 . S
H1157 C1166 0.929 . S
C1158 H1152 0.930 . S
C1158 C1159 1.367 . S
C1158 C1166 1.378 . S
C1159 C1158 1.367 . S
C1159 C1167 1.433 . S
C1160 H1156 0.929 . S
C1160 C1162 1.378 . S
C1160 C1164 1.350 . S
C1161 C1164 1.463 . S
C1161 C1166 1.350 . S
C1161 N1169 1.427 . S
C1162 H1153 0.930 . S
C1162 C1160 1.378 . S
C1162 C1163 1.367 . S
C1163 C1162 1.367 . S
C1163 C1165 1.433 . S
C1164 C1160 1.350 . S
C1164 C1161 1.463 . S
C1164 N1168 1.427 . S
C1165 H1155 0.929 . S
C1165 C1163 1.433 . S
C1165 N1168 1.384 . S
C1166 H1157 0.929 . S
C1166 C1158 1.378 . S
C1166 C1161 1.350 . S
C1167 H1154 0.929 . S
C1167 C1159 1.433 . S
C1167 N1169 1.384 . S
N1168 C1164 1.427 . S
N1168 C1165 1.384 . S
N1169 C1161 1.427 . S
N1169 C1167 1.384 . S
H1170 C1176 0.930 . S
H1171 C1180 0.930 . S
H1172 C1185 0.929 . S
H1173 C1183 0.929 . S
H1174 C1178 0.929 . S
H1175 C1184 0.929 . S
C1176 H1170 0.930 . S
C1176 C1177 1.367 . S
C1176 C1184 1.378 . S
C1177 C1176 1.367 . S
C1177 C1185 1.433 . S
C1178 H1174 0.929 . S
C1178 C1180 1.378 . S
C1178 C1182 1.350 . S
C1179 C1182 1.463 . S
C1179 C1184 1.350 . S
C1179 N1187 1.427 . S
C1180 H1171 0.930 . S
C1180 C1178 1.378 . S
C1180 C1181 1.367 . S
C1181 C1180 1.367 . S
C1181 C1183 1.433 . S
C1182 C1178 1.350 . S
C1182 C1179 1.463 . S
C1182 N1186 1.427 . S
C1183 H1173 0.929 . S
C1183 C1181 1.433 . S
C1183 N1186 1.384 . S
C1184 H1175 0.929 . S
C1184 C1176 1.378 . S
C1184 C1179 1.350 . S
C1185 H1172 0.929 . S
C1185 C1177 1.433 . S
C1185 N1187 1.384 . S
N1186 C1182 1.427 . S
N1186 C1183 1.384 . S
N1187 C1179 1.427 . S
N1187 C1185 1.384 . S
H1188 C1194 0.930 . S
H1189 C1198 0.930 . S
H1190 C1203 0.929 . S
H1191 C1201 0.929 . S
H1192 C1196 0.929 . S
H1193 C1202 0.929 . S
C1194 H1188 0.930 . S
C1194 C1195 1.367 . S
C1194 C1202 1.378 . S
C1195 C1194 1.367 . S
C1195 C1203 1.433 . S
C1196 H1192 0.929 . S
C1196 C1198 1.378 . S
C1196 C1200 1.350 . S
C1197 C1200 1.463 . S
C1197 C1202 1.350 . S
C1197 N1205 1.427 . S
C1198 H1189 0.930 . S
C1198 C1196 1.378 . S
C1198 C1199 1.367 . S
C1199 C1198 1.367 . S
C1199 C1201 1.433 . S
C1200 C1196 1.350 . S
C1200 C1197 1.463 . S
C1200 N1204 1.427 . S
C1201 H1191 0.929 . S
C1201 C1199 1.433 . S
C1201 N1204 1.384 . S
C1202 H1193 0.929 . S
C1202 C1194 1.378 . S
C1202 C1197 1.350 . S
C1203 H1190 0.929 . S
C1203 C1195 1.433 . S
C1203 N1205 1.384 . S
N1204 C1200 1.427 . S
N1204 C1201 1.384 . S
N1205 C1197 1.427 . S
N1205 C1203 1.384 . S
H1206 C1212 0.930 . S
H1207 C1216 0.930 . S
H1208 C1221 0.929 . S
H1209 C1219 0.929 . S
H1210 C1214 0.929 . S
H1211 C1220 0.929 . S
C1212 H1206 0.930 . S
C1212 C1213 1.367 . S
C1212 C1220 1.378 . S
C1213 C1212 1.367 . S
C1213 C1221 1.433 . S
C1214 H1210 0.929 . S
C1214 C1216 1.378 . S
C1214 C1218 1.350 . S
C1215 C1218 1.463 . S
C1215 C1220 1.350 . S
C1215 N1223 1.427 . S
C1216 H1207 0.930 . S
C1216 C1214 1.378 . S
C1216 C1217 1.367 . S
C1217 C1216 1.367 . S
C1217 C1219 1.433 . S
C1218 C1214 1.350 . S
C1218 C1215 1.463 . S
C1218 N1222 1.427 . S
C1219 H1209 0.929 . S
C1219 C1217 1.433 . S
C1219 N1222 1.384 . S
C1220 H1211 0.929 . S
C1220 C1212 1.378 . S
C1220 C1215 1.350 . S
C1221 H1208 0.929 . S
C1221 C1213 1.433 . S
C1221 N1223 1.384 . S
N1222 C1218 1.427 . S
N1222 C1219 1.384 . S
N1223 C1215 1.427 . S
N1223 C1221 1.384 . S
H1224 C1230 0.930 . S
H1225 C1234 0.930 . S
H1226 C1239 0.929 . S
H1227 C1237 0.929 . S
H1228 C1232 0.929 . S
H1229 C1238 0.929 . S
C1230 H1224 0.930 . S
C1230 C1231 1.367 . S
C1230 C1238 1.378 . S
C1231 C1230 1.367 . S
C1231 C1239 1.433 . S
C1232 H1228 0.929 . S
C1232 C1234 1.378 . S
C1232 C1236 1.350 . S
C1233 C1236 1.463 . S
C1233 C1238 1.350 . S
C1233 N1241 1.427 . S
C1234 H1225 0.930 . S
C1234 C1232 1.378 . S
C1234 C1235 1.367 . S
C1235 C1234 1.367 . S
C1235 C1237 1.433 . S
C1236 C1232 1.350 . S
C1236 C1233 1.463 . S
C1236 N1240 1.427 . S
C1237 H1227 0.929 . S
C1237 C1235 1.433 . S
C1237 N1240 1.384 . S
C1238 H1229 0.929 . S
C1238 C1230 1.378 . S
C1238 C1233 1.350 . S
C1239 H1226 0.929 . S
C1239 C1231 1.433 . S
C1239 N1241 1.384 . S
N1240 C1236 1.427 . S
N1240 C1237 1.384 . S
N1241 C1233 1.427 . S
N1241 C1239 1.384 . S
H1242 C1248 0.930 . S
H1243 C1252 0.930 . S
H1244 C1257 0.929 . S
H1245 C1255 0.929 . S
H1246 C1250 0.929 . S
H1247 C1256 0.929 . S
C1248 H1242 0.930 . S
C1248 C1249 1.367 . S
C1248 C1256 1.378 . S
C1249 C1248 1.367 . S
C1249 C1257 1.433 . S
C1250 H1246 0.929 . S
C1250 C1252 1.378 . S
C1250 C1254 1.350 . S
C1251 C1254 1.463 . S
C1251 C1256 1.350 . S
C1251 N1259 1.427 . S
C1252 H1243 0.930 . S
C1252 C1250 1.378 . S
C1252 C1253 1.367 . S
C1253 C1252 1.367 . S
C1253 C1255 1.433 . S
C1254 C1250 1.350 . S
C1254 C1251 1.463 . S
C1254 N1258 1.427 . S
C1255 H1245 0.929 . S
C1255 C1253 1.433 . S
C1255 N1258 1.384 . S
C1256 H1247 0.929 . S
C1256 C1248 1.378 . S
C1256 C1251 1.350 . S
C1257 H1244 0.929 . S
C1257 C1249 1.433 . S
C1257 N1259 1.384 . S
N1258 C1254 1.427 . S
N1258 C1255 1.384 . S
N1259 C1251 1.427 . S
N1259 C1257 1.384 . S
H1260 C1266 0.930 . S
H1261 C1270 0.930 . S
H1262 C1275 0.929 . S
H1263 C1273 0.929 . S
H1264 C1268 0.929 . S
H1265 C1274 0.929 . S
C1266 H1260 0.930 . S
C1266 C1267 1.367 . S
C1266 C1274 1.378 . S
C1267 C1266 1.367 . S
C1267 C1275 1.433 . S
C1268 H1264 0.929 . S
C1268 C1270 1.378 . S
C1268 C1272 1.350 . S
C1269 C1272 1.463 . S
C1269 C1274 1.350 . S
C1269 N1277 1.427 . S
C1270 H1261 0.930 . S
C1270 C1268 1.378 . S
C1270 C1271 1.367 . S
C1271 C1270 1.367 . S
C1271 C1273 1.433 . S
C1272 C1268 1.350 . S
C1272 C1269 1.463 . S
C1272 N1276 1.427 . S
C1273 H1263 0.929 . S
C1273 C1271 1.433 . S
C1273 N1276 1.384 . S
C1274 H1265 0.929 . S
C1274 C1266 1.378 . S
C1274 C1269 1.350 . S
C1275 H1262 0.929 . S
C1275 C1267 1.433 . S
C1275 N1277 1.384 . S
N1276 C1272 1.427 . S
N1276 C1273 1.384 . S
N1277 C1269 1.427 . S
N1277 C1275 1.384 . S
H1278 C1284 0.930 . S
H1279 C1288 0.930 . S
H1280 C1293 0.929 . S
H1281 C1291 0.929 . S
H1282 C1286 0.929 . S
H1283 C1292 0.929 . S
C1284 H1278 0.930 . S
C1284 C1285 1.367 . S
C1284 C1292 1.378 . S
C1285 C1284 1.367 . S
C1285 C1293 1.433 . S
C1286 H1282 0.929 . S
C1286 C1288 1.378 . S
C1286 C1290 1.350 . S
C1287 C1290 1.463 . S
C1287 C1292 1.350 . S
C1287 N1295 1.427 . S
C1288 H1279 0.930 . S
C1288 C1286 1.378 . S
C1288 C1289 1.367 . S
C1289 C1288 1.367 . S
C1289 C1291 1.433 . S
C1290 C1286 1.350 . S
C1290 C1287 1.463 . S
C1290 N1294 1.427 . S
C1291 H1281 0.929 . S
C1291 C1289 1.433 . S
C1291 N1294 1.384 . S
C1292 H1283 0.929 . S
C1292 C1284 1.378 . S
C1292 C1287 1.350 . S
C1293 H1280 0.929 . S
C1293 C1285 1.433 . S
C1293 N1295 1.384 . S
N1294 C1290 1.427 . S
N1294 C1291 1.384 . S
N1295 C1287 1.427 . S
N1295 C1293 1.384 . S
H1296 C1302 0.930 . S
H1297 C1306 0.930 . S
H1298 C1311 0.929 . S
H1299 C1309 0.929 . S
H1300 C1304 0.929 . S
H1301 C1310 0.929 . S
C1302 H1296 0.930 . S
C1302 C1303 1.367 . S
C1302 C1310 1.378 . S
C1303 C1302 1.367 . S
C1303 C1311 1.433 . S
C1304 H1300 0.929 . S
C1304 C1306 1.378 . S
C1304 C1308 1.350 . S
C1305 C1308 1.463 . S
C1305 C1310 1.350 . S
C1305 N1313 1.427 . S
C1306 H1297 0.930 . S
C1306 C1304 1.378 . S
C1306 C1307 1.367 . S
C1307 C1306 1.367 . S
C1307 C1309 1.433 . S
C1308 C1304 1.350 . S
C1308 C1305 1.463 . S
C1308 N1312 1.427 . S
C1309 H1299 0.929 . S
C1309 C1307 1.433 . S
C1309 N1312 1.384 . S
C1310 H1301 0.929 . S
C1310 C1302 1.378 . S
C1310 C1305 1.350 . S
C1311 H1298 0.929 . S
C1311 C1303 1.433 . S
C1311 N1313 1.384 . S
N1312 C1308 1.427 . S
N1312 C1309 1.384 . S
N1313 C1305 1.427 . S
N1313 C1311 1.384 . S
H1314 C1320 0.930 . S
H1315 C1324 0.930 . S
H1316 C1329 0.929 . S
H1317 C1327 0.929 . S
H1318 C1322 0.929 . S
H1319 C1328 0.929 . S
C1320 H1314 0.930 . S
C1320 C1321 1.367 . S
C1320 C1328 1.378 . S
C1321 C1320 1.367 . S
C1321 C1329 1.433 . S
C1322 H1318 0.929 . S
C1322 C1324 1.378 . S
C1322 C1326 1.350 . S
C1323 C1326 1.463 . S
C1323 C1328 1.350 . S
C1323 N1331 1.427 . S
C1324 H1315 0.930 . S
C1324 C1322 1.378 . S
C1324 C1325 1.367 . S
C1325 C1324 1.367 . S
C1325 C1327 1.433 . S
C1326 C1322 1.350 . S
C1326 C1323 1.463 . S
C1326 N1330 1.427 . S
C1327 H1317 0.929 . S
C1327 C1325 1.433 . S
C1327 N1330 1.384 . S
C1328 H1319 0.929 . S
C1328 C1320 1.378 . S
C1328 C1323 1.350 . S
C1329 H1316 0.929 . S
C1329 C1321 1.433 . S
C1329 N1331 1.384 . S
N1330 C1326 1.427 . S
N1330 C1327 1.384 . S
N1331 C1323 1.427 . S
N1331 C1329 1.384 . S
H1332 C1338 0.930 . S
H1333 C1342 0.930 . S
H1334 C1347 0.929 . S
H1335 C1345 0.929 . S
H1336 C1340 0.929 . S
H1337 C1346 0.929 1_556 S
C1338 H1332 0.930 . S
C1338 C1339 1.367 . S
C1338 C1346 1.378 . S
C1339 C1338 1.367 . S
C1339 C1347 1.433 . S
C1340 H1336 0.929 . S
C1340 C1342 1.378 . S
C1340 C1344 1.350 . S
C1341 C1344 1.463 . S
C1341 C1346 1.350 1_556 S
C1341 N1349 1.427 1_556 S
C1342 H1333 0.930 . S
C1342 C1340 1.378 . S
C1342 C1343 1.367 . S
C1343 C1342 1.367 . S
C1343 C1345 1.433 . S
C1344 C1340 1.350 . S
C1344 C1341 1.463 . S
C1344 N1348 1.427 . S
C1345 H1335 0.929 . S
C1345 C1343 1.433 . S
C1345 N1348 1.384 . S
C1346 H1337 0.929 1_554 S
C1346 C1338 1.378 . S
C1346 C1341 1.350 1_554 S
C1347 H1334 0.929 . S
C1347 C1339 1.433 . S
C1347 N1349 1.384 . S
N1348 C1344 1.427 . S
N1348 C1345 1.384 . S
N1349 C1341 1.427 1_554 S
N1349 C1347 1.384 . S
H1350 C1356 0.930 . S
H1351 C1360 0.930 . S
H1352 C1365 0.929 . S
H1353 C1363 0.929 . S
H1354 C1358 0.929 . S
H1355 C1364 0.929 . S
C1356 H1350 0.930 . S
C1356 C1357 1.367 . S
C1356 C1364 1.378 . S
C1357 C1356 1.367 . S
C1357 C1365 1.433 . S
C1358 H1354 0.929 . S
C1358 C1360 1.378 . S
C1358 C1362 1.350 . S
C1359 C1362 1.463 . S
C1359 C1364 1.350 1_556 S
C1359 N1367 1.427 1_556 S
C1360 H1351 0.930 . S
C1360 C1358 1.378 . S
C1360 C1361 1.367 . S
C1361 C1360 1.367 . S
C1361 C1363 1.433 . S
C1362 C1358 1.350 . S
C1362 C1359 1.463 . S
C1362 N1366 1.427 . S
C1363 H1353 0.929 . S
C1363 C1361 1.433 . S
C1363 N1366 1.384 . S
C1364 H1355 0.929 . S
C1364 C1356 1.378 . S
C1364 C1359 1.350 1_554 S
C1365 H1352 0.929 . S
C1365 C1357 1.433 . S
C1365 N1367 1.384 . S
N1366 C1362 1.427 . S
N1366 C1363 1.384 . S
N1367 C1359 1.427 1_554 S
N1367 C1365 1.384 . S
H1368 C1374 0.930 . S
H1369 C1378 0.930 . S
H1370 C1383 0.929 . S
H1371 C1381 0.929 . S
H1372 C1376 0.929 1_556 S
H1373 C1382 0.929 . S
C1374 H1368 0.930 . S
C1374 C1375 1.367 . S
C1374 C1382 1.378 . S
C1375 C1374 1.367 . S
C1375 C1383 1.433 . S
C1376 H1372 0.929 1_554 S
C1376 C1378 1.378 . S
C1376 C1380 1.350 1_554 S
C1377 C1380 1.463 . S
C1377 C1382 1.350 . S
C1377 N1385 1.427 . S
C1378 H1369 0.930 . S
C1378 C1376 1.378 . S
C1378 C1379 1.367 . S
C1379 C1378 1.367 . S
C1379 C1381 1.433 . S
C1380 C1376 1.350 1_556 S
C1380 C1377 1.463 . S
C1380 N1384 1.427 1_556 S
C1381 H1371 0.929 . S
C1381 C1379 1.433 . S
C1381 N1384 1.384 . S
C1382 H1373 0.929 . S
C1382 C1374 1.378 . S
C1382 C1377 1.350 . S
C1383 H1370 0.929 . S
C1383 C1375 1.433 . S
C1383 N1385 1.384 . S
N1384 C1380 1.427 1_554 S
N1384 C1381 1.384 . S
N1385 C1377 1.427 . S
N1385 C1383 1.384 . S
H1386 C1392 0.930 . S
H1387 C1396 0.930 . S
H1388 C1401 0.929 . S
H1389 C1399 0.929 . S
H1390 C1394 0.929 . S
H1391 C1400 0.929 . S
C1392 H1386 0.930 . S
C1392 C1393 1.367 . S
C1392 C1400 1.378 . S
C1393 C1392 1.367 . S
C1393 C1401 1.433 . S
C1394 H1390 0.929 . S
C1394 C1396 1.378 . S
C1394 C1398 1.350 . S
C1395 C1398 1.463 . S
C1395 C1400 1.350 . S
C1395 N1403 1.427 . S
C1396 H1387 0.930 . S
C1396 C1394 1.378 . S
C1396 C1397 1.367 . S
C1397 C1396 1.367 . S
C1397 C1399 1.433 . S
C1398 C1394 1.350 . S
C1398 C1395 1.463 . S
C1398 N1402 1.427 . S
C1399 H1389 0.929 . S
C1399 C1397 1.433 . S
C1399 N1402 1.384 . S
C1400 H1391 0.929 . S
C1400 C1392 1.378 . S
C1400 C1395 1.350 . S
C1401 H1388 0.929 . S
C1401 C1393 1.433 . S
C1401 N1403 1.384 . S
N1402 C1398 1.427 . S
N1402 C1399 1.384 . S
N1403 C1395 1.427 . S
N1403 C1401 1.384 . S
H1404 C1410 0.930 . S
H1405 C1414 0.930 . S
H1406 C1419 0.929 . S
H1407 C1417 0.929 . S
H1408 C1412 0.929 . S
H1409 C1418 0.929 . S
C1410 H1404 0.930 . S
C1410 C1411 1.367 . S
C1410 C1418 1.378 . S
C1411 C1410 1.367 . S
C1411 C1419 1.433 . S
C1412 H1408 0.929 . S
C1412 C1414 1.378 . S
C1412 C1416 1.350 . S
C1413 C1416 1.463 . S
C1413 C1418 1.350 . S
C1413 N1421 1.427 . S
C1414 H1405 0.930 . S
C1414 C1412 1.378 . S
C1414 C1415 1.367 . S
C1415 C1414 1.367 . S
C1415 C1417 1.433 . S
C1416 C1412 1.350 . S
C1416 C1413 1.463 . S
C1416 N1420 1.427 . S
C1417 H1407 0.929 . S
C1417 C1415 1.433 . S
C1417 N1420 1.384 . S
C1418 H1409 0.929 . S
C1418 C1410 1.378 . S
C1418 C1413 1.350 . S
C1419 H1406 0.929 . S
C1419 C1411 1.433 . S
C1419 N1421 1.384 . S
N1420 C1416 1.427 . S
N1420 C1417 1.384 . S
N1421 C1413 1.427 . S
N1421 C1419 1.384 . S
H1422 C1428 0.930 . S
H1423 C1432 0.930 . S
H1424 C1437 0.929 . S
H1425 C1435 0.929 . S
H1426 C1430 0.929 . S
H1427 C1436 0.929 . S
C1428 H1422 0.930 . S
C1428 C1429 1.367 . S
C1428 C1436 1.378 . S
C1429 C1428 1.367 . S
C1429 C1437 1.433 . S
C1430 H1426 0.929 . S
C1430 C1432 1.378 . S
C1430 C1434 1.350 . S
C1431 C1434 1.463 . S
C1431 C1436 1.350 . S
C1431 N1439 1.427 . S
C1432 H1423 0.930 . S
C1432 C1430 1.378 . S
C1432 C1433 1.367 . S
C1433 C1432 1.367 . S
C1433 C1435 1.433 . S
C1434 C1430 1.350 . S
C1434 C1431 1.463 . S
C1434 N1438 1.427 . S
C1435 H1425 0.929 . S
C1435 C1433 1.433 . S
C1435 N1438 1.384 . S
C1436 H1427 0.929 . S
C1436 C1428 1.378 . S
C1436 C1431 1.350 . S
C1437 H1424 0.929 . S
C1437 C1429 1.433 . S
C1437 N1439 1.384 . S
N1438 C1434 1.427 . S
N1438 C1435 1.384 . S
N1439 C1431 1.427 . S
N1439 C1437 1.384 . S
H1440 C1446 0.930 . S
H1441 C1450 0.930 . S
H1442 C1455 0.929 . S
H1443 C1453 0.929 . S
H1444 C1448 0.929 . S
H1445 C1454 0.929 . S
C1446 H1440 0.930 . S
C1446 C1447 1.367 . S
C1446 C1454 1.378 . S
C1447 C1446 1.367 . S
C1447 C1455 1.433 . S
C1448 H1444 0.929 . S
C1448 C1450 1.378 . S
C1448 C1452 1.350 . S
C1449 C1452 1.463 . S
C1449 C1454 1.350 . S
C1449 N1457 1.427 . S
C1450 H1441 0.930 . S
C1450 C1448 1.378 . S
C1450 C1451 1.367 . S
C1451 C1450 1.367 . S
C1451 C1453 1.433 . S
C1452 C1448 1.350 . S
C1452 C1449 1.463 . S
C1452 N1456 1.427 . S
C1453 H1443 0.929 . S
C1453 C1451 1.433 . S
C1453 N1456 1.384 . S
C1454 H1445 0.929 . S
C1454 C1446 1.378 . S
C1454 C1449 1.350 . S
C1455 H1442 0.929 . S
C1455 C1447 1.433 . S
C1455 N1457 1.384 . S
N1456 C1452 1.427 . S
N1456 C1453 1.384 . S
N1457 C1449 1.427 . S
N1457 C1455 1.384 . S
H1458 C1464 0.930 . S
H1459 C1468 0.930 . S
H1460 C1473 0.929 . S
H1461 C1471 0.929 . S
H1462 C1466 0.929 . S
H1463 C1472 0.929 . S
C1464 H1458 0.930 . S
C1464 C1465 1.367 . S
C1464 C1472 1.378 . S
C1465 C1464 1.367 . S
C1465 C1473 1.433 . S
C1466 H1462 0.929 . S
C1466 C1468 1.378 . S
C1466 C1470 1.350 . S
C1467 C1470 1.463 . S
C1467 C1472 1.350 . S
C1467 N1475 1.427 . S
C1468 H1459 0.930 . S
C1468 C1466 1.378 . S
C1468 C1469 1.367 . S
C1469 C1468 1.367 . S
C1469 C1471 1.433 . S
C1470 C1466 1.350 . S
C1470 C1467 1.463 . S
C1470 N1474 1.427 . S
C1471 H1461 0.929 . S
C1471 C1469 1.433 . S
C1471 N1474 1.384 . S
C1472 H1463 0.929 . S
C1472 C1464 1.378 . S
C1472 C1467 1.350 . S
C1473 H1460 0.929 . S
C1473 C1465 1.433 . S
C1473 N1475 1.384 . S
N1474 C1470 1.427 . S
N1474 C1471 1.384 . S
N1475 C1467 1.427 . S
N1475 C1473 1.384 . S
H1476 C1482 0.930 . S
H1477 C1486 0.930 . S
H1478 C1491 0.929 . S
H1479 C1489 0.929 . S
H1480 C1484 0.929 . S
H1481 C1490 0.929 . S
C1482 H1476 0.930 . S
C1482 C1483 1.367 . S
C1482 C1490 1.378 . S
C1483 C1482 1.367 . S
C1483 C1491 1.433 . S
C1484 H1480 0.929 . S
C1484 C1486 1.378 . S
C1484 C1488 1.350 . S
C1485 C1488 1.463 . S
C1485 C1490 1.350 . S
C1485 N1493 1.427 . S
C1486 H1477 0.930 . S
C1486 C1484 1.378 . S
C1486 C1487 1.367 . S
C1487 C1486 1.367 . S
C1487 C1489 1.433 . S
C1488 C1484 1.350 . S
C1488 C1485 1.463 . S
C1488 N1492 1.427 . S
C1489 H1479 0.929 . S
C1489 C1487 1.433 . S
C1489 N1492 1.384 . S
C1490 H1481 0.929 . S
C1490 C1482 1.378 . S
C1490 C1485 1.350 . S
C1491 H1478 0.929 . S
C1491 C1483 1.433 . S
C1491 N1493 1.384 . S
N1492 C1488 1.427 . S
N1492 C1489 1.384 . S
N1493 C1485 1.427 . S
N1493 C1491 1.384 . S
H1494 C1500 0.930 . S
H1495 C1504 0.930 . S
H1496 C1509 0.929 . S
H1497 C1507 0.929 . S
H1498 C1502 0.929 . S
H1499 C1508 0.929 1_556 S
C1500 H1494 0.930 . S
C1500 C1501 1.367 . S
C1500 C1508 1.378 . S
C1501 C1500 1.367 . S
C1501 C1509 1.433 . S
C1502 H1498 0.929 . S
C1502 C1504 1.378 . S
C1502 C1506 1.350 . S
C1503 C1506 1.463 . S
C1503 C1508 1.350 1_556 S
C1503 N1511 1.427 1_556 S
C1504 H1495 0.930 . S
C1504 C1502 1.378 . S
C1504 C1505 1.367 . S
C1505 C1504 1.367 . S
C1505 C1507 1.433 . S
C1506 C1502 1.350 . S
C1506 C1503 1.463 . S
C1506 N1510 1.427 . S
C1507 H1497 0.929 . S
C1507 C1505 1.433 . S
C1507 N1510 1.384 . S
C1508 H1499 0.929 1_554 S
C1508 C1500 1.378 . S
C1508 C1503 1.350 1_554 S
C1509 H1496 0.929 . S
C1509 C1501 1.433 . S
C1509 N1511 1.384 . S
N1510 C1506 1.427 . S
N1510 C1507 1.384 . S
N1511 C1503 1.427 1_554 S
N1511 C1509 1.384 . S
H1512 C1518 0.930 . S
H1513 C1522 0.930 . S
H1514 C1527 0.929 . S
H1515 C1525 0.929 . S
H1516 C1520 0.929 . S
H1517 C1526 0.934 . S
C1518 H1512 0.930 . S
C1518 C1519 1.367 . S
C1518 C1526 1.370 1_554 S
C1519 C1518 1.367 . S
C1519 C1527 1.433 . S
C1520 H1516 0.929 . S
C1520 C1522 1.378 . S
C1520 C1524 1.350 . S
C1521 C1524 1.463 . S
C1521 C1526 1.353 . S
C1521 N1529 1.427 1_556 S
C1522 H1513 0.930 . S
C1522 C1520 1.378 . S
C1522 C1523 1.367 . S
C1523 C1522 1.367 . S
C1523 C1525 1.433 . S
C1524 C1520 1.350 . S
C1524 C1521 1.463 . S
C1524 N1528 1.427 . S
C1525 H1515 0.929 . S
C1525 C1523 1.433 . S
C1525 N1528 1.384 . S
C1526 H1517 0.934 . S
C1526 C1518 1.370 1_556 S
C1526 C1521 1.353 . S
C1527 H1514 0.929 . S
C1527 C1519 1.433 . S
C1527 N1529 1.384 . S
N1528 C1524 1.427 . S
N1528 C1525 1.384 . S
N1529 C1521 1.427 1_554 S
N1529 C1527 1.384 . S
H1530 C1536 0.930 . S
H1531 C1540 0.930 . S
H1532 C1545 0.929 . S
H1533 C1543 0.929 . S
H1534 C1538 0.929 1_556 S
H1535 C1544 0.929 . S
C1536 H1530 0.930 . S
C1536 C1537 1.367 . S
C1536 C1544 1.378 . S
C1537 C1536 1.367 . S
C1537 C1545 1.433 . S
C1538 H1534 0.929 1_554 S
C1538 C1540 1.378 . S
C1538 C1542 1.350 1_554 S
C1539 C1542 1.463 . S
C1539 C1544 1.350 . S
C1539 N1547 1.427 . S
C1540 H1531 0.930 . S
C1540 C1538 1.378 . S
C1540 C1541 1.367 . S
C1541 C1540 1.367 . S
C1541 C1543 1.433 . S
C1542 C1538 1.350 1_556 S
C1542 C1539 1.463 . S
C1542 N1546 1.427 1_556 S
C1543 H1533 0.929 . S
C1543 C1541 1.433 . S
C1543 N1546 1.384 . S
C1544 H1535 0.929 . S
C1544 C1536 1.378 . S
C1544 C1539 1.350 . S
C1545 H1532 0.929 . S
C1545 C1537 1.433 . S
C1545 N1547 1.384 . S
N1546 C1542 1.427 1_554 S
N1546 C1543 1.384 . S
N1547 C1539 1.427 . S
N1547 C1545 1.384 . S
H1548 C1554 0.930 . S
H1549 C1558 0.930 . S
H1550 C1563 0.929 . S
H1551 C1561 0.929 . S
H1552 C1556 0.929 . S
H1553 C1562 0.929 . S
C1554 H1548 0.930 . S
C1554 C1555 1.367 . S
C1554 C1562 1.378 . S
C1555 C1554 1.367 . S
C1555 C1563 1.433 . S
C1556 H1552 0.929 . S
C1556 C1558 1.378 . S
C1556 C1560 1.350 . S
C1557 C1560 1.463 . S
C1557 C1562 1.350 . S
C1557 N1565 1.427 . S
C1558 H1549 0.930 . S
C1558 C1556 1.378 . S
C1558 C1559 1.367 . S
C1559 C1558 1.367 . S
C1559 C1561 1.433 . S
C1560 C1556 1.350 . S
C1560 C1557 1.463 . S
C1560 N1564 1.427 . S
C1561 H1551 0.929 . S
C1561 C1559 1.433 . S
C1561 N1564 1.384 . S
C1562 H1553 0.929 . S
C1562 C1554 1.378 . S
C1562 C1557 1.350 . S
C1563 H1550 0.929 . S
C1563 C1555 1.433 . S
C1563 N1565 1.384 . S
N1564 C1560 1.427 . S
N1564 C1561 1.384 . S
N1565 C1557 1.427 . S
N1565 C1563 1.384 . S
H1566 C1572 0.930 . S
H1567 C1576 0.930 . S
H1568 C1581 0.929 . S
H1569 C1579 0.929 . S
H1570 C1574 0.929 . S
H1571 C1580 0.929 . S
C1572 H1566 0.930 . S
C1572 C1573 1.367 . S
C1572 C1580 1.378 . S
C1573 C1572 1.367 . S
C1573 C1581 1.433 . S
C1574 H1570 0.929 . S
C1574 C1576 1.378 . S
C1574 C1578 1.350 . S
C1575 C1578 1.463 . S
C1575 C1580 1.350 . S
C1575 N1583 1.427 . S
C1576 H1567 0.930 . S
C1576 C1574 1.378 . S
C1576 C1577 1.367 . S
C1577 C1576 1.367 . S
C1577 C1579 1.433 . S
C1578 C1574 1.350 . S
C1578 C1575 1.463 . S
C1578 N1582 1.427 . S
C1579 H1569 0.929 . S
C1579 C1577 1.433 . S
C1579 N1582 1.384 . S
C1580 H1571 0.929 . S
C1580 C1572 1.378 . S
C1580 C1575 1.350 . S
C1581 H1568 0.929 . S
C1581 C1573 1.433 . S
C1581 N1583 1.384 . S
N1582 C1578 1.427 . S
N1582 C1579 1.384 . S
N1583 C1575 1.427 . S
N1583 C1581 1.384 . S
H1584 C1590 0.930 . S
H1585 C1594 0.930 . S
H1586 C1599 0.929 . S
H1587 C1597 0.929 . S
H1588 C1592 0.929 . S
H1589 C1598 0.929 . S
C1590 H1584 0.930 . S
C1590 C1591 1.367 . S
C1590 C1598 1.378 . S
C1591 C1590 1.367 . S
C1591 C1599 1.433 . S
C1592 H1588 0.929 . S
C1592 C1594 1.378 . S
C1592 C1596 1.350 . S
C1593 C1596 1.463 . S
C1593 C1598 1.350 . S
C1593 N1601 1.427 . S
C1594 H1585 0.930 . S
C1594 C1592 1.378 . S
C1594 C1595 1.367 . S
C1595 C1594 1.367 . S
C1595 C1597 1.433 . S
C1596 C1592 1.350 . S
C1596 C1593 1.463 . S
C1596 N1600 1.427 . S
C1597 H1587 0.929 . S
C1597 C1595 1.433 . S
C1597 N1600 1.384 . S
C1598 H1589 0.929 . S
C1598 C1590 1.378 . S
C1598 C1593 1.350 . S
C1599 H1586 0.929 . S
C1599 C1591 1.433 . S
C1599 N1601 1.384 . S
N1600 C1596 1.427 . S
N1600 C1597 1.384 . S
N1601 C1593 1.427 . S
N1601 C1599 1.384 . S
H1602 C1608 0.930 . S
H1603 C1612 0.930 . S
H1604 C1617 0.929 . S
H1605 C1615 0.929 . S
H1606 C1610 0.929 . S
H1607 C1616 0.929 . S
C1608 H1602 0.930 . S
C1608 C1609 1.367 . S
C1608 C1616 1.378 . S
C1609 C1608 1.367 . S
C1609 C1617 1.433 . S
C1610 H1606 0.929 . S
C1610 C1612 1.378 . S
C1610 C1614 1.350 . S
C1611 C1614 1.463 . S
C1611 C1616 1.350 1_554 S
C1611 N1619 1.427 1_554 S
C1612 H1603 0.930 . S
C1612 C1610 1.378 . S
C1612 C1613 1.367 . S
C1613 C1612 1.367 . S
C1613 C1615 1.433 . S
C1614 C1610 1.350 . S
C1614 C1611 1.463 . S
C1614 N1618 1.427 . S
C1615 H1605 0.929 . S
C1615 C1613 1.433 . S
C1615 N1618 1.384 . S
C1616 H1607 0.929 . S
C1616 C1608 1.378 . S
C1616 C1611 1.350 1_556 S
C1617 H1604 0.929 . S
C1617 C1609 1.433 . S
C1617 N1619 1.384 . S
N1618 C1614 1.427 . S
N1618 C1615 1.384 . S
N1619 C1611 1.427 1_556 S
N1619 C1617 1.384 . S
H1620 C1626 0.930 . S
H1621 C1630 0.930 . S
H1622 C1635 0.929 . S
H1623 C1633 0.929 . S
H1624 C1628 0.929 . S
H1625 C1634 0.929 . S
C1626 H1620 0.930 . S
C1626 C1627 1.367 . S
C1626 C1634 1.378 . S
C1627 C1626 1.367 . S
C1627 C1635 1.433 . S
C1628 H1624 0.929 . S
C1628 C1630 1.378 . S
C1628 C1632 1.350 1_556 S
C1629 C1632 1.463 . S
C1629 C1634 1.350 . S
C1629 N1637 1.427 . S
C1630 H1621 0.930 . S
C1630 C1628 1.378 . S
C1630 C1631 1.367 . S
C1631 C1630 1.367 . S
C1631 C1633 1.433 . S
C1632 C1628 1.350 1_554 S
C1632 C1629 1.463 . S
C1632 N1636 1.430 . S
C1633 H1623 0.929 . S
C1633 C1631 1.433 . S
C1633 N1636 1.374 1_556 S
C1634 H1625 0.929 . S
C1634 C1626 1.378 . S
C1634 C1629 1.350 . S
C1635 H1622 0.929 . S
C1635 C1627 1.433 . S
C1635 N1637 1.384 . S
N1636 C1632 1.430 . S
N1636 C1633 1.374 1_554 S
N1637 C1629 1.427 . S
N1637 C1635 1.384 . S
H1638 C1644 0.930 . S
H1639 C1648 0.930 . S
H1640 C1653 0.929 . S
H1641 C1651 0.929 . S
H1642 C1646 0.929 1_554 S
H1643 C1652 0.929 . S
C1644 H1638 0.930 . S
C1644 C1645 1.367 . S
C1644 C1652 1.378 . S
C1645 C1644 1.367 . S
C1645 C1653 1.433 . S
C1646 H1642 0.929 1_556 S
C1646 C1648 1.378 . S
C1646 C1650 1.350 1_556 S
C1647 C1650 1.463 . S
C1647 C1652 1.350 . S
C1647 N1655 1.427 . S
C1648 H1639 0.930 . S
C1648 C1646 1.378 . S
C1648 C1649 1.367 . S
C1649 C1648 1.367 . S
C1649 C1651 1.433 . S
C1650 C1646 1.350 1_554 S
C1650 C1647 1.463 . S
C1650 N1654 1.427 1_554 S
C1651 H1641 0.929 . S
C1651 C1649 1.433 . S
C1651 N1654 1.384 . S
C1652 H1643 0.929 . S
C1652 C1644 1.378 . S
C1652 C1647 1.350 . S
C1653 H1640 0.929 . S
C1653 C1645 1.433 . S
C1653 N1655 1.384 . S
N1654 C1650 1.427 1_556 S
N1654 C1651 1.384 . S
N1655 C1647 1.427 . S
N1655 C1653 1.384 . S
H1656 C1662 0.930 . S
H1657 C1666 0.930 . S
H1658 C1671 0.929 . S
H1659 C1669 0.929 . S
H1660 C1664 0.928 . S
H1661 C1670 0.929 . S
C1662 H1656 0.930 . S
C1662 C1663 1.367 . S
C1662 C1670 1.378 . S
C1663 C1662 1.367 . S
C1663 C1671 1.433 . S
C1664 H1660 0.928 . S
C1664 C1666 1.378 1_554 S
C1664 C1668 1.350 . S
C1665 C1668 1.463 . S
C1665 C1670 1.350 . S
C1665 N1673 1.427 . S
C1666 H1657 0.930 . S
C1666 C1664 1.378 1_556 S
C1666 C1667 1.367 . S
C1667 C1666 1.367 . S
C1667 C1669 1.433 . S
C1668 C1664 1.350 . S
C1668 C1665 1.463 . S
C1668 N1672 1.427 1_554 S
C1669 H1659 0.929 . S
C1669 C1667 1.433 . S
C1669 N1672 1.384 . S
C1670 H1661 0.929 . S
C1670 C1662 1.378 . S
C1670 C1665 1.350 . S
C1671 H1658 0.929 . S
C1671 C1663 1.433 . S
C1671 N1673 1.384 . S
N1672 C1668 1.427 1_556 S
N1672 C1669 1.384 . S
N1673 C1665 1.427 . S
N1673 C1671 1.384 . S
H1674 C1680 0.930 . S
H1675 C1684 0.930 . S
H1676 C1689 0.929 . S
H1677 C1687 0.929 . S
H1678 C1682 0.929 . S
H1679 C1688 0.929 . S
C1680 H1674 0.930 . S
C1680 C1681 1.367 . S
C1680 C1688 1.378 . S
C1681 C1680 1.367 . S
C1681 C1689 1.433 . S
C1682 H1678 0.929 . S
C1682 C1684 1.378 . S
C1682 C1686 1.350 . S
C1683 C1686 1.463 . S
C1683 C1688 1.350 1_554 S
C1683 N1691 1.427 1_554 S
C1684 H1675 0.930 . S
C1684 C1682 1.378 . S
C1684 C1685 1.367 . S
C1685 C1684 1.367 . S
C1685 C1687 1.433 . S
C1686 C1682 1.350 . S
C1686 C1683 1.463 . S
C1686 N1690 1.427 . S
C1687 H1677 0.929 . S
C1687 C1685 1.433 . S
C1687 N1690 1.384 . S
C1688 H1679 0.929 . S
C1688 C1680 1.378 . S
C1688 C1683 1.350 1_556 S
C1689 H1676 0.929 . S
C1689 C1681 1.433 . S
C1689 N1691 1.385 . S
N1690 C1686 1.427 . S
N1690 C1687 1.384 . S
N1691 C1683 1.427 1_556 S
N1691 C1689 1.385 . S
H1692 C1698 0.930 . S
H1693 C1702 0.930 . S
H1694 C1707 0.929 . S
H1695 C1705 0.929 . S
H1696 C1700 0.929 . S
H1697 C1706 0.929 1_554 S
C1698 H1692 0.930 . S
C1698 C1699 1.367 . S
C1698 C1706 1.378 . S
C1699 C1698 1.367 . S
C1699 C1707 1.433 . S
C1700 H1696 0.929 . S
C1700 C1702 1.378 . S
C1700 C1704 1.350 . S
C1701 C1704 1.463 . S
C1701 C1706 1.350 1_554 S
C1701 N1709 1.427 1_554 S
C1702 H1693 0.930 . S
C1702 C1700 1.378 . S
C1702 C1703 1.367 . S
C1703 C1702 1.367 . S
C1703 C1705 1.433 . S
C1704 C1700 1.350 . S
C1704 C1701 1.463 . S
C1704 N1708 1.427 . S
C1705 H1695 0.929 . S
C1705 C1703 1.433 . S
C1705 N1708 1.384 . S
C1706 H1697 0.929 1_556 S
C1706 C1698 1.378 . S
C1706 C1701 1.350 1_556 S
C1707 H1694 0.929 . S
C1707 C1699 1.433 . S
C1707 N1709 1.384 . S
N1708 C1704 1.427 . S
N1708 C1705 1.384 . S
N1709 C1701 1.427 1_556 S
N1709 C1707 1.384 . S
H1710 C1716 0.930 . S
H1711 C1720 0.930 . S
H1712 C1725 0.929 . S
H1713 C1723 0.929 . S
H1714 C1718 0.929 . S
H1715 C1724 0.929 . S
C1716 H1710 0.930 . S
C1716 C1717 1.367 . S
C1716 C1724 1.378 . S
C1717 C1716 1.367 . S
C1717 C1725 1.433 . S
C1718 H1714 0.929 . S
C1718 C1720 1.378 . S
C1718 C1722 1.350 . S
C1719 C1722 1.463 . S
C1719 C1724 1.350 . S
C1719 N1727 1.427 . S
C1720 H1711 0.930 . S
C1720 C1718 1.378 . S
C1720 C1721 1.367 . S
C1721 C1720 1.367 . S
C1721 C1723 1.433 . S
C1722 C1718 1.350 . S
C1722 C1719 1.463 . S
C1722 N1726 1.427 . S
C1723 H1713 0.929 . S
C1723 C1721 1.433 . S
C1723 N1726 1.384 . S
C1724 H1715 0.929 . S
C1724 C1716 1.378 . S
C1724 C1719 1.350 . S
C1725 H1712 0.929 . S
C1725 C1717 1.433 . S
C1725 N1727 1.384 . S
N1726 C1722 1.427 . S
N1726 C1723 1.384 . S
N1727 C1719 1.427 . S
N1727 C1725 1.384 . S
H1728 C1734 0.930 . S
H1729 C1738 0.930 . S
H1730 C1743 0.929 . S
H1731 C1741 0.929 . S
H1732 C1736 0.929 . S
H1733 C1742 0.929 . S
C1734 H1728 0.930 . S
C1734 C1735 1.367 . S
C1734 C1742 1.378 . S
C1735 C1734 1.367 . S
C1735 C1743 1.433 . S
C1736 H1732 0.929 . S
C1736 C1738 1.378 . S
C1736 C1740 1.350 . S
C1737 C1740 1.463 . S
C1737 C1742 1.350 . S
C1737 N1745 1.427 . S
C1738 H1729 0.930 . S
C1738 C1736 1.378 . S
C1738 C1739 1.367 . S
C1739 C1738 1.367 . S
C1739 C1741 1.433 . S
C1740 C1736 1.350 . S
C1740 C1737 1.463 . S
C1740 N1744 1.427 . S
C1741 H1731 0.929 . S
C1741 C1739 1.433 . S
C1741 N1744 1.384 . S
C1742 H1733 0.929 . S
C1742 C1734 1.378 . S
C1742 C1737 1.350 . S
C1743 H1730 0.929 . S
C1743 C1735 1.433 . S
C1743 N1745 1.384 . S
N1744 C1740 1.427 . S
N1744 C1741 1.384 . S
N1745 C1737 1.427 . S
N1745 C1743 1.384 . S
H1746 C1752 0.930 . S
H1747 C1756 0.930 . S
H1748 C1761 0.929 . S
H1749 C1759 0.929 . S
H1750 C1754 0.929 . S
H1751 C1760 0.929 . S
C1752 H1746 0.930 . S
C1752 C1753 1.367 . S
C1752 C1760 1.378 . S
C1753 C1752 1.367 . S
C1753 C1761 1.433 . S
C1754 H1750 0.929 . S
C1754 C1756 1.378 . S
C1754 C1758 1.350 . S
C1755 C1758 1.463 . S
C1755 C1760 1.350 . S
C1755 N1763 1.427 . S
C1756 H1747 0.930 . S
C1756 C1754 1.378 . S
C1756 C1757 1.367 . S
C1757 C1756 1.367 . S
C1757 C1759 1.433 . S
C1758 C1754 1.350 . S
C1758 C1755 1.463 . S
C1758 N1762 1.427 . S
C1759 H1749 0.929 . S
C1759 C1757 1.433 . S
C1759 N1762 1.384 . S
C1760 H1751 0.929 . S
C1760 C1752 1.378 . S
C1760 C1755 1.350 . S
C1761 H1748 0.929 . S
C1761 C1753 1.433 . S
C1761 N1763 1.384 . S
N1762 C1758 1.427 . S
N1762 C1759 1.384 . S
N1763 C1755 1.427 . S
N1763 C1761 1.384 . S
H1764 C1770 0.930 . S
H1765 C1774 0.930 . S
H1766 C1779 0.929 . S
H1767 C1777 0.929 . S
H1768 C1772 0.929 . S
H1769 C1778 0.929 . S
C1770 H1764 0.930 . S
C1770 C1771 1.367 . S
C1770 C1778 1.378 . S
C1771 C1770 1.367 . S
C1771 C1779 1.433 . S
C1772 H1768 0.929 . S
C1772 C1774 1.378 . S
C1772 C1776 1.350 . S
C1773 C1776 1.463 . S
C1773 C1778 1.350 . S
C1773 N1781 1.427 . S
C1774 H1765 0.930 . S
C1774 C1772 1.378 . S
C1774 C1775 1.367 . S
C1775 C1774 1.367 . S
C1775 C1777 1.433 . S
C1776 C1772 1.350 . S
C1776 C1773 1.463 . S
C1776 N1780 1.427 . S
C1777 H1767 0.929 . S
C1777 C1775 1.433 . S
C1777 N1780 1.384 . S
C1778 H1769 0.929 . S
C1778 C1770 1.378 . S
C1778 C1773 1.350 . S
C1779 H1766 0.929 . S
C1779 C1771 1.433 . S
C1779 N1781 1.384 . S
N1780 C1776 1.427 . S
N1780 C1777 1.384 . S
N1781 C1773 1.427 . S
N1781 C1779 1.384 . S
H1782 C1788 0.930 . S
H1783 C1792 0.930 . S
H1784 C1797 0.929 . S
H1785 C1795 0.929 . S
H1786 C1790 0.929 . S
H1787 C1796 0.929 . S
C1788 H1782 0.930 . S
C1788 C1789 1.367 . S
C1788 C1796 1.378 . S
C1789 C1788 1.367 . S
C1789 C1797 1.433 . S
C1790 H1786 0.929 . S
C1790 C1792 1.378 . S
C1790 C1794 1.350 . S
C1791 C1794 1.463 . S
C1791 C1796 1.350 . S
C1791 N1799 1.427 . S
C1792 H1783 0.930 . S
C1792 C1790 1.378 . S
C1792 C1793 1.367 . S
C1793 C1792 1.367 . S
C1793 C1795 1.433 . S
C1794 C1790 1.350 . S
C1794 C1791 1.463 . S
C1794 N1798 1.427 . S
C1795 H1785 0.929 . S
C1795 C1793 1.433 . S
C1795 N1798 1.384 . S
C1796 H1787 0.929 . S
C1796 C1788 1.378 . S
C1796 C1791 1.350 . S
C1797 H1784 0.929 . S
C1797 C1789 1.433 . S
C1797 N1799 1.384 . S
N1798 C1794 1.427 . S
N1798 C1795 1.384 . S
N1799 C1791 1.427 . S
N1799 C1797 1.384 . S
H1800 C1806 0.930 . S
H1801 C1810 0.930 . S
H1802 C1815 0.929 . S
H1803 C1813 0.929 . S
H1804 C1808 0.929 . S
H1805 C1814 0.929 . S
C1806 H1800 0.930 . S
C1806 C1807 1.367 . S
C1806 C1814 1.378 . S
C1807 C1806 1.367 . S
C1807 C1815 1.433 . S
C1808 H1804 0.929 . S
C1808 C1810 1.378 . S
C1808 C1812 1.350 . S
C1809 C1812 1.463 . S
C1809 C1814 1.350 . S
C1809 N1817 1.427 . S
C1810 H1801 0.930 . S
C1810 C1808 1.378 . S
C1810 C1811 1.367 . S
C1811 C1810 1.367 . S
C1811 C1813 1.433 . S
C1812 C1808 1.350 . S
C1812 C1809 1.463 . S
C1812 N1816 1.427 . S
C1813 H1803 0.929 . S
C1813 C1811 1.433 . S
C1813 N1816 1.384 . S
C1814 H1805 0.929 . S
C1814 C1806 1.378 . S
C1814 C1809 1.350 . S
C1815 H1802 0.929 . S
C1815 C1807 1.433 . S
C1815 N1817 1.384 . S
N1816 C1812 1.427 . S
N1816 C1813 1.384 . S
N1817 C1809 1.427 . S
N1817 C1815 1.384 . S
H1818 C1824 0.930 . S
H1819 C1828 0.930 . S
H1820 C1833 0.929 . S
H1821 C1831 0.929 . S
H1822 C1826 0.929 . S
H1823 C1832 0.929 . S
C1824 H1818 0.930 . S
C1824 C1825 1.367 . S
C1824 C1832 1.378 . S
C1825 C1824 1.367 . S
C1825 C1833 1.433 . S
C1826 H1822 0.929 . S
C1826 C1828 1.378 . S
C1826 C1830 1.350 . S
C1827 C1830 1.463 . S
C1827 C1832 1.350 . S
C1827 N1835 1.427 . S
C1828 H1819 0.930 . S
C1828 C1826 1.378 . S
C1828 C1829 1.367 . S
C1829 C1828 1.367 . S
C1829 C1831 1.433 . S
C1830 C1826 1.350 . S
C1830 C1827 1.463 . S
C1830 N1834 1.427 . S
C1831 H1821 0.929 . S
C1831 C1829 1.433 . S
C1831 N1834 1.384 . S
C1832 H1823 0.929 . S
C1832 C1824 1.378 . S
C1832 C1827 1.350 . S
C1833 H1820 0.929 . S
C1833 C1825 1.433 . S
C1833 N1835 1.384 . S
N1834 C1830 1.427 . S
N1834 C1831 1.384 . S
N1835 C1827 1.427 . S
N1835 C1833 1.384 . S
H1836 C1842 0.930 . S
H1837 C1846 0.930 . S
H1838 C1851 0.929 . S
H1839 C1849 0.929 . S
H1840 C1844 0.929 . S
H1841 C1850 0.929 . S
C1842 H1836 0.930 . S
C1842 C1843 1.367 . S
C1842 C1850 1.378 . S
C1843 C1842 1.367 . S
C1843 C1851 1.433 . S
C1844 H1840 0.929 . S
C1844 C1846 1.378 . S
C1844 C1848 1.350 . S
C1845 C1848 1.463 . S
C1845 C1850 1.350 . S
C1845 N1853 1.427 . S
C1846 H1837 0.930 . S
C1846 C1844 1.378 . S
C1846 C1847 1.367 . S
C1847 C1846 1.367 . S
C1847 C1849 1.433 . S
C1848 C1844 1.350 . S
C1848 C1845 1.463 . S
C1848 N1852 1.427 . S
C1849 H1839 0.929 . S
C1849 C1847 1.433 . S
C1849 N1852 1.384 . S
C1850 H1841 0.929 . S
C1850 C1842 1.378 . S
C1850 C1845 1.350 . S
C1851 H1838 0.929 . S
C1851 C1843 1.433 . S
C1851 N1853 1.384 . S
N1852 C1848 1.427 . S
N1852 C1849 1.384 . S
N1853 C1845 1.427 . S
N1853 C1851 1.384 . S
H1854 C1860 0.930 . S
H1855 C1864 0.930 . S
H1856 C1869 0.929 . S
H1857 C1867 0.929 . S
H1858 C1862 0.929 . S
H1859 C1868 0.929 . S
C1860 H1854 0.930 . S
C1860 C1861 1.367 . S
C1860 C1868 1.378 . S
C1861 C1860 1.367 . S
C1861 C1869 1.433 . S
C1862 H1858 0.929 . S
C1862 C1864 1.378 . S
C1862 C1866 1.350 . S
C1863 C1866 1.463 . S
C1863 C1868 1.350 . S
C1863 N1871 1.427 . S
C1864 H1855 0.930 . S
C1864 C1862 1.378 . S
C1864 C1865 1.367 . S
C1865 C1864 1.367 . S
C1865 C1867 1.433 . S
C1866 C1862 1.350 . S
C1866 C1863 1.463 . S
C1866 N1870 1.427 . S
C1867 H1857 0.929 . S
C1867 C1865 1.433 . S
C1867 N1870 1.384 . S
C1868 H1859 0.929 . S
C1868 C1860 1.378 . S
C1868 C1863 1.350 . S
C1869 H1856 0.929 . S
C1869 C1861 1.433 . S
C1869 N1871 1.384 . S
N1870 C1866 1.427 . S
N1870 C1867 1.384 . S
N1871 C1863 1.427 . S
N1871 C1869 1.384 . S
H1872 C1878 0.930 . S
H1873 C1882 0.930 . S
H1874 C1887 0.929 1_554 S
H1875 C1885 0.929 . S
H1876 C1880 0.929 . S
H1877 C1886 0.929 . S
C1878 H1872 0.930 . S
C1878 C1879 1.367 . S
C1878 C1886 1.378 . S
C1879 C1878 1.367 . S
C1879 C1887 1.433 . S
C1880 H1876 0.929 . S
C1880 C1882 1.378 . S
C1880 C1884 1.350 . S
C1881 C1884 1.463 . S
C1881 C1886 1.350 . S
C1881 N1889 1.427 . S
C1882 H1873 0.930 . S
C1882 C1880 1.378 . S
C1882 C1883 1.367 . S
C1883 C1882 1.367 . S
C1883 C1885 1.433 . S
C1884 C1880 1.350 . S
C1884 C1881 1.463 . S
C1884 N1888 1.427 . S
C1885 H1875 0.929 . S
C1885 C1883 1.433 . S
C1885 N1888 1.384 . S
C1886 H1877 0.929 . S
C1886 C1878 1.378 . S
C1886 C1881 1.350 . S
C1887 H1874 0.929 1_556 S
C1887 C1879 1.433 . S
C1887 N1889 1.384 . S
N1888 C1884 1.427 . S
N1888 C1885 1.384 . S
N1889 C1881 1.427 . S
N1889 C1887 1.384 . S
H1890 C1896 0.930 . S
H1891 C1900 0.930 . S
H1892 C1905 0.929 . S
H1893 C1903 0.929 1_554 S
H1894 C1898 0.929 . S
H1895 C1904 0.929 . S
C1896 H1890 0.930 . S
C1896 C1897 1.367 . S
C1896 C1904 1.378 . S
C1897 C1896 1.367 . S
C1897 C1905 1.433 . S
C1898 H1894 0.929 . S
C1898 C1900 1.378 . S
C1898 C1902 1.350 . S
C1899 C1902 1.463 . S
C1899 C1904 1.350 . S
C1899 N1907 1.427 . S
C1900 H1891 0.930 . S
C1900 C1898 1.378 . S
C1900 C1901 1.367 . S
C1901 C1900 1.367 . S
C1901 C1903 1.433 . S
C1902 C1898 1.350 . S
C1902 C1899 1.463 . S
C1902 N1906 1.427 . S
C1903 H1893 0.929 1_556 S
C1903 C1901 1.433 . S
C1903 N1906 1.384 . S
C1904 H1895 0.929 . S
C1904 C1896 1.378 . S
C1904 C1899 1.350 . S
C1905 H1892 0.929 . S
C1905 C1897 1.433 . S
C1905 N1907 1.384 . S
N1906 C1902 1.427 . S
N1906 C1903 1.384 . S
N1907 C1899 1.427 . S
N1907 C1905 1.384 . S
H1908 C1914 0.930 . S
H1909 C1918 0.930 . S
H1910 C1923 0.929 . S
H1911 C1921 0.929 . S
H1912 C1916 0.929 . S
H1913 C1922 0.929 . S
C1914 H1908 0.930 . S
C1914 C1915 1.367 . S
C1914 C1922 1.378 . S
C1915 C1914 1.367 . S
C1915 C1923 1.433 . S
C1916 H1912 0.929 . S
C1916 C1918 1.378 . S
C1916 C1920 1.350 . S
C1917 C1920 1.463 . S
C1917 C1922 1.350 . S
C1917 N1925 1.427 . S
C1918 H1909 0.930 . S
C1918 C1916 1.378 . S
C1918 C1919 1.367 . S
C1919 C1918 1.367 . S
C1919 C1921 1.433 . S
C1920 C1916 1.350 . S
C1920 C1917 1.463 . S
C1920 N1924 1.427 . S
C1921 H1911 0.929 . S
C1921 C1919 1.433 . S
C1921 N1924 1.384 . S
C1922 H1913 0.929 . S
C1922 C1914 1.378 . S
C1922 C1917 1.350 . S
C1923 H1910 0.929 . S
C1923 C1915 1.433 . S
C1923 N1925 1.384 . S
N1924 C1920 1.427 . S
N1924 C1921 1.384 . S
N1925 C1917 1.427 . S
N1925 C1923 1.384 . S
H1926 C1932 0.930 . S
H1927 C1936 0.930 . S
H1928 C1941 0.929 . S
H1929 C1939 0.929 . S
H1930 C1934 0.929 . S
H1931 C1940 0.929 . S
C1932 H1926 0.930 . S
C1932 C1933 1.367 . S
C1932 C1940 1.378 . S
C1933 C1932 1.367 . S
C1933 C1941 1.433 . S
C1934 H1930 0.929 . S
C1934 C1936 1.378 . S
C1934 C1938 1.350 . S
C1935 C1938 1.463 . S
C1935 C1940 1.350 . S
C1935 N1943 1.427 . S
C1936 H1927 0.930 . S
C1936 C1934 1.378 . S
C1936 C1937 1.367 . S
C1937 C1936 1.367 . S
C1937 C1939 1.433 . S
C1938 C1934 1.350 . S
C1938 C1935 1.463 . S
C1938 N1942 1.427 . S
C1939 H1929 0.929 . S
C1939 C1937 1.433 . S
C1939 N1942 1.384 . S
C1940 H1931 0.929 . S
C1940 C1932 1.378 . S
C1940 C1935 1.350 . S
C1941 H1928 0.929 . S
C1941 C1933 1.433 . S
C1941 N1943 1.384 . S
N1942 C1938 1.427 . S
N1942 C1939 1.384 . S
N1943 C1935 1.427 . S
N1943 C1941 1.384 . S
H1944 C1950 0.930 . S
H1945 C1954 0.930 . S
H1946 C1959 0.929 . S
H1947 C1957 0.929 . S
H1948 C1952 0.929 . S
H1949 C1958 0.929 . S
C1950 H1944 0.930 . S
C1950 C1951 1.367 . S
C1950 C1958 1.378 . S
C1951 C1950 1.367 . S
C1951 C1959 1.433 . S
C1952 H1948 0.929 . S
C1952 C1954 1.378 . S
C1952 C1956 1.350 . S
C1953 C1956 1.463 . S
C1953 C1958 1.350 . S
C1953 N1961 1.427 . S
C1954 H1945 0.930 . S
C1954 C1952 1.378 . S
C1954 C1955 1.367 . S
C1955 C1954 1.367 . S
C1955 C1957 1.433 . S
C1956 C1952 1.350 . S
C1956 C1953 1.463 . S
C1956 N1960 1.427 . S
C1957 H1947 0.929 . S
C1957 C1955 1.433 . S
C1957 N1960 1.384 . S
C1958 H1949 0.929 . S
C1958 C1950 1.378 . S
C1958 C1953 1.350 . S
C1959 H1946 0.929 . S
C1959 C1951 1.433 . S
C1959 N1961 1.384 . S
N1960 C1956 1.427 . S
N1960 C1957 1.384 . S
N1961 C1953 1.427 . S
N1961 C1959 1.384 . S
H1962 C1968 0.930 . S
H1963 C1972 0.930 . S
H1964 C1977 0.929 . S
H1965 C1975 0.929 . S
H1966 C1970 0.929 . S
H1967 C1976 0.929 . S
C1968 H1962 0.930 . S
C1968 C1969 1.367 . S
C1968 C1976 1.378 . S
C1969 C1968 1.367 . S
C1969 C1977 1.433 . S
C1970 H1966 0.929 . S
C1970 C1972 1.378 . S
C1970 C1974 1.350 . S
C1971 C1974 1.463 . S
C1971 C1976 1.350 . S
C1971 N1979 1.427 . S
C1972 H1963 0.930 . S
C1972 C1970 1.378 . S
C1972 C1973 1.367 . S
C1973 C1972 1.367 . S
C1973 C1975 1.433 . S
C1974 C1970 1.350 . S
C1974 C1971 1.463 . S
C1974 N1978 1.427 . S
C1975 H1965 0.929 . S
C1975 C1973 1.433 . S
C1975 N1978 1.384 . S
C1976 H1967 0.929 . S
C1976 C1968 1.378 . S
C1976 C1971 1.350 . S
C1977 H1964 0.929 . S
C1977 C1969 1.433 . S
C1977 N1979 1.384 . S
N1978 C1974 1.427 . S
N1978 C1975 1.384 . S
N1979 C1971 1.427 . S
N1979 C1977 1.384 . S
H1980 C1986 0.930 . S
H1981 C1990 0.930 . S
H1982 C1995 0.929 . S
H1983 C1993 0.929 . S
H1984 C1988 0.929 . S
H1985 C1994 0.929 . S
C1986 H1980 0.930 . S
C1986 C1987 1.367 . S
C1986 C1994 1.378 . S
C1987 C1986 1.367 . S
C1987 C1995 1.433 . S
C1988 H1984 0.929 . S
C1988 C1990 1.378 . S
C1988 C1992 1.350 . S
C1989 C1992 1.463 . S
C1989 C1994 1.350 . S
C1989 N1997 1.427 . S
C1990 H1981 0.930 . S
C1990 C1988 1.378 . S
C1990 C1991 1.367 . S
C1991 C1990 1.367 . S
C1991 C1993 1.433 . S
C1992 C1988 1.350 . S
C1992 C1989 1.463 . S
C1992 N1996 1.427 . S
C1993 H1983 0.929 . S
C1993 C1991 1.433 . S
C1993 N1996 1.384 . S
C1994 H1985 0.929 . S
C1994 C1986 1.378 . S
C1994 C1989 1.350 . S
C1995 H1982 0.929 . S
C1995 C1987 1.433 . S
C1995 N1997 1.384 . S
N1996 C1992 1.427 . S
N1996 C1993 1.384 . S
N1997 C1989 1.427 . S
N1997 C1995 1.384 . S
H1998 C2004 0.930 . S
H1999 C2008 0.930 . S
H2000 C2013 0.929 . S
H2001 C2011 0.929 . S
H2002 C2006 0.929 . S
H2003 C2012 0.929 . S
C2004 H1998 0.930 . S
C2004 C2005 1.367 . S
C2004 C2012 1.378 . S
C2005 C2004 1.367 . S
C2005 C2013 1.433 . S
C2006 H2002 0.929 . S
C2006 C2008 1.378 . S
C2006 C2010 1.350 . S
C2007 C2010 1.463 1_545 S
C2007 C2012 1.350 . S
C2007 N2015 1.427 . S
C2008 H1999 0.930 . S
C2008 C2006 1.378 . S
C2008 C2009 1.367 . S
C2009 C2008 1.367 . S
C2009 C2011 1.433 . S
C2010 C2006 1.350 . S
C2010 C2007 1.463 1_565 S
C2010 N2014 1.427 . S
C2011 H2001 0.929 . S
C2011 C2009 1.433 . S
C2011 N2014 1.384 . S
C2012 H2003 0.929 . S
C2012 C2004 1.378 . S
C2012 C2007 1.350 . S
C2013 H2000 0.929 . S
C2013 C2005 1.433 . S
C2013 N2015 1.384 . S
N2014 C2010 1.427 . S
N2014 C2011 1.384 . S
N2015 C2007 1.427 . S
N2015 C2013 1.384 . S
H2016 C2022 0.930 . S
H2017 C2026 0.930 . S
H2018 C2031 0.929 . S
H2019 C2029 0.929 . S
H2020 C2024 0.929 . S
H2021 C2030 0.929 . S
C2022 H2016 0.930 . S
C2022 C2023 1.367 . S
C2022 C2030 1.378 . S
C2023 C2022 1.367 . S
C2023 C2031 1.433 . S
C2024 H2020 0.929 . S
C2024 C2026 1.378 . S
C2024 C2028 1.350 . S
C2025 C2028 1.463 1_655 S
C2025 C2030 1.350 . S
C2025 N2033 1.427 . S
C2026 H2017 0.930 . S
C2026 C2024 1.378 . S
C2026 C2027 1.367 . S
C2027 C2026 1.367 . S
C2027 C2029 1.433 . S
C2028 C2024 1.350 . S
C2028 C2025 1.463 1_455 S
C2028 N2032 1.427 . S
C2029 H2019 0.929 . S
C2029 C2027 1.433 . S
C2029 N2032 1.384 . S
C2030 H2021 0.929 . S
C2030 C2022 1.378 . S
C2030 C2025 1.350 . S
C2031 H2018 0.929 . S
C2031 C2023 1.433 . S
C2031 N2033 1.384 . S
N2032 C2028 1.427 . S
N2032 C2029 1.384 . S
N2033 C2025 1.427 . S
N2033 C2031 1.384 . S
H2034 C2040 0.930 . S
H2035 C2044 0.930 . S
H2036 C2049 0.929 . S
H2037 C2047 0.929 . S
H2038 C2042 0.929 . S
H2039 C2048 0.929 . S
C2040 H2034 0.930 . S
C2040 C2041 1.367 . S
C2040 C2048 1.378 . S
C2041 C2040 1.367 . S
C2041 C2049 1.433 . S
C2042 H2038 0.929 . S
C2042 C2044 1.378 . S
C2042 C2046 1.350 . S
C2043 C2046 1.463 . S
C2043 C2048 1.350 . S
C2043 N2051 1.427 . S
C2044 H2035 0.930 . S
C2044 C2042 1.378 . S
C2044 C2045 1.367 . S
C2045 C2044 1.367 . S
C2045 C2047 1.433 . S
C2046 C2042 1.350 . S
C2046 C2043 1.463 . S
C2046 N2050 1.427 . S
C2047 H2037 0.929 . S
C2047 C2045 1.433 . S
C2047 N2050 1.384 . S
C2048 H2039 0.929 . S
C2048 C2040 1.378 . S
C2048 C2043 1.350 . S
C2049 H2036 0.929 . S
C2049 C2041 1.433 . S
C2049 N2051 1.384 . S
N2050 C2046 1.427 . S
N2050 C2047 1.384 . S
N2051 C2043 1.427 . S
N2051 C2049 1.384 . S
H2052 C2058 0.930 . S
H2053 C2062 0.930 . S
H2054 C2067 0.929 . S
H2055 C2065 0.929 . S
H2056 C2060 0.929 . S
H2057 C2066 0.929 . S
C2058 H2052 0.930 . S
C2058 C2059 1.367 . S
C2058 C2066 1.378 . S
C2059 C2058 1.367 . S
C2059 C2067 1.433 . S
C2060 H2056 0.929 . S
C2060 C2062 1.378 . S
C2060 C2064 1.350 . S
C2061 C2064 1.463 1_545 S
C2061 C2066 1.350 . S
C2061 N2069 1.427 . S
C2062 H2053 0.930 . S
C2062 C2060 1.378 . S
C2062 C2063 1.367 . S
C2063 C2062 1.367 . S
C2063 C2065 1.433 . S
C2064 C2060 1.350 . S
C2064 C2061 1.463 1_565 S
C2064 N2068 1.427 . S
C2065 H2055 0.929 . S
C2065 C2063 1.433 . S
C2065 N2068 1.384 . S
C2066 H2057 0.929 . S
C2066 C2058 1.378 . S
C2066 C2061 1.350 . S
C2067 H2054 0.929 . S
C2067 C2059 1.433 . S
C2067 N2069 1.384 . S
N2068 C2064 1.427 . S
N2068 C2065 1.384 . S
N2069 C2061 1.427 . S
N2069 C2067 1.384 . S
H2070 C2076 0.930 . S
H2071 C2080 0.930 . S
H2072 C2085 0.929 . S
H2073 C2083 0.929 . S
H2074 C2078 0.929 . S
H2075 C2084 0.929 . S
C2076 H2070 0.930 . S
C2076 C2077 1.367 . S
C2076 C2084 1.378 . S
C2077 C2076 1.367 . S
C2077 C2085 1.433 . S
C2078 H2074 0.929 . S
C2078 C2080 1.378 . S
C2078 C2082 1.350 . S
C2079 C2082 1.463 1_655 S
C2079 C2084 1.350 . S
C2079 N2087 1.427 . S
C2080 H2071 0.930 . S
C2080 C2078 1.378 . S
C2080 C2081 1.367 . S
C2081 C2080 1.367 . S
C2081 C2083 1.433 . S
C2082 C2078 1.350 . S
C2082 C2079 1.463 1_455 S
C2082 N2086 1.427 . S
C2083 H2073 0.929 . S
C2083 C2081 1.433 . S
C2083 N2086 1.384 . S
C2084 H2075 0.929 . S
C2084 C2076 1.378 . S
C2084 C2079 1.350 . S
C2085 H2072 0.929 . S
C2085 C2077 1.433 . S
C2085 N2087 1.384 . S
N2086 C2082 1.427 . S
N2086 C2083 1.384 . S
N2087 C2079 1.427 . S
N2087 C2085 1.384 . S
H2088 C2094 0.930 1_556 S
H2089 C2098 0.930 . S
H2090 C2103 0.929 . S
H2091 C2101 0.929 1_556 S
H2092 C2096 0.929 . S
H2093 C2102 0.929 1_556 S
C2094 H2088 0.930 1_554 S
C2094 C2095 1.367 . S
C2094 C2102 1.378 . S
C2095 C2094 1.367 . S
C2095 C2103 1.433 . S
C2096 H2092 0.929 . S
C2096 C2098 1.378 . S
C2096 C2100 1.350 . S
C2097 C2100 1.463 . S
C2097 C2102 1.350 . S
C2097 N2105 1.427 . S
C2098 H2089 0.930 . S
C2098 C2096 1.378 . S
C2098 C2099 1.367 . S
C2099 C2098 1.367 . S
C2099 C2101 1.433 . S
C2100 C2096 1.350 . S
C2100 C2097 1.463 . S
C2100 N2104 1.427 . S
C2101 H2091 0.929 1_554 S
C2101 C2099 1.433 . S
C2101 N2104 1.384 . S
C2102 H2093 0.929 1_554 S
C2102 C2094 1.378 . S
C2102 C2097 1.350 . S
C2103 H2090 0.929 . S
C2103 C2095 1.433 . S
C2103 N2105 1.384 . S
N2104 C2100 1.427 . S
N2104 C2101 1.384 . S
N2105 C2097 1.427 . S
N2105 C2103 1.384 . S
H2106 C2112 0.930 . S
H2107 C2116 0.930 . S
H2108 C2121 0.929 . S
H2109 C2119 0.929 . S
H2110 C2114 0.929 . S
H2111 C2120 0.929 . S
C2112 H2106 0.930 . S
C2112 C2113 1.367 . S
C2112 C2120 1.378 . S
C2113 C2112 1.367 . S
C2113 C2121 1.433 . S
C2114 H2110 0.929 . S
C2114 C2116 1.378 . S
C2114 C2118 1.350 . S
C2115 C2118 1.463 . S
C2115 C2120 1.350 . S
C2115 N2123 1.427 . S
C2116 H2107 0.930 . S
C2116 C2114 1.378 . S
C2116 C2117 1.367 . S
C2117 C2116 1.367 . S
C2117 C2119 1.433 . S
C2118 C2114 1.350 . S
C2118 C2115 1.463 . S
C2118 N2122 1.427 . S
C2119 H2109 0.929 . S
C2119 C2117 1.433 . S
C2119 N2122 1.384 . S
C2120 H2111 0.929 . S
C2120 C2112 1.378 . S
C2120 C2115 1.350 . S
C2121 H2108 0.929 . S
C2121 C2113 1.433 . S
C2121 N2123 1.384 . S
N2122 C2118 1.427 . S
N2122 C2119 1.384 . S
N2123 C2115 1.427 . S
N2123 C2121 1.384 . S
H2124 C2130 0.930 . S
H2125 C2134 0.930 . S
H2126 C2139 0.929 . S
H2127 C2137 0.929 . S
H2128 C2132 0.929 . S
H2129 C2138 0.929 . S
C2130 H2124 0.930 . S
C2130 C2131 1.367 . S
C2130 C2138 1.378 . S
C2131 C2130 1.367 . S
C2131 C2139 1.433 1_554 S
C2132 H2128 0.929 . S
C2132 C2134 1.378 . S
C2132 C2136 1.350 1_556 S
C2133 C2136 1.463 . S
C2133 C2138 1.350 . S
C2133 N2141 1.427 1_554 S
C2134 H2125 0.930 . S
C2134 C2132 1.378 . S
C2134 C2135 1.367 1_556 S
C2135 C2134 1.367 1_554 S
C2135 C2137 1.433 . S
C2136 C2132 1.350 1_554 S
C2136 C2133 1.463 . S
C2136 N2140 1.427 . S
C2137 H2127 0.929 . S
C2137 C2135 1.433 . S
C2137 N2140 1.384 . S
C2138 H2129 0.929 . S
C2138 C2130 1.378 . S
C2138 C2133 1.350 . S
C2139 H2126 0.929 . S
C2139 C2131 1.433 1_556 S
C2139 N2141 1.384 . S
N2140 C2136 1.427 . S
N2140 C2137 1.384 . S
N2141 C2133 1.427 1_556 S
N2141 C2139 1.384 . S
H2142 C2148 0.930 . S
H2143 C2152 0.930 . S
H2144 C2157 0.929 . S
H2145 C2155 0.929 . S
H2146 C2150 0.929 . S
H2147 C2156 0.929 . S
C2148 H2142 0.930 . S
C2148 C2149 1.367 . S
C2148 C2156 1.378 . S
C2149 C2148 1.367 . S
C2149 C2157 1.433 . S
C2150 H2146 0.929 . S
C2150 C2152 1.378 . S
C2150 C2154 1.350 . S
C2151 C2154 1.463 . S
C2151 C2156 1.350 . S
C2151 N2159 1.427 . S
C2152 H2143 0.930 . S
C2152 C2150 1.378 . S
C2152 C2153 1.367 . S
C2153 C2152 1.367 . S
C2153 C2155 1.433 . S
C2154 C2150 1.350 . S
C2154 C2151 1.463 . S
C2154 N2158 1.427 . S
C2155 H2145 0.929 . S
C2155 C2153 1.433 . S
C2155 N2158 1.384 . S
C2156 H2147 0.929 . S
C2156 C2148 1.378 . S
C2156 C2151 1.350 . S
C2157 H2144 0.929 . S
C2157 C2149 1.433 . S
C2157 N2159 1.384 . S
N2158 C2154 1.427 . S
N2158 C2155 1.384 . S
N2159 C2151 1.427 . S
N2159 C2157 1.384 . S
H2160 C2166 0.930 . S
H2161 C2170 0.930 . S
H2162 C2175 0.929 . S
H2163 C2173 0.929 . S
H2164 C2168 0.929 . S
H2165 C2174 0.929 . S
C2166 H2160 0.930 . S
C2166 C2167 1.367 . S
C2166 C2174 1.378 . S
C2167 C2166 1.367 . S
C2167 C2175 1.433 . S
C2168 H2164 0.929 . S
C2168 C2170 1.378 . S
C2168 C2172 1.350 . S
C2169 C2172 1.463 . S
C2169 C2174 1.350 . S
C2169 N2177 1.427 . S
C2170 H2161 0.930 . S
C2170 C2168 1.378 . S
C2170 C2171 1.367 . S
C2171 C2170 1.367 . S
C2171 C2173 1.433 . S
C2172 C2168 1.350 . S
C2172 C2169 1.463 . S
C2172 N2176 1.427 . S
C2173 H2163 0.929 . S
C2173 C2171 1.433 . S
C2173 N2176 1.384 . S
C2174 H2165 0.929 . S
C2174 C2166 1.378 . S
C2174 C2169 1.350 . S
C2175 H2162 0.929 . S
C2175 C2167 1.433 . S
C2175 N2177 1.384 . S
N2176 C2172 1.427 . S
N2176 C2173 1.384 . S
N2177 C2169 1.427 . S
N2177 C2175 1.384 . S
H2178 C2184 0.930 . S
H2179 C2188 0.930 1_554 S
H2180 C2193 0.929 1_554 S
H2181 C2191 0.929 . S
H2182 C2186 0.929 1_554 S
H2183 C2192 0.929 . S
C2184 H2178 0.930 . S
C2184 C2185 1.367 . S
C2184 C2192 1.378 . S
C2185 C2184 1.367 . S
C2185 C2193 1.433 . S
C2186 H2182 0.929 1_556 S
C2186 C2188 1.378 . S
C2186 C2190 1.350 . S
C2187 C2190 1.463 . S
C2187 C2192 1.350 . S
C2187 N2195 1.427 . S
C2188 H2179 0.930 1_556 S
C2188 C2186 1.378 . S
C2188 C2189 1.367 . S
C2189 C2188 1.367 . S
C2189 C2191 1.433 . S
C2190 C2186 1.350 . S
C2190 C2187 1.463 . S
C2190 N2194 1.427 . S
C2191 H2181 0.929 . S
C2191 C2189 1.433 . S
C2191 N2194 1.384 . S
C2192 H2183 0.929 . S
C2192 C2184 1.378 . S
C2192 C2187 1.350 . S
C2193 H2180 0.929 1_556 S
C2193 C2185 1.433 . S
C2193 N2195 1.384 . S
N2194 C2190 1.427 . S
N2194 C2191 1.384 . S
N2195 C2187 1.427 . S
N2195 C2193 1.384 . S
H2196 C2202 0.930 . S
H2197 C2206 0.930 . S
H2198 C2211 0.929 . S
H2199 C2209 0.929 . S
H2200 C2204 0.929 . S
H2201 C2210 0.929 . S
C2202 H2196 0.930 . S
C2202 C2203 1.367 . S
C2202 C2210 1.378 . S
C2203 C2202 1.367 . S
C2203 C2211 1.433 . S
C2204 H2200 0.929 . S
C2204 C2206 1.378 . S
C2204 C2208 1.350 . S
C2205 C2208 1.463 . S
C2205 C2210 1.350 . S
C2205 N2213 1.427 . S
C2206 H2197 0.930 . S
C2206 C2204 1.378 . S
C2206 C2207 1.367 . S
C2207 C2206 1.367 . S
C2207 C2209 1.433 . S
C2208 C2204 1.350 . S
C2208 C2205 1.463 . S
C2208 N2212 1.427 . S
C2209 H2199 0.929 . S
C2209 C2207 1.433 . S
C2209 N2212 1.384 . S
C2210 H2201 0.929 . S
C2210 C2202 1.378 . S
C2210 C2205 1.350 . S
C2211 H2198 0.929 . S
C2211 C2203 1.433 . S
C2211 N2213 1.384 . S
N2212 C2208 1.427 . S
N2212 C2209 1.384 . S
N2213 C2205 1.427 . S
N2213 C2211 1.384 . S
H2214 C2220 0.930 . S
H2215 C2224 0.930 . S
H2216 C2229 0.929 . S
H2217 C2227 0.929 . S
H2218 C2222 0.929 . S
H2219 C2228 0.929 . S
C2220 H2214 0.930 . S
C2220 C2221 1.367 . S
C2220 C2228 1.378 . S
C2221 C2220 1.367 . S
C2221 C2229 1.433 . S
C2222 H2218 0.929 . S
C2222 C2224 1.378 . S
C2222 C2226 1.350 . S
C2223 C2226 1.463 . S
C2223 C2228 1.350 . S
C2223 N2231 1.427 . S
C2224 H2215 0.930 . S
C2224 C2222 1.378 . S
C2224 C2225 1.367 . S
C2225 C2224 1.367 . S
C2225 C2227 1.433 . S
C2226 C2222 1.350 . S
C2226 C2223 1.463 . S
C2226 N2230 1.427 . S
C2227 H2217 0.929 . S
C2227 C2225 1.433 . S
C2227 N2230 1.384 . S
C2228 H2219 0.929 . S
C2228 C2220 1.378 . S
C2228 C2223 1.350 . S
C2229 H2216 0.929 . S
C2229 C2221 1.433 . S
C2229 N2231 1.384 . S
N2230 C2226 1.427 . S
N2230 C2227 1.384 . S
N2231 C2223 1.427 . S
N2231 C2229 1.384 . S
H2232 C2238 0.930 . S
H2233 C2242 0.930 . S
H2234 C2247 0.929 . S
H2235 C2245 0.929 . S
H2236 C2240 0.929 . S
H2237 C2246 0.929 . S
C2238 H2232 0.930 . S
C2238 C2239 1.367 . S
C2238 C2246 1.378 . S
C2239 C2238 1.367 . S
C2239 C2247 1.433 . S
C2240 H2236 0.929 . S
C2240 C2242 1.378 . S
C2240 C2244 1.350 . S
C2241 C2244 1.463 . S
C2241 C2246 1.350 . S
C2241 N2249 1.427 . S
C2242 H2233 0.930 . S
C2242 C2240 1.378 . S
C2242 C2243 1.367 . S
C2243 C2242 1.367 . S
C2243 C2245 1.433 . S
C2244 C2240 1.350 . S
C2244 C2241 1.463 . S
C2244 N2248 1.427 . S
C2245 H2235 0.929 . S
C2245 C2243 1.433 . S
C2245 N2248 1.384 . S
C2246 H2237 0.929 . S
C2246 C2238 1.378 . S
C2246 C2241 1.350 . S
C2247 H2234 0.929 . S
C2247 C2239 1.433 . S
C2247 N2249 1.384 . S
N2248 C2244 1.427 . S
N2248 C2245 1.384 . S
N2249 C2241 1.427 . S
N2249 C2247 1.384 . S
H2250 C2256 0.930 . S
H2251 C2260 0.930 . S
H2252 C2265 0.929 . S
H2253 C2263 0.929 . S
H2254 C2258 0.929 . S
H2255 C2264 0.929 . S
C2256 H2250 0.930 . S
C2256 C2257 1.367 . S
C2256 C2264 1.378 . S
C2257 C2256 1.367 . S
C2257 C2265 1.433 . S
C2258 H2254 0.929 . S
C2258 C2260 1.378 . S
C2258 C2262 1.350 . S
C2259 C2262 1.463 . S
C2259 C2264 1.350 . S
C2259 N2267 1.427 . S
C2260 H2251 0.930 . S
C2260 C2258 1.378 . S
C2260 C2261 1.367 . S
C2261 C2260 1.367 . S
C2261 C2263 1.433 . S
C2262 C2258 1.350 . S
C2262 C2259 1.463 . S
C2262 N2266 1.427 . S
C2263 H2253 0.929 . S
C2263 C2261 1.433 . S
C2263 N2266 1.384 . S
C2264 H2255 0.929 . S
C2264 C2256 1.378 . S
C2264 C2259 1.350 . S
C2265 H2252 0.929 . S
C2265 C2257 1.433 . S
C2265 N2267 1.384 . S
N2266 C2262 1.427 . S
N2266 C2263 1.384 . S
N2267 C2259 1.427 . S
N2267 C2265 1.384 . S
H2268 C2274 0.930 . S
H2269 C2278 0.930 . S
H2270 C2283 0.929 . S
H2271 C2281 0.929 . S
H2272 C2276 0.929 . S
H2273 C2282 0.929 . S
C2274 H2268 0.930 . S
C2274 C2275 1.367 . S
C2274 C2282 1.378 . S
C2275 C2274 1.367 . S
C2275 C2283 1.433 . S
C2276 H2272 0.929 . S
C2276 C2278 1.378 . S
C2276 C2280 1.350 . S
C2277 C2280 1.463 . S
C2277 C2282 1.350 . S
C2277 N2285 1.427 . S
C2278 H2269 0.930 . S
C2278 C2276 1.378 . S
C2278 C2279 1.367 . S
C2279 C2278 1.367 . S
C2279 C2281 1.433 . S
C2280 C2276 1.350 . S
C2280 C2277 1.463 . S
C2280 N2284 1.427 . S
C2281 H2271 0.929 . S
C2281 C2279 1.433 . S
C2281 N2284 1.384 . S
C2282 H2273 0.929 . S
C2282 C2274 1.378 . S
C2282 C2277 1.350 . S
C2283 H2270 0.929 . S
C2283 C2275 1.433 . S
C2283 N2285 1.384 . S
N2284 C2280 1.427 . S
N2284 C2281 1.384 . S
N2285 C2277 1.427 . S
N2285 C2283 1.384 . S
H2286 C2292 0.930 . S
H2287 C2296 0.930 . S
H2288 C2301 0.929 . S
H2289 C2299 0.929 . S
H2290 C2294 0.929 . S
H2291 C2300 0.929 . S
C2292 H2286 0.930 . S
C2292 C2293 1.367 . S
C2292 C2300 1.378 . S
C2293 C2292 1.367 . S
C2293 C2301 1.433 . S
C2294 H2290 0.929 . S
C2294 C2296 1.378 . S
C2294 C2298 1.350 . S
C2295 C2298 1.463 . S
C2295 C2300 1.350 . S
C2295 N2303 1.427 . S
C2296 H2287 0.930 . S
C2296 C2294 1.378 . S
C2296 C2297 1.367 . S
C2297 C2296 1.367 . S
C2297 C2299 1.433 . S
C2298 C2294 1.350 . S
C2298 C2295 1.463 . S
C2298 N2302 1.427 . S
C2299 H2289 0.929 . S
C2299 C2297 1.433 . S
C2299 N2302 1.384 . S
C2300 H2291 0.929 . S
C2300 C2292 1.378 . S
C2300 C2295 1.350 . S
C2301 H2288 0.929 . S
C2301 C2293 1.433 . S
C2301 N2303 1.384 . S
N2302 C2298 1.427 . S
N2302 C2299 1.384 . S
N2303 C2295 1.427 . S
N2303 C2301 1.384 . S
H2304 C2310 0.930 . S
H2305 C2314 0.930 . S
H2306 C2319 0.929 . S
H2307 C2317 0.929 . S
H2308 C2312 0.929 . S
H2309 C2318 0.929 . S
C2310 H2304 0.930 . S
C2310 C2311 1.367 . S
C2310 C2318 1.378 . S
C2311 C2310 1.367 . S
C2311 C2319 1.433 . S
C2312 H2308 0.929 . S
C2312 C2314 1.378 . S
C2312 C2316 1.350 . S
C2313 C2316 1.463 . S
C2313 C2318 1.350 . S
C2313 N2321 1.427 . S
C2314 H2305 0.930 . S
C2314 C2312 1.378 . S
C2314 C2315 1.367 . S
C2315 C2314 1.367 . S
C2315 C2317 1.433 . S
C2316 C2312 1.350 . S
C2316 C2313 1.463 . S
C2316 N2320 1.427 . S
C2317 H2307 0.929 . S
C2317 C2315 1.433 . S
C2317 N2320 1.384 . S
C2318 H2309 0.929 . S
C2318 C2310 1.378 . S
C2318 C2313 1.350 . S
C2319 H2306 0.929 . S
C2319 C2311 1.433 . S
C2319 N2321 1.384 . S
N2320 C2316 1.427 . S
N2320 C2317 1.384 . S
N2321 C2313 1.427 . S
N2321 C2319 1.384 . S
H2322 C2328 0.930 . S
H2323 C2332 0.930 . S
H2324 C2337 0.929 . S
H2325 C2335 0.929 . S
H2326 C2330 0.929 . S
H2327 C2336 0.929 . S
C2328 H2322 0.930 . S
C2328 C2329 1.367 . S
C2328 C2336 1.378 . S
C2329 C2328 1.367 . S
C2329 C2337 1.433 . S
C2330 H2326 0.929 . S
C2330 C2332 1.378 . S
C2330 C2334 1.350 . S
C2331 C2334 1.463 . S
C2331 C2336 1.350 . S
C2331 N2339 1.427 . S
C2332 H2323 0.930 . S
C2332 C2330 1.378 . S
C2332 C2333 1.367 . S
C2333 C2332 1.367 . S
C2333 C2335 1.433 . S
C2334 C2330 1.350 . S
C2334 C2331 1.463 . S
C2334 N2338 1.427 . S
C2335 H2325 0.929 . S
C2335 C2333 1.433 . S
C2335 N2338 1.384 . S
C2336 H2327 0.929 . S
C2336 C2328 1.378 . S
C2336 C2331 1.350 . S
C2337 H2324 0.929 . S
C2337 C2329 1.433 . S
C2337 N2339 1.384 . S
N2338 C2334 1.427 . S
N2338 C2335 1.384 . S
N2339 C2331 1.427 . S
N2339 C2337 1.384 . S
H2340 C2346 0.930 . S
H2341 C2350 0.930 . S
H2342 C2355 0.929 . S
H2343 C2353 0.929 . S
H2344 C2348 0.929 . S
H2345 C2354 0.929 . S
C2346 H2340 0.930 . S
C2346 C2347 1.367 . S
C2346 C2354 1.378 . S
C2347 C2346 1.367 . S
C2347 C2355 1.433 . S
C2348 H2344 0.929 . S
C2348 C2350 1.378 . S
C2348 C2352 1.350 . S
C2349 C2352 1.463 . S
C2349 C2354 1.350 . S
C2349 N2357 1.427 . S
C2350 H2341 0.930 . S
C2350 C2348 1.378 . S
C2350 C2351 1.367 . S
C2351 C2350 1.367 . S
C2351 C2353 1.433 . S
C2352 C2348 1.350 . S
C2352 C2349 1.463 . S
C2352 N2356 1.427 . S
C2353 H2343 0.929 . S
C2353 C2351 1.433 . S
C2353 N2356 1.384 . S
C2354 H2345 0.929 . S
C2354 C2346 1.378 . S
C2354 C2349 1.350 . S
C2355 H2342 0.929 . S
C2355 C2347 1.433 . S
C2355 N2357 1.384 . S
N2356 C2352 1.427 . S
N2356 C2353 1.384 . S
N2357 C2349 1.427 . S
N2357 C2355 1.384 . S
H2358 C2364 0.930 . S
H2359 C2368 0.930 . S
H2360 C2373 0.929 . S
H2361 C2371 0.929 . S
H2362 C2366 0.929 . S
H2363 C2372 0.929 . S
C2364 H2358 0.930 . S
C2364 C2365 1.367 . S
C2364 C2372 1.378 . S
C2365 C2364 1.367 . S
C2365 C2373 1.433 . S
C2366 H2362 0.929 . S
C2366 C2368 1.378 . S
C2366 C2370 1.350 . S
C2367 C2370 1.463 . S
C2367 C2372 1.350 . S
C2367 N2375 1.427 . S
C2368 H2359 0.930 . S
C2368 C2366 1.378 . S
C2368 C2369 1.367 . S
C2369 C2368 1.367 . S
C2369 C2371 1.433 . S
C2370 C2366 1.350 . S
C2370 C2367 1.463 . S
C2370 N2374 1.427 . S
C2371 H2361 0.929 . S
C2371 C2369 1.433 . S
C2371 N2374 1.384 . S
C2372 H2363 0.929 . S
C2372 C2364 1.378 . S
C2372 C2367 1.350 . S
C2373 H2360 0.929 . S
C2373 C2365 1.433 . S
C2373 N2375 1.384 . S
N2374 C2370 1.427 . S
N2374 C2371 1.384 . S
N2375 C2367 1.427 . S
N2375 C2373 1.384 . S
H2376 C2382 0.930 . S
H2377 C2386 0.930 . S
H2378 C2391 0.929 . S
H2379 C2389 0.929 . S
H2380 C2384 0.929 . S
H2381 C2390 0.929 . S
C2382 H2376 0.930 . S
C2382 C2383 1.367 . S
C2382 C2390 1.378 . S
C2383 C2382 1.367 . S
C2383 C2391 1.433 . S
C2384 H2380 0.929 . S
C2384 C2386 1.378 . S
C2384 C2388 1.350 . S
C2385 C2388 1.463 . S
C2385 C2390 1.350 . S
C2385 N2393 1.427 . S
C2386 H2377 0.930 . S
C2386 C2384 1.378 . S
C2386 C2387 1.367 . S
C2387 C2386 1.367 . S
C2387 C2389 1.433 . S
C2388 C2384 1.350 . S
C2388 C2385 1.463 . S
C2388 N2392 1.427 . S
C2389 H2379 0.929 . S
C2389 C2387 1.433 . S
C2389 N2392 1.384 . S
C2390 H2381 0.929 . S
C2390 C2382 1.378 . S
C2390 C2385 1.350 . S
C2391 H2378 0.929 . S
C2391 C2383 1.433 . S
C2391 N2393 1.384 . S
N2392 C2388 1.427 . S
N2392 C2389 1.384 . S
N2393 C2385 1.427 . S
N2393 C2391 1.384 . S
H2394 C2400 0.930 . S
H2395 C2404 0.930 . S
H2396 C2409 0.929 . S
H2397 C2407 0.929 . S
H2398 C2402 0.929 . S
H2399 C2408 0.929 . S
C2400 H2394 0.930 . S
C2400 C2401 1.367 . S
C2400 C2408 1.378 . S
C2401 C2400 1.367 . S
C2401 C2409 1.433 . S
C2402 H2398 0.929 . S
C2402 C2404 1.378 . S
C2402 C2406 1.350 . S
C2403 C2406 1.463 . S
C2403 C2408 1.350 . S
C2403 N2411 1.427 . S
C2404 H2395 0.930 . S
C2404 C2402 1.378 . S
C2404 C2405 1.367 . S
C2405 C2404 1.367 . S
C2405 C2407 1.433 . S
C2406 C2402 1.350 . S
C2406 C2403 1.463 . S
C2406 N2410 1.427 . S
C2407 H2397 0.929 . S
C2407 C2405 1.433 . S
C2407 N2410 1.384 . S
C2408 H2399 0.929 . S
C2408 C2400 1.378 . S
C2408 C2403 1.350 . S
C2409 H2396 0.929 . S
C2409 C2401 1.433 . S
C2409 N2411 1.384 . S
N2410 C2406 1.427 . S
N2410 C2407 1.384 . S
N2411 C2403 1.427 . S
N2411 C2409 1.384 . S
H2412 C2418 0.930 . S
H2413 C2422 0.930 . S
H2414 C2427 0.929 . S
H2415 C2425 0.929 1_554 S
H2416 C2420 0.929 . S
H2417 C2426 0.929 . S
C2418 H2412 0.930 . S
C2418 C2419 1.367 . S
C2418 C2426 1.378 . S
C2419 C2418 1.367 . S
C2419 C2427 1.433 . S
C2420 H2416 0.929 . S
C2420 C2422 1.378 . S
C2420 C2424 1.350 . S
C2421 C2424 1.463 . S
C2421 C2426 1.350 . S
C2421 N2429 1.427 . S
C2422 H2413 0.930 . S
C2422 C2420 1.378 . S
C2422 C2423 1.367 . S
C2423 C2422 1.367 . S
C2423 C2425 1.433 . S
C2424 C2420 1.350 . S
C2424 C2421 1.463 . S
C2424 N2428 1.427 . S
C2425 H2415 0.929 1_556 S
C2425 C2423 1.433 . S
C2425 N2428 1.384 . S
C2426 H2417 0.929 . S
C2426 C2418 1.378 . S
C2426 C2421 1.350 . S
C2427 H2414 0.929 . S
C2427 C2419 1.433 . S
C2427 N2429 1.384 . S
N2428 C2424 1.427 . S
N2428 C2425 1.384 . S
N2429 C2421 1.427 . S
N2429 C2427 1.384 . S
H2430 C2436 0.930 . S
H2431 C2440 0.930 . S
H2432 C2445 0.929 1_554 S
H2433 C2443 0.929 . S
H2434 C2438 0.929 . S
H2435 C2444 0.929 . S
C2436 H2430 0.930 . S
C2436 C2437 1.367 . S
C2436 C2444 1.378 . S
C2437 C2436 1.367 . S
C2437 C2445 1.433 . S
C2438 H2434 0.929 . S
C2438 C2440 1.378 . S
C2438 C2442 1.350 . S
C2439 C2442 1.463 . S
C2439 C2444 1.350 . S
C2439 N2447 1.427 . S
C2440 H2431 0.930 . S
C2440 C2438 1.378 . S
C2440 C2441 1.367 . S
C2441 C2440 1.367 . S
C2441 C2443 1.433 . S
C2442 C2438 1.350 . S
C2442 C2439 1.463 . S
C2442 N2446 1.427 . S
C2443 H2433 0.929 . S
C2443 C2441 1.433 . S
C2443 N2446 1.384 . S
C2444 H2435 0.929 . S
C2444 C2436 1.378 . S
C2444 C2439 1.350 . S
C2445 H2432 0.929 1_556 S
C2445 C2437 1.433 . S
C2445 N2447 1.384 . S
N2446 C2442 1.427 . S
N2446 C2443 1.384 . S
N2447 C2439 1.427 . S
N2447 C2445 1.384 . S
H2448 C2454 0.930 . S
H2449 C2458 0.930 . S
H2450 C2463 0.929 . S
H2451 C2461 0.929 . S
H2452 C2456 0.929 . S
H2453 C2462 0.929 . S
C2454 H2448 0.930 . S
C2454 C2455 1.367 . S
C2454 C2462 1.378 . S
C2455 C2454 1.367 . S
C2455 C2463 1.433 . S
C2456 H2452 0.929 . S
C2456 C2458 1.378 . S
C2456 C2460 1.350 . S
C2457 C2460 1.463 . S
C2457 C2462 1.350 . S
C2457 N2465 1.427 . S
C2458 H2449 0.930 . S
C2458 C2456 1.378 . S
C2458 C2459 1.367 . S
C2459 C2458 1.367 . S
C2459 C2461 1.433 . S
C2460 C2456 1.350 . S
C2460 C2457 1.463 . S
C2460 N2464 1.427 . S
C2461 H2451 0.929 . S
C2461 C2459 1.433 . S
C2461 N2464 1.384 . S
C2462 H2453 0.929 . S
C2462 C2454 1.378 . S
C2462 C2457 1.350 . S
C2463 H2450 0.929 . S
C2463 C2455 1.433 . S
C2463 N2465 1.384 . S
N2464 C2460 1.427 . S
N2464 C2461 1.384 . S
N2465 C2457 1.427 . S
N2465 C2463 1.384 . S
H2466 C2472 0.930 . S
H2467 C2476 0.930 . S
H2468 C2481 0.929 . S
H2469 C2479 0.929 . S
H2470 C2474 0.929 . S
H2471 C2480 0.929 . S
C2472 H2466 0.930 . S
C2472 C2473 1.367 . S
C2472 C2480 1.378 . S
C2473 C2472 1.367 . S
C2473 C2481 1.433 . S
C2474 H2470 0.929 . S
C2474 C2476 1.378 . S
C2474 C2478 1.350 . S
C2475 C2478 1.463 . S
C2475 C2480 1.350 . S
C2475 N2483 1.427 . S
C2476 H2467 0.930 . S
C2476 C2474 1.378 . S
C2476 C2477 1.367 . S
C2477 C2476 1.367 . S
C2477 C2479 1.433 . S
C2478 C2474 1.350 . S
C2478 C2475 1.463 . S
C2478 N2482 1.427 . S
C2479 H2469 0.929 . S
C2479 C2477 1.433 . S
C2479 N2482 1.384 . S
C2480 H2471 0.929 . S
C2480 C2472 1.378 . S
C2480 C2475 1.350 . S
C2481 H2468 0.929 . S
C2481 C2473 1.433 . S
C2481 N2483 1.384 . S
N2482 C2478 1.427 . S
N2482 C2479 1.384 . S
N2483 C2475 1.427 . S
N2483 C2481 1.384 . S
H2484 C2490 0.930 1_556 S
H2485 C2494 0.930 . S
H2486 C2499 0.929 . S
H2487 C2497 0.929 . S
H2488 C2492 0.929 . S
H2489 C2498 0.929 . S
C2490 H2484 0.930 1_554 S
C2490 C2491 1.367 . S
C2490 C2498 1.378 . S
C2491 C2490 1.367 . S
C2491 C2499 1.433 . S
C2492 H2488 0.929 . S
C2492 C2494 1.378 . S
C2492 C2496 1.350 . S
C2493 C2496 1.463 . S
C2493 C2498 1.350 . S
C2493 N2501 1.427 . S
C2494 H2485 0.930 . S
C2494 C2492 1.378 . S
C2494 C2495 1.367 . S
C2495 C2494 1.367 . S
C2495 C2497 1.433 . S
C2496 C2492 1.350 . S
C2496 C2493 1.463 . S
C2496 N2500 1.427 . S
C2497 H2487 0.929 . S
C2497 C2495 1.433 . S
C2497 N2500 1.384 . S
C2498 H2489 0.929 . S
C2498 C2490 1.378 . S
C2498 C2493 1.350 . S
C2499 H2486 0.929 . S
C2499 C2491 1.433 . S
C2499 N2501 1.384 . S
N2500 C2496 1.427 . S
N2500 C2497 1.384 . S
N2501 C2493 1.427 . S
N2501 C2499 1.384 . S
H2502 C2508 0.930 . S
H2503 C2512 0.930 . S
H2504 C2517 0.929 1_556 S
H2505 C2515 0.929 . S
H2506 C2510 0.929 . S
H2507 C2516 0.929 . S
C2508 H2502 0.930 . S
C2508 C2509 1.367 . S
C2508 C2516 1.378 . S
C2509 C2508 1.367 . S
C2509 C2517 1.433 . S
C2510 H2506 0.929 . S
C2510 C2512 1.378 . S
C2510 C2514 1.350 . S
C2511 C2514 1.463 . S
C2511 C2516 1.350 . S
C2511 N2519 1.427 . S
C2512 H2503 0.930 . S
C2512 C2510 1.378 . S
C2512 C2513 1.367 . S
C2513 C2512 1.367 . S
C2513 C2515 1.433 . S
C2514 C2510 1.350 . S
C2514 C2511 1.463 . S
C2514 N2518 1.427 . S
C2515 H2505 0.929 . S
C2515 C2513 1.433 . S
C2515 N2518 1.384 . S
C2516 H2507 0.929 . S
C2516 C2508 1.378 . S
C2516 C2511 1.350 . S
C2517 H2504 0.929 1_554 S
C2517 C2509 1.433 . S
C2517 N2519 1.384 . S
N2518 C2514 1.427 . S
N2518 C2515 1.384 . S
N2519 C2511 1.427 . S
N2519 C2517 1.384 . S
H2520 C2526 0.930 . S
H2521 C2530 0.930 1_556 S
H2522 C2535 0.929 . S
H2523 C2533 0.929 . S
H2524 C2528 0.929 . S
H2525 C2534 0.929 . S
C2526 H2520 0.930 . S
C2526 C2527 1.367 . S
C2526 C2534 1.378 . S
C2527 C2526 1.367 . S
C2527 C2535 1.433 . S
C2528 H2524 0.929 . S
C2528 C2530 1.378 . S
C2528 C2532 1.350 . S
C2529 C2532 1.463 . S
C2529 C2534 1.350 . S
C2529 N2537 1.427 . S
C2530 H2521 0.930 1_554 S
C2530 C2528 1.378 . S
C2530 C2531 1.367 . S
C2531 C2530 1.367 . S
C2531 C2533 1.433 . S
C2532 C2528 1.350 . S
C2532 C2529 1.463 . S
C2532 N2536 1.427 . S
C2533 H2523 0.929 . S
C2533 C2531 1.433 . S
C2533 N2536 1.384 . S
C2534 H2525 0.929 . S
C2534 C2526 1.378 . S
C2534 C2529 1.350 . S
C2535 H2522 0.929 . S
C2535 C2527 1.433 . S
C2535 N2537 1.384 . S
N2536 C2532 1.427 . S
N2536 C2533 1.384 . S
N2537 C2529 1.427 . S
N2537 C2535 1.384 . S
H2538 C2544 0.930 . S
H2539 C2548 0.930 . S
H2540 C2553 0.929 . S
H2541 C2551 0.929 . S
H2542 C2546 0.929 . S
H2543 C2552 0.929 . S
C2544 H2538 0.930 . S
C2544 C2545 1.367 . S
C2544 C2552 1.378 . S
C2545 C2544 1.367 . S
C2545 C2553 1.433 . S
C2546 H2542 0.929 . S
C2546 C2548 1.378 . S
C2546 C2550 1.350 . S
C2547 C2550 1.463 . S
C2547 C2552 1.350 . S
C2547 N2555 1.427 . S
C2548 H2539 0.930 . S
C2548 C2546 1.378 . S
C2548 C2549 1.367 . S
C2549 C2548 1.367 . S
C2549 C2551 1.433 . S
C2550 C2546 1.350 . S
C2550 C2547 1.463 . S
C2550 N2554 1.427 . S
C2551 H2541 0.929 . S
C2551 C2549 1.433 . S
C2551 N2554 1.384 . S
C2552 H2543 0.929 . S
C2552 C2544 1.378 . S
C2552 C2547 1.350 . S
C2553 H2540 0.929 . S
C2553 C2545 1.433 . S
C2553 N2555 1.384 . S
N2554 C2550 1.427 . S
N2554 C2551 1.384 . S
N2555 C2547 1.427 . S
N2555 C2553 1.384 . S
H2556 C2562 0.930 . S
H2557 C2566 0.930 . S
H2558 C2571 0.929 1_556 S
H2559 C2569 0.929 . S
H2560 C2564 0.929 . S
H2561 C2570 0.929 . S
C2562 H2556 0.930 . S
C2562 C2563 1.367 . S
C2562 C2570 1.378 . S
C2563 C2562 1.367 . S
C2563 C2571 1.433 . S
C2564 H2560 0.929 . S
C2564 C2566 1.378 . S
C2564 C2568 1.350 . S
C2565 C2568 1.463 . S
C2565 C2570 1.350 . S
C2565 N2573 1.427 . S
C2566 H2557 0.930 . S
C2566 C2564 1.378 . S
C2566 C2567 1.367 . S
C2567 C2566 1.367 . S
C2567 C2569 1.433 . S
C2568 C2564 1.350 . S
C2568 C2565 1.463 . S
C2568 N2572 1.427 . S
C2569 H2559 0.929 . S
C2569 C2567 1.433 . S
C2569 N2572 1.384 . S
C2570 H2561 0.929 . S
C2570 C2562 1.378 . S
C2570 C2565 1.350 . S
C2571 H2558 0.929 1_554 S
C2571 C2563 1.433 . S
C2571 N2573 1.384 . S
N2572 C2568 1.427 . S
N2572 C2569 1.384 . S
N2573 C2565 1.427 . S
N2573 C2571 1.384 . S
H2574 C2580 0.930 . S
H2575 C2584 0.930 . S
H2576 C2589 0.929 . S
H2577 C2587 0.929 . S
H2578 C2582 0.929 . S
H2579 C2588 0.929 . S
C2580 H2574 0.930 . S
C2580 C2581 1.367 . S
C2580 C2588 1.378 . S
C2581 C2580 1.367 . S
C2581 C2589 1.433 . S
C2582 H2578 0.929 . S
C2582 C2584 1.378 . S
C2582 C2586 1.350 . S
C2583 C2586 1.463 . S
C2583 C2588 1.350 . S
C2583 N2591 1.427 . S
C2584 H2575 0.930 . S
C2584 C2582 1.378 . S
C2584 C2585 1.367 . S
C2585 C2584 1.367 . S
C2585 C2587 1.433 . S
C2586 C2582 1.350 . S
C2586 C2583 1.463 . S
C2586 N2590 1.427 . S
C2587 H2577 0.929 . S
C2587 C2585 1.433 . S
C2587 N2590 1.384 . S
C2588 H2579 0.929 . S
C2588 C2580 1.378 . S
C2588 C2583 1.350 . S
C2589 H2576 0.929 . S
C2589 C2581 1.433 . S
C2589 N2591 1.384 . S
N2590 C2586 1.427 . S
N2590 C2587 1.384 . S
N2591 C2583 1.427 . S
N2591 C2589 1.384 . S
H2592 C2598 0.930 . S
H2593 C2602 0.930 . S
H2594 C2607 0.929 . S
H2595 C2605 0.929 . S
H2596 C2600 0.929 . S
H2597 C2606 0.929 . S
C2598 H2592 0.930 . S
C2598 C2599 1.367 . S
C2598 C2606 1.378 . S
C2599 C2598 1.367 . S
C2599 C2607 1.433 . S
C2600 H2596 0.929 . S
C2600 C2602 1.378 . S
C2600 C2604 1.350 . S
C2601 C2604 1.463 . S
C2601 C2606 1.350 . S
C2601 N2609 1.427 . S
C2602 H2593 0.930 . S
C2602 C2600 1.378 . S
C2602 C2603 1.367 . S
C2603 C2602 1.367 . S
C2603 C2605 1.433 . S
C2604 C2600 1.350 . S
C2604 C2601 1.463 . S
C2604 N2608 1.427 . S
C2605 H2595 0.929 . S
C2605 C2603 1.433 . S
C2605 N2608 1.384 . S
C2606 H2597 0.929 . S
C2606 C2598 1.378 . S
C2606 C2601 1.350 . S
C2607 H2594 0.929 . S
C2607 C2599 1.433 . S
C2607 N2609 1.384 . S
N2608 C2604 1.427 . S
N2608 C2605 1.384 . S
N2609 C2601 1.427 . S
N2609 C2607 1.384 . S
H2610 C2616 0.930 . S
H2611 C2620 0.930 . S
H2612 C2625 0.929 1_554 S
H2613 C2623 0.929 . S
H2614 C2618 0.929 . S
H2615 C2624 0.929 . S
C2616 H2610 0.930 . S
C2616 C2617 1.367 . S
C2616 C2624 1.378 . S
C2617 C2616 1.367 . S
C2617 C2625 1.433 . S
C2618 H2614 0.929 . S
C2618 C2620 1.378 . S
C2618 C2622 1.350 . S
C2619 C2622 1.463 . S
C2619 C2624 1.350 . S
C2619 N2627 1.427 . S
C2620 H2611 0.930 . S
C2620 C2618 1.378 . S
C2620 C2621 1.367 . S
C2621 C2620 1.367 . S
C2621 C2623 1.433 . S
C2622 C2618 1.350 . S
C2622 C2619 1.463 . S
C2622 N2626 1.427 . S
C2623 H2613 0.929 . S
C2623 C2621 1.433 . S
C2623 N2626 1.384 . S
C2624 H2615 0.929 . S
C2624 C2616 1.378 . S
C2624 C2619 1.350 . S
C2625 H2612 0.929 1_556 S
C2625 C2617 1.433 . S
C2625 N2627 1.384 . S
N2626 C2622 1.427 . S
N2626 C2623 1.384 . S
N2627 C2619 1.427 . S
N2627 C2625 1.384 . S
H2628 C2634 0.930 . S
H2629 C2638 0.930 . S
H2630 C2643 0.929 . S
H2631 C2641 0.929 . S
H2632 C2636 0.929 . S
H2633 C2642 0.929 . S
C2634 H2628 0.930 . S
C2634 C2635 1.367 . S
C2634 C2642 1.378 . S
C2635 C2634 1.367 . S
C2635 C2643 1.433 . S
C2636 H2632 0.929 . S
C2636 C2638 1.378 . S
C2636 C2640 1.350 . S
C2637 C2640 1.463 1_455 S
C2637 C2642 1.350 . S
C2637 N2645 1.427 . S
C2638 H2629 0.930 . S
C2638 C2636 1.378 . S
C2638 C2639 1.367 . S
C2639 C2638 1.367 . S
C2639 C2641 1.433 . S
C2640 C2636 1.350 . S
C2640 C2637 1.463 1_655 S
C2640 N2644 1.427 . S
C2641 H2631 0.929 . S
C2641 C2639 1.433 . S
C2641 N2644 1.384 . S
C2642 H2633 0.929 . S
C2642 C2634 1.378 . S
C2642 C2637 1.350 . S
C2643 H2630 0.929 . S
C2643 C2635 1.433 . S
C2643 N2645 1.384 . S
N2644 C2640 1.427 . S
N2644 C2641 1.384 . S
N2645 C2637 1.427 . S
N2645 C2643 1.384 . S
H2646 C2652 0.930 . S
H2647 C2656 0.930 . S
H2648 C2661 0.929 . S
H2649 C2659 0.929 . S
H2650 C2654 0.929 . S
H2651 C2660 0.929 . S
C2652 H2646 0.930 . S
C2652 C2653 1.367 . S
C2652 C2660 1.378 . S
C2653 C2652 1.367 . S
C2653 C2661 1.433 . S
C2654 H2650 0.929 . S
C2654 C2656 1.378 . S
C2654 C2658 1.350 . S
C2655 C2658 1.463 . S
C2655 C2660 1.350 . S
C2655 N2663 1.427 . S
C2656 H2647 0.930 . S
C2656 C2654 1.378 . S
C2656 C2657 1.367 . S
C2657 C2656 1.367 . S
C2657 C2659 1.433 . S
C2658 C2654 1.350 . S
C2658 C2655 1.463 . S
C2658 N2662 1.427 . S
C2659 H2649 0.929 . S
C2659 C2657 1.433 . S
C2659 N2662 1.384 . S
C2660 H2651 0.929 . S
C2660 C2652 1.378 . S
C2660 C2655 1.350 . S
C2661 H2648 0.929 . S
C2661 C2653 1.433 . S
C2661 N2663 1.384 . S
N2662 C2658 1.427 . S
N2662 C2659 1.384 . S
N2663 C2655 1.427 . S
N2663 C2661 1.384 . S
H2664 C2670 0.930 . S
H2665 C2674 0.930 . S
H2666 C2679 0.929 . S
H2667 C2677 0.929 . S
H2668 C2672 0.929 . S
H2669 C2678 0.929 . S
C2670 H2664 0.930 . S
C2670 C2671 1.367 . S
C2670 C2678 1.378 . S
C2671 C2670 1.367 . S
C2671 C2679 1.433 . S
C2672 H2668 0.929 . S
C2672 C2674 1.378 . S
C2672 C2676 1.350 . S
C2673 C2676 1.463 1_565 S
C2673 C2678 1.350 . S
C2673 N2681 1.427 . S
C2674 H2665 0.930 . S
C2674 C2672 1.378 . S
C2674 C2675 1.367 . S
C2675 C2674 1.367 . S
C2675 C2677 1.433 . S
C2676 C2672 1.350 . S
C2676 C2673 1.463 1_545 S
C2676 N2680 1.427 . S
C2677 H2667 0.929 . S
C2677 C2675 1.433 . S
C2677 N2680 1.384 . S
C2678 H2669 0.929 . S
C2678 C2670 1.378 . S
C2678 C2673 1.350 . S
C2679 H2666 0.929 . S
C2679 C2671 1.433 . S
C2679 N2681 1.384 . S
N2680 C2676 1.427 . S
N2680 C2677 1.384 . S
N2681 C2673 1.427 . S
N2681 C2679 1.384 . S
H2682 C2688 0.930 . S
H2683 C2692 0.930 . S
H2684 C2697 0.929 . S
H2685 C2695 0.929 . S
H2686 C2690 0.929 . S
H2687 C2696 0.929 . S
C2688 H2682 0.930 . S
C2688 C2689 1.367 . S
C2688 C2696 1.378 . S
C2689 C2688 1.367 . S
C2689 C2697 1.433 . S
C2690 H2686 0.929 . S
C2690 C2692 1.378 . S
C2690 C2694 1.350 . S
C2691 C2694 1.463 1_545 S
C2691 C2696 1.350 . S
C2691 N2699 1.427 . S
C2692 H2683 0.930 . S
C2692 C2690 1.378 . S
C2692 C2693 1.367 . S
C2693 C2692 1.367 . S
C2693 C2695 1.433 . S
C2694 C2690 1.350 . S
C2694 C2691 1.463 1_565 S
C2694 N2698 1.427 . S
C2695 H2685 0.929 . S
C2695 C2693 1.433 . S
C2695 N2698 1.384 . S
C2696 H2687 0.929 . S
C2696 C2688 1.378 . S
C2696 C2691 1.350 . S
C2697 H2684 0.929 . S
C2697 C2689 1.433 . S
C2697 N2699 1.384 . S
N2698 C2694 1.427 . S
N2698 C2695 1.384 . S
N2699 C2691 1.427 . S
N2699 C2697 1.384 . S
H2700 C2706 0.930 . S
H2701 C2710 0.930 . S
H2702 C2715 0.929 . S
H2703 C2713 0.929 . S
H2704 C2708 0.929 . S
H2705 C2714 0.929 . S
C2706 H2700 0.930 . S
C2706 C2707 1.367 . S
C2706 C2714 1.378 . S
C2707 C2706 1.367 . S
C2707 C2715 1.433 . S
C2708 H2704 0.929 . S
C2708 C2710 1.378 . S
C2708 C2712 1.350 . S
C2709 C2712 1.463 1_655 S
C2709 C2714 1.350 . S
C2709 N2717 1.427 . S
C2710 H2701 0.930 . S
C2710 C2708 1.378 . S
C2710 C2711 1.367 . S
C2711 C2710 1.367 . S
C2711 C2713 1.433 . S
C2712 C2708 1.350 . S
C2712 C2709 1.463 1_455 S
C2712 N2716 1.427 . S
C2713 H2703 0.929 . S
C2713 C2711 1.433 . S
C2713 N2716 1.384 . S
C2714 H2705 0.929 . S
C2714 C2706 1.378 . S
C2714 C2709 1.350 . S
C2715 H2702 0.929 . S
C2715 C2707 1.433 . S
C2715 N2717 1.384 . S
N2716 C2712 1.427 . S
N2716 C2713 1.384 . S
N2717 C2709 1.427 . S
N2717 C2715 1.384 . S
H2718 C2724 0.930 . S
H2719 C2728 0.930 . S
H2720 C2733 0.929 . S
H2721 C2731 0.929 . S
H2722 C2726 0.929 . S
H2723 C2732 0.929 . S
C2724 H2718 0.930 . S
C2724 C2725 1.367 . S
C2724 C2732 1.378 . S
C2725 C2724 1.367 . S
C2725 C2733 1.433 . S
C2726 H2722 0.929 . S
C2726 C2728 1.378 . S
C2726 C2730 1.350 . S
C2727 C2730 1.463 . S
C2727 C2732 1.350 . S
C2727 N2735 1.427 . S
C2728 H2719 0.930 . S
C2728 C2726 1.378 . S
C2728 C2729 1.367 . S
C2729 C2728 1.367 . S
C2729 C2731 1.433 . S
C2730 C2726 1.350 . S
C2730 C2727 1.463 . S
C2730 N2734 1.427 . S
C2731 H2721 0.929 . S
C2731 C2729 1.433 . S
C2731 N2734 1.384 . S
C2732 H2723 0.929 . S
C2732 C2724 1.378 . S
C2732 C2727 1.350 . S
C2733 H2720 0.929 . S
C2733 C2725 1.433 . S
C2733 N2735 1.384 . S
N2734 C2730 1.427 . S
N2734 C2731 1.384 . S
N2735 C2727 1.427 . S
N2735 C2733 1.384 . S
C799 C21 1.403 . S
C803 C659 1.395 . S
C817 C615 1.398 . S
C821 C37 1.399 . S
C835 C631 1.402 . S
C839 C65 1.396 . S
C853 C87 1.406 . S
C857 C301 1.394 . S
C871 C103 1.413 . S
C875 C323 1.401 . S
C889 C131 1.397 . S
C893 C279 1.412 . S
C907 C139 1.382 . S
C911 C527 1.398 . S
C925 C175 1.398 . S
C929 C469 1.381 . S
C943 C191 1.395 . S
C947 C491 1.379 . S
C961 C219 1.394 . S
C965 C703 1.379 . S
C979 C227 1.379 . S
C983 C725 1.395 . S
C997 C675 1.380 . S
C1001 C263 1.397 . S
C1015 C565 1.398 . S
C1019 C345 1.413 . S
C1033 C367 1.400 . S
C1037 C587 1.413 . S
C1051 C543 1.407 . S
C1055 C395 1.394 . S
C1069 C411 1.381 . S
C1073 C777 1.398 . S
C1087 C433 1.387 . S
C1091 C747 1.382 . S
C1105 C769 1.383 . S
C1109 C455 1.385 . S
C1123 C10 1.427 . S
C1127 C7 1.451 . S
C1141 C40 1.418 . S
C1145 C43 1.460 . S
C1159 C51 1.460 . S
C1163 C54 1.418 . S
C1177 C73 1.452 . S
C1181 C76 1.421 . S
C1195 C109 1.458 . S
C1199 C106 1.426 . S
C1213 C120 1.416 . S
C1217 C117 1.458 . S
C1231 C153 1.470 . S
C1235 C142 1.431 . S
C1249 C172 1.429 . S
C1253 C169 1.468 . S
C1267 C183 1.464 . S
C1271 C184 1.443 . S
C1285 C216 1.440 . S
C1289 C213 1.462 . S
C1303 C241 1.463 . S
C1307 C230 1.442 . S
C1321 C257 1.462 . S
C1325 C260 1.437 . S
C1339 C282 1.418 . S
C1343 C285 1.460 . S
C1357 C304 1.416 . S
C1361 C307 1.457 . S
C1375 C329 1.460 . S
C1379 C326 1.418 . S
C1393 C351 1.451 1_556 S
C1397 C348 1.427 . S
C1411 C370 1.431 . S
C1415 C373 1.452 1_556 S
C1429 C384 1.421 . S
C1433 C381 1.460 1_556 S
C1447 C403 1.469 1_556 S
C1451 C404 1.430 . S
C1465 C425 1.465 1_556 S
C1469 C426 1.443 . S
C1483 C448 1.439 . S
C1487 C447 1.462 1_556 S
C1501 C472 1.441 . S
C1505 C483 1.462 . S
C1519 C494 1.441 . S
C1523 C505 1.468 . S
C1537 C521 1.470 . S
C1541 C524 1.432 . S
C1555 C549 1.451 1_554 S
C1559 C546 1.428 . S
C1573 C571 1.453 1_554 S
C1577 C568 1.421 . S
C1591 C590 1.428 . S
C1595 C593 1.457 1_554 S
C1609 C604 1.416 . S
C1613 C601 1.457 . S
C1627 C637 1.454 . S
C1631 C634 1.419 . S
C1645 C645 1.459 . S
C1649 C648 1.423 . S
C1663 C667 1.469 . S
C1667 C668 1.439 . S
C1681 C700 1.433 . S
C1685 C697 1.463 . S
C1699 C722 1.442 . S
C1703 C719 1.463 . S
C1717 C741 1.468 1_554 S
C1721 C744 1.441 . S
C1735 C766 1.434 . S
C1739 C763 1.463 1_554 S
C1753 C791 1.462 1_554 S
C1757 C780 1.439 . S
C1771 C337 1.139 . S
C1775 C15 1.138 . S
C1789 C359 1.143 . S
C1793 C29 1.140 . S
C1807 C389 1.141 . S
C1811 C59 1.139 . S
C1825 C81 1.138 . S
C1829 C535 1.140 . S
C1843 C557 1.141 . S
C1847 C95 1.144 . S
C1861 C579 1.142 . S
C1865 C125 1.144 . S
C1879 C147 1.150 . S
C1883 C733 1.150 . S
C1897 C755 1.151 . S
C1901 C161 1.151 . S
C1915 C785 1.150 . S
C1919 C197 1.150 . S
C1933 C417 1.146 . S
C1937 C205 1.146 . S
C1951 C235 1.146 . S
C1955 C439 1.147 . S
C1969 C249 1.146 . S
C1973 C461 1.147 . S
C1987 C271 1.142 . S
C1991 C609 1.143 . S
C2005 C293 1.143 . S
C2009 C623 1.145 . S
C2023 C315 1.139 . S
C2027 C653 1.141 . S
C2041 C477 1.145 . S
C2045 C681 1.144 . S
C2059 C499 1.145 . S
C2063 C689 1.146 . S
C2077 C513 1.151 . S
C2081 C711 1.150 . S
C2095 C252 1.450 . S
C2099 C18 1.448 . S
C2113 C30 1.455 . S
C2117 C208 1.440 . S
C2131 C228 1.444 . S
C2135 C62 1.454 . S
C2149 C84 1.449 . S
C2153 C164 1.448 . S
C2167 C96 1.449 . S
C2171 C194 1.450 . S
C2185 C140 1.445 . S
C2189 C128 1.451 . S
C2203 C272 1.452 . S
C2207 C516 1.443 . S
C2221 C294 1.448 . S
C2225 C470 1.450 . S
C2239 C492 1.446 . S
C2243 C316 1.452 . S
C2257 C436 1.449 . S
C2261 C338 1.448 . S
C2275 C360 1.454 . S
C2279 C458 1.441 . S
C2293 C414 1.446 . S
C2297 C392 1.451 . S
C2311 C778 1.443 . S
C2315 C536 1.453 . S
C2329 C558 1.448 . S
C2333 C736 1.449 . S
C2347 C580 1.448 . S
C2351 C758 1.449 . S
C2365 C612 1.454 . S
C2369 C692 1.442 . S
C2383 C714 1.446 . S
C2387 C624 1.452 . S
C2401 C678 1.441 . S
C2405 C656 1.455 . S
C2419 C646 1.122 . S
C2423 C8 1.117 . S
C2437 C32 1.123 . S
C2441 C602 1.114 . S
C2455 C626 1.123 . S
C2459 C52 1.114 . S
C2473 C296 1.123 . S
C2477 C74 1.113 . S
C2491 C98 1.118 . S
C2495 C318 1.114 . S
C2509 C118 1.119 . S
C2513 C274 1.119 . S
C2527 C514 1.116 . S
C2531 C150 1.108 . S
C2545 C162 1.108 . S
C2549 C480 1.119 . S
C2563 C186 1.119 . S
C2567 C502 1.111 . S
C2581 C690 1.120 . S
C2585 C206 1.108 . S
C2599 C238 1.119 . S
C2603 C712 1.107 . S
C2617 C250 1.111 . S
C2621 C670 1.118 . S
C2635 C340 1.117 . S
C2639 C560 1.122 . S
C2653 C582 1.123 . S
C2657 C362 1.114 . S
C2671 C382 1.122 . S
C2675 C538 1.116 . S
C2689 C788 1.113 . S
C2693 C406 1.117 . S
C2707 C734 1.113 . S
C2711 C428 1.117 . S
C2725 C756 1.119 . S
C2729 C450 1.107 . S
