# Generated by pormake.
# Topology zfv, (5)-cn, num edge types: 1
# Building blocks:
#     Node 0, Type 0, BuildingBlock: XOMCOT_clean_sbu_0, # of connection points: 5
#     Node 1, Type 0, BuildingBlock: XOMCOT_clean_sbu_0, # of connection points: 5
#     Node 2, Type 0, BuildingBlock: XOMCOT_clean_sbu_0, # of connection points: 5
#     Node 3, Type 0, BuildingBlock: XOMCOT_clean_sbu_0, # of connection points: 5
#     Node 4, Type 0, BuildingBlock: XOMCOT_clean_sbu_0, # of connection points: 5
#     Node 5, Type 0, BuildingBlock: XOMCOT_clean_sbu_0, # of connection points: 5
#     Node 6, Type 0, BuildingBlock: XOMCOT_clean_sbu_0, # of connection points: 5
#     Node 7, Type 0, BuildingBlock: XOMCOT_clean_sbu_0, # of connection points: 5
#     Node 8, Type 0, BuildingBlock: XOMCOT_clean_sbu_0, # of connection points: 5
#     Node 9, Type 0, BuildingBlock: XOMCOT_clean_sbu_0, # of connection points: 5
#     Node 10, Type 0, BuildingBlock: XOMCOT_clean_sbu_0, # of connection points: 5
#     Node 11, Type 0, BuildingBlock: XOMCOT_clean_sbu_0, # of connection points: 5
#     Node 12, Type 0, BuildingBlock: XOMCOT_clean_sbu_0, # of connection points: 5
#     Node 13, Type 0, BuildingBlock: XOMCOT_clean_sbu_0, # of connection points: 5
#     Node 14, Type 0, BuildingBlock: XOMCOT_clean_sbu_0, # of connection points: 5
#     Node 15, Type 0, BuildingBlock: XOMCOT_clean_sbu_0, # of connection points: 5
#     Edge 16, Type (0, 0), BuildingBlock: AJUNOK_clean_linker_0, # of connection points: 2
#     Edge 17, Type (0, 0), BuildingBlock: AJUNOK_clean_linker_0, # of connection points: 2
#     Edge 18, Type (0, 0), BuildingBlock: AJUNOK_clean_linker_0, # of connection points: 2
#     Edge 19, Type (0, 0), BuildingBlock: AJUNOK_clean_linker_0, # of connection points: 2
#     Edge 20, Type (0, 0), BuildingBlock: AJUNOK_clean_linker_0, # of connection points: 2
#     Edge 21, Type (0, 0), BuildingBlock: AJUNOK_clean_linker_0, # of connection points: 2
#     Edge 22, Type (0, 0), BuildingBlock: AJUNOK_clean_linker_0, # of connection points: 2
#     Edge 23, Type (0, 0), BuildingBlock: AJUNOK_clean_linker_0, # of connection points: 2
#     Edge 24, Type (0, 0), BuildingBlock: AJUNOK_clean_linker_0, # of connection points: 2
#     Edge 25, Type (0, 0), BuildingBlock: AJUNOK_clean_linker_0, # of connection points: 2
#     Edge 26, Type (0, 0), BuildingBlock: AJUNOK_clean_linker_0, # of connection points: 2
#     Edge 27, Type (0, 0), BuildingBlock: AJUNOK_clean_linker_0, # of connection points: 2
#     Edge 28, Type (0, 0), BuildingBlock: AJUNOK_clean_linker_0, # of connection points: 2
#     Edge 29, Type (0, 0), BuildingBlock: AJUNOK_clean_linker_0, # of connection points: 2
#     Edge 30, Type (0, 0), BuildingBlock: AJUNOK_clean_linker_0, # of connection points: 2
#     Edge 31, Type (0, 0), BuildingBlock: AJUNOK_clean_linker_0, # of connection points: 2
#     Edge 32, Type (0, 0), BuildingBlock: AJUNOK_clean_linker_0, # of connection points: 2
#     Edge 33, Type (0, 0), BuildingBlock: AJUNOK_clean_linker_0, # of connection points: 2
#     Edge 34, Type (0, 0), BuildingBlock: AJUNOK_clean_linker_0, # of connection points: 2
#     Edge 35, Type (0, 0), BuildingBlock: AJUNOK_clean_linker_0, # of connection points: 2
#     Edge 36, Type (0, 0), BuildingBlock: AJUNOK_clean_linker_0, # of connection points: 2
#     Edge 37, Type (0, 0), BuildingBlock: AJUNOK_clean_linker_0, # of connection points: 2
#     Edge 38, Type (0, 0), BuildingBlock: AJUNOK_clean_linker_0, # of connection points: 2
#     Edge 39, Type (0, 0), BuildingBlock: AJUNOK_clean_linker_0, # of connection points: 2
#     Edge 40, Type (0, 0), BuildingBlock: AJUNOK_clean_linker_0, # of connection points: 2
#     Edge 41, Type (0, 0), BuildingBlock: AJUNOK_clean_linker_0, # of connection points: 2
#     Edge 42, Type (0, 0), BuildingBlock: AJUNOK_clean_linker_0, # of connection points: 2
#     Edge 43, Type (0, 0), BuildingBlock: AJUNOK_clean_linker_0, # of connection points: 2
#     Edge 44, Type (0, 0), BuildingBlock: AJUNOK_clean_linker_0, # of connection points: 2
#     Edge 45, Type (0, 0), BuildingBlock: AJUNOK_clean_linker_0, # of connection points: 2
#     Edge 46, Type (0, 0), BuildingBlock: AJUNOK_clean_linker_0, # of connection points: 2
#     Edge 47, Type (0, 0), BuildingBlock: AJUNOK_clean_linker_0, # of connection points: 2
#     Edge 48, Type (0, 0), BuildingBlock: AJUNOK_clean_linker_0, # of connection points: 2
#     Edge 49, Type (0, 0), BuildingBlock: AJUNOK_clean_linker_0, # of connection points: 2
#     Edge 50, Type (0, 0), BuildingBlock: AJUNOK_clean_linker_0, # of connection points: 2
#     Edge 51, Type (0, 0), BuildingBlock: AJUNOK_clean_linker_0, # of connection points: 2
#     Edge 52, Type (0, 0), BuildingBlock: AJUNOK_clean_linker_0, # of connection points: 2
#     Edge 53, Type (0, 0), BuildingBlock: AJUNOK_clean_linker_0, # of connection points: 2
#     Edge 54, Type (0, 0), BuildingBlock: AJUNOK_clean_linker_0, # of connection points: 2
#     Edge 55, Type (0, 0), BuildingBlock: AJUNOK_clean_linker_0, # of connection points: 2
# Relax obj value: 0.139
# Max RMSD: 0.139
# Mean RMSD: 0.139
data_MOF--net-zfv--node1-XOMCOT_clean_sbu_0--edge1-AJUNOK_clean_linker_0
_symmetry_space_group_name_H-M    P1
_symmetry_Int_Tables_number       1
_symmetry_cell_setting            triclinic
loop_
_symmetry_equiv_pos_as_xyz
'x, y, z'
_cell_length_a     57.565305
_cell_length_b     57.546934
_cell_length_c     13.707292
_cell_angle_alpha  89.823748
_cell_angle_beta   89.89787
_cell_angle_gamma 90.004131
loop_
_atom_site_label
_atom_site_type_symbol
_atom_site_fract_x
_atom_site_fract_y
_atom_site_fract_z
_atom_type_partial_charge
Co0 Co 0.08688 0.58717 0.10062 0.0
C1 C 0.08417 0.58893 0.88384 0.0
C2 C 0.11581 0.60401 0.93673 0.0
C3 C 0.11628 0.60446 0.83644 0.0
N4 N 0.09558 0.59445 0.96675 0.0
N5 N 0.09653 0.59479 0.80344 0.0
H6 H 0.06742 0.58041 0.88217 0.0
H7 H 0.12975 0.60963 0.98374 0.0
C8 C 0.11206 0.62783 0.19442 0.0
O9 O 0.09302 0.63558 0.23609 0.0
N10 N 0.0787 0.57904 0.23581 0.0
C11 C 0.06173 0.56415 0.26367 0.0
C12 C 0.06127 0.56249 0.36349 0.0
C13 C 0.089 0.58533 0.32061 0.0
N14 N 0.0785 0.57572 0.3995 0.0
C15 C 0.04193 0.60767 0.13532 0.0
C16 C 0.05303 0.65197 0.07242 0.0
C17 C 0.032 0.64831 0.1217 0.0
C18 C 0.02617 0.62573 0.15037 0.0
C19 C 0.0685 0.63339 0.06029 0.0
N20 N 0.06352 0.61189 0.09795 0.0
H21 H 0.03676 0.59037 0.15537 0.0
H22 H 0.08511 0.63671 0.02617 0.0
H23 H 0.05 0.55517 0.21521 0.0
H24 H 0.10425 0.59612 0.32563 0.0
O25 O 0.06825 0.56148 0.05428 0.0
O26 O 0.10554 0.55945 0.09347 0.0
O27 O 0.11201 0.60896 0.14585 0.0
C28 C 0.087 0.54892 0.06222 0.0
H29 H 0.13051 0.61044 0.7911 0.0
H30 H 0.04874 0.55277 0.40603 0.0
H31 H 0.05787 0.66916 0.04729 0.0
H32 H 0.00961 0.6221 0.18487 0.0
Co33 Co 0.72759 0.78142 0.345 0.0
C34 C 0.72923 0.77968 0.12639 0.0
C35 C 0.72816 0.81437 0.18287 0.0
C36 C 0.73004 0.81562 0.08307 0.0
N37 N 0.72744 0.79188 0.21028 0.0
N38 N 0.73081 0.79384 0.04735 0.0
H39 H 0.72948 0.76096 0.12308 0.0
H40 H 0.72805 0.82897 0.23238 0.0
C41 C 0.69438 0.816 0.44578 0.0
O42 O 0.69354 0.80416 0.52757 0.0
N43 N 0.72847 0.77091 0.48015 0.0
C44 C 0.72452 0.74897 0.51109 0.0
C45 C 0.7276 0.74789 0.61035 0.0
C46 C 0.73491 0.78265 0.56117 0.0
N47 N 0.734 0.76906 0.64194 0.0
C48 C 0.706 0.7389 0.27749 0.0
C49 C 0.66289 0.74694 0.35903 0.0
C50 C 0.66711 0.72517 0.31742 0.0
C51 C 0.689 0.72136 0.27487 0.0
C52 C 0.68 0.76402 0.35786 0.0
N53 N 0.70161 0.75993 0.32017 0.0
H54 H 0.72311 0.73501 0.24964 0.0
H55 H 0.6756 0.77996 0.39226 0.0
H56 H 0.71964 0.73458 0.46523 0.0
H57 H 0.73945 0.80091 0.56153 0.0
O58 O 0.75361 0.76106 0.3179 0.0
O59 O 0.75657 0.79781 0.36308 0.0
O60 O 0.70593 0.80848 0.37275 0.0
C61 C 0.76695 0.77871 0.33735 0.0
H62 H 0.73138 0.8314 0.04022 0.0
H63 H 0.72447 0.73288 0.65633 0.0
H64 H 0.64677 0.75064 0.39663 0.0
H65 H 0.69318 0.70478 0.24208 0.0
Co66 Co 0.53658 0.41817 0.601 0.0
C67 C 0.53882 0.41696 0.3843 0.0
C68 C 0.50641 0.40366 0.43827 0.0
C69 C 0.50581 0.40339 0.33799 0.0
N70 N 0.52716 0.41203 0.46754 0.0
N71 N 0.52606 0.41195 0.30422 0.0
H72 H 0.55611 0.4243 0.38228 0.0
H73 H 0.49226 0.39869 0.4858 0.0
C74 C 0.50971 0.37878 0.69936 0.0
O75 O 0.52825 0.37132 0.74566 0.0
N76 N 0.54579 0.42494 0.73568 0.0
C77 C 0.56486 0.43697 0.76322 0.0
C78 C 0.56538 0.43863 0.86301 0.0
C79 C 0.53446 0.42043 0.82043 0.0
N80 N 0.54624 0.4283 0.89915 0.0
C81 C 0.58174 0.39706 0.61461 0.0
C82 C 0.5679 0.35175 0.58362 0.0
C83 C 0.59043 0.35585 0.61902 0.0
C84 C 0.59763 0.37902 0.62831 0.0
C85 C 0.55265 0.37049 0.56884 0.0
N86 N 0.55901 0.39259 0.59393 0.0
H87 H 0.58776 0.41465 0.62208 0.0
H88 H 0.53529 0.36701 0.54285 0.0
H89 H 0.57763 0.44445 0.71467 0.0
H90 H 0.51766 0.4122 0.82531 0.0
O91 O 0.55609 0.44349 0.55553 0.0
O92 O 0.5192 0.44699 0.59802 0.0
O93 O 0.51051 0.39709 0.64664 0.0
C94 C 0.53813 0.45697 0.56697 0.0
H95 H 0.49125 0.3982 0.2932 0.0
H96 H 0.5791 0.44648 0.90554 0.0
H97 H 0.56177 0.33422 0.5711 0.0
H98 H 0.61537 0.38324 0.64752 0.0
Co99 Co 0.89501 0.22829 0.82373 0.0
C100 C 0.89626 0.23065 0.60689 0.0
C101 C 0.91174 0.19926 0.66116 0.0
C102 C 0.91219 0.19867 0.5609 0.0
N103 N 0.90194 0.21941 0.6902 0.0
N104 N 0.90228 0.21826 0.52705 0.0
H105 H 0.88757 0.24732 0.6046 0.0
H106 H 0.91757 0.18549 0.70892 0.0
C107 C 0.93751 0.20702 0.91774 0.0
O108 O 0.94217 0.2267 0.96194 0.0
N109 N 0.88721 0.23656 0.95888 0.0
C110 C 0.8722 0.25338 0.9867 0.0
C111 C 0.87048 0.25365 0.08645 0.0
C112 C 0.89341 0.22606 0.0436 0.0
N113 N 0.88372 0.2364 0.12246 0.0
C114 C 0.91349 0.27439 0.85206 0.0
C115 C 0.95821 0.26465 0.79111 0.0
C116 C 0.95384 0.28543 0.84065 0.0
C117 C 0.93102 0.2907 0.86745 0.0
C118 C 0.94013 0.24863 0.77844 0.0
N119 N 0.91851 0.25285 0.8163 0.0
H120 H 0.89602 0.27903 0.87118 0.0
H121 H 0.94402 0.23213 0.74473 0.0
H122 H 0.86294 0.26495 0.93823 0.0
H123 H 0.90416 0.21074 0.04837 0.0
O124 O 0.86826 0.24558 0.77853 0.0
O125 O 0.86795 0.20838 0.82071 0.0
O126 O 0.91881 0.20468 0.86862 0.0
C127 C 0.85647 0.22643 0.78939 0.0
H128 H 0.91839 0.18448 0.51617 0.0
H129 H 0.86059 0.266 0.12895 0.0
H130 H 0.9756 0.26034 0.76689 0.0
H131 H 0.92686 0.30713 0.90167 0.0
Co132 Co 0.08256 0.41091 0.95288 0.0
C133 C 0.07998 0.40857 0.1696 0.0
C134 C 0.11264 0.39623 0.11442 0.0
C135 C 0.11315 0.39499 0.21448 0.0
N136 N 0.09177 0.40449 0.08612 0.0
N137 N 0.09266 0.40272 0.24891 0.0
H138 H 0.06268 0.41592 0.17242 0.0
H139 H 0.12689 0.39201 0.06617 0.0
C140 C 0.10414 0.36777 0.8637 0.0
O141 O 0.08449 0.362 0.82156 0.0
N142 N 0.07403 0.41804 0.81758 0.0
C143 C 0.05735 0.43302 0.78795 0.0
C144 C 0.05673 0.43361 0.68793 0.0
C145 C 0.08415 0.41081 0.7338 0.0
N146 N 0.07347 0.41947 0.65364 0.0
C147 C 0.03618 0.39323 0.92948 0.0
C148 C 0.04516 0.34842 0.99151 0.0
C149 C 0.02412 0.35323 0.94429 0.0
C150 C 0.01933 0.37612 0.91677 0.0
C151 C 0.06173 0.36612 1.00155 0.0
N152 N 0.05779 0.38775 0.9631 0.0
H153 H 0.03187 0.4108 0.91014 0.0
H154 H 0.07831 0.36197 0.03412 0.0
H155 H 0.0462 0.44305 0.83532 0.0
H156 H 0.09966 0.40033 0.73093 0.0
O157 O 0.06561 0.43793 0.99655 0.0
O158 O 0.10269 0.43773 0.95262 0.0
O159 O 0.10602 0.38692 0.90976 0.0
C160 C 0.08484 0.44948 0.98386 0.0
H161 H 0.12781 0.38974 0.25878 0.0
H162 H 0.04472 0.44358 0.64389 0.0
H163 H 0.04919 0.33097 1.01609 0.0
H164 H 1.00279 0.38068 0.88429 0.0
Co165 Co 0.90585 0.77654 0.24084 0.0
C166 C 0.90605 0.77545 0.45885 0.0
C167 C 0.92404 0.80517 0.40178 0.0
C168 C 0.92396 0.80656 0.50168 0.0
N169 N 0.91292 0.7856 0.37436 0.0
N170 N 0.91232 0.78812 0.5377 0.0
H171 H 0.89601 0.75958 0.46265 0.0
H172 H 0.93148 0.818 0.35335 0.0
C173 C 0.94751 0.79949 0.14463 0.0
O174 O 0.95327 0.77994 0.10162 0.0
N175 N 0.89803 0.76814 0.10588 0.0
C176 C 0.88353 0.75092 0.07747 0.0
C177 C 0.88214 0.7506 0.97747 0.0
C178 C 0.90413 0.77885 1.02144 0.0
N179 N 0.89508 0.76817 0.94239 0.0
C180 C 0.92455 0.7307 0.21437 0.0
C181 C 0.96963 0.74066 0.26878 0.0
C182 C 0.96484 0.71946 0.22303 0.0
C183 C 0.94187 0.71417 0.19946 0.0
C184 C 0.9517 0.7569 0.28127 0.0
N185 N 0.92985 0.75248 0.24656 0.0
H186 H 0.90694 0.726 0.19815 0.0
H187 H 0.95579 0.77359 0.31282 0.0
H188 H 0.87428 0.73924 0.12564 0.0
H189 H 0.91475 0.79424 1.01681 0.0
O190 O 0.87982 0.75838 0.28698 0.0
O191 O 0.87812 0.79558 0.24572 0.0
O192 O 0.92874 0.80096 0.19423 0.0
C193 C 0.86731 0.77704 0.27657 0.0
H194 H 0.93196 0.82017 0.54429 0.0
H195 H 0.87209 0.73862 0.93382 0.0
H196 H 0.98717 0.74501 0.29061 0.0
H197 H 0.93739 0.69748 0.16829 0.0
Co198 Co 0.53938 0.59498 0.43839 0.0
C199 C 0.53729 0.59366 0.65699 0.0
C200 C 0.53117 0.62779 0.59951 0.0
C201 C 0.52911 0.62867 0.69957 0.0
N202 N 0.53598 0.60576 0.57237 0.0
N203 N 0.53293 0.6072 0.73515 0.0
H204 H 0.54134 0.57537 0.66242 0.0
H205 H 0.52949 0.64234 0.55001 0.0
C206 C 0.49357 0.61712 0.43109 0.0
O207 O 0.48661 0.59916 0.48272 0.0
N208 N 0.5429 0.58428 0.30368 0.0
C209 C 0.55741 0.56734 0.27335 0.0
C210 C 0.55644 0.56575 0.17382 0.0
C211 C 0.53329 0.59275 0.22063 0.0
N212 N 0.54159 0.58196 0.13976 0.0
C213 C 0.58236 0.61946 0.47261 0.0
C214 C 0.57758 0.65045 0.31931 0.0
C215 C 0.59717 0.6524 0.37933 0.0
C216 C 0.59953 0.63641 0.45662 0.0
C217 C 0.56055 0.63395 0.33985 0.0
N218 N 0.56306 0.61855 0.41507 0.0
H219 H 0.58435 0.60722 0.53203 0.0
H220 H 0.54536 0.63367 0.29432 0.0
H221 H 0.56866 0.55705 0.31924 0.0
H222 H 0.52148 0.60731 0.21928 0.0
O223 O 0.55868 0.56929 0.4823 0.0
O224 O 0.52054 0.56775 0.46632 0.0
O225 O 0.51446 0.6178 0.39978 0.0
C226 C 0.53975 0.55691 0.48686 0.0
H227 H 0.52576 0.64398 0.74306 0.0
H228 H 0.56649 0.55381 0.12989 0.0
H229 H 0.57529 0.66155 0.25617 0.0
H230 H 0.61434 0.63715 0.50508 0.0
Co231 Co 0.71732 0.22612 0.69682 0.0
C232 C 0.71729 0.22694 0.91426 0.0
C233 C 0.70619 0.19406 0.85748 0.0
C234 C 0.70658 0.19262 0.95753 0.0
N235 N 0.7128 0.21559 0.83012 0.0
N236 N 0.71386 0.21316 0.99338 0.0
H237 H 0.72358 0.24465 0.91739 0.0
H238 H 0.70176 0.18008 0.80842 0.0
C239 C 0.67697 0.20113 0.59873 0.0
O240 O 0.67015 0.22013 0.55369 0.0
N241 N 0.72238 0.23629 0.56195 0.0
C242 C 0.73211 0.2565 0.53235 0.0
C243 C 0.73317 0.257 0.4322 0.0
C244 C 0.71887 0.22428 0.47836 0.0
N245 N 0.72483 0.23676 0.39828 0.0
C246 C 0.69812 0.27227 0.70551 0.0
C247 C 0.65223 0.25941 0.72986 0.0
C248 C 0.65743 0.28266 0.70853 0.0
C249 C 0.68076 0.28921 0.70089 0.0
C250 C 0.6703 0.2431 0.73637 0.0
N251 N 0.69268 0.24927 0.71451 0.0
H252 H 0.71595 0.27773 0.70068 0.0
H253 H 0.6661 0.22535 0.75519 0.0
H254 H 0.73893 0.26981 0.57949 0.0
H255 H 0.7122 0.20675 0.47561 0.0
O256 O 0.74401 0.24426 0.73764 0.0
O257 O 0.74525 0.20763 0.6892 0.0
O258 O 0.69491 0.2012 0.65324 0.0
C259 C 0.7564 0.22575 0.72084 0.0
H260 H 0.70171 0.17757 1.0004 0.0
H261 H 0.74012 0.27093 0.38765 0.0
H262 H 0.63442 0.25389 0.74068 0.0
H263 H 0.68552 0.3072 0.68855 0.0
Co264 Co 0.39809 0.28162 0.69464 0.0
C265 C 0.39469 0.28928 0.91058 0.0
C266 C 0.42965 0.28341 0.86278 0.0
C267 C 0.42966 0.28571 0.96254 0.0
N268 N 0.40768 0.28533 0.82996 0.0
N269 N 0.40765 0.28925 0.99307 0.0
H270 H 0.37622 0.29232 0.90887 0.0
H271 H 0.44464 0.27993 0.81754 0.0
C272 C 0.42366 0.32552 0.69199 0.0
O273 O 0.40622 0.3337 0.74335 0.0
N274 N 0.3888 0.27734 0.55996 0.0
C275 C 0.37834 0.25794 0.52715 0.0
C276 C 0.37599 0.25943 0.42798 0.0
C277 C 0.39289 0.29041 0.47951 0.0
N278 N 0.38496 0.27986 0.39766 0.0
C279 C 0.41936 0.23739 0.73487 0.0
C280 C 0.45241 0.24046 0.58833 0.0
C281 C 0.4521 0.22071 0.64829 0.0
C282 C 0.43512 0.21912 0.72165 0.0
C283 C 0.43647 0.25826 0.6041 0.0
N284 N 0.42047 0.25677 0.6775 0.0
H285 H 0.40636 0.23616 0.79169 0.0
H286 H 0.43683 0.27316 0.55605 0.0
H287 H 0.37376 0.2431 0.57176 0.0
H288 H 0.4021 0.3068 0.48025 0.0
O289 O 0.3713 0.26363 0.73491 0.0
O290 O 0.37145 0.30177 0.71458 0.0
O291 O 0.42252 0.30499 0.65754 0.0
C292 C 0.35968 0.28301 0.73473 0.0
H293 H 0.44469 0.28394 1.00929 0.0
H294 H 0.36953 0.24579 0.38113 0.0
H295 H 0.46476 0.24206 0.52898 0.0
H296 H 0.43426 0.20407 0.76914 0.0
Co297 Co 0.21901 0.72876 0.19184 0.0
C298 C 0.22264 0.72144 0.40804 0.0
C299 C 0.18752 0.72602 0.36016 0.0
C300 C 0.18752 0.72377 0.46001 0.0
N301 N 0.20957 0.72489 0.32738 0.0
N302 N 0.20964 0.72103 0.49056 0.0
H303 H 0.2412 0.71903 0.40634 0.0
H304 H 0.17243 0.72879 0.31469 0.0
C305 C 0.19594 0.68385 0.19025 0.0
O306 O 0.21383 0.67682 0.24175 0.0
N307 N 0.22803 0.7333 0.05696 0.0
C308 C 0.23791 0.75301 0.02367 0.0
C309 C 0.24025 0.75165 0.92449 0.0
C310 C 0.22424 0.72017 0.97684 0.0
N311 N 0.23185 0.73099 0.89469 0.0
C312 C 0.19717 0.77307 0.22646 0.0
C313 C 0.16201 0.76714 0.0909 0.0
C314 C 0.16289 0.78776 0.14424 0.0
C315 C 0.18085 0.79085 0.21208 0.0
C316 C 0.17881 0.75009 0.10606 0.0
N317 N 0.19584 0.75295 0.17434 0.0
H318 H 0.21088 0.77536 0.27937 0.0
H319 H 0.17822 0.73469 0.06135 0.0
H320 H 0.24209 0.76794 0.06802 0.0
H321 H 0.21552 0.70351 0.97805 0.0
O322 O 0.24581 0.74713 0.2312 0.0
O323 O 0.24578 0.70907 0.21111 0.0
O324 O 0.19548 0.70453 0.15675 0.0
C325 C 0.25747 0.72773 0.23128 0.0
H326 H 0.1724 0.72496 0.50674 0.0
H327 H 0.24631 0.7655 0.8773 0.0
H328 H 0.14864 0.7644 0.03658 0.0
H329 H 0.18208 0.80671 0.25408 0.0
Co330 Co 0.22055 0.2788 0.82775 0.0
C331 C 0.21869 0.27676 0.61102 0.0
C332 C 0.20731 0.30971 0.66659 0.0
C333 C 0.20615 0.31041 0.56649 0.0
N334 N 0.21491 0.28855 0.69459 0.0
N335 N 0.21328 0.28973 0.53183 0.0
H336 H 0.22541 0.25921 0.60811 0.0
H337 H 0.20338 0.32394 0.7152 0.0
C338 C 0.17715 0.29922 0.91766 0.0
O339 O 0.17242 0.27936 0.96092 0.0
N340 N 0.22693 0.26974 0.96306 0.0
C341 C 0.24119 0.25247 0.99292 0.0
C342 C 0.24183 0.25196 0.09295 0.0
C343 C 0.22027 0.28034 0.04661 0.0
N344 N 0.22851 0.26937 0.12698 0.0
C345 C 0.20205 0.23236 0.84809 0.0
C346 C 0.15758 0.24273 0.78622 0.0
C347 C 0.16161 0.22159 0.8344 0.0
C348 C 0.18437 0.21606 0.86141 0.0
C349 C 0.17583 0.25868 0.77534 0.0
N350 N 0.19726 0.25416 0.81426 0.0
H351 H 0.21944 0.22753 0.86761 0.0
H352 H 0.17218 0.2754 0.74264 0.0
H353 H 0.25088 0.241 0.9457 0.0
H354 H 0.21056 0.29635 0.04897 0.0
O355 O 0.24791 0.26211 0.7855 0.0
O356 O 0.24741 0.29897 0.83142 0.0
O357 O 0.19609 0.3019 0.87026 0.0
C358 C 0.25941 0.28127 0.80039 0.0
H359 H 0.2013 0.32526 0.52235 0.0
H360 H 0.25138 0.23964 0.13719 0.0
H361 H 0.1403 0.24743 0.7621 0.0
H362 H 0.18838 0.1994 0.89441 0.0
Co363 Co 0.39547 0.72643 0.34826 0.0
C364 C 0.39571 0.72764 0.12994 0.0
C365 C 0.41595 0.69941 0.18638 0.0
C366 C 0.4161 0.69813 0.08656 0.0
N367 N 0.40328 0.71801 0.21434 0.0
N368 N 0.40305 0.7156 0.05091 0.0
H369 H 0.38445 0.74267 0.12624 0.0
H370 H 0.42448 0.68718 0.23417 0.0
C371 C 0.43729 0.70135 0.43807 0.0
O372 O 0.44574 0.72041 0.47667 0.0
N373 N 0.38702 0.73416 0.48326 0.0
C374 C 0.37099 0.74997 0.5119 0.0
C375 C 0.36978 0.75035 0.61195 0.0
C376 C 0.39458 0.72451 0.56767 0.0
N377 N 0.38455 0.7343 0.64676 0.0
C378 C 0.41372 0.77207 0.38291 0.0
C379 C 0.45853 0.76381 0.32045 0.0
C380 C 0.45364 0.78479 0.36855 0.0
C381 C 0.43064 0.7891 0.39644 0.0
C382 C 0.44103 0.74707 0.30938 0.0
N383 N 0.41931 0.75069 0.3469 0.0
H384 H 0.39613 0.77612 0.40293 0.0
H385 H 0.44538 0.73074 0.2754 0.0
H386 H 0.3608 0.76085 0.46389 0.0
H387 H 0.407 0.71057 0.57245 0.0
O388 O 0.36947 0.74467 0.30164 0.0
O389 O 0.36801 0.70729 0.34007 0.0
O390 O 0.41771 0.70145 0.39436 0.0
C391 C 0.35712 0.72579 0.3098 0.0
H392 H 0.42527 0.68529 0.04374 0.0
H393 H 0.35867 0.76135 0.65584 0.0
H394 H 0.47578 0.76016 0.29286 0.0
H395 H 0.42577 0.80529 0.43096 0.0
Co396 Co 0.57926 0.09016 0.56786 0.0
C397 C 0.58234 0.08796 0.34966 0.0
C398 C 0.58912 0.12214 0.40431 0.0
C399 C 0.59118 0.12269 0.3043 0.0
N400 N 0.58396 0.10029 0.43333 0.0
N401 N 0.58694 0.1012 0.27047 0.0
H402 H 0.57763 0.06981 0.34566 0.0
H403 H 0.59071 0.13691 0.45216 0.0
C404 C 0.62357 0.11529 0.58526 0.0
O405 O 0.63285 0.09773 0.53825 0.0
N406 N 0.57436 0.08019 0.70256 0.0
C407 C 0.55882 0.06413 0.73255 0.0
C408 C 0.55949 0.06252 0.83225 0.0
C409 C 0.58416 0.08825 0.7856 0.0
N410 N 0.57522 0.07783 0.86634 0.0
C411 C 0.53607 0.11264 0.51902 0.0
C412 C 0.53859 0.14581 0.66451 0.0
C413 C 0.52014 0.14675 0.59841 0.0
C414 C 0.51866 0.12963 0.52593 0.0
C415 C 0.55549 0.12871 0.65505 0.0
N416 N 0.55438 0.11264 0.58215 0.0
H417 H 0.53517 0.09974 0.46195 0.0
H418 H 0.56966 0.12871 0.70628 0.0
H419 H 0.54723 0.05446 0.68597 0.0
H420 H 0.59659 0.10229 0.78692 0.0
O421 O 0.5619 0.06329 0.52357 0.0
O422 O 0.59983 0.06395 0.54863 0.0
O423 O 0.60223 0.11445 0.60991 0.0
C424 C 0.58151 0.05198 0.52525 0.0
H425 H 0.59458 0.13784 0.25953 0.0
H426 H 0.54878 0.05111 0.87623 0.0
H427 H 0.54004 0.15832 0.72309 0.0
H428 H 0.50452 0.12971 0.47389 0.0
Co429 Co 0.0353 0.91756 0.07857 0.0
C430 C 0.03693 0.91595 0.86177 0.0
C431 C 0.00383 0.90526 0.91886 0.0
C432 C 1.00295 0.90419 0.81875 0.0
N433 N 0.02517 0.9124 0.94586 0.0
N434 N 0.02373 0.91087 0.78312 0.0
H435 H 0.05464 0.92221 0.85813 0.0
H436 H 0.98963 0.90156 0.96824 0.0
C437 C 0.01532 0.87426 0.1704 0.0
O438 O 0.0355 0.87 0.21142 0.0
N439 N 0.04476 0.92345 0.21369 0.0
C440 C 0.06253 0.93705 0.24351 0.0
C441 C 0.06293 0.93769 0.34355 0.0
C442 C 0.03379 0.91728 0.29733 0.0
N443 N 0.04497 0.92509 0.37768 0.0
C444 C 0.08194 0.89962 0.08888 0.0
C445 C 0.07198 0.85526 0.0258 0.0
C446 C 0.09388 0.85967 0.06701 0.0
C447 C 0.09904 0.88251 0.0945 0.0
C448 C 0.05525 0.87294 0.0227 0.0
N449 N 0.05979 0.8943 0.06181 0.0
H450 H 0.08659 0.91707 0.10797 0.0
H451 H 0.03824 0.86904 0.99377 0.0
H452 H 0.07426 0.94653 0.19641 0.0
H453 H 0.01737 0.90826 0.29969 0.0
O454 O 0.05241 0.94452 0.03651 0.0
O455 O 0.01565 0.94501 0.08437 0.0
O456 O 0.01214 0.89304 0.12207 0.0
C457 C 0.03373 0.95656 0.05339 0.0
H458 H 0.98794 0.89966 0.77531 0.0
H459 H 0.07551 0.94684 0.3877 0.0
H460 H 0.0676 0.83821 0.99811 0.0
H461 H 0.11593 0.88708 0.12331 0.0
Co462 Co 0.58356 0.91223 0.44547 0.0
C463 C 0.5816 0.91298 0.66358 0.0
C464 C 0.61425 0.90026 0.6111 0.0
C465 C 0.61516 0.90107 0.71086 0.0
N466 N 0.59315 0.9075 0.58055 0.0
N467 N 0.59477 0.9093 0.7439 0.0
H468 H 0.56434 0.92037 0.66547 0.0
H469 H 0.62859 0.8953 0.56551 0.0
C470 C 0.62864 0.89139 0.37991 0.0
O471 O 0.63692 0.91233 0.36414 0.0
N472 N 0.5737 0.91709 0.31206 0.0
C473 C 0.5519 0.92289 0.28589 0.0
C474 C 0.55067 0.92394 0.18591 0.0
C475 C 0.58551 0.91465 0.22753 0.0
N476 N 0.57178 0.91883 0.14923 0.0
C477 C 0.54087 0.88998 0.50905 0.0
C478 C 0.54598 0.85119 0.39191 0.0
C479 C 0.52572 0.8535 0.447 0.0
C480 C 0.5231 0.87324 0.50597 0.0
C481 C 0.56294 0.86837 0.39539 0.0
N482 N 0.5606 0.88734 0.45469 0.0
H483 H 0.53835 0.90545 0.55205 0.0
H484 H 0.57736 0.86672 0.3457 0.0
H485 H 0.53772 0.92581 0.33627 0.0
H486 H 0.60344 0.90928 0.22305 0.0
O487 O 0.56508 0.93896 0.48367 0.0
O488 O 0.60207 0.94023 0.44041 0.0
O489 O 0.6075 0.88878 0.40521 0.0
C490 C 0.58364 0.95142 0.46862 0.0
H491 H 0.62979 0.89604 0.7557 0.0
H492 H 0.5354 0.92812 0.14336 0.0
H493 H 0.54826 0.83663 0.34281 0.0
H494 H 0.50739 0.87582 0.54815 0.0
Co495 Co 0.03329 0.09587 0.96188 0.0
C496 C 0.03622 0.0985 0.17838 0.0
C497 C 0.00357 0.11107 0.12413 0.0
C498 C 1.00323 0.11238 0.22416 0.0
N499 N 0.02433 0.10261 0.0952 0.0
N500 N 0.02371 0.10449 0.25803 0.0
H501 H 0.05344 0.09097 0.18082 0.0
H502 H 0.98925 0.11535 0.07648 0.0
C503 C 0.0105 0.13809 0.86989 0.0
O504 O 0.02997 0.14391 0.826 0.0
N505 N 0.04167 0.08843 0.8266 0.0
C506 C 0.05866 0.07377 0.79731 0.0
C507 C 0.05937 0.07317 0.69729 0.0
C508 C 0.03149 0.09545 0.74257 0.0
N509 N 0.04243 0.08701 0.66268 0.0
C510 C 0.07915 0.11449 0.93437 0.0
C511 C 0.06945 0.15949 0.99093 0.0
C512 C 0.09052 0.15474 0.94372 0.0
C513 C 0.09571 0.1318 0.91913 0.0
C514 C 0.0532 0.14154 1.00404 0.0
N515 N 0.05746 0.11978 0.968 0.0
H516 H 0.08376 0.0969 0.91707 0.0
H517 H 0.03662 0.14555 0.03703 0.0
H518 H 0.07006 0.06406 0.8449 0.0
H519 H 0.01584 0.10569 0.73917 0.0
O520 O 0.05131 0.06977 1.00685 0.0
O521 O 0.01416 0.06807 0.96605 0.0
O522 O 0.00896 0.11906 0.91773 0.0
C523 C 0.03271 0.05721 0.99624 0.0
H524 H 0.98867 0.11774 0.26887 0.0
H525 H 0.07165 0.0635 0.65344 0.0
H526 H 0.0652 0.177 1.01358 0.0
H527 H 0.11229 0.12737 0.88664 0.0
C528 C 0.09523 0.60676 0.6306 0.0
C529 C 0.0913 0.58983 0.70297 0.0
C530 C 0.09128 0.60196 0.53165 0.0
C531 C 0.08348 0.57996 0.50125 0.0
H532 H 0.10122 0.6239 0.65102 0.0
H533 H 0.09399 0.61571 0.47874 0.0
S534 S 0.07343 0.5288 0.66202 0.0
N535 N 0.08081 0.54982 0.73758 0.0
N536 N 0.07387 0.5405 0.55184 0.0
C537 C 0.08009 0.56268 0.57309 0.0
C538 C 0.08388 0.56769 0.67384 0.0
C539 C 0.72255 0.80192 0.87341 0.0
C540 C 0.73273 0.78765 0.94543 0.0
C541 C 0.72389 0.7963 0.774 0.0
C542 C 0.73534 0.77611 0.74261 0.0
H543 H 0.71294 0.8173 0.89419 0.0
H544 H 0.71516 0.80737 0.72163 0.0
S545 S 0.76723 0.73431 0.89917 0.0
N546 N 0.75651 0.75349 0.97652 0.0
N547 N 0.75852 0.74271 0.78986 0.0
C548 C 0.74618 0.76203 0.81313 0.0
C549 C 0.74498 0.76783 0.91441 0.0
C550 C 0.52573 0.39986 0.13161 0.0
C551 C 0.53167 0.41627 0.20327 0.0
C552 C 0.53018 0.40405 0.03237 0.0
C553 C 0.5406 0.42489 1.00095 0.0
H554 H 0.5178 0.38353 0.15279 0.0
H555 H 0.52584 0.39068 0.98004 0.0
S556 S 0.55682 0.47464 0.15891 0.0
N557 N 0.5469 0.4548 0.23564 0.0
N558 N 0.55497 0.46292 0.04935 0.0
C559 C 0.54606 0.44171 0.07186 0.0
C560 C 0.54168 0.43733 0.17291 0.0
C561 C 0.91449 0.21965 0.35456 0.0
C562 C 0.89741 0.2234 0.42631 0.0
C563 C 0.90982 0.2236 0.2554 0.0
C564 C 0.8878 0.23123 0.22424 0.0
H565 H 0.93166 0.21383 0.37565 0.0
H566 H 0.92366 0.22107 0.20295 0.0
S567 S 0.83631 0.24069 0.38314 0.0
N568 N 0.85728 0.23348 0.4595 0.0
N569 N 0.84818 0.2404 0.27336 0.0
C570 C 0.87038 0.23438 0.29543 0.0
C571 C 0.87526 0.23061 0.39637 0.0
C572 C 0.07781 0.42756 0.38117 0.0
C573 C 0.08691 0.40622 0.3499 0.0
C574 C 0.07377 0.43183 0.48045 0.0
C575 C 0.07843 0.41482 0.55212 0.0
H576 H 0.0744 0.44124 0.32867 0.0
H577 H 0.06725 0.44875 0.50123 0.0
S578 S 0.10035 0.35518 0.50518 0.0
N579 N 0.09943 0.36751 0.3963 0.0
N580 N 0.09115 0.3751 0.58258 0.0
C581 C 0.08703 0.39316 0.52096 0.0
C582 C 0.09141 0.38897 0.41997 0.0
C583 C 0.90679 0.76043 0.6742 0.0
C584 C 0.90723 0.78342 0.63912 0.0
C585 C 0.9027 0.7556 0.77322 0.0
C586 C 0.899 0.77357 0.84095 0.0
H587 H 0.91008 0.7461 0.6251 0.0
H588 H 0.90285 0.73767 0.79746 0.0
S589 S 0.89559 0.83649 0.78515 0.0
N590 N 0.90148 0.82422 0.67922 0.0
N591 N 0.89429 0.81503 0.86517 0.0
C592 C 0.89886 0.79656 0.80671 0.0
C593 C 0.90283 0.80151 0.70588 0.0
C594 C 0.55392 0.58878 0.87068 0.0
C595 C 0.5343 0.60059 0.83621 0.0
C596 C 0.5561 0.58292 0.96943 0.0
C597 C 0.53848 0.58816 0.03791 0.0
H598 H 0.56796 0.58458 0.82109 0.0
H599 H 0.57204 0.5746 0.99202 0.0
S600 S 0.48255 0.61737 0.98052 0.0
N601 N 0.49654 0.61674 0.87525 0.0
N602 N 0.49992 0.60479 0.06062 0.0
C603 C 0.51843 0.59957 1.00323 0.0
C604 C 0.5165 0.60597 0.90253 0.0
C605 C 0.71486 0.24705 0.22822 0.0
C606 C 0.72238 0.23045 0.29698 0.0
C607 C 0.71236 0.24139 0.12917 0.0
C608 C 0.71736 0.21892 0.09494 0.0
H609 H 0.71051 0.26447 0.2516 0.0
H610 H 0.70604 0.25457 0.07933 0.0
S611 S 0.74036 0.16999 0.24368 0.0
N612 N 0.73643 0.19119 0.32291 0.0
N613 N 0.73214 0.18054 0.13703 0.0
C614 C 0.72553 0.20234 0.16271 0.0
C615 C 0.72791 0.2081 0.2636 0.0
C616 C 0.40989 0.2959 0.26663 0.0
C617 C 0.38861 0.28633 0.29693 0.0
C618 C 0.41544 0.2979 0.16711 0.0
C619 C 0.40001 0.29031 0.09384 0.0
H620 H 0.42284 0.30069 0.32008 0.0
H621 H 0.43232 0.30478 0.1476 0.0
S622 S 0.34061 0.2669 0.13636 0.0
N623 N 0.35083 0.27199 0.24662 0.0
N624 N 0.36154 0.27454 0.06041 0.0
C625 C 0.37804 0.28205 0.12361 0.0
C626 C 0.37232 0.28034 0.22486 0.0
C627 C 0.20204 0.71209 0.66483 0.0
C628 C 0.21725 0.7202 0.59129 0.0
C629 C 0.20749 0.71422 0.76425 0.0
C630 C 0.22844 0.72444 0.79416 0.0
H631 H 0.18539 0.70468 0.6456 0.0
H632 H 0.19467 0.70901 0.81791 0.0
S633 S 0.2759 0.74539 0.63287 0.0
N634 N 0.25523 0.73716 0.55725 0.0
N635 N 0.2658 0.73993 0.7433 0.0
C636 C 0.24458 0.73095 0.72186 0.0
C637 C 0.23895 0.72911 0.62071 0.0
C638 C 0.23729 0.27385 0.39878 0.0
C639 C 0.21641 0.28388 0.43073 0.0
C640 C 0.24121 0.2695 0.29948 0.0
C641 C 0.22429 0.27476 0.22844 0.0
H642 H 0.25089 0.26992 0.45076 0.0
H643 H 0.25779 0.26223 0.27818 0.0
S644 S 0.16573 0.29924 0.27728 0.0
N645 N 0.17818 0.29795 0.3856 0.0
N646 N 0.18512 0.28913 0.19931 0.0
C647 C 0.20308 0.28434 0.26026 0.0
C648 C 0.19925 0.28902 0.36128 0.0
C649 C 0.39094 0.7474 0.81594 0.0
C650 C 0.38893 0.72923 0.74799 0.0
C651 C 0.39531 0.74286 0.91489 0.0
C652 C 0.3977 0.71995 0.94958 0.0
H653 H 0.38952 0.76529 0.79191 0.0
H654 H 0.39728 0.75737 0.96423 0.0
S655 S 0.39093 0.6662 0.80259 0.0
N656 N 0.38789 0.68755 0.72294 0.0
N657 N 0.39555 0.67883 0.90879 0.0
C658 C 0.39497 0.7016 0.88253 0.0
C659 C 0.39075 0.70629 0.78179 0.0
C660 C 0.56138 0.07906 0.03755 0.0
C661 C 0.57907 0.08338 0.96816 0.0
C662 C 0.56434 0.08435 0.1364 0.0
C663 C 0.58487 0.09463 0.16986 0.0
H664 H 0.54483 0.07195 1.01554 0.0
H665 H 0.55021 0.081 0.1868 0.0
S666 S 0.63714 0.10833 0.02291 0.0
N667 N 0.61864 0.0973 0.94351 0.0
N668 N 0.6235 0.10827 0.12905 0.0
C669 C 0.60275 0.099 0.10266 0.0
C670 C 0.60002 0.09317 1.00193 0.0
C671 C 0.04049 0.93423 0.64938 0.0
C672 C 0.02961 0.91379 0.68174 0.0
C673 C 0.0451 0.93792 0.55 0.0
C674 C 0.03923 0.92118 0.4792 0.0
H675 H 0.04497 0.94768 0.70113 0.0
H676 H 0.05308 0.95417 0.52847 0.0
S677 S 0.01233 0.86368 0.52893 0.0
N678 N 0.01404 0.87612 0.63709 0.0
N679 N 0.02328 0.88262 0.45067 0.0
C680 C 0.02874 0.90041 0.51136 0.0
C681 C 0.02382 0.89681 0.61248 0.0
C682 C 0.56135 0.90871 0.97962 0.0
C683 C 0.57771 0.91718 0.04718 0.0
C684 C 0.56676 0.90679 0.88008 0.0
C685 C 0.58874 0.91321 0.84458 0.0
H686 H 0.54439 0.90304 1.00423 0.0
H687 H 0.55393 0.89961 0.83098 0.0
S688 S 0.63666 0.93915 0.98867 0.0
N689 N 0.61604 0.93393 0.06972 0.0
N690 N 0.62625 0.93028 0.88297 0.0
C691 C 0.60499 0.9224 0.91072 0.0
C692 C 0.59948 0.92436 1.01192 0.0
C693 C 0.03844 0.0794 0.39018 0.0
C694 C 0.02949 0.10084 0.35893 0.0
C695 C 0.04236 0.07494 0.48949 0.0
C696 C 0.03767 0.09185 0.56114 0.0
H697 H 0.04181 0.06578 0.33768 0.0
H698 H 0.04878 0.05797 0.51036 0.0
S699 S 0.01635 0.15176 0.51434 0.0
N700 N 0.01728 0.1396 0.40541 0.0
N701 N 0.02527 0.13161 0.59172 0.0
C702 C 0.02929 0.11363 0.53002 0.0
C703 C 0.02508 0.11803 0.42903 0.0
C704 C 0.06588 0.51162 0.03275 0.0
C705 C 0.08703 0.52374 0.03967 0.0
C706 C 0.06539 0.48763 1.01505 0.0
C707 C 0.08602 0.47484 1.00235 0.0
H708 H 0.04953 0.52064 0.04251 0.0
H709 H 0.04866 0.47908 1.01097 0.0
S710 S 0.14598 0.49851 1.01027 0.0
N711 N 0.12916 0.52123 0.03045 0.0
N712 N 0.12824 0.47624 0.99628 0.0
C713 C 0.1073 0.48681 1.00763 0.0
C714 C 0.1078 0.51122 0.02658 0.0
C715 C 0.82973 0.798 0.30517 0.0
C716 C 0.84188 0.77692 0.29565 0.0
C717 C 0.80561 0.79835 0.32077 0.0
C718 C 0.79261 0.77765 0.32608 0.0
H719 H 0.83889 0.81441 0.30049 0.0
H720 H 0.79706 0.81505 0.32686 0.0
S721 S 0.81609 0.71778 0.30674 0.0
N722 N 0.83905 0.73472 0.29421 0.0
N723 N 0.79379 0.73544 0.32204 0.0
C724 C 0.80455 0.75644 0.31728 0.0
C725 C 0.82915 0.75606 0.30255 0.0
C726 C 0.51904 0.51975 0.52821 0.0
C727 C 0.54003 0.53161 0.51033 0.0
C728 C 0.51863 0.49573 0.54682 0.0
C729 C 0.53917 0.48243 0.54733 0.0
H730 H 0.5027 0.52909 0.52775 0.0
H731 H 0.502 0.4875 0.56007 0.0
S732 S 0.5988 0.505 0.50475 0.0
N733 N 0.58199 0.52812 0.49497 0.0
N734 N 0.58121 0.48307 0.52879 0.0
C735 C 0.56031 0.49406 0.52967 0.0
C736 C 0.56075 0.51858 0.51161 0.0
C737 C 0.81833 0.24646 0.76343 0.0
C738 C 0.83109 0.22564 0.77013 0.0
C739 C 0.79422 0.24631 0.74795 0.0
C740 C 0.78192 0.22535 0.73712 0.0
H741 H 0.82696 0.26307 0.7715 0.0
H742 H 0.7852 0.2628 0.74392 0.0
S743 S 0.80721 0.16601 0.74671 0.0
N744 N 0.8296 0.18345 0.76382 0.0
N745 N 0.78443 0.18315 0.73353 0.0
C746 C 0.7945 0.20439 0.74259 0.0
C747 C 0.81902 0.20454 0.75947 0.0
C748 C 0.29764 0.2619 0.76952 0.0
C749 C 0.28497 0.28248 0.78501 0.0
C750 C 0.32176 0.26231 0.75499 0.0
C751 C 0.33427 0.28333 0.75437 0.0
H752 H 0.28889 0.24524 0.76887 0.0
H753 H 0.33059 0.24595 0.74286 0.0
S754 S 0.30947 0.34215 0.79254 0.0
N755 N 0.28687 0.32456 0.80005 0.0
N756 N 0.33216 0.32532 0.77183 0.0
C757 C 0.32187 0.30407 0.77013 0.0
C758 C 0.29727 0.30364 0.78573 0.0
C759 C 0.2959 0.74738 0.25652 0.0
C760 C 0.28273 0.7268 0.25322 0.0
C761 C 0.31994 0.74685 0.27391 0.0
C762 C 0.33176 0.72573 0.28951 0.0
H763 H 0.28765 0.76406 0.2446 0.0
H764 H 0.32927 0.76318 0.27566 0.0
S765 S 0.30524 0.66691 0.29027 0.0
N766 N 0.28333 0.68465 0.26826 0.0
N767 N 0.32833 0.68369 0.30128 0.0
C768 C 0.31877 0.70503 0.28716 0.0
C769 C 0.29432 0.70556 0.26894 0.0
C770 C 0.56201 0.01334 0.50488 0.0
C771 C 0.58259 0.02655 0.50661 0.0
C772 C 0.56253 0.9891 0.49304 0.0
C773 C 0.58365 0.97708 0.48144 0.0
H774 H 0.5453 0.0217 0.51435 0.0
H775 H 0.5462 0.97975 0.49279 0.0
S776 S 0.6425 0.00357 0.47858 0.0
N777 N 0.62474 0.02576 0.49449 0.0
N778 N 0.62573 0.98037 0.47142 0.0
C779 C 0.60436 0.99011 0.48182 0.0
C780 C 0.60384 0.01478 0.49464 0.0
C781 C 0.01255 0.99455 0.03247 0.0
C782 C 0.03359 0.98223 0.04062 0.0
C783 C 0.01233 0.0188 1.01824 0.0
C784 C 0.03312 0.03167 1.01324 0.0
H785 H 0.99613 0.98538 0.0357 0.0
H786 H 0.99573 0.0275 1.01132 0.0
S787 S 0.09288 0.00773 0.0338 0.0
N788 N 0.07576 0.98487 0.04448 0.0
N789 N 0.07535 0.03014 1.01917 0.0
C790 C 0.05425 0.01954 0.02281 0.0
C791 C 0.05448 0.99492 0.03607 0.0
C792 C 0.15272 0.67968 0.1894 0.0
C793 C 0.17484 0.66925 0.18667 0.0
C794 C 0.13247 0.66616 0.1953 0.0
C795 C 0.13362 0.64176 0.1966 0.0
H796 H 0.15104 0.69843 0.18919 0.0
H797 H 0.1158 0.67489 0.19684 0.0
S798 S 0.18725 0.60603 0.18893 0.0
N799 N 0.19667 0.63312 0.18554 0.0
N800 N 0.15864 0.60771 0.19391 0.0
C801 C 0.15561 0.63114 0.19274 0.0
C802 C 0.17621 0.64489 0.18853 0.0
C803 C 0.66767 0.87253 0.35542 0.0
C804 C 0.64472 0.87126 0.39079 0.0
C805 C 0.68366 0.85453 0.37301 0.0
C806 C 0.67748 0.83494 0.42892 0.0
H807 H 0.67339 0.8876 0.31436 0.0
H808 H 0.70113 0.85617 0.34424 0.0
S809 S 0.61942 0.82227 0.53393 0.0
N810 N 0.61644 0.84781 0.48049 0.0
N811 N 0.64669 0.81464 0.51527 0.0
C812 C 0.65459 0.83323 0.46352 0.0
C813 C 0.63816 0.8512 0.44389 0.0
C814 C 0.46635 0.37592 0.70107 0.0
C815 C 0.48811 0.36481 0.69925 0.0
C816 C 0.44561 0.3631 0.69725 0.0
C817 C 0.44583 0.33874 0.68814 0.0
H818 H 0.46536 0.39467 0.70681 0.0
H819 H 0.42926 0.37238 0.7012 0.0
S820 S 0.49846 0.3015 0.67408 0.0
N821 N 0.50874 0.32815 0.68521 0.0
N822 N 0.46989 0.3041 0.67446 0.0
C823 C 0.46755 0.32748 0.68357 0.0
C824 C 0.48865 0.3405 0.69017 0.0
C825 C 0.99668 0.17903 0.88594 0.0
C826 C 0.99142 0.15524 0.87792 0.0
C827 C 0.97918 0.19554 0.90247 0.0
C828 C 0.9557 0.18894 0.90956 0.0
H829 H 0.01454 0.18492 0.88164 0.0
H830 H 0.98406 0.21368 0.90753 0.0
S831 S 0.9327 0.1289 0.89204 0.0
N832 N 0.96107 0.12589 0.87874 0.0
N833 N 0.92808 0.15702 0.90635 0.0
C834 C 0.95017 0.16525 0.90053 0.0
C835 C 0.96805 0.14838 0.88577 0.0
C836 C 0.13543 0.31043 0.90038 0.0
C837 C 0.15886 0.31715 0.90793 0.0
C838 C 0.11792 0.32683 0.88196 0.0
C839 C 0.12316 0.3506 0.87222 0.0
H840 H 0.13061 0.29228 0.90666 0.0
H841 H 0.10009 0.3209 0.87768 0.0
S842 S 0.18176 0.37719 0.88642 0.0
N843 N 0.1864 0.34915 0.9034 0.0
N844 N 0.15344 0.38005 0.87153 0.0
C845 C 0.1465 0.35756 0.88021 0.0
C846 C 0.16436 0.34082 0.89724 0.0
C847 C 0.00452 0.83228 0.16225 0.0
C848 C 0.99751 0.85568 0.16657 0.0
C849 C 0.98825 0.81431 0.15176 0.0
C850 C 0.96429 0.81901 0.14732 0.0
H851 H 0.02279 0.82779 0.16504 0.0
H852 H 0.99447 0.79655 0.14932 0.0
S853 S 0.93687 0.87728 0.1564 0.0
N854 N 0.96499 0.8826 0.1647 0.0
N855 N 0.93433 0.84876 0.14841 0.0
C856 C 0.95701 0.8423 0.15244 0.0
C857 C 0.97364 0.86065 0.161 0.0
C858 C 0.48903 0.66046 0.42179 0.0
C859 C 0.47874 0.63825 0.42656 0.0
C860 C 0.47556 0.68076 0.42861 0.0
C861 C 0.45125 0.67967 0.43799 0.0
H862 H 0.50769 0.66223 0.4151 0.0
H863 H 0.48425 0.69745 0.42475 0.0
S864 S 0.41567 0.62598 0.44963 0.0
N865 N 0.44265 0.61652 0.4397 0.0
N866 N 0.41736 0.65462 0.44928 0.0
C867 C 0.44069 0.65764 0.44054 0.0
C868 C 0.45442 0.63697 0.43564 0.0
C869 C 0.67401 0.15795 0.58799 0.0
C870 C 0.66293 0.17967 0.594 0.0
C871 C 0.66116 0.13723 0.58682 0.0
C872 C 0.63677 0.13739 0.59461 0.0
H873 H 0.69277 0.15699 0.58279 0.0
H874 H 0.67045 0.12095 0.57978 0.0
S875 S 0.59968 0.18997 0.61989 0.0
N876 N 0.62638 0.20026 0.61145 0.0
N877 N 0.60218 0.16144 0.6133 0.0
C878 C 0.62556 0.15909 0.60386 0.0
C879 C 0.63865 0.1802 0.60232 0.0
C880 C 1.00176 0.33046 0.82132 0.0
C881 C 0.00742 0.3346 0.91969 0.0
C882 C 0.98492 0.31393 0.79566 0.0
C883 C 0.97291 0.30137 0.86773 0.0
H884 H 0.01031 0.34024 0.7639 0.0
H885 H 0.98081 0.31142 0.71931 0.0
S886 S 0.98157 0.30539 0.13507 0.0
N887 N 1.00016 0.32436 0.08891 0.0
N888 N 0.96811 0.29365 0.04093 0.0
C889 C 0.97862 0.30511 0.96612 0.0
C890 C 0.99601 0.32163 0.99209 0.0
C891 C 0.47896 0.16084 0.61192 0.0
C892 C 0.50285 0.16581 0.60573 0.0
C893 C 0.46261 0.17865 0.62651 0.0
C894 C 0.46959 0.20202 0.63423 0.0
H895 H 0.47293 0.14305 0.60765 0.0
H896 H 0.44438 0.17411 0.63117 0.0
S897 S 0.53007 0.22415 0.62035 0.0
N898 N 0.5326 0.1958 0.6056 0.0
N899 N 0.50202 0.2291 0.63456 0.0
C900 C 0.49341 0.20719 0.62694 0.0
C901 C 0.50999 0.18912 0.61231 0.0
C902 C 0.65556 0.68362 0.35187 0.0
C903 C 0.64917 0.70639 0.32492 0.0
C904 C 0.63876 0.66632 0.36925 0.0
C905 C 0.61482 0.67107 0.36115 0.0
H906 H 0.67369 0.67922 0.36214 0.0
H907 H 0.64463 0.64907 0.38908 0.0
S908 S 0.58882 0.72787 0.29091 0.0
N909 N 0.6171 0.73231 0.28547 0.0
N910 N 0.58568 0.70062 0.32613 0.0
C911 C 0.60821 0.69379 0.33395 0.0
C912 C 0.6253 0.71119 0.31389 0.0
C913 C 0.13498 0.84462 0.06653 0.0
C914 C 0.11113 0.84073 0.08428 0.0
C915 C 0.1517 0.82761 0.08805 0.0
C916 C 0.14519 0.80598 0.12704 0.0
H917 H 0.1408 0.86093 0.0353 0.0
H918 H 0.16981 0.83125 0.0726 0.0
S919 S 0.08558 0.7872 0.19219 0.0
N920 N 0.08225 0.81375 0.14835 0.0
N921 N 0.11366 0.78158 0.1849 0.0
C922 C 0.12156 0.80176 0.14512 0.0
C923 C 0.10454 0.81915 0.12457 0.0
C924 C 0.99509 0.69019 0.26921 0.0
C925 C 0.98353 0.70298 0.19666 0.0
C926 C 0.01106 0.67274 0.24414 0.0
C927 C 0.01626 0.66784 0.14587 0.0
H928 H 0.9912 0.6932 0.34549 0.0
H929 H 0.01925 0.66282 0.30193 0.0
S930 S 0.99122 0.69712 0.92932 0.0
N931 N 0.97861 0.70999 0.02311 0.0
N932 N 0.00904 0.67756 0.97618 0.0
C933 C 0.00533 0.68101 0.07296 0.0
C934 C 0.98882 0.69848 0.09837 0.0
C935 C 0.13921 0.19895 0.9592 0.0
C936 C 0.14226 0.20572 0.86107 0.0
C937 C 0.12174 0.18315 0.98652 0.0
C938 C 0.10695 0.17342 0.91639 0.0
H939 H 0.15054 0.20581 1.01518 0.0
H940 H 0.12023 0.17801 0.06236 0.0
S941 S 0.1075 0.18542 0.65063 0.0
N942 N 0.12869 0.20172 0.69429 0.0
N943 N 0.09614 0.17172 0.74547 0.0
C944 C 0.10958 0.18024 0.81848 0.0
C945 C 0.12714 0.19652 0.79082 0.0
C946 C 0.6244 0.2987 0.60991 0.0
C947 C 0.63885 0.30016 0.69234 0.0
C948 C 0.6085 0.3165 0.5873 0.0
C949 C 0.60639 0.33637 0.64665 0.0
H950 H 0.62598 0.28407 0.56079 0.0
H951 H 0.5983 0.315 0.5213 0.0
S952 S 0.63833 0.34673 0.87805 0.0
N953 N 0.64896 0.32195 0.83713 0.0
N954 N 0.61863 0.35495 0.79758 0.0
C955 C 0.62008 0.33736 0.73191 0.0
C956 C 0.63641 0.3194 0.75397 0.0
C957 C 0.48509 0.84271 0.40044 0.0
C958 C 0.50698 0.836 0.43584 0.0
C959 C 0.46807 0.82608 0.37808 0.0
C960 C 0.47222 0.8021 0.39093 0.0
H961 H 0.48137 0.86089 0.38693 0.0
H962 H 0.45166 0.83207 0.34877 0.0
S963 S 0.5262 0.77589 0.49051 0.0
N964 N 0.53164 0.80405 0.48737 0.0
N965 N 0.49951 0.77281 0.44848 0.0
C966 C 0.4939 0.79529 0.42902 0.0
C967 C 0.51127 0.81222 0.45081 0.0
loop_
_geom_bond_atom_site_label_1
_geom_bond_atom_site_label_2
_geom_bond_distance
_geom_bond_site_symmetry_2
_ccdc_geom_bond_type
Co0 N4 2.148 1_554 S
Co0 N10 2.128 . S
Co0 N20 2.194 . S
Co0 O25 2.351 . S
Co0 O26 2.155 . S
Co0 O27 2.096 . S
C1 N4 1.301 . S
C1 N5 1.328 . S
C1 H6 0.930 . S
C2 C3 1.333 . S
C2 N4 1.317 . S
C2 H7 0.930 . S
C3 C2 1.333 . S
C3 N5 1.350 . S
C3 H29 0.931 . S
N4 Co0 2.148 1_556 S
N4 C1 1.301 . S
N4 C2 1.317 . S
N5 C1 1.328 . S
N5 C3 1.350 . S
H6 C1 0.930 . S
H7 C2 0.930 . S
C8 O9 1.224 . S
C8 O27 1.247 . S
O9 C8 1.224 . S
N10 Co0 2.128 . S
N10 C11 1.355 . S
N10 C13 1.311 . S
C11 N10 1.355 . S
C11 C12 1.363 . S
C11 H23 0.929 . S
C12 C11 1.363 . S
C12 N14 1.375 . S
C12 H30 0.931 . S
C13 N10 1.311 . S
C13 N14 1.347 . S
C13 H24 0.929 . S
N14 C12 1.375 . S
N14 C13 1.347 . S
C15 C18 1.365 . S
C15 N20 1.328 . S
C15 H21 0.929 . S
C16 C17 1.362 . S
C16 C19 1.378 . S
C16 H31 0.929 . S
C17 C16 1.362 . S
C17 C18 1.366 . S
C18 C15 1.365 . S
C18 C17 1.366 . S
C18 H32 0.930 1_455 S
C19 C16 1.378 . S
C19 N20 1.315 . S
C19 H22 0.930 . S
N20 Co0 2.194 . S
N20 C15 1.328 . S
N20 C19 1.315 . S
H21 C15 0.929 . S
H22 C19 0.930 . S
H23 C11 0.929 . S
H24 C13 0.929 . S
O25 Co0 2.351 . S
O25 C28 1.244 . S
O26 Co0 2.155 . S
O26 C28 1.240 . S
O27 Co0 2.096 . S
O27 C8 1.247 . S
C28 O25 1.244 . S
C28 O26 1.240 . S
H29 C3 0.931 . S
H30 C12 0.931 . S
H31 C16 0.929 . S
H32 C18 0.930 1_655 S
Co33 N37 2.148 . S
Co33 N43 2.128 . S
Co33 N53 2.194 . S
Co33 O58 2.351 . S
Co33 O59 2.155 . S
Co33 O60 2.096 . S
C34 N37 1.301 . S
C34 N38 1.328 . S
C34 H39 0.930 . S
C35 C36 1.333 . S
C35 N37 1.317 . S
C35 H40 0.930 . S
C36 C35 1.333 . S
C36 N38 1.350 . S
C36 H62 0.931 . S
N37 Co33 2.148 . S
N37 C34 1.301 . S
N37 C35 1.317 . S
N38 C34 1.328 . S
N38 C36 1.350 . S
H39 C34 0.930 . S
H40 C35 0.930 . S
C41 O42 1.224 . S
C41 O60 1.247 . S
O42 C41 1.224 . S
N43 Co33 2.128 . S
N43 C44 1.355 . S
N43 C46 1.311 . S
C44 N43 1.355 . S
C44 C45 1.363 . S
C44 H56 0.929 . S
C45 C44 1.363 . S
C45 N47 1.375 . S
C45 H63 0.931 . S
C46 N43 1.311 . S
C46 N47 1.347 . S
C46 H57 0.929 . S
N47 C45 1.375 . S
N47 C46 1.347 . S
C48 C51 1.365 . S
C48 N53 1.328 . S
C48 H54 0.929 . S
C49 C50 1.362 . S
C49 C52 1.378 . S
C49 H64 0.929 . S
C50 C49 1.362 . S
C50 C51 1.366 . S
C51 C48 1.365 . S
C51 C50 1.366 . S
C51 H65 0.930 . S
C52 C49 1.378 . S
C52 N53 1.315 . S
C52 H55 0.930 . S
N53 Co33 2.194 . S
N53 C48 1.328 . S
N53 C52 1.315 . S
H54 C48 0.929 . S
H55 C52 0.930 . S
H56 C44 0.929 . S
H57 C46 0.929 . S
O58 Co33 2.351 . S
O58 C61 1.244 . S
O59 Co33 2.155 . S
O59 C61 1.240 . S
O60 Co33 2.096 . S
O60 C41 1.247 . S
C61 O58 1.244 . S
C61 O59 1.240 . S
H62 C36 0.931 . S
H63 C45 0.931 . S
H64 C49 0.929 . S
H65 C51 0.930 . S
Co66 N70 2.148 . S
Co66 N76 2.128 . S
Co66 N86 2.194 . S
Co66 O91 2.351 . S
Co66 O92 2.155 . S
Co66 O93 2.096 . S
C67 N70 1.301 . S
C67 N71 1.328 . S
C67 H72 0.930 . S
C68 C69 1.333 . S
C68 N70 1.317 . S
C68 H73 0.930 . S
C69 C68 1.333 . S
C69 N71 1.350 . S
C69 H95 0.931 . S
N70 Co66 2.148 . S
N70 C67 1.301 . S
N70 C68 1.317 . S
N71 C67 1.328 . S
N71 C69 1.350 . S
H72 C67 0.930 . S
H73 C68 0.930 . S
C74 O75 1.224 . S
C74 O93 1.247 . S
O75 C74 1.224 . S
N76 Co66 2.128 . S
N76 C77 1.355 . S
N76 C79 1.311 . S
C77 N76 1.355 . S
C77 C78 1.363 . S
C77 H89 0.929 . S
C78 C77 1.363 . S
C78 N80 1.375 . S
C78 H96 0.931 . S
C79 N76 1.311 . S
C79 N80 1.347 . S
C79 H90 0.929 . S
N80 C78 1.375 . S
N80 C79 1.347 . S
C81 C84 1.365 . S
C81 N86 1.328 . S
C81 H87 0.929 . S
C82 C83 1.362 . S
C82 C85 1.378 . S
C82 H97 0.929 . S
C83 C82 1.362 . S
C83 C84 1.366 . S
C84 C81 1.365 . S
C84 C83 1.366 . S
C84 H98 0.930 . S
C85 C82 1.378 . S
C85 N86 1.315 . S
C85 H88 0.930 . S
N86 Co66 2.194 . S
N86 C81 1.328 . S
N86 C85 1.315 . S
H87 C81 0.929 . S
H88 C85 0.930 . S
H89 C77 0.929 . S
H90 C79 0.929 . S
O91 Co66 2.351 . S
O91 C94 1.244 . S
O92 Co66 2.155 . S
O92 C94 1.240 . S
O93 Co66 2.096 . S
O93 C74 1.247 . S
C94 O91 1.244 . S
C94 O92 1.240 . S
H95 C69 0.931 . S
H96 C78 0.931 . S
H97 C82 0.929 . S
H98 C84 0.930 . S
Co99 N103 2.148 . S
Co99 N109 2.128 . S
Co99 N119 2.194 . S
Co99 O124 2.351 . S
Co99 O125 2.155 . S
Co99 O126 2.096 . S
C100 N103 1.301 . S
C100 N104 1.328 . S
C100 H105 0.930 . S
C101 C102 1.333 . S
C101 N103 1.317 . S
C101 H106 0.930 . S
C102 C101 1.333 . S
C102 N104 1.350 . S
C102 H128 0.931 . S
N103 Co99 2.148 . S
N103 C100 1.301 . S
N103 C101 1.317 . S
N104 C100 1.328 . S
N104 C102 1.350 . S
H105 C100 0.930 . S
H106 C101 0.930 . S
C107 O108 1.224 . S
C107 O126 1.247 . S
O108 C107 1.224 . S
N109 Co99 2.128 . S
N109 C110 1.355 1_556 S
N109 C112 1.311 1_556 S
C110 N109 1.355 1_554 S
C110 C111 1.363 . S
C110 H122 0.929 1_554 S
C111 C110 1.363 . S
C111 N113 1.375 . S
C111 H129 0.931 . S
C112 N109 1.311 1_554 S
C112 N113 1.347 . S
C112 H123 0.929 . S
N113 C111 1.375 . S
N113 C112 1.347 . S
C114 C117 1.365 . S
C114 N119 1.328 . S
C114 H120 0.929 . S
C115 C116 1.362 . S
C115 C118 1.378 . S
C115 H130 0.929 . S
C116 C115 1.362 . S
C116 C117 1.366 . S
C117 C114 1.365 . S
C117 C116 1.366 . S
C117 H131 0.930 . S
C118 C115 1.378 . S
C118 N119 1.315 . S
C118 H121 0.930 . S
N119 Co99 2.194 . S
N119 C114 1.328 . S
N119 C118 1.315 . S
H120 C114 0.929 . S
H121 C118 0.930 . S
H122 C110 0.929 1_556 S
H123 C112 0.929 . S
O124 Co99 2.351 . S
O124 C127 1.244 . S
O125 Co99 2.155 . S
O125 C127 1.240 . S
O126 Co99 2.096 . S
O126 C107 1.247 . S
C127 O124 1.244 . S
C127 O125 1.240 . S
H128 C102 0.931 . S
H129 C111 0.931 . S
H130 C115 0.929 . S
H131 C117 0.930 . S
Co132 N136 2.148 1_556 S
Co132 N142 2.128 . S
Co132 N152 2.194 . S
Co132 O157 2.351 . S
Co132 O158 2.155 . S
Co132 O159 2.096 . S
C133 N136 1.301 . S
C133 N137 1.328 . S
C133 H138 0.930 . S
C134 C135 1.333 . S
C134 N136 1.317 . S
C134 H139 0.930 . S
C135 C134 1.333 . S
C135 N137 1.350 . S
C135 H161 0.931 . S
N136 Co132 2.148 1_554 S
N136 C133 1.301 . S
N136 C134 1.317 . S
N137 C133 1.328 . S
N137 C135 1.350 . S
H138 C133 0.930 . S
H139 C134 0.930 . S
C140 O141 1.224 . S
C140 O159 1.247 . S
O141 C140 1.224 . S
N142 Co132 2.128 . S
N142 C143 1.355 . S
N142 C145 1.311 . S
C143 N142 1.355 . S
C143 C144 1.363 . S
C143 H155 0.929 . S
C144 C143 1.363 . S
C144 N146 1.375 . S
C144 H162 0.931 . S
C145 N142 1.311 . S
C145 N146 1.347 . S
C145 H156 0.929 . S
N146 C144 1.375 . S
N146 C145 1.347 . S
C147 C150 1.365 . S
C147 N152 1.328 . S
C147 H153 0.929 . S
C148 C149 1.362 . S
C148 C151 1.378 . S
C148 H163 0.929 . S
C149 C148 1.362 . S
C149 C150 1.366 . S
C150 C147 1.365 . S
C150 C149 1.366 . S
C150 H164 0.930 1_455 S
C151 C148 1.378 . S
C151 N152 1.315 . S
C151 H154 0.930 . S
N152 Co132 2.194 . S
N152 C147 1.328 . S
N152 C151 1.315 . S
H153 C147 0.929 . S
H154 C151 0.930 . S
H155 C143 0.929 . S
H156 C145 0.929 . S
O157 Co132 2.351 . S
O157 C160 1.244 . S
O158 Co132 2.155 . S
O158 C160 1.240 . S
O159 Co132 2.096 . S
O159 C140 1.247 . S
C160 O157 1.244 . S
C160 O158 1.240 . S
H161 C135 0.931 . S
H162 C144 0.931 . S
H163 C148 0.929 . S
H164 C150 0.930 1_655 S
Co165 N169 2.148 . S
Co165 N175 2.128 . S
Co165 N185 2.194 . S
Co165 O190 2.351 . S
Co165 O191 2.155 . S
Co165 O192 2.096 . S
C166 N169 1.301 . S
C166 N170 1.328 . S
C166 H171 0.930 . S
C167 C168 1.333 . S
C167 N169 1.317 . S
C167 H172 0.930 . S
C168 C167 1.333 . S
C168 N170 1.350 . S
C168 H194 0.931 . S
N169 Co165 2.148 . S
N169 C166 1.301 . S
N169 C167 1.317 . S
N170 C166 1.328 . S
N170 C168 1.350 . S
H171 C166 0.930 . S
H172 C167 0.930 . S
C173 O174 1.224 . S
C173 O192 1.247 . S
O174 C173 1.224 . S
N175 Co165 2.128 . S
N175 C176 1.355 1_554 S
N175 C178 1.311 1_554 S
C176 N175 1.355 1_556 S
C176 C177 1.363 . S
C176 H188 0.929 1_556 S
C177 C176 1.363 . S
C177 N179 1.375 . S
C177 H195 0.931 . S
C178 N175 1.311 1_556 S
C178 N179 1.347 . S
C178 H189 0.929 . S
N179 C177 1.375 . S
N179 C178 1.347 . S
C180 C183 1.365 . S
C180 N185 1.328 . S
C180 H186 0.929 . S
C181 C182 1.362 . S
C181 C184 1.378 . S
C181 H196 0.929 . S
C182 C181 1.362 . S
C182 C183 1.366 . S
C183 C180 1.365 . S
C183 C182 1.366 . S
C183 H197 0.930 . S
C184 C181 1.378 . S
C184 N185 1.315 . S
C184 H187 0.930 . S
N185 Co165 2.194 . S
N185 C180 1.328 . S
N185 C184 1.315 . S
H186 C180 0.929 . S
H187 C184 0.930 . S
H188 C176 0.929 1_554 S
H189 C178 0.929 . S
O190 Co165 2.351 . S
O190 C193 1.244 . S
O191 Co165 2.155 . S
O191 C193 1.240 . S
O192 Co165 2.096 . S
O192 C173 1.247 . S
C193 O190 1.244 . S
C193 O191 1.240 . S
H194 C168 0.931 . S
H195 C177 0.931 . S
H196 C181 0.929 . S
H197 C183 0.930 . S
Co198 N202 2.148 . S
Co198 N208 2.128 . S
Co198 N218 2.194 . S
Co198 O223 2.351 . S
Co198 O224 2.155 . S
Co198 O225 2.096 . S
C199 N202 1.301 . S
C199 N203 1.328 . S
C199 H204 0.930 . S
C200 C201 1.333 . S
C200 N202 1.317 . S
C200 H205 0.930 . S
C201 C200 1.333 . S
C201 N203 1.350 . S
C201 H227 0.931 . S
N202 Co198 2.148 . S
N202 C199 1.301 . S
N202 C200 1.317 . S
N203 C199 1.328 . S
N203 C201 1.350 . S
H204 C199 0.930 . S
H205 C200 0.930 . S
C206 O207 1.224 . S
C206 O225 1.247 . S
O207 C206 1.224 . S
N208 Co198 2.128 . S
N208 C209 1.355 . S
N208 C211 1.311 . S
C209 N208 1.355 . S
C209 C210 1.363 . S
C209 H221 0.929 . S
C210 C209 1.363 . S
C210 N212 1.375 . S
C210 H228 0.931 . S
C211 N208 1.311 . S
C211 N212 1.347 . S
C211 H222 0.929 . S
N212 C210 1.375 . S
N212 C211 1.347 . S
C213 C216 1.365 . S
C213 N218 1.328 . S
C213 H219 0.929 . S
C214 C215 1.362 . S
C214 C217 1.378 . S
C214 H229 0.929 . S
C215 C214 1.362 . S
C215 C216 1.366 . S
C216 C213 1.365 . S
C216 C215 1.366 . S
C216 H230 0.930 . S
C217 C214 1.378 . S
C217 N218 1.315 . S
C217 H220 0.930 . S
N218 Co198 2.194 . S
N218 C213 1.328 . S
N218 C217 1.315 . S
H219 C213 0.929 . S
H220 C217 0.930 . S
H221 C209 0.929 . S
H222 C211 0.929 . S
O223 Co198 2.351 . S
O223 C226 1.244 . S
O224 Co198 2.155 . S
O224 C226 1.240 . S
O225 Co198 2.096 . S
O225 C206 1.247 . S
C226 O223 1.244 . S
C226 O224 1.240 . S
H227 C201 0.931 . S
H228 C210 0.931 . S
H229 C214 0.929 . S
H230 C216 0.930 . S
Co231 N235 2.148 . S
Co231 N241 2.128 . S
Co231 N251 2.194 . S
Co231 O256 2.351 . S
Co231 O257 2.155 . S
Co231 O258 2.096 . S
C232 N235 1.301 . S
C232 N236 1.328 . S
C232 H237 0.930 . S
C233 C234 1.333 . S
C233 N235 1.317 . S
C233 H238 0.930 . S
C234 C233 1.333 . S
C234 N236 1.350 . S
C234 H260 0.931 . S
N235 Co231 2.148 . S
N235 C232 1.301 . S
N235 C233 1.317 . S
N236 C232 1.328 . S
N236 C234 1.350 . S
H237 C232 0.930 . S
H238 C233 0.930 . S
C239 O240 1.224 . S
C239 O258 1.247 . S
O240 C239 1.224 . S
N241 Co231 2.128 . S
N241 C242 1.355 . S
N241 C244 1.311 . S
C242 N241 1.355 . S
C242 C243 1.363 . S
C242 H254 0.929 . S
C243 C242 1.363 . S
C243 N245 1.375 . S
C243 H261 0.931 . S
C244 N241 1.311 . S
C244 N245 1.347 . S
C244 H255 0.929 . S
N245 C243 1.375 . S
N245 C244 1.347 . S
C246 C249 1.365 . S
C246 N251 1.328 . S
C246 H252 0.929 . S
C247 C248 1.362 . S
C247 C250 1.378 . S
C247 H262 0.929 . S
C248 C247 1.362 . S
C248 C249 1.366 . S
C249 C246 1.365 . S
C249 C248 1.366 . S
C249 H263 0.930 . S
C250 C247 1.378 . S
C250 N251 1.315 . S
C250 H253 0.930 . S
N251 Co231 2.194 . S
N251 C246 1.328 . S
N251 C250 1.315 . S
H252 C246 0.929 . S
H253 C250 0.930 . S
H254 C242 0.929 . S
H255 C244 0.929 . S
O256 Co231 2.351 . S
O256 C259 1.244 . S
O257 Co231 2.155 . S
O257 C259 1.240 . S
O258 Co231 2.096 . S
O258 C239 1.247 . S
C259 O256 1.244 . S
C259 O257 1.240 . S
H260 C234 0.931 . S
H261 C243 0.931 . S
H262 C247 0.929 . S
H263 C249 0.930 . S
Co264 N268 2.148 . S
Co264 N274 2.128 . S
Co264 N284 2.194 . S
Co264 O289 2.351 . S
Co264 O290 2.155 . S
Co264 O291 2.096 . S
C265 N268 1.301 . S
C265 N269 1.328 . S
C265 H270 0.930 . S
C266 C267 1.333 . S
C266 N268 1.317 . S
C266 H271 0.930 . S
C267 C266 1.333 . S
C267 N269 1.350 . S
C267 H293 0.931 . S
N268 Co264 2.148 . S
N268 C265 1.301 . S
N268 C266 1.317 . S
N269 C265 1.328 . S
N269 C267 1.350 . S
H270 C265 0.930 . S
H271 C266 0.930 . S
C272 O273 1.224 . S
C272 O291 1.247 . S
O273 C272 1.224 . S
N274 Co264 2.128 . S
N274 C275 1.355 . S
N274 C277 1.311 . S
C275 N274 1.355 . S
C275 C276 1.363 . S
C275 H287 0.929 . S
C276 C275 1.363 . S
C276 N278 1.375 . S
C276 H294 0.931 . S
C277 N274 1.311 . S
C277 N278 1.347 . S
C277 H288 0.929 . S
N278 C276 1.375 . S
N278 C277 1.347 . S
C279 C282 1.365 . S
C279 N284 1.328 . S
C279 H285 0.929 . S
C280 C281 1.362 . S
C280 C283 1.378 . S
C280 H295 0.929 . S
C281 C280 1.362 . S
C281 C282 1.366 . S
C282 C279 1.365 . S
C282 C281 1.366 . S
C282 H296 0.930 . S
C283 C280 1.378 . S
C283 N284 1.315 . S
C283 H286 0.930 . S
N284 Co264 2.194 . S
N284 C279 1.328 . S
N284 C283 1.315 . S
H285 C279 0.929 . S
H286 C283 0.930 . S
H287 C275 0.929 . S
H288 C277 0.929 . S
O289 Co264 2.351 . S
O289 C292 1.244 . S
O290 Co264 2.155 . S
O290 C292 1.240 . S
O291 Co264 2.096 . S
O291 C272 1.247 . S
C292 O289 1.244 . S
C292 O290 1.240 . S
H293 C267 0.931 . S
H294 C276 0.931 . S
H295 C280 0.929 . S
H296 C282 0.930 . S
Co297 N301 2.148 . S
Co297 N307 2.128 . S
Co297 N317 2.194 . S
Co297 O322 2.351 . S
Co297 O323 2.155 . S
Co297 O324 2.096 . S
C298 N301 1.301 . S
C298 N302 1.328 . S
C298 H303 0.930 . S
C299 C300 1.333 . S
C299 N301 1.317 . S
C299 H304 0.930 . S
C300 C299 1.333 . S
C300 N302 1.350 . S
C300 H326 0.931 . S
N301 Co297 2.148 . S
N301 C298 1.301 . S
N301 C299 1.317 . S
N302 C298 1.328 . S
N302 C300 1.350 . S
H303 C298 0.930 . S
H304 C299 0.930 . S
C305 O306 1.224 . S
C305 O324 1.247 . S
O306 C305 1.224 . S
N307 Co297 2.128 . S
N307 C308 1.355 1_554 S
N307 C310 1.311 1_554 S
C308 N307 1.355 1_556 S
C308 C309 1.363 . S
C308 H320 0.929 1_556 S
C309 C308 1.363 . S
C309 N311 1.375 . S
C309 H327 0.931 . S
C310 N307 1.311 1_556 S
C310 N311 1.347 . S
C310 H321 0.929 . S
N311 C309 1.375 . S
N311 C310 1.347 . S
C312 C315 1.365 . S
C312 N317 1.328 . S
C312 H318 0.929 . S
C313 C314 1.362 . S
C313 C316 1.378 . S
C313 H328 0.929 . S
C314 C313 1.362 . S
C314 C315 1.366 . S
C315 C312 1.365 . S
C315 C314 1.366 . S
C315 H329 0.930 . S
C316 C313 1.378 . S
C316 N317 1.315 . S
C316 H319 0.930 . S
N317 Co297 2.194 . S
N317 C312 1.328 . S
N317 C316 1.315 . S
H318 C312 0.929 . S
H319 C316 0.930 . S
H320 C308 0.929 1_554 S
H321 C310 0.929 . S
O322 Co297 2.351 . S
O322 C325 1.244 . S
O323 Co297 2.155 . S
O323 C325 1.240 . S
O324 Co297 2.096 . S
O324 C305 1.247 . S
C325 O322 1.244 . S
C325 O323 1.240 . S
H326 C300 0.931 . S
H327 C309 0.931 . S
H328 C313 0.929 . S
H329 C315 0.930 . S
Co330 N334 2.148 . S
Co330 N340 2.128 . S
Co330 N350 2.194 . S
Co330 O355 2.351 . S
Co330 O356 2.155 . S
Co330 O357 2.096 . S
C331 N334 1.301 . S
C331 N335 1.328 . S
C331 H336 0.930 . S
C332 C333 1.333 . S
C332 N334 1.317 . S
C332 H337 0.930 . S
C333 C332 1.333 . S
C333 N335 1.350 . S
C333 H359 0.931 . S
N334 Co330 2.148 . S
N334 C331 1.301 . S
N334 C332 1.317 . S
N335 C331 1.328 . S
N335 C333 1.350 . S
H336 C331 0.930 . S
H337 C332 0.930 . S
C338 O339 1.224 . S
C338 O357 1.247 . S
O339 C338 1.224 . S
N340 Co330 2.128 . S
N340 C341 1.355 1_556 S
N340 C343 1.311 1_556 S
C341 N340 1.355 1_554 S
C341 C342 1.363 . S
C341 H353 0.929 1_554 S
C342 C341 1.363 . S
C342 N344 1.375 . S
C342 H360 0.931 . S
C343 N340 1.311 1_554 S
C343 N344 1.347 . S
C343 H354 0.929 . S
N344 C342 1.375 . S
N344 C343 1.347 . S
C345 C348 1.365 . S
C345 N350 1.328 . S
C345 H351 0.929 . S
C346 C347 1.362 . S
C346 C349 1.378 . S
C346 H361 0.929 . S
C347 C346 1.362 . S
C347 C348 1.366 . S
C348 C345 1.365 . S
C348 C347 1.366 . S
C348 H362 0.930 . S
C349 C346 1.378 . S
C349 N350 1.315 . S
C349 H352 0.930 . S
N350 Co330 2.194 . S
N350 C345 1.328 . S
N350 C349 1.315 . S
H351 C345 0.929 . S
H352 C349 0.930 . S
H353 C341 0.929 1_556 S
H354 C343 0.929 . S
O355 Co330 2.351 . S
O355 C358 1.244 . S
O356 Co330 2.155 . S
O356 C358 1.240 . S
O357 Co330 2.096 . S
O357 C338 1.247 . S
C358 O355 1.244 . S
C358 O356 1.240 . S
H359 C333 0.931 . S
H360 C342 0.931 . S
H361 C346 0.929 . S
H362 C348 0.930 . S
Co363 N367 2.148 . S
Co363 N373 2.128 . S
Co363 N383 2.194 . S
Co363 O388 2.351 . S
Co363 O389 2.155 . S
Co363 O390 2.096 . S
C364 N367 1.301 . S
C364 N368 1.328 . S
C364 H369 0.930 . S
C365 C366 1.333 . S
C365 N367 1.317 . S
C365 H370 0.930 . S
C366 C365 1.333 . S
C366 N368 1.350 . S
C366 H392 0.931 . S
N367 Co363 2.148 . S
N367 C364 1.301 . S
N367 C365 1.317 . S
N368 C364 1.328 . S
N368 C366 1.350 . S
H369 C364 0.930 . S
H370 C365 0.930 . S
C371 O372 1.224 . S
C371 O390 1.247 . S
O372 C371 1.224 . S
N373 Co363 2.128 . S
N373 C374 1.355 . S
N373 C376 1.311 . S
C374 N373 1.355 . S
C374 C375 1.363 . S
C374 H386 0.929 . S
C375 C374 1.363 . S
C375 N377 1.375 . S
C375 H393 0.931 . S
C376 N373 1.311 . S
C376 N377 1.347 . S
C376 H387 0.929 . S
N377 C375 1.375 . S
N377 C376 1.347 . S
C378 C381 1.365 . S
C378 N383 1.328 . S
C378 H384 0.929 . S
C379 C380 1.362 . S
C379 C382 1.378 . S
C379 H394 0.929 . S
C380 C379 1.362 . S
C380 C381 1.366 . S
C381 C378 1.365 . S
C381 C380 1.366 . S
C381 H395 0.930 . S
C382 C379 1.378 . S
C382 N383 1.315 . S
C382 H385 0.930 . S
N383 Co363 2.194 . S
N383 C378 1.328 . S
N383 C382 1.315 . S
H384 C378 0.929 . S
H385 C382 0.930 . S
H386 C374 0.929 . S
H387 C376 0.929 . S
O388 Co363 2.351 . S
O388 C391 1.244 . S
O389 Co363 2.155 . S
O389 C391 1.240 . S
O390 Co363 2.096 . S
O390 C371 1.247 . S
C391 O388 1.244 . S
C391 O389 1.240 . S
H392 C366 0.931 . S
H393 C375 0.931 . S
H394 C379 0.929 . S
H395 C381 0.930 . S
Co396 N400 2.148 . S
Co396 N406 2.128 . S
Co396 N416 2.194 . S
Co396 O421 2.351 . S
Co396 O422 2.155 . S
Co396 O423 2.096 . S
C397 N400 1.301 . S
C397 N401 1.328 . S
C397 H402 0.930 . S
C398 C399 1.333 . S
C398 N400 1.317 . S
C398 H403 0.930 . S
C399 C398 1.333 . S
C399 N401 1.350 . S
C399 H425 0.931 . S
N400 Co396 2.148 . S
N400 C397 1.301 . S
N400 C398 1.317 . S
N401 C397 1.328 . S
N401 C399 1.350 . S
H402 C397 0.930 . S
H403 C398 0.930 . S
C404 O405 1.224 . S
C404 O423 1.247 . S
O405 C404 1.224 . S
N406 Co396 2.128 . S
N406 C407 1.355 . S
N406 C409 1.311 . S
C407 N406 1.355 . S
C407 C408 1.363 . S
C407 H419 0.929 . S
C408 C407 1.363 . S
C408 N410 1.375 . S
C408 H426 0.931 . S
C409 N406 1.311 . S
C409 N410 1.347 . S
C409 H420 0.929 . S
N410 C408 1.375 . S
N410 C409 1.347 . S
C411 C414 1.365 . S
C411 N416 1.328 . S
C411 H417 0.929 . S
C412 C413 1.362 . S
C412 C415 1.378 . S
C412 H427 0.929 . S
C413 C412 1.362 . S
C413 C414 1.366 . S
C414 C411 1.365 . S
C414 C413 1.366 . S
C414 H428 0.930 . S
C415 C412 1.378 . S
C415 N416 1.315 . S
C415 H418 0.930 . S
N416 Co396 2.194 . S
N416 C411 1.328 . S
N416 C415 1.315 . S
H417 C411 0.929 . S
H418 C415 0.930 . S
H419 C407 0.929 . S
H420 C409 0.929 . S
O421 Co396 2.351 . S
O421 C424 1.244 . S
O422 Co396 2.155 . S
O422 C424 1.240 . S
O423 Co396 2.096 . S
O423 C404 1.247 . S
C424 O421 1.244 . S
C424 O422 1.240 . S
H425 C399 0.931 . S
H426 C408 0.931 . S
H427 C412 0.929 . S
H428 C414 0.930 . S
Co429 N433 2.148 1_554 S
Co429 N439 2.128 . S
Co429 N449 2.194 . S
Co429 O454 2.351 . S
Co429 O455 2.155 . S
Co429 O456 2.096 1_455 S
C430 N433 1.301 . S
C430 N434 1.328 . S
C430 H435 0.930 . S
C431 C432 1.333 . S
C431 N433 1.317 . S
C431 H436 0.930 1_455 S
C432 C431 1.333 . S
C432 N434 1.350 . S
C432 H458 0.944 . S
N433 Co429 2.148 1_556 S
N433 C430 1.301 . S
N433 C431 1.317 . S
N434 C430 1.328 . S
N434 C432 1.350 . S
H435 C430 0.930 . S
H436 C431 0.930 1_655 S
C437 O438 1.224 1_655 S
C437 O456 1.247 . S
O438 C437 1.224 1_455 S
N439 Co429 2.128 . S
N439 C440 1.355 . S
N439 C442 1.311 . S
C440 N439 1.355 . S
C440 C441 1.363 . S
C440 H452 0.929 . S
C441 C440 1.363 . S
C441 N443 1.375 . S
C441 H459 0.931 . S
C442 N439 1.311 . S
C442 N443 1.347 . S
C442 H453 0.929 . S
N443 C441 1.375 . S
N443 C442 1.347 . S
C444 C447 1.365 . S
C444 N449 1.328 . S
C444 H450 0.929 . S
C445 C446 1.362 . S
C445 C448 1.378 . S
C445 H460 0.929 . S
C446 C445 1.362 . S
C446 C447 1.366 . S
C447 C444 1.365 . S
C447 C446 1.366 . S
C447 H461 0.930 . S
C448 C445 1.378 . S
C448 N449 1.315 . S
C448 H451 0.930 . S
N449 Co429 2.194 . S
N449 C444 1.328 . S
N449 C448 1.315 . S
H450 C444 0.929 . S
H451 C448 0.930 . S
H452 C440 0.929 . S
H453 C442 0.929 . S
O454 Co429 2.351 . S
O454 C457 1.244 . S
O455 Co429 2.155 . S
O455 C457 1.240 . S
O456 Co429 2.096 1_655 S
O456 C437 1.247 . S
C457 O454 1.244 . S
C457 O455 1.240 . S
H458 C432 0.944 . S
H459 C441 0.931 . S
H460 C445 0.929 . S
H461 C447 0.930 . S
Co462 N466 2.148 . S
Co462 N472 2.128 . S
Co462 N482 2.194 . S
Co462 O487 2.351 . S
Co462 O488 2.155 . S
Co462 O489 2.096 . S
C463 N466 1.301 . S
C463 N467 1.328 . S
C463 H468 0.930 . S
C464 C465 1.333 . S
C464 N466 1.317 . S
C464 H469 0.930 . S
C465 C464 1.333 . S
C465 N467 1.350 . S
C465 H491 0.931 . S
N466 Co462 2.148 . S
N466 C463 1.301 . S
N466 C464 1.317 . S
N467 C463 1.328 . S
N467 C465 1.350 . S
H468 C463 0.930 . S
H469 C464 0.930 . S
C470 O471 1.224 . S
C470 O489 1.247 . S
O471 C470 1.224 . S
N472 Co462 2.128 . S
N472 C473 1.355 . S
N472 C475 1.311 . S
C473 N472 1.355 . S
C473 C474 1.363 . S
C473 H485 0.929 . S
C474 C473 1.363 . S
C474 N476 1.375 . S
C474 H492 0.931 . S
C475 N472 1.311 . S
C475 N476 1.347 . S
C475 H486 0.929 . S
N476 C474 1.375 . S
N476 C475 1.347 . S
C477 C480 1.365 . S
C477 N482 1.328 . S
C477 H483 0.929 . S
C478 C479 1.362 . S
C478 C481 1.378 . S
C478 H493 0.929 . S
C479 C478 1.362 . S
C479 C480 1.366 . S
C480 C477 1.365 . S
C480 C479 1.366 . S
C480 H494 0.930 . S
C481 C478 1.378 . S
C481 N482 1.315 . S
C481 H484 0.930 . S
N482 Co462 2.194 . S
N482 C477 1.328 . S
N482 C481 1.315 . S
H483 C477 0.929 . S
H484 C481 0.930 . S
H485 C473 0.929 . S
H486 C475 0.929 . S
O487 Co462 2.351 . S
O487 C490 1.244 . S
O488 Co462 2.155 . S
O488 C490 1.240 . S
O489 Co462 2.096 . S
O489 C470 1.247 . S
C490 O487 1.244 . S
C490 O488 1.240 . S
H491 C465 0.931 . S
H492 C474 0.931 . S
H493 C478 0.929 . S
H494 C480 0.930 . S
Co495 N499 2.148 1_556 S
Co495 N505 2.128 . S
Co495 N515 2.194 . S
Co495 O520 2.351 . S
Co495 O521 2.155 . S
Co495 O522 2.096 1_455 S
C496 N499 1.301 . S
C496 N500 1.328 . S
C496 H501 0.930 . S
C497 C498 1.333 . S
C497 N499 1.317 . S
C497 H502 0.930 1_455 S
C498 C497 1.333 . S
C498 N500 1.350 . S
C498 H524 0.944 . S
N499 Co495 2.148 1_554 S
N499 C496 1.301 . S
N499 C497 1.317 . S
N500 C496 1.328 . S
N500 C498 1.350 . S
H501 C496 0.930 . S
H502 C497 0.930 1_655 S
C503 O504 1.224 1_655 S
C503 O522 1.247 . S
O504 C503 1.224 1_455 S
N505 Co495 2.128 . S
N505 C506 1.355 . S
N505 C508 1.311 . S
C506 N505 1.355 . S
C506 C507 1.363 . S
C506 H518 0.929 . S
C507 C506 1.363 . S
C507 N509 1.375 . S
C507 H525 0.931 . S
C508 N505 1.311 . S
C508 N509 1.347 . S
C508 H519 0.929 . S
N509 C507 1.375 . S
N509 C508 1.347 . S
C510 C513 1.365 . S
C510 N515 1.328 . S
C510 H516 0.929 . S
C511 C512 1.362 . S
C511 C514 1.378 . S
C511 H526 0.929 . S
C512 C511 1.362 . S
C512 C513 1.366 . S
C513 C510 1.365 . S
C513 C512 1.366 . S
C513 H527 0.930 . S
C514 C511 1.378 . S
C514 N515 1.315 . S
C514 H517 0.930 . S
N515 Co495 2.194 . S
N515 C510 1.328 . S
N515 C514 1.315 . S
H516 C510 0.929 . S
H517 C514 0.930 . S
H518 C506 0.929 . S
H519 C508 0.929 . S
O520 Co495 2.351 . S
O520 C523 1.244 . S
O521 Co495 2.155 . S
O521 C523 1.240 . S
O522 Co495 2.096 1_655 S
O522 C503 1.247 . S
C523 O520 1.244 . S
C523 O521 1.240 . S
H524 C498 0.944 . S
H525 C507 0.931 . S
H526 C511 0.929 . S
H527 C513 0.930 . S
C528 C529 1.369 . S
C528 C530 1.419 . S
C528 H532 0.930 . S
C529 C528 1.369 . S
C529 C538 1.429 . S
C530 C528 1.419 . S
C530 C531 1.363 . S
C530 H533 0.929 . S
C531 C530 1.363 . S
C531 C537 1.428 . S
H532 C528 0.930 . S
H533 C530 0.929 . S
S534 N535 1.613 . S
S534 N536 1.610 . S
N535 S534 1.613 . S
N535 C538 1.350 . S
N536 S534 1.610 . S
N536 C537 1.351 . S
C537 C531 1.428 . S
C537 N536 1.351 . S
C537 C538 1.434 . S
C538 C529 1.429 . S
C538 N535 1.350 . S
C538 C537 1.434 . S
C539 C540 1.369 . S
C539 C541 1.419 . S
C539 H543 0.930 . S
C540 C539 1.369 . S
C540 C549 1.429 . S
C541 C539 1.419 . S
C541 C542 1.363 . S
C541 H544 0.929 . S
C542 C541 1.363 . S
C542 C548 1.428 . S
H543 C539 0.930 . S
H544 C541 0.929 . S
S545 N546 1.613 . S
S545 N547 1.610 . S
N546 S545 1.613 . S
N546 C549 1.350 . S
N547 S545 1.610 . S
N547 C548 1.351 . S
C548 C542 1.428 . S
C548 N547 1.351 . S
C548 C549 1.434 . S
C549 C540 1.429 . S
C549 N546 1.350 . S
C549 C548 1.434 . S
C550 C551 1.369 . S
C550 C552 1.419 . S
C550 H554 0.930 . S
C551 C550 1.369 . S
C551 C560 1.429 . S
C552 C550 1.419 . S
C552 C553 1.363 1_554 S
C552 H555 0.929 . S
C553 C552 1.363 1_556 S
C553 C559 1.428 1_556 S
H554 C550 0.930 . S
H555 C552 0.929 . S
S556 N557 1.613 . S
S556 N558 1.610 . S
N557 S556 1.613 . S
N557 C560 1.350 . S
N558 S556 1.610 . S
N558 C559 1.351 . S
C559 C553 1.428 1_554 S
C559 N558 1.351 . S
C559 C560 1.434 . S
C560 C551 1.429 . S
C560 N557 1.350 . S
C560 C559 1.434 . S
C561 C562 1.369 . S
C561 C563 1.419 . S
C561 H565 0.930 . S
C562 C561 1.369 . S
C562 C571 1.429 . S
C563 C561 1.419 . S
C563 C564 1.363 . S
C563 H566 0.929 . S
C564 C563 1.363 . S
C564 C570 1.428 . S
H565 C561 0.930 . S
H566 C563 0.929 . S
S567 N568 1.613 . S
S567 N569 1.610 . S
N568 S567 1.613 . S
N568 C571 1.350 . S
N569 S567 1.610 . S
N569 C570 1.351 . S
C570 C564 1.428 . S
C570 N569 1.351 . S
C570 C571 1.434 . S
C571 C562 1.429 . S
C571 N568 1.350 . S
C571 C570 1.434 . S
C572 C573 1.369 . S
C572 C574 1.419 . S
C572 H576 0.930 . S
C573 C572 1.369 . S
C573 C582 1.429 . S
C574 C572 1.419 . S
C574 C575 1.363 . S
C574 H577 0.929 . S
C575 C574 1.363 . S
C575 C581 1.428 . S
H576 C572 0.930 . S
H577 C574 0.929 . S
S578 N579 1.613 . S
S578 N580 1.610 . S
N579 S578 1.613 . S
N579 C582 1.350 . S
N580 S578 1.610 . S
N580 C581 1.351 . S
C581 C575 1.428 . S
C581 N580 1.351 . S
C581 C582 1.434 . S
C582 C573 1.429 . S
C582 N579 1.350 . S
C582 C581 1.434 . S
C583 C584 1.369 . S
C583 C585 1.419 . S
C583 H587 0.930 . S
C584 C583 1.369 . S
C584 C593 1.429 . S
C585 C583 1.419 . S
C585 C586 1.363 . S
C585 H588 0.929 . S
C586 C585 1.363 . S
C586 C592 1.428 . S
H587 C583 0.930 . S
H588 C585 0.929 . S
S589 N590 1.613 . S
S589 N591 1.610 . S
N590 S589 1.613 . S
N590 C593 1.350 . S
N591 S589 1.610 . S
N591 C592 1.351 . S
C592 C586 1.428 . S
C592 N591 1.351 . S
C592 C593 1.434 . S
C593 C584 1.429 . S
C593 N590 1.350 . S
C593 C592 1.434 . S
C594 C595 1.369 . S
C594 C596 1.419 . S
C594 H598 0.930 . S
C595 C594 1.369 . S
C595 C604 1.429 . S
C596 C594 1.419 . S
C596 C597 1.363 1_556 S
C596 H599 0.929 1_556 S
C597 C596 1.363 1_554 S
C597 C603 1.428 1_554 S
H598 C594 0.930 . S
H599 C596 0.929 1_554 S
S600 N601 1.613 . S
S600 N602 1.610 . S
N601 S600 1.613 . S
N601 C604 1.350 . S
N602 S600 1.610 . S
N602 C603 1.351 . S
C603 C597 1.428 1_556 S
C603 N602 1.351 . S
C603 C604 1.434 . S
C604 C595 1.429 . S
C604 N601 1.350 . S
C604 C603 1.434 . S
C605 C606 1.369 . S
C605 C607 1.419 . S
C605 H609 0.930 . S
C606 C605 1.369 . S
C606 C615 1.429 . S
C607 C605 1.419 . S
C607 C608 1.363 . S
C607 H610 0.929 . S
C608 C607 1.363 . S
C608 C614 1.428 . S
H609 C605 0.930 . S
H610 C607 0.929 . S
S611 N612 1.613 . S
S611 N613 1.610 . S
N612 S611 1.613 . S
N612 C615 1.350 . S
N613 S611 1.610 . S
N613 C614 1.351 . S
C614 C608 1.428 . S
C614 N613 1.351 . S
C614 C615 1.434 . S
C615 C606 1.429 . S
C615 N612 1.350 . S
C615 C614 1.434 . S
C616 C617 1.369 . S
C616 C618 1.419 . S
C616 H620 0.930 . S
C617 C616 1.369 . S
C617 C626 1.429 . S
C618 C616 1.419 . S
C618 C619 1.363 . S
C618 H621 0.929 . S
C619 C618 1.363 . S
C619 C625 1.428 . S
H620 C616 0.930 . S
H621 C618 0.929 . S
S622 N623 1.613 . S
S622 N624 1.610 . S
N623 S622 1.613 . S
N623 C626 1.350 . S
N624 S622 1.610 . S
N624 C625 1.351 . S
C625 C619 1.428 . S
C625 N624 1.351 . S
C625 C626 1.434 . S
C626 C617 1.429 . S
C626 N623 1.350 . S
C626 C625 1.434 . S
C627 C628 1.369 . S
C627 C629 1.419 . S
C627 H631 0.930 . S
C628 C627 1.369 . S
C628 C637 1.429 . S
C629 C627 1.419 . S
C629 C630 1.363 . S
C629 H632 0.929 . S
C630 C629 1.363 . S
C630 C636 1.428 . S
H631 C627 0.930 . S
H632 C629 0.929 . S
S633 N634 1.613 . S
S633 N635 1.610 . S
N634 S633 1.613 . S
N634 C637 1.350 . S
N635 S633 1.610 . S
N635 C636 1.351 . S
C636 C630 1.428 . S
C636 N635 1.351 . S
C636 C637 1.434 . S
C637 C628 1.429 . S
C637 N634 1.350 . S
C637 C636 1.434 . S
C638 C639 1.369 . S
C638 C640 1.419 . S
C638 H642 0.930 . S
C639 C638 1.369 . S
C639 C648 1.429 . S
C640 C638 1.419 . S
C640 C641 1.363 . S
C640 H643 0.929 . S
C641 C640 1.363 . S
C641 C647 1.428 . S
H642 C638 0.930 . S
H643 C640 0.929 . S
S644 N645 1.613 . S
S644 N646 1.610 . S
N645 S644 1.613 . S
N645 C648 1.350 . S
N646 S644 1.610 . S
N646 C647 1.351 . S
C647 C641 1.428 . S
C647 N646 1.351 . S
C647 C648 1.434 . S
C648 C639 1.429 . S
C648 N645 1.350 . S
C648 C647 1.434 . S
C649 C650 1.369 . S
C649 C651 1.419 . S
C649 H653 0.930 . S
C650 C649 1.369 . S
C650 C659 1.429 . S
C651 C649 1.419 . S
C651 C652 1.363 . S
C651 H654 0.929 . S
C652 C651 1.363 . S
C652 C658 1.428 . S
H653 C649 0.930 . S
H654 C651 0.929 . S
S655 N656 1.613 . S
S655 N657 1.610 . S
N656 S655 1.613 . S
N656 C659 1.350 . S
N657 S655 1.610 . S
N657 C658 1.351 . S
C658 C652 1.428 . S
C658 N657 1.351 . S
C658 C659 1.434 . S
C659 C650 1.429 . S
C659 N656 1.350 . S
C659 C658 1.434 . S
C660 C661 1.369 1_554 S
C660 C662 1.419 . S
C660 H664 0.930 . S
C661 C660 1.369 1_556 S
C661 C670 1.429 1_556 S
C662 C660 1.419 . S
C662 C663 1.363 . S
C662 H665 0.929 . S
C663 C662 1.363 . S
C663 C669 1.428 . S
H664 C660 0.930 . S
H665 C662 0.929 . S
S666 N667 1.613 . S
S666 N668 1.610 . S
N667 S666 1.613 . S
N667 C670 1.350 . S
N668 S666 1.610 . S
N668 C669 1.351 . S
C669 C663 1.428 . S
C669 N668 1.351 . S
C669 C670 1.434 . S
C670 C661 1.429 1_554 S
C670 N667 1.350 . S
C670 C669 1.434 . S
C671 C672 1.369 . S
C671 C673 1.419 . S
C671 H675 0.930 . S
C672 C671 1.369 . S
C672 C681 1.429 . S
C673 C671 1.419 . S
C673 C674 1.363 . S
C673 H676 0.929 . S
C674 C673 1.363 . S
C674 C680 1.428 . S
H675 C671 0.930 . S
H676 C673 0.929 . S
S677 N678 1.613 1_655 S
S677 N679 1.610 1_655 S
N678 S677 1.613 1_455 S
N678 C681 1.350 . S
N679 S677 1.610 1_455 S
N679 C680 1.351 . S
C680 C674 1.428 . S
C680 N679 1.351 . S
C680 C681 1.434 . S
C681 C672 1.429 . S
C681 N678 1.350 . S
C681 C680 1.434 . S
C682 C683 1.369 1_556 S
C682 C684 1.419 . S
C682 H686 0.930 1_556 S
C683 C682 1.369 1_554 S
C683 C692 1.429 1_554 S
C684 C682 1.419 . S
C684 C685 1.363 . S
C684 H687 0.929 . S
C685 C684 1.363 . S
C685 C691 1.428 . S
H686 C682 0.930 1_554 S
H687 C684 0.929 . S
S688 N689 1.613 . S
S688 N690 1.610 . S
N689 S688 1.613 . S
N689 C692 1.350 . S
N690 S688 1.610 . S
N690 C691 1.351 . S
C691 C685 1.428 . S
C691 N690 1.351 . S
C691 C692 1.434 . S
C692 C683 1.429 1_556 S
C692 N689 1.350 . S
C692 C691 1.434 . S
C693 C694 1.369 . S
C693 C695 1.419 . S
C693 H697 0.930 . S
C694 C693 1.369 . S
C694 C703 1.429 . S
C695 C693 1.419 . S
C695 C696 1.363 . S
C695 H698 0.929 . S
C696 C695 1.363 . S
C696 C702 1.428 . S
H697 C693 0.930 . S
H698 C695 0.929 . S
S699 N700 1.613 1_655 S
S699 N701 1.610 1_655 S
N700 S699 1.613 1_455 S
N700 C703 1.350 . S
N701 S699 1.610 1_455 S
N701 C702 1.351 . S
C702 C696 1.428 . S
C702 N701 1.351 . S
C702 C703 1.434 . S
C703 C694 1.429 . S
C703 N700 1.350 . S
C703 C702 1.434 . S
C704 C705 1.369 . S
C704 C706 1.419 . S
C704 H708 0.930 . S
C705 C704 1.369 . S
C705 C714 1.429 1_554 S
C706 C704 1.419 . S
C706 C707 1.363 1_554 S
C706 H709 0.929 . S
C707 C706 1.363 1_556 S
C707 C713 1.428 . S
H708 C704 0.930 . S
H709 C706 0.929 . S
S710 N711 1.613 . S
S710 N712 1.610 . S
N711 S710 1.613 . S
N711 C714 1.350 . S
N712 S710 1.610 . S
N712 C713 1.351 . S
C713 C707 1.428 . S
C713 N712 1.351 . S
C713 C714 1.434 . S
C714 C705 1.429 1_556 S
C714 N711 1.350 . S
C714 C713 1.434 . S
C715 C716 1.369 . S
C715 C717 1.419 . S
C715 H719 0.930 . S
C716 C715 1.369 . S
C716 C725 1.429 . S
C717 C715 1.419 . S
C717 C718 1.363 . S
C717 H720 0.929 . S
C718 C717 1.363 . S
C718 C724 1.428 . S
H719 C715 0.930 . S
H720 C717 0.929 . S
S721 N722 1.613 . S
S721 N723 1.610 . S
N722 S721 1.613 . S
N722 C725 1.350 . S
N723 S721 1.610 . S
N723 C724 1.351 . S
C724 C718 1.428 . S
C724 N723 1.351 . S
C724 C725 1.434 . S
C725 C716 1.429 . S
C725 N722 1.350 . S
C725 C724 1.434 . S
C726 C727 1.369 . S
C726 C728 1.419 . S
C726 H730 0.930 . S
C727 C726 1.369 . S
C727 C736 1.429 . S
C728 C726 1.419 . S
C728 C729 1.363 . S
C728 H731 0.929 . S
C729 C728 1.363 . S
C729 C735 1.428 . S
H730 C726 0.930 . S
H731 C728 0.929 . S
S732 N733 1.613 . S
S732 N734 1.610 . S
N733 S732 1.613 . S
N733 C736 1.350 . S
N734 S732 1.610 . S
N734 C735 1.351 . S
C735 C729 1.428 . S
C735 N734 1.351 . S
C735 C736 1.434 . S
C736 C727 1.429 . S
C736 N733 1.350 . S
C736 C735 1.434 . S
C737 C738 1.369 . S
C737 C739 1.419 . S
C737 H741 0.930 . S
C738 C737 1.369 . S
C738 C747 1.429 . S
C739 C737 1.419 . S
C739 C740 1.363 . S
C739 H742 0.929 . S
C740 C739 1.363 . S
C740 C746 1.428 . S
H741 C737 0.930 . S
H742 C739 0.929 . S
S743 N744 1.613 . S
S743 N745 1.610 . S
N744 S743 1.613 . S
N744 C747 1.350 . S
N745 S743 1.610 . S
N745 C746 1.351 . S
C746 C740 1.428 . S
C746 N745 1.351 . S
C746 C747 1.434 . S
C747 C738 1.429 . S
C747 N744 1.350 . S
C747 C746 1.434 . S
C748 C749 1.369 . S
C748 C750 1.419 . S
C748 H752 0.930 . S
C749 C748 1.369 . S
C749 C758 1.429 . S
C750 C748 1.419 . S
C750 C751 1.363 . S
C750 H753 0.929 . S
C751 C750 1.363 . S
C751 C757 1.428 . S
H752 C748 0.930 . S
H753 C750 0.929 . S
S754 N755 1.613 . S
S754 N756 1.610 . S
N755 S754 1.613 . S
N755 C758 1.350 . S
N756 S754 1.610 . S
N756 C757 1.351 . S
C757 C751 1.428 . S
C757 N756 1.351 . S
C757 C758 1.434 . S
C758 C749 1.429 . S
C758 N755 1.350 . S
C758 C757 1.434 . S
C759 C760 1.369 . S
C759 C761 1.419 . S
C759 H763 0.930 . S
C760 C759 1.369 . S
C760 C769 1.429 . S
C761 C759 1.419 . S
C761 C762 1.363 . S
C761 H764 0.929 . S
C762 C761 1.363 . S
C762 C768 1.428 . S
H763 C759 0.930 . S
H764 C761 0.929 . S
S765 N766 1.613 . S
S765 N767 1.610 . S
N766 S765 1.613 . S
N766 C769 1.350 . S
N767 S765 1.610 . S
N767 C768 1.351 . S
C768 C762 1.428 . S
C768 N767 1.351 . S
C768 C769 1.434 . S
C769 C760 1.429 . S
C769 N766 1.350 . S
C769 C768 1.434 . S
C770 C771 1.369 . S
C770 C772 1.419 1_545 S
C770 H774 0.930 . S
C771 C770 1.369 . S
C771 C780 1.429 . S
C772 C770 1.419 1_565 S
C772 C773 1.363 . S
C772 H775 0.929 . S
C773 C772 1.363 . S
C773 C779 1.428 . S
H774 C770 0.930 . S
H775 C772 0.929 . S
S776 N777 1.613 . S
S776 N778 1.610 1_545 S
N777 S776 1.613 . S
N777 C780 1.350 . S
N778 S776 1.610 1_565 S
N778 C779 1.351 . S
C779 C773 1.428 . S
C779 N778 1.351 . S
C779 C780 1.434 1_565 S
C780 C771 1.429 . S
C780 N777 1.350 . S
C780 C779 1.434 1_545 S
C781 C782 1.369 1_556 S
C781 C783 1.419 1_565 S
C781 H785 0.930 . S
C782 C781 1.369 1_554 S
C782 C791 1.429 . S
C783 C781 1.419 1_545 S
C783 C784 1.363 . S
C783 H786 0.929 . S
C784 C783 1.363 . S
C784 C790 1.428 1_556 S
H785 C781 0.930 . S
H786 C783 0.929 . S
S787 N788 1.613 1_545 S
S787 N789 1.610 . S
N788 S787 1.613 1_565 S
N788 C791 1.350 . S
N789 S787 1.610 . S
N789 C790 1.351 . S
C790 C784 1.428 1_554 S
C790 N789 1.351 . S
C790 C791 1.434 1_545 S
C791 C782 1.429 . S
C791 N788 1.350 . S
C791 C790 1.434 1_565 S
C792 C793 1.369 . S
C792 C794 1.419 . S
C792 H796 0.930 . S
C793 C792 1.369 . S
C793 C802 1.429 . S
C794 C792 1.419 . S
C794 C795 1.363 . S
C794 H797 0.929 . S
C795 C794 1.363 . S
C795 C801 1.428 . S
H796 C792 0.930 . S
H797 C794 0.929 . S
S798 N799 1.613 . S
S798 N800 1.610 . S
N799 S798 1.613 . S
N799 C802 1.350 . S
N800 S798 1.610 . S
N800 C801 1.351 . S
C801 C795 1.428 . S
C801 N800 1.351 . S
C801 C802 1.434 . S
C802 C793 1.429 . S
C802 N799 1.350 . S
C802 C801 1.434 . S
C803 C804 1.369 . S
C803 C805 1.419 . S
C803 H807 0.930 . S
C804 C803 1.369 . S
C804 C813 1.429 . S
C805 C803 1.419 . S
C805 C806 1.363 . S
C805 H808 0.929 . S
C806 C805 1.363 . S
C806 C812 1.428 . S
H807 C803 0.930 . S
H808 C805 0.929 . S
S809 N810 1.613 . S
S809 N811 1.610 . S
N810 S809 1.613 . S
N810 C813 1.350 . S
N811 S809 1.610 . S
N811 C812 1.351 . S
C812 C806 1.428 . S
C812 N811 1.351 . S
C812 C813 1.434 . S
C813 C804 1.429 . S
C813 N810 1.350 . S
C813 C812 1.434 . S
C814 C815 1.369 . S
C814 C816 1.419 . S
C814 H818 0.930 . S
C815 C814 1.369 . S
C815 C824 1.429 . S
C816 C814 1.419 . S
C816 C817 1.363 . S
C816 H819 0.929 . S
C817 C816 1.363 . S
C817 C823 1.428 . S
H818 C814 0.930 . S
H819 C816 0.929 . S
S820 N821 1.613 . S
S820 N822 1.610 . S
N821 S820 1.613 . S
N821 C824 1.350 . S
N822 S820 1.610 . S
N822 C823 1.351 . S
C823 C817 1.428 . S
C823 N822 1.351 . S
C823 C824 1.434 . S
C824 C815 1.429 . S
C824 N821 1.350 . S
C824 C823 1.434 . S
C825 C826 1.369 . S
C825 C827 1.419 . S
C825 H829 0.930 . S
C826 C825 1.369 . S
C826 C835 1.429 . S
C827 C825 1.419 . S
C827 C828 1.363 . S
C827 H830 0.929 . S
C828 C827 1.363 . S
C828 C834 1.428 . S
H829 C825 0.930 . S
H830 C827 0.929 . S
S831 N832 1.613 . S
S831 N833 1.610 . S
N832 S831 1.613 . S
N832 C835 1.350 . S
N833 S831 1.610 . S
N833 C834 1.351 . S
C834 C828 1.428 . S
C834 N833 1.351 . S
C834 C835 1.434 . S
C835 C826 1.429 . S
C835 N832 1.350 . S
C835 C834 1.434 . S
C836 C837 1.369 . S
C836 C838 1.419 . S
C836 H840 0.930 1_556 S
C837 C836 1.369 . S
C837 C846 1.429 . S
C838 C836 1.419 . S
C838 C839 1.363 . S
C838 H841 0.921 1_556 S
C839 C838 1.363 . S
C839 C845 1.428 . S
H840 C836 0.930 1_554 S
H841 C838 0.921 1_554 S
S842 N843 1.613 . S
S842 N844 1.610 . S
N843 S842 1.613 . S
N843 C846 1.350 . S
N844 S842 1.610 . S
N844 C845 1.351 . S
C845 C839 1.428 . S
C845 N844 1.351 . S
C845 C846 1.434 . S
C846 C837 1.429 . S
C846 N843 1.350 . S
C846 C845 1.434 . S
C847 C848 1.369 . S
C847 C849 1.419 . S
C847 H851 0.930 . S
C848 C847 1.369 . S
C848 C857 1.429 . S
C849 C847 1.419 . S
C849 C850 1.363 . S
C849 H852 0.929 . S
C850 C849 1.363 . S
C850 C856 1.428 . S
H851 C847 0.930 . S
H852 C849 0.929 . S
S853 N854 1.613 . S
S853 N855 1.610 . S
N854 S853 1.613 . S
N854 C857 1.350 . S
N855 S853 1.610 . S
N855 C856 1.351 . S
C856 C850 1.428 . S
C856 N855 1.351 . S
C856 C857 1.434 . S
C857 C848 1.429 . S
C857 N854 1.350 . S
C857 C856 1.434 . S
C858 C859 1.369 . S
C858 C860 1.419 . S
C858 H862 0.930 . S
C859 C858 1.369 . S
C859 C868 1.429 . S
C860 C858 1.419 . S
C860 C861 1.363 . S
C860 H863 0.929 . S
C861 C860 1.363 . S
C861 C867 1.428 . S
H862 C858 0.930 . S
H863 C860 0.929 . S
S864 N865 1.613 . S
S864 N866 1.610 . S
N865 S864 1.613 . S
N865 C868 1.350 . S
N866 S864 1.610 . S
N866 C867 1.351 . S
C867 C861 1.428 . S
C867 N866 1.351 . S
C867 C868 1.434 . S
C868 C859 1.429 . S
C868 N865 1.350 . S
C868 C867 1.434 . S
C869 C870 1.369 . S
C869 C871 1.419 . S
C869 H873 0.930 . S
C870 C869 1.369 . S
C870 C879 1.429 . S
C871 C869 1.419 . S
C871 C872 1.363 . S
C871 H874 0.929 . S
C872 C871 1.363 . S
C872 C878 1.428 . S
H873 C869 0.930 . S
H874 C871 0.929 . S
S875 N876 1.613 . S
S875 N877 1.610 . S
N876 S875 1.613 . S
N876 C879 1.350 . S
N877 S875 1.610 . S
N877 C878 1.351 . S
C878 C872 1.428 . S
C878 N877 1.351 . S
C878 C879 1.434 . S
C879 C870 1.429 . S
C879 N876 1.350 . S
C879 C878 1.434 . S
C880 C881 1.369 . S
C880 C882 1.419 . S
C880 H884 0.930 1_655 S
C881 C880 1.369 . S
C881 C890 1.429 . S
C882 C880 1.419 . S
C882 C883 1.363 . S
C882 H885 0.929 . S
C883 C882 1.363 . S
C883 C889 1.428 . S
H884 C880 0.930 1_455 S
H885 C882 0.929 . S
S886 N887 1.613 . S
S886 N888 1.610 . S
N887 S886 1.613 . S
N887 C890 1.350 . S
N888 S886 1.610 . S
N888 C889 1.351 . S
C889 C883 1.428 . S
C889 N888 1.351 . S
C889 C890 1.434 . S
C890 C881 1.429 . S
C890 N887 1.350 . S
C890 C889 1.434 . S
C891 C892 1.369 . S
C891 C893 1.419 . S
C891 H895 0.930 . S
C892 C891 1.369 . S
C892 C901 1.429 . S
C893 C891 1.419 . S
C893 C894 1.363 . S
C893 H896 0.929 . S
C894 C893 1.363 . S
C894 C900 1.428 . S
H895 C891 0.930 . S
H896 C893 0.929 . S
S897 N898 1.613 . S
S897 N899 1.610 . S
N898 S897 1.613 . S
N898 C901 1.350 . S
N899 S897 1.610 . S
N899 C900 1.351 . S
C900 C894 1.428 . S
C900 N899 1.351 . S
C900 C901 1.434 . S
C901 C892 1.429 . S
C901 N898 1.350 . S
C901 C900 1.434 . S
C902 C903 1.369 . S
C902 C904 1.419 . S
C902 H906 0.930 . S
C903 C902 1.369 . S
C903 C912 1.429 . S
C904 C902 1.419 . S
C904 C905 1.363 . S
C904 H907 0.929 . S
C905 C904 1.363 . S
C905 C911 1.428 . S
H906 C902 0.930 . S
H907 C904 0.929 . S
S908 N909 1.613 . S
S908 N910 1.610 . S
N909 S908 1.613 . S
N909 C912 1.350 . S
N910 S908 1.610 . S
N910 C911 1.351 . S
C911 C905 1.428 . S
C911 N910 1.351 . S
C911 C912 1.434 . S
C912 C903 1.429 . S
C912 N909 1.350 . S
C912 C911 1.434 . S
C913 C914 1.369 . S
C913 C915 1.419 . S
C913 H917 0.930 . S
C914 C913 1.369 . S
C914 C923 1.429 . S
C915 C913 1.419 . S
C915 C916 1.363 . S
C915 H918 0.929 . S
C916 C915 1.363 . S
C916 C922 1.428 . S
H917 C913 0.930 . S
H918 C915 0.929 . S
S919 N920 1.613 . S
S919 N921 1.610 . S
N920 S919 1.613 . S
N920 C923 1.350 . S
N921 S919 1.610 . S
N921 C922 1.351 . S
C922 C916 1.428 . S
C922 N921 1.351 . S
C922 C923 1.434 . S
C923 C914 1.429 . S
C923 N920 1.350 . S
C923 C922 1.434 . S
C924 C925 1.369 . S
C924 C926 1.419 . S
C924 H928 0.930 . S
C925 C924 1.369 . S
C925 C934 1.429 . S
C926 C924 1.419 . S
C926 C927 1.363 . S
C926 H929 0.929 1_655 S
C927 C926 1.363 . S
C927 C933 1.428 . S
H928 C924 0.930 . S
H929 C926 0.929 1_455 S
S930 N931 1.613 1_556 S
S930 N932 1.610 . S
N931 S930 1.613 1_554 S
N931 C934 1.350 . S
N932 S930 1.610 . S
N932 C933 1.351 1_556 S
C933 C927 1.428 . S
C933 N932 1.351 1_554 S
C933 C934 1.434 . S
C934 C925 1.429 . S
C934 N931 1.350 . S
C934 C933 1.434 . S
C935 C936 1.369 . S
C935 C937 1.419 . S
C935 H939 0.930 . S
C936 C935 1.369 . S
C936 C945 1.429 . S
C937 C935 1.419 . S
C937 C938 1.363 . S
C937 H940 0.929 . S
C938 C937 1.363 . S
C938 C944 1.428 . S
H939 C935 0.930 . S
H940 C937 0.929 . S
S941 N942 1.613 . S
S941 N943 1.610 . S
N942 S941 1.613 . S
N942 C945 1.350 . S
N943 S941 1.610 . S
N943 C944 1.351 . S
C944 C938 1.428 . S
C944 N943 1.351 . S
C944 C945 1.434 . S
C945 C936 1.429 . S
C945 N942 1.350 . S
C945 C944 1.434 . S
C946 C947 1.369 . S
C946 C948 1.419 . S
C946 H950 0.930 . S
C947 C946 1.369 . S
C947 C956 1.429 . S
C948 C946 1.419 . S
C948 C949 1.363 . S
C948 H951 0.929 . S
C949 C948 1.363 . S
C949 C955 1.428 . S
H950 C946 0.930 . S
H951 C948 0.929 . S
S952 N953 1.613 . S
S952 N954 1.610 . S
N953 S952 1.613 . S
N953 C956 1.350 . S
N954 S952 1.610 . S
N954 C955 1.351 . S
C955 C949 1.428 . S
C955 N954 1.351 . S
C955 C956 1.434 . S
C956 C947 1.429 . S
C956 N953 1.350 . S
C956 C955 1.434 . S
C957 C958 1.369 . S
C957 C959 1.419 . S
C957 H961 0.930 . S
C958 C957 1.369 . S
C958 C967 1.429 . S
C959 C957 1.419 . S
C959 C960 1.363 . S
C959 H962 0.929 . S
C960 C959 1.363 . S
C960 C966 1.428 . S
H961 C957 0.930 . S
H962 C959 0.929 . S
S963 N964 1.613 . S
S963 N965 1.610 . S
N964 S963 1.613 . S
N964 C967 1.350 . S
N965 S963 1.610 . S
N965 C966 1.351 . S
C966 C960 1.428 . S
C966 N965 1.351 . S
C966 C967 1.434 . S
C967 C958 1.429 . S
C967 N964 1.350 . S
C967 C966 1.434 . S
C529 N5 1.454 . S
C531 N14 1.441 . S
C540 N38 1.456 1_556 S
C542 N47 1.440 . S
C551 N71 1.451 . S
C553 N80 1.444 . S
C562 N104 1.453 . S
C564 N113 1.442 . S
C573 N137 1.450 . S
C575 N146 1.445 . S
C584 N170 1.449 . S
C586 N179 1.446 . S
C595 N203 1.449 . S
C597 N212 1.446 . S
C606 N245 1.445 . S
C608 N236 1.451 1_554 S
C617 N278 1.439 . S
C619 N269 1.455 1_554 S
C628 N302 1.457 . S
C630 N311 1.440 . S
C639 N335 1.454 . S
C641 N344 1.441 . S
C650 N377 1.446 . S
C652 N368 1.450 1_556 S
C661 N410 1.440 . S
C663 N401 1.454 . S
C672 N434 1.449 . S
C674 N443 1.446 . S
C683 N476 1.445 . S
C685 N467 1.451 . S
C694 N500 1.449 . S
C696 N509 1.446 . S
C705 C28 1.115 . S
C707 C160 1.118 . S
C716 C193 1.116 . S
C718 C61 1.118 . S
C727 C226 1.118 . S
C729 C94 1.116 . S
C738 C127 1.116 . S
C740 C259 1.117 . S
C749 C358 1.115 . S
C751 C292 1.116 . S
C760 C325 1.115 . S
C762 C391 1.117 . S
C771 C424 1.115 . S
C773 C490 1.117 . S
C782 C457 1.119 . S
C784 C523 1.117 . S
C793 C305 1.499 . S
C795 C8 1.497 . S
C804 C470 1.493 . S
C806 C41 1.495 . S
C815 C74 1.493 . S
C817 C272 1.494 . S
C826 C503 1.499 . S
C828 C107 1.498 . S
C837 C338 1.496 . S
C839 C140 1.498 . S
C848 C437 1.499 . S
C850 C173 1.498 . S
C859 C206 1.499 . S
C861 C371 1.497 . S
C870 C239 1.497 . S
C872 C404 1.494 . S
C881 C149 1.565 1_655 S
C883 C116 1.565 . S
C892 C413 1.562 . S
C894 C281 1.563 . S
C903 C50 1.562 . S
C905 C215 1.563 . S
C914 C446 1.562 . S
C916 C314 1.563 . S
C925 C182 1.565 . S
C927 C17 1.565 1_655 S
C936 C347 1.562 . S
C938 C512 1.562 . S
C947 C248 1.565 . S
C949 C83 1.564 . S
C958 C479 1.562 . S
C960 C380 1.562 . S
