# Generated by pormake.
# Topology wkj, (6)-cn, num edge types: 1
# Building blocks:
#     Node 0, Type 0, BuildingBlock: BETFAJ_clean_sbu_0, # of connection points: 6
#     Node 1, Type 0, BuildingBlock: BETFAJ_clean_sbu_0, # of connection points: 6
#     Node 2, Type 0, BuildingBlock: BETFAJ_clean_sbu_0, # of connection points: 6
#     Node 3, Type 0, BuildingBlock: BETFAJ_clean_sbu_0, # of connection points: 6
#     Node 4, Type 0, BuildingBlock: BETFAJ_clean_sbu_0, # of connection points: 6
#     Node 5, Type 0, BuildingBlock: BETFAJ_clean_sbu_0, # of connection points: 6
#     Node 6, Type 0, BuildingBlock: BETFAJ_clean_sbu_0, # of connection points: 6
#     Node 7, Type 0, BuildingBlock: BETFAJ_clean_sbu_0, # of connection points: 6
#     Node 8, Type 0, BuildingBlock: BETFAJ_clean_sbu_0, # of connection points: 6
#     Node 9, Type 0, BuildingBlock: BETFAJ_clean_sbu_0, # of connection points: 6
#     Node 10, Type 0, BuildingBlock: BETFAJ_clean_sbu_0, # of connection points: 6
#     Node 11, Type 0, BuildingBlock: BETFAJ_clean_sbu_0, # of connection points: 6
#     Edge 12, Type (0, 0), BuildingBlock: KIFKEQ_clean_linker_1, # of connection points: 2
#     Edge 13, Type (0, 0), BuildingBlock: KIFKEQ_clean_linker_1, # of connection points: 2
#     Edge 14, Type (0, 0), BuildingBlock: KIFKEQ_clean_linker_1, # of connection points: 2
#     Edge 15, Type (0, 0), BuildingBlock: KIFKEQ_clean_linker_1, # of connection points: 2
#     Edge 16, Type (0, 0), BuildingBlock: KIFKEQ_clean_linker_1, # of connection points: 2
#     Edge 17, Type (0, 0), BuildingBlock: KIFKEQ_clean_linker_1, # of connection points: 2
#     Edge 18, Type (0, 0), BuildingBlock: KIFKEQ_clean_linker_1, # of connection points: 2
#     Edge 19, Type (0, 0), BuildingBlock: KIFKEQ_clean_linker_1, # of connection points: 2
#     Edge 20, Type (0, 0), BuildingBlock: KIFKEQ_clean_linker_1, # of connection points: 2
#     Edge 21, Type (0, 0), BuildingBlock: KIFKEQ_clean_linker_1, # of connection points: 2
#     Edge 22, Type (0, 0), BuildingBlock: KIFKEQ_clean_linker_1, # of connection points: 2
#     Edge 23, Type (0, 0), BuildingBlock: KIFKEQ_clean_linker_1, # of connection points: 2
#     Edge 24, Type (0, 0), BuildingBlock: KIFKEQ_clean_linker_1, # of connection points: 2
#     Edge 25, Type (0, 0), BuildingBlock: KIFKEQ_clean_linker_1, # of connection points: 2
#     Edge 26, Type (0, 0), BuildingBlock: KIFKEQ_clean_linker_1, # of connection points: 2
#     Edge 27, Type (0, 0), BuildingBlock: KIFKEQ_clean_linker_1, # of connection points: 2
#     Edge 28, Type (0, 0), BuildingBlock: KIFKEQ_clean_linker_1, # of connection points: 2
#     Edge 29, Type (0, 0), BuildingBlock: KIFKEQ_clean_linker_1, # of connection points: 2
#     Edge 30, Type (0, 0), BuildingBlock: KIFKEQ_clean_linker_1, # of connection points: 2
#     Edge 31, Type (0, 0), BuildingBlock: KIFKEQ_clean_linker_1, # of connection points: 2
#     Edge 32, Type (0, 0), BuildingBlock: KIFKEQ_clean_linker_1, # of connection points: 2
#     Edge 33, Type (0, 0), BuildingBlock: KIFKEQ_clean_linker_1, # of connection points: 2
#     Edge 34, Type (0, 0), BuildingBlock: KIFKEQ_clean_linker_1, # of connection points: 2
#     Edge 35, Type (0, 0), BuildingBlock: KIFKEQ_clean_linker_1, # of connection points: 2
#     Edge 36, Type (0, 0), BuildingBlock: KIFKEQ_clean_linker_1, # of connection points: 2
#     Edge 37, Type (0, 0), BuildingBlock: KIFKEQ_clean_linker_1, # of connection points: 2
#     Edge 38, Type (0, 0), BuildingBlock: KIFKEQ_clean_linker_1, # of connection points: 2
#     Edge 39, Type (0, 0), BuildingBlock: KIFKEQ_clean_linker_1, # of connection points: 2
#     Edge 40, Type (0, 0), BuildingBlock: KIFKEQ_clean_linker_1, # of connection points: 2
#     Edge 41, Type (0, 0), BuildingBlock: KIFKEQ_clean_linker_1, # of connection points: 2
#     Edge 42, Type (0, 0), BuildingBlock: KIFKEQ_clean_linker_1, # of connection points: 2
#     Edge 43, Type (0, 0), BuildingBlock: KIFKEQ_clean_linker_1, # of connection points: 2
#     Edge 44, Type (0, 0), BuildingBlock: KIFKEQ_clean_linker_1, # of connection points: 2
#     Edge 45, Type (0, 0), BuildingBlock: KIFKEQ_clean_linker_1, # of connection points: 2
#     Edge 46, Type (0, 0), BuildingBlock: KIFKEQ_clean_linker_1, # of connection points: 2
#     Edge 47, Type (0, 0), BuildingBlock: KIFKEQ_clean_linker_1, # of connection points: 2
# Relax obj value: 0.750
# Max RMSD: 0.174
# Mean RMSD: 0.174
data_MOF--net-wkj--node1-BETFAJ_clean_sbu_0--edge1-KIFKEQ_clean_linker_1
_symmetry_space_group_name_H-M    P1
_symmetry_Int_Tables_number       1
_symmetry_cell_setting            triclinic
loop_
_symmetry_equiv_pos_as_xyz
'x, y, z'
_cell_length_a     49.819873
_cell_length_b     49.871246
_cell_length_c     30.944255
_cell_angle_alpha  89.891489
_cell_angle_beta   90.18875
_cell_angle_gamma 119.98587
loop_
_atom_site_label
_atom_site_type_symbol
_atom_site_fract_x
_atom_site_fract_y
_atom_site_fract_z
_atom_type_partial_charge
Sm0 Sm 0.44842 0.07883 0.36106 0.0
Sm1 Sm 0.5061 0.08933 0.34662 0.0
C2 C 0.39256 0.06685 0.3868 0.0
C3 C 0.37673 0.06447 0.42751 0.0
C4 C 0.39038 0.06394 0.46685 0.0
C5 C 0.37478 0.06069 0.50548 0.0
C6 C 0.34524 0.05794 0.50542 0.0
C7 C 0.332 0.0593 0.46587 0.0
C8 C 0.34773 0.06261 0.42714 0.0
C9 C 0.48021 0.13428 0.3153 0.0
C10 C 0.49873 0.0994 0.44995 0.0
C11 C 0.56417 0.11324 0.31984 0.0
C12 C 0.58407 0.13944 0.29178 0.0
C13 C 0.61476 0.15992 0.30434 0.0
C14 C 0.63247 0.18782 0.28222 0.0
C15 C 0.61964 0.19563 0.24722 0.0
C16 C 0.58913 0.17447 0.23401 0.0
C17 C 0.57144 0.1468 0.25628 0.0
C18 C 0.47172 0.03476 0.39277 0.0
C19 C 0.4559 0.04801 0.26664 0.0
O20 O 0.39979 0.04549 0.37955 0.0
O21 O 0.41488 0.09438 0.37686 0.0
O22 O 0.49121 0.12662 0.34736 0.0
O23 O 0.45442 0.11039 0.30328 0.0
O24 O 0.47019 0.09152 0.43508 0.0
O25 O 0.51874 0.10159 0.42024 0.0
O26 O 0.55633 0.12133 0.35543 0.0
O27 O 0.54097 0.08893 0.30194 0.0
O28 O 0.46199 0.04295 0.3608 0.0
O29 O 0.50097 0.05375 0.39801 0.0
O30 O 0.48571 0.06538 0.27756 0.0
O31 O 0.43562 0.04768 0.29544 0.0
H32 H 0.41277 0.06532 0.46764 0.0
H33 H 0.38535 0.05901 0.53524 0.0
H34 H 0.30933 0.05729 0.46486 0.0
H35 H 0.33705 0.06323 0.39687 0.0
H36 H 0.62466 0.15484 0.33224 0.0
H37 H 0.65583 0.20357 0.29321 0.0
H38 H 0.57878 0.17928 0.20642 0.0
H39 H 0.54763 0.13158 0.24645 0.0
Sm40 Sm 0.38221 0.48291 0.70267 0.0
Sm41 Sm 0.42237 0.54557 0.68093 0.0
C42 C 0.34375 0.42539 0.72782 0.0
C43 C 0.33276 0.40285 0.76284 0.0
C44 C 0.34485 0.41111 0.80466 0.0
C45 C 0.33285 0.38921 0.83778 0.0
C46 C 0.30863 0.35888 0.82938 0.0
C47 C 0.29681 0.35081 0.78726 0.0
C48 C 0.30879 0.37272 0.75424 0.0
C49 C 0.35139 0.50891 0.65816 0.0
C50 C 0.41143 0.53362 0.78886 0.0
C51 C 0.43946 0.60023 0.64601 0.0
C52 C 0.42409 0.60875 0.61266 0.0
C53 C 0.4275 0.63841 0.61185 0.0
C54 C 0.40998 0.6452 0.58297 0.0
C55 C 0.38865 0.62227 0.55473 0.0
C56 C 0.3855 0.59258 0.55593 0.0
C57 C 0.40282 0.58586 0.58475 0.0
C58 C 0.4547 0.5251 0.7271 0.0
C59 C 0.41532 0.49054 0.60571 0.0
O60 O 0.37125 0.43425 0.71214 0.0
O61 O 0.3375 0.4478 0.73081 0.0
O62 O 0.36989 0.52084 0.6897 0.0
O63 O 0.35142 0.48406 0.64663 0.0
O64 O 0.39504 0.50397 0.77577 0.0
O65 O 0.42295 0.55512 0.75761 0.0
O66 O 0.42383 0.59069 0.6819 0.0
O67 O 0.45077 0.58276 0.6337 0.0
O68 O 0.43412 0.50907 0.69924 0.0
O69 O 0.46277 0.55418 0.72432 0.0
O70 O 0.42598 0.52073 0.61431 0.0
O71 O 0.39827 0.47057 0.63649 0.0
H72 H 0.36341 0.43438 0.81161 0.0
H73 H 0.34282 0.39588 0.86982 0.0
H74 H 0.27813 0.32769 0.77996 0.0
H75 H 0.29917 0.36619 0.72196 0.0
H76 H 0.44331 0.65613 0.634 0.0
H77 H 0.41291 0.66822 0.58303 0.0
H78 H 0.37 0.57449 0.53402 0.0
H79 H 0.39933 0.5626 0.58553 0.0
Sm80 Sm 0.90091 0.36587 1.02357 0.0
Sm81 Sm 0.89069 0.41286 1.01342 0.0
C82 C 0.91136 0.32004 1.044 0.0
C83 C 0.91754 0.30647 1.08188 0.0
C84 C 0.91384 0.31508 1.12346 0.0
C85 C 0.9213 0.30322 0.15938 0.0
C86 C 0.93269 0.28264 0.15425 0.0
C87 C 0.93553 0.27343 1.11244 0.0
C88 C 0.92792 0.28526 1.07645 0.0
C89 C 0.84697 0.3443 0.97448 0.0
C90 C 0.87927 0.39227 1.11496 0.0
C91 C 0.86637 0.44678 0.98694 0.0
C92 C 0.83755 0.43767 0.96312 0.0
C93 C 0.81875 0.45016 0.97425 0.0
C94 C 0.78921 0.43827 0.95587 0.0
C95 C 0.77805 0.41353 0.92638 0.0
C96 C 0.79733 0.40153 0.91498 0.0
C97 C 0.8266 0.41328 0.93337 0.0
C98 C 0.94427 0.43169 1.06178 0.0
C99 C 0.93436 0.40872 0.93335 0.0
O100 O 0.93317 0.34767 1.03301 0.0
O101 O 0.88386 0.31697 1.04181 0.0
O102 O 0.8532 0.3607 1.0087 0.0
O103 O 0.87159 0.34392 0.96246 0.0
O104 O 0.88895 0.37332 1.09895 0.0
O105 O 0.87569 0.40976 1.08608 0.0
O106 O 0.86212 0.4348 1.02536 0.0
O107 O 0.8884 0.44541 0.96606 0.0
O108 O 0.9372 0.41512 1.02854 0.0
O109 O 0.92507 0.44168 1.06699 0.0
O110 O 0.91885 0.42241 0.94704 0.0
O111 O 0.93221 0.38583 0.95858 0.0
H112 H 0.90595 0.33154 0.12811 0.0
H113 H 0.91957 0.31138 0.19109 0.0
H114 H 0.94429 0.25768 1.10759 0.0
H115 H 0.93076 0.27838 1.04436 0.0
H116 H 0.82661 0.46857 0.99792 0.0
H117 H 0.77498 0.44805 0.96524 0.0
H118 H 0.78997 0.38312 0.89143 0.0
H119 H 0.84043 0.40284 0.92491 0.0
Sm120 Sm 0.51889 0.90099 0.35833 0.0
Sm121 Sm 0.46178 0.89191 0.34655 0.0
C122 C 0.57485 0.91152 0.38178 0.0
C123 C 0.59149 0.91317 0.42156 0.0
C124 C 0.57693 0.90874 0.46161 0.0
C125 C 0.59325 0.91165 0.49957 0.0
C126 C 0.62447 0.91903 0.49814 0.0
C127 C 0.63868 0.92251 0.45773 0.0
C128 C 0.62223 0.91955 0.41965 0.0
C129 C 0.48383 0.84441 0.31643 0.0
C130 C 0.46925 0.88037 0.448 0.0
C131 C 0.40528 0.86511 0.31372 0.0
C132 C 0.38459 0.83166 0.30827 0.0
C133 C 0.39137 0.81122 0.33075 0.0
C134 C 0.38103 0.78143 0.31492 0.0
C135 C 0.36389 0.77178 0.27633 0.0
C136 C 0.35357 0.7908 0.25749 0.0
C137 C 0.3641 0.8207 0.27319 0.0
C138 C 0.49683 0.94603 0.39204 0.0
C139 C 0.51137 0.93638 0.26837 0.0
O140 O 0.56808 0.93337 0.37599 0.0
O141 O 0.55186 0.88431 0.372 0.0
O142 O 0.47535 0.85365 0.34941 0.0
O143 O 0.50903 0.86743 0.30118 0.0
O144 O 0.49813 0.88999 0.43291 0.0
O145 O 0.44826 0.87584 0.41837 0.0
O146 O 0.41134 0.87535 0.35338 0.0
O147 O 0.43018 0.87616 0.28994 0.0
O148 O 0.50644 0.93783 0.35989 0.0
O149 O 0.46733 0.92769 0.39719 0.0
O150 O 0.48291 0.92476 0.28443 0.0
O151 O 0.5306 0.93006 0.29092 0.0
H152 H 0.5532 0.90381 0.46359 0.0
H153 H 0.58175 0.90954 0.53007 0.0
H154 H 0.66263 0.92813 0.45561 0.0
H155 H 0.63366 0.9228 0.38877 0.0
H156 H 0.40739 0.81933 0.35778 0.0
H157 H 0.38925 0.76727 0.33014 0.0
H158 H 0.34057 0.78417 0.22749 0.0
H159 H 0.35889 0.83622 0.25522 0.0
Sm160 Sm 0.59748 0.50168 0.70231 0.0
Sm161 Sm 0.56243 0.43897 0.67811 0.0
C162 C 0.63152 0.55968 0.72885 0.0
C163 C 0.63892 0.58212 0.7634 0.0
C164 C 0.62524 0.5731 0.80419 0.0
C165 C 0.6341 0.59505 0.83712 0.0
C166 C 0.65672 0.62617 0.82952 0.0
C167 C 0.66995 0.63502 0.78831 0.0
C168 C 0.66111 0.61308 0.75551 0.0
C169 C 0.63389 0.4808 0.6604 0.0
C170 C 0.56931 0.45106 0.78705 0.0
C171 C 0.54886 0.38481 0.64405 0.0
C172 C 0.56865 0.37226 0.63045 0.0
C173 C 0.59707 0.38163 0.65137 0.0
C174 C 0.61935 0.37633 0.6322 0.0
C175 C 0.61337 0.36143 0.59202 0.0
C176 C 0.58355 0.34894 0.57378 0.0
C177 C 0.56142 0.35452 0.59274 0.0
C178 C 0.52416 0.45464 0.71795 0.0
C179 C 0.56565 0.49335 0.60432 0.0
O180 O 0.60493 0.54928 0.70916 0.0
O181 O 0.63922 0.5385 0.73505 0.0
O182 O 0.61454 0.46668 0.69043 0.0
O183 O 0.63183 0.50469 0.64933 0.0
O184 O 0.5831 0.4807 0.77447 0.0
O185 O 0.56171 0.42999 0.75549 0.0
O186 O 0.54819 0.38932 0.68537 0.0
O187 O 0.55145 0.40797 0.62107 0.0
O188 O 0.54605 0.47235 0.69304 0.0
O189 O 0.51776 0.42621 0.71358 0.0
O190 O 0.55822 0.46368 0.61134 0.0
O191 O 0.57963 0.51292 0.63689 0.0
H192 H 0.60798 0.5492 0.81056 0.0
H193 H 0.62312 0.58772 0.86842 0.0
H194 H 0.6875 0.65875 0.78167 0.0
H195 H 0.6719 0.62022 0.72404 0.0
H196 H 0.60284 0.39494 0.68094 0.0
H197 H 0.64209 0.38604 0.64689 0.0
H198 H 0.5784 0.3377 0.54249 0.0
H199 H 0.53959 0.34703 0.57622 0.0
Sm200 Sm 0.07951 0.60874 1.02336 0.0
Sm201 Sm 0.08834 0.56012 1.01353 0.0
C202 C 0.06963 0.65506 1.04299 0.0
C203 C 0.06965 0.67243 1.08091 0.0
C204 C 0.07678 0.66548 1.12166 0.0
C205 C 0.07401 0.68011 0.15824 0.0
C206 C 0.06404 0.70195 0.15463 0.0
C207 C 0.05851 0.71001 1.11333 0.0
C208 C 0.0613 0.69527 1.07667 0.0
C209 C 0.1356 0.62861 0.98111 0.0
C210 C 0.10136 0.58216 1.11423 0.0
C211 C 0.11394 0.52824 0.98498 0.0
C212 C 0.14722 0.53894 0.98323 0.0
C213 C 0.16786 0.56591 1.0059 0.0
C214 C 0.19886 0.58308 0.99342 0.0
C215 C 0.20955 0.57353 0.958 0.0
C216 C 0.18974 0.54444 0.93916 0.0
C217 C 0.15865 0.52737 0.95149 0.0
C218 C 0.03434 0.54246 1.05885 0.0
C219 C 0.04448 0.56538 0.93381 0.0
O220 O 0.04776 0.62614 1.04134 0.0
O221 O 0.09643 0.65891 1.03162 0.0
O222 O 0.12667 0.61176 1.01495 0.0
O223 O 0.1125 0.63055 0.96538 0.0
O224 O 0.09139 0.60094 1.09832 0.0
O225 O 0.10577 0.56525 1.08534 0.0
O226 O 0.10179 0.52411 1.02342 0.0
O227 O 0.1056 0.54373 0.95956 0.0
O228 O 0.04263 0.55955 1.02589 0.0
O229 O 0.05256 0.53129 1.06506 0.0
O230 O 0.058 0.5499 0.9486 0.0
O231 O 0.04862 0.58953 0.9578 0.0
H232 H 0.08333 0.64792 0.12537 0.0
H233 H 0.07781 0.67278 0.18952 0.0
H234 H 0.05091 0.72678 1.10954 0.0
H235 H 0.05596 0.70099 1.04518 0.0
H236 H 0.15939 0.57539 1.0303 0.0
H237 H 0.21358 0.60534 1.00851 0.0
H238 H 0.19718 0.53659 0.91146 0.0
H239 H 0.14299 0.5068 0.93338 0.0
Sm240 Sm 0.89113 0.49708 0.53773 0.0
Sm241 Sm 0.85946 0.43346 0.56146 0.0
C242 C 0.91853 0.55558 0.51247 0.0
C243 C 0.93487 0.57863 0.47902 0.0
C244 C 0.93868 0.57007 0.43747 0.0
C245 C 0.95224 0.5926 0.40533 0.0
C246 C 0.96205 0.62384 0.41448 0.0
C247 C 0.95876 0.63224 0.45653 0.0
C248 C 0.94519 0.60973 0.48855 0.0
C249 C 0.83422 0.47887 0.57961 0.0
C250 C 0.86807 0.44655 0.45257 0.0
C251 C 0.81469 0.3815 0.59448 0.0
C252 C 0.79067 0.3776 0.62523 0.0
C253 C 0.76026 0.35269 0.62139 0.0
C254 C 0.73652 0.35161 0.64688 0.0
C255 C 0.74294 0.37566 0.67615 0.0
C256 C 0.77356 0.40045 0.6797 0.0
C257 C 0.79704 0.4015 0.65439 0.0
C258 C 0.91277 0.44646 0.52195 0.0
C259 C 0.91065 0.48607 0.63655 0.0
O260 O 0.93331 0.54356 0.53206 0.0
O261 O 0.88935 0.5357 0.50529 0.0
O262 O 0.83878 0.46432 0.54963 0.0
O263 O 0.86057 0.50257 0.58978 0.0
O264 O 0.88409 0.47612 0.46553 0.0
O265 O 0.85394 0.42515 0.48366 0.0
O266 O 0.81244 0.39241 0.55716 0.0
O267 O 0.84322 0.39501 0.60914 0.0
O268 O 0.90973 0.46469 0.54738 0.0
O269 O 0.88897 0.41867 0.52386 0.0
O270 O 0.88607 0.45753 0.62983 0.0
O271 O 0.91923 0.50554 0.60328 0.0
H272 H 0.93079 0.54606 0.42982 0.0
H273 H 0.95506 0.58559 0.37334 0.0
H274 H 0.96596 0.65606 0.46439 0.0
H275 H 0.94218 0.61652 0.52062 0.0
H276 H 0.7548 0.33445 0.59812 0.0
H277 H 0.71323 0.33219 0.64347 0.0
H278 H 0.7797 0.419 0.70268 0.0
H279 H 0.82015 0.42139 0.6571 0.0
Sm280 Sm 0.36509 0.88274 0.86998 0.0
Sm281 Sm 0.41355 0.87432 0.8944 0.0
C282 C 0.32418 0.90139 0.85781 0.0
C283 C 0.3159 0.91748 0.82559 0.0
C284 C 0.32513 0.91919 0.78252 0.0
C285 C 0.3168 0.93432 0.75202 0.0
C286 C 0.29931 0.94814 0.7642 0.0
C287 C 0.29052 0.94679 0.80755 0.0
C288 C 0.29868 0.93139 0.83805 0.0
C289 C 0.34064 0.82115 0.89449 0.0
C290 C 0.40235 0.87343 0.7838 0.0
C291 C 0.44497 0.84546 0.9103 0.0
C292 C 0.44376 0.82512 0.94574 0.0
C293 C 0.43679 0.79471 0.93632 0.0
C294 C 0.42774 0.77261 0.96928 0.0
C295 C 0.42595 0.78091 1.01192 0.0
C296 C 0.43528 0.81181 1.02177 0.0
C297 C 0.44406 0.83377 0.98896 0.0
C298 C 0.43129 0.93301 0.86573 0.0
C299 C 0.39941 0.91116 0.97153 0.0
O300 O 0.35063 0.91803 0.87752 0.0
O301 O 0.31918 0.87396 0.84718 0.0
O302 O 0.36169 0.84435 0.9155 0.0
O303 O 0.33518 0.83065 0.85846 0.0
O304 O 0.38147 0.88157 0.79601 0.0
O305 O 0.4172 0.86846 0.81647 0.0
O306 O 0.41992 0.83375 0.88647 0.0
O307 O 0.45576 0.87476 0.91924 0.0
O308 O 0.41308 0.90801 0.84851 0.0
O309 O 0.4433 0.92812 0.90011 0.0
O310 O 0.41513 0.8967 0.96288 0.0
O311 O 0.37914 0.90903 0.94084 0.0
H312 H 0.33882 0.9089 0.77257 0.0
H313 H 0.32451 0.93568 0.71898 0.0
H314 H 0.27719 0.95741 0.81771 0.0
H315 H 0.29156 0.93035 0.87136 0.0
H316 H 0.43621 0.78752 0.90315 0.0
H317 H 0.42027 0.74877 0.96116 0.0
H318 H 0.43375 0.81847 1.05459 0.0
H319 H 0.44904 0.85691 0.99723 0.0
Sm320 Sm 0.45634 0.36744 0.21576 0.0
Sm321 Sm 0.51542 0.41292 0.22848 0.0
C322 C 0.39896 0.3239 0.19524 0.0
C323 C 0.37894 0.30968 0.15783 0.0
C324 C 0.39081 0.31774 1.11597 0.0
C325 C 0.37116 0.30503 1.08051 0.0
C326 C 0.33932 0.2841 1.08643 0.0
C327 C 0.32776 0.27541 0.12857 0.0
C328 C 0.34752 0.28812 0.16407 0.0
C329 C 0.48702 0.34248 0.26195 0.0
C330 C 0.50493 0.39387 0.12516 0.0
C331 C 0.57401 0.44558 0.25431 0.0
C332 C 0.59239 0.44003 0.28634 0.0
C333 C 0.62433 0.45241 0.28007 0.0
C334 C 0.64095 0.44264 0.30592 0.0
C335 C 0.62566 0.42008 0.33798 0.0
C336 C 0.59385 0.40867 0.34505 0.0
C337 C 0.57735 0.4184 0.31932 0.0
C338 C 0.48257 0.43436 0.18133 0.0
C339 C 0.46688 0.4074 0.30915 0.0
O340 O 0.4068 0.35252 0.20351 0.0
O341 O 0.42202 0.3188 0.19945 0.0
O342 O 0.49792 0.36022 0.22912 0.0
O343 O 0.46233 0.34254 0.2746 0.0
O344 O 0.47596 0.37547 0.14057 0.0
O345 O 0.52615 0.41055 0.15456 0.0
O346 O 0.5647 0.42614 0.22219 0.0
O347 O 0.55219 0.45047 0.26875 0.0
O348 O 0.47259 0.41752 0.21426 0.0
O349 O 0.51146 0.44311 0.1754 0.0
O350 O 0.49639 0.41776 0.2982 0.0
O351 O 0.44579 0.38832 0.28041 0.0
H352 H 0.41507 0.3344 1.11075 0.0
H353 H 0.38068 0.31279 1.04851 0.0
H354 H 0.30337 0.2594 0.13403 0.0
H355 H 0.33817 0.28161 0.19641 0.0
H356 H 0.63613 0.46874 0.25415 0.0
H357 H 0.66542 0.45188 0.29988 0.0
H358 H 0.58155 0.39188 0.37027 0.0
H359 H 0.55261 0.40821 0.32421 0.0
Sm360 Sm 0.09251 0.48132 0.54031 0.0
Sm361 Sm 0.11536 0.54455 0.56062 0.0
C362 C 0.07324 0.42358 0.51604 0.0
C363 C 0.06079 0.40133 0.48074 0.0
C364 C 0.05627 0.41011 0.43961 0.0
C365 C 0.0456 0.38858 0.40601 0.0
C366 C 0.03937 0.35809 0.41324 0.0
C367 C 0.04369 0.34945 0.45472 0.0
C368 C 0.05441 0.37101 0.48823 0.0
C369 C 0.14974 0.50798 0.58386 0.0
C370 C 0.11237 0.53084 0.45311 0.0
C371 C 0.1528 0.59973 0.59422 0.0
C372 C 0.17564 0.60857 0.62911 0.0
C373 C 0.20095 0.63875 0.63196 0.0
C374 C 0.22423 0.64598 0.66287 0.0
C375 C 0.22253 0.62298 0.69104 0.0
C376 C 0.19694 0.59277 0.68777 0.0
C377 C 0.17392 0.58563 0.65701 0.0
C378 C 0.06159 0.52271 0.51617 0.0
C379 C 0.06811 0.49031 0.63691 0.0
O380 O 0.05497 0.43236 0.53321 0.0
O381 O 0.10176 0.4461 0.51179 0.0
O382 O 0.14287 0.51955 0.55216 0.0
O383 O 0.12502 0.48314 0.59592 0.0
O384 O 0.09931 0.50139 0.46695 0.0
O385 O 0.12302 0.55285 0.48365 0.0
O386 O 0.15957 0.58917 0.5599 0.0
O387 O 0.12365 0.58288 0.60532 0.0
O388 O 0.06694 0.50754 0.54448 0.0
O389 O 0.08265 0.55185 0.51709 0.0
O390 O 0.08835 0.52031 0.62821 0.0
O391 O 0.0641 0.47003 0.60607 0.0
H392 H 0.0611 0.43351 0.43353 0.0
H393 H 0.04188 0.39567 0.3745 0.0
H394 H 0.03915 0.32618 0.46109 0.0
H395 H 0.05799 0.36407 0.51997 0.0
H396 H 0.20292 0.65656 0.60994 0.0
H397 H 0.2436 0.66942 0.66447 0.0
H398 H 0.19428 0.57458 0.70954 0.0
H399 H 0.15485 0.56203 0.65474 0.0
Sm400 Sm 0.5913 0.08604 0.87014 0.0
Sm401 Sm 0.57535 0.12459 0.89769 0.0
C402 C 0.60716 0.04332 0.85496 0.0
C403 C 0.62332 0.03504 0.82281 0.0
C404 C 0.6211 0.03978 0.77863 0.0
C405 C 0.63539 0.03029 0.74849 0.0
C406 C 0.65241 0.01615 0.76201 0.0
C407 C 0.65532 0.01231 0.80646 0.0
C408 C 0.64085 0.02169 0.8366 0.0
C409 C 0.64325 0.1452 0.88771 0.0
C410 C 0.56969 0.10972 0.78552 0.0
C411 C 0.58303 0.18098 0.90629 0.0
C412 C 0.60359 0.20968 0.93017 0.0
C413 C 0.63588 0.22566 0.92382 0.0
C414 C 0.65532 0.24984 0.95137 0.0
C415 C 0.64279 0.25844 0.98568 0.0
C416 C 0.61037 0.24459 0.98897 0.0
C417 C 0.59097 0.22042 0.96145 0.0
C418 C 0.52006 0.07668 0.88289 0.0
C419 C 0.56783 0.07281 0.97352 0.0
O420 O 0.58055 0.04037 0.84368 0.0
O421 O 0.6242 0.06837 0.87713 0.0
O422 O 0.62108 0.12872 0.91262 0.0
O423 O 0.63693 0.13197 0.84997 0.0
O424 O 0.58172 0.09234 0.79685 0.0
O425 O 0.56514 0.12457 0.81873 0.0
O426 O 0.59589 0.17316 0.87585 0.0
O427 O 0.56307 0.15723 0.92907 0.0
O428 O 0.5435 0.08247 0.85961 0.0
O429 O 0.52695 0.09247 0.91853 0.0
O430 O 0.57091 0.10096 0.96845 0.0
O431 O 0.57148 0.06051 0.93766 0.0
H432 H 0.6078 0.05022 0.76735 0.0
H433 H 0.63213 0.03305 0.71449 0.0
H434 H 0.66845 0.00175 0.8179 0.0
H435 H 0.64296 0.0181 0.87071 0.0
H436 H 0.64632 0.2185 0.89911 0.0
H437 H 0.68019 0.26031 0.94781 0.0
H438 H 0.5999 0.25041 1.01526 0.0
H439 H 0.56613 0.2089 0.96635 0.0
Sm440 Sm 0.51899 0.62008 0.22049 0.0
Sm441 Sm 0.46255 0.57116 0.22916 0.0
C442 C 0.57477 0.6671 0.20068 0.0
C443 C 0.5932 0.68174 0.16216 0.0
C444 C 0.57959 0.67343 1.12116 0.0
C445 C 0.59767 0.68584 1.08439 0.0
C446 C 0.62971 0.70675 1.08801 0.0
C447 C 0.64301 0.71593 0.12932 0.0
C448 C 0.6248 0.70348 0.16621 0.0
C449 C 0.48215 0.63989 0.26112 0.0
C450 C 0.47161 0.5915 0.12808 0.0
C451 C 0.40543 0.53843 0.259 0.0
C452 C 0.38181 0.5477 0.26157 0.0
C453 C 0.38689 0.57464 0.23994 0.0
C454 C 0.37154 0.59018 0.25316 0.0
C455 C 0.35106 0.57905 0.28835 0.0
C456 C 0.34311 0.54994 0.30604 0.0
C457 C 0.35862 0.53449 0.29293 0.0
C458 C 0.49958 0.55443 0.18455 0.0
C459 C 0.51121 0.57628 0.30942 0.0
O460 O 0.56943 0.63927 0.20926 0.0
O461 O 0.55027 0.66974 0.20555 0.0
O462 O 0.47463 0.62266 0.22764 0.0
O463 O 0.50707 0.64206 0.27764 0.0
O464 O 0.50024 0.61045 0.14451 0.0
O465 O 0.45008 0.57492 0.15691 0.0
O466 O 0.41322 0.53451 0.22028 0.0
O467 O 0.42945 0.55481 0.28376 0.0
O468 O 0.50809 0.57135 0.21764 0.0
O469 O 0.47019 0.54294 0.17762 0.0
O470 O 0.4833 0.55897 0.29168 0.0
O471 O 0.53015 0.60256 0.28829 0.0
H472 H 0.55521 0.65665 1.11756 0.0
H473 H 0.58677 0.67766 1.05314 0.0
H474 H 0.66759 0.73197 0.13306 0.0
H475 H 0.63552 0.71019 0.19784 0.0
H476 H 0.40493 0.58532 0.21578 0.0
H477 H 0.37804 0.61246 0.23888 0.0
H478 H 0.32768 0.54086 0.3335 0.0
H479 H 0.35461 0.51389 0.31017 0.0
H480 H 0.53135 0.19296 0.33511 0.0
H481 H 0.44136 0.15008 0.27431 0.0
H482 H 0.53676 0.24447 0.32206 0.0
H483 H 0.44635 0.20064 0.26292 0.0
H484 H 0.44744 0.29004 0.30658 0.0
H485 H 0.44915 0.24265 0.31814 0.0
H486 H 0.53677 0.28228 0.25226 0.0
H487 H 0.53462 0.33019 0.23908 0.0
C488 C 0.51279 0.19432 0.31886 0.0
C489 C 0.48585 0.16678 0.30597 0.0
C490 C 0.51592 0.22399 0.31123 0.0
C491 C 0.49192 0.2271 0.29147 0.0
C492 C 0.46533 0.19957 0.27837 0.0
C493 C 0.46254 0.17028 0.28494 0.0
C494 C 0.46734 0.2891 0.29452 0.0
C495 C 0.49082 0.31451 0.27156 0.0
C496 C 0.46823 0.26156 0.3012 0.0
C497 C 0.49303 0.25813 0.28623 0.0
C498 C 0.51728 0.28385 0.26456 0.0
C499 C 0.51602 0.31143 0.25687 0.0
H500 H 0.32352 0.53469 0.70751 0.0
H501 H 0.31874 0.49518 0.58213 0.0
H502 H 0.27691 0.53785 0.69028 0.0
H503 H 0.27285 0.49918 0.56436 0.0
H504 H 0.20323 0.53372 0.53405 0.0
H505 H 0.25321 0.53731 0.55118 0.0
H506 H 0.21919 0.49937 0.67765 0.0
H507 H 0.16912 0.49498 0.66001 0.0
C508 C 0.31293 0.52718 0.67596 0.0
C509 C 0.32517 0.51467 0.64629 0.0
C510 C 0.28594 0.52879 0.66611 0.0
C511 C 0.27068 0.5187 0.6258 0.0
C512 C 0.28376 0.50737 0.59559 0.0
C513 C 0.31019 0.50502 0.60586 0.0
C514 C 0.2065 0.52647 0.5657 0.0
C515 C 0.18185 0.51405 0.59557 0.0
C516 C 0.2352 0.52832 0.57549 0.0
C517 C 0.24061 0.51857 0.61593 0.0
C518 C 0.2163 0.50732 0.64632 0.0
C519 C 0.18741 0.50474 0.63613 0.0
H520 H 0.78825 0.32131 1.01277 0.0
H521 H 0.83323 0.30642 0.9044 0.0
H522 H 0.73918 0.27524 0.99191 0.0
H523 H 0.78517 0.26046 0.88436 0.0
H524 H 0.69026 0.18766 0.83518 0.0
H525 H 0.73635 0.23644 0.85462 0.0
H526 H 0.70899 0.22059 0.98861 0.0
H527 H 0.66209 0.17244 0.96848 0.0
C528 C 0.78774 0.30851 0.98425 0.0
C529 C 0.81519 0.31817 0.96038 0.0
C530 C 0.75944 0.28159 0.97239 0.0
C531 C 0.75733 0.2632 0.9361 0.0
C532 C 0.78482 0.27354 0.91198 0.0
C533 C 0.81287 0.30023 0.92377 0.0
C534 C 0.69396 0.19453 0.86883 0.0
C535 C 0.67211 0.17554 0.90004 0.0
C536 C 0.7208 0.22276 0.88028 0.0
C537 C 0.72735 0.2333 0.92365 0.0
C538 C 0.70521 0.21423 0.95482 0.0
C539 C 0.67819 0.18612 0.94325 0.0
H540 H 0.48932 0.67175 0.33639 0.0
H541 H 0.45863 0.66733 0.20504 0.0
H542 H 0.48465 0.71765 0.34916 0.0
H543 H 0.45444 0.71386 0.2175 0.0
H544 H 0.4948 0.82123 0.2424 0.0
H545 H 0.48917 0.77033 0.22901 0.0
H546 H 0.45088 0.74088 0.35646 0.0
H547 H 0.45606 0.79195 0.36948 0.0
C548 C 0.48104 0.68022 0.31026 0.0
C549 C 0.47425 0.66528 0.26965 0.0
C550 C 0.47832 0.7068 0.31765 0.0
C551 C 0.46935 0.72023 0.28448 0.0
C552 C 0.46175 0.70479 0.24403 0.0
C553 C 0.46386 0.67772 0.23688 0.0
C554 C 0.48465 0.8038 0.26745 0.0
C555 C 0.47589 0.8112 0.30711 0.0
C556 C 0.48136 0.77431 0.25968 0.0
C557 C 0.46975 0.7509 0.29157 0.0
C558 C 0.46025 0.75804 0.33098 0.0
C559 C 0.46298 0.78745 0.33844 0.0
H560 H 0.67992 0.51552 0.60263 0.0
H561 H 0.65176 0.43886 0.69016 0.0
H562 H 0.72621 0.51301 0.5839 0.0
H563 H 0.69743 0.43513 0.6692 0.0
H564 H 0.77411 0.42748 0.57811 0.0
H565 H 0.72509 0.42526 0.59851 0.0
H566 H 0.77553 0.52283 0.6272 0.0
H567 H 0.82408 0.52475 0.60887 0.0
C568 C 0.68323 0.49773 0.61759 0.0
C569 C 0.6614 0.47714 0.64775 0.0
C570 C 0.71003 0.49633 0.60675 0.0
C571 C 0.71601 0.47386 0.62485 0.0
C572 C 0.69386 0.45271 0.65429 0.0
C573 C 0.66732 0.45465 0.66608 0.0
C574 C 0.77475 0.44843 0.58891 0.0
C575 C 0.80344 0.47635 0.59152 0.0
C576 C 0.74655 0.44714 0.60081 0.0
C577 C 0.74597 0.47396 0.61433 0.0
C578 C 0.77468 0.50171 0.61672 0.0
C579 C 0.80275 0.50278 0.60619 0.0
H580 H 0.31955 0.80195 0.97981 0.0
H581 H 0.30419 0.7692 0.8484 0.0
H582 H 0.27258 0.7538 1.00212 0.0
H583 H 0.25833 0.72156 0.87029 0.0
H584 H 0.15619 0.66226 0.90694 0.0
H585 H 0.20684 0.70587 0.88972 0.0
H586 H 0.24197 0.6962 1.01282 0.0
H587 H 0.19039 0.65191 1.03018 0.0
C588 C 0.30674 0.78429 0.9558 0.0
C589 C 0.31602 0.78991 0.91206 0.0
C590 C 0.27955 0.75651 0.96858 0.0
C591 C 0.26065 0.73346 0.93807 0.0
C592 C 0.2712 0.73864 0.89494 0.0
C593 C 0.29802 0.76613 0.88232 0.0
C594 C 0.1747 0.66898 0.93032 0.0
C595 C 0.16872 0.65303 0.96997 0.0
C596 C 0.20415 0.69425 0.92032 0.0
C597 C 0.22928 0.70521 0.9496 0.0
C598 C 0.22352 0.689 0.98928 0.0
C599 C 0.19385 0.66323 0.99915 0.0
H600 H 0.68658 0.24925 1.02337 0.0
H601 H 0.64192 0.30395 1.03522 0.0
H602 H 0.69799 0.25478 1.09889 0.0
H603 H 0.6543 0.31061 1.11217 0.0
H604 H 0.68146 0.225 0.22568 0.0
H605 H 0.70685 0.26479 0.17082 0.0
H606 H 0.62356 0.27102 0.1581 0.0
H607 H 0.59969 0.23369 0.21517 0.0
C608 C 0.68089 0.2642 1.04164 0.0
C609 C 0.66213 0.27498 1.02371 0.0
C610 C 0.68744 0.26742 1.08569 0.0
C611 C 0.67518 0.2814 1.1126 0.0
C612 C 0.66247 0.29807 1.09283 0.0
C613 C 0.65554 0.29448 1.04865 0.0
C614 C 0.66911 0.23586 0.21238 0.0
C615 C 0.63795 0.22504 0.22306 0.0
C616 C 0.6836 0.25859 0.18058 0.0
C617 C 0.66683 0.27004 0.15797 0.0
C618 C 0.63738 0.2626 0.1737 0.0
C619 C 0.62322 0.24048 0.20604 0.0
H620 H 0.39317 0.63794 0.31066 0.0
H621 H 0.29678 0.56904 0.32632 0.0
H622 H 0.39223 0.66207 0.37666 0.0
H623 H 0.29481 0.59476 0.39206 0.0
H624 H 0.40853 0.67592 0.50777 0.0
H625 H 0.38717 0.68032 0.43938 0.0
H626 H 0.30952 0.58755 0.45677 0.0
H627 H 0.32907 0.58501 0.52669 0.0
C628 C 0.37112 0.62891 0.32705 0.0
C629 C 0.34543 0.60065 0.31446 0.0
C630 C 0.37047 0.64293 0.3656 0.0
C631 C 0.34396 0.62906 0.39219 0.0
C632 C 0.31636 0.60484 0.37433 0.0
C633 C 0.31726 0.59025 0.33621 0.0
C634 C 0.38619 0.65705 0.49779 0.0
C635 C 0.37145 0.62927 0.52138 0.0
C636 C 0.37407 0.65933 0.45799 0.0
C637 C 0.34785 0.63337 0.44023 0.0
C638 C 0.33036 0.60788 0.46771 0.0
C639 C 0.34192 0.60605 0.50799 0.0
H640 H 0.73576 0.35328 0.90776 0.0
H641 H 0.74981 0.44566 0.89727 0.0
H642 H 0.69933 0.33653 0.84937 0.0
H643 H 0.71065 0.4284 0.84128 0.0
H644 H 0.73387 0.42283 0.70223 0.0
H645 H 0.71528 0.42586 0.77218 0.0
H646 H 0.67562 0.32685 0.78771 0.0
H647 H 0.69704 0.32473 0.71856 0.0
C648 C 0.73033 0.36988 0.89351 0.0
C649 C 0.74754 0.40133 0.90455 0.0
C650 C 0.70888 0.36021 0.85983 0.0
C651 C 0.70421 0.38192 0.83646 0.0
C652 C 0.71578 0.41155 0.85511 0.0
C653 C 0.73801 0.42148 0.88807 0.0
C654 C 0.72069 0.40158 0.72037 0.0
C655 C 0.71925 0.37411 0.70662 0.0
C656 C 0.7097 0.40315 0.76108 0.0
C657 C 0.69728 0.37716 0.78878 0.0
C658 C 0.68822 0.34814 0.76963 0.0
C659 C 0.69999 0.3467 0.72925 0.0
H660 H 0.44796 0.75123 1.06319 0.0
H661 H 0.36709 0.75861 1.03584 0.0
H662 H 0.42467 0.7247 0.1312 0.0
H663 H 0.34449 0.73431 1.10374 0.0
H664 H 0.41374 0.76522 0.26081 0.0
H665 H 0.42271 0.7465 0.19431 0.0
H666 H 0.32514 0.70384 0.1628 0.0
H667 H 0.31681 0.72501 0.22907 0.0
C668 C 0.42477 0.74625 1.07131 0.0
C669 C 0.40938 0.75727 1.04518 0.0
C670 C 0.41146 0.73134 1.11039 0.0
C671 C 0.3831 0.7283 0.12436 0.0
C672 C 0.36628 0.736 1.09499 0.0
C673 C 0.37934 0.75033 1.05589 0.0
C674 C 0.39387 0.75069 0.24073 0.0
C675 C 0.36485 0.74782 0.24915 0.0
C676 C 0.399 0.73973 0.20205 0.0
C677 C 0.37502 0.72536 0.17131 0.0
C678 C 0.34461 0.71659 0.18439 0.0
C679 C 0.33966 0.72837 0.22264 0.0
H680 H 0.68329 0.45301 0.37572 0.0
H681 H 0.60611 0.36038 0.36004 0.0
H682 H 0.70296 0.43531 0.43484 0.0
H683 H 0.62372 0.34307 0.42043 0.0
H684 H 0.66424 0.41617 0.57386 0.0
H685 H 0.68754 0.42879 0.5038 0.0
H686 H 0.64607 0.33121 0.47416 0.0
H687 H 0.62044 0.31885 0.54422 0.0
C688 C 0.67086 0.42871 0.38435 0.0
C689 C 0.64227 0.40837 0.36494 0.0
C690 C 0.68195 0.41852 0.41862 0.0
C691 C 0.66408 0.38813 0.43484 0.0
C692 C 0.63817 0.36686 0.41041 0.0
C693 C 0.62751 0.37689 0.37585 0.0
C694 C 0.66123 0.39732 0.55327 0.0
C695 C 0.63923 0.36661 0.56342 0.0
C696 C 0.67471 0.40455 0.5124 0.0
C697 C 0.6664 0.38102 0.48133 0.0
C698 C 0.65092 0.35007 0.49596 0.0
C699 C 0.63656 0.34284 0.53642 0.0
H700 H 0.22319 0.63166 0.9367 0.0
H701 H 0.25663 0.56741 0.92153 0.0
H702 H 0.24951 0.65818 0.87244 0.0
H703 H 0.2856 0.59563 0.85779 0.0
H704 H 0.25177 0.67549 0.74136 0.0
H705 H 0.27489 0.6792 0.81179 0.0
H706 H 0.26595 0.58911 0.79171 0.0
H707 H 0.24646 0.58744 0.7202 0.0
C708 C 0.23773 0.62422 0.92086 0.0
C709 C 0.23668 0.59657 0.93299 0.0
C710 C 0.25314 0.63963 0.88336 0.0
C711 C 0.26805 0.62779 0.85737 0.0
C712 C 0.27249 0.60415 0.87499 0.0
C713 C 0.25626 0.58813 0.91197 0.0
C714 C 0.25609 0.65716 0.75133 0.0
C715 C 0.2455 0.63024 0.72631 0.0
C716 C 0.26894 0.65901 0.79225 0.0
C717 C 0.2701 0.63339 0.80953 0.0
C718 C 0.26466 0.60909 0.78109 0.0
C719 C 0.2528 0.60774 0.73982 0.0
H720 H 0.45336 0.94107 1.02399 0.0
H721 H 0.36189 0.92916 1.02059 0.0
H722 H 0.46525 0.97296 1.08946 0.0
H723 H 0.37327 0.95997 1.08757 0.0
H724 H 0.39763 -0.00292 0.2376 0.0
H725 H 0.38373 0.96619 0.17041 0.0
H726 H 0.47615 0.02358 1.12328 0.0
H727 H 0.49055 0.05339 0.19103 0.0
C728 C 0.43532 0.94478 1.03694 0.0
C729 C 0.40623 0.93135 1.01473 0.0
C730 C 0.44236 0.96369 1.07547 0.0
C731 C 0.42063 0.97014 1.09635 0.0
C732 C 0.39132 0.95633 1.0745 0.0
C733 C 0.38462 0.93823 1.03501 0.0
C734 C 0.41542 0.00339 0.21337 0.0
C735 C 0.44584 0.02861 0.22238 0.0
C736 C 0.40722 0.98525 0.17373 0.0
C737 C 0.42868 0.99077 0.1395 0.0
C738 C 0.45859 0.01676 0.14793 0.0
C739 C 0.46695 0.03452 0.18769 0.0
H740 H 0.41136 0.40691 0.3357 0.0
H741 H 0.50107 0.4322 0.38718 0.0
H742 H 0.39892 0.42528 0.40278 0.0
H743 H 0.48753 0.44843 0.45511 0.0
H744 H 0.46867 0.51638 0.55022 0.0
H745 H 0.47942 0.49578 0.48415 0.0
H746 H 0.38858 0.41574 0.49002 0.0
H747 H 0.37839 0.43546 0.55742 0.0
C748 C 0.42874 0.41619 0.36097 0.0
C749 C 0.45787 0.41786 0.35333 0.0
C750 C 0.42139 0.42695 0.40051 0.0
C751 C 0.44243 0.44017 0.43609 0.0
C752 C 0.47083 0.44037 0.42913 0.0
C753 C 0.47852 0.43036 0.38935 0.0
C754 C 0.45065 0.49432 0.53799 0.0
C755 C 0.42223 0.47834 0.56146 0.0
C756 C 0.45705 0.4821 0.49918 0.0
C757 C 0.43527 0.45339 0.47931 0.0
C758 C 0.40662 0.43777 0.50229 0.0
C759 C 0.40064 0.4494 0.542 0.0
H760 H 0.03582 0.43029 0.67407 0.0
H761 H 0.05575 0.52252 0.70383 0.0
H762 H 0.00615 0.41123 0.74142 0.0
H763 H 0.02548 0.50334 0.77084 0.0
H764 H 0.94725 0.45858 0.87721 0.0
H765 H 0.97765 0.47638 0.81039 0.0
H766 H -0.00101 0.40343 0.81998 0.0
H767 H 0.96835 0.3852 0.88708 0.0
C768 C 0.03414 0.44693 0.69462 0.0
C769 C 0.04931 0.47862 0.68127 0.0
C770 C 0.01671 0.43569 0.73441 0.0
C771 C 0.01221 0.455 0.76407 0.0
C772 C 0.02721 0.48671 0.75048 0.0
C773 C 0.04522 0.49808 0.71111 0.0
C774 C 0.95838 0.44605 0.8658 0.0
C775 C 0.95439 0.41991 0.88997 0.0
C776 C 0.97652 0.45681 0.82665 0.0
C777 C -0.00777 0.44251 0.80766 0.0
C778 C 0.98797 0.41602 0.83155 0.0
C779 C 0.97001 0.40531 0.87116 0.0
H780 H 0.48724 0.97188 0.23159 0.0
H781 H 0.55863 0.94999 0.20488 0.0
H782 H 0.50178 0.00421 0.16674 0.0
H783 H 0.57187 0.9812 0.13807 0.0
H784 H 0.57301 0.02065 0.99599 0.0
H785 H 0.56171 0.99051 1.06296 0.0
H786 H 0.53355 0.05009 1.12306 0.0
H787 H 0.5453 0.08058 1.05585 0.0
C788 C 0.50597 0.97348 0.21203 0.0
C789 C 0.5213 0.95725 0.22576 0.0
C790 C 0.5144 -0.00749 0.17364 0.0
C791 C 0.53803 -0.00376 0.1443 0.0
C792 C 0.55329 0.97972 0.15781 0.0
C793 C 0.54561 0.96143 0.19722 0.0
C794 C 0.56448 0.0278 1.0232 0.0
C795 C 0.56052 0.05414 1.01816 0.0
C796 C 0.55793 0.01007 1.06277 0.0
C797 C 0.54613 0.01658 1.10088 0.0
C798 C 0.54201 0.0429 1.09584 0.0
C799 C 0.54913 0.06105 1.05636 0.0
H800 H 0.56808 0.55018 0.58463 0.0
H801 H 0.547 0.4658 0.51985 0.0
H802 H 0.55714 0.56981 0.5179 0.0
H803 H 0.53798 0.48636 0.45223 0.0
H804 H 0.49081 0.51603 0.34183 0.0
H805 H 0.50508 0.49799 0.4068 0.0
H806 H 0.5673 0.59182 0.44458 0.0
H807 H 0.55433 0.6101 0.37775 0.0
C808 C 0.56116 0.5354 0.55639 0.0
C809 C 0.5584 0.50551 0.56021 0.0
C810 C 0.55488 0.54709 0.51693 0.0
C811 C 0.54547 0.53007 0.47734 0.0
C812 C 0.54348 0.50048 0.48092 0.0
C813 C 0.54926 0.48854 0.52061 0.0
C814 C 0.50775 0.53327 0.36345 0.0
C815 C 0.52097 0.56514 0.35219 0.0
C816 C 0.51611 0.52254 0.40192 0.0
C817 C 0.5375 0.54254 0.43383 0.0
C818 C 0.55057 0.57459 0.42279 0.0
C819 C 0.54304 0.5854 0.38335 0.0
H820 H 0.06251 0.57623 0.84567 0.0
H821 H 0.97921 0.52936 0.92054 0.0
H822 H 0.03185 0.55888 0.77872 0.0
H823 H 0.94829 0.51161 0.85362 0.0
H824 H 0.89682 0.46071 0.72284 0.0
H825 H 0.92665 0.47977 0.79057 0.0
H826 H -0.00089 0.55685 0.7218 0.0
H827 H 0.96914 0.53811 0.6548 0.0
C828 C 0.03756 0.56237 0.84843 0.0
C829 C 0.0243 0.55501 0.89058 0.0
C830 C 0.01941 0.55221 0.809 0.0
C831 C 0.98637 0.53318 0.80813 0.0
C832 C 0.97317 0.52582 0.85053 0.0
C833 C -0.00868 0.53635 0.88998 0.0
C834 C 0.91908 0.48179 0.7216 0.0
C835 C 0.92954 0.49723 0.68103 0.0
C836 C 0.93664 0.49318 0.76154 0.0
C837 C 0.96647 0.52067 0.76429 0.0
C838 C 0.97693 0.53574 0.72347 0.0
C839 C 0.95917 0.52472 0.68389 0.0
H840 H 0.4553 0.04616 0.47515 0.0
H841 H 0.44061 0.97062 0.39339 0.0
H842 H 0.47599 0.02756 0.53148 0.0
H843 H 0.44815 0.94573 0.45699 0.0
H844 H 0.52786 0.01013 0.39229 0.0
H845 H 0.52165 0.03549 0.45611 0.0
H846 H 0.4948 0.95406 0.53129 0.0
H847 H 0.51342 0.93445 0.47407 0.0
C848 C 0.45572 0.02527 0.46937 0.0
C849 C 0.45252 0.01306 0.42737 0.0
C850 C 0.46558 0.01349 0.50299 0.0
C851 C 0.46907 0.98791 0.49446 0.0
C852 C 0.45045 0.96831 0.46069 0.0
C853 C 0.44536 0.98216 0.42441 0.0
C854 C 0.52358 -0.00126 0.4234 0.0
C855 C 0.51629 0.96779 0.42646 0.0
C856 C 0.51931 0.01289 0.45988 0.0
C857 C 0.50132 -0.00643 0.49419 0.0
C858 C 0.50475 0.96792 0.50253 0.0
C859 C 0.51356 0.95565 0.46847 0.0
H860 H 0.48873 0.55802 0.79699 0.0
H861 H 0.42428 0.46495 0.75509 0.0
H862 H 0.50027 0.53733 0.86132 0.0
H863 H 0.43509 0.44519 0.82067 0.0
H864 H 0.48837 0.41782 0.78353 0.0
H865 H 0.47352 0.43403 0.84893 0.0
H866 H 0.53577 0.52943 0.81527 0.0
H867 H 0.54941 0.51345 0.74918 0.0
C868 C 0.47727 0.53316 0.80126 0.0
C869 C 0.45866 0.51276 0.76829 0.0
C870 C 0.48264 0.52131 0.83922 0.0
C871 C 0.47394 0.48982 0.83975 0.0
C872 C 0.44682 0.47004 0.81615 0.0
C873 C 0.44125 0.48108 0.77769 0.0
C874 C 0.49849 0.44235 0.78988 0.0
C875 C 0.51741 0.46461 0.75908 0.0
C876 C 0.49109 0.45162 0.82838 0.0
C877 C 0.49959 0.48288 0.83344 0.0
C878 C 0.52536 0.50483 0.80932 0.0
C879 C 0.53263 0.4959 0.77054 0.0
H880 H 0.93225 0.40415 0.14429 0.0
H881 H 0.0086 0.4633 1.06249 0.0
H882 H 0.95232 0.44312 0.20079 0.0
H883 H 0.03445 0.49513 0.12624 0.0
H884 H 0.97017 0.5111 1.06013 0.0
H885 H 0.94486 0.48089 0.12503 0.0
H886 H 0.02742 0.53503 0.19853 0.0
H887 H 0.04743 0.5721 0.13997 0.0
C888 C 0.95359 0.42502 0.13853 0.0
C889 C 0.96583 0.43382 1.09653 0.0
C890 C 0.96617 0.44643 0.17223 0.0
C891 C -0.00777 0.47512 0.16354 0.0
C892 C 0.01149 0.47538 0.12987 0.0
C893 C -0.00293 0.45679 1.09351 0.0
C894 C 0.98193 0.51847 1.091 0.0
C895 C 0.01321 0.54151 1.09325 0.0
C896 C 0.96778 0.5008 0.12813 0.0
C897 C 0.98722 0.50211 0.16244 0.0
C898 C 0.01338 0.53099 0.16983 0.0
C899 C 0.02584 0.55136 0.13497 0.0
H900 H 0.03115 0.46176 0.49274 0.0
H901 H 0.05826 0.5531 0.44465 0.0
H902 H -0.00118 0.43943 0.42946 0.0
H903 H 0.02436 0.52999 0.38231 0.0
H904 H 0.9488 0.50543 0.4933 0.0
H905 H 0.98179 0.52214 0.43071 0.0
H906 H 0.94992 0.42695 0.39645 0.0
H907 H 0.915 0.41013 0.45819 0.0
C908 C 0.02975 0.477 0.46909 0.0
C909 C 0.04419 0.50897 0.47616 0.0
C910 C 0.01209 0.46443 0.43183 0.0
C911 C 0.00437 0.48325 0.40665 0.0
C912 C 0.02674 0.51487 0.40524 0.0
C913 C 0.04493 0.52811 0.44207 0.0
C914 C 0.94887 0.48808 0.47244 0.0
C915 C 0.93179 0.45664 0.48282 0.0
C916 C 0.9671 0.49746 0.43554 0.0
C917 C 0.97161 0.4757 0.41214 0.0
C918 C 0.94887 0.44432 0.41619 0.0
C919 C 0.92991 0.4347 0.45263 0.0
H920 H 0.40882 0.94559 0.79411 0.0
H921 H 0.4342 0.97379 0.92667 0.0
H922 H 0.39946 0.98843 0.78217 0.0
H923 H 0.42376 0.01568 0.91575 0.0
H924 H 0.50155 0.05699 0.79961 0.0
H925 H 0.44907 0.03555 0.7717 0.0
H926 H 0.42107 0.06219 0.88638 0.0
H927 H 0.4737 0.08564 0.91478 0.0
C928 C 0.41241 0.96109 0.82067 0.0
C929 C 0.42516 0.95851 0.8601 0.0
C930 C 0.40588 0.98488 0.81435 0.0
C931 C 0.41403 0.00751 0.84644 0.0
C932 C 0.41993 0.00049 0.88866 0.0
C933 C 0.42687 0.977 0.89489 0.0
C934 C 0.48425 0.05826 0.81925 0.0
C935 C 0.49052 0.06893 0.86208 0.0
C936 C 0.45434 0.04691 0.8029 0.0
C937 C 0.43053 0.04062 0.83271 0.0
C938 C 0.43885 0.06222 0.8663 0.0
C939 C 0.46869 0.07435 0.88356 0.0
H940 H 0.5146 0.58039 1.10165 0.0
H941 H 0.53416 0.52522 0.18875 0.0
H942 H 0.49686 0.54009 1.04743 0.0
H943 H 0.52796 0.4912 0.12858 0.0
H944 H 0.44828 0.46398 0.18693 0.0
H945 H 0.45265 0.49861 0.12795 0.0
H946 H 0.48601 0.45398 1.04353 0.0
H947 H 0.47006 0.41279 1.09608 0.0
C948 C 0.51636 0.56036 1.10882 0.0
C949 C 0.52015 0.55294 0.15154 0.0
C950 C 0.50788 0.53808 1.07653 0.0
C951 C 0.50659 0.51026 1.08702 0.0
C952 C 0.52512 0.51096 1.12225 0.0
C953 C 0.52922 0.53073 0.15689 0.0
C954 C 0.45363 0.45962 0.1547 0.0
C955 C 0.46357 0.43823 0.14776 0.0
C956 C 0.45666 0.47972 1.12088 0.0
C957 C 0.47561 0.48208 1.08548 0.0
C958 C 0.47504 0.45494 1.07321 0.0
C959 C 0.46778 0.43225 1.10457 0.0
H960 H 0.30656 0.00604 0.77078 0.0
H961 H 0.27519 0.92826 0.68416 0.0
H962 H 0.30525 0.03776 0.71135 0.0
H963 H 0.27484 0.9598 0.62479 0.0
H964 H 0.36585 0.08264 0.58562 0.0
H965 H 0.34228 0.05819 0.65368 0.0
H966 H 0.25971 0.99154 0.58573 0.0
H967 H 0.28412 0.0151 0.51728 0.0
C968 C 0.29851 -0.00449 0.73932 0.0
C969 C 0.29171 0.965 0.73161 0.0
C970 C 0.29788 0.01367 0.70529 0.0
C971 C 0.29049 0.00154 0.66314 0.0
C972 C 0.28049 0.96999 0.65675 0.0
C973 C 0.28112 0.95194 0.69065 0.0
C974 C 0.34237 0.06323 0.58533 0.0
C975 C 0.32731 0.05007 0.54611 0.0
C976 C 0.3286 0.04942 0.62447 0.0
C977 C 0.2994 0.02231 0.62502 0.0
C978 C 0.28256 0.01195 0.58619 0.0
C979 C 0.29648 0.02561 0.54696 0.0
H980 H 0.34718 0.26603 1.00649 0.0
H981 H 0.28385 0.28256 1.08133 0.0
H982 H 0.32395 0.27117 0.94037 0.0
H983 H 0.25939 0.2861 1.01507 0.0
H984 H 0.29592 0.29886 0.8257 0.0
H985 H 0.28612 0.26406 0.88668 0.0
H986 H 0.28604 0.33235 0.97259 0.0
H987 H 0.29449 0.36623 0.9117 0.0
C988 C 0.32741 0.26947 1.00876 0.0
C989 C 0.31816 0.27517 1.04885 0.0
C990 C 0.31375 0.27203 0.9708 0.0
C991 C 0.2905 0.28016 0.97249 0.0
C992 C 0.27788 0.28071 1.01282 0.0
C993 C 0.29177 0.27844 1.05082 0.0
C994 C 0.29269 0.30588 0.85746 0.0
C995 C 0.29679 0.33555 0.86431 0.0
C996 C 0.28716 0.28599 0.89236 0.0
C997 C 0.28579 0.29556 0.93459 0.0
C998 C 0.28675 0.324 0.94057 0.0
C999 C 0.29219 0.34377 0.90577 0.0
H1000 H 0.98731 0.28253 0.15998 0.0
H1001 H 0.90705 0.26525 0.23447 0.0
H1002 H 0.01553 0.28705 0.22642 0.0
H1003 H 0.93561 0.27129 0.30077 0.0
H1004 H -0.00825 0.29817 0.41598 0.0
H1005 H 0.96648 0.26404 0.35443 0.0
H1006 H 0.03453 0.33327 0.26911 0.0
H1007 H 0.0602 0.36651 0.3305 0.0
C1008 C 0.97526 0.27848 0.19047 0.0
C1009 C 0.94535 0.27461 0.19224 0.0
C1010 C -0.00846 0.28131 0.22857 0.0
C1011 C 0.97822 0.28068 0.2688 0.0
C1012 C 0.94674 0.27217 0.27038 0.0
C1013 C 0.93041 0.26908 0.23234 0.0
C1014 C 0.00183 0.30555 0.38418 0.0
C1015 C 0.02744 0.33527 0.3777 0.0
C1016 C 0.98732 0.28606 0.34897 0.0
C1017 C -0.0018 0.29604 0.30682 0.0
C1018 C 0.02559 0.32461 0.30108 0.0
C1019 C 0.04004 0.344 0.33618 0.0
H1020 H 0.68031 0.04186 0.68517 0.0
H1021 H 0.65203 0.961 0.76504 0.0
H1022 H 0.68662 0.01513 0.62447 0.0
H1023 H 0.66046 0.93475 0.70487 0.0
H1024 H 0.60671 0.88928 0.57595 0.0
H1025 H 0.62745 0.91252 0.64555 0.0
H1026 H 0.70549 0.98921 0.58247 0.0
H1027 H 0.68335 0.96686 0.51253 0.0
C1028 C 0.67632 0.01863 0.69008 0.0
C1029 C 0.66457 0.00318 0.72942 0.0
C1030 C 0.6805 0.00337 0.65536 0.0
C1031 C 0.67334 0.97236 0.65935 0.0
C1032 C 0.66541 0.95833 0.70035 0.0
C1033 C 0.66083 0.97351 0.73501 0.0
C1034 C 0.62866 0.91077 0.577 0.0
C1035 C 0.64264 0.9269 0.53881 0.0
C1036 C 0.64091 0.92399 0.61708 0.0
C1037 C 0.66763 0.95345 0.61967 0.0
C1038 C 0.68426 0.96704 0.58155 0.0
C1039 C 0.67172 0.95402 0.54137 0.0
H1040 H 0.61848 0.7225 1.00803 0.0
H1041 H 0.68491 0.70813 1.07942 0.0
H1042 H 0.63838 0.71452 0.94078 0.0
H1043 H 0.70606 0.70191 1.01198 0.0
H1044 H 0.66537 0.68477 0.82473 0.0
H1045 H 0.67426 0.72004 0.88478 0.0
H1046 H 0.67724 0.65414 0.97291 0.0
H1047 H 0.66963 0.61981 0.91302 0.0
C1048 C 0.63822 0.71895 1.00922 0.0
C1049 C 0.64927 0.71463 1.04893 0.0
C1050 C 0.64993 0.71472 0.97059 0.0
C1051 C 0.67307 0.70643 0.97121 0.0
C1052 C 0.68756 0.70735 1.01067 0.0
C1053 C 0.6756 0.71121 1.04934 0.0
C1054 C 0.66884 0.67833 0.85684 0.0
C1055 C 0.66615 0.6493 0.8645 0.0
C1056 C 0.67386 0.69848 0.89117 0.0
C1057 C 0.67627 0.68988 0.93366 0.0
C1058 C 0.67591 0.6618 0.94061 0.0
C1059 C 0.67092 0.64176 0.9064 0.0
H1060 H 0.09361 0.71845 0.233 0.0
H1061 H 0.01227 0.70684 0.16592 0.0
H1062 H 0.0677 0.71199 0.30159 0.0
H1063 H 0.98706 0.70237 0.23468 0.0
H1064 H 0.94117 0.61942 0.33218 0.0
H1065 H 0.96734 0.6543 0.27265 0.0
H1066 H 0.03912 0.71764 0.35979 0.0
H1067 H 0.01324 0.68172 0.41944 0.0
C1068 C 0.07071 0.71591 0.23301 0.0
C1069 C 0.05445 0.71168 0.19412 0.0
C1070 C 0.05591 0.71257 0.27245 0.0
C1071 C 0.02479 0.70535 0.27342 0.0
C1072 C 0.0107 0.70686 0.23477 0.0
C1073 C 0.02533 0.70974 0.1953 0.0
C1074 C 0.96238 0.64093 0.33869 0.0
C1075 C 0.97562 0.64748 0.38009 0.0
C1076 C 0.97713 0.66133 0.30472 0.0
C1077 C 0.00549 0.68881 0.31139 0.0
C1078 C 0.01746 0.69654 0.35358 0.0
C1079 C 0.00263 0.67601 0.38769 0.0
H1080 H 0.55114 0.10217 0.48923 0.0
H1081 H 0.46853 0.10211 0.52841 0.0
H1082 H 0.5668 0.10494 0.56469 0.0
H1083 H 0.48443 0.10527 0.60481 0.0
H1084 H 0.53013 0.13013 0.74705 0.0
H1085 H 0.51307 0.12784 0.67148 0.0
H1086 H 0.56714 0.08635 0.63395 0.0
H1087 H 0.58371 0.08842 0.70898 0.0
C1088 C 0.53602 0.10296 0.51361 0.0
C1089 C 0.50821 0.10218 0.49997 0.0
C1090 C 0.54516 0.10434 0.55832 0.0
C1091 C 0.52756 0.10544 0.59396 0.0
C1092 C 0.49968 0.10483 0.58037 0.0
C1093 C 0.49025 0.10295 0.53537 0.0
C1094 C 0.53877 0.12064 0.72297 0.0
C1095 C 0.55917 0.10985 0.73661 0.0
C1096 C 0.52855 0.11906 0.67845 0.0
C1097 C 0.5382 0.10697 0.64353 0.0
C1098 C 0.5587 0.09635 0.6575 0.0
C1099 C 0.56846 0.09749 0.70189 0.0
H1100 H 0.39107 0.49699 0.86578 0.0
H1101 H 0.45256 0.59138 0.82914 0.0
H1102 H 0.40516 0.51067 0.94196 0.0
H1103 H 0.46701 0.60519 0.90527 0.0
H1104 H 0.50544 0.62264 1.05054 0.0
H1105 H 0.49184 0.6098 0.97365 0.0
H1106 H 0.40536 0.53065 1.01083 0.0
H1107 H 0.41882 0.54368 1.08691 0.0
C1108 C 0.40749 0.52091 0.87337 0.0
C1109 C 0.4198 0.54268 0.83871 0.0
C1110 C 0.41585 0.52906 0.91837 0.0
C1111 C 0.43772 0.55966 0.93291 0.0
C1112 C 0.45031 0.58132 0.89801 0.0
C1113 C 0.44162 0.57323 0.85307 0.0
C1114 C 0.48329 0.60256 1.04284 0.0
C1115 C 0.46353 0.58487 1.07764 0.0
C1116 C 0.4752 0.59493 0.99751 0.0
C1117 C 0.4469 0.56861 0.98294 0.0
C1118 C 0.42745 0.55093 1.01798 0.0
C1119 C 0.4353 0.55879 1.06302 0.0
H1120 H 0.87721 0.35848 0.1925 0.0
H1121 H 0.87599 0.44091 0.15575 0.0
H1122 H 0.87422 0.37018 0.26931 0.0
H1123 H 0.87348 0.45283 0.23166 0.0
H1124 H 0.89051 0.48407 0.37733 0.0
H1125 H 0.8929 0.47103 0.3016 0.0
H1126 H 0.85082 0.3748 0.33577 0.0
H1127 H 0.84813 0.38802 0.4117 0.0
C1128 C 0.87614 0.3791 0.20008 0.0
C1129 C 0.87651 0.39813 0.16524 0.0
C1130 C 0.87438 0.38605 0.24531 0.0
C1131 C 0.87352 0.41297 0.25968 0.0
C1132 C 0.87426 0.43199 0.22462 0.0
C1133 C 0.87547 0.4248 0.17968 0.0
C1134 C 0.88132 0.45992 0.36928 0.0
C1135 C 0.86858 0.43751 0.40311 0.0
C1136 C 0.88269 0.45216 0.32454 0.0
C1137 C 0.87198 0.4213 0.3095 0.0
C1138 C 0.85966 0.39892 0.34359 0.0
C1139 C 0.85785 0.40665 0.38832 0.0
H1140 H 0.41417 0.87102 0.48669 0.0
H1141 H 0.5031 0.88565 0.52668 0.0
H1142 H 0.3991 0.86937 0.562 0.0
H1143 H 0.48811 0.8841 0.60284 0.0
H1144 H 0.44979 0.86498 0.74649 0.0
H1145 H 0.46556 0.86638 0.67107 0.0
H1146 H 0.39381 0.88487 0.62993 0.0
H1147 H 0.37818 0.88336 0.70537 0.0
C1148 C 0.43086 0.87375 0.51127 0.0
C1149 C 0.46022 0.87816 0.49794 0.0
C1150 C 0.42205 0.87305 0.55589 0.0
C1151 C 0.44172 0.87656 0.5917 0.0
C1152 C 0.47121 0.88087 0.57837 0.0
C1153 C 0.48014 0.88181 0.53346 0.0
C1154 C 0.43703 0.86929 0.72169 0.0
C1155 C 0.41206 0.87381 0.73454 0.0
C1156 C 0.44643 0.8703 0.67715 0.0
C1157 C 0.43157 0.87571 0.64125 0.0
C1158 C 0.40651 0.8802 0.65432 0.0
C1159 C 0.39728 0.87942 0.6989 0.0
H1160 H 0.58579 0.48784 0.86334 0.0
H1161 H 0.53012 0.39234 0.82729 0.0
H1162 H 0.57084 0.47417 0.93916 0.0
H1163 H 0.51463 0.37853 0.90325 0.0
H1164 H 0.4726 0.36162 1.04715 0.0
H1165 H 0.48711 0.37396 0.9704 0.0
H1166 H 0.57203 0.45469 1.00873 0.0
H1167 H 0.5578 0.44206 1.08469 0.0
C1168 C 0.57048 0.46367 0.871 0.0
C1169 C 0.56013 0.44163 0.83662 0.0
C1170 C 0.56163 0.45555 0.91581 0.0
C1171 C 0.54104 0.42466 0.93044 0.0
C1172 C 0.53029 0.40264 0.89582 0.0
C1173 C 0.53959 0.41073 0.85103 0.0
C1174 C 0.49462 0.38193 1.03976 0.0
C1175 C 0.51373 0.40017 1.07485 0.0
C1176 C 0.50322 0.38927 0.99453 0.0
C1177 C 0.53135 0.41588 0.98033 0.0
C1178 C 0.55013 0.43413 1.01563 0.0
C1179 C 0.54183 0.42651 1.06059 0.0
H1180 H 0.09422 0.49279 0.3778 0.0
H1181 H 0.12813 0.58787 0.41148 0.0
H1182 H 0.09184 0.50501 0.30149 0.0
H1183 H 0.12555 0.60024 0.33519 0.0
H1184 H 0.10011 0.61443 0.19102 0.0
H1185 H 0.10291 0.60311 0.26802 0.0
H1186 H 0.11047 0.52393 0.23185 0.0
H1187 H 0.108 0.53546 0.15562 0.0
C1188 C 0.10156 0.51656 0.36947 0.0
C1189 C 0.11193 0.53902 0.40326 0.0
C1190 C 0.10018 0.52384 0.32444 0.0
C1191 C 0.10856 0.55416 0.30914 0.0
C1192 C 0.11855 0.57651 0.34318 0.0
C1193 C 0.12032 0.56929 0.38815 0.0
C1194 C 0.10266 0.59467 0.19898 0.0
C1195 C 0.10416 0.57648 0.1645 0.0
C1196 C 0.10432 0.58794 0.24433 0.0
C1197 C 0.10701 0.56211 0.25914 0.0
C1198 C 0.1082 0.5439 0.22442 0.0
C1199 C 0.10701 0.55087 0.17933 0.0
loop_
_geom_bond_atom_site_label_1
_geom_bond_atom_site_label_2
_geom_bond_distance
_geom_bond_site_symmetry_2
_ccdc_geom_bond_type
Sm0 C2 2.846 . S
Sm0 O20 2.543 . S
Sm0 O21 2.450 . S
Sm0 O22 2.681 . S
Sm0 O23 2.464 . S
Sm0 O24 2.396 . S
Sm0 O28 2.386 . S
Sm0 O31 2.408 . S
Sm1 C11 2.846 . S
Sm1 O22 2.386 . S
Sm1 O25 2.408 . S
Sm1 O26 2.543 . S
Sm1 O27 2.450 . S
Sm1 O28 2.681 . S
Sm1 O29 2.464 . S
Sm1 O30 2.396 . S
C2 Sm0 2.846 . S
C2 C3 1.506 . S
C2 O20 1.261 . S
C2 O21 1.242 . S
C3 C2 1.506 . S
C3 C4 1.358 . S
C3 C8 1.382 . S
C4 C3 1.358 . S
C4 C5 1.385 . S
C4 H32 0.930 . S
C5 C4 1.385 . S
C5 C6 1.395 . S
C5 H33 0.929 . S
C6 C5 1.395 . S
C6 C7 1.335 . S
C7 C6 1.335 . S
C7 C8 1.398 . S
C7 H34 0.930 . S
C8 C3 1.382 . S
C8 C7 1.398 . S
C8 H35 0.929 . S
C9 O22 1.271 . S
C9 O23 1.251 . S
C10 O24 1.252 . S
C10 O25 1.272 . S
C11 Sm1 2.846 . S
C11 C12 1.506 . S
C11 O26 1.261 . S
C11 O27 1.242 . S
C12 C11 1.506 . S
C12 C13 1.358 . S
C12 C17 1.382 . S
C13 C12 1.358 . S
C13 C14 1.385 . S
C13 H36 0.930 . S
C14 C13 1.385 . S
C14 C15 1.395 . S
C14 H37 0.929 . S
C15 C14 1.395 . S
C15 C16 1.335 . S
C16 C15 1.335 . S
C16 C17 1.398 . S
C16 H38 0.930 . S
C17 C12 1.382 . S
C17 C16 1.398 . S
C17 H39 0.929 . S
C18 O28 1.271 . S
C18 O29 1.251 . S
C19 O30 1.252 . S
C19 O31 1.272 . S
O20 Sm0 2.543 . S
O20 C2 1.261 . S
O21 Sm0 2.450 . S
O21 C2 1.242 . S
O22 Sm0 2.681 . S
O22 Sm1 2.386 . S
O22 C9 1.271 . S
O23 Sm0 2.464 . S
O23 C9 1.251 . S
O24 Sm0 2.396 . S
O24 C10 1.252 . S
O25 Sm1 2.408 . S
O25 C10 1.272 . S
O26 Sm1 2.543 . S
O26 C11 1.261 . S
O27 Sm1 2.450 . S
O27 C11 1.242 . S
O28 Sm0 2.386 . S
O28 Sm1 2.681 . S
O28 C18 1.271 . S
O29 Sm1 2.464 . S
O29 C18 1.251 . S
O30 Sm1 2.396 . S
O30 C19 1.252 . S
O31 Sm0 2.408 . S
O31 C19 1.272 . S
H32 C4 0.930 . S
H33 C5 0.929 . S
H34 C7 0.930 . S
H35 C8 0.929 . S
H36 C13 0.930 . S
H37 C14 0.929 . S
H38 C16 0.930 . S
H39 C17 0.929 . S
Sm40 C42 2.846 . S
Sm40 O60 2.543 . S
Sm40 O61 2.450 . S
Sm40 O62 2.681 . S
Sm40 O63 2.464 . S
Sm40 O64 2.396 . S
Sm40 O68 2.386 . S
Sm40 O71 2.408 . S
Sm41 C51 2.846 . S
Sm41 O62 2.386 . S
Sm41 O65 2.408 . S
Sm41 O66 2.543 . S
Sm41 O67 2.450 . S
Sm41 O68 2.681 . S
Sm41 O69 2.464 . S
Sm41 O70 2.396 . S
C42 Sm40 2.846 . S
C42 C43 1.506 . S
C42 O60 1.261 . S
C42 O61 1.242 . S
C43 C42 1.506 . S
C43 C44 1.358 . S
C43 C48 1.382 . S
C44 C43 1.358 . S
C44 C45 1.385 . S
C44 H72 0.930 . S
C45 C44 1.385 . S
C45 C46 1.395 . S
C45 H73 0.929 . S
C46 C45 1.395 . S
C46 C47 1.335 . S
C47 C46 1.335 . S
C47 C48 1.398 . S
C47 H74 0.930 . S
C48 C43 1.382 . S
C48 C47 1.398 . S
C48 H75 0.929 . S
C49 O62 1.271 . S
C49 O63 1.251 . S
C50 O64 1.252 . S
C50 O65 1.272 . S
C51 Sm41 2.846 . S
C51 C52 1.506 . S
C51 O66 1.261 . S
C51 O67 1.242 . S
C52 C51 1.506 . S
C52 C53 1.358 . S
C52 C57 1.382 . S
C53 C52 1.358 . S
C53 C54 1.385 . S
C53 H76 0.930 . S
C54 C53 1.385 . S
C54 C55 1.395 . S
C54 H77 0.929 . S
C55 C54 1.395 . S
C55 C56 1.335 . S
C56 C55 1.335 . S
C56 C57 1.398 . S
C56 H78 0.930 . S
C57 C52 1.382 . S
C57 C56 1.398 . S
C57 H79 0.929 . S
C58 O68 1.271 . S
C58 O69 1.251 . S
C59 O70 1.252 . S
C59 O71 1.272 . S
O60 Sm40 2.543 . S
O60 C42 1.261 . S
O61 Sm40 2.450 . S
O61 C42 1.242 . S
O62 Sm40 2.681 . S
O62 Sm41 2.386 . S
O62 C49 1.271 . S
O63 Sm40 2.464 . S
O63 C49 1.251 . S
O64 Sm40 2.396 . S
O64 C50 1.252 . S
O65 Sm41 2.408 . S
O65 C50 1.272 . S
O66 Sm41 2.543 . S
O66 C51 1.261 . S
O67 Sm41 2.450 . S
O67 C51 1.242 . S
O68 Sm40 2.386 . S
O68 Sm41 2.681 . S
O68 C58 1.271 . S
O69 Sm41 2.464 . S
O69 C58 1.251 . S
O70 Sm41 2.396 . S
O70 C59 1.252 . S
O71 Sm40 2.408 . S
O71 C59 1.272 . S
H72 C44 0.930 . S
H73 C45 0.929 . S
H74 C47 0.930 . S
H75 C48 0.929 . S
H76 C53 0.930 . S
H77 C54 0.929 . S
H78 C56 0.930 . S
H79 C57 0.929 . S
Sm80 C82 2.846 1_556 S
Sm80 O100 2.543 . S
Sm80 O101 2.450 . S
Sm80 O102 2.681 . S
Sm80 O103 2.464 . S
Sm80 O104 2.396 . S
Sm80 O108 2.386 . S
Sm80 O111 2.408 . S
Sm81 C91 2.846 . S
Sm81 O102 2.386 . S
Sm81 O105 2.408 . S
Sm81 O106 2.543 . S
Sm81 O107 2.450 . S
Sm81 O108 2.681 . S
Sm81 O109 2.464 . S
Sm81 O110 2.396 . S
C82 Sm80 2.846 1_554 S
C82 C83 1.506 . S
C82 O100 1.261 1_554 S
C82 O101 1.242 1_554 S
C83 C82 1.506 . S
C83 C84 1.358 . S
C83 C88 1.382 . S
C84 C83 1.358 . S
C84 C85 1.385 . S
C84 H112 0.930 . S
C85 C84 1.385 . S
C85 C86 1.395 . S
C85 H113 0.929 . S
C86 C85 1.395 . S
C86 C87 1.335 . S
C87 C86 1.335 . S
C87 C88 1.398 . S
C87 H114 0.930 . S
C88 C83 1.382 . S
C88 C87 1.398 . S
C88 H115 0.929 . S
C89 O102 1.271 . S
C89 O103 1.251 . S
C90 O104 1.252 . S
C90 O105 1.272 . S
C91 Sm81 2.846 . S
C91 C92 1.506 . S
C91 O106 1.261 . S
C91 O107 1.242 . S
C92 C91 1.506 . S
C92 C93 1.358 . S
C92 C97 1.382 . S
C93 C92 1.358 . S
C93 C94 1.385 . S
C93 H116 0.930 . S
C94 C93 1.385 . S
C94 C95 1.395 . S
C94 H117 0.929 . S
C95 C94 1.395 . S
C95 C96 1.335 . S
C96 C95 1.335 . S
C96 C97 1.398 . S
C96 H118 0.930 . S
C97 C92 1.382 . S
C97 C96 1.398 . S
C97 H119 0.929 . S
C98 O108 1.271 . S
C98 O109 1.251 . S
C99 O110 1.252 . S
C99 O111 1.272 . S
O100 Sm80 2.543 . S
O100 C82 1.261 1_556 S
O101 Sm80 2.450 . S
O101 C82 1.242 1_556 S
O102 Sm80 2.681 . S
O102 Sm81 2.386 . S
O102 C89 1.271 . S
O103 Sm80 2.464 . S
O103 C89 1.251 . S
O104 Sm80 2.396 . S
O104 C90 1.252 . S
O105 Sm81 2.408 . S
O105 C90 1.272 . S
O106 Sm81 2.543 . S
O106 C91 1.261 . S
O107 Sm81 2.450 . S
O107 C91 1.242 . S
O108 Sm80 2.386 . S
O108 Sm81 2.681 . S
O108 C98 1.271 . S
O109 Sm81 2.464 . S
O109 C98 1.251 . S
O110 Sm81 2.396 . S
O110 C99 1.252 . S
O111 Sm80 2.408 . S
O111 C99 1.272 . S
H112 C84 0.930 . S
H113 C85 0.929 . S
H114 C87 0.930 . S
H115 C88 0.929 . S
H116 C93 0.930 . S
H117 C94 0.929 . S
H118 C96 0.930 . S
H119 C97 0.929 . S
Sm120 C122 2.846 . S
Sm120 O140 2.543 . S
Sm120 O141 2.450 . S
Sm120 O142 2.681 . S
Sm120 O143 2.464 . S
Sm120 O144 2.396 . S
Sm120 O148 2.386 . S
Sm120 O151 2.408 . S
Sm121 C131 2.846 . S
Sm121 O142 2.386 . S
Sm121 O145 2.408 . S
Sm121 O146 2.543 . S
Sm121 O147 2.450 . S
Sm121 O148 2.681 . S
Sm121 O149 2.464 . S
Sm121 O150 2.396 . S
C122 Sm120 2.846 . S
C122 C123 1.506 . S
C122 O140 1.261 . S
C122 O141 1.242 . S
C123 C122 1.506 . S
C123 C124 1.358 . S
C123 C128 1.382 . S
C124 C123 1.358 . S
C124 C125 1.385 . S
C124 H152 0.930 . S
C125 C124 1.385 . S
C125 C126 1.395 . S
C125 H153 0.929 . S
C126 C125 1.395 . S
C126 C127 1.335 . S
C127 C126 1.335 . S
C127 C128 1.398 . S
C127 H154 0.930 . S
C128 C123 1.382 . S
C128 C127 1.398 . S
C128 H155 0.929 . S
C129 O142 1.271 . S
C129 O143 1.251 . S
C130 O144 1.252 . S
C130 O145 1.272 . S
C131 Sm121 2.846 . S
C131 C132 1.506 . S
C131 O146 1.261 . S
C131 O147 1.242 . S
C132 C131 1.506 . S
C132 C133 1.358 . S
C132 C137 1.382 . S
C133 C132 1.358 . S
C133 C134 1.385 . S
C133 H156 0.930 . S
C134 C133 1.385 . S
C134 C135 1.395 . S
C134 H157 0.929 . S
C135 C134 1.395 . S
C135 C136 1.335 . S
C136 C135 1.335 . S
C136 C137 1.398 . S
C136 H158 0.930 . S
C137 C132 1.382 . S
C137 C136 1.398 . S
C137 H159 0.929 . S
C138 O148 1.271 . S
C138 O149 1.251 . S
C139 O150 1.252 . S
C139 O151 1.272 . S
O140 Sm120 2.543 . S
O140 C122 1.261 . S
O141 Sm120 2.450 . S
O141 C122 1.242 . S
O142 Sm120 2.681 . S
O142 Sm121 2.386 . S
O142 C129 1.271 . S
O143 Sm120 2.464 . S
O143 C129 1.251 . S
O144 Sm120 2.396 . S
O144 C130 1.252 . S
O145 Sm121 2.408 . S
O145 C130 1.272 . S
O146 Sm121 2.543 . S
O146 C131 1.261 . S
O147 Sm121 2.450 . S
O147 C131 1.242 . S
O148 Sm120 2.386 . S
O148 Sm121 2.681 . S
O148 C138 1.271 . S
O149 Sm121 2.464 . S
O149 C138 1.251 . S
O150 Sm121 2.396 . S
O150 C139 1.252 . S
O151 Sm120 2.408 . S
O151 C139 1.272 . S
H152 C124 0.930 . S
H153 C125 0.929 . S
H154 C127 0.930 . S
H155 C128 0.929 . S
H156 C133 0.930 . S
H157 C134 0.929 . S
H158 C136 0.930 . S
H159 C137 0.929 . S
Sm160 C162 2.846 . S
Sm160 O180 2.543 . S
Sm160 O181 2.450 . S
Sm160 O182 2.681 . S
Sm160 O183 2.464 . S
Sm160 O184 2.396 . S
Sm160 O188 2.386 . S
Sm160 O191 2.408 . S
Sm161 C171 2.846 . S
Sm161 O182 2.386 . S
Sm161 O185 2.408 . S
Sm161 O186 2.543 . S
Sm161 O187 2.450 . S
Sm161 O188 2.681 . S
Sm161 O189 2.464 . S
Sm161 O190 2.396 . S
C162 Sm160 2.846 . S
C162 C163 1.506 . S
C162 O180 1.261 . S
C162 O181 1.242 . S
C163 C162 1.506 . S
C163 C164 1.358 . S
C163 C168 1.382 . S
C164 C163 1.358 . S
C164 C165 1.385 . S
C164 H192 0.930 . S
C165 C164 1.385 . S
C165 C166 1.395 . S
C165 H193 0.929 . S
C166 C165 1.395 . S
C166 C167 1.335 . S
C167 C166 1.335 . S
C167 C168 1.398 . S
C167 H194 0.930 . S
C168 C163 1.382 . S
C168 C167 1.398 . S
C168 H195 0.929 . S
C169 O182 1.271 . S
C169 O183 1.251 . S
C170 O184 1.252 . S
C170 O185 1.272 . S
C171 Sm161 2.846 . S
C171 C172 1.506 . S
C171 O186 1.261 . S
C171 O187 1.242 . S
C172 C171 1.506 . S
C172 C173 1.358 . S
C172 C177 1.382 . S
C173 C172 1.358 . S
C173 C174 1.385 . S
C173 H196 0.930 . S
C174 C173 1.385 . S
C174 C175 1.395 . S
C174 H197 0.929 . S
C175 C174 1.395 . S
C175 C176 1.335 . S
C176 C175 1.335 . S
C176 C177 1.398 . S
C176 H198 0.930 . S
C177 C172 1.382 . S
C177 C176 1.398 . S
C177 H199 0.929 . S
C178 O188 1.271 . S
C178 O189 1.251 . S
C179 O190 1.252 . S
C179 O191 1.272 . S
O180 Sm160 2.543 . S
O180 C162 1.261 . S
O181 Sm160 2.450 . S
O181 C162 1.242 . S
O182 Sm160 2.681 . S
O182 Sm161 2.386 . S
O182 C169 1.271 . S
O183 Sm160 2.464 . S
O183 C169 1.251 . S
O184 Sm160 2.396 . S
O184 C170 1.252 . S
O185 Sm161 2.408 . S
O185 C170 1.272 . S
O186 Sm161 2.543 . S
O186 C171 1.261 . S
O187 Sm161 2.450 . S
O187 C171 1.242 . S
O188 Sm160 2.386 . S
O188 Sm161 2.681 . S
O188 C178 1.271 . S
O189 Sm161 2.464 . S
O189 C178 1.251 . S
O190 Sm161 2.396 . S
O190 C179 1.252 . S
O191 Sm160 2.408 . S
O191 C179 1.272 . S
H192 C164 0.930 . S
H193 C165 0.929 . S
H194 C167 0.930 . S
H195 C168 0.929 . S
H196 C173 0.930 . S
H197 C174 0.929 . S
H198 C176 0.930 . S
H199 C177 0.929 . S
Sm200 C202 2.846 1_556 S
Sm200 O220 2.543 . S
Sm200 O221 2.450 . S
Sm200 O222 2.681 . S
Sm200 O223 2.464 . S
Sm200 O224 2.396 . S
Sm200 O228 2.386 . S
Sm200 O231 2.408 . S
Sm201 C211 2.846 . S
Sm201 O222 2.386 . S
Sm201 O225 2.408 . S
Sm201 O226 2.543 . S
Sm201 O227 2.450 . S
Sm201 O228 2.681 . S
Sm201 O229 2.464 . S
Sm201 O230 2.396 . S
C202 Sm200 2.846 1_554 S
C202 C203 1.506 . S
C202 O220 1.261 1_554 S
C202 O221 1.242 1_554 S
C203 C202 1.506 . S
C203 C204 1.358 . S
C203 C208 1.382 . S
C204 C203 1.358 . S
C204 C205 1.385 . S
C204 H232 0.930 . S
C205 C204 1.385 . S
C205 C206 1.395 . S
C205 H233 0.929 . S
C206 C205 1.395 . S
C206 C207 1.335 . S
C207 C206 1.335 . S
C207 C208 1.398 . S
C207 H234 0.930 . S
C208 C203 1.382 . S
C208 C207 1.398 . S
C208 H235 0.929 . S
C209 O222 1.271 . S
C209 O223 1.251 . S
C210 O224 1.252 . S
C210 O225 1.272 . S
C211 Sm201 2.846 . S
C211 C212 1.506 . S
C211 O226 1.261 . S
C211 O227 1.242 . S
C212 C211 1.506 . S
C212 C213 1.358 . S
C212 C217 1.382 . S
C213 C212 1.358 . S
C213 C214 1.385 . S
C213 H236 0.930 . S
C214 C213 1.385 . S
C214 C215 1.395 . S
C214 H237 0.929 . S
C215 C214 1.395 . S
C215 C216 1.335 . S
C216 C215 1.335 . S
C216 C217 1.398 . S
C216 H238 0.930 . S
C217 C212 1.382 . S
C217 C216 1.398 . S
C217 H239 0.929 . S
C218 O228 1.271 . S
C218 O229 1.251 . S
C219 O230 1.252 . S
C219 O231 1.272 . S
O220 Sm200 2.543 . S
O220 C202 1.261 1_556 S
O221 Sm200 2.450 . S
O221 C202 1.242 1_556 S
O222 Sm200 2.681 . S
O222 Sm201 2.386 . S
O222 C209 1.271 . S
O223 Sm200 2.464 . S
O223 C209 1.251 . S
O224 Sm200 2.396 . S
O224 C210 1.252 . S
O225 Sm201 2.408 . S
O225 C210 1.272 . S
O226 Sm201 2.543 . S
O226 C211 1.261 . S
O227 Sm201 2.450 . S
O227 C211 1.242 . S
O228 Sm200 2.386 . S
O228 Sm201 2.681 . S
O228 C218 1.271 . S
O229 Sm201 2.464 . S
O229 C218 1.251 . S
O230 Sm201 2.396 . S
O230 C219 1.252 . S
O231 Sm200 2.408 . S
O231 C219 1.272 . S
H232 C204 0.930 . S
H233 C205 0.929 . S
H234 C207 0.930 . S
H235 C208 0.929 . S
H236 C213 0.930 . S
H237 C214 0.929 . S
H238 C216 0.930 . S
H239 C217 0.929 . S
Sm240 C242 2.846 . S
Sm240 O260 2.543 . S
Sm240 O261 2.450 . S
Sm240 O262 2.681 . S
Sm240 O263 2.464 . S
Sm240 O264 2.396 . S
Sm240 O268 2.386 . S
Sm240 O271 2.408 . S
Sm241 C251 2.846 . S
Sm241 O262 2.386 . S
Sm241 O265 2.408 . S
Sm241 O266 2.543 . S
Sm241 O267 2.450 . S
Sm241 O268 2.681 . S
Sm241 O269 2.464 . S
Sm241 O270 2.396 . S
C242 Sm240 2.846 . S
C242 C243 1.506 . S
C242 O260 1.261 . S
C242 O261 1.242 . S
C243 C242 1.506 . S
C243 C244 1.358 . S
C243 C248 1.382 . S
C244 C243 1.358 . S
C244 C245 1.385 . S
C244 H272 0.930 . S
C245 C244 1.385 . S
C245 C246 1.395 . S
C245 H273 0.929 . S
C246 C245 1.395 . S
C246 C247 1.335 . S
C247 C246 1.335 . S
C247 C248 1.398 . S
C247 H274 0.930 . S
C248 C243 1.382 . S
C248 C247 1.398 . S
C248 H275 0.929 . S
C249 O262 1.271 . S
C249 O263 1.251 . S
C250 O264 1.252 . S
C250 O265 1.272 . S
C251 Sm241 2.846 . S
C251 C252 1.506 . S
C251 O266 1.261 . S
C251 O267 1.242 . S
C252 C251 1.506 . S
C252 C253 1.358 . S
C252 C257 1.382 . S
C253 C252 1.358 . S
C253 C254 1.385 . S
C253 H276 0.930 . S
C254 C253 1.385 . S
C254 C255 1.395 . S
C254 H277 0.929 . S
C255 C254 1.395 . S
C255 C256 1.335 . S
C256 C255 1.335 . S
C256 C257 1.398 . S
C256 H278 0.930 . S
C257 C252 1.382 . S
C257 C256 1.398 . S
C257 H279 0.929 . S
C258 O268 1.271 . S
C258 O269 1.251 . S
C259 O270 1.252 . S
C259 O271 1.272 . S
O260 Sm240 2.543 . S
O260 C242 1.261 . S
O261 Sm240 2.450 . S
O261 C242 1.242 . S
O262 Sm240 2.681 . S
O262 Sm241 2.386 . S
O262 C249 1.271 . S
O263 Sm240 2.464 . S
O263 C249 1.251 . S
O264 Sm240 2.396 . S
O264 C250 1.252 . S
O265 Sm241 2.408 . S
O265 C250 1.272 . S
O266 Sm241 2.543 . S
O266 C251 1.261 . S
O267 Sm241 2.450 . S
O267 C251 1.242 . S
O268 Sm240 2.386 . S
O268 Sm241 2.681 . S
O268 C258 1.271 . S
O269 Sm241 2.464 . S
O269 C258 1.251 . S
O270 Sm241 2.396 . S
O270 C259 1.252 . S
O271 Sm240 2.408 . S
O271 C259 1.272 . S
H272 C244 0.930 . S
H273 C245 0.929 . S
H274 C247 0.930 . S
H275 C248 0.929 . S
H276 C253 0.930 . S
H277 C254 0.929 . S
H278 C256 0.930 . S
H279 C257 0.929 . S
Sm280 C282 2.846 . S
Sm280 O300 2.543 . S
Sm280 O301 2.450 . S
Sm280 O302 2.681 . S
Sm280 O303 2.464 . S
Sm280 O304 2.396 . S
Sm280 O308 2.386 . S
Sm280 O311 2.408 . S
Sm281 C291 2.846 . S
Sm281 O302 2.386 . S
Sm281 O305 2.408 . S
Sm281 O306 2.543 . S
Sm281 O307 2.450 . S
Sm281 O308 2.681 . S
Sm281 O309 2.464 . S
Sm281 O310 2.396 . S
C282 Sm280 2.846 . S
C282 C283 1.506 . S
C282 O300 1.261 . S
C282 O301 1.242 . S
C283 C282 1.506 . S
C283 C284 1.358 . S
C283 C288 1.382 . S
C284 C283 1.358 . S
C284 C285 1.385 . S
C284 H312 0.930 . S
C285 C284 1.385 . S
C285 C286 1.395 . S
C285 H313 0.929 . S
C286 C285 1.395 . S
C286 C287 1.335 . S
C287 C286 1.335 . S
C287 C288 1.398 . S
C287 H314 0.930 . S
C288 C283 1.382 . S
C288 C287 1.398 . S
C288 H315 0.929 . S
C289 O302 1.271 . S
C289 O303 1.251 . S
C290 O304 1.252 . S
C290 O305 1.272 . S
C291 Sm281 2.846 . S
C291 C292 1.506 . S
C291 O306 1.261 . S
C291 O307 1.242 . S
C292 C291 1.506 . S
C292 C293 1.358 . S
C292 C297 1.382 . S
C293 C292 1.358 . S
C293 C294 1.385 . S
C293 H316 0.930 . S
C294 C293 1.385 . S
C294 C295 1.395 . S
C294 H317 0.929 . S
C295 C294 1.395 . S
C295 C296 1.335 . S
C296 C295 1.335 . S
C296 C297 1.398 . S
C296 H318 0.930 . S
C297 C292 1.382 . S
C297 C296 1.398 . S
C297 H319 0.929 . S
C298 O308 1.271 . S
C298 O309 1.251 . S
C299 O310 1.252 . S
C299 O311 1.272 . S
O300 Sm280 2.543 . S
O300 C282 1.261 . S
O301 Sm280 2.450 . S
O301 C282 1.242 . S
O302 Sm280 2.681 . S
O302 Sm281 2.386 . S
O302 C289 1.271 . S
O303 Sm280 2.464 . S
O303 C289 1.251 . S
O304 Sm280 2.396 . S
O304 C290 1.252 . S
O305 Sm281 2.408 . S
O305 C290 1.272 . S
O306 Sm281 2.543 . S
O306 C291 1.261 . S
O307 Sm281 2.450 . S
O307 C291 1.242 . S
O308 Sm280 2.386 . S
O308 Sm281 2.681 . S
O308 C298 1.271 . S
O309 Sm281 2.464 . S
O309 C298 1.251 . S
O310 Sm281 2.396 . S
O310 C299 1.252 . S
O311 Sm280 2.408 . S
O311 C299 1.272 . S
H312 C284 0.930 . S
H313 C285 0.929 . S
H314 C287 0.930 . S
H315 C288 0.929 . S
H316 C293 0.930 . S
H317 C294 0.929 . S
H318 C296 0.930 . S
H319 C297 0.929 . S
Sm320 C322 2.846 1_554 S
Sm320 O340 2.543 . S
Sm320 O341 2.450 . S
Sm320 O342 2.681 . S
Sm320 O343 2.464 . S
Sm320 O344 2.396 . S
Sm320 O348 2.386 . S
Sm320 O351 2.408 . S
Sm321 C331 2.846 . S
Sm321 O342 2.386 . S
Sm321 O345 2.408 . S
Sm321 O346 2.543 . S
Sm321 O347 2.450 . S
Sm321 O348 2.681 . S
Sm321 O349 2.464 . S
Sm321 O350 2.396 . S
C322 Sm320 2.846 1_556 S
C322 C323 1.506 . S
C322 O340 1.261 1_556 S
C322 O341 1.242 1_556 S
C323 C322 1.506 . S
C323 C324 1.358 . S
C323 C328 1.382 . S
C324 C323 1.358 . S
C324 C325 1.385 . S
C324 H352 0.930 . S
C325 C324 1.385 . S
C325 C326 1.395 . S
C325 H353 0.929 . S
C326 C325 1.395 . S
C326 C327 1.335 . S
C327 C326 1.335 . S
C327 C328 1.398 . S
C327 H354 0.930 . S
C328 C323 1.382 . S
C328 C327 1.398 . S
C328 H355 0.929 . S
C329 O342 1.271 . S
C329 O343 1.251 . S
C330 O344 1.252 . S
C330 O345 1.272 . S
C331 Sm321 2.846 . S
C331 C332 1.506 . S
C331 O346 1.261 . S
C331 O347 1.242 . S
C332 C331 1.506 . S
C332 C333 1.358 . S
C332 C337 1.382 . S
C333 C332 1.358 . S
C333 C334 1.385 . S
C333 H356 0.930 . S
C334 C333 1.385 . S
C334 C335 1.395 . S
C334 H357 0.929 . S
C335 C334 1.395 . S
C335 C336 1.335 . S
C336 C335 1.335 . S
C336 C337 1.398 . S
C336 H358 0.930 . S
C337 C332 1.382 . S
C337 C336 1.398 . S
C337 H359 0.929 . S
C338 O348 1.271 . S
C338 O349 1.251 . S
C339 O350 1.252 . S
C339 O351 1.272 . S
O340 Sm320 2.543 . S
O340 C322 1.261 1_554 S
O341 Sm320 2.450 . S
O341 C322 1.242 1_554 S
O342 Sm320 2.681 . S
O342 Sm321 2.386 . S
O342 C329 1.271 . S
O343 Sm320 2.464 . S
O343 C329 1.251 . S
O344 Sm320 2.396 . S
O344 C330 1.252 . S
O345 Sm321 2.408 . S
O345 C330 1.272 . S
O346 Sm321 2.543 . S
O346 C331 1.261 . S
O347 Sm321 2.450 . S
O347 C331 1.242 . S
O348 Sm320 2.386 . S
O348 Sm321 2.681 . S
O348 C338 1.271 . S
O349 Sm321 2.464 . S
O349 C338 1.251 . S
O350 Sm321 2.396 . S
O350 C339 1.252 . S
O351 Sm320 2.408 . S
O351 C339 1.272 . S
H352 C324 0.930 . S
H353 C325 0.929 . S
H354 C327 0.930 . S
H355 C328 0.929 . S
H356 C333 0.930 . S
H357 C334 0.929 . S
H358 C336 0.930 . S
H359 C337 0.929 . S
Sm360 C362 2.846 . S
Sm360 O380 2.543 . S
Sm360 O381 2.450 . S
Sm360 O382 2.681 . S
Sm360 O383 2.464 . S
Sm360 O384 2.396 . S
Sm360 O388 2.386 . S
Sm360 O391 2.408 . S
Sm361 C371 2.846 . S
Sm361 O382 2.386 . S
Sm361 O385 2.408 . S
Sm361 O386 2.543 . S
Sm361 O387 2.450 . S
Sm361 O388 2.681 . S
Sm361 O389 2.464 . S
Sm361 O390 2.396 . S
C362 Sm360 2.846 . S
C362 C363 1.506 . S
C362 O380 1.261 . S
C362 O381 1.242 . S
C363 C362 1.506 . S
C363 C364 1.358 . S
C363 C368 1.382 . S
C364 C363 1.358 . S
C364 C365 1.385 . S
C364 H392 0.930 . S
C365 C364 1.385 . S
C365 C366 1.395 . S
C365 H393 0.929 . S
C366 C365 1.395 . S
C366 C367 1.335 . S
C367 C366 1.335 . S
C367 C368 1.398 . S
C367 H394 0.930 . S
C368 C363 1.382 . S
C368 C367 1.398 . S
C368 H395 0.929 . S
C369 O382 1.271 . S
C369 O383 1.251 . S
C370 O384 1.252 . S
C370 O385 1.272 . S
C371 Sm361 2.846 . S
C371 C372 1.506 . S
C371 O386 1.261 . S
C371 O387 1.242 . S
C372 C371 1.506 . S
C372 C373 1.358 . S
C372 C377 1.382 . S
C373 C372 1.358 . S
C373 C374 1.385 . S
C373 H396 0.930 . S
C374 C373 1.385 . S
C374 C375 1.395 . S
C374 H397 0.929 . S
C375 C374 1.395 . S
C375 C376 1.335 . S
C376 C375 1.335 . S
C376 C377 1.398 . S
C376 H398 0.930 . S
C377 C372 1.382 . S
C377 C376 1.398 . S
C377 H399 0.929 . S
C378 O388 1.271 . S
C378 O389 1.251 . S
C379 O390 1.252 . S
C379 O391 1.272 . S
O380 Sm360 2.543 . S
O380 C362 1.261 . S
O381 Sm360 2.450 . S
O381 C362 1.242 . S
O382 Sm360 2.681 . S
O382 Sm361 2.386 . S
O382 C369 1.271 . S
O383 Sm360 2.464 . S
O383 C369 1.251 . S
O384 Sm360 2.396 . S
O384 C370 1.252 . S
O385 Sm361 2.408 . S
O385 C370 1.272 . S
O386 Sm361 2.543 . S
O386 C371 1.261 . S
O387 Sm361 2.450 . S
O387 C371 1.242 . S
O388 Sm360 2.386 . S
O388 Sm361 2.681 . S
O388 C378 1.271 . S
O389 Sm361 2.464 . S
O389 C378 1.251 . S
O390 Sm361 2.396 . S
O390 C379 1.252 . S
O391 Sm360 2.408 . S
O391 C379 1.272 . S
H392 C364 0.930 . S
H393 C365 0.929 . S
H394 C367 0.930 . S
H395 C368 0.929 . S
H396 C373 0.930 . S
H397 C374 0.929 . S
H398 C376 0.930 . S
H399 C377 0.929 . S
Sm400 C402 2.846 . S
Sm400 O420 2.543 . S
Sm400 O421 2.450 . S
Sm400 O422 2.681 . S
Sm400 O423 2.464 . S
Sm400 O424 2.396 . S
Sm400 O428 2.386 . S
Sm400 O431 2.408 . S
Sm401 C411 2.846 . S
Sm401 O422 2.386 . S
Sm401 O425 2.408 . S
Sm401 O426 2.543 . S
Sm401 O427 2.450 . S
Sm401 O428 2.681 . S
Sm401 O429 2.464 . S
Sm401 O430 2.396 . S
C402 Sm400 2.846 . S
C402 C403 1.506 . S
C402 O420 1.261 . S
C402 O421 1.242 . S
C403 C402 1.506 . S
C403 C404 1.358 . S
C403 C408 1.382 . S
C404 C403 1.358 . S
C404 C405 1.385 . S
C404 H432 0.930 . S
C405 C404 1.385 . S
C405 C406 1.395 . S
C405 H433 0.929 . S
C406 C405 1.395 . S
C406 C407 1.335 . S
C407 C406 1.335 . S
C407 C408 1.398 . S
C407 H434 0.930 . S
C408 C403 1.382 . S
C408 C407 1.398 . S
C408 H435 0.929 . S
C409 O422 1.271 . S
C409 O423 1.251 . S
C410 O424 1.252 . S
C410 O425 1.272 . S
C411 Sm401 2.846 . S
C411 C412 1.506 . S
C411 O426 1.261 . S
C411 O427 1.242 . S
C412 C411 1.506 . S
C412 C413 1.358 . S
C412 C417 1.382 . S
C413 C412 1.358 . S
C413 C414 1.385 . S
C413 H436 0.930 . S
C414 C413 1.385 . S
C414 C415 1.395 . S
C414 H437 0.929 . S
C415 C414 1.395 . S
C415 C416 1.335 . S
C416 C415 1.335 . S
C416 C417 1.398 . S
C416 H438 0.930 . S
C417 C412 1.382 . S
C417 C416 1.398 . S
C417 H439 0.929 . S
C418 O428 1.271 . S
C418 O429 1.251 . S
C419 O430 1.252 . S
C419 O431 1.272 . S
O420 Sm400 2.543 . S
O420 C402 1.261 . S
O421 Sm400 2.450 . S
O421 C402 1.242 . S
O422 Sm400 2.681 . S
O422 Sm401 2.386 . S
O422 C409 1.271 . S
O423 Sm400 2.464 . S
O423 C409 1.251 . S
O424 Sm400 2.396 . S
O424 C410 1.252 . S
O425 Sm401 2.408 . S
O425 C410 1.272 . S
O426 Sm401 2.543 . S
O426 C411 1.261 . S
O427 Sm401 2.450 . S
O427 C411 1.242 . S
O428 Sm400 2.386 . S
O428 Sm401 2.681 . S
O428 C418 1.271 . S
O429 Sm401 2.464 . S
O429 C418 1.251 . S
O430 Sm401 2.396 . S
O430 C419 1.252 . S
O431 Sm400 2.408 . S
O431 C419 1.272 . S
H432 C404 0.930 . S
H433 C405 0.929 . S
H434 C407 0.930 . S
H435 C408 0.929 . S
H436 C413 0.930 . S
H437 C414 0.929 . S
H438 C416 0.930 . S
H439 C417 0.929 . S
Sm440 C442 2.846 1_554 S
Sm440 O460 2.543 . S
Sm440 O461 2.450 . S
Sm440 O462 2.681 . S
Sm440 O463 2.464 . S
Sm440 O464 2.396 . S
Sm440 O468 2.386 . S
Sm440 O471 2.408 . S
Sm441 C451 2.846 . S
Sm441 O462 2.386 . S
Sm441 O465 2.408 . S
Sm441 O466 2.543 . S
Sm441 O467 2.450 . S
Sm441 O468 2.681 . S
Sm441 O469 2.464 . S
Sm441 O470 2.396 . S
C442 Sm440 2.846 1_556 S
C442 C443 1.506 . S
C442 O460 1.261 1_556 S
C442 O461 1.242 1_556 S
C443 C442 1.506 . S
C443 C444 1.358 . S
C443 C448 1.382 . S
C444 C443 1.358 . S
C444 C445 1.385 . S
C444 H472 0.930 . S
C445 C444 1.385 . S
C445 C446 1.395 . S
C445 H473 0.929 . S
C446 C445 1.395 . S
C446 C447 1.335 . S
C447 C446 1.335 . S
C447 C448 1.398 . S
C447 H474 0.930 . S
C448 C443 1.382 . S
C448 C447 1.398 . S
C448 H475 0.929 . S
C449 O462 1.271 . S
C449 O463 1.251 . S
C450 O464 1.252 . S
C450 O465 1.272 . S
C451 Sm441 2.846 . S
C451 C452 1.506 . S
C451 O466 1.261 . S
C451 O467 1.242 . S
C452 C451 1.506 . S
C452 C453 1.358 . S
C452 C457 1.382 . S
C453 C452 1.358 . S
C453 C454 1.385 . S
C453 H476 0.930 . S
C454 C453 1.385 . S
C454 C455 1.395 . S
C454 H477 0.929 . S
C455 C454 1.395 . S
C455 C456 1.335 . S
C456 C455 1.335 . S
C456 C457 1.398 . S
C456 H478 0.930 . S
C457 C452 1.382 . S
C457 C456 1.398 . S
C457 H479 0.929 . S
C458 O468 1.271 . S
C458 O469 1.251 . S
C459 O470 1.252 . S
C459 O471 1.272 . S
O460 Sm440 2.543 . S
O460 C442 1.261 1_554 S
O461 Sm440 2.450 . S
O461 C442 1.242 1_554 S
O462 Sm440 2.681 . S
O462 Sm441 2.386 . S
O462 C449 1.271 . S
O463 Sm440 2.464 . S
O463 C449 1.251 . S
O464 Sm440 2.396 . S
O464 C450 1.252 . S
O465 Sm441 2.408 . S
O465 C450 1.272 . S
O466 Sm441 2.543 . S
O466 C451 1.261 . S
O467 Sm441 2.450 . S
O467 C451 1.242 . S
O468 Sm440 2.386 . S
O468 Sm441 2.681 . S
O468 C458 1.271 . S
O469 Sm441 2.464 . S
O469 C458 1.251 . S
O470 Sm441 2.396 . S
O470 C459 1.252 . S
O471 Sm440 2.408 . S
O471 C459 1.272 . S
H472 C444 0.930 . S
H473 C445 0.929 . S
H474 C447 0.930 . S
H475 C448 0.929 . S
H476 C453 0.930 . S
H477 C454 0.929 . S
H478 C456 0.930 . S
H479 C457 0.929 . S
H480 C488 0.950 . S
H481 C493 0.950 . S
H482 C490 0.950 . S
H483 C492 0.950 . S
H484 C494 0.950 . S
H485 C496 0.950 . S
H486 C498 0.950 . S
H487 C499 0.950 . S
C488 H480 0.950 . S
C488 C489 1.386 . S
C488 C490 1.391 . S
C489 C488 1.386 . S
C489 C493 1.393 . S
C490 H482 0.950 . S
C490 C488 1.391 . S
C490 C491 1.400 . S
C491 C490 1.400 . S
C491 C492 1.398 . S
C491 C497 1.491 . S
C492 H483 0.950 . S
C492 C491 1.398 . S
C492 C493 1.391 . S
C493 H481 0.950 . S
C493 C489 1.393 . S
C493 C492 1.391 . S
C494 H484 0.950 . S
C494 C495 1.386 . S
C494 C496 1.391 . S
C495 C494 1.386 . S
C495 C499 1.393 . S
C496 H485 0.950 . S
C496 C494 1.391 . S
C496 C497 1.400 . S
C497 C491 1.491 . S
C497 C496 1.400 . S
C497 C498 1.398 . S
C498 H486 0.950 . S
C498 C497 1.398 . S
C498 C499 1.391 . S
C499 H487 0.950 . S
C499 C495 1.393 . S
C499 C498 1.391 . S
H500 C508 0.950 . S
H501 C513 0.950 . S
H502 C510 0.950 . S
H503 C512 0.950 . S
H504 C514 0.950 . S
H505 C516 0.950 . S
H506 C518 0.950 . S
H507 C519 0.950 . S
C508 H500 0.950 . S
C508 C509 1.386 . S
C508 C510 1.391 . S
C509 C508 1.386 . S
C509 C513 1.393 . S
C510 H502 0.950 . S
C510 C508 1.391 . S
C510 C511 1.400 . S
C511 C510 1.400 . S
C511 C512 1.398 . S
C511 C517 1.491 . S
C512 H503 0.950 . S
C512 C511 1.398 . S
C512 C513 1.391 . S
C513 H501 0.950 . S
C513 C509 1.393 . S
C513 C512 1.391 . S
C514 H504 0.950 . S
C514 C515 1.386 . S
C514 C516 1.391 . S
C515 C514 1.386 . S
C515 C519 1.393 . S
C516 H505 0.950 . S
C516 C514 1.391 . S
C516 C517 1.400 . S
C517 C511 1.491 . S
C517 C516 1.400 . S
C517 C518 1.398 . S
C518 H506 0.950 . S
C518 C517 1.398 . S
C518 C519 1.391 . S
C519 H507 0.950 . S
C519 C515 1.393 . S
C519 C518 1.391 . S
H520 C528 0.950 . S
H521 C533 0.950 . S
H522 C530 0.950 . S
H523 C532 0.950 . S
H524 C534 0.950 . S
H525 C536 0.950 . S
H526 C538 0.950 . S
H527 C539 0.950 . S
C528 H520 0.950 . S
C528 C529 1.386 . S
C528 C530 1.391 . S
C529 C528 1.386 . S
C529 C533 1.393 . S
C530 H522 0.950 . S
C530 C528 1.391 . S
C530 C531 1.400 . S
C531 C530 1.400 . S
C531 C532 1.398 . S
C531 C537 1.491 . S
C532 H523 0.950 . S
C532 C531 1.398 . S
C532 C533 1.391 . S
C533 H521 0.950 . S
C533 C529 1.393 . S
C533 C532 1.391 . S
C534 H524 0.950 . S
C534 C535 1.386 . S
C534 C536 1.391 . S
C535 C534 1.386 . S
C535 C539 1.393 . S
C536 H525 0.950 . S
C536 C534 1.391 . S
C536 C537 1.400 . S
C537 C531 1.491 . S
C537 C536 1.400 . S
C537 C538 1.398 . S
C538 H526 0.950 . S
C538 C537 1.398 . S
C538 C539 1.391 . S
C539 H527 0.950 . S
C539 C535 1.393 . S
C539 C538 1.391 . S
H540 C548 0.950 . S
H541 C553 0.950 . S
H542 C550 0.950 . S
H543 C552 0.950 . S
H544 C554 0.950 . S
H545 C556 0.950 . S
H546 C558 0.950 . S
H547 C559 0.950 . S
C548 H540 0.950 . S
C548 C549 1.386 . S
C548 C550 1.391 . S
C549 C548 1.386 . S
C549 C553 1.393 . S
C550 H542 0.950 . S
C550 C548 1.391 . S
C550 C551 1.400 . S
C551 C550 1.400 . S
C551 C552 1.398 . S
C551 C557 1.491 . S
C552 H543 0.950 . S
C552 C551 1.398 . S
C552 C553 1.391 . S
C553 H541 0.950 . S
C553 C549 1.393 . S
C553 C552 1.391 . S
C554 H544 0.950 . S
C554 C555 1.386 . S
C554 C556 1.391 . S
C555 C554 1.386 . S
C555 C559 1.393 . S
C556 H545 0.950 . S
C556 C554 1.391 . S
C556 C557 1.400 . S
C557 C551 1.491 . S
C557 C556 1.400 . S
C557 C558 1.398 . S
C558 H546 0.950 . S
C558 C557 1.398 . S
C558 C559 1.391 . S
C559 H547 0.950 . S
C559 C555 1.393 . S
C559 C558 1.391 . S
H560 C568 0.950 . S
H561 C573 0.950 . S
H562 C570 0.950 . S
H563 C572 0.950 . S
H564 C574 0.950 . S
H565 C576 0.950 . S
H566 C578 0.950 . S
H567 C579 0.950 . S
C568 H560 0.950 . S
C568 C569 1.386 . S
C568 C570 1.391 . S
C569 C568 1.386 . S
C569 C573 1.393 . S
C570 H562 0.950 . S
C570 C568 1.391 . S
C570 C571 1.400 . S
C571 C570 1.400 . S
C571 C572 1.398 . S
C571 C577 1.491 . S
C572 H563 0.950 . S
C572 C571 1.398 . S
C572 C573 1.391 . S
C573 H561 0.950 . S
C573 C569 1.393 . S
C573 C572 1.391 . S
C574 H564 0.950 . S
C574 C575 1.386 . S
C574 C576 1.391 . S
C575 C574 1.386 . S
C575 C579 1.393 . S
C576 H565 0.950 . S
C576 C574 1.391 . S
C576 C577 1.400 . S
C577 C571 1.491 . S
C577 C576 1.400 . S
C577 C578 1.398 . S
C578 H566 0.950 . S
C578 C577 1.398 . S
C578 C579 1.391 . S
C579 H567 0.950 . S
C579 C575 1.393 . S
C579 C578 1.391 . S
H580 C588 0.950 . S
H581 C593 0.950 . S
H582 C590 0.950 . S
H583 C592 0.950 . S
H584 C594 0.950 . S
H585 C596 0.950 . S
H586 C598 0.950 . S
H587 C599 0.950 . S
C588 H580 0.950 . S
C588 C589 1.386 . S
C588 C590 1.391 . S
C589 C588 1.386 . S
C589 C593 1.393 . S
C590 H582 0.950 . S
C590 C588 1.391 . S
C590 C591 1.400 . S
C591 C590 1.400 . S
C591 C592 1.398 . S
C591 C597 1.491 . S
C592 H583 0.950 . S
C592 C591 1.398 . S
C592 C593 1.391 . S
C593 H581 0.950 . S
C593 C589 1.393 . S
C593 C592 1.391 . S
C594 H584 0.950 . S
C594 C595 1.386 . S
C594 C596 1.391 . S
C595 C594 1.386 . S
C595 C599 1.393 . S
C596 H585 0.950 . S
C596 C594 1.391 . S
C596 C597 1.400 . S
C597 C591 1.491 . S
C597 C596 1.400 . S
C597 C598 1.398 . S
C598 H586 0.950 . S
C598 C597 1.398 . S
C598 C599 1.391 . S
C599 H587 0.950 . S
C599 C595 1.393 . S
C599 C598 1.391 . S
H600 C608 0.950 . S
H601 C613 0.950 . S
H602 C610 0.950 . S
H603 C612 0.950 . S
H604 C614 0.950 . S
H605 C616 0.950 . S
H606 C618 0.950 . S
H607 C619 0.950 . S
C608 H600 0.950 . S
C608 C609 1.386 . S
C608 C610 1.391 . S
C609 C608 1.386 . S
C609 C613 1.393 . S
C610 H602 0.950 . S
C610 C608 1.391 . S
C610 C611 1.400 . S
C611 C610 1.400 . S
C611 C612 1.398 . S
C611 C617 1.491 1_556 S
C612 H603 0.950 . S
C612 C611 1.398 . S
C612 C613 1.391 . S
C613 H601 0.950 . S
C613 C609 1.393 . S
C613 C612 1.391 . S
C614 H604 0.950 . S
C614 C615 1.386 . S
C614 C616 1.391 . S
C615 C614 1.386 . S
C615 C619 1.393 . S
C616 H605 0.950 . S
C616 C614 1.391 . S
C616 C617 1.400 . S
C617 C611 1.491 1_554 S
C617 C616 1.400 . S
C617 C618 1.398 . S
C618 H606 0.950 . S
C618 C617 1.398 . S
C618 C619 1.391 . S
C619 H607 0.950 . S
C619 C615 1.393 . S
C619 C618 1.391 . S
H620 C628 0.950 . S
H621 C633 0.950 . S
H622 C630 0.950 . S
H623 C632 0.950 . S
H624 C634 0.950 . S
H625 C636 0.950 . S
H626 C638 0.950 . S
H627 C639 0.950 . S
C628 H620 0.950 . S
C628 C629 1.386 . S
C628 C630 1.391 . S
C629 C628 1.386 . S
C629 C633 1.393 . S
C630 H622 0.950 . S
C630 C628 1.391 . S
C630 C631 1.400 . S
C631 C630 1.400 . S
C631 C632 1.398 . S
C631 C637 1.491 . S
C632 H623 0.950 . S
C632 C631 1.398 . S
C632 C633 1.391 . S
C633 H621 0.950 . S
C633 C629 1.393 . S
C633 C632 1.391 . S
C634 H624 0.950 . S
C634 C635 1.386 . S
C634 C636 1.391 . S
C635 C634 1.386 . S
C635 C639 1.393 . S
C636 H625 0.950 . S
C636 C634 1.391 . S
C636 C637 1.400 . S
C637 C631 1.491 . S
C637 C636 1.400 . S
C637 C638 1.398 . S
C638 H626 0.950 . S
C638 C637 1.398 . S
C638 C639 1.391 . S
C639 H627 0.950 . S
C639 C635 1.393 . S
C639 C638 1.391 . S
H640 C648 0.950 . S
H641 C653 0.950 . S
H642 C650 0.950 . S
H643 C652 0.950 . S
H644 C654 0.950 . S
H645 C656 0.950 . S
H646 C658 0.950 . S
H647 C659 0.950 . S
C648 H640 0.950 . S
C648 C649 1.386 . S
C648 C650 1.391 . S
C649 C648 1.386 . S
C649 C653 1.393 . S
C650 H642 0.950 . S
C650 C648 1.391 . S
C650 C651 1.400 . S
C651 C650 1.400 . S
C651 C652 1.398 . S
C651 C657 1.491 . S
C652 H643 0.950 . S
C652 C651 1.398 . S
C652 C653 1.391 . S
C653 H641 0.950 . S
C653 C649 1.393 . S
C653 C652 1.391 . S
C654 H644 0.950 . S
C654 C655 1.386 . S
C654 C656 1.391 . S
C655 C654 1.386 . S
C655 C659 1.393 . S
C656 H645 0.950 . S
C656 C654 1.391 . S
C656 C657 1.400 . S
C657 C651 1.491 . S
C657 C656 1.400 . S
C657 C658 1.398 . S
C658 H646 0.950 . S
C658 C657 1.398 . S
C658 C659 1.391 . S
C659 H647 0.950 . S
C659 C655 1.393 . S
C659 C658 1.391 . S
H660 C668 0.950 . S
H661 C673 0.950 . S
H662 C670 0.950 1_554 S
H663 C672 0.950 . S
H664 C674 0.950 . S
H665 C676 0.950 1_556 S
H666 C678 0.950 . S
H667 C679 0.950 . S
C668 H660 0.950 . S
C668 C669 1.386 . S
C668 C670 1.391 . S
C669 C668 1.386 . S
C669 C673 1.393 . S
C670 H662 0.950 1_556 S
C670 C668 1.391 . S
C670 C671 1.400 . S
C671 C670 1.400 . S
C671 C672 1.398 . S
C671 C677 1.491 1_556 S
C672 H663 0.950 . S
C672 C671 1.398 . S
C672 C673 1.391 . S
C673 H661 0.950 . S
C673 C669 1.393 . S
C673 C672 1.391 . S
C674 H664 0.950 . S
C674 C675 1.386 . S
C674 C676 1.391 . S
C675 C674 1.386 . S
C675 C679 1.393 . S
C676 H665 0.950 1_554 S
C676 C674 1.391 . S
C676 C677 1.400 . S
C677 C671 1.491 1_554 S
C677 C676 1.400 . S
C677 C678 1.398 . S
C678 H666 0.950 . S
C678 C677 1.398 . S
C678 C679 1.391 . S
C679 H667 0.950 . S
C679 C675 1.393 . S
C679 C678 1.391 . S
H680 C688 0.950 . S
H681 C693 0.950 . S
H682 C690 0.950 . S
H683 C692 0.950 . S
H684 C694 0.950 . S
H685 C696 0.950 . S
H686 C698 0.950 . S
H687 C699 0.950 . S
C688 H680 0.950 . S
C688 C689 1.386 . S
C688 C690 1.391 . S
C689 C688 1.386 . S
C689 C693 1.393 . S
C690 H682 0.950 . S
C690 C688 1.391 . S
C690 C691 1.400 . S
C691 C690 1.400 . S
C691 C692 1.398 . S
C691 C697 1.491 . S
C692 H683 0.950 . S
C692 C691 1.398 . S
C692 C693 1.391 . S
C693 H681 0.950 . S
C693 C689 1.393 . S
C693 C692 1.391 . S
C694 H684 0.950 . S
C694 C695 1.386 . S
C694 C696 1.391 . S
C695 C694 1.386 . S
C695 C699 1.393 . S
C696 H685 0.950 . S
C696 C694 1.391 . S
C696 C697 1.400 . S
C697 C691 1.491 . S
C697 C696 1.400 . S
C697 C698 1.398 . S
C698 H686 0.950 . S
C698 C697 1.398 . S
C698 C699 1.391 . S
C699 H687 0.950 . S
C699 C695 1.393 . S
C699 C698 1.391 . S
H700 C708 0.950 . S
H701 C713 0.950 . S
H702 C710 0.950 . S
H703 C712 0.950 . S
H704 C714 0.950 . S
H705 C716 0.950 . S
H706 C718 0.950 . S
H707 C719 0.950 . S
C708 H700 0.950 . S
C708 C709 1.386 . S
C708 C710 1.391 . S
C709 C708 1.386 . S
C709 C713 1.393 . S
C710 H702 0.950 . S
C710 C708 1.391 . S
C710 C711 1.400 . S
C711 C710 1.400 . S
C711 C712 1.398 . S
C711 C717 1.491 . S
C712 H703 0.950 . S
C712 C711 1.398 . S
C712 C713 1.391 . S
C713 H701 0.950 . S
C713 C709 1.393 . S
C713 C712 1.391 . S
C714 H704 0.950 . S
C714 C715 1.386 . S
C714 C716 1.391 . S
C715 C714 1.386 . S
C715 C719 1.393 . S
C716 H705 0.950 . S
C716 C714 1.391 . S
C716 C717 1.400 . S
C717 C711 1.491 . S
C717 C716 1.400 . S
C717 C718 1.398 . S
C718 H706 0.950 . S
C718 C717 1.398 . S
C718 C719 1.391 . S
C719 H707 0.950 . S
C719 C715 1.393 . S
C719 C718 1.391 . S
H720 C728 0.950 . S
H721 C733 0.950 . S
H722 C730 0.950 . S
H723 C732 0.950 1_545 S
H724 C734 0.950 . S
H725 C736 0.950 . S
H726 C738 0.950 1_565 S
H727 C739 0.950 . S
C728 H720 0.950 . S
C728 C729 1.386 . S
C728 C730 1.391 . S
C729 C728 1.386 . S
C729 C733 1.393 . S
C730 H722 0.950 . S
C730 C728 1.391 . S
C730 C731 1.400 . S
C731 C730 1.400 . S
C731 C732 1.398 . S
C731 C737 1.491 1_566 S
C732 H723 0.950 1_565 S
C732 C731 1.398 . S
C732 C733 1.391 . S
C733 H721 0.950 . S
C733 C729 1.393 . S
C733 C732 1.391 . S
C734 H724 0.950 . S
C734 C735 1.386 . S
C734 C736 1.391 . S
C735 C734 1.386 . S
C735 C739 1.393 . S
C736 H725 0.950 . S
C736 C734 1.391 . S
C736 C737 1.400 . S
C737 C731 1.491 1_544 S
C737 C736 1.400 . S
C737 C738 1.398 . S
C738 H726 0.950 1_545 S
C738 C737 1.398 . S
C738 C739 1.391 . S
C739 H727 0.950 . S
C739 C735 1.393 . S
C739 C738 1.391 . S
H740 C748 0.950 . S
H741 C753 0.950 . S
H742 C750 0.950 . S
H743 C752 0.950 . S
H744 C754 0.950 . S
H745 C756 0.950 . S
H746 C758 0.950 . S
H747 C759 0.950 . S
C748 H740 0.950 . S
C748 C749 1.386 . S
C748 C750 1.391 . S
C749 C748 1.386 . S
C749 C753 1.393 . S
C750 H742 0.950 . S
C750 C748 1.391 . S
C750 C751 1.400 . S
C751 C750 1.400 . S
C751 C752 1.398 . S
C751 C757 1.491 . S
C752 H743 0.950 . S
C752 C751 1.398 . S
C752 C753 1.391 . S
C753 H741 0.950 . S
C753 C749 1.393 . S
C753 C752 1.391 . S
C754 H744 0.950 . S
C754 C755 1.386 . S
C754 C756 1.391 . S
C755 C754 1.386 . S
C755 C759 1.393 . S
C756 H745 0.950 . S
C756 C754 1.391 . S
C756 C757 1.400 . S
C757 C751 1.491 . S
C757 C756 1.400 . S
C757 C758 1.398 . S
C758 H746 0.950 . S
C758 C757 1.398 . S
C758 C759 1.391 . S
C759 H747 0.950 . S
C759 C755 1.393 . S
C759 C758 1.391 . S
H760 C768 0.950 . S
H761 C773 0.950 . S
H762 C770 0.950 . S
H763 C772 0.915 1_655 S
H764 C774 0.950 . S
H765 C776 0.950 . S
H766 C778 0.914 1_455 S
H767 C779 0.950 . S
C768 H760 0.950 . S
C768 C769 1.386 . S
C768 C770 1.391 . S
C769 C768 1.386 . S
C769 C773 1.393 . S
C770 H762 0.950 . S
C770 C768 1.391 . S
C770 C771 1.400 . S
C771 C770 1.400 . S
C771 C772 1.418 . S
C771 C777 1.491 1_455 S
C772 H763 0.915 1_455 S
C772 C771 1.418 . S
C772 C773 1.406 . S
C773 H761 0.950 . S
C773 C769 1.393 . S
C773 C772 1.406 . S
C774 H764 0.950 . S
C774 C775 1.386 . S
C774 C776 1.391 . S
C775 C774 1.386 . S
C775 C779 1.393 . S
C776 H765 0.950 . S
C776 C774 1.391 . S
C776 C777 1.400 . S
C777 C771 1.491 1_655 S
C777 C776 1.400 . S
C777 C778 1.419 . S
C778 H766 0.914 1_655 S
C778 C777 1.419 . S
C778 C779 1.406 . S
C779 H767 0.950 . S
C779 C775 1.393 . S
C779 C778 1.406 . S
H780 C788 0.950 . S
H781 C793 0.950 . S
H782 C790 0.950 . S
H783 C792 0.949 . S
H784 C794 0.950 . S
H785 C796 0.950 . S
H786 C798 0.949 . S
H787 C799 0.950 . S
C788 H780 0.950 . S
C788 C789 1.386 . S
C788 C790 1.391 . S
C789 C788 1.386 . S
C789 C793 1.393 . S
C790 H782 0.950 . S
C790 C788 1.391 . S
C790 C791 1.400 . S
C791 C790 1.400 . S
C791 C792 1.398 . S
C791 C797 1.491 1_564 S
C792 H783 0.949 . S
C792 C791 1.398 . S
C792 C793 1.391 . S
C793 H781 0.950 . S
C793 C789 1.393 . S
C793 C792 1.391 . S
C794 H784 0.950 . S
C794 C795 1.386 . S
C794 C796 1.391 . S
C795 C794 1.386 . S
C795 C799 1.393 . S
C796 H785 0.950 . S
C796 C794 1.391 . S
C796 C797 1.400 . S
C797 C791 1.491 1_546 S
C797 C796 1.400 . S
C797 C798 1.398 . S
C798 H786 0.949 . S
C798 C797 1.398 . S
C798 C799 1.391 . S
C799 H787 0.950 . S
C799 C795 1.393 . S
C799 C798 1.391 . S
H800 C808 0.950 . S
H801 C813 0.950 . S
H802 C810 0.950 . S
H803 C812 0.950 . S
H804 C814 0.950 . S
H805 C816 0.950 . S
H806 C818 0.950 . S
H807 C819 0.950 . S
C808 H800 0.950 . S
C808 C809 1.386 . S
C808 C810 1.391 . S
C809 C808 1.386 . S
C809 C813 1.393 . S
C810 H802 0.950 . S
C810 C808 1.391 . S
C810 C811 1.400 . S
C811 C810 1.400 . S
C811 C812 1.398 . S
C811 C817 1.491 . S
C812 H803 0.950 . S
C812 C811 1.398 . S
C812 C813 1.391 . S
C813 H801 0.950 . S
C813 C809 1.393 . S
C813 C812 1.391 . S
C814 H804 0.950 . S
C814 C815 1.386 . S
C814 C816 1.391 . S
C815 C814 1.386 . S
C815 C819 1.393 . S
C816 H805 0.950 . S
C816 C814 1.391 . S
C816 C817 1.400 . S
C817 C811 1.491 . S
C817 C816 1.400 . S
C817 C818 1.398 . S
C818 H806 0.950 . S
C818 C817 1.398 . S
C818 C819 1.391 . S
C819 H807 0.950 . S
C819 C815 1.393 . S
C819 C818 1.391 . S
H820 C828 0.950 . S
H821 C833 0.950 1_655 S
H822 C830 0.950 . S
H823 C832 0.950 . S
H824 C834 0.950 . S
H825 C836 0.950 . S
H826 C838 0.950 . S
H827 C839 0.950 1_455 S
C828 H820 0.950 . S
C828 C829 1.386 . S
C828 C830 1.391 . S
C829 C828 1.386 . S
C829 C833 1.393 . S
C830 H822 0.950 . S
C830 C828 1.391 . S
C830 C831 1.400 . S
C831 C830 1.400 . S
C831 C832 1.398 1_455 S
C831 C837 1.491 1_455 S
C832 H823 0.950 . S
C832 C831 1.398 1_655 S
C832 C833 1.391 1_655 S
C833 H821 0.950 1_455 S
C833 C829 1.393 . S
C833 C832 1.391 1_455 S
C834 H824 0.950 . S
C834 C835 1.386 . S
C834 C836 1.391 . S
C835 C834 1.386 . S
C835 C839 1.393 . S
C836 H825 0.950 . S
C836 C834 1.391 . S
C836 C837 1.400 . S
C837 C831 1.491 1_655 S
C837 C836 1.400 . S
C837 C838 1.398 1_655 S
C838 H826 0.950 . S
C838 C837 1.398 1_455 S
C838 C839 1.391 1_455 S
C839 H827 0.950 1_655 S
C839 C835 1.393 . S
C839 C838 1.391 1_655 S
H840 C848 0.950 . S
H841 C853 0.950 . S
H842 C850 0.950 . S
H843 C852 0.945 1_565 S
H844 C854 0.950 . S
H845 C856 0.950 . S
H846 C858 0.945 1_545 S
H847 C859 0.950 . S
C848 H840 0.950 . S
C848 C849 1.386 . S
C848 C850 1.391 . S
C849 C848 1.386 . S
C849 C853 1.393 . S
C850 H842 0.950 . S
C850 C848 1.391 . S
C850 C851 1.400 . S
C851 C850 1.400 . S
C851 C852 1.398 . S
C851 C857 1.491 1_545 S
C852 H843 0.945 1_545 S
C852 C851 1.398 . S
C852 C853 1.391 . S
C853 H841 0.950 . S
C853 C849 1.393 . S
C853 C852 1.391 . S
C854 H844 0.950 . S
C854 C855 1.386 . S
C854 C856 1.391 . S
C855 C854 1.386 . S
C855 C859 1.393 . S
C856 H845 0.950 . S
C856 C854 1.391 . S
C856 C857 1.400 . S
C857 C851 1.491 1_565 S
C857 C856 1.400 . S
C857 C858 1.398 . S
C858 H846 0.945 1_565 S
C858 C857 1.398 . S
C858 C859 1.391 . S
C859 H847 0.950 . S
C859 C855 1.393 . S
C859 C858 1.391 . S
H860 C868 0.950 . S
H861 C873 0.950 . S
H862 C870 0.950 . S
H863 C872 0.950 . S
H864 C874 0.950 . S
H865 C876 0.950 . S
H866 C878 0.950 . S
H867 C879 0.950 . S
C868 H860 0.950 . S
C868 C869 1.386 . S
C868 C870 1.391 . S
C869 C868 1.386 . S
C869 C873 1.393 . S
C870 H862 0.950 . S
C870 C868 1.391 . S
C870 C871 1.400 . S
C871 C870 1.400 . S
C871 C872 1.398 . S
C871 C877 1.491 . S
C872 H863 0.950 . S
C872 C871 1.398 . S
C872 C873 1.391 . S
C873 H861 0.950 . S
C873 C869 1.393 . S
C873 C872 1.391 . S
C874 H864 0.950 . S
C874 C875 1.386 . S
C874 C876 1.391 . S
C875 C874 1.386 . S
C875 C879 1.393 . S
C876 H865 0.950 . S
C876 C874 1.391 . S
C876 C877 1.400 . S
C877 C871 1.491 . S
C877 C876 1.400 . S
C877 C878 1.398 . S
C878 H866 0.950 . S
C878 C877 1.398 . S
C878 C879 1.391 . S
C879 H867 0.950 . S
C879 C875 1.393 . S
C879 C878 1.391 . S
H880 C888 0.950 . S
H881 C893 0.950 . S
H882 C890 0.950 1_455 S
H883 C892 0.950 . S
H884 C894 0.950 . S
H885 C896 0.950 1_655 S
H886 C898 0.950 . S
H887 C899 0.950 . S
C888 H880 0.950 . S
C888 C889 1.386 . S
C888 C890 1.391 . S
C889 C888 1.386 . S
C889 C893 1.393 . S
C890 H882 0.950 1_655 S
C890 C888 1.391 . S
C890 C891 1.400 . S
C891 C890 1.400 . S
C891 C892 1.398 . S
C891 C897 1.491 1_655 S
C892 H883 0.950 . S
C892 C891 1.398 . S
C892 C893 1.391 . S
C893 H881 0.950 . S
C893 C889 1.393 . S
C893 C892 1.391 . S
C894 H884 0.950 . S
C894 C895 1.386 . S
C894 C896 1.391 . S
C895 C894 1.386 . S
C895 C899 1.393 . S
C896 H885 0.950 1_455 S
C896 C894 1.391 . S
C896 C897 1.400 . S
C897 C891 1.491 1_455 S
C897 C896 1.400 . S
C897 C898 1.398 . S
C898 H886 0.950 . S
C898 C897 1.398 . S
C898 C899 1.391 . S
C899 H887 0.950 . S
C899 C895 1.393 . S
C899 C898 1.391 . S
H900 C908 0.950 . S
H901 C913 0.950 . S
H902 C910 0.950 1_655 S
H903 C912 0.950 . S
H904 C914 0.950 . S
H905 C916 0.950 1_455 S
H906 C918 0.950 . S
H907 C919 0.950 . S
C908 H900 0.950 . S
C908 C909 1.386 . S
C908 C910 1.391 . S
C909 C908 1.386 . S
C909 C913 1.393 . S
C910 H902 0.950 1_455 S
C910 C908 1.391 . S
C910 C911 1.400 . S
C911 C910 1.400 . S
C911 C912 1.398 . S
C911 C917 1.491 1_455 S
C912 H903 0.950 . S
C912 C911 1.398 . S
C912 C913 1.391 . S
C913 H901 0.950 . S
C913 C909 1.393 . S
C913 C912 1.391 . S
C914 H904 0.950 . S
C914 C915 1.386 . S
C914 C916 1.391 . S
C915 C914 1.386 . S
C915 C919 1.393 . S
C916 H905 0.950 1_655 S
C916 C914 1.391 . S
C916 C917 1.400 . S
C917 C911 1.491 1_655 S
C917 C916 1.400 . S
C917 C918 1.398 . S
C918 H906 0.950 . S
C918 C917 1.398 . S
C918 C919 1.391 . S
C919 H907 0.950 . S
C919 C915 1.393 . S
C919 C918 1.391 . S
H920 C928 0.950 . S
H921 C933 0.950 . S
H922 C930 0.950 . S
H923 C932 0.950 1_545 S
H924 C934 0.950 . S
H925 C936 0.950 . S
H926 C938 0.950 1_565 S
H927 C939 0.950 . S
C928 H920 0.950 . S
C928 C929 1.386 . S
C928 C930 1.391 . S
C929 C928 1.386 . S
C929 C933 1.393 . S
C930 H922 0.950 . S
C930 C928 1.391 . S
C930 C931 1.400 . S
C931 C930 1.400 . S
C931 C932 1.398 . S
C931 C937 1.491 1_565 S
C932 H923 0.950 1_565 S
C932 C931 1.398 . S
C932 C933 1.391 . S
C933 H921 0.950 . S
C933 C929 1.393 . S
C933 C932 1.391 . S
C934 H924 0.950 . S
C934 C935 1.386 . S
C934 C936 1.391 . S
C935 C934 1.386 . S
C935 C939 1.393 . S
C936 H925 0.950 . S
C936 C934 1.391 . S
C936 C937 1.400 . S
C937 C931 1.491 1_545 S
C937 C936 1.400 . S
C937 C938 1.398 . S
C938 H926 0.950 1_545 S
C938 C937 1.398 . S
C938 C939 1.391 . S
C939 H927 0.950 . S
C939 C935 1.393 . S
C939 C938 1.391 . S
H940 C948 0.950 . S
H941 C953 0.950 . S
H942 C950 0.950 . S
H943 C952 0.950 . S
H944 C954 0.950 . S
H945 C956 0.950 . S
H946 C958 0.950 . S
H947 C959 0.950 . S
C948 H940 0.950 . S
C948 C949 1.386 . S
C948 C950 1.391 . S
C949 C948 1.386 . S
C949 C953 1.393 . S
C950 H942 0.950 . S
C950 C948 1.391 . S
C950 C951 1.400 . S
C951 C950 1.400 . S
C951 C952 1.398 . S
C951 C957 1.491 . S
C952 H943 0.950 . S
C952 C951 1.398 . S
C952 C953 1.391 . S
C953 H941 0.950 . S
C953 C949 1.393 . S
C953 C952 1.391 . S
C954 H944 0.950 . S
C954 C955 1.386 . S
C954 C956 1.391 . S
C955 C954 1.386 . S
C955 C959 1.393 . S
C956 H945 0.950 . S
C956 C954 1.391 . S
C956 C957 1.400 . S
C957 C951 1.491 . S
C957 C956 1.400 . S
C957 C958 1.398 . S
C958 H946 0.950 . S
C958 C957 1.398 . S
C958 C959 1.391 . S
C959 H947 0.950 . S
C959 C955 1.393 . S
C959 C958 1.391 . S
H960 C968 0.950 . S
H961 C973 0.950 . S
H962 C970 0.950 . S
H963 C972 0.950 . S
H964 C974 0.950 . S
H965 C976 0.950 . S
H966 C978 0.950 . S
H967 C979 0.950 . S
C968 H960 0.950 . S
C968 C969 1.386 . S
C968 C970 1.391 . S
C969 C968 1.386 . S
C969 C973 1.393 . S
C970 H962 0.950 . S
C970 C968 1.391 . S
C970 C971 1.400 . S
C971 C970 1.400 . S
C971 C972 1.398 . S
C971 C977 1.491 1_565 S
C972 H963 0.950 . S
C972 C971 1.398 . S
C972 C973 1.391 . S
C973 H961 0.950 . S
C973 C969 1.393 . S
C973 C972 1.391 . S
C974 H964 0.950 . S
C974 C975 1.386 . S
C974 C976 1.391 . S
C975 C974 1.386 . S
C975 C979 1.393 . S
C976 H965 0.950 . S
C976 C974 1.391 . S
C976 C977 1.400 . S
C977 C971 1.491 1_545 S
C977 C976 1.400 . S
C977 C978 1.398 . S
C978 H966 0.950 . S
C978 C977 1.398 . S
C978 C979 1.391 . S
C979 H967 0.950 . S
C979 C975 1.393 . S
C979 C978 1.391 . S
H980 C988 0.950 . S
H981 C993 0.950 . S
H982 C990 0.950 . S
H983 C992 0.950 . S
H984 C994 0.950 . S
H985 C996 0.950 . S
H986 C998 0.950 . S
H987 C999 0.950 . S
C988 H980 0.950 . S
C988 C989 1.386 . S
C988 C990 1.391 . S
C989 C988 1.386 . S
C989 C993 1.393 . S
C990 H982 0.950 . S
C990 C988 1.391 . S
C990 C991 1.400 . S
C991 C990 1.400 . S
C991 C992 1.398 . S
C991 C997 1.491 . S
C992 H983 0.950 . S
C992 C991 1.398 . S
C992 C993 1.391 . S
C993 H981 0.950 . S
C993 C989 1.393 . S
C993 C992 1.391 . S
C994 H984 0.950 . S
C994 C995 1.386 . S
C994 C996 1.391 . S
C995 C994 1.386 . S
C995 C999 1.393 . S
C996 H985 0.950 . S
C996 C994 1.391 . S
C996 C997 1.400 . S
C997 C991 1.491 . S
C997 C996 1.400 . S
C997 C998 1.398 . S
C998 H986 0.950 . S
C998 C997 1.398 . S
C998 C999 1.391 . S
C999 H987 0.950 . S
C999 C995 1.393 . S
C999 C998 1.391 . S
H1000 C1008 0.950 . S
H1001 C1013 0.950 . S
H1002 C1010 0.950 1_455 S
H1003 C1012 0.950 . S
H1004 C1014 0.950 . S
H1005 C1016 0.950 1_655 S
H1006 C1018 0.950 . S
H1007 C1019 0.950 . S
C1008 H1000 0.950 . S
C1008 C1009 1.386 . S
C1008 C1010 1.391 . S
C1009 C1008 1.386 . S
C1009 C1013 1.393 . S
C1010 H1002 0.950 1_655 S
C1010 C1008 1.391 . S
C1010 C1011 1.400 . S
C1011 C1010 1.400 . S
C1011 C1012 1.398 . S
C1011 C1017 1.491 1_655 S
C1012 H1003 0.950 . S
C1012 C1011 1.398 . S
C1012 C1013 1.391 . S
C1013 H1001 0.950 . S
C1013 C1009 1.393 . S
C1013 C1012 1.391 . S
C1014 H1004 0.950 . S
C1014 C1015 1.386 . S
C1014 C1016 1.391 . S
C1015 C1014 1.386 . S
C1015 C1019 1.393 . S
C1016 H1005 0.950 1_455 S
C1016 C1014 1.391 . S
C1016 C1017 1.400 . S
C1017 C1011 1.491 1_455 S
C1017 C1016 1.400 . S
C1017 C1018 1.398 . S
C1018 H1006 0.950 . S
C1018 C1017 1.398 . S
C1018 C1019 1.391 . S
C1019 H1007 0.950 . S
C1019 C1015 1.393 . S
C1019 C1018 1.391 . S
H1020 C1028 0.950 . S
H1021 C1033 0.950 . S
H1022 C1030 0.950 . S
H1023 C1032 0.950 1_565 S
H1024 C1034 0.950 . S
H1025 C1036 0.950 . S
H1026 C1038 0.950 1_545 S
H1027 C1039 0.950 . S
C1028 H1020 0.950 . S
C1028 C1029 1.386 . S
C1028 C1030 1.391 . S
C1029 C1028 1.386 . S
C1029 C1033 1.393 . S
C1030 H1022 0.950 . S
C1030 C1028 1.391 . S
C1030 C1031 1.400 . S
C1031 C1030 1.400 . S
C1031 C1032 1.398 . S
C1031 C1037 1.491 1_545 S
C1032 H1023 0.950 1_545 S
C1032 C1031 1.398 . S
C1032 C1033 1.391 . S
C1033 H1021 0.950 . S
C1033 C1029 1.393 . S
C1033 C1032 1.391 . S
C1034 H1024 0.950 . S
C1034 C1035 1.386 . S
C1034 C1036 1.391 . S
C1035 C1034 1.386 . S
C1035 C1039 1.393 . S
C1036 H1025 0.950 . S
C1036 C1034 1.391 . S
C1036 C1037 1.400 . S
C1037 C1031 1.491 1_565 S
C1037 C1036 1.400 . S
C1037 C1038 1.398 . S
C1038 H1026 0.950 1_565 S
C1038 C1037 1.398 . S
C1038 C1039 1.391 . S
C1039 H1027 0.950 . S
C1039 C1035 1.393 . S
C1039 C1038 1.391 . S
H1040 C1048 0.950 . S
H1041 C1053 0.950 . S
H1042 C1050 0.950 . S
H1043 C1052 0.950 . S
H1044 C1054 0.950 . S
H1045 C1056 0.950 . S
H1046 C1058 0.950 . S
H1047 C1059 0.950 . S
C1048 H1040 0.950 . S
C1048 C1049 1.386 . S
C1048 C1050 1.391 . S
C1049 C1048 1.386 . S
C1049 C1053 1.393 . S
C1050 H1042 0.950 . S
C1050 C1048 1.391 . S
C1050 C1051 1.400 . S
C1051 C1050 1.400 . S
C1051 C1052 1.398 . S
C1051 C1057 1.491 . S
C1052 H1043 0.950 . S
C1052 C1051 1.398 . S
C1052 C1053 1.391 . S
C1053 H1041 0.950 . S
C1053 C1049 1.393 . S
C1053 C1052 1.391 . S
C1054 H1044 0.950 . S
C1054 C1055 1.386 . S
C1054 C1056 1.391 . S
C1055 C1054 1.386 . S
C1055 C1059 1.393 . S
C1056 H1045 0.950 . S
C1056 C1054 1.391 . S
C1056 C1057 1.400 . S
C1057 C1051 1.491 . S
C1057 C1056 1.400 . S
C1057 C1058 1.398 . S
C1058 H1046 0.950 . S
C1058 C1057 1.398 . S
C1058 C1059 1.391 . S
C1059 H1047 0.950 . S
C1059 C1055 1.393 . S
C1059 C1058 1.391 . S
H1060 C1068 0.950 . S
H1061 C1073 0.950 . S
H1062 C1070 0.950 . S
H1063 C1072 0.950 1_655 S
H1064 C1074 0.950 . S
H1065 C1076 0.950 . S
H1066 C1078 0.950 1_455 S
H1067 C1079 0.950 . S
C1068 H1060 0.950 . S
C1068 C1069 1.386 . S
C1068 C1070 1.391 . S
C1069 C1068 1.386 . S
C1069 C1073 1.393 . S
C1070 H1062 0.950 . S
C1070 C1068 1.391 . S
C1070 C1071 1.400 . S
C1071 C1070 1.400 . S
C1071 C1072 1.398 . S
C1071 C1077 1.491 1_455 S
C1072 H1063 0.950 1_455 S
C1072 C1071 1.398 . S
C1072 C1073 1.391 . S
C1073 H1061 0.950 . S
C1073 C1069 1.393 . S
C1073 C1072 1.391 . S
C1074 H1064 0.950 . S
C1074 C1075 1.386 . S
C1074 C1076 1.391 . S
C1075 C1074 1.386 . S
C1075 C1079 1.393 . S
C1076 H1065 0.950 . S
C1076 C1074 1.391 . S
C1076 C1077 1.400 . S
C1077 C1071 1.491 1_655 S
C1077 C1076 1.400 . S
C1077 C1078 1.398 . S
C1078 H1066 0.950 1_655 S
C1078 C1077 1.398 . S
C1078 C1079 1.391 . S
C1079 H1067 0.950 . S
C1079 C1075 1.393 . S
C1079 C1078 1.391 . S
H1080 C1088 0.950 . S
H1081 C1093 0.950 . S
H1082 C1090 0.950 . S
H1083 C1092 0.950 . S
H1084 C1094 0.950 . S
H1085 C1096 0.950 . S
H1086 C1098 0.950 . S
H1087 C1099 0.950 . S
C1088 H1080 0.950 . S
C1088 C1089 1.386 . S
C1088 C1090 1.391 . S
C1089 C1088 1.386 . S
C1089 C1093 1.393 . S
C1090 H1082 0.950 . S
C1090 C1088 1.391 . S
C1090 C1091 1.400 . S
C1091 C1090 1.400 . S
C1091 C1092 1.398 . S
C1091 C1097 1.491 . S
C1092 H1083 0.950 . S
C1092 C1091 1.398 . S
C1092 C1093 1.391 . S
C1093 H1081 0.950 . S
C1093 C1089 1.393 . S
C1093 C1092 1.391 . S
C1094 H1084 0.950 . S
C1094 C1095 1.386 . S
C1094 C1096 1.391 . S
C1095 C1094 1.386 . S
C1095 C1099 1.393 . S
C1096 H1085 0.950 . S
C1096 C1094 1.391 . S
C1096 C1097 1.400 . S
C1097 C1091 1.491 . S
C1097 C1096 1.400 . S
C1097 C1098 1.398 . S
C1098 H1086 0.950 . S
C1098 C1097 1.398 . S
C1098 C1099 1.391 . S
C1099 H1087 0.950 . S
C1099 C1095 1.393 . S
C1099 C1098 1.391 . S
H1100 C1108 0.950 . S
H1101 C1113 0.950 . S
H1102 C1110 0.950 . S
H1103 C1112 0.950 . S
H1104 C1114 0.950 . S
H1105 C1116 0.950 . S
H1106 C1118 0.950 . S
H1107 C1119 0.950 . S
C1108 H1100 0.950 . S
C1108 C1109 1.386 . S
C1108 C1110 1.391 . S
C1109 C1108 1.386 . S
C1109 C1113 1.393 . S
C1110 H1102 0.950 . S
C1110 C1108 1.391 . S
C1110 C1111 1.400 . S
C1111 C1110 1.400 . S
C1111 C1112 1.398 . S
C1111 C1117 1.491 . S
C1112 H1103 0.950 . S
C1112 C1111 1.398 . S
C1112 C1113 1.391 . S
C1113 H1101 0.950 . S
C1113 C1109 1.393 . S
C1113 C1112 1.391 . S
C1114 H1104 0.950 . S
C1114 C1115 1.386 . S
C1114 C1116 1.391 . S
C1115 C1114 1.386 . S
C1115 C1119 1.393 . S
C1116 H1105 0.950 . S
C1116 C1114 1.391 . S
C1116 C1117 1.400 . S
C1117 C1111 1.491 . S
C1117 C1116 1.400 . S
C1117 C1118 1.398 . S
C1118 H1106 0.950 . S
C1118 C1117 1.398 . S
C1118 C1119 1.391 . S
C1119 H1107 0.950 . S
C1119 C1115 1.393 . S
C1119 C1118 1.391 . S
H1120 C1128 0.950 . S
H1121 C1133 0.950 . S
H1122 C1130 0.950 . S
H1123 C1132 0.950 . S
H1124 C1134 0.950 . S
H1125 C1136 0.950 . S
H1126 C1138 0.950 . S
H1127 C1139 0.950 . S
C1128 H1120 0.950 . S
C1128 C1129 1.386 . S
C1128 C1130 1.391 . S
C1129 C1128 1.386 . S
C1129 C1133 1.393 . S
C1130 H1122 0.950 . S
C1130 C1128 1.391 . S
C1130 C1131 1.400 . S
C1131 C1130 1.400 . S
C1131 C1132 1.398 . S
C1131 C1137 1.491 . S
C1132 H1123 0.950 . S
C1132 C1131 1.398 . S
C1132 C1133 1.391 . S
C1133 H1121 0.950 . S
C1133 C1129 1.393 . S
C1133 C1132 1.391 . S
C1134 H1124 0.950 . S
C1134 C1135 1.386 . S
C1134 C1136 1.391 . S
C1135 C1134 1.386 . S
C1135 C1139 1.393 . S
C1136 H1125 0.950 . S
C1136 C1134 1.391 . S
C1136 C1137 1.400 . S
C1137 C1131 1.491 . S
C1137 C1136 1.400 . S
C1137 C1138 1.398 . S
C1138 H1126 0.950 . S
C1138 C1137 1.398 . S
C1138 C1139 1.391 . S
C1139 H1127 0.950 . S
C1139 C1135 1.393 . S
C1139 C1138 1.391 . S
H1140 C1148 0.950 . S
H1141 C1153 0.950 . S
H1142 C1150 0.950 . S
H1143 C1152 0.950 . S
H1144 C1154 0.950 . S
H1145 C1156 0.950 . S
H1146 C1158 0.950 . S
H1147 C1159 0.950 . S
C1148 H1140 0.950 . S
C1148 C1149 1.386 . S
C1148 C1150 1.391 . S
C1149 C1148 1.386 . S
C1149 C1153 1.393 . S
C1150 H1142 0.950 . S
C1150 C1148 1.391 . S
C1150 C1151 1.400 . S
C1151 C1150 1.400 . S
C1151 C1152 1.398 . S
C1151 C1157 1.491 . S
C1152 H1143 0.950 . S
C1152 C1151 1.398 . S
C1152 C1153 1.391 . S
C1153 H1141 0.950 . S
C1153 C1149 1.393 . S
C1153 C1152 1.391 . S
C1154 H1144 0.950 . S
C1154 C1155 1.386 . S
C1154 C1156 1.391 . S
C1155 C1154 1.386 . S
C1155 C1159 1.393 . S
C1156 H1145 0.950 . S
C1156 C1154 1.391 . S
C1156 C1157 1.400 . S
C1157 C1151 1.491 . S
C1157 C1156 1.400 . S
C1157 C1158 1.398 . S
C1158 H1146 0.950 . S
C1158 C1157 1.398 . S
C1158 C1159 1.391 . S
C1159 H1147 0.950 . S
C1159 C1155 1.393 . S
C1159 C1158 1.391 . S
H1160 C1168 0.950 . S
H1161 C1173 0.950 . S
H1162 C1170 0.950 . S
H1163 C1172 0.950 . S
H1164 C1174 0.950 . S
H1165 C1176 0.950 . S
H1166 C1178 0.950 . S
H1167 C1179 0.950 . S
C1168 H1160 0.950 . S
C1168 C1169 1.386 . S
C1168 C1170 1.391 . S
C1169 C1168 1.386 . S
C1169 C1173 1.393 . S
C1170 H1162 0.950 . S
C1170 C1168 1.391 . S
C1170 C1171 1.400 . S
C1171 C1170 1.400 . S
C1171 C1172 1.398 . S
C1171 C1177 1.491 . S
C1172 H1163 0.950 . S
C1172 C1171 1.398 . S
C1172 C1173 1.391 . S
C1173 H1161 0.950 . S
C1173 C1169 1.393 . S
C1173 C1172 1.391 . S
C1174 H1164 0.950 . S
C1174 C1175 1.386 . S
C1174 C1176 1.391 . S
C1175 C1174 1.386 . S
C1175 C1179 1.393 . S
C1176 H1165 0.950 . S
C1176 C1174 1.391 . S
C1176 C1177 1.400 . S
C1177 C1171 1.491 . S
C1177 C1176 1.400 . S
C1177 C1178 1.398 . S
C1178 H1166 0.950 . S
C1178 C1177 1.398 . S
C1178 C1179 1.391 . S
C1179 H1167 0.950 . S
C1179 C1175 1.393 . S
C1179 C1178 1.391 . S
H1180 C1188 0.950 . S
H1181 C1193 0.950 . S
H1182 C1190 0.950 . S
H1183 C1192 0.950 . S
H1184 C1194 0.950 . S
H1185 C1196 0.950 . S
H1186 C1198 0.950 . S
H1187 C1199 0.950 . S
C1188 H1180 0.950 . S
C1188 C1189 1.386 . S
C1188 C1190 1.391 . S
C1189 C1188 1.386 . S
C1189 C1193 1.393 . S
C1190 H1182 0.950 . S
C1190 C1188 1.391 . S
C1190 C1191 1.400 . S
C1191 C1190 1.400 . S
C1191 C1192 1.398 . S
C1191 C1197 1.491 . S
C1192 H1183 0.950 . S
C1192 C1191 1.398 . S
C1192 C1193 1.391 . S
C1193 H1181 0.950 . S
C1193 C1189 1.393 . S
C1193 C1192 1.391 . S
C1194 H1184 0.950 . S
C1194 C1195 1.386 . S
C1194 C1196 1.391 . S
C1195 C1194 1.386 . S
C1195 C1199 1.393 . S
C1196 H1185 0.950 . S
C1196 C1194 1.391 . S
C1196 C1197 1.400 . S
C1197 C1191 1.491 . S
C1197 C1196 1.400 . S
C1197 C1198 1.398 . S
C1198 H1186 0.950 . S
C1198 C1197 1.398 . S
C1198 C1199 1.391 . S
C1199 H1187 0.950 . S
C1199 C1195 1.393 . S
C1199 C1198 1.391 . S
C489 C9 1.073 . S
C495 C329 1.077 . S
C509 C49 1.093 . S
C515 C369 1.074 . S
C529 C89 1.090 . S
C535 C409 1.072 . S
C549 C449 1.074 . S
C555 C129 1.092 . S
C569 C169 1.092 . S
C575 C249 1.100 . S
C589 C289 1.079 . S
C595 C209 1.071 . S
C609 C415 1.540 . S
C615 C15 1.536 . S
C629 C455 1.539 . S
C635 C55 1.529 . S
C649 C95 1.531 . S
C655 C255 1.519 . S
C669 C295 1.526 . S
C675 C135 1.517 . S
C689 C335 1.517 . S
C695 C175 1.519 . S
C709 C215 1.536 . S
C715 C375 1.540 . S
C729 C299 4.240 . S
C735 C19 4.243 . S
C749 C339 4.247 . S
C755 C59 4.247 . S
C769 C379 4.244 . S
C775 C99 4.248 . S
C789 C139 4.241 . S
C795 C419 4.241 . S
C809 C179 4.247 . S
C815 C459 4.247 . S
C829 C219 4.241 . S
C835 C259 4.247 . S
C849 C18 0.558 . S
C855 C138 0.546 . S
C869 C58 0.558 . S
C875 C178 0.526 . S
C889 C98 0.526 . S
C895 C218 0.559 . S
C909 C378 0.466 . S
C915 C258 0.499 . S
C929 C298 0.557 . S
C935 C418 0.520 . S
C949 C458 0.558 . S
C955 C338 0.545 . S
C969 C286 0.681 . S
C975 C6 0.675 . S
C989 C326 0.740 . S
C995 C46 0.724 . S
C1009 C86 0.716 . S
C1015 C366 0.738 . S
C1029 C406 0.709 . S
C1035 C126 0.680 . S
C1049 C446 0.726 . S
C1055 C166 0.740 . S
C1069 C206 0.727 . S
C1075 C246 0.696 . S
C1089 C10 4.751 . S
C1095 C410 4.751 . S
C1109 C50 4.751 . S
C1115 C450 4.752 1_556 S
C1129 C90 4.751 1_554 S
C1135 C250 4.751 . S
C1149 C130 4.752 . S
C1155 C290 4.751 . S
C1169 C170 4.751 . S
C1175 C330 4.752 1_556 S
C1189 C370 4.751 . S
C1195 C210 4.752 1_554 S
