# Generated by pormake.
# Topology wjh, (4)-cn, num edge types: 1
# Building blocks:
#     Node 0, Type 0, BuildingBlock: AZAVOO_clean_sbu_0, # of connection points: 4
#     Node 1, Type 0, BuildingBlock: AZAVOO_clean_sbu_0, # of connection points: 4
#     Node 2, Type 0, BuildingBlock: AZAVOO_clean_sbu_0, # of connection points: 4
#     Node 3, Type 0, BuildingBlock: AZAVOO_clean_sbu_0, # of connection points: 4
#     Node 4, Type 0, BuildingBlock: AZAVOO_clean_sbu_0, # of connection points: 4
#     Node 5, Type 0, BuildingBlock: AZAVOO_clean_sbu_0, # of connection points: 4
#     Node 6, Type 0, BuildingBlock: AZAVOO_clean_sbu_0, # of connection points: 4
#     Node 7, Type 0, BuildingBlock: AZAVOO_clean_sbu_0, # of connection points: 4
#     Node 8, Type 0, BuildingBlock: AZAVOO_clean_sbu_0, # of connection points: 4
#     Node 9, Type 0, BuildingBlock: AZAVOO_clean_sbu_0, # of connection points: 4
#     Node 10, Type 0, BuildingBlock: AZAVOO_clean_sbu_0, # of connection points: 4
#     Node 11, Type 0, BuildingBlock: AZAVOO_clean_sbu_0, # of connection points: 4
#     Edge 12, Type (0, 0), BuildingBlock: ZUJKAS_clean_linker_0, # of connection points: 2
#     Edge 13, Type (0, 0), BuildingBlock: ZUJKAS_clean_linker_0, # of connection points: 2
#     Edge 14, Type (0, 0), BuildingBlock: ZUJKAS_clean_linker_0, # of connection points: 2
#     Edge 15, Type (0, 0), BuildingBlock: ZUJKAS_clean_linker_0, # of connection points: 2
#     Edge 16, Type (0, 0), BuildingBlock: ZUJKAS_clean_linker_0, # of connection points: 2
#     Edge 17, Type (0, 0), BuildingBlock: ZUJKAS_clean_linker_0, # of connection points: 2
#     Edge 18, Type (0, 0), BuildingBlock: ZUJKAS_clean_linker_0, # of connection points: 2
#     Edge 19, Type (0, 0), BuildingBlock: ZUJKAS_clean_linker_0, # of connection points: 2
#     Edge 20, Type (0, 0), BuildingBlock: ZUJKAS_clean_linker_0, # of connection points: 2
#     Edge 21, Type (0, 0), BuildingBlock: ZUJKAS_clean_linker_0, # of connection points: 2
#     Edge 22, Type (0, 0), BuildingBlock: ZUJKAS_clean_linker_0, # of connection points: 2
#     Edge 23, Type (0, 0), BuildingBlock: ZUJKAS_clean_linker_0, # of connection points: 2
#     Edge 24, Type (0, 0), BuildingBlock: ZUJKAS_clean_linker_0, # of connection points: 2
#     Edge 25, Type (0, 0), BuildingBlock: ZUJKAS_clean_linker_0, # of connection points: 2
#     Edge 26, Type (0, 0), BuildingBlock: ZUJKAS_clean_linker_0, # of connection points: 2
#     Edge 27, Type (0, 0), BuildingBlock: ZUJKAS_clean_linker_0, # of connection points: 2
#     Edge 28, Type (0, 0), BuildingBlock: ZUJKAS_clean_linker_0, # of connection points: 2
#     Edge 29, Type (0, 0), BuildingBlock: ZUJKAS_clean_linker_0, # of connection points: 2
#     Edge 30, Type (0, 0), BuildingBlock: ZUJKAS_clean_linker_0, # of connection points: 2
#     Edge 31, Type (0, 0), BuildingBlock: ZUJKAS_clean_linker_0, # of connection points: 2
#     Edge 32, Type (0, 0), BuildingBlock: ZUJKAS_clean_linker_0, # of connection points: 2
#     Edge 33, Type (0, 0), BuildingBlock: ZUJKAS_clean_linker_0, # of connection points: 2
#     Edge 34, Type (0, 0), BuildingBlock: ZUJKAS_clean_linker_0, # of connection points: 2
#     Edge 35, Type (0, 0), BuildingBlock: ZUJKAS_clean_linker_0, # of connection points: 2
# Relax obj value: 0.169
# Max RMSD: 0.148
# Mean RMSD: 0.148
data_MOF--net-wjh--node1-AZAVOO_clean_sbu_0--edge1-ZUJKAS_clean_linker_0
_symmetry_space_group_name_H-M    P1
_symmetry_Int_Tables_number       1
_symmetry_cell_setting            triclinic
loop_
_symmetry_equiv_pos_as_xyz
'x, y, z'
_cell_length_a     81.422351
_cell_length_b     81.405558
_cell_length_c     30.826235
_cell_angle_alpha  90.019685
_cell_angle_beta   89.931271
_cell_angle_gamma 120.02527
loop_
_atom_site_label
_atom_site_type_symbol
_atom_site_fract_x
_atom_site_fract_y
_atom_site_fract_z
_atom_type_partial_charge
Mg0 Mg 0.48407 0.12248 0.06222 0.0
O1 O 0.49778 0.11564 0.11926 0.0
O2 O 0.50162 0.09135 0.09987 0.0
Mg3 Mg 0.48998 0.08249 0.03114 0.0
C4 C 0.50336 0.10384 0.12741 0.0
C5 C 0.49452 0.1643 0.06944 0.0
O6 O 0.49324 0.16199 0.02714 0.0
O7 O 0.512 0.13614 0.02585 0.0
O8 O 0.51399 0.11094 0.0048 0.0
O9 O 0.45504 0.10207 0.08618 0.0
O10 O 0.47132 0.09461 0.04076 0.0
C11 C 0.52045 0.12885 0.00552 0.0
C12 C 0.45619 0.08928 0.06351 0.0
O13 O 0.49161 0.15044 0.09351 0.0
Mg14 Mg 0.34483 0.4856 0.21551 0.0
O15 O 0.36845 0.5007 0.26583 0.0
O16 O 0.39452 0.50088 0.24276 0.0
Mg17 Mg 0.38773 0.48666 0.176 0.0
C18 C 0.38569 0.50497 0.27108 0.0
C19 C 0.31926 0.50357 0.23019 0.0
O20 O 0.32094 0.50514 0.18779 0.0
O21 O 0.35858 0.51176 0.17211 0.0
O22 O 0.38406 0.51081 0.14852 0.0
O23 O 0.33697 0.45766 0.24632 0.0
O24 O 0.35741 0.47069 0.19238 0.0
C25 C 0.37363 0.51845 0.1492 0.0
C26 C 0.3492 0.45721 0.22019 0.0
O27 O 0.32747 0.49619 0.25075 0.0
Mg28 Mg 0.86432 0.34668 0.33548 0.0
O29 O 0.8705 0.37102 0.38269 0.0
O30 O 0.89725 0.39694 0.36259 0.0
Mg31 Mg 0.90746 0.38959 0.3005 0.0
C32 C 0.88315 0.38838 0.38826 0.0
C33 C 0.8339 0.32643 0.40622 0.0
O34 O 0.84951 0.33389 0.42945 0.0
O35 O 0.85338 0.3593 0.28495 0.0
O36 O 0.8806 0.3853 0.26641 0.0
O37 O 0.88319 0.33957 0.3742 0.0
O38 O 0.89278 0.35947 0.31883 0.0
C39 C 0.86265 0.37456 0.26309 0.0
C40 C 0.89692 0.35165 0.34989 0.0
O41 O 0.83511 0.32927 0.36553 0.0
Mg42 Mg 0.50062 0.86708 0.5605 0.0
O43 O 0.48566 0.8721 0.61811 0.0
O44 O 0.48182 0.89661 0.60074 0.0
Mg45 Mg 0.49446 0.90733 0.53355 0.0
C46 C 0.47976 0.88361 0.62706 0.0
C47 C 0.49394 0.82709 0.5591 0.0
O48 O 0.49825 0.83279 0.51868 0.0
O49 O 0.47322 0.85389 0.52208 0.0
O50 O 0.47124 0.87938 0.50375 0.0
O51 O 0.52915 0.88733 0.58758 0.0
O52 O 0.51318 0.89538 0.54287 0.0
C53 C 0.46496 0.86151 0.50239 0.0
C54 C 0.52798 0.90047 0.56654 0.0
O55 O 0.49335 0.83832 0.58679 0.0
Mg56 Mg 0.63536 0.50148 0.73873 0.0
O57 O 0.61356 0.4863 0.79322 0.0
O58 O 0.58581 0.48261 0.77096 0.0
Mg59 Mg 0.58994 0.49582 0.70382 0.0
C60 C 0.59595 0.48038 0.79929 0.0
C61 C 0.66245 0.49849 0.8071 0.0
O62 O 0.65801 0.50921 0.83045 0.0
O63 O 0.62234 0.47461 0.6981 0.0
O64 O 0.59523 0.47267 0.67638 0.0
O65 O 0.64274 0.52982 0.7661 0.0
O66 O 0.62041 0.51426 0.71724 0.0
C67 C 0.60686 0.46645 0.67679 0.0
C68 C 0.62923 0.52882 0.74207 0.0
O69 O 0.65531 0.4932 0.7696 0.0
Mg70 Mg 0.11075 0.63397 0.96466 0.0
O71 O 0.10612 0.61614 0.02655 0.0
O72 O 0.07858 0.58922 0.0164 0.0
Mg73 Mg 0.06505 0.59029 0.95249 0.0
C74 C 0.09332 0.59964 0.03913 0.0
C75 C 0.15195 0.65955 0.94411 0.0
O76 O 0.1435 0.65397 0.90629 0.0
O77 O 0.1174 0.61416 0.9268 0.0
O78 O 0.08884 0.58876 0.91546 0.0
O79 O 0.09557 0.64842 0.99187 0.0
O80 O 0.082 0.62123 0.95628 0.0
C81 C 0.10681 0.59791 0.90985 0.0
C82 C 0.08031 0.63405 0.97672 0.0
O83 O 0.14199 0.65339 0.97839 0.0
Mg84 Mg 0.87421 0.50887 0.84616 0.0
O85 O 0.87902 0.49708 0.78215 0.0
O86 O 0.90636 0.49719 0.79067 0.0
Mg87 Mg 0.9194 0.50981 0.85635 0.0
C88 C 0.89175 0.49354 0.7682 0.0
C89 C 0.8326 0.4934 0.86428 0.0
O90 O 0.83998 0.49413 0.90262 0.0
O91 O 0.86674 0.48129 0.87979 0.0
O92 O 0.89494 0.48329 0.88881 0.0
O93 O 0.88976 0.53899 0.82307 0.0
O94 O 0.903 0.52449 0.85627 0.0
C95 C 0.87695 0.47467 0.89403 0.0
C96 C 0.90488 0.53957 0.83815 0.0
O97 O 0.84331 0.4982 0.83111 0.0
Mg98 Mg 0.34675 0.85942 0.08766 0.0
O99 O 0.36877 0.86615 0.03376 0.0
O100 O 0.39588 0.89181 0.05328 0.0
Mg101 Mg 0.39132 0.90119 0.11984 0.0
C102 C 0.38608 0.87854 0.02638 0.0
C103 C 0.32429 0.82736 0.0182 0.0
O104 O 0.33253 0.84154 0.99067 0.0
O105 O 0.36104 0.84723 0.12947 0.0
O106 O 0.38746 0.87359 0.14938 0.0
O107 O 0.33817 0.87912 0.05785 0.0
O108 O 0.36071 0.88752 0.10694 0.0
C109 C 0.37661 0.85558 0.15044 0.0
C110 C 0.35144 0.89234 0.08113 0.0
O111 O 0.32749 0.83049 0.05853 0.0
Mg112 Mg 0.48103 0.35424 0.26329 0.0
O113 O 0.49647 0.37556 0.20809 0.0
O114 O 0.5017 0.40399 0.22969 0.0
Mg115 Mg 0.48971 0.40085 0.29798 0.0
C116 C 0.50305 0.39326 0.20142 0.0
C117 C 0.49081 0.32269 0.25553 0.0
O118 O 0.49036 0.32459 0.29778 0.0
O119 O 0.50844 0.36638 0.30137 0.0
O120 O 0.51288 0.3947 0.32195 0.0
O121 O 0.45311 0.34835 0.23729 0.0
O122 O 0.46983 0.3705 0.28587 0.0
C123 C 0.518 0.38222 0.32074 0.0
C124 C 0.45514 0.36235 0.26119 0.0
O125 O 0.48735 0.3331 0.23093 0.0
Mg126 Mg 0.12422 0.48215 0.47145 0.0
O127 O 0.11642 0.49893 0.4241 0.0
O128 O 0.08913 0.49672 0.44497 0.0
Mg129 Mg 0.08003 0.47926 0.50746 0.0
C130 C 0.10314 0.50275 0.41882 0.0
C131 C 0.16788 0.4988 0.46204 0.0
O132 O 0.16609 0.49416 0.5033 0.0
O133 O 0.13412 0.50584 0.52115 0.0
O134 O 0.10633 0.5029 0.54149 0.0
O135 O 0.10656 0.45582 0.43306 0.0
O136 O 0.09594 0.46508 0.48854 0.0
C137 C 0.12439 0.51101 0.54378 0.0
C138 C 0.09247 0.45332 0.45726 0.0
O139 O 0.1533 0.49571 0.44062 0.0
Mg140 Mg 0.63536 0.13149 0.59253 0.0
O141 O 0.61381 0.12382 0.53691 0.0
O142 O 0.58651 0.09887 0.55856 0.0
Mg143 Mg 0.59036 0.09076 0.62702 0.0
C144 C 0.59646 0.11134 0.53017 0.0
C145 C 0.66438 0.17429 0.58339 0.0
O146 O 0.66124 0.17305 0.62541 0.0
O147 O 0.62101 0.14478 0.63064 0.0
O148 O 0.59441 0.11906 0.65262 0.0
O149 O 0.6439 0.1111 0.56729 0.0
O150 O 0.62099 0.10375 0.615 0.0
C151 C 0.60542 0.13704 0.65165 0.0
C152 C 0.63037 0.09837 0.59099 0.0
O153 O 0.65542 0.15953 0.56014 0.0
Mg154 Mg 0.49766 0.6284 0.74025 0.0
O155 O 0.48427 0.60829 0.68215 0.0
O156 O 0.48016 0.57998 0.70102 0.0
Mg157 Mg 0.49108 0.58203 0.77016 0.0
C158 C 0.47872 0.59093 0.67354 0.0
C159 C 0.50433 0.66475 0.69375 0.0
O160 O 0.52161 0.66737 0.69446 0.0
O161 O 0.46936 0.6141 0.77556 0.0
O162 O 0.4672 0.58674 0.79575 0.0
O163 O 0.52688 0.63666 0.71757 0.0
O164 O 0.50989 0.61279 0.76196 0.0
C165 C 0.46078 0.59821 0.79531 0.0
C166 C 0.52528 0.62252 0.74009 0.0
O167 O 0.49085 0.6496 0.70967 0.0
H168 H 0.51387 0.07916 0.15994 0.0
H169 H 0.52965 0.08129 0.22874 0.0
H170 H 0.53011 0.13326 0.25888 0.0
H171 H 0.51397 0.13107 0.19049 0.0
H172 H 0.56426 0.10895 0.25743 0.0
H173 H 0.5075 0.10229 0.36836 0.0
H174 H 0.50355 0.097 0.3112 0.0
H175 H 0.51509 0.1212 0.32965 0.0
C176 C 0.5172 0.091 0.18126 0.0
C177 C 0.51255 0.1049 0.16969 0.0
C178 C 0.52626 0.0922 0.22058 0.0
C179 C 0.53085 0.1073 0.2492 0.0
C180 C 0.52634 0.12126 0.23773 0.0
H181 H 0.61104 0.13762 0.46439 0.0
H182 H 0.59565 0.13738 0.39602 0.0
C183 C 0.51718 0.12003 0.19848 0.0
C184 C 0.54077 0.10859 0.29051 0.0
H185 H 0.53695 0.11004 0.40058 0.0
C186 C 0.55829 0.10918 0.28876 0.0
C187 C 0.53286 0.10868 0.33134 0.0
C188 C 0.51364 0.10708 0.33545 0.0
C189 C 0.56815 0.1099 0.32672 0.0
C190 C 0.56045 0.11044 0.36751 0.0
C191 C 0.54291 0.10981 0.36926 0.0
C192 C 0.56993 0.11082 0.40889 0.0
C193 C 0.58645 0.10954 0.32279 0.0
C194 C 0.56042 0.09622 0.43927 0.0
C195 C 0.56907 0.09641 0.47849 0.0
C196 C 0.58746 0.11123 0.48826 0.0
C197 C 0.59694 0.12591 0.45781 0.0
C198 C 0.58821 0.12575 0.41859 0.0
H199 H 0.58784 0.10426 0.29054 0.0
H200 H 0.59859 0.12416 0.32683 0.0
H201 H 0.58744 0.10044 0.34828 0.0
H202 H 0.54629 0.08458 0.4325 0.0
H203 H 0.56131 0.08486 0.50107 0.0
H204 H 0.37288 0.51896 0.33549 0.0
H205 H 0.38925 0.53502 0.40214 0.0
H206 H 0.43712 0.52901 0.36561 0.0
H207 H 0.42105 0.51326 0.29845 0.0
H208 H 0.40124 0.52162 0.46835 0.0
H209 H 0.46249 0.58499 0.39572 0.0
H210 H 0.44168 0.56914 0.36482 0.0
H211 H 0.45966 0.56302 0.37567 0.0
C212 C 0.38694 0.52114 0.34142 0.0
C213 C 0.39567 0.51487 0.31142 0.0
C214 C 0.39628 0.53033 0.37958 0.0
C215 C 0.41453 0.53349 0.38854 0.0
C216 C 0.42324 0.52714 0.35888 0.0
H217 H 0.46795 0.55568 0.64095 0.0
H218 H 0.4525 0.54225 0.57179 0.0
C219 C 0.41396 0.51802 0.32059 0.0
C220 C 0.42411 0.54276 0.42972 0.0
H221 H 0.46444 0.58004 0.47133 0.0
C222 C 0.41502 0.53445 0.469 0.0
C223 C 0.44197 0.55965 0.43052 0.0
C224 C 0.45196 0.56985 0.38944 0.0
C225 C 0.42345 0.54232 0.50908 0.0
C226 C 0.44166 0.55875 0.50989 0.0
C227 C 0.45058 0.56732 0.47063 0.0
C228 C 0.45166 0.56722 0.5512 0.0
C229 C 0.41265 0.5331 0.55016 0.0
C230 C 0.45694 0.58598 0.56195 0.0
C231 C 0.46596 0.59382 0.60141 0.0
C232 C 0.46991 0.58302 0.63082 0.0
C233 C 0.46497 0.56436 0.61937 0.0
C234 C 0.45604 0.5566 0.5799 0.0
H235 H 0.39717 0.52421 0.54403 0.0
H236 H 0.41771 0.52376 0.56353 0.0
H237 H 0.41492 0.5439 0.57506 0.0
H238 H 0.4538 0.59447 0.5401 0.0
H239 H 0.4696 0.60823 0.60906 0.0
H240 H 0.86097 0.47941 0.71331 0.0
H241 H 0.85599 0.46079 0.647 0.0
H242 H 0.91147 0.46701 0.66133 0.0
H243 H 0.9166 0.48545 0.72722 0.0
H244 H 0.87824 0.46988 0.56807 0.0
H245 H 0.87481 0.40886 0.65618 0.0
H246 H 0.87224 0.42716 0.68308 0.0
H247 H 0.89541 0.43121 0.669 0.0
C248 C 0.87217 0.47695 0.70216 0.0
C249 C 0.88912 0.4838 0.72592 0.0
C250 C 0.86928 0.46628 0.66433 0.0
C251 C 0.88322 0.46223 0.64985 0.0
C252 C 0.90039 0.46966 0.6725 0.0
H253 H 0.90696 0.42552 0.41024 0.0
H254 H 0.90459 0.44274 0.47246 0.0
C255 C 0.9033 0.48029 0.71012 0.0
C256 C 0.87996 0.45007 0.6114 0.0
H257 H 0.87901 0.40946 0.57942 0.0
C258 C 0.87818 0.45656 0.5705 0.0
C259 C 0.87958 0.43255 0.6148 0.0
C260 C 0.88042 0.4244 0.65816 0.0
C261 C 0.87693 0.44639 0.53262 0.0
C262 C 0.87773 0.42945 0.53584 0.0
C263 C 0.8786 0.42254 0.57694 0.0
C264 C 0.87855 0.41912 0.49702 0.0
C265 C 0.87486 0.45392 0.4895 0.0
C266 C 0.86493 0.39996 0.49068 0.0
C267 C 0.86631 0.38998 0.45523 0.0
C268 C 0.88144 0.39895 0.42561 0.0
C269 C 0.89507 0.41816 0.4322 0.0
C270 C 0.89366 0.4281 0.46761 0.0
H271 H 0.86876 0.46336 0.49339 0.0
H272 H 0.88906 0.46233 0.47431 0.0
H273 H 0.86569 0.44217 0.46713 0.0
H274 H 0.85325 0.39272 0.51325 0.0
H275 H 0.85558 0.3752 0.45125 0.0
H276 H 0.46931 0.85584 0.68896 0.0
H277 H 0.45211 0.85242 0.75666 0.0
H278 H 0.45103 0.9037 0.72786 0.0
H279 H 0.46786 0.9071 0.66003 0.0
H280 H 0.46183 0.87635 0.82687 0.0
H281 H 0.39549 0.86619 0.75253 0.0
H282 H 0.4135 0.8646 0.72167 0.0
H283 H 0.41611 0.88739 0.73412 0.0
C284 C 0.46539 0.86638 0.69696 0.0
C285 C 0.46987 0.88167 0.66882 0.0
C286 C 0.45555 0.86438 0.73566 0.0
C287 C 0.44996 0.87759 0.74684 0.0
C288 C 0.45477 0.89307 0.71932 0.0
H289 H 0.42141 0.90402 0.99585 0.0
H290 H 0.43638 0.90231 0.92873 0.0
C291 C 0.46452 0.89504 0.68064 0.0
C292 C 0.43953 0.87554 0.78779 0.0
H293 H 0.39944 0.87334 0.82838 0.0
C294 C 0.44811 0.87551 0.82723 0.0
C295 C 0.42149 0.87413 0.78817 0.0
C296 C 0.411 0.87287 0.74684 0.0
C297 C 0.43943 0.87481 0.86711 0.0
C298 C 0.4219 0.8745 0.8675 0.0
C299 C 0.413 0.87382 0.82804 0.0
C300 C 0.41277 0.87536 0.90843 0.0
C301 C 0.44911 0.87433 0.90842 0.0
C302 C 0.39426 0.86105 0.91871 0.0
C303 C 0.38554 0.86206 0.95694 0.0
C304 C 0.39515 0.87747 0.98555 0.0
C305 C 0.41363 0.89187 0.97483 0.0
C306 C 0.42229 0.89086 0.93657 0.0
H307 H 0.45897 0.86885 0.90259 0.0
H308 H 0.45753 0.88894 0.92144 0.0
H309 H 0.4386 0.86534 0.93341 0.0
H310 H 0.38661 0.84903 0.89725 0.0
H311 H 0.3713 0.85073 0.96411 0.0
H312 H 0.50305 0.37505 0.1265 0.0
H313 H 0.5194 0.38948 0.05842 0.0
H314 H 0.54221 0.44513 0.11514 0.0
H315 H 0.52548 0.43091 0.18266 0.0
H316 H 0.52881 0.44433 0.03669 0.0
H317 H 0.57473 0.41213 0.02962 0.0
H318 H 0.54998 0.39478 0.03306 0.0
H319 H 0.56137 0.41092 0.07745 0.0
C320 C 0.5116 0.39036 0.12452 0.0
C321 C 0.51296 0.40181 0.16007 0.0
C322 C 0.52106 0.39858 0.08567 0.0
C323 C 0.53234 0.41838 0.08191 0.0
C324 C 0.53366 0.42982 0.11732 0.0
H325 H 0.61327 0.47948 0.87484 0.0
H326 H 0.59802 0.46464 0.94368 0.0
C327 C 0.52405 0.42165 0.15592 0.0
C328 C 0.54223 0.42733 0.04069 0.0
H329 H 0.57368 0.42821 0.96597 0.0
C330 C 0.53869 0.44086 0.02135 0.0
C331 C 0.55536 0.42303 0.02101 0.0
C332 C 0.56075 0.40957 0.04156 0.0
C333 C 0.54769 0.45003 0.98267 0.0
C334 C 0.56015 0.44511 0.96197 0.0
C335 C 0.56395 0.4318 0.98161 0.0
C336 C 0.56938 0.45364 0.91994 0.0
C337 C 0.54402 0.46518 0.96493 0.0
C338 C 0.55836 0.45204 0.88353 0.0
C339 C 0.56701 0.46066 0.84439 0.0
C340 C 0.5869 0.47079 0.84058 0.0
C341 C 0.59793 0.47183 0.8767 0.0
C342 C 0.58924 0.46335 0.91605 0.0
H343 H 0.53905 0.47123 0.9907 0.0
H344 H 0.55697 0.47691 0.9498 0.0
H345 H 0.53275 0.45886 0.93988 0.0
H346 H 0.54302 0.44415 0.8854 0.0
H347 H 0.55807 0.45933 0.81707 0.0
H348 H 0.07742 0.51358 0.39589 0.0
H349 H 0.07839 0.53215 0.3327 0.0
H350 H 0.13161 0.53734 0.29336 0.0
H351 H 0.13074 0.51859 0.35621 0.0
H352 H 0.10617 0.56934 0.30678 0.0
H353 H 0.09736 0.51472 0.18609 0.0
H354 H 0.09278 0.50954 0.2432 0.0
H355 H 0.11674 0.5219 0.22333 0.0
C356 C 0.08936 0.51865 0.37388 0.0
C357 C 0.10393 0.51444 0.38105 0.0
C358 C 0.0899 0.52932 0.33784 0.0
C359 C 0.10495 0.53593 0.30814 0.0
C360 C 0.11972 0.53211 0.31555 0.0
H361 H 0.1237 0.61551 0.09527 0.0
H362 H 0.12784 0.60133 0.16158 0.0
C363 C 0.1192 0.52143 0.3516 0.0
C364 C 0.10493 0.54649 0.26903 0.0
H365 H 0.1017 0.54365 0.1586 0.0
C366 C 0.1053 0.56381 0.27433 0.0
C367 C 0.10363 0.53912 0.22682 0.0
C368 C 0.10244 0.52023 0.21929 0.0
C369 C 0.10425 0.5739 0.23847 0.0
C370 C 0.10298 0.56652 0.19629 0.0
C371 C 0.10281 0.54931 0.19101 0.0
C372 C 0.10048 0.57569 0.1573 0.0
C373 C 0.10387 0.59202 0.246 0.0
C374 C 0.08382 0.56593 0.13287 0.0
C375 C 0.08143 0.57391 0.09507 0.0
C376 C 0.09572 0.59184 0.08065 0.0
C377 C 0.11237 0.60172 0.1055 0.0
C378 C 0.11475 0.59368 0.14347 0.0
H379 H 0.10132 0.59384 0.28062 0.0
H380 H 0.11772 0.60428 0.23628 0.0
H381 H 0.09267 0.59228 0.22599 0.0
H382 H 0.07264 0.55203 0.14298 0.0
H383 H 0.0684 0.56585 0.07694 0.0
H384 H 0.49745 0.29746 0.29932 0.0
H385 H 0.50223 0.27248 0.26858 0.0
H386 H 0.49753 0.29012 0.13951 0.0
H387 H 0.49289 0.31525 0.16984 0.0
H388 H 0.47551 0.24333 0.21494 0.0
H389 H 0.54523 0.2847 0.13263 0.0
H390 H 0.5372 0.29474 0.17416 0.0
H391 H 0.5283 0.29198 0.11976 0.0
C392 C 0.49763 0.29617 0.26438 0.0
C393 C 0.49472 0.30828 0.23699 0.0
C394 C 0.5004 0.28192 0.24692 0.0
C395 C 0.50046 0.27965 0.20185 0.0
C396 C 0.4979 0.29191 0.17438 0.0
H397 H 0.49656 0.19498 0.02822 0.0
H398 H 0.49941 0.22354 0.06176 0.0
C399 C 0.4951 0.30615 0.19179 0.0
C400 C 0.50157 0.26347 0.18368 0.0
H401 H 0.52733 0.25171 0.11621 0.0
C402 C 0.48692 0.24512 0.1937 0.0
C403 C 0.51643 0.26596 0.15579 0.0
C404 C 0.53279 0.2854 0.14515 0.0
C405 C 0.48647 0.22911 0.17566 0.0
C406 C 0.50129 0.23158 0.14762 0.0
C407 C 0.51604 0.24993 0.13784 0.0
C408 C 0.50136 0.21519 0.12732 0.0
C409 C 0.4698 0.20975 0.1857 0.0
C410 C 0.50207 0.20137 0.15308 0.0
C411 C 0.50031 0.18501 0.13412 0.0
C412 C 0.49799 0.1823 0.089 0.0
C413 C 0.49821 0.19661 0.06308 0.0
C414 C 0.49988 0.21294 0.08214 0.0
H415 H 0.45757 0.21064 0.19893 0.0
H416 H 0.46508 0.20069 0.15624 0.0
H417 H 0.47409 0.2027 0.21036 0.0
H418 H 0.50359 0.20308 0.18795 0.0
H419 H 0.50042 0.17434 0.15492 0.0
H420 H 0.31148 0.50048 0.31697 0.0
H421 H 0.28842 0.50635 0.35424 0.0
H422 H 0.2761 0.52507 0.23406 0.0
H423 H 0.29898 0.519 0.19621 0.0
H424 H 0.28392 0.53922 0.36164 0.0
H425 H 0.22497 0.47919 0.2725 0.0
H426 H 0.24872 0.48284 0.27341 0.0
H427 H 0.24322 0.4974 0.23958 0.0
C428 C 0.304 0.50601 0.29847 0.0
C429 C 0.30683 0.50899 0.25349 0.0
C430 C 0.29091 0.50944 0.31988 0.0
C431 C 0.28043 0.51588 0.29672 0.0
C432 C 0.2839 0.51983 0.2523 0.0
H433 H 0.17693 0.51285 0.37975 0.0
H434 H 0.20587 0.52103 0.33949 0.0
C435 C 0.29697 0.51637 0.23078 0.0
C436 C 0.26487 0.51699 0.31857 0.0
H437 H 0.21665 0.49517 0.32338 0.0
C438 C 0.2692 0.52974 0.35313 0.0
C439 C 0.24572 0.50455 0.3073 0.0
C440 C 0.24027 0.4901 0.27142 0.0
C441 C 0.25477 0.53023 0.37708 0.0
C442 C 0.23562 0.51741 0.36654 0.0
C443 C 0.23136 0.50504 0.33125 0.0
C444 C 0.21962 0.51555 0.39303 0.0
C445 C 0.26016 0.54443 0.41339 0.0
C446 C 0.21791 0.51007 0.43672 0.0
C447 C 0.2014 0.50544 0.45991 0.0
C448 C 0.18623 0.50595 0.43953 0.0
C449 C 0.18831 0.51217 0.39628 0.0
C450 C 0.20485 0.51691 0.37325 0.0
H451 H 0.2746 0.55682 0.40848 0.0
H452 H 0.2499 0.54958 0.41627 0.0
H453 H 0.2602 0.53757 0.44446 0.0
H454 H 0.22896 0.5085 0.45233 0.0
H455 H 0.20021 0.50066 0.49315 0.0
H456 H 0.67721 0.18037 0.49968 0.0
H457 H 0.70469 0.20872 0.47032 0.0
H458 H 0.71344 0.23673 0.59383 0.0
H459 H 0.68598 0.20844 0.62372 0.0
H460 H 0.71721 0.25925 0.51003 0.0
H461 H 0.75965 0.22287 0.51865 0.0
H462 H 0.73667 0.21001 0.49349 0.0
H463 H 0.73838 0.2153 0.55036 0.0
C464 C 0.6848 0.19263 0.5205 0.0
C465 C 0.67955 0.19209 0.56419 0.0
C466 C 0.70048 0.20879 0.50365 0.0
C467 C 0.71108 0.22465 0.53011 0.0
C468 C 0.70537 0.22455 0.57304 0.0
H469 H 0.82703 0.31406 0.49013 0.0
H470 H 0.79666 0.29085 0.52214 0.0
C471 C 0.68973 0.20837 0.59003 0.0
C472 C 0.72893 0.24075 0.51389 0.0
H473 H 0.77428 0.25322 0.48644 0.0
C474 C 0.72972 0.25802 0.50487 0.0
C475 C 0.7452 0.23902 0.50781 0.0
C476 C 0.74511 0.22087 0.5183 0.0
C477 C 0.74643 0.27361 0.48896 0.0
C478 C 0.76257 0.27172 0.48198 0.0
C479 C 0.76182 0.25454 0.49179 0.0
C480 C 0.7804 0.28725 0.46391 0.0
C481 C 0.74681 0.29201 0.48004 0.0
C482 C 0.7812 0.29294 0.42068 0.0
C483 C 0.79854 0.3061 0.40217 0.0
C484 C 0.81534 0.31375 0.42666 0.0
C485 C 0.81435 0.30843 0.47039 0.0
C486 C 0.79703 0.2952 0.48876 0.0
H487 H 0.73466 0.29237 0.49545 0.0
H488 H 0.76023 0.30424 0.49198 0.0
H489 H 0.74607 0.29371 0.4445 0.0
H490 H 0.76853 0.28672 0.40085 0.0
H491 H 0.79883 0.30993 0.36842 0.0
H492 H 0.48191 0.80963 0.63792 0.0
H493 H 0.47983 0.77992 0.66136 0.0
H494 H 0.49816 0.77314 0.5346 0.0
H495 H 0.49981 0.8025 0.51057 0.0
H496 H 0.46933 0.73952 0.56787 0.0
H497 H 0.52729 0.77703 0.68798 0.0
H498 H 0.5073 0.78041 0.69529 0.0
H499 H 0.52174 0.78947 0.64743 0.0
C500 C 0.48536 0.80173 0.61496 0.0
C501 C 0.49125 0.8085 0.57256 0.0
C502 C 0.48424 0.78482 0.62845 0.0
C503 C 0.48921 0.77457 0.59994 0.0
C504 C 0.49434 0.78091 0.55713 0.0
H505 H 0.52994 0.69826 0.65625 0.0
H506 H 0.52476 0.72392 0.6326 0.0
C507 C 0.49532 0.79771 0.5435 0.0
C508 C 0.48994 0.75772 0.61497 0.0
H509 H 0.51301 0.74373 0.68498 0.0
C510 C 0.4788 0.74037 0.5936 0.0
C511 C 0.50252 0.75902 0.64818 0.0
C512 C 0.51553 0.7775 0.67085 0.0
C513 C 0.48 0.72426 0.60436 0.0
C514 C 0.49245 0.72554 0.6378 0.0
C515 C 0.50342 0.74283 0.65946 0.0
C516 C 0.495 0.7094 0.6498 0.0
C517 C 0.46842 0.7062 0.57897 0.0
C518 C 0.47992 0.69271 0.6671 0.0
C519 C 0.48281 0.67796 0.6805 0.0
C520 C 0.50088 0.67977 0.67714 0.0
C521 C 0.51587 0.69643 0.6593 0.0
C522 C 0.51295 0.71111 0.64582 0.0
H523 H 0.46301 0.70879 0.54816 0.0
H524 H 0.47694 0.69935 0.57133 0.0
H525 H 0.45604 0.69612 0.59873 0.0
H526 H 0.46604 0.69127 0.67113 0.0
H527 H 0.471 0.66533 0.6943 0.0
H528 H 0.68584 0.51285 0.87774 0.0
H529 H 0.71277 0.50856 0.89579 0.0
H530 H 0.69914 0.47023 0.78775 0.0
H531 H 0.67222 0.47427 0.76963 0.0
H532 H 0.71082 0.45924 0.86666 0.0
H533 H 0.75982 0.53349 0.81318 0.0
H534 H 0.74279 0.53036 0.85428 0.0
H535 H 0.73482 0.52119 0.8007 0.0
C536 C 0.6884 0.50328 0.85827 0.0
C537 C 0.67709 0.49413 0.82188 0.0
C538 C 0.70379 0.50088 0.86857 0.0
C539 C 0.70801 0.48929 0.84269 0.0
C540 C 0.69609 0.47927 0.80799 0.0
H541 H 0.81409 0.49461 0.79147 0.0
H542 H 0.78268 0.49156 0.7877 0.0
C543 C 0.68078 0.48169 0.7976 0.0
C544 C 0.72571 0.4888 0.84903 0.0
H545 H 0.77366 0.51571 0.8366 0.0
C546 C 0.7246 0.47158 0.86047 0.0
C547 C 0.74356 0.50489 0.84015 0.0
C548 C 0.74545 0.52353 0.82607 0.0
C549 C 0.74099 0.47005 0.86321 0.0
C550 C 0.75882 0.48618 0.85442 0.0
C551 C 0.75991 0.50339 0.84326 0.0
C552 C 0.77665 0.48563 0.85609 0.0
C553 C 0.73912 0.45115 0.87433 0.0
C554 C 0.78344 0.483 0.89571 0.0
C555 C 0.80137 0.48475 0.898 0.0
C556 C 0.81281 0.48926 0.86072 0.0
C557 C 0.80564 0.49116 0.82076 0.0
C558 C 0.78772 0.48944 0.81854 0.0
H559 H 0.72425 0.43933 0.87129 0.0
H560 H 0.74833 0.44818 0.85299 0.0
H561 H 0.74375 0.4515 0.90833 0.0
H562 H 0.77519 0.48033 0.92513 0.0
H563 H 0.80649 0.48319 0.92927 0.0
H564 H 0.17359 0.67562 0.0165 0.0
H565 H 0.20643 0.7018 0.01896 0.0
H566 H 0.20914 0.70213 0.87927 0.0
H567 H 0.17635 0.67603 0.87632 0.0
H568 H 0.24207 0.70615 0.97767 0.0
H569 H 0.21904 0.75609 0.91779 0.0
H570 H 0.20252 0.73325 0.94066 0.0
H571 H 0.21183 0.73474 0.88713 0.0
C572 C 0.18123 0.68111 0.98632 0.0
C573 C 0.1723 0.67393 0.94621 0.0
C574 C 0.19998 0.696 0.9878 0.0
C575 C 0.21003 0.70393 0.94927 0.0
C576 C 0.20149 0.69625 0.90928 0.0
H577 H 0.31272 0.81545 0.93485 0.0
H578 H 0.28736 0.78415 0.91165 0.0
C579 C 0.18276 0.68135 0.90773 0.0
C580 C 0.22889 0.72115 0.95105 0.0
H581 H 0.25101 0.76904 0.93653 0.0
C582 C 0.24415 0.7199 0.96827 0.0
C583 C 0.23148 0.73897 0.9383 0.0
C584 C 0.21538 0.74101 0.92013 0.0
C585 C 0.26193 0.7362 0.97419 0.0
C586 C 0.26426 0.75416 0.96358 0.0
C587 C 0.24919 0.75526 0.94457 0.0
C588 C 0.28134 0.7721 0.97624 0.0
C589 C 0.27798 0.73403 0.99213 0.0
C590 C 0.28641 0.77562 0.02013 0.0
C591 C 0.30083 0.79339 0.03343 0.0
C592 C 0.31033 0.80811 0.00314 0.0
C593 C 0.30563 0.80442 0.95897 0.0
C594 C 0.29119 0.78655 0.94565 0.0
H595 H 0.27623 0.71999 0.98355 0.0
H596 H 0.29194 0.74532 0.97989 0.0
H597 H 0.27796 0.73495 0.02804 0.0
H598 H 0.27866 0.76487 0.04446 0.0
H599 H 0.30408 0.79575 0.06771 0.0
H600 H 0.5709 0.12764 0.6849 0.0
H601 H 0.5644 0.14318 0.74411 0.0
H602 H 0.6227 0.18851 0.74278 0.0
H603 H 0.62944 0.17272 0.68334 0.0
H604 H 0.6131 0.17262 0.82029 0.0
H605 H 0.55697 0.18702 0.77063 0.0
H606 H 0.55029 0.1636 0.7526 0.0
H607 H 0.57155 0.18367 0.73136 0.0
C608 C 0.58225 0.1412 0.69626 0.0
C609 C 0.60073 0.14881 0.67985 0.0
C610 C 0.57845 0.15024 0.72986 0.0
C611 C 0.593 0.16717 0.74767 0.0
C612 C 0.61122 0.17555 0.72927 0.0
H613 H 0.5339 0.16605 0.98273 0.0
H614 H 0.55774 0.1841 0.92717 0.0
C615 C 0.61504 0.16651 0.69531 0.0
C616 C 0.58968 0.17356 0.79011 0.0
H617 H 0.55325 0.17322 0.84512 0.0
C618 C 0.60042 0.17352 0.8257 0.0
C619 C 0.57355 0.17542 0.79751 0.0
C620 C 0.56262 0.17766 0.76077 0.0
C621 C 0.59383 0.17238 0.86824 0.0
C622 C 0.57594 0.17085 0.87501 0.0
C623 C 0.56672 0.17383 0.83998 0.0
C624 C 0.56479 0.16217 0.91496 0.0
C625 C 0.60543 0.17143 0.90521 0.0
C626 C 0.56111 0.14402 0.92716 0.0
C627 C 0.54752 0.13368 0.95863 0.0
C628 C 0.53715 0.14119 0.97837 0.0
C629 C 0.54164 0.15984 0.9681 0.0
C630 C 0.55526 0.1702 0.93639 0.0
H631 H 0.62082 0.18071 0.89864 0.0
H632 H 0.60189 0.17577 0.93642 0.0
H633 H 0.6027 0.15669 0.90839 0.0
H634 H 0.56785 0.13727 0.91034 0.0
H635 H 0.5445 0.11941 0.96585 0.0
H636 H 0.44565 0.62097 0.81484 0.0
H637 H 0.42173 0.61502 0.87045 0.0
H638 H 0.41469 0.55957 0.89344 0.0
H639 H 0.43791 0.56508 0.83761 0.0
H640 H 0.38106 0.55981 0.9009 0.0
H641 H 0.43869 0.61895 0.99576 0.0
H642 H 0.43227 0.62409 0.94383 0.0
H643 H 0.4439 0.61031 0.94682 0.0
C644 C 0.43867 0.60734 0.83107 0.0
C645 C 0.444 0.59364 0.82243 0.0
C646 C 0.42508 0.60402 0.86299 0.0
C647 C 0.41676 0.58703 0.88675 0.0
C648 C 0.42097 0.57283 0.87563 0.0
H649 H 0.40724 0.54019 0.10814 0.0
H650 H 0.41359 0.56192 0.04834 0.0
C651 C 0.43439 0.57606 0.84379 0.0
C652 C 0.40554 0.5844 0.92666 0.0
H653 H 0.41319 0.59541 0.03422 0.0
C654 C 0.3877 0.56793 0.93 0.0
C655 C 0.41421 0.59521 0.9644 0.0
C656 C 0.43333 0.61311 0.96292 0.0
C657 C 0.37955 0.56052 0.97061 0.0
C658 C 0.38938 0.57018 0.00862 0.0
C659 C 0.40582 0.58802 0.00493 0.0
C660 C 0.38604 0.5599 0.05025 0.0
C661 C 0.36171 0.54137 0.97252 0.0
C662 C 0.36868 0.55212 0.07251 0.0
C663 C 0.36492 0.53942 0.10686 0.0
C664 C 0.37849 0.53443 0.11923 0.0
C665 C 0.39636 0.54348 0.09904 0.0
C666 C 0.40006 0.55605 0.06495 0.0
H667 H 0.35649 0.53531 0.93976 0.0
H668 H 0.3643 0.53124 0.99126 0.0
H669 H 0.35036 0.5427 0.98924 0.0
H670 H 0.35779 0.55518 0.06214 0.0
H671 H 0.35106 0.53278 0.12204 0.0
H672 H 0.88785 0.44824 0.90388 0.0
H673 H 0.87671 0.42336 0.95902 0.0
H674 H 0.83601 0.43886 0.00365 0.0
H675 H 0.84632 0.4629 0.94697 0.0
H676 H 0.88239 0.43217 0.03858 0.0
H677 H 0.80539 0.38333 0.0221 0.0
H678 H 0.81941 0.39932 0.97915 0.0
H679 H 0.81049 0.40744 0.0228 0.0
C680 C 0.87611 0.44588 0.9246 0.0
C681 C 0.86804 0.45755 0.92146 0.0
C682 C 0.86972 0.43166 0.95603 0.0
C683 C 0.85545 0.42914 0.98552 0.0
C684 C 0.84665 0.4401 0.98072 0.0
H685 H 0.86447 0.40829 0.2513 0.0
H686 H 0.85793 0.41949 0.18344 0.0
C687 C 0.8527 0.454 0.94851 0.0
C688 C 0.85235 0.41776 0.02544 0.0
H689 H 0.81848 0.3858 0.09442 0.0
C690 C 0.86839 0.42178 0.05018 0.0
C691 C 0.83412 0.40414 0.04083 0.0
C692 C 0.81642 0.39817 0.01451 0.0
C693 C 0.86675 0.4131 0.09025 0.0
C694 C 0.8485 0.40054 0.10706 0.0
C695 C 0.83242 0.39582 0.08183 0.0
C696 C 0.84637 0.39239 0.1509 0.0
C697 C 0.88468 0.41757 0.11433 0.0
C698 C 0.84045 0.37308 0.15604 0.0
C699 C 0.84373 0.36656 0.19527 0.0
C700 C 0.85316 0.37938 0.22919 0.0
C701 C 0.8572 0.39821 0.22543 0.0
C702 C 0.85354 0.4046 0.18672 0.0
H703 H 0.89711 0.42312 0.09221 0.0
H704 H 0.8877 0.42861 0.13913 0.0
H705 H 0.88316 0.4048 0.13105 0.0
H706 H 0.83486 0.36347 0.12871 0.0
H707 H 0.84066 0.35201 0.19749 0.0
H708 H 0.44996 0.82384 0.48094 0.0
H709 H 0.42617 0.80627 0.42488 0.0
H710 H 0.41972 0.85509 0.40299 0.0
H711 H 0.44286 0.87243 0.45916 0.0
H712 H 0.38568 0.82096 0.39697 0.0
H713 H 0.44265 0.81966 0.29876 0.0
H714 H 0.43661 0.80817 0.35084 0.0
H715 H 0.44824 0.83358 0.34767 0.0
C716 C 0.44317 0.83068 0.46476 0.0
C717 C 0.44858 0.84969 0.47396 0.0
C718 C 0.42965 0.82063 0.43263 0.0
C719 C 0.42146 0.8295 0.40924 0.0
C720 C 0.42588 0.84796 0.42059 0.0
H721 H 0.41045 0.86756 0.19049 0.0
H722 H 0.41724 0.85203 0.24918 0.0
C723 C 0.43925 0.85793 0.4526 0.0
C724 C 0.41 0.82099 0.36971 0.0
H725 H 0.41703 0.81805 0.2616 0.0
C726 C 0.39214 0.8196 0.36741 0.0
C727 C 0.41844 0.81899 0.3314 0.0
C728 C 0.43755 0.82019 0.33189 0.0
C729 C 0.38374 0.81898 0.32728 0.0
C730 C 0.39336 0.81933 0.28871 0.0
C731 C 0.40982 0.81794 0.29132 0.0
C732 C 0.38975 0.8264 0.24766 0.0
C733 C 0.36586 0.82023 0.32651 0.0
C734 C 0.37226 0.81684 0.22604 0.0
C735 C 0.36823 0.82586 0.19239 0.0
C736 C 0.38168 0.84451 0.18003 0.0
C737 C 0.39966 0.85333 0.19958 0.0
C738 C 0.40362 0.84439 0.23302 0.0
H739 H 0.36083 0.82092 0.35962 0.0
H740 H 0.36832 0.83302 0.30823 0.0
H741 H 0.35443 0.8076 0.30988 0.0
H742 H 0.36148 0.80282 0.23638 0.0
H743 H 0.3543 0.81861 0.17766 0.0
H744 H 0.63291 0.46125 0.63222 0.0
H745 H 0.62647 0.44178 0.56683 0.0
H746 H 0.56639 0.41757 0.58779 0.0
H747 H 0.57266 0.4372 0.65237 0.0
H748 H 0.59185 0.39578 0.53956 0.0
H749 H 0.59207 0.46012 0.47743 0.0
H750 H 0.60643 0.46095 0.52286 0.0
H751 H 0.5814 0.45144 0.52978 0.0
C752 C 0.61833 0.45117 0.62389 0.0
C753 C 0.60325 0.45092 0.64678 0.0
C754 C 0.6147 0.44004 0.58665 0.0
C755 C 0.59598 0.42836 0.57267 0.0
C756 C 0.58092 0.42646 0.59838 0.0
H757 H 0.51831 0.36176 0.38911 0.0
H758 H 0.54314 0.37213 0.44374 0.0
C759 C 0.58452 0.43776 0.63505 0.0
C760 C 0.59196 0.42186 0.52734 0.0
H761 H 0.57684 0.43257 0.43466 0.0
C762 C 0.58898 0.40391 0.51599 0.0
C763 C 0.58874 0.43276 0.49656 0.0
C764 C 0.59242 0.45246 0.50693 0.0
C765 C 0.58149 0.396 0.47515 0.0
C766 C 0.57624 0.40609 0.44608 0.0
C767 C 0.58075 0.42468 0.45658 0.0
C768 C 0.56361 0.39706 0.40816 0.0
C769 C 0.57897 0.37683 0.46415 0.0
C770 C 0.56672 0.40737 0.36941 0.0
C771 C 0.55212 0.4019 0.33923 0.0
C772 C 0.5345 0.38564 0.34653 0.0
C773 C 0.53195 0.37425 0.3828 0.0
C774 C 0.54628 0.38008 0.41379 0.0
H775 H 0.5908 0.37537 0.47776 0.0
H776 H 0.56566 0.3656 0.47913 0.0
H777 H 0.57835 0.37446 0.42857 0.0
H778 H 0.57993 0.42049 0.36414 0.0
H779 H 0.55428 0.41085 0.31131 0.0
H780 H 0.13023 0.54672 0.54087 0.0
H781 H 0.13756 0.56809 0.60292 0.0
H782 H 0.14421 0.52845 0.68364 0.0
H783 H 0.13797 0.50775 0.62099 0.0
H784 H 0.11368 0.55696 0.66508 0.0
H785 H 0.18276 0.57655 0.73879 0.0
H786 H 0.17666 0.56718 0.68441 0.0
H787 H 0.16926 0.55142 0.7305 0.0
C788 C 0.1342 0.54314 0.57146 0.0
C789 C 0.13376 0.52584 0.57649 0.0
C790 C 0.13831 0.55526 0.60689 0.0
C791 C 0.14152 0.54996 0.64804 0.0
C792 C 0.14232 0.53318 0.65218 0.0
H793 H 0.09121 0.56172 0.87899 0.0
H794 H 0.10237 0.55099 0.81759 0.0
C795 C 0.13864 0.52127 0.61646 0.0
C796 C 0.14003 0.55964 0.68735 0.0
H797 H 0.15883 0.57576 0.78795 0.0
C798 C 0.12382 0.56142 0.69148 0.0
C799 C 0.15321 0.56554 0.72193 0.0
C800 C 0.17154 0.56525 0.71845 0.0
C801 C 0.12 0.56815 0.72967 0.0
C802 C 0.1324 0.57266 0.76537 0.0
C803 C 0.14912 0.57182 0.7608 0.0
C804 C 0.12785 0.57807 0.80752 0.0
C805 C 0.10257 0.57022 0.73149 0.0
C806 C 0.13914 0.59647 0.82378 0.0
C807 C 0.13291 0.60261 0.85925 0.0
C808 C 0.11523 0.59042 0.87866 0.0
C809 C 0.10473 0.57154 0.86432 0.0
C810 C 0.11107 0.56539 0.82924 0.0
H811 H 0.09775 0.57139 0.69851 0.0
H812 H 0.09085 0.5575 0.74731 0.0
H813 H 0.10529 0.58291 0.75053 0.0
H814 H 0.1522 0.60641 0.80754 0.0
H815 H 0.14139 0.61722 0.86965 0.0
H816 H 0.45685 0.05855 0.03019 0.0
H817 H 0.43137 0.02578 0.02933 0.0
H818 H 0.39433 0.04186 0.09324 0.0
H819 H 0.42031 0.07483 0.09621 0.0
H820 H 0.3904 0.01156 0.12882 0.0
H821 H 0.38646 -0.00078 0.95311 0.0
H822 H 0.4105 0.00813 0.96973 0.0
H823 H 0.39974 0.02275 0.97584 0.0
C824 C 0.44336 0.05521 0.04418 0.0
C825 C 0.44068 0.06932 0.06347 0.0
C826 C 0.42864 0.03644 0.043 0.0
C827 C 0.41071 0.0314 0.05993 0.0
C828 C 0.40797 0.04544 0.07944 0.0
H829 H 0.33634 0.90808 0.02657 0.0
H830 H 0.34532 0.94168 0.02169 0.0
C831 C 0.42285 0.06425 0.08129 0.0
C832 C 0.39554 0.01119 0.06025 0.0
H833 H 0.37764 0.97111 -0.00138 0.0
C834 C 0.38723 0.00279 0.10008 0.0
C835 C 0.3907 -0.00027 0.0226 0.0
C836 C 0.39718 0.00803 0.9779 0.0
C837 C 0.37586 0.98306 0.10404 0.0
C838 C 0.37338 0.97146 0.0676 0.0
C839 C 0.37997 0.97995 0.0269 0.0
C840 C 0.36657 0.95092 0.07223 0.0
C841 C 0.3672 0.97487 0.14764 0.0
C842 C 0.37567 0.94502 0.10174 0.0
C843 C 0.37051 0.926 0.1048 0.0
C844 C 0.35643 0.91241 0.07763 0.0
C845 C 0.34729 0.91825 0.04786 0.0
C846 C 0.35236 0.9374 0.04511 0.0
H847 H 0.36338 0.98444 0.16507 0.0
H848 H 0.35429 0.96068 0.14449 0.0
H849 H 0.37774 0.97354 0.16786 0.0
H850 H 0.38711 0.95522 0.12197 0.0
H851 H 0.37772 0.92204 0.12844 0.0
H852 H 0.42594 0.35208 0.20378 0.0
H853 H 0.4046 0.36512 0.19871 0.0
H854 H 0.43225 0.40114 0.30883 0.0
H855 H 0.45365 0.38838 0.31399 0.0
H856 H 0.37936 0.36752 0.2624 0.0
H857 H 0.43802 0.43783 0.20923 0.0
H858 H 0.44001 0.41672 0.20872 0.0
H859 H 0.44249 0.4291 0.25873 0.0
C860 C 0.42742 0.36274 0.22697 0.0
C861 C 0.44168 0.36945 0.25881 0.0
C862 C 0.41518 0.37009 0.22414 0.0
C863 C 0.41706 0.38422 0.25308 0.0
C864 C 0.43081 0.39043 0.28582 0.0
H865 H 0.34621 0.4354 0.29099 0.0
H866 H 0.36066 0.41534 0.29923 0.0
C867 C 0.44305 0.38316 0.28859 0.0
C868 C 0.40537 0.39327 0.24781 0.0
H869 H 0.40861 0.43573 0.22481 0.0
C870 C 0.38567 0.38241 0.25405 0.0
C871 C 0.41371 0.41264 0.23654 0.0
C872 C 0.43469 0.42476 0.22751 0.0
C873 C 0.37408 0.39055 0.24974 0.0
C874 C 0.38253 0.41003 0.2394 0.0
C875 C 0.4022 0.4208 0.23295 0.0
C876 C 0.37139 0.41967 0.23343 0.0
C877 C 0.35293 0.37824 0.25548 0.0
C878 C 0.37253 0.42857 0.19374 0.0
C879 C 0.36461 0.44016 0.18923 0.0
C880 C 0.3553 0.44303 0.22429 0.0
C881 C 0.35326 0.43335 0.26343 0.0
C882 C 0.36141 0.42184 0.26809 0.0
H883 H 0.34831 0.3629 0.25345 0.0
H884 H 0.34884 0.381 0.28787 0.0
H885 H 0.3452 0.3816 0.23058 0.0
H886 H 0.38015 0.42706 0.16661 0.0
H887 H 0.36621 0.44728 0.15851 0.0
H888 H 0.07907 0.43151 0.38387 0.0
H889 H 0.04571 0.40998 0.36475 0.0
H890 H 0.02819 0.42096 0.4882 0.0
H891 H 0.06127 0.44229 0.50773 0.0
H892 H 0.01273 0.37624 0.42025 0.0
H893 H 0.00603 0.43955 0.3824 0.0
H894 H 0.02857 0.44028 0.38169 0.0
H895 H 0.01761 0.43994 0.43244 0.0
C896 C 0.06811 0.42911 0.40716 0.0
C897 C 0.07274 0.43883 0.44698 0.0
C898 C 0.04913 0.41679 0.39625 0.0
C899 C 0.03464 0.41405 0.42507 0.0
C900 C 0.03926 0.42301 0.46559 0.0
H901 H 0.91192 0.34573 0.42396 0.0
H902 H 0.94567 0.35892 0.44087 0.0
C903 C 0.05815 0.43528 0.4765 0.0
C904 C 0.01462 0.40336 0.41156 0.0
H905 H 0.97801 0.40977 0.38113 0.0
C906 C 0.00509 0.38347 0.41144 0.0
C907 C 0.00488 0.41298 0.39996 0.0
C908 C 0.01474 0.43437 0.39876 0.0
C909 C 0.98576 0.37288 0.40049 0.0
C910 C 0.97591 0.38253 0.38988 0.0
C911 C 0.98562 0.40243 0.38945 0.0
C912 C 0.95558 0.37249 0.37838 0.0
C913 C 0.97609 0.35152 0.3999 0.0
C914 C 0.95005 0.37575 0.33775 0.0
C915 C 0.93092 0.36844 0.32826 0.0
C916 C 0.91693 0.35778 0.35928 0.0
C917 C 0.92241 0.35389 0.39944 0.0
C918 C 0.94165 0.3613 0.40903 0.0
H919 H 0.9865 0.34648 0.39903 0.0
H920 H 0.96736 0.34581 0.42967 0.0
H921 H 0.96652 0.34565 0.37145 0.0
H922 H 0.9606 0.38437 0.31372 0.0
H923 H 0.92714 0.37147 0.2968 0.0
H924 H 0.52766 0.93114 0.53196 0.0
H925 H 0.55228 0.96419 0.53581 0.0
H926 H 0.58767 0.94875 0.60904 0.0
H927 H 0.56244 0.9154 0.60716 0.0
H928 H 0.58887 0.97854 0.64358 0.0
H929 H 0.60013 0.99206 0.46843 0.0
H930 H 0.57541 0.98233 0.47977 0.0
H931 H 0.58657 0.96834 0.49007 0.0
C932 C 0.54057 0.93467 0.54913 0.0
C933 C 0.543 0.9206 0.56949 0.0
C934 C 0.55483 0.95362 0.55066 0.0
C935 C 0.57208 0.95892 0.57153 0.0
C936 C 0.57456 0.94495 0.59225 0.0
H937 H 0.64689 0.08215 0.54279 0.0
H938 H 0.63778 0.04852 0.54045 0.0
C939 C 0.56012 0.92593 0.59127 0.0
C940 C 0.58678 0.97926 0.57395 0.0
H941 H 0.60671 0.01965 0.51314 0.0
C942 C 0.59316 0.98749 0.61495 0.0
C943 C 0.59302 0.99094 0.53659 0.0
C944 C 0.58858 0.98286 0.49128 0.0
C945 C 0.60405 0.00723 0.61984 0.0
C946 C 0.60802 0.019 0.58296 0.0
C947 C 0.60326 0.01069 0.54163 0.0
C948 C 0.61488 0.03958 0.58687 0.0
C949 C 0.61073 0.01522 0.66468 0.0
C950 C 0.60497 0.0457 0.61337 0.0
C951 C 0.61025 0.0648 0.61512 0.0
C952 C 0.62525 0.07821 0.58946 0.0
C953 C 0.63521 0.07213 0.56281 0.0
C954 C 0.63005 0.05295 0.56152 0.0
H955 H 0.61378 0.0056 0.68426 0.0
H956 H 0.62368 0.02944 0.66355 0.0
H957 H 0.59932 0.01639 0.6816 0.0
H958 H 0.59281 0.03563 0.6321 0.0
H959 H 0.60239 0.06895 0.63638 0.0
H960 H 0.60157 0.52985 0.69485 0.0
H961 H 0.59196 0.55359 0.69654 0.0
H962 H 0.63536 0.58579 0.79118 0.0
H963 H 0.64461 0.56133 0.79116 0.0
H964 H 0.60322 0.58352 0.81406 0.0
H965 H 0.61519 0.60483 0.64273 0.0
H966 H 0.60079 0.57954 0.64521 0.0
H967 H 0.62459 0.59102 0.66677 0.0
C968 C 0.60907 0.54187 0.71626 0.0
C969 C 0.62374 0.54358 0.74321 0.0
C970 C 0.60377 0.55567 0.71657 0.0
C971 C 0.61329 0.57176 0.74301 0.0
C972 C 0.62799 0.57359 0.77007 0.0
H973 H 0.56087 0.64252 0.70487 0.0
H974 H 0.58646 0.63501 0.70949 0.0
C975 C 0.63321 0.5596 0.77012 0.0
C976 C 0.60655 0.58561 0.74453 0.0
H977 H 0.58915 0.60684 0.67832 0.0
C978 C 0.60059 0.58906 0.7845 0.0
C979 C 0.60369 0.59345 0.70626 0.0
C980 C 0.61165 0.59218 0.66298 0.0
C981 C 0.59013 0.59844 0.78661 0.0
C982 C 0.58496 0.60387 0.74761 0.0
C983 C 0.59262 0.60219 0.70817 0.0
C984 C 0.57003 0.60921 0.74648 0.0
C985 C 0.58428 0.60192 0.83056 0.0
C986 C 0.55222 0.59702 0.76491 0.0
C987 C 0.53773 0.60136 0.76271 0.0
C988 C 0.54053 0.61772 0.74099 0.0
C989 C 0.55825 0.62976 0.7217 0.0
C990 C 0.5729 0.62553 0.72446 0.0
H991 H 0.59517 0.6044 0.85538 0.0
H992 H 0.58205 0.61431 0.83016 0.0
H993 H 0.57088 0.58916 0.84066 0.0
H994 H 0.54941 0.58398 0.78064 0.0
H995 H 0.52434 0.5918 0.77805 0.0
H996 H 0.07278 0.66227 0.95886 0.0
H997 H 0.04165 0.65779 0.93825 0.0
H998 H 0.01537 0.59886 0.97506 0.0
H999 H 0.04633 0.6032 0.99469 0.0
H1000 H 0.0225 0.63022 0.87022 0.0
H1001 H 0.97644 0.61489 0.01409 0.0
H1002 H 0.00205 0.62891 0.01687 0.0
H1003 H 0.99037 0.60341 0.01645 0.0
C1004 C 0.06021 0.6486 0.9643 0.0
C1005 C 0.06181 0.63303 0.97813 0.0
C1006 C 0.0425 0.64606 0.95237 0.0
C1007 C 0.02624 0.62804 0.9554 0.0
C1008 C 0.0277 0.61295 0.97314 0.0
H1009 H 0.94004 0.54371 0.83213 0.0
H1010 H 0.9699 0.57168 0.85276 0.0
C1011 C 0.04538 0.61539 0.98413 0.0
C1012 C 0.00859 0.62369 0.93254 0.0
H1013 H 0.96072 0.5986 0.94724 0.0
C1014 C 0.00898 0.62394 0.88699 0.0
C1015 C 0.99101 0.61564 0.95442 0.0
C1016 C 0.98991 0.61585 0.00321 0.0
C1017 C 0.99217 0.61439 0.86292 0.0
C1018 C 0.97469 0.60449 0.88507 0.0
C1019 C 0.9742 0.60611 0.93033 0.0
C1020 C 0.95755 0.58951 0.86347 0.0
C1021 C -0.00673 0.61372 0.81419 0.0
C1022 C 0.94086 0.59049 0.86146 0.0
C1023 C 0.92379 0.57454 0.84901 0.0
C1024 C 0.92321 0.55735 0.83972 0.0
C1025 C 0.94013 0.55677 0.83934 0.0
C1026 C 0.95719 0.57277 0.85087 0.0
H1027 H 0.00641 0.62612 0.80154 0.0
H1028 H -0.00657 0.60066 0.80464 0.0
H1029 H 0.98077 0.61337 0.79879 0.0
H1030 H 0.94088 0.60325 0.87151 0.0
H1031 H 0.91086 0.57525 0.84997 0.0
loop_
_geom_bond_atom_site_label_1
_geom_bond_atom_site_label_2
_geom_bond_distance
_geom_bond_site_symmetry_2
_ccdc_geom_bond_type
Mg0 O1 2.028 . S
Mg0 O7 1.986 . S
Mg0 O9 2.114 . S
Mg0 O10 2.251 . S
Mg0 O13 2.010 . S
O1 Mg0 2.028 . S
O1 C4 1.250 . S
O2 Mg3 2.028 . S
O2 C4 1.248 . S
Mg3 O2 2.028 . S
Mg3 O8 2.032 . S
Mg3 O10 2.079 . S
C4 O1 1.250 . S
C4 O2 1.248 . S
C5 O6 1.264 . S
C5 O13 1.249 . S
O6 C5 1.264 . S
O7 Mg0 1.986 . S
O7 C11 1.246 . S
O8 Mg3 2.032 . S
O8 C11 1.259 . S
O9 Mg0 2.114 . S
O9 C12 1.252 . S
O10 Mg0 2.251 . S
O10 Mg3 2.079 . S
O10 C12 1.273 . S
C11 O7 1.246 . S
C11 O8 1.259 . S
C12 O9 1.252 . S
C12 O10 1.273 . S
O13 Mg0 2.010 . S
O13 C5 1.249 . S
Mg14 O15 2.028 . S
Mg14 O21 1.986 . S
Mg14 O23 2.114 . S
Mg14 O24 2.251 . S
Mg14 O27 2.010 . S
O15 Mg14 2.028 . S
O15 C18 1.250 . S
O16 Mg17 2.028 . S
O16 C18 1.248 . S
Mg17 O16 2.028 . S
Mg17 O22 2.032 . S
Mg17 O24 2.079 . S
C18 O15 1.250 . S
C18 O16 1.248 . S
C19 O20 1.264 . S
C19 O27 1.249 . S
O20 C19 1.264 . S
O21 Mg14 1.986 . S
O21 C25 1.246 . S
O22 Mg17 2.032 . S
O22 C25 1.259 . S
O23 Mg14 2.114 . S
O23 C26 1.252 . S
O24 Mg14 2.251 . S
O24 Mg17 2.079 . S
O24 C26 1.273 . S
C25 O21 1.246 . S
C25 O22 1.259 . S
C26 O23 1.252 . S
C26 O24 1.273 . S
O27 Mg14 2.010 . S
O27 C19 1.249 . S
Mg28 O29 2.028 . S
Mg28 O35 1.986 . S
Mg28 O37 2.114 . S
Mg28 O38 2.251 . S
Mg28 O41 2.010 . S
O29 Mg28 2.028 . S
O29 C32 1.250 . S
O30 Mg31 2.028 . S
O30 C32 1.248 . S
Mg31 O30 2.028 . S
Mg31 O36 2.032 . S
Mg31 O38 2.079 . S
C32 O29 1.250 . S
C32 O30 1.248 . S
C33 O34 1.264 . S
C33 O41 1.249 . S
O34 C33 1.264 . S
O35 Mg28 1.986 . S
O35 C39 1.246 . S
O36 Mg31 2.032 . S
O36 C39 1.259 . S
O37 Mg28 2.114 . S
O37 C40 1.252 . S
O38 Mg28 2.251 . S
O38 Mg31 2.079 . S
O38 C40 1.273 . S
C39 O35 1.246 . S
C39 O36 1.259 . S
C40 O37 1.252 . S
C40 O38 1.273 . S
O41 Mg28 2.010 . S
O41 C33 1.249 . S
Mg42 O43 2.028 . S
Mg42 O49 1.986 . S
Mg42 O51 2.114 . S
Mg42 O52 2.251 . S
Mg42 O55 2.010 . S
O43 Mg42 2.028 . S
O43 C46 1.250 . S
O44 Mg45 2.028 . S
O44 C46 1.248 . S
Mg45 O44 2.028 . S
Mg45 O50 2.032 . S
Mg45 O52 2.079 . S
C46 O43 1.250 . S
C46 O44 1.248 . S
C47 O48 1.264 . S
C47 O55 1.249 . S
O48 C47 1.264 . S
O49 Mg42 1.986 . S
O49 C53 1.246 . S
O50 Mg45 2.032 . S
O50 C53 1.259 . S
O51 Mg42 2.114 . S
O51 C54 1.252 . S
O52 Mg42 2.251 . S
O52 Mg45 2.079 . S
O52 C54 1.273 . S
C53 O49 1.246 . S
C53 O50 1.259 . S
C54 O51 1.252 . S
C54 O52 1.273 . S
O55 Mg42 2.010 . S
O55 C47 1.249 . S
Mg56 O57 2.028 . S
Mg56 O63 1.986 . S
Mg56 O65 2.114 . S
Mg56 O66 2.251 . S
Mg56 O69 2.010 . S
O57 Mg56 2.028 . S
O57 C60 1.250 . S
O58 Mg59 2.028 . S
O58 C60 1.248 . S
Mg59 O58 2.028 . S
Mg59 O64 2.032 . S
Mg59 O66 2.079 . S
C60 O57 1.250 . S
C60 O58 1.248 . S
C61 O62 1.264 . S
C61 O69 1.249 . S
O62 C61 1.264 . S
O63 Mg56 1.986 . S
O63 C67 1.246 . S
O64 Mg59 2.032 . S
O64 C67 1.259 . S
O65 Mg56 2.114 . S
O65 C68 1.252 . S
O66 Mg56 2.251 . S
O66 Mg59 2.079 . S
O66 C68 1.273 . S
C67 O63 1.246 . S
C67 O64 1.259 . S
C68 O65 1.252 . S
C68 O66 1.273 . S
O69 Mg56 2.010 . S
O69 C61 1.249 . S
Mg70 O71 2.028 . S
Mg70 O77 1.986 . S
Mg70 O79 2.114 . S
Mg70 O80 2.251 . S
Mg70 O83 2.010 . S
O71 Mg70 2.028 . S
O71 C74 1.250 . S
O72 Mg73 2.028 . S
O72 C74 1.248 . S
Mg73 O72 2.028 . S
Mg73 O78 2.032 . S
Mg73 O80 2.079 . S
C74 O71 1.250 . S
C74 O72 1.248 . S
C75 O76 1.264 . S
C75 O83 1.249 . S
O76 C75 1.264 . S
O77 Mg70 1.986 . S
O77 C81 1.246 . S
O78 Mg73 2.032 . S
O78 C81 1.259 . S
O79 Mg70 2.114 . S
O79 C82 1.252 . S
O80 Mg70 2.251 . S
O80 Mg73 2.079 . S
O80 C82 1.273 . S
C81 O77 1.246 . S
C81 O78 1.259 . S
C82 O79 1.252 . S
C82 O80 1.273 . S
O83 Mg70 2.010 . S
O83 C75 1.249 . S
Mg84 O85 2.028 . S
Mg84 O91 1.986 . S
Mg84 O93 2.114 . S
Mg84 O94 2.251 . S
Mg84 O97 2.010 . S
O85 Mg84 2.028 . S
O85 C88 1.250 . S
O86 Mg87 2.028 . S
O86 C88 1.248 . S
Mg87 O86 2.028 . S
Mg87 O92 2.032 . S
Mg87 O94 2.079 . S
C88 O85 1.250 . S
C88 O86 1.248 . S
C89 O90 1.264 . S
C89 O97 1.249 . S
O90 C89 1.264 . S
O91 Mg84 1.986 . S
O91 C95 1.246 . S
O92 Mg87 2.032 . S
O92 C95 1.259 . S
O93 Mg84 2.114 . S
O93 C96 1.252 . S
O94 Mg84 2.251 . S
O94 Mg87 2.079 . S
O94 C96 1.273 . S
C95 O91 1.246 . S
C95 O92 1.259 . S
C96 O93 1.252 . S
C96 O94 1.273 . S
O97 Mg84 2.010 . S
O97 C89 1.249 . S
Mg98 O99 2.028 . S
Mg98 O105 1.986 . S
Mg98 O107 2.114 . S
Mg98 O108 2.251 . S
Mg98 O111 2.010 . S
O99 Mg98 2.028 . S
O99 C102 1.250 . S
O100 Mg101 2.028 . S
O100 C102 1.248 . S
Mg101 O100 2.028 . S
Mg101 O106 2.032 . S
Mg101 O108 2.079 . S
C102 O99 1.250 . S
C102 O100 1.248 . S
C103 O104 1.264 . S
C103 O111 1.249 . S
O104 C103 1.264 . S
O105 Mg98 1.986 . S
O105 C109 1.246 . S
O106 Mg101 2.032 . S
O106 C109 1.259 . S
O107 Mg98 2.114 . S
O107 C110 1.252 . S
O108 Mg98 2.251 . S
O108 Mg101 2.079 . S
O108 C110 1.273 . S
C109 O105 1.246 . S
C109 O106 1.259 . S
C110 O107 1.252 . S
C110 O108 1.273 . S
O111 Mg98 2.010 . S
O111 C103 1.249 . S
Mg112 O113 2.028 . S
Mg112 O119 1.986 . S
Mg112 O121 2.114 . S
Mg112 O122 2.251 . S
Mg112 O125 2.010 . S
O113 Mg112 2.028 . S
O113 C116 1.250 . S
O114 Mg115 2.028 . S
O114 C116 1.248 . S
Mg115 O114 2.028 . S
Mg115 O120 2.032 . S
Mg115 O122 2.079 . S
C116 O113 1.250 . S
C116 O114 1.248 . S
C117 O118 1.264 . S
C117 O125 1.249 . S
O118 C117 1.264 . S
O119 Mg112 1.986 . S
O119 C123 1.246 . S
O120 Mg115 2.032 . S
O120 C123 1.259 . S
O121 Mg112 2.114 . S
O121 C124 1.252 . S
O122 Mg112 2.251 . S
O122 Mg115 2.079 . S
O122 C124 1.273 . S
C123 O119 1.246 . S
C123 O120 1.259 . S
C124 O121 1.252 . S
C124 O122 1.273 . S
O125 Mg112 2.010 . S
O125 C117 1.249 . S
Mg126 O127 2.028 . S
Mg126 O133 1.986 . S
Mg126 O135 2.114 . S
Mg126 O136 2.251 . S
Mg126 O139 2.010 . S
O127 Mg126 2.028 . S
O127 C130 1.250 . S
O128 Mg129 2.028 . S
O128 C130 1.248 . S
Mg129 O128 2.028 . S
Mg129 O134 2.032 . S
Mg129 O136 2.079 . S
C130 O127 1.250 . S
C130 O128 1.248 . S
C131 O132 1.264 . S
C131 O139 1.249 . S
O132 C131 1.264 . S
O133 Mg126 1.986 . S
O133 C137 1.246 . S
O134 Mg129 2.032 . S
O134 C137 1.259 . S
O135 Mg126 2.114 . S
O135 C138 1.252 . S
O136 Mg126 2.251 . S
O136 Mg129 2.079 . S
O136 C138 1.273 . S
C137 O133 1.246 . S
C137 O134 1.259 . S
C138 O135 1.252 . S
C138 O136 1.273 . S
O139 Mg126 2.010 . S
O139 C131 1.249 . S
Mg140 O141 2.028 . S
Mg140 O147 1.986 . S
Mg140 O149 2.114 . S
Mg140 O150 2.251 . S
Mg140 O153 2.010 . S
O141 Mg140 2.028 . S
O141 C144 1.250 . S
O142 Mg143 2.028 . S
O142 C144 1.248 . S
Mg143 O142 2.028 . S
Mg143 O148 2.032 . S
Mg143 O150 2.079 . S
C144 O141 1.250 . S
C144 O142 1.248 . S
C145 O146 1.264 . S
C145 O153 1.249 . S
O146 C145 1.264 . S
O147 Mg140 1.986 . S
O147 C151 1.246 . S
O148 Mg143 2.032 . S
O148 C151 1.259 . S
O149 Mg140 2.114 . S
O149 C152 1.252 . S
O150 Mg140 2.251 . S
O150 Mg143 2.079 . S
O150 C152 1.273 . S
C151 O147 1.246 . S
C151 O148 1.259 . S
C152 O149 1.252 . S
C152 O150 1.273 . S
O153 Mg140 2.010 . S
O153 C145 1.249 . S
Mg154 O155 2.028 . S
Mg154 O161 1.986 . S
Mg154 O163 2.114 . S
Mg154 O164 2.251 . S
Mg154 O167 2.010 . S
O155 Mg154 2.028 . S
O155 C158 1.250 . S
O156 Mg157 2.028 . S
O156 C158 1.248 . S
Mg157 O156 2.028 . S
Mg157 O162 2.032 . S
Mg157 O164 2.079 . S
C158 O155 1.250 . S
C158 O156 1.248 . S
C159 O160 1.264 . S
C159 O167 1.249 . S
O160 C159 1.264 . S
O161 Mg154 1.986 . S
O161 C165 1.246 . S
O162 Mg157 2.032 . S
O162 C165 1.259 . S
O163 Mg154 2.114 . S
O163 C166 1.252 . S
O164 Mg154 2.251 . S
O164 Mg157 2.079 . S
O164 C166 1.273 . S
C165 O161 1.246 . S
C165 O162 1.259 . S
C166 O163 1.252 . S
C166 O164 1.273 . S
O167 Mg154 2.010 . S
O167 C159 1.249 . S
H168 C176 0.929 . S
H169 C178 0.930 . S
H170 C180 0.930 . S
H171 C183 0.929 . S
H172 C186 0.930 . S
H173 C188 0.960 . S
H174 C188 0.960 . S
H175 C188 0.960 . S
C176 H168 0.929 . S
C176 C177 1.377 . S
C176 C178 1.384 . S
C177 C176 1.377 . S
C177 C183 1.390 . S
C178 H169 0.930 . S
C178 C176 1.384 . S
C178 C179 1.372 . S
C179 C178 1.372 . S
C179 C180 1.400 . S
C179 C184 1.490 . S
C180 H170 0.930 . S
C180 C179 1.400 . S
C180 C183 1.386 . S
H181 C197 0.930 . S
H182 C198 0.931 . S
C183 H171 0.929 . S
C183 C177 1.390 . S
C183 C180 1.386 . S
C184 C179 1.490 . S
C184 C186 1.395 . S
C184 C187 1.403 . S
H185 C191 0.930 . S
C186 H172 0.930 . S
C186 C184 1.395 . S
C186 C189 1.403 . S
C187 C184 1.403 . S
C187 C188 1.524 . S
C187 C191 1.400 . S
C188 H173 0.960 . S
C188 H174 0.960 . S
C188 H175 0.960 . S
C188 C187 1.524 . S
C189 C186 1.403 . S
C189 C190 1.392 . S
C189 C193 1.495 . S
C190 C189 1.392 . S
C190 C191 1.385 . S
C190 C192 1.478 . S
C191 H185 0.930 . S
C191 C187 1.400 . S
C191 C190 1.385 . S
C192 C190 1.478 . S
C192 C194 1.381 . S
C192 C198 1.383 . S
C193 C189 1.495 . S
C193 H199 0.959 . S
C193 H200 0.961 . S
C193 H201 0.960 . S
C194 C192 1.381 . S
C194 C195 1.394 . S
C194 H202 0.930 . S
C195 C194 1.394 . S
C195 C196 1.383 . S
C195 H203 0.929 . S
C196 C195 1.383 . S
C196 C197 1.377 . S
C197 H181 0.930 . S
C197 C196 1.377 . S
C197 C198 1.379 . S
C198 H182 0.931 . S
C198 C192 1.383 . S
C198 C197 1.379 . S
H199 C193 0.959 . S
H200 C193 0.961 . S
H201 C193 0.960 . S
H202 C194 0.930 . S
H203 C195 0.929 . S
H204 C212 0.929 . S
H205 C214 0.930 . S
H206 C216 0.930 . S
H207 C219 0.929 . S
H208 C222 0.930 . S
H209 C224 0.960 . S
H210 C224 0.960 . S
H211 C224 0.960 . S
C212 H204 0.929 . S
C212 C213 1.377 . S
C212 C214 1.384 . S
C213 C212 1.377 . S
C213 C219 1.390 . S
C214 H205 0.930 . S
C214 C212 1.384 . S
C214 C215 1.372 . S
C215 C214 1.372 . S
C215 C216 1.400 . S
C215 C220 1.490 . S
C216 H206 0.930 . S
C216 C215 1.400 . S
C216 C219 1.386 . S
H217 C233 0.930 . S
H218 C234 0.931 . S
C219 H207 0.929 . S
C219 C213 1.390 . S
C219 C216 1.386 . S
C220 C215 1.490 . S
C220 C222 1.395 . S
C220 C223 1.403 . S
H221 C227 0.930 . S
C222 H208 0.930 . S
C222 C220 1.395 . S
C222 C225 1.403 . S
C223 C220 1.403 . S
C223 C224 1.524 . S
C223 C227 1.400 . S
C224 H209 0.960 . S
C224 H210 0.960 . S
C224 H211 0.960 . S
C224 C223 1.524 . S
C225 C222 1.403 . S
C225 C226 1.392 . S
C225 C229 1.495 . S
C226 C225 1.392 . S
C226 C227 1.385 . S
C226 C228 1.478 . S
C227 H221 0.930 . S
C227 C223 1.400 . S
C227 C226 1.385 . S
C228 C226 1.478 . S
C228 C230 1.381 . S
C228 C234 1.383 . S
C229 C225 1.495 . S
C229 H235 0.959 . S
C229 H236 0.961 . S
C229 H237 0.960 . S
C230 C228 1.381 . S
C230 C231 1.394 . S
C230 H238 0.930 . S
C231 C230 1.394 . S
C231 C232 1.383 . S
C231 H239 0.929 . S
C232 C231 1.383 . S
C232 C233 1.377 . S
C233 H217 0.930 . S
C233 C232 1.377 . S
C233 C234 1.379 . S
C234 H218 0.931 . S
C234 C228 1.383 . S
C234 C233 1.379 . S
H235 C229 0.959 . S
H236 C229 0.961 . S
H237 C229 0.960 . S
H238 C230 0.930 . S
H239 C231 0.929 . S
H240 C248 0.929 . S
H241 C250 0.930 . S
H242 C252 0.930 . S
H243 C255 0.929 . S
H244 C258 0.930 . S
H245 C260 0.960 . S
H246 C260 0.960 . S
H247 C260 0.960 . S
C248 H240 0.929 . S
C248 C249 1.377 . S
C248 C250 1.384 . S
C249 C248 1.377 . S
C249 C255 1.390 . S
C250 H241 0.930 . S
C250 C248 1.384 . S
C250 C251 1.372 . S
C251 C250 1.372 . S
C251 C252 1.400 . S
C251 C256 1.490 . S
C252 H242 0.930 . S
C252 C251 1.400 . S
C252 C255 1.386 . S
H253 C269 0.930 . S
H254 C270 0.931 . S
C255 H243 0.929 . S
C255 C249 1.390 . S
C255 C252 1.386 . S
C256 C251 1.490 . S
C256 C258 1.395 . S
C256 C259 1.403 . S
H257 C263 0.930 . S
C258 H244 0.930 . S
C258 C256 1.395 . S
C258 C261 1.403 . S
C259 C256 1.403 . S
C259 C260 1.524 . S
C259 C263 1.400 . S
C260 H245 0.960 . S
C260 H246 0.960 . S
C260 H247 0.960 . S
C260 C259 1.524 . S
C261 C258 1.403 . S
C261 C262 1.392 . S
C261 C265 1.495 . S
C262 C261 1.392 . S
C262 C263 1.385 . S
C262 C264 1.478 . S
C263 H257 0.930 . S
C263 C259 1.400 . S
C263 C262 1.385 . S
C264 C262 1.478 . S
C264 C266 1.381 . S
C264 C270 1.383 . S
C265 C261 1.495 . S
C265 H271 0.959 . S
C265 H272 0.961 . S
C265 H273 0.960 . S
C266 C264 1.381 . S
C266 C267 1.394 . S
C266 H274 0.930 . S
C267 C266 1.394 . S
C267 C268 1.383 . S
C267 H275 0.929 . S
C268 C267 1.383 . S
C268 C269 1.377 . S
C269 H253 0.930 . S
C269 C268 1.377 . S
C269 C270 1.379 . S
C270 H254 0.931 . S
C270 C264 1.383 . S
C270 C269 1.379 . S
H271 C265 0.959 . S
H272 C265 0.961 . S
H273 C265 0.960 . S
H274 C266 0.930 . S
H275 C267 0.929 . S
H276 C284 0.929 . S
H277 C286 0.930 . S
H278 C288 0.930 . S
H279 C291 0.929 . S
H280 C294 0.930 . S
H281 C296 0.960 . S
H282 C296 0.960 . S
H283 C296 0.960 . S
C284 H276 0.929 . S
C284 C285 1.377 . S
C284 C286 1.384 . S
C285 C284 1.377 . S
C285 C291 1.390 . S
C286 H277 0.930 . S
C286 C284 1.384 . S
C286 C287 1.372 . S
C287 C286 1.372 . S
C287 C288 1.400 . S
C287 C292 1.490 . S
C288 H278 0.930 . S
C288 C287 1.400 . S
C288 C291 1.386 . S
H289 C305 0.930 . S
H290 C306 0.931 . S
C291 H279 0.929 . S
C291 C285 1.390 . S
C291 C288 1.386 . S
C292 C287 1.490 . S
C292 C294 1.395 . S
C292 C295 1.403 . S
H293 C299 0.930 . S
C294 H280 0.930 . S
C294 C292 1.395 . S
C294 C297 1.403 . S
C295 C292 1.403 . S
C295 C296 1.524 . S
C295 C299 1.400 . S
C296 H281 0.960 . S
C296 H282 0.960 . S
C296 H283 0.960 . S
C296 C295 1.524 . S
C297 C294 1.403 . S
C297 C298 1.392 . S
C297 C301 1.495 . S
C298 C297 1.392 . S
C298 C299 1.385 . S
C298 C300 1.478 . S
C299 H293 0.930 . S
C299 C295 1.400 . S
C299 C298 1.385 . S
C300 C298 1.478 . S
C300 C302 1.381 . S
C300 C306 1.383 . S
C301 C297 1.495 . S
C301 H307 0.959 . S
C301 H308 0.961 . S
C301 H309 0.960 . S
C302 C300 1.381 . S
C302 C303 1.394 . S
C302 H310 0.930 . S
C303 C302 1.394 . S
C303 C304 1.383 . S
C303 H311 0.929 . S
C304 C303 1.383 . S
C304 C305 1.377 . S
C305 H289 0.930 . S
C305 C304 1.377 . S
C305 C306 1.379 . S
C306 H290 0.931 . S
C306 C300 1.383 . S
C306 C305 1.379 . S
H307 C301 0.959 . S
H308 C301 0.961 . S
H309 C301 0.960 . S
H310 C302 0.930 . S
H311 C303 0.929 . S
H312 C320 0.929 . S
H313 C322 0.930 . S
H314 C324 0.930 . S
H315 C327 0.929 . S
H316 C330 0.930 1_554 S
H317 C332 0.960 . S
H318 C332 0.960 . S
H319 C332 0.960 . S
C320 H312 0.929 . S
C320 C321 1.377 . S
C320 C322 1.384 . S
C321 C320 1.377 . S
C321 C327 1.390 . S
C322 H313 0.930 . S
C322 C320 1.384 . S
C322 C323 1.372 . S
C323 C322 1.372 . S
C323 C324 1.400 . S
C323 C328 1.490 . S
C324 H314 0.930 . S
C324 C323 1.400 . S
C324 C327 1.386 . S
H325 C341 0.930 . S
H326 C342 0.931 . S
C327 H315 0.929 . S
C327 C321 1.390 . S
C327 C324 1.386 . S
C328 C323 1.490 . S
C328 C330 1.395 1_554 S
C328 C331 1.403 . S
H329 C335 0.930 . S
C330 H316 0.930 1_556 S
C330 C328 1.395 1_556 S
C330 C333 1.403 . S
C331 C328 1.403 . S
C331 C332 1.524 . S
C331 C335 1.400 1_554 S
C332 H317 0.960 . S
C332 H318 0.960 . S
C332 H319 0.960 . S
C332 C331 1.524 . S
C333 C330 1.403 . S
C333 C334 1.392 . S
C333 C337 1.495 . S
C334 C333 1.392 . S
C334 C335 1.385 . S
C334 C336 1.478 . S
C335 H329 0.930 . S
C335 C331 1.400 1_556 S
C335 C334 1.385 . S
C336 C334 1.478 . S
C336 C338 1.381 . S
C336 C342 1.383 . S
C337 C333 1.495 . S
C337 H343 0.959 . S
C337 H344 0.961 . S
C337 H345 0.960 . S
C338 C336 1.381 . S
C338 C339 1.394 . S
C338 H346 0.930 . S
C339 C338 1.394 . S
C339 C340 1.383 . S
C339 H347 0.929 . S
C340 C339 1.383 . S
C340 C341 1.377 . S
C341 H325 0.930 . S
C341 C340 1.377 . S
C341 C342 1.379 . S
C342 H326 0.931 . S
C342 C336 1.383 . S
C342 C341 1.379 . S
H343 C337 0.959 . S
H344 C337 0.961 . S
H345 C337 0.960 . S
H346 C338 0.930 . S
H347 C339 0.929 . S
H348 C356 0.929 . S
H349 C358 0.930 . S
H350 C360 0.930 . S
H351 C363 0.929 . S
H352 C366 0.930 . S
H353 C368 0.960 . S
H354 C368 0.960 . S
H355 C368 0.960 . S
C356 H348 0.929 . S
C356 C357 1.377 . S
C356 C358 1.384 . S
C357 C356 1.377 . S
C357 C363 1.390 . S
C358 H349 0.930 . S
C358 C356 1.384 . S
C358 C359 1.372 . S
C359 C358 1.372 . S
C359 C360 1.400 . S
C359 C364 1.490 . S
C360 H350 0.930 . S
C360 C359 1.400 . S
C360 C363 1.386 . S
H361 C377 0.930 . S
H362 C378 0.931 . S
C363 H351 0.929 . S
C363 C357 1.390 . S
C363 C360 1.386 . S
C364 C359 1.490 . S
C364 C366 1.395 . S
C364 C367 1.403 . S
H365 C371 0.930 . S
C366 H352 0.930 . S
C366 C364 1.395 . S
C366 C369 1.403 . S
C367 C364 1.403 . S
C367 C368 1.524 . S
C367 C371 1.400 . S
C368 H353 0.960 . S
C368 H354 0.960 . S
C368 H355 0.960 . S
C368 C367 1.524 . S
C369 C366 1.403 . S
C369 C370 1.392 . S
C369 C373 1.495 . S
C370 C369 1.392 . S
C370 C371 1.385 . S
C370 C372 1.478 . S
C371 H365 0.930 . S
C371 C367 1.400 . S
C371 C370 1.385 . S
C372 C370 1.478 . S
C372 C374 1.381 . S
C372 C378 1.383 . S
C373 C369 1.495 . S
C373 H379 0.959 . S
C373 H380 0.961 . S
C373 H381 0.960 . S
C374 C372 1.381 . S
C374 C375 1.394 . S
C374 H382 0.930 . S
C375 C374 1.394 . S
C375 C376 1.383 . S
C375 H383 0.929 . S
C376 C375 1.383 . S
C376 C377 1.377 . S
C377 H361 0.930 . S
C377 C376 1.377 . S
C377 C378 1.379 . S
C378 H362 0.931 . S
C378 C372 1.383 . S
C378 C377 1.379 . S
H379 C373 0.959 . S
H380 C373 0.961 . S
H381 C373 0.960 . S
H382 C374 0.930 . S
H383 C375 0.929 . S
H384 C392 0.929 . S
H385 C394 0.930 . S
H386 C396 0.930 . S
H387 C399 0.929 . S
H388 C402 0.930 . S
H389 C404 0.960 . S
H390 C404 0.960 . S
H391 C404 0.960 . S
C392 H384 0.929 . S
C392 C393 1.377 . S
C392 C394 1.384 . S
C393 C392 1.377 . S
C393 C399 1.390 . S
C394 H385 0.930 . S
C394 C392 1.384 . S
C394 C395 1.372 . S
C395 C394 1.372 . S
C395 C396 1.400 . S
C395 C400 1.490 . S
C396 H386 0.930 . S
C396 C395 1.400 . S
C396 C399 1.386 . S
H397 C413 0.930 . S
H398 C414 0.931 . S
C399 H387 0.929 . S
C399 C393 1.390 . S
C399 C396 1.386 . S
C400 C395 1.490 . S
C400 C402 1.395 . S
C400 C403 1.403 . S
H401 C407 0.930 . S
C402 H388 0.930 . S
C402 C400 1.395 . S
C402 C405 1.403 . S
C403 C400 1.403 . S
C403 C404 1.524 . S
C403 C407 1.400 . S
C404 H389 0.960 . S
C404 H390 0.960 . S
C404 H391 0.960 . S
C404 C403 1.524 . S
C405 C402 1.403 . S
C405 C406 1.392 . S
C405 C409 1.495 . S
C406 C405 1.392 . S
C406 C407 1.385 . S
C406 C408 1.478 . S
C407 H401 0.930 . S
C407 C403 1.400 . S
C407 C406 1.385 . S
C408 C406 1.478 . S
C408 C410 1.381 . S
C408 C414 1.383 . S
C409 C405 1.495 . S
C409 H415 0.959 . S
C409 H416 0.961 . S
C409 H417 0.960 . S
C410 C408 1.381 . S
C410 C411 1.394 . S
C410 H418 0.930 . S
C411 C410 1.394 . S
C411 C412 1.383 . S
C411 H419 0.929 . S
C412 C411 1.383 . S
C412 C413 1.377 . S
C413 H397 0.930 . S
C413 C412 1.377 . S
C413 C414 1.379 . S
C414 H398 0.931 . S
C414 C408 1.383 . S
C414 C413 1.379 . S
H415 C409 0.959 . S
H416 C409 0.961 . S
H417 C409 0.960 . S
H418 C410 0.930 . S
H419 C411 0.929 . S
H420 C428 0.929 . S
H421 C430 0.930 . S
H422 C432 0.930 . S
H423 C435 0.929 . S
H424 C438 0.930 . S
H425 C440 0.960 . S
H426 C440 0.960 . S
H427 C440 0.960 . S
C428 H420 0.929 . S
C428 C429 1.377 . S
C428 C430 1.384 . S
C429 C428 1.377 . S
C429 C435 1.390 . S
C430 H421 0.930 . S
C430 C428 1.384 . S
C430 C431 1.372 . S
C431 C430 1.372 . S
C431 C432 1.400 . S
C431 C436 1.490 . S
C432 H422 0.930 . S
C432 C431 1.400 . S
C432 C435 1.386 . S
H433 C449 0.930 . S
H434 C450 0.931 . S
C435 H423 0.929 . S
C435 C429 1.390 . S
C435 C432 1.386 . S
C436 C431 1.490 . S
C436 C438 1.395 . S
C436 C439 1.403 . S
H437 C443 0.930 . S
C438 H424 0.930 . S
C438 C436 1.395 . S
C438 C441 1.403 . S
C439 C436 1.403 . S
C439 C440 1.524 . S
C439 C443 1.400 . S
C440 H425 0.960 . S
C440 H426 0.960 . S
C440 H427 0.960 . S
C440 C439 1.524 . S
C441 C438 1.403 . S
C441 C442 1.392 . S
C441 C445 1.495 . S
C442 C441 1.392 . S
C442 C443 1.385 . S
C442 C444 1.478 . S
C443 H437 0.930 . S
C443 C439 1.400 . S
C443 C442 1.385 . S
C444 C442 1.478 . S
C444 C446 1.381 . S
C444 C450 1.383 . S
C445 C441 1.495 . S
C445 H451 0.959 . S
C445 H452 0.961 . S
C445 H453 0.960 . S
C446 C444 1.381 . S
C446 C447 1.394 . S
C446 H454 0.930 . S
C447 C446 1.394 . S
C447 C448 1.383 . S
C447 H455 0.929 . S
C448 C447 1.383 . S
C448 C449 1.377 . S
C449 H433 0.930 . S
C449 C448 1.377 . S
C449 C450 1.379 . S
C450 H434 0.931 . S
C450 C444 1.383 . S
C450 C449 1.379 . S
H451 C445 0.959 . S
H452 C445 0.961 . S
H453 C445 0.960 . S
H454 C446 0.930 . S
H455 C447 0.929 . S
H456 C464 0.929 . S
H457 C466 0.930 . S
H458 C468 0.930 . S
H459 C471 0.929 . S
H460 C474 0.930 . S
H461 C476 0.960 . S
H462 C476 0.960 . S
H463 C476 0.960 . S
C464 H456 0.929 . S
C464 C465 1.377 . S
C464 C466 1.384 . S
C465 C464 1.377 . S
C465 C471 1.390 . S
C466 H457 0.930 . S
C466 C464 1.384 . S
C466 C467 1.372 . S
C467 C466 1.372 . S
C467 C468 1.400 . S
C467 C472 1.490 . S
C468 H458 0.930 . S
C468 C467 1.400 . S
C468 C471 1.386 . S
H469 C485 0.930 . S
H470 C486 0.931 . S
C471 H459 0.929 . S
C471 C465 1.390 . S
C471 C468 1.386 . S
C472 C467 1.490 . S
C472 C474 1.395 . S
C472 C475 1.403 . S
H473 C479 0.930 . S
C474 H460 0.930 . S
C474 C472 1.395 . S
C474 C477 1.403 . S
C475 C472 1.403 . S
C475 C476 1.524 . S
C475 C479 1.400 . S
C476 H461 0.960 . S
C476 H462 0.960 . S
C476 H463 0.960 . S
C476 C475 1.524 . S
C477 C474 1.403 . S
C477 C478 1.392 . S
C477 C481 1.495 . S
C478 C477 1.392 . S
C478 C479 1.385 . S
C478 C480 1.478 . S
C479 H473 0.930 . S
C479 C475 1.400 . S
C479 C478 1.385 . S
C480 C478 1.478 . S
C480 C482 1.381 . S
C480 C486 1.383 . S
C481 C477 1.495 . S
C481 H487 0.959 . S
C481 H488 0.961 . S
C481 H489 0.960 . S
C482 C480 1.381 . S
C482 C483 1.394 . S
C482 H490 0.930 . S
C483 C482 1.394 . S
C483 C484 1.383 . S
C483 H491 0.929 . S
C484 C483 1.383 . S
C484 C485 1.377 . S
C485 H469 0.930 . S
C485 C484 1.377 . S
C485 C486 1.379 . S
C486 H470 0.931 . S
C486 C480 1.383 . S
C486 C485 1.379 . S
H487 C481 0.959 . S
H488 C481 0.961 . S
H489 C481 0.960 . S
H490 C482 0.930 . S
H491 C483 0.929 . S
H492 C500 0.929 . S
H493 C502 0.930 . S
H494 C504 0.930 . S
H495 C507 0.929 . S
H496 C510 0.930 . S
H497 C512 0.960 . S
H498 C512 0.960 . S
H499 C512 0.960 . S
C500 H492 0.929 . S
C500 C501 1.377 . S
C500 C502 1.384 . S
C501 C500 1.377 . S
C501 C507 1.390 . S
C502 H493 0.930 . S
C502 C500 1.384 . S
C502 C503 1.372 . S
C503 C502 1.372 . S
C503 C504 1.400 . S
C503 C508 1.490 . S
C504 H494 0.930 . S
C504 C503 1.400 . S
C504 C507 1.386 . S
H505 C521 0.930 . S
H506 C522 0.931 . S
C507 H495 0.929 . S
C507 C501 1.390 . S
C507 C504 1.386 . S
C508 C503 1.490 . S
C508 C510 1.395 . S
C508 C511 1.403 . S
H509 C515 0.930 . S
C510 H496 0.930 . S
C510 C508 1.395 . S
C510 C513 1.403 . S
C511 C508 1.403 . S
C511 C512 1.524 . S
C511 C515 1.400 . S
C512 H497 0.960 . S
C512 H498 0.960 . S
C512 H499 0.960 . S
C512 C511 1.524 . S
C513 C510 1.403 . S
C513 C514 1.392 . S
C513 C517 1.495 . S
C514 C513 1.392 . S
C514 C515 1.385 . S
C514 C516 1.478 . S
C515 H509 0.930 . S
C515 C511 1.400 . S
C515 C514 1.385 . S
C516 C514 1.478 . S
C516 C518 1.381 . S
C516 C522 1.383 . S
C517 C513 1.495 . S
C517 H523 0.959 . S
C517 H524 0.961 . S
C517 H525 0.960 . S
C518 C516 1.381 . S
C518 C519 1.394 . S
C518 H526 0.930 . S
C519 C518 1.394 . S
C519 C520 1.383 . S
C519 H527 0.929 . S
C520 C519 1.383 . S
C520 C521 1.377 . S
C521 H505 0.930 . S
C521 C520 1.377 . S
C521 C522 1.379 . S
C522 H506 0.931 . S
C522 C516 1.383 . S
C522 C521 1.379 . S
H523 C517 0.959 . S
H524 C517 0.961 . S
H525 C517 0.960 . S
H526 C518 0.930 . S
H527 C519 0.929 . S
H528 C536 0.929 . S
H529 C538 0.930 . S
H530 C540 0.930 . S
H531 C543 0.929 . S
H532 C546 0.930 . S
H533 C548 0.960 . S
H534 C548 0.960 . S
H535 C548 0.960 . S
C536 H528 0.929 . S
C536 C537 1.377 . S
C536 C538 1.384 . S
C537 C536 1.377 . S
C537 C543 1.390 . S
C538 H529 0.930 . S
C538 C536 1.384 . S
C538 C539 1.372 . S
C539 C538 1.372 . S
C539 C540 1.400 . S
C539 C544 1.490 . S
C540 H530 0.930 . S
C540 C539 1.400 . S
C540 C543 1.386 . S
H541 C557 0.930 . S
H542 C558 0.931 . S
C543 H531 0.929 . S
C543 C537 1.390 . S
C543 C540 1.386 . S
C544 C539 1.490 . S
C544 C546 1.395 . S
C544 C547 1.403 . S
H545 C551 0.930 . S
C546 H532 0.930 . S
C546 C544 1.395 . S
C546 C549 1.403 . S
C547 C544 1.403 . S
C547 C548 1.524 . S
C547 C551 1.400 . S
C548 H533 0.960 . S
C548 H534 0.960 . S
C548 H535 0.960 . S
C548 C547 1.524 . S
C549 C546 1.403 . S
C549 C550 1.392 . S
C549 C553 1.495 . S
C550 C549 1.392 . S
C550 C551 1.385 . S
C550 C552 1.478 . S
C551 H545 0.930 . S
C551 C547 1.400 . S
C551 C550 1.385 . S
C552 C550 1.478 . S
C552 C554 1.381 . S
C552 C558 1.383 . S
C553 C549 1.495 . S
C553 H559 0.959 . S
C553 H560 0.961 . S
C553 H561 0.960 . S
C554 C552 1.381 . S
C554 C555 1.394 . S
C554 H562 0.930 . S
C555 C554 1.394 . S
C555 C556 1.383 . S
C555 H563 0.929 . S
C556 C555 1.383 . S
C556 C557 1.377 . S
C557 H541 0.930 . S
C557 C556 1.377 . S
C557 C558 1.379 . S
C558 H542 0.931 . S
C558 C552 1.383 . S
C558 C557 1.379 . S
H559 C553 0.959 . S
H560 C553 0.961 . S
H561 C553 0.960 . S
H562 C554 0.930 . S
H563 C555 0.929 . S
H564 C572 0.929 . S
H565 C574 0.930 1_554 S
H566 C576 0.930 . S
H567 C579 0.929 . S
H568 C582 0.930 . S
H569 C584 0.960 1_554 S
H570 C584 0.960 1_554 S
H571 C584 0.960 . S
C572 H564 0.929 . S
C572 C573 1.377 . S
C572 C574 1.384 . S
C573 C572 1.377 . S
C573 C579 1.390 . S
C574 H565 0.930 1_556 S
C574 C572 1.384 . S
C574 C575 1.372 . S
C575 C574 1.372 . S
C575 C576 1.400 . S
C575 C580 1.490 . S
C576 H566 0.930 . S
C576 C575 1.400 . S
C576 C579 1.386 . S
H577 C593 0.930 1_556 S
H578 C594 0.931 . S
C579 H567 0.929 . S
C579 C573 1.390 . S
C579 C576 1.386 . S
C580 C575 1.490 . S
C580 C582 1.395 . S
C580 C583 1.403 . S
H581 C587 0.930 . S
C582 H568 0.930 . S
C582 C580 1.395 . S
C582 C585 1.403 . S
C583 C580 1.403 . S
C583 C584 1.524 . S
C583 C587 1.400 1_556 S
C584 H569 0.960 1_556 S
C584 H570 0.960 1_556 S
C584 H571 0.960 . S
C584 C583 1.524 . S
C585 C582 1.403 . S
C585 C586 1.392 1_556 S
C585 C589 1.495 . S
C586 C585 1.392 1_554 S
C586 C587 1.385 . S
C586 C588 1.478 . S
C587 H581 0.930 . S
C587 C583 1.400 1_554 S
C587 C586 1.385 . S
C588 C586 1.478 . S
C588 C590 1.381 . S
C588 C594 1.383 1_554 S
C589 C585 1.495 . S
C589 H595 0.959 . S
C589 H596 0.961 . S
C589 H597 0.960 1_556 S
C590 C588 1.381 . S
C590 C591 1.394 . S
C590 H598 0.930 . S
C591 C590 1.394 . S
C591 C592 1.383 . S
C591 H599 0.929 . S
C592 C591 1.383 . S
C592 C593 1.377 . S
C593 H577 0.930 1_554 S
C593 C592 1.377 . S
C593 C594 1.379 1_554 S
C594 H578 0.931 . S
C594 C588 1.383 1_556 S
C594 C593 1.379 1_556 S
H595 C589 0.959 . S
H596 C589 0.961 . S
H597 C589 0.960 1_554 S
H598 C590 0.930 . S
H599 C591 0.929 . S
H600 C608 0.929 . S
H601 C610 0.930 . S
H602 C612 0.930 . S
H603 C615 0.929 . S
H604 C618 0.930 . S
H605 C620 0.960 . S
H606 C620 0.960 . S
H607 C620 0.960 . S
C608 H600 0.929 . S
C608 C609 1.377 . S
C608 C610 1.384 . S
C609 C608 1.377 . S
C609 C615 1.390 . S
C610 H601 0.930 . S
C610 C608 1.384 . S
C610 C611 1.372 . S
C611 C610 1.372 . S
C611 C612 1.400 . S
C611 C616 1.490 . S
C612 H602 0.930 . S
C612 C611 1.400 . S
C612 C615 1.386 . S
H613 C629 0.930 . S
H614 C630 0.931 . S
C615 H603 0.929 . S
C615 C609 1.390 . S
C615 C612 1.386 . S
C616 C611 1.490 . S
C616 C618 1.395 . S
C616 C619 1.403 . S
H617 C623 0.930 . S
C618 H604 0.930 . S
C618 C616 1.395 . S
C618 C621 1.403 . S
C619 C616 1.403 . S
C619 C620 1.524 . S
C619 C623 1.400 . S
C620 H605 0.960 . S
C620 H606 0.960 . S
C620 H607 0.960 . S
C620 C619 1.524 . S
C621 C618 1.403 . S
C621 C622 1.392 . S
C621 C625 1.495 . S
C622 C621 1.392 . S
C622 C623 1.385 . S
C622 C624 1.478 . S
C623 H617 0.930 . S
C623 C619 1.400 . S
C623 C622 1.385 . S
C624 C622 1.478 . S
C624 C626 1.381 . S
C624 C630 1.383 . S
C625 C621 1.495 . S
C625 H631 0.959 . S
C625 H632 0.961 . S
C625 H633 0.960 . S
C626 C624 1.381 . S
C626 C627 1.394 . S
C626 H634 0.930 . S
C627 C626 1.394 . S
C627 C628 1.383 . S
C627 H635 0.929 . S
C628 C627 1.383 . S
C628 C629 1.377 . S
C629 H613 0.930 . S
C629 C628 1.377 . S
C629 C630 1.379 . S
C630 H614 0.931 . S
C630 C624 1.383 . S
C630 C629 1.379 . S
H631 C625 0.959 . S
H632 C625 0.961 . S
H633 C625 0.960 . S
H634 C626 0.930 . S
H635 C627 0.929 . S
H636 C644 0.929 . S
H637 C646 0.930 . S
H638 C648 0.930 . S
H639 C651 0.929 . S
H640 C654 0.930 . S
H641 C656 0.960 1_554 S
H642 C656 0.960 . S
H643 C656 0.960 . S
C644 H636 0.929 . S
C644 C645 1.377 . S
C644 C646 1.384 . S
C645 C644 1.377 . S
C645 C651 1.390 . S
C646 H637 0.930 . S
C646 C644 1.384 . S
C646 C647 1.372 . S
C647 C646 1.372 . S
C647 C648 1.400 . S
C647 C652 1.490 . S
C648 H638 0.930 . S
C648 C647 1.400 . S
C648 C651 1.386 . S
H649 C665 0.930 . S
H650 C666 0.931 . S
C651 H639 0.929 . S
C651 C645 1.390 . S
C651 C648 1.386 . S
C652 C647 1.490 . S
C652 C654 1.395 . S
C652 C655 1.403 . S
H653 C659 0.930 . S
C654 H640 0.930 . S
C654 C652 1.395 . S
C654 C657 1.403 . S
C655 C652 1.403 . S
C655 C656 1.524 . S
C655 C659 1.400 1_556 S
C656 H641 0.960 1_556 S
C656 H642 0.960 . S
C656 H643 0.960 . S
C656 C655 1.524 . S
C657 C654 1.403 . S
C657 C658 1.392 1_556 S
C657 C661 1.495 . S
C658 C657 1.392 1_554 S
C658 C659 1.385 . S
C658 C660 1.478 . S
C659 H653 0.930 . S
C659 C655 1.400 1_554 S
C659 C658 1.385 . S
C660 C658 1.478 . S
C660 C662 1.381 . S
C660 C666 1.383 . S
C661 C657 1.495 . S
C661 H667 0.959 . S
C661 H668 0.961 . S
C661 H669 0.960 1_556 S
C662 C660 1.381 . S
C662 C663 1.394 . S
C662 H670 0.930 . S
C663 C662 1.394 . S
C663 C664 1.383 . S
C663 H671 0.929 . S
C664 C663 1.383 . S
C664 C665 1.377 . S
C665 H649 0.930 . S
C665 C664 1.377 . S
C665 C666 1.379 . S
C666 H650 0.931 . S
C666 C660 1.383 . S
C666 C665 1.379 . S
H667 C661 0.959 . S
H668 C661 0.961 . S
H669 C661 0.960 1_554 S
H670 C662 0.930 . S
H671 C663 0.929 . S
H672 C680 0.929 1_556 S
H673 C682 0.930 . S
H674 C684 0.930 . S
H675 C687 0.929 . S
H676 C690 0.930 . S
H677 C692 0.960 . S
H678 C692 0.960 . S
H679 C692 0.960 . S
C680 H672 0.929 1_554 S
C680 C681 1.377 . S
C680 C682 1.384 . S
C681 C680 1.377 . S
C681 C687 1.390 . S
C682 H673 0.930 . S
C682 C680 1.384 . S
C682 C683 1.372 . S
C683 C682 1.372 . S
C683 C684 1.400 . S
C683 C688 1.490 . S
C684 H674 0.930 . S
C684 C683 1.400 . S
C684 C687 1.386 . S
H685 C701 0.930 . S
H686 C702 0.931 . S
C687 H675 0.929 . S
C687 C681 1.390 . S
C687 C684 1.386 . S
C688 C683 1.490 . S
C688 C690 1.395 . S
C688 C691 1.403 . S
H689 C695 0.930 . S
C690 H676 0.930 . S
C690 C688 1.395 . S
C690 C693 1.403 . S
C691 C688 1.403 . S
C691 C692 1.524 . S
C691 C695 1.400 . S
C692 H677 0.960 . S
C692 H678 0.960 . S
C692 H679 0.960 . S
C692 C691 1.524 . S
C693 C690 1.403 . S
C693 C694 1.392 . S
C693 C697 1.495 . S
C694 C693 1.392 . S
C694 C695 1.385 . S
C694 C696 1.478 . S
C695 H689 0.930 . S
C695 C691 1.400 . S
C695 C694 1.385 . S
C696 C694 1.478 . S
C696 C698 1.381 . S
C696 C702 1.383 . S
C697 C693 1.495 . S
C697 H703 0.959 . S
C697 H704 0.961 . S
C697 H705 0.960 . S
C698 C696 1.381 . S
C698 C699 1.394 . S
C698 H706 0.930 . S
C699 C698 1.394 . S
C699 C700 1.383 . S
C699 H707 0.929 . S
C700 C699 1.383 . S
C700 C701 1.377 . S
C701 H685 0.930 . S
C701 C700 1.377 . S
C701 C702 1.379 . S
C702 H686 0.931 . S
C702 C696 1.383 . S
C702 C701 1.379 . S
H703 C697 0.959 . S
H704 C697 0.961 . S
H705 C697 0.960 . S
H706 C698 0.930 . S
H707 C699 0.929 . S
H708 C716 0.929 . S
H709 C718 0.930 . S
H710 C720 0.930 . S
H711 C723 0.929 . S
H712 C726 0.930 . S
H713 C728 0.960 . S
H714 C728 0.960 . S
H715 C728 0.960 . S
C716 H708 0.929 . S
C716 C717 1.377 . S
C716 C718 1.384 . S
C717 C716 1.377 . S
C717 C723 1.390 . S
C718 H709 0.930 . S
C718 C716 1.384 . S
C718 C719 1.372 . S
C719 C718 1.372 . S
C719 C720 1.400 . S
C719 C724 1.490 . S
C720 H710 0.930 . S
C720 C719 1.400 . S
C720 C723 1.386 . S
H721 C737 0.930 . S
H722 C738 0.931 . S
C723 H711 0.929 . S
C723 C717 1.390 . S
C723 C720 1.386 . S
C724 C719 1.490 . S
C724 C726 1.395 . S
C724 C727 1.403 . S
H725 C731 0.930 . S
C726 H712 0.930 . S
C726 C724 1.395 . S
C726 C729 1.403 . S
C727 C724 1.403 . S
C727 C728 1.524 . S
C727 C731 1.400 . S
C728 H713 0.960 . S
C728 H714 0.960 . S
C728 H715 0.960 . S
C728 C727 1.524 . S
C729 C726 1.403 . S
C729 C730 1.392 . S
C729 C733 1.495 . S
C730 C729 1.392 . S
C730 C731 1.385 . S
C730 C732 1.478 . S
C731 H725 0.930 . S
C731 C727 1.400 . S
C731 C730 1.385 . S
C732 C730 1.478 . S
C732 C734 1.381 . S
C732 C738 1.383 . S
C733 C729 1.495 . S
C733 H739 0.959 . S
C733 H740 0.961 . S
C733 H741 0.960 . S
C734 C732 1.381 . S
C734 C735 1.394 . S
C734 H742 0.930 . S
C735 C734 1.394 . S
C735 C736 1.383 . S
C735 H743 0.929 . S
C736 C735 1.383 . S
C736 C737 1.377 . S
C737 H721 0.930 . S
C737 C736 1.377 . S
C737 C738 1.379 . S
C738 H722 0.931 . S
C738 C732 1.383 . S
C738 C737 1.379 . S
H739 C733 0.959 . S
H740 C733 0.961 . S
H741 C733 0.960 . S
H742 C734 0.930 . S
H743 C735 0.929 . S
H744 C752 0.929 . S
H745 C754 0.930 . S
H746 C756 0.930 . S
H747 C759 0.929 . S
H748 C762 0.930 . S
H749 C764 0.960 . S
H750 C764 0.960 . S
H751 C764 0.960 . S
C752 H744 0.929 . S
C752 C753 1.377 . S
C752 C754 1.384 . S
C753 C752 1.377 . S
C753 C759 1.390 . S
C754 H745 0.930 . S
C754 C752 1.384 . S
C754 C755 1.372 . S
C755 C754 1.372 . S
C755 C756 1.400 . S
C755 C760 1.490 . S
C756 H746 0.930 . S
C756 C755 1.400 . S
C756 C759 1.386 . S
H757 C773 0.930 . S
H758 C774 0.931 . S
C759 H747 0.929 . S
C759 C753 1.390 . S
C759 C756 1.386 . S
C760 C755 1.490 . S
C760 C762 1.395 . S
C760 C763 1.403 . S
H761 C767 0.930 . S
C762 H748 0.930 . S
C762 C760 1.395 . S
C762 C765 1.403 . S
C763 C760 1.403 . S
C763 C764 1.524 . S
C763 C767 1.400 . S
C764 H749 0.960 . S
C764 H750 0.960 . S
C764 H751 0.960 . S
C764 C763 1.524 . S
C765 C762 1.403 . S
C765 C766 1.392 . S
C765 C769 1.495 . S
C766 C765 1.392 . S
C766 C767 1.385 . S
C766 C768 1.478 . S
C767 H761 0.930 . S
C767 C763 1.400 . S
C767 C766 1.385 . S
C768 C766 1.478 . S
C768 C770 1.381 . S
C768 C774 1.383 . S
C769 C765 1.495 . S
C769 H775 0.959 . S
C769 H776 0.961 . S
C769 H777 0.960 . S
C770 C768 1.381 . S
C770 C771 1.394 . S
C770 H778 0.930 . S
C771 C770 1.394 . S
C771 C772 1.383 . S
C771 H779 0.929 . S
C772 C771 1.383 . S
C772 C773 1.377 . S
C773 H757 0.930 . S
C773 C772 1.377 . S
C773 C774 1.379 . S
C774 H758 0.931 . S
C774 C768 1.383 . S
C774 C773 1.379 . S
H775 C769 0.959 . S
H776 C769 0.961 . S
H777 C769 0.960 . S
H778 C770 0.930 . S
H779 C771 0.929 . S
H780 C788 0.929 . S
H781 C790 0.930 . S
H782 C792 0.930 . S
H783 C795 0.929 . S
H784 C798 0.930 . S
H785 C800 0.960 . S
H786 C800 0.960 . S
H787 C800 0.960 . S
C788 H780 0.929 . S
C788 C789 1.377 . S
C788 C790 1.384 . S
C789 C788 1.377 . S
C789 C795 1.390 . S
C790 H781 0.930 . S
C790 C788 1.384 . S
C790 C791 1.372 . S
C791 C790 1.372 . S
C791 C792 1.400 . S
C791 C796 1.490 . S
C792 H782 0.930 . S
C792 C791 1.400 . S
C792 C795 1.386 . S
H793 C809 0.930 . S
H794 C810 0.931 . S
C795 H783 0.929 . S
C795 C789 1.390 . S
C795 C792 1.386 . S
C796 C791 1.490 . S
C796 C798 1.395 . S
C796 C799 1.403 . S
H797 C803 0.930 . S
C798 H784 0.930 . S
C798 C796 1.395 . S
C798 C801 1.403 . S
C799 C796 1.403 . S
C799 C800 1.524 . S
C799 C803 1.400 . S
C800 H785 0.960 . S
C800 H786 0.960 . S
C800 H787 0.960 . S
C800 C799 1.524 . S
C801 C798 1.403 . S
C801 C802 1.392 . S
C801 C805 1.495 . S
C802 C801 1.392 . S
C802 C803 1.385 . S
C802 C804 1.478 . S
C803 H797 0.930 . S
C803 C799 1.400 . S
C803 C802 1.385 . S
C804 C802 1.478 . S
C804 C806 1.381 . S
C804 C810 1.383 . S
C805 C801 1.495 . S
C805 H811 0.959 . S
C805 H812 0.961 . S
C805 H813 0.960 . S
C806 C804 1.381 . S
C806 C807 1.394 . S
C806 H814 0.930 . S
C807 C806 1.394 . S
C807 C808 1.383 . S
C807 H815 0.929 . S
C808 C807 1.383 . S
C808 C809 1.377 . S
C809 H793 0.930 . S
C809 C808 1.377 . S
C809 C810 1.379 . S
C810 H794 0.931 . S
C810 C804 1.383 . S
C810 C809 1.379 . S
H811 C805 0.959 . S
H812 C805 0.961 . S
H813 C805 0.960 . S
H814 C806 0.930 . S
H815 C807 0.929 . S
H816 C824 0.929 . S
H817 C826 0.930 . S
H818 C828 0.930 . S
H819 C831 0.929 . S
H820 C834 0.930 . S
H821 C836 0.960 1_556 S
H822 C836 0.960 . S
H823 C836 0.960 1_556 S
C824 H816 0.929 . S
C824 C825 1.377 . S
C824 C826 1.384 . S
C825 C824 1.377 . S
C825 C831 1.390 . S
C826 H817 0.930 . S
C826 C824 1.384 . S
C826 C827 1.372 . S
C827 C826 1.372 . S
C827 C828 1.400 . S
C827 C832 1.490 . S
C828 H818 0.930 . S
C828 C827 1.400 . S
C828 C831 1.386 . S
H829 C845 0.930 . S
H830 C846 0.931 . S
C831 H819 0.929 . S
C831 C825 1.390 . S
C831 C828 1.386 . S
C832 C827 1.490 . S
C832 C834 1.395 . S
C832 C835 1.403 . S
H833 C839 0.930 . S
C834 H820 0.930 . S
C834 C832 1.395 . S
C834 C837 1.403 1_545 S
C835 C832 1.403 . S
C835 C836 1.524 . S
C835 C839 1.400 1_545 S
C836 H821 0.960 1_554 S
C836 H822 0.960 . S
C836 H823 0.960 1_554 S
C836 C835 1.524 . S
C837 C834 1.403 1_565 S
C837 C838 1.392 . S
C837 C841 1.495 . S
C838 C837 1.392 . S
C838 C839 1.385 . S
C838 C840 1.478 . S
C839 H833 0.930 . S
C839 C835 1.400 1_565 S
C839 C838 1.385 . S
C840 C838 1.478 . S
C840 C842 1.381 . S
C840 C846 1.383 . S
C841 C837 1.495 . S
C841 H847 0.959 . S
C841 H848 0.961 . S
C841 H849 0.960 . S
C842 C840 1.381 . S
C842 C843 1.394 . S
C842 H850 0.930 . S
C843 C842 1.394 . S
C843 C844 1.383 . S
C843 H851 0.929 . S
C844 C843 1.383 . S
C844 C845 1.377 . S
C845 H829 0.930 . S
C845 C844 1.377 . S
C845 C846 1.379 . S
C846 H830 0.931 . S
C846 C840 1.383 . S
C846 C845 1.379 . S
H847 C841 0.959 . S
H848 C841 0.961 . S
H849 C841 0.960 . S
H850 C842 0.930 . S
H851 C843 0.929 . S
H852 C860 0.929 . S
H853 C862 0.930 . S
H854 C864 0.930 . S
H855 C867 0.929 . S
H856 C870 0.930 . S
H857 C872 0.960 . S
H858 C872 0.960 . S
H859 C872 0.960 . S
C860 H852 0.929 . S
C860 C861 1.377 . S
C860 C862 1.384 . S
C861 C860 1.377 . S
C861 C867 1.390 . S
C862 H853 0.930 . S
C862 C860 1.384 . S
C862 C863 1.372 . S
C863 C862 1.372 . S
C863 C864 1.400 . S
C863 C868 1.490 . S
C864 H854 0.930 . S
C864 C863 1.400 . S
C864 C867 1.386 . S
H865 C881 0.930 . S
H866 C882 0.931 . S
C867 H855 0.929 . S
C867 C861 1.390 . S
C867 C864 1.386 . S
C868 C863 1.490 . S
C868 C870 1.395 . S
C868 C871 1.403 . S
H869 C875 0.930 . S
C870 H856 0.930 . S
C870 C868 1.395 . S
C870 C873 1.403 . S
C871 C868 1.403 . S
C871 C872 1.524 . S
C871 C875 1.400 . S
C872 H857 0.960 . S
C872 H858 0.960 . S
C872 H859 0.960 . S
C872 C871 1.524 . S
C873 C870 1.403 . S
C873 C874 1.392 . S
C873 C877 1.495 . S
C874 C873 1.392 . S
C874 C875 1.385 . S
C874 C876 1.478 . S
C875 H869 0.930 . S
C875 C871 1.400 . S
C875 C874 1.385 . S
C876 C874 1.478 . S
C876 C878 1.381 . S
C876 C882 1.383 . S
C877 C873 1.495 . S
C877 H883 0.959 . S
C877 H884 0.961 . S
C877 H885 0.960 . S
C878 C876 1.381 . S
C878 C879 1.394 . S
C878 H886 0.930 . S
C879 C878 1.394 . S
C879 C880 1.383 . S
C879 H887 0.929 . S
C880 C879 1.383 . S
C880 C881 1.377 . S
C881 H865 0.930 . S
C881 C880 1.377 . S
C881 C882 1.379 . S
C882 H866 0.931 . S
C882 C876 1.383 . S
C882 C881 1.379 . S
H883 C877 0.959 . S
H884 C877 0.961 . S
H885 C877 0.960 . S
H886 C878 0.930 . S
H887 C879 0.929 . S
H888 C896 0.929 . S
H889 C898 0.930 . S
H890 C900 0.930 . S
H891 C903 0.929 . S
H892 C906 0.930 . S
H893 C908 0.960 . S
H894 C908 0.960 . S
H895 C908 0.960 . S
C896 H888 0.929 . S
C896 C897 1.377 . S
C896 C898 1.384 . S
C897 C896 1.377 . S
C897 C903 1.390 . S
C898 H889 0.930 . S
C898 C896 1.384 . S
C898 C899 1.372 . S
C899 C898 1.372 . S
C899 C900 1.400 . S
C899 C904 1.490 . S
C900 H890 0.930 . S
C900 C899 1.400 . S
C900 C903 1.386 . S
H901 C917 0.930 . S
H902 C918 0.931 . S
C903 H891 0.929 . S
C903 C897 1.390 . S
C903 C900 1.386 . S
C904 C899 1.490 . S
C904 C906 1.395 . S
C904 C907 1.403 . S
H905 C911 0.930 . S
C906 H892 0.930 . S
C906 C904 1.395 . S
C906 C909 1.403 1_455 S
C907 C904 1.403 . S
C907 C908 1.524 . S
C907 C911 1.400 1_455 S
C908 H893 0.960 . S
C908 H894 0.960 . S
C908 H895 0.960 . S
C908 C907 1.524 . S
C909 C906 1.403 1_655 S
C909 C910 1.392 . S
C909 C913 1.495 . S
C910 C909 1.392 . S
C910 C911 1.385 . S
C910 C912 1.478 . S
C911 H905 0.930 . S
C911 C907 1.400 1_655 S
C911 C910 1.385 . S
C912 C910 1.478 . S
C912 C914 1.381 . S
C912 C918 1.383 . S
C913 C909 1.495 . S
C913 H919 0.959 . S
C913 H920 0.961 . S
C913 H921 0.960 . S
C914 C912 1.381 . S
C914 C915 1.394 . S
C914 H922 0.930 . S
C915 C914 1.394 . S
C915 C916 1.383 . S
C915 H923 0.929 . S
C916 C915 1.383 . S
C916 C917 1.377 . S
C917 H901 0.930 . S
C917 C916 1.377 . S
C917 C918 1.379 . S
C918 H902 0.931 . S
C918 C912 1.383 . S
C918 C917 1.379 . S
H919 C913 0.959 . S
H920 C913 0.961 . S
H921 C913 0.960 . S
H922 C914 0.930 . S
H923 C915 0.929 . S
H924 C932 0.929 . S
H925 C934 0.930 . S
H926 C936 0.930 . S
H927 C939 0.929 . S
H928 C942 0.930 . S
H929 C944 0.960 . S
H930 C944 0.960 . S
H931 C944 0.960 . S
C932 H924 0.929 . S
C932 C933 1.377 . S
C932 C934 1.384 . S
C933 C932 1.377 . S
C933 C939 1.390 . S
C934 H925 0.930 . S
C934 C932 1.384 . S
C934 C935 1.372 . S
C935 C934 1.372 . S
C935 C936 1.400 . S
C935 C940 1.490 . S
C936 H926 0.930 . S
C936 C935 1.400 . S
C936 C939 1.386 . S
H937 C953 0.930 . S
H938 C954 0.931 . S
C939 H927 0.929 . S
C939 C933 1.390 . S
C939 C936 1.386 . S
C940 C935 1.490 . S
C940 C942 1.395 . S
C940 C943 1.403 . S
H941 C947 0.930 . S
C942 H928 0.930 . S
C942 C940 1.395 . S
C942 C945 1.403 1_565 S
C943 C940 1.403 . S
C943 C944 1.524 . S
C943 C947 1.400 1_565 S
C944 H929 0.960 . S
C944 H930 0.960 . S
C944 H931 0.960 . S
C944 C943 1.524 . S
C945 C942 1.403 1_545 S
C945 C946 1.392 . S
C945 C949 1.495 . S
C946 C945 1.392 . S
C946 C947 1.385 . S
C946 C948 1.478 . S
C947 H941 0.930 . S
C947 C943 1.400 1_545 S
C947 C946 1.385 . S
C948 C946 1.478 . S
C948 C950 1.381 . S
C948 C954 1.383 . S
C949 C945 1.495 . S
C949 H955 0.959 . S
C949 H956 0.961 . S
C949 H957 0.960 . S
C950 C948 1.381 . S
C950 C951 1.394 . S
C950 H958 0.930 . S
C951 C950 1.394 . S
C951 C952 1.383 . S
C951 H959 0.929 . S
C952 C951 1.383 . S
C952 C953 1.377 . S
C953 H937 0.930 . S
C953 C952 1.377 . S
C953 C954 1.379 . S
C954 H938 0.931 . S
C954 C948 1.383 . S
C954 C953 1.379 . S
H955 C949 0.959 . S
H956 C949 0.961 . S
H957 C949 0.960 . S
H958 C950 0.930 . S
H959 C951 0.929 . S
H960 C968 0.929 . S
H961 C970 0.930 . S
H962 C972 0.930 . S
H963 C975 0.929 . S
H964 C978 0.930 . S
H965 C980 0.960 . S
H966 C980 0.960 . S
H967 C980 0.960 . S
C968 H960 0.929 . S
C968 C969 1.377 . S
C968 C970 1.384 . S
C969 C968 1.377 . S
C969 C975 1.390 . S
C970 H961 0.930 . S
C970 C968 1.384 . S
C970 C971 1.372 . S
C971 C970 1.372 . S
C971 C972 1.400 . S
C971 C976 1.490 . S
C972 H962 0.930 . S
C972 C971 1.400 . S
C972 C975 1.386 . S
H973 C989 0.930 . S
H974 C990 0.931 . S
C975 H963 0.929 . S
C975 C969 1.390 . S
C975 C972 1.386 . S
C976 C971 1.490 . S
C976 C978 1.395 . S
C976 C979 1.403 . S
H977 C983 0.930 . S
C978 H964 0.930 . S
C978 C976 1.395 . S
C978 C981 1.403 . S
C979 C976 1.403 . S
C979 C980 1.524 . S
C979 C983 1.400 . S
C980 H965 0.960 . S
C980 H966 0.960 . S
C980 H967 0.960 . S
C980 C979 1.524 . S
C981 C978 1.403 . S
C981 C982 1.392 . S
C981 C985 1.495 . S
C982 C981 1.392 . S
C982 C983 1.385 . S
C982 C984 1.478 . S
C983 H977 0.930 . S
C983 C979 1.400 . S
C983 C982 1.385 . S
C984 C982 1.478 . S
C984 C986 1.381 . S
C984 C990 1.383 . S
C985 C981 1.495 . S
C985 H991 0.959 . S
C985 H992 0.961 . S
C985 H993 0.960 . S
C986 C984 1.381 . S
C986 C987 1.394 . S
C986 H994 0.930 . S
C987 C986 1.394 . S
C987 C988 1.383 . S
C987 H995 0.929 . S
C988 C987 1.383 . S
C988 C989 1.377 . S
C989 H973 0.930 . S
C989 C988 1.377 . S
C989 C990 1.379 . S
C990 H974 0.931 . S
C990 C984 1.383 . S
C990 C989 1.379 . S
H991 C985 0.959 . S
H992 C985 0.961 . S
H993 C985 0.960 . S
H994 C986 0.930 . S
H995 C987 0.929 . S
H996 C1004 0.929 . S
H997 C1006 0.930 . S
H998 C1008 0.930 . S
H999 C1011 0.929 . S
H1000 C1014 0.930 . S
H1001 C1016 0.960 1_554 S
H1002 C1016 0.960 . S
H1003 C1016 0.960 . S
C1004 H996 0.929 . S
C1004 C1005 1.377 . S
C1004 C1006 1.384 . S
C1005 C1004 1.377 . S
C1005 C1011 1.390 . S
C1006 H997 0.930 . S
C1006 C1004 1.384 . S
C1006 C1007 1.372 . S
C1007 C1006 1.372 . S
C1007 C1008 1.400 . S
C1007 C1012 1.490 . S
C1008 H998 0.930 . S
C1008 C1007 1.400 . S
C1008 C1011 1.386 . S
H1009 C1025 0.930 . S
H1010 C1026 0.931 . S
C1011 H999 0.929 . S
C1011 C1005 1.390 . S
C1011 C1008 1.386 . S
C1012 C1007 1.490 . S
C1012 C1014 1.395 . S
C1012 C1015 1.403 . S
H1013 C1019 0.930 . S
C1014 H1000 0.930 . S
C1014 C1012 1.395 . S
C1014 C1017 1.403 1_455 S
C1015 C1012 1.403 . S
C1015 C1016 1.524 . S
C1015 C1019 1.400 1_455 S
C1016 H1001 0.960 1_556 S
C1016 H1002 0.960 . S
C1016 H1003 0.960 . S
C1016 C1015 1.524 . S
C1017 C1014 1.403 1_655 S
C1017 C1018 1.392 . S
C1017 C1021 1.495 . S
C1018 C1017 1.392 . S
C1018 C1019 1.385 . S
C1018 C1020 1.478 . S
C1019 H1013 0.930 . S
C1019 C1015 1.400 1_655 S
C1019 C1018 1.385 . S
C1020 C1018 1.478 . S
C1020 C1022 1.381 . S
C1020 C1026 1.383 . S
C1021 C1017 1.495 . S
C1021 H1027 0.959 . S
C1021 H1028 0.961 . S
C1021 H1029 0.960 . S
C1022 C1020 1.381 . S
C1022 C1023 1.394 . S
C1022 H1030 0.930 . S
C1023 C1022 1.394 . S
C1023 C1024 1.383 . S
C1023 H1031 0.929 . S
C1024 C1023 1.383 . S
C1024 C1025 1.377 . S
C1025 H1009 0.930 . S
C1025 C1024 1.377 . S
C1025 C1026 1.379 . S
C1026 H1010 0.931 . S
C1026 C1020 1.383 . S
C1026 C1025 1.379 . S
H1027 C1021 0.959 . S
H1028 C1021 0.961 . S
H1029 C1021 0.960 . S
H1030 C1022 0.930 . S
H1031 C1023 0.929 . S
C177 C4 1.591 . S
C196 C144 1.571 . S
C213 C18 1.591 . S
C232 C158 1.567 . S
C249 C88 1.592 . S
C268 C32 1.563 . S
C285 C46 1.586 . S
C304 C102 1.592 1_556 S
C321 C116 1.593 . S
C340 C60 1.563 . S
C357 C130 1.587 . S
C376 C74 1.590 1_554 S
C393 C117 0.960 . S
C412 C5 0.953 . S
C429 C19 0.968 . S
C448 C131 0.989 . S
C465 C145 0.974 . S
C484 C33 1.020 . S
C501 C47 0.974 . S
C520 C159 1.021 . S
C537 C61 0.950 . S
C556 C89 0.901 . S
C573 C75 0.970 . S
C592 C103 1.003 . S
C609 C151 1.361 . S
C628 C11 1.345 1_556 S
C645 C165 1.370 . S
C664 C25 1.391 . S
C681 C95 1.367 1_554 S
C700 C39 1.345 . S
C717 C53 1.373 . S
C736 C109 1.382 . S
C753 C67 1.364 . S
C772 C123 1.376 . S
C789 C137 1.365 . S
C808 C81 1.340 . S
C825 C12 0.959 . S
C844 C110 0.970 . S
C861 C124 0.963 . S
C880 C26 0.989 . S
C897 C138 0.962 . S
C916 C40 0.987 . S
C933 C54 0.961 . S
C952 C152 0.985 . S
C969 C68 0.964 . S
C988 C166 0.937 . S
C1005 C82 0.970 . S
C1024 C96 0.967 . S
