# Generated by pormake.
# Topology whk, (6)-cn, num edge types: 1
# Building blocks:
#     Node 0, Type 0, BuildingBlock: MIFKUJ_clean_sbu_0, # of connection points: 6
#     Node 1, Type 0, BuildingBlock: MIFKUJ_clean_sbu_0, # of connection points: 6
#     Node 2, Type 0, BuildingBlock: MIFKUJ_clean_sbu_0, # of connection points: 6
#     Node 3, Type 0, BuildingBlock: MIFKUJ_clean_sbu_0, # of connection points: 6
#     Node 4, Type 0, BuildingBlock: MIFKUJ_clean_sbu_0, # of connection points: 6
#     Node 5, Type 0, BuildingBlock: MIFKUJ_clean_sbu_0, # of connection points: 6
#     Node 6, Type 0, BuildingBlock: MIFKUJ_clean_sbu_0, # of connection points: 6
#     Node 7, Type 0, BuildingBlock: MIFKUJ_clean_sbu_0, # of connection points: 6
#     Node 8, Type 0, BuildingBlock: MIFKUJ_clean_sbu_0, # of connection points: 6
#     Node 9, Type 0, BuildingBlock: MIFKUJ_clean_sbu_0, # of connection points: 6
#     Node 10, Type 0, BuildingBlock: MIFKUJ_clean_sbu_0, # of connection points: 6
#     Node 11, Type 0, BuildingBlock: MIFKUJ_clean_sbu_0, # of connection points: 6
#     Node 12, Type 0, BuildingBlock: MIFKUJ_clean_sbu_0, # of connection points: 6
#     Node 13, Type 0, BuildingBlock: MIFKUJ_clean_sbu_0, # of connection points: 6
#     Node 14, Type 0, BuildingBlock: MIFKUJ_clean_sbu_0, # of connection points: 6
#     Node 15, Type 0, BuildingBlock: MIFKUJ_clean_sbu_0, # of connection points: 6
#     Edge 16, Type (0, 0), BuildingBlock: AJUNOK_clean_linker_0, # of connection points: 2
#     Edge 17, Type (0, 0), BuildingBlock: AJUNOK_clean_linker_0, # of connection points: 2
#     Edge 18, Type (0, 0), BuildingBlock: AJUNOK_clean_linker_0, # of connection points: 2
#     Edge 19, Type (0, 0), BuildingBlock: AJUNOK_clean_linker_0, # of connection points: 2
#     Edge 20, Type (0, 0), BuildingBlock: AJUNOK_clean_linker_0, # of connection points: 2
#     Edge 21, Type (0, 0), BuildingBlock: AJUNOK_clean_linker_0, # of connection points: 2
#     Edge 22, Type (0, 0), BuildingBlock: AJUNOK_clean_linker_0, # of connection points: 2
#     Edge 23, Type (0, 0), BuildingBlock: AJUNOK_clean_linker_0, # of connection points: 2
#     Edge 24, Type (0, 0), BuildingBlock: AJUNOK_clean_linker_0, # of connection points: 2
#     Edge 25, Type (0, 0), BuildingBlock: AJUNOK_clean_linker_0, # of connection points: 2
#     Edge 26, Type (0, 0), BuildingBlock: AJUNOK_clean_linker_0, # of connection points: 2
#     Edge 27, Type (0, 0), BuildingBlock: AJUNOK_clean_linker_0, # of connection points: 2
#     Edge 28, Type (0, 0), BuildingBlock: AJUNOK_clean_linker_0, # of connection points: 2
#     Edge 29, Type (0, 0), BuildingBlock: AJUNOK_clean_linker_0, # of connection points: 2
#     Edge 30, Type (0, 0), BuildingBlock: AJUNOK_clean_linker_0, # of connection points: 2
#     Edge 31, Type (0, 0), BuildingBlock: AJUNOK_clean_linker_0, # of connection points: 2
#     Edge 32, Type (0, 0), BuildingBlock: AJUNOK_clean_linker_0, # of connection points: 2
#     Edge 33, Type (0, 0), BuildingBlock: AJUNOK_clean_linker_0, # of connection points: 2
#     Edge 34, Type (0, 0), BuildingBlock: AJUNOK_clean_linker_0, # of connection points: 2
#     Edge 35, Type (0, 0), BuildingBlock: AJUNOK_clean_linker_0, # of connection points: 2
#     Edge 36, Type (0, 0), BuildingBlock: AJUNOK_clean_linker_0, # of connection points: 2
#     Edge 37, Type (0, 0), BuildingBlock: AJUNOK_clean_linker_0, # of connection points: 2
#     Edge 38, Type (0, 0), BuildingBlock: AJUNOK_clean_linker_0, # of connection points: 2
#     Edge 39, Type (0, 0), BuildingBlock: AJUNOK_clean_linker_0, # of connection points: 2
#     Edge 40, Type (0, 0), BuildingBlock: AJUNOK_clean_linker_0, # of connection points: 2
#     Edge 41, Type (0, 0), BuildingBlock: AJUNOK_clean_linker_0, # of connection points: 2
#     Edge 42, Type (0, 0), BuildingBlock: AJUNOK_clean_linker_0, # of connection points: 2
#     Edge 43, Type (0, 0), BuildingBlock: AJUNOK_clean_linker_0, # of connection points: 2
#     Edge 44, Type (0, 0), BuildingBlock: AJUNOK_clean_linker_0, # of connection points: 2
#     Edge 45, Type (0, 0), BuildingBlock: AJUNOK_clean_linker_0, # of connection points: 2
#     Edge 46, Type (0, 0), BuildingBlock: AJUNOK_clean_linker_0, # of connection points: 2
#     Edge 47, Type (0, 0), BuildingBlock: AJUNOK_clean_linker_0, # of connection points: 2
#     Edge 48, Type (0, 0), BuildingBlock: AJUNOK_clean_linker_0, # of connection points: 2
#     Edge 49, Type (0, 0), BuildingBlock: AJUNOK_clean_linker_0, # of connection points: 2
#     Edge 50, Type (0, 0), BuildingBlock: AJUNOK_clean_linker_0, # of connection points: 2
#     Edge 51, Type (0, 0), BuildingBlock: AJUNOK_clean_linker_0, # of connection points: 2
#     Edge 52, Type (0, 0), BuildingBlock: AJUNOK_clean_linker_0, # of connection points: 2
#     Edge 53, Type (0, 0), BuildingBlock: AJUNOK_clean_linker_0, # of connection points: 2
#     Edge 54, Type (0, 0), BuildingBlock: AJUNOK_clean_linker_0, # of connection points: 2
#     Edge 55, Type (0, 0), BuildingBlock: AJUNOK_clean_linker_0, # of connection points: 2
#     Edge 56, Type (0, 0), BuildingBlock: AJUNOK_clean_linker_0, # of connection points: 2
#     Edge 57, Type (0, 0), BuildingBlock: AJUNOK_clean_linker_0, # of connection points: 2
#     Edge 58, Type (0, 0), BuildingBlock: AJUNOK_clean_linker_0, # of connection points: 2
#     Edge 59, Type (0, 0), BuildingBlock: AJUNOK_clean_linker_0, # of connection points: 2
#     Edge 60, Type (0, 0), BuildingBlock: AJUNOK_clean_linker_0, # of connection points: 2
#     Edge 61, Type (0, 0), BuildingBlock: AJUNOK_clean_linker_0, # of connection points: 2
#     Edge 62, Type (0, 0), BuildingBlock: AJUNOK_clean_linker_0, # of connection points: 2
#     Edge 63, Type (0, 0), BuildingBlock: AJUNOK_clean_linker_0, # of connection points: 2
# Relax obj value: 0.403
# Max RMSD: 0.271
# Mean RMSD: 0.271
data_MOF--net-whk--node1-MIFKUJ_clean_sbu_0--edge1-AJUNOK_clean_linker_0
_symmetry_space_group_name_H-M    P1
_symmetry_Int_Tables_number       1
_symmetry_cell_setting            triclinic
loop_
_symmetry_equiv_pos_as_xyz
'x, y, z'
_cell_length_a     31.303294
_cell_length_b     31.236087
_cell_length_c     31.009762
_cell_angle_alpha  90.00191
_cell_angle_beta   90.084379
_cell_angle_gamma 90.401713
loop_
_atom_site_label
_atom_site_type_symbol
_atom_site_fract_x
_atom_site_fract_y
_atom_site_fract_z
_atom_type_partial_charge
Zn0 Zn 0.50323 0.20244 0.35944 0.0
Zn1 Zn 0.63631 0.1683 0.37744 0.0
C2 C 0.45571 0.27751 0.3726 0.0
O3 O 0.46092 0.2633 0.41211 0.0
C4 C 0.69832 0.10675 0.40857 0.0
O5 O 0.72005 0.12206 0.37577 0.0
O6 O 0.45711 0.16432 0.38542 0.0
O7 O 0.52587 0.16942 0.30709 0.0
O8 O 0.5808 0.16335 0.34798 0.0
C9 C 0.42914 0.15412 0.35717 0.0
O10 O 0.43431 0.16829 0.31761 0.0
O11 O 0.47211 0.25643 0.34169 0.0
C12 C 0.67989 0.22187 0.31213 0.0
O13 O 0.64324 0.24157 0.30742 0.0
O14 O 0.68229 0.19047 0.33802 0.0
O15 O 0.62132 0.21556 0.41861 0.0
O16 O 0.55282 0.22281 0.39994 0.0
O17 O 0.65974 0.11877 0.41367 0.0
C18 C 0.56337 0.15516 0.3122 0.0
C19 C 0.58491 0.2333 0.42346 0.0
Zn20 Zn 0.30604 0.50594 0.37062 0.0
Zn21 Zn 0.33954 0.6321 0.38339 0.0
C22 C 0.22761 0.4629 0.39087 0.0
O23 O 0.24831 0.45801 0.4274 0.0
C24 C 0.38416 0.70463 0.42153 0.0
O25 O 0.36612 0.72462 0.38918 0.0
O26 O 0.34387 0.45458 0.38157 0.0
O27 O 0.33084 0.53596 0.31765 0.0
O28 O 0.36529 0.57819 0.36163 0.0
C29 C 0.35125 0.43028 0.34948 0.0
O30 O 0.33378 0.43976 0.31217 0.0
O31 O 0.24593 0.48325 0.36037 0.0
C32 C 0.28294 0.67547 0.32367 0.0
O33 O 0.25679 0.64366 0.33275 0.0
O34 O 0.32127 0.67356 0.33698 0.0
O35 O 0.28664 0.61343 0.41414 0.0
O36 O 0.30438 0.54575 0.42306 0.0
O37 O 0.37814 0.66438 0.42555 0.0
C38 C 0.35661 0.56712 0.32333 0.0
C39 C 0.27724 0.57579 0.42686 0.0
Zn40 Zn 1.00228 0.30876 0.37597 0.0
Zn41 Zn 0.87763 0.35453 0.38933 0.0
C42 C 0.05179 0.23457 0.39091 0.0
O43 O 0.04759 0.24941 0.4303 0.0
C44 C 0.80824 0.40859 0.42107 0.0
O45 O 0.78925 0.39505 0.38578 0.0
O46 O 0.04666 0.35203 0.39704 0.0
O47 O 0.97441 0.33382 0.32317 0.0
O48 O 0.93473 0.3712 0.36648 0.0
C49 C 0.06907 0.36692 0.36606 0.0
O50 O 0.06076 0.3535 0.32678 0.0
O51 O 0.03532 0.25558 0.35993 0.0
C52 C 0.84123 0.30103 0.32012 0.0
O53 O 0.8766 0.27884 0.3233 0.0
O54 O 0.83683 0.33423 0.34329 0.0
O55 O 0.88933 0.3043 0.42779 0.0
O56 O 0.95786 0.286 0.41916 0.0
O57 O 0.84714 0.39835 0.42756 0.0
C58 C 0.94493 0.36099 0.32827 0.0
C59 C 0.92171 0.28179 0.43786 0.0
Zn60 Zn 0.19893 0.00643 0.37965 0.0
Zn61 Zn 0.15405 0.88431 0.38982 0.0
C62 C 0.27264 0.05696 0.39178 0.0
O63 O 0.25665 0.05457 0.43084 0.0
C64 C 0.08365 0.8241 0.41969 0.0
O65 O 0.06343 0.82931 0.38297 0.0
O66 O 0.15788 0.05287 0.39814 0.0
O67 O 0.17192 0.97543 0.32917 0.0
O68 O 0.12625 0.93762 0.36723 0.0
C69 C 0.14822 0.07695 0.36641 0.0
O70 O 0.16455 0.0681 0.32847 0.0
O71 O 0.25231 0.03888 0.36102 0.0
C72 C 0.21284 0.84343 0.33037 0.0
O73 O 0.23892 0.8743 0.34247 0.0
O74 O 0.17422 0.84462 0.3429 0.0
O75 O 0.20419 0.89899 0.42789 0.0
O76 O 0.22319 0.96804 0.42639 0.0
O77 O 0.11725 0.84591 0.42778 0.0
C78 C 0.13965 0.95046 0.33078 0.0
C79 C 0.22665 0.93032 0.44155 0.0
Zn80 Zn 0.0129 0.81564 0.1194 0.0
Zn81 Zn 0.13698 0.81033 0.11484 0.0
C82 C 0.96913 0.73681 0.11218 0.0
O83 O 0.96538 0.75292 0.07322 0.0
C84 C 0.19563 0.8663 0.07513 0.0
O85 O 0.20588 0.86942 0.11611 0.0
O86 O 0.96022 0.85088 0.10723 0.0
O87 O 0.04577 0.84979 0.16658 0.0
O88 O 0.11653 0.85108 0.15752 0.0
C89 C 0.93554 0.85865 0.13883 0.0
O90 O 0.94576 0.84372 0.17707 0.0
O91 O 0.98977 0.7583 0.14043 0.0
C92 C 0.18424 0.76033 0.17912 0.0
O93 O 0.148 0.75303 0.19917 0.0
O94 O 0.18494 0.78094 0.14387 0.0
O95 O 0.09117 0.76885 0.09985 0.0
O96 O 0.04287 0.80212 0.06242 0.0
O97 O 0.16408 0.84234 0.06472 0.0
C98 C 0.08312 0.8632 0.17681 0.0
C99 C 0.07435 0.7767 0.06371 0.0
Zn100 Zn 0.70261 0.99964 0.13822 0.0
Zn101 Zn 0.65545 0.12183 0.11721 0.0
C102 C 0.77558 0.95225 0.12064 0.0
O103 O 0.75741 0.9565 0.08271 0.0
C104 C 0.58777 0.1852 0.09792 0.0
O105 O 0.59273 0.19715 0.13824 0.0
O106 O 0.6609 0.9548 0.11594 0.0
O107 O 0.6751 0.02725 0.19055 0.0
O108 O 0.64468 0.06356 0.13967 0.0
C109 C 0.64842 0.92882 0.14508 0.0
O110 O 0.66264 0.93446 0.18458 0.0
O111 O 0.75684 0.96791 0.15342 0.0
C112 C 0.6906 0.19793 0.14816 0.0
O113 O 0.67826 0.20838 0.1091 0.0
O114 O 0.68318 0.16026 0.16169 0.0
O115 O 0.70279 0.11123 0.07531 0.0
O116 O 0.72218 0.04492 0.09352 0.0
O117 O 0.60769 0.1523 0.08445 0.0
C118 C 0.64958 0.05668 0.17957 0.0
C119 C 0.72641 0.07848 0.07023 0.0
Zn120 Zn 0.5078 0.69406 0.13017 0.0
Zn121 Zn 0.3899 0.64787 0.11934 0.0
C122 C 0.54822 0.77393 0.11219 0.0
O123 O 0.54698 0.75695 0.07346 0.0
C124 C 0.32414 0.59435 0.07976 0.0
O125 O 0.31084 0.58905 0.11957 0.0
O126 O 0.55853 0.65655 0.11848 0.0
O127 O 0.47745 0.66941 0.18216 0.0
O128 O 0.4444 0.62388 0.14057 0.0
C129 C 0.58187 0.64843 0.15106 0.0
O130 O 0.57081 0.66397 0.18876 0.0
O131 O 0.53246 0.75275 0.14354 0.0
C132 C 0.3493 0.69179 0.18865 0.0
O133 O 0.3834 0.71644 0.1861 0.0
O134 O 0.34778 0.65783 0.1663 0.0
O135 O 0.40192 0.70564 0.0937 0.0
O136 O 0.47037 0.70129 0.07664 0.0
O137 O 0.35918 0.61418 0.07291 0.0
C138 C 0.45266 0.6373 0.17826 0.0
C139 C 0.43518 0.72162 0.07633 0.0
Zn140 Zn 0.81695 0.51083 0.14172 0.0
Zn141 Zn 0.86154 0.38601 0.1219 0.0
C142 C 0.74382 0.56025 0.12846 0.0
O143 O 0.76016 0.55856 0.08951 0.0
C144 C 0.92664 0.32257 0.09333 0.0
O145 O 0.92257 0.30594 0.13203 0.0
O146 O 0.85871 0.55607 0.11973 0.0
O147 O 0.84357 0.48333 0.19401 0.0
O148 O 0.87351 0.44363 0.1456 0.0
C149 C 0.87279 0.58039 0.14969 0.0
O150 O 0.85974 0.57325 0.1893 0.0
O151 O 0.76383 0.54228 0.15916 0.0
C152 C 0.82542 0.30991 0.15076 0.0
O153 O 0.83524 0.30122 0.11058 0.0
O154 O 0.83563 0.34625 0.1661 0.0
O155 O 0.81224 0.39805 0.08236 0.0
O156 O 0.79437 0.46542 0.09833 0.0
O157 O 0.90712 0.35723 0.08457 0.0
C158 C 0.86747 0.45203 0.1851 0.0
C159 C 0.78903 0.43099 0.07652 0.0
Zn160 Zn 0.4067 0.82905 0.61372 0.0
Zn161 Zn 0.51952 0.84896 0.61198 0.0
C162 C 0.35588 0.88916 0.56884 0.0
O163 O 0.34755 0.90018 0.6088 0.0
C164 C 0.55777 0.76923 0.6075 0.0
O165 O 0.56605 0.78622 0.56962 0.0
O166 O 0.35661 0.79457 0.63375 0.0
O167 O 0.45358 0.78965 0.5972 0.0
O168 O 0.48731 0.83514 0.55627 0.0
C169 C 0.33549 0.77777 0.60311 0.0
O170 O 0.35056 0.77995 0.56367 0.0
O171 O 0.38382 0.86065 0.56186 0.0
C172 C 0.59713 0.89145 0.63044 0.0
O173 O 0.58236 0.88534 0.6696 0.0
O174 O 0.57471 0.87909 0.59847 0.0
O175 O 0.49063 0.8845 0.65872 0.0
O176 O 0.42081 0.87122 0.65919 0.0
O177 O 0.53739 0.79134 0.63501 0.0
C178 C 0.46592 0.80058 0.55997 0.0
C179 C 0.45335 0.89096 0.67354 0.0
Zn180 Zn 0.65495 0.40428 0.60618 0.0
Zn181 Zn 0.64992 0.5145 0.61477 0.0
C182 C 0.59246 0.36345 0.55509 0.0
O183 O 0.58167 0.34938 0.59351 0.0
C184 C 0.72868 0.55529 0.60733 0.0
O185 O 0.70982 0.56434 0.57059 0.0
O186 O 0.68198 0.34783 0.61502 0.0
O187 O 0.70413 0.4443 0.5956 0.0
O188 O 0.66311 0.48485 0.55688 0.0
C189 C 0.70041 0.33361 0.58159 0.0
O190 O 0.70288 0.35802 0.54719 0.0
O191 O 0.61999 0.3935 0.55252 0.0
C192 C 0.61401 0.5943 0.63595 0.0
O193 O 0.62716 0.5815 0.67405 0.0
O194 O 0.61918 0.56968 0.60372 0.0
O195 O 0.61836 0.48511 0.66502 0.0
O196 O 0.61903 0.41461 0.65728 0.0
O197 O 0.70828 0.53336 0.63518 0.0
C198 C 0.6977 0.46407 0.56068 0.0
C199 C 0.60757 0.44775 0.67754 0.0
Zn200 Zn 0.09978 0.65578 0.59837 0.0
Zn201 Zn 0.98038 0.65837 0.6055 0.0
C202 C 0.14533 0.59169 0.55403 0.0
O203 O 0.15611 0.5827 0.59396 0.0
C204 C 0.94213 0.73705 0.597 0.0
O205 O 0.93011 0.71606 0.56229 0.0
O206 O 0.15404 0.6844 0.6175 0.0
O207 O 0.05903 0.70142 0.58144 0.0
O208 O 0.00765 0.66943 0.54641 0.0
C209 C 0.1598 0.7246 0.61565 0.0
O210 O 0.12855 0.74937 0.60282 0.0
O211 O 0.11714 0.6201 0.54763 0.0
C212 C 0.90237 0.61874 0.63022 0.0
O213 O 0.91731 0.62947 0.66836 0.0
O214 O 0.9246 0.62738 0.597 0.0
O215 O 0.01108 0.62644 0.65451 0.0
O216 O 0.08132 0.6197 0.64676 0.0
O217 O 0.96465 0.71766 0.62493 0.0
C218 C 0.03969 0.69456 0.54632 0.0
C219 C 0.04699 0.61183 0.66683 0.0
Zn220 Zn 0.82419 0.09874 0.60535 0.0
Zn221 Zn 0.84964 0.99275 0.60577 0.0
C222 C 0.88809 0.14774 0.56248 0.0
O223 O 0.8984 0.15674 0.60255 0.0
C224 C 0.7722 0.94853 0.60263 0.0
O225 O 0.7906 0.93763 0.56621 0.0
O226 O 0.78756 0.14917 0.61609 0.0
O227 O 0.78458 0.0515 0.58753 0.0
O228 O 0.83414 0.02247 0.54863 0.0
C229 C 0.76917 0.16225 0.58208 0.0
O230 O 0.77272 0.13961 0.54664 0.0
O231 O 0.85971 0.11932 0.55526 0.0
C232 C 0.88905 0.91325 0.62358 0.0
O233 O 0.88006 0.92533 0.66312 0.0
O234 O 0.88074 0.93844 0.59254 0.0
O235 O 0.88307 0.02299 0.65406 0.0
O236 O 0.86119 0.09034 0.65655 0.0
O237 O 0.79272 0.97252 0.62869 0.0
C238 C 0.79658 0.03755 0.55127 0.0
C239 C 0.88373 0.06007 0.67112 0.0
Zn240 Zn 0.9053 0.17128 0.902 0.0
Zn241 Zn 0.01606 0.16247 0.89503 0.0
C242 C 0.86269 0.10521 0.94716 0.0
O243 O 0.85257 0.09485 0.90737 0.0
C244 C 0.05546 0.24253 0.90399 0.0
O245 O 0.06433 0.22391 0.94089 0.0
O246 O 0.85028 0.20118 0.89339 0.0
O247 O 0.94681 0.21823 0.91619 0.0
O248 O 0.98649 0.17453 0.95296 0.0
C249 C 0.83766 0.21965 0.92751 0.0
O250 O 0.86291 0.22031 0.96136 0.0
O251 O 0.89086 0.13416 0.9533 0.0
C252 C 0.09606 0.12361 0.87651 0.0
O253 O 0.08534 0.13516 0.83723 0.0
O254 O 0.07035 0.13098 0.90728 0.0
O255 O 0.98659 0.13067 0.84484 0.0
O256 O 0.91616 0.13651 0.85003 0.0
O257 O 0.03518 0.22135 0.87536 0.0
C258 C 0.96685 0.20991 0.95053 0.0
C259 C 0.94903 0.12249 0.83112 0.0
Zn260 Zn 0.34398 0.89497 0.8927 0.0
Zn261 Zn 0.34267 0.01256 0.89485 0.0
C262 C 0.40149 0.84998 0.94604 0.0
O263 O 0.41856 0.84262 0.90808 0.0
C264 C 0.26549 0.05287 0.90504 0.0
O265 O 0.28466 0.05737 0.9425 0.0
O266 O 0.32145 0.84145 0.86595 0.0
O267 O 0.29504 0.93396 0.90306 0.0
O268 O 0.32757 0.97648 0.94794 0.0
C269 C 0.29835 0.83935 0.83234 0.0
O270 O 0.28588 0.87474 0.81337 0.0
O271 O 0.3701 0.87541 0.94837 0.0
C272 C 0.38535 0.09081 0.88008 0.0
O273 O 0.37555 0.07876 0.84069 0.0
O274 O 0.37499 0.06642 0.91135 0.0
O275 O 0.37627 0.98664 0.84463 0.0
O276 O 0.38713 0.91671 0.85187 0.0
O277 O 0.28532 0.03381 0.87489 0.0
C278 C 0.29876 0.94842 0.94095 0.0
C279 C 0.39412 0.95201 0.83296 0.0
Zn280 Zn 0.5998 0.34053 0.91377 0.0
Zn281 Zn 0.48563 0.34571 0.90527 0.0
C282 C 0.64738 0.40383 0.95869 0.0
O283 O 0.65515 0.41542 0.91873 0.0
C284 C 0.44803 0.26399 0.9124 0.0
O285 O 0.43804 0.28153 0.94953 0.0
O286 O 0.6525 0.30816 0.90101 0.0
O287 O 0.55639 0.29528 0.92768 0.0
O288 O 0.51319 0.33538 0.96455 0.0
C289 C 0.66646 0.28816 0.93372 0.0
O290 O 0.64352 0.28765 0.96914 0.0
O291 O 0.61918 0.37507 0.96558 0.0
C292 C 0.40777 0.38324 0.87882 0.0
O293 O 0.42299 0.37108 0.84135 0.0
O294 O 0.42973 0.37622 0.91264 0.0
O295 O 0.51704 0.37759 0.85657 0.0
O296 O 0.58764 0.37724 0.86319 0.0
O297 O 0.46915 0.28615 0.88523 0.0
C298 C 0.5374 0.30296 0.96271 0.0
C299 C 0.55409 0.38865 0.84351 0.0
Zn300 Zn 0.18568 0.61096 0.87768 0.0
Zn301 Zn 0.1598 0.49466 0.88889 0.0
C302 C 0.1344 0.67485 0.91881 0.0
O303 O 0.12399 0.68304 0.87863 0.0
C304 C 0.23621 0.45218 0.89654 0.0
O305 O 0.21735 0.4467 0.93399 0.0
O306 O 0.22571 0.65223 0.84901 0.0
O307 O 0.21904 0.56185 0.90029 0.0
O308 O 0.17595 0.52756 0.94342 0.0
C309 C 0.2149 0.67685 0.81832 0.0
O310 O 0.17674 0.67266 0.80109 0.0
O311 O 0.15973 0.64411 0.92669 0.0
C312 C 0.11758 0.41587 0.87385 0.0
O313 O 0.12872 0.42658 0.83444 0.0
O314 O 0.1266 0.44144 0.90453 0.0
O315 O 0.12497 0.52463 0.84183 0.0
O316 O 0.13964 0.59436 0.837 0.0
O317 O 0.2165 0.47276 0.86726 0.0
C318 C 0.20827 0.55191 0.93834 0.0
C319 C 0.11858 0.56145 0.82544 0.0
C320 C 0.6264 0.11411 0.28488 0.0
C321 C 0.58647 0.13314 0.27689 0.0
C322 C 0.6473 0.09022 0.25302 0.0
C323 C 0.62915 0.08466 0.2119 0.0
H324 H 0.64115 0.11652 0.31636 0.0
H325 H 0.6776 0.07557 0.26086 0.0
S326 S 0.52438 0.12592 0.17493 0.0
N327 N 0.52933 0.1439 0.22472 0.0
N328 N 0.56842 0.09886 0.16523 0.0
C329 C 0.58949 0.10377 0.2033 0.0
C330 C 0.56817 0.12797 0.2357 0.0
C331 C 0.39856 0.58692 0.21011 0.0
C332 C 0.42691 0.62178 0.21547 0.0
C333 C 0.37467 0.57066 0.24471 0.0
C334 C 0.37857 0.5881 0.28636 0.0
H335 H 0.39491 0.57172 0.1789 0.0
H336 H 0.35387 0.54341 0.23887 0.0
S337 S 0.44697 0.68096 0.3175 0.0
N338 N 0.45601 0.67447 0.26552 0.0
N339 N 0.41224 0.64325 0.33068 0.0
C340 C 0.40625 0.62349 0.29207 0.0
C341 C 0.4302 0.64038 0.25669 0.0
C342 C 0.88643 0.40537 0.29628 0.0
C343 C 0.92309 0.3802 0.29048 0.0
C344 C 0.86739 0.42676 0.26159 0.0
C345 C 0.88474 0.42459 0.21983 0.0
H346 H 0.87276 0.4095 0.32804 0.0
H347 H 0.83952 0.44614 0.26789 0.0
S348 S 0.98301 0.36687 0.1881 0.0
N349 N 0.97707 0.35591 0.23979 0.0
N350 N 0.94211 0.39732 0.17505 0.0
C351 C 0.92141 0.39965 0.21348 0.0
C352 C 0.94045 0.37731 0.24869 0.0
C353 C 0.08863 0.90098 0.29223 0.0
C354 C 0.12135 0.93227 0.29043 0.0
C355 C 0.07323 0.88094 0.25467 0.0
C356 C 0.09005 0.89159 0.21412 0.0
H357 H 0.07576 0.89083 0.32296 0.0
H358 H 0.05002 0.85522 0.25769 0.0
S359 S 0.17126 0.97532 0.1906 0.0
N360 N 0.16638 0.97602 0.24358 0.0
N361 N 0.13767 0.93805 0.1735 0.0
C362 C 0.12063 0.9246 0.21153 0.0
C363 C 0.13623 0.94504 0.24953 0.0
C364 C 0.45442 0.92413 0.78957 0.0
C365 C 0.41773 0.94982 0.79203 0.0
C366 C 0.46933 0.90906 0.74978 0.0
C367 C 0.44723 0.91837 0.71154 0.0
H368 H 0.46968 0.91292 0.81882 0.0
H369 H 0.49559 0.88663 0.74949 0.0
S370 S 0.35331 0.98901 0.70005 0.0
N371 N 0.36311 0.98831 0.75241 0.0
N372 N 0.39034 0.95884 0.67773 0.0
C373 C 0.41294 0.94708 0.7132 0.0
C374 C 0.39838 0.96321 0.75353 0.0
C375 C 0.59173 0.44275 0.79777 0.0
C376 C 0.55945 0.41138 0.80201 0.0
C377 C 0.60428 0.45796 0.75707 0.0
C378 C 0.58578 0.44136 0.71925 0.0
H379 H 0.60886 0.45403 0.82601 0.0
H380 H 0.63092 0.48021 0.75509 0.0
S381 S 0.49757 0.36182 0.71286 0.0
N382 N 0.50663 0.36731 0.76507 0.0
N383 N 0.5315 0.39454 0.68851 0.0
C384 C 0.55183 0.41193 0.72314 0.0
C385 C 0.53828 0.39731 0.76459 0.0
C386 C 0.07597 0.55357 0.71245 0.0
C387 C 0.05154 0.59109 0.70915 0.0
C388 C 0.09389 0.54106 0.75196 0.0
C389 C 0.0889 0.5665 0.78892 0.0
H390 H 0.08397 0.53563 0.6837 0.0
H391 H 0.11505 0.51376 0.75257 0.0
S392 S 0.02396 0.66482 0.7982 0.0
N393 N 0.01942 0.65074 0.74703 0.0
N394 N 0.05432 0.62813 0.82099 0.0
C395 C 0.06177 0.60209 0.78675 0.0
C396 C 0.04269 0.61417 0.74684 0.0
C397 C 0.93603 0.10481 0.71193 0.0
C398 C 0.90908 0.06858 0.71038 0.0
C399 C 0.95288 0.11969 0.7512 0.0
C400 C 0.94233 0.09943 0.79021 0.0
H401 H 0.94235 0.12302 0.68286 0.0
H402 H 0.97142 0.14912 0.75138 0.0
S403 S 0.87521 1.00213 0.80328 0.0
N404 N 0.87523 0.01109 0.75075 0.0
N405 N 0.90536 0.04017 0.82483 0.0
C406 C 0.91721 0.06201 0.78884 0.0
C407 C 0.90099 0.04622 0.74878 0.0
C408 C 0.36424 0.11301 0.33373 0.0
C409 C 0.39062 0.12787 0.36757 0.0
C410 C 0.32662 0.08976 0.3418 0.0
C411 C 0.31345 0.08053 0.38412 0.0
H412 H 0.3725 0.11952 0.30046 0.0
H413 H 0.30744 0.07947 0.31455 0.0
S414 S 0.3717 0.11068 0.4844 0.0
N415 N 0.40137 0.13058 0.44516 0.0
N416 N 0.33072 0.08699 0.46053 0.0
C417 C 0.33983 0.09462 0.41837 0.0
C418 C 0.37836 0.11817 0.41007 0.0
C419 C 0.39404 0.37966 0.39489 0.0
C420 C 0.37866 0.3917 0.35402 0.0
C421 C 0.41916 0.34303 0.4003 0.0
C422 C 0.43026 0.31688 0.36507 0.0
H423 H 0.38638 0.39845 0.42316 0.0
H424 H 0.42989 0.3352 0.43256 0.0
S425 S 0.39878 0.3343 0.25101 0.0
N426 N 0.37689 0.37444 0.27739 0.0
N427 N 0.42414 0.30582 0.28771 0.0
C428 C 0.41556 0.32871 0.32391 0.0
C429 C 0.38976 0.36597 0.31838 0.0
C430 C 0.12781 0.39588 0.41335 0.0
C431 C 0.10643 0.39566 0.37347 0.0
C432 C 0.16631 0.41865 0.41893 0.0
C433 C 0.18489 0.44233 0.38492 0.0
H434 H 0.11564 0.37701 0.44001 0.0
H435 H 0.1821 0.41673 0.44996 0.0
S436 S 0.13847 0.45652 0.27561 0.0
N437 N 0.10455 0.42431 0.30052 0.0
N438 N 0.17656 0.46704 0.311 0.0
C439 C 0.16259 0.44412 0.34554 0.0
C440 C 0.12352 0.42081 0.33982 0.0
C441 C 0.11312 0.13199 0.41333 0.0
C442 C 0.12157 0.11583 0.37192 0.0
C443 C 0.09045 0.17019 0.419 0.0
C444 C 0.07505 0.19381 0.38351 0.0
H445 H 0.12478 0.11548 0.44168 0.0
H446 H 0.08522 0.18136 0.45163 0.0
S447 S 0.0864 0.16402 0.2682 0.0
N448 N 0.11105 0.12557 0.29468 0.0
N449 N 0.06861 0.19715 0.30542 0.0
C450 C 0.08245 0.1775 0.34193 0.0
C451 C 0.10563 0.13864 0.33613 0.0
C452 C 0.8691 0.89157 0.16904 0.0
C453 C 0.89548 0.88349 0.13316 0.0
C454 C 0.83075 0.91422 0.16489 0.0
C455 C 0.81695 0.92951 0.12462 0.0
H456 H 0.87794 0.88015 0.20078 0.0
H457 H 0.8115 0.91921 0.19343 0.0
S458 S 0.87508 0.91911 0.02074 0.0
N459 N 0.90555 0.89418 0.05608 0.0
N460 N 0.83363 0.93655 0.04827 0.0
C461 C 0.84325 0.92224 0.08851 0.0
C462 C 0.88242 0.89933 0.09277 0.0
C463 C 0.58212 0.82771 0.16168 0.0
C464 C 0.57078 0.81536 0.11958 0.0
C465 C 0.60638 0.86482 0.16938 0.0
C466 C 0.62025 0.89144 0.13537 0.0
H467 H 0.57315 0.80802 0.189 0.0
H468 H 0.61483 0.87222 0.20244 0.0
S469 S 0.59594 0.8755 0.01923 0.0
N470 N 0.573 0.83427 0.04342 0.0
N471 N 0.61858 0.90399 0.05798 0.0
C472 C 0.60785 0.88034 0.09316 0.0
C473 C 0.58319 0.84235 0.08527 0.0
C474 C 0.64016 0.61847 0.10519 0.0
C475 C 0.62227 0.62431 0.14631 0.0
C476 C 0.67939 0.59779 0.09994 0.0
C477 C 0.70229 0.58182 0.13555 0.0
H478 H 0.62415 0.63057 0.07674 0.0
H479 H 0.6918 0.59444 0.06753 0.0
S480 S 0.66817 0.58675 0.25008 0.0
N481 N 0.62968 0.61098 0.2233 0.0
N482 N 0.70329 0.57204 0.2134 0.0
C483 C 0.68437 0.5867 0.17685 0.0
C484 C 0.64445 0.60796 0.18222 0.0
C485 C 0.92704 0.67195 0.08949 0.0
C486 C 0.94769 0.69533 0.12254 0.0
C487 C 0.90414 0.63413 0.09822 0.0
C488 C 0.90063 0.61814 0.14044 0.0
H489 H 0.92791 0.68323 0.05648 0.0
H490 H 0.88807 0.61803 0.07178 0.0
S491 S 0.95152 0.66508 0.23822 0.0
N492 N 0.96512 0.69806 0.19892 0.0
N493 N 0.92217 0.62722 0.21543 0.0
C494 C 0.92229 0.64037 0.17364 0.0
C495 C 0.94578 0.67882 0.16469 0.0
C496 C 0.7042 0.91417 0.57825 0.0
C497 C 0.72737 0.9354 0.61092 0.0
C498 C 0.66183 0.90116 0.58451 0.0
C499 C 0.64088 0.9085 0.62384 0.0
H500 H 0.71883 0.90733 0.5474 0.0
H501 H 0.64572 0.88438 0.55851 0.0
S502 S 0.6862 0.96506 0.719 0.0
N503 N 0.72547 0.9649 0.68352 0.0
N504 N 0.64577 0.94013 0.69543 0.0
C505 C 0.66329 0.93042 0.65659 0.0
C506 C 0.7065 0.94396 0.6501 0.0
C507 C 0.59428 0.65544 0.58819 0.0
C508 C 0.59718 0.63817 0.62996 0.0
C509 C 0.58134 0.6977 0.58152 0.0
C510 C 0.57033 0.72443 0.61626 0.0
H511 H 0.6029 0.6365 0.56031 0.0
H512 H 0.58004 0.70945 0.54867 0.0
S513 S 0.57057 0.69434 0.73199 0.0
N514 N 0.58665 0.65082 0.70671 0.0
N515 N 0.56198 0.73027 0.69397 0.0
C516 C 0.57206 0.70739 0.65817 0.0
C517 C 0.58561 0.66431 0.66506 0.0
C518 C 0.84007 0.59741 0.58448 0.0
C519 C 0.85896 0.59995 0.62559 0.0
C520 C 0.79817 0.58254 0.57913 0.0
C521 C 0.7734 0.56925 0.61458 0.0
H522 H 0.85744 0.60777 0.55611 0.0
H523 H 0.7851 0.58165 0.54677 0.0
S524 S 0.80844 0.56706 0.72889 0.0
N525 N 0.85013 0.58616 0.7024 0.0
N526 N 0.77127 0.55797 0.69213 0.0
C527 C 0.79216 0.57038 0.65578 0.0
C528 C 0.8349 0.58584 0.66133 0.0
C529 C 0.92077 0.8446 0.64967 0.0
C530 C 0.90488 0.86939 0.61535 0.0
C531 C 0.9334 0.80207 0.6434 0.0
C532 C 0.9301 0.7825 0.60268 0.0
H533 H 0.92322 0.85801 0.6818 0.0
H534 H 0.94508 0.7842 0.67089 0.0
S535 S 0.89189 0.83385 0.50175 0.0
N536 N 0.8877 0.87148 0.5388 0.0
N537 N 0.91111 0.7917 0.52707 0.0
C538 C 0.91491 0.80714 0.56791 0.0
C539 C 0.90243 0.85053 0.57421 0.0
C540 C 0.16381 0.09047 0.85009 0.0
C541 C 0.13839 0.10418 0.88483 0.0
C542 C 0.20459 0.07337 0.85686 0.0
C543 C 0.22175 0.0697 0.89862 0.0
H544 H 0.15223 0.09304 0.81726 0.0
H545 H 0.22299 0.06356 0.82905 0.0
S546 S 0.16789 0.10004 0.00082 0.0
N547 N 0.13318 0.11215 0.96272 0.0
N548 N 0.20961 0.08022 0.97546 0.0
C549 C 0.19649 0.08286 0.93373 0.0
C550 C 0.15489 0.10001 0.92685 0.0
C551 C 0.4029 0.15203 0.92925 0.0
C552 C 0.40458 0.13372 0.88788 0.0
C553 C 0.41753 0.19387 0.93675 0.0
C554 C 0.43476 0.21914 0.90329 0.0
H555 H 0.38918 0.13435 0.95596 0.0
H556 H 0.41486 0.20657 0.96913 0.0
S557 S 0.44947 0.18511 0.78962 0.0
N558 N 0.42707 0.14331 0.81333 0.0
N559 N 0.45468 0.22186 0.82755 0.0
C560 C 0.43799 0.20076 0.86203 0.0
C561 C 0.42284 0.15814 0.8543 0.0
C562 C 0.34511 0.40646 0.92253 0.0
C563 C 0.36465 0.40249 0.88196 0.0
C564 C 0.30377 0.42265 0.9266 0.0
C565 C 0.28018 0.43594 0.89033 0.0
H566 H 0.36157 0.3964 0.95152 0.0
H567 H 0.29027 0.42474 0.95867 0.0
S568 S 0.31715 0.43377 0.77674 0.0
N569 N 0.35755 0.41423 0.80461 0.0
N570 N 0.27979 0.44496 0.81246 0.0
C571 C 0.29951 0.43293 0.84956 0.0
C572 C 0.34168 0.4161 0.84533 0.0
C573 C 0.09121 0.3445 0.84779 0.0
C574 C 0.09827 0.3731 0.88231 0.0
C575 C 0.07625 0.30267 0.85487 0.0
C576 C 0.06826 0.28764 0.89677 0.0
H577 H 0.09803 0.35413 0.81495 0.0
H578 H 0.07216 0.28159 0.8274 0.0
S579 S 0.07645 0.3508 0.99791 0.0
N580 N 0.09224 0.38421 0.9598 0.0
N581 N 0.06482 0.30549 0.97303 0.0
C582 C 0.07358 0.31624 0.93147 0.0
C583 C 0.08835 0.35898 0.92426 0.0
C584 C 0.75798 0.21708 0.29828 0.0
C585 C 0.72043 0.24166 0.29733 0.0
C586 C 0.79832 0.23666 0.29999 0.0
C587 C 0.80233 0.28148 0.30112 0.0
H588 H 0.75611 0.18259 0.30167 0.0
H589 H 0.82592 0.21654 0.30501 0.0
S590 S 0.71508 0.35969 0.28568 0.0
N591 N 0.69058 0.31272 0.28734 0.0
N592 N 0.76654 0.34951 0.29059 0.0
C593 C 0.76563 0.30609 0.29346 0.0
C594 C 0.72451 0.28614 0.2915 0.0
C595 C 0.22083 0.72418 0.3128 0.0
C596 C 0.26528 0.71786 0.31157 0.0
C597 C 0.20363 0.76543 0.31419 0.0
C598 C 0.23022 0.80203 0.31469 0.0
H599 H 0.19915 0.69719 0.31592 0.0
H600 H 0.16943 0.76835 0.31837 0.0
S601 S 0.34776 0.80289 0.29872 0.0
N602 N 0.33478 0.75163 0.301 0.0
N603 N 0.30251 0.82921 0.30409 0.0
C604 C 0.27423 0.7962 0.3077 0.0
C605 C 0.29175 0.7541 0.30612 0.0
C606 C 0.30211 0.7544 0.19682 0.0
C607 C 0.30827 0.71018 0.20205 0.0
C608 C 0.26102 0.7711 0.19337 0.0
C609 C 0.2249 0.74429 0.19582 0.0
H610 H 0.32895 0.77574 0.19119 0.0
H611 H 0.25756 0.80476 0.18569 0.0
S612 S 0.22381 0.62818 0.21934 0.0
N613 N 0.27502 0.64111 0.21685 0.0
N614 N 0.19737 0.67303 0.21092 0.0
C615 C 0.23039 0.70108 0.20629 0.0
C616 C 0.27233 0.68386 0.2093 0.0
C617 C 0.79878 0.23918 0.17428 0.0
C618 C 0.79223 0.28351 0.17104 0.0
C619 C 0.76409 0.21056 0.1741 0.0
C620 C 0.72221 0.22571 0.16932 0.0
H621 H 0.83083 0.22643 0.17233 0.0
H622 H 0.77049 0.17658 0.17195 0.0
S623 S 0.68818 0.33887 0.16708 0.0
N624 N 0.74084 0.34133 0.17004 0.0
N625 N 0.67565 0.28741 0.16784 0.0
C626 C 0.71515 0.26993 0.17128 0.0
C627 C 0.75033 0.29901 0.1726 0.0
C628 C 0.21675 0.77135 0.58617 0.0
C629 C 0.20363 0.74149 0.61738 0.0
C630 C 0.25975 0.7826 0.58185 0.0
C631 C 0.29075 0.76557 0.60962 0.0
H632 H 0.19397 0.78473 0.56366 0.0
H633 H 0.26881 0.80479 0.55654 0.0
S634 S 0.2721 0.6904 0.70003 0.0
N635 N 0.22437 0.69714 0.67827 0.0
N636 N 0.30537 0.7205 0.67164 0.0
C637 C 0.27784 0.73779 0.64268 0.0
C638 C 0.23414 0.72515 0.64619 0.0
C639 C 0.74163 0.22676 0.61978 0.0
C640 C 0.74903 0.20473 0.581 0.0
C641 C 0.72558 0.26838 0.61965 0.0
C642 C 0.71686 0.28964 0.58072 0.0
H643 H 0.74864 0.21195 0.65056 0.0
H644 H 0.72066 0.28423 0.6503 0.0
S645 S 0.72873 0.24544 0.47025 0.0
N646 N 0.74482 0.20672 0.50249 0.0
N647 N 0.71505 0.28516 0.50235 0.0
C648 C 0.72342 0.26781 0.54166 0.0
C649 C 0.73933 0.22524 0.54178 0.0
C650 C 0.77108 0.24506 0.89207 0.0
C651 C 0.79422 0.23728 0.93011 0.0
C652 C 0.72956 0.26115 0.89358 0.0
C653 C 0.70949 0.26943 0.93319 0.0
H654 H 0.78522 0.23904 0.86081 0.0
H655 H 0.71308 0.26706 0.86344 0.0
S656 S 0.75609 0.25379 0.04229 0.0
N657 N 0.79395 0.23871 0.0087 0.0
N658 N 0.71572 0.26852 0.01153 0.0
C659 C 0.73207 0.26135 0.97158 0.0
C660 C 0.77455 0.24545 0.97003 0.0
C661 C 0.24023 0.79382 0.80096 0.0
C662 C 0.2814 0.79728 0.81879 0.0
C663 C 0.21996 0.75382 0.79707 0.0
C664 C 0.24034 0.71616 0.81088 0.0
H665 H 0.22235 0.8223 0.7929 0.0
H666 H 0.18705 0.75291 0.78626 0.0
S667 S 0.35237 0.70747 0.84884 0.0
N668 N 0.34479 0.75934 0.84254 0.0
N669 N 0.30685 0.68419 0.83501 0.0
C670 C 0.28322 0.71892 0.82413 0.0
C671 C 0.30372 0.75953 0.82821 0.0
C672 C 0.76574 0.07546 0.43906 0.0
C673 C 0.72128 0.08222 0.44274 0.0
C674 C 0.78981 0.05856 0.4733 0.0
C675 C 0.77041 0.0479 0.5127 0.0
H676 H 0.78261 0.08496 0.4101 0.0
H677 H 0.8241 0.05601 0.46963 0.0
S678 S 0.65453 0.05309 0.53735 0.0
N679 N 0.65846 0.07225 0.48788 0.0
N680 N 0.70361 0.04059 0.55196 0.0
C681 C 0.72572 0.05179 0.51593 0.0
C682 C 0.70119 0.0689 0.48109 0.0
C683 C 0.43975 0.7329 0.52674 0.0
C684 C 0.44871 0.77691 0.52239 0.0
C685 C 0.4202 0.70955 0.4935 0.0
C686 C 0.40831 0.72937 0.45463 0.0
H687 H 0.44747 0.71635 0.55644 0.0
H688 H 0.41338 0.67593 0.49889 0.0
S689 S 0.4257 0.844 0.42672 0.0
N690 N 0.44536 0.83933 0.47591 0.0
N691 N 0.40823 0.79581 0.41329 0.0
C692 C 0.418 0.77332 0.44946 0.0
C693 C 0.43836 0.79698 0.48332 0.0
C694 C 0.73847 0.43761 0.44837 0.0
C695 C 0.78224 0.42928 0.45558 0.0
C696 C 0.7115 0.45122 0.48187 0.0
C697 C 0.72714 0.45662 0.524 0.0
H698 H 0.72442 0.43214 0.4169 0.0
H699 H 0.67781 0.45541 0.47517 0.0
S700 S 0.83975 0.44484 0.55935 0.0
N701 N 0.84042 0.4319 0.50773 0.0
N702 N 0.7897 0.45689 0.57041 0.0
C703 C 0.77111 0.45075 0.53123 0.0
C704 C 0.79866 0.4373 0.49714 0.0
C705 C 0.01805 0.74613 0.48799 0.0
C706 C 0.04996 0.72226 0.50894 0.0
C707 C 0.02884 0.7786 0.45824 0.0
C708 C 0.07184 0.78832 0.44888 0.0
H709 H 0.98477 0.74106 0.49606 0.0
H710 H 0.00351 0.79719 0.44375 0.0
S711 S 0.16651 0.72929 0.4887 0.0
N712 N 0.12567 0.70684 0.51385 0.0
N713 N 0.14591 0.76733 0.4583 0.0
C714 C 0.10369 0.76285 0.46769 0.0
C715 C 0.09274 0.72996 0.49764 0.0
C716 C 0.23984 0.89974 0.96582 0.0
C717 C 0.27341 0.9283 0.97627 0.0
C718 C 0.21465 0.88039 0.9978 0.0
C719 C 0.22195 0.88852 0.0418 0.0
H720 H 0.23267 0.89223 0.93247 0.0
H721 H 0.18945 0.85859 0.98783 0.0
S722 S 0.30598 0.96067 0.08671 0.0
N723 N 0.31254 0.96373 0.034 0.0
N724 N 0.26549 0.92737 0.09421 0.0
C725 C 0.25542 0.91707 0.05282 0.0
C726 C 0.28102 0.93694 0.02011 0.0
C727 C 0.56239 0.2009 0.02306 0.0
C728 C 0.56759 0.21453 0.06601 0.0
C729 C 0.55064 0.22954 0.99047 0.0
C730 C 0.54321 0.27304 0.99932 0.0
H731 H 0.56906 0.1681 0.01408 0.0
H732 H 0.54854 0.21766 0.95769 0.0
S733 S 0.54973 0.32509 0.10646 0.0
N734 N 0.5621 0.27462 0.11588 0.0
N735 N 0.53968 0.32817 0.05425 0.0
C736 C 0.54593 0.28685 0.04229 0.0
C737 C 0.5582 0.25768 0.0757 0.0
C738 C 0.23475 0.54207 0.01439 0.0
C739 C 0.23643 0.56436 0.97496 0.0
C740 C 0.26356 0.55152 0.04798 0.0
C741 C 0.29536 0.58331 0.04325 0.0
H742 H 0.21151 0.51666 0.01915 0.0
H743 H 0.26111 0.53354 0.07775 0.0
S744 S 0.31044 0.65402 0.94819 0.0
N745 N 0.27061 0.62192 0.93452 0.0
N746 N 0.32471 0.63915 0.99714 0.0
C747 C 0.29677 0.6064 0.00434 0.0
C748 C 0.26731 0.59709 0.97039 0.0
C749 C 0.95347 0.2524 0.0646 0.0
C750 C 0.94475 0.2962 0.05777 0.0
C751 C 0.96295 0.22483 0.0301 0.0
C752 C 0.96375 0.23996 0.98745 0.0
H753 H 0.95097 0.23871 0.09659 0.0
H754 H 0.96741 0.1911 0.03666 0.0
S755 S 0.95109 0.35289 0.95268 0.0
N756 N 0.94352 0.35414 0.00533 0.0
N757 N 0.96061 0.30236 0.94075 0.0
C758 C 0.95806 0.28408 0.98047 0.0
C759 C 0.94882 0.31219 0.01552 0.0
C760 C 0.31526 0.8732 0.50143 0.0
C761 C 0.32658 0.90248 0.53404 0.0
C762 C 0.28261 0.88241 0.47197 0.0
C763 C 0.26084 0.92167 0.47331 0.0
H764 H 0.33051 0.84222 0.49965 0.0
H765 H 0.27445 0.85858 0.44787 0.0
S766 S 0.28101 0.01055 0.55018 0.0
N767 N 0.31496 0.97298 0.5648 0.0
N768 N 0.25452 0.99092 0.50844 0.0
C769 C 0.27313 0.95194 0.50459 0.0
C770 C 0.30575 0.94217 0.5352 0.0
C771 C 0.61488 0.33418 0.4838 0.0
C772 C 0.58436 0.33573 0.51708 0.0
C773 C 0.61399 0.30144 0.45297 0.0
C774 C 0.58191 0.26976 0.45345 0.0
H775 H 0.64125 0.35679 0.48296 0.0
H776 H 0.63927 0.30031 0.42915 0.0
S777 S 0.4917 0.26209 0.53021 0.0
N778 N 0.51913 0.30455 0.5464 0.0
N779 N 0.51708 0.24358 0.4875 0.0
C780 C 0.54954 0.27251 0.48451 0.0
C781 C 0.55084 0.30541 0.51653 0.0
C782 C 0.20421 0.59763 0.44814 0.0
C783 C 0.23968 0.57118 0.45533 0.0
C784 C 0.17156 0.601 0.47864 0.0
C785 C 0.17344 0.57855 0.51794 0.0
H786 H 0.20266 0.61752 0.41954 0.0
H787 H 0.14622 0.62363 0.47244 0.0
S788 S 0.25594 0.4994 0.54907 0.0
N789 N 0.27213 0.5179 0.50192 0.0
N790 N 0.2107 0.5242 0.55955 0.0
C791 C 0.2068 0.54903 0.52379 0.0
C792 C 0.23999 0.54537 0.49243 0.0
C793 C 0.86996 0.18841 0.49594 0.0
C794 C 0.9001 0.17808 0.52794 0.0
C795 C 0.8773 0.22213 0.4671 0.0
C796 C 0.91547 0.24611 0.46849 0.0
H797 H 0.83962 0.17159 0.49427 0.0
H798 H 0.8528 0.22953 0.44357 0.0
S799 S 0.00568 0.23021 0.54422 0.0
N800 N 0.97012 0.1935 0.55837 0.0
N801 N 0.98445 0.25621 0.50314 0.0
C802 C 0.94659 0.23507 0.49913 0.0
C803 C 0.93874 0.20125 0.52914 0.0
C804 C 0.82367 0.12452 0.01437 0.0
C805 C 0.83263 0.09399 0.98229 0.0
C806 C 0.78927 0.11896 0.04268 0.0
C807 C 0.76326 0.08215 0.04082 0.0
H808 H 0.84195 0.15402 0.01632 0.0
H809 H 0.78274 0.14392 0.066 0.0
S810 S 0.77506 0.99111 0.96534 0.0
N811 N 0.81382 0.02466 0.95174 0.0
N812 N 0.74988 0.01369 0.00614 0.0
C813 C 0.77307 0.05035 0.01052 0.0
C814 C 0.80758 0.05641 0.98096 0.0
C815 C 0.44902 0.79572 0.98032 0.0
C816 C 0.41332 0.82274 0.98335 0.0
C817 C 0.45707 0.76435 0.01154 0.0
C818 C 0.42951 0.75852 0.04685 0.0
H819 H 0.47016 0.79767 0.95275 0.0
H820 H 0.484 0.7433 0.00679 0.0
S821 S 0.33484 0.82463 0.07317 0.0
N822 N 0.35261 0.84441 0.02715 0.0
N823 N 0.36769 0.78539 0.08564 0.0
C824 C 0.3952 0.78704 0.05176 0.0
C825 C 0.38716 0.81921 0.02013 0.0
C826 C 0.72667 0.38872 0.04952 0.0
C827 C 0.75118 0.42665 0.04817 0.0
C828 C 0.69106 0.38296 0.02263 0.0
C829 C 0.67926 0.41443 0.99249 0.0
H830 H 0.73522 0.36312 0.07143 0.0
H831 H 0.67394 0.35274 0.02413 0.0
S832 S 0.73183 0.52019 0.97751 0.0
N833 N 0.75999 0.49697 0.01595 0.0
N834 N 0.69385 0.48562 0.96421 0.0
C835 C 0.70287 0.45293 0.99158 0.0
C836 C 0.7386 0.45918 0.01972 0.0
C837 C 0.12493 0.72573 0.02929 0.0
C838 C 0.09011 0.75379 0.02494 0.0
C839 C 0.13878 0.70046 0.9949 0.0
C840 C 0.11873 0.70233 0.95438 0.0
H841 H 0.14148 0.72259 0.05983 0.0
H842 H 0.16555 0.6793 0.00025 0.0
S843 S 0.02697 0.77141 0.92519 0.0
N844 N 0.03637 0.78255 0.9764 0.0
N845 N 0.06274 0.73531 0.91139 0.0
C846 C 0.08446 0.73091 0.94909 0.0
C847 C 0.07011 0.75658 0.98439 0.0
loop_
_geom_bond_atom_site_label_1
_geom_bond_atom_site_label_2
_geom_bond_distance
_geom_bond_site_symmetry_2
_ccdc_geom_bond_type
Zn0 O6 1.969 . S
Zn0 O7 1.965 . S
Zn0 O11 2.024 . S
Zn0 O16 1.969 . S
Zn1 O8 1.969 . S
Zn1 O14 1.969 . S
Zn1 O15 1.965 . S
Zn1 O17 2.024 . S
C2 O3 1.229 . S
C2 O11 1.058 . S
O3 C2 1.229 . S
C4 O5 1.229 . S
C4 O17 1.058 . S
O5 C4 1.229 . S
O6 Zn0 1.969 . S
O6 C9 1.267 . S
O7 Zn0 1.965 . S
O7 C18 1.260 . S
O8 Zn1 1.969 . S
O8 C18 1.258 . S
C9 O6 1.267 . S
C9 O10 1.228 . S
O10 C9 1.228 . S
O11 Zn0 2.024 . S
O11 C2 1.058 . S
C12 O13 1.228 . S
C12 O14 1.267 . S
O13 C12 1.228 . S
O14 Zn1 1.969 . S
O14 C12 1.267 . S
O15 Zn1 1.965 . S
O15 C19 1.260 . S
O16 Zn0 1.969 . S
O16 C19 1.258 . S
O17 Zn1 2.024 . S
O17 C4 1.058 . S
C18 O7 1.260 . S
C18 O8 1.258 . S
C19 O15 1.260 . S
C19 O16 1.258 . S
Zn20 O26 1.969 . S
Zn20 O27 1.965 . S
Zn20 O31 2.024 . S
Zn20 O36 1.969 . S
Zn21 O28 1.969 . S
Zn21 O34 1.969 . S
Zn21 O35 1.965 . S
Zn21 O37 2.024 . S
C22 O23 1.229 . S
C22 O31 1.058 . S
O23 C22 1.229 . S
C24 O25 1.229 . S
C24 O37 1.058 . S
O25 C24 1.229 . S
O26 Zn20 1.969 . S
O26 C29 1.267 . S
O27 Zn20 1.965 . S
O27 C38 1.260 . S
O28 Zn21 1.969 . S
O28 C38 1.258 . S
C29 O26 1.267 . S
C29 O30 1.228 . S
O30 C29 1.228 . S
O31 Zn20 2.024 . S
O31 C22 1.058 . S
C32 O33 1.228 . S
C32 O34 1.267 . S
O33 C32 1.228 . S
O34 Zn21 1.969 . S
O34 C32 1.267 . S
O35 Zn21 1.965 . S
O35 C39 1.260 . S
O36 Zn20 1.969 . S
O36 C39 1.258 . S
O37 Zn21 2.024 . S
O37 C24 1.058 . S
C38 O27 1.260 . S
C38 O28 1.258 . S
C39 O35 1.260 . S
C39 O36 1.258 . S
Zn40 O46 1.969 . S
Zn40 O47 1.965 1_455 S
Zn40 O51 2.024 . S
Zn40 O56 1.969 1_455 S
Zn41 O48 1.969 . S
Zn41 O54 1.969 . S
Zn41 O55 1.965 . S
Zn41 O57 2.024 . S
C42 O43 1.229 . S
C42 O51 1.058 . S
O43 C42 1.229 . S
C44 O45 1.229 . S
C44 O57 1.058 . S
O45 C44 1.229 . S
O46 Zn40 1.969 . S
O46 C49 1.267 . S
O47 Zn40 1.965 1_655 S
O47 C58 1.260 . S
O48 Zn41 1.969 . S
O48 C58 1.258 . S
C49 O46 1.267 . S
C49 O50 1.228 . S
O50 C49 1.228 . S
O51 Zn40 2.024 . S
O51 C42 1.058 . S
C52 O53 1.228 . S
C52 O54 1.267 . S
O53 C52 1.228 . S
O54 Zn41 1.969 . S
O54 C52 1.267 . S
O55 Zn41 1.965 . S
O55 C59 1.260 . S
O56 Zn40 1.969 1_655 S
O56 C59 1.258 . S
O57 Zn41 2.024 . S
O57 C44 1.058 . S
C58 O47 1.260 . S
C58 O48 1.258 . S
C59 O55 1.260 . S
C59 O56 1.258 . S
Zn60 O66 1.969 . S
Zn60 O67 1.965 1_545 S
Zn60 O71 2.024 . S
Zn60 O76 1.969 1_545 S
Zn61 O68 1.969 . S
Zn61 O74 1.969 . S
Zn61 O75 1.965 . S
Zn61 O77 2.024 . S
C62 O63 1.229 . S
C62 O71 1.058 . S
O63 C62 1.229 . S
C64 O65 1.229 . S
C64 O77 1.058 . S
O65 C64 1.229 . S
O66 Zn60 1.969 . S
O66 C69 1.267 . S
O67 Zn60 1.965 1_565 S
O67 C78 1.260 . S
O68 Zn61 1.969 . S
O68 C78 1.258 . S
C69 O66 1.267 . S
C69 O70 1.228 . S
O70 C69 1.228 . S
O71 Zn60 2.024 . S
O71 C62 1.058 . S
C72 O73 1.228 . S
C72 O74 1.267 . S
O73 C72 1.228 . S
O74 Zn61 1.969 . S
O74 C72 1.267 . S
O75 Zn61 1.965 . S
O75 C79 1.260 . S
O76 Zn60 1.969 1_565 S
O76 C79 1.258 . S
O77 Zn61 2.024 . S
O77 C64 1.058 . S
C78 O67 1.260 . S
C78 O68 1.258 . S
C79 O75 1.260 . S
C79 O76 1.258 . S
Zn80 O86 1.969 . S
Zn80 O87 1.965 1_655 S
Zn80 O91 2.024 . S
Zn80 O96 1.969 1_655 S
Zn81 O88 1.969 . S
Zn81 O94 1.969 . S
Zn81 O95 1.965 . S
Zn81 O97 2.024 . S
C82 O83 1.229 . S
C82 O91 1.058 . S
O83 C82 1.229 . S
C84 O85 1.229 . S
C84 O97 1.058 . S
O85 C84 1.229 . S
O86 Zn80 1.969 . S
O86 C89 1.267 . S
O87 Zn80 1.965 1_455 S
O87 C98 1.260 . S
O88 Zn81 1.969 . S
O88 C98 1.258 . S
C89 O86 1.267 . S
C89 O90 1.228 . S
O90 C89 1.228 . S
O91 Zn80 2.024 . S
O91 C82 1.058 . S
C92 O93 1.228 . S
C92 O94 1.267 . S
O93 C92 1.228 . S
O94 Zn81 1.969 . S
O94 C92 1.267 . S
O95 Zn81 1.965 . S
O95 C99 1.260 . S
O96 Zn80 1.969 1_455 S
O96 C99 1.258 . S
O97 Zn81 2.024 . S
O97 C84 1.058 . S
C98 O87 1.260 . S
C98 O88 1.258 . S
C99 O95 1.260 . S
C99 O96 1.258 . S
Zn100 O106 1.969 . S
Zn100 O107 1.965 1_565 S
Zn100 O111 2.024 . S
Zn100 O116 1.969 1_565 S
Zn101 O108 1.969 . S
Zn101 O114 1.969 . S
Zn101 O115 1.965 . S
Zn101 O117 2.024 . S
C102 O103 1.229 . S
C102 O111 1.058 . S
O103 C102 1.229 . S
C104 O105 1.229 . S
C104 O117 1.058 . S
O105 C104 1.229 . S
O106 Zn100 1.969 . S
O106 C109 1.267 . S
O107 Zn100 1.965 1_545 S
O107 C118 1.260 . S
O108 Zn101 1.969 . S
O108 C118 1.258 . S
C109 O106 1.267 . S
C109 O110 1.228 . S
O110 C109 1.228 . S
O111 Zn100 2.024 . S
O111 C102 1.058 . S
C112 O113 1.228 . S
C112 O114 1.267 . S
O113 C112 1.228 . S
O114 Zn101 1.969 . S
O114 C112 1.267 . S
O115 Zn101 1.965 . S
O115 C119 1.260 . S
O116 Zn100 1.969 1_545 S
O116 C119 1.258 . S
O117 Zn101 2.024 . S
O117 C104 1.058 . S
C118 O107 1.260 . S
C118 O108 1.258 . S
C119 O115 1.260 . S
C119 O116 1.258 . S
Zn120 O126 1.969 . S
Zn120 O127 1.965 . S
Zn120 O131 2.024 . S
Zn120 O136 1.969 . S
Zn121 O128 1.969 . S
Zn121 O134 1.969 . S
Zn121 O135 1.965 . S
Zn121 O137 2.024 . S
C122 O123 1.229 . S
C122 O131 1.058 . S
O123 C122 1.229 . S
C124 O125 1.229 . S
C124 O137 1.058 . S
O125 C124 1.229 . S
O126 Zn120 1.969 . S
O126 C129 1.267 . S
O127 Zn120 1.965 . S
O127 C138 1.260 . S
O128 Zn121 1.969 . S
O128 C138 1.258 . S
C129 O126 1.267 . S
C129 O130 1.228 . S
O130 C129 1.228 . S
O131 Zn120 2.024 . S
O131 C122 1.058 . S
C132 O133 1.228 . S
C132 O134 1.267 . S
O133 C132 1.228 . S
O134 Zn121 1.969 . S
O134 C132 1.267 . S
O135 Zn121 1.965 . S
O135 C139 1.260 . S
O136 Zn120 1.969 . S
O136 C139 1.258 . S
O137 Zn121 2.024 . S
O137 C124 1.058 . S
C138 O127 1.260 . S
C138 O128 1.258 . S
C139 O135 1.260 . S
C139 O136 1.258 . S
Zn140 O146 1.969 . S
Zn140 O147 1.965 . S
Zn140 O151 2.024 . S
Zn140 O156 1.969 . S
Zn141 O148 1.969 . S
Zn141 O154 1.969 . S
Zn141 O155 1.965 . S
Zn141 O157 2.024 . S
C142 O143 1.229 . S
C142 O151 1.058 . S
O143 C142 1.229 . S
C144 O145 1.229 . S
C144 O157 1.058 . S
O145 C144 1.229 . S
O146 Zn140 1.969 . S
O146 C149 1.267 . S
O147 Zn140 1.965 . S
O147 C158 1.260 . S
O148 Zn141 1.969 . S
O148 C158 1.258 . S
C149 O146 1.267 . S
C149 O150 1.228 . S
O150 C149 1.228 . S
O151 Zn140 2.024 . S
O151 C142 1.058 . S
C152 O153 1.228 . S
C152 O154 1.267 . S
O153 C152 1.228 . S
O154 Zn141 1.969 . S
O154 C152 1.267 . S
O155 Zn141 1.965 . S
O155 C159 1.260 . S
O156 Zn140 1.969 . S
O156 C159 1.258 . S
O157 Zn141 2.024 . S
O157 C144 1.058 . S
C158 O147 1.260 . S
C158 O148 1.258 . S
C159 O155 1.260 . S
C159 O156 1.258 . S
Zn160 O166 1.969 . S
Zn160 O167 1.965 . S
Zn160 O171 2.024 . S
Zn160 O176 1.969 . S
Zn161 O168 1.969 . S
Zn161 O174 1.969 . S
Zn161 O175 1.965 . S
Zn161 O177 2.024 . S
C162 O163 1.229 . S
C162 O171 1.058 . S
O163 C162 1.229 . S
C164 O165 1.229 . S
C164 O177 1.058 . S
O165 C164 1.229 . S
O166 Zn160 1.969 . S
O166 C169 1.267 . S
O167 Zn160 1.965 . S
O167 C178 1.260 . S
O168 Zn161 1.969 . S
O168 C178 1.258 . S
C169 O166 1.267 . S
C169 O170 1.228 . S
O170 C169 1.228 . S
O171 Zn160 2.024 . S
O171 C162 1.058 . S
C172 O173 1.228 . S
C172 O174 1.267 . S
O173 C172 1.228 . S
O174 Zn161 1.969 . S
O174 C172 1.267 . S
O175 Zn161 1.965 . S
O175 C179 1.260 . S
O176 Zn160 1.969 . S
O176 C179 1.258 . S
O177 Zn161 2.024 . S
O177 C164 1.058 . S
C178 O167 1.260 . S
C178 O168 1.258 . S
C179 O175 1.260 . S
C179 O176 1.258 . S
Zn180 O186 1.969 . S
Zn180 O187 1.965 . S
Zn180 O191 2.024 . S
Zn180 O196 1.969 . S
Zn181 O188 1.969 . S
Zn181 O194 1.969 . S
Zn181 O195 1.965 . S
Zn181 O197 2.024 . S
C182 O183 1.229 . S
C182 O191 1.058 . S
O183 C182 1.229 . S
C184 O185 1.229 . S
C184 O197 1.058 . S
O185 C184 1.229 . S
O186 Zn180 1.969 . S
O186 C189 1.267 . S
O187 Zn180 1.965 . S
O187 C198 1.260 . S
O188 Zn181 1.969 . S
O188 C198 1.258 . S
C189 O186 1.267 . S
C189 O190 1.228 . S
O190 C189 1.228 . S
O191 Zn180 2.024 . S
O191 C182 1.058 . S
C192 O193 1.228 . S
C192 O194 1.267 . S
O193 C192 1.228 . S
O194 Zn181 1.969 . S
O194 C192 1.267 . S
O195 Zn181 1.965 . S
O195 C199 1.260 . S
O196 Zn180 1.969 . S
O196 C199 1.258 . S
O197 Zn181 2.024 . S
O197 C184 1.058 . S
C198 O187 1.260 . S
C198 O188 1.258 . S
C199 O195 1.260 . S
C199 O196 1.258 . S
Zn200 O206 1.969 . S
Zn200 O207 1.965 . S
Zn200 O211 2.024 . S
Zn200 O216 1.969 . S
Zn201 O208 1.969 1_655 S
Zn201 O214 1.969 . S
Zn201 O215 1.965 1_655 S
Zn201 O217 2.024 . S
C202 O203 1.229 . S
C202 O211 1.058 . S
O203 C202 1.229 . S
C204 O205 1.229 . S
C204 O217 1.058 . S
O205 C204 1.229 . S
O206 Zn200 1.969 . S
O206 C209 1.267 . S
O207 Zn200 1.965 . S
O207 C218 1.260 . S
O208 Zn201 1.969 1_455 S
O208 C218 1.258 . S
C209 O206 1.267 . S
C209 O210 1.228 . S
O210 C209 1.228 . S
O211 Zn200 2.024 . S
O211 C202 1.058 . S
C212 O213 1.228 . S
C212 O214 1.267 . S
O213 C212 1.228 . S
O214 Zn201 1.969 . S
O214 C212 1.267 . S
O215 Zn201 1.965 1_455 S
O215 C219 1.260 . S
O216 Zn200 1.969 . S
O216 C219 1.258 . S
O217 Zn201 2.024 . S
O217 C204 1.058 . S
C218 O207 1.260 . S
C218 O208 1.258 . S
C219 O215 1.260 . S
C219 O216 1.258 . S
Zn220 O226 1.969 . S
Zn220 O227 1.965 . S
Zn220 O231 2.024 . S
Zn220 O236 1.969 . S
Zn221 O228 1.969 1_565 S
Zn221 O234 1.969 . S
Zn221 O235 1.965 1_565 S
Zn221 O237 2.024 . S
C222 O223 1.229 . S
C222 O231 1.058 . S
O223 C222 1.229 . S
C224 O225 1.229 . S
C224 O237 1.058 . S
O225 C224 1.229 . S
O226 Zn220 1.969 . S
O226 C229 1.267 . S
O227 Zn220 1.965 . S
O227 C238 1.260 . S
O228 Zn221 1.969 1_545 S
O228 C238 1.258 . S
C229 O226 1.267 . S
C229 O230 1.228 . S
O230 C229 1.228 . S
O231 Zn220 2.024 . S
O231 C222 1.058 . S
C232 O233 1.228 . S
C232 O234 1.267 . S
O233 C232 1.228 . S
O234 Zn221 1.969 . S
O234 C232 1.267 . S
O235 Zn221 1.965 1_545 S
O235 C239 1.260 . S
O236 Zn220 1.969 . S
O236 C239 1.258 . S
O237 Zn221 2.024 . S
O237 C224 1.058 . S
C238 O227 1.260 . S
C238 O228 1.258 . S
C239 O235 1.260 . S
C239 O236 1.258 . S
Zn240 O246 1.969 . S
Zn240 O247 1.965 . S
Zn240 O251 2.024 . S
Zn240 O256 1.969 . S
Zn241 O248 1.969 1_455 S
Zn241 O254 1.969 . S
Zn241 O255 1.965 1_455 S
Zn241 O257 2.024 . S
C242 O243 1.229 . S
C242 O251 1.058 . S
O243 C242 1.229 . S
C244 O245 1.229 . S
C244 O257 1.058 . S
O245 C244 1.229 . S
O246 Zn240 1.969 . S
O246 C249 1.267 . S
O247 Zn240 1.965 . S
O247 C258 1.260 . S
O248 Zn241 1.969 1_655 S
O248 C258 1.258 . S
C249 O246 1.267 . S
C249 O250 1.228 . S
O250 C249 1.228 . S
O251 Zn240 2.024 . S
O251 C242 1.058 . S
C252 O253 1.228 . S
C252 O254 1.267 . S
O253 C252 1.228 . S
O254 Zn241 1.969 . S
O254 C252 1.267 . S
O255 Zn241 1.965 1_655 S
O255 C259 1.260 . S
O256 Zn240 1.969 . S
O256 C259 1.258 . S
O257 Zn241 2.024 . S
O257 C244 1.058 . S
C258 O247 1.260 . S
C258 O248 1.258 . S
C259 O255 1.260 . S
C259 O256 1.258 . S
Zn260 O266 1.969 . S
Zn260 O267 1.965 . S
Zn260 O271 2.024 . S
Zn260 O276 1.969 . S
Zn261 O268 1.969 1_545 S
Zn261 O274 1.969 . S
Zn261 O275 1.965 1_545 S
Zn261 O277 2.024 . S
C262 O263 1.229 . S
C262 O271 1.058 . S
O263 C262 1.229 . S
C264 O265 1.229 . S
C264 O277 1.058 . S
O265 C264 1.229 . S
O266 Zn260 1.969 . S
O266 C269 1.267 . S
O267 Zn260 1.965 . S
O267 C278 1.260 . S
O268 Zn261 1.969 1_565 S
O268 C278 1.258 . S
C269 O266 1.267 . S
C269 O270 1.228 . S
O270 C269 1.228 . S
O271 Zn260 2.024 . S
O271 C262 1.058 . S
C272 O273 1.228 . S
C272 O274 1.267 . S
O273 C272 1.228 . S
O274 Zn261 1.969 . S
O274 C272 1.267 . S
O275 Zn261 1.965 1_565 S
O275 C279 1.260 . S
O276 Zn260 1.969 . S
O276 C279 1.258 . S
O277 Zn261 2.024 . S
O277 C264 1.058 . S
C278 O267 1.260 . S
C278 O268 1.258 . S
C279 O275 1.260 . S
C279 O276 1.258 . S
Zn280 O286 1.969 . S
Zn280 O287 1.965 . S
Zn280 O291 2.024 . S
Zn280 O296 1.969 . S
Zn281 O288 1.969 . S
Zn281 O294 1.969 . S
Zn281 O295 1.965 . S
Zn281 O297 2.024 . S
C282 O283 1.229 . S
C282 O291 1.058 . S
O283 C282 1.229 . S
C284 O285 1.229 . S
C284 O297 1.058 . S
O285 C284 1.229 . S
O286 Zn280 1.969 . S
O286 C289 1.267 . S
O287 Zn280 1.965 . S
O287 C298 1.260 . S
O288 Zn281 1.969 . S
O288 C298 1.258 . S
C289 O286 1.267 . S
C289 O290 1.228 . S
O290 C289 1.228 . S
O291 Zn280 2.024 . S
O291 C282 1.058 . S
C292 O293 1.228 . S
C292 O294 1.267 . S
O293 C292 1.228 . S
O294 Zn281 1.969 . S
O294 C292 1.267 . S
O295 Zn281 1.965 . S
O295 C299 1.260 . S
O296 Zn280 1.969 . S
O296 C299 1.258 . S
O297 Zn281 2.024 . S
O297 C284 1.058 . S
C298 O287 1.260 . S
C298 O288 1.258 . S
C299 O295 1.260 . S
C299 O296 1.258 . S
Zn300 O306 1.969 . S
Zn300 O307 1.965 . S
Zn300 O311 2.024 . S
Zn300 O316 1.969 . S
Zn301 O308 1.969 . S
Zn301 O314 1.969 . S
Zn301 O315 1.965 . S
Zn301 O317 2.024 . S
C302 O303 1.229 . S
C302 O311 1.058 . S
O303 C302 1.229 . S
C304 O305 1.229 . S
C304 O317 1.058 . S
O305 C304 1.229 . S
O306 Zn300 1.969 . S
O306 C309 1.267 . S
O307 Zn300 1.965 . S
O307 C318 1.260 . S
O308 Zn301 1.969 . S
O308 C318 1.258 . S
C309 O306 1.267 . S
C309 O310 1.228 . S
O310 C309 1.228 . S
O311 Zn300 2.024 . S
O311 C302 1.058 . S
C312 O313 1.228 . S
C312 O314 1.267 . S
O313 C312 1.228 . S
O314 Zn301 1.969 . S
O314 C312 1.267 . S
O315 Zn301 1.965 . S
O315 C319 1.260 . S
O316 Zn300 1.969 . S
O316 C319 1.258 . S
O317 Zn301 2.024 . S
O317 C304 1.058 . S
C318 O307 1.260 . S
C318 O308 1.258 . S
C319 O315 1.260 . S
C319 O316 1.258 . S
C320 C321 1.369 . S
C320 C322 1.419 . S
C320 H324 0.930 . S
C321 C320 1.369 . S
C321 C330 1.429 . S
C322 C320 1.419 . S
C322 C323 1.363 . S
C322 H325 0.929 . S
C323 C322 1.363 . S
C323 C329 1.428 . S
H324 C320 0.930 . S
H325 C322 0.929 . S
S326 N327 1.613 . S
S326 N328 1.610 . S
N327 S326 1.613 . S
N327 C330 1.350 . S
N328 S326 1.610 . S
N328 C329 1.351 . S
C329 C323 1.428 . S
C329 N328 1.351 . S
C329 C330 1.434 . S
C330 C321 1.429 . S
C330 N327 1.350 . S
C330 C329 1.434 . S
C331 C332 1.369 . S
C331 C333 1.419 . S
C331 H335 0.930 . S
C332 C331 1.369 . S
C332 C341 1.429 . S
C333 C331 1.419 . S
C333 C334 1.363 . S
C333 H336 0.929 . S
C334 C333 1.363 . S
C334 C340 1.428 . S
H335 C331 0.930 . S
H336 C333 0.929 . S
S337 N338 1.613 . S
S337 N339 1.610 . S
N338 S337 1.613 . S
N338 C341 1.350 . S
N339 S337 1.610 . S
N339 C340 1.351 . S
C340 C334 1.428 . S
C340 N339 1.351 . S
C340 C341 1.434 . S
C341 C332 1.429 . S
C341 N338 1.350 . S
C341 C340 1.434 . S
C342 C343 1.369 . S
C342 C344 1.419 . S
C342 H346 0.930 . S
C343 C342 1.369 . S
C343 C352 1.429 . S
C344 C342 1.419 . S
C344 C345 1.363 . S
C344 H347 0.929 . S
C345 C344 1.363 . S
C345 C351 1.428 . S
H346 C342 0.930 . S
H347 C344 0.929 . S
S348 N349 1.613 1_455 S
S348 N350 1.610 1_455 S
N349 S348 1.613 1_655 S
N349 C352 1.350 . S
N350 S348 1.610 1_655 S
N350 C351 1.351 . S
C351 C345 1.428 . S
C351 N350 1.351 . S
C351 C352 1.434 . S
C352 C343 1.429 . S
C352 N349 1.350 . S
C352 C351 1.434 . S
C353 C354 1.369 . S
C353 C355 1.419 . S
C353 H357 0.930 . S
C354 C353 1.369 . S
C354 C363 1.429 . S
C355 C353 1.419 . S
C355 C356 1.363 . S
C355 H358 0.929 . S
C356 C355 1.363 . S
C356 C362 1.428 . S
H357 C353 0.930 . S
H358 C355 0.929 . S
S359 N360 1.613 . S
S359 N361 1.610 . S
N360 S359 1.613 . S
N360 C363 1.350 . S
N361 S359 1.610 . S
N361 C362 1.351 . S
C362 C356 1.428 . S
C362 N361 1.351 . S
C362 C363 1.434 . S
C363 C354 1.429 . S
C363 N360 1.350 . S
C363 C362 1.434 . S
C364 C365 1.369 . S
C364 C366 1.419 . S
C364 H368 0.930 . S
C365 C364 1.369 . S
C365 C374 1.429 . S
C366 C364 1.419 . S
C366 C367 1.363 . S
C366 H369 0.929 . S
C367 C366 1.363 . S
C367 C373 1.428 . S
H368 C364 0.930 . S
H369 C366 0.929 . S
S370 N371 1.613 . S
S370 N372 1.610 . S
N371 S370 1.613 . S
N371 C374 1.350 . S
N372 S370 1.610 . S
N372 C373 1.351 . S
C373 C367 1.428 . S
C373 N372 1.351 . S
C373 C374 1.434 . S
C374 C365 1.429 . S
C374 N371 1.350 . S
C374 C373 1.434 . S
C375 C376 1.369 . S
C375 C377 1.419 . S
C375 H379 0.930 . S
C376 C375 1.369 . S
C376 C385 1.429 . S
C377 C375 1.419 . S
C377 C378 1.363 . S
C377 H380 0.929 . S
C378 C377 1.363 . S
C378 C384 1.428 . S
H379 C375 0.930 . S
H380 C377 0.929 . S
S381 N382 1.613 . S
S381 N383 1.610 . S
N382 S381 1.613 . S
N382 C385 1.350 . S
N383 S381 1.610 . S
N383 C384 1.351 . S
C384 C378 1.428 . S
C384 N383 1.351 . S
C384 C385 1.434 . S
C385 C376 1.429 . S
C385 N382 1.350 . S
C385 C384 1.434 . S
C386 C387 1.369 . S
C386 C388 1.419 . S
C386 H390 0.930 . S
C387 C386 1.369 . S
C387 C396 1.429 . S
C388 C386 1.419 . S
C388 C389 1.363 . S
C388 H391 0.929 . S
C389 C388 1.363 . S
C389 C395 1.428 . S
H390 C386 0.930 . S
H391 C388 0.929 . S
S392 N393 1.613 . S
S392 N394 1.610 . S
N393 S392 1.613 . S
N393 C396 1.350 . S
N394 S392 1.610 . S
N394 C395 1.351 . S
C395 C389 1.428 . S
C395 N394 1.351 . S
C395 C396 1.434 . S
C396 C387 1.429 . S
C396 N393 1.350 . S
C396 C395 1.434 . S
C397 C398 1.369 . S
C397 C399 1.419 . S
C397 H401 0.930 . S
C398 C397 1.369 . S
C398 C407 1.429 . S
C399 C397 1.419 . S
C399 C400 1.363 . S
C399 H402 0.929 . S
C400 C399 1.363 . S
C400 C406 1.428 . S
H401 C397 0.930 . S
H402 C399 0.929 . S
S403 N404 1.613 . S
S403 N405 1.610 . S
N404 S403 1.613 . S
N404 C407 1.350 . S
N405 S403 1.610 . S
N405 C406 1.351 . S
C406 C400 1.428 . S
C406 N405 1.351 . S
C406 C407 1.434 . S
C407 C398 1.429 . S
C407 N404 1.350 . S
C407 C406 1.434 . S
C408 C409 1.369 . S
C408 C410 1.419 . S
C408 H412 0.930 . S
C409 C408 1.369 . S
C409 C418 1.429 . S
C410 C408 1.419 . S
C410 C411 1.363 . S
C410 H413 0.929 . S
C411 C410 1.363 . S
C411 C417 1.428 . S
H412 C408 0.930 . S
H413 C410 0.929 . S
S414 N415 1.613 . S
S414 N416 1.610 . S
N415 S414 1.613 . S
N415 C418 1.350 . S
N416 S414 1.610 . S
N416 C417 1.351 . S
C417 C411 1.428 . S
C417 N416 1.351 . S
C417 C418 1.434 . S
C418 C409 1.429 . S
C418 N415 1.350 . S
C418 C417 1.434 . S
C419 C420 1.369 . S
C419 C421 1.419 . S
C419 H423 0.930 . S
C420 C419 1.369 . S
C420 C429 1.429 . S
C421 C419 1.419 . S
C421 C422 1.363 . S
C421 H424 0.929 . S
C422 C421 1.363 . S
C422 C428 1.428 . S
H423 C419 0.930 . S
H424 C421 0.929 . S
S425 N426 1.613 . S
S425 N427 1.610 . S
N426 S425 1.613 . S
N426 C429 1.350 . S
N427 S425 1.610 . S
N427 C428 1.351 . S
C428 C422 1.428 . S
C428 N427 1.351 . S
C428 C429 1.434 . S
C429 C420 1.429 . S
C429 N426 1.350 . S
C429 C428 1.434 . S
C430 C431 1.369 . S
C430 C432 1.419 . S
C430 H434 0.930 . S
C431 C430 1.369 . S
C431 C440 1.429 . S
C432 C430 1.419 . S
C432 C433 1.363 . S
C432 H435 0.929 . S
C433 C432 1.363 . S
C433 C439 1.428 . S
H434 C430 0.930 . S
H435 C432 0.929 . S
S436 N437 1.613 . S
S436 N438 1.610 . S
N437 S436 1.613 . S
N437 C440 1.350 . S
N438 S436 1.610 . S
N438 C439 1.351 . S
C439 C433 1.428 . S
C439 N438 1.351 . S
C439 C440 1.434 . S
C440 C431 1.429 . S
C440 N437 1.350 . S
C440 C439 1.434 . S
C441 C442 1.369 . S
C441 C443 1.419 . S
C441 H445 0.930 . S
C442 C441 1.369 . S
C442 C451 1.429 . S
C443 C441 1.419 . S
C443 C444 1.363 . S
C443 H446 0.929 . S
C444 C443 1.363 . S
C444 C450 1.428 . S
H445 C441 0.930 . S
H446 C443 0.929 . S
S447 N448 1.613 . S
S447 N449 1.610 . S
N448 S447 1.613 . S
N448 C451 1.350 . S
N449 S447 1.610 . S
N449 C450 1.351 . S
C450 C444 1.428 . S
C450 N449 1.351 . S
C450 C451 1.434 . S
C451 C442 1.429 . S
C451 N448 1.350 . S
C451 C450 1.434 . S
C452 C453 1.369 . S
C452 C454 1.419 . S
C452 H456 0.930 . S
C453 C452 1.369 . S
C453 C462 1.429 . S
C454 C452 1.419 . S
C454 C455 1.363 . S
C454 H457 0.929 . S
C455 C454 1.363 . S
C455 C461 1.428 . S
H456 C452 0.930 . S
H457 C454 0.929 . S
S458 N459 1.613 1_545 S
S458 N460 1.610 . S
N459 S458 1.613 1_565 S
N459 C462 1.350 . S
N460 S458 1.610 . S
N460 C461 1.351 1_545 S
C461 C455 1.428 . S
C461 N460 1.351 1_565 S
C461 C462 1.434 . S
C462 C453 1.429 . S
C462 N459 1.350 . S
C462 C461 1.434 . S
C463 C464 1.369 . S
C463 C465 1.419 . S
C463 H467 0.930 . S
C464 C463 1.369 . S
C464 C473 1.429 . S
C465 C463 1.419 . S
C465 C466 1.363 . S
C465 H468 0.929 . S
C466 C465 1.363 . S
C466 C472 1.428 . S
H467 C463 0.930 . S
H468 C465 0.929 . S
S469 N470 1.613 . S
S469 N471 1.610 . S
N470 S469 1.613 . S
N470 C473 1.350 . S
N471 S469 1.610 . S
N471 C472 1.351 . S
C472 C466 1.428 . S
C472 N471 1.351 . S
C472 C473 1.434 . S
C473 C464 1.429 . S
C473 N470 1.350 . S
C473 C472 1.434 . S
C474 C475 1.369 . S
C474 C476 1.419 . S
C474 H478 0.930 . S
C475 C474 1.369 . S
C475 C484 1.429 . S
C476 C474 1.419 . S
C476 C477 1.363 . S
C476 H479 0.929 . S
C477 C476 1.363 . S
C477 C483 1.428 . S
H478 C474 0.930 . S
H479 C476 0.929 . S
S480 N481 1.613 . S
S480 N482 1.610 . S
N481 S480 1.613 . S
N481 C484 1.350 . S
N482 S480 1.610 . S
N482 C483 1.351 . S
C483 C477 1.428 . S
C483 N482 1.351 . S
C483 C484 1.434 . S
C484 C475 1.429 . S
C484 N481 1.350 . S
C484 C483 1.434 . S
C485 C486 1.369 . S
C485 C487 1.419 . S
C485 H489 0.930 . S
C486 C485 1.369 . S
C486 C495 1.429 . S
C487 C485 1.419 . S
C487 C488 1.363 . S
C487 H490 0.929 . S
C488 C487 1.363 . S
C488 C494 1.428 . S
H489 C485 0.930 . S
H490 C487 0.929 . S
S491 N492 1.613 . S
S491 N493 1.610 . S
N492 S491 1.613 . S
N492 C495 1.350 . S
N493 S491 1.610 . S
N493 C494 1.351 . S
C494 C488 1.428 . S
C494 N493 1.351 . S
C494 C495 1.434 . S
C495 C486 1.429 . S
C495 N492 1.350 . S
C495 C494 1.434 . S
C496 C497 1.369 . S
C496 C498 1.419 . S
C496 H500 0.930 . S
C497 C496 1.369 . S
C497 C506 1.429 . S
C498 C496 1.419 . S
C498 C499 1.363 . S
C498 H501 0.929 . S
C499 C498 1.363 . S
C499 C505 1.428 . S
H500 C496 0.930 . S
H501 C498 0.929 . S
S502 N503 1.613 . S
S502 N504 1.610 1_545 S
N503 S502 1.613 . S
N503 C506 1.350 1_545 S
N504 S502 1.610 1_565 S
N504 C505 1.351 . S
C505 C499 1.428 . S
C505 N504 1.351 . S
C505 C506 1.434 . S
C506 C497 1.429 . S
C506 N503 1.350 1_565 S
C506 C505 1.434 . S
C507 C508 1.369 . S
C507 C509 1.419 . S
C507 H511 0.930 . S
C508 C507 1.369 . S
C508 C517 1.429 . S
C509 C507 1.419 . S
C509 C510 1.363 . S
C509 H512 0.929 . S
C510 C509 1.363 . S
C510 C516 1.428 . S
H511 C507 0.930 . S
H512 C509 0.929 . S
S513 N514 1.613 . S
S513 N515 1.610 . S
N514 S513 1.613 . S
N514 C517 1.350 . S
N515 S513 1.610 . S
N515 C516 1.351 . S
C516 C510 1.428 . S
C516 N515 1.351 . S
C516 C517 1.434 . S
C517 C508 1.429 . S
C517 N514 1.350 . S
C517 C516 1.434 . S
C518 C519 1.369 . S
C518 C520 1.419 . S
C518 H522 0.930 . S
C519 C518 1.369 . S
C519 C528 1.429 . S
C520 C518 1.419 . S
C520 C521 1.363 . S
C520 H523 0.929 . S
C521 C520 1.363 . S
C521 C527 1.428 . S
H522 C518 0.930 . S
H523 C520 0.929 . S
S524 N525 1.613 . S
S524 N526 1.610 . S
N525 S524 1.613 . S
N525 C528 1.350 . S
N526 S524 1.610 . S
N526 C527 1.351 . S
C527 C521 1.428 . S
C527 N526 1.351 . S
C527 C528 1.434 . S
C528 C519 1.429 . S
C528 N525 1.350 . S
C528 C527 1.434 . S
C529 C530 1.369 . S
C529 C531 1.419 . S
C529 H533 0.930 . S
C530 C529 1.369 . S
C530 C539 1.429 . S
C531 C529 1.419 . S
C531 C532 1.363 . S
C531 H534 0.929 . S
C532 C531 1.363 . S
C532 C538 1.428 . S
H533 C529 0.930 . S
H534 C531 0.929 . S
S535 N536 1.613 . S
S535 N537 1.610 . S
N536 S535 1.613 . S
N536 C539 1.350 . S
N537 S535 1.610 . S
N537 C538 1.351 . S
C538 C532 1.428 . S
C538 N537 1.351 . S
C538 C539 1.434 . S
C539 C530 1.429 . S
C539 N536 1.350 . S
C539 C538 1.434 . S
C540 C541 1.369 . S
C540 C542 1.419 . S
C540 H544 0.930 . S
C541 C540 1.369 . S
C541 C550 1.429 . S
C542 C540 1.419 . S
C542 C543 1.363 . S
C542 H545 0.929 . S
C543 C542 1.363 . S
C543 C549 1.428 . S
H544 C540 0.930 . S
H545 C542 0.929 . S
S546 N547 1.613 . S
S546 N548 1.610 . S
N547 S546 1.613 . S
N547 C550 1.350 . S
N548 S546 1.610 . S
N548 C549 1.351 . S
C549 C543 1.428 . S
C549 N548 1.351 . S
C549 C550 1.434 . S
C550 C541 1.429 . S
C550 N547 1.350 . S
C550 C549 1.434 . S
C551 C552 1.369 . S
C551 C553 1.419 . S
C551 H555 0.930 . S
C552 C551 1.369 . S
C552 C561 1.429 . S
C553 C551 1.419 . S
C553 C554 1.363 . S
C553 H556 0.929 . S
C554 C553 1.363 . S
C554 C560 1.428 . S
H555 C551 0.930 . S
H556 C553 0.929 . S
S557 N558 1.613 . S
S557 N559 1.610 . S
N558 S557 1.613 . S
N558 C561 1.350 . S
N559 S557 1.610 . S
N559 C560 1.351 . S
C560 C554 1.428 . S
C560 N559 1.351 . S
C560 C561 1.434 . S
C561 C552 1.429 . S
C561 N558 1.350 . S
C561 C560 1.434 . S
C562 C563 1.369 . S
C562 C564 1.419 . S
C562 H566 0.930 . S
C563 C562 1.369 . S
C563 C572 1.429 . S
C564 C562 1.419 . S
C564 C565 1.363 . S
C564 H567 0.929 . S
C565 C564 1.363 . S
C565 C571 1.428 . S
H566 C562 0.930 . S
H567 C564 0.929 . S
S568 N569 1.613 . S
S568 N570 1.610 . S
N569 S568 1.613 . S
N569 C572 1.350 . S
N570 S568 1.610 . S
N570 C571 1.351 . S
C571 C565 1.428 . S
C571 N570 1.351 . S
C571 C572 1.434 . S
C572 C563 1.429 . S
C572 N569 1.350 . S
C572 C571 1.434 . S
C573 C574 1.369 . S
C573 C575 1.419 . S
C573 H577 0.930 . S
C574 C573 1.369 . S
C574 C583 1.429 . S
C575 C573 1.419 . S
C575 C576 1.363 . S
C575 H578 0.929 . S
C576 C575 1.363 . S
C576 C582 1.428 . S
H577 C573 0.930 . S
H578 C575 0.929 . S
S579 N580 1.613 1_655 S
S579 N581 1.610 1_655 S
N580 S579 1.613 1_455 S
N580 C583 1.350 . S
N581 S579 1.610 1_455 S
N581 C582 1.351 . S
C582 C576 1.428 . S
C582 N581 1.351 . S
C582 C583 1.434 . S
C583 C574 1.429 . S
C583 N580 1.350 . S
C583 C582 1.434 . S
C584 C585 1.369 . S
C584 C586 1.419 . S
C584 H588 0.930 . S
C585 C584 1.369 . S
C585 C594 1.429 . S
C586 C584 1.419 . S
C586 C587 1.363 . S
C586 H589 0.929 . S
C587 C586 1.363 . S
C587 C593 1.428 . S
H588 C584 0.930 . S
H589 C586 0.929 . S
S590 N591 1.613 . S
S590 N592 1.610 . S
N591 S590 1.613 . S
N591 C594 1.350 . S
N592 S590 1.610 . S
N592 C593 1.351 . S
C593 C587 1.428 . S
C593 N592 1.351 . S
C593 C594 1.434 . S
C594 C585 1.429 . S
C594 N591 1.350 . S
C594 C593 1.434 . S
C595 C596 1.369 . S
C595 C597 1.419 . S
C595 H599 0.930 . S
C596 C595 1.369 . S
C596 C605 1.429 . S
C597 C595 1.419 . S
C597 C598 1.363 . S
C597 H600 0.929 . S
C598 C597 1.363 . S
C598 C604 1.428 . S
H599 C595 0.930 . S
H600 C597 0.929 . S
S601 N602 1.613 . S
S601 N603 1.610 . S
N602 S601 1.613 . S
N602 C605 1.350 . S
N603 S601 1.610 . S
N603 C604 1.351 . S
C604 C598 1.428 . S
C604 N603 1.351 . S
C604 C605 1.434 . S
C605 C596 1.429 . S
C605 N602 1.350 . S
C605 C604 1.434 . S
C606 C607 1.369 . S
C606 C608 1.419 . S
C606 H610 0.930 . S
C607 C606 1.369 . S
C607 C616 1.429 . S
C608 C606 1.419 . S
C608 C609 1.363 . S
C608 H611 0.929 . S
C609 C608 1.363 . S
C609 C615 1.428 . S
H610 C606 0.930 . S
H611 C608 0.929 . S
S612 N613 1.613 . S
S612 N614 1.610 . S
N613 S612 1.613 . S
N613 C616 1.350 . S
N614 S612 1.610 . S
N614 C615 1.351 . S
C615 C609 1.428 . S
C615 N614 1.351 . S
C615 C616 1.434 . S
C616 C607 1.429 . S
C616 N613 1.350 . S
C616 C615 1.434 . S
C617 C618 1.369 . S
C617 C619 1.419 . S
C617 H621 0.930 . S
C618 C617 1.369 . S
C618 C627 1.429 . S
C619 C617 1.419 . S
C619 C620 1.363 . S
C619 H622 0.929 . S
C620 C619 1.363 . S
C620 C626 1.428 . S
H621 C617 0.930 . S
H622 C619 0.929 . S
S623 N624 1.613 . S
S623 N625 1.610 . S
N624 S623 1.613 . S
N624 C627 1.350 . S
N625 S623 1.610 . S
N625 C626 1.351 . S
C626 C620 1.428 . S
C626 N625 1.351 . S
C626 C627 1.434 . S
C627 C618 1.429 . S
C627 N624 1.350 . S
C627 C626 1.434 . S
C628 C629 1.369 . S
C628 C630 1.419 . S
C628 H632 0.930 . S
C629 C628 1.369 . S
C629 C638 1.429 . S
C630 C628 1.419 . S
C630 C631 1.363 . S
C630 H633 0.929 . S
C631 C630 1.363 . S
C631 C637 1.428 . S
H632 C628 0.930 . S
H633 C630 0.929 . S
S634 N635 1.613 . S
S634 N636 1.610 . S
N635 S634 1.613 . S
N635 C638 1.350 . S
N636 S634 1.610 . S
N636 C637 1.351 . S
C637 C631 1.428 . S
C637 N636 1.351 . S
C637 C638 1.434 . S
C638 C629 1.429 . S
C638 N635 1.350 . S
C638 C637 1.434 . S
C639 C640 1.369 . S
C639 C641 1.419 . S
C639 H643 0.930 . S
C640 C639 1.369 . S
C640 C649 1.429 . S
C641 C639 1.419 . S
C641 C642 1.363 . S
C641 H644 0.929 . S
C642 C641 1.363 . S
C642 C648 1.428 . S
H643 C639 0.930 . S
H644 C641 0.929 . S
S645 N646 1.613 . S
S645 N647 1.610 . S
N646 S645 1.613 . S
N646 C649 1.350 . S
N647 S645 1.610 . S
N647 C648 1.351 . S
C648 C642 1.428 . S
C648 N647 1.351 . S
C648 C649 1.434 . S
C649 C640 1.429 . S
C649 N646 1.350 . S
C649 C648 1.434 . S
C650 C651 1.369 . S
C650 C652 1.419 . S
C650 H654 0.930 . S
C651 C650 1.369 . S
C651 C660 1.429 . S
C652 C650 1.419 . S
C652 C653 1.363 . S
C652 H655 0.929 . S
C653 C652 1.363 . S
C653 C659 1.428 . S
H654 C650 0.930 . S
H655 C652 0.929 . S
S656 N657 1.613 . S
S656 N658 1.610 . S
N657 S656 1.613 . S
N657 C660 1.350 . S
N658 S656 1.610 . S
N658 C659 1.351 . S
C659 C653 1.428 . S
C659 N658 1.351 . S
C659 C660 1.434 . S
C660 C651 1.429 . S
C660 N657 1.350 . S
C660 C659 1.434 . S
C661 C662 1.369 . S
C661 C663 1.419 . S
C661 H665 0.930 . S
C662 C661 1.369 . S
C662 C671 1.429 . S
C663 C661 1.419 . S
C663 C664 1.363 . S
C663 H666 0.929 . S
C664 C663 1.363 . S
C664 C670 1.428 . S
H665 C661 0.930 . S
H666 C663 0.929 . S
S667 N668 1.613 . S
S667 N669 1.610 . S
N668 S667 1.613 . S
N668 C671 1.350 . S
N669 S667 1.610 . S
N669 C670 1.351 . S
C670 C664 1.428 . S
C670 N669 1.351 . S
C670 C671 1.434 . S
C671 C662 1.429 . S
C671 N668 1.350 . S
C671 C670 1.434 . S
C672 C673 1.369 . S
C672 C674 1.419 . S
C672 H676 0.930 . S
C673 C672 1.369 . S
C673 C682 1.429 . S
C674 C672 1.419 . S
C674 C675 1.363 . S
C674 H677 0.929 . S
C675 C674 1.363 . S
C675 C681 1.428 . S
H676 C672 0.930 . S
H677 C674 0.929 . S
S678 N679 1.613 . S
S678 N680 1.610 . S
N679 S678 1.613 . S
N679 C682 1.350 . S
N680 S678 1.610 . S
N680 C681 1.351 . S
C681 C675 1.428 . S
C681 N680 1.351 . S
C681 C682 1.434 . S
C682 C673 1.429 . S
C682 N679 1.350 . S
C682 C681 1.434 . S
C683 C684 1.369 . S
C683 C685 1.419 . S
C683 H687 0.930 . S
C684 C683 1.369 . S
C684 C693 1.429 . S
C685 C683 1.419 . S
C685 C686 1.363 . S
C685 H688 0.929 . S
C686 C685 1.363 . S
C686 C692 1.428 . S
H687 C683 0.930 . S
H688 C685 0.929 . S
S689 N690 1.613 . S
S689 N691 1.610 . S
N690 S689 1.613 . S
N690 C693 1.350 . S
N691 S689 1.610 . S
N691 C692 1.351 . S
C692 C686 1.428 . S
C692 N691 1.351 . S
C692 C693 1.434 . S
C693 C684 1.429 . S
C693 N690 1.350 . S
C693 C692 1.434 . S
C694 C695 1.369 . S
C694 C696 1.419 . S
C694 H698 0.930 . S
C695 C694 1.369 . S
C695 C704 1.429 . S
C696 C694 1.419 . S
C696 C697 1.363 . S
C696 H699 0.929 . S
C697 C696 1.363 . S
C697 C703 1.428 . S
H698 C694 0.930 . S
H699 C696 0.929 . S
S700 N701 1.613 . S
S700 N702 1.610 . S
N701 S700 1.613 . S
N701 C704 1.350 . S
N702 S700 1.610 . S
N702 C703 1.351 . S
C703 C697 1.428 . S
C703 N702 1.351 . S
C703 C704 1.434 . S
C704 C695 1.429 . S
C704 N701 1.350 . S
C704 C703 1.434 . S
C705 C706 1.369 . S
C705 C707 1.419 . S
C705 H709 0.930 . S
C706 C705 1.369 . S
C706 C715 1.429 . S
C707 C705 1.419 . S
C707 C708 1.363 . S
C707 H710 0.929 . S
C708 C707 1.363 . S
C708 C714 1.428 . S
H709 C705 0.930 . S
H710 C707 0.929 . S
S711 N712 1.613 . S
S711 N713 1.610 . S
N712 S711 1.613 . S
N712 C715 1.350 . S
N713 S711 1.610 . S
N713 C714 1.351 . S
C714 C708 1.428 . S
C714 N713 1.351 . S
C714 C715 1.434 . S
C715 C706 1.429 . S
C715 N712 1.350 . S
C715 C714 1.434 . S
C716 C717 1.369 . S
C716 C718 1.419 . S
C716 H720 0.930 . S
C717 C716 1.369 . S
C717 C726 1.429 1_556 S
C718 C716 1.419 . S
C718 C719 1.363 1_556 S
C718 H721 0.929 . S
C719 C718 1.363 1_554 S
C719 C725 1.428 . S
H720 C716 0.930 . S
H721 C718 0.929 . S
S722 N723 1.613 . S
S722 N724 1.610 . S
N723 S722 1.613 . S
N723 C726 1.350 . S
N724 S722 1.610 . S
N724 C725 1.351 . S
C725 C719 1.428 . S
C725 N724 1.351 . S
C725 C726 1.434 . S
C726 C717 1.429 1_554 S
C726 N723 1.350 . S
C726 C725 1.434 . S
C727 C728 1.369 . S
C727 C729 1.419 1_554 S
C727 H731 0.930 . S
C728 C727 1.369 . S
C728 C737 1.429 . S
C729 C727 1.419 1_556 S
C729 C730 1.363 . S
C729 H732 0.929 . S
C730 C729 1.363 . S
C730 C736 1.428 1_556 S
H731 C727 0.930 . S
H732 C729 0.929 . S
S733 N734 1.613 . S
S733 N735 1.610 . S
N734 S733 1.613 . S
N734 C737 1.350 . S
N735 S733 1.610 . S
N735 C736 1.351 . S
C736 C730 1.428 1_554 S
C736 N735 1.351 . S
C736 C737 1.434 . S
C737 C728 1.429 . S
C737 N734 1.350 . S
C737 C736 1.434 . S
C738 C739 1.369 . S
C738 C740 1.419 1_556 S
C738 H742 0.930 . S
C739 C738 1.369 . S
C739 C748 1.429 . S
C740 C738 1.419 1_554 S
C740 C741 1.363 . S
C740 H743 0.929 . S
C741 C740 1.363 . S
C741 C747 1.428 . S
H742 C738 0.930 . S
H743 C740 0.929 . S
S744 N745 1.613 1_554 S
S744 N746 1.610 . S
N745 S744 1.613 1_556 S
N745 C748 1.350 . S
N746 S744 1.610 . S
N746 C747 1.351 . S
C747 C741 1.428 . S
C747 N746 1.351 . S
C747 C748 1.434 1_554 S
C748 C739 1.429 . S
C748 N745 1.350 . S
C748 C747 1.434 1_556 S
C749 C750 1.369 . S
C749 C751 1.419 . S
C749 H753 0.930 . S
C750 C749 1.369 . S
C750 C759 1.429 1_554 S
C751 C749 1.419 . S
C751 C752 1.363 1_554 S
C751 H754 0.929 . S
C752 C751 1.363 1_556 S
C752 C758 1.428 . S
H753 C749 0.930 . S
H754 C751 0.929 . S
S755 N756 1.613 . S
S755 N757 1.610 . S
N756 S755 1.613 . S
N756 C759 1.350 . S
N757 S755 1.610 . S
N757 C758 1.351 . S
C758 C752 1.428 . S
C758 N757 1.351 . S
C758 C759 1.434 . S
C759 C750 1.429 1_556 S
C759 N756 1.350 . S
C759 C758 1.434 . S
C760 C761 1.369 . S
C760 C762 1.419 . S
C760 H764 0.930 . S
C761 C760 1.369 . S
C761 C770 1.429 . S
C762 C760 1.419 . S
C762 C763 1.363 . S
C762 H765 0.929 . S
C763 C762 1.363 . S
C763 C769 1.428 . S
H764 C760 0.930 . S
H765 C762 0.929 . S
S766 N767 1.613 1_545 S
S766 N768 1.610 1_545 S
N767 S766 1.613 1_565 S
N767 C770 1.350 . S
N768 S766 1.610 1_565 S
N768 C769 1.351 . S
C769 C763 1.428 . S
C769 N768 1.351 . S
C769 C770 1.434 . S
C770 C761 1.429 . S
C770 N767 1.350 . S
C770 C769 1.434 . S
C771 C772 1.369 . S
C771 C773 1.419 . S
C771 H775 0.930 . S
C772 C771 1.369 . S
C772 C781 1.429 . S
C773 C771 1.419 . S
C773 C774 1.363 . S
C773 H776 0.929 . S
C774 C773 1.363 . S
C774 C780 1.428 . S
H775 C771 0.930 . S
H776 C773 0.929 . S
S777 N778 1.613 . S
S777 N779 1.610 . S
N778 S777 1.613 . S
N778 C781 1.350 . S
N779 S777 1.610 . S
N779 C780 1.351 . S
C780 C774 1.428 . S
C780 N779 1.351 . S
C780 C781 1.434 . S
C781 C772 1.429 . S
C781 N778 1.350 . S
C781 C780 1.434 . S
C782 C783 1.369 . S
C782 C784 1.419 . S
C782 H786 0.930 . S
C783 C782 1.369 . S
C783 C792 1.429 . S
C784 C782 1.419 . S
C784 C785 1.363 . S
C784 H787 0.929 . S
C785 C784 1.363 . S
C785 C791 1.428 . S
H786 C782 0.930 . S
H787 C784 0.929 . S
S788 N789 1.613 . S
S788 N790 1.610 . S
N789 S788 1.613 . S
N789 C792 1.350 . S
N790 S788 1.610 . S
N790 C791 1.351 . S
C791 C785 1.428 . S
C791 N790 1.351 . S
C791 C792 1.434 . S
C792 C783 1.429 . S
C792 N789 1.350 . S
C792 C791 1.434 . S
C793 C794 1.369 . S
C793 C795 1.419 . S
C793 H797 0.930 . S
C794 C793 1.369 . S
C794 C803 1.429 . S
C795 C793 1.419 . S
C795 C796 1.363 . S
C795 H798 0.929 . S
C796 C795 1.363 . S
C796 C802 1.428 . S
H797 C793 0.930 . S
H798 C795 0.929 . S
S799 N800 1.613 . S
S799 N801 1.610 . S
N800 S799 1.613 . S
N800 C803 1.350 . S
N801 S799 1.610 . S
N801 C802 1.351 . S
C802 C796 1.428 . S
C802 N801 1.351 . S
C802 C803 1.434 . S
C803 C794 1.429 . S
C803 N800 1.350 . S
C803 C802 1.434 . S
C804 C805 1.369 . S
C804 C806 1.419 1_556 S
C804 H808 0.930 . S
C805 C804 1.369 . S
C805 C814 1.429 . S
C806 C804 1.419 1_554 S
C806 C807 1.363 . S
C806 H809 0.929 . S
C807 C806 1.363 . S
C807 C813 1.428 1_554 S
H808 C804 0.930 . S
H809 C806 0.929 . S
S810 N811 1.613 1_565 S
S810 N812 1.610 1_556 S
N811 S810 1.613 1_545 S
N811 C814 1.350 . S
N812 S810 1.610 1_554 S
N812 C813 1.351 1_564 S
C813 C807 1.428 1_556 S
C813 N812 1.351 1_546 S
C813 C814 1.434 . S
C814 C805 1.429 . S
C814 N811 1.350 . S
C814 C813 1.434 . S
C815 C816 1.369 . S
C815 C817 1.419 1_556 S
C815 H819 0.930 . S
C816 C815 1.369 . S
C816 C825 1.429 . S
C817 C815 1.419 1_554 S
C817 C818 1.363 . S
C817 H820 0.929 . S
C818 C817 1.363 . S
C818 C824 1.428 . S
H819 C815 0.930 . S
H820 C817 0.929 . S
S821 N822 1.613 . S
S821 N823 1.610 1_556 S
N822 S821 1.613 . S
N822 C825 1.350 . S
N823 S821 1.610 1_554 S
N823 C824 1.351 . S
C824 C818 1.428 . S
C824 N823 1.351 . S
C824 C825 1.434 1_554 S
C825 C816 1.429 . S
C825 N822 1.350 . S
C825 C824 1.434 1_556 S
C826 C827 1.369 . S
C826 C828 1.419 1_554 S
C826 H830 0.930 . S
C827 C826 1.369 . S
C827 C836 1.429 1_554 S
C828 C826 1.419 1_556 S
C828 C829 1.363 . S
C828 H831 0.929 . S
C829 C828 1.363 . S
C829 C835 1.428 . S
H830 C826 0.930 . S
H831 C828 0.929 . S
S832 N833 1.606 1_556 S
S832 N834 1.610 . S
N833 S832 1.606 1_554 S
N833 C836 1.349 1_554 S
N834 S832 1.610 . S
N834 C835 1.351 . S
C835 C829 1.428 . S
C835 N834 1.351 . S
C835 C836 1.434 . S
C836 C827 1.429 1_556 S
C836 N833 1.349 1_556 S
C836 C835 1.434 . S
C837 C838 1.369 . S
C837 C839 1.419 1_554 S
C837 H841 0.930 . S
C838 C837 1.369 . S
C838 C847 1.429 1_554 S
C839 C837 1.419 1_556 S
C839 C840 1.363 . S
C839 H842 0.929 1_556 S
C840 C839 1.363 . S
C840 C846 1.428 . S
H841 C837 0.930 . S
H842 C839 0.929 1_554 S
S843 N844 1.613 . S
S843 N845 1.610 . S
N844 S843 1.613 . S
N844 C847 1.350 . S
N845 S843 1.610 . S
N845 C846 1.351 . S
C846 C840 1.428 . S
C846 N845 1.351 . S
C846 C847 1.434 . S
C847 C838 1.429 1_556 S
C847 N844 1.350 . S
C847 C846 1.434 . S
C321 C18 1.939 . S
C323 C118 1.934 . S
C332 C138 1.937 . S
C334 C38 1.936 . S
C343 C58 1.938 . S
C345 C158 1.936 . S
C354 C78 1.939 . S
C356 C98 1.933 . S
C365 C279 1.931 . S
C367 C179 1.934 . S
C376 C299 1.937 . S
C378 C199 1.931 . S
C387 C219 1.936 . S
C389 C319 1.931 . S
C398 C239 1.939 . S
C400 C259 1.936 . S
C409 C9 1.828 . S
C411 C62 1.700 . S
C420 C29 1.826 . S
C422 C2 1.703 . S
C431 C49 1.824 . S
C433 C22 1.708 . S
C442 C69 1.822 . S
C444 C42 1.707 . S
C453 C89 1.827 . S
C455 C102 1.706 . S
C464 C122 1.697 . S
C466 C109 1.830 . S
C475 C129 1.825 . S
C477 C142 1.708 . S
C486 C82 1.711 . S
C488 C149 1.824 . S
C497 C224 1.708 . S
C499 C172 1.827 . S
C508 C192 1.822 . S
C510 C164 1.706 . S
C519 C212 1.821 . S
C521 C184 1.708 . S
C530 C232 1.823 . S
C532 C204 1.704 . S
C541 C252 1.827 . S
C543 C264 1.701 . S
C552 C272 1.827 . S
C554 C284 1.707 . S
C563 C292 1.822 . S
C565 C304 1.706 . S
C574 C312 1.832 . S
C576 C244 1.701 . S
C585 C12 0.641 . S
C587 C52 0.628 . S
C596 C32 0.628 . S
C598 C72 0.643 . S
C607 C132 0.625 . S
C609 C92 0.639 . S
C618 C152 0.647 . S
C620 C112 0.640 . S
C629 C209 0.648 . S
C631 C169 0.640 . S
C640 C229 0.626 . S
C642 C189 0.632 . S
C651 C249 0.625 . S
C653 C289 0.634 . S
C662 C269 0.626 . S
C664 C309 0.640 . S
C673 C4 1.362 . S
C675 C238 1.438 . S
C684 C178 1.447 . S
C686 C24 1.353 . S
C695 C44 1.353 . S
C697 C198 1.440 . S
C706 C218 1.442 . S
C708 C64 1.351 . S
C717 C278 1.447 . S
C719 C84 1.355 . S
C728 C104 1.350 . S
C730 C298 1.445 . S
C739 C318 1.441 . S
C741 C124 1.352 . S
C750 C144 1.361 . S
C752 C258 1.438 . S
C761 C162 1.363 . S
C763 C79 1.441 . S
C772 C182 1.362 . S
C774 C19 1.442 . S
C783 C39 1.444 . S
C785 C202 1.358 . S
C794 C222 1.351 . S
C796 C59 1.445 . S
C805 C242 1.361 . S
C807 C119 1.443 . S
C816 C262 1.351 . S
C818 C139 1.442 . S
C827 C159 1.440 . S
C829 C282 1.362 . S
C838 C99 1.447 . S
C840 C302 1.352 . S
